drugbank_target|P17544 Cyclic AMP-dependent transcription factor ATF-7 (DB00852)
 OpenBabel12092121013D

  0  0  0     0  0            999 V3000
M  V30 BEGIN CTAB
M  V30 COUNTS 7464 7549 0 0 0
M  V30 BEGIN ATOM
M  V30 1 H -0.908 1.98254 -0.117106 0
M  V30 2 N 0 1.576 0 0
M  V30 3 C 0.933 2.03868 1.02534 0
M  V30 4 C 1.911 0.928543 1.3348 0
M  V30 5 O 3.095 1.19667 1.45644 0
M  V30 6 C 0.222 2.43627 2.35294 0
M  V30 7 C -0.732 3.65373 2.2001 0
M  V30 8 S 0.101 5.13292 1.52614 0
M  V30 9 C 1.257 5.56322 2.86805 0
M  V30 10 H 1.49 2.90518 0.631377 0
M  V30 11 H -0.977 1.52953 0.210867 0
M  V30 12 H 0.981 2.67203 3.11629 0
M  V30 13 H -0.358 1.57376 2.7183 0
M  V30 14 H -1.165 3.90944 3.18086 0
M  V30 15 H -1.563 3.418 1.51819 0
M  V30 16 H 0.729 5.58782 3.83104 0
M  V30 17 H 1.672 6.56266 2.65933 0
M  V30 18 H 2.08 4.83886 2.90714 0
M  V30 19 N 1.4781 -0.272755 1.55222 0
M  V30 20 C 2.7261 -1.00234 1.75492 0
M  V30 21 C 3.0471 -1.8681 0.5592 0
M  V30 22 O 2.3171 -1.91215 -0.425882 0
M  V30 23 H 0.8971 -0.373076 0.647166 0
M  V30 24 H 3.5591 -0.296926 1.92625 0
M  V30 25 H 2.6551 -1.63913 2.65592 0
M  V30 26 N 2.9562 -1.48159 -0.537278 0
M  V30 27 C 4.2332 -1.46291 -1.29839 0
M  V30 28 C 4.6132 -0.170613 -2.10409 0
M  V30 29 O 3.9612 0.847746 -2.12192 0
M  V30 30 C 4.1712 -2.72055 -2.18603 0
M  V30 31 C 5.5192 -3.20087 -2.7898 0
M  V30 32 O 6.5432 -2.72921 -2.28894 0
M  V30 33 O 5.4022 -4.02138 -3.70064 0
M  V30 34 H 2.4962 -0.583906 -0.585647 0
M  V30 35 H 5.0422 -1.60384 -0.554534 0
M  V30 36 H 3.8142 -3.57628 -1.58801 0
M  V30 37 H 3.4372 -2.60646 -3.00249 0
M  V30 38 N 4.4343 0.785586 -1.36625 0
M  V30 39 C 5.7113 1.53198 -1.21613 0
M  V30 40 C 6.0913 2.10187 0.196113 0
M  V30 41 O 5.4393 1.94318 1.20219 0
M  V30 42 C 5.6493 2.62388 -2.30116 0
M  V30 43 C 6.9973 3.30167 -2.66974 0
M  V30 44 O 8.0213 2.72674 -2.29188 0
M  V30 45 O 6.8803 4.34077 -3.32023 0
M  V30 46 H 3.9743 0.677865 -0.473738 0
M  V30 47 H 6.5203 0.823739 -1.48367 0
M  V30 48 H 5.2923 2.18299 -3.24748 0
M  V30 49 H 4.9153 3.40827 -2.0475 0
M  V30 50 N 5.9124 1.20967 1.01018 0
M  V30 51 C 7.3284 0.965905 1.27053 0
M  V30 52 C 7.5284 -0.350785 1.98423 0
M  V30 53 O 6.5844 -1.07773 2.28344 0
M  V30 54 C 7.8974 2.15294 2.09926 0
M  V30 55 C 9.4454 2.19463 2.23171 0
M  V30 56 C 9.9204 3.3767 3.09424 0
M  V30 57 N 11.4114 3.37724 3.17012 0
M  V30 58 C 12.1464 4.25837 3.83993 0
M  V30 59 N 11.6424 5.24138 4.53047 0
M  V30 60 N 13.4354 4.1366 3.80581 0
M  V30 61 H 5.5864 2.0565 0.531194 0
M  V30 62 H 7.8494 0.90024 0.297106 0
M  V30 63 H 7.5554 3.10684 1.64828 0
M  V30 64 H 7.4294 2.13923 3.10672 0
M  V30 65 H 9.8164 1.24632 2.6749 0
M  V30 66 H 9.8974 2.2488 1.21912 0
M  V30 67 H 9.5414 4.32791 2.65808 0
M  V30 68 H 9.4714 3.29491 4.10784 0
M  V30 69 H 11.9624 2.6658 2.6785 0
M  V30 70 H 12.2754 5.87684 5.01844 0
M  V30 71 H 10.6204 5.28068 4.5185 0
M  V30 72 H 13.8114 3.36127 3.25785 0
M  V30 73 H 13.9844 4.82538 4.32505 0
M  V30 74 N 7.3905 -1.2043 1.01659 0
M  V30 75 C 8.8015 -1.71517 0.737482 0
M  V30 76 C 9.1525 -1.81547 -0.743973 0
M  V30 77 O 8.2775 -1.47803 -1.58061 0
M  V30 78 C 8.8725 -3.11515 1.33206 0
M  V30 79 C 7.4315 -3.59912 1.10183 0
M  V30 80 C 6.5785 -2.37116 1.43776 0
M  V30 81 H 9.5295 -1.05444 1.18606 0
M  V30 82 H 9.5505 -3.73575 0.722636 0
M  V30 83 H 9.0625 -3.04182 2.41028 0
M  V30 84 H 7.1635 -3.72577 0.0412756 0
M  V30 85 H 7.2765 -4.44731 1.78188 0
M  V30 86 H 5.6405 -2.39857 0.856778 0
M  V30 87 H 6.4235 -2.32424 2.52654 0
M  V30 88 N 8.8686 -0.792821 -1.36206 0
M  V30 89 C 10.1156 -0.366786 -1.99151 0
M  V30 90 C 10.4436 1.06243 -1.62919 0
M  V30 91 O 9.6986 1.74927 -0.877442 0
M  V30 92 C 9.9976 -0.481501 -3.54142 0
M  V30 93 C 9.6636 -1.87202 -4.10203 0
M  V30 94 C 8.3256 -2.25248 -4.25226 0
M  V30 95 C 10.6776 -2.78237 -4.40719 0
M  V30 96 C 8.0056 -3.53723 -4.68078 0
M  V30 97 C 10.3576 -4.06144 -4.85005 0
M  V30 98 C 9.0216 -4.44207 -4.98234 0
M  V30 99 H 8.2916 -0.134217 -0.728743 0
M  V30 100 H 10.9386 -1.01094 -1.62641 0
M  V30 101 H 9.2436 0.246146 -3.91026 0
M  V30 102 H 10.9406 -0.132844 -4.0078 0
M  V30 103 H 7.5306 -1.56639 -3.98951 0
M  V30 104 H 11.7146 -2.50097 -4.28679 0
M  V30 105 H 6.9706 -3.8308 -4.76508 0
M  V30 106 H 11.1446 -4.76796 -5.07581 0
M  V30 107 H 8.7716 -5.43814 -5.31197 0
M  V30 108 N 10.3467 1.47872 -0.545128 0
M  V30 109 C 11.5927 2.02793 -0.0166104 0
M  V30 110 C 11.9257 1.41987 1.32489 0
M  V30 111 O 11.2007 0.571045 1.85928 0
M  V30 112 C 11.4837 3.59989 0.0893294 0
M  V30 113 C 11.3367 4.3125 -1.27841 0
M  V30 114 C 12.6557 4.32606 0.808724 0
M  V30 115 H 9.7747 0.736962 -0.00751035 0
M  V30 116 H 12.4167 1.76433 -0.705085 0
M  V30 117 H 10.5667 3.82579 0.675681 0
M  V30 118 H 12.2387 4.20035 -1.90704 0
M  V30 119 H 10.4817 3.92076 -1.85632 0
M  V30 120 H 11.1527 5.39736 -1.15713 0
M  V30 121 H 13.6287 4.14936 0.310992 0
M  V30 122 H 12.5047 5.42251 0.851782 0
M  V30 123 H 12.7657 4.00963 1.86229 0
M  V30 124 N 11.8248 0.280983 1.55075 0
M  V30 125 C 13.0648 -0.335234 2.01632 0
M  V30 126 C 13.4288 -1.5261 1.16508 0
M  V30 127 O 14.6298 -2.21235 1.52672 0
M  V30 128 C 12.9008 -0.702172 3.50434 0
M  V30 129 S 14.4598 -1.30409 4.18974 0
M  V30 130 H 11.2778 -0.103967 0.703358 0
M  V30 131 H 13.8798 0.404187 1.91276 0
M  V30 132 H 12.5838 0.17333 4.10034 0
M  V30 133 H 12.1148 -1.4729 3.64786 0
M  V30 134 H 14.1298 -2.59253 4.23087 0
M  V30 135 N 13.3029 -1.57598 0.00835791 0
M  V30 136 C 14.2509 -2.10078 -0.998508 0
M  V30 137 C 15.2449 -1.02262 -1.35051 0
M  V30 138 O 16.4509 -1.20719 -1.33518 0
M  V30 139 H 12.8259 -0.670903 -0.339696 0
M  V30 140 H 14.7969 -2.93648 -0.530398 0
M  V30 141 C 13.5459 -2.62615 -2.27879 0
M  V30 142 H 12.8689 -3.45213 -2.01662 0
M  V30 143 H 14.3089 -3.03004 -2.96588 0
M  V30 144 C 12.7679 -1.54407 -2.99433 0
M  V30 145 O 13.2979 -0.931812 -3.90743 0
M  V30 146 N 11.5039 -1.2695 -2.61404 0
M  V30 147 H 11.0509 -1.76924 -1.87232 0
M  V30 148 H 11.0089 -0.547704 -3.09593 0
M  V30 149 N 14.781 0.264519 -1.55364 0
M  V30 150 C 15.744 1.31046 -1.88042 0
M  V30 151 C 16.744 1.41943 -0.755569 0
M  V30 152 O 17.934 1.40947 -1.02369 0
M  V30 153 C 15.066 2.69067 -2.09323 0
M  V30 154 H 16.259 1.03297 -2.81549 0
M  V30 155 H 13.812 0.502989 -1.47986 0
M  V30 156 H 14.547 3.01982 -1.18226 0
M  V30 157 H 14.332 2.62542 -2.91229 0
M  V30 158 H 15.822 3.44623 -2.35848 0
M  V30 159 N 16.2591 1.48442 0.529413 0
M  V30 160 C 17.6701 1.5002 1.11134 0
M  V30 161 C 18.0211 0.27031 1.94329 0
M  V30 162 O 17.1461 -0.622507 2.07253 0
M  V30 163 C 17.7411 2.71834 2.02217 0
M  V30 164 C 16.3001 2.76283 2.55627 0
M  V30 165 C 15.4471 2.43542 1.326 0
M  V30 166 H 18.3981 1.5555 0.314641 0
M  V30 167 H 18.4191 2.50384 2.8651 0
M  V30 168 H 17.9311 3.61331 1.41639 0
M  V30 169 H 16.0321 1.90995 3.19924 0
M  V30 170 H 16.1451 3.77725 2.94721 0
M  V30 171 H 14.5091 1.94709 1.64196 0
M  V30 172 H 15.2921 3.3528 0.737734 0
M  V30 173 N 17.7372 -0.778329 1.37039 0
M  V30 174 C 18.9852 -1.53361 1.31623 0
M  V30 175 C 19.3062 -1.94739 -0.100831 0
M  V30 176 O 18.5762 -1.65797 -1.04347 0
M  V30 177 H 17.1562 -0.568794 0.484234 0
M  V30 178 H 19.8182 -0.926742 1.71457 0
M  V30 179 H 18.9142 -2.43606 1.95096 0
M  V30 180 N 19.2153 -1.21501 -1.00376 0
M  V30 181 C 20.4553 -1.04444 -1.75701 0
M  V30 182 C 20.8193 0.414644 -1.87469 0
M  V30 183 O 22.0203 0.705763 -2.59369 0
M  V30 184 C 20.2913 -1.72389 -3.13077 0
M  V30 185 S 21.8503 -1.70604 -4.04277 0
M  V30 186 H 18.6683 -0.374249 -0.604532 0
M  V30 187 H 21.2703 -1.54267 -1.20091 0
M  V30 188 H 19.9743 -2.77734 -3.02146 0
M  V30 189 H 19.5053 -1.22751 -3.73759 0
M  V30 190 H 21.5203 -0.748012 -4.9053 0
M  V30 191 N 20.6934 1.19889 -1.02296 0
M  V30 192 C 21.9414 1.89046 -0.714558 0
M  V30 193 C 22.2624 1.79636 0.758681 0
M  V30 194 O 21.5324 1.20292 1.54618 0
M  V30 195 H 20.1124 0.699802 -0.261317 0
M  V30 196 H 22.7744 1.45574 -1.29592 0
M  V30 197 H 21.8704 2.95524 -1.0036 0
M  V30 198 N 22.1715 0.800033 1.35784 0
M  V30 199 C 23.1035 0.163596 2.28615 0
M  V30 200 C 24.1165 -0.633317 1.49976 0
M  V30 201 O 25.3055 -0.466754 1.72289 0
M  V30 202 C 22.4055 -0.790958 3.29541 0
M  V30 203 C 21.5785 -0.0418255 4.3738 0
M  V30 204 C 20.6375 -0.91389 5.18203 0
M  V30 205 O 19.6635 -0.367234 5.68014 0
M  V30 206 N 20.8655 -2.23682 5.35674 0
M  V30 207 H 23.6305 0.96105 2.83873 0
M  V30 208 H 21.1915 0.654894 1.48063 0
M  V30 209 H 23.1835 -1.37844 3.80501 0
M  V30 210 H 21.7535 -1.48925 2.74846 0
M  V30 211 H 20.9735 0.726813 3.87442 0
M  V30 212 H 22.2615 0.474719 5.06581 0
M  V30 213 H 21.6595 -2.70497 4.96838 0
M  V30 214 H 20.2165 -2.77369 5.89839 0
M  V30 215 N 23.6496 -1.47581 0.552962 0
M  V30 216 C 25.0656 -1.5818 0.212424 0
M  V30 217 C 25.2656 -1.55213 -1.28496 0
M  V30 218 O 24.3216 -1.45329 -2.06484 0
M  V30 219 C 25.6346 -2.88865 0.835318 0
M  V30 220 C 27.1826 -3.0244 0.806156 0
M  V30 221 C 27.6576 -4.35819 1.40804 0
M  V30 222 N 29.1486 -4.42444 1.37103 0
M  V30 223 C 29.8836 -5.44202 1.80641 0
M  V30 224 N 29.3796 -6.52795 2.32015 0
M  V30 225 N 31.1726 -5.35222 1.71738 0
M  V30 226 H 23.3236 -1.47753 1.52587 0
M  V30 227 H 25.5866 -0.702941 0.636064 0
M  V30 228 H 25.2926 -2.9676 1.88749 0
M  V30 229 H 25.1666 -3.7579 0.325848 0
M  V30 230 H 27.5536 -2.94144 -0.237317 0
M  V30 231 H 27.6346 -2.17068 1.35334 0
M  V30 232 H 27.2786 -4.44871 2.45056 0
M  V30 233 H 27.2086 -5.19916 0.836338 0
M  V30 234 H 29.6996 -3.6456 0.995202 0
M  V30 235 H 30.0126 -7.26609 2.63171 0
M  V30 236 H 28.3576 -6.53696 2.36023 0
M  V30 237 H 31.5486 -4.49284 1.31382 0
M  V30 238 H 31.7216 -6.14389 2.05987 0
M  V30 239 N 25.1277 -0.289203 -1.54924 0
M  V30 240 C 26.3747 0.323519 -1.99899 0
M  V30 241 C 26.7027 1.54797 -1.17762 0
M  V30 242 O 25.9577 1.94237 -0.238835 0
M  V30 243 C 26.2567 0.736119 -3.49737 0
M  V30 244 C 25.9227 -0.385276 -4.49251 0
M  V30 245 C 24.5847 -0.693156 -4.76181 0
M  V30 246 C 26.9367 -1.14021 -5.08575 0
M  V30 247 C 24.2647 -1.7593 -5.59701 0
M  V30 248 C 26.6167 -2.19619 -5.93254 0
M  V30 249 C 25.2807 -2.51026 -6.185 0
M  V30 250 H 24.5507 0.118384 -0.731482 0
M  V30 251 H 27.1977 -0.405847 -1.8715 0
M  V30 252 H 25.5027 1.54539 -3.60035 0
M  V30 253 H 27.1997 1.22118 -3.81953 0
M  V30 254 H 23.7897 -0.135202 -4.28387 0
M  V30 255 H 27.9737 -0.915611 -4.87781 0
M  V30 256 H 23.2297 -2.0075 -5.77503 0
M  V30 257 H 27.4037 -2.78581 -6.38252 0
M  V30 258 H 25.0307 -3.33772 -6.83008 0
M  V30 259 N 26.6058 1.57591 -0.0167156 0
M  V30 260 C 27.8338 1.95575 0.675128 0
M  V30 261 C 28.2488 0.892542 1.6637 0
M  V30 262 O 27.6058 -0.126912 1.82058 0
M  V30 263 C 27.6568 3.33608 1.39239 0
M  V30 264 O 27.3778 4.3585 0.443444 0
M  V30 265 C 28.8788 3.86151 2.17721 0
M  V30 266 H 26.0988 0.644423 0.186978 0
M  V30 267 H 28.6428 2.0437 -0.0728 0
M  V30 268 H 26.7978 3.2607 2.09182 0
M  V30 269 H 27.2118 5.158 0.951358 0
M  V30 270 H 28.6858 4.85114 2.63379 0
M  V30 271 H 29.1628 3.19738 3.01105 0
M  V30 272 H 29.7688 3.96918 1.52761 0
M  V30 273 N 28.0839 -0.256276 1.55502 0
M  V30 274 C 29.0319 -1.33694 1.90338 0
M  V30 275 C 30.0259 -1.50299 0.781441 0
M  V30 276 O 31.2319 -1.51885 0.965966 0
M  V30 277 H 27.6069 -0.447483 0.60437 0
M  V30 278 H 29.5779 -1.01574 2.8058 0
M  V30 279 C 28.3269 -2.68724 2.20642 0
M  V30 280 H 27.6499 -2.56743 3.06469 0
M  V30 281 H 29.0899 -3.43237 2.48926 0
M  V30 282 C 27.5489 -3.21101 1.01959 0
M  V30 283 O 28.0789 -4.0084 0.262762 0
M  V30 284 N 26.2849 -2.79003 0.812746 0
M  V30 285 H 25.8319 -2.14271 1.42989 0
M  V30 286 H 25.7899 -3.14393 0.0203076 0
M  V30 287 N 29.562 -1.4872 -0.521534 0
M  V30 288 C 30.472 -1.66569 -1.65203 0
M  V30 289 C 31.488 -0.548197 -1.65139 0
M  V30 290 O 32.664 -0.820339 -1.83936 0
M  V30 291 C 29.729 -1.70917 -3.01642 0
M  V30 292 C 28.79 -2.94356 -3.12495 0
M  V30 293 C 28.023 -2.98487 -4.42426 0
M  V30 294 O 28.246 -2.10786 -5.30024 0
M  V30 295 O 27.18 -3.90746 -4.57822 0
M  V30 296 H 31.006 -2.62298 -1.5308 0
M  V30 297 H 28.591 -1.3222 -0.695565 0
M  V30 298 H 30.473 -1.7625 -3.82771 0
M  V30 299 H 29.148 -0.783633 -3.14071 0
M  V30 300 H 28.055 -2.94552 -2.3063 0
M  V30 301 H 29.388 -3.86322 -3.04986 0
M  V30 302 N 31.0401 0.771051 -1.3745 0
M  V30 303 C 32.3171 1.519 -1.23231 0
M  V30 304 C 32.6971 2.10383 0.173809 0
M  V30 305 O 32.0451 1.95583 1.18151 0
M  V30 306 C 32.2551 2.59933 -2.32886 0
M  V30 307 C 33.6031 3.27316 -2.70461 0
M  V30 308 O 34.6271 2.70228 -2.32068 0
M  V30 309 O 33.4861 4.30531 -3.36608 0
M  V30 310 H 30.5801 0.672803 -0.480901 0
M  V30 311 H 33.1261 0.807957 -1.49232 0
M  V30 312 H 31.8981 2.14842 -3.27045 0
M  V30 313 H 31.5211 3.38637 -2.08353 0
M  V30 314 N 32.5182 1.22032 0.997298 0
M  V30 315 C 33.4682 0.953838 2.07089 0
M  V30 316 C 34.4522 -0.0938669 1.60626 0
M  V30 317 O 35.6442 0.116078 1.76619 0
M  V30 318 C 32.7732 0.528726 3.39204 0
M  V30 319 C 31.8592 1.61092 3.92314 0
M  V30 320 N 32.2502 2.83768 4.18699 0
M  V30 321 C 30.5482 1.48158 4.20672 0
M  V30 322 C 31.2492 3.53715 4.61802 0
M  V30 323 N 30.2252 2.81174 4.65233 0
M  V30 324 H 34.0272 1.88577 2.25424 0
M  V30 325 H 31.5412 1.11719 1.17867 0
M  V30 326 H 33.5382 0.31915 4.15677 0
M  V30 327 H 32.1982 -0.39635 3.22272 0
M  V30 328 H 33.2092 3.20238 4.07023 0
M  V30 329 H 29.8862 0.622369 4.12835 0
M  V30 330 H 31.2762 4.58793 4.90875 0
M  V30 331 N 33.9963 -1.19345 1.0293 0
M  V30 332 C 34.9263 -2.2481 0.631105 0
M  V30 333 C 35.9073 -1.66245 -0.360104 0
M  V30 334 O 37.0923 -1.92677 -0.242726 0
M  V30 335 C 34.2223 -3.47295 -0.0184607 0
M  V30 336 C 33.1763 -4.18536 0.895073 0
M  V30 337 C 32.5023 -5.34586 0.110592 0
M  V30 338 C 33.8023 -4.73287 2.209 0
M  V30 339 H 35.4963 -2.58372 1.51275 0
M  V30 340 H 33.0423 -1.24194 0.728818 0
M  V30 341 H 34.9953 -4.20268 -0.308675 0
M  V30 342 H 33.7193 -3.12933 -0.934907 0
M  V30 343 H 32.3783 -3.47446 1.16949 0
M  V30 344 H 32.0263 -4.96469 -0.807902 0
M  V30 345 H 31.7263 -5.83183 0.719087 0
M  V30 346 H 33.2503 -6.10355 -0.172871 0
M  V30 347 H 34.6643 -5.38013 1.98028 0
M  V30 348 H 33.0613 -5.32373 2.76946 0
M  V30 349 H 34.1313 -3.91331 2.86336 0
M  V30 350 N 35.4744 -0.807222 -1.35358 0
M  V30 351 C 36.4374 -0.223665 -2.28106 0
M  V30 352 C 37.4374 0.589354 -1.4961 0
M  V30 353 O 38.6274 0.407745 -1.69361 0
M  V30 354 C 35.7594 0.688149 -3.33882 0
M  V30 355 H 36.9524 -1.04169 -2.81227 0
M  V30 356 H 34.5054 -0.577921 -1.45223 0
M  V30 357 H 35.2404 1.52984 -2.85948 0
M  V30 358 H 35.0254 0.10687 -3.91954 0
M  V30 359 H 36.5154 1.09075 -4.03104 0
M  V30 360 N 36.9525 1.47285 -0.560781 0
M  V30 361 C 38.1985 2.02764 -0.0381184 0
M  V30 362 C 38.5315 1.43384 1.30976 0
M  V30 363 O 37.8065 0.590733 1.85312 0
M  V30 364 C 38.0895 3.60064 0.0511427 0
M  V30 365 C 37.9425 4.2987 -1.32408 0
M  V30 366 C 39.2615 4.33439 0.762795 0
M  V30 367 H 36.3805 0.736841 -0.0153264 0
M  V30 368 H 39.0225 1.75675 -0.723759 0
M  V30 369 H 37.1725 3.83274 0.635065 0
M  V30 370 H 38.8445 4.17989 -1.95148 0
M  V30 371 H 37.0875 3.90085 -1.8978 0
M  V30 372 H 37.7585 5.38478 -1.21431 0
M  V30 373 H 40.2345 4.15243 0.266965 0
M  V30 374 H 39.1105 5.43124 0.794221 0
M  V30 375 H 39.3715 4.02915 1.81966 0
M  V30 376 N 38.4306 0.297415 1.54768 0
M  V30 377 C 39.3806 -0.595275 2.20092 0
M  V30 378 C 40.3646 -1.10163 1.17273 0
M  V30 379 O 41.5566 -1.043 1.43006 0
M  V30 380 C 38.6856 -1.7684 2.94249 0
M  V30 381 C 37.7716 -1.27818 4.0438 0
M  V30 382 N 38.1626 -0.505695 5.03266 0
M  V30 383 C 36.4606 -1.55923 4.17857 0
M  V30 384 C 37.1616 -0.245094 5.81183 0
M  V30 385 N 36.1376 -0.823881 5.3732 0
M  V30 386 H 39.9396 0.00250837 2.939 0
M  V30 387 H 37.4536 0.102007 1.62079 0
M  V30 388 H 39.4506 -2.41944 3.39513 0
M  V30 389 H 38.1106 -2.36992 2.21957 0
M  V30 390 H 39.1216 -0.150928 5.1768 0
M  V30 391 H 35.7986 -2.16849 3.56767 0
M  V30 392 H 37.1886 0.375084 6.70852 0
M  V30 393 N 39.9087 -1.5758 0.0250728 0
M  V30 394 C 40.8557 -2.09973 -0.958129 0
M  V30 395 C 41.8257 -1.00085 -1.3256 0
M  V30 396 O 43.0107 -1.27481 -1.41962 0
M  V30 397 C 40.1507 -2.62812 -2.2366 0
M  V30 398 C 39.2637 -3.86693 -1.92594 0
M  V30 399 C 38.3987 -4.27941 -3.14707 0
M  V30 400 C 37.4377 -5.44591 -2.79442 0
M  V30 401 N 36.5747 -5.81014 -3.94167 0
M  V30 402 H 41.4147 -2.937 -0.504428 0
M  V30 403 H 38.9517 -1.45172 -0.237392 0
M  V30 404 H 40.9097 -2.91536 -2.98434 0
M  V30 405 H 39.5397 -1.81922 -2.66654 0
M  V30 406 H 38.5917 -3.64723 -1.0808 0
M  V30 407 H 39.9037 -4.71547 -1.62619 0
M  V30 408 H 39.0577 -4.58079 -3.97804 0
M  V30 409 H 37.7967 -3.41845 -3.4784 0
M  V30 410 H 36.8017 -5.1415 -1.94755 0
M  V30 411 H 38.0267 -6.32382 -2.47528 0
M  V30 412 H 35.9727 -4.97874 -4.2715 0
M  V30 413 H 35.8897 -6.60498 -3.67801 0
M  V30 414 H 37.1577 -6.15756 -4.7798 0
M  V30 415 N 41.3868 0.248026 -1.55636 0
M  V30 416 C 42.3368 1.30994 -1.86614 0
M  V30 417 C 43.3208 1.43543 -0.726918 0
M  V30 418 O 44.5128 1.46804 -0.988818 0
M  V30 419 C 41.6418 2.6656 -2.16335 0
M  V30 420 C 40.7278 2.58019 -3.36581 0
M  V30 421 N 41.1188 2.1911 -4.55878 0
M  V30 422 C 39.4168 2.89035 -3.39669 0
M  V30 423 C 40.1178 2.21174 -5.38012 0
M  V30 424 N 39.0938 2.60632 -4.77045 0
M  V30 425 H 42.8958 0.999583 -2.76379 0
M  V30 426 H 40.4098 0.456652 -1.55848 0
M  V30 427 H 42.4068 3.43194 -2.36692 0
M  V30 428 H 41.0668 2.98463 -1.27867 0
M  V30 429 H 42.0778 1.90672 -4.81523 0
M  V30 430 H 38.7548 3.25485 -2.61469 0
M  V30 431 H 40.1448 1.9344 -6.43452 0
M  V30 432 N 42.8649 1.48995 0.513639 0
M  V30 433 C 43.8119 1.6473 1.61656 0
M  V30 434 C 44.7819 0.488984 1.58739 0
M  V30 435 O 45.9669 0.714478 1.76918 0
M  V30 436 C 43.1069 1.7082 2.99858 0
M  V30 437 C 42.2199 2.9787 3.12885 0
M  V30 438 C 41.3549 2.95017 4.41744 0
M  V30 439 C 40.3939 4.16702 4.48359 0
M  V30 440 N 39.5309 4.11832 5.68629 0
M  V30 441 H 44.3709 2.58909 1.47547 0
M  V30 442 H 41.9079 1.28382 0.71808 0
M  V30 443 H 43.8659 1.72331 3.79944 0
M  V30 444 H 42.4959 0.801181 3.12699 0
M  V30 445 H 41.5479 3.06029 2.25944 0
M  V30 446 H 42.8599 3.8786 3.13633 0
M  V30 447 H 42.0139 2.95021 5.30139 0
M  V30 448 H 40.7529 2.02784 4.43542 0
M  V30 449 H 39.7579 4.16955 3.58369 0
M  V30 450 H 40.9829 5.10113 4.48287 0
M  V30 451 H 38.9289 3.22428 5.71293 0
M  V30 452 H 38.8459 4.95543 5.7094 0
M  V30 453 H 40.1139 4.1592 6.59266 0
M  V30 454 N 44.343 -0.763751 1.37857 0
M  V30 455 C 45.293 -1.86765 1.30777 0
M  V30 456 C 46.277 -1.59726 0.194015 0
M  V30 457 O 47.469 -1.7172 0.42911 0
M  V30 458 C 44.598 -3.24343 1.12502 0
M  V30 459 C 43.684 -3.57307 2.28456 0
M  V30 460 N 44.075 -3.61398 3.53871 0
M  V30 461 C 42.373 -3.87517 2.20786 0
M  V30 462 C 43.074 -3.91339 4.30382 0
M  V30 463 N 42.05 -4.07649 3.59615 0
M  V30 464 H 45.852 -1.88191 2.25746 0
M  V30 465 H 43.366 -0.9606 1.30944 0
M  V30 466 H 45.363 -4.03327 1.05514 0
M  V30 467 H 44.023 -3.24175 0.184574 0
M  V30 468 H 45.034 -3.43407 3.87675 0
M  V30 469 H 41.711 -3.95125 1.34844 0
M  V30 470 H 43.101 -4.01213 5.3896 0
M  V30 471 N 45.8211 -1.22559 -0.990812 0
M  V30 472 C 46.7311 -1.01394 -2.11557 0
M  V30 473 C 47.7471 0.0383962 -1.73958 0
M  V30 474 O 48.9231 -0.154787 -2.00804 0
M  V30 475 C 45.9881 -0.596569 -3.41529 0
M  V30 476 C 45.0491 -1.72276 -3.93217 0
M  V30 477 C 44.2821 -1.32521 -5.16985 0
M  V30 478 O 44.5051 -0.204909 -5.70032 0
M  V30 479 O 43.4391 -2.14247 -5.62478 0
M  V30 480 H 47.2651 -1.95633 -2.32296 0
M  V30 481 H 44.8501 -1.01172 -1.0993 0
M  V30 482 H 46.7321 -0.374263 -4.19735 0
M  V30 483 H 45.4071 0.316939 -3.22145 0
M  V30 484 H 44.3141 -1.99961 -3.16174 0
M  V30 485 H 45.6471 -2.61421 -4.17037 0
M  V30 486 N 47.2992 1.18797 -1.03562 0
M  V30 487 C 48.2322 2.2105 -0.56676 0
M  V30 488 C 49.2102 1.57704 0.395993 0
M  V30 489 O 50.3942 1.85908 0.311498 0
M  V30 490 C 47.5212 3.38259 0.172704 0
M  V30 491 C 46.5672 4.19987 -0.74252 0
M  V30 492 S 47.4002 4.87199 -2.22254 0
M  V30 493 C 48.5562 6.07813 -1.49379 0
M  V30 494 H 48.7892 2.60478 -1.43312 0
M  V30 495 H 46.3222 1.29151 -0.846133 0
M  V30 496 H 48.2802 4.06191 0.593191 0
M  V30 497 H 46.9412 2.97252 1.01488 0
M  V30 498 H 46.1342 5.03709 -0.171265 0
M  V30 499 H 45.7362 3.57408 -1.10163 0
M  V30 500 H 48.0282 6.72948 -0.784056 0
M  V30 501 H 48.9712 6.69435 -2.30786 0
M  V30 502 H 49.3792 5.55781 -0.988331 0
M  V30 503 N 48.7773 0.814389 1.34928 0
M  V30 504 C 50.0053 0.411136 2.02774 0
M  V30 505 C 50.4203 -0.980316 1.61354 0
M  V30 506 O 49.7773 -1.63299 0.814847 0
M  V30 507 C 49.8283 0.493865 3.58111 0
M  V30 508 O 49.5493 1.83047 3.98027 0
M  V30 509 C 51.0503 0.0844174 4.4322 0
M  V30 510 H 48.2703 0.166037 0.650133 0
M  V30 511 H 50.8143 1.10018 1.72384 0
M  V30 512 H 48.9693 -0.147006 3.87121 0
M  V30 513 H 49.3833 1.79872 4.92693 0
M  V30 514 H 50.8573 0.193404 5.51661 0
M  V30 515 H 51.3343 -0.97113 4.28329 0
M  V30 516 H 51.9403 0.69875 4.19521 0
M  V30 517 N 50.2554 -1.46986 0.568584 0
M  V30 518 C 51.1854 -2.32946 -0.160753 0
M  V30 519 C 52.1664 -1.44487 -0.897631 0
M  V30 520 O 53.3514 -1.73327 -0.875867 0
M  V30 521 C 50.4814 -3.26494 -1.18403 0
M  V30 522 C 49.4354 -4.24282 -0.562895 0
M  V30 523 C 48.7614 -5.07236 -1.69163 0
M  V30 524 C 50.0614 -5.19989 0.490761 0
M  V30 525 H 51.7554 -2.94175 0.556916 0
M  V30 526 H 49.3014 -1.4146 0.26927 0
M  V30 527 H 51.2544 -3.85477 -1.70251 0
M  V30 528 H 49.9784 -2.63343 -1.93179 0
M  V30 529 H 48.6374 -3.66541 -0.0656164 0
M  V30 530 H 48.2854 -4.4048 -2.42871 0
M  V30 531 H 47.9854 -5.7345 -1.28174 0
M  V30 532 H 49.5094 -5.6908 -2.21314 0
M  V30 533 H 50.9234 -5.73271 0.0579047 0
M  V30 534 H 49.3204 -5.94469 0.820165 0
M  V30 535 H 50.3904 -4.64777 1.3824 0
M  V30 536 N 51.7335 -0.305618 -1.54608 0
M  V30 537 C 52.6805 0.568421 -2.23691 0
M  V30 538 C 53.6505 1.12592 -1.22116 0
M  V30 539 O 54.8355 1.16959 -1.50749 0
M  V30 540 C 51.9755 1.7322 -2.98477 0
M  V30 541 C 51.0885 1.20566 -4.14835 0
M  V30 542 C 50.2235 2.33368 -4.77193 0
M  V30 543 C 49.2625 1.7787 -5.85686 0
M  V30 544 N 48.3995 2.84263 -6.4198 0
M  V30 545 H 53.2395 -0.0272867 -2.97988 0
M  V30 546 H 50.7765 -0.0252363 -1.47078 0
M  V30 547 H 52.7345 2.41675 -3.40072 0
M  V30 548 H 51.3645 2.29947 -2.26548 0
M  V30 549 H 50.4165 0.413223 -3.78149 0
M  V30 550 H 51.7285 0.759417 -4.92985 0
M  V30 551 H 50.8825 3.09761 -5.21664 0
M  V30 552 H 49.6215 2.8132 -3.98385 0
M  V30 553 H 48.6265 0.99968 -5.40635 0
M  V30 554 H 49.8515 1.30816 -6.66381 0
M  V30 555 H 47.7975 3.31541 -5.66053 0
M  V30 556 H 47.7145 2.44149 -7.15491 0
M  V30 557 H 48.9825 3.6054 -6.91109 0
M  V30 558 N 53.2116 1.57565 -0.0334293 0
M  V30 559 C 54.4586 1.91978 0.644272 0
M  V30 560 C 54.7866 0.910231 1.71887 0
M  V30 561 O 54.0416 -0.0801961 1.95536 0
M  V30 562 C 54.3406 3.33112 1.29504 0
M  V30 563 C 54.0066 4.49537 0.350388 0
M  V30 564 C 52.6686 4.81115 0.0903974 0
M  V30 565 C 55.0206 5.20347 -0.298032 0
M  V30 566 C 52.3486 5.8086 -0.825746 0
M  V30 567 C 54.7006 6.2107 -1.20226 0
M  V30 568 C 53.3646 6.51088 -1.4711 0
M  V30 569 H 52.6346 0.702496 0.235756 0
M  V30 570 H 55.2816 1.91259 -0.0961176 0
M  V30 571 H 53.5866 3.30113 2.11028 0
M  V30 572 H 55.2836 3.57011 1.82603 0
M  V30 573 H 51.8736 4.24883 0.563205 0
M  V30 574 H 56.0576 4.96178 -0.110234 0
M  V30 575 H 51.3136 6.02461 -1.04169 0
M  V30 576 H 55.4876 6.75057 -1.71086 0
M  V30 577 H 53.1146 7.28193 -2.18264 0
M  V30 578 N 54.6897 -0.239769 1.55765 0
M  V30 579 C 55.9377 -0.964892 1.77579 0
M  V30 580 C 56.2587 -1.85582 0.598699 0
M  V30 581 O 55.5287 -1.92075 -0.385226 0
M  V30 582 H 54.1087 -0.359265 0.654933 0
M  V30 583 H 56.7707 -0.256001 1.93211 0
M  V30 584 H 55.8667 -1.58243 2.69009 0
M  V30 585 N 56.1678 -1.49265 -0.50573 0
M  V30 586 C 57.5788 -1.51769 -1.08734 0
M  V30 587 C 57.9298 -0.301192 -1.93874 0
M  V30 588 O 57.0548 0.589456 -2.08217 0
M  V30 589 C 57.6498 -2.75017 -1.97867 0
M  V30 590 C 56.2088 -2.80314 -2.51199 0
M  V30 591 C 55.3558 -2.4562 -1.28709 0
M  V30 592 H 58.3068 -1.56031 -0.289855 0
M  V30 593 H 58.3278 -2.5491 -2.82491 0
M  V30 594 H 57.8398 -3.63539 -1.35873 0
M  V30 595 H 55.9408 -1.96061 -3.16845 0
M  V30 596 H 56.0538 -3.82366 -2.88675 0
M  V30 597 H 54.4178 -1.97297 -1.61078 0
M  V30 598 H 55.2008 -3.36411 -0.6843 0
M  V30 599 N 57.6459 0.756429 -1.3826 0
M  V30 600 C 58.6089 1.85176 -1.35065 0
M  V30 601 C 59.6089 1.58818 -0.251703 0
M  V30 602 O 60.7989 1.66615 -0.508433 0
M  V30 603 C 57.9309 3.22596 -1.10201 0
M  V30 604 H 59.1239 1.89417 -2.3251 0
M  V30 605 H 56.6769 0.95783 -1.23512 0
M  V30 606 H 57.4119 3.24025 -0.133504 0
M  V30 607 H 57.1969 3.43122 -1.89762 0
M  V30 608 H 58.6869 4.02673 -1.10654 0
M  V30 609 N 59.124 1.23083 0.984299 0
M  V30 610 C 60.54 0.992637 1.24975 0
M  V30 611 C 60.74 -0.308618 1.99123 0
M  V30 612 O 59.796 -1.02905 2.30579 0
M  V30 613 C 61.109 2.19698 2.05312 0
M  V30 614 C 62.657 2.24147 2.18465 0
M  V30 615 C 63.132 3.44157 3.02192 0
M  V30 616 N 64.623 3.44372 3.09777 0
M  V30 617 C 65.358 4.33886 3.74874 0
M  V30 618 N 64.854 5.3363 4.41827 0
M  V30 619 N 66.647 4.21639 3.71721 0
M  V30 620 H 58.798 2.06731 0.487453 0
M  V30 621 H 61.061 0.906339 0.277944 0
M  V30 622 H 60.767 3.1411 1.58201 0
M  V30 623 H 60.641 2.20465 3.06064 0
M  V30 624 H 63.028 1.30277 2.64786 0
M  V30 625 H 63.109 2.27415 1.17115 0
M  V30 626 H 62.753 4.38332 2.56568 0
M  V30 627 H 62.683 3.3813 4.03702 0
M  V30 628 H 65.174 2.72201 2.62135 0
M  V30 629 H 65.487 5.98196 4.89266 0
M  V30 630 H 63.832 5.37534 4.40548 0
M  V30 631 H 67.023 3.42962 3.18582 0
M  V30 632 H 67.196 4.91604 4.22173 0
M  V30 633 N 60.6021 -1.18246 1.0419 0
M  V30 634 C 61.8301 -1.92195 0.766072 0
M  V30 635 C 62.2451 -1.76247 -0.676933 0
M  V30 636 O 61.6021 -1.09293 -1.46155 0
M  V30 637 C 61.6531 -3.43568 1.12442 0
M  V30 638 O 61.3741 -3.59015 2.51078 0
M  V30 639 C 62.8751 -4.34613 0.873275 0
M  V30 640 H 60.0951 -0.610114 0.279288 0
M  V30 641 H 62.6391 -1.50007 1.38989 0
M  V30 642 H 60.7941 -3.8354 0.545542 0
M  V30 643 H 61.2081 -4.5273 2.64831 0
M  V30 644 H 62.6821 -5.39374 1.17385 0
M  V30 645 H 63.1591 -4.38781 -0.191909 0
M  V30 646 H 63.7651 -4.00341 1.43551 0
M  V30 647 N 62.0802 -0.821533 -1.34494 0
M  V30 648 C 63.3572 -0.33159 -1.92769 0
M  V30 649 C 63.7372 1.18088 -1.74981 0
M  V30 650 O 63.0852 1.98733 -1.12772 0
M  V30 651 C 63.2952 -0.759398 -3.40638 0
M  V30 652 C 64.6432 -0.757433 -4.1779 0
M  V30 653 O 65.6672 -0.70189 -3.49216 0
M  V30 654 O 64.5262 -0.829361 -5.4017 0
M  V30 655 H 61.6202 -0.0902502 -0.822061 0
M  V30 656 H 64.1662 -0.906231 -1.43477 0
M  V30 657 H 62.9382 -1.8012 -3.47379 0
M  V30 658 H 62.5612 -0.160378 -3.97276 0
M  V30 659 N 63.5583 1.46682 -0.576371 0
M  V30 660 C 64.7833 2.07304 -0.0630475 0
M  V30 661 C 65.2083 1.42329 1.2298 0
M  V30 662 O 64.5663 0.504865 1.74129 0
M  V30 663 C 64.6143 3.60472 0.095895 0
M  V30 664 O 63.7183 3.95927 1.15394 0
M  V30 665 H 63.0593 0.661288 -0.0599463 0
M  V30 666 H 65.5893 1.88417 -0.797511 0
M  V30 667 H 65.5993 4.06865 0.304071 0
M  V30 668 H 64.2743 4.07157 -0.84828 0
M  V30 669 H 62.8513 3.61252 0.924724 0
M  V30 670 N 65.0364 0.313813 1.54444 0
M  V30 671 C 66.2824 -0.292108 2.00685 0
M  V30 672 C 66.6154 -1.52548 1.20177 0
M  V30 673 O 65.8904 -1.92452 0.281531 0
M  V30 674 C 66.1734 -0.635968 3.5444 0
M  V30 675 C 66.0264 0.607437 4.4568 0
M  V30 676 C 67.3454 -1.45747 4.15266 0
M  V30 677 H 64.4644 -0.104697 0.729526 0
M  V30 678 H 67.1064 0.428457 1.85106 0
M  V30 679 H 65.2564 -1.24986 3.67846 0
M  V30 680 H 66.9284 1.24581 4.44159 0
M  V30 681 H 65.1714 1.23822 4.15753 0
M  V30 682 H 65.8424 0.322515 5.51057 0
M  V30 683 H 68.3184 -0.938645 4.05375 0
M  V30 684 H 67.1944 -1.66683 5.2298 0
M  V30 685 H 67.4554 -2.45063 3.67963 0
M  V30 686 N 66.5145 -1.57545 0.0417849 0
M  V30 687 C 67.7635 -1.91494 -0.633492 0
M  V30 688 C 68.0765 -0.921084 -1.72556 0
M  V30 689 O 69.2825 -1.15228 -2.45835 0
M  V30 690 C 67.7385 -3.40072 -1.17808 0
M  V30 691 C 67.3465 -4.47843 -0.118633 0
M  V30 692 C 69.0905 -3.8307 -1.82915 0
M  V30 693 C 66.9975 -5.87529 -0.675578 0
M  V30 694 H 65.9275 -0.714653 -0.24039 0
M  V30 695 H 68.5785 -1.83175 0.109148 0
M  V30 696 H 66.9605 -3.43364 -1.97274 0
M  V30 697 H 68.1345 -4.56128 0.654494 0
M  V30 698 H 66.4495 -4.14128 0.434414 0
M  V30 699 H 69.0465 -4.84794 -2.25563 0
M  V30 700 H 69.3895 -3.1881 -2.67705 0
M  V30 701 H 69.9225 -3.82255 -1.10119 0
M  V30 702 H 66.6615 -6.55362 0.134475 0
M  V30 703 H 66.1815 -5.82824 -1.4169 0
M  V30 704 H 67.8605 -6.36491 -1.1614 0
M  V30 705 N 67.9926 0.231505 -1.5589 0
M  V30 706 C 69.2416 0.955346 -1.7764 0
M  V30 707 C 69.5546 1.85893 -0.608546 0
M  V30 708 O 70.7606 2.62067 -0.70943 0
M  V30 709 C 69.2166 1.74886 -3.14552 0
M  V30 710 C 68.8246 0.891915 -4.39032 0
M  V30 711 C 70.5686 2.46452 -3.45633 0
M  V30 712 C 68.4756 1.68221 -5.66971 0
M  V30 713 H 67.4056 0.360446 -0.662265 0
M  V30 714 H 70.0566 0.209516 -1.823 0
M  V30 715 H 68.4386 2.53723 -3.04041 0
M  V30 716 H 69.6126 0.144793 -4.60572 0
M  V30 717 H 67.9276 0.288863 -4.15397 0
M  V30 718 H 70.5246 3.06061 -4.38441 0
M  V30 719 H 70.8676 3.18841 -2.67668 0
M  V30 720 H 71.4006 1.74613 -3.57428 0
M  V30 721 H 68.1396 1.00178 -6.478 0
M  V30 722 H 67.6596 2.4042 -5.49507 0
M  V30 723 H 69.3386 2.24544 -6.06786 0
M  V30 724 N 69.4707 1.49531 0.497807 0
M  V30 725 C 70.4337 1.65916 1.58128 0
M  V30 726 C 71.4337 0.530825 1.51786 0
M  V30 727 O 72.6237 0.797342 1.54881 0
M  V30 728 C 69.7557 1.65951 2.9778 0
M  V30 729 H 70.9487 2.62556 1.44929 0
M  V30 730 H 68.5017 1.38611 0.722275 0
M  V30 731 H 69.2367 0.709065 3.16453 0
M  V30 732 H 69.0217 2.47897 3.03792 0
M  V30 733 H 70.5117 1.80673 3.76493 0
M  V30 734 N 70.9488 -0.749086 1.3866 0
M  V30 735 C 72.2258 -1.4992 1.25632 0
M  V30 736 C 72.6058 -2.10633 -0.140317 0
M  V30 737 O 71.9538 -1.97437 -1.15025 0
M  V30 738 C 72.1638 -2.56195 2.36992 0
M  V30 739 C 73.5118 -3.22972 2.75634 0
M  V30 740 O 74.5358 -2.66502 2.36337 0
M  V30 741 O 73.3948 -4.25122 3.43415 0
M  V30 742 H 70.4888 -0.665067 0.491544 0
M  V30 743 H 73.0348 -0.784113 1.50498 0
M  V30 744 H 71.8068 -2.09612 3.30422 0
M  V30 745 H 71.4298 -3.35279 2.13714 0
M  V30 746 N 72.4269 -1.23603 -0.977757 0
M  V30 747 C 73.3589 -0.977369 -2.07317 0
M  V30 748 C 74.3719 0.0495845 -1.62724 0
M  V30 749 O 75.5609 -0.186261 -1.77526 0
M  V30 750 C 72.6609 -0.451216 -3.35883 0
M  V30 751 C 71.8339 -1.53896 -4.09432 0
M  V30 752 C 70.8929 -1.01721 -5.16274 0
M  V30 753 O 69.9189 -1.70676 -5.43009 0
M  V30 754 N 71.1209 0.153594 -5.80297 0
M  V30 755 H 73.8859 -1.92047 -2.30082 0
M  V30 756 H 71.4469 -1.14497 -1.14465 0
M  V30 757 H 73.4389 -0.0871574 -4.04606 0
M  V30 758 H 72.0089 0.397368 -3.10064 0
M  V30 759 H 71.2289 -2.07566 -3.35127 0
M  V30 760 H 72.5169 -2.27037 -4.55337 0
M  V30 761 H 71.9149 0.730323 -5.60966 0
M  V30 762 H 70.4719 0.458892 -6.50183 0
M  V30 763 N 73.905 1.17692 -1.04816 0
M  V30 764 C 75.133 1.91786 -0.776254 0
M  V30 765 C 75.548 1.76604 0.667577 0
M  V30 766 O 74.905 1.10067 1.45573 0
M  V30 767 C 74.956 3.42967 -1.14263 0
M  V30 768 O 74.677 3.57678 -2.52978 0
M  V30 769 C 76.178 4.34144 -0.896311 0
M  V30 770 H 73.398 0.608624 -0.282519 0
M  V30 771 H 75.942 1.49268 -1.39783 0
M  V30 772 H 74.097 3.83245 -0.565874 0
M  V30 773 H 74.511 4.51319 -2.67229 0
M  V30 774 H 75.985 5.38744 -1.20244 0
M  V30 775 H 76.462 4.38876 0.168636 0
M  V30 776 H 77.068 3.99574 -1.45672 0
M  V30 777 N 75.3831 0.828654 1.34056 0
M  V30 778 C 76.7941 0.477534 1.8049 0
M  V30 779 C 77.1451 -1.00258 1.6865 0
M  V30 780 O 76.2701 -1.78057 1.22982 0
M  V30 781 C 76.8651 0.860018 3.27703 0
M  V30 782 C 75.4241 0.561185 3.72193 0
M  V30 783 C 74.5711 1.07385 2.55663 0
M  V30 784 H 77.5221 1.0183 1.21722 0
M  V30 785 H 77.5431 0.166038 3.80138 0
M  V30 786 H 77.0551 1.93731 3.36288 0
M  V30 787 H 75.1561 -0.506465 3.69142 0
M  V30 788 H 75.2691 1.10926 4.66082 0
M  V30 789 H 73.6331 0.495149 2.49841 0
M  V30 790 H 74.4161 2.15771 2.67016 0
M  V30 791 N 76.8612 -1.46375 0.584142 0
M  V30 792 C 78.0892 -2.06761 0.0759296 0
M  V30 793 C 78.5042 -1.43266 -1.22965 0
M  V30 794 O 77.8612 -0.538458 -1.74376 0
M  V30 795 C 77.9122 -3.61375 -0.0950384 0
M  V30 796 O 77.6332 -4.22495 1.15887 0
M  V30 797 C 79.1342 -4.38693 -0.637434 0
M  V30 798 H 76.3542 -0.668479 0.0581075 0
M  V30 799 H 78.8982 -1.8798 0.805218 0
M  V30 800 H 77.0532 -3.79578 -0.774554 0
M  V30 801 H 77.4672 -5.15385 0.973598 0
M  V30 802 H 78.9412 -5.47464 -0.706237 0
M  V30 803 H 79.4182 -4.06836 -1.65472 0
M  V30 804 H 80.0242 -4.25299 0.00725967 0
M  V30 805 N 78.3393 -0.321999 -1.54275 0
M  V30 806 C 79.7503 0.166384 -1.85957 0
M  V30 807 C 80.1013 1.51747 -1.24367 0
M  V30 808 O 79.2263 2.09317 -0.549124 0
M  V30 809 C 79.8213 0.308681 -3.37391 0
M  V30 810 C 78.3803 0.741286 -3.69028 0
M  V30 811 C 77.5273 -0.137937 -2.76957 0
M  V30 812 H 80.4783 -0.542335 -1.49146 0
M  V30 813 H 80.4993 1.13984 -3.63026 0
M  V30 814 H 80.0113 -0.674809 -3.82188 0
M  V30 815 H 78.1123 1.73458 -3.29762 0
M  V30 816 H 78.2253 0.546118 -4.75977 0
M  V30 817 H 76.5893 0.386251 -2.51754 0
M  V30 818 H 77.3723 -1.11816 -3.2458 0
M  V30 819 N 79.8174 1.5752 -0.0501392 0
M  V30 820 C 81.0454 1.96963 0.633492 0
M  V30 821 C 81.4604 0.927631 1.6444 0
M  V30 822 O 80.8174 -0.0882665 1.82286 0
M  V30 823 C 80.8684 3.36487 1.32132 0
M  V30 824 O 80.5894 4.36693 0.350894 0
M  V30 825 C 82.0904 3.90682 2.09481 0
M  V30 826 H 79.3104 0.648244 0.173266 0
M  V30 827 H 81.8544 2.0417 -0.116134 0
M  V30 828 H 80.0094 3.30434 2.02218 0
M  V30 829 H 80.4234 5.17702 0.841735 0
M  V30 830 H 81.8974 4.90591 2.5303 0
M  V30 831 H 82.3744 3.26053 2.94255 0
M  V30 832 H 82.9804 4.00069 1.44307 0
M  V30 833 N 81.2955 -0.223234 1.56011 0
M  V30 834 C 82.7115 -0.572856 1.48965 0
M  V30 835 C 82.9115 -1.87225 0.74492 0
M  V30 836 O 81.9675 -2.50899 0.283896 0
M  V30 837 C 83.2805 -0.653646 2.9351 0
M  V30 838 C 84.8285 -0.744386 3.0402 0
M  V30 839 C 85.3035 -0.856535 4.49919 0
M  V30 840 N 86.7945 -0.9208 4.53955 0
M  V30 841 C 87.5295 -1.02726 5.64123 0
M  V30 842 N 87.0255 -1.09777 6.84047 0
M  V30 843 N 88.8185 -1.06226 5.51971 0
M  V30 844 H 80.9695 0.629462 2.02858 0
M  V30 845 H 83.2325 0.220621 0.921971 0
M  V30 846 H 82.9385 0.231518 3.50937 0
M  V30 847 H 82.8125 -1.51781 3.45315 0
M  V30 848 H 85.1995 -1.61999 2.46658 0
M  V30 849 H 85.2805 0.14541 2.55386 0
M  V30 850 H 84.9245 0.0146069 5.07898 0
M  V30 851 H 84.8545 -1.76172 4.96257 0
M  V30 852 H 87.3455 -0.876694 3.6759 0
M  V30 853 H 87.6585 -1.17872 7.63758 0
M  V30 854 H 86.0035 -1.06693 6.86762 0
M  V30 855 H 89.1945 -1.00382 4.5721 0
M  V30 856 H 89.3675 -1.14177 6.37862 0
M  V30 857 N 82.7736 -1.49793 -0.48987 0
M  V30 858 C 84.0206 -1.59841 -1.24327 0
M  V30 859 C 84.3486 -0.290135 -1.92324 0
M  V30 860 O 83.6036 0.722749 -1.81865 0
M  V30 861 C 83.9026 -2.71488 -2.32441 0
M  V30 862 C 83.5686 -4.12614 -1.81826 0
M  V30 863 C 82.2306 -4.51017 -1.67742 0
M  V30 864 C 84.5826 -5.00892 -1.4407 0
M  V30 865 C 81.9106 -5.75459 -1.14297 0
M  V30 866 C 84.2626 -6.25863 -0.920742 0
M  V30 867 C 82.9266 -6.63086 -0.766383 0
M  V30 868 H 82.1966 -0.584899 -0.454944 0
M  V30 869 H 84.8436 -1.83663 -0.542215 0
M  V30 870 H 83.1486 -2.4168 -3.0838 0
M  V30 871 H 84.8456 -2.76469 -2.90458 0
M  V30 872 H 81.4356 -3.82307 -1.93751 0
M  V30 873 H 85.6196 -4.7187 -1.53794 0
M  V30 874 H 80.8756 -6.02989 -1.01068 0
M  V30 875 H 85.0496 -6.9364 -0.619448 0
M  V30 876 H 82.6766 -7.59393 -0.350083 0
M  V30 877 N 84.2517 0.741722 -1.39055 0
M  V30 878 C 85.1817 1.869 -1.39966 0
M  V30 879 C 86.1627 1.6804 -0.26392 0
M  V30 880 O 87.3477 1.88458 -0.468755 0
M  V30 881 C 84.4777 3.24572 -1.23574 0
M  V30 882 C 83.4317 3.58056 -2.34477 0
M  V30 883 C 82.7577 4.94593 -2.0318 0
M  V30 884 C 84.0577 3.61716 -3.76774 0
M  V30 885 H 85.7517 1.86395 -2.34302 0
M  V30 886 H 83.2977 0.895361 -1.1278 0
M  V30 887 H 85.2507 4.031 -1.22834 0
M  V30 888 H 83.9747 3.25587 -0.257045 0
M  V30 889 H 82.6337 2.81854 -2.34423 0
M  V30 890 H 82.2817 4.92181 -1.03765 0
M  V30 891 H 81.9817 5.17964 -2.77465 0
M  V30 892 H 83.5057 5.75486 -2.04079 0
M  V30 893 H 84.9197 4.30335 -3.78794 0
M  V30 894 H 83.3167 3.96603 -4.50362 0
M  V30 895 H 84.3867 2.61672 -4.08235 0
M  V30 896 N 85.7298 1.2412 0.971189 0
M  V30 897 C 86.6768 1.0305 2.06517 0
M  V30 898 C 87.6468 -0.0550666 1.66009 0
M  V30 899 O 88.8318 0.0988688 1.90544 0
M  V30 900 C 85.9718 0.637653 3.39158 0
M  V30 901 C 85.0848 1.79633 3.92882 0
M  V30 902 C 84.2198 1.34939 5.13775 0
M  V30 903 C 83.2588 2.47823 5.59687 0
M  V30 904 N 82.3958 2.04022 6.71803 0
M  V30 905 H 87.2358 1.96685 2.23873 0
M  V30 906 H 84.7728 0.979694 1.09729 0
M  V30 907 H 86.7308 0.390931 4.15364 0
M  V30 908 H 85.3608 -0.261693 3.21737 0
M  V30 909 H 84.4128 2.15681 3.13346 0
M  V30 910 H 85.7248 2.64466 4.22918 0
M  V30 911 H 84.8788 1.06134 5.97345 0
M  V30 912 H 83.6178 0.471557 4.85415 0
M  V30 913 H 82.6228 2.77392 4.74693 0
M  V30 914 H 83.8478 3.36158 5.90063 0
M  V30 915 H 81.7938 1.18632 6.45184 0
M  V30 916 H 81.7108 2.82409 7.01271 0
M  V30 917 H 82.9788 1.78347 7.58823 0
M  V30 918 N 87.2079 -1.17134 1.05439 0
M  V30 919 C 88.1559 -2.23289 0.651511 0
M  V30 920 C 89.1499 -1.66186 -0.328411 0
M  V30 921 O 90.3559 -1.78949 -0.194206 0
M  V30 922 H 86.7309 -0.726938 0.192523 0
M  V30 923 H 88.7019 -2.54565 1.55689 0
M  V30 924 C 87.4509 -3.47671 0.0448436 0
M  V30 925 H 86.7739 -3.91918 0.78996 0
M  V30 926 H 88.2139 -4.2353 -0.19964 0
M  V30 927 C 86.6729 -3.14453 -1.20918 0
M  V30 928 O 87.2029 -3.29459 -2.29825 0
M  V30 929 N 85.4089 -2.68657 -1.10779 0
M  V30 930 H 84.9559 -2.56646 -0.221526 0
M  V30 931 H 84.9139 -2.46804 -1.9477 0
M  V30 932 N 88.686 -0.835752 -1.33615 0
M  V30 933 C 89.926 -0.43599 -1.99696 0
M  V30 934 C 90.29 0.98557 -1.64774 0
M  V30 935 O 91.491 1.48889 -2.23798 0
M  V30 936 C 89.762 -0.646721 -3.515 0
M  V30 937 S 91.321 -0.341715 -4.37467 0
M  V30 938 H 88.139 -0.164136 -0.691795 0
M  V30 939 H 90.741 -1.08436 -1.62671 0
M  V30 940 H 89.445 -1.68077 -3.74404 0
M  V30 941 H 88.976 0.0159173 -3.93397 0
M  V30 942 H 90.991 0.839708 -4.89043 0
M  V30 943 N 90.1641 1.46063 -0.591896 0
M  V30 944 C 91.0741 2.34192 0.13831 0
M  V30 945 C 92.0901 1.50305 0.876608 0
M  V30 946 O 93.2661 1.8315 0.837728 0
M  V30 947 C 90.3311 3.27656 1.13326 0
M  V30 948 C 89.3921 4.27445 0.39863 0
M  V30 949 C 88.6251 5.16443 1.34618 0
M  V30 950 O 88.8481 5.08553 2.58321 0
M  V30 951 O 87.7821 5.95843 0.851768 0
M  V30 952 H 91.6081 2.98002 -0.58552 0
M  V30 953 H 89.1931 1.45188 -0.352239 0
M  V30 954 H 91.0751 3.85291 1.70671 0
M  V30 955 H 89.7501 2.6643 1.83839 0
M  V30 956 H 88.6571 3.73471 -0.216895 0
M  V30 957 H 89.9901 4.91482 -0.265709 0
M  V30 958 N 91.6422 0.330177 1.54103 0
M  V30 959 C 92.5522 -0.541534 2.28264 0
M  V30 960 C 93.5682 -1.12351 1.32866 0
M  V30 961 O 94.7442 -1.14206 1.65888 0
M  V30 962 C 91.8092 -1.68322 3.03098 0
M  V30 963 C 90.8702 -1.13238 4.14096 0
M  V30 964 C 90.1032 -2.21966 4.85352 0
M  V30 965 O 90.3262 -3.42437 4.56172 0
M  V30 966 O 89.2602 -1.87013 5.7211 0
M  V30 967 H 93.0862 0.060938 3.03639 0
M  V30 968 H 90.6712 0.09565 1.49093 0
M  V30 969 H 92.5532 -2.34777 3.49939 0
M  V30 970 H 91.2282 -2.27176 2.30593 0
M  V30 971 H 90.1352 -0.432736 3.71589 0
M  V30 972 H 91.4682 -0.588898 4.88664 0
M  V30 973 N 93.1203 -1.57491 0.0584922 0
M  V30 974 C 94.3663 -1.93264 -0.614558 0
M  V30 975 C 94.6993 -0.937717 -1.7006 0
M  V30 976 O 93.9743 0.0351652 -1.94468 0
M  V30 977 C 94.2573 -3.3938 -1.20386 0
M  V30 978 C 94.1103 -4.49625 -0.125375 0
M  V30 979 C 95.4293 -3.86039 -2.11334 0
M  V30 980 H 92.5483 -0.702791 -0.221933 0
M  V30 981 H 95.1903 -1.8961 0.12175 0
M  V30 982 H 93.3403 -3.42626 -1.83139 0
M  V30 983 H 95.0123 -4.58506 0.506971 0
M  V30 984 H 93.2553 -4.30354 0.545672 0
M  V30 985 H 93.9263 -5.48967 -0.577861 0
M  V30 986 H 96.4023 -3.84716 -1.58534 0
M  V30 987 H 95.2783 -4.88914 -2.49507 0
M  V30 988 H 95.5393 -3.23215 -3.01636 0
M  V30 989 N 94.5984 0.214957 -1.56127 0
M  V30 990 C 95.8464 0.936518 -1.79091 0
M  V30 991 C 96.1674 1.84606 -0.628148 0
M  V30 992 O 95.4374 1.92664 0.35462 0
M  V30 993 H 94.0174 0.3488 -0.660566 0
M  V30 994 H 96.6794 0.22523 -1.93594 0
M  V30 995 H 95.7754 1.53943 -2.71492 0
M  V30 996 N 96.0765 1.50051 0.48192 0
M  V30 997 C 97.0065 1.71046 1.58951 0
M  V30 998 C 97.9875 0.559288 1.60642 0
M  V30 999 O 99.1725 0.797243 1.77081 0
M  V30 1000 C 96.3025 1.79462 2.97339 0
M  V30 1001 C 95.2565 2.94558 3.10515 0
M  V30 1002 C 94.5825 2.88105 4.50444 0
M  V30 1003 C 95.8825 4.35227 2.88747 0
M  V30 1004 H 97.5765 2.6378 1.41635 0
M  V30 1005 H 95.1225 1.26936 0.679942 0
M  V30 1006 H 97.0755 1.92734 3.74742 0
M  V30 1007 H 95.7995 0.833412 3.15788 0
M  V30 1008 H 94.4585 2.80918 2.35543 0
M  V30 1009 H 94.1065 1.89853 4.65795 0
M  V30 1010 H 93.8065 3.65366 4.60197 0
M  V30 1011 H 95.3305 3.03412 5.29881 0
M  V30 1012 H 96.7445 4.49449 3.55905 0
M  V30 1013 H 95.1415 5.13856 3.09955 0
M  V30 1014 H 96.2115 4.48347 1.84696 0
M  V30 1015 N 97.5546 -0.734337 1.39446 0
M  V30 1016 C 98.8016 -1.49391 1.36706 0
M  V30 1017 C 99.1296 -1.94465 -0.0367813 0
M  V30 1018 O 98.3846 -1.67154 -1.01774 0
M  V30 1019 C 98.6836 -2.74711 2.28623 0
M  V30 1020 C 98.3496 -2.48501 3.76242 0
M  V30 1021 C 97.0116 -2.41062 4.16464 0
M  V30 1022 C 99.3636 -2.26098 4.69606 0
M  V30 1023 C 96.6916 -2.09262 5.48112 0
M  V30 1024 C 99.0436 -1.95814 6.01531 0
M  V30 1025 C 97.7076 -1.86845 6.40816 0
M  V30 1026 H 96.9776 -0.546661 0.500243 0
M  V30 1027 H 99.6246 -0.842788 1.71957 0
M  V30 1028 H 97.9296 -3.44569 1.86492 0
M  V30 1029 H 99.6266 -3.32741 2.23796 0
M  V30 1030 H 96.2166 -2.55169 3.44364 0
M  V30 1031 H 100.401 -2.30812 4.39363 0
M  V30 1032 H 95.6566 -2.00841 5.77471 0
M  V30 1033 H 99.8306 -1.77488 6.73403 0
M  V30 1034 H 97.4576 -1.6197 7.42745 0
M  V30 1035 N 99.0327 -1.24633 -0.964593 0
M  V30 1036 C 99.9807 -1.03917 -2.08096 0
M  V30 1037 C 100.975 0.0268581 -1.69379 0
M  V30 1038 O 102.181 -0.127952 -1.79545 0
M  V30 1039 H 98.5557 -0.319044 -0.680966 0
M  V30 1040 H 100.527 -1.98581 -2.22729 0
M  V30 1041 C 99.2757 -0.663983 -3.41301 0
M  V30 1042 H 98.5987 -1.47605 -3.71555 0
M  V30 1043 H 100.039 -0.558663 -4.20303 0
M  V30 1044 C 98.4977 0.629169 -3.30973 0
M  V30 1045 O 99.0277 1.67404 -3.65156 0
M  V30 1046 N 97.2337 0.611057 -2.84103 0
M  V30 1047 H 96.7807 -0.239593 -2.56483 0
M  V30 1048 H 96.7387 1.47647 -2.77575 0
M  V30 1049 N 100.511 1.16574 -1.06058 0
M  V30 1050 C 101.421 2.2452 -0.680282 0
M  V30 1051 C 102.437 1.71348 0.302604 0
M  V30 1052 O 103.613 2.00822 0.152513 0
M  V30 1053 C 100.678 3.46629 -0.0700315 0
M  V30 1054 C 99.7388 4.14849 -1.10448 0
M  V30 1055 C 98.9718 5.31129 -0.523256 0
M  V30 1056 O 99.1948 5.66514 0.664709 0
M  V30 1057 O 98.1288 5.88526 -1.26179 0
M  V30 1058 H 101.955 2.59355 -1.58015 0
M  V30 1059 H 99.5398 1.24043 -0.832694 0
M  V30 1060 H 101.422 4.20543 0.268667 0
M  V30 1061 H 100.097 3.13573 0.803353 0
M  V30 1062 H 99.0038 3.42916 -1.49532 0
M  V30 1063 H 100.337 4.51954 -1.94931 0
M  V30 1064 N 101.989 0.842826 1.3317 0
M  V30 1065 C 102.919 0.294028 2.31641 0
M  V30 1066 C 103.9 -0.600401 1.59151 0
M  V30 1067 O 105.085 -0.523124 1.87022 0
M  V30 1068 C 102.215 -0.528416 3.43257 0
M  V30 1069 C 101.169 0.27056 4.27144 0
M  V30 1070 C 100.495 -0.675881 5.30411 0
M  V30 1071 C 101.795 1.48981 5.00602 0
M  V30 1072 H 103.489 1.11681 2.77791 0
M  V30 1073 H 101.035 0.538478 1.33553 0
M  V30 1074 H 102.988 -0.922674 4.11175 0
M  V30 1075 H 101.712 -1.38445 2.95805 0
M  V30 1076 H 100.371 0.646427 3.60856 0
M  V30 1077 H 100.019 -1.52842 4.79216 0
M  V30 1078 H 99.7189 -0.145374 5.8742 0
M  V30 1079 H 101.243 -1.06757 6.01195 0
M  V30 1080 H 102.657 1.16849 5.61266 0
M  V30 1081 H 101.054 1.95739 5.6728 0
M  V30 1082 H 102.124 2.25746 4.29147 0
M  V30 1083 N 103.467 -1.45747 0.599634 0
M  V30 1084 C 104.43 -2.28917 -0.113835 0
M  V30 1085 C 105.43 -1.3933 -0.802729 0
M  V30 1086 O 106.62 -1.61534 -0.652103 0
M  V30 1087 C 103.752 -3.20152 -1.17114 0
M  V30 1088 H 104.945 -2.93478 0.617289 0
M  V30 1089 H 102.498 -1.52137 0.358327 0
M  V30 1090 H 103.233 -2.60374 -1.93329 0
M  V30 1091 H 103.018 -3.86133 -0.681468 0
M  V30 1092 H 104.508 -3.82708 -1.67105 0
M  V30 1093 N 104.945 -0.338344 -1.53925 0
M  V30 1094 C 106.17 0.263987 -2.05713 0
M  V30 1095 C 106.595 1.43847 -1.21201 0
M  V30 1096 O 105.953 1.79904 -0.224535 0
M  V30 1097 C 106.001 0.662 -3.54471 0
M  V30 1098 O 105.105 1.76265 -3.72833 0
M  V30 1099 H 104.446 0.0448722 -0.662482 0
M  V30 1100 H 106.976 -0.491048 -1.9862 0
M  V30 1101 H 106.986 0.940594 -3.9701 0
M  V30 1102 H 105.661 -0.196937 -4.15433 0
M  V30 1103 H 104.238 1.48173 -3.42198 0
M  V30 1104 N 106.423 1.57458 -0.0668435 0
M  V30 1105 C 107.648 1.9804 0.616027 0
M  V30 1106 C 108.073 0.944771 1.62652 0
M  V30 1107 O 107.431 -0.0902094 1.81075 0
M  V30 1108 C 107.479 3.37665 1.26549 0
M  V30 1109 O 106.583 3.36701 2.38131 0
M  V30 1110 H 105.924 0.644719 0.158849 0
M  V30 1111 H 108.454 2.04121 -0.139891 0
M  V30 1112 H 108.464 3.7474 1.6135 0
M  V30 1113 H 107.139 4.12573 0.525016 0
M  V30 1114 H 105.716 3.1139 2.0516 0
M  V30 1115 N 107.901 -0.206675 1.56239 0
M  V30 1116 C 109.148 -0.928842 1.79941 0
M  V30 1117 C 109.476 -1.83734 0.638131 0
M  V30 1118 O 108.731 -1.92039 -0.376746 0
M  V30 1119 C 109.03 -1.78675 3.09532 0
M  V30 1120 C 108.696 -1.03022 4.38973 0
M  V30 1121 C 107.358 -0.821302 4.74139 0
M  V30 1122 C 109.71 -0.497081 5.18824 0
M  V30 1123 C 107.038 -0.0675719 5.86661 0
M  V30 1124 C 109.39 0.24338 6.32132 0
M  V30 1125 C 108.054 0.463422 6.65889 0
M  V30 1126 H 107.324 -0.339887 0.658451 0
M  V30 1127 H 109.971 -0.195977 1.90495 0
M  V30 1128 H 108.276 -2.58794 2.94165 0
M  V30 1129 H 109.973 -2.34792 3.25075 0
M  V30 1130 H 106.563 -1.20306 4.11369 0
M  V30 1131 H 110.747 -0.645921 4.92079 0
M  V30 1132 H 106.003 0.112995 6.11296 0
M  V30 1133 H 110.177 0.66393 6.93228 0
M  V30 1134 H 107.804 1.04938 7.52922 0
M  V30 1135 N 109.379 -1.50304 -0.473955 0
M  V30 1136 C 110.289 -1.7174 -1.5982 0
M  V30 1137 C 111.305 -0.600457 -1.63311 0
M  V30 1138 O 112.481 -0.878441 -1.81233 0
M  V30 1139 C 109.546 -1.80427 -2.96052 0
M  V30 1140 C 108.607 -3.04148 -3.02972 0
M  V30 1141 C 107.84 -3.12411 -4.32706 0
M  V30 1142 O 108.063 -2.27542 -5.23049 0
M  V30 1143 O 106.997 -4.05113 -4.45159 0
M  V30 1144 H 110.823 -2.67035 -1.44657 0
M  V30 1145 H 108.408 -1.34366 -0.653148 0
M  V30 1146 H 110.29 -1.88338 -3.7697 0
M  V30 1147 H 108.965 -0.883156 -3.11419 0
M  V30 1148 H 107.872 -3.0174 -2.21142 0
M  V30 1149 H 109.205 -3.95829 -2.92541 0
M  V30 1150 N 110.857 0.726932 -1.39834 0
M  V30 1151 C 111.807 1.83232 -1.35683 0
M  V30 1152 C 112.791 1.59155 -0.236295 0
M  V30 1153 O 113.983 1.70522 -0.474488 0
M  V30 1154 C 111.112 3.21246 -1.21062 0
M  V30 1155 C 110.198 3.51125 -2.37849 0
M  V30 1156 N 110.589 3.51889 -3.63329 0
M  V30 1157 C 108.887 3.81527 -2.30982 0
M  V30 1158 C 109.588 3.79791 -4.40606 0
M  V30 1159 N 108.564 3.97971 -3.70297 0
M  V30 1160 H 112.366 1.8214 -2.30656 0
M  V30 1161 H 109.88 0.925545 -1.33444 0
M  V30 1162 H 111.877 4.00387 -1.16171 0
M  V30 1163 H 110.537 3.23572 -0.270458 0
M  V30 1164 H 111.548 3.33008 -3.96643 0
M  V30 1165 H 108.225 3.91411 -1.45272 0
M  V30 1166 H 109.615 3.86783 -5.49408 0
M  V30 1167 N 112.336 1.25143 0.95797 0
M  V30 1168 C 113.246 1.06968 2.08794 0
M  V30 1169 C 114.262 0.00773911 1.73998 0
M  V30 1170 O 115.438 0.207972 2.00323 0
M  V30 1171 C 112.503 0.68691 3.39827 0
M  V30 1172 C 111.564 1.82641 3.88511 0
M  V30 1173 C 110.797 1.46181 5.1329 0
M  V30 1174 O 111.02 0.355971 5.69288 0
M  V30 1175 O 109.954 2.29085 5.566 0
M  V30 1176 H 113.78 2.01723 2.27027 0
M  V30 1177 H 111.365 1.04051 1.07209 0
M  V30 1178 H 113.247 0.485417 4.18595 0
M  V30 1179 H 111.922 -0.231417 3.22872 0
M  V30 1180 H 110.829 2.08274 3.10762 0
M  V30 1181 H 112.162 2.72386 4.09959 0
M  V30 1182 N 113.814 -1.1601 1.06675 0
M  V30 1183 C 115.061 -1.86633 0.785781 0
M  V30 1184 C 115.389 -1.81929 -0.687896 0
M  V30 1185 O 114.644 -1.23253 -1.52011 0
M  V30 1186 C 114.943 -3.35547 1.23057 0
M  V30 1187 C 114.609 -3.60448 2.70902 0
M  V30 1188 C 113.271 -3.66954 3.11285 0
M  V30 1189 C 115.623 -3.7071 3.66365 0
M  V30 1190 C 112.951 -3.81225 4.45965 0
M  V30 1191 C 115.303 -3.86503 5.00797 0
M  V30 1192 C 113.967 -3.91252 5.40813 0
M  V30 1193 H 113.237 -0.682937 0.287538 0
M  V30 1194 H 115.884 -1.37146 1.33654 0
M  V30 1195 H 114.189 -3.87193 0.59907 0
M  V30 1196 H 115.886 -3.88583 0.990163 0
M  V30 1197 H 112.476 -3.56021 2.38636 0
M  V30 1198 H 116.66 -3.64991 3.36296 0
M  V30 1199 H 111.916 -3.83155 4.76447 0
M  V30 1200 H 116.09 -3.93385 5.74649 0
M  V30 1201 H 113.717 -4.02062 6.45174 0
M  V30 1202 N 115.292 -0.849877 -1.32721 0
M  V30 1203 C 116.239 -0.289033 -2.28983 0
M  V30 1204 C 117.209 0.601324 -1.54833 0
M  V30 1205 O 118.394 0.537253 -1.8308 0
M  V30 1206 C 115.534 0.520623 -3.4115 0
M  V30 1207 C 114.647 -0.394989 -4.3019 0
M  V30 1208 C 113.782 0.426834 -5.29482 0
M  V30 1209 C 112.821 -0.486476 -6.10164 0
M  V30 1210 N 111.958 0.297879 -7.01468 0
M  V30 1211 H 116.798 -1.11519 -2.76347 0
M  V30 1212 H 114.335 -0.56138 -1.35967 0
M  V30 1213 H 116.293 1.00563 -4.04899 0
M  V30 1214 H 114.923 1.31165 -2.9495 0
M  V30 1215 H 113.975 -0.99836 -3.67065 0
M  V30 1216 H 115.287 -1.09612 -4.86607 0
M  V30 1217 H 114.441 0.975205 -5.98811 0
M  V30 1218 H 113.18 1.16136 -4.73671 0
M  V30 1219 H 112.185 -1.04677 -5.39743 0
M  V30 1220 H 113.41 -1.21953 -6.6806 0
M  V30 1221 H 111.356 1.01558 -6.48091 0
M  V30 1222 H 111.273 -0.344318 -7.55216 0
M  V30 1223 H 112.541 0.828131 -7.75089 0
M  V30 1224 N 116.77 1.45427 -0.607355 0
M  V30 1225 C 117.717 2.3053 0.111625 0
M  V30 1226 C 118.687 1.4209 0.860216 0
M  V30 1227 O 119.872 1.71019 0.845998 0
M  V30 1228 C 117.012 3.26992 1.10319 0
M  V30 1229 C 116.125 4.30535 0.355493 0
M  V30 1230 C 115.26 5.14105 1.33676 0
M  V30 1231 C 114.299 6.09376 0.576862 0
M  V30 1232 N 113.436 6.85727 1.5074 0
M  V30 1233 H 118.276 2.91477 -0.620093 0
M  V30 1234 H 115.813 1.43631 -0.317594 0
M  V30 1235 H 117.771 3.81385 1.6912 0
M  V30 1236 H 116.401 2.67799 1.80232 0
M  V30 1237 H 115.453 3.78805 -0.348023 0
M  V30 1238 H 116.765 4.98235 -0.237423 0
M  V30 1239 H 115.919 5.72897 1.99684 0
M  V30 1240 H 114.658 4.46423 1.9636 0
M  V30 1241 H 113.663 5.49715 -0.0968519 0
M  V30 1242 H 114.888 6.79085 -0.0449341 0
M  V30 1243 H 112.834 6.20735 2.12189 0
M  V30 1244 H 112.751 7.49778 0.967913 0
M  V30 1245 H 114.019 7.4906 2.15706 0
M  V30 1246 N 118.248 0.346503 1.53744 0
M  V30 1247 C 119.211 -0.496439 2.23759 0
M  V30 1248 C 120.211 -1.0252 1.2388 0
M  V30 1249 O 121.401 -0.913974 1.48297 0
M  V30 1250 C 118.533 -1.69187 2.95954 0
M  V30 1251 H 119.726 0.115952 2.99676 0
M  V30 1252 H 117.279 0.0978939 1.55993 0
M  V30 1253 H 118.014 -2.34288 2.24231 0
M  V30 1254 H 117.799 -1.31989 3.69217 0
M  V30 1255 H 119.289 -2.28969 3.49232 0
M  V30 1256 N 119.726 -1.57421 0.075193 0
M  V30 1257 C 120.689 -2.11791 -0.876203 0
M  V30 1258 C 121.689 -1.04268 -1.22412 0
M  V30 1259 O 122.879 -1.30242 -1.15684 0
M  V30 1260 C 120.011 -2.62207 -2.17854 0
M  V30 1261 H 121.204 -2.9716 -0.40444 0
M  V30 1262 H 118.757 -1.55333 -0.173557 0
M  V30 1263 H 119.492 -1.803 -2.6956 0
M  V30 1264 H 119.277 -3.40802 -1.93897 0
M  V30 1265 H 120.767 -3.04335 -2.85955 0
M  V30 1266 N 121.204 0.198386 -1.56346 0
M  V30 1267 C 122.481 0.944982 -1.71258 0
M  V30 1268 C 122.861 2.0151 -0.629048 0
M  V30 1269 O 122.209 2.25639 0.360473 0
M  V30 1270 C 122.419 1.5344 -3.1346 0
M  V30 1271 C 123.767 2.01778 -3.73591 0
M  V30 1272 O 124.791 1.63288 -3.16568 0
M  V30 1273 O 123.65 2.72594 -4.73661 0
M  V30 1274 H 120.744 0.442939 -0.69838 0
M  V30 1275 H 123.29 0.188342 -1.68652 0
M  V30 1276 H 122.062 0.762869 -3.83792 0
M  V30 1277 H 121.685 2.35596 -3.20282 0
M  V30 1278 N 122.682 1.50554 0.465978 0
M  V30 1279 C 123.592 1.72585 1.58907 0
M  V30 1280 C 124.608 0.60911 1.6299 0
M  V30 1281 O 125.784 0.88804 1.80765 0
M  V30 1282 C 122.849 1.81995 2.95091 0
M  V30 1283 C 121.91 3.05751 3.01355 0
M  V30 1284 C 121.143 3.14702 4.31043 0
M  V30 1285 O 121.366 2.30313 5.21835 0
M  V30 1286 O 120.3 4.07468 4.43005 0
M  V30 1287 H 124.126 2.67799 1.43239 0
M  V30 1288 H 121.711 1.34711 0.646013 0
M  V30 1289 H 123.593 1.90335 3.75966 0
M  V30 1290 H 122.268 0.899659 3.10947 0
M  V30 1291 H 121.175 3.02908 2.19539 0
M  V30 1292 H 122.508 3.97375 2.90437 0
M  V30 1293 N 124.16 -0.719506 1.40217 0
M  V30 1294 C 125.437 -1.47221 1.28784 0
M  V30 1295 C 125.817 -2.10883 -0.0956067 0
M  V30 1296 O 125.165 -1.99833 -1.10811 0
M  V30 1297 C 125.375 -2.5111 2.42373 0
M  V30 1298 C 126.723 -3.17053 2.82423 0
M  V30 1299 O 127.747 -2.61429 2.41937 0
M  V30 1300 O 126.606 -4.17742 3.52355 0
M  V30 1301 H 123.7 -0.654491 0.50554 0
M  V30 1302 H 126.246 -0.752014 1.52128 0
M  V30 1303 H 125.018 -2.02556 3.34793 0
M  V30 1304 H 124.641 -3.3067 2.20778 0
M  V30 1305 N 125.638 -1.25649 -0.95132 0
M  V30 1306 C 126.548 -1.08073 -2.08224 0
M  V30 1307 C 127.564 -0.0169666 -1.73992 0
M  V30 1308 O 128.74 -0.218593 -2.0021 0
M  V30 1309 C 125.805 -0.704922 -3.39458 0
M  V30 1310 C 124.866 -1.84699 -3.87537 0
M  V30 1311 C 124.099 -1.48902 -5.12508 0
M  V30 1312 O 124.322 -0.386156 -5.69091 0
M  V30 1313 O 123.256 -2.32033 -5.55378 0
M  V30 1314 H 127.082 -2.02924 -2.25954 0
M  V30 1315 H 124.667 -1.04618 -1.06656 0
M  V30 1316 H 126.549 -0.507609 -4.18332 0
M  V30 1317 H 125.224 0.214291 -3.2299 0
M  V30 1318 H 124.131 -2.09919 -3.09653 0
M  V30 1319 H 125.464 -2.74557 -4.08509 0
M  V30 1320 N 127.117 1.15442 -1.07289 0
M  V30 1321 C 128.064 2.20161 -0.692653 0
M  V30 1322 C 129.034 1.63073 0.31564 0
M  V30 1323 O 130.219 1.89725 0.202235 0
M  V30 1324 C 127.359 3.44967 -0.0959509 0
M  V30 1325 C 126.472 4.16256 -1.15564 0
M  V30 1326 C 125.607 5.28609 -0.524011 0
M  V30 1327 C 124.646 5.91715 -1.56653 0
M  V30 1328 N 123.783 6.9554 -0.957531 0
M  V30 1329 H 128.623 2.52037 -1.59002 0
M  V30 1330 H 126.16 1.2378 -0.794798 0
M  V30 1331 H 128.118 4.16341 0.267628 0
M  V30 1332 H 126.748 3.1361 0.764772 0
M  V30 1333 H 125.8 3.43385 -1.6368 0
M  V30 1334 H 127.112 4.59268 -1.94613 0
M  V30 1335 H 126.266 6.06604 -0.108032 0
M  V30 1336 H 125.005 4.86787 0.29825 0
M  V30 1337 H 124.01 5.12433 -1.9923 0
M  V30 1338 H 125.235 6.35614 -2.39107 0
M  V30 1339 H 123.181 6.55814 -0.156162 0
M  V30 1340 H 123.098 7.36977 -1.68526 0
M  V30 1341 H 124.366 7.77435 -0.567032 0
M  V30 1342 N 128.595 0.856903 1.32268 0
M  V30 1343 C 129.542 0.301172 2.28827 0
M  V30 1344 C 130.512 -0.593104 1.5515 0
M  V30 1345 O 131.697 -0.527537 1.83362 0
M  V30 1346 C 128.837 -0.502523 3.41422 0
M  V30 1347 C 127.95 0.417797 4.29975 0
M  V30 1348 C 127.085 -0.398749 5.29701 0
M  V30 1349 C 126.124 0.518827 6.09897 0
M  V30 1350 N 125.261 -0.260674 7.01616 0
M  V30 1351 H 130.101 1.12983 2.75751 0
M  V30 1352 H 127.638 0.568582 1.35667 0
M  V30 1353 H 129.596 -0.984141 4.05426 0
M  V30 1354 H 128.226 -1.29599 2.95642 0
M  V30 1355 H 127.278 1.01781 3.66531 0
M  V30 1356 H 128.59 1.12191 4.86019 0
M  V30 1357 H 127.744 -0.943435 5.9932 0
M  V30 1358 H 126.483 -1.13622 4.7428 0
M  V30 1359 H 125.488 1.07538 5.39181 0
M  V30 1360 H 126.713 1.25495 6.67404 0
M  V30 1361 H 124.659 -0.981198 6.4862 0
M  V30 1362 H 124.576 0.384364 7.55022 0
M  V30 1363 H 125.844 -0.787014 7.75517 0
M  V30 1364 N 130.073 -1.45103 0.615059 0
M  V30 1365 C 131.036 -2.29025 -0.0895485 0
M  V30 1366 C 132.036 -1.40174 -0.787906 0
M  V30 1367 O 133.226 -1.62217 -0.634933 0
M  V30 1368 C 130.358 -3.21376 -1.13711 0
M  V30 1369 H 131.551 -2.92807 0.648382 0
M  V30 1370 H 129.104 -1.51749 0.374444 0
M  V30 1371 H 129.839 -2.6241 -1.90556 0
M  V30 1372 H 129.624 -3.86834 -0.640475 0
M  V30 1373 H 131.114 -3.84459 -1.63036 0
M  V30 1374 N 131.551 -0.354651 -1.53558 0
M  V30 1375 C 132.967 -0.00315426 -1.596 0
M  V30 1376 C 133.167 1.47741 -1.37021 0
M  V30 1377 O 132.223 2.23759 -1.16996 0
M  V30 1378 C 133.536 -0.44929 -2.97325 0
M  V30 1379 C 135.084 -0.402578 -3.104 0
M  V30 1380 C 135.559 -0.824355 -4.5052 0
M  V30 1381 N 137.05 -0.778979 -4.56603 0
M  V30 1382 C 137.785 -1.07715 -5.63192 0
M  V30 1383 N 137.281 -1.44405 -6.77583 0
M  V30 1384 N 139.074 -1.00066 -5.53121 0
M  V30 1385 H 131.225 -1.31893 -1.66487 0
M  V30 1386 H 133.488 -0.538388 -0.780284 0
M  V30 1387 H 133.194 -1.48202 -3.1895 0
M  V30 1388 H 133.068 0.169772 -3.76818 0
M  V30 1389 H 135.455 0.621004 -2.88492 0
M  V30 1390 H 135.536 -1.05699 -2.32941 0
M  V30 1391 H 135.18 -1.846 -4.73165 0
M  V30 1392 H 135.11 -0.147304 -5.26394 0
M  V30 1393 H 137.601 -0.508528 -3.74463 0
M  V30 1394 H 137.914 -1.65612 -7.54846 0
M  V30 1395 H 136.259 -1.4826 -6.79002 0
M  V30 1396 H 139.45 -0.713293 -4.62633 0
M  V30 1397 H 139.623 -1.23638 -6.36096 0
M  V30 1398 N 133.029 1.57378 -0.0835403 0
M  V30 1399 C 134.254 1.98682 0.594987 0
M  V30 1400 C 134.679 0.961969 1.61641 0
M  V30 1401 O 134.037 -0.0709989 1.81161 0
M  V30 1402 C 134.085 3.38988 1.2296 0
M  V30 1403 O 133.189 3.39208 2.34546 0
M  V30 1404 H 132.53 0.646368 0.152002 0
M  V30 1405 H 135.06 2.03961 -0.161533 0
M  V30 1406 H 135.07 3.76431 1.57366 0
M  V30 1407 H 133.745 4.13107 0.481228 0
M  V30 1408 H 132.322 3.13548 2.01846 0
M  V30 1409 N 134.507 -0.190092 1.56449 0
M  V30 1410 C 135.923 -0.54113 1.50146 0
M  V30 1411 C 136.123 -1.85603 0.784465 0
M  V30 1412 O 135.179 -2.5024 0.337051 0
M  V30 1413 C 136.492 -0.591241 2.9483 0
M  V30 1414 C 138.04 -0.679732 3.0553 0
M  V30 1415 C 138.515 -0.760908 4.51635 0
M  V30 1416 N 140.006 -0.824302 4.55806 0
M  V30 1417 C 140.741 -0.907365 5.66175 0
M  V30 1418 N 140.237 -0.952422 6.86222 0
M  V30 1419 N 142.03 -0.94494 5.541 0
M  V30 1420 H 134.181 0.67235 2.01478 0
M  V30 1421 H 136.444 0.240127 0.917084 0
M  V30 1422 H 136.15 0.305905 3.50367 0
M  V30 1423 H 136.024 -1.44422 3.48457 0
M  V30 1424 H 138.411 -1.56731 2.50039 0
M  V30 1425 H 138.492 0.199549 2.5502 0
M  V30 1426 H 138.136 0.122336 5.07753 0
M  V30 1427 H 138.066 -1.65606 4.99882 0
M  V30 1428 H 140.557 -0.798526 3.69367 0
M  V30 1429 H 140.87 -1.01645 7.66086 0
M  V30 1430 H 139.215 -0.921014 6.8887 0
M  V30 1431 H 142.406 -0.906612 4.59236 0
M  V30 1432 H 142.579 -1.00622 6.4014 0
M  V30 1433 N 135.985 -1.50799 -0.457987 0
M  V30 1434 C 137.213 -1.66218 -1.23203 0
M  V30 1435 C 137.628 -0.350894 -1.85511 0
M  V30 1436 O 136.985 0.668546 -1.69814 0
M  V30 1437 C 137.036 -2.76291 -2.33121 0
M  V30 1438 O 136.757 -4.02338 -1.73366 0
M  V30 1439 C 138.258 -3.028 -3.2377 0
M  V30 1440 H 135.478 -0.558361 -0.372121 0
M  V30 1441 H 138.022 -1.97099 -0.545179 0
M  V30 1442 H 136.177 -2.48068 -2.97558 0
M  V30 1443 H 136.591 -4.63312 -2.4585 0
M  V30 1444 H 138.065 -3.8345 -3.97077 0
M  V30 1445 H 138.542 -2.14385 -3.83322 0
M  V30 1446 H 139.148 -3.32604 -2.65056 0
M  V30 1447 N 137.463 0.71206 -1.40597 0
M  V30 1448 C 138.709 1.47416 -1.39271 0
M  V30 1449 C 139.042 1.942 0.00388791 0
M  V30 1450 O 138.317 1.68403 0.973179 0
M  V30 1451 C 138.6 2.69774 -2.38525 0
M  V30 1452 C 138.453 2.28861 -3.87224 0
M  V30 1453 C 139.772 3.71939 -2.35264 0
M  V30 1454 H 136.891 0.534713 -0.5072 0
M  V30 1455 H 139.533 0.812375 -1.71757 0
M  V30 1456 H 137.683 3.26238 -2.10953 0
M  V30 1457 H 139.355 1.77852 -4.25636 0
M  V30 1458 H 137.598 1.60824 -4.02887 0
M  V30 1459 H 138.269 3.16584 -4.52193 0
M  V30 1460 H 140.745 3.25113 -2.59694 0
M  V30 1461 H 139.621 4.55186 -3.06753 0
M  V30 1462 H 139.882 4.20484 -1.36549 0
M  V30 1463 N 138.941 1.26152 0.944643 0
M  V30 1464 C 139.904 1.07474 2.0244 0
M  V30 1465 C 140.904 0.0242064 1.60782 0
M  V30 1466 O 142.094 0.267302 1.72137 0
M  V30 1467 C 139.226 0.633956 3.34953 0
M  V30 1468 H 140.419 2.03336 2.20442 0
M  V30 1469 H 137.972 1.087 1.12312 0
M  V30 1470 H 138.707 -0.326811 3.22649 0
M  V30 1471 H 138.492 1.39247 3.66542 0
M  V30 1472 H 139.982 0.52501 4.14287 0
M  V30 1473 N 140.419 -1.14872 1.07899 0
M  V30 1474 C 141.366 -2.19791 0.704319 0
M  V30 1475 C 142.336 -1.63238 -0.306987 0
M  V30 1476 O 143.521 -1.8983 -0.192171 0
M  V30 1477 C 140.661 -3.44911 0.114244 0
M  V30 1478 C 139.774 -4.15637 1.1777 0
M  V30 1479 C 138.909 -5.28324 0.552037 0
M  V30 1480 C 137.948 -5.90875 1.59789 0
M  V30 1481 N 137.085 -6.95022 0.994404 0
M  V30 1482 H 141.925 -2.5119 1.60336 0
M  V30 1483 H 139.462 -1.23356 0.801352 0
M  V30 1484 H 141.42 -4.16477 -0.245544 0
M  V30 1485 H 140.05 -3.14011 -0.74813 0
M  V30 1486 H 139.102 -3.42512 1.65499 0
M  V30 1487 H 140.414 -4.5823 1.97046 0
M  V30 1488 H 139.568 -6.06538 0.1402 0
M  V30 1489 H 138.307 -4.86939 -0.272431 0
M  V30 1490 H 137.312 -5.11369 2.01945 0
M  V30 1491 H 138.537 -6.34337 2.42474 0
M  V30 1492 H 136.483 -6.55722 0.190939 0
M  V30 1493 H 136.4 -7.36073 1.72432 0
M  V30 1494 H 137.668 -7.77123 0.608253 0
M  V30 1495 N 141.898 -0.863906 -1.31812 0
M  V30 1496 C 142.845 -0.313303 -2.28664 0
M  V30 1497 C 143.815 0.584868 -1.55462 0
M  V30 1498 O 145 0.517805 -1.83639 0
M  V30 1499 C 142.14 0.48441 -3.41683 0
M  V30 1500 C 141.253 -0.440594 -4.29747 0
M  V30 1501 C 140.388 0.370652 -5.29905 0
M  V30 1502 C 139.427 -0.551164 -6.09613 0
M  V30 1503 N 138.564 0.223462 -7.01744 0
M  V30 1504 H 143.404 -1.14444 -2.75148 0
M  V30 1505 H 140.941 -0.575769 -1.35364 0
M  V30 1506 H 142.899 0.962627 -4.05943 0
M  V30 1507 H 141.529 1.28029 -2.96325 0
M  V30 1508 H 140.581 -1.03724 -3.65986 0
M  V30 1509 H 141.893 -1.14767 -4.85417 0
M  V30 1510 H 141.047 0.911638 -5.99812 0
M  V30 1511 H 139.786 1.11105 -4.74876 0
M  V30 1512 H 138.791 -1.10396 -5.38603 0
M  V30 1513 H 140.016 -1.29032 -6.66729 0
M  V30 1514 H 137.962 0.946787 -6.49132 0
M  V30 1515 H 137.879 -0.424399 -7.54808 0
M  V30 1516 H 139.147 0.745876 -7.75923 0
M  V30 1517 N 143.376 1.44774 -0.622745 0
M  V30 1518 C 144.306 2.33382 0.0741861 0
M  V30 1519 C 145.287 1.47719 0.843387 0
M  V30 1520 O 146.472 1.76458 0.810934 0
M  V30 1521 C 143.602 3.30663 1.06204 0
M  V30 1522 C 142.556 4.26079 0.405037 0
M  V30 1523 C 141.882 5.13165 1.5022 0
M  V30 1524 C 143.182 5.1781 -0.683414 0
M  V30 1525 H 144.876 2.91905 -0.665713 0
M  V30 1526 H 142.422 1.40363 -0.321587 0
M  V30 1527 H 144.375 3.9153 1.55827 0
M  V30 1528 H 143.099 2.70331 1.83272 0
M  V30 1529 H 141.758 3.66532 -0.0704683 0
M  V30 1530 H 141.406 4.49191 2.26355 0
M  V30 1531 H 141.106 5.77812 1.06803 0
M  V30 1532 H 142.63 5.76902 2.00041 0
M  V30 1533 H 144.044 5.72661 -0.270631 0
M  V30 1534 H 142.441 5.91015 -1.04023 0
M  V30 1535 H 143.511 4.59326 -1.55395 0
M  V30 1536 N 144.854 0.36279 1.53368 0
M  V30 1537 C 146.1 -0.228113 2.01513 0
M  V30 1538 C 146.433 -1.48648 1.2497 0
M  V30 1539 O 145.708 -1.91459 0.342616 0
M  V30 1540 C 145.991 -0.522884 3.56284 0
M  V30 1541 C 145.844 0.74892 4.43521 0
M  V30 1542 C 147.163 -1.32461 4.19693 0
M  V30 1543 H 144.282 -0.0814343 0.732487 0
M  V30 1544 H 146.924 0.48713 1.83649 0
M  V30 1545 H 145.074 -1.1322 3.71636 0
M  V30 1546 H 146.746 1.38648 4.39971 0
M  V30 1547 H 144.989 1.36986 4.11603 0
M  V30 1548 H 145.66 0.497667 5.49752 0
M  V30 1549 H 148.136 -0.809203 4.08156 0
M  V30 1550 H 147.012 -1.49961 5.28018 0
M  V30 1551 H 147.273 -2.33232 3.75573 0
M  V30 1552 N 146.332 -1.57332 0.0918853 0
M  V30 1553 C 147.295 -2.12708 -0.85369 0
M  V30 1554 C 148.295 -1.05561 -1.213 0
M  V30 1555 O 149.485 -1.31461 -1.14296 0
M  V30 1556 C 146.617 -2.64503 -2.15061 0
M  V30 1557 H 147.81 -2.97573 -0.3729 0
M  V30 1558 H 145.363 -1.55509 -0.157072 0
M  V30 1559 H 146.098 -1.83149 -2.67632 0
M  V30 1560 H 145.883 -3.4284 -1.90272 0
M  V30 1561 H 147.373 -3.07351 -2.82711 0
M  V30 1562 N 147.81 0.181792 -1.56548 0
M  V30 1563 C 148.773 1.20894 -1.94724 0
M  V30 1564 C 149.773 1.37738 -0.829747 0
M  V30 1565 O 150.963 1.35323 -1.09697 0
M  V30 1566 C 148.095 2.57593 -2.23291 0
M  V30 1567 H 149.288 0.882275 -2.86629 0
M  V30 1568 H 146.841 0.423838 -1.50444 0
M  V30 1569 H 147.576 2.95291 -1.34067 0
M  V30 1570 H 147.361 2.46735 -3.04736 0
M  V30 1571 H 148.851 3.31637 -2.53785 0
M  V30 1572 N 149.288 1.51039 0.449983 0
M  V30 1573 C 150.251 1.70863 1.5277 0
M  V30 1574 C 151.251 0.578846 1.5002 0
M  V30 1575 O 152.441 0.846213 1.52266 0
M  V30 1576 C 149.573 1.75341 2.9235 0
M  V30 1577 H 150.766 2.67034 1.36502 0
M  V30 1578 H 148.319 1.40838 0.677812 0
M  V30 1579 H 149.054 0.809383 3.14037 0
M  V30 1580 H 148.839 2.57436 2.95752 0
M  V30 1581 H 150.329 1.92559 3.70555 0
M  V30 1582 N 150.766 -0.704594 1.40972 0
M  V30 1583 C 152.014 -1.46169 1.39568 0
M  V30 1584 C 152.335 -1.95 0.00253745 0
M  V30 1585 O 151.605 -1.71095 -0.954114 0
M  V30 1586 H 150.185 -0.542326 0.513704 0
M  V30 1587 H 152.847 -0.834553 1.76128 0
M  V30 1588 H 151.943 -2.32922 2.07735 0
M  V30 1589 N 152.244 -1.26651 -0.937939 0
M  V30 1590 C 153.655 -1.1125 -1.49934 0
M  V30 1591 C 154.006 0.306077 -1.93798 0
M  V30 1592 O 153.131 1.19792 -1.80219 0
M  V30 1593 C 153.726 -2.01339 -2.72485 0
M  V30 1594 C 152.285 -1.90074 -3.24883 0
M  V30 1595 C 151.432 -1.94498 -1.97651 0
M  V30 1596 H 154.383 -1.39693 -0.753091 0
M  V30 1597 H 154.404 -1.56319 -3.46907 0
M  V30 1598 H 153.916 -3.04577 -2.40529 0
M  V30 1599 H 152.017 -0.897827 -3.61621 0
M  V30 1600 H 152.13 -2.75778 -3.9177 0
M  V30 1601 H 150.494 -1.38591 -2.13693 0
M  V30 1602 H 151.277 -2.99372 -1.68022 0
M  V30 1603 N 153.722 1.14298 -1.08507 0
M  V30 1604 C 154.652 2.21542 -0.737646 0
M  V30 1605 C 155.633 1.67773 0.280377 0
M  V30 1606 O 156.818 1.93616 0.150521 0
M  V30 1607 C 153.948 3.46988 -0.147259 0
M  V30 1608 C 152.902 4.13789 -1.09374 0
M  V30 1609 C 152.228 5.33449 -0.365524 0
M  V30 1610 C 153.528 4.62208 -2.4323 0
M  V30 1611 H 155.222 2.5086 -1.6343 0
M  V30 1612 H 152.768 1.20576 -0.787243 0
M  V30 1613 H 154.721 4.21262 0.107808 0
M  V30 1614 H 153.445 3.17037 0.784538 0
M  V30 1615 H 152.104 3.4147 -1.33393 0
M  V30 1616 H 151.752 4.99759 0.57011 0
M  V30 1617 H 151.452 5.79088 -0.996512 0
M  V30 1618 H 152.976 6.10485 -0.118534 0
M  V30 1619 H 154.39 5.27952 -2.23472 0
M  V30 1620 H 152.787 5.18553 -3.02031 0
M  V30 1621 H 153.857 3.77224 -3.04681 0
M  V30 1622 N 155.201 0.870884 1.31352 0
M  V30 1623 C 156.478 0.402907 1.91405 0
M  V30 1624 C 156.858 -1.11512 1.79244 0
M  V30 1625 O 156.206 -1.94411 1.2007 0
M  V30 1626 C 156.416 0.885301 3.37585 0
M  V30 1627 C 157.764 0.911971 4.14691 0
M  V30 1628 O 158.788 0.831016 3.46371 0
M  V30 1629 O 157.647 1.02927 5.3672 0
M  V30 1630 H 154.741 0.120698 0.818145 0
M  V30 1631 H 157.287 0.958857 1.40014 0
M  V30 1632 H 156.059 1.92889 3.40455 0
M  V30 1633 H 155.682 0.307714 3.96407 0
M  V30 1634 N 156.679 -1.44442 0.630414 0
M  V30 1635 C 157.612 -2.27862 -0.124247 0
M  V30 1636 C 158.59 -1.38495 -0.851931 0
M  V30 1637 O 159.774 -1.67935 -0.856166 0
M  V30 1638 C 156.901 -3.17407 -1.18197 0
M  V30 1639 C 155.947 -4.22875 -0.554892 0
M  V30 1640 S 156.78 -5.31485 0.654489 0
M  V30 1641 C 157.936 -6.246 -0.40326 0
M  V30 1642 H 158.169 -2.91519 0.583435 0
M  V30 1643 H 155.702 -1.48618 0.418565 0
M  V30 1644 H 157.66 -3.69549 -1.78728 0
M  V30 1645 H 156.321 -2.52971 -1.86184 0
M  V30 1646 H 155.514 -4.85542 -1.35148 0
M  V30 1647 H 155.116 -3.73992 -0.0242105 0
M  V30 1648 H 157.408 -6.65375 -1.27602 0
M  V30 1649 H 158.351 -7.07851 0.187813 0
M  V30 1650 H 158.759 -5.59775 -0.728837 0
M  V30 1651 N 158.157 -0.370918 -1.53173 0
M  V30 1652 C 159.382 0.220293 -2.06227 0
M  V30 1653 C 159.807 1.41243 -1.24225 0
M  V30 1654 O 159.165 1.79387 -0.262645 0
M  V30 1655 C 159.213 0.586663 -3.55796 0
M  V30 1656 O 158.317 1.68317 -3.76488 0
M  V30 1657 H 157.658 0.0308099 -0.663285 0
M  V30 1658 H 160.188 -0.533068 -1.97534 0
M  V30 1659 H 160.198 0.85617 -3.98916 0
M  V30 1660 H 158.873 -0.285013 -4.14922 0
M  V30 1661 H 157.45 1.40881 -3.45264 0
M  V30 1662 N 159.635 1.57281 -0.100228 0
M  V30 1663 C 160.565 2.17328 0.853857 0
M  V30 1664 C 161.546 1.10804 1.2906 0
M  V30 1665 O 162.731 1.38963 1.35657 0
M  V30 1666 C 159.861 2.75772 2.11109 0
M  V30 1667 C 158.815 3.87713 1.81279 0
M  V30 1668 C 158.141 4.32882 3.13874 0
M  V30 1669 C 159.441 5.10677 1.09574 0
M  V30 1670 H 161.135 2.97305 0.353545 0
M  V30 1671 H 158.681 1.43009 0.168612 0
M  V30 1672 H 160.634 3.16433 2.78296 0
M  V30 1673 H 159.358 1.93057 2.63432 0
M  V30 1674 H 158.017 3.476 1.16489 0
M  V30 1675 H 157.665 3.47051 3.64095 0
M  V30 1676 H 157.365 5.08358 2.94696 0
M  V30 1677 H 158.889 4.7618 3.82211 0
M  V30 1678 H 160.303 5.48474 1.66879 0
M  V30 1679 H 158.7 5.91615 1.00557 0
M  V30 1680 H 159.77 4.84835 0.0793299 0
M  V30 1681 N 161.113 -0.173488 1.56642 0
M  V30 1682 C 162.524 -0.736155 1.71574 0
M  V30 1683 C 162.875 -1.82888 0.710389 0
M  V30 1684 O 162 -2.16017 -0.1287 0
M  V30 1685 C 162.595 -1.34211 3.11083 0
M  V30 1686 C 161.154 -1.85162 3.27707 0
M  V30 1687 C 160.301 -0.729765 2.67525 0
M  V30 1688 H 163.252 0.0518786 1.58615 0
M  V30 1689 H 163.273 -2.21178 3.09613 0
M  V30 1690 H 162.785 -0.546579 3.84232 0
M  V30 1691 H 160.886 -2.67366 2.59512 0
M  V30 1692 H 160.999 -1.99855 4.35425 0
M  V30 1693 H 159.363 -1.14965 2.27278 0
M  V30 1694 H 160.146 0.0538806 3.43258 0
M  V30 1695 N 162.591 -1.51276 -0.441967 0
M  V30 1696 C 163.816 -1.67799 -1.21895 0
M  V30 1697 C 164.241 -0.372864 -1.84367 0
M  V30 1698 O 163.599 0.666501 -1.68604 0
M  V30 1699 C 163.647 -2.79199 -2.28211 0
M  V30 1700 O 162.751 -2.42479 -3.33583 0
M  V30 1701 H 162.092 -0.559649 -0.357336 0
M  V30 1702 H 164.622 -1.97815 -0.522522 0
M  V30 1703 H 164.632 -3.03146 -2.73069 0
M  V30 1704 H 163.307 -3.73906 -1.82118 0
M  V30 1705 H 161.884 -2.29087 -2.94234 0
M  V30 1706 N 164.069 0.697108 -1.41344 0
M  V30 1707 C 165.297 1.48593 -1.43972 0
M  V30 1708 C 165.712 1.88747 -0.0445612 0
M  V30 1709 O 165.069 1.56682 0.935785 0
M  V30 1710 C 165.12 2.74946 -2.34706 0
M  V30 1711 O 164.841 2.36484 -3.68791 0
M  V30 1712 C 166.342 3.687 -2.46121 0
M  V30 1713 H 163.562 0.457964 -0.490418 0
M  V30 1714 H 166.106 0.858429 -1.8561 0
M  V30 1715 H 164.261 3.33937 -1.9638 0
M  V30 1716 H 164.675 3.17918 -4.17167 0
M  V30 1717 H 166.149 4.54145 -3.13777 0
M  V30 1718 H 166.626 4.13081 -1.49199 0
M  V30 1719 H 167.232 3.15613 -2.85076 0
M  V30 1720 N 165.547 1.27147 0.931209 0
M  V30 1721 C 166.958 1.12044 1.49342 0
M  V30 1722 C 167.309 -0.295795 1.93957 0
M  V30 1723 O 166.434 -1.18835 1.80852 0
M  V30 1724 C 167.029 2.02781 2.71414 0
M  V30 1725 C 165.588 1.91794 3.2387 0
M  V30 1726 C 164.735 1.95543 1.96617 0
M  V30 1727 H 167.686 1.40091 0.745672 0
M  V30 1728 H 167.707 1.58156 3.46074 0
M  V30 1729 H 167.219 3.05848 2.38911 0
M  V30 1730 H 165.32 0.916992 3.6114 0
M  V30 1731 H 165.433 2.77852 3.90302 0
M  V30 1732 H 163.797 1.39722 2.12955 0
M  V30 1733 H 164.58 3.00259 1.66432 0
M  V30 1734 N 167.025 -1.13721 1.09112 0
M  V30 1735 C 168.302 -1.81155 0.737706 0
M  V30 1736 C 168.682 -1.96253 -0.777683 0
M  V30 1737 O 168.03 -1.52807 -1.69889 0
M  V30 1738 C 168.24 -3.16392 1.47299 0
M  V30 1739 C 169.588 -3.91787 1.63671 0
M  V30 1740 O 170.612 -3.26005 1.43524 0
M  V30 1741 O 169.471 -5.0977 1.96969 0
M  V30 1742 H 166.565 -0.783518 0.26463 0
M  V30 1743 H 169.111 -1.20676 1.19312 0
M  V30 1744 H 167.883 -3.0061 2.50498 0
M  V30 1745 H 167.506 -3.8457 1.00953 0
M  V30 1746 N 168.503 -0.877838 -1.30888 0
M  V30 1747 C 169.752 -0.488793 -1.95688 0
M  V30 1748 C 170.065 0.965485 -1.70111 0
M  V30 1749 O 171.271 1.46104 -2.28836 0
M  V30 1750 C 169.727 -0.823201 -3.50359 0
M  V30 1751 C 169.335 -2.29477 -3.84765 0
M  V30 1752 C 171.079 -0.503009 -4.21509 0
M  V30 1753 C 168.986 -2.57118 -5.32583 0
M  V30 1754 H 167.916 -0.179062 -0.732429 0
M  V30 1755 H 170.567 -1.07183 -1.48943 0
M  V30 1756 H 168.949 -0.169331 -3.95638 0
M  V30 1757 H 170.123 -2.99236 -3.5042 0
M  V30 1758 H 168.438 -2.58178 -3.267 0
M  V30 1759 H 171.035 -0.68665 -5.30273 0
M  V30 1760 H 171.378 0.557109 -4.12555 0
M  V30 1761 H 171.911 -1.11376 -3.8189 0
M  V30 1762 H 168.65 -3.61843 -5.4658 0
M  V30 1763 H 168.17 -1.91961 -5.68253 0
M  V30 1764 H 169.849 -2.42251 -5.99936 0
M  V30 1765 N 169.982 1.44106 -0.638065 0
M  V30 1766 C 170.929 2.30715 0.062701 0
M  V30 1767 C 171.899 1.43882 0.829883 0
M  V30 1768 O 173.084 1.72775 0.809532 0
M  V30 1769 C 170.224 3.29258 1.03358 0
M  V30 1770 C 169.337 4.31192 0.26409 0
M  V30 1771 C 168.472 5.16825 1.22741 0
M  V30 1772 C 167.511 6.10462 0.447475 0
M  V30 1773 N 166.648 6.8877 1.36161 0
M  V30 1774 H 171.488 2.90096 -0.681781 0
M  V30 1775 H 169.025 1.42925 -0.347988 0
M  V30 1776 H 170.983 3.84886 1.60992 0
M  V30 1777 H 169.613 2.71562 1.74511 0
M  V30 1778 H 168.665 3.77981 -0.428295 0
M  V30 1779 H 169.977 4.97619 -0.343052 0
M  V30 1780 H 169.131 5.77004 1.87487 0
M  V30 1781 H 167.87 4.50488 1.86847 0
M  V30 1782 H 166.875 5.49386 -0.213433 0
M  V30 1783 H 168.1 6.78837 -0.188968 0
M  V30 1784 H 166.046 6.25096 1.98975 0
M  V30 1785 H 165.963 7.51663 0.808656 0
M  V30 1786 H 167.231 7.53467 1.99769 0
M  V30 1787 N 171.46 0.379036 1.52974 0
M  V30 1788 C 172.709 -0.207612 2.00629 0
M  V30 1789 C 173.022 -1.48758 1.27006 0
M  V30 1790 O 174.228 -2.15365 1.65318 0
M  V30 1791 C 172.684 -0.42053 3.57435 0
M  V30 1792 C 172.292 0.845587 4.39948 0
M  V30 1793 C 174.036 -0.964102 4.13407 0
M  V30 1794 C 171.943 0.601513 5.88333 0
M  V30 1795 H 170.873 -0.0813591 0.749598 0
M  V30 1796 H 173.524 0.499853 1.76561 0
M  V30 1797 H 171.906 -1.18959 3.7771 0
M  V30 1798 H 173.08 1.61848 4.31442 0
M  V30 1799 H 171.395 1.31336 3.95145 0
M  V30 1800 H 173.992 -1.16225 5.21916 0
M  V30 1801 H 174.335 -1.93019 3.68849 0
M  V30 1802 H 174.868 -0.25487 3.96983 0
M  V30 1803 H 171.607 1.53831 6.37194 0
M  V30 1804 H 171.127 -0.132628 5.99653 0
M  V30 1805 H 172.806 0.232134 6.46583 0
M  V30 1806 N 172.938 -1.57226 0.108567 0
M  V30 1807 C 173.885 -2.14756 -0.845481 0
M  V30 1808 C 174.855 -1.06971 -1.27068 0
M  V30 1809 O 176.04 -1.34827 -1.35005 0
M  V30 1810 C 173.18 -2.74298 -2.09415 0
M  V30 1811 C 172.293 -3.96358 -1.71826 0
M  V30 1812 C 171.428 -4.44021 -2.9158 0
M  V30 1813 C 170.467 -5.58637 -2.50181 0
M  V30 1814 N 169.604 -6.01091 -3.62814 0
M  V30 1815 H 174.444 -2.95961 -0.348035 0
M  V30 1816 H 171.981 -1.46226 -0.160106 0
M  V30 1817 H 173.939 -3.06945 -2.82561 0
M  V30 1818 H 172.569 -1.95801 -2.56636 0
M  V30 1819 H 171.621 -3.69939 -0.885947 0
M  V30 1820 H 172.933 -4.79504 -1.37394 0
M  V30 1821 H 172.087 -4.78522 -3.72963 0
M  V30 1822 H 170.826 -3.59803 -3.29231 0
M  V30 1823 H 169.831 -5.23751 -1.67228 0
M  V30 1824 H 171.056 -6.44613 -2.13659 0
M  V30 1825 H 169.002 -5.19817 -4.00158 0
M  V30 1826 H 168.919 -6.79066 -3.32273 0
M  V30 1827 H 170.187 -6.40227 -4.44668 0
M  V30 1828 N 174.416 0.165178 -1.56732 0
M  V30 1829 C 175.326 1.22423 -2.00125 0
M  V30 1830 C 176.342 1.48084 -0.913619 0
M  V30 1831 O 177.518 1.60112 -1.22172 0
M  V30 1832 C 174.583 2.54197 -2.35764 0
M  V30 1833 C 173.644 2.36343 -3.58386 0
M  V30 1834 C 172.877 3.61834 -3.92316 0
M  V30 1835 O 173.1 4.67267 -3.27135 0
M  V30 1836 O 172.034 3.55579 -4.85641 0
M  V30 1837 H 175.86 0.885886 -2.90492 0
M  V30 1838 H 173.445 0.372518 -1.44681 0
M  V30 1839 H 175.327 3.3192 -2.59629 0
M  V30 1840 H 174.002 2.87598 -1.48557 0
M  V30 1841 H 172.909 1.56632 -3.39731 0
M  V30 1842 H 174.242 2.07865 -4.46154 0
M  V30 1843 N 175.894 1.51508 0.433938 0
M  V30 1844 C 176.804 1.75917 1.5521 0
M  V30 1845 C 177.82 0.643545 1.61662 0
M  V30 1846 O 178.996 0.926183 1.7884 0
M  V30 1847 C 176.061 1.88213 2.91164 0
M  V30 1848 C 175.122 3.12074 2.94802 0
M  V30 1849 C 174.355 3.23774 4.24271 0
M  V30 1850 O 174.578 2.4133 5.16833 0
M  V30 1851 O 173.512 4.16774 4.34262 0
M  V30 1852 H 177.338 2.70777 1.37527 0
M  V30 1853 H 174.923 1.36051 0.617293 0
M  V30 1854 H 176.805 1.98267 3.71845 0
M  V30 1855 H 175.48 0.965413 3.08968 0
M  V30 1856 H 174.387 3.07497 2.13065 0
M  V30 1857 H 175.72 4.03446 2.81943 0
M  V30 1858 N 177.372 -0.689602 1.41712 0
M  V30 1859 C 178.282 -1.83314 1.46401 0
M  V30 1860 C 179.298 -1.7036 0.35405 0
M  V30 1861 O 180.474 -1.92171 0.602692 0
M  V30 1862 C 177.539 -3.19344 1.34982 0
M  V30 1863 C 176.6 -3.44363 2.56344 0
M  V30 1864 C 175.833 -4.73904 2.45461 0
M  V30 1865 O 176.056 -5.508 1.48241 0
M  V30 1866 O 174.99 -4.99839 3.35328 0
M  V30 1867 H 178.816 -1.82314 2.42889 0
M  V30 1868 H 176.401 -0.843438 1.23315 0
M  V30 1869 H 178.283 -4.00547 1.3092 0
M  V30 1870 H 176.958 -3.21014 0.41612 0
M  V30 1871 H 175.865 -2.63067 2.65982 0
M  V30 1872 H 177.198 -3.47512 3.48563 0
M  V30 1873 N 178.85 -1.27639 -0.924453 0
M  V30 1874 C 180.261 -1.12834 -1.48746 0
M  V30 1875 C 180.612 0.285505 -1.94112 0
M  V30 1876 O 179.737 1.17874 -1.81479 0
M  V30 1877 C 180.332 -2.04217 -2.70334 0
M  V30 1878 C 178.891 -1.93509 -3.22848 0
M  V30 1879 C 178.038 -1.96583 -1.95577 0
M  V30 1880 H 180.989 -1.40484 -0.738233 0
M  V30 1881 H 181.01 -1.59989 -3.4523 0
M  V30 1882 H 180.522 -3.07111 -2.37285 0
M  V30 1883 H 178.623 -0.936131 -3.60649 0
M  V30 1884 H 178.736 -2.79917 -3.88823 0
M  V30 1885 H 177.1 -1.4085 -2.12211 0
M  V30 1886 H 177.883 -3.01137 -1.64837 0
M  V30 1887 N 180.328 1.1314 -1.09713 0
M  V30 1888 C 181.574 1.84757 -0.836224 0
M  V30 1889 C 181.907 1.8347 0.636598 0
M  V30 1890 O 181.182 1.27491 1.46889 0
M  V30 1891 C 181.465 3.32782 -1.37578 0
M  V30 1892 C 181.318 3.42567 -2.91493 0
M  V30 1893 C 182.637 4.28307 -1.01198 0
M  V30 1894 H 179.756 0.67082 -0.305236 0
M  V30 1895 H 182.398 1.3278 -1.35903 0
M  V30 1896 H 180.548 3.77177 -0.931097 0
M  V30 1897 H 182.22 3.06862 -3.44432 0
M  V30 1898 H 180.463 2.83349 -3.28475 0
M  V30 1899 H 181.134 4.46674 -3.24324 0
M  V30 1900 H 183.61 3.91999 -1.39556 0
M  V30 1901 H 182.486 5.30307 -1.41653 0
M  V30 1902 H 182.747 4.42029 0.0794833 0
M  V30 1903 N 181.806 0.884767 1.30421 0
M  V30 1904 C 182.716 0.355398 2.31892 0
M  V30 1905 C 183.732 -0.542261 1.65335 0
M  V30 1906 O 184.908 -0.435432 1.96637 0
M  V30 1907 C 181.973 -0.421661 3.44126 0
M  V30 1908 C 181.034 0.505727 4.26311 0
M  V30 1909 C 180.267 -0.234343 5.33185 0
M  V30 1910 O 180.49 -1.46045 5.51386 0
M  V30 1911 O 179.424 0.415443 6.00465 0
M  V30 1912 H 183.25 1.19685 2.79122 0
M  V30 1913 H 180.835 0.648596 1.34587 0
M  V30 1914 H 182.717 -0.861641 4.12497 0
M  V30 1915 H 181.392 -1.23942 2.99032 0
M  V30 1916 H 180.299 0.994513 3.60639 0
M  V30 1917 H 181.632 1.28948 4.75009 0
M  V30 1918 N 183.284 -1.43765 0.645699 0
M  V30 1919 C 184.53 -2.02197 0.156271 0
M  V30 1920 C 184.863 -1.50776 -1.22393 0
M  V30 1921 O 184.138 -0.697771 -1.81553 0
M  V30 1922 C 184.421 -3.59749 0.158872 0
M  V30 1923 C 184.274 -4.21419 1.57245 0
M  V30 1924 C 185.593 -4.37149 -0.50879 0
M  V30 1925 H 182.712 -0.734694 0.0582602 0
M  V30 1926 H 185.354 -1.71157 0.824951 0
M  V30 1927 H 183.504 -3.86325 -0.410525 0
M  V30 1928 H 185.176 -4.059 2.19186 0
M  V30 1929 H 183.419 -3.78356 2.122 0
M  V30 1930 H 184.09 -5.30482 1.52619 0
M  V30 1931 H 186.566 -4.16093 -0.024412 0
M  V30 1932 H 185.442 -5.4683 -0.476213 0
M  V30 1933 H 185.703 -4.12839 -1.58165 0
M  V30 1934 N 184.763 -0.387143 -1.52771 0
M  V30 1935 C 186.04 0.253197 -1.93954 0
M  V30 1936 C 186.42 1.64545 -1.32243 0
M  V30 1937 O 185.768 2.23191 -0.489699 0
M  V30 1938 C 185.978 0.281722 -3.47861 0
M  V30 1939 C 187.326 0.511715 -4.21505 0
M  V30 1940 O 188.35 0.362023 -3.54356 0
M  V30 1941 O 187.209 0.804847 -5.40541 0
M  V30 1942 H 184.303 0.156845 -0.811991 0
M  V30 1943 H 186.849 -0.441494 -1.63856 0
M  V30 1944 H 185.621 -0.693571 -3.85104 0
M  V30 1945 H 185.244 1.02142 -3.84256 0
M  V30 1946 N 186.241 1.57166 -0.116904 0
M  V30 1947 C 187.466 1.999 0.55271 0
M  V30 1948 C 187.891 0.996039 1.59564 0
M  V30 1949 O 187.249 -0.032556 1.81271 0
M  V30 1950 C 187.297 3.4152 1.15742 0
M  V30 1951 O 186.401 3.44106 2.27299 0
M  V30 1952 H 185.742 0.649447 0.138258 0
M  V30 1953 H 188.272 2.03573 -0.204759 0
M  V30 1954 H 188.282 3.79684 1.49346 0
M  V30 1955 H 186.957 4.14034 0.393493 0
M  V30 1956 H 185.534 3.17759 1.9515 0
M  V30 1957 N 187.719 -0.156864 1.56817 0
M  V30 1958 C 188.944 -0.890331 1.87318 0
M  V30 1959 C 189.369 -1.74394 0.704855 0
M  V30 1960 O 188.727 -1.77972 -0.345786 0
M  V30 1961 C 188.775 -1.73102 3.16336 0
M  V30 1962 O 187.879 -2.83422 2.99576 0
M  V30 1963 H 187.22 -0.24857 0.615718 0
M  V30 1964 H 189.75 -0.150649 2.04045 0
M  V30 1965 H 189.76 -2.12803 3.48107 0
M  V30 1966 H 188.435 -1.10412 4.00976 0
M  V30 1967 H 187.012 -2.47199 2.7919 0
M  V30 1968 N 189.197 -1.51736 -0.425897 0
M  V30 1969 C 190.608 -1.5732 -1.00536 0
M  V30 1970 C 190.959 -0.403537 -1.92005 0
M  V30 1971 O 190.084 0.478256 -2.11049 0
M  V30 1972 C 190.679 -2.85119 -1.8301 0
M  V30 1973 C 189.238 -2.93236 -2.35987 0
M  V30 1974 C 188.385 -2.52098 -1.15508 0
M  V30 1975 H 191.336 -1.57348 -0.206739 0
M  V30 1976 H 191.357 -2.69526 -2.68581 0
M  V30 1977 H 190.869 -3.7023 -1.16411 0
M  V30 1978 H 188.97 -2.12581 -3.06007 0
M  V30 1979 H 189.083 -3.9713 -2.68001 0
M  V30 1980 H 187.447 -2.05558 -1.50393 0
M  V30 1981 H 188.23 -3.39565 -0.505014 0
M  V30 1982 N 190.675 0.682077 -1.42076 0
M  V30 1983 C 192.086 1.26246 -1.37546 0
M  V30 1984 C 192.437 1.96092 -0.0651481 0
M  V30 1985 O 191.562 1.99587 0.836297 0
M  V30 1986 C 192.157 2.29594 -2.49143 0
M  V30 1987 C 190.716 2.83175 -2.47969 0
M  V30 1988 C 189.863 1.57395 -2.28303 0
M  V30 1989 H 192.814 0.475937 -1.51395 0
M  V30 1990 H 192.835 3.11175 -2.18976 0
M  V30 1991 H 192.347 1.78729 -3.44496 0
M  V30 1992 H 190.448 3.3818 -1.56413 0
M  V30 1993 H 190.561 3.32687 -3.44755 0
M  V30 1994 H 188.925 1.83699 -1.76428 0
M  V30 1995 H 189.708 1.08507 -3.25701 0
M  V30 1996 N 192.153 1.28127 0.917671 0
M  V30 1997 C 193.43 1.05761 1.64542 0
M  V30 1998 C 193.81 -0.404344 2.07191 0
M  V30 1999 O 193.158 -1.38963 1.81388 0
M  V30 2000 C 193.368 2.02857 2.83989 0
M  V30 2001 C 194.716 2.32786 3.551 0
M  V30 2002 O 195.74 2.0091 2.94132 0
M  V30 2003 O 194.599 2.87169 4.64969 0
M  V30 2004 H 191.693 0.403916 0.721652 0
M  V30 2005 H 194.239 1.39431 0.967322 0
M  V30 2006 H 193.011 3.01407 2.49538 0
M  V30 2007 H 192.634 1.69809 3.59514 0
M  V30 2008 N 193.631 -1.12557 1.10312 0
M  V30 2009 C 194.856 -1.88405 0.867085 0
M  V30 2010 C 195.281 -1.79038 -0.576817 0
M  V30 2011 O 194.639 -1.14439 -1.40618 0
M  V30 2012 C 194.687 -3.3563 1.31851 0
M  V30 2013 O 193.791 -4.09565 0.482734 0
M  V30 2014 H 193.132 -0.585455 0.313271 0
M  V30 2015 H 195.662 -1.42352 1.4696 0
M  V30 2016 H 195.672 -3.86469 1.3079 0
M  V30 2017 H 194.347 -3.41765 2.37001 0
M  V30 2018 H 192.924 -3.68695 0.558448 0
M  V30 2019 N 195.109 -0.891671 -1.2995 0
M  V30 2020 C 196.52 -0.563104 -1.78006 0
M  V30 2021 C 196.871 0.920978 -1.73241 0
M  V30 2022 O 195.996 1.71987 -1.31337 0
M  V30 2023 C 196.591 -1.01539 -3.23226 0
M  V30 2024 C 195.15 -0.738124 -3.69092 0
M  V30 2025 C 194.297 -1.19461 -2.50249 0
M  V30 2026 H 197.248 -1.07522 -1.16725 0
M  V30 2027 H 197.269 -0.347217 -3.78912 0
M  V30 2028 H 196.781 -2.09555 -3.26662 0
M  V30 2029 H 194.882 0.329766 -3.71138 0
M  V30 2030 H 194.995 -1.33037 -4.60259 0
M  V30 2031 H 193.359 -0.613787 -2.47194 0
M  V30 2032 H 194.142 -2.28265 -2.56417 0
M  V30 2033 N 196.587 1.43421 -0.653314 0
M  V30 2034 C 197.55 2.29182 0.0287951 0
M  V30 2035 C 198.55 1.42213 0.750465 0
M  V30 2036 O 199.74 1.63843 0.591701 0
M  V30 2037 C 196.872 3.24278 1.05151 0
M  V30 2038 H 198.065 2.90985 -0.725786 0
M  V30 2039 H 195.618 1.50702 -0.414545 0
M  V30 2040 H 196.353 2.6737 1.83532 0
M  V30 2041 H 196.138 3.88396 0.537687 0
M  V30 2042 H 197.628 3.88647 1.52786 0
M  V30 2043 N 198.065 0.39524 1.52563 0
M  V30 2044 C 199.29 -0.187456 2.06551 0
M  V30 2045 C 199.715 -1.39249 1.26457 0
M  V30 2046 O 199.073 -1.78947 0.291151 0
M  V30 2047 C 199.121 -0.529985 3.56684 0
M  V30 2048 O 198.225 -1.62307 3.79118 0
M  V30 2049 H 197.566 -0.0202537 0.663691 0
M  V30 2050 H 200.096 0.564426 1.96661 0
M  V30 2051 H 200.106 -0.792598 4.00227 0
M  V30 2052 H 198.781 0.350987 4.14416 0
M  V30 2053 H 197.358 -1.3537 3.47461 0
M  V30 2054 N 199.544 -1.57102 0.125237 0
M  V30 2055 C 200.769 -2.0019 -0.542101 0
M  V30 2056 C 201.194 -1.00449 -1.59034 0
M  V30 2057 O 200.552 0.0229423 -1.81285 0
M  V30 2058 C 200.6 -3.42129 -1.13929 0
M  V30 2059 O 199.704 -3.45307 -2.2547 0
M  V30 2060 H 199.045 -0.650171 -0.134812 0
M  V30 2061 H 201.575 -2.03461 0.215553 0
M  V30 2062 H 201.585 -3.80471 -1.4733 0
M  V30 2063 H 200.26 -4.14237 -0.371531 0
M  V30 2064 H 198.837 -3.1879 -1.93462 0
M  V30 2065 N 201.022 0.148545 -1.56898 0
M  V30 2066 C 202.433 0.708766 -1.72723 0
M  V30 2067 C 202.784 1.81734 -0.739395 0
M  V30 2068 O 201.909 2.16194 0.0943169 0
M  V30 2069 C 202.504 1.29245 -3.13179 0
M  V30 2070 C 201.063 1.79925 -3.30611 0
M  V30 2071 C 200.21 0.687111 -2.68652 0
M  V30 2072 H 203.161 -0.0771063 -1.58513 0
M  V30 2073 H 203.182 2.16224 -3.13093 0
M  V30 2074 H 202.694 0.485382 -3.85053 0
M  V30 2075 H 200.795 2.63203 -2.63732 0
M  V30 2076 H 200.908 1.92903 -4.38549 0
M  V30 2077 H 199.272 1.11335 -2.29078 0
M  V30 2078 H 200.055 -0.108483 -3.43129 0
M  V30 2079 N 202.5 1.5196 0.417844 0
M  V30 2080 C 203.74 1.67262 1.17486 0
M  V30 2081 C 204.104 0.38983 1.88001 0
M  V30 2082 O 205.305 0.418845 2.65517 0
M  V30 2083 C 203.576 2.85526 2.14965 0
M  V30 2084 S 205.135 3.21263 2.98891 0
M  V30 2085 H 201.953 0.589077 0.398132 0
M  V30 2086 H 204.555 1.89927 0.463452 0
M  V30 2087 H 203.259 3.77145 1.61833 0
M  V30 2088 H 202.79 2.65107 2.90657 0
M  V30 2089 H 204.805 2.69208 4.16823 0
M  V30 2090 N 203.978 -0.674533 1.42435 0
M  V30 2091 C 205.203 -1.46784 1.46524 0
M  V30 2092 C 205.628 -1.87938 0.078066 0
M  V30 2093 O 204.986 -1.56014 -0.92354 0
M  V30 2094 C 205.034 -2.69307 2.39805 0
M  V30 2095 O 204.138 -3.67587 1.86959 0
M  V30 2096 H 203.479 -0.440959 0.496439 0
M  V30 2097 H 206.009 -0.827326 1.87127 0
M  V30 2098 H 206.019 -3.17374 2.56393 0
M  V30 2099 H 204.694 -2.38692 3.40586 0
M  V30 2100 H 203.271 -3.2662 1.79927 0
M  V30 2101 N 205.456 -1.28612 -0.910864 0
M  V30 2102 C 206.867 -1.14406 -1.47541 0
M  V30 2103 C 207.218 0.264901 -1.94403 0
M  V30 2104 O 206.343 1.15942 -1.82719 0
M  V30 2105 C 206.938 -2.07073 -2.68153 0
M  V30 2106 C 205.497 -1.96923 -3.20778 0
M  V30 2107 C 204.644 -1.98646 -1.93481 0
M  V30 2108 H 207.595 -1.41259 -0.723291 0
M  V30 2109 H 207.616 -1.63642 -3.43514 0
M  V30 2110 H 207.128 -3.09611 -2.34015 0
M  V30 2111 H 205.229 -0.97433 -3.59635 0
M  V30 2112 H 205.342 -2.84026 -3.85832 0
M  V30 2113 H 203.706 -1.43093 -2.10705 0
M  V30 2114 H 204.489 -3.02868 -1.61634 0
M  V30 2115 N 206.934 1.1197 -1.10907 0
M  V30 2116 C 208.345 1.65114 -0.871446 0
M  V30 2117 C 208.696 1.86885 0.597353 0
M  V30 2118 O 207.821 1.59896 1.45816 0
M  V30 2119 C 208.416 2.99944 -1.5754 0
M  V30 2120 C 206.975 3.50018 -1.38435 0
M  V30 2121 C 206.122 2.24941 -1.62164 0
M  V30 2122 H 209.073 0.956851 -1.2661 0
M  V30 2123 H 209.094 3.66651 -1.01721 0
M  V30 2124 H 208.606 2.84067 -2.64438 0
M  V30 2125 H 206.707 3.71071 -0.337214 0
M  V30 2126 H 206.82 4.29165 -2.12965 0
M  V30 2127 H 205.184 2.3229 -1.04467 0
M  V30 2128 H 205.967 2.11612 -2.70324 0
M  V30 2129 N 208.412 0.89855 1.29475 0
M  V30 2130 C 209.342 0.39201 2.30186 0
M  V30 2131 C 210.323 -0.532359 1.61555 0
M  V30 2132 O 211.508 -0.443331 1.89072 0
M  V30 2133 C 208.638 -0.382353 3.45189 0
M  V30 2134 C 207.592 0.451483 4.25612 0
M  V30 2135 C 206.918 -0.450307 5.328 0
M  V30 2136 C 208.218 1.70079 4.93832 0
M  V30 2137 H 209.912 1.23362 2.72804 0
M  V30 2138 H 207.458 0.594638 1.31149 0
M  V30 2139 H 209.411 -0.747451 4.14718 0
M  V30 2140 H 208.135 -1.25774 3.01411 0
M  V30 2141 H 206.794 0.798897 3.57789 0
M  V30 2142 H 206.442 -1.32379 4.85268 0
M  V30 2143 H 206.142 0.103902 5.87508 0
M  V30 2144 H 207.666 -0.811623 6.05182 0
M  V30 2145 H 209.08 1.40549 5.55805 0
M  V30 2146 H 207.477 2.19623 5.58467 0
M  V30 2147 H 208.547 2.43744 4.19186 0
M  V30 2148 N 209.89 -1.43072 0.660911 0
M  V30 2149 C 210.837 -2.30785 -0.0259884 0
M  V30 2150 C 211.807 -1.45184 -0.806888 0
M  V30 2151 O 212.992 -1.74041 -0.781943 0
M  V30 2152 C 210.132 -3.30861 -0.981067 0
M  V30 2153 C 209.245 -4.31558 -0.195458 0
M  V30 2154 C 208.38 -5.18712 -1.14503 0
M  V30 2155 C 207.419 -6.11097 -0.350299 0
M  V30 2156 N 206.556 -6.90849 -1.25186 0
M  V30 2157 H 211.396 -2.88975 0.727846 0
M  V30 2158 H 208.933 -1.42353 0.370682 0
M  V30 2159 H 210.891 -3.87399 -1.54849 0
M  V30 2160 H 209.521 -2.74304 -1.70169 0
M  V30 2161 H 208.573 -3.77252 0.488374 0
M  V30 2162 H 209.885 -4.9701 0.422176 0
M  V30 2163 H 209.039 -5.79914 -1.78284 0
M  V30 2164 H 207.778 -4.53404 -1.79656 0
M  V30 2165 H 206.783 -5.48976 0.300808 0
M  V30 2166 H 208.008 -6.7845 0.296941 0
M  V30 2167 H 205.954 -6.28182 -1.89005 0
M  V30 2168 H 205.871 -7.52854 -0.688971 0
M  V30 2169 H 207.139 -7.5655 -1.87757 0
M  V30 2170 N 211.368 -0.403325 -1.52352 0
M  V30 2171 C 212.278 0.432009 -2.30588 0
M  V30 2172 C 213.294 1.05884 -1.38075 0
M  V30 2173 O 214.47 1.06161 -1.71148 0
M  V30 2174 C 211.535 1.53669 -3.10784 0
M  V30 2175 C 210.596 0.933525 -4.19027 0
M  V30 2176 C 209.829 1.98557 -4.9539 0
M  V30 2177 O 210.052 3.20283 -4.71991 0
M  V30 2178 O 208.986 1.59504 -5.80381 0
M  V30 2179 H 212.812 -0.205739 -3.03002 0
M  V30 2180 H 210.397 -0.166675 -1.48467 0
M  V30 2181 H 212.279 2.17814 -3.60742 0
M  V30 2182 H 210.954 2.15915 -2.41169 0
M  V30 2183 H 209.861 0.254954 -3.7323 0
M  V30 2184 H 211.194 0.35508 -4.90918 0
M  V30 2185 N 212.846 1.57033 -0.133567 0
M  V30 2186 C 213.793 2.16074 0.811208 0
M  V30 2187 C 214.763 1.08979 1.2535 0
M  V30 2188 O 215.948 1.36958 1.32843 0
M  V30 2189 C 213.088 2.77595 2.05024 0
M  V30 2190 C 212.201 3.99042 1.65498 0
M  V30 2191 C 211.336 4.48603 2.84479 0
M  V30 2192 C 210.375 5.62547 2.41262 0
M  V30 2193 N 209.512 6.06787 3.53206 0
M  V30 2194 H 214.352 2.96477 0.300906 0
M  V30 2195 H 211.889 1.46462 0.136822 0
M  V30 2196 H 213.847 3.11402 2.77642 0
M  V30 2197 H 212.477 1.99859 2.53488 0
M  V30 2198 H 211.529 3.71302 0.826981 0
M  V30 2199 H 212.841 4.81629 1.29748 0
M  V30 2200 H 211.995 4.84395 3.65303 0
M  V30 2201 H 210.734 3.64995 3.23465 0
M  V30 2202 H 209.739 5.26345 1.58874 0
M  V30 2203 H 210.964 6.47931 2.03377 0
M  V30 2204 H 208.91 5.26117 3.91838 0
M  V30 2205 H 208.827 6.84266 3.21427 0
M  V30 2206 H 210.095 6.4722 4.34427 0
M  V30 2207 N 214.325 -0.140222 1.56975 0
M  V30 2208 C 215.235 -1.19223 2.02047 0
M  V30 2209 C 216.251 -1.46612 0.937062 0
M  V30 2210 O 217.427 -1.58148 1.24704 0
M  V30 2211 C 214.492 -2.50414 2.39778 0
M  V30 2212 C 213.553 -2.30612 3.621 0
M  V30 2213 C 212.786 -3.55547 3.98023 0
M  V30 2214 O 213.009 -4.62004 3.34528 0
M  V30 2215 O 211.943 -3.47808 4.91237 0
M  V30 2216 H 215.769 -0.839559 2.91865 0
M  V30 2217 H 213.354 -0.349453 1.45256 0
M  V30 2218 H 215.236 -3.27747 2.64877 0
M  V30 2219 H 213.911 -2.85198 1.53114 0
M  V30 2220 H 212.818 -1.51207 3.4218 0
M  V30 2221 H 214.151 -2.00741 4.49404 0
M  V30 2222 N 215.803 -1.52179 -0.40978 0
M  V30 2223 C 217.049 -1.66453 -1.15851 0
M  V30 2224 C 217.382 -0.392972 -1.90182 0
M  V30 2225 O 216.657 0.608579 -1.84734 0
M  V30 2226 C 216.94 -2.88612 -2.15349 0
M  V30 2227 C 216.793 -4.25815 -1.44918 0
M  V30 2228 C 218.112 -3.06294 -3.16026 0
M  V30 2229 H 215.231 -0.60575 -0.419805 0
M  V30 2230 H 217.873 -1.84732 -0.444314 0
M  V30 2231 H 216.023 -2.73158 -2.76255 0
M  V30 2232 H 217.695 -4.52995 -0.871365 0
M  V30 2233 H 215.938 -4.27247 -0.751159 0
M  V30 2234 H 216.609 -5.07337 -2.17516 0
M  V30 2235 H 219.085 -3.20641 -2.65195 0
M  V30 2236 H 217.961 -3.93283 -3.8291 0
M  V30 2237 H 218.222 -2.19579 -3.83715 0
M  V30 2238 N 217.281 0.66697 -1.42791 0
M  V30 2239 C 218.509 1.45505 -1.47091 0
M  V30 2240 C 218.924 1.8861 -0.0845873 0
M  V30 2241 O 218.281 1.58632 0.90234 0
M  V30 2242 C 218.332 2.69906 -2.40485 0
M  V30 2243 O 218.053 2.28608 -3.73725 0
M  V30 2244 C 219.554 3.63396 -2.53886 0
M  V30 2245 H 216.774 0.447459 -0.500022 0
M  V30 2246 H 219.318 0.818866 -1.8739 0
M  V30 2247 H 217.473 3.29696 -2.03419 0
M  V30 2248 H 217.887 3.08997 -4.23817 0
M  V30 2249 H 219.361 4.47387 -3.2334 0
M  V30 2250 H 219.838 4.09824 -1.57927 0
M  V30 2251 H 220.444 3.09495 -2.91706 0
M  V30 2252 N 218.759 1.29093 0.90403 0
M  V30 2253 C 220.17 1.15186 1.46932 0
M  V30 2254 C 220.521 -0.254587 1.94541 0
M  V30 2255 O 219.646 -1.14972 1.83332 0
M  V30 2256 C 220.241 2.08492 2.67051 0
M  V30 2257 C 218.8 1.98621 3.19729 0
M  V30 2258 C 217.947 1.9967 1.92425 0
M  V30 2259 H 220.898 1.41641 0.715789 0
M  V30 2260 H 220.919 1.65461 3.42641 0
M  V30 2261 H 220.431 3.10847 2.3237 0
M  V30 2262 H 218.532 0.993389 3.59114 0
M  V30 2263 H 218.645 2.86068 3.8432 0
M  V30 2264 H 217.009 1.44208 2.09943 0
M  V30 2265 H 217.792 3.03721 1.60026 0
M  V30 2266 N 220.237 -1.11381 1.11499 0
M  V30 2267 C 221.184 -2.17439 0.773887 0
M  V30 2268 C 222.154 -1.64132 -0.254899 0
M  V30 2269 O 223.339 -1.90345 -0.13168 0
M  V30 2270 C 220.479 -3.44373 0.223917 0
M  V30 2271 C 219.592 -4.1168 1.30934 0
M  V30 2272 C 218.727 -5.263 0.71984 0
M  V30 2273 C 217.766 -5.85493 1.78507 0
M  V30 2274 N 216.903 -6.91507 1.21502 0
M  V30 2275 H 221.743 -2.45962 1.68246 0
M  V30 2276 H 219.28 -1.20744 0.840191 0
M  V30 2277 H 221.238 -4.17047 -0.112921 0
M  V30 2278 H 219.868 -3.16232 -0.647851 0
M  V30 2279 H 218.92 -3.37073 1.76312 0
M  V30 2280 H 220.232 -4.51729 2.11524 0
M  V30 2281 H 219.386 -6.05785 0.333094 0
M  V30 2282 H 218.125 -4.87559 -0.117377 0
M  V30 2283 H 217.13 -5.04686 2.18111 0
M  V30 2284 H 218.355 -6.26301 2.62533 0
M  V30 2285 H 216.301 -6.54783 0.399455 0
M  V30 2286 H 216.218 -7.30214 1.95763 0
M  V30 2287 H 217.486 -7.74795 0.855181 0
M  V30 2288 N 221.715 -0.905404 -1.28997 0
M  V30 2289 C 223.126 -0.581953 -1.77398 0
M  V30 2290 C 223.477 0.902552 -1.74208 0
M  V30 2291 O 222.602 1.70584 -1.33154 0
M  V30 2292 C 223.197 -1.04961 -3.22131 0
M  V30 2293 C 221.756 -0.777229 -3.68288 0
M  V30 2294 C 220.903 -1.22109 -2.48967 0
M  V30 2295 H 223.854 -1.08754 -1.15578 0
M  V30 2296 H 223.875 -0.387387 -3.78523 0
M  V30 2297 H 223.387 -2.13008 -3.24421 0
M  V30 2298 H 221.488 0.290383 -3.71467 0
M  V30 2299 H 221.601 -1.37911 -4.58822 0
M  V30 2300 H 219.965 -0.639971 -2.46529 0
M  V30 2301 H 220.748 -2.30972 -2.53982 0
M  V30 2302 N 223.193 1.4272 -0.668489 0
M  V30 2303 C 224.439 2.01923 -0.188419 0
M  V30 2304 C 224.772 1.52704 1.19979 0
M  V30 2305 O 224.047 0.726566 1.8042 0
M  V30 2306 C 224.33 3.59451 -0.216085 0
M  V30 2307 C 224.183 4.18864 -1.6393 0
M  V30 2308 C 225.502 4.37903 0.439179 0
M  V30 2309 H 222.621 0.733674 -0.0699412 0
M  V30 2310 H 225.263 1.69822 -0.852076 0
M  V30 2311 H 223.413 3.86929 0.349012 0
M  V30 2312 H 225.085 4.02362 -2.25616 0
M  V30 2313 H 223.328 3.74933 -2.18193 0
M  V30 2314 H 223.999 5.27987 -1.61039 0
M  V30 2315 H 226.475 4.16079 -0.0417878 0
M  V30 2316 H 225.351 5.47519 0.389157 0
M  V30 2317 H 225.612 4.15303 1.51577 0
M  V30 2318 N 224.671 0.411399 1.52136 0
M  V30 2319 C 225.601 -0.404015 2.29978 0
M  V30 2320 C 226.582 -1.04412 1.34284 0
M  V30 2321 O 227.767 -1.0527 1.63192 0
M  V30 2322 C 224.897 -1.5197 3.12286 0
M  V30 2323 C 223.851 -1.00448 4.16046 0
M  V30 2324 C 223.177 -2.21393 4.86712 0
M  V30 2325 C 224.477 -0.0569336 5.22269 0
M  V30 2326 H 226.171 0.245529 2.98392 0
M  V30 2327 H 223.717 0.119525 1.43503 0
M  V30 2328 H 225.67 -2.09715 3.6551 0
M  V30 2329 H 224.394 -2.19716 2.41646 0
M  V30 2330 H 223.053 -0.449421 3.63835 0
M  V30 2331 H 222.701 -2.87699 4.12599 0
M  V30 2332 H 222.401 -1.87571 5.56858 0
M  V30 2333 H 223.925 -2.7974 5.4275 0
M  V30 2334 H 225.339 -0.54325 5.7072 0
M  V30 2335 H 223.736 0.192594 5.99791 0
M  V30 2336 H 224.806 0.887663 4.76706 0
M  V30 2337 N 226.149 -1.5696 0.141893 0
M  V30 2338 C 227.398 -1.95135 -0.510427 0
M  V30 2339 C 227.711 -1.02896 -1.66348 0
M  V30 2340 O 228.917 -1.30629 -2.38009 0
M  V30 2341 C 227.373 -3.46876 -0.959427 0
M  V30 2342 C 226.981 -4.47691 0.166419 0
M  V30 2343 C 228.725 -3.93927 -1.58183 0
M  V30 2344 C 226.632 -5.90636 -0.300565 0
M  V30 2345 H 225.562 -0.728494 -0.194454 0
M  V30 2346 H 228.213 -1.8211 0.22542 0
M  V30 2347 H 226.595 -3.55215 -1.75038 0
M  V30 2348 H 227.769 -4.51043 0.94325 0
M  V30 2349 H 226.084 -4.10527 0.696905 0
M  V30 2350 H 228.681 -4.98158 -1.94275 0
M  V30 2351 H 229.024 -3.3519 -2.46888 0
M  V30 2352 H 229.557 -3.88484 -0.855863 0
M  V30 2353 H 226.296 -6.5318 0.550989 0
M  V30 2354 H 225.816 -5.90655 -1.04338 0
M  V30 2355 H 227.495 -6.42588 -0.754265 0
M  V30 2356 N 227.627 0.131896 -1.57047 0
M  V30 2357 C 228.852 0.860418 -1.8871 0
M  V30 2358 C 229.277 1.73251 -0.73251 0
M  V30 2359 O 228.635 1.785 0.317429 0
M  V30 2360 C 228.683 1.68047 -3.19049 0
M  V30 2361 O 227.787 2.7862 -3.04047 0
M  V30 2362 H 227.128 0.238743 -0.619595 0
M  V30 2363 H 229.658 0.118169 -2.04258 0
M  V30 2364 H 229.668 2.07238 -3.51449 0
M  V30 2365 H 228.343 1.04018 -4.02682 0
M  V30 2366 H 226.92 2.42726 -2.83088 0
M  V30 2367 N 229.106 1.52395 0.401703 0
M  V30 2368 C 230.334 1.70676 1.16949 0
M  V30 2369 C 230.749 0.419503 1.8408 0
M  V30 2370 O 230.106 -0.605061 1.72178 0
M  V30 2371 C 230.157 2.84753 2.22706 0
M  V30 2372 O 229.878 4.08495 1.58314 0
M  V30 2373 C 231.379 3.14608 3.12309 0
M  V30 2374 H 228.599 0.571787 0.351142 0
M  V30 2375 H 231.143 1.98987 0.471652 0
M  V30 2376 H 229.298 2.58941 2.88147 0
M  V30 2377 H 229.712 4.72117 2.28485 0
M  V30 2378 H 231.186 3.97923 3.82572 0
M  V30 2379 H 231.663 2.28464 3.75101 0
M  V30 2380 H 232.269 3.42212 2.52529 0
M  V30 2381 N 230.584 -0.659388 1.43143 0
M  V30 2382 C 231.995 -1.24041 1.39537 0
M  V30 2383 C 232.346 -1.95963 0.0963364 0
M  V30 2384 O 231.471 -2.00892 -0.804438 0
M  V30 2385 C 232.066 -2.25601 2.52764 0
M  V30 2386 C 230.625 -2.79195 2.52443 0
M  V30 2387 C 229.772 -1.53743 2.30778 0
M  V30 2388 H 232.723 -0.451792 1.52133 0
M  V30 2389 H 232.744 -3.07651 2.23899 0
M  V30 2390 H 232.256 -1.73226 3.47296 0
M  V30 2391 H 230.357 -3.35649 1.61773 0
M  V30 2392 H 230.47 -3.2716 3.50004 0
M  V30 2393 H 228.834 -1.80869 1.79328 0
M  V30 2394 H 229.617 -1.03312 3.27386 0
M  V30 2395 N 232.062 -1.29571 -0.897171 0
M  V30 2396 C 233.29 -1.20583 -1.68129 0
M  V30 2397 C 233.705 0.233181 -1.87354 0
M  V30 2398 O 233.062 1.15579 -1.41236 0
M  V30 2399 C 233.113 -1.91772 -3.06441 0
M  V30 2400 O 232.834 -3.30053 -2.88091 0
M  V30 2401 C 234.335 -1.89291 -4.00854 0
M  V30 2402 H 231.555 -0.417826 -0.525036 0
M  V30 2403 H 234.099 -1.70987 -1.12177 0
M  V30 2404 H 232.254 -1.45196 -3.59161 0
M  V30 2405 H 232.668 -3.65942 -3.75748 0
M  V30 2406 H 234.142 -2.43662 -4.95311 0
M  V30 2407 H 234.619 -0.869014 -4.30517 0
M  V30 2408 H 235.225 -2.35622 -3.54066 0
M  V30 2409 N 233.54 1.10788 -1.12088 0
M  V30 2410 C 234.951 1.64181 -0.88891 0
M  V30 2411 C 235.302 1.87508 0.577498 0
M  V30 2412 O 234.427 1.61434 1.44112 0
M  V30 2413 C 235.022 2.98257 -1.60712 0
M  V30 2414 C 233.581 3.4853 -1.42139 0
M  V30 2415 C 232.728 2.23208 -1.6454 0
M  V30 2416 H 235.679 0.943368 -1.27618 0
M  V30 2417 H 235.7 3.65552 -1.05604 0
M  V30 2418 H 235.212 2.81246 -2.67436 0
M  V30 2419 H 233.313 3.70692 -0.376552 0
M  V30 2420 H 233.426 4.26882 -2.17505 0
M  V30 2421 H 231.79 2.31169 -1.06925 0
M  V30 2422 H 232.573 2.08733 -2.72554 0
M  V30 2423 N 235.018 0.912232 1.28515 0
M  V30 2424 C 236.246 0.560416 1.99166 0
M  V30 2425 C 236.661 -0.857927 1.68182 0
M  V30 2426 O 236.018 -1.56805 0.933733 0
M  V30 2427 C 236.069 0.758142 3.53461 0
M  V30 2428 O 235.79 2.12067 3.83352 0
M  V30 2429 C 237.291 0.412954 4.41372 0
M  V30 2430 H 234.511 0.213805 0.636026 0
M  V30 2431 H 237.055 1.22502 1.63749 0
M  V30 2432 H 235.21 0.140556 3.87145 0
M  V30 2433 H 235.624 2.15923 4.77993 0
M  V30 2434 H 237.098 0.60208 5.48707 0
M  V30 2435 H 237.575 -0.65073 4.34353 0
M  V30 2436 H 238.181 1.00802 4.13182 0
M  V30 2437 N 236.496 -1.42363 0.676048 0
M  V30 2438 C 237.745 -2.00745 0.196037 0
M  V30 2439 C 238.058 -1.54083 -1.20489 0
M  V30 2440 O 239.264 -2.04891 -1.78134 0
M  V30 2441 C 237.72 -3.58651 0.299616 0
M  V30 2442 C 237.328 -4.143 1.70468 0
M  V30 2443 C 239.072 -4.24326 -0.121619 0
M  V30 2444 C 236.979 -5.64574 1.76096 0
M  V30 2445 H 235.909 -0.750787 0.0695301 0
M  V30 2446 H 238.56 -1.63072 0.841412 0
M  V30 2447 H 236.942 -3.93833 -0.413673 0
M  V30 2448 H 238.116 -3.90575 2.44515 0
M  V30 2449 H 236.431 -3.61081 2.07387 0
M  V30 2450 H 239.028 -5.34607 -0.0997362 0
M  V30 2451 H 239.371 -3.99897 -1.15708 0
M  V30 2452 H 239.904 -3.94108 0.540706 0
M  V30 2453 H 236.643 -5.93804 2.77628 0
M  V30 2454 H 236.163 -5.90286 1.06406 0
M  V30 2455 H 237.842 -6.29013 1.51496 0
M  V30 2456 N 237.974 -0.419461 -1.51915 0
M  V30 2457 C 239.22 0.153166 -2.02221 0
M  V30 2458 C 239.553 1.43907 -1.30401 0
M  V30 2459 O 238.828 1.90055 -0.413438 0
M  V30 2460 C 239.111 0.390291 -3.57979 0
M  V30 2461 C 238.964 -0.913014 -4.40436 0
M  V30 2462 C 240.283 1.16794 -4.2432 0
M  V30 2463 H 237.402 0.0541924 -0.735005 0
M  V30 2464 H 240.044 -0.554955 -1.81715 0
M  V30 2465 H 238.194 0.993491 -3.75582 0
M  V30 2466 H 239.866 -1.54882 -4.34522 0
M  V30 2467 H 238.109 -1.52168 -4.06236 0
M  V30 2468 H 238.78 -0.701361 -5.47526 0
M  V30 2469 H 241.256 0.657161 -4.10878 0
M  V30 2470 H 240.132 1.3026 -5.3322 0
M  V30 2471 H 240.393 2.19132 -3.83971 0
M  V30 2472 N 239.452 1.56882 -0.150215 0
M  V30 2473 C 240.868 1.58263 0.20617 0
M  V30 2474 C 241.068 1.16464 1.64434 0
M  V30 2475 O 240.124 0.866422 2.3717 0
M  V30 2476 C 241.437 3.00649 -0.0555025 0
M  V30 2477 C 242.985 3.12999 0.00795388 0
M  V30 2478 C 243.46 4.5744 -0.226429 0
M  V30 2479 N 244.951 4.62875 -0.173469 0
M  V30 2480 C 245.686 5.72454 -0.329288 0
M  V30 2481 N 245.182 6.90669 -0.543005 0
M  V30 2482 N 246.975 5.61467 -0.266666 0
M  V30 2483 H 239.126 1.82345 -1.08922 0
M  V30 2484 H 241.389 0.844149 -0.431413 0
M  V30 2485 H 241.095 3.3563 -1.05096 0
M  V30 2486 H 240.969 3.71337 0.66246 0
M  V30 2487 H 243.356 2.77857 0.993966 0
M  V30 2488 H 243.437 2.4479 -0.742388 0
M  V30 2489 H 243.081 4.93287 -1.20956 0
M  V30 2490 H 243.011 5.2378 0.544274 0
M  V30 2491 H 245.502 3.77898 -0.0130709 0
M  V30 2492 H 245.815 7.70045 -0.651922 0
M  V30 2493 H 244.16 6.92581 -0.579366 0
M  V30 2494 H 247.351 4.67992 -0.100441 0
M  V30 2495 H 247.524 6.46816 -0.391535 0
M  V30 2496 N 240.93 -0.123565 1.57115 0
M  V30 2497 C 242.341 -0.681198 1.73829 0
M  V30 2498 C 242.692 -1.80535 0.768214 0
M  V30 2499 O 241.817 -2.16317 -0.0599103 0
M  V30 2500 C 242.412 -1.24246 3.15196 0
M  V30 2501 C 240.971 -1.74643 3.33432 0
M  V30 2502 C 240.118 -0.644284 2.69711 0
M  V30 2503 H 243.069 0.102315 1.5837 0
M  V30 2504 H 243.09 -2.11216 3.16493 0
M  V30 2505 H 242.602 -0.424062 3.85776 0
M  V30 2506 H 240.703 -2.58974 2.67886 0
M  V30 2507 H 240.816 -1.85902 4.41562 0
M  V30 2508 H 239.18 -1.07676 2.3082 0
M  V30 2509 H 239.963 0.163058 3.42913 0
M  V30 2510 N 242.408 -1.52605 -0.393616 0
M  V30 2511 C 243.656 -1.67093 -1.13685 0
M  V30 2512 C 243.977 -0.411011 -1.90619 0
M  V30 2513 O 243.247 0.574491 -1.87287 0
M  V30 2514 H 241.827 -0.615923 -0.422668 0
M  V30 2515 H 244.489 -1.89704 -0.447039 0
M  V30 2516 H 243.585 -2.51922 -1.84232 0
M  V30 2517 N 243.887 0.651787 -1.4349 0
M  V30 2518 C 245.112 1.44434 -1.48841 0
M  V30 2519 C 245.537 1.8779 -0.107955 0
M  V30 2520 O 244.895 1.57464 0.898602 0
M  V30 2521 C 244.943 2.65458 -2.44059 0
M  V30 2522 O 244.047 3.64566 -1.92784 0
M  V30 2523 H 243.388 0.433005 -0.503391 0
M  V30 2524 H 245.918 0.797451 -1.88419 0
M  V30 2525 H 245.928 3.13255 -2.6141 0
M  V30 2526 H 244.603 2.33244 -3.4434 0
M  V30 2527 H 243.18 3.23716 -1.851 0
M  V30 2528 N 245.365 1.30045 0.890287 0
M  V30 2529 C 246.295 1.18541 2.01172 0
M  V30 2530 C 247.276 0.0773356 1.69924 0
M  V30 2531 O 248.461 0.25845 1.92473 0
M  V30 2532 C 245.591 0.870941 3.36202 0
M  V30 2533 C 244.545 1.93637 3.81692 0
M  V30 2534 C 243.871 1.475 5.13953 0
M  V30 2535 C 245.171 3.34666 4.00994 0
M  V30 2536 H 246.865 2.12359 2.11054 0
M  V30 2537 H 244.411 1.02238 1.01407 0
M  V30 2538 H 246.364 0.777141 4.14172 0
M  V30 2539 H 245.088 -0.102926 3.26438 0
M  V30 2540 H 243.747 2.01972 3.05946 0
M  V30 2541 H 243.395 0.489551 5.00612 0
M  V30 2542 H 243.095 2.1876 5.4536 0
M  V30 2543 H 244.619 1.39489 5.94454 0
M  V30 2544 H 246.033 3.2912 4.69417 0
M  V30 2545 H 244.43 4.03966 4.43769 0
M  V30 2546 H 245.5 3.76949 3.05021 0
M  V30 2547 N 246.843 -1.10192 1.12674 0
M  V30 2548 C 248.254 -1.63707 0.897604 0
M  V30 2549 C 248.605 -1.87812 -0.567546 0
M  V30 2550 O 247.73 -1.62196 -1.43253 0
M  V30 2551 C 248.325 -2.974 1.62292 0
M  V30 2552 C 246.884 -3.47772 1.43986 0
M  V30 2553 C 246.031 -2.22332 1.65722 0
M  V30 2554 H 248.982 -0.936587 1.28116 0
M  V30 2555 H 249.003 -3.64986 1.07541 0
M  V30 2556 H 248.515 -2.79824 2.68924 0
M  V30 2557 H 246.616 -3.70487 0.396206 0
M  V30 2558 H 246.729 -4.25723 2.19765 0
M  V30 2559 H 245.093 -2.30599 1.08149 0
M  V30 2560 H 245.876 -2.07285 2.73657 0
M  V30 2561 N 248.321 -0.919034 -1.28029 0
M  V30 2562 C 249.251 -0.428581 -2.29533 0
M  V30 2563 C 250.232 0.50659 -1.62381 0
M  V30 2564 O 251.417 0.413195 -1.89753 0
M  V30 2565 C 248.547 0.327388 -3.45753 0
M  V30 2566 C 247.501 -0.519137 -4.2484 0
M  V30 2567 C 246.827 0.365486 -5.33449 0
M  V30 2568 C 248.127 -1.77914 -4.91064 0
M  V30 2569 H 249.821 -1.27687 -2.70807 0
M  V30 2570 H 247.367 -0.615428 -1.30186 0
M  V30 2571 H 249.32 0.681378 -4.15855 0
M  V30 2572 H 248.044 1.20963 -3.03374 0
M  V30 2573 H 246.703 -0.855717 -3.56473 0
M  V30 2574 H 246.351 1.24642 -4.87312 0
M  V30 2575 H 246.051 -0.197356 -5.87268 0
M  V30 2576 H 247.575 0.715241 -6.06396 0
M  V30 2577 H 248.989 -1.49374 -5.53498 0
M  V30 2578 H 247.386 -2.2848 -5.54903 0
M  V30 2579 H 248.456 -2.50382 -4.15255 0
M  V30 2580 N 249.799 1.42003 -0.683588 0
M  V30 2581 C 250.749 2.27997 0.0121992 0
M  V30 2582 C 251.733 1.4156 0.764822 0
M  V30 2583 O 252.925 1.64935 0.642287 0
M  V30 2584 C 250.054 3.29706 0.956482 0
M  V30 2585 C 249.14 4.23625 0.200739 0
M  V30 2586 N 249.531 4.99448 -0.799087 0
M  V30 2587 C 247.829 4.43845 0.437937 0
M  V30 2588 C 248.53 5.68102 -1.25041 0
M  V30 2589 N 247.506 5.40511 -0.578648 0
M  V30 2590 H 251.308 2.84048 -0.754564 0
M  V30 2591 H 248.822 1.54071 -0.513398 0
M  V30 2592 H 250.819 3.90124 1.47 0
M  V30 2593 H 249.479 2.75216 1.72297 0
M  V30 2594 H 250.49 5.04303 -1.17893 0
M  V30 2595 H 247.167 4.00382 1.18325 0
M  V30 2596 H 248.557 6.38913 -2.07942 0
M  V30 2597 N 251.277 0.427512 1.51691 0
M  V30 2598 C 252.207 -0.3796 2.30394 0
M  V30 2599 C 253.188 -1.02982 1.35384 0
M  V30 2600 O 254.373 -1.03534 1.643 0
M  V30 2601 C 251.503 -1.48649 3.1388 0
M  V30 2602 C 250.457 -0.960294 4.17088 0
M  V30 2603 C 249.783 -2.16219 4.89033 0
M  V30 2604 C 251.083 -0.00153679 5.223 0
M  V30 2605 H 252.777 0.277164 2.98114 0
M  V30 2606 H 250.323 0.134739 1.43368 0
M  V30 2607 H 252.276 -2.05826 3.67714 0
M  V30 2608 H 251 -2.1714 2.43962 0
M  V30 2609 H 249.659 -0.410806 3.64291 0
M  V30 2610 H 249.307 -2.83307 4.15628 0
M  V30 2611 H 249.007 -1.81654 5.58816 0
M  V30 2612 H 250.531 -2.73968 5.45687 0
M  V30 2613 H 251.945 -0.482687 5.71264 0
M  V30 2614 H 250.342 0.256199 5.99553 0
M  V30 2615 H 251.412 0.938174 4.75738 0
M  V30 2616 N 252.755 -1.56801 0.158532 0
M  V30 2617 C 254.003 -1.96102 -0.488712 0
M  V30 2618 C 254.324 -1.04498 -1.64636 0
M  V30 2619 O 253.594 -0.108783 -1.95598 0
M  V30 2620 H 252.174 -0.724102 -0.183535 0
M  V30 2621 H 254.836 -1.93457 0.236728 0
M  V30 2622 H 253.932 -3.00097 -0.857219 0
M  V30 2623 N 254.233 0.115231 -1.57178 0
M  V30 2624 C 255.463 0.835224 -1.88964 0
M  V30 2625 C 255.871 1.73774 -0.74829 0
M  V30 2626 O 255.214 1.81401 0.289739 0
M  V30 2627 C 255.276 1.7178 -3.15804 0
M  V30 2628 C 254.94 0.989198 -4.46166 0
M  V30 2629 C 255.937 0.328263 -5.18863 0
M  V30 2630 C 253.622 0.969256 -4.9286 0
M  V30 2631 C 255.616 -0.342873 -6.36477 0
M  V30 2632 C 253.303 0.294324 -6.10391 0
M  V30 2633 C 254.301 -0.360582 -6.82048 0
M  V30 2634 O 253.989 -1.02474 -7.97342 0
M  V30 2635 H 253.721 0.245197 -0.629964 0
M  V30 2636 H 256.275 0.10303 -2.05141 0
M  V30 2637 H 254.505 2.49173 -2.95719 0
M  V30 2638 H 256.194 2.31255 -3.33581 0
M  V30 2639 H 256.96 0.335263 -4.8384 0
M  V30 2640 H 252.839 1.46844 -4.36987 0
M  V30 2641 H 256.383 -0.854629 -6.92345 0
M  V30 2642 H 252.28 0.285099 -6.4487 0
M  V30 2643 H 253.048 -0.929594 -8.13204 0
M  V30 2644 N 255.711 1.52812 0.385517 0
M  V30 2645 C 256.988 1.5861 1.14465 0
M  V30 2646 C 257.368 0.381402 2.07626 0
M  V30 2647 O 256.716 -0.629999 2.19643 0
M  V30 2648 C 256.926 2.92664 1.90128 0
M  V30 2649 C 258.274 3.46526 2.45367 0
M  V30 2650 O 259.298 2.94562 2.0028 0
M  V30 2651 O 258.157 4.37323 3.27736 0
M  V30 2652 H 255.251 0.639855 0.523941 0
M  V30 2653 H 257.797 1.65149 0.390389 0
M  V30 2654 H 256.569 3.71788 1.22022 0
M  V30 2655 H 256.192 2.89527 2.72507 0
M  V30 2656 N 257.189 -0.644168 1.43834 0
M  V30 2657 C 258.6 -1.22554 1.40845 0
M  V30 2658 C 258.951 -1.9585 0.117115 0
M  V30 2659 O 258.076 -2.01734 -0.783086 0
M  V30 2660 C 258.671 -2.22907 2.55143 0
M  V30 2661 C 257.23 -2.76501 2.5539 0
M  V30 2662 C 256.377 -1.51287 2.32396 0
M  V30 2663 H 259.328 -0.43563 1.52604 0
M  V30 2664 H 259.349 -3.05259 2.2715 0
M  V30 2665 H 258.861 -1.69533 3.49114 0
M  V30 2666 H 256.962 -3.33914 1.65324 0
M  V30 2667 H 257.075 -3.23429 3.53455 0
M  V30 2668 H 255.439 -1.78957 1.81236 0
M  V30 2669 H 256.222 -0.998336 3.28463 0
M  V30 2670 N 258.668 -1.30515 -0.883378 0
M  V30 2671 C 259.598 -1.19607 -2.00541 0
M  V30 2672 C 260.579 -0.086346 -1.69881 0
M  V30 2673 O 261.764 -0.268654 -1.92333 0
M  V30 2674 C 258.894 -0.888758 -3.35736 0
M  V30 2675 C 257.848 -1.95659 -3.8066 0
M  V30 2676 C 257.174 -1.50224 -5.13164 0
M  V30 2677 C 258.474 -3.36788 -3.99213 0
M  V30 2678 H 260.168 -2.13476 -2.09925 0
M  V30 2679 H 257.714 -1.02775 -1.00863 0
M  V30 2680 H 259.667 -0.799094 -4.13754 0
M  V30 2681 H 258.391 0.0856125 -3.26488 0
M  V30 2682 H 257.05 -2.03591 -3.04871 0
M  V30 2683 H 256.698 -0.516092 -5.00345 0
M  V30 2684 H 256.398 -2.2165 -5.44192 0
M  V30 2685 H 257.922 -1.42639 -5.93706 0
M  V30 2686 H 259.336 -3.31605 -4.67665 0
M  V30 2687 H 257.733 -4.06314 -4.41621 0
M  V30 2688 H 258.803 -3.78561 -3.03017 0
M  V30 2689 N 260.146 1.09593 -1.13257 0
M  V30 2690 C 261.096 2.14345 -0.777179 0
M  V30 2691 C 262.08 1.59277 0.227966 0
M  V30 2692 O 263.272 1.76971 0.0321413 0
M  V30 2693 C 260.401 3.42439 -0.242991 0
M  V30 2694 C 259.487 4.04419 -1.27694 0
M  V30 2695 N 259.878 4.40979 -2.47732 0
M  V30 2696 C 258.176 4.31596 -1.12432 0
M  V30 2697 C 258.877 4.89784 -3.13826 0
M  V30 2698 N 257.853 4.87133 -2.41252 0
M  V30 2699 H 261.655 2.40415 -1.69049 0
M  V30 2700 H 259.169 1.26803 -1.01463 0
M  V30 2701 H 261.166 4.16889 0.0298496 0
M  V30 2702 H 259.826 3.17824 0.66467 0
M  V30 2703 H 260.837 4.32396 -2.85051 0
M  V30 2704 H 257.514 4.16595 -0.274684 0
M  V30 2705 H 258.904 5.2755 -4.16102 0
M  V30 2706 N 261.624 0.925811 1.2754 0
M  V30 2707 C 263.035 0.610102 1.7645 0
M  V30 2708 C 263.386 -0.874723 1.75622 0
M  V30 2709 O 262.511 -1.68444 1.35851 0
M  V30 2710 C 263.106 1.10073 3.20421 0
M  V30 2711 C 261.665 0.835723 3.67005 0
M  V30 2712 C 260.812 1.26054 2.46993 0
M  V30 2713 H 263.763 1.10579 1.13833 0
M  V30 2714 H 263.784 0.447557 3.77859 0
M  V30 2715 H 263.296 2.18143 3.20991 0
M  V30 2716 H 261.397 -0.231249 3.71882 0
M  V30 2717 H 261.51 1.45193 4.56569 0
M  V30 2718 H 259.874 0.679111 2.45479 0
M  V30 2719 H 260.657 2.34984 2.50275 0
M  V30 2720 N 263.102 -1.41638 0.69111 0
M  V30 2721 C 264.33 -2.05628 0.22909 0
M  V30 2722 C 264.745 -1.51992 -1.11999 0
M  V30 2723 O 264.102 -0.666322 -1.69901 0
M  V30 2724 C 264.153 -3.61084 0.173283 0
M  V30 2725 O 263.874 -4.12735 1.46907 0
M  V30 2726 C 265.375 -4.42213 -0.310266 0
M  V30 2727 H 262.595 -0.662327 0.107534 0
M  V30 2728 H 265.139 -1.81489 0.942438 0
M  V30 2729 H 263.294 -3.84278 -0.490858 0
M  V30 2730 H 263.708 -5.06743 1.35322 0
M  V30 2731 H 265.182 -5.51194 -0.298196 0
M  V30 2732 H 265.659 -4.1799 -1.34838 0
M  V30 2733 H 266.265 -4.24074 0.322716 0
M  V30 2734 N 264.58 -0.43555 -1.51462 0
M  V30 2735 C 265.51 0.367376 -2.30592 0
M  V30 2736 C 266.491 1.02263 -1.35928 0
M  V30 2737 O 267.676 1.02661 -1.64847 0
M  V30 2738 C 264.806 1.46983 -3.14664 0
M  V30 2739 C 263.76 0.938161 -4.17591 0
M  V30 2740 C 263.086 2.13622 -4.90173 0
M  V30 2741 C 264.386 -0.0261621 -5.22293 0
M  V30 2742 H 266.08 -0.292969 -2.97963 0
M  V30 2743 H 263.626 -0.14234 -1.43295 0
M  V30 2744 H 265.579 2.03873 -3.688 0
M  V30 2745 H 264.303 2.15843 -2.4511 0
M  V30 2746 H 262.962 0.391481 -3.64504 0
M  V30 2747 H 262.61 2.81098 -4.17124 0
M  V30 2748 H 262.31 1.78688 -5.59772 0
M  V30 2749 H 263.834 2.7107 -5.47132 0
M  V30 2750 H 265.248 0.452384 -5.71512 0
M  V30 2751 H 263.645 -0.287992 -5.99409 0
M  V30 2752 H 264.715 -0.963391 -4.75233 0
M  V30 2753 N 266.058 1.56714 -0.166846 0
M  V30 2754 C 267.469 1.83378 0.350646 0
M  V30 2755 C 267.82 1.08646 1.63372 0
M  V30 2756 O 266.945 0.338058 2.13743 0
M  V30 2757 C 267.54 3.32643 0.642963 0
M  V30 2758 C 266.099 3.59818 1.10491 0
M  V30 2759 C 265.246 2.76954 0.138411 0
M  V30 2760 H 268.197 1.53803 -0.391193 0
M  V30 2761 H 268.218 3.49878 1.49551 0
M  V30 2762 H 267.73 3.87007 -0.291055 0
M  V30 2763 H 265.831 3.1086 2.05418 0
M  V30 2764 H 265.944 4.68178 1.01716 0
M  V30 2765 H 264.308 2.4666 0.634911 0
M  V30 2766 H 265.091 3.34097 -0.789549 0
M  V30 2767 N 267.536 -0.106894 1.57237 0
M  V30 2768 C 268.761 -0.830287 1.90055 0
M  V30 2769 C 269.186 -1.72064 0.75998 0
M  V30 2770 O 268.544 -1.78982 -0.288991 0
M  V30 2771 C 268.592 -1.6295 3.21683 0
M  V30 2772 O 267.696 -2.73748 3.08441 0
M  V30 2773 H 267.037 -0.228855 0.623315 0
M  V30 2774 H 269.567 -0.085658 2.04421 0
M  V30 2775 H 269.577 -2.01621 3.54701 0
M  V30 2776 H 268.252 -0.975989 4.04286 0
M  V30 2777 H 266.829 -2.38192 2.86913 0
M  V30 2778 N 269.014 -1.53014 -0.377408 0
M  V30 2779 C 270.425 -1.60438 -0.954798 0
M  V30 2780 C 270.776 -0.464418 -1.90624 0
M  V30 2781 O 269.901 0.41087 -2.12464 0
M  V30 2782 C 270.496 -2.90797 -1.73847 0
M  V30 2783 C 269.055 -3.00595 -2.26538 0
M  V30 2784 C 268.202 -2.55645 -1.07429 0
M  V30 2785 H 271.153 -1.57926 -0.156575 0
M  V30 2786 H 271.174 -2.77935 -2.5987 0
M  V30 2787 H 270.686 -3.73746 -1.04574 0
M  V30 2788 H 268.787 -2.22208 -2.99089 0
M  V30 2789 H 268.9 -4.05456 -2.5523 0
M  V30 2790 H 267.264 -2.10239 -1.43777 0
M  V30 2791 H 268.047 -3.41 -0.396728 0
M  V30 2792 N 270.492 0.636531 -1.44174 0
M  V30 2793 C 271.72 1.42353 -1.50144 0
M  V30 2794 C 272.135 1.88389 -0.124575 0
M  V30 2795 O 271.492 1.6051 0.868489 0
M  V30 2796 C 271.543 2.64744 -2.46156 0
M  V30 2797 O 271.264 2.20629 -3.7849 0
M  V30 2798 C 272.765 3.57929 -2.61537 0
M  V30 2799 H 269.985 0.436752 -0.5094 0
M  V30 2800 H 272.529 0.778933 -1.89084 0
M  V30 2801 H 270.684 3.25307 -2.10366 0
M  V30 2802 H 271.098 2.99938 -4.30276 0
M  V30 2803 H 272.572 4.40428 -3.32757 0
M  V30 2804 H 273.049 4.06382 -1.66585 0
M  V30 2805 H 273.655 3.03238 -2.98206 0
M  V30 2806 N 271.97 1.30982 0.876444 0
M  V30 2807 C 273.195 1.23373 1.66715 0
M  V30 2808 C 273.62 -0.19885 1.87046 0
M  V30 2809 O 272.978 -1.1427 1.40756 0
M  V30 2810 C 273.026 1.97644 3.01611 0
M  V30 2811 O 272.13 1.30935 3.91062 0
M  V30 2812 H 271.471 0.426279 0.509099 0
M  V30 2813 H 274.001 1.72944 1.09323 0
M  V30 2814 H 274.011 2.06992 3.51594 0
M  V30 2815 H 272.686 3.01829 2.86133 0
M  V30 2816 H 271.263 1.29996 3.49507 0
M  V30 2817 N 273.449 -1.08991 1.13837 0
M  V30 2818 C 274.695 -1.81526 0.90422 0
M  V30 2819 C 275.028 -1.85706 -0.568066 0
M  V30 2820 O 274.303 -1.32855 -1.42056 0
M  V30 2821 C 274.586 -3.27447 1.49835 0
M  V30 2822 C 274.439 -3.31512 3.04006 0
M  V30 2823 C 275.758 -4.24256 1.17025 0
M  V30 2824 H 272.877 -0.659029 0.329923 0
M  V30 2825 H 275.519 -1.27644 1.40737 0
M  V30 2826 H 273.669 -3.73462 1.07044 0
M  V30 2827 H 275.341 -2.93867 3.55584 0
M  V30 2828 H 273.584 -2.70963 3.38765 0
M  V30 2829 H 274.255 -4.34329 3.40679 0
M  V30 2830 H 276.731 -3.86549 1.54009 0
M  V30 2831 H 275.607 -5.24684 1.61237 0
M  V30 2832 H 275.868 -4.42019 0.0846274 0
M  V30 2833 N 274.927 -0.932562 -1.27047 0
M  V30 2834 C 276.176 -0.571351 -1.93439 0
M  V30 2835 C 276.489 0.892467 -1.74053 0
M  V30 2836 O 277.695 1.36267 -2.34826 0
M  V30 2837 C 276.151 -0.97106 -3.46552 0
M  V30 2838 C 275.759 -2.4559 -3.74686 0
M  V30 2839 C 277.503 -0.681333 -4.18997 0
M  V30 2840 C 275.41 -2.79475 -5.21198 0
M  V30 2841 H 274.34 -0.209966 -0.724176 0
M  V30 2842 H 276.991 -1.13403 -1.44263 0
M  V30 2843 H 275.373 -0.336983 -3.94564 0
M  V30 2844 H 276.547 -3.13829 -3.37414 0
M  V30 2845 H 274.862 -2.71802 -3.15456 0
M  V30 2846 H 277.459 -0.910939 -5.26883 0
M  V30 2847 H 277.802 0.381628 -4.14547 0
M  V30 2848 H 278.335 -1.27473 -3.76823 0
M  V30 2849 H 275.074 -3.847 -5.30741 0
M  V30 2850 H 274.594 -2.1589 -5.596 0
M  V30 2851 H 276.273 -2.67478 -5.89122 0
M  V30 2852 N 276.405 1.4127 -0.698611 0
M  V30 2853 C 277.633 2.05503 -0.239992 0
M  V30 2854 C 278.048 1.52584 1.11191 0
M  V30 2855 O 277.405 0.675323 1.69545 0
M  V30 2856 C 277.456 3.60987 -0.192429 0
M  V30 2857 O 277.177 4.1195 -1.49094 0
M  V30 2858 C 278.678 4.42371 0.28681 0
M  V30 2859 H 275.898 0.661748 -0.111045 0
M  V30 2860 H 278.442 1.80987 -0.95205 0
M  V30 2861 H 276.597 3.84533 0.470472 0
M  V30 2862 H 277.011 5.06018 -1.38007 0
M  V30 2863 H 278.485 5.51344 0.26896 0
M  V30 2864 H 278.962 4.18699 1.32619 0
M  V30 2865 H 279.568 4.23897 -0.345201 0
M  V30 2866 N 277.883 0.443576 1.51229 0
M  V30 2867 C 278.815 -0.400608 2.25672 0
M  V30 2868 C 279.828 -0.980945 1.29928 0
M  V30 2869 O 281.017 -0.874024 1.55638 0
M  V30 2870 C 278.117 -1.57304 3.00181 0
M  V30 2871 C 277.29 -1.11046 4.23069 0
M  V30 2872 C 276.349 -2.15374 4.80105 0
M  V30 2873 O 275.375 -1.74554 5.41774 0
M  V30 2874 N 276.577 -3.47922 4.64683 0
M  V30 2875 H 279.342 0.23745 2.98758 0
M  V30 2876 H 276.903 0.272809 1.59585 0
M  V30 2877 H 278.895 -2.26733 3.35223 0
M  V30 2878 H 277.465 -2.11632 2.30066 0
M  V30 2879 H 276.685 -0.243019 3.9345 0
M  V30 2880 H 277.973 -0.778888 5.02803 0
M  V30 2881 H 277.371 -3.83815 4.15575 0
M  V30 2882 H 275.928 -4.13228 5.0407 0
M  V30 2883 N 279.361 -1.56624 0.175154 0
M  V30 2884 C 280.324 -2.16934 -0.739738 0
M  V30 2885 C 281.324 -1.11842 -1.15533 0
M  V30 2886 O 282.514 -1.37335 -1.07167 0
M  V30 2887 C 279.646 -2.75531 -2.00738 0
M  V30 2888 H 280.839 -2.99131 -0.214639 0
M  V30 2889 H 278.392 -1.56123 -0.0744197 0
M  V30 2890 H 279.127 -1.97078 -2.57548 0
M  V30 2891 H 278.912 -3.52444 -1.71831 0
M  V30 2892 H 280.402 -3.21904 -2.66021 0
M  V30 2893 N 280.839 0.0985539 -1.57292 0
M  V30 2894 C 282.25 0.653457 -1.74891 0
M  V30 2895 C 282.601 1.7929 -0.796838 0
M  V30 2896 O 281.726 2.16385 0.0254886 0
M  V30 2897 C 282.321 1.19216 -3.17133 0
M  V30 2898 C 280.88 1.69316 -3.36168 0
M  V30 2899 C 280.027 0.601294 -2.70702 0
M  V30 2900 H 282.978 -0.127497 -1.58187 0
M  V30 2901 H 282.999 2.06154 -3.19814 0
M  V30 2902 H 282.511 0.362635 -3.86402 0
M  V30 2903 H 280.612 2.5468 -2.71972 0
M  V30 2904 H 280.725 1.78853 -4.44464 0
M  V30 2905 H 279.089 1.0399 -2.32504 0
M  V30 2906 H 279.872 -0.217592 -3.4261 0
M  V30 2907 N 282.317 1.53212 0.369288 0
M  V30 2908 C 283.728 1.60943 0.946276 0
M  V30 2909 C 284.079 0.47452 1.90375 0
M  V30 2910 O 283.204 -0.399597 2.12679 0
M  V30 2911 C 283.799 2.91715 1.72302 0
M  V30 2912 C 282.358 3.01792 2.24941 0
M  V30 2913 C 281.505 2.56211 1.06072 0
M  V30 2914 H 284.456 1.58007 0.148198 0
M  V30 2915 H 284.477 2.79309 2.58393 0
M  V30 2916 H 283.989 3.74295 1.0259 0
M  V30 2917 H 282.09 2.23791 2.97906 0
M  V30 2918 H 282.203 4.06803 2.53077 0
M  V30 2919 H 280.567 2.10998 1.4266 0
M  V30 2920 H 281.35 3.41206 0.378639 0
M  V30 2921 N 283.795 -0.628877 1.44509 0
M  V30 2922 C 285.02 -1.42048 1.5112 0
M  V30 2923 C 285.445 -1.87594 0.137818 0
M  V30 2924 O 284.803 -1.58873 -0.873437 0
M  V30 2925 C 284.851 -2.61541 2.48251 0
M  V30 2926 O 283.955 -3.61453 1.98559 0
M  V30 2927 H 283.296 -0.424942 0.510216 0
M  V30 2928 H 285.826 -0.767374 1.89664 0
M  V30 2929 H 285.836 -3.09057 2.66361 0
M  V30 2930 H 284.511 -2.27736 3.48007 0
M  V30 2931 H 283.088 -3.20731 1.90227 0
M  V30 2932 N 285.273 -1.31445 -0.869486 0
M  V30 2933 C 286.221 -1.19067 -1.99814 0
M  V30 2934 C 287.215 -0.0988569 -1.69111 0
M  V30 2935 O 288.421 -0.260781 -1.78101 0
M  V30 2936 H 284.796 -0.368677 -0.655425 0
M  V30 2937 H 286.767 -2.14555 -2.07385 0
M  V30 2938 C 285.516 -0.915323 -3.35436 0
M  V30 2939 H 284.839 -1.74759 -3.59582 0
M  V30 2940 H 286.279 -0.868895 -4.15001 0
M  V30 2941 C 284.738 0.381928 -3.34728 0
M  V30 2942 O 285.268 1.39857 -3.76567 0
M  V30 2943 N 283.474 0.398633 -2.87853 0
M  V30 2944 H 283.021 -0.429186 -2.54 0
M  V30 2945 H 282.979 1.26651 -2.87762 0
M  V30 2946 N 286.751 1.08385 -1.14413 0
M  V30 2947 C 288.167 1.32844 -0.884563 0
M  V30 2948 C 288.367 1.95841 0.474181 0
M  V30 2949 O 287.423 2.21158 1.21842 0
M  V30 2950 C 288.736 2.22978 -2.01745 0
M  V30 2951 C 290.284 2.36458 -2.05077 0
M  V30 2952 C 290.759 3.29934 -3.1766 0
M  V30 2953 N 292.25 3.37511 -3.17239 0
M  V30 2954 C 292.985 4.09871 -4.0099 0
M  V30 2955 N 292.481 4.84936 -4.94781 0
M  V30 2956 N 294.274 4.05704 -3.89051 0
M  V30 2957 H 286.425 0.658756 -2.01926 0
M  V30 2958 H 288.688 0.352821 -0.879899 0
M  V30 2959 H 288.394 1.83934 -2.99769 0
M  V30 2960 H 288.268 3.23441 -1.94077 0
M  V30 2961 H 290.655 2.7476 -1.0766 0
M  V30 2962 H 290.736 1.35736 -2.16816 0
M  V30 2963 H 290.38 2.92352 -4.15322 0
M  V30 2964 H 290.31 4.30584 -3.03158 0
M  V30 2965 H 292.801 2.83996 -2.49308 0
M  V30 2966 H 293.114 5.37612 -5.55151 0
M  V30 2967 H 291.459 4.83988 -4.98779 0
M  V30 2968 H 294.65 3.46167 -3.15097 0
M  V30 2969 H 294.823 4.61834 -4.54547 0
M  V30 2970 N 288.23 0.939286 1.26551 0
M  V30 2971 C 289.162 0.404704 2.25599 0
M  V30 2972 C 290.175 -0.470983 1.55838 0
M  V30 2973 O 291.364 -0.281734 1.76263 0
M  V30 2974 C 288.464 -0.43764 3.36062 0
M  V30 2975 C 287.637 0.421449 4.35365 0
M  V30 2976 C 286.696 -0.36015 5.24966 0
M  V30 2977 O 285.722 0.236167 5.6871 0
M  V30 2978 N 286.924 -1.65715 5.56344 0
M  V30 2979 H 289.689 1.25618 2.72103 0
M  V30 2980 H 287.25 0.807963 1.40298 0
M  V30 2981 H 289.242 -0.967866 3.92956 0
M  V30 2982 H 287.812 -1.18991 2.89067 0
M  V30 2983 H 287.032 1.1329 3.7757 0
M  V30 2984 H 288.32 1.00835 4.98708 0
M  V30 2985 H 287.718 -2.16378 5.22682 0
M  V30 2986 H 286.275 -2.13366 6.15888 0
M  V30 2987 N 289.708 -1.40897 0.706093 0
M  V30 2988 C 290.641 -2.282 -0.00328781 0
M  V30 2989 C 291.619 -1.42816 -0.77732 0
M  V30 2990 O 292.803 -1.72237 -0.765944 0
M  V30 2991 C 289.93 -3.23226 -1.01205 0
M  V30 2992 C 288.976 -4.25222 -0.329955 0
M  V30 2993 S 289.809 -5.27269 0.935298 0
M  V30 2994 C 290.965 -6.25859 -0.0716061 0
M  V30 2995 H 291.198 -2.88016 0.737143 0
M  V30 2996 H 288.731 -1.46191 0.496756 0
M  V30 2997 H 290.689 -3.78503 -1.58888 0
M  V30 2998 H 289.35 -2.62485 -1.72513 0
M  V30 2999 H 288.543 -4.92023 -1.09221 0
M  V30 3000 H 288.145 -3.73595 0.174069 0
M  V30 3001 H 290.437 -6.71204 -0.921521 0
M  V30 3002 H 291.38 -7.0586 0.562765 0
M  V30 3003 H 291.788 -5.62852 -0.431088 0
M  V30 3004 N 291.186 -0.45159 -1.50991 0
M  V30 3005 C 292.434 0.109857 -2.01801 0
M  V30 3006 C 292.755 1.41958 -1.3369 0
M  V30 3007 O 292.025 1.9003 -0.475951 0
M  V30 3008 H 290.605 0.0435884 -0.745727 0
M  V30 3009 H 293.267 -0.597557 -1.85514 0
M  V30 3010 H 292.363 0.275489 -3.10882 0
M  V30 3011 N 292.664 1.56529 -0.183458 0
M  V30 3012 C 293.889 2.02064 0.467428 0
M  V30 3013 C 294.314 1.06282 1.55196 0
M  V30 3014 O 293.672 0.0443565 1.81246 0
M  V30 3015 C 293.72 3.46122 1.01153 0
M  V30 3016 O 292.824 3.53437 2.12499 0
M  V30 3017 H 292.165 0.654726 0.110588 0
M  V30 3018 H 294.695 2.02521 -0.290917 0
M  V30 3019 H 294.705 3.85676 1.33108 0
M  V30 3020 H 293.38 4.15331 0.217533 0
M  V30 3021 H 291.957 3.2575 1.81497 0
M  V30 3022 N 294.142 -0.090211 1.57342 0
M  V30 3023 C 295.553 -0.644173 1.75235 0
M  V30 3024 C 295.904 -1.78865 0.806335 0
M  V30 3025 O 295.029 -2.16395 -0.0140128 0
M  V30 3026 C 295.624 -1.17532 3.1776 0
M  V30 3027 C 294.183 -1.67531 3.37061 0
M  V30 3028 C 293.33 -0.58693 2.71017 0
M  V30 3029 H 296.281 0.135884 1.58117 0
M  V30 3030 H 296.302 -2.04455 3.20902 0
M  V30 3031 H 295.814 -0.342138 3.86589 0
M  V30 3032 H 293.915 -2.53234 2.73319 0
M  V30 3033 H 294.028 -1.76493 4.45406 0
M  V30 3034 H 292.392 -1.02756 2.33052 0
M  V30 3035 H 293.175 0.235758 3.4249 0
M  V30 3036 N 295.62 -1.53406 -0.361157 0
M  V30 3037 C 296.848 -1.73717 -1.12383 0
M  V30 3038 C 297.263 -0.468161 -1.82904 0
M  V30 3039 O 296.62 0.559198 -1.73722 0
M  V30 3040 C 296.671 -2.90558 -2.15078 0
M  V30 3041 O 296.392 -4.12549 -1.47428 0
M  V30 3042 C 297.893 -3.22777 -3.03858 0
M  V30 3043 H 295.113 -0.580896 -0.335858 0
M  V30 3044 H 297.657 -2.00167 -0.418728 0
M  V30 3045 H 295.812 -2.66489 -2.8118 0
M  V30 3046 H 296.226 -4.78009 -2.15887 0
M  V30 3047 H 297.7 -4.07927 -3.71887 0
M  V30 3048 H 298.177 -2.38329 -3.68912 0
M  V30 3049 H 298.783 -3.48787 -2.43367 0
M  V30 3050 N 297.098 0.621204 -1.44841 0
M  V30 3051 C 298.346 1.37783 -1.47852 0
M  V30 3052 C 298.667 1.94653 -0.116224 0
M  V30 3053 O 297.937 1.76367 0.852737 0
M  V30 3054 H 296.517 0.511453 -0.544449 0
M  V30 3055 H 299.179 0.730446 -1.80694 0
M  V30 3056 H 298.275 2.20414 -2.20961 0
M  V30 3057 N 298.576 1.31904 0.862503 0
M  V30 3058 C 299.801 1.25135 1.65397 0
M  V30 3059 C 300.226 -0.179 1.87246 0
M  V30 3060 O 299.584 -1.1277 1.4196 0
M  V30 3061 C 299.632 2.00832 2.99498 0
M  V30 3062 O 298.736 1.35075 3.89652 0
M  V30 3063 H 298.077 0.431655 0.504549 0
M  V30 3064 H 300.607 1.74094 1.07483 0
M  V30 3065 H 300.617 2.10709 3.49379 0
M  V30 3066 H 299.292 3.04847 2.82916 0
M  V30 3067 H 297.869 1.33696 3.48109 0
M  V30 3068 N 300.054 -1.07777 1.14986 0
M  V30 3069 C 300.984 -2.16865 0.865557 0
M  V30 3070 C 301.965 -1.69123 -0.182083 0
M  V30 3071 O 303.15 -1.94164 -0.0373815 0
M  V30 3072 C 300.28 -3.45539 0.349313 0
M  V30 3073 C 299.234 -4.06708 1.33313 0
M  V30 3074 C 298.56 -5.30411 0.675918 0
M  V30 3075 C 299.86 -4.47241 2.69764 0
M  V30 3076 H 301.554 -2.40905 1.77778 0
M  V30 3077 H 299.1 -1.15781 0.856203 0
M  V30 3078 H 301.053 -4.21174 0.137983 0
M  V30 3079 H 299.777 -3.21072 -0.598362 0
M  V30 3080 H 298.436 -3.33112 1.53075 0
M  V30 3081 H 298.084 -5.02232 -0.277767 0
M  V30 3082 H 297.784 -5.72293 1.33244 0
M  V30 3083 H 299.308 -6.08755 0.474262 0
M  V30 3084 H 300.722 -5.14025 2.53873 0
M  V30 3085 H 299.119 -5.00062 3.3175 0
M  V30 3086 H 300.189 -3.58818 3.26156 0
M  V30 3087 N 301.532 -0.945985 -1.26051 0
M  V30 3088 C 302.943 -0.638096 -1.75457 0
M  V30 3089 C 303.294 0.846672 -1.76991 0
M  V30 3090 O 302.419 1.66262 -1.38513 0
M  V30 3091 C 303.014 -1.15157 -3.18629 0
M  V30 3092 C 301.573 -0.894004 -3.65629 0
M  V30 3093 C 300.72 -1.29967 -2.44957 0
M  V30 3094 H 303.671 -1.12376 -1.1206 0
M  V30 3095 H 303.692 -0.507615 -3.77099 0
M  V30 3096 H 303.204 -2.23222 -3.1748 0
M  V30 3097 H 301.305 0.172057 -3.72203 0
M  V30 3098 H 301.418 -1.52439 -4.54202 0
M  V30 3099 H 299.782 -0.718078 -2.44368 0
M  V30 3100 H 300.565 -2.38935 -2.46505 0
M  V30 3101 N 303.011 1.40521 -0.713556 0
M  V30 3102 C 303.941 2.33381 -0.0743864 0
M  V30 3103 C 304.922 1.52784 0.747735 0
M  V30 3104 O 306.107 1.81258 0.697071 0
M  V30 3105 C 303.237 3.36748 0.849598 0
M  V30 3106 C 302.191 4.27793 0.133247 0
M  V30 3107 C 301.517 5.21679 1.17281 0
M  V30 3108 C 302.817 5.12415 -1.01134 0
M  V30 3109 H 304.511 2.87081 -0.850007 0
M  V30 3110 H 302.057 1.38034 -0.410201 0
M  V30 3111 H 304.01 4.00648 1.30612 0
M  V30 3112 H 302.734 2.81439 1.65709 0
M  V30 3113 H 301.393 3.65342 -0.303426 0
M  V30 3114 H 301.041 4.62677 1.9733 0
M  V30 3115 H 300.741 5.83435 0.698397 0
M  V30 3116 H 302.265 5.88456 1.62947 0
M  V30 3117 H 303.679 5.69781 -0.634274 0
M  V30 3118 H 302.076 5.83203 -1.41399 0
M  V30 3119 H 303.146 4.48514 -1.84292 0
M  V30 3120 N 304.489 0.459591 1.5075 0
M  V30 3121 C 305.735 -0.0994966 2.02556 0
M  V30 3122 C 306.068 -1.40399 1.3417 0
M  V30 3123 O 305.343 -1.88892 0.463683 0
M  V30 3124 C 305.626 -0.295242 3.58888 0
M  V30 3125 C 305.479 1.02947 4.37861 0
M  V30 3126 C 306.798 -1.05502 4.27267 0
M  V30 3127 H 303.917 -0.034686 0.736183 0
M  V30 3128 H 306.559 0.602938 1.8018 0
M  V30 3129 H 304.709 -0.893563 3.78084 0
M  V30 3130 H 306.381 1.66348 4.30263 0
M  V30 3131 H 304.624 1.62885 4.02058 0
M  V30 3132 H 305.295 0.846281 5.45474 0
M  V30 3133 H 307.771 -0.547993 4.12476 0
M  V30 3134 H 306.647 -1.16077 5.36486 0
M  V30 3135 H 306.908 -2.08875 3.89645 0
M  V30 3136 N 305.967 -1.56429 0.191757 0
M  V30 3137 C 306.9 -2.14829 -0.76967 0
M  V30 3138 C 307.878 -1.08405 -1.2119 0
M  V30 3139 O 309.062 -1.36498 -1.30002 0
M  V30 3140 C 306.189 -2.70446 -2.03903 0
M  V30 3141 C 305.235 -3.89428 -1.7392 0
M  V30 3142 S 306.068 -5.28048 -0.890265 0
M  V30 3143 C 307.224 -5.87085 -2.16984 0
M  V30 3144 H 307.457 -2.96042 -0.273204 0
M  V30 3145 H 304.99 -1.54383 -0.0231975 0
M  V30 3146 H 306.948 -3.03134 -2.76803 0
M  V30 3147 H 305.609 -1.89281 -2.50662 0
M  V30 3148 H 304.802 -4.26742 -2.68155 0
M  V30 3149 H 304.404 -3.57732 -1.09103 0
M  V30 3150 H 306.696 -6.01244 -3.12269 0
M  V30 3151 H 307.639 -6.83747 -1.84108 0
M  V30 3152 H 308.047 -5.15663 -2.29678 0
M  V30 3153 N 307.445 0.0818655 -1.57387 0
M  V30 3154 C 308.395 1.10501 -1.99433 0
M  V30 3155 C 309.379 1.35041 -0.874798 0
M  V30 3156 O 310.571 1.35511 -1.13868 0
M  V30 3157 C 307.7 2.42159 -2.43339 0
M  V30 3158 C 306.786 2.20937 -3.62005 0
M  V30 3159 N 307.177 1.69616 -4.76512 0
M  V30 3160 C 305.475 2.51451 -3.68359 0
M  V30 3161 C 306.176 1.62973 -5.58404 0
M  V30 3162 N 305.152 2.08664 -5.01956 0
M  V30 3163 H 308.954 0.701373 -2.85408 0
M  V30 3164 H 306.468 0.289096 -1.59806 0
M  V30 3165 H 308.465 3.16208 -2.71695 0
M  V30 3166 H 307.125 2.83249 -1.58746 0
M  V30 3167 H 308.136 1.38624 -4.99003 0
M  V30 3168 H 304.813 2.95975 -2.94457 0
M  V30 3169 H 306.203 1.24233 -6.60315 0
M  V30 3170 N 308.923 1.53595 0.353017 0
M  V30 3171 C 309.853 1.83902 1.43883 0
M  V30 3172 C 310.834 0.693421 1.55324 0
M  V30 3173 O 312.019 0.944452 1.69687 0
M  V30 3174 C 309.149 2.04016 2.8106 0
M  V30 3175 C 308.103 3.19814 2.84434 0
M  V30 3176 C 307.429 3.25244 4.24406 0
M  V30 3177 C 308.729 4.58133 2.50822 0
M  V30 3178 H 310.423 2.74835 1.1877 0
M  V30 3179 H 307.969 1.32242 0.569917 0
M  V30 3180 H 309.922 2.238 3.57059 0
M  V30 3181 H 308.646 1.09804 3.07588 0
M  V30 3182 H 307.305 2.9987 2.10887 0
M  V30 3183 H 306.953 2.28646 4.48029 0
M  V30 3184 H 306.653 4.03054 4.27576 0
M  V30 3185 H 308.177 3.47228 5.0226 0
M  V30 3186 H 309.591 4.77995 3.16534 0
M  V30 3187 H 307.988 5.38276 2.6529 0
M  V30 3188 H 309.058 4.62387 1.46034 0
M  V30 3189 N 310.401 -0.613514 1.45168 0
M  V30 3190 C 311.364 -1.7065 1.53007 0
M  V30 3191 C 312.364 -1.5548 0.410184 0
M  V30 3192 O 313.554 -1.60656 0.673455 0
M  V30 3193 C 310.686 -3.09875 1.42093 0
M  V30 3194 H 311.879 -1.65068 2.50385 0
M  V30 3195 H 309.432 -0.828728 1.32521 0
M  V30 3196 H 310.167 -3.21039 0.458769 0
M  V30 3197 H 309.952 -3.22293 2.23315 0
M  V30 3198 H 311.442 -3.895 1.50598 0
M  V30 3199 N 311.879 -1.3236 -0.855495 0
M  V30 3200 C 312.827 -1.2118 -1.9854 0
M  V30 3201 C 313.821 -0.116788 -1.68997 0
M  V30 3202 O 315.027 -0.279657 -1.77814 0
M  V30 3203 H 311.402 -0.375608 -0.651477 0
M  V30 3204 H 313.373 -2.16743 -2.05098 0
M  V30 3205 C 312.122 -0.950849 -3.34446 0
M  V30 3206 H 311.445 -1.78563 -3.57708 0
M  V30 3207 H 312.885 -0.912863 -4.14057 0
M  V30 3208 C 311.344 0.346404 -3.35114 0
M  V30 3209 O 311.874 1.35855 -3.7803 0
M  V30 3210 N 310.08 0.36808 -2.88259 0
M  V30 3211 H 309.627 -0.456102 -2.5353 0
M  V30 3212 H 309.585 1.23591 -2.89089 0
M  V30 3213 N 313.357 1.07166 -1.15556 0
M  V30 3214 C 314.605 1.79443 -0.929764 0
M  V30 3215 C 314.926 1.87246 0.544414 0
M  V30 3216 O 314.196 1.37473 1.39564 0
M  V30 3217 H 312.776 0.664625 -0.341003 0
M  V30 3218 H 315.438 1.29499 -1.45657 0
M  V30 3219 H 314.534 2.81832 -1.34079 0
M  V30 3220 N 314.835 0.952656 1.25548 0
M  V30 3221 C 315.767 0.428609 2.25157 0
M  V30 3222 C 316.78 -0.454428 1.56329 0
M  V30 3223 O 317.969 -0.263023 1.76552 0
M  V30 3224 C 315.069 -0.401972 3.36508 0
M  V30 3225 C 314.242 0.467601 4.34893 0
M  V30 3226 C 313.301 -0.30445 5.25319 0
M  V30 3227 O 312.327 0.296473 5.68427 0
M  V30 3228 N 313.529 -1.59805 5.5807 0
M  V30 3229 H 316.294 1.28497 2.70756 0
M  V30 3230 H 313.855 0.822798 1.39433 0
M  V30 3231 H 315.847 -0.926134 3.9396 0
M  V30 3232 H 314.417 -1.15918 2.90313 0
M  V30 3233 H 313.637 1.17288 3.76347 0
M  V30 3234 H 314.925 1.06119 4.97611 0
M  V30 3235 H 314.323 -2.10823 5.24948 0
M  V30 3236 H 312.88 -2.06822 6.18116 0
M  V30 3237 N 316.313 -1.40141 0.720998 0
M  V30 3238 C 317.541 -2.05096 0.272656 0
M  V30 3239 C 317.956 -1.54334 -1.0875 0
M  V30 3240 O 317.313 -0.702211 -1.6845 0
M  V30 3241 C 317.364 -3.60636 0.249835 0
M  V30 3242 O 317.085 -4.09526 1.55629 0
M  V30 3243 C 318.586 -4.42772 -0.216396 0
M  V30 3244 H 315.806 -0.659897 0.121558 0
M  V30 3245 H 318.35 -1.79449 0.980723 0
M  V30 3246 H 316.505 -3.85232 -0.409237 0
M  V30 3247 H 316.919 -5.03758 1.4604 0
M  V30 3248 H 318.393 -5.51702 -0.181212 0
M  V30 3249 H 318.87 -4.20756 -1.25941 0
M  V30 3250 H 319.476 -4.23294 0.412596 0
M  V30 3251 N 317.792 -0.46758 -1.50504 0
M  V30 3252 C 318.725 0.374324 -2.25109 0
M  V30 3253 C 319.703 0.99921 -1.28275 0
M  V30 3254 O 320.887 1.03583 -1.57489 0
M  V30 3255 C 318.014 1.52419 -3.02467 0
M  V30 3256 C 317.06 1.01702 -4.14197 0
M  V30 3257 S 317.893 -0.0654477 -5.3546 0
M  V30 3258 C 319.049 1.08837 -6.16365 0
M  V30 3259 H 319.282 -0.258983 -2.9617 0
M  V30 3260 H 316.815 -0.252421 -1.52323 0
M  V30 3261 H 318.773 2.18322 -3.47628 0
M  V30 3262 H 317.434 2.129 -2.30938 0
M  V30 3263 H 316.627 1.87776 -4.67714 0
M  V30 3264 H 316.229 0.435757 -3.71453 0
M  V30 3265 H 318.521 2.00071 -6.47285 0
M  V30 3266 H 319.464 0.592538 -7.05616 0
M  V30 3267 H 319.872 1.34061 -5.4835 0
M  V30 3268 N 319.27 1.56325 -0.20005 0
M  V30 3269 C 320.681 1.8408 0.31167 0
M  V30 3270 C 321.032 1.12087 1.61031 0
M  V30 3271 O 320.157 0.38332 2.12978 0
M  V30 3272 C 320.752 3.33932 0.57226 0
M  V30 3273 C 319.311 3.6208 1.02834 0
M  V30 3274 C 318.458 2.77186 0.079634 0
M  V30 3275 H 321.409 1.52939 -0.423729 0
M  V30 3276 H 321.43 3.52971 1.42096 0
M  V30 3277 H 320.942 3.86303 -0.37308 0
M  V30 3278 H 319.043 3.15147 1.98778 0
M  V30 3279 H 319.156 4.7023 0.917624 0
M  V30 3280 H 317.52 2.47951 0.582448 0
M  V30 3281 H 318.303 3.32347 -0.860238 0
M  V30 3282 N 320.748 -0.0735177 1.57428 0
M  V30 3283 C 321.994 -0.774145 1.87443 0
M  V30 3284 C 322.327 -1.77311 0.792103 0
M  V30 3285 O 321.602 -1.93492 -0.197793 0
M  V30 3286 C 321.885 -1.48367 3.28115 0
M  V30 3287 C 321.738 -0.501227 4.46999 0
M  V30 3288 C 323.057 -2.429 3.66998 0
M  V30 3289 H 320.176 -0.279971 0.681752 0
M  V30 3290 H 322.818 -0.0373616 1.89963 0
M  V30 3291 H 320.968 -2.11171 3.26097 0
M  V30 3292 H 322.64 0.121468 4.6114 0
M  V30 3293 H 320.883 0.183593 4.33411 0
M  V30 3294 H 321.554 -1.03526 5.42205 0
M  V30 3295 H 324.03 -1.90175 3.70098 0
M  V30 3296 H 322.906 -2.89549 4.66318 0
M  V30 3297 H 323.167 -3.27628 2.96837 0
M  V30 3298 N 322.226 -1.5378 -0.344866 0
M  V30 3299 C 323.156 -1.84662 -1.42906 0
M  V30 3300 C 324.137 -0.701648 -1.54955 0
M  V30 3301 O 325.322 -0.953438 -1.69184 0
M  V30 3302 C 322.452 -2.05503 -2.79974 0
M  V30 3303 C 321.406 -3.21318 -2.82734 0
M  V30 3304 C 320.732 -3.2749 -4.22675 0
M  V30 3305 C 322.032 -4.59456 -2.48389 0
M  V30 3306 H 323.726 -2.75461 -1.17311 0
M  V30 3307 H 321.272 -1.32542 -0.562896 0
M  V30 3308 H 323.225 -2.25691 -3.55867 0
M  V30 3309 H 321.949 -1.11434 -3.07002 0
M  V30 3310 H 320.608 -3.00984 -2.09294 0
M  V30 3311 H 320.256 -2.31019 -4.4681 0
M  V30 3312 H 319.956 -4.05316 -4.25433 0
M  V30 3313 H 321.48 -3.49887 -5.00412 0
M  V30 3314 H 322.894 -4.79667 -3.13995 0
M  V30 3315 H 321.291 -5.39675 -2.62432 0
M  V30 3316 H 322.361 -4.63155 -1.4358 0
M  V30 3317 N 323.704 0.605807 -1.45491 0
M  V30 3318 C 325.115 1.18777 -1.44045 0
M  V30 3319 C 325.466 1.95471 -0.169001 0
M  V30 3320 O 324.591 2.0374 0.729324 0
M  V30 3321 C 325.186 2.16064 -2.60963 0
M  V30 3322 C 323.745 2.69633 -2.62631 0
M  V30 3323 C 322.892 1.45072 -2.36325 0
M  V30 3324 H 325.843 0.395017 -1.53705 0
M  V30 3325 H 325.864 2.9913 -2.35163 0
M  V30 3326 H 325.376 1.60217 -3.53486 0
M  V30 3327 H 323.477 3.29414 -1.74119 0
M  V30 3328 H 323.59 3.13944 -3.61906 0
M  V30 3329 H 321.954 1.74089 -1.85917 0
M  V30 3330 H 322.737 0.910899 -3.30995 0
M  V30 3331 N 325.182 1.32811 0.848464 0
M  V30 3332 C 326.43 1.23479 1.59991 0
M  V30 3333 C 326.751 -0.201853 1.93952 0
M  V30 3334 O 326.021 -1.12818 1.60153 0
M  V30 3335 H 324.601 0.454034 0.593179 0
M  V30 3336 H 327.263 1.66412 1.01455 0
M  V30 3337 H 326.359 1.82178 2.53412 0
M  V30 3338 N 326.66 -1.06551 1.16123 0
M  V30 3339 C 328.071 -1.60768 0.949232 0
M  V30 3340 C 328.422 -1.89523 -0.507508 0
M  V30 3341 O 327.547 -1.66671 -1.38021 0
M  V30 3342 C 328.142 -2.92086 1.71671 0
M  V30 3343 C 326.701 -3.43015 1.54977 0
M  V30 3344 C 325.848 -2.16947 1.72711 0
M  V30 3345 H 328.799 -0.895354 1.31031 0
M  V30 3346 H 328.82 -3.6138 1.19099 0
M  V30 3347 H 328.332 -2.71127 2.7769 0
M  V30 3348 H 326.433 -3.69039 0.513873 0
M  V30 3349 H 326.546 -4.18516 2.33198 0
M  V30 3350 H 324.91 -2.27041 1.15431 0
M  V30 3351 H 325.693 -1.98473 2.80113 0
M  V30 3352 N 328.138 -0.959301 -1.25041 0
M  V30 3353 C 329.549 -0.65667 -1.74771 0
M  V30 3354 C 329.9 0.827852 -1.77879 0
M  V30 3355 O 329.025 1.64783 -1.40269 0
M  V30 3356 C 329.62 -1.1853 -3.1739 0
M  V30 3357 C 328.179 -0.932734 -3.6466 0
M  V30 3358 C 327.326 -1.32558 -2.43564 0
M  V30 3359 H 330.277 -1.13558 -1.10862 0
M  V30 3360 H 330.298 -0.547582 -3.76539 0
M  V30 3361 H 329.81 -2.26576 -3.15095 0
M  V30 3362 H 327.911 0.13257 -3.72364 0
M  V30 3363 H 328.024 -1.57248 -4.52559 0
M  V30 3364 H 326.388 -0.743956 -2.43593 0
M  V30 3365 H 327.171 -2.41537 -2.43957 0
M  V30 3366 N 329.616 1.39756 -0.72842 0
M  V30 3367 C 330.862 2.00942 -0.273892 0
M  V30 3368 C 331.195 1.57656 1.13394 0
M  V30 3369 O 330.47 0.802434 1.77176 0
M  V30 3370 C 330.753 3.58211 -0.368346 0
M  V30 3371 C 330.606 4.11534 -1.81548 0
M  V30 3372 C 331.925 4.39372 0.253054 0
M  V30 3373 H 329.044 0.730047 -0.100996 0
M  V30 3374 H 331.686 1.66056 -0.923337 0
M  V30 3375 H 329.836 3.88061 0.184588 0
M  V30 3376 H 331.508 3.92431 -2.42478 0
M  V30 3377 H 329.751 3.65341 -2.33898 0
M  V30 3378 H 330.422 5.20682 -1.83288 0
M  V30 3379 H 332.898 4.15527 -0.218224 0
M  V30 3380 H 331.774 5.48677 0.156585 0
M  V30 3381 H 332.035 4.21358 1.33826 0
M  V30 3382 N 331.094 0.475555 1.50254 0
M  V30 3383 C 332.026 -0.352649 2.26471 0
M  V30 3384 C 333.039 -0.953165 1.3198 0
M  V30 3385 O 334.228 -0.840815 1.57457 0
M  V30 3386 C 331.328 -1.50902 3.0345 0
M  V30 3387 C 330.501 -1.02047 4.25329 0
M  V30 3388 C 329.56 -2.05142 4.84565 0
M  V30 3389 O 328.586 -1.63023 5.45355 0
M  V30 3390 N 329.788 -3.37987 4.71959 0
M  V30 3391 H 332.553 0.300767 2.98187 0
M  V30 3392 H 330.114 0.306598 1.5897 0
M  V30 3393 H 332.106 -2.19572 3.39956 0
M  V30 3394 H 330.676 -2.06705 2.34504 0
M  V30 3395 H 329.896 -0.159507 3.93877 0
M  V30 3396 H 331.184 -0.672061 5.04342 0
M  V30 3397 H 330.582 -3.74913 4.23623 0
M  V30 3398 H 329.139 -4.02443 5.12721 0
M  V30 3399 N 332.573 -1.56217 0.208337 0
M  V30 3400 C 333.506 -2.15633 -0.746842 0
M  V30 3401 C 334.484 -1.09685 -1.20034 0
M  V30 3402 O 335.668 -1.3787 -1.28547 0
M  V30 3403 C 332.795 -2.72594 -2.01023 0
M  V30 3404 C 331.841 -3.91251 -1.69779 0
M  V30 3405 S 332.674 -5.28962 -0.834209 0
M  V30 3406 C 333.83 -5.89353 -2.10745 0
M  V30 3407 H 334.063 -2.96315 -0.241789 0
M  V30 3408 H 331.596 -1.54398 -0.00682183 0
M  V30 3409 H 333.554 -3.06053 -2.73572 0
M  V30 3410 H 332.215 -1.91929 -2.48641 0
M  V30 3411 H 331.408 -4.29562 -2.63614 0
M  V30 3412 H 331.01 -3.58869 -1.05303 0
M  V30 3413 H 333.302 -6.04522 -3.05875 0
M  V30 3414 H 334.245 -6.85661 -1.76845 0
M  V30 3415 H 334.653 -5.1807 -2.24196 0
M  V30 3416 N 334.051 0.0651679 -1.57465 0
M  V30 3417 C 335.462 0.616213 -1.76238 0
M  V30 3418 C 335.813 1.7756 -0.834689 0
M  V30 3419 O 334.938 2.1639 -0.0204156 0
M  V30 3420 C 335.533 1.12462 -3.1959 0
M  V30 3421 C 334.092 1.62147 -3.39684 0
M  V30 3422 C 333.239 0.543739 -2.71917 0
M  V30 3423 H 336.19 -0.161022 -1.57881 0
M  V30 3424 H 336.211 1.99324 -3.24114 0
M  V30 3425 H 335.723 0.280592 -3.87084 0
M  V30 3426 H 333.824 2.48854 -2.77313 0
M  V30 3427 H 333.937 1.69385 -4.48158 0
M  V30 3428 H 332.301 0.990352 -2.34657 0
M  V30 3429 H 333.084 -0.290216 -3.42071 0
M  V30 3430 N 335.529 1.53961 0.336706 0
M  V30 3431 C 336.754 1.75797 1.10046 0
M  V30 3432 C 337.179 0.498985 1.81361 0
M  V30 3433 O 336.537 -0.548769 1.72795 0
M  V30 3434 C 336.585 2.94257 2.08436 0
M  V30 3435 O 335.689 2.64883 3.16087 0
M  V30 3436 H 335.03 0.582936 0.317934 0
M  V30 3437 H 337.56 2.00945 0.38501 0
M  V30 3438 H 337.57 3.21237 2.51537 0
M  V30 3439 H 336.245 3.85564 1.55927 0
M  V30 3440 H 334.822 2.48812 2.77753 0
M  V30 3441 N 337.007 -0.598083 1.45811 0
M  V30 3442 C 338.253 -1.35882 1.50545 0
M  V30 3443 C 338.586 -1.93616 0.150445 0
M  V30 3444 O 337.861 -1.75604 -0.83628 0
M  V30 3445 C 338.144 -2.49966 2.59208 0
M  V30 3446 C 337.997 -1.97367 4.04186 0
M  V30 3447 C 339.316 -3.52068 2.64076 0
M  V30 3448 H 336.435 -0.492717 0.548087 0
M  V30 3449 H 339.077 -0.673319 1.77669 0
M  V30 3450 H 337.227 -3.08443 2.3621 0
M  V30 3451 H 338.899 -1.43466 4.38423 0
M  V30 3452 H 337.142 -1.283 4.14393 0
M  V30 3453 H 337.813 -2.79649 4.75921 0
M  V30 3454 H 340.289 -3.03448 2.84708 0
M  V30 3455 H 339.165 -4.2937 3.41954 0
M  V30 3456 H 339.426 -4.08304 1.69531 0
M  V30 3457 N 338.485 -1.33259 -0.841409 0
M  V30 3458 C 339.734 -1.23921 -1.59143 0
M  V30 3459 C 340.047 0.1941 -1.94635 0
M  V30 3460 O 341.253 0.409474 -2.68394 0
M  V30 3461 C 339.709 -2.17119 -2.87032 0
M  V30 3462 C 339.317 -3.65606 -2.58914 0
M  V30 3463 C 341.061 -2.16648 -3.65053 0
M  V30 3464 C 338.968 -4.50726 -3.82884 0
M  V30 3465 H 337.898 -0.460264 -0.597221 0
M  V30 3466 H 340.549 -1.58307 -0.927959 0
M  V30 3467 H 338.931 -1.75663 -3.54906 0
M  V30 3468 H 340.105 -4.15487 -1.99267 0
M  V30 3469 H 338.42 -3.68341 -1.942 0
M  V30 3470 H 341.017 -2.77474 -4.57069 0
M  V30 3471 H 341.36 -1.16088 -3.99787 0
M  V30 3472 H 341.893 -2.56453 -3.041 0
M  V30 3473 H 338.632 -5.52151 -3.53283 0
M  V30 3474 H 338.152 -4.0559 -4.41879 0
M  V30 3475 H 339.831 -4.64401 -4.50489 0
M  V30 3476 N 339.963 1.05934 -1.16686 0
M  V30 3477 C 341.188 1.83029 -0.975455 0
M  V30 3478 C 341.613 1.82096 0.471452 0
M  V30 3479 O 340.971 1.22443 1.33706 0
M  V30 3480 C 341.019 3.27372 -1.51195 0
M  V30 3481 O 340.123 4.06054 -0.720701 0
M  V30 3482 H 339.464 0.566194 -0.346872 0
M  V30 3483 H 341.994 1.33541 -1.55009 0
M  V30 3484 H 342.004 3.78186 -1.53099 0
M  V30 3485 H 340.679 3.27366 -2.56523 0
M  V30 3486 H 339.256 3.64812 -0.772458 0
M  V30 3487 N 341.441 0.965919 1.2453 0
M  V30 3488 C 342.371 0.513476 2.27784 0
M  V30 3489 C 343.352 -0.445974 1.6415 0
M  V30 3490 O 344.537 -0.342485 1.91156 0
M  V30 3491 C 341.667 -0.198839 3.4673 0
M  V30 3492 C 340.621 0.676456 4.2262 0
M  V30 3493 C 339.947 -0.167248 5.34438 0
M  V30 3494 C 341.247 1.96017 4.84123 0
M  V30 3495 H 342.941 1.3765 2.65881 0
M  V30 3496 H 340.487 0.663321 1.27813 0
M  V30 3497 H 342.44 -0.526567 4.18097 0
M  V30 3498 H 341.164 -1.0962 3.07654 0
M  V30 3499 H 339.823 0.98743 3.53052 0
M  V30 3500 H 339.471 -1.0647 4.91603 0
M  V30 3501 H 339.171 0.415181 5.86131 0
M  V30 3502 H 340.695 -0.489688 6.08633 0
M  V30 3503 H 342.109 1.69814 5.47573 0
M  V30 3504 H 340.506 2.48918 5.4604 0
M  V30 3505 H 341.576 2.65622 4.05676 0
M  V30 3506 N 342.919 -1.39368 0.735821 0
M  V30 3507 C 343.882 -2.2896 0.104874 0
M  V30 3508 C 344.882 -1.46347 -0.666274 0
M  V30 3509 O 346.072 -1.67014 -0.49517 0
M  V30 3510 C 343.204 -3.29857 -0.860656 0
M  V30 3511 H 344.397 -2.86259 0.894205 0
M  V30 3512 H 341.95 -1.48029 0.501704 0
M  V30 3513 H 342.685 -2.77615 -1.67631 0
M  V30 3514 H 342.47 -3.9087 -0.310327 0
M  V30 3515 H 343.96 -3.96893 -1.29867 0
M  V30 3516 N 344.397 -0.483516 -1.5 0
M  V30 3517 C 345.813 -0.138404 -1.58999 0
M  V30 3518 C 346.013 1.35597 -1.4905 0
M  V30 3519 O 345.069 2.13039 -1.35539 0
M  V30 3520 C 346.382 -0.699658 -2.92447 0
M  V30 3521 C 347.93 -0.664195 -3.05872 0
M  V30 3522 C 348.405 -1.20321 -4.41913 0
M  V30 3523 N 349.896 -1.16315 -4.48358 0
M  V30 3524 C 350.631 -1.55058 -5.52037 0
M  V30 3525 N 350.127 -2.01311 -6.62907 0
M  V30 3526 N 351.92 -1.46584 -5.42651 0
M  V30 3527 H 344.071 -1.45529 -1.5471 0
M  V30 3528 H 346.334 -0.60258 -0.731848 0
M  V30 3529 H 346.04 -1.747 -3.05242 0
M  V30 3530 H 345.914 -0.150194 -3.76901 0
M  V30 3531 H 348.301 0.374272 -2.92717 0
M  V30 3532 H 348.382 -1.25061 -2.23144 0
M  V30 3533 H 348.026 -2.24037 -4.55818 0
M  V30 3534 H 347.956 -0.592896 -5.23252 0
M  V30 3535 H 350.447 -0.824058 -3.68806 0
M  V30 3536 H 350.76 -2.2899 -7.38095 0
M  V30 3537 H 349.105 -2.05273 -6.63994 0
M  V30 3538 H 352.296 -1.10281 -4.54924 0
M  V30 3539 H 352.469 -1.77103 -6.23329 0
M  V30 3540 N 345.875 1.56104 -0.216619 0
M  V30 3541 C 347.286 1.844 0.292128 0
M  V30 3542 C 347.637 1.13788 1.59833 0
M  V30 3543 O 346.762 0.405888 2.12559 0
M  V30 3544 C 347.357 3.3452 0.53681 0
M  V30 3545 C 345.916 3.63151 0.989876 0
M  V30 3546 C 345.063 2.77255 0.0502302 0
M  V30 3547 H 348.014 1.52481 -0.439926 0
M  V30 3548 H 348.035 3.54459 1.38345 0
M  V30 3549 H 347.547 3.85885 -0.414031 0
M  V30 3550 H 345.648 3.17238 1.95425 0
M  V30 3551 H 345.761 4.71177 0.867698 0
M  V30 3552 H 344.125 2.48555 0.556117 0
M  V30 3553 H 344.908 3.31416 -0.89544 0
M  V30 3554 N 347.353 -0.0568162 1.57498 0
M  V30 3555 C 348.599 -0.75422 1.88253 0
M  V30 3556 C 348.932 -1.76461 0.810865 0
M  V30 3557 O 348.207 -1.93691 -0.177259 0
M  V30 3558 C 348.49 -1.44878 3.2967 0
M  V30 3559 C 348.343 -0.453789 4.47505 0
M  V30 3560 C 349.662 -2.38994 3.69554 0
M  V30 3561 H 346.781 -0.272724 0.684683 0
M  V30 3562 H 349.423 -0.0172113 1.89992 0
M  V30 3563 H 347.573 -2.077 3.28318 0
M  V30 3564 H 349.245 0.170371 4.60985 0
M  V30 3565 H 347.488 0.229552 4.33192 0
M  V30 3566 H 348.159 -0.977699 5.43273 0
M  V30 3567 H 350.635 -1.86239 3.72095 0
M  V30 3568 H 349.511 -2.84587 4.69363 0
M  V30 3569 H 349.772 -3.24461 3.00296 0
M  V30 3570 N 348.832 -1.54138 -0.328536 0
M  V30 3571 C 350.057 -1.76378 -1.09112 0
M  V30 3572 C 350.482 -0.508596 -1.81094 0
M  V30 3573 O 349.84 0.539598 -1.73084 0
M  V30 3574 C 349.888 -2.95358 -2.06872 0
M  V30 3575 O 348.992 -2.66556 -3.14677 0
M  V30 3576 H 348.333 -0.584614 -0.314838 0
M  V30 3577 H 350.863 -2.01146 -0.374348 0
M  V30 3578 H 350.873 -3.22566 -2.4983 0
M  V30 3579 H 349.548 -3.86385 -1.5388 0
M  V30 3580 H 348.125 -2.50282 -2.7643 0
M  V30 3581 N 350.31 0.590341 -1.46126 0
M  V30 3582 C 351.243 1.71434 -1.50617 0
M  V30 3583 C 352.221 1.58543 -0.360948 0
M  V30 3584 O 353.405 1.79865 -0.563985 0
M  V30 3585 C 350.532 3.09422 -1.37753 0
M  V30 3586 C 349.578 3.40854 -2.5636 0
M  V30 3587 S 350.411 3.33773 -4.18755 0
M  V30 3588 C 351.567 4.74312 -4.08386 0
M  V30 3589 H 351.8 1.67364 -2.45717 0
M  V30 3590 H 349.333 0.76845 -1.33919 0
M  V30 3591 H 351.291 3.8903 -1.31018 0
M  V30 3592 H 349.952 3.10989 -0.440949 0
M  V30 3593 H 349.145 4.41368 -2.43332 0
M  V30 3594 H 348.747 2.68798 -2.60046 0
M  V30 3595 H 351.039 5.64522 -3.74595 0
M  V30 3596 H 351.982 4.92397 -5.08872 0
M  V30 3597 H 352.39 4.50803 -3.3976 0
M  V30 3598 N 351.788 1.33704 0.83433 0
M  V30 3599 C 353.034 1.25603 1.59222 0
M  V30 3600 C 353.367 -0.176659 1.93395 0
M  V30 3601 O 352.642 -1.11915 1.59076 0
M  V30 3602 C 352.925 2.13576 2.89926 0
M  V30 3603 C 352.778 3.65326 2.62406 0
M  V30 3604 C 354.097 2.01238 3.91397 0
M  V30 3605 H 351.216 0.457613 0.577719 0
M  V30 3606 H 353.858 1.63848 0.961972 0
M  V30 3607 H 352.008 1.8109 3.43713 0
M  V30 3608 H 353.68 4.08124 2.15017 0
M  V30 3609 H 351.923 3.8698 1.96033 0
M  V30 3610 H 352.594 4.22232 3.55562 0
M  V30 3611 H 355.07 2.29738 3.46929 0
M  V30 3612 H 353.946 2.65036 4.80673 0
M  V30 3613 H 354.207 0.985951 4.30966 0
M  V30 3614 N 353.266 -1.05314 1.17247 0
M  V30 3615 C 354.677 -1.59753 0.96623 0
M  V30 3616 C 355.028 -1.9005 -0.487378 0
M  V30 3617 O 354.153 -1.68126 -1.36245 0
M  V30 3618 C 354.748 -2.90249 1.74759 0
M  V30 3619 C 353.307 -3.41352 1.58606 0
M  V30 3620 C 352.454 -2.15103 1.75002 0
M  V30 3621 H 355.405 -0.881406 1.31973 0
M  V30 3622 H 355.426 -3.60097 1.22925 0
M  V30 3623 H 354.938 -2.68166 2.8055 0
M  V30 3624 H 353.039 -3.68474 0.552985 0
M  V30 3625 H 353.152 -4.16019 2.37624 0
M  V30 3626 H 351.516 -2.25804 1.17833 0
M  V30 3627 H 352.299 -1.95491 2.82202 0
M  V30 3628 N 354.744 -0.972509 -1.24016 0
M  V30 3629 C 355.692 -0.498562 -2.27194 0
M  V30 3630 C 356.686 0.440372 -1.63576 0
M  V30 3631 O 357.892 0.315133 -1.7722 0
M  V30 3632 H 354.267 -0.142775 -0.738322 0
M  V30 3633 H 356.238 -1.38065 -2.64539 0
M  V30 3634 C 354.987 0.191072 -3.47175 0
M  V30 3635 H 354.31 -0.522318 -3.96373 0
M  V30 3636 H 355.75 0.486445 -4.212 0
M  V30 3637 C 354.209 1.41967 -3.05527 0
M  V30 3638 O 354.739 2.51642 -3.13112 0
M  V30 3639 N 352.945 1.28746 -2.60524 0
M  V30 3640 H 352.492 0.395089 -2.54552 0
M  V30 3641 H 352.45 2.11061 -2.33025 0
M  V30 3642 N 356.222 1.38976 -0.743202 0
M  V30 3643 C 357.471 1.99581 -0.291592 0
M  V30 3644 C 357.784 1.59656 1.13001 0
M  V30 3645 O 358.99 2.13157 1.68156 0
M  V30 3646 C 357.446 3.56813 -0.470391 0
M  V30 3647 C 357.054 4.05695 -1.90041 0
M  V30 3648 C 358.798 4.24423 -0.0809709 0
M  V30 3649 C 356.705 5.5553 -2.02832 0
M  V30 3650 H 355.635 0.746615 -0.105272 0
M  V30 3651 H 358.286 1.58872 -0.918258 0
M  V30 3652 H 356.668 3.95359 0.225299 0
M  V30 3653 H 357.842 3.78464 -2.62872 0
M  V30 3654 H 356.157 3.50775 -2.24379 0
M  V30 3655 H 358.754 5.34474 -0.155445 0
M  V30 3656 H 359.097 4.04962 0.96497 0
M  V30 3657 H 359.63 3.9108 -0.728124 0
M  V30 3658 H 356.369 5.79881 -3.05643 0
M  V30 3659 H 355.889 5.84537 -1.34448 0
M  V30 3660 H 357.568 6.21069 -1.81335 0
M  V30 3661 N 357.7 0.491464 1.49741 0
M  V30 3662 C 359.111 0.0413169 1.86654 0
M  V30 3663 C 359.462 -1.36985 1.40462 0
M  V30 3664 O 358.587 -2.01917 0.778354 0
M  V30 3665 C 359.182 0.0682023 3.38731 0
M  V30 3666 C 357.741 -0.32656 3.74981 0
M  V30 3667 C 356.888 0.444888 2.73708 0
M  V30 3668 H 359.839 0.704733 1.42194 0
M  V30 3669 H 359.86 -0.729322 3.73445 0
M  V30 3670 H 359.372 1.09539 3.72321 0
M  V30 3671 H 357.473 -1.35734 3.46997 0
M  V30 3672 H 357.586 -0.013741 4.79098 0
M  V30 3673 H 355.95 -0.104062 2.54487 0
M  V30 3674 H 356.733 1.47197 3.10142 0
M  V30 3675 N 359.178 -1.55987 0.224894 0
M  V30 3676 C 360.426 -1.97998 -0.405099 0
M  V30 3677 C 360.747 -1.11387 -1.60056 0
M  V30 3678 O 360.017 -0.191645 -1.9496 0
M  V30 3679 H 358.597 -0.731235 -0.152658 0
M  V30 3680 H 361.259 -1.92279 0.318567 0
M  V30 3681 H 360.355 -3.03463 -0.729167 0
M  V30 3682 N 360.656 0.0484629 -1.57525 0
M  V30 3683 C 361.905 0.742065 -1.87553 0
M  V30 3684 C 362.218 1.77545 -0.820802 0
M  V30 3685 O 363.424 2.52027 -1.00967 0
M  V30 3686 C 361.88 1.37081 -3.32771 0
M  V30 3687 C 361.488 0.374786 -4.4643 0
M  V30 3688 C 363.232 2.04542 -3.71972 0
M  V30 3689 C 361.139 1.01077 -5.82698 0
M  V30 3690 H 360.069 0.280903 -0.699721 0
M  V30 3691 H 362.72 -0.00411877 -1.835 0
M  V30 3692 H 361.102 2.16605 -3.31509 0
M  V30 3693 H 362.276 -0.392331 -4.59127 0
M  V30 3694 H 360.591 -0.196653 -4.15935 0
M  V30 3695 H 363.188 2.52943 -4.71088 0
M  V30 3696 H 363.531 2.85515 -3.02964 0
M  V30 3697 H 364.064 1.31819 -3.75325 0
M  V30 3698 H 360.803 0.240878 -6.55057 0
M  V30 3699 H 360.323 1.74819 -5.73758 0
M  V30 3700 H 362.002 1.52383 -6.28799 0
M  V30 3701 N 362.134 1.5431 0.320358 0
M  V30 3702 C 363.545 1.63872 0.894594 0
M  V30 3703 C 363.896 0.534847 1.88769 0
M  V30 3704 O 363.021 -0.331732 2.13842 0
M  V30 3705 C 363.616 2.97049 1.62934 0
M  V30 3706 C 362.175 3.08796 2.15226 0
M  V30 3707 C 361.322 2.59456 0.978671 0
M  V30 3708 H 364.273 1.58398 0.0978544 0
M  V30 3709 H 364.294 2.87388 2.49376 0
M  V30 3710 H 363.806 3.7737 0.906302 0
M  V30 3711 H 361.907 2.33156 2.90636 0
M  V30 3712 H 362.02 4.14649 2.40006 0
M  V30 3713 H 360.384 2.1543 1.35875 0
M  V30 3714 H 361.167 3.42237 0.269895 0
M  V30 3715 N 363.613 -0.582584 1.46437 0
M  V30 3716 C 364.861 -1.33814 1.51453 0
M  V30 3717 C 365.182 -1.94277 0.167792 0
M  V30 3718 O 364.452 -1.78566 -0.805677 0
M  V30 3719 H 363.032 -0.496838 0.557818 0
M  V30 3720 H 365.694 -0.682281 1.82568 0
M  V30 3721 H 364.79 -2.14479 2.26728 0
M  V30 3722 N 365.091 -1.34144 -0.827227 0
M  V30 3723 C 366.502 -1.23557 -1.39966 0
M  V30 3724 C 366.853 0.140731 -1.95695 0
M  V30 3725 O 365.978 1.04087 -1.89723 0
M  V30 3726 C 366.573 -2.23708 -2.54441 0
M  V30 3727 C 365.132 -2.16924 -3.07605 0
M  V30 3728 C 364.279 -2.10549 -1.80456 0
M  V30 3729 H 367.23 -1.45573 -0.631991 0
M  V30 3730 H 367.251 -1.85157 -3.32411 0
M  V30 3731 H 366.763 -3.23866 -2.13851 0
M  V30 3732 H 364.864 -1.20107 -3.52711 0
M  V30 3733 H 364.977 -3.07988 -3.66988 0
M  V30 3734 H 363.341 -1.56203 -2.01178 0
M  V30 3735 H 364.124 -3.12535 -1.42046 0
M  V30 3736 N 366.569 1.04691 -1.17803 0
M  V30 3737 C 367.98 1.59238 -0.974689 0
M  V30 3738 C 368.331 1.90306 0.477292 0
M  V30 3739 O 367.456 1.68846 1.35352 0
M  V30 3740 C 368.051 2.89318 -1.76296 0
M  V30 3741 C 366.61 3.40506 -1.60414 0
M  V30 3742 C 365.757 2.14172 -1.76141 0
M  V30 3743 H 368.708 0.874395 -1.32439 0
M  V30 3744 H 368.729 3.5944 -1.24833 0
M  V30 3745 H 368.241 2.66675 -2.81968 0
M  V30 3746 H 366.342 3.68175 -0.572519 0
M  V30 3747 H 366.455 4.14753 -2.39827 0
M  V30 3748 H 364.819 2.25176 -1.19028 0
M  V30 3749 H 365.602 1.93992 -2.83235 0
M  V30 3750 N 368.047 0.979072 1.23499 0
M  V30 3751 C 369.293 0.648178 1.92163 0
M  V30 3752 C 369.626 -0.816049 1.76222 0
M  V30 3753 O 368.901 -1.58849 1.12237 0
M  V30 3754 C 369.184 1.03773 3.44824 0
M  V30 3755 C 369.037 2.55948 3.69879 0
M  V30 3756 C 370.356 0.580653 4.36253 0
M  V30 3757 H 367.475 0.236952 0.69787 0
M  V30 3758 H 370.117 1.22012 1.45647 0
M  V30 3759 H 368.267 0.551058 3.84572 0
M  V30 3760 H 369.939 3.12179 3.3962 0
M  V30 3761 H 368.182 2.98641 3.14636 0
M  V30 3762 H 368.853 2.78255 4.76737 0
M  V30 3763 H 371.329 0.998465 4.03943 0
M  V30 3764 H 370.205 0.881663 5.41773 0
M  V30 3765 H 370.466 -0.519052 4.39042 0
M  V30 3766 N 369.525 -1.3858 0.750561 0
M  V30 3767 C 370.473 -2.32339 0.110162 0
M  V30 3768 C 371.467 -1.53864 -0.708674 0
M  V30 3769 O 372.673 -1.69417 -0.608112 0
M  V30 3770 H 369.048 -0.751812 0.0168275 0
M  V30 3771 H 371.019 -2.83959 0.917053 0
M  V30 3772 C 369.768 -3.39043 -0.771067 0
M  V30 3773 H 369.091 -3.99517 -0.150374 0
M  V30 3774 H 370.531 -4.07061 -1.1865 0
M  V30 3775 C 368.99 -2.77365 -1.91234 0
M  V30 3776 O 369.52 -2.66434 -3.00626 0
M  V30 3777 N 367.726 -2.35219 -1.70646 0
M  V30 3778 H 367.273 -2.4431 -0.81673 0
M  V30 3779 H 367.231 -1.94294 -2.47178 0
M  V30 3780 N 371.003 -0.499398 -1.49478 0
M  V30 3781 C 372.228 0.044722 -2.07352 0
M  V30 3782 C 372.653 1.30207 -1.35749 0
M  V30 3783 O 372.011 1.76516 -0.413732 0
M  V30 3784 C 372.059 0.283013 -3.59488 0
M  V30 3785 O 371.163 1.35804 -3.89398 0
M  V30 3786 H 370.504 -0.0255147 -0.66351 0
M  V30 3787 H 373.034 -0.698561 -1.92305 0
M  V30 3788 H 373.044 0.515007 -4.04737 0
M  V30 3789 H 371.719 -0.635636 -4.11014 0
M  V30 3790 H 370.296 1.11113 -3.55961 0
M  V30 3791 N 372.481 1.55866 -0.233164 0
M  V30 3792 C 373.706 2.03449 0.402906 0
M  V30 3793 C 374.131 1.11166 1.51736 0
M  V30 3794 O 373.489 0.101996 1.81013 0
M  V30 3795 C 373.537 3.49165 0.9009 0
M  V30 3796 O 372.641 3.60019 2.01147 0
M  V30 3797 H 371.982 0.657913 0.0897025 0
M  V30 3798 H 374.512 2.01493 -0.355201 0
M  V30 3799 H 374.522 3.89716 1.2077 0
M  V30 3800 H 373.197 4.15813 0.0852889 0
M  V30 3801 H 371.774 3.3136 1.71042 0
M  V30 3802 N 373.959 -0.0401083 1.57549 0
M  V30 3803 C 375.207 -0.731677 1.8839 0
M  V30 3804 C 375.528 -1.76481 0.829425 0
M  V30 3805 O 374.798 -1.95411 -0.1383 0
M  V30 3806 H 373.378 -0.273225 0.695239 0
M  V30 3807 H 376.04 -0.00867725 1.94898 0
M  V30 3808 H 375.136 -1.22816 2.86919 0
M  V30 3809 N 375.437 -1.54477 -0.31217 0
M  V30 3810 C 376.662 -1.77526 -1.07235 0
M  V30 3811 C 377.087 -0.527775 -1.80544 0
M  V30 3812 O 376.445 0.52121 -1.73646 0
M  V30 3813 C 376.493 -2.97535 -2.03728 0
M  V30 3814 O 375.597 -2.69878 -3.11833 0
M  V30 3815 H 374.938 -0.58792 -0.30862 0
M  V30 3816 H 377.468 -2.01532 -0.352993 0
M  V30 3817 H 377.478 -3.25198 -2.46395 0
M  V30 3818 H 376.153 -3.87996 -1.49774 0
M  V30 3819 H 374.73 -2.53199 -2.7376 0
M  V30 3820 N 376.915 0.57481 -1.46744 0
M  V30 3821 C 378.164 1.32898 -1.51727 0
M  V30 3822 C 378.477 1.948 -0.176692 0
M  V30 3823 O 379.683 2.71299 -0.104385 0
M  V30 3824 C 378.139 2.40901 -2.67385 0
M  V30 3825 C 377.747 1.85266 -4.07898 0
M  V30 3826 C 379.491 3.17609 -2.81646 0
M  V30 3827 C 377.398 2.90945 -5.14883 0
M  V30 3828 H 376.328 0.499631 -0.564699 0
M  V30 3829 H 378.979 0.612536 -1.72975 0
M  V30 3830 H 377.361 3.15379 -2.39483 0
M  V30 3831 H 378.535 1.17278 -4.45626 0
M  V30 3832 H 376.85 1.21199 -3.98371 0
M  V30 3833 H 379.447 3.96493 -3.58744 0
M  V30 3834 H 379.79 3.70696 -1.89448 0
M  V30 3835 H 380.323 2.50239 -3.09233 0
M  V30 3836 H 377.062 2.42736 -6.089 0
M  V30 3837 H 376.582 3.57398 -4.81691 0
M  V30 3838 H 378.261 3.54755 -5.41071 0
M  V30 3839 N 378.394 1.34581 0.820102 0
M  V30 3840 C 379.619 1.30333 1.61332 0
M  V30 3841 C 380.044 -0.119339 1.87721 0
M  V30 3842 O 379.402 -1.08197 1.45475 0
M  V30 3843 C 379.45 2.10258 2.92957 0
M  V30 3844 O 378.554 1.47404 3.85157 0
M  V30 3845 H 377.895 0.447488 0.490561 0
M  V30 3846 H 380.425 1.77425 1.01889 0
M  V30 3847 H 380.435 2.21718 3.42498 0
M  V30 3848 H 379.11 3.13693 2.73074 0
M  V30 3849 H 377.687 1.44703 3.43679 0
M  V30 3850 N 379.872 -1.04064 1.18357 0
M  V30 3851 C 381.283 -1.58719 0.98312 0
M  V30 3852 C 381.634 -1.90556 -0.467193 0
M  V30 3853 O 380.759 -1.69561 -1.34454 0
M  V30 3854 C 381.354 -2.88379 1.77828 0
M  V30 3855 C 379.913 -3.3965 1.62218 0
M  V30 3856 C 379.06 -2.13235 1.77274 0
M  V30 3857 H 382.011 -0.867359 1.32901 0
M  V30 3858 H 382.032 -3.58773 1.26737 0
M  V30 3859 H 381.544 -2.65176 2.83379 0
M  V30 3860 H 379.645 -3.67866 0.592036 0
M  V30 3861 H 379.758 -4.13475 2.42023 0
M  V30 3862 H 378.122 -2.24542 1.20221 0
M  V30 3863 H 378.905 -1.92487 2.8426 0
M  V30 3864 N 381.35 -0.985608 -1.22978 0
M  V30 3865 C 382.575 -0.675254 -1.961 0
M  V30 3866 C 383 0.752154 -1.72407 0
M  V30 3867 O 382.358 1.5131 -0.998751 0
M  V30 3868 C 382.406 -0.977899 -3.47087 0
M  V30 3869 O 381.51 -0.072685 -4.12336 0
M  V30 3870 H 380.851 -0.253443 -0.613728 0
M  V30 3871 H 383.381 -1.32061 -1.56272 0
M  V30 3872 H 383.391 -0.916739 -3.97567 0
M  V30 3873 H 382.066 -2.01807 -3.63657 0
M  V30 3874 H 380.643 -0.188703 -3.72422 0
M  V30 3875 N 382.828 1.3818 -0.7579 0
M  V30 3876 C 384.076 1.99624 -0.315361 0
M  V30 3877 C 384.397 1.60464 1.10799 0
M  V30 3878 O 383.667 0.863507 1.75842 0
M  V30 3879 H 382.247 0.73831 -0.113611 0
M  V30 3880 H 384.909 1.68878 -0.972952 0
M  V30 3881 H 384.005 3.09754 -0.381931 0
M  V30 3882 N 384.306 0.507319 1.49211 0
M  V30 3883 C 385.256 -0.287112 2.26185 0
M  V30 3884 C 386.24 -0.929983 1.31302 0
M  V30 3885 O 387.432 -0.836538 1.55984 0
M  V30 3886 C 384.561 -1.34718 3.15763 0
M  V30 3887 C 383.647 -0.710235 4.18111 0
M  V30 3888 N 384.038 0.190836 5.0544 0
M  V30 3889 C 382.336 -0.97009 4.35322 0
M  V30 3890 C 383.037 0.55606 5.79036 0
M  V30 3891 N 382.013 -0.0775232 5.43545 0
M  V30 3892 H 385.815 0.406445 2.91076 0
M  V30 3893 H 383.329 0.323814 1.59139 0
M  V30 3894 H 385.326 -1.92982 3.69545 0
M  V30 3895 H 383.986 -2.04235 2.52424 0
M  V30 3896 H 384.997 0.562047 5.14841 0
M  V30 3897 H 381.674 -1.65753 3.83187 0
M  V30 3898 H 383.064 1.2936 6.5933 0
M  V30 3899 N 385.784 -1.5574 0.241426 0
M  V30 3900 C 387.195 -1.84842 -0.262755 0
M  V30 3901 C 387.546 -1.16317 -1.58003 0
M  V30 3902 O 386.671 -0.439653 -2.11887 0
M  V30 3903 C 387.266 -3.35332 -0.483523 0
M  V30 3904 C 385.825 -3.6468 -0.931977 0
M  V30 3905 C 384.972 -2.77299 -0.0061151 0
M  V30 3906 H 387.923 -1.51761 0.464129 0
M  V30 3907 H 387.944 -3.56615 -1.32688 0
M  V30 3908 H 387.456 -3.85178 0.47537 0
M  V30 3909 H 385.557 -3.20307 -1.90353 0
M  V30 3910 H 385.67 -4.72498 -0.792628 0
M  V30 3911 H 384.034 -2.49408 -0.516503 0
M  V30 3912 H 384.817 -3.2995 0.948052 0
M  V30 3913 N 387.262 0.0317525 -1.57568 0
M  V30 3914 C 388.511 0.722131 -1.8833 0
M  V30 3915 C 388.824 1.76664 -0.839587 0
M  V30 3916 O 390.03 2.50942 -1.03635 0
M  V30 3917 C 388.486 1.33544 -3.34207 0
M  V30 3918 C 388.094 0.327415 -4.46802 0
M  V30 3919 C 389.838 2.00585 -3.7412 0
M  V30 3920 C 387.745 0.948915 -5.83738 0
M  V30 3921 H 386.675 0.273466 -0.702661 0
M  V30 3922 H 389.326 -0.0235811 -1.83485 0
M  V30 3923 H 387.708 2.13077 -3.33788 0
M  V30 3924 H 388.882 -0.441006 -4.58685 0
M  V30 3925 H 387.197 -0.240758 -4.15703 0
M  V30 3926 H 389.794 2.47932 -4.73744 0
M  V30 3927 H 390.137 2.82285 -3.05975 0
M  V30 3928 H 390.67 1.27831 -3.76702 0
M  V30 3929 H 387.409 0.171387 -6.55276 0
M  V30 3930 H 386.929 1.68724 -5.7558 0
M  V30 3931 H 388.608 1.45705 -6.3038 0
M  V30 3932 N 388.74 1.54641 0.303973 0
M  V30 3933 C 390.151 1.64811 0.877163 0
M  V30 3934 C 390.502 0.554838 1.88191 0
M  V30 3935 O 389.627 -0.309033 2.14182 0
M  V30 3936 C 390.222 2.9876 1.59775 0
M  V30 3937 C 388.781 3.11061 2.11938 0
M  V30 3938 C 387.928 2.60479 0.951097 0
M  V30 3939 H 390.879 1.58493 0.0810486 0
M  V30 3940 H 390.9 2.90017 2.46314 0
M  V30 3941 H 390.412 3.7831 0.866226 0
M  V30 3942 H 388.513 2.36225 2.88146 0
M  V30 3943 H 388.626 4.17171 2.35595 0
M  V30 3944 H 386.99 2.16859 1.33583 0
M  V30 3945 H 387.773 3.42504 0.233581 0
M  V30 3946 N 390.218 -0.567019 1.47046 0
M  V30 3947 C 391.443 -1.3551 1.57009 0
M  V30 3948 C 391.868 -1.86841 0.217259 0
M  V30 3949 O 391.226 -1.62435 -0.805268 0
M  V30 3950 C 391.274 -2.50777 2.5912 0
M  V30 3951 O 390.378 -3.52706 2.13711 0
M  V30 3952 H 389.719 -0.402919 0.52778 0
M  V30 3953 H 392.249 -0.686241 1.92748 0
M  V30 3954 H 392.259 -2.97481 2.79229 0
M  V30 3955 H 390.934 -2.12771 3.57353 0
M  V30 3956 H 389.511 -3.12374 2.03659 0
M  V30 3957 N 391.696 -1.35014 -0.812953 0
M  V30 3958 C 392.606 -1.2951 -1.95613 0
M  V30 3959 C 393.622 -0.20107 -1.72834 0
M  V30 3960 O 394.798 -0.42932 -1.96771 0
M  V30 3961 C 391.863 -1.06033 -3.30088 0
M  V30 3962 C 390.924 -2.24688 -3.65805 0
M  V30 3963 C 390.157 -2.02322 -4.93864 0
M  V30 3964 O 390.38 -0.986464 -5.61805 0
M  V30 3965 O 389.314 -2.89525 -5.27692 0
M  V30 3966 H 393.14 -2.25705 -2.03202 0
M  V30 3967 H 390.725 -1.15321 -0.949811 0
M  V30 3968 H 392.607 -0.94763 -4.10607 0
M  V30 3969 H 391.282 -0.128852 -3.23443 0
M  V30 3970 H 390.189 -2.41521 -2.85689 0
M  V30 3971 H 391.522 -3.16261 -3.77147 0
M  V30 3972 N 393.175 1.03435 -1.18907 0
M  V30 3973 C 394.138 2.09756 -0.923844 0
M  V30 3974 C 395.138 1.60528 0.093416 0
M  V30 3975 O 396.328 1.73631 -0.140727 0
M  V30 3976 C 393.46 3.38692 -0.387354 0
M  V30 3977 H 394.653 2.34719 -1.86674 0
M  V30 3978 H 392.206 1.19959 -1.00197 0
M  V30 3979 H 392.941 3.19396 0.561845 0
M  V30 3980 H 392.726 3.75742 -1.12074 0
M  V30 3981 H 394.216 4.17016 -0.220694 0
M  V30 3982 N 394.653 0.992116 1.22453 0
M  V30 3983 C 395.6 0.541731 2.24352 0
M  V30 3984 C 396.57 -0.425519 1.60557 0
M  V30 3985 O 397.755 -0.330453 1.87917 0
M  V30 3986 C 394.895 -0.138248 3.44823 0
M  V30 3987 C 394.008 0.870649 4.23136 0
M  V30 3988 C 393.143 0.164269 5.30946 0
M  V30 3989 C 392.182 1.16159 6.00977 0
M  V30 3990 N 391.319 0.483568 7.00433 0
M  V30 3991 H 396.159 1.41541 2.62241 0
M  V30 3992 H 393.696 0.709013 1.28885 0
M  V30 3993 H 395.654 -0.5494 4.13567 0
M  V30 3994 H 394.284 -0.975721 3.077 0
M  V30 3995 H 393.336 1.40013 3.53696 0
M  V30 3996 H 394.648 1.63014 4.7141 0
M  V30 3997 H 393.802 -0.303653 6.0594 0
M  V30 3998 H 392.541 -0.627733 4.83643 0
M  V30 3999 H 391.546 1.64015 5.24766 0
M  V30 4000 H 392.771 1.95445 6.50368 0
M  V30 4001 H 390.717 -0.289012 6.55363 0
M  V30 4002 H 390.634 1.18152 7.4671 0
M  V30 4003 H 391.902 0.0384219 7.79491 0
M  V30 4004 N 396.131 -1.37776 0.765217 0
M  V30 4005 C 397.064 -2.28008 0.0935025 0
M  V30 4006 C 398.042 -1.45985 -0.716047 0
M  V30 4007 O 399.226 -1.75331 -0.692203 0
M  V30 4008 C 396.353 -3.27228 -0.874052 0
M  V30 4009 C 395.399 -4.26239 -0.149307 0
M  V30 4010 S 396.232 -5.22827 1.15809 0
M  V30 4011 C 397.388 -6.256 0.193906 0
M  V30 4012 H 397.621 -2.84631 0.858637 0
M  V30 4013 H 395.154 -1.43952 0.558313 0
M  V30 4014 H 397.112 -3.84902 -1.42691 0
M  V30 4015 H 395.773 -2.69565 -1.61225 0
M  V30 4016 H 394.966 -4.96213 -0.88254 0
M  V30 4017 H 394.568 -3.7252 0.332366 0
M  V30 4018 H 396.86 -6.74508 -0.636011 0
M  V30 4019 H 397.803 -7.02838 0.861638 0
M  V30 4020 H 398.211 -5.64173 -0.191975 0
M  V30 4021 N 397.609 -0.515225 -1.4894 0
M  V30 4022 C 399.025 -0.172099 -1.58669 0
M  V30 4023 C 399.225 1.32405 -1.51892 0
M  V30 4024 O 398.281 2.10116 -1.40027 0
M  V30 4025 C 399.594 -0.761533 -2.90897 0
M  V30 4026 C 401.142 -0.728926 -3.04394 0
M  V30 4027 C 401.617 -1.29667 -4.39261 0
M  V30 4028 N 403.108 -1.25799 -4.4579 0
M  V30 4029 C 403.843 -1.66733 -5.48623 0
M  V30 4030 N 403.339 -2.15327 -6.58488 0
M  V30 4031 N 405.132 -1.58061 -5.39419 0
M  V30 4032 H 397.283 -1.48778 -1.51588 0
M  V30 4033 H 399.546 -0.617968 -0.718901 0
M  V30 4034 H 399.252 -1.81136 -3.01468 0
M  V30 4035 H 399.126 -0.230106 -3.76497 0
M  V30 4036 H 401.513 0.312098 -2.93445 0
M  V30 4037 H 401.594 -1.29766 -2.20442 0
M  V30 4038 H 401.238 -2.33655 -4.50963 0
M  V30 4039 H 401.168 -0.703752 -5.21876 0
M  V30 4040 H 403.659 -0.902102 -3.66975 0
M  V30 4041 H 403.972 -2.44594 -7.33071 0
M  V30 4042 H 402.317 -2.19311 -6.59491 0
M  V30 4043 H 405.508 -1.19906 -4.52482 0
M  V30 4044 H 405.681 -1.90284 -6.19432 0
M  V30 4045 N 399.087 1.5561 -0.249682 0
M  V30 4046 C 400.017 2.24477 0.642826 0
M  V30 4047 C 400.998 1.22601 1.17911 0
M  V30 4048 O 402.183 1.5126 1.21795 0
M  V30 4049 C 399.313 2.94638 1.83863 0
M  V30 4050 C 398.267 4.03227 1.435 0
M  V30 4051 C 397.593 4.60828 2.71186 0
M  V30 4052 C 398.893 5.18796 0.604002 0
M  V30 4053 H 400.587 2.99321 0.0685625 0
M  V30 4054 H 398.133 1.43965 0.0315363 0
M  V30 4055 H 400.086 3.41517 2.46868 0
M  V30 4056 H 398.81 2.17287 2.43832 0
M  V30 4057 H 397.469 3.57121 0.828275 0
M  V30 4058 H 397.117 3.80174 3.29358 0
M  V30 4059 H 396.817 5.34132 2.44901 0
M  V30 4060 H 398.341 5.10442 3.35084 0
M  V30 4061 H 399.755 5.61883 1.13842 0
M  V30 4062 H 398.152 5.98506 0.437097 0
M  V30 4063 H 399.222 4.83384 -0.383147 0
M  V30 4064 N 400.565 -0.0233959 1.57583 0
M  V30 4065 C 401.512 -1.02224 2.06927 0
M  V30 4066 C 402.482 -1.35575 0.959617 0
M  V30 4067 O 403.667 -1.45815 1.23055 0
M  V30 4068 C 400.807 -2.31636 2.5581 0
M  V30 4069 C 399.92 -2.04394 3.80588 0
M  V30 4070 C 399.055 -3.27717 4.18061 0
M  V30 4071 C 398.094 -2.96056 5.3574 0
M  V30 4072 N 397.231 -4.11847 5.68618 0
M  V30 4073 H 402.071 -0.594504 2.9201 0
M  V30 4074 H 399.608 -0.281921 1.44373 0
M  V30 4075 H 401.566 -3.07258 2.82221 0
M  V30 4076 H 400.196 -2.72122 1.73636 0
M  V30 4077 H 399.248 -1.19244 3.61227 0
M  V30 4078 H 400.56 -1.77042 4.66323 0
M  V30 4079 H 399.714 -4.11702 4.4563 0
M  V30 4080 H 398.453 -3.58188 3.30988 0
M  V30 4081 H 397.458 -2.10474 5.07918 0
M  V30 4082 H 398.683 -2.66857 6.24471 0
M  V30 4083 H 396.629 -4.42258 4.84504 0
M  V30 4084 H 396.546 -3.87938 6.48876 0
M  V30 4085 H 397.814 -4.96689 6.00766 0
M  V30 4086 N 402.043 -1.548 -0.295768 0
M  V30 4087 C 403.006 -1.85363 -1.34808 0
M  V30 4088 C 404.006 -0.726817 -1.43436 0
M  V30 4089 O 405.196 -0.995088 -1.42981 0
M  V30 4090 C 402.328 -2.03859 -2.73229 0
M  V30 4091 H 403.521 -2.7941 -1.08949 0
M  V30 4092 H 401.074 -1.46942 -0.532702 0
M  V30 4093 H 401.809 -1.12117 -3.04303 0
M  V30 4094 H 401.594 -2.8588 -2.68356 0
M  V30 4095 H 403.084 -2.28857 -3.49305 0
M  V30 4096 N 403.521 0.559213 -1.47345 0
M  V30 4097 C 404.749 1.34194 -1.57479 0
M  V30 4098 C 405.164 1.87463 -0.224261 0
M  V30 4099 O 404.521 1.64888 0.782185 0
M  V30 4100 C 404.572 2.51324 -2.59843 0
M  V30 4101 O 404.293 2.00256 -3.89653 0
M  V30 4102 C 405.794 3.43563 -2.80142 0
M  V30 4103 H 403.014 0.409136 -0.531835 0
M  V30 4104 H 405.558 0.677609 -1.92947 0
M  V30 4105 H 403.713 3.13699 -2.27314 0
M  V30 4106 H 404.127 2.76708 -4.4557 0
M  V30 4107 H 405.601 4.2217 -3.55635 0
M  V30 4108 H 406.078 3.9698 -1.87892 0
M  V30 4109 H 406.684 2.87005 -3.1386 0
M  V30 4110 N 404.999 1.35443 0.805782 0
M  V30 4111 C 405.929 1.31095 1.93226 0
M  V30 4112 C 406.91 0.185244 1.69088 0
M  V30 4113 O 408.095 0.380332 1.90439 0
M  V30 4114 C 405.225 1.08299 3.29983 0
M  V30 4115 C 404.179 2.17519 3.68605 0
M  V30 4116 C 403.505 1.79887 5.03532 0
M  V30 4117 C 404.805 3.5949 3.78898 0
M  V30 4118 H 406.499 2.25352 1.97122 0
M  V30 4119 H 404.045 1.0848 0.946996 0
M  V30 4120 H 405.998 1.03897 4.08391 0
M  V30 4121 H 404.722 0.104885 3.26432 0
M  V30 4122 H 403.381 2.2102 2.92482 0
M  V30 4123 H 403.029 0.80693 4.96485 0
M  V30 4124 H 402.729 2.53001 5.30344 0
M  V30 4125 H 404.253 1.77011 5.84379 0
M  V30 4126 H 405.667 3.58307 4.47536 0
M  V30 4127 H 404.064 4.31371 4.1718 0
M  V30 4128 H 405.134 3.95584 2.80431 0
M  V30 4129 N 406.477 -1.02803 1.19454 0
M  V30 4130 C 407.705 -1.79841 1.02297 0
M  V30 4131 C 408.12 -1.83879 -0.428259 0
M  V30 4132 O 407.477 -1.28345 -1.29745 0
M  V30 4133 C 407.528 -3.24852 1.58598 0
M  V30 4134 O 407.249 -3.21097 2.98041 0
M  V30 4135 C 408.75 -4.18485 1.46236 0
M  V30 4136 H 405.97 -0.565936 0.360496 0
M  V30 4137 H 408.514 -1.2948 1.58288 0
M  V30 4138 H 406.669 -3.72401 1.06753 0
M  V30 4139 H 407.083 -4.12033 3.24545 0
M  V30 4140 H 408.557 -5.18121 1.90407 0
M  V30 4141 H 409.034 -4.37254 0.41301 0
M  V30 4142 H 409.64 -3.76811 1.97215 0
M  V30 4143 N 407.956 -0.998596 -1.21925 0
M  V30 4144 C 408.906 -0.524743 -2.21879 0
M  V30 4145 C 409.89 0.41017 -1.55584 0
M  V30 4146 O 411.082 0.236063 -1.75419 0
M  V30 4147 C 408.211 0.153636 -3.42956 0
M  V30 4148 C 407.297 -0.801918 -4.16449 0
M  V30 4149 N 407.688 -1.95211 -4.66611 0
M  V30 4150 C 405.986 -0.618972 -4.41684 0
M  V30 4151 C 406.687 -2.55234 -5.22715 0
M  V30 4152 N 405.663 -1.83451 -5.1171 0
M  V30 4153 H 409.465 -1.40189 -2.58311 0
M  V30 4154 H 406.979 -0.86159 -1.3766 0
M  V30 4155 H 408.976 0.510534 -4.13762 0
M  V30 4156 H 407.636 1.02684 -3.08036 0
M  V30 4157 H 408.647 -2.33271 -4.62391 0
M  V30 4158 H 405.324 0.207694 -4.16983 0
M  V30 4159 H 406.714 -3.52471 -5.72026 0
M  V30 4160 N 409.434 1.37368 -0.772513 0
M  V30 4161 C 410.366 2.28899 -0.117502 0
M  V30 4162 C 411.379 1.4867 0.663405 0
M  V30 4163 O 412.568 1.71314 0.501372 0
M  V30 4164 C 409.668 3.2788 0.857192 0
M  V30 4165 C 408.841 4.37207 0.129938 0
M  V30 4166 C 407.9 5.16257 1.01811 0
M  V30 4167 O 406.926 5.67159 0.481601 0
M  V30 4168 N 408.128 5.31058 2.3443 0
M  V30 4169 H 410.893 2.85752 -0.903662 0
M  V30 4170 H 408.454 1.49353 -0.62493 0
M  V30 4171 H 410.446 3.77647 1.45482 0
M  V30 4172 H 409.016 2.7179 1.54432 0
M  V30 4173 H 408.236 3.88827 -0.648605 0
M  V30 4174 H 409.524 5.07434 -0.372559 0
M  V30 4175 H 408.922 4.91287 2.80452 0
M  V30 4176 H 407.479 5.84131 2.89197 0
M  V30 4177 N 410.912 0.523116 1.48665 0
M  V30 4178 C 412.158 -0.0134963 2.02796 0
M  V30 4179 C 412.491 -1.34582 1.40004 0
M  V30 4180 O 411.766 -1.86756 0.543381 0
M  V30 4181 C 412.049 -0.14276 3.59817 0
M  V30 4182 C 411.902 1.21425 4.331 0
M  V30 4183 C 413.221 -0.872856 4.31357 0
M  V30 4184 H 410.34 -0.00343074 0.736992 0
M  V30 4185 H 412.982 0.678816 1.7746 0
M  V30 4186 H 411.132 -0.732401 3.81534 0
M  V30 4187 H 412.804 1.84447 4.2282 0
M  V30 4188 H 411.047 1.79791 3.94788 0
M  V30 4189 H 411.718 1.07687 5.41394 0
M  V30 4190 H 414.194 -0.372555 4.14429 0
M  V30 4191 H 413.07 -0.932185 5.40927 0
M  V30 4192 H 413.331 -1.92161 3.98154 0
M  V30 4193 N 412.39 -1.55475 0.257931 0
M  V30 4194 C 413.615 -2.04064 -0.370488 0
M  V30 4195 C 414.04 -1.13565 -1.49948 0
M  V30 4196 O 413.398 -0.130781 -1.80828 0
M  V30 4197 C 413.446 -3.50554 -0.845237 0
M  V30 4198 O 412.55 -3.63173 -1.95394 0
M  V30 4199 H 411.891 -0.659257 -0.0792243 0
M  V30 4200 H 414.421 -2.00903 0.387212 0
M  V30 4201 H 414.431 -3.91588 -1.14555 0
M  V30 4202 H 413.106 -4.15896 -0.0191259 0
M  V30 4203 H 411.683 -3.34039 -1.65748 0
M  V30 4204 N 413.868 0.0150385 -1.57593 0
M  V30 4205 C 415.093 0.718067 -1.94573 0
M  V30 4206 C 415.518 1.6734 -0.859005 0
M  V30 4207 O 414.876 1.80362 0.184147 0
M  V30 4208 C 414.924 1.43918 -3.30636 0
M  V30 4209 O 414.028 2.55299 -3.23876 0
M  V30 4210 H 413.369 0.192125 -0.635597 0
M  V30 4211 H 415.899 -0.0336708 -2.04572 0
M  V30 4212 H 415.909 1.80598 -3.65853 0
M  V30 4213 H 414.584 0.738619 -4.09289 0
M  V30 4214 H 413.161 2.21058 -3.00312 0
M  V30 4215 N 415.346 1.54954 0.287554 0
M  V30 4216 C 416.595 1.74081 1.01877 0
M  V30 4217 C 416.908 0.541135 1.87966 0
M  V30 4218 O 418.114 0.614491 2.64455 0
M  V30 4219 C 416.57 3.08042 1.86113 0
M  V30 4220 C 416.178 4.35531 1.04961 0
M  V30 4221 C 417.922 3.36523 2.58752 0
M  V30 4222 C 415.829 5.60538 1.88551 0
M  V30 4223 H 414.759 0.64884 0.384087 0
M  V30 4224 H 417.41 1.81426 0.275101 0
M  V30 4225 H 415.792 2.94696 2.64519 0
M  V30 4226 H 416.966 4.59751 0.31074 0
M  V30 4227 H 415.281 4.14085 0.43843 0
M  V30 4228 H 417.878 4.27122 3.21668 0
M  V30 4229 H 418.221 2.56 3.28283 0
M  V30 4230 H 418.754 3.50901 1.87386 0
M  V30 4231 H 415.493 6.43767 1.23466 0
M  V30 4232 H 415.013 5.40483 2.60074 0
M  V30 4233 H 416.692 5.98297 2.46273 0
M  V30 4234 N 416.824 -0.551391 1.4764 0
M  V30 4235 C 417.772 -1.67896 1.60978 0
M  V30 4236 C 418.766 -1.62549 0.476877 0
M  V30 4237 O 419.972 -1.67664 0.654878 0
M  V30 4238 H 416.347 -0.555649 0.506713 0
M  V30 4239 H 418.318 -1.53784 2.55721 0
M  V30 4240 C 417.067 -3.06234 1.64669 0
M  V30 4241 H 416.39 -3.11033 2.51194 0
M  V30 4242 H 417.83 -3.84804 1.7805 0
M  V30 4243 C 416.289 -3.34737 0.381115 0
M  V30 4244 O 416.819 -3.98381 -0.515297 0
M  V30 4245 N 415.025 -2.8944 0.259354 0
M  V30 4246 H 414.572 -2.37827 0.98976 0
M  V30 4247 H 414.53 -3.08882 -0.586464 0
M  V30 4248 N 418.302 -1.35869 -0.798587 0
M  V30 4249 C 419.55 -1.29332 -1.55298 0
M  V30 4250 C 419.871 0.129729 -1.94568 0
M  V30 4251 O 419.141 1.06796 -1.6423 0
M  V30 4252 H 417.721 -0.475737 -0.57592 0
M  V30 4253 H 420.383 -1.70062 -0.952093 0
M  V30 4254 H 419.479 -1.91458 -2.46476 0
M  V30 4255 N 419.78 1.02168 -1.19998 0
M  V30 4256 C 421.028 1.75338 -1.00504 0
M  V30 4257 C 421.349 1.89387 0.464506 0
M  V30 4258 O 420.619 1.43268 1.33608 0
M  V30 4259 H 419.199 0.649564 -0.368885 0
M  V30 4260 H 421.861 1.23205 -1.51018 0
M  V30 4261 H 420.957 2.75892 -1.45912 0
M  V30 4262 N 421.258 1.00505 1.21394 0
M  V30 4263 C 422.498 0.696149 1.9218 0
M  V30 4264 C 422.862 -0.759099 1.76357 0
M  V30 4265 O 424.063 -1.17998 2.41516 0
M  V30 4266 C 422.334 1.10571 3.39866 0
M  V30 4267 S 423.893 0.91702 4.29111 0
M  V30 4268 H 420.711 0.254147 0.664026 0
M  V30 4269 H 423.313 1.28988 1.46909 0
M  V30 4270 H 422.017 2.16096 3.489 0
M  V30 4271 H 421.548 0.504268 3.90155 0
M  V30 4272 H 423.563 -0.185855 4.95852 0
M  V30 4273 N 422.737 -1.36956 0.779787 0
M  V30 4274 C 423.985 -1.99097 0.347079 0
M  V30 4275 C 424.306 -1.62206 -1.08232 0
M  V30 4276 O 423.576 -0.891373 -1.74446 0
M  V30 4277 H 422.156 -0.736409 0.125342 0
M  V30 4278 H 424.818 -1.67308 0.999696 0
M  V30 4279 H 423.914 -3.09107 0.431162 0
M  V30 4280 N 424.215 -0.530993 -1.48385 0
M  V30 4281 C 425.148 0.278511 -2.26494 0
M  V30 4282 C 426.126 0.943905 -1.32398 0
M  V30 4283 O 427.31 0.968098 -1.61741 0
M  V30 4284 C 424.437 1.39453 -3.08659 0
M  V30 4285 C 423.483 0.840434 -4.18137 0
M  V30 4286 S 424.316 -0.292496 -5.34701 0
M  V30 4287 C 425.472 0.825973 -6.20426 0
M  V30 4288 H 425.705 -0.384365 -2.94805 0
M  V30 4289 H 423.238 -0.316799 -1.51115 0
M  V30 4290 H 425.196 2.03382 -3.56575 0
M  V30 4291 H 423.857 2.02913 -2.3976 0
M  V30 4292 H 423.05 1.67769 -4.75257 0
M  V30 4293 H 422.652 0.277819 -3.72967 0
M  V30 4294 H 424.944 1.72438 -6.55188 0
M  V30 4295 H 425.887 0.292728 -7.07495 0
M  V30 4296 H 426.295 1.10683 -5.53543 0
M  V30 4297 N 425.693 1.55336 -0.266172 0
M  V30 4298 C 426.939 1.99692 0.353681 0
M  V30 4299 C 427.272 1.1543 1.56172 0
M  V30 4300 O 426.547 0.222218 1.93226 0
M  V30 4301 C 426.83 3.52316 0.74466 0
M  V30 4302 C 426.683 4.47337 -0.470101 0
M  V30 4303 C 428.002 4.10588 1.58447 0
M  V30 4304 H 425.121 0.725961 0.12708 0
M  V30 4305 H 427.763 1.86336 -0.371333 0
M  V30 4306 H 425.913 3.63829 1.36239 0
M  V30 4307 H 427.585 4.4778 -1.10864 0
M  V30 4308 H 425.828 4.19364 -1.10978 0
M  V30 4309 H 426.499 5.51788 -0.15291 0
M  V30 4310 H 428.975 4.02297 1.06286 0
M  V30 4311 H 427.851 5.17607 1.82686 0
M  V30 4312 H 428.112 3.60253 2.56262 0
M  V30 4313 N 427.171 -0.0066808 1.57599 0
M  V30 4314 C 428.417 -0.693947 1.90558 0
M  V30 4315 C 428.75 -1.73792 0.866594 0
M  V30 4316 O 428.025 -1.94156 -0.115548 0
M  V30 4317 C 428.308 -1.34317 3.34112 0
M  V30 4318 C 428.161 -0.311189 4.48722 0
M  V30 4319 C 429.48 -2.27116 3.7697 0
M  V30 4320 H 426.599 -0.250803 0.693013 0
M  V30 4321 H 429.241 0.043242 1.89951 0
M  V30 4322 H 427.391 -1.9715 3.3476 0
M  V30 4323 H 429.063 0.316944 4.6021 0
M  V30 4324 H 427.306 0.367253 4.32243 0
M  V30 4325 H 427.977 -0.804366 5.46108 0
M  V30 4326 H 430.453 -1.74306 3.77831 0
M  V30 4327 H 429.329 -2.69511 4.78179 0
M  V30 4328 H 429.59 -3.14743 3.10466 0
M  V30 4329 N 428.649 -1.55105 -0.279332 0
M  V30 4330 C 429.897 -1.75066 -1.00977 0
M  V30 4331 C 430.218 -0.551276 -1.87045 0
M  V30 4332 O 429.488 0.433984 -1.91032 0
M  V30 4333 H 428.068 -0.645578 -0.375816 0
M  V30 4334 H 430.73 -1.92497 -0.305089 0
M  V30 4335 H 429.826 -2.64894 -1.65038 0
M  V30 4336 N 430.127 0.543554 -1.4793 0
M  V30 4337 C 431.355 1.32516 -1.58894 0
M  V30 4338 C 431.77 1.87215 -0.244131 0
M  V30 4339 O 431.127 1.65709 0.764652 0
M  V30 4340 C 431.178 2.48554 -2.62494 0
M  V30 4341 O 430.899 1.96112 -3.91755 0
M  V30 4342 C 432.4 3.40572 -2.8377 0
M  V30 4343 H 429.62 0.403472 -0.536145 0
M  V30 4344 H 432.164 0.657106 -1.93655 0
M  V30 4345 H 430.319 3.1127 -2.30629 0
M  V30 4346 H 430.733 2.71967 -4.4848 0
M  V30 4347 H 432.207 4.18375 -3.60093 0
M  V30 4348 H 432.684 3.94965 -1.92092 0
M  V30 4349 H 433.29 2.8366 -3.16887 0
M  V30 4350 N 431.605 1.3629 0.791371 0
M  V30 4351 C 432.568 1.30309 1.88553 0
M  V30 4352 C 433.568 0.211204 1.59407 0
M  V30 4353 O 434.758 0.465865 1.67855 0
M  V30 4354 C 431.89 1.01956 3.25297 0
M  V30 4355 H 433.083 2.27614 1.95273 0
M  V30 4356 H 430.636 1.21035 0.988953 0
M  V30 4357 H 431.371 0.050998 3.2426 0
M  V30 4358 H 431.156 1.80968 3.4784 0
M  V30 4359 H 432.646 1.0037 4.05359 0
M  V30 4360 N 433.083 -1.0153 1.20538 0
M  V30 4361 C 434.308 -1.79283 1.04271 0
M  V30 4362 C 434.733 -1.8372 -0.403544 0
M  V30 4363 O 434.091 -1.27321 -1.2907 0
M  V30 4364 C 434.139 -3.21535 1.63241 0
M  V30 4365 O 433.243 -4.03099 0.870908 0
M  V30 4366 H 432.584 -0.55293 0.367647 0
M  V30 4367 H 435.114 -1.27696 1.59859 0
M  V30 4368 H 435.124 -3.72243 1.6703 0
M  V30 4369 H 433.799 -3.1762 2.68497 0
M  V30 4370 H 432.376 -3.61693 0.907323 0
M  V30 4371 N 434.561 -1.01147 -1.20859 0
M  V30 4372 C 435.789 -0.716911 -1.94082 0
M  V30 4373 C 436.204 0.721568 -1.74467 0
M  V30 4374 O 435.561 1.48889 -1.05539 0
M  V30 4375 C 435.612 -1.03662 -3.46318 0
M  V30 4376 O 435.333 -2.4186 -3.65288 0
M  V30 4377 C 436.834 -0.762386 -4.36695 0
M  V30 4378 H 434.054 -0.26367 -0.617024 0
M  V30 4379 H 436.598 -1.35127 -1.53496 0
M  V30 4380 H 434.753 -0.447757 -3.84804 0
M  V30 4381 H 435.167 -2.53224 -4.59323 0
M  V30 4382 H 436.641 -1.03621 -5.42187 0
M  V30 4383 H 437.118 0.303514 -4.3815 0
M  V30 4384 H 437.724 -1.33316 -4.03865 0
M  V30 4385 N 436.039 1.36541 -0.78704 0
M  V30 4386 C 436.972 2.27831 -0.129765 0
M  V30 4387 C 437.95 1.47105 0.692732 0
M  V30 4388 O 439.134 1.7641 0.664222 0
M  V30 4389 C 436.261 3.28577 0.821883 0
M  V30 4390 C 435.307 4.26422 0.0814771 0
M  V30 4391 S 436.14 5.20919 -1.24112 0
M  V30 4392 C 437.296 6.25212 -0.293409 0
M  V30 4393 H 437.529 2.83229 -0.903811 0
M  V30 4394 H 435.062 1.43046 -0.581144 0
M  V30 4395 H 437.02 3.87123 1.3655 0
M  V30 4396 H 435.681 2.72096 1.56916 0
M  V30 4397 H 434.874 4.97554 0.803485 0
M  V30 4398 H 434.476 3.71944 -0.391589 0
M  V30 4399 H 436.768 6.75435 0.528622 0
M  V30 4400 H 437.711 7.01378 -0.973344 0
M  V30 4401 H 438.119 5.64407 0.102196 0
M  V30 4402 N 437.518 0.538854 1.48102 0
M  V30 4403 C 438.764 0.00801365 2.02798 0
M  V30 4404 C 439.097 -1.3309 1.41424 0
M  V30 4405 O 438.372 -1.86169 0.563158 0
M  V30 4406 C 438.655 -0.104589 3.59948 0
M  V30 4407 C 438.508 1.26012 4.31788 0
M  V30 4408 C 439.827 -0.827055 4.32259 0
M  V30 4409 H 436.946 0.00438624 0.736987 0
M  V30 4410 H 439.588 0.6976 1.7673 0
M  V30 4411 H 437.738 -0.691893 3.82289 0
M  V30 4412 H 439.41 1.88922 4.2084 0
M  V30 4413 H 437.653 1.83968 3.92859 0
M  V30 4414 H 438.324 1.13424 5.40221 0
M  V30 4415 H 440.8 -0.328578 4.14801 0
M  V30 4416 H 439.676 -0.87476 5.41885 0
M  V30 4417 H 439.937 -1.87927 4.0017 0
M  V30 4418 N 438.996 -1.55193 0.274407 0
M  V30 4419 C 440.224 -2.03987 -0.345943 0
M  V30 4420 C 440.639 -1.15279 -1.4952 0
M  V30 4421 O 439.996 -0.172759 -1.8168 0
M  V30 4422 C 440.047 -3.51898 -0.827631 0
M  V30 4423 O 439.768 -4.37231 0.275855 0
M  V30 4424 C 441.269 -4.16577 -1.51587 0
M  V30 4425 H 438.489 -0.666335 -0.0789892 0
M  V30 4426 H 441.033 -2.00423 0.406294 0
M  V30 4427 H 439.188 -3.55909 -1.52996 0
M  V30 4428 H 439.602 -5.24415 -0.0943638 0
M  V30 4429 H 441.076 -5.21678 -1.80433 0
M  V30 4430 H 441.553 -3.64707 -2.44716 0
M  V30 4431 H 442.159 -4.16568 -0.857409 0
M  V30 4432 N 440.474 -0.00167713 -1.576 0
M  V30 4433 C 441.437 0.974046 -2.07473 0
M  V30 4434 C 442.437 1.27143 -0.984444 0
M  V30 4435 O 443.627 1.21633 -1.24703 0
M  V30 4436 C 440.759 2.29849 -2.51759 0
M  V30 4437 H 441.952 0.54262 -2.9495 0
M  V30 4438 H 439.505 0.245829 -1.54355 0
M  V30 4439 H 440.24 2.77677 -1.67529 0
M  V30 4440 H 440.025 2.09584 -3.31386 0
M  V30 4441 H 441.515 2.9984 -2.90664 0
M  V30 4442 N 441.952 1.55251 0.271103 0
M  V30 4443 C 443.368 1.47133 0.618393 0
M  V30 4444 C 443.568 0.686994 1.89427 0
M  V30 4445 O 442.624 0.206609 2.51653 0
M  V30 4446 C 443.937 2.91361 0.743593 0
M  V30 4447 C 445.485 3.01587 0.837522 0
M  V30 4448 C 445.96 4.47073 0.994483 0
M  V30 4449 N 447.451 4.50909 1.05996 0
M  V30 4450 C 448.186 5.60698 1.20024 0
M  V30 4451 N 447.682 6.80348 1.30759 0
M  V30 4452 N 449.475 5.48444 1.23149 0
M  V30 4453 H 441.626 2.04698 -0.566784 0
M  V30 4454 H 443.889 0.928319 -0.192165 0
M  V30 4455 H 443.595 3.51483 -0.123493 0
M  V30 4456 H 443.469 3.40484 1.62328 0
M  V30 4457 H 445.856 2.4156 1.69507 0
M  V30 4458 H 445.937 2.55713 -0.0668086 0
M  V30 4459 H 445.581 5.07703 0.141582 0
M  V30 4460 H 445.511 4.90605 1.91349 0
M  V30 4461 H 448.002 3.6472 0.989316 0
M  V30 4462 H 448.315 7.59772 1.41303 0
M  V30 4463 H 446.66 6.83156 1.27761 0
M  V30 4464 H 449.851 4.53907 1.14394 0
M  V30 4465 H 450.024 6.34049 1.33738 0
M  V30 4466 N 443.43 -0.535701 1.48216 0
M  V30 4467 C 444.841 -1.11769 1.49548 0
M  V30 4468 C 445.192 -1.94442 0.26207 0
M  V30 4469 O 444.317 -2.06987 -0.631287 0
M  V30 4470 C 444.912 -2.03367 2.70975 0
M  V30 4471 C 443.471 -2.56795 2.75196 0
M  V30 4472 C 442.618 -1.33631 2.42977 0
M  V30 4473 H 445.569 -0.321232 1.55415 0
M  V30 4474 H 445.59 -2.87569 2.49167 0
M  V30 4475 H 445.102 -1.43169 3.60727 0
M  V30 4476 H 443.203 -3.20731 1.89638 0
M  V30 4477 H 443.316 -2.9632 3.76472 0
M  V30 4478 H 441.68 -1.6502 1.94012 0
M  V30 4479 H 442.463 -0.75194 3.34964 0
M  V30 4480 N 444.908 -1.36708 -0.784132 0
M  V30 4481 C 445.818 -1.3363 -1.92822 0
M  V30 4482 C 446.834 -0.237686 -1.72369 0
M  V30 4483 O 448.01 -0.470962 -1.95816 0
M  V30 4484 C 445.075 -1.13011 -3.27764 0
M  V30 4485 C 444.136 -2.32397 -3.60957 0
M  V30 4486 C 443.369 -2.12752 -4.89461 0
M  V30 4487 O 443.592 -1.10541 -5.59586 0
M  V30 4488 O 442.526 -3.00653 -5.21432 0
M  V30 4489 H 446.352 -2.29964 -1.98369 0
M  V30 4490 H 443.937 -1.1731 -0.925136 0
M  V30 4491 H 445.819 -1.03451 -4.08504 0
M  V30 4492 H 444.494 -0.19743 -3.23097 0
M  V30 4493 H 443.401 -2.47527 -2.80502 0
M  V30 4494 H 444.734 -3.2419 -3.70354 0
M  V30 4495 N 446.386 1.0089 -1.21074 0
M  V30 4496 C 447.318 2.09737 -0.924291 0
M  V30 4497 C 448.331 1.62546 0.0909809 0
M  V30 4498 O 449.52 1.77942 -0.141021 0
M  V30 4499 C 446.62 3.36922 -0.36559 0
M  V30 4500 C 445.793 4.13216 -1.43426 0
M  V30 4501 C 444.852 5.18696 -0.885496 0
M  V30 4502 O 443.878 5.47176 -1.56801 0
M  V30 4503 N 445.08 5.79718 0.301227 0
M  V30 4504 H 447.845 2.34895 -1.8613 0
M  V30 4505 H 445.406 1.17341 -1.11546 0
M  V30 4506 H 447.398 4.04697 0.0158407 0
M  V30 4507 H 445.968 3.08952 0.476149 0
M  V30 4508 H 445.188 3.40301 -1.9897 0
M  V30 4509 H 446.476 4.60967 -2.15376 0
M  V30 4510 H 445.874 5.58926 0.872849 0
M  V30 4511 H 444.431 6.48804 0.624211 0
M  V30 4512 N 447.864 1.01787 1.20321 0
M  V30 4513 C 449.089 0.727009 1.9424 0
M  V30 4514 C 449.514 -0.706179 1.74341 0
M  V30 4515 O 448.872 -1.48609 1.03852 0
M  V30 4516 C 448.92 1.06958 3.44372 0
M  V30 4517 O 448.024 0.181983 4.11998 0
M  V30 4518 H 447.365 0.269626 0.606793 0
M  V30 4519 H 449.895 1.36158 1.52716 0
M  V30 4520 H 449.905 1.02182 3.94997 0
M  V30 4521 H 448.58 2.11378 3.58179 0
M  V30 4522 H 447.157 0.287378 3.71791 0
M  V30 4523 N 449.342 -1.36122 0.79427 0
M  V30 4524 C 450.274 -2.28683 0.153903 0
M  V30 4525 C 451.287 -1.49707 -0.639669 0
M  V30 4526 O 452.476 -1.7209 -0.474054 0
M  V30 4527 C 449.576 -3.29202 -0.804921 0
M  V30 4528 C 448.749 -4.37358 -0.060366 0
M  V30 4529 C 447.808 -5.17811 -0.935849 0
M  V30 4530 O 446.834 -5.67853 -0.391309 0
M  V30 4531 N 448.036 -5.34721 -2.25951 0
M  V30 4532 H 450.801 -2.84278 0.949008 0
M  V30 4533 H 448.362 -1.4834 0.648611 0
M  V30 4534 H 450.354 -3.79914 -1.39455 0
M  V30 4535 H 448.924 -2.74212 -1.50088 0
M  V30 4536 H 448.144 -3.87746 0.710382 0
M  V30 4537 H 449.432 -5.06777 0.45324 0
M  V30 4538 H 448.83 -4.95687 -2.72601 0
M  V30 4539 H 447.387 -5.88657 -2.79867 0
M  V30 4540 N 450.82 -0.546701 -1.47814 0
M  V30 4541 C 452.069 -0.0166497 -2.01693 0
M  V30 4542 C 452.382 1.33721 -1.42752 0
M  V30 4543 O 453.588 1.95658 -1.8823 0
M  V30 4544 C 452.044 0.0206769 -3.59894 0
M  V30 4545 C 451.652 -1.3293 -4.27824 0
M  V30 4546 C 453.396 0.498674 -4.21561 0
M  V30 4547 C 451.303 -1.25165 -5.78003 0
M  V30 4548 H 450.233 -0.0024541 -0.753996 0
M  V30 4549 H 452.884 -0.692984 -1.69912 0
M  V30 4550 H 451.266 0.76244 -3.88591 0
M  V30 4551 H 452.44 -2.08795 -4.10781 0
M  V30 4552 H 450.755 -1.74438 -3.78101 0
M  V30 4553 H 453.352 0.575 -5.31599 0
M  V30 4554 H 453.695 1.5083 -3.88016 0
M  V30 4555 H 454.228 -0.18791 -3.97356 0
M  V30 4556 H 450.967 -2.23695 -6.1615 0
M  V30 4557 H 450.487 -0.53464 -5.97412 0
M  V30 4558 H 452.166 -0.949299 -6.39998 0
M  V30 4559 N 452.299 1.55045 -0.282633 0
M  V30 4560 C 453.229 2.2579 0.595066 0
M  V30 4561 C 454.21 1.25074 1.15284 0
M  V30 4562 O 455.395 1.5381 1.18559 0
M  V30 4563 C 452.525 2.98472 1.77572 0
M  V30 4564 C 451.479 4.0618 1.34914 0
M  V30 4565 C 450.805 4.66477 2.6135 0
M  V30 4566 C 452.105 5.1996 0.493821 0
M  V30 4567 H 453.799 2.994 0.00505653 0
M  V30 4568 H 451.345 1.44 0.000992001 0
M  V30 4569 H 453.298 3.46677 2.39568 0
M  V30 4570 H 452.022 2.2241 2.39168 0
M  V30 4571 H 450.681 3.58797 0.752338 0
M  V30 4572 H 450.329 3.87074 3.2122 0
M  V30 4573 H 450.029 5.39207 2.33516 0
M  V30 4574 H 451.553 5.17435 3.24181 0
M  V30 4575 H 452.967 5.64172 1.01898 0
M  V30 4576 H 451.364 5.99299 0.310047 0
M  V30 4577 H 452.434 4.82462 -0.485593 0
M  V30 4578 N 453.777 0.010035 1.57597 0
M  V30 4579 C 455.026 -0.671945 1.90178 0
M  V30 4580 C 455.339 -1.74376 0.886131 0
M  V30 4581 O 456.545 -2.48107 1.10252 0
M  V30 4582 C 455.001 -1.24636 3.3763 0
M  V30 4583 C 454.609 -0.208838 4.47513 0
M  V30 4584 C 456.353 -1.90595 3.79307 0
M  V30 4585 C 454.26 -0.793814 5.86048 0
M  V30 4586 H 453.19 -0.25474 0.709665 0
M  V30 4587 H 455.841 0.0722206 1.83358 0
M  V30 4588 H 454.223 -2.04152 3.3932 0
M  V30 4589 H 455.397 0.562463 4.57354 0
M  V30 4590 H 453.712 0.350889 4.14919 0
M  V30 4591 H 456.309 -2.35284 4.80151 0
M  V30 4592 H 456.652 -2.74074 3.13352 0
M  V30 4593 H 457.185 -1.17798 3.79958 0
M  V30 4594 H 453.924 0.00240855 6.555 0
M  V30 4595 H 453.444 -1.53404 5.79851 0
M  V30 4596 H 455.123 -1.2894 6.34022 0
M  V30 4597 N 455.255 -1.55392 -0.262866 0
M  V30 4598 C 456.187 -1.85392 -1.34768 0
M  V30 4599 C 457.2 -0.739069 -1.45057 0
M  V30 4600 O 458.389 -1.01703 -1.46693 0
M  V30 4601 C 455.489 -2.01088 -2.72795 0
M  V30 4602 C 454.662 -3.31828 -2.84972 0
M  V30 4603 C 453.721 -3.37464 -4.03738 0
M  V30 4604 O 452.747 -4.10778 -3.94018 0
M  V30 4605 N 453.949 -2.65599 -5.16176 0
M  V30 4606 H 456.714 -2.79029 -1.09375 0
M  V30 4607 H 454.275 -1.55434 -0.452981 0
M  V30 4608 H 456.267 -2.02217 -3.50557 0
M  V30 4609 H 454.837 -1.1427 -2.90966 0
M  V30 4610 H 454.057 -3.43152 -1.94012 0
M  V30 4611 H 455.345 -4.18032 -2.90045 0
M  V30 4612 H 454.743 -2.05736 -5.26962 0
M  V30 4613 H 453.3 -2.72439 -5.92132 0
M  V30 4614 N 456.733 0.527833 -1.48498 0
M  V30 4615 C 457.683 1.62844 -1.5958 0
M  V30 4616 C 458.667 1.54397 -0.452809 0
M  V30 4617 O 459.859 1.62381 -0.704364 0
M  V30 4618 C 456.988 3.01557 -1.64067 0
M  V30 4619 C 456.074 3.151 -2.83853 0
M  V30 4620 N 456.465 2.9861 -4.08247 0
M  V30 4621 C 454.763 3.46158 -2.8123 0
M  V30 4622 C 455.464 3.15626 -4.88626 0
M  V30 4623 N 454.44 3.43298 -4.21483 0
M  V30 4624 H 458.242 1.48708 -2.53502 0
M  V30 4625 H 455.756 0.733343 -1.44899 0
M  V30 4626 H 457.753 3.8062 -1.70101 0
M  V30 4627 H 456.413 3.16783 -0.712636 0
M  V30 4628 H 457.424 2.75329 -4.3865 0
M  V30 4629 H 454.101 3.67728 -1.97692 0
M  V30 4630 H 455.491 3.07596 -5.97356 0
M  V30 4631 N 458.211 1.37122 0.776871 0
M  V30 4632 C 459.622 1.28667 1.35284 0
M  V30 4633 C 459.973 -0.0680035 1.96082 0
M  V30 4634 O 459.098 -0.969743 1.93455 0
M  V30 4635 C 459.693 2.32997 2.45963 0
M  V30 4636 C 458.252 2.28191 2.99342 0
M  V30 4637 C 457.399 2.17101 1.72517 0
M  V30 4638 H 460.35 1.47819 0.577527 0
M  V30 4639 H 460.371 1.97366 3.2531 0
M  V30 4640 H 459.883 3.3158 2.01684 0
M  V30 4641 H 457.984 1.33115 3.4801 0
M  V30 4642 H 458.097 3.21397 3.55304 0
M  V30 4643 H 456.461 1.63562 1.95242 0
M  V30 4644 H 457.244 3.17591 1.30348 0
M  V30 4645 N 459.689 -1.00246 1.21608 0
M  V30 4646 C 460.966 -1.71336 0.943568 0
M  V30 4647 C 461.346 -2.03972 -0.543943 0
M  V30 4648 O 460.694 -1.71545 -1.50946 0
M  V30 4649 C 460.904 -2.97094 1.83128 0
M  V30 4650 C 462.252 -3.70071 2.08165 0
M  V30 4651 O 463.276 -3.07081 1.80498 0
M  V30 4652 O 462.135 -4.83376 2.54971 0
M  V30 4653 H 459.229 -0.747386 0.354039 0
M  V30 4654 H 461.775 -1.05967 1.32549 0
M  V30 4655 H 460.547 -2.69407 2.83788 0
M  V30 4656 H 460.17 -3.70204 1.45034 0
M  V30 4657 N 461.167 -1.02423 -1.1978 0
M  V30 4658 C 462.13 -0.605703 -2.21052 0
M  V30 4659 C 463.13 0.328209 -1.57415 0
M  V30 4660 O 464.32 0.115853 -1.73814 0
M  V30 4661 C 461.452 0.114366 -3.40708 0
M  V30 4662 H 462.645 -1.5017 -2.59594 0
M  V30 4663 H 460.198 -0.814888 -1.33376 0
M  V30 4664 H 460.933 1.02492 -3.07678 0
M  V30 4665 H 460.718 -0.556641 -3.88129 0
M  V30 4666 H 462.208 0.394272 -4.15735 0
M  V30 4667 N 462.645 1.35699 -0.801477 0
M  V30 4668 C 464.056 1.81415 -0.441073 0
M  V30 4669 C 464.407 1.66595 1.03636 0
M  V30 4670 O 463.532 1.19369 1.80499 0
M  V30 4671 C 464.127 3.29369 -0.793819 0
M  V30 4672 C 462.686 3.73248 -0.486083 0
M  V30 4673 C 461.833 2.57775 -1.02213 0
M  V30 4674 H 464.784 1.23749 -0.993572 0
M  V30 4675 H 464.805 3.80395 -0.0894158 0
M  V30 4676 H 464.317 3.40123 -1.86917 0
M  V30 4677 H 462.418 3.68046 0.580735 0
M  V30 4678 H 462.531 4.68222 -1.01513 0
M  V30 4679 H 460.895 2.50788 -0.444712 0
M  V30 4680 H 461.678 2.71309 -2.10348 0
M  V30 4681 N 464.123 0.554532 1.47522 0
M  V30 4682 C 465.348 0.0322661 2.07375 0
M  V30 4683 C 465.773 -1.25079 1.40488 0
M  V30 4684 O 465.131 -1.74859 0.47896 0
M  V30 4685 C 465.179 -0.149397 3.6029 0
M  V30 4686 O 464.283 -1.21259 3.9417 0
M  V30 4687 H 463.624 0.0501228 0.662106 0
M  V30 4688 H 466.154 0.769452 1.8958 0
M  V30 4689 H 466.164 -0.364437 4.06369 0
M  V30 4690 H 464.839 0.787743 4.08372 0
M  V30 4691 H 463.416 -0.97825 3.5984 0
M  V30 4692 N 465.601 -1.54893 0.290851 0
M  V30 4693 C 467.012 -1.85584 -0.203816 0
M  V30 4694 C 467.363 -1.21285 -1.54222 0
M  V30 4695 O 466.488 -0.506841 -2.10381 0
M  V30 4696 C 467.083 -3.367 -0.376595 0
M  V30 4697 C 465.642 -3.6746 -0.815485 0
M  V30 4698 C 464.789 -2.77178 0.0821087 0
M  V30 4699 H 467.74 -1.50208 0.512175 0
M  V30 4700 H 467.761 -3.60656 -1.21275 0
M  V30 4701 H 467.273 -3.8347 0.59767 0
M  V30 4702 H 465.374 -3.26201 -1.80066 0
M  V30 4703 H 465.487 -4.7478 -0.641905 0
M  V30 4704 H 463.851 -2.50925 -0.436895 0
M  V30 4705 H 464.634 -3.26767 1.05254 0
M  V30 4706 N 467.08 -0.0183926 -1.57589 0
M  V30 4707 C 468.043 0.951986 -2.08494 0
M  V30 4708 C 469.043 1.26092 -0.997874 0
M  V30 4709 O 470.233 1.20304 -1.25987 0
M  V30 4710 C 467.365 2.27165 -2.54182 0
M  V30 4711 H 468.558 0.511307 -2.95509 0
M  V30 4712 H 466.111 0.229444 -1.54607 0
M  V30 4713 H 466.846 2.75884 -1.70465 0
M  V30 4714 H 466.631 2.06057 -3.33591 0
M  V30 4715 H 468.121 2.9674 -2.93828 0
M  V30 4716 N 468.558 1.5553 0.254621 0
M  V30 4717 C 469.49 1.86104 1.33783 0
M  V30 4718 C 470.503 0.746752 1.44663 0
M  V30 4719 O 471.692 1.0248 1.46151 0
M  V30 4720 C 468.792 2.02532 2.71724 0
M  V30 4721 C 467.965 3.33335 2.83208 0
M  V30 4722 C 467.024 3.396 4.01943 0
M  V30 4723 O 466.05 4.12862 3.91834 0
M  V30 4724 N 467.252 2.68332 5.1476 0
M  V30 4725 H 470.017 2.79605 1.07893 0
M  V30 4726 H 467.578 1.55672 0.444732 0
M  V30 4727 H 469.57 2.04074 3.4948 0
M  V30 4728 H 468.14 1.15811 2.90356 0
M  V30 4729 H 467.36 3.44176 1.92189 0
M  V30 4730 H 468.648 4.19565 2.87824 0
M  V30 4731 H 468.046 2.08528 5.25864 0
M  V30 4732 H 466.603 2.75575 5.90679 0
M  V30 4733 N 470.036 -0.519951 1.48776 0
M  V30 4734 C 471.447 -1.10177 1.50725 0
M  V30 4735 C 471.798 -1.94153 0.282678 0
M  V30 4736 O 470.923 -2.07645 -0.609298 0
M  V30 4737 C 471.518 -2.00482 2.73116 0
M  V30 4738 C 470.077 -2.53862 2.77905 0
M  V30 4739 C 469.224 -1.31047 2.44381 0
M  V30 4740 H 472.175 -0.30473 1.55747 0
M  V30 4741 H 472.196 -2.8491 2.52203 0
M  V30 4742 H 471.708 -1.39335 3.62225 0
M  V30 4743 H 469.809 -3.18702 1.93029 0
M  V30 4744 H 469.922 -2.9231 3.79594 0
M  V30 4745 H 468.286 -1.62953 1.95751 0
M  V30 4746 H 469.069 -0.71637 3.35743 0
M  V30 4747 N 471.514 -1.37532 -0.769588 0
M  V30 4748 C 472.446 -1.29347 -1.89214 0
M  V30 4749 C 473.459 -0.208842 -1.61455 0
M  V30 4750 O 474.648 -0.465158 -1.72333 0
M  V30 4751 C 471.748 -0.977649 -3.24492 0
M  V30 4752 C 470.921 -2.16817 -3.7988 0
M  V30 4753 C 469.98 -1.82229 -4.93639 0
M  V30 4754 O 469.006 -2.54548 -5.09111 0
M  V30 4755 N 470.208 -0.767696 -5.75401 0
M  V30 4756 H 472.973 -2.26073 -1.96751 0
M  V30 4757 H 470.534 -1.31185 -0.948795 0
M  V30 4758 H 472.526 -0.727065 -3.98115 0
M  V30 4759 H 471.096 -0.0988777 -3.12444 0
M  V30 4760 H 470.316 -2.58038 -2.9801 0
M  V30 4761 H 471.604 -2.96308 -4.13617 0
M  V30 4762 H 471.002 -0.167626 -5.65452 0
M  V30 4763 H 469.559 -0.576973 -6.49241 0
M  V30 4764 N 472.992 0.995999 -1.22138 0
M  V30 4765 C 474.238 1.73767 -1.04561 0
M  V30 4766 C 474.571 1.89633 0.418698 0
M  V30 4767 O 473.846 1.43723 1.3105 0
M  V30 4768 C 474.129 3.14505 -1.75382 0
M  V30 4769 C 473.982 3.06306 -3.29388 0
M  V30 4770 C 475.301 4.13615 -1.50369 0
M  V30 4771 H 472.42 0.630728 -0.38125 0
M  V30 4772 H 475.062 1.16057 -1.50435 0
M  V30 4773 H 473.212 3.63775 -1.36383 0
M  V30 4774 H 474.884 2.64681 -3.77812 0
M  V30 4775 H 473.127 2.43186 -3.59226 0
M  V30 4776 H 473.798 4.05884 -3.74116 0
M  V30 4777 H 476.274 3.73089 -1.84239 0
M  V30 4778 H 475.15 5.10212 -2.02421 0
M  V30 4779 H 475.411 4.39949 -0.435611 0
M  V30 4780 N 474.47 1.03057 1.19235 0
M  V30 4781 C 475.695 0.74757 1.93458 0
M  V30 4782 C 476.12 -0.687648 1.7508 0
M  V30 4783 O 475.478 -1.47499 1.05422 0
M  V30 4784 C 475.526 1.10604 3.43219 0
M  V30 4785 O 474.63 0.225671 4.11782 0
M  V30 4786 H 473.971 0.276047 0.603899 0
M  V30 4787 H 476.501 1.3777 1.51263 0
M  V30 4788 H 476.511 1.06366 3.93891 0
M  V30 4789 H 475.186 2.15165 3.55917 0
M  V30 4790 H 473.763 0.326795 3.71465 0
M  V30 4791 N 475.948 -1.35272 0.808662 0
M  V30 4792 C 477.359 -1.81179 0.450688 0
M  V30 4793 C 477.71 -1.67143 -1.02751 0
M  V30 4794 O 476.835 -1.20325 -1.79864 0
M  V30 4795 C 477.43 -3.28943 0.811275 0
M  V30 4796 C 475.989 -3.72985 0.505871 0
M  V30 4797 C 475.136 -2.57229 1.03578 0
M  V30 4798 H 478.087 -1.2322 1.00012 0
M  V30 4799 H 478.108 -3.80342 0.109588 0
M  V30 4800 H 477.62 -3.39127 1.88718 0
M  V30 4801 H 475.721 -3.68349 -0.561209 0
M  V30 4802 H 475.834 -4.67677 1.03995 0
M  V30 4803 H 474.198 -2.50548 0.458005 0
M  V30 4804 H 474.981 -2.7019 2.11784 0
M  V30 4805 N 477.426 -0.562348 -1.47226 0
M  V30 4806 C 478.389 0.172056 -2.28553 0
M  V30 4807 C 479.389 0.837928 -1.37242 0
M  V30 4808 O 480.579 0.693001 -1.59822 0
M  V30 4809 C 477.711 1.25223 -3.17068 0
M  V30 4810 H 478.904 -0.542401 -2.94954 0
M  V30 4811 H 476.457 -0.319493 -1.53 0
M  V30 4812 H 477.192 1.99892 -2.55369 0
M  V30 4813 H 476.977 0.779515 -3.84273 0
M  V30 4814 H 478.467 1.76791 -3.78332 0
M  V30 4815 N 478.904 1.54736 -0.299062 0
M  V30 4816 C 479.836 2.20891 0.61153 0
M  V30 4817 C 480.849 1.20104 1.09904 0
M  V30 4818 O 482.038 1.46707 1.01683 0
M  V30 4819 C 479.138 2.84018 1.84897 0
M  V30 4820 C 478.311 4.10719 1.50428 0
M  V30 4821 C 477.37 4.57667 2.59667 0
M  V30 4822 O 476.396 5.2291 2.24842 0
M  V30 4823 N 477.598 4.29821 3.90172 0
M  V30 4824 H 480.363 2.99666 0.0452001 0
M  V30 4825 H 477.924 1.61446 -0.121178 0
M  V30 4826 H 479.916 3.1236 2.5732 0
M  V30 4827 H 478.486 2.09095 2.32375 0
M  V30 4828 H 477.706 3.89408 0.612781 0
M  V30 4829 H 478.994 4.93223 1.24934 0
M  V30 4830 H 478.392 3.77549 4.21276 0
M  V30 4831 H 476.949 4.62877 4.58899 0
M  V30 4832 N 480.382 0.0267497 1.57577 0
M  V30 4833 C 481.793 -0.512413 1.79531 0
M  V30 4834 C 482.144 -1.72391 0.936791 0
M  V30 4835 O 481.269 -2.15903 0.146543 0
M  V30 4836 C 481.864 -0.936378 3.25603 0
M  V30 4837 C 480.423 -1.42067 3.4856 0
M  V30 4838 C 479.57 -0.384278 2.74624 0
M  V30 4839 H 482.521 0.252797 1.56674 0
M  V30 4840 H 482.542 -1.80088 3.35184 0
M  V30 4841 H 482.054 -0.0544332 3.88062 0
M  V30 4842 H 480.155 -2.32262 2.9135 0
M  V30 4843 H 480.268 -1.42968 4.57271 0
M  V30 4844 H 478.632 -0.851855 2.40032 0
M  V30 4845 H 479.415 0.489159 3.39797 0
M  V30 4846 N 481.861 -1.55662 -0.24637 0
M  V30 4847 C 483.089 -1.81575 -0.991876 0
M  V30 4848 C 483.504 -0.602545 -1.78927 0
M  V30 4849 O 482.861 0.428795 -1.77391 0
M  V30 4850 C 482.912 -3.05711 -1.92933 0
M  V30 4851 O 482.633 -4.22348 -1.1642 0
M  V30 4852 C 484.134 -3.44428 -2.79078 0
M  V30 4853 H 481.354 -0.604209 -0.291844 0
M  V30 4854 H 483.898 -2.02722 -0.269095 0
M  V30 4855 H 482.053 -2.86612 -2.60638 0
M  V30 4856 H 482.467 -4.92706 -1.79835 0
M  V30 4857 H 483.941 -4.34388 -3.40603 0
M  V30 4858 H 484.418 -2.65037 -3.50217 0
M  V30 4859 H 485.024 -3.65879 -2.16824 0
M  V30 4860 N 483.339 0.512053 -1.4905 0
M  V30 4861 C 484.75 1.09376 -1.51307 0
M  V30 4862 C 485.101 1.94 -0.292971 0
M  V30 4863 O 484.226 2.07965 0.598277 0
M  V30 4864 C 484.821 1.99031 -2.74176 0
M  V30 4865 C 483.38 2.52385 -2.79247 0
M  V30 4866 C 482.527 1.29749 -2.45073 0
M  V30 4867 H 485.478 0.296467 -1.55906 0
M  V30 4868 H 485.499 2.83569 -2.53711 0
M  V30 4869 H 485.011 1.37412 -3.62959 0
M  V30 4870 H 483.112 3.17673 -1.94716 0
M  V30 4871 H 483.225 2.90293 -3.81139 0
M  V30 4872 H 481.589 1.61912 -1.96612 0
M  V30 4873 H 482.372 0.698555 -3.36118 0
M  V30 4874 N 484.817 1.37938 0.762283 0
M  V30 4875 C 486.042 1.37059 1.55659 0
M  V30 4876 C 486.467 -0.0396123 1.88058 0
M  V30 4877 O 485.825 -1.01929 1.49934 0
M  V30 4878 C 485.873 2.22494 2.83776 0
M  V30 4879 O 484.977 1.63607 3.78559 0
M  V30 4880 H 484.318 0.467892 0.47114 0
M  V30 4881 H 486.848 1.81587 0.942725 0
M  V30 4882 H 486.858 2.36045 3.32786 0
M  V30 4883 H 485.533 3.24993 2.59524 0
M  V30 4884 H 484.11 1.5915 3.37233 0
M  V30 4885 N 486.295 -0.989507 1.22664 0
M  V30 4886 C 487.523 -1.76496 1.07967 0
M  V30 4887 C 487.938 -1.85148 -0.369543 0
M  V30 4888 O 487.295 -1.32408 -1.25596 0
M  V30 4889 C 487.346 -3.19642 1.68853 0
M  V30 4890 O 487.067 -3.11453 3.08105 0
M  V30 4891 C 488.568 -4.13621 1.59475 0
M  V30 4892 H 485.788 -0.55418 0.378319 0
M  V30 4893 H 488.332 -1.24378 1.62328 0
M  V30 4894 H 486.487 -3.68816 1.18547 0
M  V30 4895 H 486.901 -4.01499 3.37489 0
M  V30 4896 H 488.375 -5.11801 2.06795 0
M  V30 4897 H 488.852 -4.35718 0.55191 0
M  V30 4898 H 489.458 -3.70346 2.09103 0
M  V30 4899 N 487.773 -1.03688 -1.18687 0
M  V30 4900 C 489.021 -0.736572 -1.88199 0
M  V30 4901 C 489.342 0.737665 -1.80509 0
M  V30 4902 O 488.612 1.53204 -1.22088 0
M  V30 4903 H 487.192 -0.269466 -0.696704 0
M  V30 4904 H 489.854 -1.31282 -1.44052 0
M  V30 4905 H 488.95 -1.03802 -2.94332 0
M  V30 4906 N 489.251 1.34841 -0.815825 0
M  V30 4907 C 490.499 1.98107 -0.399744 0
M  V30 4908 C 490.82 1.65019 1.03894 0
M  V30 4909 O 490.09 0.937311 1.72021 0
M  V30 4910 H 488.67 0.732827 -0.144823 0
M  V30 4911 H 491.332 1.64599 -1.0437 0
M  V30 4912 H 490.428 3.07856 -0.512965 0
M  V30 4913 N 490.729 0.570148 1.46925 0
M  V30 4914 C 492.145 0.23087 1.57921 0
M  V30 4915 C 492.345 -1.26676 1.56702 0
M  V30 4916 O 491.401 -2.04774 1.47729 0
M  V30 4917 C 492.714 0.868973 2.8787 0
M  V30 4918 C 494.262 0.841397 3.01479 0
M  V30 4919 C 494.737 1.45881 4.34146 0
M  V30 4920 N 496.228 1.42258 4.40814 0
M  V30 4921 C 496.963 1.8698 5.42057 0
M  V30 4922 N 496.459 2.39618 6.50042 0
M  V30 4923 N 498.252 1.77972 5.33181 0
M  V30 4924 H 490.403 1.54301 1.45962 0
M  V30 4925 H 492.666 0.644224 0.69547 0
M  V30 4926 H 492.372 1.922 2.94537 0
M  V30 4927 H 492.246 0.369682 3.75384 0
M  V30 4928 H 494.633 -0.202973 2.94401 0
M  V30 4929 H 494.714 1.37858 2.15474 0
M  V30 4930 H 494.358 2.50231 4.4198 0
M  V30 4931 H 494.288 0.896958 5.18905 0
M  V30 4932 H 496.779 1.03768 3.63374 0
M  V30 4933 H 497.092 2.71633 7.23488 0
M  V30 4934 H 495.437 2.43636 6.50897 0
M  V30 4935 H 498.628 1.36617 4.4772 0
M  V30 4936 H 498.801 2.13143 6.11943 0
M  V30 4937 N 492.207 -1.54576 0.307264 0
M  V30 4938 C 493.623 -1.59534 -0.0459251 0
M  V30 4939 C 493.823 -1.32414 -1.51884 0
M  V30 4940 O 492.879 -1.1006 -2.27251 0
M  V30 4941 C 494.192 -2.98566 0.357649 0
M  V30 4942 C 495.74 -3.11491 0.306937 0
M  V30 4943 C 496.215 -4.52842 0.685427 0
M  V30 4944 N 497.706 -4.58782 0.638203 0
M  V30 4945 C 498.441 -5.66238 0.903458 0
M  V30 4946 N 497.937 -6.81703 1.23501 0
M  V30 4947 N 499.73 -5.55937 0.830102 0
M  V30 4948 H 491.881 -1.70464 1.26712 0
M  V30 4949 H 494.144 -0.79647 0.514139 0
M  V30 4950 H 493.85 -3.23356 1.38325 0
M  V30 4951 H 493.724 -3.76117 -0.285565 0
M  V30 4952 H 496.111 -2.86446 -0.709424 0
M  V30 4953 H 496.192 -2.36081 0.984861 0
M  V30 4954 H 495.836 -4.78618 1.69963 0
M  V30 4955 H 495.766 -5.26598 -0.0146346 0
M  V30 4956 H 498.257 -3.75849 0.393138 0
M  V30 4957 H 498.57 -7.59582 1.42322 0
M  V30 4958 H 496.915 -6.8324 1.27311 0
M  V30 4959 H 500.106 -4.64608 0.570693 0
M  V30 4960 H 500.279 -6.39597 1.04019 0
M  V30 4961 N 493.685 -0.035106 -1.57561 0
M  V30 4962 C 495.101 0.321334 -1.56332 0
M  V30 4963 C 495.301 1.72509 -1.04129 0
M  V30 4964 O 494.357 2.4287 -0.690694 0
M  V30 4965 C 495.67 0.164469 -3.0025 0
M  V30 4966 C 497.218 0.236786 -3.12103 0
M  V30 4967 C 497.693 0.10864 -4.57871 0
M  V30 4968 N 499.184 0.165433 -4.62904 0
M  V30 4969 C 499.919 0.0901506 -5.73329 0
M  V30 4970 N 499.415 -0.0365606 -6.9279 0
M  V30 4971 N 501.208 0.144572 -5.61914 0
M  V30 4972 H 493.359 -0.952976 -1.89821 0
M  V30 4973 H 495.622 -0.368537 -0.873432 0
M  V30 4974 H 495.328 -0.802746 -3.42416 0
M  V30 4975 H 495.202 0.932194 -3.655 0
M  V30 4976 H 497.589 1.19446 -2.69845 0
M  V30 4977 H 497.67 -0.561419 -2.49563 0
M  V30 4978 H 497.314 -0.845644 -5.00811 0
M  V30 4979 H 497.244 0.925786 -5.18398 0
M  V30 4980 H 499.735 0.263269 -3.76982 0
M  V30 4981 H 500.048 -0.0871487 -7.72751 0
M  V30 4982 H 498.393 -0.0714256 -6.94963 0
M  V30 4983 H 501.584 0.242006 -4.67474 0
M  V30 4984 H 501.757 0.0824413 -6.47948 0
M  V30 4985 N 495.163 1.55791 0.238111 0
M  V30 4986 C 496.579 1.48411 0.587045 0
M  V30 4987 C 496.779 0.72702 1.87927 0
M  V30 4988 O 495.835 0.259942 2.51158 0
M  V30 4989 C 497.148 2.92873 0.681623 0
M  V30 4990 C 498.696 3.03295 0.773363 0
M  V30 4991 C 499.171 4.49082 0.899428 0
M  V30 4992 N 500.662 4.53056 0.964075 0
M  V30 4993 C 501.397 5.63117 1.08104 0
M  V30 4994 N 500.893 6.82969 1.16299 0
M  V30 4995 N 502.686 5.50933 1.11488 0
M  V30 4996 H 494.837 2.0345 -0.610076 0
M  V30 4997 H 497.1 0.924034 -0.211813 0
M  V30 4998 H 496.806 3.51142 -0.19802 0
M  V30 4999 H 496.68 3.43851 1.55069 0
M  V30 5000 H 499.067 2.45101 1.64346 0
M  V30 5001 H 499.148 2.55513 -0.121034 0
M  V30 5002 H 498.792 5.07889 0.0338586 0
M  V30 5003 H 498.722 4.94553 1.809 0
M  V30 5004 H 501.213 3.66737 0.91173 0
M  V30 5005 H 501.526 7.62598 1.25155 0
M  V30 5006 H 499.871 6.85712 1.13241 0
M  V30 5007 H 503.062 4.56231 1.0474 0
M  V30 5008 H 503.235 6.36743 1.20259 0
M  V30 5009 N 496.642 -0.504142 1.49319 0
M  V30 5010 C 497.87 -1.28256 1.62351 0
M  V30 5011 C 498.285 -1.86502 0.293682 0
M  V30 5012 O 497.642 -1.67678 -0.720449 0
M  V30 5013 C 497.693 -2.41507 2.68992 0
M  V30 5014 O 497.414 -1.85656 3.96817 0
M  V30 5015 C 498.915 -3.32929 2.927 0
M  V30 5016 H 496.135 -0.389115 0.546654 0
M  V30 5017 H 498.679 -0.605531 1.95329 0
M  V30 5018 H 496.834 -3.05046 2.38801 0
M  V30 5019 H 497.248 -2.59981 4.55533 0
M  V30 5020 H 498.722 -4.0868 3.71058 0
M  V30 5021 H 499.199 -3.89733 2.02496 0
M  V30 5022 H 499.805 -2.75158 3.24296 0
M  V30 5023 N 498.12 -1.38341 -0.754957 0
M  V30 5024 C 499.366 -1.34672 -1.51628 0
M  V30 5025 C 499.699 0.0636036 -1.94096 0
M  V30 5026 O 498.974 1.0245 -1.6533 0
M  V30 5027 C 499.257 -2.30116 -2.76981 0
M  V30 5028 C 499.11 -3.80003 -2.4066 0
M  V30 5029 C 500.429 -2.23715 -3.78998 0
M  V30 5030 H 497.548 -0.490517 -0.550056 0
M  V30 5031 H 500.19 -1.69178 -0.864807 0
M  V30 5032 H 498.34 -2.00821 -3.3257 0
M  V30 5033 H 500.012 -4.19966 -1.90856 0
M  V30 5034 H 498.255 -3.97751 -1.73137 0
M  V30 5035 H 498.926 -4.42244 -3.30339 0
M  V30 5036 H 501.402 -2.49574 -3.32945 0
M  V30 5037 H 500.278 -2.9261 -4.64403 0
M  V30 5038 H 500.539 -1.23554 -4.24484 0
M  V30 5039 N 499.598 0.982988 -1.23187 0
M  V30 5040 C 500.875 1.69814 -0.970707 0
M  V30 5041 C 501.255 2.04811 0.511424 0
M  V30 5042 O 500.603 1.73924 1.48198 0
M  V30 5043 C 500.813 2.94143 -1.87831 0
M  V30 5044 C 502.161 3.66712 -2.14026 0
M  V30 5045 O 503.185 3.04171 -1.8536 0
M  V30 5046 O 502.044 4.79258 -2.62629 0
M  V30 5047 H 499.138 0.741659 -0.365884 0
M  V30 5048 H 501.684 1.03844 -1.34218 0
M  V30 5049 H 500.456 2.64858 -2.88038 0
M  V30 5050 H 500.079 3.6785 -1.50905 0
M  V30 5051 N 501.076 1.04316 1.18135 0
M  V30 5052 C 501.986 0.646876 2.25505 0
M  V30 5053 C 503.002 -0.328008 1.7088 0
M  V30 5054 O 504.178 -0.182309 2.00573 0
M  V30 5055 C 501.243 0.0185664 3.46695 0
M  V30 5056 C 500.304 1.04277 4.16443 0
M  V30 5057 C 499.537 0.444352 5.31847 0
M  V30 5058 O 499.76 -0.748735 5.65465 0
M  V30 5059 O 498.694 1.17428 5.90334 0
M  V30 5060 H 502.52 1.54147 2.61672 0
M  V30 5061 H 500.105 0.814188 1.25265 0
M  V30 5062 H 501.987 -0.331068 4.20097 0
M  V30 5063 H 500.662 -0.849814 3.12346 0
M  V30 5064 H 499.569 1.44425 3.45098 0
M  V30 5065 H 500.902 1.882 4.54798 0
M  V30 5066 N 502.554 -1.34406 0.822964 0
M  V30 5067 C 503.831 -1.92733 0.333641 0
M  V30 5068 C 504.211 -1.75107 -1.17901 0
M  V30 5069 O 503.559 -1.12983 -1.98613 0
M  V30 5070 C 503.769 -3.40557 0.763023 0
M  V30 5071 C 505.117 -4.17709 0.761879 0
M  V30 5072 O 506.141 -3.49141 0.705606 0
M  V30 5073 O 505 -5.40082 0.835109 0
M  V30 5074 H 502.094 -0.821964 0.0911249 0
M  V30 5075 H 504.64 -1.4338 0.907757 0
M  V30 5076 H 503.412 -3.47187 1.8049 0
M  V30 5077 H 503.035 -3.97259 0.164605 0
M  V30 5078 N 504.032 -0.577932 -1.46621 0
M  V30 5079 C 505.443 -0.150071 -1.86096 0
M  V30 5080 C 505.794 1.28563 -1.48209 0
M  V30 5081 O 504.919 1.97036 -0.894754 0
M  V30 5082 C 505.514 -0.265576 -3.37758 0
M  V30 5083 C 504.073 0.10738 -3.76247 0
M  V30 5084 C 503.22 -0.603711 -2.70649 0
M  V30 5085 H 506.171 -0.786438 -1.37844 0
M  V30 5086 H 506.192 0.510352 -3.77062 0
M  V30 5087 H 505.704 -1.3106 -3.65301 0
M  V30 5088 H 503.805 1.15272 -3.54321 0
M  V30 5089 H 503.918 -0.26561 -4.78363 0
M  V30 5090 H 502.282 -0.0444884 -2.54661 0
M  V30 5091 H 503.065 -1.65029 -3.01032 0
M  V30 5092 N 505.51 1.54411 -0.315457 0
M  V30 5093 C 506.787 1.92562 0.343398 0
M  V30 5094 C 507.167 1.24423 1.70535 0
M  V30 5095 O 506.515 0.385051 2.25232 0
M  V30 5096 C 506.725 3.46168 0.443687 0
M  V30 5097 C 508.073 4.18659 0.707783 0
M  V30 5098 O 509.097 3.52281 0.52693 0
M  V30 5099 O 507.956 5.36198 1.05612 0
M  V30 5100 H 505.05 0.80379 0.194552 0
M  V30 5101 H 507.596 1.65738 -0.364577 0
M  V30 5102 H 506.368 3.8792 -0.513172 0
M  V30 5103 H 505.991 3.79073 1.19956 0
M  V30 5104 N 506.988 0.0434614 1.5754 0
M  V30 5105 C 507.898 -0.94893 2.14552 0
M  V30 5106 C 508.914 -1.34707 1.10136 0
M  V30 5107 O 510.09 -1.42557 1.42266 0
M  V30 5108 C 507.155 -2.208 2.67298 0
M  V30 5109 C 506.216 -1.86893 3.86484 0
M  V30 5110 C 505.449 -3.06797 4.36705 0
M  V30 5111 O 505.672 -4.19921 3.86034 0
M  V30 5112 O 504.606 -2.8826 5.28384 0
M  V30 5113 H 508.432 -0.494099 2.99654 0
M  V30 5114 H 506.017 -0.177989 1.48336 0
M  V30 5115 H 507.899 -2.94686 3.01228 0
M  V30 5116 H 506.574 -2.65436 1.85272 0
M  V30 5117 H 505.481 -1.10347 3.57455 0
M  V30 5118 H 506.814 -1.47062 4.69716 0
M  V30 5119 N 508.466 -1.55915 -0.229846 0
M  V30 5120 C 509.882 -1.48721 -0.579166 0
M  V30 5121 C 510.082 -0.736976 -1.87539 0
M  V30 5122 O 509.138 -0.273258 -2.51017 0
M  V30 5123 C 510.451 -2.9323 -0.666082 0
M  V30 5124 C 511.999 -3.03701 -0.757267 0
M  V30 5125 C 512.474 -4.49552 -0.8756 0
M  V30 5126 N 513.965 -4.53561 -0.940035 0
M  V30 5127 C 514.7 -5.63683 -1.05116 0
M  V30 5128 N 514.196 -6.83576 -1.12675 0
M  V30 5129 N 515.989 -5.51516 -1.08565 0
M  V30 5130 H 508.14 -2.03123 0.620857 0
M  V30 5131 H 510.403 -0.922898 0.21671 0
M  V30 5132 H 510.109 -3.51032 0.21664 0
M  V30 5133 H 509.983 -3.44668 -1.53243 0
M  V30 5134 H 512.37 -2.45969 -1.63043 0
M  V30 5135 H 512.451 -2.55446 0.134583 0
M  V30 5136 H 512.095 -5.079 -0.00692351 0
M  V30 5137 H 512.025 -4.95506 -1.78274 0
M  V30 5138 H 514.516 -3.67215 -0.892269 0
M  V30 5139 H 514.829 -7.63251 -1.21109 0
M  V30 5140 H 513.174 -6.86303 -1.09603 0
M  V30 5141 H 516.365 -4.5678 -1.02319 0
M  V30 5142 H 516.538 -6.37372 -1.1688 0
M  V30 5143 N 509.944 0.496216 -1.49584 0
M  V30 5144 C 511.36 0.827814 -1.36453 0
M  V30 5145 C 511.56 1.97464 -0.401285 0
M  V30 5146 O 510.616 2.51958 0.165296 0
M  V30 5147 C 511.929 1.16352 -2.77277 0
M  V30 5148 C 513.477 1.27145 -2.86013 0
M  V30 5149 C 513.952 1.64042 -4.27615 0
M  V30 5150 N 515.443 1.71082 -4.30448 0
M  V30 5151 C 516.178 2.01085 -5.36984 0
M  V30 5152 N 515.674 2.2928 -6.5376 0
M  V30 5153 N 517.467 2.02376 -5.24405 0
M  V30 5154 H 509.618 -0.259947 -2.10803 0
M  V30 5155 H 511.881 -0.0537163 -0.946477 0
M  V30 5156 H 511.587 0.394153 -3.49484 0
M  V30 5157 H 511.461 2.10582 -3.12946 0
M  V30 5158 H 513.848 2.03152 -2.1404 0
M  V30 5159 H 513.929 0.309542 -2.5392 0
M  V30 5160 H 513.573 0.88583 -5.00115 0
M  V30 5161 H 513.503 2.6134 -4.57175 0
M  V30 5162 H 515.994 1.51434 -3.46232 0
M  V30 5163 H 516.307 2.51376 -7.30774 0
M  V30 5164 H 514.652 2.26726 -6.56978 0
M  V30 5165 H 517.843 1.79829 -4.32179 0
M  V30 5166 H 518.016 2.25425 -6.07526 0
M  V30 5167 N 511.423 1.38739 0.74761 0
M  V30 5168 C 512.355 1.32341 1.87132 0
M  V30 5169 C 513.368 0.234502 1.61102 0
M  V30 5170 O 514.557 0.492516 1.71571 0
M  V30 5171 C 511.657 1.02915 3.22896 0
M  V30 5172 C 510.83 2.22834 3.76383 0
M  V30 5173 C 509.889 1.90059 4.90677 0
M  V30 5174 O 508.915 2.62615 5.04997 0
M  V30 5175 N 510.117 0.859141 5.74107 0
M  V30 5176 H 512.882 2.29175 1.93129 0
M  V30 5177 H 510.443 1.32678 0.927805 0
M  V30 5178 H 512.435 0.79031 3.96908 0
M  V30 5179 H 511.005 0.148572 3.12247 0
M  V30 5180 H 510.225 2.62747 2.93867 0
M  V30 5181 H 511.513 3.02851 4.08851 0
M  V30 5182 H 510.911 0.257564 5.65113 0
M  V30 5183 H 509.468 0.680189 6.48241 0
M  V30 5184 N 512.901 -0.976442 1.23707 0
M  V30 5185 C 514.317 -1.24341 1.00058 0
M  V30 5186 C 514.517 -1.99315 -0.295932 0
M  V30 5187 O 513.573 -2.3123 -1.01435 0
M  V30 5188 C 514.886 -2.03909 2.21001 0
M  V30 5189 C 516.434 -2.17034 2.25534 0
M  V30 5190 C 516.909 -2.99994 3.46075 0
M  V30 5191 N 518.4 -3.07578 3.46338 0
M  V30 5192 C 519.135 -3.72104 4.36264 0
M  V30 5193 N 518.631 -4.3842 5.36432 0
M  V30 5194 N 520.424 -3.69029 4.23998 0
M  V30 5195 H 512.575 -0.47428 2.07037 0
M  V30 5196 H 514.838 -0.272167 0.908091 0
M  V30 5197 H 514.544 -1.56198 3.15111 0
M  V30 5198 H 514.418 -3.04654 2.22409 0
M  V30 5199 H 516.805 -2.63951 1.31961 0
M  V30 5200 H 516.886 -1.15664 2.28156 0
M  V30 5201 H 516.53 -2.53772 4.39957 0
M  V30 5202 H 516.46 -4.01541 3.40694 0
M  V30 5203 H 518.951 -2.60397 2.73865 0
M  V30 5204 H 519.264 -4.85447 6.013 0
M  V30 5205 H 517.609 -4.37116 5.40328 0
M  V30 5206 H 520.8 -3.16392 3.44984 0
M  V30 5207 H 520.973 -4.19034 4.94282 0
M  V30 5208 N 514.379 -1.04941 -1.1758 0
M  V30 5209 C 515.626 -0.757989 -1.87779 0
M  V30 5210 C 515.954 0.714827 -1.80888 0
M  V30 5211 O 515.209 1.53824 -1.20982 0
M  V30 5212 C 515.508 -1.18062 -3.37337 0
M  V30 5213 C 515.174 -2.65521 -3.6443 0
M  V30 5214 C 513.836 -3.05804 -3.71534 0
M  V30 5215 C 516.188 -3.60822 -3.76108 0
M  V30 5216 C 513.516 -4.40256 -3.87803 0
M  V30 5217 C 515.868 -4.95005 -3.93895 0
M  V30 5218 C 514.532 -5.34945 -3.99237 0
M  V30 5219 H 513.802 -0.277368 -0.68713 0
M  V30 5220 H 516.449 -1.31603 -1.39115 0
M  V30 5221 H 514.754 -0.541525 -3.8804 0
M  V30 5222 H 516.451 -0.932368 -3.9001 0
M  V30 5223 H 513.041 -2.33324 -3.59524 0
M  V30 5224 H 517.225 -3.30841 -3.69943 0
M  V30 5225 H 512.481 -4.70707 -3.90186 0
M  V30 5226 H 516.655 -5.68746 -4.01872 0
M  V30 5227 H 514.282 -6.39135 -4.11596 0
M  V30 5228 N 515.857 1.33968 -0.830081 0
M  V30 5229 C 516.787 2.31911 -0.271911 0
M  V30 5230 C 517.768 1.58571 0.61556 0
M  V30 5231 O 518.953 1.86514 0.540946 0
M  V30 5232 C 516.083 3.42737 0.561146 0
M  V30 5233 C 515.037 4.27383 -0.229789 0
M  V30 5234 C 514.363 5.29742 0.726463 0
M  V30 5235 C 515.663 5.02 -1.44197 0
M  V30 5236 H 517.357 2.78844 -1.09025 0
M  V30 5237 H 514.903 1.34061 -0.52571 0
M  V30 5238 H 516.856 4.10276 0.961867 0
M  V30 5239 H 515.58 2.94471 1.41261 0
M  V30 5240 H 514.239 3.61456 -0.611964 0
M  V30 5241 H 513.887 4.77736 1.57408 0
M  V30 5242 H 513.587 5.87255 0.20142 0
M  V30 5243 H 515.111 6.00149 1.12489 0
M  V30 5244 H 516.525 5.62355 -1.11488 0
M  V30 5245 H 514.922 5.69122 -1.90317 0
M  V30 5246 H 515.992 4.31281 -2.2164 0
M  V30 5247 N 517.335 0.585699 1.46312 0
M  V30 5248 C 518.245 -0.148236 2.34131 0
M  V30 5249 C 519.261 -0.882972 1.49932 0
M  V30 5250 O 520.437 -0.845484 1.82794 0
M  V30 5251 C 517.502 -1.14714 3.27172 0
M  V30 5252 C 516.563 -0.416746 4.27272 0
M  V30 5253 C 515.796 -1.36806 5.15868 0
M  V30 5254 O 516.019 -2.60475 5.07454 0
M  V30 5255 O 514.953 -0.877018 5.95476 0
M  V30 5256 H 518.779 0.572882 2.98248 0
M  V30 5257 H 516.364 0.346082 1.45336 0
M  V30 5258 H 518.246 -1.72303 3.84564 0
M  V30 5259 H 516.921 -1.84967 2.65648 0
M  V30 5260 H 515.828 0.201061 3.73559 0
M  V30 5261 H 517.161 0.244872 4.9159 0
M  V30 5262 N 518.813 -1.54241 0.323641 0
M  V30 5263 C 520.229 -1.59574 -0.0290018 0
M  V30 5264 C 520.429 -1.34017 -1.50472 0
M  V30 5265 O 519.485 -1.12464 -2.26071 0
M  V30 5266 C 520.798 -2.98169 0.389295 0
M  V30 5267 C 522.346 -3.11148 0.339958 0
M  V30 5268 C 522.821 -4.5209 0.733418 0
M  V30 5269 N 524.312 -4.5808 0.686827 0
M  V30 5270 C 525.047 -5.65248 0.963464 0
M  V30 5271 N 524.543 -6.80355 1.30724 0
M  V30 5272 N 526.336 -5.55025 0.88902 0
M  V30 5273 H 518.487 -1.6911 1.28512 0
M  V30 5274 H 520.75 -0.790972 0.522558 0
M  V30 5275 H 520.456 -3.21871 1.41746 0
M  V30 5276 H 520.33 -3.76399 -0.245657 0
M  V30 5277 H 522.717 -2.87182 -0.679002 0
M  V30 5278 H 522.798 -2.35023 1.00985 0
M  V30 5279 H 522.442 -4.76788 1.75029 0
M  V30 5280 H 522.372 -5.26584 0.0412189 0
M  V30 5281 H 524.863 -3.75411 0.43298 0
M  V30 5282 H 525.176 -7.58029 1.5037 0
M  V30 5283 H 523.521 -6.81851 1.3455 0
M  V30 5284 H 526.712 -4.63977 0.619939 0
M  V30 5285 H 526.885 -6.38458 1.10797 0
M  V30 5286 N 520.291 -0.0518155 -1.57515 0
M  V30 5287 C 521.239 0.940195 -2.12751 0
M  V30 5288 C 522.233 1.3218 -1.05948 0
M  V30 5289 O 523.439 1.30138 -1.24355 0
M  V30 5290 H 519.814 0.321066 -0.680015 0
M  V30 5291 H 521.785 0.449217 -2.94999 0
M  V30 5292 C 520.534 2.2055 -2.68799 0
M  V30 5293 H 519.857 1.92066 -3.50643 0
M  V30 5294 H 521.297 2.88119 -3.11068 0
M  V30 5295 C 519.756 2.95061 -1.62605 0
M  V30 5296 O 520.286 3.88025 -1.03921 0
M  V30 5297 N 518.492 2.57804 -1.34111 0
M  V30 5298 H 518.039 1.82281 -1.8202 0
M  V30 5299 H 517.997 3.07964 -0.632872 0
M  V30 5300 N 521.769 1.56035 0.221574 0
M  V30 5301 C 523.185 1.49026 0.571271 0
M  V30 5302 C 523.385 0.746912 1.87146 0
M  V30 5303 O 522.441 0.286566 2.50869 0
M  V30 5304 C 523.754 2.93579 0.650522 0
M  V30 5305 C 525.302 3.04099 0.741151 0
M  V30 5306 C 525.777 4.5001 0.851747 0
M  V30 5307 N 527.268 4.54053 0.915968 0
M  V30 5308 C 528.003 5.64232 1.02125 0
M  V30 5309 N 527.499 6.84164 1.09049 0
M  V30 5310 N 529.292 5.52084 1.05639 0
M  V30 5311 H 521.443 2.02791 -0.63162 0
M  V30 5312 H 523.706 0.921736 -0.221602 0
M  V30 5313 H 523.412 3.50912 -0.235253 0
M  V30 5314 H 523.286 3.45476 1.51413 0
M  V30 5315 H 525.673 2.4683 1.61737 0
M  V30 5316 H 525.754 2.55371 -0.148128 0
M  V30 5317 H 525.398 5.07896 -0.0200117 0
M  V30 5318 H 525.328 4.96444 1.75644 0
M  V30 5319 H 527.819 3.67683 0.872782 0
M  V30 5320 H 528.132 7.63883 1.1706 0
M  V30 5321 H 526.477 6.86875 1.05962 0
M  V30 5322 H 529.668 4.57317 0.998953 0
M  V30 5323 H 529.841 6.37983 1.13498 0
M  V30 5324 N 523.247 -0.488276 1.49845 0
M  V30 5325 C 524.21 -1.57069 1.66919 0
M  V30 5326 C 525.21 -1.51445 0.540479 0
M  V30 5327 O 526.4 -1.5437 0.807188 0
M  V30 5328 C 523.532 -2.96718 1.67844 0
M  V30 5329 H 524.725 -1.43254 2.63474 0
M  V30 5330 H 522.278 -0.713435 1.39068 0
M  V30 5331 H 523.013 -3.15996 0.7292 0
M  V30 5332 H 522.798 -3.02208 2.49826 0
M  V30 5333 H 524.288 -3.75335 1.83066 0
M  V30 5334 N 524.725 -1.39134 -0.740242 0
M  V30 5335 C 525.688 -1.37217 -1.83587 0
M  V30 5336 C 526.688 -0.270221 -1.58513 0
M  V30 5337 O 527.878 -0.527843 -1.6601 0
M  V30 5338 C 525.01 -1.13959 -3.21288 0
M  V30 5339 H 526.203 -2.34705 -1.86691 0
M  V30 5340 H 523.756 -1.24622 -0.94335 0
M  V30 5341 H 524.491 -0.17131 -3.23847 0
M  V30 5342 H 524.276 -1.93754 -3.40884 0
M  V30 5343 H 525.766 -1.15346 -4.01354 0
M  V30 5344 N 526.204 0.969867 -1.24223 0
M  V30 5345 C 527.167 2.04564 -1.03373 0
M  V30 5346 C 528.167 1.60798 0.00819206 0
M  V30 5347 O 529.357 1.72641 -0.232567 0
M  V30 5348 C 526.489 3.36163 -0.566343 0
M  V30 5349 H 527.682 2.24494 -1.98853 0
M  V30 5350 H 525.235 1.1448 -1.06415 0
M  V30 5351 H 525.97 3.21925 0.391751 0
M  V30 5352 H 525.755 3.69273 -1.31834 0
M  V30 5353 H 527.245 4.1526 -0.441435 0
M  V30 5354 N 527.682 1.05563 1.17022 0
M  V30 5355 C 528.907 0.788437 1.91829 0
M  V30 5356 C 529.332 -0.650356 1.76499 0
M  V30 5357 O 528.69 -1.45229 1.08527 0
M  V30 5358 C 528.738 1.1786 3.40795 0
M  V30 5359 O 527.842 0.312965 4.11211 0
M  V30 5360 H 527.183 0.288794 0.597908 0
M  V30 5361 H 529.713 1.40948 1.48307 0
M  V30 5362 H 529.723 1.14697 3.91546 0
M  V30 5363 H 528.398 2.22666 3.51273 0
M  V30 5364 H 526.975 0.405515 3.70689 0
M  V30 5365 N 529.16 -1.33526 0.837174 0
M  V30 5366 C 530.576 -1.50727 0.524743 0
M  V30 5367 C 530.776 -1.77792 -0.948279 0
M  V30 5368 O 529.832 -1.83719 -1.73216 0
M  V30 5369 C 531.145 -2.66299 1.39661 0
M  V30 5370 C 532.693 -2.80183 1.39521 0
M  V30 5371 C 533.168 -3.98815 2.25189 0
M  V30 5372 N 534.659 -4.06047 2.2289 0
M  V30 5373 C 535.394 -4.97032 2.85915 0
M  V30 5374 N 534.89 -5.93143 3.57985 0
M  V30 5375 N 536.683 -4.90015 2.75394 0
M  V30 5376 H 528.834 -1.1422 1.79074 0
M  V30 5377 H 531.097 -0.561399 0.763894 0
M  V30 5378 H 530.803 -2.52974 2.4433 0
M  V30 5379 H 530.677 -3.61663 1.07145 0
M  V30 5380 H 533.064 -2.92942 0.356253 0
M  V30 5381 H 533.145 -1.85586 1.76044 0
M  V30 5382 H 532.789 -3.86817 3.29143 0
M  V30 5383 H 532.719 -4.92654 1.86009 0
M  V30 5384 H 535.21 -3.37262 1.70478 0
M  V30 5385 H 535.523 -6.59227 4.03286 0
M  V30 5386 H 533.868 -5.93223 3.62093 0
M  V30 5387 H 537.059 -4.13894 2.18654 0
M  V30 5388 H 537.232 -5.60724 3.24796 0
M  V30 5389 N 530.638 -0.59345 -1.46 0
M  V30 5390 C 531.878 -0.0859747 -2.04219 0
M  V30 5391 C 532.242 1.25432 -1.45364 0
M  V30 5392 O 533.443 1.85168 -1.9485 0
M  V30 5393 C 531.714 -0.0324314 -3.57385 0
M  V30 5394 S 533.273 0.415908 -4.36824 0
M  V30 5395 H 530.091 -0.0426872 -0.709717 0
M  V30 5396 H 532.693 -0.788369 -1.78899 0
M  V30 5397 H 531.397 -1.01166 -3.97735 0
M  V30 5398 H 530.928 0.6924 -3.87259 0
M  V30 5399 H 532.943 1.66844 -4.67309 0
M  V30 5400 N 532.116 1.54067 -0.331816 0
M  V30 5401 C 533.532 1.59587 0.0205388 0
M  V30 5402 C 533.732 1.34813 1.49759 0
M  V30 5403 O 532.788 1.13661 2.25471 0
M  V30 5404 C 534.101 2.97959 -0.405103 0
M  V30 5405 C 535.649 3.10964 -0.356454 0
M  V30 5406 C 536.124 4.51694 -0.757384 0
M  V30 5407 N 537.615 4.57709 -0.71111 0
M  V30 5408 C 538.35 5.64729 -0.993427 0
M  V30 5409 N 537.846 6.79652 -1.3433 0
M  V30 5410 N 539.639 5.54546 -0.918442 0
M  V30 5411 H 531.79 1.68426 -1.29407 0
M  V30 5412 H 534.053 0.78819 -0.526745 0
M  V30 5413 H 533.759 3.21115 -1.43451 0
M  V30 5414 H 533.633 3.76524 0.225692 0
M  V30 5415 H 536.02 2.87538 0.663763 0
M  V30 5416 H 536.101 2.34484 -1.02229 0
M  V30 5417 H 535.745 4.75853 -1.77555 0
M  V30 5418 H 535.675 5.26555 -0.0691444 0
M  V30 5419 H 538.166 3.75176 -0.452883 0
M  V30 5420 H 538.479 7.57221 -1.54388 0
M  V30 5421 H 536.824 6.81128 -1.38164 0
M  V30 5422 H 540.015 4.63641 -0.644536 0
M  V30 5423 H 540.188 6.37861 -1.14181 0
M  V30 5424 N 533.594 0.0601682 1.57485 0
M  V30 5425 C 534.526 -0.94047 2.09016 0
M  V30 5426 C 535.539 -1.26897 1.01985 0
M  V30 5427 O 536.728 -1.22819 1.29529 0
M  V30 5428 C 533.828 -2.25955 2.52582 0
M  V30 5429 C 533.001 -2.11163 3.83052 0
M  V30 5430 C 532.06 -3.26273 4.12835 0
M  V30 5431 O 531.086 -3.01779 4.82616 0
M  V30 5432 N 532.288 -4.51022 3.65458 0
M  V30 5433 H 535.053 -0.500578 2.9549 0
M  V30 5434 H 532.614 -0.125852 1.6141 0
M  V30 5435 H 534.606 -3.01846 2.69575 0
M  V30 5436 H 533.176 -2.61481 1.71308 0
M  V30 5437 H 532.396 -1.19808 3.75552 0
M  V30 5438 H 533.684 -1.98517 4.68475 0
M  V30 5439 H 533.082 -4.73811 3.09062 0
M  V30 5440 H 531.639 -5.23978 3.87673 0
M  V30 5441 N 535.072 -1.5615 -0.213296 0
M  V30 5442 C 536.019 -1.93086 -1.26437 0
M  V30 5443 C 536.989 -0.789086 -1.4616 0
M  V30 5444 O 538.174 -1.04569 -1.59593 0
M  V30 5445 C 535.314 -2.26003 -2.608 0
M  V30 5446 C 534.427 -3.53156 -2.48807 0
M  V30 5447 C 533.562 -3.7548 -3.7575 0
M  V30 5448 C 532.601 -4.96119 -3.58514 0
M  V30 5449 N 531.738 -5.14791 -4.77425 0
M  V30 5450 H 536.578 -2.82707 -0.942376 0
M  V30 5451 H 534.115 -1.39919 -0.454001 0
M  V30 5452 H 536.073 -2.431 -3.39055 0
M  V30 5453 H 534.703 -1.39546 -2.91079 0
M  V30 5454 H 533.755 -3.44207 -1.61944 0
M  V30 5455 H 535.067 -4.41565 -2.31996 0
M  V30 5456 H 534.221 -3.92718 -4.62447 0
M  V30 5457 H 532.96 -2.85368 -3.95495 0
M  V30 5458 H 531.965 -4.78823 -2.70201 0
M  V30 5459 H 533.19 -5.87724 -3.40231 0
M  V30 5460 H 531.136 -4.27623 -4.97468 0
M  V30 5461 H 531.053 -5.97347 -4.63371 0
M  V30 5462 H 532.321 -5.36471 -5.65525 0
M  V30 5463 N 536.55 0.480323 -1.50102 0
M  V30 5464 C 537.966 0.813295 -1.37323 0
M  V30 5465 C 538.166 1.97027 -0.422206 0
M  V30 5466 O 537.222 2.5212 0.138563 0
M  V30 5467 C 538.535 1.13404 -2.78496 0
M  V30 5468 C 540.083 1.24104 -2.87345 0
M  V30 5469 C 540.558 1.59497 -4.29331 0
M  V30 5470 N 542.049 1.66507 -4.32238 0
M  V30 5471 C 542.784 1.95378 -5.39087 0
M  V30 5472 N 542.28 2.22333 -6.56155 0
M  V30 5473 N 544.073 1.96803 -5.26522 0
M  V30 5474 H 536.224 -0.282291 -2.10516 0
M  V30 5475 H 538.487 -0.063752 -0.945854 0
M  V30 5476 H 538.193 0.357064 -3.49883 0
M  V30 5477 H 538.067 2.07251 -3.15162 0
M  V30 5478 H 540.454 2.00871 -2.16183 0
M  V30 5479 H 540.535 0.282593 -2.54234 0
M  V30 5480 H 540.179 0.832736 -5.01027 0
M  V30 5481 H 540.109 2.56477 -4.59921 0
M  V30 5482 H 542.6 1.47753 -3.47818 0
M  V30 5483 H 542.913 2.43611 -7.33399 0
M  V30 5484 H 541.258 2.19745 -6.59346 0
M  V30 5485 H 544.449 1.75235 -4.34062 0
M  V30 5486 H 544.622 2.18969 -6.09883 0
M  V30 5487 N 538.028 1.39524 0.732853 0
M  V30 5488 C 538.975 1.38416 1.84688 0
M  V30 5489 C 539.945 0.243539 1.64305 0
M  V30 5490 O 541.13 0.438979 1.85681 0
M  V30 5491 C 538.27 1.23555 3.22224 0
M  V30 5492 C 537.383 2.47179 3.54298 0
M  V30 5493 C 536.518 2.2489 4.81246 0
M  V30 5494 C 535.557 3.44178 5.0617 0
M  V30 5495 N 534.694 3.21192 6.24323 0
M  V30 5496 H 539.534 2.33645 1.84971 0
M  V30 5497 H 537.071 1.16059 0.903804 0
M  V30 5498 H 539.029 1.12949 4.0162 0
M  V30 5499 H 537.659 0.31954 3.21215 0
M  V30 5500 H 536.711 2.68379 2.69587 0
M  V30 5501 H 538.023 3.36022 3.68633 0
M  V30 5502 H 537.177 2.11538 5.68627 0
M  V30 5503 H 535.916 1.33443 4.69089 0
M  V30 5504 H 534.921 3.58025 4.17251 0
M  V30 5505 H 536.146 4.36528 5.20212 0
M  V30 5506 H 534.092 2.32413 6.1345 0
M  V30 5507 H 534.009 4.03594 6.39256 0
M  V30 5508 H 535.277 3.1154 7.14537 0
M  V30 5509 N 539.506 -0.963266 1.24736 0
M  V30 5510 C 540.436 -2.07628 1.06832 0
M  V30 5511 C 541.417 -1.70088 -0.0200566 0
M  V30 5512 O 542.602 -1.93636 0.147854 0
M  V30 5513 C 539.732 -3.40636 0.677069 0
M  V30 5514 C 538.686 -3.9215 1.71471 0
M  V30 5515 C 538.012 -5.21553 1.1784 0
M  V30 5516 C 539.312 -4.19493 3.11164 0
M  V30 5517 H 541.006 -2.22864 1.9993 0
M  V30 5518 H 538.552 -1.07093 0.96266 0
M  V30 5519 H 540.505 -4.17941 0.538792 0
M  V30 5520 H 539.229 -3.25313 -0.289612 0
M  V30 5521 H 537.888 -3.17005 1.84128 0
M  V30 5522 H 537.536 -5.02593 0.202195 0
M  V30 5523 H 537.236 -5.56988 1.87185 0
M  V30 5524 H 538.76 -6.01463 1.05233 0
M  V30 5525 H 540.174 -4.87487 3.01711 0
M  V30 5526 H 538.571 -4.66165 3.77902 0
M  V30 5527 H 539.641 -3.26097 3.58871 0
M  V30 5528 N 540.985 -1.06182 -1.16461 0
M  V30 5529 C 542.231 -0.788825 -1.87481 0
M  V30 5530 C 542.586 0.677298 -1.80085 0
M  V30 5531 O 541.879 1.48976 -1.20486 0
M  V30 5532 C 542.073 -1.21633 -3.36066 0
M  V30 5533 C 541.902 -2.72247 -3.57927 0
M  V30 5534 C 540.672 -3.39696 -3.74079 0
M  V30 5535 C 542.87 -3.70461 -3.56739 0
M  V30 5536 N 540.852 -4.79072 -3.83879 0
M  V30 5537 C 542.223 -4.95616 -3.72511 0
M  V30 5538 C 544.278 -3.63788 -3.39945 0
M  V30 5539 C 542.981 -6.14895 -3.73225 0
M  V30 5540 C 545.007 -4.82517 -3.41953 0
M  V30 5541 C 544.369 -6.065 -3.58242 0
M  V30 5542 H 540.468 -0.341034 -0.703719 0
M  V30 5543 H 543.052 -1.35575 -1.39741 0
M  V30 5544 H 541.223 -0.67725 -3.8245 0
M  V30 5545 H 542.955 -0.892119 -3.94745 0
M  V30 5546 H 539.71 -2.90097 -3.74354 0
M  V30 5547 H 540.134 -5.51573 -3.92551 0
M  V30 5548 H 544.776 -2.68888 -3.26281 0
M  V30 5549 H 542.494 -7.10129 -3.85672 0
M  V30 5550 H 546.08 -4.79017 -3.30203 0
M  V30 5551 H 544.96 -6.96833 -3.59712 0
M  V30 5552 N 542.463 1.3308 -0.844243 0
M  V30 5553 C 543.709 1.97898 -0.443206 0
M  V30 5554 C 544.042 1.66699 0.99625 0
M  V30 5555 O 543.317 0.949704 1.69738 0
M  V30 5556 C 543.6 3.53801 -0.670606 0
M  V30 5557 C 543.453 3.94667 -2.15772 0
M  V30 5558 C 544.772 4.39936 -0.120226 0
M  V30 5559 H 541.891 0.718861 -0.162504 0
M  V30 5560 H 544.533 1.57633 -1.06075 0
M  V30 5561 H 542.683 3.88229 -0.14496 0
M  V30 5562 H 544.355 3.70469 -2.74865 0
M  V30 5563 H 542.598 3.44203 -2.6402 0
M  V30 5564 H 543.269 5.03275 -2.26757 0
M  V30 5565 H 545.745 4.12183 -0.5696 0
M  V30 5566 H 544.621 5.4803 -0.308984 0
M  V30 5567 H 544.882 4.31184 0.976347 0
M  V30 5568 N 543.941 0.601185 1.45683 0
M  V30 5569 C 545.166 0.0982245 2.07167 0
M  V30 5570 C 545.591 -1.20546 1.44396 0
M  V30 5571 O 544.949 -1.73247 0.534347 0
M  V30 5572 C 544.997 -0.0346976 3.60583 0
M  V30 5573 O 544.101 -1.08657 3.97828 0
M  V30 5574 H 543.442 0.0711618 0.660176 0
M  V30 5575 H 545.972 0.829376 1.87036 0
M  V30 5576 H 545.982 -0.234969 4.07323 0
M  V30 5577 H 544.657 0.917265 4.05659 0
M  V30 5578 H 543.234 -0.863275 3.6277 0
M  V30 5579 N 545.419 -1.53889 0.339982 0
M  V30 5580 C 546.644 -2.05741 -0.261798 0
M  V30 5581 C 547.069 -1.21354 -1.43718 0
M  V30 5582 O 546.427 -0.22645 -1.7988 0
M  V30 5583 C 546.475 -3.54542 -0.658228 0
M  V30 5584 O 545.579 -3.7302 -1.75869 0
M  V30 5585 H 544.92 -0.662529 -0.0441672 0
M  V30 5586 H 547.45 -1.98568 0.493161 0
M  V30 5587 H 547.46 -3.9711 -0.936368 0
M  V30 5588 H 546.135 -4.15412 0.201358 0
M  V30 5589 H 544.712 -3.42355 -1.47809 0
M  V30 5590 N 546.897 -0.0685191 -1.57451 0
M  V30 5591 C 547.827 0.89747 -2.15564 0
M  V30 5592 C 548.808 1.31266 -1.08181 0
M  V30 5593 O 549.993 1.38429 -1.36202 0
M  V30 5594 C 547.123 2.16623 -2.71463 0
M  V30 5595 C 546.077 1.89054 -3.83982 0
M  V30 5596 C 545.403 3.22532 -4.26471 0
M  V30 5597 C 546.703 1.1984 -5.08366 0
M  V30 5598 H 548.397 0.413373 -2.96533 0
M  V30 5599 H 545.943 0.197391 -1.42641 0
M  V30 5600 H 547.896 2.84614 -3.10761 0
M  V30 5601 H 546.62 2.67269 -1.8771 0
M  V30 5602 H 545.279 1.23469 -3.45183 0
M  V30 5603 H 544.927 3.71013 -3.39644 0
M  V30 5604 H 544.627 3.04879 -5.02317 0
M  V30 5605 H 546.151 3.91727 -4.68383 0
M  V30 5606 H 547.565 1.77896 -5.45001 0
M  V30 5607 H 545.962 1.12456 -5.89469 0
M  V30 5608 H 547.032 0.176996 -4.84577 0
M  V30 5609 N 548.375 1.56261 0.205012 0
M  V30 5610 C 549.285 1.96944 1.27476 0
M  V30 5611 C 550.301 0.875636 1.50362 0
M  V30 5612 O 551.477 1.18058 1.6317 0
M  V30 5613 C 548.542 2.29219 2.60115 0
M  V30 5614 C 547.603 3.52255 2.45387 0
M  V30 5615 C 546.836 3.8298 3.71701 0
M  V30 5616 O 547.059 3.15138 4.75441 0
M  V30 5617 O 545.993 4.76435 3.67823 0
M  V30 5618 H 549.819 2.88144 0.959527 0
M  V30 5619 H 547.404 1.43686 0.409217 0
M  V30 5620 H 549.286 2.51098 3.3842 0
M  V30 5621 H 547.961 1.4119 2.91285 0
M  V30 5622 H 546.868 3.35635 1.65227 0
M  V30 5623 H 548.201 4.40719 2.19152 0
M  V30 5624 N 549.853 -0.472356 1.50355 0
M  V30 5625 C 550.8 -1.57051 1.69126 0
M  V30 5626 C 551.77 -1.5733 0.532574 0
M  V30 5627 O 552.955 -1.7488 0.762994 0
M  V30 5628 C 550.095 -2.95033 1.79024 0
M  V30 5629 C 549.208 -3.04552 3.06386 0
M  V30 5630 C 548.343 -4.33441 3.07087 0
M  V30 5631 C 547.382 -4.36697 4.28908 0
M  V30 5632 N 546.519 -5.57056 4.27356 0
M  V30 5633 H 551.359 -1.40351 2.62879 0
M  V30 5634 H 548.896 -0.682403 1.30314 0
M  V30 5635 H 550.854 -3.75048 1.82744 0
M  V30 5636 H 549.484 -3.10371 0.887109 0
M  V30 5637 H 548.536 -2.17419 3.12143 0
M  V30 5638 H 549.848 -3.02818 3.96362 0
M  V30 5639 H 549.002 -5.21801 3.09529 0
M  V30 5640 H 547.741 -4.37782 2.14939 0
M  V30 5641 H 546.746 -3.46734 4.2668 0
M  V30 5642 H 547.971 -4.34049 5.22282 0
M  V30 5643 H 545.917 -5.62184 3.3806 0
M  V30 5644 H 545.834 -5.57058 5.111 0
M  V30 5645 H 547.102 -6.47545 4.33942 0
M  V30 5646 N 551.331 -1.39911 -0.725443 0
M  V30 5647 C 552.278 -1.39393 -1.83952 0
M  V30 5648 C 553.248 -0.252249 -1.64173 0
M  V30 5649 O 554.433 -0.44882 -1.85446 0
M  V30 5650 C 551.573 -1.25262 -3.21564 0
M  V30 5651 C 550.686 -2.49054 -3.52982 0
M  V30 5652 C 549.821 -2.27439 -4.80047 0
M  V30 5653 C 548.86 -3.46857 -5.04338 0
M  V30 5654 N 547.997 -3.24499 -6.22611 0
M  V30 5655 H 552.837 -2.34622 -1.83729 0
M  V30 5656 H 550.374 -1.16537 -0.897636 0
M  V30 5657 H 552.332 -1.15077 -4.01015 0
M  V30 5658 H 550.962 -0.33657 -3.21041 0
M  V30 5659 H 550.014 -2.69805 -2.6816 0
M  V30 5660 H 551.326 -3.37973 -3.66846 0
M  V30 5661 H 550.48 -2.14551 -5.67497 0
M  V30 5662 H 549.219 -1.35929 -4.68374 0
M  V30 5663 H 548.224 -3.60232 -4.15346 0
M  V30 5664 H 549.449 -4.3928 -5.17889 0
M  V30 5665 H 547.395 -2.35663 -6.12208 0
M  V30 5666 H 547.312 -4.06978 -6.37106 0
M  V30 5667 H 548.58 -3.15325 -7.12875 0
M  V30 5668 N 552.809 0.956637 -1.25245 0
M  V30 5669 C 553.772 2.03457 -1.05537 0
M  V30 5670 C 554.772 1.60798 -0.00886317 0
M  V30 5671 O 555.962 1.72384 -0.250865 0
M  V30 5672 C 553.094 3.35543 -0.601965 0
M  V30 5673 H 554.287 2.22372 -2.01223 0
M  V30 5674 H 551.84 1.13344 -1.07623 0
M  V30 5675 H 552.575 3.22323 0.357584 0
M  V30 5676 H 552.36 3.67854 -1.35743 0
M  V30 5677 H 553.85 4.14769 -0.485454 0
M  V30 5678 N 554.287 1.06798 1.15896 0
M  V30 5679 C 555.197 0.694564 2.24083 0
M  V30 5680 C 556.213 -0.291687 1.71538 0
M  V30 5681 O 557.389 -0.139723 2.00915 0
M  V30 5682 C 554.454 0.0921014 3.46578 0
M  V30 5683 C 553.515 1.13087 4.14137 0
M  V30 5684 C 552.748 0.557064 5.30785 0
M  V30 5685 O 552.971 -0.628623 5.66925 0
M  V30 5686 O 551.905 1.29924 5.8771 0
M  V30 5687 H 555.731 1.59663 2.58344 0
M  V30 5688 H 553.316 0.840575 1.2351 0
M  V30 5689 H 555.198 -0.241884 4.20705 0
M  V30 5690 H 553.873 -0.78337 3.14078 0
M  V30 5691 H 552.78 1.51712 3.41957 0
M  V30 5692 H 554.113 1.97805 4.50704 0
M  V30 5693 N 555.766 -1.3263 0.851289 0
M  V30 5694 C 556.676 -2.32722 0.296268 0
M  V30 5695 C 557.692 -1.63901 -0.584162 0
M  V30 5696 O 558.868 -1.95465 -0.485334 0
M  V30 5697 C 555.933 -3.42942 -0.509103 0
M  V30 5698 C 554.994 -4.2746 0.397069 0
M  V30 5699 C 554.227 -5.32416 -0.36996 0
M  V30 5700 O 554.45 -5.47491 -1.6003 0
M  V30 5701 O 553.384 -6.01327 0.262493 0
M  V30 5702 H 557.21 -2.82078 1.12543 0
M  V30 5703 H 554.795 -1.36194 0.614135 0
M  V30 5704 H 556.677 -4.1017 -0.96634 0
M  V30 5705 H 555.352 -2.95781 -1.31512 0
M  V30 5706 H 554.259 -3.63053 0.902411 0
M  V30 5707 H 555.592 -4.78136 1.16818 0
M  V30 5708 N 557.244 -0.608902 -1.45362 0
M  V30 5709 C 558.174 0.0964526 -2.33301 0
M  V30 5710 C 559.155 0.857444 -1.46908 0
M  V30 5711 O 560.34 0.827735 -1.75676 0
M  V30 5712 C 557.47 1.09354 -3.29635 0
M  V30 5713 C 556.424 0.445676 -4.25673 0
M  V30 5714 C 555.75 1.5511 -5.11708 0
M  V30 5715 C 557.05 -0.633972 -5.18438 0
M  V30 5716 H 558.744 -0.637829 -2.92527 0
M  V30 5717 H 556.29 -0.308178 -1.40664 0
M  V30 5718 H 558.243 1.59556 -3.90025 0
M  V30 5719 H 556.967 1.85843 -2.6857 0
M  V30 5720 H 555.626 -0.0354897 -3.66583 0
M  V30 5721 H 555.274 2.30631 -4.4701 0
M  V30 5722 H 554.974 1.12311 -5.76767 0
M  V30 5723 H 556.498 2.05537 -5.74967 0
M  V30 5724 H 557.912 -0.215974 -5.72893 0
M  V30 5725 H 556.309 -0.983789 -5.91981 0
M  V30 5726 H 557.379 -1.51005 -4.60788 0
M  V30 5727 N 558.722 1.53707 -0.348139 0
M  V30 5728 C 559.95 2.05406 0.248224 0
M  V30 5729 C 560.365 1.22282 1.43849 0
M  V30 5730 O 559.722 0.259244 1.80649 0
M  V30 5731 C 559.773 3.55446 0.658793 0
M  V30 5732 O 559.494 4.35417 -0.484149 0
M  V30 5733 C 560.995 4.23335 1.31539 0
M  V30 5734 H 558.215 0.669344 0.0471075 0
M  V30 5735 H 560.759 1.98257 -0.501456 0
M  V30 5736 H 558.914 3.62803 1.35841 0
M  V30 5737 H 559.328 5.24268 -0.155949 0
M  V30 5738 H 560.802 5.29692 1.55338 0
M  V30 5739 H 561.279 3.75967 2.27036 0
M  V30 5740 H 561.885 4.20184 0.657683 0
M  V30 5741 N 560.2 0.0768682 1.57412 0
M  V30 5742 C 561.425 -0.603404 1.98428 0
M  V30 5743 C 561.85 -1.62047 0.955108 0
M  V30 5744 O 561.208 -1.81129 -0.0786778 0
M  V30 5745 C 561.256 -1.24396 3.38464 0
M  V30 5746 O 560.36 -2.35982 3.3821 0
M  V30 5747 H 559.701 -0.154741 0.645718 0
M  V30 5748 H 562.231 0.152885 2.04028 0
M  V30 5749 H 562.241 -1.5896 3.7576 0
M  V30 5750 H 560.916 -0.498735 4.12899 0
M  V30 5751 H 559.493 -2.03173 3.1269 0
M  V30 5752 N 561.678 -1.56367 -0.196722 0
M  V30 5753 C 562.61 -1.90941 -1.26784 0
M  V30 5754 C 563.623 -0.799928 -1.41792 0
M  V30 5755 O 564.812 -1.07833 -1.42247 0
M  V30 5756 C 561.912 -2.12477 -2.6402 0
M  V30 5757 C 561.085 -3.43616 -2.70641 0
M  V30 5758 C 560.144 -3.54284 -3.89062 0
M  V30 5759 O 559.17 -4.2712 -3.76241 0
M  V30 5760 N 560.372 -2.87252 -5.04447 0
M  V30 5761 H 563.137 -2.83417 -0.974417 0
M  V30 5762 H 560.698 -1.57215 -0.386649 0
M  V30 5763 H 562.69 -2.16904 -3.41665 0
M  V30 5764 H 561.26 -1.26508 -2.85857 0
M  V30 5765 H 560.48 -3.51072 -1.79283 0
M  V30 5766 H 561.768 -4.29958 -2.72054 0
M  V30 5767 H 561.166 -2.27901 -5.17762 0
M  V30 5768 H 559.723 -2.97308 -5.80044 0
M  V30 5769 N 563.156 0.464375 -1.50603 0
M  V30 5770 C 564.104 1.58224 -1.70493 0
M  V30 5771 C 565.098 1.59492 -0.570836 0
M  V30 5772 O 566.304 1.63561 -0.751517 0
M  V30 5773 H 562.679 0.525161 -0.538247 0
M  V30 5774 H 564.65 1.38613 -2.64252 0
M  V30 5775 C 563.399 2.96113 -1.82243 0
M  V30 5776 H 562.722 2.95858 -2.68901 0
M  V30 5777 H 564.162 3.73769 -2.00182 0
M  V30 5778 C 562.621 3.31946 -0.575628 0
M  V30 5779 O 563.151 4.00708 0.282152 0
M  V30 5780 N 561.357 2.87436 -0.427665 0
M  V30 5781 H 560.904 2.31652 -1.12674 0
M  V30 5782 H 560.862 3.11776 0.405379 0
M  V30 5783 N 564.634 1.40294 0.718013 0
M  V30 5784 C 565.883 1.37746 1.4734 0
M  V30 5785 C 566.196 -0.0180754 1.95592 0
M  V30 5786 O 567.402 -0.166166 2.70991 0
M  V30 5787 C 565.858 2.4208 2.66318 0
M  V30 5788 C 565.466 3.87432 2.24945 0
M  V30 5789 C 567.21 2.48635 3.44065 0
M  V30 5790 C 565.117 4.83368 3.40748 0
M  V30 5791 H 564.047 0.512165 0.553356 0
M  V30 5792 H 566.698 1.66019 0.781661 0
M  V30 5793 H 565.08 2.06903 3.3765 0
M  V30 5794 H 566.254 4.3174 1.6105 0
M  V30 5795 H 564.569 3.8433 1.60249 0
M  V30 5796 H 567.166 3.17499 4.30231 0
M  V30 5797 H 567.509 1.51611 3.87711 0
M  V30 5798 H 568.042 2.82791 2.79775 0
M  V30 5799 H 564.781 5.81716 3.02136 0
M  V30 5800 H 564.301 4.43726 4.03568 0
M  V30 5801 H 565.98 5.03074 4.06848 0
M  V30 5802 N 566.112 -0.949982 1.2575 0
M  V30 5803 C 567.044 -2.05088 1.02331 0
M  V30 5804 C 568.057 -1.62795 -0.0133247 0
M  V30 5805 O 569.246 -1.77067 0.225759 0
M  V30 5806 C 566.346 -3.34794 0.525924 0
M  V30 5807 C 565.519 -4.05903 1.62978 0
M  V30 5808 C 564.578 -5.1388 1.13196 0
M  V30 5809 O 563.604 -5.39072 1.82729 0
M  V30 5810 N 564.806 -5.80495 -0.0242926 0
M  V30 5811 H 567.571 -2.25747 1.97125 0
M  V30 5812 H 565.132 -1.11886 1.17018 0
M  V30 5813 H 567.124 -4.04312 0.177263 0
M  V30 5814 H 565.694 -3.10872 -0.328202 0
M  V30 5815 H 564.914 -3.3042 2.1498 0
M  V30 5816 H 566.202 -4.50166 2.37124 0
M  V30 5817 H 565.6 -5.62454 -0.605184 0
M  V30 5818 H 564.157 -6.51043 -0.313947 0
M  V30 5819 N 567.59 -1.07411 -1.15328 0
M  V30 5820 C 568.52 -0.716472 -2.22236 0
M  V30 5821 C 569.501 0.296373 -1.67498 0
M  V30 5822 O 570.686 0.168989 -1.93463 0
M  V30 5823 C 567.816 -0.114142 -3.47112 0
M  V30 5824 C 566.77 -1.05421 -4.14814 0
M  V30 5825 C 566.096 -0.314604 -5.33774 0
M  V30 5826 C 567.396 -2.38808 -4.64508 0
M  V30 5827 H 569.09 -1.61029 -2.52408 0
M  V30 5828 H 566.636 -0.775702 -1.21321 0
M  V30 5829 H 568.589 0.148001 -4.2114 0
M  V30 5830 H 567.313 0.814755 -3.16274 0
M  V30 5831 H 565.972 -1.30128 -3.42728 0
M  V30 5832 H 565.62 0.617772 -4.99192 0
M  V30 5833 H 565.32 -0.941209 -5.80013 0
M  V30 5834 H 566.844 -0.0602747 -6.1057 0
M  V30 5835 H 568.258 -2.18424 -5.3006 0
M  V30 5836 H 566.655 -2.97069 -5.21412 0
M  V30 5837 H 567.725 -3.01067 -3.80114 0
M  V30 5838 N 569.068 1.32177 -0.85831 0
M  V30 5839 C 570.293 2.01847 -0.476718 0
M  V30 5840 C 570.718 1.64065 0.920021 0
M  V30 5841 O 570.076 0.843189 1.60499 0
M  V30 5842 C 570.124 3.55097 -0.627578 0
M  V30 5843 O 569.228 4.11012 0.338086 0
M  V30 5844 H 568.569 0.635907 -0.191099 0
M  V30 5845 H 571.099 1.68641 -1.15851 0
M  V30 5846 H 571.109 4.04718 -0.516476 0
M  V30 5847 H 569.784 3.81938 -1.64609 0
M  V30 5848 H 568.361 3.72451 0.182917 0
M  V30 5849 N 570.547 0.616602 1.45037 0
M  V30 5850 C 571.495 -0.109318 2.32343 0
M  V30 5851 C 572.489 -0.850543 1.465 0
M  V30 5852 O 573.695 -0.765088 1.62931 0
M  V30 5853 H 570.07 -0.0541091 0.750051 0
M  V30 5854 H 572.041 0.645326 2.91338 0
M  V30 5855 C 570.79 -1.0872 3.30266 0
M  V30 5856 H 570.113 -0.526267 3.96321 0
M  V30 5857 H 571.553 -1.56489 3.94065 0
M  V30 5858 C 570.012 -2.16525 2.58105 0
M  V30 5859 O 570.542 -3.244 2.36913 0
M  V30 5860 N 568.748 -1.92057 2.18088 0
M  V30 5861 H 568.295 -1.04337 2.35524 0
M  V30 5862 H 568.253 -2.64391 1.70131 0
M  V30 5863 N 572.025 -1.5352 0.356285 0
M  V30 5864 C 572.935 -2.29151 -0.502712 0
M  V30 5865 C 573.951 -1.34753 -1.1008 0
M  V30 5866 O 575.127 -1.67803 -1.11374 0
M  V30 5867 C 572.192 -3.05911 -1.63154 0
M  V30 5868 C 571.253 -4.15958 -1.06194 0
M  V30 5869 C 570.486 -4.8905 -2.13696 0
M  V30 5870 O 570.709 -4.61919 -3.34645 0
M  V30 5871 O 569.643 -5.75202 -1.77275 0
M  V30 5872 H 573.469 -3.03492 0.112466 0
M  V30 5873 H 571.054 -1.4891 0.120942 0
M  V30 5874 H 572.936 -3.53874 -2.28804 0
M  V30 5875 H 571.611 -2.34415 -2.23229 0
M  V30 5876 H 570.518 -3.7227 -0.369603 0
M  V30 5877 H 571.851 -4.89593 -0.505872 0
M  V30 5878 N 573.503 -0.0852151 -1.57369 0
M  V30 5879 C 574.749 0.581666 -1.94279 0
M  V30 5880 C 575.082 1.68444 -0.966446 0
M  V30 5881 O 574.357 1.945 0.00215277 0
M  V30 5882 C 574.64 1.14609 -3.41375 0
M  V30 5883 C 574.493 0.0490414 -4.49773 0
M  V30 5884 C 575.812 2.04751 -3.8957 0
M  V30 5885 H 572.931 0.209972 -0.706456 0
M  V30 5886 H 575.573 -0.153915 -1.89376 0
M  V30 5887 H 573.723 1.77297 -3.45685 0
M  V30 5888 H 575.395 -0.584721 -4.57579 0
M  V30 5889 H 573.638 -0.618638 -4.29366 0
M  V30 5890 H 574.309 0.484601 -5.49869 0
M  V30 5891 H 576.785 1.51981 -3.87351 0
M  V30 5892 H 575.661 2.41173 -4.93079 0
M  V30 5893 H 575.922 2.96107 -3.28288 0
M  V30 5894 N 574.981 1.5647 0.188427 0
M  V30 5895 C 576.209 1.85131 0.923803 0
M  V30 5896 C 576.624 0.668537 1.76567 0
M  V30 5897 O 575.981 -0.362662 1.7886 0
M  V30 5898 C 576.032 3.12661 1.81453 0
M  V30 5899 O 575.753 4.26378 1.00665 0
M  V30 5900 C 577.254 3.54548 2.66103 0
M  V30 5901 H 574.474 0.614624 0.269218 0
M  V30 5902 H 577.018 2.03581 0.193671 0
M  V30 5903 H 575.173 2.96088 2.49821 0
M  V30 5904 H 575.587 4.99041 1.61425 0
M  V30 5905 H 577.061 4.4673 3.24247 0
M  V30 5906 H 577.538 2.77853 3.40139 0
M  V30 5907 H 578.144 3.73674 2.03096 0
M  V30 5908 N 576.459 -0.456382 1.50847 0
M  V30 5909 C 577.389 -1.56025 1.73719 0
M  V30 5910 C 578.37 -1.5967 0.586473 0
M  V30 5911 O 579.555 -1.75702 0.827185 0
M  V30 5912 C 576.685 -2.94251 1.84483 0
M  V30 5913 C 575.639 -3.05471 2.99786 0
M  V30 5914 C 574.965 -4.45489 2.95709 0
M  V30 5915 C 576.265 -2.81318 4.40065 0
M  V30 5916 H 577.959 -1.37138 2.66146 0
M  V30 5917 H 575.505 -0.658299 1.28072 0
M  V30 5918 H 577.458 -3.71417 1.99067 0
M  V30 5919 H 576.182 -3.14328 0.886891 0
M  V30 5920 H 574.841 -2.30741 2.84876 0
M  V30 5921 H 574.489 -4.62505 1.97732 0
M  V30 5922 H 574.189 -4.53929 3.73125 0
M  V30 5923 H 575.713 -5.24655 3.12362 0
M  V30 5924 H 577.127 -3.48226 4.55425 0
M  V30 5925 H 575.524 -3.01188 5.19043 0
M  V30 5926 H 576.594 -1.7706 4.51418 0
M  V30 5927 N 577.937 -1.40673 -0.710563 0
M  V30 5928 C 578.867 -1.44095 -1.83736 0
M  V30 5929 C 579.848 -0.301286 -1.67411 0
M  V30 5930 O 581.033 -0.510618 -1.87367 0
M  V30 5931 C 578.163 -1.30773 -3.21738 0
M  V30 5932 C 577.117 -2.42395 -3.52745 0
M  V30 5933 C 576.443 -2.14147 -4.89944 0
M  V30 5934 C 577.743 -3.84738 -3.53234 0
M  V30 5935 H 579.437 -2.38396 -1.81129 0
M  V30 5936 H 576.983 -1.14746 -0.870017 0
M  V30 5937 H 578.936 -1.31783 -4.00264 0
M  V30 5938 H 577.66 -0.329507 -3.24934 0
M  V30 5939 H 576.319 -2.40643 -2.76562 0
M  V30 5940 H 575.967 -1.14703 -4.89747 0
M  V30 5941 H 575.667 -2.88934 -5.11655 0
M  V30 5942 H 577.191 -2.16848 -5.70797 0
M  V30 5943 H 578.605 -3.88286 -4.2179 0
M  V30 5944 H 577.002 -4.59085 -3.86473 0
M  V30 5945 H 578.072 -4.13962 -2.52514 0
M  V30 5946 N 579.415 0.9433 -1.26252 0
M  V30 5947 C 580.831 1.21644 -1.03319 0
M  V30 5948 C 581.031 2.0003 0.242983 0
M  V30 5949 O 580.087 2.33838 0.952688 0
M  V30 5950 C 581.4 1.97978 -2.2633 0
M  V30 5951 C 582.948 2.10978 -2.31209 0
M  V30 5952 C 583.423 2.90713 -3.53907 0
M  V30 5953 N 584.914 2.98287 -3.54371 0
M  V30 5954 C 585.649 3.60406 -4.45976 0
M  V30 5955 N 585.145 4.24043 -5.47868 0
M  V30 5956 N 586.938 3.57658 -4.33633 0
M  V30 5957 H 579.089 0.419221 -2.08222 0
M  V30 5958 H 581.352 0.247995 -0.914988 0
M  V30 5959 H 581.058 1.47788 -3.19142 0
M  V30 5960 H 580.932 2.9865 -2.30408 0
M  V30 5961 H 583.319 2.6036 -1.38913 0
M  V30 5962 H 583.4 1.09575 -2.31143 0
M  V30 5963 H 583.044 2.42018 -4.46531 0
M  V30 5964 H 582.974 3.92367 -3.5122 0
M  V30 5965 H 585.465 2.53044 -2.80673 0
M  V30 5966 H 585.778 4.69334 -6.13959 0
M  V30 5967 H 584.123 4.22637 -5.51728 0
M  V30 5968 H 587.314 3.07134 -3.53251 0
M  V30 5969 H 587.487 4.05782 -5.05218 0
M  V30 5970 N 580.893 1.08022 1.14757 0
M  V30 5971 C 581.841 0.701088 2.21783 0
M  V30 5972 C 582.835 -0.291311 1.66876 0
M  V30 5973 O 584.041 -0.154296 1.79337 0
M  V30 5974 H 580.416 0.208668 0.722469 0
M  V30 5975 H 582.387 1.61321 2.51034 0
M  V30 5976 C 581.136 0.122278 3.47485 0
M  V30 5977 H 580.459 0.877065 3.90061 0
M  V30 5978 H 581.899 -0.105248 4.23869 0
M  V30 5979 C 580.358 -1.13883 3.17068 0
M  V30 5980 O 580.888 -2.22429 3.34497 0
M  V30 5981 N 579.094 -1.04767 2.71058 0
M  V30 5982 H 578.641 -0.164302 2.57075 0
M  V30 5983 H 578.599 -1.89224 2.51081 0
M  V30 5984 N 582.371 -1.3172 0.865308 0
M  V30 5985 C 583.281 -2.32394 0.320935 0
M  V30 5986 C 584.297 -1.64511 -0.566746 0
M  V30 5987 O 585.473 -1.95969 -0.464575 0
M  V30 5988 C 582.538 -3.43462 -0.472701 0
M  V30 5989 C 581.599 -4.27015 0.442385 0
M  V30 5990 C 580.832 -5.32779 -0.313469 0
M  V30 5991 O 581.055 -5.49158 -1.54214 0
M  V30 5992 O 579.989 -6.01015 0.326257 0
M  V30 5993 H 583.815 -2.80868 1.15528 0
M  V30 5994 H 581.4 -1.35535 0.628545 0
M  V30 5995 H 583.282 -4.11172 -0.922781 0
M  V30 5996 H 581.957 -2.97159 -1.28367 0
M  V30 5997 H 580.864 -3.62075 0.940866 0
M  V30 5998 H 582.197 -4.76871 1.21882 0
M  V30 5999 N 583.85 -0.624285 -1.44708 0
M  V30 6000 C 585.096 -0.126237 -2.02407 0
M  V30 6001 C 585.428 1.24618 -1.48943 0
M  V30 6002 O 584.704 1.82569 -0.670742 0
M  V30 6003 C 584.986 -0.105449 -3.59946 0
M  V30 6004 C 584.84 -1.50972 -4.23707 0
M  V30 6005 C 586.159 0.573629 -4.36346 0
M  V30 6006 H 583.278 -0.0473472 -0.735478 0
M  V30 6007 H 585.92 -0.799452 -1.72362 0
M  V30 6008 H 584.07 0.46783 -3.85673 0
M  V30 6009 H 585.742 -2.13136 -4.0911 0
M  V30 6010 H 583.985 -2.0656 -3.81465 0
M  V30 6011 H 584.656 -1.44727 -5.32689 0
M  V30 6012 H 587.132 0.0861787 -4.16011 0
M  V30 6013 H 586.008 0.557338 -5.46063 0
M  V30 6014 H 586.269 1.64276 -4.10446 0
M  V30 6015 N 585.328 1.53329 -0.364422 0
M  V30 6016 C 586.291 2.24323 0.470292 0
M  V30 6017 C 587.291 1.25068 1.01067 0
M  V30 6018 O 588.481 1.49354 0.896605 0
M  V30 6019 C 585.613 2.97908 1.65722 0
M  V30 6020 H 586.806 2.9952 -0.150917 0
M  V30 6021 H 584.359 1.55868 -0.116092 0
M  V30 6022 H 585.094 2.2695 2.31655 0
M  V30 6023 H 584.879 3.70732 1.27671 0
M  V30 6024 H 586.369 3.5188 2.24878 0
M  V30 6025 N 586.806 0.0935595 1.57322 0
M  V30 6026 C 587.738 -0.895923 2.10964 0
M  V30 6027 C 588.751 -1.24705 1.04654 0
M  V30 6028 O 589.94 -1.20044 1.32105 0
M  V30 6029 C 587.04 -2.20546 2.57318 0
M  V30 6030 C 586.213 -2.0299 3.87445 0
M  V30 6031 C 585.272 -3.17443 4.19662 0
M  V30 6032 O 584.298 -2.91474 4.88909 0
M  V30 6033 N 585.5 -4.43168 3.74943 0
M  V30 6034 H 588.265 -0.437788 2.96485 0
M  V30 6035 H 585.826 -0.0915863 1.61641 0
M  V30 6036 H 587.818 -2.9606 2.75917 0
M  V30 6037 H 586.388 -2.57789 1.76816 0
M  V30 6038 H 585.608 -1.11815 3.78009 0
M  V30 6039 H 586.896 -1.88535 4.7258 0
M  V30 6040 H 586.294 -4.67149 3.19043 0
M  V30 6041 H 584.851 -5.15637 3.987 0
M  V30 6042 N 588.284 -1.56567 -0.180126 0
M  V30 6043 C 589.214 -1.98753 -1.22553 0
M  V30 6044 C 590.195 -0.86175 -1.46656 0
M  V30 6045 O 591.38 -1.12719 -1.58139 0
M  V30 6046 C 588.51 -2.33988 -2.56645 0
M  V30 6047 C 587.464 -3.49445 -2.47128 0
M  V30 6048 C 586.79 -3.70397 -3.8563 0
M  V30 6049 C 588.09 -4.83171 -1.98352 0
M  V30 6050 H 589.784 -2.86332 -0.874896 0
M  V30 6051 H 587.33 -1.37757 -0.419414 0
M  V30 6052 H 589.283 -2.62097 -3.29974 0
M  V30 6053 H 588.007 -1.43309 -2.93479 0
M  V30 6054 H 586.666 -3.2145 -1.76254 0
M  V30 6055 H 586.314 -2.77023 -4.19842 0
M  V30 6056 H 586.014 -4.48077 -3.80132 0
M  V30 6057 H 587.538 -4.00897 -4.60558 0
M  V30 6058 H 588.952 -5.10213 -2.61449 0
M  V30 6059 H 587.349 -5.64425 -2.03823 0
M  V30 6060 H 588.419 -4.75753 -0.937402 0
M  V30 6061 N 589.762 0.448376 -1.51087 0
M  V30 6062 C 590.709 1.54341 -1.71603 0
M  V30 6063 C 591.679 1.56463 -0.557536 0
M  V30 6064 O 592.864 1.73644 -0.79072 0
M  V30 6065 C 590.004 2.92148 -1.83695 0
M  V30 6066 C 589.117 2.99639 -3.11192 0
M  V30 6067 C 588.252 4.285 -3.13944 0
M  V30 6068 C 587.291 4.29819 -4.35801 0
M  V30 6069 N 586.428 5.50186 -4.36164 0
M  V30 6070 H 591.268 1.36151 -2.65079 0
M  V30 6071 H 588.805 0.661585 -1.31383 0
M  V30 6072 H 590.763 3.72093 -1.88687 0
M  V30 6073 H 589.393 3.0892 -0.936374 0
M  V30 6074 H 588.445 2.12425 -3.15562 0
M  V30 6075 H 589.757 2.96474 -4.01129 0
M  V30 6076 H 588.911 5.16811 -3.17791 0
M  V30 6077 H 587.65 4.34307 -2.21876 0
M  V30 6078 H 586.655 3.39902 -4.32142 0
M  V30 6079 H 587.88 4.25685 -5.29121 0
M  V30 6080 H 585.826 5.56735 -3.46961 0
M  V30 6081 H 585.743 5.48856 -5.19897 0
M  V30 6082 H 587.011 6.40559 -4.44189 0
M  V30 6083 N 591.24 1.41047 0.703093 0
M  V30 6084 C 592.172 1.38228 1.82827 0
M  V30 6085 C 593.185 0.285637 1.60275 0
M  V30 6086 O 594.374 0.54685 1.69917 0
M  V30 6087 C 591.474 1.13136 3.19458 0
M  V30 6088 C 590.647 2.34695 3.69103 0
M  V30 6089 C 589.706 2.05574 4.84382 0
M  V30 6090 O 588.732 2.78549 4.96386 0
M  V30 6091 N 589.934 1.04135 5.71083 0
M  V30 6092 H 592.699 2.35203 1.85741 0
M  V30 6093 H 590.26 1.35562 0.885125 0
M  V30 6094 H 592.252 0.916183 3.94193 0
M  V30 6095 H 590.822 0.247836 3.11616 0
M  V30 6096 H 590.042 2.71963 2.85359 0
M  V30 6097 H 591.33 3.15705 3.99009 0
M  V30 6098 H 590.728 0.43722 5.64008 0
M  V30 6099 H 589.285 0.886078 6.45749 0
M  V30 6100 N 592.718 -0.936591 1.26751 0
M  V30 6101 C 593.648 -2.05315 1.11212 0
M  V30 6102 C 594.629 -1.70092 0.0160262 0
M  V30 6103 O 595.814 -1.93279 0.188894 0
M  V30 6104 C 592.944 -3.39123 0.749171 0
M  V30 6105 C 591.898 -3.88425 1.79751 0
M  V30 6106 C 591.224 -5.18936 1.28876 0
M  V30 6107 C 592.524 -4.12798 3.19992 0
M  V30 6108 H 594.218 -2.18573 2.04613 0
M  V30 6109 H 591.764 -1.05027 0.985159 0
M  V30 6110 H 593.717 -4.16704 0.627323 0
M  V30 6111 H 592.441 -3.25855 -0.220543 0
M  V30 6112 H 591.1 -3.13028 1.90811 0
M  V30 6113 H 590.748 -5.02051 0.308757 0
M  V30 6114 H 590.448 -5.52892 1.98958 0
M  V30 6115 H 591.972 -5.99096 1.17967 0
M  V30 6116 H 593.386 -4.80977 3.11983 0
M  V30 6117 H 591.783 -4.58044 3.87705 0
M  V30 6118 H 592.853 -3.18412 3.65707 0
M  V30 6119 N 594.196 -1.08629 -1.14182 0
M  V30 6120 C 595.126 -0.740003 -2.21464 0
M  V30 6121 C 596.107 0.278591 -1.67803 0
M  V30 6122 O 597.292 0.148461 -1.93632 0
M  V30 6123 C 594.422 -0.150952 -3.46972 0
M  V30 6124 C 593.376 -1.09815 -4.13672 0
M  V30 6125 C 592.702 -0.3712 -5.3341 0
M  V30 6126 C 594.002 -2.43722 -4.61949 0
M  V30 6127 H 595.696 -1.63697 -2.50686 0
M  V30 6128 H 593.242 -0.788526 -1.20492 0
M  V30 6129 H 595.195 0.103325 -4.21273 0
M  V30 6130 H 593.919 0.781164 -3.1712 0
M  V30 6131 H 592.578 -1.33756 -3.41328 0
M  V30 6132 H 592.226 0.564792 -4.99819 0
M  V30 6133 H 591.926 -1.00267 -5.78982 0
M  V30 6134 H 593.45 -0.12503 -6.10472 0
M  V30 6135 H 594.864 -2.24034 -5.27714 0
M  V30 6136 H 593.261 -3.02582 -5.18232 0
M  V30 6137 H 594.331 -3.05082 -3.76899 0
M  V30 6138 N 595.674 1.31259 -0.872281 0
M  V30 6139 C 596.604 2.30929 -0.345554 0
M  V30 6140 C 597.585 1.60449 0.5648 0
M  V30 6141 O 598.77 1.8814 0.481335 0
M  V30 6142 C 595.9 3.44348 0.451823 0
M  V30 6143 C 594.854 4.26435 -0.365641 0
M  V30 6144 C 594.18 5.31785 0.557562 0
M  V30 6145 C 595.48 4.97159 -1.60095 0
M  V30 6146 H 597.174 2.75234 -1.17841 0
M  V30 6147 H 594.72 1.3232 -0.568094 0
M  V30 6148 H 596.673 4.13128 0.830854 0
M  V30 6149 H 595.397 2.98816 1.31821 0
M  V30 6150 H 594.056 3.59326 -0.726649 0
M  V30 6151 H 593.704 4.82502 1.4213 0
M  V30 6152 H 593.404 5.87598 0.0144878 0
M  V30 6153 H 594.928 6.03424 0.933387 0
M  V30 6154 H 596.342 5.58523 -1.29323 0
M  V30 6155 H 594.739 5.62779 -2.08327 0
M  V30 6156 H 595.809 4.24012 -2.35249 0
M  V30 6157 N 597.152 0.631951 1.44375 0
M  V30 6158 C 598.115 -0.0628142 2.29114 0
M  V30 6159 C 599.115 -0.771494 1.41084 0
M  V30 6160 O 600.305 -0.615959 1.62947 0
M  V30 6161 C 597.437 -1.09953 3.22681 0
M  V30 6162 H 598.63 0.682509 2.92031 0
M  V30 6163 H 596.183 0.392128 1.51301 0
M  V30 6164 H 596.918 -1.87481 2.64616 0
M  V30 6165 H 596.703 -0.595286 3.87555 0
M  V30 6166 H 598.193 -1.58538 3.86336 0
M  V30 6167 N 598.631 -1.53133 0.372548 0
M  V30 6168 C 599.581 -2.22733 -0.487218 0
M  V30 6169 C 600.565 -1.22506 -1.04312 0
M  V30 6170 O 601.757 -1.47923 -0.972005 0
M  V30 6171 C 598.886 -3.02524 -1.62278 0
M  V30 6172 C 597.972 -4.10133 -1.07943 0
M  V30 6173 N 598.363 -5.05133 -0.259629 0
M  V30 6174 C 596.661 -4.24964 -1.35356 0
M  V30 6175 C 597.362 -5.81687 0.0386656 0
M  V30 6176 N 596.338 -5.40699 -0.560827 0
M  V30 6177 H 600.14 -2.93538 0.145853 0
M  V30 6178 H 597.654 -1.61389 0.180938 0
M  V30 6179 H 599.651 -3.50909 -2.25096 0
M  V30 6180 H 598.311 -2.33252 -2.25884 0
M  V30 6181 H 599.322 -5.178 0.101746 0
M  V30 6182 H 595.999 -3.66919 -1.9919 0
M  V30 6183 H 597.389 -6.68224 0.701841 0
M  V30 6184 N 600.109 -0.101901 -1.5727 0
M  V30 6185 C 601.056 0.854577 -2.14396 0
M  V30 6186 C 602.026 1.27521 -1.06432 0
M  V30 6187 O 603.211 1.35575 -1.34253 0
M  V30 6188 C 600.351 2.10576 -2.73408 0
M  V30 6189 C 599.464 1.73504 -3.95626 0
M  V30 6190 C 598.599 2.9346 -4.42781 0
M  V30 6191 C 597.638 2.52547 -5.57572 0
M  V30 6192 N 596.775 3.65359 -5.99547 0
M  V30 6193 H 601.615 0.360578 -2.9581 0
M  V30 6194 H 599.152 0.166303 -1.46157 0
M  V30 6195 H 601.11 2.83859 -3.05745 0
M  V30 6196 H 599.74 2.57463 -1.94711 0
M  V30 6197 H 598.792 0.901622 -3.6956 0
M  V30 6198 H 600.104 1.39426 -4.78917 0
M  V30 6199 H 599.258 3.74988 -4.76937 0
M  V30 6200 H 597.997 3.30753 -3.58404 0
M  V30 6201 H 597.002 1.69446 -5.23037 0
M  V30 6202 H 598.227 2.1639 -6.43702 0
M  V30 6203 H 596.173 4.02358 -5.18116 0
M  V30 6204 H 596.09 3.35148 -6.77652 0
M  V30 6205 H 597.358 4.47378 -6.38336 0
M  V30 6206 N 601.587 1.56661 0.17182 0
M  V30 6207 C 602.864 1.72838 0.915778 0
M  V30 6208 C 603.244 0.66316 2.00413 0
M  V30 6209 O 602.592 -0.322123 2.26218 0
M  V30 6210 C 602.802 3.16019 1.48097 0
M  V30 6211 C 604.15 3.76962 1.95408 0
M  V30 6212 O 605.174 3.19294 1.57892 0
M  V30 6213 O 604.033 4.78219 2.64516 0
M  V30 6214 H 601.127 0.705797 0.431021 0
M  V30 6215 H 603.673 1.68947 0.159689 0
M  V30 6216 H 602.445 3.85031 0.697618 0
M  V30 6217 H 602.068 3.24234 2.30126 0
M  V30 6218 N 603.065 -0.440357 1.51323 0
M  V30 6219 C 604.305 -1.19956 1.65499 0
M  V30 6220 C 604.669 -1.88559 0.361878 0
M  V30 6221 O 605.87 -2.66109 0.379383 0
M  V30 6222 C 604.141 -2.1918 2.82303 0
M  V30 6223 S 605.7 -3.03627 3.1679 0
M  V30 6224 H 602.518 -0.406833 0.583102 0
M  V30 6225 H 605.12 -0.491596 1.89218 0
M  V30 6226 H 603.824 -1.67414 3.74701 0
M  V30 6227 H 603.355 -2.94561 2.60763 0
M  V30 6228 H 605.37 -4.20773 2.62991 0
M  V30 6229 N 604.543 -1.41418 -0.695603 0
M  V30 6230 C 605.954 -1.36335 -1.27552 0
M  V30 6231 C 606.305 -0.0464336 -1.96145 0
M  V30 6232 O 605.43 0.855304 -1.9878 0
M  V30 6233 C 606.025 -2.46941 -2.3196 0
M  V30 6234 C 604.584 -2.45256 -2.85529 0
M  V30 6235 C 603.731 -2.2679 -1.59566 0
M  V30 6236 H 606.682 -1.50934 -0.490362 0
M  V30 6237 H 606.703 -2.15997 -3.1325 0
M  V30 6238 H 606.215 -3.42775 -1.82008 0
M  V30 6239 H 604.316 -1.53179 -3.39657 0
M  V30 6240 H 604.429 -3.41565 -3.35961 0
M  V30 6241 H 602.793 -1.74667 -1.85374 0
M  V30 6242 H 603.576 -3.24651 -1.1161 0
M  V30 6243 N 606.021 0.929856 -1.27246 0
M  V30 6244 C 607.267 1.6798 -1.13625 0
M  V30 6245 C 607.6 1.91586 0.317589 0
M  V30 6246 O 606.875 1.50467 1.23247 0
M  V30 6247 C 607.158 3.04766 -1.91806 0
M  V30 6248 C 607.011 2.88415 -3.45162 0
M  V30 6249 C 608.33 4.05063 -1.72082 0
M  V30 6250 H 605.449 0.609632 -0.414147 0
M  V30 6251 H 608.091 1.0792 -1.56376 0
M  V30 6252 H 606.241 3.56034 -1.55474 0
M  V30 6253 H 607.913 2.44282 -3.91311 0
M  V30 6254 H 606.156 2.23802 -3.71611 0
M  V30 6255 H 606.827 3.85482 -3.95105 0
M  V30 6256 H 609.303 3.62798 -2.03757 0
M  V30 6257 H 608.179 4.98765 -2.29182 0
M  V30 6258 H 608.44 4.37021 -0.668206 0
M  V30 6259 N 607.499 1.09233 1.13605 0
M  V30 6260 C 608.727 0.848908 1.88683 0
M  V30 6261 C 609.142 -0.599667 1.79024 0
M  V30 6262 O 608.499 -1.41265 1.15544 0
M  V30 6263 C 608.55 1.27273 3.38355 0
M  V30 6264 O 608.271 2.66449 3.47759 0
M  V30 6265 C 609.772 1.0614 4.30406 0
M  V30 6266 H 606.992 0.305549 0.597395 0
M  V30 6267 H 609.536 1.4538 1.43823 0
M  V30 6268 H 607.691 0.711776 3.80805 0
M  V30 6269 H 608.105 2.84264 4.40788 0
M  V30 6270 H 609.579 1.40725 5.33761 0
M  V30 6271 H 610.056 -0.000960332 4.392 0
M  V30 6272 H 610.662 1.60821 3.93722 0
M  V30 6273 N 608.977 -1.30795 0.87923 0
M  V30 6274 C 609.94 -2.26563 0.346676 0
M  V30 6275 C 610.94 -1.52578 -0.507597 0
M  V30 6276 O 612.13 -1.71318 -0.315575 0
M  V30 6277 C 609.262 -3.37115 -0.506611 0
M  V30 6278 H 610.455 -2.75183 1.19223 0
M  V30 6279 H 608.008 -1.41886 0.655598 0
M  V30 6280 H 608.743 -2.93802 -1.37299 0
M  V30 6281 H 608.528 -3.91959 0.105218 0
M  V30 6282 H 610.018 -4.08412 -0.871192 0
M  V30 6283 N 610.455 -0.639598 -1.44038 0
M  V30 6284 C 611.385 0.0469443 -2.33453 0
M  V30 6285 C 612.366 0.82609 -1.48694 0
M  V30 6286 O 613.551 0.790285 -1.77393 0
M  V30 6287 C 610.681 1.02338 -3.3188 0
M  V30 6288 C 609.635 0.355284 -4.26523 0
M  V30 6289 C 608.961 1.44221 -5.14883 0
M  V30 6290 C 610.261 -0.743798 -5.16977 0
M  V30 6291 H 611.955 -0.699735 -2.91108 0
M  V30 6292 H 609.501 -0.337946 -1.39978 0
M  V30 6293 H 611.454 1.51247 -3.93322 0
M  V30 6294 H 610.178 1.80105 -2.72451 0
M  V30 6295 H 608.837 -0.113239 -3.66425 0
M  V30 6296 H 608.485 2.21097 -4.51802 0
M  V30 6297 H 608.185 1.00052 -5.79019 0
M  V30 6298 H 609.709 1.93295 -5.79197 0
M  V30 6299 H 611.123 -0.337444 -5.72306 0
M  V30 6300 H 609.52 -1.10914 -5.89761 0
M  V30 6301 H 610.59 -1.60745 -4.57481 0
M  V30 6302 N 611.933 1.52934 -0.380664 0
M  V30 6303 C 612.865 2.23822 0.493581 0
M  V30 6304 C 613.878 1.25761 1.03383 0
M  V30 6305 O 615.067 1.5189 0.937633 0
M  V30 6306 C 612.167 2.9342 1.69582 0
M  V30 6307 C 611.34 4.18115 1.28445 0
M  V30 6308 C 610.399 4.70788 2.35042 0
M  V30 6309 O 609.425 5.34093 1.96807 0
M  V30 6310 N 610.627 4.49899 3.66839 0
M  V30 6311 H 613.392 2.99484 -0.11371 0
M  V30 6312 H 610.953 1.60577 -0.206587 0
M  V30 6313 H 612.945 3.2556 2.40401 0
M  V30 6314 H 611.515 2.21119 2.20965 0
M  V30 6315 H 610.735 3.92109 0.405503 0
M  V30 6316 H 612.023 4.99152 0.986132 0
M  V30 6317 H 611.421 3.99349 4.0067 0
M  V30 6318 H 609.978 4.86551 4.33718 0
M  V30 6319 N 613.412 0.11024 1.57214 0
M  V30 6320 C 614.359 -0.843195 2.14846 0
M  V30 6321 C 615.329 -1.26954 1.07107 0
M  V30 6322 O 616.514 -1.34861 1.34971 0
M  V30 6323 C 613.654 -2.09123 2.74521 0
M  V30 6324 C 612.767 -1.71404 3.96541 0
M  V30 6325 C 611.902 -2.91107 4.44331 0
M  V30 6326 C 610.941 -2.49586 5.58903 0
M  V30 6327 N 610.078 -3.62175 6.01477 0
M  V30 6328 H 614.918 -0.344886 2.95998 0
M  V30 6329 H 612.455 -0.15855 1.46243 0
M  V30 6330 H 614.413 -2.82234 3.07246 0
M  V30 6331 H 613.043 -2.56427 1.96074 0
M  V30 6332 H 612.095 -0.88201 3.70033 0
M  V30 6333 H 613.407 -1.36884 4.7965 0
M  V30 6334 H 612.561 -3.72454 4.78919 0
M  V30 6335 H 611.3 -3.28848 3.60153 0
M  V30 6336 H 610.305 -1.6667 5.23929 0
M  V30 6337 H 611.53 -2.12973 6.4484 0
M  V30 6338 H 609.476 -3.99605 5.20242 0
M  V30 6339 H 609.393 -3.3155 6.79419 0
M  V30 6340 H 610.661 -4.43987 6.407 0
M  V30 6341 N 614.89 -1.56749 -0.16351 0
M  V30 6342 C 615.837 -1.97011 -1.2023 0
M  V30 6343 C 616.807 -0.835186 -1.43575 0
M  V30 6344 O 617.992 -1.09594 -1.56185 0
M  V30 6345 C 615.132 -2.34186 -2.53478 0
M  V30 6346 C 614.245 -3.60893 -2.37446 0
M  V30 6347 C 613.38 -3.87245 -3.63614 0
M  V30 6348 C 612.419 -5.07274 -3.42548 0
M  V30 6349 N 611.556 -5.29719 -4.60806 0
M  V30 6350 H 616.396 -2.85562 -0.851958 0
M  V30 6351 H 613.933 -1.41292 -0.409257 0
M  V30 6352 H 615.891 -2.53764 -3.31149 0
M  V30 6353 H 614.521 -1.48736 -2.86492 0
M  V30 6354 H 613.573 -3.49185 -1.50911 0
M  V30 6355 H 614.885 -4.48722 -2.1783 0
M  V30 6356 H 614.039 -4.07232 -4.49719 0
M  V30 6357 H 612.778 -2.97806 -3.86216 0
M  V30 6358 H 611.783 -4.87177 -2.5483 0
M  V30 6359 H 613.008 -5.98251 -3.2136 0
M  V30 6360 H 610.954 -4.43233 -4.83612 0
M  V30 6361 H 610.871 -6.11786 -4.44132 0
M  V30 6362 H 612.139 -5.54192 -5.48171 0
M  V30 6363 N 616.368 0.432326 -1.51554 0
M  V30 6364 C 617.596 1.20364 -1.68286 0
M  V30 6365 C 618.011 1.84888 -0.38233 0
M  V30 6366 O 617.368 1.70924 0.639627 0
M  V30 6367 C 617.419 2.28398 -2.80208 0
M  V30 6368 O 617.14 1.66512 -4.05223 0
M  V30 6369 C 618.641 3.18584 -3.08251 0
M  V30 6370 H 615.861 0.36259 -0.564596 0
M  V30 6371 H 618.405 0.511647 -1.97996 0
M  V30 6372 H 616.56 2.93305 -2.53083 0
M  V30 6373 H 616.974 2.37951 -4.67418 0
M  V30 6374 H 618.448 3.90511 -3.90135 0
M  V30 6375 H 618.925 3.79628 -2.2086 0
M  V30 6376 H 619.531 2.59372 -3.37055 0
M  V30 6377 N 617.846 1.41785 0.688094 0
M  V30 6378 C 618.778 1.40159 1.81351 0
M  V30 6379 C 619.791 0.30262 1.59963 0
M  V30 6380 O 620.98 0.564841 1.69327 0
M  V30 6381 C 618.08 1.16517 3.1824 0
M  V30 6382 C 617.253 2.38597 3.66593 0
M  V30 6383 C 616.312 2.10699 4.82174 0
M  V30 6384 O 615.338 2.83798 4.93404 0
M  V30 6385 N 616.54 1.10187 5.69947 0
M  V30 6386 H 619.305 2.3716 1.83236 0
M  V30 6387 H 616.866 1.36494 0.870697 0
M  V30 6388 H 618.858 0.957941 3.93199 0
M  V30 6389 H 617.428 0.280873 3.11336 0
M  V30 6390 H 616.648 2.74974 2.82459 0
M  V30 6391 H 617.936 3.19919 3.95638 0
M  V30 6392 H 617.334 0.497016 5.63512 0
M  V30 6393 H 615.891 0.954518 6.44773 0
M  V30 6394 N 619.324 -0.923095 1.27737 0
M  V30 6395 C 620.572 -1.66797 1.14119 0
M  V30 6396 C 620.893 -1.92479 -0.312541 0
M  V30 6397 O 620.163 -1.53432 -1.218 0
M  V30 6398 H 618.743 -0.618196 0.419336 0
M  V30 6399 H 621.405 -1.10815 1.60331 0
M  V30 6400 H 620.501 -2.63424 1.67374 0
M  V30 6401 N 620.802 -1.09834 -1.13024 0
M  V30 6402 C 622.032 -0.857657 -1.87957 0
M  V30 6403 C 622.44 0.595008 -1.796 0
M  V30 6404 O 621.783 1.42158 -1.16347 0
M  V30 6405 C 621.845 -1.21949 -3.38185 0
M  V30 6406 C 621.509 -2.67791 -3.7032 0
M  V30 6407 C 622.506 -3.66036 -3.69207 0
M  V30 6408 C 620.191 -3.04019 -3.99847 0
M  V30 6409 C 622.185 -4.98533 -3.9717 0
M  V30 6410 C 619.872 -4.36706 -4.27471 0
M  V30 6411 C 620.87 -5.33772 -4.26118 0
M  V30 6412 O 620.558 -6.64072 -4.53061 0
M  V30 6413 H 620.29 -0.308009 -0.601753 0
M  V30 6414 H 622.844 -1.46496 -1.43973 0
M  V30 6415 H 621.074 -0.555249 -3.82693 0
M  V30 6416 H 622.763 -0.957281 -3.9445 0
M  V30 6417 H 623.529 -3.39392 -3.46465 0
M  V30 6418 H 619.408 -2.29096 -4.00045 0
M  V30 6419 H 622.952 -5.74288 -3.96029 0
M  V30 6420 H 618.849 -4.63091 -4.49685 0
M  V30 6421 H 619.617 -6.69608 -4.7071 0
M  V30 6422 N 622.28 1.30327 -0.886154 0
M  V30 6423 C 623.21 2.30549 -0.370028 0
M  V30 6424 C 624.191 1.61039 0.547751 0
M  V30 6425 O 625.376 1.8864 0.461353 0
M  V30 6426 C 622.506 3.44808 0.415275 0
M  V30 6427 C 621.46 4.26024 -0.41085 0
M  V30 6428 C 620.786 5.32347 0.501128 0
M  V30 6429 C 622.086 4.95433 -1.65359 0
M  V30 6430 H 623.78 2.73969 -1.20754 0
M  V30 6431 H 621.326 1.3171 -0.582097 0
M  V30 6432 H 623.279 4.13986 0.78699 0
M  V30 6433 H 622.003 3.00197 1.28644 0
M  V30 6434 H 620.662 3.58535 -0.764719 0
M  V30 6435 H 620.31 4.83982 1.37004 0
M  V30 6436 H 620.01 5.87581 -0.0478356 0
M  V30 6437 H 621.534 6.0438 0.869333 0
M  V30 6438 H 622.948 5.5712 -1.35239 0
M  V30 6439 H 621.345 5.60537 -2.14284 0
M  V30 6440 H 622.415 4.21493 -2.39733 0
M  V30 6441 N 623.758 0.647228 1.43697 0
M  V30 6442 C 624.668 -0.0487997 2.34549 0
M  V30 6443 C 625.684 -0.818586 1.53542 0
M  V30 6444 O 626.86 -0.767195 1.86215 0
M  V30 6445 C 623.925 -1.00734 3.31743 0
M  V30 6446 C 622.986 -0.23515 4.28655 0
M  V30 6447 C 622.219 -1.14803 5.21206 0
M  V30 6448 O 622.442 -2.38717 5.18045 0
M  V30 6449 O 621.376 -0.623667 5.9866 0
M  V30 6450 H 625.202 0.698863 2.9555 0
M  V30 6451 H 622.787 0.407412 1.43738 0
M  V30 6452 H 624.669 -1.55837 3.91526 0
M  V30 6453 H 623.344 -1.73534 2.73254 0
M  V30 6454 H 622.251 0.359319 3.7237 0
M  V30 6455 H 623.584 0.453152 4.9011 0
M  V30 6456 N 625.236 -1.5273 0.388769 0
M  V30 6457 C 626.461 -2.0647 -0.19621 0
M  V30 6458 C 626.886 -1.25865 -1.39784 0
M  V30 6459 O 626.244 -0.283562 -1.79069 0
M  V30 6460 C 626.292 -3.56456 -0.5451 0
M  V30 6461 O 625.396 -3.78426 -1.63912 0
M  V30 6462 H 624.737 -0.663599 -0.023067 0
M  V30 6463 H 627.267 -1.96898 0.556084 0
M  V30 6464 H 627.277 -3.99888 -0.809557 0
M  V30 6465 H 625.952 -4.14561 0.333417 0
M  V30 6466 H 624.529 -3.46884 -1.36842 0
M  V30 6467 N 626.714 -0.118576 -1.57153 0
M  V30 6468 C 628.125 0.40687 -1.82213 0
M  V30 6469 C 628.476 1.66636 -1.03571 0
M  V30 6470 O 627.601 2.14682 -0.272171 0
M  V30 6471 C 628.196 0.744949 -3.30509 0
M  V30 6472 C 626.755 1.21503 -3.5625 0
M  V30 6473 C 625.902 0.223511 -2.76398 0
M  V30 6474 H 628.853 -0.343712 -1.54933 0
M  V30 6475 H 628.874 1.6024 -3.45114 0
M  V30 6476 H 628.386 -0.171911 -3.87719 0
M  V30 6477 H 626.487 2.1488 -3.04396 0
M  V30 6478 H 626.6 1.16065 -4.64829 0
M  V30 6479 H 624.964 0.71046 -2.44591 0
M  V30 6480 H 625.747 -0.686439 -3.36367 0
M  V30 6481 N 628.193 1.56834 0.155195 0
M  V30 6482 C 629.14 1.97646 1.19184 0
M  V30 6483 C 630.11 0.842788 1.4313 0
M  V30 6484 O 631.295 1.1042 1.55602 0
M  V30 6485 C 628.435 2.35527 2.52232 0
M  V30 6486 C 627.548 3.62147 2.35529 0
M  V30 6487 C 626.683 3.89167 3.61555 0
M  V30 6488 C 625.722 5.09084 3.39853 0
M  V30 6489 N 624.859 5.32156 4.5799 0
M  V30 6490 H 629.699 2.8601 0.836802 0
M  V30 6491 H 627.236 1.41507 0.401758 0
M  V30 6492 H 629.194 2.55516 3.29799 0
M  V30 6493 H 627.824 1.50253 2.85699 0
M  V30 6494 H 626.876 3.4998 1.49057 0
M  V30 6495 H 628.188 4.49871 2.15448 0
M  V30 6496 H 627.342 4.09611 4.47553 0
M  V30 6497 H 626.081 2.9985 3.84632 0
M  V30 6498 H 625.086 4.88522 2.52243 0
M  V30 6499 H 626.311 5.99947 3.18183 0
M  V30 6500 H 624.257 4.45791 4.81255 0
M  V30 6501 H 624.174 6.14133 4.40882 0
M  V30 6502 H 625.442 5.57091 5.45225 0
M  V30 6503 N 629.671 -0.424282 1.51781 0
M  V30 6504 C 630.581 -1.54087 1.76902 0
M  V30 6505 C 631.597 -1.61249 0.653826 0
M  V30 6506 O 632.773 -1.78247 0.937552 0
M  V30 6507 C 629.838 -2.8996 1.90063 0
M  V30 6508 C 628.899 -2.92809 3.13945 0
M  V30 6509 C 628.132 -4.22201 3.26469 0
M  V30 6510 O 628.355 -5.15286 2.44616 0
M  V30 6511 O 627.289 -4.31599 4.1953 0
M  V30 6512 H 631.115 -1.358 2.71647 0
M  V30 6513 H 628.7 -0.608618 1.36441 0
M  V30 6514 H 630.582 -3.70575 2.0063 0
M  V30 6515 H 629.257 -3.08347 0.985067 0
M  V30 6516 H 628.164 -2.11102 3.08847 0
M  V30 6517 H 629.497 -2.79369 4.05233 0
M  V30 6518 N 631.149 -1.42148 -0.680565 0
M  V30 6519 C 632.374 -1.45901 -1.47403 0
M  V30 6520 C 632.799 -0.0700985 -1.87969 0
M  V30 6521 O 632.157 0.930145 -1.55621 0
M  V30 6522 C 632.205 -2.38661 -2.70321 0
M  V30 6523 O 631.309 -1.85399 -3.68376 0
M  V30 6524 H 630.65 -0.494565 -0.443059 0
M  V30 6525 H 633.18 -1.86774 -0.835251 0
M  V30 6526 H 633.19 -2.55046 -3.18458 0
M  V30 6527 H 631.865 -3.39571 -2.40134 0
M  V30 6528 H 630.442 -1.78541 -3.2738 0
M  V30 6529 N 632.627 0.916307 -1.28225 0
M  V30 6530 C 633.852 1.7043 -1.18188 0
M  V30 6531 C 634.277 1.86346 0.256274 0
M  V30 6532 O 633.635 1.37175 1.18544 0
M  V30 6533 C 633.683 3.07546 -1.88275 0
M  V30 6534 O 632.787 3.94904 -1.18848 0
M  V30 6535 H 632.128 0.521967 -0.410423 0
M  V30 6536 H 634.658 1.14589 -1.69501 0
M  V30 6537 H 634.668 3.57793 -1.96082 0
M  V30 6538 H 633.343 2.95279 -2.92887 0
M  V30 6539 H 631.92 3.53339 -1.19187 0
M  V30 6540 N 634.105 1.10431 1.1244 0
M  V30 6541 C 635.015 0.765502 2.21759 0
M  V30 6542 C 636.031 -0.236966 1.72379 0
M  V30 6543 O 637.207 -0.0757329 2.01258 0
M  V30 6544 C 634.272 0.202316 3.46109 0
M  V30 6545 C 633.333 1.26205 4.1033 0
M  V30 6546 C 632.566 0.725648 5.28744 0
M  V30 6547 O 632.789 -0.447942 5.68638 0
M  V30 6548 O 631.723 1.48555 5.83279 0
M  V30 6549 H 635.549 1.67801 2.53133 0
M  V30 6550 H 633.134 0.879443 1.20773 0
M  V30 6551 H 635.016 -0.107918 4.21262 0
M  V30 6552 H 633.691 -0.683052 3.16411 0
M  V30 6553 H 632.598 1.62514 3.36957 0
M  V30 6554 H 633.931 2.12044 4.44183 0
M  V30 6555 N 635.583 -1.29855 0.893053 0
M  V30 6556 C 636.994 -1.77946 0.564998 0
M  V30 6557 C 637.345 -1.73339 -0.919134 0
M  V30 6558 O 636.47 -1.3152 -1.71847 0
M  V30 6559 C 637.065 -3.23118 1.01883 0
M  V30 6560 C 635.624 -3.69013 0.742051 0
M  V30 6561 C 634.771 -2.50121 1.19727 0
M  V30 6562 H 637.722 -1.16611 1.07646 0
M  V30 6563 H 637.743 -3.78875 0.351249 0
M  V30 6564 H 637.255 -3.26439 2.09903 0
M  V30 6565 H 635.356 -3.71173 -0.325816 0
M  V30 6566 H 635.469 -4.60117 1.33527 0
M  V30 6567 H 633.833 -2.47128 0.616418 0
M  V30 6568 H 634.616 -2.56174 2.28538 0
M  V30 6569 N 637.061 -0.65484 -1.43351 0
M  V30 6570 C 638.289 -0.176685 -2.06144 0
M  V30 6571 C 638.704 1.15831 -1.49093 0
M  V30 6572 O 638.061 1.71542 -0.622868 0
M  V30 6573 C 638.112 -0.0813326 -3.61408 0
M  V30 6574 O 637.833 -1.36355 -4.1634 0
M  V30 6575 C 639.334 0.422706 -4.4128 0
M  V30 6576 H 636.554 -0.0906429 -0.66485 0
M  V30 6577 H 639.098 -0.895945 -1.83829 0
M  V30 6578 H 637.253 0.588496 -3.82904 0
M  V30 6579 H 637.667 -1.22381 -5.10023 0
M  V30 6580 H 639.141 0.438375 -5.50257 0
M  V30 6581 H 639.618 1.45432 -4.14423 0
M  V30 6582 H 640.224 -0.214687 -4.24758 0
M  V30 6583 N 638.539 1.52521 -0.396863 0
M  V30 6584 C 639.787 2.01274 0.182536 0
M  V30 6585 C 640.108 1.28485 1.46685 0
M  V30 6586 O 639.378 0.407134 1.91623 0
M  V30 6587 H 637.958 0.743671 0.0704442 0
M  V30 6588 H 640.62 1.87547 -0.530289 0
M  V30 6589 H 639.716 3.09687 0.387385 0
M  V30 6590 N 640.017 0.126909 1.57088 0
M  V30 6591 C 641.242 -0.53997 2.00248 0
M  V30 6592 C 641.667 -1.58927 1.00618 0
M  V30 6593 O 641.025 -1.81288 -0.0210131 0
M  V30 6594 C 641.073 -1.13565 3.4225 0
M  V30 6595 O 640.177 -2.25103 3.45547 0
M  V30 6596 H 639.518 -0.13412 0.650314 0
M  V30 6597 H 642.048 0.217718 2.03438 0
M  V30 6598 H 642.058 -1.46925 3.80627 0
M  V30 6599 H 640.733 -0.367122 4.14277 0
M  V30 6600 H 639.31 -1.93123 3.18995 0
M  V30 6601 N 641.495 -1.56914 -0.146875 0
M  V30 6602 C 642.906 -1.72799 -0.706928 0
M  V30 6603 C 643.257 -0.741329 -1.81656 0
M  V30 6604 O 642.382 0.0920162 -2.16204 0
M  V30 6605 C 642.977 -3.13317 -1.28911 0
M  V30 6606 C 641.536 -3.30803 -1.79573 0
M  V30 6607 C 640.683 -2.68725 -0.684252 0
M  V30 6608 H 643.634 -1.58504 0.0787931 0
M  V30 6609 H 643.655 -3.13323 -2.15891 0
M  V30 6610 H 643.167 -3.85104 -0.481284 0
M  V30 6611 H 641.268 -2.64012 -2.62923 0
M  V30 6612 H 641.381 -4.38754 -1.92436 0
M  V30 6613 H 639.745 -2.29196 -1.11091 0
M  V30 6614 H 640.528 -3.43117 0.112134 0
M  V30 6615 N 642.974 0.416227 -1.52004 0
M  V30 6616 C 643.937 1.48926 -1.74223 0
M  V30 6617 C 644.937 1.48693 -0.612119 0
M  V30 6618 O 646.127 1.50343 -0.879921 0
M  V30 6619 C 643.259 2.88372 -1.81809 0
M  V30 6620 H 644.452 1.3052 -2.70008 0
M  V30 6621 H 642.005 0.646271 -1.42313 0
M  V30 6622 H 642.74 3.12157 -0.879135 0
M  V30 6623 H 642.525 2.89944 -2.6396 0
M  V30 6624 H 644.015 3.66173 -2.00766 0
M  V30 6625 N 644.452 1.42507 0.673017 0
M  V30 6626 C 645.863 1.38347 1.25367 0
M  V30 6627 C 646.214 0.0776327 1.96046 0
M  V30 6628 O 645.339 -0.823571 2.00116 0
M  V30 6629 C 645.934 2.506 2.28002 0
M  V30 6630 C 644.493 2.49767 2.81591 0
M  V30 6631 C 643.64 2.293 1.55938 0
M  V30 6632 H 646.591 1.51695 0.466288 0
M  V30 6633 H 646.612 2.20953 3.09774 0
M  V30 6634 H 646.124 3.45627 1.76532 0
M  V30 6635 H 644.225 1.58563 3.37177 0
M  V30 6636 H 644.338 3.46867 3.30485 0
M  V30 6637 H 642.702 1.77594 1.82572 0
M  V30 6638 H 643.485 3.26385 1.06431 0
M  V30 6639 N 645.93 -0.909495 1.28709 0
M  V30 6640 C 647.176 -1.66151 1.16283 0
M  V30 6641 C 647.509 -1.92067 -0.287069 0
M  V30 6642 O 646.784 -1.52409 -1.20837 0
M  V30 6643 C 647.067 -3.01676 1.9663 0
M  V30 6644 C 646.92 -2.82888 3.49707 0
M  V30 6645 C 648.239 -4.02274 1.78504 0
M  V30 6646 H 645.358 -0.602966 0.423793 0
M  V30 6647 H 648 -1.05418 1.58073 0
M  V30 6648 H 646.15 -3.53515 1.61119 0
M  V30 6649 H 647.822 -2.38026 3.95147 0
M  V30 6650 H 646.065 -2.17862 3.75125 0
M  V30 6651 H 646.736 -3.79147 4.01187 0
M  V30 6652 H 649.212 -3.59511 2.09503 0
M  V30 6653 H 648.088 -4.95056 2.37088 0
M  V30 6654 H 648.349 -4.35903 0.737647 0
M  V30 6655 N 647.408 -1.11026 -1.11852 0
M  V30 6656 C 648.657 -0.851249 -1.82857 0
M  V30 6657 C 648.97 0.62514 -1.85341 0
M  V30 6658 O 650.176 1.00026 -2.52403 0
M  V30 6659 C 648.632 -1.47309 -3.28372 0
M  V30 6660 C 648.24 -2.9832 -3.34229 0
M  V30 6661 C 649.984 -1.29373 -4.04306 0
M  V30 6662 C 647.891 -3.53509 -4.74115 0
M  V30 6663 H 646.821 -0.314794 -0.685143 0
M  V30 6664 H 649.472 -1.33499 -1.25898 0
M  V30 6665 H 647.854 -0.917017 -3.85236 0
M  V30 6666 H 649.028 -3.60295 -2.87271 0
M  V30 6667 H 647.343 -3.15482 -2.71772 0
M  V30 6668 H 649.94 -1.68042 -5.07608 0
M  V30 6669 H 650.283 -0.235879 -4.15631 0
M  V30 6670 H 650.816 -1.8182 -3.53817 0
M  V30 6671 H 647.555 -4.58987 -4.67986 0
M  V30 6672 H 647.075 -2.96305 -5.21501 0
M  V30 6673 H 648.754 -3.51693 -5.43066 0
M  V30 6674 N 648.886 1.2938 -0.899927 0
M  V30 6675 C 649.818 2.26737 -0.335139 0
M  V30 6676 C 650.831 1.54316 0.518681 0
M  V30 6677 O 652.02 1.75313 0.335803 0
M  V30 6678 C 649.12 3.34558 0.540774 0
M  V30 6679 C 648.293 4.36455 -0.287372 0
M  V30 6680 C 647.352 5.2361 0.52141 0
M  V30 6681 O 646.378 5.69167 -0.0611735 0
M  V30 6682 N 647.58 5.50985 1.82745 0
M  V30 6683 H 650.345 2.75838 -1.17191 0
M  V30 6684 H 647.906 1.42716 -0.764438 0
M  V30 6685 H 649.898 3.89794 1.08825 0
M  V30 6686 H 648.468 2.85272 1.27823 0
M  V30 6687 H 647.688 3.80875 -1.01626 0
M  V30 6688 H 648.976 5.01573 -0.854518 0
M  V30 6689 H 648.374 5.15781 2.32349 0
M  V30 6690 H 646.931 6.09036 2.32204 0
M  V30 6691 N 650.364 0.662433 1.43002 0
M  V30 6692 C 651.314 -0.0460442 2.27954 0
M  V30 6693 C 652.298 -0.785753 1.40409 0
M  V30 6694 O 653.49 -0.666701 1.63964 0
M  V30 6695 C 650.619 -1.00532 3.2825 0
M  V30 6696 C 649.705 -0.263604 4.2328 0
M  V30 6697 N 650.096 0.724855 5.00579 0
M  V30 6698 C 648.394 -0.503778 4.43146 0
M  V30 6699 C 649.095 1.16594 5.69895 0
M  V30 6700 N 648.071 0.498345 5.41311 0
M  V30 6701 H 651.873 0.712314 2.85137 0
M  V30 6702 H 649.387 0.490469 1.54817 0
M  V30 6703 H 651.384 -1.52775 3.87899 0
M  V30 6704 H 650.044 -1.76364 2.72628 0
M  V30 6705 H 651.055 1.10393 5.05998 0
M  V30 6706 H 647.732 -1.24255 3.98581 0
M  V30 6707 H 649.122 1.98434 6.4193 0
M  V30 6708 N 651.842 -1.52309 0.404946 0
M  V30 6709 C 653.067 -2.06666 -0.1743 0
M  V30 6710 C 653.492 -1.27341 -1.38441 0
M  V30 6711 O 652.85 -0.302539 -1.78758 0
M  V30 6712 C 652.898 -3.57014 -0.507262 0
M  V30 6713 O 652.002 -3.80144 -1.59889 0
M  V30 6714 H 651.343 -0.663807 -0.0160273 0
M  V30 6715 H 653.873 -1.96297 0.576937 0
M  V30 6716 H 653.883 -4.00724 -0.767098 0
M  V30 6717 H 652.558 -4.14184 0.377368 0
M  V30 6718 H 651.135 -3.48316 -1.33155 0
M  V30 6719 N 653.32 -0.135238 -1.57019 0
M  V30 6720 C 654.545 0.529343 -2.00531 0
M  V30 6721 C 654.97 1.58391 -1.01459 0
M  V30 6722 O 654.328 1.81296 0.0113986 0
M  V30 6723 C 654.376 1.11748 -3.42848 0
M  V30 6724 O 653.48 2.23267 -3.46736 0
M  V30 6725 H 652.821 0.130669 -0.651016 0
M  V30 6726 H 655.351 -0.228503 -2.0332 0
M  V30 6727 H 655.361 1.44905 -3.81401 0
M  V30 6728 H 654.036 0.345147 -4.14465 0
M  V30 6729 H 652.613 1.91428 -3.20015 0
M  V30 6730 N 654.798 1.5699 0.138552 0
M  V30 6731 C 655.761 1.97984 1.15478 0
M  V30 6732 C 656.761 0.867416 1.35398 0
M  V30 6733 O 657.951 1.13387 1.32246 0
M  V30 6734 C 655.083 2.3031 2.51337 0
M  V30 6735 H 656.276 2.88953 0.802896 0
M  V30 6736 H 653.829 1.51555 0.382189 0
M  V30 6737 H 654.564 1.42159 2.91481 0
M  V30 6738 H 654.349 3.11425 2.38237 0
M  V30 6739 H 655.839 2.62834 3.24512 0
M  V30 6740 N 656.276 -0.40816 1.52223 0
M  V30 6741 C 657.504 -1.17672 1.70179 0
M  V30 6742 C 657.919 -1.84257 0.411696 0
M  V30 6743 O 657.276 -1.7192 -0.612354 0
M  V30 6744 C 657.327 -2.23911 2.83806 0
M  V30 6745 O 657.048 -1.60044 4.0782 0
M  V30 6746 C 658.549 -3.1364 3.13281 0
M  V30 6747 H 655.769 -0.353562 0.570293 0
M  V30 6748 H 658.313 -0.480083 1.98785 0
M  V30 6749 H 656.468 -2.89242 2.57717 0
M  V30 6750 H 656.882 -2.30484 4.71145 0
M  V30 6751 H 658.356 -3.84255 3.96298 0
M  V30 6752 H 658.833 -3.76066 2.26872 0
M  V30 6753 H 659.439 -2.53977 3.41139 0
M  V30 6754 N 657.755 -1.42862 -0.66545 0
M  V30 6755 C 658.718 -1.46756 -1.76055 0
M  V30 6756 C 659.718 -0.353866 -1.56858 0
M  V30 6757 O 660.908 -0.615099 -1.62979 0
M  V30 6758 C 658.04 -1.30829 -3.14796 0
M  V30 6759 H 659.233 -2.44271 -1.73987 0
M  V30 6760 H 656.786 -1.29447 -0.875965 0
M  V30 6761 H 657.521 -0.342733 -3.22484 0
M  V30 6762 H 657.306 -2.11551 -3.30134 0
M  V30 6763 H 658.796 -1.36458 -3.94676 0
M  V30 6764 N 659.233 0.902656 -1.29189 0
M  V30 6765 C 660.644 1.46809 -1.15343 0
M  V30 6766 C 660.995 1.94568 0.252517 0
M  V30 6767 O 660.12 1.83454 1.14777 0
M  V30 6768 C 660.715 2.66829 -2.08776 0
M  V30 6769 C 659.274 3.19518 -1.98961 0
M  V30 6770 C 658.421 1.92212 -1.99874 0
M  V30 6771 H 661.372 0.714282 -1.41717 0
M  V30 6772 H 661.393 3.42465 -1.65826 0
M  V30 6773 H 660.905 2.32039 -3.11094 0
M  V30 6774 H 659.006 3.59008 -0.99721 0
M  V30 6775 H 659.119 3.84016 -2.86477 0
M  V30 6776 H 657.483 2.0979 -1.44431 0
M  V30 6777 H 658.266 1.59702 -3.03891 0
M  V30 6778 N 660.711 1.11618 1.11262 0
M  V30 6779 C 661.936 0.889013 1.8738 0
M  V30 6780 C 662.361 -0.555884 1.79698 0
M  V30 6781 O 661.719 -1.39272 1.16073 0
M  V30 6782 C 661.767 1.35759 3.34069 0
M  V30 6783 O 660.871 0.530499 4.08974 0
M  V30 6784 H 660.212 0.320082 0.581759 0
M  V30 6785 H 662.742 1.48611 1.40627 0
M  V30 6786 H 662.752 1.35291 3.84916 0
M  V30 6787 H 661.427 2.40973 3.38976 0
M  V30 6788 H 660.004 0.601439 3.68018 0
M  V30 6789 N 662.189 -1.289 0.906776 0
M  V30 6790 C 663.137 -2.29477 0.379873 0
M  V30 6791 C 664.131 -1.61068 -0.524747 0
M  V30 6792 O 665.337 -1.75344 -0.406765 0
M  V30 6793 H 661.712 -0.744742 0.10423 0
M  V30 6794 H 663.683 -2.71353 1.24137 0
M  V30 6795 C 662.432 -3.45713 -0.371154 0
M  V30 6796 H 661.755 -3.98551 0.315716 0
M  V30 6797 H 663.195 -4.18105 -0.704581 0
M  V30 6798 C 661.654 -2.9774 -1.57646 0
M  V30 6799 O 662.184 -2.99618 -2.67567 0
M  V30 6800 N 660.39 -2.53485 -1.42105 0
M  V30 6801 H 659.937 -2.52156 -0.526783 0
M  V30 6802 H 659.895 -2.21747 -2.22881 0
M  V30 6803 N 663.667 -0.670007 -1.42649 0
M  V30 6804 C 664.915 -0.18991 -2.01206 0
M  V30 6805 C 665.236 1.20617 -1.53221 0
M  V30 6806 O 664.506 1.80898 -0.751856 0
M  V30 6807 H 663.086 -0.0672189 -0.743969 0
M  V30 6808 H 665.748 -0.865442 -1.74631 0
M  V30 6809 H 664.844 -0.187481 -3.11536 0
M  V30 6810 N 665.145 1.52092 -0.413018 0
M  V30 6811 C 666.075 2.30021 0.401567 0
M  V30 6812 C 667.056 1.34395 1.04269 0
M  V30 6813 O 668.241 1.63304 1.05097 0
M  V30 6814 C 665.371 3.12447 1.51638 0
M  V30 6815 C 664.325 4.16153 1.00005 0
M  V30 6816 C 663.651 4.86948 2.20875 0
M  V30 6817 C 664.951 5.22275 0.0513757 0
M  V30 6818 H 666.645 2.98365 -0.248704 0
M  V30 6819 H 664.191 1.4349 -0.121052 0
M  V30 6820 H 666.144 3.65733 2.09326 0
M  V30 6821 H 664.868 2.41879 2.19458 0
M  V30 6822 H 663.527 3.63882 0.445549 0
M  V30 6823 H 663.175 4.12905 2.8726 0
M  V30 6824 H 662.875 5.57057 1.86978 0
M  V30 6825 H 664.399 5.43048 2.79162 0
M  V30 6826 H 665.813 5.70778 0.537176 0
M  V30 6827 H 664.21 5.9977 -0.198977 0
M  V30 6828 H 665.28 4.76611 -0.892736 0
M  V30 6829 N 666.623 0.143563 1.56945 0
M  V30 6830 C 667.848 -0.518701 2.00809 0
M  V30 6831 C 668.273 -1.5785 1.02298 0
M  V30 6832 O 667.631 -1.813 -0.0017839 0
M  V30 6833 C 667.679 -1.09929 3.43436 0
M  V30 6834 O 666.783 -2.21425 3.47915 0
M  V30 6835 H 666.124 -0.127215 0.6517 0
M  V30 6836 H 668.654 0.239283 2.03196 0
M  V30 6837 H 668.664 -1.4288 3.82164 0
M  V30 6838 H 667.339 -0.323162 4.14643 0
M  V30 6839 H 665.916 -1.89728 3.21026 0
M  V30 6840 N 668.101 -1.57061 -0.130224 0
M  V30 6841 C 669.347 -1.8453 -0.841216 0
M  V30 6842 C 669.68 -0.727666 -1.80052 0
M  V30 6843 O 668.955 0.267419 -1.92653 0
M  V30 6844 C 669.238 -3.22553 -1.60099 0
M  V30 6845 C 669.091 -4.44901 -0.662048 0
M  V30 6846 C 670.41 -3.58003 -2.55973 0
M  V30 6847 H 667.529 -0.671215 -0.304366 0
M  V30 6848 H 670.171 -1.89705 -0.105821 0
M  V30 6849 H 668.321 -3.18272 -2.22789 0
M  V30 6850 H 669.993 -4.61278 -0.0448559 0
M  V30 6851 H 668.236 -4.33791 0.0272253 0
M  V30 6852 H 668.907 -5.3812 -1.23006 0
M  V30 6853 H 671.383 -3.63002 -2.03393 0
M  V30 6854 H 670.259 -4.55576 -3.06172 0
M  V30 6855 H 670.52 -2.84833 -3.38116 0
M  V30 6856 N 669.579 0.400081 -1.52437 0
M  V30 6857 C 670.995 0.739359 -1.41441 0
M  V30 6858 C 671.195 1.94512 -0.526053 0
M  V30 6859 O 670.251 2.525 0.00472502 0
M  V30 6860 C 671.564 0.984824 -2.84116 0
M  V30 6861 C 673.112 1.08698 -2.93519 0
M  V30 6862 C 673.587 1.36515 -4.37181 0
M  V30 6863 N 675.078 1.43361 -4.40457 0
M  V30 6864 C 675.813 1.66528 -5.48686 0
M  V30 6865 N 675.309 1.87239 -6.67018 0
M  V30 6866 N 677.102 1.68617 -5.36213 0
M  V30 6867 H 669.253 -0.393484 -2.08723 0
M  V30 6868 H 671.516 -0.1138 -0.941145 0
M  V30 6869 H 671.222 0.171096 -3.51284 0
M  V30 6870 H 671.096 1.90253 -3.25705 0
M  V30 6871 H 673.483 1.89129 -2.26526 0
M  V30 6872 H 673.564 0.147432 -2.55375 0
M  V30 6873 H 673.208 0.565982 -5.04737 0
M  V30 6874 H 673.138 2.31737 -4.7287 0
M  V30 6875 H 675.629 1.29108 -3.55161 0
M  V30 6876 H 675.942 2.04392 -7.45281 0
M  V30 6877 H 674.287 1.84486 -6.70067 0
M  V30 6878 H 677.478 1.5198 -4.42741 0
M  V30 6879 H 677.651 1.86332 -6.20632 0
M  V30 6880 N 671.057 1.43213 0.657864 0
M  V30 6881 C 672.282 1.48227 1.45064 0
M  V30 6882 C 672.707 0.0999939 1.87834 0
M  V30 6883 O 672.065 -0.905269 1.57081 0
M  V30 6884 C 672.113 2.42931 2.6649 0
M  V30 6885 O 671.217 1.91237 3.6538 0
M  V30 6886 H 670.558 0.501551 0.435135 0
M  V30 6887 H 673.088 1.8808 0.805431 0
M  V30 6888 H 673.098 2.6008 3.1436 0
M  V30 6889 H 671.773 3.43348 2.34701 0
M  V30 6890 H 670.35 1.83726 3.24498 0
M  V30 6891 N 672.536 -0.895792 1.29666 0
M  V30 6892 C 673.499 -1.98189 1.15124 0
M  V30 6893 C 674.499 -1.60572 0.0855717 0
M  V30 6894 O 675.689 -1.70991 0.332826 0
M  V30 6895 C 672.821 -3.32289 0.761372 0
M  V30 6896 H 674.014 -2.12518 2.11603 0
M  V30 6897 H 671.567 -1.0808 1.12908 0
M  V30 6898 H 672.302 -3.23662 -0.203393 0
M  V30 6899 H 672.087 -3.60958 1.53139 0
M  V30 6900 H 673.577 -4.1198 0.682792 0
M  V30 6901 N 674.014 -1.12206 -1.10668 0
M  V30 6902 C 674.977 -0.790867 -2.15123 0
M  V30 6903 C 675.977 0.193618 -1.5963 0
M  V30 6904 O 677.167 -0.0318728 -1.74171 0
M  V30 6905 C 674.299 -0.174797 -3.40452 0
M  V30 6906 H 675.492 -1.7163 -2.45933 0
M  V30 6907 H 673.045 -0.924993 -1.2599 0
M  V30 6908 H 673.78 0.760478 -3.15257 0
M  V30 6909 H 673.565 -0.88358 -3.82015 0
M  V30 6910 H 675.055 0.0405162 -4.1758 0
M  V30 6911 N 675.492 1.28418 -0.913599 0
M  V30 6912 C 676.402 2.31043 -0.406965 0
M  V30 6913 C 677.418 1.66501 0.505298 0
M  V30 6914 O 678.594 1.97558 0.391522 0
M  V30 6915 C 675.659 3.4498 0.344901 0
M  V30 6916 C 674.72 4.25078 -0.600563 0
M  V30 6917 C 673.953 5.33575 0.115516 0
M  V30 6918 O 674.176 5.54503 1.33727 0
M  V30 6919 O 673.11 5.9939 -0.549095 0
M  V30 6920 H 676.936 2.76387 -1.25873 0
M  V30 6921 H 674.521 1.33109 -0.678415 0
M  V30 6922 H 676.403 4.14314 0.769542 0
M  V30 6923 H 675.078 3.01719 1.1725 0
M  V30 6924 H 673.985 3.58334 -1.0746 0
M  V30 6925 H 675.318 4.72018 -1.39497 0
M  V30 6926 N 676.97 0.677563 1.42291 0
M  V30 6927 C 677.933 0.0101085 2.29198 0
M  V30 6928 C 678.933 -0.726219 1.43467 0
M  V30 6929 O 680.123 -0.563807 1.64824 0
M  V30 6930 C 677.255 -0.996316 3.26016 0
M  V30 6931 H 678.448 0.775071 2.89711 0
M  V30 6932 H 676.001 0.440065 1.49977 0
M  V30 6933 H 676.736 -1.78967 2.70446 0
M  V30 6934 H 676.521 -0.471687 3.89253 0
M  V30 6935 H 678.011 -1.46167 3.91184 0
M  V30 6936 N 678.448 -1.51871 0.421078 0
M  V30 6937 C 679.694 -2.02237 -0.151014 0
M  V30 6938 C 680.027 -1.30554 -1.43768 0
M  V30 6939 O 679.302 -0.41546 -1.90011 0
M  V30 6940 C 679.585 -3.5802 -0.386482 0
M  V30 6941 C 679.438 -4.40339 0.9177 0
M  V30 6942 C 680.757 -4.24444 -1.16342 0
M  V30 6943 H 677.876 -0.735062 -0.0534102 0
M  V30 6944 H 680.518 -1.81656 0.556888 0
M  V30 6945 H 678.668 -3.75688 -0.989494 0
M  V30 6946 H 680.34 -4.34357 1.55344 0
M  V30 6947 H 678.583 -4.06073 1.526 0
M  V30 6948 H 679.254 -5.47451 0.707187 0
M  V30 6949 H 681.73 -4.10948 -0.652788 0
M  V30 6950 H 680.606 -5.33358 -1.29693 0
M  V30 6951 H 680.867 -3.84204 -2.18724 0
M  V30 6952 N 679.926 -0.151884 -1.56866 0
M  V30 6953 C 680.889 0.771861 -2.15812 0
M  V30 6954 C 681.889 1.17181 -1.10115 0
M  V30 6955 O 683.079 1.09194 -1.35729 0
M  V30 6956 C 680.211 2.04806 -2.7252 0
M  V30 6957 H 681.404 0.259021 -2.98779 0
M  V30 6958 H 678.957 0.097588 -1.55995 0
M  V30 6959 H 679.692 2.60445 -1.93233 0
M  V30 6960 H 679.477 1.77044 -3.49854 0
M  V30 6961 H 680.967 2.70771 -3.1792 0
M  V30 6962 N 681.404 1.57128 0.121893 0
M  V30 6963 C 682.632 1.88883 0.844451 0
M  V30 6964 C 683.047 0.742824 1.73573 0
M  V30 6965 O 682.404 -0.286475 1.80238 0
M  V30 6966 C 682.455 3.20076 1.68029 0
M  V30 6967 O 682.176 4.30264 0.824898 0
M  V30 6968 C 683.677 3.65515 2.50826 0
M  V30 6969 H 680.897 0.62549 0.242907 0
M  V30 6970 H 683.441 2.04219 0.107151 0
M  V30 6971 H 681.596 3.06418 2.37038 0
M  V30 6972 H 682.01 5.05439 1.40113 0
M  V30 6973 H 683.484 4.60081 3.05008 0
M  V30 6974 H 683.961 2.92029 3.28048 0
M  V30 6975 H 684.567 3.81952 1.87064 0
M  V30 6976 N 682.882 -0.391992 1.52647 0
M  V30 6977 C 684.107 -1.16312 1.71716 0
M  V30 6978 C 684.532 -1.83042 0.433279 0
M  V30 6979 O 683.89 -1.70705 -0.610707 0
M  V30 6980 C 683.938 -2.18908 2.86551 0
M  V30 6981 O 683.042 -3.2543 2.53316 0
M  V30 6982 H 682.383 -0.338743 0.571095 0
M  V30 6983 H 684.913 -0.457202 1.99426 0
M  V30 6984 H 684.923 -2.62954 3.1196 0
M  V30 6985 H 683.598 -1.69726 3.79692 0
M  V30 6986 H 682.175 -2.86543 2.38637 0
M  V30 6987 N 684.36 -1.4356 -0.65026 0
M  V30 6988 C 685.606 -1.45549 -1.41221 0
M  V30 6989 C 685.939 -0.0805472 -1.94033 0
M  V30 6990 O 685.214 0.899043 -1.72475 0
M  V30 6991 C 685.497 -2.50028 -2.59148 0
M  V30 6992 C 685.35 -3.96808 -2.1181 0
M  V30 6993 C 686.669 -2.51212 -3.61359 0
M  V30 6994 H 683.788 -0.529967 -0.512156 0
M  V30 6995 H 686.43 -1.75127 -0.736933 0
M  V30 6996 H 684.58 -2.24937 -3.16758 0
M  V30 6997 H 686.252 -4.32966 -1.59178 0
M  V30 6998 H 684.495 -4.09498 -1.43156 0
M  V30 6999 H 685.166 -4.6553 -2.96625 0
M  V30 7000 H 687.642 -2.73583 -3.13515 0
M  V30 7001 H 686.518 -3.26252 -4.41419 0
M  V30 7002 H 686.779 -1.54701 -4.1415 0
M  V30 7003 N 685.838 0.888903 -1.30139 0
M  V30 7004 C 686.768 2.01046 -1.18755 0
M  V30 7005 C 687.749 1.69916 -0.0791438 0
M  V30 7006 O 688.934 1.92445 -0.260498 0
M  V30 7007 C 686.064 3.36109 -0.874518 0
M  V30 7008 C 685.018 3.81486 -1.94043 0
M  V30 7009 C 684.344 5.13796 -1.48047 0
M  V30 7010 C 685.644 4.00637 -3.35093 0
M  V30 7011 H 687.338 2.10828 -2.12584 0
M  V30 7012 H 684.884 1.01298 -1.02346 0
M  V30 7013 H 686.837 4.14089 -0.781548 0
M  V30 7014 H 685.561 3.26449 0.0994519 0
M  V30 7015 H 684.22 3.05731 -2.02297 0
M  V30 7016 H 683.868 5.0056 -0.494878 0
M  V30 7017 H 683.568 5.45127 -2.19341 0
M  V30 7018 H 685.092 5.94305 -1.40121 0
M  V30 7019 H 686.506 4.69067 -3.2962 0
M  V30 7020 H 684.903 4.43339 -4.04438 0
M  V30 7021 H 685.973 3.0462 -3.77273 0
M  V30 7022 N 687.317 1.12792 1.10072 0
M  V30 7023 C 688.545 0.908506 1.85886 0
M  V30 7024 C 688.96 -0.542408 1.80841 0
M  V30 7025 O 688.317 -1.37517 1.1998 0
M  V30 7026 C 688.368 1.37973 3.34134 0
M  V30 7027 O 688.089 2.77378 3.39106 0
M  V30 7028 C 689.59 1.1978 4.26811 0
M  V30 7029 H 686.81 0.3244 0.587372 0
M  V30 7030 H 689.354 1.49882 1.39125 0
M  V30 7031 H 687.509 0.832566 3.78348 0
M  V30 7032 H 687.923 2.98144 4.31521 0
M  V30 7033 H 689.397 1.57635 5.29014 0
M  V30 7034 H 689.874 0.138768 4.38981 0
M  V30 7035 H 690.48 1.73266 3.88406 0
M  V30 7036 N 688.795 -1.27931 0.920396 0
M  V30 7037 C 689.727 -2.26175 0.371169 0
M  V30 7038 C 690.74 -1.55122 -0.494065 0
M  V30 7039 O 691.929 -1.75825 -0.30787 0
M  V30 7040 C 689.029 -3.35376 -0.487481 0
M  V30 7041 C 688.202 -4.35943 0.356772 0
M  V30 7042 C 687.261 -5.24374 -0.438042 0
M  V30 7043 O 686.287 -5.68998 0.151715 0
M  V30 7044 N 687.489 -5.53823 -1.73956 0
M  V30 7045 H 690.254 -2.73938 1.21564 0
M  V30 7046 H 687.815 -1.41482 0.787047 0
M  V30 7047 H 689.807 -3.91476 -1.02609 0
M  V30 7048 H 688.377 -2.87269 -1.23269 0
M  V30 7049 H 687.597 -3.7921 1.07672 0
M  V30 7050 H 688.885 -5.0015 0.934206 0
M  V30 7051 H 688.283 -5.19413 -2.24114 0
M  V30 7052 H 686.84 -6.12653 -2.22486 0
M  V30 7053 N 690.273 -0.685099 -1.4193 0
M  V30 7054 C 691.206 0.0371639 -2.2817 0
M  V30 7055 C 692.184 0.798436 -1.41647 0
M  V30 7056 O 693.368 0.791428 -1.71081 0
M  V30 7057 C 690.495 1.05993 -3.21688 0
M  V30 7058 C 689.541 0.393043 -4.24685 0
M  V30 7059 S 690.374 -0.856921 -5.28599 0
M  V30 7060 C 691.53 0.164508 -6.25684 0
M  V30 7061 H 691.763 -0.694305 -2.89079 0
M  V30 7062 H 689.296 -0.474999 -1.46912 0
M  V30 7063 H 691.254 1.64489 -3.76103 0
M  V30 7064 H 689.915 1.7639 -2.59895 0
M  V30 7065 H 689.108 1.16513 -4.90348 0
M  V30 7066 H 688.71 -0.118589 -3.73812 0
M  V30 7067 H 691.002 1.02106 -6.69762 0
M  V30 7068 H 691.945 -0.457917 -7.06618 0
M  V30 7069 H 692.353 0.514596 -5.6215 0
M  V30 7070 N 691.751 1.51645 -0.429126 0
M  V30 7071 C 692.714 2.26116 0.374726 0
M  V30 7072 C 693.714 1.29242 0.956714 0
M  V30 7073 O 694.904 1.53022 0.832452 0
M  V30 7074 C 692.036 3.04669 1.52937 0
M  V30 7075 H 693.229 2.9861 -0.277818 0
M  V30 7076 H 690.782 1.55236 -0.182097 0
M  V30 7077 H 691.517 2.36571 2.21821 0
M  V30 7078 H 691.302 3.75814 1.11833 0
M  V30 7079 H 692.792 3.61102 2.09751 0
M  V30 7080 N 693.229 0.160201 1.56784 0
M  V30 7081 C 694.454 -0.497373 2.01348 0
M  V30 7082 C 694.879 -1.56757 1.03966 0
M  V30 7083 O 694.237 -1.81292 0.0174455 0
M  V30 7084 C 694.285 -1.0628 3.44582 0
M  V30 7085 O 693.389 -2.17723 3.50244 0
M  V30 7086 H 692.73 -0.120295 0.653012 0
M  V30 7087 H 695.26 0.260821 2.02931 0
M  V30 7088 H 695.27 -1.38819 3.83658 0
M  V30 7089 H 693.945 -0.279166 4.14962 0
M  V30 7090 H 692.522 -1.86313 3.2302 0
M  V30 7091 N 694.707 -1.5719 -0.113559 0
M  V30 7092 C 695.639 -1.97393 -1.16484 0
M  V30 7093 C 696.652 -0.873964 -1.37352 0
M  V30 7094 O 697.841 -1.15222 -1.36331 0
M  V30 7095 C 694.941 -2.26174 -2.52386 0
M  V30 7096 C 694.114 -3.57479 -2.52046 0
M  V30 7097 C 693.173 -3.74409 -3.69735 0
M  V30 7098 O 692.199 -4.46463 -3.53071 0
M  V30 7099 N 693.401 -3.13588 -4.88511 0
M  V30 7100 H 696.166 -2.88184 -0.822814 0
M  V30 7101 H 693.727 -1.59044 -0.302769 0
M  V30 7102 H 695.719 -2.3471 -3.29687 0
M  V30 7103 H 694.289 -1.41483 -2.7875 0
M  V30 7104 H 693.509 -3.60081 -1.60421 0
M  V30 7105 H 694.797 -4.43775 -2.48881 0
M  V30 7106 H 694.195 -2.55026 -5.04953 0
M  V30 7107 H 692.752 -3.27637 -5.63469 0
M  V30 7108 N 696.185 0.383891 -1.52853 0
M  V30 7109 C 697.601 0.724316 -1.42218 0
M  V30 7110 C 697.801 1.93943 -0.546654 0
M  V30 7111 O 696.857 2.5249 -0.0220562 0
M  V30 7112 C 698.17 0.954635 -2.85144 0
M  V30 7113 C 699.718 1.05579 -2.94656 0
M  V30 7114 C 700.193 1.3187 -4.38605 0
M  V30 7115 N 701.684 1.38681 -4.41952 0
M  V30 7116 C 702.419 1.60699 -5.50421 0
M  V30 7117 N 701.915 1.80154 -6.68967 0
M  V30 7118 N 703.708 1.6292 -5.37972 0
M  V30 7119 H 695.859 -0.4156 -2.08294 0
M  V30 7120 H 698.122 -0.123776 -0.939885 0
M  V30 7121 H 697.828 0.133829 -3.51445 0
M  V30 7122 H 697.702 1.86788 -3.27704 0
M  V30 7123 H 700.089 1.86716 -2.2852 0
M  V30 7124 H 700.17 0.120338 -2.55517 0
M  V30 7125 H 699.814 0.512416 -5.05309 0
M  V30 7126 H 699.744 2.26708 -4.75301 0
M  V30 7127 H 702.235 1.25334 -3.56511 0
M  V30 7128 H 702.548 1.96476 -7.47407 0
M  V30 7129 H 700.893 1.77368 -6.71986 0
M  V30 7130 H 704.084 1.47276 -4.44328 0
M  V30 7131 H 704.257 1.79739 -6.22574 0
M  V30 7132 N 697.663 1.43903 0.642637 0
M  V30 7133 C 698.891 1.4954 1.42988 0
M  V30 7134 C 699.306 0.116588 1.8844 0
M  V30 7135 O 698.663 -0.875285 1.60141 0
M  V30 7136 C 698.714 2.45031 2.65785 0
M  V30 7137 O 698.435 3.77551 2.22232 0
M  V30 7138 C 699.936 2.60017 3.59035 0
M  V30 7139 H 697.156 0.507544 0.438907 0
M  V30 7140 H 699.7 1.88752 0.786942 0
M  V30 7141 H 697.855 2.08985 3.26196 0
M  V30 7142 H 698.269 4.29001 3.01759 0
M  V30 7143 H 699.743 3.30887 4.41835 0
M  V30 7144 H 700.22 1.64861 4.07084 0
M  V30 7145 H 700.826 2.96918 3.045 0
M  V30 7146 N 699.141 -0.881989 1.30609 0
M  V30 7147 C 700.051 -2.02076 1.19174 0
M  V30 7148 C 701.067 -1.73645 0.11102 0
M  V30 7149 O 702.243 -1.98735 0.326528 0
M  V30 7150 C 699.308 -3.3515 0.887438 0
M  V30 7151 C 698.369 -3.76983 2.05383 0
M  V30 7152 C 697.602 -5.03707 1.76395 0
M  V30 7153 O 697.825 -5.66171 0.693302 0
M  V30 7154 O 696.759 -5.42019 2.61723 0
M  V30 7155 H 700.585 -2.14652 2.14845 0
M  V30 7156 H 698.17 -1.00843 1.10232 0
M  V30 7157 H 700.052 -4.14975 0.73306 0
M  V30 7158 H 698.727 -3.23676 -0.0393354 0
M  V30 7159 H 697.634 -2.97849 2.26355 0
M  V30 7160 H 698.967 -3.93066 2.96243 0
M  V30 7161 N 700.619 -1.13374 -1.09472 0
M  V30 7162 C 701.549 -0.833268 -2.18126 0
M  V30 7163 C 702.53 0.207169 -1.68834 0
M  V30 7164 O 703.715 0.0662012 -1.94087 0
M  V30 7165 C 700.845 -0.297979 -3.46019 0
M  V30 7166 C 699.799 -1.27261 -4.08642 0
M  V30 7167 C 699.125 -0.597104 -5.31356 0
M  V30 7168 C 700.425 -2.63095 -4.51197 0
M  V30 7169 H 702.119 -1.74182 -2.43518 0
M  V30 7170 H 699.665 -0.838921 -1.17039 0
M  V30 7171 H 701.618 -0.0754444 -4.21332 0
M  V30 7172 H 700.342 0.645959 -3.20148 0
M  V30 7173 H 699.001 -1.48113 -3.35348 0
M  V30 7174 H 698.649 0.352293 -5.01765 0
M  V30 7175 H 698.349 -1.24734 -5.74208 0
M  V30 7176 H 699.873 -0.38384 -6.09392 0
M  V30 7177 H 701.287 -2.46214 -5.17737 0
M  V30 7178 H 699.684 -3.2429 -5.04932 0
M  V30 7179 H 700.754 -3.20793 -3.6362 0
M  V30 7180 N 702.098 1.27442 -0.927168 0
M  V30 7181 C 703.323 1.99036 -0.583042 0
M  V30 7182 C 703.748 1.68711 0.83176 0
M  V30 7183 O 703.106 0.927081 1.55804 0
M  V30 7184 C 703.154 3.51271 -0.814925 0
M  V30 7185 O 702.258 4.12226 0.119742 0
M  V30 7186 H 701.599 0.624883 -0.224538 0
M  V30 7187 H 704.129 1.62263 -1.24628 0
M  V30 7188 H 704.139 4.01411 -0.730282 0
M  V30 7189 H 702.814 3.72676 -1.84623 0
M  V30 7190 H 701.391 3.72897 -0.0147688 0
M  V30 7191 N 703.576 0.692616 1.41565 0
M  V30 7192 C 704.509 -0.025063 2.28186 0
M  V30 7193 C 705.487 -0.790912 1.42068 0
M  V30 7194 O 706.671 -0.782344 1.71498 0
M  V30 7195 C 703.798 -1.04285 3.22246 0
M  V30 7196 C 702.844 -0.370515 4.24888 0
M  V30 7197 S 703.677 0.884942 5.28137 0
M  V30 7198 C 704.833 -0.131324 6.25762 0
M  V30 7199 H 705.066 0.709626 2.88707 0
M  V30 7200 H 702.599 0.482783 1.46658 0
M  V30 7201 H 704.557 -1.62493 3.7697 0
M  V30 7202 H 703.218 -1.7501 2.60827 0
M  V30 7203 H 702.411 -1.13911 4.90959 0
M  V30 7204 H 702.013 0.138411 3.73744 0
M  V30 7205 H 704.305 -0.985527 6.70294 0
M  V30 7206 H 705.248 0.495384 7.06365 0
M  V30 7207 H 705.656 -0.484777 5.62415 0
M  V30 7208 N 705.054 -1.51416 0.437162 0
M  V30 7209 C 706.465 -1.86682 -0.0260005 0
M  V30 7210 C 706.816 -1.35432 -1.4196 0
M  V30 7211 O 705.941 -0.705055 -2.04592 0
M  V30 7212 C 706.536 -3.38757 -0.0539577 0
M  V30 7213 C 705.095 -3.7356 -0.461532 0
M  V30 7214 C 704.242 -2.75134 0.345924 0
M  V30 7215 H 707.193 -1.44642 0.653013 0
M  V30 7216 H 707.214 -3.70573 -0.863478 0
M  V30 7217 H 706.726 -3.76028 0.96045 0
M  V30 7218 H 704.827 -3.41878 -1.48155 0
M  V30 7219 H 704.94 -4.78737 -0.186451 0
M  V30 7220 H 703.304 -2.53947 -0.195739 0
M  V30 7221 H 704.087 -3.15247 1.35921 0
M  V30 7222 N 706.532 -0.168513 -1.56696 0
M  V30 7223 C 707.781 0.477233 -1.95973 0
M  V30 7224 C 708.094 1.64578 -1.05704 0
M  V30 7225 O 709.3 2.35758 -1.3465 0
M  V30 7226 C 707.756 0.900413 -3.48455 0
M  V30 7227 C 707.364 -0.242382 -4.47344 0
M  V30 7228 C 709.108 1.51474 -3.96555 0
M  V30 7229 C 707.015 0.200272 -5.91061 0
M  V30 7230 H 705.945 0.182061 -0.73169 0
M  V30 7231 H 708.596 -0.256297 -1.81701 0
M  V30 7232 H 706.978 1.68984 -3.58135 0
M  V30 7233 H 708.152 -1.01967 -4.49377 0
M  V30 7234 H 706.467 -0.766484 -4.09285 0
M  V30 7235 H 709.064 1.85792 -5.01384 0
M  V30 7236 H 709.407 2.41163 -3.39332 0
M  V30 7237 H 709.94 0.789802 -3.89881 0
M  V30 7238 H 706.679 -0.661775 -6.52151 0
M  V30 7239 H 706.199 0.942979 -5.92341 0
M  V30 7240 H 707.878 0.645088 -6.43776 0
M  V30 7241 N 708.01 1.57248 0.105221 0
M  V30 7242 C 708.942 1.98008 1.15436 0
M  V30 7243 C 709.955 0.881236 1.36887 0
M  V30 7244 O 711.144 1.15943 1.35718 0
M  V30 7245 C 708.244 2.27509 2.51183 0
M  V30 7246 C 707.417 3.58811 2.50147 0
M  V30 7247 C 706.476 3.76365 3.67745 0
M  V30 7248 O 705.502 4.48329 3.50699 0
M  V30 7249 N 706.704 3.16174 4.86841 0
M  V30 7250 H 709.469 2.88616 0.807519 0
M  V30 7251 H 707.03 1.59202 0.29433 0
M  V30 7252 H 709.022 2.36455 3.28438 0
M  V30 7253 H 707.592 1.42959 2.77995 0
M  V30 7254 H 706.812 3.60927 1.5851 0
M  V30 7255 H 708.1 4.45088 2.46524 0
M  V30 7256 H 707.498 2.57701 5.03594 0
M  V30 7257 H 706.055 3.30621 5.61723 0
M  V30 7258 N 709.488 -0.375779 1.53054 0
M  V30 7259 C 710.713 -1.14484 1.7294 0
M  V30 7260 C 711.138 -1.82572 0.452668 0
M  V30 7261 O 710.496 -1.71343 -0.592567 0
M  V30 7262 C 710.544 -2.15857 2.88857 0
M  V30 7263 O 709.648 -3.22725 2.56753 0
M  V30 7264 H 708.989 -0.332666 0.574656 0
M  V30 7265 H 711.519 -0.436025 1.999 0
M  V30 7266 H 711.529 -2.59631 3.14731 0
M  V30 7267 H 710.204 -1.65689 3.81471 0
M  V30 7268 H 708.781 -2.83996 2.41663 0
M  V30 7269 N 710.966 -1.44241 -0.634997 0
M  V30 7270 C 711.916 -1.47247 -1.74076 0
M  V30 7271 C 712.9 -0.338708 -1.57295 0
M  V30 7272 O 714.092 -0.583751 -1.67097 0
M  V30 7273 C 711.221 -1.41579 -3.12746 0
M  V30 7274 C 710.307 -2.60055 -3.35011 0
M  V30 7275 N 710.698 -3.85321 -3.27661 0
M  V30 7276 C 708.996 -2.55168 -3.65794 0
M  V30 7277 C 709.697 -4.64241 -3.50508 0
M  V30 7278 N 708.673 -3.95254 -3.73196 0
M  V30 7279 H 712.475 -2.4195 -1.66845 0
M  V30 7280 H 709.989 -1.3915 -0.837326 0
M  V30 7281 H 711.986 -1.41816 -3.92038 0
M  V30 7282 H 710.646 -0.479108 -3.21146 0
M  V30 7283 H 711.657 -4.17345 -3.06665 0
M  V30 7284 H 708.334 -1.70276 -3.81198 0
M  V30 7285 H 709.724 -5.73267 -3.50449 0
M  V30 7286 N 712.444 0.87505 -1.31075 0
M  V30 7287 C 713.69 1.63009 -1.20647 0
M  V30 7288 C 714.023 1.9276 0.236045 0
M  V30 7289 O 713.298 1.55559 1.16754 0
M  V30 7290 C 713.581 2.96357 -2.0456 0
M  V30 7291 C 713.434 2.73516 -3.57084 0
M  V30 7292 C 714.753 3.974 -1.89107 0
M  V30 7293 H 711.872 0.591518 -0.439631 0
M  V30 7294 H 714.514 1.0119 -1.60812 0
M  V30 7295 H 712.664 3.49119 -1.70435 0
M  V30 7296 H 714.336 2.27465 -4.01319 0
M  V30 7297 H 712.579 2.0784 -3.80769 0
M  V30 7298 H 713.25 3.68377 -4.11099 0
M  V30 7299 H 715.726 3.5383 -2.18961 0
M  V30 7300 H 714.602 4.88596 -2.5013 0
M  V30 7301 H 714.863 4.33794 -0.85296 0
M  V30 7302 N 713.922 1.13953 1.08869 0
M  V30 7303 C 715.171 0.899431 1.80536 0
M  V30 7304 C 715.484 -0.575781 1.86933 0
M  V30 7305 O 716.69 -0.932988 2.54966 0
M  V30 7306 C 715.146 1.55963 3.24351 0
M  V30 7307 C 714.754 3.07077 3.26202 0
M  V30 7308 C 716.498 1.40046 4.00733 0
M  V30 7309 C 714.405 3.65955 4.64576 0
M  V30 7310 H 713.335 0.332849 0.676556 0
M  V30 7311 H 715.986 1.3679 1.22314 0
M  V30 7312 H 714.368 1.01883 3.82669 0
M  V30 7313 H 715.542 3.67785 2.77617 0
M  V30 7314 H 713.857 3.22576 2.63312 0
M  V30 7315 H 716.454 1.81441 5.02974 0
M  V30 7316 H 716.797 0.345993 4.1486 0
M  V30 7317 H 717.33 1.91137 3.48872 0
M  V30 7318 H 714.069 4.71234 4.55652 0
M  V30 7319 H 713.589 3.10027 5.13462 0
M  V30 7320 H 715.268 3.65968 5.33551 0
M  V30 7321 N 715.4 -1.26948 0.933913 0
M  V30 7322 C 716.333 -2.24977 0.382169 0
M  V30 7323 C 717.311 -1.53893 -0.524949 0
M  V30 7324 O 718.495 -1.82699 -0.464048 0
M  V30 7325 C 715.622 -3.35676 -0.451615 0
M  V30 7326 C 714.668 -4.24686 0.392947 0
M  V30 7327 S 715.501 -5.03898 1.81237 0
M  V30 7328 C 716.657 -6.18078 0.986443 0
M  V30 7329 H 716.89 -2.71429 1.21299 0
M  V30 7330 H 714.423 -1.35701 0.736523 0
M  V30 7331 H 716.381 -3.99901 -0.926797 0
M  V30 7332 H 715.042 -2.8785 -1.25703 0
M  V30 7333 H 714.235 -5.03402 -0.245533 0
M  V30 7334 H 713.837 -3.65288 0.802537 0
M  V30 7335 H 716.129 -6.77125 0.225321 0
M  V30 7336 H 717.072 -6.86216 1.74682 0
M  V30 7337 H 717.48 -5.62047 0.525711 0
M  V30 7338 N 716.879 -0.700114 -1.41195 0
M  V30 7339 C 718.107 -0.242179 -2.05478 0
M  V30 7340 C 718.522 1.11029 -1.52702 0
M  V30 7341 O 717.879 1.69473 -0.677127 0
M  V30 7342 C 717.93 -0.196271 -3.60967 0
M  V30 7343 O 717.651 -1.49532 -4.11791 0
M  V30 7344 C 719.152 0.282102 -4.42401 0
M  V30 7345 H 716.372 -0.111749 -0.661629 0
M  V30 7346 H 718.916 -0.953975 -1.80885 0
M  V30 7347 H 717.071 0.46638 -3.84582 0
M  V30 7348 H 717.485 -1.38545 -5.05871 0
M  V30 7349 H 718.959 0.263093 -5.51373 0
M  V30 7350 H 719.436 1.32174 -4.1884 0
M  V30 7351 H 720.042 -0.349712 -4.2386 0
M  V30 7352 N 718.357 1.51182 -0.445186 0
M  V30 7353 C 719.768 1.86693 0.0160999 0
M  V30 7354 C 720.119 1.36183 1.4124 0
M  V30 7355 O 719.244 0.715895 2.04215 0
M  V30 7356 C 719.839 3.38781 0.0359918 0
M  V30 7357 C 718.398 3.73799 0.441715 0
M  V30 7358 C 717.545 2.74947 -0.360511 0
M  V30 7359 H 720.496 1.44294 -0.660674 0
M  V30 7360 H 720.517 3.71026 0.843813 0
M  V30 7361 H 720.029 3.75513 -0.980378 0
M  V30 7362 H 718.13 3.42659 1.4634 0
M  V30 7363 H 718.243 4.78829 0.16106 0
M  V30 7364 H 716.607 2.54047 0.182269 0
M  V30 7365 H 717.39 3.14521 -1.3759 0
M  V30 7366 N 719.835 0.176821 1.56605 0
M  V30 7367 C 720.767 -0.782836 2.15417 0
M  V30 7368 C 721.78 -1.18982 1.11117 0
M  V30 7369 O 722.969 -1.12872 1.38283 0
M  V30 7370 C 720.069 -2.06596 2.68647 0
M  V30 7371 C 719.242 -1.82167 3.9766 0
M  V30 7372 C 718.301 -2.94751 4.35899 0
M  V30 7373 O 717.327 -2.65148 5.03672 0
M  V30 7374 N 718.529 -4.2267 3.97907 0
M  V30 7375 H 721.294 -0.280012 2.98389 0
M  V30 7376 H 718.855 -0.00577529 1.61899 0
M  V30 7377 H 720.847 -2.81018 2.91223 0
M  V30 7378 H 719.417 -2.48054 1.90232 0
M  V30 7379 H 718.637 -0.916208 3.83405 0
M  V30 7380 H 719.925 -1.6322 4.81909 0
M  V30 7381 H 719.323 -4.4958 3.43357 0
M  V30 7382 H 717.88 -4.93778 4.25472 0
M  V30 7383 N 721.313 -1.57302 -0.09688 0
M  V30 7384 C 722.538 -1.9058 -0.818169 0
M  V30 7385 C 722.963 -0.770921 -1.71576 0
M  V30 7386 O 722.321 0.277588 -1.79162 0
M  V30 7387 C 722.369 -3.22714 -1.60898 0
M  V30 7388 O 721.473 -3.10178 -2.71779 0
M  V30 7389 H 720.814 -0.624759 -0.224882 0
M  V30 7390 H 723.344 -2.04471 -0.07264 0
M  V30 7391 H 723.354 -3.55978 -1.99358 0
M  V30 7392 H 722.029 -4.04899 -0.950227 0
M  V30 7393 H 720.606 -2.88424 -2.3636 0
M  V30 7394 N 722.791 0.367657 -1.53252 0
M  V30 7395 C 723.723 1.47032 -1.75824 0
M  V30 7396 C 724.736 1.49736 -0.63898 0
M  V30 7397 O 725.925 1.53253 -0.915193 0
M  V30 7398 C 723.025 2.85805 -1.82122 0
M  V30 7399 C 722.198 3.06822 -3.11736 0
M  V30 7400 C 721.257 4.25698 -3.09302 0
M  V30 7401 O 720.283 4.20972 -3.83107 0
M  V30 7402 N 721.485 5.33002 -2.29977 0
M  V30 7403 H 724.25 1.28048 -2.70968 0
M  V30 7404 H 721.811 0.557363 -1.52004 0
M  V30 7405 H 723.803 3.63465 -1.77975 0
M  V30 7406 H 722.373 2.98046 -0.942716 0
M  V30 7407 H 721.593 2.1684 -3.29202 0
M  V30 7408 H 722.881 3.17731 -3.97397 0
M  V30 7409 H 722.279 5.39703 -1.69521 0
M  V30 7410 H 720.836 6.09247 -2.3165 0
M  V30 7411 N 724.269 1.44576 0.627338 0
M  V30 7412 C 725.494 1.51271 1.41887 0
M  V30 7413 C 725.919 0.139814 1.8758 0
M  V30 7414 O 725.277 -0.871746 1.58966 0
M  V30 7415 C 725.325 2.48529 2.61277 0
M  V30 7416 O 724.429 1.98944 3.61241 0
M  V30 7417 H 723.77 0.510668 0.424399 0
M  V30 7418 H 726.3 1.89746 0.765356 0
M  V30 7419 H 726.31 2.66689 3.08773 0
M  V30 7420 H 724.985 3.48249 2.27366 0
M  V30 7421 H 723.562 1.90568 3.20528 0
M  V30 7422 N 725.747 -0.868086 1.31537 0
M  V30 7423 C 726.71 -1.95703 1.19302 0
M  V30 7424 C 727.71 -1.60355 0.119612 0
M  V30 7425 O 728.9 -1.70247 0.36902 0
M  V30 7426 C 726.032 -3.30599 0.831684 0
M  V30 7427 H 727.225 -2.07982 2.16064 0
M  V30 7428 H 724.778 -1.05661 1.15176 0
M  V30 7429 H 725.513 -3.2402 -0.134694 0
M  V30 7430 H 725.298 -3.57629 1.60761 0
M  V30 7431 H 726.788 -4.10439 0.770026 0
M  V30 7432 N 727.225 -1.14528 -1.08264 0
M  V30 7433 C 728.473 -0.912599 -1.80322 0
M  V30 7434 C 728.794 0.562256 -1.86718 0
M  V30 7435 O 728.064 1.40869 -1.36135 0
M  V30 7436 H 726.644 -0.334645 -0.667849 0
M  V30 7437 H 729.306 -1.44415 -1.30883 0
M  V30 7438 H 728.402 -1.31384 -2.83098 0
M  V30 7439 N 728.703 1.26451 -0.940633 0
M  V30 7440 C 730.119 1.4608 -0.642859 0
M  V30 7441 C 730.319 1.84765 0.803998 0
M  V30 7442 O 729.375 1.96902 1.58069 0
M  V30 7443 C 730.688 2.54359 -1.60381 0
M  V30 7444 C 732.236 2.6821 -1.61345 0
M  V30 7445 C 732.711 3.79659 -2.56169 0
M  V30 7446 N 734.202 3.87051 -2.54452 0
M  V30 7447 C 734.937 4.72739 -3.24507 0
M  V30 7448 N 734.433 5.6282 -4.03987 0
M  V30 7449 N 736.226 4.66581 -3.13462 0
M  V30 7450 H 728.377 0.996289 -1.87584 0
M  V30 7451 H 730.64 0.498921 -0.80609 0
M  V30 7452 H 730.346 2.32758 -2.6366 0
M  V30 7453 H 730.22 3.52005 -1.35545 0
M  V30 7454 H 732.607 2.89184 -0.587913 0
M  V30 7455 H 732.688 1.7101 -1.90235 0
M  V30 7456 H 732.332 3.59438 -3.58841 0
M  V30 7457 H 732.262 4.76315 -2.2457 0
M  V30 7458 H 734.753 3.22649 -1.96739 0
M  V30 7459 H 735.066 6.25095 -4.54396 0
M  V30 7460 H 733.411 5.62574 -4.08088 0
M  V30 7461 H 736.602 3.9521 -2.50852 0
M  V30 7462 H 736.775 5.33141 -3.68327 0
M  V30 7463 O 730.22 0.846016 1.37567 0
M  V30 7464 H 730.911 0.436618 1.88715 0
M  V30 END ATOM
M  V30 BEGIN BOND
M  V30 END BOND
M  V30 END CTAB
M  END
$$$$
