drugbank_target|P17538 Chymotrypsinogen B (DB01662; DB01704; DB01963; DB03976; DB06692; DB07380; DB07383; DB07668; DB07749; DB07899; DB08119; DB08374; DB08565; DB08566; DB08692; DB08693)
 OpenBabel12092120343D

  0  0  0     0  0            999 V3000
M  V30 BEGIN CTAB
M  V30 COUNTS 3906 3952 0 0 0
M  V30 BEGIN ATOM
M  V30 1 H -0.908 1.98254 -0.117106 0
M  V30 2 N 0 1.576 0 0
M  V30 3 C 0.933 2.03868 1.02534 0
M  V30 4 C 1.911 0.928543 1.3348 0
M  V30 5 O 3.095 1.19667 1.45644 0
M  V30 6 C 0.222 2.43627 2.35294 0
M  V30 7 C -0.732 3.65373 2.2001 0
M  V30 8 S 0.101 5.13292 1.52614 0
M  V30 9 C 1.257 5.56322 2.86805 0
M  V30 10 H 1.49 2.90518 0.631377 0
M  V30 11 H -0.977 1.52953 0.210867 0
M  V30 12 H 0.981 2.67203 3.11629 0
M  V30 13 H -0.358 1.57376 2.7183 0
M  V30 14 H -1.165 3.90944 3.18086 0
M  V30 15 H -1.563 3.418 1.51819 0
M  V30 16 H 0.729 5.58782 3.83104 0
M  V30 17 H 1.672 6.56266 2.65933 0
M  V30 18 H 2.08 4.83886 2.90714 0
M  V30 19 N 1.4781 -0.272755 1.55222 0
M  V30 20 C 2.4411 -1.32041 1.87344 0
M  V30 21 C 3.4411 -1.42342 0.74803 0
M  V30 22 O 4.6311 -1.41488 1.0162 0
M  V30 23 C 1.7631 -2.70173 2.07893 0
M  V30 24 H 2.9561 -1.04789 2.80997 0
M  V30 25 H 0.5091 -0.51083 1.47717 0
M  V30 26 H 1.2441 -3.02605 1.16622 0
M  V30 27 H 1.0291 -2.64082 2.89833 0
M  V30 28 H 2.5191 -3.45869 2.34017 0
M  V30 29 N 2.9562 -1.48159 -0.537278 0
M  V30 30 C 4.2032 -1.55804 -1.29349 0
M  V30 31 C 4.5312 -0.228802 -1.9315 0
M  V30 32 O 3.7862 0.780242 -1.79473 0
M  V30 33 C 4.0852 -2.63956 -2.40961 0
M  V30 34 C 3.7512 -4.0662 -1.94861 0
M  V30 35 C 2.4132 -4.45452 -1.82006 0
M  V30 36 C 4.7652 -4.96055 -1.59933 0
M  V30 37 C 2.0932 -5.71531 -1.32547 0
M  V30 38 C 4.4452 -6.22617 -1.11939 0
M  V30 39 C 3.1092 -6.60312 -0.976951 0
M  V30 40 H 2.3792 -0.570129 -0.473322 0
M  V30 41 H 5.0262 -1.81845 -0.600372 0
M  V30 42 H 3.3312 -2.31747 -3.15912 0
M  V30 43 H 5.0282 -2.67089 -2.99107 0
M  V30 44 H 1.6182 -3.75949 -2.05815 0
M  V30 45 H 5.8022 -4.66738 -1.68728 0
M  V30 46 H 1.0582 -5.99468 -1.202 0
M  V30 47 H 5.2322 -6.91318 -0.839811 0
M  V30 48 H 2.8592 -7.57895 -0.591501 0
M  V30 49 N 4.4343 0.785586 -1.36625 0
M  V30 50 C 5.3643 1.91259 -1.33949 0
M  V30 51 C 6.3453 1.68795 -0.210325 0
M  V30 52 O 7.5303 1.89854 -0.408561 0
M  V30 53 C 4.6603 3.28339 -1.13186 0
M  V30 54 C 3.6143 3.65335 -2.22967 0
M  V30 55 C 2.9403 5.00806 -1.87342 0
M  V30 56 C 4.2403 3.7352 -3.65075 0
M  V30 57 H 5.9343 1.93755 -2.28253 0
M  V30 58 H 3.4803 0.930788 -1.09874 0
M  V30 59 H 5.4333 4.06804 -1.09948 0
M  V30 60 H 4.1573 3.2624 -0.153332 0
M  V30 61 H 2.8163 2.89169 -2.25337 0
M  V30 62 H 2.4643 4.95233 -0.880545 0
M  V30 63 H 2.1643 5.26529 -2.60846 0
M  V30 64 H 3.6883 5.81687 -1.85667 0
M  V30 65 H 5.1023 4.42168 -3.64911 0
M  V30 66 H 3.4993 4.10731 -4.37516 0
M  V30 67 H 4.5693 2.74527 -3.99703 0
M  V30 68 N 5.9124 1.20967 1.01018 0
M  V30 69 C 7.1584 1.0353 1.7508 0
M  V30 70 C 7.5134 -0.42734 1.87594 0
M  V30 71 O 6.8064 -1.31298 1.3954 0
M  V30 72 C 7.0004 1.65997 3.16512 0
M  V30 73 C 6.8294 3.18184 3.17788 0
M  V30 74 C 5.5994 3.87198 3.24662 0
M  V30 75 C 7.7974 4.15334 3.03319 0
M  V30 76 N 5.7794 5.26618 3.15509 0
M  V30 77 C 7.1504 5.41472 3.02007 0
M  V30 78 C 9.2054 4.06449 2.87583 0
M  V30 79 C 7.9084 6.5975 2.86571 0
M  V30 80 C 9.9344 5.24357 2.73503 0
M  V30 81 C 9.2964 6.49404 2.72862 0
M  V30 82 H 5.3954 0.433137 0.651089 0
M  V30 83 H 7.9794 1.5324 1.20107 0
M  V30 84 H 6.1504 1.18863 3.69765 0
M  V30 85 H 7.8824 1.41816 3.79039 0
M  V30 86 H 4.6374 3.38093 3.31648 0
M  V30 87 H 5.0614 5.99626 3.14289 0
M  V30 88 H 9.7034 3.10573 2.86887 0
M  V30 89 H 7.4214 7.55792 2.86015 0
M  V30 90 H 11.0074 5.19299 2.62334 0
M  V30 91 H 9.8874 7.39105 2.62093 0
M  V30 92 N 7.3905 -1.2043 1.01659 0
M  V30 93 C 8.3205 -2.25466 0.607226 0
M  V30 94 C 9.3015 -1.65853 -0.377716 0
M  V30 95 O 10.4865 -1.92409 -0.263149 0
M  V30 96 C 7.6165 -3.47256 -0.0552949 0
M  V30 97 C 6.5705 -4.19462 0.850632 0
M  V30 98 C 5.8965 -5.34673 0.0538859 0
M  V30 99 C 7.1965 -4.75603 2.15868 0
M  V30 100 H 8.8905 -2.59962 1.48526 0
M  V30 101 H 6.4365 -1.2496 0.715605 0
M  V30 102 H 8.3895 -4.19917 -0.353233 0
M  V30 103 H 7.1135 -3.11924 -0.968045 0
M  V30 104 H 5.7725 -3.48667 1.13257 0
M  V30 105 H 5.4205 -4.95585 -0.860514 0
M  V30 106 H 5.1205 -5.83913 0.657192 0
M  V30 107 H 6.6445 -6.10138 -0.237598 0
M  V30 108 H 8.0585 -5.40083 1.92311 0
M  V30 109 H 6.4555 -5.3528 2.71284 0
M  V30 110 H 7.5255 -3.94346 2.82169 0
M  V30 111 N 8.8686 -0.792821 -1.36206 0
M  V30 112 C 9.7986 -0.207853 -2.32573 0
M  V30 113 C 10.7796 0.659055 -1.56813 0
M  V30 114 O 11.9646 0.592176 -1.84951 0
M  V30 115 C 9.0946 0.655449 -3.41059 0
M  V30 116 C 8.0486 -0.111842 -4.27854 0
M  V30 117 C 7.3746 0.872274 -5.27537 0
M  V30 118 C 8.6746 -1.30299 -5.05786 0
M  V30 119 H 10.3686 -1.01294 -2.81744 0
M  V30 120 H 7.9146 -0.48854 -1.3546 0
M  V30 121 H 9.8676 1.07464 -4.07467 0
M  V30 122 H 8.5916 1.49328 -2.90463 0
M  V30 123 H 7.2506 -0.512053 -3.63006 0
M  V30 124 H 6.8986 1.70523 -4.73214 0
M  V30 125 H 6.5986 0.363291 -5.86476 0
M  V30 126 H 8.1226 1.28996 -5.96818 0
M  V30 127 H 9.5366 -0.959379 -5.65216 0
M  V30 128 H 7.9336 -1.7455 -5.74154 0
M  V30 129 H 9.0036 -2.09663 -4.37229 0
M  V30 130 N 10.3467 1.47872 -0.545128 0
M  V30 131 C 11.5717 2.07391 -0.0190611 0
M  V30 132 C 11.9967 1.39688 1.25971 0
M  V30 133 O 11.3547 0.467816 1.7516 0
M  V30 134 C 11.4027 3.60188 0.172335 0
M  V30 135 O 10.5067 3.9339 1.23766 0
M  V30 136 H 9.8477 0.662411 -0.0459059 0
M  V30 137 H 12.3777 1.90066 -0.757365 0
M  V30 138 H 12.3877 4.06129 0.390305 0
M  V30 139 H 11.0627 4.08865 -0.761725 0
M  V30 140 H 9.6397 3.5921 1.00114 0
M  V30 141 N 11.8248 0.280983 1.55075 0
M  V30 142 C 13.0648 -0.335234 2.01632 0
M  V30 143 C 13.4288 -1.5261 1.16508 0
M  V30 144 O 14.6298 -2.21235 1.52672 0
M  V30 145 C 12.9008 -0.702172 3.50434 0
M  V30 146 S 14.4598 -1.30409 4.18974 0
M  V30 147 H 11.2778 -0.103967 0.703358 0
M  V30 148 H 13.8798 0.404187 1.91276 0
M  V30 149 H 12.5838 0.17333 4.10034 0
M  V30 150 H 12.1148 -1.4729 3.64786 0
M  V30 151 H 14.1298 -2.59253 4.23087 0
M  V30 152 N 13.3029 -1.57598 0.00835791 0
M  V30 153 C 14.5489 -1.92046 -0.670055 0
M  V30 154 C 14.9039 -0.88351 -1.70915 0
M  V30 155 O 14.1969 0.103223 -1.91322 0
M  V30 156 C 14.3909 -3.3101 -1.34787 0
M  V30 157 C 14.2199 -4.48126 -0.375945 0
M  V30 158 C 12.9899 -5.05297 0.0166914 0
M  V30 159 C 15.1879 -5.1303 0.361272 0
M  V30 160 N 13.1699 -6.05931 0.985952 0
M  V30 161 C 14.5409 -6.08571 1.18495 0
M  V30 162 C 16.5959 -4.9609 0.42421 0
M  V30 163 C 15.2989 -6.88996 2.06584 0
M  V30 164 C 17.3249 -5.77107 1.29236 0
M  V30 165 C 16.6869 -6.72248 2.10386 0
M  V30 166 H 12.7859 -0.75096 -0.218136 0
M  V30 167 H 15.3699 -1.94572 0.0706669 0
M  V30 168 H 13.5409 -3.29342 -2.05884 0
M  V30 169 H 15.2729 -3.52864 -1.98164 0
M  V30 170 H 12.0279 -4.72279 -0.353435 0
M  V30 171 H 12.4519 -6.60932 1.4662 0
M  V30 172 H 17.0939 -4.22378 -0.188915 0
M  V30 173 H 14.8119 -7.62028 2.6896 0
M  V30 174 H 18.3979 -5.66038 1.34508 0
M  V30 175 H 17.2779 -7.33846 2.76476 0
M  V30 176 N 14.781 0.264519 -1.55364 0
M  V30 177 C 15.744 1.31046 -1.88042 0
M  V30 178 C 16.744 1.41943 -0.755569 0
M  V30 179 O 17.934 1.40947 -1.02369 0
M  V30 180 C 15.066 2.69067 -2.09323 0
M  V30 181 H 16.259 1.03297 -2.81549 0
M  V30 182 H 13.812 0.502989 -1.47986 0
M  V30 183 H 14.547 3.01982 -1.18226 0
M  V30 184 H 14.332 2.62542 -2.91229 0
M  V30 185 H 15.822 3.44623 -2.35848 0
M  V30 186 N 16.2591 1.48442 0.529413 0
M  V30 187 C 17.1891 1.65902 1.64313 0
M  V30 188 C 18.1701 0.507897 1.6234 0
M  V30 189 O 19.3551 0.740503 1.79528 0
M  V30 190 C 16.4851 1.69911 3.02898 0
M  V30 191 C 15.4391 2.8453 3.19729 0
M  V30 192 C 14.7651 2.73629 4.59381 0
M  V30 193 C 16.0651 4.25821 3.02447 0
M  V30 194 H 17.7591 2.5914 1.49955 0
M  V30 195 H 15.3051 1.24709 0.719982 0
M  V30 196 H 17.2581 1.80715 3.80684 0
M  V30 197 H 15.9821 0.732524 3.18279 0
M  V30 198 H 14.6411 2.73283 2.44361 0
M  V30 199 H 14.2891 1.74938 4.71599 0
M  V30 200 H 13.9891 3.50541 4.71588 0
M  V30 201 H 15.5131 2.86401 5.39265 0
M  V30 202 H 16.9271 4.37898 3.70024 0
M  V30 203 H 15.3241 5.03735 3.26146 0
M  V30 204 H 16.3941 4.42244 1.98867 0
M  V30 205 N 17.7372 -0.778329 1.37039 0
M  V30 206 C 18.6672 -1.90546 1.34962 0
M  V30 207 C 19.6482 -1.68681 0.219274 0
M  V30 208 O 20.8332 -1.89634 0.418624 0
M  V30 209 C 17.9632 -3.27734 1.14925 0
M  V30 210 C 16.9172 -3.64147 2.24902 0
M  V30 211 C 16.2432 -4.99806 1.89996 0
M  V30 212 C 17.5432 -3.71579 3.67051 0
M  V30 213 H 19.2372 -1.92541 2.29277 0
M  V30 214 H 16.7832 -0.924948 1.10366 0
M  V30 215 H 18.7362 -4.06215 1.12104 0
M  V30 216 H 17.4602 -3.26154 0.170631 0
M  V30 217 H 16.1192 -2.8797 2.26868 0
M  V30 218 H 15.7672 -4.94759 0.906796 0
M  V30 219 H 15.4672 -5.25139 2.63634 0
M  V30 220 H 16.9912 -5.80694 1.88749 0
M  V30 221 H 18.4052 -4.40227 3.67251 0
M  V30 222 H 16.8022 -4.08405 4.39688 0
M  V30 223 H 17.8722 -2.72404 4.01154 0
M  V30 224 N 19.2153 -1.21501 -1.00376 0
M  V30 225 C 20.4633 -1.03095 -1.73827 0
M  V30 226 C 20.7843 0.436341 -1.90055 0
M  V30 227 O 20.0543 1.31466 -1.45236 0
M  V30 228 H 18.6343 -0.378487 -0.644016 0
M  V30 229 H 21.2963 -1.52831 -1.20949 0
M  V30 230 H 20.3923 -1.49991 -2.73695 0
M  V30 231 N 20.6934 1.19889 -1.02296 0
M  V30 232 C 21.9214 1.9339 -0.735399 0
M  V30 233 C 22.3364 1.75148 0.704887 0
M  V30 234 O 21.6934 1.06954 1.47875 0
M  V30 235 C 21.7444 3.45313 -1.06962 0
M  V30 236 O 21.4654 3.62964 -2.45334 0
M  V30 237 C 22.9664 4.35948 -0.804021 0
M  V30 238 H 20.1864 0.61448 -0.269546 0
M  V30 239 H 22.7304 1.522 -1.36585 0
M  V30 240 H 20.8854 3.84359 -0.484455 0
M  V30 241 H 21.2994 4.56886 -2.57595 0
M  V30 242 H 22.7734 5.41174 -1.0879 0
M  V30 243 H 23.2504 4.3842 0.261691 0
M  V30 244 H 23.8564 4.02574 -1.37164 0
M  V30 245 N 22.1715 0.800033 1.35784 0
M  V30 246 C 23.3995 0.389606 2.03199 0
M  V30 247 C 23.8145 -0.997375 1.60306 0
M  V30 248 O 23.1715 -1.64154 0.797481 0
M  V30 249 C 23.2225 0.455855 3.58614 0
M  V30 250 O 22.9435 1.78815 3.99946 0
M  V30 251 C 24.4445 0.0374032 4.43284 0
M  V30 252 H 21.6645 0.159132 0.651857 0
M  V30 253 H 24.2085 1.08183 1.73541 0
M  V30 254 H 22.3635 -0.188057 3.86943 0
M  V30 255 H 22.7775 1.74636 4.94573 0
M  V30 256 H 24.2515 0.134882 5.51835 0
M  V30 257 H 24.7285 -1.01651 4.27275 0
M  V30 258 H 25.3345 0.654215 4.20238 0
M  V30 259 N 23.6496 -1.47581 0.552962 0
M  V30 260 C 24.8966 -2.02482 0.0273243 0
M  V30 261 C 25.2246 -1.42776 -1.32081 0
M  V30 262 O 24.4796 -0.571393 -1.87173 0
M  V30 263 C 24.7786 -3.57199 -0.119728 0
M  V30 264 C 24.4446 -4.35804 1.15697 0
M  V30 265 C 23.1066 -4.57 1.50681 0
M  V30 266 C 25.4586 -4.81167 2.00319 0
M  V30 267 C 22.7866 -5.20807 2.70142 0
M  V30 268 C 25.1386 -5.46293 3.18978 0
M  V30 269 C 23.8026 -5.65722 3.54281 0
M  V30 270 H 23.0726 -0.740933 0.00999866 0
M  V30 271 H 25.7196 -1.77302 0.72362 0
M  V30 272 H 24.0246 -3.81348 -0.89896 0
M  V30 273 H 25.7216 -3.97324 -0.541718 0
M  V30 274 H 22.3116 -4.19582 0.874561 0
M  V30 275 H 26.4956 -4.64574 1.74599 0
M  V30 276 H 21.7516 -5.34045 2.97668 0
M  V30 277 H 25.9256 -5.80407 3.84838 0
M  V30 278 H 23.5526 -6.14936 4.46942 0
M  V30 279 N 25.1277 -0.289203 -1.54924 0
M  V30 280 C 26.3757 0.322879 -1.99504 0
M  V30 281 C 26.6967 1.55313 -1.1791 0
M  V30 282 O 25.9667 1.94001 -0.272097 0
M  V30 283 H 24.5467 0.122291 -0.736922 0
M  V30 284 H 27.2087 -0.397802 -1.90797 0
M  V30 285 H 26.3047 0.603061 -3.06218 0
M  V30 286 N 26.6058 1.57591 -0.0167156 0
M  V30 287 C 27.8458 1.93145 0.668902 0
M  V30 288 C 28.2098 0.892406 1.7 0
M  V30 289 O 29.4108 1.13373 2.43721 0
M  V30 290 C 27.6818 3.33678 1.28039 0
M  V30 291 S 29.2408 3.91142 1.9888 0
M  V30 292 H 26.0588 0.67593 0.220545 0
M  V30 293 H 28.6608 1.95347 -0.0774105 0
M  V30 294 H 27.3648 4.07126 0.517339 0
M  V30 295 H 26.8958 3.3489 2.06427 0
M  V30 296 H 28.9108 3.73571 3.26587 0
M  V30 297 N 28.0839 -0.256276 1.55502 0
M  V30 298 C 29.3319 -0.983672 1.76545 0
M  V30 299 C 29.6529 -1.86206 0.578982 0
M  V30 300 O 28.9229 -1.91656 -0.405577 0
M  V30 301 H 27.5029 -0.366191 0.651086 0
M  V30 302 H 30.1649 -0.276479 1.92929 0
M  V30 303 H 29.2609 -1.61087 2.67315 0
M  V30 304 N 29.562 -1.4872 -0.521534 0
M  V30 305 C 30.808 -1.574 -1.27879 0
M  V30 306 C 31.141 -0.250817 -1.92573 0
M  V30 307 O 30.416 0.743934 -1.79711 0
M  V30 308 C 30.699 -2.71843 -2.36164 0
M  V30 309 C 30.552 -4.13893 -1.76105 0
M  V30 310 C 31.871 -2.82008 -3.37875 0
M  V30 311 H 28.99 -0.572941 -0.463581 0
M  V30 312 H 31.632 -1.80927 -0.580119 0
M  V30 313 H 29.782 -2.51914 -2.95756 0
M  V30 314 H 31.454 -4.45284 -1.20499 0
M  V30 315 H 29.697 -4.20498 -1.06601 0
M  V30 316 H 30.368 -4.89804 -2.5455 0
M  V30 317 H 32.844 -3.00086 -2.88249 0
M  V30 318 H 31.72 -3.63796 -4.11028 0
M  V30 319 H 31.981 -1.90511 -3.98946 0
M  V30 320 N 31.0401 0.771051 -1.3745 0
M  V30 321 C 32.4511 1.34737 -1.29239 0
M  V30 322 C 32.8021 1.96109 0.0596908 0
M  V30 323 O 31.9271 1.93865 0.961534 0
M  V30 324 C 32.5221 2.44973 -2.34037 0
M  V30 325 C 31.0811 2.98372 -2.29458 0
M  V30 326 C 30.2281 1.71595 -2.17831 0
M  V30 327 H 33.1791 0.571256 -1.48062 0
M  V30 328 H 33.2001 3.24471 -1.98744 0
M  V30 329 H 32.7121 2.00276 -3.32432 0
M  V30 330 H 30.8131 3.47443 -1.34589 0
M  V30 331 H 30.9261 3.53939 -3.229 0
M  V30 332 H 29.2901 1.94547 -1.64388 0
M  V30 333 H 30.0731 1.29001 -3.18141 0
M  V30 334 N 32.5182 1.22032 0.997298 0
M  V30 335 C 33.4812 0.987909 2.06816 0
M  V30 336 C 34.4812 -0.0440084 1.6074 0
M  V30 337 O 35.6712 0.194053 1.73116 0
M  V30 338 C 32.8032 0.49132 3.37341 0
M  V30 339 H 33.9962 1.93803 2.28868 0
M  V30 340 H 31.5492 1.03838 1.16822 0
M  V30 341 H 32.2842 -0.463364 3.20973 0
M  V30 342 H 32.0692 1.23575 3.72118 0
M  V30 343 H 33.5592 0.348824 4.16141 0
M  V30 344 N 33.9963 -1.19345 1.0293 0
M  V30 345 C 35.2453 -1.88363 0.721256 0
M  V30 346 C 35.5583 -1.80514 -0.753254 0
M  V30 347 O 36.7643 -2.44788 -1.17436 0
M  V30 348 C 35.2203 -3.37872 1.23978 0
M  V30 349 C 34.8283 -3.54278 2.74211 0
M  V30 350 C 36.5723 -4.12365 1.00775 0
M  V30 351 C 34.4793 -4.97682 3.19479 0
M  V30 352 H 33.4093 -0.705484 0.266098 0
M  V30 353 H 36.0603 -1.34928 1.24365 0
M  V30 354 H 34.4423 -3.90707 0.6453 0
M  V30 355 H 35.6163 -3.11769 3.39318 0
M  V30 356 H 33.9313 -2.93174 2.95699 0
M  V30 357 H 36.5283 -5.18119 1.32123 0
M  V30 358 H 36.8713 -4.16263 -0.0554308 0
M  V30 359 H 37.4043 -3.65668 1.56625 0
M  V30 360 H 34.1433 -4.98945 4.25128 0
M  V30 361 H 33.6633 -5.4095 2.591 0
M  V30 362 H 35.3423 -5.66337 3.12845 0
M  V30 363 N 35.4744 -0.807222 -1.35358 0
M  V30 364 C 36.4244 -0.190706 -2.27201 0
M  V30 365 C 37.4084 0.635838 -1.47804 0
M  V30 366 O 38.6004 0.492991 -1.69996 0
M  V30 367 C 35.7294 0.659337 -3.36909 0
M  V30 368 C 34.8154 -0.176971 -4.23731 0
M  V30 369 N 35.2064 -1.24029 -4.90357 0
M  V30 370 C 33.5044 0.0412953 -4.45981 0
M  V30 371 C 34.2054 -1.75092 -5.54723 0
M  V30 372 N 33.1814 -1.05727 -5.33219 0
M  V30 373 H 36.9834 -1.0043 -2.76208 0
M  V30 374 H 34.4974 -0.648445 -1.48892 0
M  V30 375 H 36.4944 1.11706 -4.01656 0
M  V30 376 H 35.1544 1.47127 -2.89454 0
M  V30 377 H 36.1654 -1.62295 -4.91814 0
M  V30 378 H 32.8424 0.82232 -4.09322 0
M  V30 379 H 34.2324 -2.63963 -6.17878 0
M  V30 380 N 36.9525 1.47285 -0.560781 0
M  V30 381 C 38.3635 1.86258 -0.128343 0
M  V30 382 C 38.7145 1.46699 1.30284 0
M  V30 383 O 37.8395 0.871698 1.98067 0
M  V30 384 C 38.4345 3.38044 -0.22614 0
M  V30 385 C 36.9935 3.76096 0.151283 0
M  V30 386 C 36.1405 2.71335 -0.572084 0
M  V30 387 H 39.0915 1.38752 -0.770297 0
M  V30 388 H 39.1125 3.76441 0.554322 0
M  V30 389 H 38.6245 3.66806 -1.26788 0
M  V30 390 H 36.7255 3.52951 1.19399 0
M  V30 391 H 36.8385 4.78641 -0.209765 0
M  V30 392 H 35.2025 2.54696 -0.0147653 0
M  V30 393 H 35.9855 3.02938 -1.61504 0
M  V30 394 N 38.4306 0.297415 1.54768 0
M  V30 395 C 39.6766 -0.313376 2.00364 0
M  V30 396 C 40.0096 -1.53815 1.18553 0
M  V30 397 O 39.2846 -1.92739 0.261103 0
M  V30 398 C 39.5676 -0.673525 3.53745 0
M  V30 399 C 39.4206 0.560133 4.46299 0
M  V30 400 C 40.7396 -1.50143 4.13697 0
M  V30 401 H 37.8586 -0.112428 0.728374 0
M  V30 402 H 40.5006 0.4088 1.8555 0
M  V30 403 H 38.6506 -1.28881 3.665 0
M  V30 404 H 40.3226 1.19863 4.45455 0
M  V30 405 H 38.5656 1.19405 4.17043 0
M  V30 406 H 39.2366 0.26405 5.51368 0
M  V30 407 H 41.7126 -0.981588 4.04356 0
M  V30 408 H 40.5886 -1.72221 5.21182 0
M  V30 409 H 40.8496 -2.48952 3.65343 0
M  V30 410 N 39.9087 -1.5758 0.0250728 0
M  V30 411 C 40.8387 -2.13007 -0.956575 0
M  V30 412 C 41.8197 -1.0452 -1.342 0
M  V30 413 O 43.0047 -1.32332 -1.42133 0
M  V30 414 C 40.1347 -2.65386 -2.24026 0
M  V30 415 C 39.0887 -3.78623 -1.99571 0
M  V30 416 C 38.4147 -4.17414 -3.3417 0
M  V30 417 C 39.7147 -5.04867 -1.33814 0
M  V30 418 H 41.4087 -2.9528 -0.494991 0
M  V30 419 H 38.9547 -1.42042 -0.236651 0
M  V30 420 H 40.9077 -3.02794 -2.93076 0
M  V30 421 H 39.6317 -1.80268 -2.72343 0
M  V30 422 H 38.2907 -3.41646 -1.32941 0
M  V30 423 H 37.9387 -3.29284 -3.80238 0
M  V30 424 H 37.6387 -4.93719 -3.18615 0
M  V30 425 H 39.1627 -4.57402 -4.04495 0
M  V30 426 H 40.5767 -5.39888 -1.92857 0
M  V30 427 H 38.9737 -5.86144 -1.28669 0
M  V30 428 H 40.0437 -4.83904 -0.310561 0
M  V30 429 N 41.3868 0.248026 -1.55636 0
M  V30 430 C 42.6118 0.998028 -1.81808 0
M  V30 431 C 43.0368 1.78207 -0.601979 0
M  V30 432 O 42.3948 1.75653 0.448961 0
M  V30 433 C 42.4428 1.9125 -3.05705 0
M  V30 434 O 41.5468 3.00406 -2.82542 0
M  V30 435 H 40.8878 0.284045 -0.600179 0
M  V30 436 H 43.4178 0.269357 -2.02819 0
M  V30 437 H 43.4278 2.32737 -3.35108 0
M  V30 438 H 42.1028 1.33602 -3.93857 0
M  V30 439 H 40.6798 2.63056 -2.64303 0
M  V30 440 N 42.8649 1.48995 0.513639 0
M  V30 441 C 44.1129 1.57531 1.26604 0
M  V30 442 C 44.4339 0.258236 1.93283 0
M  V30 443 O 43.7039 -0.721502 1.8213 0
M  V30 444 H 42.2839 0.580387 0.470276 0
M  V30 445 H 44.9459 1.85552 0.596373 0
M  V30 446 H 44.0419 2.36486 2.03669 0
M  V30 447 N 44.343 -0.763751 1.37857 0
M  V30 448 C 45.273 -1.89103 1.36975 0
M  V30 449 C 46.254 -1.68439 0.237152 0
M  V30 450 O 47.439 -1.8918 0.438713 0
M  V30 451 C 44.569 -3.26496 1.18395 0
M  V30 452 C 43.523 -3.61741 2.28751 0
M  V30 453 C 42.849 -4.97762 1.95286 0
M  V30 454 C 44.149 -3.67665 3.70972 0
M  V30 455 H 45.843 -1.90099 2.31307 0
M  V30 456 H 43.389 -0.91319 1.11341 0
M  V30 457 H 45.342 -4.05003 1.16406 0
M  V30 458 H 44.066 -3.25955 0.205215 0
M  V30 459 H 42.725 -2.85547 2.29909 0
M  V30 460 H 42.373 -4.93769 0.959221 0
M  V30 461 H 42.073 -5.22313 2.69189 0
M  V30 462 H 43.597 -5.7866 1.94898 0
M  V30 463 H 45.011 -4.36307 3.719 0
M  V30 464 H 43.408 -4.03718 4.43995 0
M  V30 465 H 44.478 -2.68134 4.0402 0
M  V30 466 N 45.8211 -1.22559 -0.990812 0
M  V30 467 C 47.0461 -1.07862 -1.77145 0
M  V30 468 C 47.4711 0.366447 -1.84496 0
M  V30 469 O 46.8291 1.26478 -1.29896 0
M  V30 470 C 46.8771 -1.69686 -3.18181 0
M  V30 471 O 45.9811 -0.951946 -4.01263 0
M  V30 472 H 45.3221 -0.378712 -0.545411 0
M  V30 473 H 47.8521 -1.62399 -1.2445 0
M  V30 474 H 47.8621 -1.74496 -3.68802 0
M  V30 475 H 46.5371 -2.74841 -3.12146 0
M  V30 476 H 45.1141 -0.980011 -3.59792 0
M  V30 477 N 47.2992 1.18797 -1.03562 0
M  V30 478 C 48.7152 1.40671 -0.753917 0
M  V30 479 C 48.9152 1.9043 0.658686 0
M  V30 480 O 47.9712 2.08538 1.42366 0
M  V30 481 C 49.2842 2.41192 -1.79574 0
M  V30 482 C 50.8322 2.54928 -1.81606 0
M  V30 483 C 51.3072 3.58709 -2.84766 0
M  V30 484 N 52.7982 3.66212 -2.83625 0
M  V30 485 C 53.5332 4.46225 -3.60098 0
M  V30 486 N 53.0292 5.29888 -4.46308 0
M  V30 487 N 54.8222 4.40939 -3.4861 0
M  V30 488 H 46.9732 0.848221 -1.94728 0
M  V30 489 H 49.2362 0.435081 -0.842264 0
M  V30 490 H 48.9422 2.11669 -2.80872 0
M  V30 491 H 48.8162 3.40467 -1.62365 0
M  V30 492 H 51.2032 2.83771 -0.809817 0
M  V30 493 H 51.2842 1.55784 -2.02891 0
M  V30 494 H 50.9282 3.30607 -3.85566 0
M  V30 495 H 50.8582 4.57519 -2.60737 0
M  V30 496 H 53.3492 3.06466 -2.21105 0
M  V30 497 H 53.6622 5.88078 -5.01382 0
M  V30 498 H 52.0072 5.29326 -4.50377 0
M  V30 499 H 55.1982 3.74624 -2.80668 0
M  V30 500 H 55.3712 5.03056 -4.08459 0
M  V30 501 N 48.7773 0.814389 1.34928 0
M  V30 502 C 50.0263 0.394871 1.97797 0
M  V30 503 C 50.3393 -1.04555 1.65311 0
M  V30 504 O 51.5453 -1.56856 2.21604 0
M  V30 505 C 50.0013 0.655103 3.53888 0
M  V30 506 C 49.6093 2.10858 3.95276 0
M  V30 507 C 51.3533 0.301329 4.23429 0
M  V30 508 C 49.2603 2.31415 5.44244 0
M  V30 509 H 48.1903 0.143913 0.740139 0
M  V30 510 H 50.8413 0.999544 1.53888 0
M  V30 511 H 49.2233 -0.0196253 3.95995 0
M  V30 512 H 50.3973 2.82176 3.64298 0
M  V30 513 H 48.7123 2.42297 3.38646 0
M  V30 514 H 51.3093 0.432869 5.32945 0
M  V30 515 H 51.6523 -0.75331 4.09428 0
M  V30 516 H 52.1853 0.930288 3.86769 0
M  V30 517 H 48.9243 3.35353 5.63222 0
M  V30 518 H 48.4443 1.6463 5.76764 0
M  V30 519 H 50.1233 2.13352 6.10811 0
M  V30 520 N 50.2554 -1.46986 0.568584 0
M  V30 521 C 51.5014 -2.02741 0.0488709 0
M  V30 522 C 51.8344 -1.44077 -1.30214 0
M  V30 523 O 51.1094 -0.600552 -1.84996 0
M  V30 524 C 51.3924 -3.60086 -0.032047 0
M  V30 525 C 51.2454 -4.29162 1.34686 0
M  V30 526 C 52.5644 -4.33838 -0.739798 0
M  V30 527 H 49.6834 -0.736749 0.0192338 0
M  V30 528 H 52.3254 -1.75289 0.733065 0
M  V30 529 H 50.4754 -3.83606 -0.61473 0
M  V30 530 H 52.1474 -4.16948 1.97362 0
M  V30 531 H 50.3904 -3.89073 1.91846 0
M  V30 532 H 51.0614 -5.37826 1.24285 0
M  V30 533 H 53.5374 -4.15378 -0.244939 0
M  V30 534 H 52.4134 -5.43537 -0.765406 0
M  V30 535 H 52.6744 -4.03875 -1.79827 0
M  V30 536 N 51.7335 -0.305618 -1.54608 0
M  V30 537 C 52.6815 0.584119 -2.25146 0
M  V30 538 C 53.6755 1.13326 -1.25911 0
M  V30 539 O 54.8815 1.08337 -1.43747 0
M  V30 540 H 51.2565 0.206983 -0.722954 0
M  V30 541 H 53.2275 -0.033291 -2.98381 0
M  V30 542 C 51.9765 1.74225 -3.009 0
M  V30 543 H 51.2995 1.32892 -3.77067 0
M  V30 544 H 52.7395 2.34077 -3.53531 0
M  V30 545 C 51.1985 2.64914 -2.0814 0
M  V30 546 O 51.7285 3.66137 -1.65246 0
M  V30 547 N 49.9345 2.3275 -1.74 0
M  V30 548 H 49.4815 1.50479 -2.09078 0
M  V30 549 H 49.4395 2.93694 -1.12211 0
M  V30 550 N 53.2116 1.57565 -0.0334293 0
M  V30 551 C 54.4596 1.91598 0.642999 0
M  V30 552 C 54.7806 0.910847 1.7242 0
M  V30 553 O 54.0506 -0.0469931 1.95844 0
M  V30 554 H 52.6306 0.707228 0.240496 0
M  V30 555 H 55.2926 1.94726 -0.0822488 0
M  V30 556 H 54.3886 2.92336 1.09298 0
M  V30 557 N 54.6897 -0.239769 1.55765 0
M  V30 558 C 55.5997 -1.31831 1.94056 0
M  V30 559 C 56.6157 -1.52275 0.841925 0
M  V30 560 O 57.7917 -1.65759 1.14394 0
M  V30 561 C 54.8567 -2.65156 2.23368 0
M  V30 562 C 53.9177 -2.53173 3.46701 0
M  V30 563 C 53.1507 -3.8014 3.74606 0
M  V30 564 O 53.3737 -4.82343 3.04469 0
M  V30 565 O 52.3077 -3.78344 4.68123 0
M  V30 566 H 56.1337 -1.02347 2.85935 0
M  V30 567 H 53.7187 -0.441123 1.42739 0
M  V30 568 H 55.6007 -3.43929 2.43497 0
M  V30 569 H 54.2757 -2.94358 1.34666 0
M  V30 570 H 53.1827 -1.72662 3.31871 0
M  V30 571 H 54.5157 -2.28915 4.35728 0
M  V30 572 N 56.1678 -1.49265 -0.50573 0
M  V30 573 C 57.4448 -1.49012 -1.26707 0
M  V30 574 C 57.8248 -0.215205 -2.1 0
M  V30 575 O 57.1728 0.802547 -2.13943 0
M  V30 576 C 57.3828 -2.7663 -2.12783 0
M  V30 577 C 58.7308 -3.25932 -2.72127 0
M  V30 578 O 59.7548 -2.77715 -2.23054 0
M  V30 579 O 58.6138 -4.09897 -3.61451 0
M  V30 580 H 55.7078 -0.596197 -0.57313 0
M  V30 581 H 58.2538 -1.61524 -0.52039 0
M  V30 582 H 57.0258 -3.60916 -1.5118 0
M  V30 583 H 56.6488 -2.66956 -2.94653 0
M  V30 584 N 57.6459 0.756429 -1.3826 0
M  V30 585 C 58.6089 1.85176 -1.35065 0
M  V30 586 C 59.6089 1.58818 -0.251703 0
M  V30 587 O 60.7989 1.66615 -0.508433 0
M  V30 588 C 57.9309 3.22596 -1.10201 0
M  V30 589 H 59.1239 1.89417 -2.3251 0
M  V30 590 H 56.6769 0.95783 -1.23512 0
M  V30 591 H 57.4119 3.24025 -0.133504 0
M  V30 592 H 57.1969 3.43122 -1.89762 0
M  V30 593 H 58.6869 4.02673 -1.10654 0
M  V30 594 N 59.124 1.23083 0.984299 0
M  V30 595 C 60.37 1.06214 1.72761 0
M  V30 596 C 60.703 -0.400584 1.90024 0
M  V30 597 O 59.978 -1.29672 1.44967 0
M  V30 598 C 60.261 1.78375 3.12817 0
M  V30 599 C 60.114 3.32296 3.03149 0
M  V30 600 C 61.433 1.54309 4.12161 0
M  V30 601 H 58.552 0.387251 0.627061 0
M  V30 602 H 61.194 1.51536 1.14616 0
M  V30 603 H 59.344 1.39848 3.62457 0
M  V30 604 H 61.016 3.8032 2.61064 0
M  V30 605 H 59.259 3.6153 2.39747 0
M  V30 606 H 59.93 3.77972 4.02295 0
M  V30 607 H 62.406 1.87791 3.71314 0
M  V30 608 H 61.282 2.07281 5.08258 0
M  V30 609 H 61.543 0.477572 4.39513 0
M  V30 610 N 60.6021 -1.18246 1.0419 0
M  V30 611 C 62.0131 -1.69914 0.773698 0
M  V30 612 C 62.3641 -1.83085 -0.705297 0
M  V30 613 O 61.4891 -1.51123 -1.5489 0
M  V30 614 C 62.0841 -3.08619 1.39784 0
M  V30 615 C 60.6431 -3.57494 1.17792 0
M  V30 616 C 59.7901 -2.34013 1.48773 0
M  V30 617 H 62.7411 -1.02904 1.20816 0
M  V30 618 H 62.7621 -3.71958 0.801714 0
M  V30 619 H 62.2741 -2.99001 2.47426 0
M  V30 620 H 60.3751 -3.72406 0.120295 0
M  V30 621 H 60.4881 -4.40852 1.87581 0
M  V30 622 H 58.8521 -2.37986 0.907463 0
M  V30 623 H 59.6351 -2.27013 2.57527 0
M  V30 624 N 62.0802 -0.821533 -1.34494 0
M  V30 625 C 63.3282 -0.408139 -1.97936 0
M  V30 626 C 63.6492 1.03193 -1.65457 0
M  V30 627 O 62.9192 1.71622 -0.944595 0
M  V30 628 H 61.4992 -0.147928 -0.732206 0
M  V30 629 H 64.1612 -1.05067 -1.64155 0
M  V30 630 H 63.2572 -0.52601 -3.07635 0
M  V30 631 N 63.5583 1.46682 -0.576371 0
M  V30 632 C 64.7833 2.07304 -0.0630475 0
M  V30 633 C 65.2083 1.42329 1.2298 0
M  V30 634 O 64.5663 0.504865 1.74129 0
M  V30 635 C 64.6143 3.60472 0.095895 0
M  V30 636 O 63.7183 3.95927 1.15394 0
M  V30 637 H 63.0593 0.661288 -0.0599463 0
M  V30 638 H 65.5893 1.88417 -0.797511 0
M  V30 639 H 65.5993 4.06865 0.304071 0
M  V30 640 H 64.2743 4.07157 -0.84828 0
M  V30 641 H 62.8513 3.61252 0.924724 0
M  V30 642 N 65.0364 0.313813 1.54444 0
M  V30 643 C 66.2824 -0.284918 2.01395 0
M  V30 644 C 66.6374 -1.50537 1.19818 0
M  V30 645 O 65.9304 -1.89692 0.269748 0
M  V30 646 C 66.1244 -0.680386 3.50864 0
M  V30 647 C 65.9534 0.500198 4.4691 0
M  V30 648 C 64.7234 0.996248 4.95382 0
M  V30 649 C 66.9214 1.34928 4.96285 0
M  V30 650 N 64.9034 2.14226 5.75309 0
M  V30 651 C 66.2744 2.3426 5.7404 0
M  V30 652 C 68.3294 1.37818 4.78446 0
M  V30 653 C 67.0324 3.36272 6.35856 0
M  V30 654 C 69.0584 2.38695 5.4109 0
M  V30 655 C 68.4204 3.36755 6.18688 0
M  V30 656 H 64.5194 -0.0683689 0.779006 0
M  V30 657 H 67.1034 0.44664 1.89508 0
M  V30 658 H 65.2744 -1.38109 3.63016 0
M  V30 659 H 67.0064 -1.25975 3.84594 0
M  V30 660 H 63.7614 0.56912 4.70168 0
M  V30 661 H 64.1854 2.72005 6.19953 0
M  V30 662 H 68.8274 0.633747 4.18023 0
M  V30 663 H 66.5454 4.11627 6.95405 0
M  V30 664 H 70.1314 2.41721 5.29209 0
M  V30 665 H 69.0114 4.13535 6.66302 0
M  V30 666 N 66.5145 -1.57545 0.0417849 0
M  V30 667 C 67.9255 -1.80011 -0.495259 0
M  V30 668 C 68.2765 -0.953199 -1.71489 0
M  V30 669 O 67.4015 -0.167138 -2.15754 0
M  V30 670 C 67.9965 -3.26482 -0.905265 0
M  V30 671 C 66.5555 -3.499 -1.38734 0
M  V30 672 C 65.7025 -2.74979 -0.358056 0
M  V30 673 H 68.6535 -1.56425 0.267736 0
M  V30 674 H 68.6745 -3.36887 -1.76882 0
M  V30 675 H 68.1865 -3.88096 -0.017401 0
M  V30 676 H 66.2875 -2.93553 -2.29471 0
M  V30 677 H 66.4005 -4.58615 -1.38598 0
M  V30 678 H 64.7645 -2.40834 -0.828912 0
M  V30 679 H 65.5475 -3.39315 0.521561 0
M  V30 680 N 67.9926 0.231505 -1.5589 0
M  V30 681 C 69.2386 0.954429 -1.79617 0
M  V30 682 C 69.5936 1.82367 -0.613199 0
M  V30 683 O 68.8866 1.87524 0.393094 0
M  V30 684 C 69.0806 1.83577 -3.0665 0
M  V30 685 C 68.9096 1.05334 -4.3719 0
M  V30 686 C 67.6796 0.75225 -4.99669 0
M  V30 687 C 69.8776 0.423444 -5.12554 0
M  V30 688 N 67.8596 -0.052627 -6.13877 0
M  V30 689 C 69.2306 -0.245287 -6.19515 0
M  V30 690 C 71.2856 0.335466 -4.96769 0
M  V30 691 C 69.9886 -0.993566 -7.12405 0
M  V30 692 C 72.0146 -0.399321 -5.9005 0
M  V30 693 C 71.3766 -1.05663 -6.9643 0
M  V30 694 H 67.4756 0.329846 -0.709031 0
M  V30 695 H 70.0596 0.226172 -1.93382 0
M  V30 696 H 68.2306 2.53592 -2.94186 0
M  V30 697 H 69.9626 2.49541 -3.18608 0
M  V30 698 H 66.7176 1.06783 -4.61405 0
M  V30 699 H 67.1416 -0.443609 -6.75545 0
M  V30 700 H 71.7836 0.829311 -4.14587 0
M  V30 701 H 69.5016 -1.49896 -7.94076 0
M  V30 702 H 73.0876 -0.468265 -5.79913 0
M  V30 703 H 71.9676 -1.61612 -7.67366 0
M  V30 704 N 69.4707 1.49531 0.497807 0
M  V30 705 C 70.4027 1.62559 1.61578 0
M  V30 706 C 71.4157 0.508134 1.54667 0
M  V30 707 O 72.6047 0.780309 1.60541 0
M  V30 708 C 69.7047 1.56925 3.00379 0
M  V30 709 C 68.8777 2.84257 3.3244 0
M  V30 710 C 67.9367 2.71632 4.50669 0
M  V30 711 O 66.9627 3.4557 4.52294 0
M  V30 712 N 68.1647 1.83391 5.5077 0
M  V30 713 H 70.9297 2.58981 1.50828 0
M  V30 714 H 68.4907 1.4666 0.685743 0
M  V30 715 H 70.4827 1.46129 3.77397 0
M  V30 716 H 69.0527 0.683483 3.05037 0
M  V30 717 H 68.2727 3.09381 2.44289 0
M  V30 718 H 69.5607 3.68666 3.5066 0
M  V30 719 H 68.9587 1.22583 5.52259 0
M  V30 720 H 67.5157 1.78515 6.26878 0
M  V30 721 N 70.9488 -0.749086 1.3866 0
M  V30 722 C 72.1948 -1.51056 1.35314 0
M  V30 723 C 72.5278 -1.94121 -0.0553751 0
M  V30 724 O 71.8028 -1.65763 -1.01749 0
M  V30 725 C 72.0858 -2.76003 2.31288 0
M  V30 726 C 71.9388 -2.39047 3.8102 0
M  V30 727 C 73.2578 -3.78046 2.2532 0
M  V30 728 H 70.3768 -0.547972 0.492844 0
M  V30 729 H 73.0188 -0.857628 1.69543 0
M  V30 730 H 71.1688 -3.31716 2.02229 0
M  V30 731 H 72.8408 -1.89074 4.20771 0
M  V30 732 H 71.0838 -1.71449 3.98482 0
M  V30 733 H 71.7548 -3.28462 4.4364 0
M  V30 734 H 74.2308 -3.31884 2.50983 0
M  V30 735 H 73.1068 -4.63159 2.94576 0
M  V30 736 H 73.3678 -4.23957 1.25352 0
M  V30 737 N 72.4269 -1.23603 -0.977757 0
M  V30 738 C 73.6519 -1.09735 -1.75991 0
M  V30 739 C 74.0769 0.346858 -1.84874 0
M  V30 740 O 73.4349 1.25093 -1.3123 0
M  V30 741 C 73.4829 -1.73051 -3.16363 0
M  V30 742 O 72.5869 -0.994452 -4.0023 0
M  V30 743 H 71.9279 -0.384476 -0.541364 0
M  V30 744 H 74.4579 -1.6371 -1.2272 0
M  V30 745 H 74.4679 -1.78398 -3.66931 0
M  V30 746 H 73.1429 -2.78137 -3.09213 0
M  V30 747 H 71.7199 -1.01812 -3.58732 0
M  V30 748 N 73.905 1.17692 -1.04816 0
M  V30 749 C 74.835 2.23777 -0.666791 0
M  V30 750 C 75.816 1.66796 0.33361 0
M  V30 751 O 77.001 1.93039 0.212042 0
M  V30 752 C 74.131 3.47281 -0.0367933 0
M  V30 753 C 73.085 4.17059 -0.961546 0
M  V30 754 C 72.411 5.34342 -0.195626 0
M  V30 755 C 73.711 4.69713 -2.28402 0
M  V30 756 H 75.405 2.55933 -1.55367 0
M  V30 757 H 72.951 1.23019 -0.748484 0
M  V30 758 H 74.904 4.20706 0.241775 0
M  V30 759 H 73.628 3.14381 0.885004 0
M  V30 760 H 72.287 3.45541 -1.22462 0
M  V30 761 H 71.935 4.97692 0.728816 0
M  V30 762 H 71.635 5.81966 -0.811775 0
M  V30 763 H 73.159 6.10553 0.0757473 0
M  V30 764 H 74.573 5.34794 -2.06563 0
M  V30 765 H 72.97 5.279 -2.8538 0
M  V30 766 H 74.04 3.86726 -2.92525 0
M  V30 767 N 75.3831 0.828654 1.34056 0
M  V30 768 C 76.3151 0.212052 2.28217 0
M  V30 769 C 77.3281 -0.601362 1.51286 0
M  V30 770 O 78.5171 -0.430104 1.73241 0
M  V30 771 C 75.6171 -0.72088 3.31144 0
M  V30 772 C 74.7901 0.0509587 4.3737 0
M  V30 773 C 73.8491 -0.803766 5.20025 0
M  V30 774 O 72.8751 -0.246667 5.68665 0
M  V30 775 N 74.0771 -2.1227 5.40298 0
M  V30 776 H 76.8421 1.02105 2.81771 0
M  V30 777 H 74.4031 0.686153 1.46641 0
M  V30 778 H 76.3951 -1.29742 3.8334 0
M  V30 779 H 74.9651 -1.43061 2.77943 0
M  V30 780 H 74.1851 0.808831 3.85813 0
M  V30 781 H 75.4731 0.582065 5.0546 0
M  V30 782 H 74.8711 -2.59898 5.02464 0
M  V30 783 H 73.4281 -2.64796 5.95589 0
M  V30 784 N 76.8612 -1.46375 0.584142 0
M  V30 785 C 78.1382 -1.956 0.0033388 0
M  V30 786 C 78.5182 -1.52679 -1.45782 0
M  V30 787 O 77.8662 -0.77816 -2.14842 0
M  V30 788 C 78.0762 -3.48551 0.176891 0
M  V30 789 C 79.4242 -4.24576 0.0454609 0
M  V30 790 O 80.4482 -3.56043 0.105801 0
M  V30 791 O 79.3072 -5.46427 -0.0890376 0
M  V30 792 H 76.4012 -0.825547 -0.0490066 0
M  V30 793 H 78.9472 -1.56652 0.65256 0
M  V30 794 H 77.7192 -3.72683 1.1926 0
M  V30 795 H 77.3422 -3.94332 -0.508695 0
M  V30 796 N 78.3393 -0.321999 -1.54275 0
M  V30 797 C 79.2863 0.544664 -2.24281 0
M  V30 798 C 80.2563 1.1129 -1.23303 0
M  V30 799 O 81.4413 1.15354 -1.51981 0
M  V30 800 C 78.5813 1.70045 -3.00298 0
M  V30 801 C 77.6943 1.16159 -4.1609 0
M  V30 802 C 76.8293 2.28293 -4.79641 0
M  V30 803 C 75.8683 1.71648 -5.8754 0
M  V30 804 N 75.0053 2.77438 -6.44959 0
M  V30 805 H 79.8453 -0.0588907 -2.97942 0
M  V30 806 H 77.3823 -0.0408345 -1.47043 0
M  V30 807 H 79.3403 2.38054 -3.42616 0
M  V30 808 H 77.9703 2.27531 -2.28975 0
M  V30 809 H 77.0223 0.373092 -3.78566 0
M  V30 810 H 78.3343 0.707087 -4.93763 0
M  V30 811 H 77.4883 3.0421 -5.2492 0
M  V30 812 H 76.2273 2.77079 -4.01346 0
M  V30 813 H 75.2323 0.942282 -5.41665 0
M  V30 814 H 76.4573 1.23741 -6.67731 0
M  V30 815 H 74.4033 3.25519 -5.69538 0
M  V30 816 H 74.3203 2.36547 -7.1804 0
M  V30 817 H 75.5883 3.53189 -6.94894 0
M  V30 818 N 79.8174 1.5752 -0.0501392 0
M  V30 819 C 81.0454 1.96963 0.633492 0
M  V30 820 C 81.4604 0.927631 1.6444 0
M  V30 821 O 80.8174 -0.0882665 1.82286 0
M  V30 822 C 80.8684 3.36487 1.32132 0
M  V30 823 O 80.5894 4.36693 0.350894 0
M  V30 824 C 82.0904 3.90682 2.09481 0
M  V30 825 H 79.3104 0.648244 0.173266 0
M  V30 826 H 81.8544 2.0417 -0.116134 0
M  V30 827 H 80.0094 3.30434 2.02218 0
M  V30 828 H 80.4234 5.17702 0.841735 0
M  V30 829 H 81.8974 4.90591 2.5303 0
M  V30 830 H 82.3744 3.26053 2.94255 0
M  V30 831 H 82.9804 4.00069 1.44307 0
M  V30 832 N 81.2955 -0.223234 1.56011 0
M  V30 833 C 82.5435 -0.946003 1.78592 0
M  V30 834 C 82.8645 -1.84936 0.618349 0
M  V30 835 O 82.1345 -1.92473 -0.364833 0
M  V30 836 H 80.7145 -0.352298 0.658707 0
M  V30 837 H 83.3765 -0.235494 1.93472 0
M  V30 838 H 82.4725 -1.55381 2.70672 0
M  V30 839 N 82.7736 -1.49793 -0.48987 0
M  V30 840 C 84.0206 -1.59841 -1.24327 0
M  V30 841 C 84.3486 -0.290135 -1.92324 0
M  V30 842 O 83.6036 0.722749 -1.81865 0
M  V30 843 C 83.9026 -2.71488 -2.32441 0
M  V30 844 C 83.5686 -4.12614 -1.81826 0
M  V30 845 C 82.2306 -4.51017 -1.67742 0
M  V30 846 C 84.5826 -5.00892 -1.4407 0
M  V30 847 C 81.9106 -5.75459 -1.14297 0
M  V30 848 C 84.2626 -6.25863 -0.920742 0
M  V30 849 C 82.9266 -6.63086 -0.766383 0
M  V30 850 H 82.1966 -0.584899 -0.454944 0
M  V30 851 H 84.8436 -1.83663 -0.542215 0
M  V30 852 H 83.1486 -2.4168 -3.0838 0
M  V30 853 H 84.8456 -2.76469 -2.90458 0
M  V30 854 H 81.4356 -3.82307 -1.93751 0
M  V30 855 H 85.6196 -4.7187 -1.53794 0
M  V30 856 H 80.8756 -6.02989 -1.01068 0
M  V30 857 H 85.0496 -6.9364 -0.619448 0
M  V30 858 H 82.6766 -7.59393 -0.350083 0
M  V30 859 N 84.2517 0.741722 -1.39055 0
M  V30 860 C 85.2017 1.84661 -1.33732 0
M  V30 861 C 86.1857 1.59397 -0.219401 0
M  V30 862 O 87.3777 1.71015 -0.456375 0
M  V30 863 C 84.5067 3.22512 -1.17647 0
M  V30 864 C 83.5927 3.53628 -2.34112 0
M  V30 865 N 83.9837 3.55723 -3.59576 0
M  V30 866 C 82.2817 3.83956 -2.26923 0
M  V30 867 C 82.9827 3.84443 -4.36553 0
M  V30 868 N 81.9587 4.01877 -3.66055 0
M  V30 869 H 85.7607 1.84576 -2.28711 0
M  V30 870 H 83.2747 0.939647 -1.32455 0
M  V30 871 H 85.2717 4.01597 -1.11917 0
M  V30 872 H 83.9317 3.2384 -0.236124 0
M  V30 873 H 84.9427 3.37196 -3.93089 0
M  V30 874 H 81.6197 3.92929 -1.41113 0
M  V30 875 H 83.0097 3.92588 -5.45274 0
M  V30 876 N 85.7298 1.2412 0.971189 0
M  V30 877 C 86.9768 1.07881 1.71371 0
M  V30 878 C 87.3048 -0.382901 1.90694 0
M  V30 879 O 86.5598 -1.29945 1.46331 0
M  V30 880 C 86.8588 1.75983 3.11071 0
M  V30 881 C 86.5248 3.25909 3.11599 0
M  V30 882 C 85.1868 3.66813 3.11451 0
M  V30 883 C 87.5388 4.21771 3.062 0
M  V30 884 C 84.8668 5.02021 3.03631 0
M  V30 885 C 87.2188 5.56982 2.99923 0
M  V30 886 C 85.8828 5.97237 2.98102 0
M  V30 887 H 85.1528 0.394764 0.62709 0
M  V30 888 H 87.7998 1.54176 1.13587 0
M  V30 889 H 86.1048 1.22072 3.72298 0
M  V30 890 H 87.8018 1.60887 3.6731 0
M  V30 891 H 84.3918 2.93353 3.12477 0
M  V30 892 H 88.5758 3.91172 3.05447 0
M  V30 893 H 83.8318 5.32411 3.0058 0
M  V30 894 H 88.0058 6.30969 2.94704 0
M  V30 895 H 85.6328 7.01967 2.91798 0
M  V30 896 N 87.2079 -1.17134 1.05439 0
M  V30 897 C 88.4479 -1.89137 0.77502 0
M  V30 898 C 88.8119 -1.79345 -0.685526 0
M  V30 899 O 90.0129 -2.46188 -1.0791 0
M  V30 900 C 88.2839 -3.35003 1.2453 0
M  V30 901 S 89.8429 -4.24952 1.09367 0
M  V30 902 H 86.6609 -0.652949 0.281387 0
M  V30 903 H 89.2629 -1.4145 1.34953 0
M  V30 904 H 87.9669 -3.39666 2.30338 0
M  V30 905 H 87.4979 -3.87736 0.665166 0
M  V30 906 H 89.5129 -4.96196 0.0193397 0
M  V30 907 N 88.686 -0.835752 -1.33615 0
M  V30 908 C 89.934 -0.429109 -1.97492 0
M  V30 909 C 90.255 1.01433 -1.66543 0
M  V30 910 O 89.525 1.70611 -0.962744 0
M  V30 911 H 88.105 -0.155686 -0.730596 0
M  V30 912 H 90.767 -1.06802 -1.63031 0
M  V30 913 H 89.863 -0.55861 -3.0706 0
M  V30 914 N 90.1641 1.46063 -0.591896 0
M  V30 915 C 91.4121 2.01938 -0.0808391 0
M  V30 916 C 91.7331 1.46475 1.28725 0
M  V30 917 O 91.0031 0.652944 1.84698 0
M  V30 918 H 89.5831 0.746516 -0.0268938 0
M  V30 919 H 92.2451 1.79055 -0.769752 0
M  V30 920 H 91.3411 3.12094 -0.0187578 0
M  V30 921 N 91.6422 0.330177 1.54103 0
M  V30 922 C 92.8672 -0.274893 2.0557 0
M  V30 923 C 93.2922 -1.44487 1.20437 0
M  V30 924 O 92.6502 -1.80021 0.214991 0
M  V30 925 C 92.6982 -0.68079 3.54115 0
M  V30 926 O 91.8022 -1.7824 3.71893 0
M  V30 927 H 91.1432 -0.0483849 0.662235 0
M  V30 928 H 93.6732 0.480508 1.98878 0
M  V30 929 H 93.6832 -0.961635 3.96505 0
M  V30 930 H 92.3582 0.174903 4.15532 0
M  V30 931 H 90.9352 -1.49985 3.41407 0
M  V30 932 N 93.1203 -1.57491 0.0584922 0
M  V30 933 C 94.0503 -2.14988 -0.911178 0
M  V30 934 C 95.0313 -1.07343 -1.31952 0
M  V30 935 O 96.2163 -1.35318 -1.39294 0
M  V30 936 C 93.3463 -2.70078 -2.18347 0
M  V30 937 C 92.3003 -3.82771 -1.91495 0
M  V30 938 C 91.6263 -4.24408 -3.25241 0
M  V30 939 C 92.9263 -5.07592 -1.23075 0
M  V30 940 H 94.6203 -2.96263 -0.432246 0
M  V30 941 H 92.1663 -1.42512 -0.206469 0
M  V30 942 H 94.1193 -3.08943 -2.86587 0
M  V30 943 H 92.8433 -1.86005 -2.68458 0
M  V30 944 H 91.5023 -3.44389 -1.25664 0
M  V30 945 H 91.1503 -3.37275 -3.73168 0
M  V30 946 H 90.8503 -5.00366 -3.08071 0
M  V30 947 H 92.3743 -4.65879 -3.94701 0
M  V30 948 H 93.7883 -5.43857 -1.81362 0
M  V30 949 H 92.1853 -5.88741 -1.16207 0
M  V30 950 H 93.2553 -4.84454 -0.207847 0
M  V30 951 N 94.5984 0.214957 -1.56127 0
M  V30 952 C 95.8474 0.936451 -1.78643 0
M  V30 953 C 96.1604 1.85237 -0.628229 0
M  V30 954 O 97.3664 2.613 -0.737186 0
M  V30 955 C 95.8224 1.7154 -3.16389 0
M  V30 956 C 95.4304 0.845299 -4.39953 0
M  V30 957 C 97.1744 2.42772 -3.48227 0
M  V30 958 C 95.0814 1.62198 -5.68723 0
M  V30 959 H 94.0114 0.353401 -0.666051 0
M  V30 960 H 96.6624 0.190169 -1.82512 0
M  V30 961 H 95.0444 2.50484 -3.06715 0
M  V30 962 H 96.2184 0.0959353 -4.607 0
M  V30 963 H 94.5334 0.244789 -4.1568 0
M  V30 964 H 97.1304 3.01394 -4.41663 0
M  V30 965 H 97.4734 3.15984 -2.71035 0
M  V30 966 H 98.0064 1.70813 -3.5926 0
M  V30 967 H 94.7454 0.933011 -6.48826 0
M  V30 968 H 94.2654 2.34579 -5.52026 0
M  V30 969 H 95.9444 2.18095 -6.09133 0
M  V30 970 N 96.0765 1.50051 0.48192 0
M  V30 971 C 97.3015 1.64508 1.26301 0
M  V30 972 C 97.7265 0.323851 1.85291 0
M  V30 973 O 97.0845 -0.710969 1.66778 0
M  V30 974 C 97.1325 2.7305 2.35533 0
M  V30 975 O 96.2365 2.3355 3.39895 0
M  V30 976 H 95.5775 0.549978 0.372048 0
M  V30 977 H 98.1075 1.9636 0.574786 0
M  V30 978 H 98.1175 2.95799 2.8101 0
M  V30 979 H 96.7925 3.68946 1.91967 0
M  V30 980 H 95.3695 2.21205 3.00204 0
M  V30 981 N 97.5546 -0.734337 1.39446 0
M  V30 982 C 98.4646 -1.87879 1.40495 0
M  V30 983 C 99.4806 -1.714 0.299672 0
M  V30 984 O 100.657 -1.93991 0.541249 0
M  V30 985 C 97.7216 -3.23477 1.24754 0
M  V30 986 C 96.7826 -3.52344 2.45259 0
M  V30 987 C 96.0156 -4.81473 2.30259 0
M  V30 988 O 96.2386 -5.55237 1.30643 0
M  V30 989 O 95.1726 -5.10254 3.19256 0
M  V30 990 H 98.9986 -1.89949 2.36966 0
M  V30 991 H 96.5836 -0.882243 1.20569 0
M  V30 992 H 98.4656 -4.04509 1.18111 0
M  V30 993 H 97.1406 -3.22176 0.313781 0
M  V30 994 H 96.0476 -2.71396 2.57478 0
M  V30 995 H 97.3806 -3.58426 3.37331 0
M  V30 996 N 99.0327 -1.24633 -0.964593 0
M  V30 997 C 100.31 -0.995809 -1.68354 0
M  V30 998 C 100.69 0.480964 -2.05548 0
M  V30 999 O 100.038 1.45599 -1.76105 0
M  V30 1000 C 100.248 -1.92177 -2.91323 0
M  V30 1001 C 101.596 -2.19446 -3.63495 0
M  V30 1002 O 102.62 -1.89855 -3.01386 0
M  V30 1003 O 101.479 -2.69714 -4.75307 0
M  V30 1004 H 98.5727 -0.376854 -0.736146 0
M  V30 1005 H 101.119 -1.35745 -1.0184 0
M  V30 1006 H 99.8907 -2.91938 -2.60553 0
M  V30 1007 H 99.5137 -1.56349 -3.65569 0
M  V30 1008 N 100.511 1.16574 -1.06058 0
M  V30 1009 C 101.757 1.87565 -0.78683 0
M  V30 1010 C 102.112 1.80012 0.679214 0
M  V30 1011 O 101.405 1.20327 1.49104 0
M  V30 1012 C 101.599 3.36195 -1.21275 0
M  V30 1013 C 101.428 3.58216 -2.71866 0
M  V30 1014 C 100.198 3.7444 -3.39298 0
M  V30 1015 C 102.396 3.57134 -3.70081 0
M  V30 1016 N 100.378 3.84389 -4.78663 0
M  V30 1017 C 101.749 3.73038 -4.9522 0
M  V30 1018 C 103.804 3.40332 -3.63426 0
M  V30 1019 C 102.507 3.73879 -6.14497 0
M  V30 1020 C 104.533 3.42466 -4.82153 0
M  V30 1021 C 103.895 3.58887 -6.06118 0
M  V30 1022 H 99.9938 0.704081 -0.340284 0
M  V30 1023 H 102.578 1.39885 -1.35426 0
M  V30 1024 H 100.749 3.82522 -0.673179 0
M  V30 1025 H 102.481 3.94839 -0.887917 0
M  V30 1026 H 99.2358 3.74662 -2.89699 0
M  V30 1027 H 99.6598 3.93138 -5.51155 0
M  V30 1028 H 104.302 3.26566 -2.68541 0
M  V30 1029 H 102.02 3.86427 -7.09718 0
M  V30 1030 H 105.606 3.30712 -4.78666 0
M  V30 1031 H 104.486 3.60454 -6.9645 0
M  V30 1032 N 101.989 0.842826 1.3317 0
M  V30 1033 C 103.235 0.441099 1.97945 0
M  V30 1034 C 103.568 -0.998024 1.66593 0
M  V30 1035 O 102.843 -1.69839 0.947898 0
M  V30 1036 C 103.126 0.666841 3.53872 0
M  V30 1037 C 102.979 2.15352 3.94897 0
M  V30 1038 C 104.298 0.115544 4.39948 0
M  V30 1039 H 101.417 0.161739 0.719034 0
M  V30 1040 H 104.059 1.05907 1.57746 0
M  V30 1041 H 102.209 0.140828 3.88245 0
M  V30 1042 H 103.881 2.7447 3.70761 0
M  V30 1043 H 102.124 2.63653 3.44484 0
M  V30 1044 H 102.795 2.26221 5.03516 0
M  V30 1045 H 105.271 0.565213 4.12243 0
M  V30 1046 H 104.147 0.303152 5.48062 0
M  V30 1047 H 104.408 -0.980935 4.3108 0
M  V30 1048 N 103.467 -1.45747 0.599634 0
M  V30 1049 C 104.713 -2.02592 0.0918643 0
M  V30 1050 C 105.046 -1.46806 -1.27128 0
M  V30 1051 O 104.321 -0.639658 -1.83681 0
M  V30 1052 C 104.604 -3.60073 0.0443398 0
M  V30 1053 C 104.457 -4.26208 1.43759 0
M  V30 1054 C 105.776 -4.35309 -0.647608 0
M  V30 1055 H 102.895 -0.736175 0.034857 0
M  V30 1056 H 105.537 -1.73694 0.770081 0
M  V30 1057 H 103.687 -3.84823 -0.533224 0
M  V30 1058 H 105.359 -4.12668 2.06162 0
M  V30 1059 H 103.602 -3.84916 2.00056 0
M  V30 1060 H 104.273 -5.35069 1.35665 0
M  V30 1061 H 106.749 -4.15805 -0.156776 0
M  V30 1062 H 105.625 -5.45038 -0.649942 0
M  V30 1063 H 105.886 -4.07598 -1.71219 0
M  V30 1064 N 104.945 -0.338344 -1.53925 0
M  V30 1065 C 106.173 0.261298 -2.05243 0
M  V30 1066 C 106.588 1.44625 -1.21363 0
M  V30 1067 O 105.945 1.80811 -0.247736 0
M  V30 1068 C 105.996 0.681412 -3.5502 0
M  V30 1069 O 105.717 -0.456414 -4.35716 0
M  V30 1070 C 107.218 1.34232 -4.22489 0
M  V30 1071 H 104.438 0.0513685 -0.669031 0
M  V30 1072 H 106.982 -0.488822 -1.98572 0
M  V30 1073 H 105.137 1.38148 -3.61931 0
M  V30 1074 H 105.551 -0.122564 -5.24357 0
M  V30 1075 H 107.025 1.58708 -5.28693 0
M  V30 1076 H 107.502 2.29426 -3.74514 0
M  V30 1077 H 108.108 0.684424 -4.19757 0
M  V30 1078 N 106.423 1.57458 -0.0668435 0
M  V30 1079 C 107.386 2.11323 0.887422 0
M  V30 1080 C 108.386 1.03618 1.22964 0
M  V30 1081 O 109.576 1.29626 1.16373 0
M  V30 1082 C 106.708 2.61048 2.19242 0
M  V30 1083 H 107.901 2.96942 0.420194 0
M  V30 1084 H 105.454 1.55239 0.181793 0
M  V30 1085 H 106.189 1.78868 2.70512 0
M  V30 1086 H 105.974 3.39769 1.95702 0
M  V30 1087 H 107.464 3.02814 2.87565 0
M  V30 1088 N 107.901 -0.206675 1.56239 0
M  V30 1089 C 108.864 -1.23976 1.92776 0
M  V30 1090 C 109.864 -1.39041 0.807729 0
M  V30 1091 O 111.054 -1.37051 1.0753 0
M  V30 1092 C 108.186 -2.61112 2.19165 0
M  V30 1093 H 109.379 -0.927764 2.85189 0
M  V30 1094 H 106.932 -0.447718 1.4975 0
M  V30 1095 H 107.667 -2.97386 1.29352 0
M  V30 1096 H 107.452 -2.51552 3.00772 0
M  V30 1097 H 108.942 -3.35633 2.48476 0
M  V30 1098 N 109.379 -1.50304 -0.473955 0
M  V30 1099 C 110.329 -1.65347 -1.56985 0
M  V30 1100 C 111.313 -0.508176 -1.52664 0
M  V30 1101 O 112.505 -0.762446 -1.59737 0
M  V30 1102 C 109.634 -1.74832 -2.95447 0
M  V30 1103 C 108.72 -2.95028 -3.04662 0
M  V30 1104 N 109.111 -4.18747 -2.83698 0
M  V30 1105 C 107.409 -2.93527 -3.35795 0
M  V30 1106 C 108.11 -4.99687 -2.97805 0
M  V30 1107 N 107.086 -4.33585 -3.2788 0
M  V30 1108 H 110.888 -2.58698 -1.39472 0
M  V30 1109 H 108.402 -1.47449 -0.680629 0
M  V30 1110 H 110.399 -1.83712 -3.7424 0
M  V30 1111 H 109.059 -0.826376 -3.14008 0
M  V30 1112 H 110.07 -4.48291 -2.59337 0
M  V30 1113 H 106.747 -2.10821 -3.60362 0
M  V30 1114 H 108.137 -6.08057 -2.85861 0
M  V30 1115 N 110.857 0.726932 -1.39834 0
M  V30 1116 C 112.097 1.4992 -1.38936 0
M  V30 1117 C 112.461 1.91996 0.0126883 0
M  V30 1118 O 113.662 2.68399 0.146715 0
M  V30 1119 C 111.933 2.70013 -2.34153 0
M  V30 1120 S 113.492 3.59563 -2.51515 0
M  V30 1121 H 110.31 0.51271 -0.492595 0
M  V30 1122 H 112.912 0.85107 -1.76003 0
M  V30 1123 H 111.616 2.37254 -3.34871 0
M  V30 1124 H 111.147 3.39748 -1.98331 0
M  V30 1125 H 113.162 4.63973 -1.75909 0
M  V30 1126 N 112.336 1.25143 0.95797 0
M  V30 1127 C 113.584 1.09476 1.69881 0
M  V30 1128 C 113.905 -0.365502 1.91544 0
M  V30 1129 O 113.175 -1.25985 1.50015 0
M  V30 1130 H 111.755 0.402128 0.629525 0
M  V30 1131 H 114.417 1.57214 1.15194 0
M  V30 1132 H 113.513 1.60046 2.6794 0
M  V30 1133 N 113.814 -1.1601 1.06675 0
M  V30 1134 C 115.06 -1.86909 0.786945 0
M  V30 1135 C 115.393 -1.81717 -0.685018 0
M  V30 1136 O 114.668 -1.23551 -1.50218 0
M  V30 1137 C 114.951 -3.36313 1.28707 0
M  V30 1138 C 114.804 -3.50175 2.82308 0
M  V30 1139 C 116.123 -4.3084 0.898071 0
M  V30 1140 H 113.242 -0.678677 0.287343 0
M  V30 1141 H 115.884 -1.36336 1.32334 0
M  V30 1142 H 114.034 -3.79513 0.830768 0
M  V30 1143 H 115.706 -3.15886 3.36175 0
M  V30 1144 H 113.949 -2.91959 3.20847 0
M  V30 1145 H 114.62 -4.55116 3.12368 0
M  V30 1146 H 117.096 -3.95561 1.29114 0
M  V30 1147 H 115.972 -5.33876 1.27543 0
M  V30 1148 H 116.233 -4.41662 -0.196651 0
M  V30 1149 N 115.292 -0.849877 -1.32721 0
M  V30 1150 C 116.708 -0.539102 -1.50219 0
M  V30 1151 C 116.908 0.931271 -1.78689 0
M  V30 1152 O 115.964 1.71455 -1.85363 0
M  V30 1153 C 117.277 -1.42196 -2.64954 0
M  V30 1154 C 118.825 -1.42189 -2.78839 0
M  V30 1155 C 119.3 -2.28985 -3.96648 0
M  V30 1156 N 120.791 -2.26754 -4.03902 0
M  V30 1157 C 121.526 -2.90644 -4.94281 0
M  V30 1158 N 121.022 -3.63629 -5.897 0
M  V30 1159 N 122.815 -2.80057 -4.87365 0
M  V30 1160 H 114.966 -1.80156 -1.12506 0
M  V30 1161 H 117.229 -0.769217 -0.554085 0
M  V30 1162 H 116.935 -2.46733 -2.50631 0
M  V30 1163 H 116.809 -1.10591 -3.60624 0
M  V30 1164 H 119.196 -0.38419 -2.92588 0
M  V30 1165 H 119.277 -1.77807 -1.83898 0
M  V30 1166 H 118.921 -3.32819 -3.83658 0
M  V30 1167 H 118.851 -1.90702 -4.90857 0
M  V30 1168 H 121.342 -1.73688 -3.3562 0
M  V30 1169 H 121.655 -4.09558 -6.55349 0
M  V30 1170 H 120 -3.67737 -5.89741 0
M  V30 1171 H 123.191 -2.22593 -4.11789 0
M  V30 1172 H 123.364 -3.30132 -5.57599 0
M  V30 1173 N 116.77 1.45427 -0.607355 0
M  V30 1174 C 117.998 2.06614 -0.108814 0
M  V30 1175 C 118.413 1.45204 1.2067 0
M  V30 1176 O 117.77 0.566132 1.73497 0
M  V30 1177 C 117.821 3.61481 0.0375347 0
M  V30 1178 O 117.542 4.20598 -1.22593 0
M  V30 1179 C 119.043 4.39652 0.567561 0
M  V30 1180 H 116.263 0.66747 -0.0687351 0
M  V30 1181 H 118.807 1.86675 -0.835022 0
M  V30 1182 H 116.962 3.80762 0.714068 0
M  V30 1183 H 117.376 5.1377 -1.05547 0
M  V30 1184 H 118.85 5.48518 0.61905 0
M  V30 1185 H 119.327 4.09417 1.58978 0
M  V30 1186 H 119.933 4.25234 -0.0749202 0
M  V30 1187 N 118.248 0.346503 1.53744 0
M  V30 1188 C 119.473 -0.253074 2.0585 0
M  V30 1189 C 119.898 -1.43202 1.21962 0
M  V30 1190 O 119.256 -1.79783 0.234073 0
M  V30 1191 C 119.304 -0.643193 3.54817 0
M  V30 1192 O 118.408 -1.74286 3.73762 0
M  V30 1193 H 117.749 -0.0413583 0.662711 0
M  V30 1194 H 120.279 0.501574 1.98357 0
M  V30 1195 H 120.289 -0.919526 3.97503 0
M  V30 1196 H 118.964 0.218966 4.15323 0
M  V30 1197 H 117.541 -1.46356 3.42979 0
M  V30 1198 N 119.726 -1.57421 0.075193 0
M  V30 1199 C 121.003 -1.85029 -0.634329 0
M  V30 1200 C 121.383 -0.968305 -1.87582 0
M  V30 1201 O 120.731 -0.0354749 -2.28472 0
M  V30 1202 C 120.941 -3.35286 -0.968742 0
M  V30 1203 C 122.289 -4.02875 -1.34077 0
M  V30 1204 O 123.313 -3.40051 -1.06037 0
M  V30 1205 O 122.172 -5.13691 -1.86506 0
M  V30 1206 H 119.266 -0.7645 -0.315387 0
M  V30 1207 H 121.812 -1.69366 0.106382 0
M  V30 1208 H 120.584 -3.91203 -0.0871376 0
M  V30 1209 H 120.207 -3.56223 -1.7661 0
M  V30 1210 N 121.204 0.198386 -1.56346 0
M  V30 1211 C 122.45 0.920648 -1.80698 0
M  V30 1212 C 122.783 1.83045 -0.648697 0
M  V30 1213 O 122.058 1.91308 0.350925 0
M  V30 1214 C 122.341 1.73971 -3.15287 0
M  V30 1215 C 122.194 0.85485 -4.41602 0
M  V30 1216 C 123.513 2.71296 -3.46535 0
M  V30 1217 H 120.632 0.333261 -0.657348 0
M  V30 1218 H 123.274 0.188198 -1.89066 0
M  V30 1219 H 121.424 2.36416 -3.08285 0
M  V30 1220 H 123.096 0.245362 -4.60647 0
M  V30 1221 H 121.339 0.161398 -4.335 0
M  V30 1222 H 122.01 1.46286 -5.32264 0
M  V30 1223 H 124.486 2.18983 -3.53816 0
M  V30 1224 H 123.362 3.2569 -4.41834 0
M  V30 1225 H 123.623 3.5018 -2.69864 0
M  V30 1226 N 122.682 1.50554 0.465978 0
M  V30 1227 C 123.928 1.62038 1.21949 0
M  V30 1228 C 124.261 0.322116 1.9151 0
M  V30 1229 O 123.536 -0.676723 1.82348 0
M  V30 1230 C 123.819 2.80421 2.25912 0
M  V30 1231 C 123.672 4.20144 1.60622 0
M  V30 1232 C 124.991 2.94354 3.27176 0
M  V30 1233 H 122.11 0.589752 0.441998 0
M  V30 1234 H 124.752 1.82956 0.51257 0
M  V30 1235 H 122.902 2.62717 2.86203 0
M  V30 1236 H 124.574 4.49449 1.03889 0
M  V30 1237 H 122.817 4.24165 0.909211 0
M  V30 1238 H 123.488 4.98914 2.36196 0
M  V30 1239 H 125.964 3.10578 2.76913 0
M  V30 1240 H 124.84 3.788 3.97242 0
M  V30 1241 H 125.101 2.05186 3.916 0
M  V30 1242 N 124.16 -0.719506 1.40217 0
M  V30 1243 C 125.406 -1.48152 1.38488 0
M  V30 1244 C 125.739 -1.94195 -0.0141867 0
M  V30 1245 O 125.014 -1.67884 -0.982096 0
M  V30 1246 C 125.297 -2.71035 2.37091 0
M  V30 1247 C 125.15 -2.30912 3.86005 0
M  V30 1248 C 126.469 -3.73182 2.33288 0
M  V30 1249 H 123.588 -0.537395 0.504357 0
M  V30 1250 H 126.23 -0.821472 1.71324 0
M  V30 1251 H 124.38 -3.27352 2.0922 0
M  V30 1252 H 126.052 -1.80107 4.24687 0
M  V30 1253 H 124.295 -1.62958 4.02029 0
M  V30 1254 H 124.966 -3.18978 4.50508 0
M  V30 1255 H 127.442 -3.26485 2.57966 0
M  V30 1256 H 126.318 -4.56806 3.04334 0
M  V30 1257 H 126.579 -4.21202 1.34317 0
M  V30 1258 N 125.638 -1.25649 -0.95132 0
M  V30 1259 C 126.601 -1.06399 -2.03007 0
M  V30 1260 C 127.601 -0.0156794 -1.60792 0
M  V30 1261 O 128.791 -0.25817 -1.72276 0
M  V30 1262 C 125.923 -0.616184 -3.35285 0
M  V30 1263 H 127.116 -2.02164 -2.21517 0
M  V30 1264 H 124.669 -1.08103 -1.12887 0
M  V30 1265 H 125.404 0.343917 -3.22471 0
M  V30 1266 H 125.189 -1.37301 -3.67275 0
M  V30 1267 H 126.679 -0.503032 -4.14559 0
M  V30 1268 N 127.117 1.15442 -1.07289 0
M  V30 1269 C 128.365 1.85845 -0.794096 0
M  V30 1270 C 128.686 1.82692 0.681809 0
M  V30 1271 O 127.956 1.26741 1.49377 0
M  V30 1272 H 126.536 0.688089 -0.290763 0
M  V30 1273 H 129.198 1.39947 -1.3565 0
M  V30 1274 H 128.294 2.91001 -1.12804 0
M  V30 1275 N 128.595 0.856903 1.32268 0
M  V30 1276 C 129.505 0.306131 2.32594 0
M  V30 1277 C 130.521 -0.577209 1.64147 0
M  V30 1278 O 131.697 -0.477043 1.95669 0
M  V30 1279 C 128.762 -0.494561 3.43154 0
M  V30 1280 C 127.823 0.415186 4.27288 0
M  V30 1281 C 127.056 -0.347387 5.32568 0
M  V30 1282 O 127.279 -1.57708 5.48165 0
M  V30 1283 O 126.213 0.287982 6.01211 0
M  V30 1284 H 130.039 1.13737 2.81598 0
M  V30 1285 H 127.624 0.619902 1.35932 0
M  V30 1286 H 129.506 -0.948944 4.10576 0
M  V30 1287 H 128.181 -1.30257 2.96336 0
M  V30 1288 H 127.088 0.917793 3.62667 0
M  V30 1289 H 128.421 1.18844 4.77637 0
M  V30 1290 N 130.073 -1.45103 0.615059 0
M  V30 1291 C 131.32 -2.02183 0.113179 0
M  V30 1292 C 131.648 -1.48249 -1.25906 0
M  V30 1293 O 130.903 -0.650265 -1.84581 0
M  V30 1294 C 131.202 -3.57386 0.0318797 0
M  V30 1295 C 130.868 -4.30505 1.34077 0
M  V30 1296 C 129.53 -4.50197 1.69929 0
M  V30 1297 C 131.882 -4.72238 2.20546 0
M  V30 1298 C 129.21 -5.08881 2.91988 0
M  V30 1299 C 131.562 -5.32272 3.41861 0
M  V30 1300 C 130.226 -5.50187 3.77956 0
M  V30 1301 H 129.496 -0.739842 0.0414151 0
M  V30 1302 H 132.143 -1.74073 0.798168 0
M  V30 1303 H 130.448 -3.84817 -0.736409 0
M  V30 1304 H 132.145 -3.99264 -0.372712 0
M  V30 1305 H 128.735 -4.15496 1.05173 0
M  V30 1306 H 132.919 -4.56751 1.94146 0
M  V30 1307 H 128.175 -5.20939 3.2005 0
M  V30 1308 H 132.349 -5.63563 4.09109 0
M  V30 1309 H 129.976 -5.95427 4.72622 0
M  V30 1310 N 131.551 -0.354651 -1.53558 0
M  V30 1311 C 132.828 0.294281 -1.93374 0
M  V30 1312 C 133.208 1.67313 -1.28723 0
M  V30 1313 O 132.556 2.24179 -0.442247 0
M  V30 1314 C 132.766 0.355445 -3.47185 0
M  V30 1315 C 134.114 0.601007 -4.20325 0
M  V30 1316 O 135.138 0.437106 -3.53508 0
M  V30 1317 O 133.997 0.919322 -5.38712 0
M  V30 1318 H 131.091 0.174033 -0.808481 0
M  V30 1319 H 133.637 -0.406638 -1.64756 0
M  V30 1320 H 132.409 -0.611729 -3.86489 0
M  V30 1321 H 132.032 1.1027 -3.82003 0
M  V30 1322 N 133.029 1.57378 -0.0835403 0
M  V30 1323 C 133.961 2.10389 0.909338 0
M  V30 1324 C 134.974 1.03858 1.25369 0
M  V30 1325 O 136.163 1.31338 1.20882 0
M  V30 1326 C 133.263 2.55908 2.2218 0
M  V30 1327 C 132.436 3.86145 2.05453 0
M  V30 1328 C 131.495 4.17633 3.20108 0
M  V30 1329 O 130.521 4.87043 2.94581 0
M  V30 1330 N 131.723 3.72113 4.45547 0
M  V30 1331 H 134.488 2.962 0.456657 0
M  V30 1332 H 132.049 1.61579 0.101877 0
M  V30 1333 H 134.041 2.74027 2.97811 0
M  V30 1334 H 132.611 1.75171 2.58909 0
M  V30 1335 H 131.831 3.7729 1.1422 0
M  V30 1336 H 133.119 4.7137 1.91541 0
M  V30 1337 H 132.517 3.16062 4.69171 0
M  V30 1338 H 131.074 3.95409 5.18165 0
M  V30 1339 N 134.507 -0.190092 1.56449 0
M  V30 1340 C 135.755 -0.907908 1.80559 0
M  V30 1341 C 136.076 -1.83583 0.657438 0
M  V30 1342 O 135.346 -1.93203 -0.323924 0
M  V30 1343 H 133.926 -0.338247 0.666032 0
M  V30 1344 H 136.588 -0.194403 1.93928 0
M  V30 1345 H 135.684 -1.49604 2.73907 0
M  V30 1346 N 135.985 -1.50799 -0.457987 0
M  V30 1347 C 137.21 -1.66496 -1.23668 0
M  V30 1348 C 137.635 -0.353288 -1.84752 0
M  V30 1349 O 136.993 0.684346 -1.67888 0
M  V30 1350 C 137.041 -2.76763 -2.3116 0
M  V30 1351 O 136.145 -2.38928 -3.36136 0
M  V30 1352 H 135.486 -0.555828 -0.363252 0
M  V30 1353 H 138.016 -1.9725 -0.543474 0
M  V30 1354 H 138.026 -3.00232 -2.76269 0
M  V30 1355 H 136.701 -3.71954 -1.86073 0
M  V30 1356 H 135.278 -2.25953 -2.96647 0
M  V30 1357 N 137.463 0.71206 -1.40597 0
M  V30 1358 C 138.74 1.46536 -1.29563 0
M  V30 1359 C 139.12 2.10931 0.0844217 0
M  V30 1360 O 138.468 2.00418 1.0975 0
M  V30 1361 C 138.678 2.49821 -2.43701 0
M  V30 1362 C 140.026 3.15551 -2.841 0
M  V30 1363 O 141.05 2.60142 -2.4332 0
M  V30 1364 O 139.909 4.15867 -3.54566 0
M  V30 1365 H 137.003 0.651801 -0.509004 0
M  V30 1366 H 139.549 0.743935 -1.52524 0
M  V30 1367 H 138.321 2.00778 -3.35863 0
M  V30 1368 H 137.944 3.29495 -2.22528 0
M  V30 1369 N 138.941 1.26152 0.944643 0
M  V30 1370 C 139.851 1.09176 2.07648 0
M  V30 1371 C 140.867 0.0261935 1.7398 0
M  V30 1372 O 142.043 0.229208 2.00091 0
M  V30 1373 C 139.108 0.722915 3.39079 0
M  V30 1374 C 138.169 1.86752 3.86552 0
M  V30 1375 C 137.402 1.51617 5.11711 0
M  V30 1376 O 137.625 0.416331 5.68879 0
M  V30 1377 O 136.559 2.34975 5.54139 0
M  V30 1378 H 140.385 2.0412 2.24875 0
M  V30 1379 H 137.97 1.05182 1.061 0
M  V30 1380 H 139.852 0.529787 4.18056 0
M  V30 1381 H 138.527 -0.197159 3.23099 0
M  V30 1382 H 137.434 2.11558 3.08535 0
M  V30 1383 H 138.767 2.76719 4.07047 0
M  V30 1384 N 140.419 -1.14872 1.07899 0
M  V30 1385 C 141.329 -2.2341 0.715915 0
M  V30 1386 C 142.345 -1.71808 -0.275306 0
M  V30 1387 O 143.521 -2.01039 -0.120545 0
M  V30 1388 C 140.586 -3.46474 0.125168 0
M  V30 1389 C 139.647 -4.13039 1.17034 0
M  V30 1390 C 138.88 -5.30229 0.607688 0
M  V30 1391 O 139.103 -5.675 -0.574497 0
M  V30 1392 O 138.037 -5.86444 1.35526 0
M  V30 1393 H 141.863 -2.56808 1.62121 0
M  V30 1394 H 139.448 -1.22702 0.852322 0
M  V30 1395 H 141.33 -4.20917 -0.201729 0
M  V30 1396 H 140.005 -3.14811 -0.753364 0
M  V30 1397 H 138.912 -3.40493 1.54968 0
M  V30 1398 H 140.245 -4.48796 2.02097 0
M  V30 1399 N 141.898 -0.863906 -1.31812 0
M  V30 1400 C 142.846 -0.30422 -2.30602 0
M  V30 1401 C 143.84 0.577419 -1.59255 0
M  V30 1402 O 145.046 0.464194 -1.73912 0
M  V30 1403 H 141.421 -0.0796877 -0.747766 0
M  V30 1404 H 143.392 -1.15148 -2.75288 0
M  V30 1405 C 142.141 0.484617 -3.44306 0
M  V30 1406 H 141.464 -0.18451 -3.99374 0
M  V30 1407 H 142.904 0.841664 -4.15562 0
M  V30 1408 C 141.363 1.6735 -2.92396 0
M  V30 1409 O 141.893 2.77273 -2.90659 0
M  V30 1410 N 140.099 1.50362 -2.48676 0
M  V30 1411 H 139.646 0.609402 -2.50288 0
M  V30 1412 H 139.604 2.30051 -2.14299 0
M  V30 1413 N 143.376 1.44774 -0.622745 0
M  V30 1414 C 144.625 2.01334 -0.121397 0
M  V30 1415 C 144.938 1.49505 1.26125 0
M  V30 1416 O 146.144 1.98139 1.85616 0
M  V30 1417 C 144.6 3.59516 -0.166298 0
M  V30 1418 C 144.208 4.20342 -1.54974 0
M  V30 1419 C 145.952 4.23582 0.279021 0
M  V30 1420 C 143.859 5.70721 -1.55021 0
M  V30 1421 H 142.789 0.752851 -0.0416172 0
M  V30 1422 H 145.44 1.66083 -0.780309 0
M  V30 1423 H 143.822 3.92027 0.559557 0
M  V30 1424 H 144.996 3.99381 -2.29851 0
M  V30 1425 H 143.311 3.68529 -1.93843 0
M  V30 1426 H 145.908 5.33868 0.298083 0
M  V30 1427 H 146.251 3.95327 1.30471 0
M  V30 1428 H 146.784 3.95843 -0.394063 0
M  V30 1429 H 143.523 6.03698 -2.55399 0
M  V30 1430 H 143.043 5.93829 -0.844245 0
M  V30 1431 H 144.722 6.34203 -1.28047 0
M  V30 1432 N 144.854 0.36279 1.53368 0
M  V30 1433 C 145.786 -0.519668 2.23231 0
M  V30 1434 C 146.799 -1.04844 1.24546 0
M  V30 1435 O 147.988 -0.955296 1.50786 0
M  V30 1436 C 145.088 -1.72995 2.9142 0
M  V30 1437 C 144.261 -1.33316 4.16588 0
M  V30 1438 C 143.32 -2.40521 4.68013 0
M  V30 1439 O 142.346 -2.03027 5.3176 0
M  V30 1440 N 143.548 -3.72065 4.45587 0
M  V30 1441 H 146.313 0.078751 2.99597 0
M  V30 1442 H 143.874 0.187833 1.60807 0
M  V30 1443 H 145.866 -2.44184 3.22733 0
M  V30 1444 H 144.436 -2.2353 2.18525 0
M  V30 1445 H 143.656 -0.451236 3.91609 0
M  V30 1446 H 144.944 -1.04432 4.97967 0
M  V30 1447 H 144.342 -4.05304 3.94646 0
M  V30 1448 H 142.899 -4.39366 4.81457 0
M  V30 1449 N 146.332 -1.57332 0.0918853 0
M  V30 1450 C 147.578 -1.94524 -0.573425 0
M  V30 1451 C 147.911 -0.973578 -1.68033 0
M  V30 1452 O 147.186 -0.00609226 -1.94499 0
M  V30 1453 C 147.469 -3.41858 -1.13161 0
M  V30 1454 C 147.322 -4.4979 -0.0299747 0
M  V30 1455 C 148.641 -3.90435 -2.03098 0
M  V30 1456 H 145.76 -0.70734 -0.206975 0
M  V30 1457 H 148.402 -1.89309 0.161942 0
M  V30 1458 H 146.552 -3.46433 -1.7583 0
M  V30 1459 H 148.224 -4.57327 0.604112 0
M  V30 1460 H 146.467 -4.291 0.636833 0
M  V30 1461 H 147.138 -5.50069 -0.461287 0
M  V30 1462 H 149.614 -3.87992 -1.50338 0
M  V30 1463 H 148.49 -4.94097 -2.39081 0
M  V30 1464 H 148.751 -3.29541 -2.94712 0
M  V30 1465 N 147.81 0.181792 -1.56548 0
M  V30 1466 C 148.74 1.22765 -1.98623 0
M  V30 1467 C 149.721 1.46747 -0.860189 0
M  V30 1468 O 150.906 1.58259 -1.12551 0
M  V30 1469 C 148.036 2.56894 -2.33715 0
M  V30 1470 C 146.99 2.475 -3.49182 0
M  V30 1471 C 146.316 3.86023 -3.69986 0
M  V30 1472 C 147.616 1.98866 -4.82959 0
M  V30 1473 H 149.31 0.877942 -2.86239 0
M  V30 1474 H 146.856 0.42088 -1.37712 0
M  V30 1475 H 148.809 3.30253 -2.61746 0
M  V30 1476 H 147.533 2.93632 -1.42997 0
M  V30 1477 H 146.192 1.76596 -3.21262 0
M  V30 1478 H 145.84 4.20136 -2.76576 0
M  V30 1479 H 145.54 3.80609 -4.47672 0
M  V30 1480 H 147.064 4.60984 -4.00407 0
M  V30 1481 H 148.478 2.61992 -5.09934 0
M  V30 1482 H 146.875 2.04424 -5.64208 0
M  V30 1483 H 147.945 0.942465 -4.75653 0
M  V30 1484 N 149.288 1.51039 0.449983 0
M  V30 1485 C 150.235 1.71439 1.54523 0
M  V30 1486 C 151.205 0.555871 1.56522 0
M  V30 1487 O 152.39 0.788871 1.73728 0
M  V30 1488 C 149.53 1.83384 2.92343 0
M  V30 1489 C 148.643 3.10873 2.9997 0
M  V30 1490 C 147.778 3.13488 4.28834 0
M  V30 1491 C 146.817 4.35343 4.30282 0
M  V30 1492 N 145.954 4.35579 5.5065 0
M  V30 1493 H 150.794 2.64934 1.36433 0
M  V30 1494 H 148.331 1.31312 0.662982 0
M  V30 1495 H 150.289 1.88291 3.72293 0
M  V30 1496 H 148.919 0.933086 3.0902 0
M  V30 1497 H 147.971 3.15336 2.12761 0
M  V30 1498 H 149.283 4.00814 2.96901 0
M  V30 1499 H 148.437 3.17241 5.17149 0
M  V30 1500 H 147.176 2.21414 4.34543 0
M  V30 1501 H 146.181 4.3178 3.40362 0
M  V30 1502 H 147.406 5.28668 4.26248 0
M  V30 1503 H 145.352 3.46369 5.57104 0
M  V30 1504 H 145.269 5.19313 5.49409 0
M  V30 1505 H 146.537 4.43507 6.41032 0
M  V30 1506 N 150.766 -0.704594 1.40972 0
M  V30 1507 C 152.015 -1.46018 1.39146 0
M  V30 1508 C 152.328 -1.956 0.000589254 0
M  V30 1509 O 153.534 -2.71137 -0.1403 0
M  V30 1510 C 151.99 -2.63996 2.4461 0
M  V30 1511 C 151.598 -2.21238 3.89561 0
M  V30 1512 C 153.342 -3.41677 2.51907 0
M  V30 1513 C 151.249 -3.3612 4.86598 0
M  V30 1514 H 150.179 -0.548444 0.517422 0
M  V30 1515 H 152.83 -0.765784 1.66757 0
M  V30 1516 H 151.212 -3.3566 2.10115 0
M  V30 1517 H 152.386 -1.56923 4.33257 0
M  V30 1518 H 150.701 -1.56574 3.85841 0
M  V30 1519 H 153.298 -4.27182 3.2159 0
M  V30 1520 H 153.641 -3.86247 1.55303 0
M  V30 1521 H 154.174 -2.77064 2.85448 0
M  V30 1522 H 150.913 -2.96572 5.84573 0
M  V30 1523 H 150.433 -3.99315 4.47557 0
M  V30 1524 H 152.112 -4.02029 5.06934 0
M  V30 1525 N 152.244 -1.26651 -0.937939 0
M  V30 1526 C 153.207 -1.08546 -2.01867 0
M  V30 1527 C 154.207 -0.0327327 -1.60767 0
M  V30 1528 O 155.397 -0.276427 -1.71993 0
M  V30 1529 C 152.529 -0.651711 -3.34613 0
M  V30 1530 H 153.722 -2.04502 -2.1936 0
M  V30 1531 H 151.275 -1.09294 -1.11734 0
M  V30 1532 H 152.01 0.309696 -3.22818 0
M  V30 1533 H 151.795 -1.41189 -3.65798 0
M  V30 1534 H 153.285 -0.546973 -4.14002 0
M  V30 1535 N 153.722 1.14298 -1.08507 0
M  V30 1536 C 154.669 2.19414 -0.715965 0
M  V30 1537 C 155.639 1.63399 0.298326 0
M  V30 1538 O 156.824 1.89929 0.182101 0
M  V30 1539 C 153.964 3.44845 -0.132534 0
M  V30 1540 C 153.077 4.15007 -1.19973 0
M  V30 1541 C 152.212 5.28024 -0.580048 0
M  V30 1542 C 151.251 5.9002 -1.62921 0
M  V30 1543 N 150.388 6.94485 -1.03125 0
M  V30 1544 H 155.228 2.50336 -1.61666 0
M  V30 1545 H 152.765 1.2293 -0.807882 0
M  V30 1546 H 154.723 4.16601 0.223454 0
M  V30 1547 H 153.353 3.14403 0.731467 0
M  V30 1548 H 152.405 3.41629 -1.67313 0
M  V30 1549 H 153.717 4.57178 -1.99473 0
M  V30 1550 H 152.871 6.06455 -0.172364 0
M  V30 1551 H 151.61 4.87076 0.246603 0
M  V30 1552 H 150.615 5.10291 -2.04654 0
M  V30 1553 H 151.84 6.33042 -2.45835 0
M  V30 1554 H 149.786 6.55612 -0.225711 0
M  V30 1555 H 149.703 7.35148 -1.76334 0
M  V30 1556 H 150.971 7.7679 -0.649458 0
M  V30 1557 N 155.201 0.870884 1.31352 0
M  V30 1558 C 156.447 0.482987 1.96965 0
M  V30 1559 C 156.78 -0.962462 1.68672 0
M  V30 1560 O 156.055 -1.6779 0.98371 0
M  V30 1561 C 156.338 0.741752 3.52378 0
M  V30 1562 C 156.191 2.2368 3.9024 0
M  V30 1563 C 157.51 0.208838 4.39604 0
M  V30 1564 H 154.629 0.176955 0.715441 0
M  V30 1565 H 157.271 1.09229 1.55464 0
M  V30 1566 H 155.421 0.223149 3.87859 0
M  V30 1567 H 157.093 2.82273 3.64856 0
M  V30 1568 H 155.336 2.70901 3.38814 0
M  V30 1569 H 156.007 2.3685 4.98604 0
M  V30 1570 H 158.483 0.652529 4.10952 0
M  V30 1571 H 157.359 0.419336 5.47296 0
M  V30 1572 H 157.62 -0.889275 4.33064 0
M  V30 1573 N 156.679 -1.44442 0.630414 0
M  V30 1574 C 157.926 -2.02052 0.134617 0
M  V30 1575 C 158.254 -1.49576 -1.24327 0
M  V30 1576 O 157.509 -0.669806 -1.83881 0
M  V30 1577 C 157.808 -3.57332 0.0697835 0
M  V30 1578 C 157.474 -4.29058 1.38635 0
M  V30 1579 C 156.136 -4.4837 1.74694 0
M  V30 1580 C 158.488 -4.69872 2.25543 0
M  V30 1581 C 155.816 -5.05756 2.97369 0
M  V30 1582 C 158.168 -5.28616 3.47487 0
M  V30 1583 C 156.832 -5.46147 3.8377 0
M  V30 1584 H 156.102 -0.739361 0.0492598 0
M  V30 1585 H 158.749 -1.73217 0.816586 0
M  V30 1586 H 157.054 -3.85577 -0.695553 0
M  V30 1587 H 158.751 -3.99637 -0.330344 0
M  V30 1588 H 155.341 -4.14357 1.09574 0
M  V30 1589 H 159.525 -4.54666 1.98979 0
M  V30 1590 H 154.781 -5.17515 3.25558 0
M  V30 1591 H 158.955 -5.59192 4.15063 0
M  V30 1592 H 156.582 -5.9038 4.7891 0
M  V30 1593 N 158.157 -0.370918 -1.53173 0
M  V30 1594 C 159.104 0.473035 -2.259 0
M  V30 1595 C 160.074 1.07311 -1.26781 0
M  V30 1596 O 161.259 1.1046 -1.55574 0
M  V30 1597 C 158.399 1.60405 -3.05556 0
M  V30 1598 C 157.512 1.02863 -4.19575 0
M  V30 1599 C 156.647 2.12918 -4.86661 0
M  V30 1600 C 155.686 1.52869 -5.92704 0
M  V30 1601 N 154.823 2.56779 -6.53459 0
M  V30 1602 H 159.663 -0.153649 -2.97604 0
M  V30 1603 H 157.2 -0.0875946 -1.46839 0
M  V30 1604 H 159.158 2.27034 -3.50016 0
M  V30 1605 H 157.788 2.20131 -2.36097 0
M  V30 1606 H 156.84 0.252465 -3.79561 0
M  V30 1607 H 158.152 0.549642 -4.95762 0
M  V30 1608 H 157.306 2.87356 -5.34333 0
M  V30 1609 H 156.045 2.6417 -4.09958 0
M  V30 1610 H 155.05 0.769479 -5.44389 0
M  V30 1611 H 156.275 1.02435 -6.7133 0
M  V30 1612 H 154.221 3.07235 -5.79606 0
M  V30 1613 H 154.138 2.13583 -7.25202 0
M  V30 1614 H 155.406 3.30903 -7.05779 0
M  V30 1615 N 159.635 1.57281 -0.100228 0
M  V30 1616 C 160.583 2.15542 0.874328 0
M  V30 1617 C 161.577 1.09962 1.28859 0
M  V30 1618 O 162.783 1.28298 1.26252 0
M  V30 1619 H 159.158 0.689567 0.300003 0
M  V30 1620 H 161.129 2.96241 0.35829 0
M  V30 1621 C 159.878 2.75454 2.1218 0
M  V30 1622 H 159.201 3.56384 1.81193 0
M  V30 1623 H 160.641 3.19781 2.78417 0
M  V30 1624 C 159.1 1.71602 2.89921 0
M  V30 1625 O 159.63 1.15804 3.84646 0
M  V30 1626 N 157.836 1.41975 2.53558 0
M  V30 1627 H 157.383 1.87539 1.76598 0
M  V30 1628 H 157.341 0.727274 3.05873 0
M  V30 1629 N 161.113 -0.173488 1.56642 0
M  V30 1630 C 162.524 -0.736155 1.71574 0
M  V30 1631 C 162.875 -1.82888 0.710389 0
M  V30 1632 O 162 -2.16017 -0.1287 0
M  V30 1633 C 162.595 -1.34211 3.11083 0
M  V30 1634 C 161.154 -1.85162 3.27707 0
M  V30 1635 C 160.301 -0.729765 2.67525 0
M  V30 1636 H 163.252 0.0518786 1.58615 0
M  V30 1637 H 163.273 -2.21178 3.09613 0
M  V30 1638 H 162.785 -0.546579 3.84232 0
M  V30 1639 H 160.886 -2.67366 2.59512 0
M  V30 1640 H 160.999 -1.99855 4.35425 0
M  V30 1641 H 159.363 -1.14965 2.27278 0
M  V30 1642 H 160.146 0.0538806 3.43258 0
M  V30 1643 N 162.591 -1.51276 -0.441967 0
M  V30 1644 C 163.538 -1.72256 -1.53612 0
M  V30 1645 C 164.508 -0.564164 -1.56225 0
M  V30 1646 O 165.693 -0.798074 -1.73307 0
M  V30 1647 C 162.833 -1.84932 -2.91366 0
M  V30 1648 C 161.946 -3.12459 -2.98317 0
M  V30 1649 C 161.081 -3.15758 -4.27166 0
M  V30 1650 C 160.12 -4.37619 -4.27967 0
M  V30 1651 N 159.257 -4.38493 -5.48333 0
M  V30 1652 H 164.097 -2.65654 -1.35026 0
M  V30 1653 H 161.634 -1.31662 -0.656009 0
M  V30 1654 H 163.592 -1.90263 -3.7129 0
M  V30 1655 H 162.222 -0.949461 -3.08521 0
M  V30 1656 H 161.274 -3.1646 -2.11086 0
M  V30 1657 H 162.586 -4.02382 -2.94771 0
M  V30 1658 H 161.74 -3.19979 -5.15459 0
M  V30 1659 H 160.479 -2.23715 -4.33362 0
M  V30 1660 H 159.484 -4.33579 -3.38067 0
M  V30 1661 H 160.709 -5.30921 -4.23438 0
M  V30 1662 H 158.655 -3.49318 -5.55259 0
M  V30 1663 H 158.572 -5.22219 -5.46647 0
M  V30 1664 H 159.84 -4.469 -6.38671 0
M  V30 1665 N 164.069 0.697108 -1.41344 0
M  V30 1666 C 165.316 1.45714 -1.40619 0
M  V30 1667 C 165.644 1.94494 -0.0147907 0
M  V30 1668 O 164.899 1.69794 0.973066 0
M  V30 1669 C 165.198 2.68553 -2.35826 0
M  V30 1670 C 164.864 2.38438 -3.82698 0
M  V30 1671 C 163.526 2.29936 -4.22709 0
M  V30 1672 C 165.878 2.13567 -4.75435 0
M  V30 1673 C 163.206 1.94656 -5.53467 0
M  V30 1674 C 165.558 1.79797 -6.06511 0
M  V30 1675 C 164.222 1.69789 -6.45545 0
M  V30 1676 H 163.492 0.533206 -0.51456 0
M  V30 1677 H 166.139 0.796901 -1.74131 0
M  V30 1678 H 164.444 3.39503 -1.95563 0
M  V30 1679 H 166.141 3.2669 -2.32539 0
M  V30 1680 H 162.731 2.4595 -3.51008 0
M  V30 1681 H 166.915 2.19082 -4.45328 0
M  V30 1682 H 162.171 1.8546 -5.82593 0
M  V30 1683 H 166.345 1.59572 -6.77872 0
M  V30 1684 H 163.972 1.4222 -7.46778 0
M  V30 1685 N 165.547 1.27147 0.931209 0
M  V30 1686 C 166.772 1.16191 1.71797 0
M  V30 1687 C 167.197 -0.278004 1.86034 0
M  V30 1688 O 166.555 -1.20137 1.35782 0
M  V30 1689 C 166.603 1.84673 3.09723 0
M  V30 1690 O 165.707 1.14231 3.96264 0
M  V30 1691 H 165.048 0.404303 0.526721 0
M  V30 1692 H 167.578 1.68152 1.1656 0
M  V30 1693 H 167.588 1.91893 3.60057 0
M  V30 1694 H 166.263 2.89421 2.98677 0
M  V30 1695 H 164.84 1.15056 3.54706 0
M  V30 1696 N 167.025 -1.13721 1.09112 0
M  V30 1697 C 168.274 -1.84275 0.82009 0
M  V30 1698 C 168.587 -1.84253 -0.656509 0
M  V30 1699 O 169.793 -2.50668 -1.04296 0
M  V30 1700 C 168.249 -3.30825 1.41714 0
M  V30 1701 C 167.857 -3.39244 2.92605 0
M  V30 1702 C 169.601 -4.06443 1.22492 0
M  V30 1703 C 167.508 -4.80047 3.45411 0
M  V30 1704 H 166.438 -0.690387 0.30312 0
M  V30 1705 H 169.089 -1.28146 1.31343 0
M  V30 1706 H 167.471 -3.86737 0.851498 0
M  V30 1707 H 168.645 -2.93344 3.55367 0
M  V30 1708 H 166.96 -2.77088 3.10823 0
M  V30 1709 H 169.557 -5.10387 1.59402 0
M  V30 1710 H 169.9 -4.15972 0.165299 0
M  V30 1711 H 170.433 -3.56852 1.75788 0
M  V30 1712 H 167.172 -4.75709 4.50978 0
M  V30 1713 H 166.692 -5.26455 2.87411 0
M  V30 1714 H 168.371 -5.48957 3.42425 0
M  V30 1715 N 168.503 -0.877838 -1.30888 0
M  V30 1716 C 169.433 -0.35534 -2.3078 0
M  V30 1717 C 170.414 0.557994 -1.60687 0
M  V30 1718 O 171.599 0.473355 -1.88343 0
M  V30 1719 C 168.729 0.437221 -3.44537 0
M  V30 1720 C 167.683 -0.383715 -4.26276 0
M  V30 1721 C 167.009 0.535014 -5.32017 0
M  V30 1722 C 168.309 -1.62201 -4.96476 0
M  V30 1723 H 170.003 -1.19007 -2.74732 0
M  V30 1724 H 167.549 -0.573698 -1.32078 0
M  V30 1725 H 169.502 0.813334 -4.13477 0
M  V30 1726 H 168.226 1.30553 -2.99372 0
M  V30 1727 H 166.885 -0.741874 -3.59015 0
M  V30 1728 H 166.533 1.40083 -4.831 0
M  V30 1729 H 166.233 -0.0104211 -5.87599 0
M  V30 1730 H 167.757 0.907799 -6.03814 0
M  V30 1731 H 169.171 -1.31689 -5.5797 0
M  V30 1732 H 167.568 -2.10711 -5.61891 0
M  V30 1733 H 168.638 -2.37044 -4.23011 0
M  V30 1734 N 169.982 1.44106 -0.638065 0
M  V30 1735 C 171.21 2.06336 -0.152615 0
M  V30 1736 C 171.625 1.47731 1.17563 0
M  V30 1737 O 170.982 0.602806 1.72257 0
M  V30 1738 C 171.033 3.61479 -0.0391491 0
M  V30 1739 O 170.754 4.17903 -1.31487 0
M  V30 1740 C 172.255 4.40757 0.474176 0
M  V30 1741 H 169.475 0.665862 -0.0828776 0
M  V30 1742 H 172.019 1.84862 -0.87443 0
M  V30 1743 H 170.174 3.82191 0.633142 0
M  V30 1744 H 170.588 5.11416 -1.16421 0
M  V30 1745 H 172.062 5.49707 0.502562 0
M  V30 1746 H 172.539 4.12697 1.50258 0
M  V30 1747 H 173.145 4.24979 -0.165102 0
M  V30 1748 N 171.46 0.379036 1.52974 0
M  V30 1749 C 172.706 -0.206727 2.01744 0
M  V30 1750 C 173.039 -1.47314 1.26539 0
M  V30 1751 O 172.314 -1.91084 0.362903 0
M  V30 1752 C 172.597 -0.485066 3.56818 0
M  V30 1753 C 172.45 0.795919 4.42702 0
M  V30 1754 C 173.769 -1.28003 4.21074 0
M  V30 1755 H 170.888 -0.0736607 0.73331 0
M  V30 1756 H 173.53 0.506581 1.83122 0
M  V30 1757 H 171.68 -1.09272 3.72816 0
M  V30 1758 H 173.352 1.43307 4.38476 0
M  V30 1759 H 171.595 1.41344 4.10127 0
M  V30 1760 H 172.266 0.555947 5.49193 0
M  V30 1761 H 174.742 -0.765867 4.08991 0
M  V30 1762 H 173.618 -1.44352 5.29579 0
M  V30 1763 H 173.879 -2.29236 3.78026 0
M  V30 1764 N 172.938 -1.57226 0.108567 0
M  V30 1765 C 173.886 -2.16002 -0.862885 0
M  V30 1766 C 174.88 -1.10644 -1.28274 0
M  V30 1767 O 176.086 -1.28966 -1.2557 0
M  V30 1768 H 172.461 -0.691148 -0.296342 0
M  V30 1769 H 174.432 -2.96427 -0.342575 0
M  V30 1770 C 173.181 -2.76576 -2.10716 0
M  V30 1771 H 172.504 -3.5734 -1.793 0
M  V30 1772 H 173.944 -3.21253 -2.76717 0
M  V30 1773 C 172.403 -1.73137 -2.89007 0
M  V30 1774 O 172.933 -1.17842 -3.84026 0
M  V30 1775 N 171.139 -1.43317 -2.52801 0
M  V30 1776 H 170.686 -1.88473 -1.75601 0
M  V30 1777 H 170.644 -0.743485 -3.05483 0
M  V30 1778 N 174.416 0.165178 -1.56732 0
M  V30 1779 C 175.364 1.22369 -1.97809 0
M  V30 1780 C 176.358 1.45488 -0.867741 0
M  V30 1781 O 177.564 1.45995 -1.05288 0
M  V30 1782 H 173.939 0.411486 -0.629431 0
M  V30 1783 H 175.91 0.850425 -2.86025 0
M  V30 1784 C 174.659 2.55403 -2.35934 0
M  V30 1785 H 173.982 2.38438 -3.20916 0
M  V30 1786 H 175.422 3.2814 -2.68514 0
M  V30 1787 C 173.881 3.14611 -1.20506 0
M  V30 1788 O 174.411 3.98626 -0.496016 0
M  V30 1789 N 172.617 2.7379 -0.97403 0
M  V30 1790 H 172.164 2.0557 -1.55238 0
M  V30 1791 H 172.122 3.1374 -0.203573 0
M  V30 1792 N 175.894 1.51508 0.433938 0
M  V30 1793 C 177.171 1.54888 1.19453 0
M  V30 1794 C 177.551 0.315154 2.08734 0
M  V30 1795 O 176.899 -0.699558 2.17528 0
M  V30 1796 C 177.109 2.86467 1.99342 0
M  V30 1797 C 178.457 3.38545 2.56267 0
M  V30 1798 O 179.481 2.88041 2.0955 0
M  V30 1799 O 178.34 4.26675 3.41483 0
M  V30 1800 H 175.434 0.622863 0.544032 0
M  V30 1801 H 177.98 1.63823 0.442732 0
M  V30 1802 H 176.752 3.67718 1.33788 0
M  V30 1803 H 176.375 2.8071 2.8158 0
M  V30 1804 N 177.372 -0.689602 1.41712 0
M  V30 1805 C 178.621 -1.44534 1.40686 0
M  V30 1806 C 178.934 -1.95588 0.0213352 0
M  V30 1807 O 180.14 -2.71271 -0.111534 0
M  V30 1808 C 178.596 -2.61387 2.47396 0
M  V30 1809 C 178.204 -2.17094 3.91885 0
M  V30 1810 C 179.948 -3.38986 2.55517 0
M  V30 1811 C 177.855 -3.3094 4.90135 0
M  V30 1812 H 176.785 -0.542925 0.52321 0
M  V30 1813 H 179.436 -0.748054 1.6756 0
M  V30 1814 H 177.818 -3.33412 2.13664 0
M  V30 1815 H 178.992 -1.52318 4.34897 0
M  V30 1816 H 177.307 -1.52473 3.8748 0
M  V30 1817 H 179.904 -4.23747 3.26102 0
M  V30 1818 H 180.247 -3.84578 1.59391 0
M  V30 1819 H 180.78 -2.74021 2.8837 0
M  V30 1820 H 177.519 -2.90355 5.87685 0
M  V30 1821 H 177.039 -3.94546 4.51767 0
M  V30 1822 H 178.718 -3.9663 5.11169 0
M  V30 1823 N 178.85 -1.27639 -0.924453 0
M  V30 1824 C 180.078 -1.16989 -1.70649 0
M  V30 1825 C 180.493 0.272869 -1.86818 0
M  V30 1826 O 179.85 1.18549 -1.38753 0
M  V30 1827 C 179.901 -1.85229 -3.10439 0
M  V30 1828 O 179.622 -3.23868 -2.95028 0
M  V30 1829 C 181.123 -1.80746 -4.04779 0
M  V30 1830 H 178.343 -0.406595 -0.53378 0
M  V30 1831 H 180.887 -1.68569 -1.15778 0
M  V30 1832 H 179.042 -1.37545 -3.6216 0
M  V30 1833 H 179.456 -3.57889 -3.83426 0
M  V30 1834 H 180.93 -2.33101 -5.00368 0
M  V30 1835 H 181.407 -0.777499 -4.32263 0
M  V30 1836 H 182.013 -2.28059 -3.58984 0
M  V30 1837 N 180.328 1.1314 -1.09713 0
M  V30 1838 C 181.258 2.20748 -0.761102 0
M  V30 1839 C 182.239 1.68061 0.262566 0
M  V30 1840 O 183.424 1.93765 0.129977 0
M  V30 1841 C 180.554 3.46812 -0.184054 0
M  V30 1842 C 179.508 4.12606 -1.13757 0
M  V30 1843 C 178.834 5.33031 -0.422083 0
M  V30 1844 C 180.134 4.59603 -2.48118 0
M  V30 1845 H 181.828 2.49113 -1.66082 0
M  V30 1846 H 179.374 1.19734 -0.799987 0
M  V30 1847 H 181.327 4.21353 0.0631215 0
M  V30 1848 H 180.051 3.17851 0.750868 0
M  V30 1849 H 178.71 3.40036 -1.37007 0
M  V30 1850 H 178.358 5.00335 0.517072 0
M  V30 1851 H 178.058 5.77999 -1.05788 0
M  V30 1852 H 179.582 6.10325 -0.183277 0
M  V30 1853 H 180.996 5.25552 -2.29059 0
M  V30 1854 H 179.393 5.15321 -3.07514 0
M  V30 1855 H 180.463 3.73971 -3.08665 0
M  V30 1856 N 181.806 0.884767 1.30421 0
M  V30 1857 C 182.736 0.367574 2.30589 0
M  V30 1858 C 183.717 -0.549464 1.60981 0
M  V30 1859 O 184.902 -0.46336 1.88591 0
M  V30 1860 C 182.032 -0.418944 3.44764 0
M  V30 1861 C 180.986 0.406316 4.26067 0
M  V30 1862 C 180.312 -0.506793 5.32293 0
M  V30 1863 C 181.612 1.64832 4.95608 0
M  V30 1864 H 183.306 1.20462 2.74097 0
M  V30 1865 H 180.852 0.580695 1.31772 0
M  V30 1866 H 182.805 -0.791395 4.13902 0
M  V30 1867 H 181.529 -1.28964 3.0006 0
M  V30 1868 H 180.188 0.760903 3.58617 0
M  V30 1869 H 179.836 -1.37519 4.83836 0
M  V30 1870 H 179.536 0.0415828 5.87585 0
M  V30 1871 H 181.06 -0.875764 6.04287 0
M  V30 1872 H 182.474 1.34646 5.57264 0
M  V30 1873 H 180.871 2.13688 5.60765 0
M  V30 1874 H 181.941 2.39284 4.21748 0
M  V30 1875 N 183.284 -1.43765 0.645699 0
M  V30 1876 C 184.231 -2.30745 -0.0504648 0
M  V30 1877 C 185.201 -1.4432 -0.822241 0
M  V30 1878 O 186.386 -1.73202 -0.800358 0
M  V30 1879 C 183.526 -3.29802 -1.0161 0
M  V30 1880 C 182.639 -4.31326 -0.241219 0
M  V30 1881 C 181.774 -5.17469 -1.19998 0
M  V30 1882 C 180.813 -6.10691 -0.415094 0
M  V30 1883 N 179.95 -6.89483 -1.32506 0
M  V30 1884 H 184.79 -2.8973 0.697155 0
M  V30 1885 H 182.327 -1.42738 0.355563 0
M  V30 1886 H 184.285 -3.85734 -1.58949 0
M  V30 1887 H 182.915 -2.72483 -1.73069 0
M  V30 1888 H 181.967 -3.77749 0.448334 0
M  V30 1889 H 183.279 -4.9743 0.369437 0
M  V30 1890 H 182.433 -5.7799 -1.84424 0
M  V30 1891 H 181.172 -4.51473 -1.84455 0
M  V30 1892 H 180.177 -5.49265 0.242565 0
M  V30 1893 H 181.402 -6.78727 0.224966 0
M  V30 1894 H 179.348 -6.26142 -1.95657 0
M  V30 1895 H 179.265 -7.52081 -0.768783 0
M  V30 1896 H 180.533 -7.54516 -1.9577 0
M  V30 1897 N 184.763 -0.387143 -1.52771 0
M  V30 1898 C 185.693 0.440551 -2.29306 0
M  V30 1899 C 186.674 1.06535 -1.32606 0
M  V30 1900 O 187.859 1.07853 -1.61497 0
M  V30 1901 C 184.989 1.56919 -3.09829 0
M  V30 1902 C 183.943 1.07054 -4.14395 0
M  V30 1903 C 183.269 2.29109 -4.83129 0
M  V30 1904 C 184.569 0.140015 -5.22112 0
M  V30 1905 H 186.263 -0.198026 -2.98744 0
M  V30 1906 H 183.809 -0.09668 -1.43675 0
M  V30 1907 H 185.762 2.15503 -3.62128 0
M  V30 1908 H 184.486 2.23532 -2.3812 0
M  V30 1909 H 183.145 0.507247 -3.63074 0
M  V30 1910 H 182.793 2.94227 -4.0797 0
M  V30 1911 H 182.493 1.96406 -5.53804 0
M  V30 1912 H 184.017 2.88339 -5.38231 0
M  V30 1913 H 185.431 0.633978 -5.69784 0
M  V30 1914 H 183.828 -0.0971485 -6.00021 0
M  V30 1915 H 184.898 -0.811711 -4.78058 0
M  V30 1916 N 186.241 1.57166 -0.116904 0
M  V30 1917 C 187.204 2.14039 0.819742 0
M  V30 1918 C 188.204 1.07477 1.19605 0
M  V30 1919 O 189.394 1.33263 1.1219 0
M  V30 1920 C 186.526 2.67891 2.10826 0
M  V30 1921 H 187.719 2.98128 0.325511 0
M  V30 1922 H 185.272 1.55739 0.132312 0
M  V30 1923 H 186.007 1.87384 2.64685 0
M  V30 1924 H 185.792 3.45823 1.84793 0
M  V30 1925 H 187.282 3.11809 2.77785 0
M  V30 1926 N 187.719 -0.156864 1.56817 0
M  V30 1927 C 188.947 -0.886316 1.86955 0
M  V30 1928 C 189.362 -1.75185 0.703975 0
M  V30 1929 O 188.719 -1.79555 -0.326552 0
M  V30 1930 C 188.77 -1.75117 3.16253 0
M  V30 1931 O 188.491 -0.920537 4.2832 0
M  V30 1932 C 189.992 -2.58905 3.59837 0
M  V30 1933 H 187.212 -0.25678 0.619923 0
M  V30 1934 H 189.756 -0.152615 2.0393 0
M  V30 1935 H 187.911 -2.43805 3.01062 0
M  V30 1936 H 188.325 -1.51337 5.02192 0
M  V30 1937 H 189.799 -3.1518 4.53172 0
M  V30 1938 H 190.276 -3.34472 2.84649 0
M  V30 1939 H 190.882 -1.95526 3.7769 0
M  V30 1940 N 189.197 -1.51736 -0.425897 0
M  V30 1941 C 190.608 -1.5732 -1.00536 0
M  V30 1942 C 190.959 -0.403537 -1.92005 0
M  V30 1943 O 190.084 0.478256 -2.11049 0
M  V30 1944 C 190.679 -2.85119 -1.8301 0
M  V30 1945 C 189.238 -2.93236 -2.35987 0
M  V30 1946 C 188.385 -2.52098 -1.15508 0
M  V30 1947 H 191.336 -1.57348 -0.206739 0
M  V30 1948 H 191.357 -2.69526 -2.68581 0
M  V30 1949 H 190.869 -3.7023 -1.16411 0
M  V30 1950 H 188.97 -2.12581 -3.06007 0
M  V30 1951 H 189.083 -3.9713 -2.68001 0
M  V30 1952 H 187.447 -2.05558 -1.50393 0
M  V30 1953 H 188.23 -3.39565 -0.505014 0
M  V30 1954 N 190.675 0.682077 -1.42076 0
M  V30 1955 C 191.638 1.77756 -1.44691 0
M  V30 1956 C 192.638 1.5726 -0.335535 0
M  V30 1957 O 193.828 1.63686 -0.596037 0
M  V30 1958 C 190.96 3.16301 -1.27146 0
M  V30 1959 H 192.153 1.76826 -2.42224 0
M  V30 1960 H 189.706 0.891012 -1.28416 0
M  V30 1961 H 190.441 3.22862 -0.305075 0
M  V30 1962 H 190.226 3.32581 -2.07683 0
M  V30 1963 H 191.716 3.96241 -1.31843 0
M  V30 1964 N 192.153 1.28127 0.917671 0
M  V30 1965 C 193.569 1.05749 1.19538 0
M  V30 1966 C 193.769 -0.202633 2.00479 0
M  V30 1967 O 192.825 -0.905382 2.3571 0
M  V30 1968 C 194.138 2.30273 1.93378 0
M  V30 1969 C 195.686 2.35412 2.06277 0
M  V30 1970 C 196.161 3.59692 2.83524 0
M  V30 1971 N 197.652 3.60309 2.91087 0
M  V30 1972 C 198.387 4.53147 3.51348 0
M  V30 1973 N 197.883 5.563 4.12919 0
M  V30 1974 N 199.676 4.40751 3.48849 0
M  V30 1975 H 191.827 2.09024 0.377184 0
M  V30 1976 H 194.09 0.919798 0.22951 0
M  V30 1977 H 193.796 3.22055 1.41328 0
M  V30 1978 H 193.67 2.36378 2.93947 0
M  V30 1979 H 196.057 1.4413 2.57508 0
M  V30 1980 H 196.138 2.33304 1.04895 0
M  V30 1981 H 195.782 4.51316 2.32973 0
M  V30 1982 H 195.712 3.59054 3.85211 0
M  V30 1983 H 198.203 2.85714 2.47338 0
M  V30 1984 H 198.516 6.2329 4.56869 0
M  V30 1985 H 196.861 5.60131 4.11435 0
M  V30 1986 H 200.052 3.59367 2.99955 0
M  V30 1987 H 200.225 5.13291 3.9552 0
M  V30 1988 N 193.631 -1.12557 1.10312 0
M  V30 1989 C 194.878 -1.84038 0.844759 0
M  V30 1990 C 195.206 -1.84026 -0.629668 0
M  V30 1991 O 194.461 -1.28026 -1.48013 0
M  V30 1992 C 194.76 -3.31462 1.33669 0
M  V30 1993 C 194.426 -3.51647 2.82232 0
M  V30 1994 C 193.088 -3.56864 3.22802 0
M  V30 1995 C 195.44 -3.58867 3.77974 0
M  V30 1996 C 192.768 -3.66844 4.57867 0
M  V30 1997 C 195.12 -3.70375 5.1284 0
M  V30 1998 C 193.784 -3.73848 5.52986 0
M  V30 1999 H 193.054 -0.673444 0.309119 0
M  V30 2000 H 195.701 -1.32824 1.37949 0
M  V30 2001 H 194.006 -3.85091 0.721949 0
M  V30 2002 H 195.703 -3.85236 1.11329 0
M  V30 2003 H 192.293 -3.48249 2.49842 0
M  V30 2004 H 196.477 -3.54107 3.47738 0
M  V30 2005 H 191.733 -3.67804 4.88396 0
M  V30 2006 H 195.907 -3.74904 5.86873 0
M  V30 2007 H 193.534 -3.81333 6.57639 0
M  V30 2008 N 195.109 -0.891671 -1.2995 0
M  V30 2009 C 196.334 -0.527932 -2.00568 0
M  V30 2010 C 196.759 0.877969 -1.66353 0
M  V30 2011 O 196.117 1.58301 -0.883762 0
M  V30 2012 C 196.165 -0.717745 -3.53385 0
M  V30 2013 O 195.269 0.233376 -4.11739 0
M  V30 2014 H 194.61 -0.20722 -0.630837 0
M  V30 2015 H 197.14 -1.20105 -1.65638 0
M  V30 2016 H 197.15 -0.619307 -4.03272 0
M  V30 2017 H 195.825 -1.74276 -3.77625 0
M  V30 2018 H 194.402 0.0880706 -3.72796 0
M  V30 2019 N 196.587 1.43421 -0.653314 0
M  V30 2020 C 197.519 2.29071 0.0769134 0
M  V30 2021 C 198.532 1.42513 0.787017 0
M  V30 2022 O 199.721 1.66449 0.644757 0
M  V30 2023 C 196.821 3.19436 1.13199 0
M  V30 2024 C 195.994 4.34533 0.500006 0
M  V30 2025 C 195.053 5.05771 1.45198 0
M  V30 2026 O 194.079 5.61037 0.960538 0
M  V30 2027 N 195.281 5.0928 2.78594 0
M  V30 2028 H 198.046 2.92382 -0.658235 0
M  V30 2029 H 195.607 1.54112 -0.496104 0
M  V30 2030 H 197.599 3.63958 1.76964 0
M  V30 2031 H 196.169 2.57724 1.7691 0
M  V30 2032 H 195.389 3.92925 -0.316738 0
M  V30 2033 H 196.677 5.08766 0.0588345 0
M  V30 2034 H 196.075 4.65751 3.2108 0
M  V30 2035 H 194.632 5.57519 3.37662 0
M  V30 2036 N 198.065 0.39524 1.52563 0
M  V30 2037 C 199.293 -0.184943 2.06072 0
M  V30 2038 C 199.708 -1.40021 1.26647 0
M  V30 2039 O 199.065 -1.79767 0.314672 0
M  V30 2040 C 199.116 -0.549179 3.57304 0
M  V30 2041 O 198.837 0.617813 4.33722 0
M  V30 2042 C 200.338 -1.18459 4.2718 0
M  V30 2043 H 197.558 -0.0265025 0.670476 0
M  V30 2044 H 200.102 0.562184 1.96621 0
M  V30 2045 H 198.257 -1.2462 3.66809 0
M  V30 2046 H 198.671 0.317091 5.23541 0
M  V30 2047 H 200.145 -1.38976 5.34219 0
M  V30 2048 H 200.622 -2.15368 3.82771 0
M  V30 2049 H 201.228 -0.528163 4.22008 0
M  V30 2050 N 199.544 -1.57102 0.125237 0
M  V30 2051 C 200.79 -1.95697 -0.532035 0
M  V30 2052 C 201.123 -1.009 -1.6593 0
M  V30 2053 O 200.398 -0.047347 -1.94442 0
M  V30 2054 C 200.681 -3.44181 -1.05884 0
M  V30 2055 C 200.534 -4.49752 0.0654392 0
M  V30 2056 C 201.853 -3.94655 -1.9477 0
M  V30 2057 H 198.972 -0.711571 -0.191925 0
M  V30 2058 H 201.614 -1.88923 0.20206 0
M  V30 2059 H 199.764 -3.50085 -1.68442 0
M  V30 2060 H 201.436 -4.55943 0.700982 0
M  V30 2061 H 199.679 -4.27653 0.727709 0
M  V30 2062 H 200.35 -5.50924 -0.344505 0
M  V30 2063 H 202.826 -3.91094 -1.42074 0
M  V30 2064 H 201.702 -4.99057 -2.28546 0
M  V30 2065 H 201.963 -3.35718 -2.87656 0
M  V30 2066 N 201.022 0.148545 -1.56898 0
M  V30 2067 C 202.247 0.880385 -1.87787 0
M  V30 2068 C 202.672 1.74018 -0.714093 0
M  V30 2069 O 202.03 1.78153 0.336343 0
M  V30 2070 C 202.078 1.71422 -3.17249 0
M  V30 2071 O 201.182 2.8183 -3.01074 0
M  V30 2072 H 200.523 0.245301 -0.617028 0
M  V30 2073 H 203.053 0.139826 -2.04122 0
M  V30 2074 H 203.063 2.10954 -3.49231 0
M  V30 2075 H 201.738 1.08284 -4.01556 0
M  V30 2076 H 200.315 2.45715 -2.80497 0
M  V30 2077 N 202.5 1.5196 0.417844 0
M  V30 2078 C 203.463 1.74065 1.49111 0
M  V30 2079 C 204.463 0.610537 1.48758 0
M  V30 2080 O 205.653 0.87832 1.50437 0
M  V30 2081 C 202.785 1.81502 2.88565 0
M  V30 2082 H 203.978 2.69869 1.30807 0
M  V30 2083 H 201.531 1.42244 0.647785 0
M  V30 2084 H 202.266 0.875813 3.1225 0
M  V30 2085 H 202.051 2.63651 2.90225 0
M  V30 2086 H 203.541 2.00376 3.66387 0
M  V30 2087 N 203.978 -0.674533 1.42435 0
M  V30 2088 C 205.224 -1.43671 1.43131 0
M  V30 2089 C 205.557 -1.94142 0.0476021 0
M  V30 2090 O 204.832 -1.70924 -0.928188 0
M  V30 2091 C 205.115 -2.63355 2.45594 0
M  V30 2092 C 204.968 -2.18514 3.93156 0
M  V30 2093 C 206.287 -3.65571 2.45043 0
M  V30 2094 H 203.406 -0.521077 0.521198 0
M  V30 2095 H 206.048 -0.766551 1.7385 0
M  V30 2096 H 204.198 -3.2053 2.19528 0
M  V30 2097 H 205.87 -1.66504 4.30202 0
M  V30 2098 H 204.113 -1.50086 4.07009 0
M  V30 2099 H 204.784 -3.04484 4.60428 0
M  V30 2100 H 207.26 -3.18113 2.68223 0
M  V30 2101 H 206.136 -4.46893 3.18713 0
M  V30 2102 H 206.397 -4.16716 1.47649 0
M  V30 2103 N 205.456 -1.28612 -0.910864 0
M  V30 2104 C 206.696 -1.1719 -1.67469 0
M  V30 2105 C 207.06 0.274441 -1.90028 0
M  V30 2106 O 208.261 0.511425 -2.6389 0
M  V30 2107 C 206.532 -1.95137 -2.99427 0
M  V30 2108 S 208.091 -2.00122 -3.90508 0
M  V30 2109 H 204.909 -0.41806 -0.575106 0
M  V30 2110 H 207.511 -1.6275 -1.08317 0
M  V30 2111 H 206.215 -2.99381 -2.80712 0
M  V30 2112 H 205.746 -1.50137 -3.63624 0
M  V30 2113 H 207.761 -1.10981 -4.8363 0
M  V30 2114 N 206.934 1.1197 -1.10907 0
M  V30 2115 C 207.864 2.19928 -0.784473 0
M  V30 2116 C 208.845 1.6833 0.244726 0
M  V30 2117 O 210.03 1.93892 0.109418 0
M  V30 2118 C 207.16 3.46597 -0.220827 0
M  V30 2119 C 206.114 4.11376 -1.18127 0
M  V30 2120 C 205.44 5.32554 -0.478594 0
M  V30 2121 C 206.74 4.56945 -2.52979 0
M  V30 2122 H 208.434 2.47337 -1.68715 0
M  V30 2123 H 205.98 1.18879 -0.812642 0
M  V30 2124 H 207.933 4.21396 0.0184278 0
M  V30 2125 H 206.657 3.1863 0.717113 0
M  V30 2126 H 205.316 3.38564 -1.40606 0
M  V30 2127 H 204.964 5.00856 0.463976 0
M  V30 2128 H 204.664 5.76844 -1.11912 0
M  V30 2129 H 206.188 6.10096 -0.248 0
M  V30 2130 H 207.602 5.23093 -2.3462 0
M  V30 2131 H 205.999 5.1203 -3.12962 0
M  V30 2132 H 207.069 3.70676 -3.12614 0
M  V30 2133 N 208.412 0.89855 1.29475 0
M  V30 2134 C 209.823 0.572537 1.77705 0
M  V30 2135 C 210.174 -0.911778 1.73727 0
M  V30 2136 O 209.299 -1.71288 1.32247 0
M  V30 2137 C 209.894 1.03252 3.22683 0
M  V30 2138 C 208.453 0.757687 3.68695 0
M  V30 2139 C 207.6 1.20787 2.49612 0
M  V30 2140 H 210.551 1.08139 1.16153 0
M  V30 2141 H 210.572 0.367307 3.78723 0
M  V30 2142 H 210.084 2.11285 3.25546 0
M  V30 2143 H 208.185 -0.310079 3.71308 0
M  V30 2144 H 208.298 1.35476 4.59547 0
M  V30 2145 H 206.662 0.626888 2.46865 0
M  V30 2146 H 207.445 2.29622 2.55203 0
M  V30 2147 N 209.89 -1.43072 0.660911 0
M  V30 2148 C 211.115 -2.06584 0.183805 0
M  V30 2149 C 211.54 -1.49257 -1.14472 0
M  V30 2150 O 210.898 -0.605528 -1.70889 0
M  V30 2151 C 210.946 -3.60418 0.114434 0
M  V30 2152 O 210.05 -4.01981 -0.921137 0
M  V30 2153 H 209.391 -0.656669 0.0983994 0
M  V30 2154 H 211.921 -1.83447 0.906006 0
M  V30 2155 H 211.931 -4.07946 -0.0663394 0
M  V30 2156 H 210.606 -4.01519 1.08422 0
M  V30 2157 H 209.183 -3.66029 -0.71253 0
M  V30 2158 N 211.368 -0.403325 -1.52352 0
M  V30 2159 C 212.331 0.413051 -2.25447 0
M  V30 2160 C 213.331 0.978513 -1.276 0
M  V30 2161 O 214.521 0.858305 -1.51587 0
M  V30 2162 C 211.653 1.58087 -3.02029 0
M  V30 2163 H 212.846 -0.227094 -2.99039 0
M  V30 2164 H 210.399 -0.155722 -1.55522 0
M  V30 2165 H 211.134 2.25804 -2.32772 0
M  V30 2166 H 210.919 1.18195 -3.73861 0
M  V30 2167 H 212.409 2.1585 -3.57489 0
M  V30 2168 N 212.846 1.57033 -0.133567 0
M  V30 2169 C 214.123 1.87256 0.56522 0
M  V30 2170 C 214.503 1.03726 1.83859 0
M  V30 2171 O 213.851 0.120247 2.28183 0
M  V30 2172 C 214.061 3.3865 0.843636 0
M  V30 2173 C 215.409 4.07574 1.19032 0
M  V30 2174 O 216.433 3.43752 0.933429 0
M  V30 2175 O 215.292 5.20259 1.67312 0
M  V30 2176 H 212.386 0.775678 0.286796 0
M  V30 2177 H 214.932 1.68855 -0.169168 0
M  V30 2178 H 213.704 3.91257 -0.0581149 0
M  V30 2179 H 213.327 3.62532 1.63268 0
M  V30 2180 N 214.325 -0.140222 1.56975 0
M  V30 2181 C 215.602 -0.880769 1.74648 0
M  V30 2182 C 215.982 -1.99036 0.703404 0
M  V30 2183 O 215.33 -2.26821 -0.27648 0
M  V30 2184 C 215.54 -1.417 3.18939 0
M  V30 2185 C 216.888 -1.87774 3.80823 0
M  V30 2186 O 217.912 -1.51427 3.2241 0
M  V30 2187 O 216.771 -2.54827 4.83452 0
M  V30 2188 H 213.865 -0.416713 0.714338 0
M  V30 2189 H 216.411 -0.125618 1.69234 0
M  V30 2190 H 215.183 -0.619902 3.86359 0
M  V30 2191 H 214.806 -2.23546 3.28805 0
M  V30 2192 N 215.803 -1.52179 -0.40978 0
M  V30 2193 C 217.08 -1.56769 -1.16974 0
M  V30 2194 C 217.46 -0.348322 -2.08206 0
M  V30 2195 O 216.808 0.664862 -2.18613 0
M  V30 2196 C 217.018 -2.89603 -1.9476 0
M  V30 2197 C 218.366 -3.42579 -2.50849 0
M  V30 2198 O 219.39 -2.91338 -2.04941 0
M  V30 2199 O 218.249 -4.32054 -3.34652 0
M  V30 2200 H 215.343 -0.631439 -0.534054 0
M  V30 2201 H 217.889 -1.64507 -0.416613 0
M  V30 2202 H 216.661 -3.698 -1.27921 0
M  V30 2203 H 216.284 -2.85155 -2.77079 0
M  V30 2204 N 217.281 0.66697 -1.42791 0
M  V30 2205 C 218.528 1.42699 -1.43678 0
M  V30 2206 C 218.856 1.94419 -0.0560425 0
M  V30 2207 O 218.111 1.7182 0.936831 0
M  V30 2208 C 218.41 2.6349 -2.4147 0
M  V30 2209 C 218.076 2.30267 -3.8767 0
M  V30 2210 C 216.738 2.20918 -4.27491 0
M  V30 2211 C 219.09 2.03435 -4.79858 0
M  V30 2212 C 216.418 1.82873 -5.57471 0
M  V30 2213 C 218.77 1.66892 -6.10188 0
M  V30 2214 C 217.434 1.56058 -6.49001 0
M  V30 2215 H 216.704 0.522171 -0.525755 0
M  V30 2216 H 219.351 0.759785 -1.75783 0
M  V30 2217 H 217.656 3.35279 -2.0272 0
M  V30 2218 H 219.353 3.21684 -2.39417 0
M  V30 2219 H 215.943 2.38449 -3.56146 0
M  V30 2220 H 220.127 2.09586 -4.49875 0
M  V30 2221 H 215.383 1.7306 -5.86396 0
M  V30 2222 H 219.557 1.45157 -6.81104 0
M  V30 2223 H 217.184 1.26348 -7.49627 0
M  V30 2224 N 218.759 1.29093 0.90403 0
M  V30 2225 C 220.17 1.15186 1.46932 0
M  V30 2226 C 220.521 -0.254587 1.94541 0
M  V30 2227 O 219.646 -1.14972 1.83332 0
M  V30 2228 C 220.241 2.08492 2.67051 0
M  V30 2229 C 218.8 1.98621 3.19729 0
M  V30 2230 C 217.947 1.9967 1.92425 0
M  V30 2231 H 220.898 1.41641 0.715789 0
M  V30 2232 H 220.919 1.65461 3.42641 0
M  V30 2233 H 220.431 3.10847 2.3237 0
M  V30 2234 H 218.532 0.993389 3.59114 0
M  V30 2235 H 218.645 2.86068 3.8432 0
M  V30 2236 H 217.009 1.44208 2.09943 0
M  V30 2237 H 217.792 3.03721 1.60026 0
M  V30 2238 N 220.237 -1.11381 1.11499 0
M  V30 2239 C 221.2 -2.15622 0.777153 0
M  V30 2240 C 222.2 -1.59504 -0.203779 0
M  V30 2241 O 223.39 -1.74188 0.020782 0
M  V30 2242 C 220.522 -3.40556 0.153116 0
M  V30 2243 H 221.715 -2.47021 1.70061 0
M  V30 2244 H 219.268 -1.26577 0.916952 0
M  V30 2245 H 220.003 -3.14767 -0.780536 0
M  V30 2246 H 219.788 -3.8257 0.859238 0
M  V30 2247 H 221.278 -4.17546 -0.0671044 0
M  V30 2248 N 221.715 -0.905404 -1.28997 0
M  V30 2249 C 222.963 -0.533192 -1.9494 0
M  V30 2250 C 223.284 0.924618 -1.71685 0
M  V30 2251 O 222.554 1.65268 -1.05183 0
M  V30 2252 H 221.134 -0.194194 -0.721317 0
M  V30 2253 H 223.796 -1.15294 -1.57141 0
M  V30 2254 H 222.892 -0.72059 -3.03667 0
M  V30 2255 N 223.193 1.4272 -0.668489 0
M  V30 2256 C 224.421 2.05966 -0.196348 0
M  V30 2257 C 224.836 1.50191 1.14403 0
M  V30 2258 O 224.193 0.639208 1.7094 0
M  V30 2259 C 224.244 3.61314 -0.115815 0
M  V30 2260 O 223.965 4.1502 -1.40322 0
M  V30 2261 C 225.466 4.41663 0.380579 0
M  V30 2262 H 222.686 0.663954 -0.0969829 0
M  V30 2263 H 225.23 1.82966 -0.913446 0
M  V30 2264 H 223.385 3.83448 0.551931 0
M  V30 2265 H 223.799 5.08832 -1.27243 0
M  V30 2266 H 225.273 5.5065 0.385848 0
M  V30 2267 H 225.75 4.15792 1.41471 0
M  V30 2268 H 226.356 4.24534 -0.255209 0
M  V30 2269 N 224.671 0.411399 1.52136 0
M  V30 2270 C 225.601 -0.404015 2.29978 0
M  V30 2271 C 226.582 -1.04412 1.34284 0
M  V30 2272 O 227.767 -1.0527 1.63192 0
M  V30 2273 C 224.897 -1.5197 3.12286 0
M  V30 2274 C 223.851 -1.00448 4.16046 0
M  V30 2275 C 223.177 -2.21393 4.86712 0
M  V30 2276 C 224.477 -0.0569336 5.22269 0
M  V30 2277 H 226.171 0.245529 2.98392 0
M  V30 2278 H 223.717 0.119525 1.43503 0
M  V30 2279 H 225.67 -2.09715 3.6551 0
M  V30 2280 H 224.394 -2.19716 2.41646 0
M  V30 2281 H 223.053 -0.449421 3.63835 0
M  V30 2282 H 222.701 -2.87699 4.12599 0
M  V30 2283 H 222.401 -1.87571 5.56858 0
M  V30 2284 H 223.925 -2.7974 5.4275 0
M  V30 2285 H 225.339 -0.54325 5.7072 0
M  V30 2286 H 223.736 0.192594 5.99791 0
M  V30 2287 H 224.806 0.887663 4.76706 0
M  V30 2288 N 226.149 -1.5696 0.141893 0
M  V30 2289 C 227.389 -1.9785 -0.513304 0
M  V30 2290 C 227.753 -1.02467 -1.62371 0
M  V30 2291 O 228.954 -1.32382 -2.33941 0
M  V30 2292 C 227.225 -3.42797 -1.01118 0
M  V30 2293 S 228.784 -4.05709 -1.67169 0
M  V30 2294 H 225.602 -0.691318 -0.166135 0
M  V30 2295 H 228.204 -1.94114 0.232398 0
M  V30 2296 H 226.908 -4.0995 -0.192179 0
M  V30 2297 H 226.439 -3.50235 -1.79162 0
M  V30 2298 H 228.454 -3.98342 -2.95868 0
M  V30 2299 N 227.627 0.131896 -1.57047 0
M  V30 2300 C 228.59 1.14638 -1.98471 0
M  V30 2301 C 229.59 1.35029 -0.873148 0
M  V30 2302 O 230.78 1.31764 -1.13946 0
M  V30 2303 C 227.912 2.50358 -2.31373 0
M  V30 2304 H 229.105 0.79064 -2.8929 0
M  V30 2305 H 226.658 0.375761 -1.51716 0
M  V30 2306 H 227.393 2.90876 -1.43393 0
M  V30 2307 H 227.178 2.36915 -3.12432 0
M  V30 2308 H 228.668 3.23395 -2.64207 0
M  V30 2309 N 229.106 1.52395 0.401703 0
M  V30 2310 C 230.334 1.70676 1.16949 0
M  V30 2311 C 230.749 0.419503 1.8408 0
M  V30 2312 O 230.106 -0.605061 1.72178 0
M  V30 2313 C 230.157 2.84753 2.22706 0
M  V30 2314 O 229.878 4.08495 1.58314 0
M  V30 2315 C 231.379 3.14608 3.12309 0
M  V30 2316 H 228.599 0.571787 0.351142 0
M  V30 2317 H 231.143 1.98987 0.471652 0
M  V30 2318 H 229.298 2.58941 2.88147 0
M  V30 2319 H 229.712 4.72117 2.28485 0
M  V30 2320 H 231.186 3.97923 3.82572 0
M  V30 2321 H 231.663 2.28464 3.75101 0
M  V30 2322 H 232.269 3.42212 2.52529 0
M  V30 2323 N 230.584 -0.659388 1.43143 0
M  V30 2324 C 231.812 -1.44723 1.47861 0
M  V30 2325 C 232.227 -1.88563 0.0945886 0
M  V30 2326 O 231.584 -1.59108 -0.893915 0
M  V30 2327 C 231.635 -2.68627 2.41913 0
M  V30 2328 O 231.356 -2.26623 3.74932 0
M  V30 2329 C 232.857 -3.62045 2.55809 0
M  V30 2330 H 230.077 -0.444801 0.502387 0
M  V30 2331 H 232.621 -0.808916 1.87821 0
M  V30 2332 H 230.776 -3.28613 2.05164 0
M  V30 2333 H 231.19 -3.06745 4.2545 0
M  V30 2334 H 232.664 -4.45666 3.25708 0
M  V30 2335 H 233.141 -4.08981 1.60099 0
M  V30 2336 H 233.747 -3.07944 2.93344 0
M  V30 2337 N 232.062 -1.29571 -0.897171 0
M  V30 2338 C 233.31 -1.17456 -1.64464 0
M  V30 2339 C 233.631 0.273698 -1.9307 0
M  V30 2340 O 232.901 1.18684 -1.55855 0
M  V30 2341 H 231.481 -0.431706 -0.609622 0
M  V30 2342 H 234.143 -1.62531 -1.07562 0
M  V30 2343 H 233.239 -1.72648 -2.59998 0
M  V30 2344 N 233.54 1.10788 -1.12088 0
M  V30 2345 C 234.786 1.8313 -0.885148 0
M  V30 2346 C 235.141 1.8336 0.582839 0
M  V30 2347 O 234.434 1.28062 1.42516 0
M  V30 2348 C 234.628 3.29294 -1.38926 0
M  V30 2349 C 234.457 3.43302 -2.90472 0
M  V30 2350 C 233.227 3.55928 -3.58669 0
M  V30 2351 C 235.425 3.37014 -3.88492 0
M  V30 2352 N 233.407 3.58475 -4.98366 0
M  V30 2353 C 234.778 3.46263 -5.14298 0
M  V30 2354 C 236.833 3.20589 -3.80955 0
M  V30 2355 C 235.536 3.4078 -6.33452 0
M  V30 2356 C 237.562 3.16427 -4.99628 0
M  V30 2357 C 236.924 3.26253 -6.2429 0
M  V30 2358 H 233.023 0.685054 -0.377128 0
M  V30 2359 H 235.607 1.3251 -1.4265 0
M  V30 2360 H 233.778 3.78416 -0.874999 0
M  V30 2361 H 235.51 3.89578 -1.09596 0
M  V30 2362 H 232.265 3.58779 -3.09151 0
M  V30 2363 H 232.689 3.6337 -5.71219 0
M  V30 2364 H 237.331 3.11873 -2.85474 0
M  V30 2365 H 235.049 3.48263 -7.29204 0
M  V30 2366 H 238.635 3.04874 -4.95523 0
M  V30 2367 H 237.515 3.2303 -7.14578 0
M  V30 2368 N 235.018 0.912232 1.28515 0
M  V30 2369 C 236.266 0.543523 1.94654 0
M  V30 2370 C 236.587 -0.9155 1.72173 0
M  V30 2371 O 235.857 -1.64708 1.06058 0
M  V30 2372 H 234.437 0.198017 0.720277 0
M  V30 2373 H 237.099 1.16126 1.56527 0
M  V30 2374 H 236.195 0.736684 3.03281 0
M  V30 2375 N 236.496 -1.42363 0.676048 0
M  V30 2376 C 237.443 -2.308 -0.00150904 0
M  V30 2377 C 238.413 -1.46032 -0.791444 0
M  V30 2378 O 239.598 -1.74861 -0.76344 0
M  V30 2379 C 236.738 -3.31883 -0.945919 0
M  V30 2380 C 235.851 -4.31741 -0.149675 0
M  V30 2381 C 234.986 -5.19898 -1.08995 0
M  V30 2382 C 234.025 -6.11434 -0.285465 0
M  V30 2383 N 233.162 -6.92138 -1.17851 0
M  V30 2384 H 238.002 -2.88187 0.758455 0
M  V30 2385 H 235.539 -1.41952 0.38576 0
M  V30 2386 H 237.497 -3.89019 -1.50731 0
M  V30 2387 H 236.127 -2.76093 -1.6725 0
M  V30 2388 H 235.179 -3.76713 0.528359 0
M  V30 2389 H 236.491 -4.96534 0.474866 0
M  V30 2390 H 235.645 -5.81772 -1.72123 0
M  V30 2391 H 234.384 -4.55284 -1.74837 0
M  V30 2392 H 233.389 -5.48627 0.359018 0
M  V30 2393 H 234.614 -6.78097 0.368883 0
M  V30 2394 H 232.56 -6.30152 -1.82332 0
M  V30 2395 H 232.477 -7.53542 -0.609082 0
M  V30 2396 H 233.745 -7.58499 -1.79722 0
M  V30 2397 N 237.974 -0.419461 -1.51915 0
M  V30 2398 C 239.202 0.152136 -2.0634 0
M  V30 2399 C 239.617 1.37988 -1.28859 0
M  V30 2400 O 238.974 1.79243 -0.343232 0
M  V30 2401 C 239.025 0.492266 -3.58133 0
M  V30 2402 O 238.746 -0.686736 -4.32684 0
M  V30 2403 C 240.247 1.11648 -4.2901 0
M  V30 2404 H 237.467 0.0158325 -0.670813 0
M  V30 2405 H 240.011 -0.593394 -1.95702 0
M  V30 2406 H 238.166 1.18769 -3.68745 0
M  V30 2407 H 238.58 -0.400341 -5.2297 0
M  V30 2408 H 240.054 1.3046 -5.36362 0
M  V30 2409 H 240.531 2.09251 -3.86148 0
M  V30 2410 H 241.137 0.460958 -4.22795 0
M  V30 2411 N 239.452 1.56882 -0.150215 0
M  V30 2412 C 240.399 2.16922 0.788244 0
M  V30 2413 C 241.369 1.10303 1.24187 0
M  V30 2414 O 242.554 1.38359 1.31383 0
M  V30 2415 C 239.694 2.79754 2.02068 0
M  V30 2416 C 238.807 4.00775 1.61257 0
M  V30 2417 C 237.942 4.51595 2.79705 0
M  V30 2418 C 236.981 5.65074 2.35282 0
M  V30 2419 N 236.118 6.10499 3.4675 0
M  V30 2420 H 240.958 2.96779 0.269444 0
M  V30 2421 H 238.495 1.46599 0.12128 0
M  V30 2422 H 240.453 3.14329 2.74323 0
M  V30 2423 H 239.083 2.02536 2.51354 0
M  V30 2424 H 238.135 3.72158 0.787553 0
M  V30 2425 H 239.447 4.82978 1.24633 0
M  V30 2426 H 238.601 4.88242 3.60145 0
M  V30 2427 H 237.34 3.68406 3.19576 0
M  V30 2428 H 236.345 5.28 1.53283 0
M  V30 2429 H 237.57 6.50052 1.96493 0
M  V30 2430 H 235.516 5.30243 3.86236 0
M  V30 2431 H 235.433 6.87637 3.14152 0
M  V30 2432 H 236.701 6.51791 4.27537 0
M  V30 2433 N 240.93 -0.123565 1.57115 0
M  V30 2434 C 242.16 -0.845233 1.88519 0
M  V30 2435 C 242.568 -1.74168 0.739064 0
M  V30 2436 O 241.911 -1.81244 -0.299355 0
M  V30 2437 C 241.973 -1.73452 3.14888 0
M  V30 2438 C 241.637 -1.01285 4.45635 0
M  V30 2439 C 242.634 -0.355774 5.18681 0
M  V30 2440 C 240.319 -0.99538 4.92339 0
M  V30 2441 C 242.313 0.309114 6.3665 0
M  V30 2442 C 240 -0.32669 6.10226 0
M  V30 2443 C 240.998 0.324406 6.82229 0
M  V30 2444 O 240.686 0.982437 7.97874 0
M  V30 2445 H 240.418 -0.248534 0.628655 0
M  V30 2446 H 242.972 -0.113907 2.05084 0
M  V30 2447 H 241.202 -2.50737 2.94394 0
M  V30 2448 H 242.891 -2.33021 3.32349 0
M  V30 2449 H 243.657 -0.360918 4.83655 0
M  V30 2450 H 239.536 -1.49159 4.36202 0
M  V30 2451 H 243.08 0.8179 6.92789 0
M  V30 2452 H 238.977 -0.319294 6.4471 0
M  V30 2453 H 239.745 0.886454 8.13686 0
M  V30 2454 N 242.408 -1.52605 -0.393616 0
M  V30 2455 C 243.356 -1.77688 -1.50099 0
M  V30 2456 C 244.35 -0.644615 -1.56656 0
M  V30 2457 O 245.556 -0.826997 -1.59877 0
M  V30 2458 H 241.931 -0.562159 -0.499481 0
M  V30 2459 H 243.902 -2.7043 -1.26135 0
M  V30 2460 C 242.651 -1.95858 -2.87289 0
M  V30 2461 H 241.974 -2.8241 -2.82992 0
M  V30 2462 H 243.414 -2.174 -3.64024 0
M  V30 2463 C 241.873 -0.729848 -3.28899 0
M  V30 2464 O 242.403 0.0949217 -4.01588 0
M  V30 2465 N 240.609 -0.561283 -2.85128 0
M  V30 2466 H 240.156 -1.23357 -2.26143 0
M  V30 2467 H 240.114 0.2595 -3.13327 0
M  V30 2468 N 243.887 0.651787 -1.4349 0
M  V30 2469 C 244.85 1.74647 -1.48429 0
M  V30 2470 C 245.85 1.56513 -0.368817 0
M  V30 2471 O 247.04 1.62385 -0.630623 0
M  V30 2472 C 244.172 3.13533 -1.33827 0
M  V30 2473 H 245.365 1.71649 -2.4592 0
M  V30 2474 H 242.918 0.863573 -1.30277 0
M  V30 2475 H 243.653 3.22142 -0.37349 0
M  V30 2476 H 243.438 3.28101 -2.14691 0
M  V30 2477 H 244.928 3.93356 -1.40218 0
M  V30 2478 N 245.365 1.30045 0.890287 0
M  V30 2479 C 246.313 1.15873 2.01683 0
M  V30 2480 C 247.307 0.0719403 1.69247 0
M  V30 2481 O 248.513 0.232414 1.78493 0
M  V30 2482 H 244.888 0.358203 0.661207 0
M  V30 2483 H 246.859 2.11229 2.10772 0
M  V30 2484 C 245.608 0.861842 3.36849 0
M  V30 2485 H 244.931 1.69016 3.62317 0
M  V30 2486 H 246.371 0.802762 4.16331 0
M  V30 2487 C 244.83 -0.435132 3.34078 0
M  V30 2488 O 245.36 -1.4583 3.74295 0
M  V30 2489 N 243.566 -0.444377 2.87182 0
M  V30 2490 H 243.113 0.388723 2.5465 0
M  V30 2491 H 243.071 -1.31213 2.85711 0
M  V30 2492 N 246.843 -1.10192 1.12674 0
M  V30 2493 C 247.79 -2.16606 0.796906 0
M  V30 2494 C 248.76 -1.64394 -0.237476 0
M  V30 2495 O 249.945 -1.90474 -0.111484 0
M  V30 2496 C 247.085 -3.44116 0.26043 0
M  V30 2497 C 246.198 -4.10268 1.35293 0
M  V30 2498 C 245.333 -5.25507 0.775621 0
M  V30 2499 C 244.372 -5.83567 1.84706 0
M  V30 2500 N 243.509 -6.90179 1.28829 0
M  V30 2501 H 248.349 -2.44163 1.70846 0
M  V30 2502 H 245.886 -1.19846 0.85295 0
M  V30 2503 H 247.844 -4.17143 -0.0686814 0
M  V30 2504 H 246.474 -3.16901 -0.614274 0
M  V30 2505 H 245.526 -3.35184 1.79877 0
M  V30 2506 H 246.838 -4.4946 2.16303 0
M  V30 2507 H 245.992 -6.05398 0.397327 0
M  V30 2508 H 244.731 -4.87656 -0.0656581 0
M  V30 2509 H 243.736 -5.02344 2.23452 0
M  V30 2510 H 244.961 -6.23482 2.69161 0
M  V30 2511 H 242.907 -6.54322 0.468881 0
M  V30 2512 H 242.824 -7.28097 2.03497 0
M  V30 2513 H 244.092 -7.73844 0.937311 0
M  V30 2514 N 248.321 -0.919034 -1.28029 0
M  V30 2515 C 249.549 -0.570971 -1.98866 0
M  V30 2516 C 249.964 0.848996 -1.68634 0
M  V30 2517 O 249.321 1.56307 -0.942036 0
M  V30 2518 C 249.372 -0.776876 -3.53054 0
M  V30 2519 O 249.093 -2.14097 -3.82222 0
M  V30 2520 C 250.594 -0.436356 -4.41147 0
M  V30 2521 H 247.814 -0.217175 -0.634883 0
M  V30 2522 H 250.358 -1.23368 -1.63097 0
M  V30 2523 H 248.513 -0.161085 -3.87065 0
M  V30 2524 H 248.927 -2.18455 -4.76841 0
M  V30 2525 H 250.401 -0.63117 -5.4838 0
M  V30 2526 H 250.878 0.627686 -4.34692 0
M  V30 2527 H 251.484 -1.02991 -4.12641 0
M  V30 2528 N 249.799 1.42003 -0.683588 0
M  V30 2529 C 251.21 1.84501 -0.285736 0
M  V30 2530 C 251.561 1.57213 1.17382 0
M  V30 2531 O 250.686 1.03642 1.89966 0
M  V30 2532 C 251.281 3.34912 -0.511821 0
M  V30 2533 C 249.84 3.76025 -0.168005 0
M  V30 2534 C 248.987 2.6551 -0.799983 0
M  V30 2535 H 251.938 1.31724 -0.885119 0
M  V30 2536 H 251.959 3.79784 0.233292 0
M  V30 2537 H 251.471 3.54741 -1.57418 0
M  V30 2538 H 249.572 3.61801 0.890567 0
M  V30 2539 H 249.685 4.75141 -0.614661 0
M  V30 2540 H 248.049 2.53654 -0.230568 0
M  V30 2541 H 248.832 2.8816 -1.86597 0
M  V30 2542 N 251.277 0.427512 1.51691 0
M  V30 2543 C 252.554 -0.201684 1.94557 0
M  V30 2544 C 252.934 -1.60981 1.36559 0
M  V30 2545 O 252.282 -2.21814 0.548702 0
M  V30 2546 C 252.492 -0.189394 3.48486 0
M  V30 2547 C 253.84 -0.39978 4.22714 0
M  V30 2548 O 254.864 -0.267945 3.55191 0
M  V30 2549 O 253.723 -0.661249 5.42485 0
M  V30 2550 H 250.817 -0.135261 0.815864 0
M  V30 2551 H 253.363 0.484782 1.62628 0
M  V30 2552 H 252.135 0.795431 3.8313 0
M  V30 2553 H 251.758 -0.919187 3.86829 0
M  V30 2554 N 252.755 -1.56801 0.158532 0
M  V30 2555 C 253.702 -2.17337 -0.776729 0
M  V30 2556 C 254.672 -1.1096 -1.23601 0
M  V30 2557 O 255.857 -1.39054 -1.30647 0
M  V30 2558 C 252.997 -2.80822 -2.00582 0
M  V30 2559 C 252.11 -4.01624 -1.59129 0
M  V30 2560 C 251.245 -4.53072 -2.77306 0
M  V30 2561 C 250.284 -5.66314 -2.32282 0
M  V30 2562 N 249.421 -6.12329 -3.43508 0
M  V30 2563 H 254.261 -2.96918 -0.253701 0
M  V30 2564 H 251.798 -1.46661 -0.113504 0
M  V30 2565 H 253.756 -3.15779 -2.72652 0
M  V30 2566 H 252.386 -2.03866 -2.50277 0
M  V30 2567 H 251.438 -3.72571 -0.767806 0
M  V30 2568 H 252.75 -4.83633 -1.2207 0
M  V30 2569 H 251.904 -4.90145 -3.57551 0
M  V30 2570 H 250.643 -3.70095 -3.17617 0
M  V30 2571 H 249.648 -5.28806 -1.5048 0
M  V30 2572 H 250.873 -6.51085 -1.93043 0
M  V30 2573 H 248.819 -5.32284 -3.83418 0
M  V30 2574 H 248.736 -6.89293 -3.105 0
M  V30 2575 H 250.004 -6.5405 -4.24075 0
M  V30 2576 N 254.233 0.115231 -1.57178 0
M  V30 2577 C 255.163 1.1423 -2.03651 0
M  V30 2578 C 256.144 1.42967 -0.921655 0
M  V30 2579 O 257.329 1.53343 -1.19162 0
M  V30 2580 C 254.459 2.4675 -2.44401 0
M  V30 2581 C 253.413 2.32467 -3.59365 0
M  V30 2582 C 252.739 3.69984 -3.86026 0
M  V30 2583 C 254.039 1.78203 -4.90959 0
M  V30 2584 H 255.733 0.755749 -2.89705 0
M  V30 2585 H 253.279 0.362093 -1.39373 0
M  V30 2586 H 255.232 3.18854 -2.75517 0
M  V30 2587 H 253.956 2.87302 -1.55322 0
M  V30 2588 H 252.615 1.62811 -3.28463 0
M  V30 2589 H 252.263 4.08028 -2.94147 0
M  V30 2590 H 251.963 3.61279 -4.63412 0
M  V30 2591 H 253.487 4.43587 -4.19599 0
M  V30 2592 H 254.901 2.40128 -5.20587 0
M  V30 2593 H 253.298 1.8031 -5.72371 0
M  V30 2594 H 254.368 0.739876 -4.79222 0
M  V30 2595 N 255.711 1.52812 0.385517 0
M  V30 2596 C 256.643 1.74096 1.49074 0
M  V30 2597 C 257.656 0.621462 1.50472 0
M  V30 2598 O 258.845 0.897245 1.54311 0
M  V30 2599 C 255.945 1.78774 2.87911 0
M  V30 2600 C 255.118 3.08134 3.10439 0
M  V30 2601 C 254.177 3.04313 4.29278 0
M  V30 2602 O 253.203 3.78168 4.25415 0
M  V30 2603 N 254.405 2.23741 5.35649 0
M  V30 2604 H 257.17 2.69455 1.31202 0
M  V30 2605 H 254.731 1.51343 0.575065 0
M  V30 2606 H 256.723 1.73721 3.65518 0
M  V30 2607 H 255.293 0.907869 2.99126 0
M  V30 2608 H 254.513 3.26649 2.20667 0
M  V30 2609 H 255.801 3.93662 3.22347 0
M  V30 2610 H 255.199 1.63211 5.41645 0
M  V30 2611 H 253.756 2.24524 6.11909 0
M  V30 2612 N 257.189 -0.644168 1.43834 0
M  V30 2613 C 258.121 -1.76955 1.45669 0
M  V30 2614 C 259.134 -1.58956 0.351666 0
M  V30 2615 O 260.323 -1.6751 0.616644 0
M  V30 2616 C 257.423 -3.14507 1.26248 0
M  V30 2617 C 256.596 -3.59083 2.49757 0
M  V30 2618 C 255.655 -4.75467 2.25427 0
M  V30 2619 O 254.681 -4.84444 2.98836 0
M  V30 2620 N 255.883 -5.66289 1.27661 0
M  V30 2621 H 258.648 -1.75856 2.42682 0
M  V30 2622 H 256.209 -0.828312 1.39106 0
M  V30 2623 H 258.201 -3.90067 1.0784 0
M  V30 2624 H 256.771 -3.10325 0.376478 0
M  V30 2625 H 255.991 -2.7387 2.8353 0
M  V30 2626 H 257.279 -3.85613 3.31934 0
M  V30 2627 H 256.677 -5.61718 0.670064 0
M  V30 2628 H 255.234 -6.41533 1.15234 0
M  V30 2629 N 258.668 -1.30515 -0.883378 0
M  V30 2630 C 259.631 -1.1701 -1.97082 0
M  V30 2631 C 260.631 -0.10089 -1.60483 0
M  V30 2632 O 261.821 -0.349127 -1.70666 0
M  V30 2633 C 258.953 -0.793045 -3.31547 0
M  V30 2634 H 260.146 -2.13622 -2.10489 0
M  V30 2635 H 257.699 -1.13935 -1.06998 0
M  V30 2636 H 258.434 0.172499 -3.23841 0
M  V30 2637 H 258.219 -1.56576 -3.5948 0
M  V30 2638 H 259.709 -0.722073 -4.1131 0
M  V30 2639 N 260.146 1.09593 -1.13257 0
M  V30 2640 C 261.109 2.14359 -0.811358 0
M  V30 2641 C 262.109 1.59808 0.178377 0
M  V30 2642 O 263.299 1.74132 -0.0484911 0
M  V30 2643 C 260.431 3.40269 -0.207276 0
M  V30 2644 H 261.624 2.44284 -1.73969 0
M  V30 2645 H 259.177 1.25102 -0.936973 0
M  V30 2646 H 259.912 3.15969 0.73036 0
M  V30 2647 H 259.697 3.81154 -0.919992 0
M  V30 2648 H 261.187 4.176 0.000667944 0
M  V30 2649 N 261.624 0.925811 1.2754 0
M  V30 2650 C 262.554 0.440748 2.29303 0
M  V30 2651 C 263.535 -0.497971 1.62648 0
M  V30 2652 O 264.72 -0.403126 1.8997 0
M  V30 2653 C 261.85 -0.309048 3.45922 0
M  V30 2654 C 260.804 0.54166 4.24559 0
M  V30 2655 C 260.13 -0.337191 5.33636 0
M  V30 2656 C 261.43 1.80516 4.90114 0
M  V30 2657 H 263.124 1.29121 2.70126 0
M  V30 2658 H 260.67 0.622323 1.29858 0
M  V30 2659 H 262.623 -0.659315 4.1621 0
M  V30 2660 H 261.347 -1.19352 3.04011 0
M  V30 2661 H 260.006 0.874609 3.56014 0
M  V30 2662 H 259.654 -1.22056 4.87966 0
M  V30 2663 H 259.354 0.228497 5.87156 0
M  V30 2664 H 260.878 -0.683072 6.06767 0
M  V30 2665 H 262.292 1.52307 5.52698 0
M  V30 2666 H 260.689 2.3142 5.53683 0
M  V30 2667 H 261.759 2.52581 4.13921 0
M  V30 2668 N 263.102 -1.41638 0.69111 0
M  V30 2669 C 264.513 -1.84346 0.295517 0
M  V30 2670 C 264.864 -1.57833 -1.16547 0
M  V30 2671 O 263.989 -1.04648 -1.89414 0
M  V30 2672 C 264.584 -3.34636 0.529575 0
M  V30 2673 C 263.143 -3.7593 0.187944 0
M  V30 2674 C 262.29 -2.65082 0.814052 0
M  V30 2675 H 265.241 -1.31253 0.892092 0
M  V30 2676 H 265.262 -3.79903 -0.213148 0
M  V30 2677 H 264.774 -3.53901 1.59297 0
M  V30 2678 H 262.875 -3.62268 -0.871367 0
M  V30 2679 H 262.988 -4.74808 0.63985 0
M  V30 2680 H 261.352 -2.53528 0.244017 0
M  V30 2681 H 262.135 -2.87167 1.88123 0
M  V30 2682 N 264.58 -0.43555 -1.51462 0
M  V30 2683 C 265.51 0.367376 -2.30592 0
M  V30 2684 C 266.491 1.02263 -1.35928 0
M  V30 2685 O 267.676 1.02661 -1.64847 0
M  V30 2686 C 264.806 1.46983 -3.14664 0
M  V30 2687 C 263.76 0.938161 -4.17591 0
M  V30 2688 C 263.086 2.13622 -4.90173 0
M  V30 2689 C 264.386 -0.0261621 -5.22293 0
M  V30 2690 H 266.08 -0.292969 -2.97963 0
M  V30 2691 H 263.626 -0.14234 -1.43295 0
M  V30 2692 H 265.579 2.03873 -3.688 0
M  V30 2693 H 264.303 2.15843 -2.4511 0
M  V30 2694 H 262.962 0.391481 -3.64504 0
M  V30 2695 H 262.61 2.81098 -4.17124 0
M  V30 2696 H 262.31 1.78688 -5.59772 0
M  V30 2697 H 263.834 2.7107 -5.47132 0
M  V30 2698 H 265.248 0.452384 -5.71512 0
M  V30 2699 H 263.645 -0.287992 -5.99409 0
M  V30 2700 H 264.715 -0.963391 -4.75233 0
M  V30 2701 N 266.058 1.56714 -0.166846 0
M  V30 2702 C 266.988 2.20754 0.760913 0
M  V30 2703 C 267.969 1.16178 1.24244 0
M  V30 2704 O 269.154 1.44592 1.29641 0
M  V30 2705 C 266.284 2.84478 1.99223 0
M  V30 2706 C 265.238 3.95053 1.64672 0
M  V30 2707 C 264.564 4.45805 2.95232 0
M  V30 2708 C 265.864 5.14865 0.878155 0
M  V30 2709 H 267.558 2.98537 0.22713 0
M  V30 2710 H 265.104 1.43596 0.107805 0
M  V30 2711 H 267.057 3.27951 2.64624 0
M  V30 2712 H 265.781 2.04056 2.55007 0
M  V30 2713 H 264.44 3.52228 1.01641 0
M  V30 2714 H 264.088 3.62181 3.49047 0
M  V30 2715 H 263.788 5.204 2.7287 0
M  V30 2716 H 265.312 4.91962 3.6167 0
M  V30 2717 H 266.726 5.55059 1.43466 0
M  V30 2718 H 265.123 5.95348 0.753738 0
M  V30 2719 H 266.193 4.84735 -0.126377 0
M  V30 2720 N 267.536 -0.106894 1.57237 0
M  V30 2721 C 268.761 -0.830287 1.90055 0
M  V30 2722 C 269.186 -1.72064 0.75998 0
M  V30 2723 O 268.544 -1.78982 -0.288991 0
M  V30 2724 C 268.592 -1.6295 3.21683 0
M  V30 2725 O 267.696 -2.73748 3.08441 0
M  V30 2726 H 267.037 -0.228855 0.623315 0
M  V30 2727 H 269.567 -0.085658 2.04421 0
M  V30 2728 H 269.577 -2.01621 3.54701 0
M  V30 2729 H 268.252 -0.975989 4.04286 0
M  V30 2730 H 266.829 -2.38192 2.86913 0
M  V30 2731 N 269.014 -1.53014 -0.377408 0
M  V30 2732 C 269.962 -1.7927 -1.48206 0
M  V30 2733 C 270.956 -0.661195 -1.55963 0
M  V30 2734 O 272.162 -0.843908 -1.58991 0
M  V30 2735 H 268.537 -0.567425 -0.493491 0
M  V30 2736 H 270.508 -2.71753 -1.2326 0
M  V30 2737 C 269.257 -1.98894 -2.85196 0
M  V30 2738 H 268.58 -2.85395 -2.79981 0
M  V30 2739 H 270.02 -2.21249 -3.61698 0
M  V30 2740 C 268.479 -0.764691 -3.28107 0
M  V30 2741 O 269.009 0.0523226 -4.01666 0
M  V30 2742 N 267.215 -0.591493 -2.84517 0
M  V30 2743 H 266.762 -1.25749 -2.24822 0
M  V30 2744 H 266.72 0.226253 -3.13585 0
M  V30 2745 N 270.492 0.636531 -1.44174 0
M  V30 2746 C 271.455 1.73063 -1.50273 0
M  V30 2747 C 272.455 1.56113 -0.385397 0
M  V30 2748 O 273.645 1.61707 -0.64781 0
M  V30 2749 C 270.777 3.12096 -1.37145 0
M  V30 2750 H 271.97 1.69031 -2.47727 0
M  V30 2751 H 269.523 0.849706 -1.31186 0
M  V30 2752 H 270.258 3.21728 -0.407636 0
M  V30 2753 H 270.043 3.25805 -2.18159 0
M  V30 2754 H 271.533 3.91846 -1.44382 0
M  V30 2755 N 271.97 1.30982 0.876444 0
M  V30 2756 C 272.88 1.2003 2.01569 0
M  V30 2757 C 273.896 0.11838 1.73597 0
M  V30 2758 O 275.072 0.33495 1.98595 0
M  V30 2759 C 272.137 0.901637 3.34771 0
M  V30 2760 C 271.198 2.06979 3.76109 0
M  V30 2761 C 270.431 1.78529 5.02954 0
M  V30 2762 O 270.654 0.717296 5.65872 0
M  V30 2763 O 269.588 2.64019 5.40905 0
M  V30 2764 H 273.414 2.15753 2.13739 0
M  V30 2765 H 270.999 1.10658 1.00375 0
M  V30 2766 H 272.881 0.750645 4.1466 0
M  V30 2767 H 271.556 -0.0256141 3.2369 0
M  V30 2768 H 270.463 2.27616 2.96887 0
M  V30 2769 H 271.796 2.97907 3.91807 0
M  V30 2770 N 273.449 -1.08991 1.13837 0
M  V30 2771 C 274.689 -1.82867 0.913183 0
M  V30 2772 C 275.053 -1.83936 -0.550604 0
M  V30 2773 O 276.254 -2.53515 -0.893515 0
M  V30 2774 C 274.525 -3.24843 1.49036 0
M  V30 2775 S 276.084 -4.15669 1.40588 0
M  V30 2776 H 272.902 -0.630278 0.329046 0
M  V30 2777 H 275.504 -1.31049 1.45073 0
M  V30 2778 H 274.208 -3.21644 2.54899 0
M  V30 2779 H 273.739 -3.81734 0.950947 0
M  V30 2780 H 275.754 -4.94686 0.387353 0
M  V30 2781 N 274.927 -0.932562 -1.27047 0
M  V30 2782 C 275.874 -0.434072 -2.26681 0
M  V30 2783 C 276.844 0.501639 -1.58344 0
M  V30 2784 O 278.029 0.419734 -1.86126 0
M  V30 2785 C 275.169 0.30261 -3.43771 0
M  V30 2786 C 274.282 -0.667774 -4.26808 0
M  V30 2787 C 273.417 0.0892393 -5.31125 0
M  V30 2788 C 272.456 -0.873532 -6.05835 0
M  V30 2789 N 271.593 -0.148832 -7.01942 0
M  V30 2790 H 276.433 -1.28868 -2.68695 0
M  V30 2791 H 273.97 -0.646713 -1.32121 0
M  V30 2792 H 275.928 0.746092 -4.10474 0
M  V30 2793 H 274.558 1.12142 -3.02695 0
M  V30 2794 H 273.61 -1.22978 -3.59973 0
M  V30 2795 H 274.922 -1.40337 -4.78651 0
M  V30 2796 H 274.076 0.592409 -6.03801 0
M  V30 2797 H 272.815 0.85777 -4.80097 0
M  V30 2798 H 271.82 -1.38791 -5.31994 0
M  V30 2799 H 273.045 -1.64193 -6.58952 0
M  V30 2800 H 270.991 0.601365 -6.53238 0
M  V30 2801 H 270.908 -0.82391 -7.51497 0
M  V30 2802 H 272.176 0.333527 -7.78786 0
M  V30 2803 N 276.405 1.4127 -0.698611 0
M  V30 2804 C 277.352 2.30773 -0.0352094 0
M  V30 2805 C 278.322 1.47273 0.768111 0
M  V30 2806 O 279.507 1.76053 0.735524 0
M  V30 2807 C 276.647 3.33346 0.893 0
M  V30 2808 C 275.76 4.31924 0.0809695 0
M  V30 2809 C 274.895 5.21566 1.0071 0
M  V30 2810 C 273.934 6.11811 0.188155 0
M  V30 2811 N 273.071 6.93926 1.06825 0
M  V30 2812 H 277.911 2.86943 -0.804207 0
M  V30 2813 H 275.448 1.4132 -0.408294 0
M  V30 2814 H 277.406 3.91368 1.44523 0
M  V30 2815 H 276.036 2.78719 1.62836 0
M  V30 2816 H 275.088 3.75825 -0.588224 0
M  V30 2817 H 276.4 4.95716 -0.553801 0
M  V30 2818 H 275.554 5.84437 1.62845 0
M  V30 2819 H 274.293 4.58008 1.67572 0
M  V30 2820 H 273.298 5.47986 -0.446254 0
M  V30 2821 H 274.523 6.77425 -0.476716 0
M  V30 2822 H 272.469 6.32973 1.72283 0
M  V30 2823 H 272.386 7.54416 0.489123 0
M  V30 2824 H 273.654 7.61262 1.67632 0
M  V30 2825 N 277.883 0.443576 1.51229 0
M  V30 2826 C 279.108 -0.121648 2.07043 0
M  V30 2827 C 279.533 -1.35156 1.30823 0
M  V30 2828 O 278.891 -1.7793 0.347934 0
M  V30 2829 C 278.939 -0.41624 3.5819 0
M  V30 2830 O 278.043 -1.50163 3.8409 0
M  V30 2831 H 277.384 0.000871367 0.663999 0
M  V30 2832 H 279.914 0.626706 1.94765 0
M  V30 2833 H 279.924 -0.664867 4.02546 0
M  V30 2834 H 278.599 0.482653 4.1309 0
M  V30 2835 H 277.176 -1.24248 3.51592 0
M  V30 2836 N 279.361 -1.56624 0.175154 0
M  V30 2837 C 280.607 -1.98061 -0.462976 0
M  V30 2838 C 280.962 -1.05949 -1.60601 0
M  V30 2839 O 280.255 -0.0999027 -1.91339 0
M  V30 2840 C 280.449 -3.43419 -0.989864 0
M  V30 2841 C 280.278 -4.49587 0.100583 0
M  V30 2842 C 279.048 -5.02281 0.551539 0
M  V30 2843 C 281.246 -5.06322 0.902369 0
M  V30 2844 N 279.228 -5.92088 1.62189 0
M  V30 2845 C 280.599 -5.92607 1.82256 0
M  V30 2846 C 282.654 -4.88811 0.947019 0
M  V30 2847 C 281.357 -6.63254 2.78364 0
M  V30 2848 C 283.383 -5.60182 1.89606 0
M  V30 2849 C 282.745 -6.46197 2.80372 0
M  V30 2850 H 278.844 -0.769833 -0.137409 0
M  V30 2851 H 281.428 -1.9273 0.276256 0
M  V30 2852 H 279.599 -3.49288 -1.6986 0
M  V30 2853 H 281.331 -3.7186 -1.59694 0
M  V30 2854 H 278.086 -4.73367 0.148537 0
M  V30 2855 H 278.51 -6.41696 2.15767 0
M  V30 2856 H 283.152 -4.22004 0.259304 0
M  V30 2857 H 280.87 -7.29271 3.48122 0
M  V30 2858 H 284.456 -5.48617 1.93676 0
M  V30 2859 H 283.336 -7.00453 3.52612 0
M  V30 2860 N 280.839 0.0985539 -1.57292 0
M  V30 2861 C 282.087 0.801092 -1.85545 0
M  V30 2862 C 282.408 1.79438 -0.763353 0
M  V30 2863 O 281.678 1.94763 0.21073 0
M  V30 2864 H 280.258 0.29884 -0.684619 0
M  V30 2865 H 282.92 0.0810064 -1.94732 0
M  V30 2866 H 282.016 1.3338 -2.82163 0
M  V30 2867 N 282.317 1.53212 0.369288 0
M  V30 2868 C 283.733 1.42902 0.710712 0
M  V30 2869 C 283.933 0.565135 1.93413 0
M  V30 2870 O 282.989 0.0461484 2.52458 0
M  V30 2871 C 284.302 2.86042 0.927382 0
M  V30 2872 C 285.85 2.9565 1.02762 0
M  V30 2873 C 286.325 4.39843 1.27679 0
M  V30 2874 N 287.816 4.43256 1.34457 0
M  V30 2875 C 288.551 5.51929 1.55439 0
M  V30 2876 N 288.047 6.70655 1.73762 0
M  V30 2877 N 289.84 5.39502 1.57779 0
M  V30 2878 H 281.991 2.07888 -0.435457 0
M  V30 2879 H 284.254 0.938661 -0.132739 0
M  V30 2880 H 283.96 3.51557 0.100287 0
M  V30 2881 H 283.834 3.29472 1.83653 0
M  V30 2882 H 286.221 2.30291 1.84527 0
M  V30 2883 H 286.302 2.5562 0.0959504 0
M  V30 2884 H 285.946 5.05774 0.464175 0
M  V30 2885 H 285.876 4.77443 2.22162 0
M  V30 2886 H 288.367 3.5769 1.21926 0
M  V30 2887 H 288.68 7.49248 1.89335 0
M  V30 2888 H 287.025 6.73648 1.70948 0
M  V30 2889 H 290.216 4.45713 1.43029 0
M  V30 2890 H 290.389 6.2426 1.7379 0
M  V30 2891 N 283.795 -0.628877 1.44509 0
M  V30 2892 C 285.211 -0.947305 1.28446 0
M  V30 2893 C 285.411 -2.00275 0.221872 0
M  V30 2894 O 284.467 -2.49447 -0.391471 0
M  V30 2895 C 285.78 -1.40843 2.65676 0
M  V30 2896 C 287.328 -1.52379 2.73404 0
M  V30 2897 C 287.803 -2.01875 4.11109 0
M  V30 2898 N 289.294 -2.09142 4.13296 0
M  V30 2899 C 290.029 -2.48615 5.16699 0
M  V30 2900 N 289.525 -2.87209 6.30462 0
M  V30 2901 N 291.318 -2.48768 5.04054 0
M  V30 2902 H 283.469 0.0690977 2.12288 0
M  V30 2903 H 285.732 -0.0317164 0.947469 0
M  V30 2904 H 285.438 -0.707206 3.44516 0
M  V30 2905 H 285.312 -2.37902 2.92716 0
M  V30 2906 H 287.699 -2.21598 1.9488 0
M  V30 2907 H 287.78 -0.536898 2.50102 0
M  V30 2908 H 287.424 -1.3325 4.90109 0
M  V30 2909 H 287.354 -3.0144 4.31789 0
M  V30 2910 H 289.845 -1.81991 3.31191 0
M  V30 2911 H 290.158 -3.16149 7.05174 0
M  V30 2912 H 288.503 -2.84955 6.33897 0
M  V30 2913 H 291.694 -2.18009 4.14234 0
M  V30 2914 H 291.867 -2.79207 5.84763 0
M  V30 2915 N 285.273 -1.31445 -0.869486 0
M  V30 2916 C 286.522 -1.20517 -1.61736 0
M  V30 2917 C 286.835 0.235341 -1.94179 0
M  V30 2918 O 288.041 0.466312 -2.67465 0
M  V30 2919 C 286.497 -2.10982 -2.91573 0
M  V30 2920 C 286.105 -3.60032 -2.66611 0
M  V30 2921 C 287.849 -2.08856 -3.69567 0
M  V30 2922 C 285.756 -4.42503 -3.92358 0
M  V30 2923 H 284.686 -0.447493 -0.606849 0
M  V30 2924 H 287.337 -1.56303 -0.96133 0
M  V30 2925 H 285.719 -1.68095 -3.58553 0
M  V30 2926 H 286.893 -4.11167 -2.08035 0
M  V30 2927 H 285.208 -3.64139 -2.0197 0
M  V30 2928 H 287.805 -2.67716 -4.62852 0
M  V30 2929 H 288.148 -1.07582 -4.02159 0
M  V30 2930 H 288.681 -2.49945 -3.09471 0
M  V30 2931 H 285.42 -5.44533 -3.64916 0
M  V30 2932 H 284.94 -3.96125 -4.50383 0
M  V30 2933 H 286.619 -4.54741 -4.60238 0
M  V30 2934 N 286.751 1.08385 -1.14413 0
M  V30 2935 C 287.979 1.84517 -0.936001 0
M  V30 2936 C 288.394 1.81626 0.515503 0
M  V30 2937 O 287.751 1.22008 1.35721 0
M  V30 2938 C 287.802 3.32049 -1.42918 0
M  V30 2939 O 287.523 3.34951 -2.82381 0
M  V30 2940 C 289.024 4.24986 -1.26103 0
M  V30 2941 H 286.244 0.582491 -0.333084 0
M  V30 2942 H 288.788 1.36885 -1.5193 0
M  V30 2943 H 286.943 3.7707 -0.888641 0
M  V30 2944 H 287.357 4.27048 -3.04517 0
M  V30 2945 H 288.831 5.26615 -1.6547 0
M  V30 2946 H 289.308 4.38726 -0.20392 0
M  V30 2947 H 289.914 3.85791 -1.79012 0
M  V30 2948 N 288.23 0.939286 1.26551 0
M  V30 2949 C 289.507 0.5038 1.89001 0
M  V30 2950 C 289.887 -1.01854 1.84903 0
M  V30 2951 O 289.235 -1.87773 1.30206 0
M  V30 2952 C 289.445 1.063 3.32417 0
M  V30 2953 C 290.793 1.13051 4.09273 0
M  V30 2954 O 291.817 1.01345 3.41479 0
M  V30 2955 O 290.676 1.31233 5.30509 0
M  V30 2956 H 287.77 0.163897 0.810597 0
M  V30 2957 H 290.316 1.03173 1.34735 0
M  V30 2958 H 289.088 2.10665 3.29752 0
M  V30 2959 H 288.711 0.517408 3.94219 0
M  V30 2960 N 289.708 -1.40897 0.706093 0
M  V30 2961 C 290.954 -2.01352 0.241889 0
M  V30 2962 C 291.287 -1.55832 -1.15888 0
M  V30 2963 O 290.562 -0.774145 -1.7843 0
M  V30 2964 C 290.845 -3.58752 0.311311 0
M  V30 2965 C 290.698 -4.1437 1.74978 0
M  V30 2966 C 292.017 -4.38914 -0.322922 0
M  V30 2967 H 289.136 -0.731562 0.0893687 0
M  V30 2968 H 291.778 -1.67504 0.896802 0
M  V30 2969 H 289.928 -3.87718 -0.246302 0
M  V30 2970 H 291.6 -3.96239 2.36205 0
M  V30 2971 H 289.843 -3.69016 2.28057 0
M  V30 2972 H 290.514 -5.23532 1.74981 0
M  V30 2973 H 292.99 -4.15822 0.152089 0
M  V30 2974 H 291.866 -5.48358 -0.243855 0
M  V30 2975 H 292.127 -4.19176 -1.40513 0
M  V30 2976 N 291.186 -0.45159 -1.50991 0
M  V30 2977 C 292.119 0.398179 -2.24699 0
M  V30 2978 C 293.097 1.01276 -1.27208 0
M  V30 2979 O 294.281 1.05247 -1.56382 0
M  V30 2980 C 291.408 1.55618 -3.00833 0
M  V30 2981 C 290.454 1.0609 -4.13095 0
M  V30 2982 S 291.287 -0.00865136 -5.35499 0
M  V30 2983 C 292.443 1.15369 -6.15175 0
M  V30 2984 H 292.676 -0.227555 -2.96428 0
M  V30 2985 H 290.209 -0.236251 -1.52582 0
M  V30 2986 H 292.167 2.21997 -3.45293 0
M  V30 2987 H 290.828 2.15337 -2.28667 0
M  V30 2988 H 290.021 1.92726 -4.65696 0
M  V30 2989 H 289.623 0.47513 -3.7097 0
M  V30 2990 H 291.915 2.06925 -6.45126 0
M  V30 2991 H 292.858 0.667344 -7.04948 0
M  V30 2992 H 293.266 1.3987 -5.46897 0
M  V30 2993 N 292.664 1.56529 -0.183458 0
M  V30 2994 C 293.913 1.96419 0.458511 0
M  V30 2995 C 294.226 1.0727 1.63562 0
M  V30 2996 O 295.432 1.36893 2.34462 0
M  V30 2997 C 293.888 3.49298 0.867122 0
M  V30 2998 C 293.496 4.47092 -0.285057 0
M  V30 2999 C 295.24 3.97983 1.47683 0
M  V30 3000 C 293.147 5.91225 0.143862 0
M  V30 3001 H 292.077 0.733394 0.175071 0
M  V30 3002 H 294.728 1.81448 -0.273624 0
M  V30 3003 H 293.11 3.59731 1.65559 0
M  V30 3004 H 294.284 4.48383 -1.0625 0
M  V30 3005 H 292.599 4.08535 -0.805503 0
M  V30 3006 H 295.196 5.03134 1.80999 0
M  V30 3007 H 295.539 3.41618 2.37914 0
M  V30 3008 H 296.072 3.90617 0.752562 0
M  V30 3009 H 292.811 6.5149 -0.723974 0
M  V30 3010 H 292.331 5.93214 0.886413 0
M  V30 3011 H 294.01 6.44362 0.583628 0
M  V30 3012 N 294.142 -0.090211 1.57342 0
M  V30 3013 C 295.382 -0.798365 1.88163 0
M  V30 3014 C 295.746 -1.75662 0.775046 0
M  V30 3015 O 296.947 -2.50849 0.965816 0
M  V30 3016 C 295.218 -1.50376 3.24225 0
M  V30 3017 S 296.777 -2.24952 3.76752 0
M  V30 3018 H 293.595 -0.265883 0.659414 0
M  V30 3019 H 296.197 -0.055264 1.95422 0
M  V30 3020 H 294.901 -0.792286 4.0268 0
M  V30 3021 H 294.432 -2.28666 3.20118 0
M  V30 3022 H 296.447 -3.51173 3.5056 0
M  V30 3023 N 295.62 -1.53406 -0.361157 0
M  V30 3024 C 296.583 -1.79479 -1.42548 0
M  V30 3025 C 297.583 -0.665327 -1.4639 0
M  V30 3026 O 298.773 -0.933549 -1.47073 0
M  V30 3027 C 295.905 -1.92087 -2.8163 0
M  V30 3028 H 297.098 -2.74538 -1.20701 0
M  V30 3029 H 294.651 -1.4455 -0.594546 0
M  V30 3030 H 295.386 -0.991099 -3.08784 0
M  V30 3031 H 295.171 -2.74241 -2.80239 0
M  V30 3032 H 296.661 -2.13836 -3.58697 0
M  V30 3033 N 297.098 0.621204 -1.44841 0
M  V30 3034 C 298.346 1.37783 -1.47852 0
M  V30 3035 C 298.667 1.94653 -0.116224 0
M  V30 3036 O 297.937 1.76367 0.852737 0
M  V30 3037 H 296.517 0.511453 -0.544449 0
M  V30 3038 H 299.179 0.730446 -1.80694 0
M  V30 3039 H 298.275 2.20414 -2.20961 0
M  V30 3040 N 298.576 1.31904 0.862503 0
M  V30 3041 C 299.539 1.20131 1.95195 0
M  V30 3042 C 300.539 0.126409 1.60302 0
M  V30 3043 O 301.729 0.376234 1.70089 0
M  V30 3044 C 298.861 0.845691 3.30244 0
M  V30 3045 H 300.054 2.16943 2.07064 0
M  V30 3046 H 297.607 1.15622 1.05172 0
M  V30 3047 H 298.342 -0.120957 3.24074 0
M  V30 3048 H 298.127 1.62276 3.56944 0
M  V30 3049 H 299.617 0.787418 4.10109 0
M  V30 3050 N 300.054 -1.07777 1.14986 0
M  V30 3051 C 301.279 -1.84558 0.946213 0
M  V30 3052 C 301.704 -1.81323 -0.500362 0
M  V30 3053 O 301.062 -1.20301 -1.35637 0
M  V30 3054 C 301.11 -3.29736 1.45968 0
M  V30 3055 O 300.214 -4.07149 0.65601 0
M  V30 3056 H 299.555 -0.571641 0.33782 0
M  V30 3057 H 302.085 -1.35991 1.52865 0
M  V30 3058 H 302.095 -3.80574 1.47063 0
M  V30 3059 H 300.77 -3.31406 2.51283 0
M  V30 3060 H 299.347 -3.65994 0.714322 0
M  V30 3061 N 301.532 -0.945985 -1.26051 0
M  V30 3062 C 302.78 -0.594941 -1.93145 0
M  V30 3063 C 303.101 0.86953 -1.7454 0
M  V30 3064 O 302.371 1.61838 -1.10387 0
M  V30 3065 H 300.951 -0.217044 -0.714773 0
M  V30 3066 H 303.613 -1.20235 -1.53393 0
M  V30 3067 H 302.709 -0.816835 -3.01221 0
M  V30 3068 N 303.011 1.40521 -0.713556 0
M  V30 3069 C 304.257 2.01221 -0.252564 0
M  V30 3070 C 304.59 1.56444 1.1506 0
M  V30 3071 O 303.865 0.783597 1.78017 0
M  V30 3072 C 304.148 3.58582 -0.330332 0
M  V30 3073 C 304.001 4.13437 -1.77173 0
M  V30 3074 C 305.32 4.39079 0.299641 0
M  V30 3075 H 302.439 0.731077 -0.0932471 0
M  V30 3076 H 305.081 1.67026 -0.905673 0
M  V30 3077 H 303.231 3.87844 0.225737 0
M  V30 3078 H 304.903 3.9498 -2.38303 0
M  V30 3079 H 303.146 3.67801 -2.3001 0
M  V30 3080 H 303.817 5.22597 -1.77755 0
M  V30 3081 H 306.293 4.15735 -0.174139 0
M  V30 3082 H 305.169 5.4848 0.214771 0
M  V30 3083 H 305.43 4.19915 1.38288 0
M  V30 3084 N 304.489 0.459591 1.5075 0
M  V30 3085 C 305.714 -0.0996819 2.0716 0
M  V30 3086 C 306.139 -1.33761 1.32249 0
M  V30 3087 O 305.497 -1.77551 0.366786 0
M  V30 3088 C 305.545 -0.378226 3.58611 0
M  V30 3089 O 304.649 -1.46081 3.85661 0
M  V30 3090 H 303.99 0.00791392 0.663953 0
M  V30 3091 H 306.52 0.647329 1.9409 0
M  V30 3092 H 306.53 -0.622135 4.03229 0
M  V30 3093 H 305.205 0.526439 4.12555 0
M  V30 3094 H 303.782 -1.20511 3.5289 0
M  V30 3095 N 305.967 -1.56429 0.191757 0
M  V30 3096 C 307.192 -2.02309 -0.456706 0
M  V30 3097 C 307.617 -1.07103 -1.5463 0
M  V30 3098 O 306.975 -0.0539677 -1.8122 0
M  V30 3099 C 307.023 -3.46654 -0.993159 0
M  V30 3100 O 306.127 -3.54559 -2.10622 0
M  V30 3101 H 305.468 -0.655303 -0.107114 0
M  V30 3102 H 307.998 -2.02364 0.301653 0
M  V30 3103 H 308.008 -3.86377 -1.31061 0
M  V30 3104 H 306.683 -4.1544 -0.195504 0
M  V30 3105 H 305.26 -3.26708 -1.79767 0
M  V30 3106 N 307.445 0.0818655 -1.57387 0
M  V30 3107 C 308.685 0.788375 -1.88584 0
M  V30 3108 C 309.049 1.75248 -0.784351 0
M  V30 3109 O 310.25 2.50334 -0.979105 0
M  V30 3110 C 308.521 1.48654 -3.25018 0
M  V30 3111 S 310.08 2.22951 -3.7794 0
M  V30 3112 H 306.898 0.262383 -0.660815 0
M  V30 3113 H 309.5 0.0448995 -1.95448 0
M  V30 3114 H 308.204 0.770919 -4.03094 0
M  V30 3115 H 307.735 2.26965 -3.21326 0
M  V30 3116 H 309.75 3.49309 -3.52417 0
M  V30 3117 N 308.923 1.53595 0.353017 0
M  V30 3118 C 309.856 1.7572 1.45594 0
M  V30 3119 C 310.834 0.605961 1.50887 0
M  V30 3120 O 312.018 0.840023 1.68748 0
M  V30 3121 C 309.145 1.84732 2.83887 0
M  V30 3122 C 308.191 3.06808 2.96262 0
M  V30 3123 S 309.024 4.66065 2.63711 0
M  V30 3124 C 310.18 4.77943 4.04131 0
M  V30 3125 H 310.413 2.68994 1.26608 0
M  V30 3126 H 307.946 1.44343 0.548117 0
M  V30 3127 H 309.904 1.9061 3.63563 0
M  V30 3128 H 308.565 0.92488 3.00175 0
M  V30 3129 H 307.758 3.09761 3.97573 0
M  V30 3130 H 307.36 2.99108 2.24523 0
M  V30 3131 H 309.652 4.5877 4.98534 0
M  V30 3132 H 310.595 5.80022 4.06177 0
M  V30 3133 H 311.003 4.06472 3.91715 0
M  V30 3134 N 310.401 -0.613514 1.45168 0
M  V30 3135 C 311.649 -1.36997 1.48581 0
M  V30 3136 C 311.97 -1.94589 0.126545 0
M  V30 3137 O 311.24 -1.76816 -0.843372 0
M  V30 3138 H 309.82 -0.508558 0.547154 0
M  V30 3139 H 312.482 -0.720853 1.81079 0
M  V30 3140 H 311.578 -2.1924 2.22127 0
M  V30 3141 N 311.879 -1.3236 -0.855495 0
M  V30 3142 C 313.156 -1.13491 -1.59309 0
M  V30 3143 C 313.536 0.30503 -2.08885 0
M  V30 3144 O 312.884 1.30151 -1.87811 0
M  V30 3145 C 313.094 -2.16176 -2.73987 0
M  V30 3146 C 314.442 -2.49463 -3.43589 0
M  V30 3147 O 315.466 -2.14715 -2.84211 0
M  V30 3148 O 314.325 -3.09027 -4.50738 0
M  V30 3149 H 311.419 -0.437887 -0.701559 0
M  V30 3150 H 313.965 -1.43887 -0.899696 0
M  V30 3151 H 312.737 -3.1297 -2.34873 0
M  V30 3152 H 312.36 -1.86769 -3.51003 0
M  V30 3153 N 313.357 1.07166 -1.15556 0
M  V30 3154 C 314.582 1.84053 -0.955988 0
M  V30 3155 C 315.007 1.81586 0.490739 0
M  V30 3156 O 314.365 1.21018 1.34997 0
M  V30 3157 C 314.413 3.28957 -1.47714 0
M  V30 3158 O 313.517 4.06795 -0.677593 0
M  V30 3159 H 312.858 0.569842 -0.340847 0
M  V30 3160 H 315.388 1.35178 -1.53584 0
M  V30 3161 H 315.398 3.79788 -1.4908 0
M  V30 3162 H 314.073 3.30068 -2.53037 0
M  V30 3163 H 312.65 3.6561 -0.733721 0
M  V30 3164 N 314.835 0.952656 1.25548 0
M  V30 3165 C 316.083 0.605176 1.92826 0
M  V30 3166 C 316.404 -0.860261 1.74999 0
M  V30 3167 O 315.674 -1.6125 1.11244 0
M  V30 3168 H 314.254 0.220832 0.713612 0
M  V30 3169 H 316.916 1.21047 1.52754 0
M  V30 3170 H 316.012 0.832798 3.00784 0
M  V30 3171 N 316.313 -1.40141 0.720998 0
M  V30 3172 C 317.561 -2.0039 0.262323 0
M  V30 3173 C 317.882 -1.57469 -1.15015 0
M  V30 3174 O 317.152 -0.816582 -1.78069 0
M  V30 3175 H 315.732 -0.741063 0.093996 0
M  V30 3176 H 318.394 -1.71398 0.927835 0
M  V30 3177 H 317.49 -3.10658 0.299671 0
M  V30 3178 N 317.792 -0.46758 -1.50504 0
M  V30 3179 C 319.203 -0.0116166 -1.86696 0
M  V30 3180 C 319.554 1.39202 -1.38265 0
M  V30 3181 O 318.679 2.0313 -0.746132 0
M  V30 3182 C 319.274 -0.0143044 -3.38797 0
M  V30 3183 C 317.833 0.386175 -3.74414 0
M  V30 3184 C 316.98 -0.401287 -2.74381 0
M  V30 3185 H 319.931 -0.682022 -1.43297 0
M  V30 3186 H 319.952 0.788641 -3.72237 0
M  V30 3187 H 319.464 -1.03602 -3.74016 0
M  V30 3188 H 317.565 1.41237 -3.44794 0
M  V30 3189 H 317.678 0.0899596 -4.79016 0
M  V30 3190 H 316.042 0.144536 -2.5429 0
M  V30 3191 H 316.825 -1.42244 -3.12444 0
M  V30 3192 N 319.27 1.56325 -0.20005 0
M  V30 3193 C 320.2 2.22318 0.713916 0
M  V30 3194 C 321.181 1.18788 1.21752 0
M  V30 3195 O 322.366 1.47309 1.26545 0
M  V30 3196 C 319.496 2.88639 1.93144 0
M  V30 3197 C 318.45 3.98457 1.56255 0
M  V30 3198 C 317.776 4.51967 2.85709 0
M  V30 3199 C 319.076 5.16612 0.768747 0
M  V30 3200 H 320.77 2.98952 0.163755 0
M  V30 3201 H 318.316 1.43792 0.0773219 0
M  V30 3202 H 320.269 3.33491 2.57608 0
M  V30 3203 H 318.993 2.09419 2.50621 0
M  V30 3204 H 317.652 3.54305 0.941471 0
M  V30 3205 H 317.3 3.69503 3.41287 0
M  V30 3206 H 317 5.26071 2.6177 0
M  V30 3207 H 318.524 4.99523 3.51154 0
M  V30 3208 H 319.938 5.57977 1.3166 0
M  V30 3209 H 318.335 5.96812 0.627286 0
M  V30 3210 H 319.405 4.84358 -0.229168 0
M  V30 3211 N 320.748 -0.0735177 1.57428 0
M  V30 3212 C 321.994 -0.774145 1.87443 0
M  V30 3213 C 322.327 -1.77311 0.792103 0
M  V30 3214 O 321.602 -1.93492 -0.197793 0
M  V30 3215 C 321.885 -1.48367 3.28115 0
M  V30 3216 C 321.738 -0.501227 4.46999 0
M  V30 3217 C 323.057 -2.429 3.66998 0
M  V30 3218 H 320.176 -0.279971 0.681752 0
M  V30 3219 H 322.818 -0.0373616 1.89963 0
M  V30 3220 H 320.968 -2.11171 3.26097 0
M  V30 3221 H 322.64 0.121468 4.6114 0
M  V30 3222 H 320.883 0.183593 4.33411 0
M  V30 3223 H 321.554 -1.03526 5.42205 0
M  V30 3224 H 324.03 -1.90175 3.70098 0
M  V30 3225 H 322.906 -2.89549 4.66318 0
M  V30 3226 H 323.167 -3.27628 2.96837 0
M  V30 3227 N 322.226 -1.5378 -0.344866 0
M  V30 3228 C 323.466 -1.72677 -1.09371 0
M  V30 3229 C 323.83 -0.479084 -1.85927 0
M  V30 3230 O 325.031 -0.54505 -2.63216 0
M  V30 3231 C 323.302 -2.95457 -2.01097 0
M  V30 3232 S 324.861 -3.35158 -2.83222 0
M  V30 3233 H 321.679 -0.607402 -0.369573 0
M  V30 3234 H 324.281 -1.91922 -0.372307 0
M  V30 3235 H 322.985 -3.84437 -1.43655 0
M  V30 3236 H 322.516 -2.78673 -2.77678 0
M  V30 3237 H 324.531 -2.88789 -4.03504 0
M  V30 3238 N 323.704 0.605807 -1.45491 0
M  V30 3239 C 324.636 1.73031 -1.5031 0
M  V30 3240 C 325.649 1.57968 -0.393687 0
M  V30 3241 O 326.838 1.65817 -0.660839 0
M  V30 3242 C 323.938 3.11049 -1.34543 0
M  V30 3243 C 323.111 3.52334 -2.59189 0
M  V30 3244 C 322.17 4.69323 -2.37954 0
M  V30 3245 O 321.196 4.7635 -3.11575 0
M  V30 3246 N 322.398 5.62705 -1.4263 0
M  V30 3247 H 325.163 1.6936 -2.4726 0
M  V30 3248 H 322.724 0.79114 -1.41254 0
M  V30 3249 H 324.716 3.87071 -1.18144 0
M  V30 3250 H 323.286 3.09217 -0.458623 0
M  V30 3251 H 322.506 2.66256 -2.90691 0
M  V30 3252 H 323.794 3.76677 -3.42041 0
M  V30 3253 H 323.192 5.59744 -0.818758 0
M  V30 3254 H 321.749 6.38252 -1.32202 0
M  V30 3255 N 325.182 1.32811 0.848464 0
M  V30 3256 C 326.129 1.22265 1.95755 0
M  V30 3257 C 327.099 0.103413 1.65778 0
M  V30 3258 O 328.284 0.280033 1.88734 0
M  V30 3259 C 325.424 0.958014 3.31536 0
M  V30 3260 C 324.537 2.16262 3.73971 0
M  V30 3261 C 323.672 1.83295 4.98575 0
M  V30 3262 C 322.711 3.00041 5.33518 0
M  V30 3263 N 321.848 2.67125 6.49299 0
M  V30 3264 H 326.688 2.17128 2.04107 0
M  V30 3265 H 324.225 1.07982 0.998913 0
M  V30 3266 H 326.183 0.785052 4.09747 0
M  V30 3267 H 324.813 0.046159 3.22767 0
M  V30 3268 H 323.865 2.44565 2.91362 0
M  V30 3269 H 325.177 3.03572 3.95785 0
M  V30 3270 H 324.331 1.62586 5.84509 0
M  V30 3271 H 323.07 0.932078 4.7871 0
M  V30 3272 H 322.075 3.21374 4.46093 0
M  V30 3273 H 323.3 3.90869 5.55336 0
M  V30 3274 H 321.246 1.79586 6.3094 0
M  V30 3275 H 321.163 3.47965 6.71161 0
M  V30 3276 H 322.431 2.49861 7.3837 0
M  V30 3277 N 326.66 -1.06551 1.16123 0
M  V30 3278 C 327.937 -1.76097 0.85142 0
M  V30 3279 C 328.317 -2.00802 -0.6513 0
M  V30 3280 O 327.665 -1.63302 -1.59827 0
M  V30 3281 C 327.875 -3.06384 1.67122 0
M  V30 3282 C 329.223 -3.80585 1.88255 0
M  V30 3283 O 330.247 -3.16218 1.63966 0
M  V30 3284 O 329.106 -4.96212 2.2899 0
M  V30 3285 H 326.2 -0.765102 0.313923 0
M  V30 3286 H 328.746 -1.12844 1.26745 0
M  V30 3287 H 327.518 -2.84071 2.69108 0
M  V30 3288 H 327.141 -3.77371 1.25206 0
M  V30 3289 N 328.138 -0.959301 -1.25041 0
M  V30 3290 C 329.386 -0.615393 -1.92503 0
M  V30 3291 C 329.707 0.850969 -1.75452 0
M  V30 3292 O 328.977 1.60658 -1.12098 0
M  V30 3293 H 327.557 -0.224613 -0.712431 0
M  V30 3294 H 330.219 -1.21855 -1.5211 0
M  V30 3295 H 329.315 -0.848738 -3.00338 0
M  V30 3296 N 329.616 1.39756 -0.72842 0
M  V30 3297 C 330.579 2.29012 -0.0927297 0
M  V30 3298 C 331.579 1.45992 0.674025 0
M  V30 3299 O 332.769 1.66749 0.50402 0
M  V30 3300 C 329.901 3.29396 0.878137 0
M  V30 3301 H 331.094 2.86729 -0.879011 0
M  V30 3302 H 328.647 1.48293 -0.493847 0
M  V30 3303 H 329.382 2.76722 1.69101 0
M  V30 3304 H 329.167 3.907 0.331051 0
M  V30 3305 H 330.657 3.96199 1.3197 0
M  V30 3306 N 331.094 0.475555 1.50254 0
M  V30 3307 C 332.34 -0.0701075 2.03279 0
M  V30 3308 C 332.695 -1.37007 1.35081 0
M  V30 3309 O 331.988 -1.8577 0.469052 0
M  V30 3310 C 332.182 -0.305114 3.56095 0
M  V30 3311 C 332.011 0.970515 4.39103 0
M  V30 3312 C 330.781 1.51509 4.82051 0
M  V30 3313 C 332.979 1.8671 4.79212 0
M  V30 3314 N 330.961 2.73928 5.49397 0
M  V30 3315 C 332.332 2.93715 5.46014 0
M  V30 3316 C 334.387 1.87695 4.61167 0
M  V30 3317 C 333.09 4.01699 5.96683 0
M  V30 3318 C 335.116 2.94637 5.12779 0
M  V30 3319 C 334.478 4.00361 5.79561 0
M  V30 3320 H 330.577 0.014486 0.781866 0
M  V30 3321 H 333.161 0.644755 1.83714 0
M  V30 3322 H 331.332 -0.989019 3.75597 0
M  V30 3323 H 333.064 -0.845516 3.95769 0
M  V30 3324 H 329.819 1.06367 4.61501 0
M  V30 3325 H 330.243 3.36109 5.87673 0
M  V30 3326 H 334.885 1.07273 4.08965 0
M  V30 3327 H 332.603 4.82934 6.4792 0
M  V30 3328 H 336.189 2.96388 5.00645 0
M  V30 3329 H 335.069 4.81751 6.18778 0
M  V30 3330 N 332.573 -1.56217 0.208337 0
M  V30 3331 C 333.801 -2.02337 -0.43215 0
M  V30 3332 C 334.216 -1.08834 -1.54275 0
M  V30 3333 O 333.573 -0.0955462 -1.8225 0
M  V30 3334 C 333.624 -3.48072 -0.976138 0
M  V30 3335 O 333.345 -4.38007 0.0901621 0
M  V30 3336 C 334.846 -4.09773 -1.69119 0
M  V30 3337 H 332.066 -0.662385 -0.10718 0
M  V30 3338 H 334.61 -2.01966 0.320923 0
M  V30 3339 H 332.765 -3.49099 -1.67954 0
M  V30 3340 H 333.179 -5.23543 -0.316701 0
M  V30 3341 H 334.653 -5.13556 -2.02397 0
M  V30 3342 H 335.13 -3.53999 -2.59964 0
M  V30 3343 H 335.736 -4.12556 -1.03332 0
M  V30 3344 N 334.051 0.0651679 -1.57465 0
M  V30 3345 C 334.981 1.07693 -2.07182 0
M  V30 3346 C 335.962 1.39962 -0.966673 0
M  V30 3347 O 337.147 1.49475 -1.2398 0
M  V30 3348 C 334.277 2.3885 -2.52127 0
M  V30 3349 C 333.231 2.20917 -3.66579 0
M  V30 3350 C 332.557 3.57515 -3.97601 0
M  V30 3351 C 333.857 1.62493 -4.9638 0
M  V30 3352 H 335.551 0.663199 -2.91962 0
M  V30 3353 H 333.097 0.317569 -1.40455 0
M  V30 3354 H 335.05 3.09928 -2.85522 0
M  V30 3355 H 333.774 2.82215 -1.64384 0
M  V30 3356 H 332.433 1.52279 -3.33477 0
M  V30 3357 H 332.081 3.98463 -3.06979 0
M  V30 3358 H 331.781 3.46353 -4.74672 0
M  V30 3359 H 333.305 4.30013 -4.33499 0
M  V30 3360 H 334.719 2.23445 -5.27963 0
M  V30 3361 H 333.116 1.62009 -5.77818 0
M  V30 3362 H 334.186 0.587041 -4.81333 0
M  V30 3363 N 335.529 1.53961 0.336706 0
M  V30 3364 C 336.775 1.7179 1.07777 0
M  V30 3365 C 337.108 0.483263 1.88091 0
M  V30 3366 O 336.383 -0.519747 1.87427 0
M  V30 3367 C 336.666 2.98558 2.01334 0
M  V30 3368 C 336.519 4.32245 1.24437 0
M  V30 3369 C 337.838 3.21023 3.01052 0
M  V30 3370 H 334.957 0.625089 0.390426 0
M  V30 3371 H 337.599 1.86641 0.35567 0
M  V30 3372 H 335.749 2.86028 2.62908 0
M  V30 3373 H 337.421 4.56637 0.654243 0
M  V30 3374 H 335.664 4.30344 0.546458 0
M  V30 3375 H 336.335 5.17137 1.93063 0
M  V30 3376 H 338.811 3.32929 2.49595 0
M  V30 3377 H 337.687 4.11104 3.6371 0
M  V30 3378 H 337.948 2.37637 3.72802 0
M  V30 3379 N 337.007 -0.598083 1.45811 0
M  V30 3380 C 338.255 -1.35413 1.50026 0
M  V30 3381 C 338.576 -1.94444 0.147177 0
M  V30 3382 O 337.846 -1.77701 -0.824571 0
M  V30 3383 H 336.426 -0.502727 0.552517 0
M  V30 3384 H 339.088 -0.701606 1.81834 0
M  V30 3385 H 338.184 -2.16871 2.2444 0
M  V30 3386 N 338.485 -1.33259 -0.841409 0
M  V30 3387 C 339.734 -1.23921 -1.59143 0
M  V30 3388 C 340.047 0.1941 -1.94635 0
M  V30 3389 O 341.253 0.409474 -2.68394 0
M  V30 3390 C 339.709 -2.17119 -2.87032 0
M  V30 3391 C 339.317 -3.65606 -2.58914 0
M  V30 3392 C 341.061 -2.16648 -3.65053 0
M  V30 3393 C 338.968 -4.50726 -3.82884 0
M  V30 3394 H 337.898 -0.460264 -0.597221 0
M  V30 3395 H 340.549 -1.58307 -0.927959 0
M  V30 3396 H 338.931 -1.75663 -3.54906 0
M  V30 3397 H 340.105 -4.15487 -1.99267 0
M  V30 3398 H 338.42 -3.68341 -1.942 0
M  V30 3399 H 341.017 -2.77474 -4.57069 0
M  V30 3400 H 341.36 -1.16088 -3.99787 0
M  V30 3401 H 341.893 -2.56453 -3.041 0
M  V30 3402 H 338.632 -5.52151 -3.53283 0
M  V30 3403 H 338.152 -4.0559 -4.41879 0
M  V30 3404 H 339.831 -4.64401 -4.50489 0
M  V30 3405 N 339.963 1.05934 -1.16686 0
M  V30 3406 C 341.209 1.79065 -0.95203 0
M  V30 3407 C 341.542 1.87147 0.518629 0
M  V30 3408 O 340.817 1.36574 1.38484 0
M  V30 3409 C 341.1 3.23359 -1.58464 0
M  V30 3410 C 340.953 3.23336 -3.12689 0
M  V30 3411 C 342.272 4.21004 -1.28232 0
M  V30 3412 H 339.391 0.65005 -0.34728 0
M  V30 3413 H 342.033 1.23868 -1.44072 0
M  V30 3414 H 340.183 3.70493 -1.16908 0
M  V30 3415 H 341.855 2.84336 -3.6325 0
M  V30 3416 H 340.098 2.61886 -3.4583 0
M  V30 3417 H 340.769 4.25144 -3.52075 0
M  V30 3418 H 343.245 3.8233 -1.64203 0
M  V30 3419 H 342.121 5.20225 -1.75092 0
M  V30 3420 H 342.382 4.41639 -0.201791 0
M  V30 3421 N 341.441 0.965919 1.2453 0
M  V30 3422 C 342.666 0.643971 1.97149 0
M  V30 3423 C 343.091 -0.779487 1.71189 0
M  V30 3424 O 342.449 -1.5288 0.974553 0
M  V30 3425 C 342.497 0.922557 3.48599 0
M  V30 3426 O 341.601 0.00707672 4.12399 0
M  V30 3427 H 340.942 0.243647 0.617683 0
M  V30 3428 H 343.472 1.29558 1.58353 0
M  V30 3429 H 343.482 0.853373 3.98976 0
M  V30 3430 H 342.157 1.95996 3.66822 0
M  V30 3431 H 340.734 0.12943 3.72675 0
M  V30 3432 N 342.919 -1.39368 0.735821 0
M  V30 3433 C 344.165 -2.01272 0.293439 0
M  V30 3434 C 344.52 -1.57344 -1.10728 0
M  V30 3435 O 343.813 -0.792744 -1.74431 0
M  V30 3436 C 344.007 -3.5583 0.334651 0
M  V30 3437 C 343.836 -4.14764 1.73784 0
M  V30 3438 C 342.606 -4.47315 2.35026 0
M  V30 3439 C 344.804 -4.38246 2.69157 0
M  V30 3440 N 342.786 -4.91756 3.6749 0
M  V30 3441 C 344.157 -4.849 3.86357 0
M  V30 3442 C 346.212 -4.20315 2.66908 0
M  V30 3443 C 344.915 -5.15505 5.01645 0
M  V30 3444 C 346.941 -4.52033 3.8134 0
M  V30 3445 C 346.303 -4.98895 4.97276 0
M  V30 3446 H 342.402 -0.766756 0.153652 0
M  V30 3447 H 344.986 -1.69276 0.961967 0
M  V30 3448 H 343.157 -3.87212 -0.303527 0
M  V30 3449 H 344.889 -4.04503 -0.126358 0
M  V30 3450 H 341.644 -4.35143 1.86943 0
M  V30 3451 H 342.068 -5.18333 4.35499 0
M  V30 3452 H 346.71 -3.83287 1.78468 0
M  V30 3453 H 344.428 -5.51437 5.90713 0
M  V30 3454 H 348.014 -4.39781 3.80899 0
M  V30 3455 H 346.894 -5.22973 5.84353 0
M  V30 3456 N 344.397 -0.483516 -1.5 0
M  V30 3457 C 345.645 0.067027 -2.01989 0
M  V30 3458 C 345.966 1.3909 -1.36671 0
M  V30 3459 O 345.236 1.88978 -0.516152 0
M  V30 3460 H 343.816 0.0277606 -0.746484 0
M  V30 3461 H 346.478 -0.636773 -1.84204 0
M  V30 3462 H 345.574 0.209484 -3.11396 0
M  V30 3463 N 345.875 1.56104 -0.216619 0
M  V30 3464 C 347.1 2.0301 0.424462 0
M  V30 3465 C 347.525 1.0955 1.52907 0
M  V30 3466 O 346.883 0.0827914 1.81111 0
M  V30 3467 C 346.931 3.4819 0.937883 0
M  V30 3468 O 346.035 3.57865 2.04955 0
M  V30 3469 H 345.376 0.656925 0.0966755 0
M  V30 3470 H 347.906 2.01859 -0.33381 0
M  V30 3471 H 347.916 3.88413 1.24897 0
M  V30 3472 H 346.591 4.15699 0.129387 0
M  V30 3473 H 345.168 3.29527 1.74546 0
M  V30 3474 N 347.353 -0.0568162 1.57498 0
M  V30 3475 C 348.63 -0.786954 1.79071 0
M  V30 3476 C 349.01 -1.95028 0.80792 0
M  V30 3477 O 348.358 -2.27968 -0.155858 0
M  V30 3478 C 348.568 -1.24594 3.26002 0
M  V30 3479 C 349.916 -1.67323 3.90241 0
M  V30 3480 O 350.94 -1.34124 3.29984 0
M  V30 3481 O 349.799 -2.28842 4.9628 0
M  V30 3482 H 346.893 -0.378262 0.735423 0
M  V30 3483 H 349.439 -0.035734 1.69662 0
M  V30 3484 H 348.211 -0.41423 3.89101 0
M  V30 3485 H 347.834 -2.05803 3.40192 0
M  V30 3486 N 348.832 -1.54138 -0.328536 0
M  V30 3487 C 350.06 -1.76062 -1.08673 0
M  V30 3488 C 350.475 -0.506852 -1.81869 0
M  V30 3489 O 349.832 0.522223 -1.74869 0
M  V30 3490 C 349.883 -2.95054 -2.08866 0
M  V30 3491 O 349.604 -4.15583 -1.38644 0
M  V30 3492 C 351.105 -3.2915 -2.96943 0
M  V30 3493 H 348.325 -0.587889 -0.323461 0
M  V30 3494 H 350.869 -2.0101 -0.376175 0
M  V30 3495 H 349.024 -2.72394 -2.75464 0
M  V30 3496 H 349.438 -4.82481 -2.05699 0
M  V30 3497 H 350.912 -4.15723 -3.63151 0
M  V30 3498 H 351.389 -2.461 -3.63774 0
M  V30 3499 H 351.995 -3.53871 -2.35914 0
M  V30 3500 N 350.31 0.590341 -1.46126 0
M  V30 3501 C 351.55 1.35995 -1.52593 0
M  V30 3502 C 351.914 1.91243 -0.170368 0
M  V30 3503 O 353.115 2.68576 -0.109775 0
M  V30 3504 C 351.386 2.46465 -2.58823 0
M  V30 3505 S 352.945 3.33953 -2.84641 0
M  V30 3506 H 349.763 0.463425 -0.53922 0
M  V30 3507 H 352.365 0.67944 -1.83314 0
M  V30 3508 H 351.069 2.04256 -3.5596 0
M  V30 3509 H 350.6 3.19297 -2.2981 0
M  V30 3510 H 352.615 4.45094 -2.19331 0
M  V30 3511 N 351.788 1.33704 0.83433 0
M  V30 3512 C 353.013 1.28615 1.62705 0
M  V30 3513 C 353.438 -0.139242 1.87584 0
M  V30 3514 O 352.796 -1.09734 1.4432 0
M  V30 3515 C 352.844 2.07139 2.95171 0
M  V30 3516 O 351.948 1.4331 3.86699 0
M  V30 3517 H 351.289 0.44226 0.49528 0
M  V30 3518 H 353.819 1.76335 1.03766 0
M  V30 3519 H 353.829 2.18073 3.44831 0
M  V30 3520 H 352.504 3.10779 2.76386 0
M  V30 3521 H 351.081 1.4105 3.45195 0
M  V30 3522 N 353.266 -1.05314 1.17247 0
M  V30 3523 C 354.494 -1.81971 0.984593 0
M  V30 3524 C 354.909 -1.82929 -0.467166 0
M  V30 3525 O 354.266 -1.25564 -1.32438 0
M  V30 3526 C 354.317 -3.28143 1.51672 0
M  V30 3527 O 354.038 -3.27347 2.91163 0
M  V30 3528 C 355.539 -4.21493 1.37326 0
M  V30 3529 H 352.759 -0.573455 0.348411 0
M  V30 3530 H 355.303 -1.32808 1.55506 0
M  V30 3531 H 353.458 -3.74582 0.988302 0
M  V30 3532 H 353.872 -4.18824 3.15732 0
M  V30 3533 H 355.346 -5.22043 1.79375 0
M  V30 3534 H 355.823 -4.38031 0.320169 0
M  V30 3535 H 356.429 -3.80909 1.89178 0
M  V30 3536 N 354.744 -0.972509 -1.24016 0
M  V30 3537 C 355.969 -0.654417 -1.96805 0
M  V30 3538 C 356.394 0.770398 -1.716 0
M  V30 3539 O 355.752 1.52361 -0.982647 0
M  V30 3540 C 355.8 -0.941031 -3.48105 0
M  V30 3541 O 354.904 -0.0289472 -4.1239 0
M  V30 3542 H 354.245 -0.24692 -0.616382 0
M  V30 3543 H 356.775 -1.30396 -1.57664 0
M  V30 3544 H 356.785 -0.87452 -3.98517 0
M  V30 3545 H 355.46 -1.97939 -3.65777 0
M  V30 3546 H 354.037 -0.149192 -3.72601 0
M  V30 3547 N 356.222 1.38976 -0.743202 0
M  V30 3548 C 357.447 2.05161 -0.303936 0
M  V30 3549 C 357.872 1.55677 1.05576 0
M  V30 3550 O 357.23 0.704131 1.67068 0
M  V30 3551 C 357.278 3.59138 -0.324373 0
M  V30 3552 O 356.382 4.06668 0.685204 0
M  V30 3553 H 355.723 0.649815 -0.136518 0
M  V30 3554 H 358.253 1.77852 -1.01142 0
M  V30 3555 H 358.263 4.07639 -0.171618 0
M  V30 3556 H 356.938 3.94515 -1.31647 0
M  V30 3557 H 355.515 3.69561 0.497913 0
M  V30 3558 N 357.7 0.491464 1.49741 0
M  V30 3559 C 359.111 0.0413169 1.86654 0
M  V30 3560 C 359.462 -1.36985 1.40462 0
M  V30 3561 O 358.587 -2.01917 0.778354 0
M  V30 3562 C 359.182 0.0682023 3.38731 0
M  V30 3563 C 357.741 -0.32656 3.74981 0
M  V30 3564 C 356.888 0.444888 2.73708 0
M  V30 3565 H 359.839 0.704733 1.42194 0
M  V30 3566 H 359.86 -0.729322 3.73445 0
M  V30 3567 H 359.372 1.09539 3.72321 0
M  V30 3568 H 357.473 -1.35734 3.46997 0
M  V30 3569 H 357.586 -0.013741 4.79098 0
M  V30 3570 H 355.95 -0.104062 2.54487 0
M  V30 3571 H 356.733 1.47197 3.10142 0
M  V30 3572 N 359.178 -1.55987 0.224894 0
M  V30 3573 C 360.426 -1.97998 -0.405099 0
M  V30 3574 C 360.747 -1.11387 -1.60056 0
M  V30 3575 O 360.017 -0.191645 -1.9496 0
M  V30 3576 H 358.597 -0.731235 -0.152658 0
M  V30 3577 H 361.259 -1.92279 0.318567 0
M  V30 3578 H 360.355 -3.03463 -0.729167 0
M  V30 3579 N 360.656 0.0484629 -1.57525 0
M  V30 3580 C 361.902 0.744226 -1.88651 0
M  V30 3581 C 362.235 1.76029 -0.820212 0
M  V30 3582 O 361.51 1.93782 0.166985 0
M  V30 3583 C 361.793 1.43128 -3.30434 0
M  V30 3584 C 361.646 0.43005 -4.47739 0
M  V30 3585 C 362.965 2.37031 -3.70816 0
M  V30 3586 H 360.084 0.269089 -0.68612 0
M  V30 3587 H 362.726 0.00713532 -1.89999 0
M  V30 3588 H 360.876 2.05956 -3.29415 0
M  V30 3589 H 362.548 -0.194816 -4.60888 0
M  V30 3590 H 360.791 -0.252522 -4.33064 0
M  V30 3591 H 361.462 0.948874 -5.43783 0
M  V30 3592 H 363.938 1.84263 -3.73077 0
M  V30 3593 H 362.814 2.82094 -4.70865 0
M  V30 3594 H 363.075 3.22864 -3.02012 0
M  V30 3595 N 362.134 1.5431 0.320358 0
M  V30 3596 C 363.364 1.7638 1.07582 0
M  V30 3597 C 363.772 0.513944 1.82086 0
M  V30 3598 O 363.115 -0.525123 1.76035 0
M  V30 3599 C 363.177 2.9055 2.1171 0
M  V30 3600 C 362.841 4.2934 1.56575 0
M  V30 3601 C 363.838 5.10077 1.00586 0
M  V30 3602 C 361.523 4.75893 1.60722 0
M  V30 3603 C 363.517 6.35477 0.494756 0
M  V30 3604 C 361.204 6.0126 1.09224 0
M  V30 3605 C 362.202 6.80886 0.53696 0
M  V30 3606 O 361.89 8.03894 0.0297371 0
M  V30 3607 H 361.622 0.592369 0.325692 0
M  V30 3608 H 364.176 2.02019 0.37116 0
M  V30 3609 H 362.406 2.60489 2.85801 0
M  V30 3610 H 364.095 3.00373 2.73003 0
M  V30 3611 H 364.861 4.75265 0.966869 0
M  V30 3612 H 360.74 4.13957 2.02882 0
M  V30 3613 H 364.284 6.97574 0.0606842 0
M  V30 3614 H 360.181 6.35562 1.12831 0
M  V30 3615 H 360.949 8.18372 0.14486 0
M  V30 3616 N 363.613 -0.582584 1.46437 0
M  V30 3617 C 364.576 -1.67366 1.56592 0
M  V30 3618 C 365.576 -1.54575 0.443072 0
M  V30 3619 O 366.766 -1.59191 0.707381 0
M  V30 3620 C 363.898 -3.06791 1.48634 0
M  V30 3621 H 365.091 -1.5972 2.5383 0
M  V30 3622 H 362.644 -0.800432 1.34249 0
M  V30 3623 H 363.379 -3.19993 0.526763 0
M  V30 3624 H 363.164 -3.17484 2.30101 0
M  V30 3625 H 364.654 -3.86218 1.58826 0
M  V30 3626 N 365.091 -1.34144 -0.827227 0
M  V30 3627 C 366.507 -1.13732 -1.11969 0
M  V30 3628 C 366.707 0.0640463 -2.01398 0
M  V30 3629 O 365.763 0.740856 -2.41387 0
M  V30 3630 C 367.076 -2.43047 -1.77055 0
M  V30 3631 C 368.624 -2.49063 -1.89569 0
M  V30 3632 C 369.099 -3.78369 -2.58072 0
M  V30 3633 N 370.59 -3.79505 -2.65575 0
M  V30 3634 C 371.325 -4.76274 -3.19297 0
M  V30 3635 N 370.821 -5.83424 -3.73616 0
M  V30 3636 N 372.614 -4.63735 -3.17658 0
M  V30 3637 H 364.765 -2.11126 -0.232296 0
M  V30 3638 H 367.028 -0.933424 -0.165602 0
M  V30 3639 H 366.734 -3.31025 -1.18807 0
M  V30 3640 H 366.608 -2.56066 -2.76966 0
M  V30 3641 H 368.995 -1.61527 -2.46968 0
M  V30 3642 H 369.076 -2.39975 -0.885745 0
M  V30 3643 H 368.72 -4.66293 -2.01329 0
M  V30 3644 H 368.65 -3.84737 -3.59562 0
M  V30 3645 H 371.141 -3.02074 -2.27068 0
M  V30 3646 H 371.454 -6.53282 -4.12846 0
M  V30 3647 H 369.799 -5.87143 -3.71871 0
M  V30 3648 H 372.99 -3.79177 -2.74486 0
M  V30 3649 H 373.163 -5.39318 -3.59221 0
M  V30 3650 N 366.569 1.04691 -1.17803 0
M  V30 3651 C 367.815 1.78045 -0.970969 0
M  V30 3652 C 368.148 1.87686 0.498751 0
M  V30 3653 O 367.423 1.38035 1.37027 0
M  V30 3654 C 367.706 3.2166 -1.61884 0
M  V30 3655 C 367.559 3.20001 -3.161 0
M  V30 3656 C 368.878 4.1962 -1.3269 0
M  V30 3657 H 365.997 0.64633 -0.354155 0
M  V30 3658 H 368.639 1.22333 -1.45378 0
M  V30 3659 H 366.789 3.69232 -1.20831 0
M  V30 3660 H 368.461 2.80467 -3.66246 0
M  V30 3661 H 366.704 2.58203 -3.48588 0
M  V30 3662 H 367.375 4.21386 -3.56564 0
M  V30 3663 H 369.851 3.80567 -1.68249 0
M  V30 3664 H 368.727 5.18339 -1.80599 0
M  V30 3665 H 368.988 4.414 -0.248622 0
M  V30 3666 N 368.047 0.979072 1.23499 0
M  V30 3667 C 369.275 0.665202 1.95915 0
M  V30 3668 C 369.69 -0.767571 1.72493 0
M  V30 3669 O 369.047 -1.51635 1.01554 0
M  V30 3670 C 369.098 0.944438 3.48945 0
M  V30 3671 O 368.819 2.3209 3.71572 0
M  V30 3672 C 370.32 0.646336 4.38563 0
M  V30 3673 H 367.54 0.247218 0.623798 0
M  V30 3674 H 370.084 1.31009 1.57025 0
M  V30 3675 H 368.239 0.345575 3.85856 0
M  V30 3676 H 368.653 2.40957 4.65876 0
M  V30 3677 H 370.127 0.892091 5.44744 0
M  V30 3678 H 370.604 -0.419575 4.37191 0
M  V30 3679 H 371.21 1.22562 4.07258 0
M  V30 3680 N 369.525 -1.3858 0.750561 0
M  V30 3681 C 370.472 -2.30483 0.120835 0
M  V30 3682 C 371.442 -1.50022 -0.712923 0
M  V30 3683 O 372.627 -1.78662 -0.669676 0
M  V30 3684 C 369.767 -3.36431 -0.768666 0
M  V30 3685 C 368.88 -4.31927 0.0793922 0
M  V30 3686 C 368.015 -5.24944 -0.81283 0
M  V30 3687 C 367.054 -6.12088 0.0390447 0
M  V30 3688 N 366.191 -6.97412 -0.809969 0
M  V30 3689 H 371.031 -2.83761 0.91015 0
M  V30 3690 H 368.568 -1.39707 0.460463 0
M  V30 3691 H 370.526 -3.96462 -1.29898 0
M  V30 3692 H 369.156 -2.8457 -1.5238 0
M  V30 3693 H 368.208 -3.73382 0.727303 0
M  V30 3694 H 369.52 -4.93319 0.737401 0
M  V30 3695 H 368.674 -5.90078 -1.41042 0
M  V30 3696 H 367.413 -4.63911 -1.50458 0
M  V30 3697 H 366.418 -5.45952 0.649328 0
M  V30 3698 H 367.643 -6.75189 0.727809 0
M  V30 3699 H 365.589 -6.38931 -1.48672 0
M  V30 3700 H 365.506 -7.55712 -0.208789 0
M  V30 3701 H 366.774 -7.66959 -1.39263 0
M  V30 3702 N 371.003 -0.499398 -1.49478 0
M  V30 3703 C 371.933 0.269244 -2.31943 0
M  V30 3704 C 372.914 0.964054 -1.40143 0
M  V30 3705 O 374.099 0.955767 -1.69052 0
M  V30 3706 C 371.229 1.33504 -3.20615 0
M  V30 3707 C 370.183 0.760202 -4.21195 0
M  V30 3708 C 369.509 1.9264 -4.98792 0
M  V30 3709 C 370.809 -0.247661 -5.21712 0
M  V30 3710 H 372.503 -0.419082 -2.96452 0
M  V30 3711 H 370.049 -0.202988 -1.42562 0
M  V30 3712 H 372.002 1.88048 -3.77115 0
M  V30 3713 H 370.726 2.05253 -2.54045 0
M  V30 3714 H 369.385 0.23653 -3.65836 0
M  V30 3715 H 369.033 2.63154 -4.28671 0
M  V30 3716 H 368.733 1.54785 -5.66847 0
M  V30 3717 H 370.257 2.4762 -5.58137 0
M  V30 3718 H 371.671 0.209579 -5.72917 0
M  V30 3719 H 370.068 -0.541962 -5.97648 0
M  V30 3720 H 371.138 -1.16409 -4.7072 0
M  V30 3721 N 372.481 1.55866 -0.233164 0
M  V30 3722 C 373.73 1.97779 0.39579 0
M  V30 3723 C 374.043 1.12419 1.60066 0
M  V30 3724 O 375.249 1.44283 2.29988 0
M  V30 3725 C 373.705 3.5188 0.755556 0
M  V30 3726 C 373.313 4.45959 -0.427152 0
M  V30 3727 C 375.057 4.02479 1.34946 0
M  V30 3728 C 372.964 5.91383 -0.0443043 0
M  V30 3729 H 371.894 0.738592 0.15165 0
M  V30 3730 H 374.545 1.80486 -0.331212 0
M  V30 3731 H 372.927 3.64816 1.5403 0
M  V30 3732 H 374.101 4.44776 -1.20462 0
M  V30 3733 H 372.416 4.05765 -0.935068 0
M  V30 3734 H 375.013 5.08637 1.649 0
M  V30 3735 H 375.356 3.49014 2.26925 0
M  V30 3736 H 375.889 3.92813 0.62791 0
M  V30 3737 H 372.628 6.48857 -0.930874 0
M  V30 3738 H 372.148 5.95734 0.697238 0
M  V30 3739 H 373.827 6.45893 0.378334 0
M  V30 3740 N 373.959 -0.0401083 1.57549 0
M  V30 3741 C 375.37 -0.588097 1.77196 0
M  V30 3742 C 375.721 -1.76209 0.862832 0
M  V30 3743 O 374.846 -2.16331 0.0548389 0
M  V30 3744 C 375.441 -1.07363 3.21339 0
M  V30 3745 C 374 -1.56723 3.42221 0
M  V30 3746 C 373.147 -0.50041 2.72747 0
M  V30 3747 H 376.098 0.186119 1.57605 0
M  V30 3748 H 376.119 -1.94143 3.27244 0
M  V30 3749 H 375.631 -0.218975 3.87482 0
M  V30 3750 H 373.732 -2.4441 2.81237 0
M  V30 3751 H 373.845 -1.62234 4.50796 0
M  V30 3752 H 372.209 -0.952894 2.36203 0
M  V30 3753 H 372.992 0.344599 3.41566 0
M  V30 3754 N 375.437 -1.54477 -0.31217 0
M  V30 3755 C 376.683 -1.74417 -1.04644 0
M  V30 3756 C 377.038 -0.517641 -1.85306 0
M  V30 3757 O 376.331 0.489973 -1.85229 0
M  V30 3758 C 376.525 -2.967 -1.99258 0
M  V30 3759 C 376.354 -4.31128 -1.27901 0
M  V30 3760 C 375.124 -4.95087 -1.01079 0
M  V30 3761 C 377.322 -5.09662 -0.689119 0
M  V30 3762 N 375.304 -6.13322 -0.266323 0
M  V30 3763 C 376.675 -6.19952 -0.0768523 0
M  V30 3764 C 378.73 -4.94355 -0.593061 0
M  V30 3765 C 377.433 -7.16604 0.622165 0
M  V30 3766 C 379.459 -5.91328 0.0922792 0
M  V30 3767 C 378.821 -7.00978 0.693443 0
M  V30 3768 H 374.92 -0.69094 -0.366231 0
M  V30 3769 H 377.504 -1.91946 -0.326319 0
M  V30 3770 H 375.675 -2.80616 -2.68532 0
M  V30 3771 H 377.407 -3.05216 -2.65755 0
M  V30 3772 H 374.162 -4.55235 -1.30607 0
M  V30 3773 H 374.586 -6.76937 0.0920973 0
M  V30 3774 H 379.228 -4.09719 -1.04355 0
M  V30 3775 H 376.946 -8.0079 1.08445 0
M  V30 3776 H 380.532 -5.81562 0.166396 0
M  V30 3777 H 379.412 -7.74725 1.21533 0
M  V30 3778 N 376.915 0.57481 -1.46744 0
M  V30 3779 C 378.161 1.3347 -1.52688 0
M  V30 3780 C 378.494 1.93353 -0.181229 0
M  V30 3781 O 377.769 1.76912 0.808237 0
M  V30 3782 C 378.052 2.45811 -2.63152 0
M  V30 3783 C 377.905 1.90912 -4.07275 0
M  V30 3784 C 379.224 3.47822 -2.69644 0
M  V30 3785 H 376.343 0.483935 -0.555856 0
M  V30 3786 H 378.985 0.644968 -1.78718 0
M  V30 3787 H 377.135 3.04646 -2.41088 0
M  V30 3788 H 378.807 1.36473 -4.4065 0
M  V30 3789 H 377.05 1.21691 -4.16382 0
M  V30 3790 H 377.721 2.72042 -4.80309 0
M  V30 3791 H 380.197 2.9888 -2.895 0
M  V30 3792 H 379.073 4.23876 -3.48742 0
M  V30 3793 H 379.334 4.05555 -1.76005 0
M  V30 3794 N 378.394 1.34581 0.820102 0
M  V30 3795 C 379.326 1.22236 1.93884 0
M  V30 3796 C 380.339 0.148776 1.62119 0
M  V30 3797 O 381.528 0.400877 1.7394 0
M  V30 3798 C 378.628 0.856542 3.27897 0
M  V30 3799 C 377.801 2.02569 3.87666 0
M  V30 3800 C 376.86 1.63782 5.00062 0
M  V30 3801 O 375.886 2.35477 5.18208 0
M  V30 3802 N 377.088 0.553611 5.77854 0
M  V30 3803 H 379.853 2.18615 2.05006 0
M  V30 3804 H 377.414 1.27573 0.99683 0
M  V30 3805 H 379.406 0.578806 4.0054 0
M  V30 3806 H 377.976 -0.0171518 3.12595 0
M  V30 3807 H 377.196 2.468 3.07382 0
M  V30 3808 H 378.484 2.80752 4.24329 0
M  V30 3809 H 377.882 -0.0423528 5.65684 0
M  V30 3810 H 376.439 0.335614 6.50935 0
M  V30 3811 N 379.872 -1.04064 1.18357 0
M  V30 3812 C 380.819 -2.12077 0.910603 0
M  V30 3813 C 381.789 -1.65421 -0.15 0
M  V30 3814 O 382.974 -1.90797 -0.0103614 0
M  V30 3815 C 380.114 -3.42252 0.442472 0
M  V30 3816 C 379.227 -4.0252 1.5685 0
M  V30 3817 C 378.362 -5.20657 1.05309 0
M  V30 3818 C 377.401 -5.72955 2.1538 0
M  V30 3819 N 376.538 -6.8238 1.65233 0
M  V30 3820 H 381.378 -2.34764 1.83548 0
M  V30 3821 H 378.915 -1.15157 0.915279 0
M  V30 3822 H 380.873 -4.16921 0.152534 0
M  V30 3823 H 379.503 -3.19712 -0.445428 0
M  V30 3824 H 378.555 -3.25178 1.97391 0
M  V30 3825 H 379.867 -4.37362 2.39824 0
M  V30 3826 H 379.021 -6.0244 0.717677 0
M  V30 3827 H 377.76 -4.87318 0.19293 0
M  V30 3828 H 376.765 -4.89793 2.49766 0
M  V30 3829 H 377.99 -6.08337 3.01832 0
M  V30 3830 H 375.936 -6.50917 0.815064 0
M  V30 3831 H 375.853 -7.16286 2.41805 0
M  V30 3832 H 377.121 -7.67788 1.34619 0
M  V30 3833 N 381.35 -0.985608 -1.22978 0
M  V30 3834 C 382.599 -0.652881 -1.90841 0
M  V30 3835 C 382.912 0.817842 -1.77681 0
M  V30 3836 O 384.118 1.26185 -2.40395 0
M  V30 3837 C 382.574 -1.11717 -3.42122 0
M  V30 3838 C 382.182 -2.6126 -3.63933 0
M  V30 3839 C 383.926 -0.85843 -4.1573 0
M  V30 3840 C 381.833 -3.0133 -5.08876 0
M  V30 3841 H 380.763 -0.240491 -0.714619 0
M  V30 3842 H 383.414 -1.1942 -1.39324 0
M  V30 3843 H 381.796 -0.504027 -3.92779 0
M  V30 3844 H 382.97 -3.27858 -3.23799 0
M  V30 3845 H 381.285 -2.84937 -3.03644 0
M  V30 3846 H 383.882 -1.13359 -5.22546 0
M  V30 3847 H 384.225 0.205461 -4.15793 0
M  V30 3848 H 384.758 -1.43341 -3.71077 0
M  V30 3849 H 381.497 -4.06864 -5.13947 0
M  V30 3850 H 381.017 -2.3943 -5.49939 0
M  V30 3851 H 382.696 -2.92224 -5.77247 0
M  V30 3852 N 382.828 1.3818 -0.7579 0
M  V30 3853 C 383.758 2.33027 -0.148597 0
M  V30 3854 C 384.739 1.55085 0.69875 0
M  V30 3855 O 385.924 1.83384 0.639053 0
M  V30 3856 C 383.054 3.3928 0.742034 0
M  V30 3857 C 382.008 4.28 -0.00291946 0
M  V30 3858 C 381.334 5.25146 1.00625 0
M  V30 3859 C 382.634 5.08938 -1.17385 0
M  V30 3860 H 384.328 2.84231 -0.940909 0
M  V30 3861 H 381.874 1.36659 -0.453908 0
M  V30 3862 H 383.827 4.046 1.17799 0
M  V30 3863 H 382.551 2.86569 1.56671 0
M  V30 3864 H 381.21 3.64192 -0.419504 0
M  V30 3865 H 380.858 4.68721 1.8251 0
M  V30 3866 H 380.558 5.85361 0.512428 0
M  V30 3867 H 382.082 5.93342 1.44143 0
M  V30 3868 H 383.496 5.67474 -0.815224 0
M  V30 3869 H 381.893 5.7841 -1.59882 0
M  V30 3870 H 382.963 4.42424 -1.98468 0
M  V30 3871 N 384.306 0.507319 1.49211 0
M  V30 3872 C 385.269 -0.256763 2.27757 0
M  V30 3873 C 386.269 -0.888287 1.34038 0
M  V30 3874 O 387.459 -0.751841 1.5714 0
M  V30 3875 C 384.591 -1.36905 3.12202 0
M  V30 3876 H 385.784 0.432557 2.96764 0
M  V30 3877 H 383.337 0.262488 1.5408 0
M  V30 3878 H 384.072 -2.09233 2.47775 0
M  V30 3879 H 383.857 -0.921599 3.81115 0
M  V30 3880 H 385.347 -1.9071 3.7151 0
M  V30 3881 N 385.784 -1.5574 0.241426 0
M  V30 3882 C 386.747 -2.19877 -0.647063 0
M  V30 3883 C 387.747 -1.16642 -1.10686 0
M  V30 3884 O 388.937 -1.41757 -1.01245 0
M  V30 3885 C 386.069 -2.83797 -1.88871 0
M  V30 3886 H 387.262 -2.99772 -0.087574 0
M  V30 3887 H 384.815 -1.56298 -0.00813574 0
M  V30 3888 H 385.55 -2.07824 -2.48957 0
M  V30 3889 H 385.335 -3.59414 -1.56728 0
M  V30 3890 H 386.825 -3.32898 -2.52129 0
M  V30 3891 N 387.262 0.0317525 -1.57568 0
M  V30 3892 C 388.21 1.05165 -2.07468 0
M  V30 3893 C 389.204 1.3761 -0.98792 0
M  V30 3894 O 390.41 1.36546 -1.17282 0
M  V30 3895 H 386.785 0.35666 -0.66204 0
M  V30 3896 H 388.756 0.604958 -2.92203 0
M  V30 3897 C 387.505 2.34488 -2.56731 0
M  V30 3898 H 386.828 2.10383 -3.39969 0
M  V30 3899 H 388.268 3.04203 -2.95358 0
M  V30 3900 C 386.727 3.03266 -1.46736 0
M  V30 3901 O 387.257 3.92988 -0.832069 0
M  V30 3902 N 385.463 2.6455 -1.20256 0
M  V30 3903 H 385.01 1.91674 -1.72102 0
M  V30 3904 H 384.968 3.10886 -0.468737 0
M  V30 3905 O 388.779 1.60553 0.174647 0
M  V30 3906 H 389.47 1.75876 0.811619 0
M  V30 END ATOM
M  V30 BEGIN BOND
M  V30 END BOND
M  V30 END CTAB
M  END
$$$$
