drugbank_target|P17596 Fumarate reductase iron-sulfur subunit (DB07669)
 OpenBabel12092120453D

  0  0  0     0  0            999 V3000
M  V30 BEGIN CTAB
M  V30 COUNTS 3766 3803 0 0 0
M  V30 BEGIN ATOM
M  V30 1 H -0.908 1.98254 -0.117106 0
M  V30 2 N 0 1.576 0 0
M  V30 3 C 0.933 2.03868 1.02534 0
M  V30 4 C 1.911 0.928543 1.3348 0
M  V30 5 O 3.095 1.19667 1.45644 0
M  V30 6 C 0.222 2.43627 2.35294 0
M  V30 7 C -0.732 3.65373 2.2001 0
M  V30 8 S 0.101 5.13292 1.52614 0
M  V30 9 C 1.257 5.56322 2.86805 0
M  V30 10 H 1.49 2.90518 0.631377 0
M  V30 11 H -0.977 1.52953 0.210867 0
M  V30 12 H 0.981 2.67203 3.11629 0
M  V30 13 H -0.358 1.57376 2.7183 0
M  V30 14 H -1.165 3.90944 3.18086 0
M  V30 15 H -1.563 3.418 1.51819 0
M  V30 16 H 0.729 5.58782 3.83104 0
M  V30 17 H 1.672 6.56266 2.65933 0
M  V30 18 H 2.08 4.83886 2.90714 0
M  V30 19 N 1.4781 -0.272755 1.55222 0
M  V30 20 C 2.7261 -1.00234 1.75492 0
M  V30 21 C 3.0471 -1.8681 0.5592 0
M  V30 22 O 2.3171 -1.91215 -0.425882 0
M  V30 23 H 0.8971 -0.373076 0.647166 0
M  V30 24 H 3.5591 -0.296926 1.92625 0
M  V30 25 H 2.6551 -1.63913 2.65592 0
M  V30 26 N 2.9562 -1.48159 -0.537278 0
M  V30 27 C 4.3722 -1.34118 -0.865129 0
M  V30 28 C 4.5722 -0.346678 -1.98495 0
M  V30 29 O 3.6282 0.234715 -2.51407 0
M  V30 30 C 4.9412 -2.73963 -1.23954 0
M  V30 31 C 6.4892 -2.82397 -1.34984 0
M  V30 32 C 6.9642 -4.22928 -1.75772 0
M  V30 33 N 8.4552 -4.25566 -1.82887 0
M  V30 34 C 9.1902 -5.31235 -2.15817 0
M  V30 35 N 8.6862 -6.47189 -2.47222 0
M  V30 36 N 10.4792 -5.18624 -2.16761 0
M  V30 37 H 2.6302 -2.1144 0.201715 0
M  V30 38 H 4.8932 -0.947598 0.0275949 0
M  V30 39 H 4.5992 -3.48264 -0.490381 0
M  V30 40 H 4.4732 -3.0702 -2.19132 0
M  V30 41 H 6.8602 -2.08356 -2.08978 0
M  V30 42 H 6.9412 -2.5297 -0.379448 0
M  V30 43 H 6.5852 -4.97482 -1.02341 0
M  V30 44 H 6.5152 -4.49794 -2.73848 0
M  V30 45 H 9.0062 -3.41924 -1.60924 0
M  V30 46 H 9.3192 -7.23564 -2.71433 0
M  V30 47 H 7.6642 -6.50476 -2.44757 0
M  V30 48 H 10.8552 -4.27056 -1.91679 0
M  V30 49 H 11.0282 -6.01078 -2.42093 0
M  V30 50 N 4.4343 0.785586 -1.36625 0
M  V30 51 C 5.3673 1.90509 -1.25625 0
M  V30 52 C 6.3453 1.62 -0.139607 0
M  V30 53 O 7.5293 1.8591 -0.31141 0
M  V30 54 C 4.6563 3.25419 -0.939158 0
M  V30 55 C 3.7023 3.72856 -2.07077 0
M  V30 56 S 4.5353 3.88162 -3.68904 0
M  V30 57 C 5.6913 5.25942 -3.39317 0
M  V30 58 H 5.9243 1.99549 -2.20381 0
M  V30 59 H 3.4573 0.945226 -1.22085 0
M  V30 60 H 5.4153 4.03346 -0.763029 0
M  V30 61 H 4.0763 3.14099 -0.00931402 0
M  V30 62 H 3.2693 4.70624 -1.80357 0
M  V30 63 H 2.8713 3.01989 -2.20632 0
M  V30 64 H 5.1633 6.10651 -2.93447 0
M  V30 65 H 6.1063 5.57668 -4.36363 0
M  V30 66 H 6.5143 4.93224 -2.74573 0
M  V30 67 N 5.9124 1.20967 1.01018 0
M  V30 68 C 6.8424 0.988272 2.11555 0
M  V30 69 C 7.8234 -0.0849778 1.69888 0
M  V30 70 O 9.0084 0.0738202 1.9406 0
M  V30 71 C 6.1384 0.546528 3.42973 0
M  V30 72 C 5.0924 1.56375 3.9841 0
M  V30 73 C 4.4184 0.97842 5.25672 0
M  V30 74 C 5.7184 2.94922 4.31066 0
M  V30 75 H 7.4124 1.91276 2.30334 0
M  V30 76 H 4.9584 0.921073 1.1069 0
M  V30 77 H 6.9114 0.378839 4.19694 0
M  V30 78 H 5.6354 -0.413598 3.23971 0
M  V30 79 H 4.2944 1.71891 3.23804 0
M  V30 80 H 3.9424 0.0101688 5.02999 0
M  V30 81 H 3.6424 1.65784 5.63728 0
M  V30 82 H 5.1664 0.821939 6.05043 0
M  V30 83 H 6.5804 2.8288 4.9865 0
M  V30 84 H 4.9774 3.5983 4.80253 0
M  V30 85 H 6.0474 3.4616 3.39561 0
M  V30 86 N 7.3905 -1.2043 1.01659 0
M  V30 87 C 8.6185 -1.93777 0.725132 0
M  V30 88 C 9.0335 -1.74772 -0.714166 0
M  V30 89 O 8.3905 -1.06169 -1.4844 0
M  V30 90 C 8.4415 -3.45876 1.05129 0
M  V30 91 O 8.1625 -3.6426 2.43406 0
M  V30 92 C 9.6635 -4.36368 0.780891 0
M  V30 93 H 6.8835 -0.615901 0.266284 0
M  V30 94 H 9.4275 -1.52922 1.35776 0
M  V30 95 H 7.5825 -3.8461 0.464065 0
M  V30 96 H 7.9965 -4.58246 2.55169 0
M  V30 97 H 9.4705 -5.41743 1.05918 0
M  V30 98 H 9.9475 -4.38275 -0.284937 0
M  V30 99 H 10.5535 -4.03296 1.35027 0
M  V30 100 N 8.8686 -0.792821 -1.36206 0
M  V30 101 C 10.1176 -0.363353 -1.984 0
M  V30 102 C 10.4306 1.07172 -1.63626 0
M  V30 103 O 11.6366 1.60362 -2.19081 0
M  V30 104 C 10.0926 -0.59872 -3.54885 0
M  V30 105 C 9.7006 -2.04543 -3.9858 0
M  V30 106 C 11.4446 -0.233926 -4.23855 0
M  V30 107 C 9.3516 -2.22727 -5.47856 0
M  V30 108 H 8.2816 -0.13212 -0.742334 0
M  V30 109 H 10.9326 -0.974935 -1.55458 0
M  V30 110 H 9.3146 0.0826222 -3.95914 0
M  V30 111 H 10.4886 -2.76345 -3.68741 0
M  V30 112 H 8.8036 -2.36879 -3.42458 0
M  V30 113 H 11.4006 -0.348027 -5.33566 0
M  V30 114 H 11.7436 0.818351 -4.08177 0
M  V30 115 H 12.2766 -0.868639 -3.882 0
M  V30 116 H 9.0156 -3.2635 -5.68486 0
M  V30 117 H 8.5356 -1.55434 -5.7931 0
M  V30 118 H 10.2146 -2.03607 -6.14128 0
M  V30 119 N 10.3467 1.47872 -0.545128 0
M  V30 120 C 11.7627 1.5829 -0.204032 0
M  V30 121 C 11.9627 1.54529 1.29317 0
M  V30 122 O 11.0187 1.44232 2.07252 0
M  V30 123 C 12.3317 2.89304 -0.819987 0
M  V30 124 C 13.8797 3.02864 -0.790105 0
M  V30 125 C 14.3547 4.3656 -1.38491 0
M  V30 126 N 15.8457 4.43165 -1.34755 0
M  V30 127 C 16.5807 5.45153 -1.77753 0
M  V30 128 N 16.0767 6.54016 -2.2855 0
M  V30 129 N 17.8697 5.36125 -1.68897 0
M  V30 130 H 10.0207 1.4856 -1.51802 0
M  V30 131 H 12.2837 0.706305 -0.632327 0
M  V30 132 H 11.9897 2.97757 -1.87173 0
M  V30 133 H 11.8637 3.75957 -0.305915 0
M  V30 134 H 14.2507 2.94014 0.252913 0
M  V30 135 H 14.3317 2.17782 -1.34181 0
M  V30 136 H 13.9757 4.46164 -2.42693 0
M  V30 137 H 13.9057 5.20353 -0.808754 0
M  V30 138 H 16.3967 3.65083 -0.975855 0
M  V30 139 H 16.7097 7.27994 -2.59314 0
M  V30 140 H 15.0547 6.54938 -2.32553 0
M  V30 141 H 18.2457 4.49975 -1.28998 0
M  V30 142 H 18.4187 6.15472 -2.02726 0
M  V30 143 N 11.8248 0.280983 1.55075 0
M  V30 144 C 13.0708 -0.33461 2.00021 0
M  V30 145 C 13.4038 -1.55063 1.16915 0
M  V30 146 O 12.6788 -1.93006 0.240646 0
M  V30 147 C 12.9618 -0.711007 3.53011 0
M  V30 148 C 12.8148 0.512766 4.46868 0
M  V30 149 C 14.1338 -1.54522 4.12081 0
M  V30 150 H 11.2528 -0.120147 0.727141 0
M  V30 151 H 13.8948 0.389097 1.85973 0
M  V30 152 H 12.0448 -1.32761 3.65112 0
M  V30 153 H 13.7168 1.15131 4.46702 0
M  V30 154 H 11.9598 1.14975 4.18286 0
M  V30 155 H 12.6308 0.205556 5.51617 0
M  V30 156 H 15.1068 -1.02442 4.03293 0
M  V30 157 H 13.9828 -1.77739 5.19327 0
M  V30 158 H 14.2438 -2.52813 3.62682 0
M  V30 159 N 13.3029 -1.57598 0.00835791 0
M  V30 160 C 14.5499 -1.90928 -0.674732 0
M  V30 161 C 14.8779 -0.88277 -1.73313 0
M  V30 162 O 14.1329 0.111294 -1.95383 0
M  V30 163 C 14.4319 -3.3101 -1.34787 0
M  V30 164 C 14.0979 -4.48922 -0.421861 0
M  V30 165 C 12.7599 -4.8091 -0.166927 0
M  V30 166 C 15.1119 -5.20755 0.215211 0
M  V30 167 C 12.4399 -5.821 0.733232 0
M  V30 168 C 14.7919 -6.22905 1.1033 0
M  V30 169 C 13.4559 -6.53346 1.36733 0
M  V30 170 H 12.7259 -0.698656 -0.246902 0
M  V30 171 H 15.3729 -1.91387 0.0656779 0
M  V30 172 H 13.6779 -3.26714 -2.16253 0
M  V30 173 H 15.3749 -3.54061 -1.8826 0
M  V30 174 H 11.9649 -4.23934 -0.630729 0
M  V30 175 H 16.1489 -4.9629 0.0312829 0
M  V30 176 H 11.4049 -6.04042 0.945712 0
M  V30 177 H 15.5789 -6.77694 1.60325 0
M  V30 178 H 13.2059 -7.31573 2.06652 0
M  V30 179 N 14.781 0.264519 -1.55364 0
M  V30 180 C 15.728 1.32717 -1.88825 0
M  V30 181 C 16.698 1.48675 -0.740605 0
M  V30 182 O 17.883 1.62945 -0.992657 0
M  V30 183 C 15.023 2.68089 -2.17307 0
M  V30 184 C 14.136 2.60284 -3.44785 0
M  V30 185 C 13.271 3.87892 -3.62924 0
M  V30 186 C 12.31 3.74631 -4.84064 0
M  V30 187 N 11.447 4.94092 -4.98816 0
M  V30 188 H 16.287 1.03481 -2.79456 0
M  V30 189 H 13.824 0.499757 -1.3835 0
M  V30 190 H 15.782 3.46864 -2.31821 0
M  V30 191 H 14.412 2.95509 -1.299 0
M  V30 192 H 13.464 1.73173 -3.38697 0
M  V30 193 H 14.776 2.46388 -4.33698 0
M  V30 194 H 13.93 4.75109 -3.77302 0
M  V30 195 H 12.669 4.04664 -2.7221 0
M  V30 196 H 11.674 2.85797 -4.69681 0
M  V30 197 H 12.899 3.5937 -5.76221 0
M  V30 198 H 10.845 5.11259 -4.11036 0
M  V30 199 H 10.762 4.8276 -5.81789 0
M  V30 200 H 12.03 5.82857 -5.17588 0
M  V30 201 N 16.2591 1.48442 0.529413 0
M  V30 202 C 17.4891 1.59919 1.30804 0
M  V30 203 C 17.8971 0.258792 1.87422 0
M  V30 204 O 17.2401 -0.762096 1.67146 0
M  V30 205 C 17.3021 2.58693 2.49636 0
M  V30 206 C 16.9661 4.03745 2.14101 0
M  V30 207 C 17.9631 4.9141 1.6974 0
M  V30 208 C 15.6481 4.49285 2.24607 0
M  V30 209 C 17.6421 6.22645 1.36351 0
M  V30 210 C 15.3291 5.8054 1.9083 0
M  V30 211 C 16.3271 6.67043 1.46773 0
M  V30 212 O 16.0151 7.95856 1.1344 0
M  V30 213 H 15.7471 0.541981 0.404021 0
M  V30 214 H 18.3011 1.95 0.645309 0
M  V30 215 H 16.5311 2.18734 3.18892 0
M  V30 216 H 18.2201 2.59999 3.11698 0
M  V30 217 H 18.9861 4.57465 1.61094 0
M  V30 218 H 14.8651 3.82142 2.57854 0
M  V30 219 H 18.4091 6.90119 1.01891 0
M  V30 220 H 14.3061 6.14022 1.99117 0
M  V30 221 H 15.0741 8.08613 1.26832 0
M  V30 222 N 17.7372 -0.778329 1.37039 0
M  V30 223 C 19.0142 -1.52551 1.22424 0
M  V30 224 C 19.3942 -2.10288 -0.184964 0
M  V30 225 O 18.7422 -1.94953 -1.19187 0
M  V30 226 C 18.9522 -2.61164 2.31504 0
M  V30 227 C 20.3002 -3.28746 2.68721 0
M  V30 228 O 21.3242 -2.71455 2.30631 0
M  V30 229 O 20.1832 -4.3231 3.3432 0
M  V30 230 H 17.2772 -0.675343 0.477326 0
M  V30 231 H 19.8232 -0.815859 1.48801 0
M  V30 232 H 18.5952 -2.16574 3.25901 0
M  V30 233 H 18.2182 -3.39737 2.06554 0
M  V30 234 N 19.2153 -1.21501 -1.00376 0
M  V30 235 C 20.6263 -1.03146 -1.55621 0
M  V30 236 C 20.9773 0.408375 -1.91903 0
M  V30 237 O 20.1023 1.29177 -1.73616 0
M  V30 238 C 20.6973 -1.86612 -2.82775 0
M  V30 239 C 19.2563 -1.72586 -3.34501 0
M  V30 240 C 18.4033 -1.83747 -2.07683 0
M  V30 241 H 21.3543 -1.35505 -0.826081 0
M  V30 242 H 21.3753 -1.3771 -3.54706 0
M  V30 243 H 20.8873 -2.91399 -2.56336 0
M  V30 244 H 18.9883 -0.704877 -3.65872 0
M  V30 245 H 19.1013 -2.54623 -4.05837 0
M  V30 246 H 17.4653 -1.27069 -2.20739 0
M  V30 247 H 18.2483 -2.90044 -1.83655 0
M  V30 248 N 20.6934 1.19889 -1.02296 0
M  V30 249 C 21.6254 2.22334 -0.556787 0
M  V30 250 C 22.6384 1.58674 0.364199 0
M  V30 251 O 23.8274 1.77768 0.161533 0
M  V30 252 C 20.9274 3.38257 0.208694 0
M  V30 253 C 20.1004 4.31504 -0.71577 0
M  V30 254 C 19.1594 5.262 0.00325597 0
M  V30 255 O 18.1854 5.65798 -0.621357 0
M  V30 256 N 19.3874 5.66303 1.27599 0
M  V30 257 H 22.1524 2.62957 -1.43784 0
M  V30 258 H 19.7134 1.34495 -0.901261 0
M  V30 259 H 21.7054 3.98616 0.699111 0
M  V30 260 H 20.2754 2.96472 0.991102 0
M  V30 261 H 19.4954 3.69016 -1.38638 0
M  V30 262 H 20.7834 4.9072 -1.34428 0
M  V30 263 H 20.1814 5.36155 1.80429 0
M  V30 264 H 18.7384 6.28942 1.71102 0
M  V30 265 N 22.1715 0.800033 1.35784 0
M  V30 266 C 23.3965 0.388511 2.03729 0
M  V30 267 C 23.8215 -0.990481 1.5991 0
M  V30 268 O 23.1795 -1.64013 0.772612 0
M  V30 269 C 23.2275 0.4726 3.5749 0
M  V30 270 O 22.3315 -0.51646 4.09153 0
M  V30 271 H 21.6725 0.163271 0.643614 0
M  V30 272 H 24.2025 1.0841 1.73518 0
M  V30 273 H 24.2125 0.34003 4.06581 0
M  V30 274 H 22.8875 1.47848 3.88734 0
M  V30 275 H 21.4645 -0.344673 3.71304 0
M  V30 276 N 23.6496 -1.47581 0.552962 0
M  V30 277 C 24.6126 -2.28439 -0.186605 0
M  V30 278 C 25.6126 -1.36706 -0.84665 0
M  V30 279 O 26.8026 -1.59378 -0.703164 0
M  V30 280 C 23.9346 -3.16264 -1.2724 0
M  V30 281 H 25.1276 -2.95294 0.523609 0
M  V30 282 H 22.6806 -1.532 0.309745 0
M  V30 283 H 23.4156 -2.54091 -2.01514 0
M  V30 284 H 23.2006 -3.83769 -0.803968 0
M  V30 285 H 24.6906 -3.77198 -1.79196 0
M  V30 286 N 25.1277 -0.289203 -1.54924 0
M  V30 287 C 26.3737 0.323998 -2.00195 0
M  V30 288 C 26.7067 1.54441 -1.17735 0
M  V30 289 O 25.9817 1.92875 -0.250878 0
M  V30 290 C 26.2647 0.692276 -3.53383 0
M  V30 291 C 26.1177 -0.536457 -4.46589 0
M  V30 292 C 27.4367 1.52335 -4.12895 0
M  V30 293 H 24.5557 0.116289 -0.727768 0
M  V30 294 H 27.1977 -0.398954 -1.85764 0
M  V30 295 H 25.3477 1.30822 -3.65811 0
M  V30 296 H 27.0197 -1.17499 -4.46085 0
M  V30 297 H 25.2627 -1.17192 -4.1767 0
M  V30 298 H 25.9337 -0.234806 -5.515 0
M  V30 299 H 28.4097 1.00302 -4.0383 0
M  V30 300 H 27.2857 1.74982 -5.20262 0
M  V30 301 H 27.5467 2.50886 -3.64018 0
M  V30 302 N 26.6058 1.57591 -0.0167156 0
M  V30 303 C 27.8308 1.9598 0.67872 0
M  V30 304 C 28.2558 0.892546 1.65575 0
M  V30 305 O 27.6138 -0.147772 1.80697 0
M  V30 306 C 27.6618 3.33468 1.37227 0
M  V30 307 O 26.7658 3.28954 2.48722 0
M  V30 308 H 26.1068 0.639339 0.17928 0
M  V30 309 H 28.6368 2.04463 -0.0748802 0
M  V30 310 H 28.6468 3.69417 1.7319 0
M  V30 311 H 27.3218 4.10694 0.656007 0
M  V30 312 H 25.8988 3.04705 2.14963 0
M  V30 313 N 28.0839 -0.256276 1.55502 0
M  V30 314 C 29.0309 -1.31714 1.89526 0
M  V30 315 C 30.0009 -1.4828 0.748479 0
M  V30 316 O 31.1859 -1.62416 1.00128 0
M  V30 317 C 28.3259 -2.66933 2.18725 0
M  V30 318 C 27.4389 -2.58452 3.4616 0
M  V30 319 C 26.5739 -3.85961 3.64976 0
M  V30 320 C 25.6129 -3.72059 4.86044 0
M  V30 321 N 24.7499 -4.9144 5.01429 0
M  V30 322 H 29.5899 -1.01998 2.80001 0
M  V30 323 H 27.1269 -0.492413 1.38613 0
M  V30 324 H 29.0849 -3.4563 2.33657 0
M  V30 325 H 27.7149 -2.94816 1.31466 0
M  V30 326 H 26.7669 -1.71374 3.3961 0
M  V30 327 H 28.0789 -2.44085 4.34999 0
M  V30 328 H 27.2329 -4.73101 3.79816 0
M  V30 329 H 25.9719 -4.03215 2.74353 0
M  V30 330 H 24.9769 -2.83302 4.7119 0
M  V30 331 H 26.2019 -3.56309 5.78118 0
M  V30 332 H 24.1479 -5.09072 4.13741 0
M  V30 333 H 24.0649 -4.79668 5.84341 0
M  V30 334 H 25.3329 -5.80104 5.20672 0
M  V30 335 N 29.562 -1.4872 -0.521534 0
M  V30 336 C 30.973 -1.50607 -1.10337 0
M  V30 337 C 31.324 -0.280612 -1.94183 0
M  V30 338 O 30.449 0.611507 -2.0758 0
M  V30 339 C 31.044 -2.72903 -2.00772 0
M  V30 340 C 29.603 -2.77634 -2.54158 0
M  V30 341 C 28.75 -2.44241 -1.31307 0
M  V30 342 H 31.701 -1.55714 -0.306388 0
M  V30 343 H 31.722 -2.519 -2.85178 0
M  V30 344 H 31.234 -3.62077 -1.39721 0
M  V30 345 H 29.335 -1.92689 -3.18907 0
M  V30 346 H 29.448 -3.79283 -2.92714 0
M  V30 347 H 27.812 -1.95577 -1.63161 0
M  V30 348 H 28.595 -3.35666 -0.719943 0
M  V30 349 N 31.0401 0.771051 -1.3745 0
M  V30 350 C 31.9901 1.87456 -1.29785 0
M  V30 351 C 32.9741 1.59827 -0.185541 0
M  V30 352 O 34.1661 1.71945 -0.419997 0
M  V30 353 C 31.2951 3.24935 -1.1078 0
M  V30 354 C 30.3811 3.58514 -2.26558 0
M  V30 355 N 30.7721 3.6327 -3.5195 0
M  V30 356 C 29.0701 3.88683 -2.18727 0
M  V30 357 C 29.7711 3.93616 -4.283 0
M  V30 358 N 28.7471 4.09551 -3.57448 0
M  V30 359 H 32.5491 1.89386 -2.24745 0
M  V30 360 H 30.0631 0.967531 -1.30432 0
M  V30 361 H 32.0601 4.03881 -1.03374 0
M  V30 362 H 30.7201 3.24268 -0.16738 0
M  V30 363 H 31.7311 3.45458 -3.85848 0
M  V30 364 H 28.4081 3.95834 -1.32746 0
M  V30 365 H 29.7981 4.04066 -5.36824 0
M  V30 366 N 32.5182 1.22032 0.997298 0
M  V30 367 C 33.7652 1.04222 1.73621 0
M  V30 368 C 34.0932 -0.423264 1.89839 0
M  V30 369 O 33.3482 -1.3302 1.43542 0
M  V30 370 C 33.6472 1.69345 3.14733 0
M  V30 371 C 33.3132 3.19226 3.18442 0
M  V30 372 C 31.9752 3.60124 3.19161 0
M  V30 373 C 34.3272 4.15181 3.15078 0
M  V30 374 C 31.6552 4.95467 3.14212 0
M  V30 375 C 34.0072 5.50495 3.1167 0
M  V30 376 C 32.6712 5.90779 3.10703 0
M  V30 377 H 31.9412 0.381374 0.635323 0
M  V30 378 H 34.5882 1.51732 1.16831 0
M  V30 379 H 32.8932 1.14147 3.74803 0
M  V30 380 H 34.5902 1.53059 3.7064 0
M  V30 381 H 31.1802 2.86659 3.18629 0
M  V30 382 H 35.3642 3.84605 3.13676 0
M  V30 383 H 30.6202 5.25916 3.11805 0
M  V30 384 H 34.7942 6.24576 3.08022 0
M  V30 385 H 32.4212 6.9562 3.06622 0
M  V30 386 N 33.9963 -1.19345 1.0293 0
M  V30 387 C 34.9283 -2.22036 0.56857 0
M  V30 388 C 35.9413 -1.58865 -0.355779 0
M  V30 389 O 37.1303 -1.77851 -0.152103 0
M  V30 390 C 34.2303 -3.38363 -0.190752 0
M  V30 391 C 33.4033 -4.31118 0.738643 0
M  V30 392 C 32.4623 -5.26194 0.0246497 0
M  V30 393 O 31.4883 -5.65461 0.651354 0
M  V30 394 N 32.6903 -5.66971 -1.24594 0
M  V30 395 H 35.4553 -2.6219 1.45177 0
M  V30 396 H 33.0163 -1.34015 0.908381 0
M  V30 397 H 35.0083 -3.98981 -0.677961 0
M  V30 398 H 33.5783 -2.96994 -0.975366 0
M  V30 399 H 32.7983 -3.68276 1.40593 0
M  V30 400 H 34.0863 -4.90001 1.37029 0
M  V30 401 H 33.4843 -5.37104 -1.77583 0
M  V30 402 H 32.0413 -6.2984 -1.67764 0
M  V30 403 N 35.4744 -0.807222 -1.35358 0
M  V30 404 C 36.3844 -0.219594 -2.3357 0
M  V30 405 C 37.4004 0.637734 -1.61892 0
M  V30 406 O 38.5764 0.549336 -1.93763 0
M  V30 407 C 35.6414 0.62158 -3.41083 0
M  V30 408 C 34.7024 -0.256315 -4.28534 0
M  V30 409 C 33.9354 0.544807 -5.30912 0
M  V30 410 O 34.1584 1.77944 -5.41934 0
M  V30 411 O 33.0924 -0.0646478 -6.01865 0
M  V30 412 H 36.9184 -1.03208 -2.85625 0
M  V30 413 H 34.5034 -0.569025 -1.38139 0
M  V30 414 H 36.3854 1.10067 -4.06772 0
M  V30 415 H 35.0604 1.41165 -2.91297 0
M  V30 416 H 33.9674 -0.782559 -3.65823 0
M  V30 417 H 35.3004 -1.01034 -4.81719 0
M  V30 418 N 36.9525 1.47285 -0.560781 0
M  V30 419 C 38.1825 2.06555 -0.0429638 0
M  V30 420 C 38.5905 1.41339 1.25777 0
M  V30 421 O 37.9335 0.505182 1.76617 0
M  V30 422 C 37.9955 3.58827 0.219887 0
M  V30 423 C 37.6595 4.46105 -0.991944 0
M  V30 424 C 38.6565 4.84 -1.89843 0
M  V30 425 C 36.3415 4.87567 -1.20762 0
M  V30 426 C 38.3355 5.6216 -3.00425 0
M  V30 427 C 36.0225 5.65491 -2.31653 0
M  V30 428 C 37.0205 6.02699 -3.21315 0
M  V30 429 O 36.7085 6.79052 -4.30283 0
M  V30 430 H 36.4405 0.674537 -0.0444468 0
M  V30 431 H 38.9945 1.90225 -0.774818 0
M  V30 432 H 37.2245 3.73383 1.00609 0
M  V30 433 H 38.9135 4.00103 0.683522 0
M  V30 434 H 39.6795 4.52564 -1.74387 0
M  V30 435 H 35.5585 4.5807 -0.518893 0
M  V30 436 H 39.1025 5.9112 -3.70436 0
M  V30 437 H 34.9995 5.9634 -2.47081 0
M  V30 438 H 35.7675 6.9745 -4.28376 0
M  V30 439 N 38.4306 0.297415 1.54768 0
M  V30 440 C 39.3776 -0.580276 2.23386 0
M  V30 441 C 40.3476 -1.13238 1.21517 0
M  V30 442 O 41.5326 -1.17757 1.50126 0
M  V30 443 C 38.6726 -1.74801 2.97555 0
M  V30 444 C 37.7856 -1.22764 4.1419 0
M  V30 445 C 36.9206 -2.35895 4.75949 0
M  V30 446 C 35.9596 -1.80974 5.84735 0
M  V30 447 N 35.0966 -2.87664 6.40464 0
M  V30 448 H 39.9366 0.0114833 2.97998 0
M  V30 449 H 37.4736 0.0174361 1.4709 0
M  V30 450 H 39.4316 -2.43475 3.38786 0
M  V30 451 H 38.0616 -2.31145 2.25326 0
M  V30 452 H 37.1136 -0.433271 3.77924 0
M  V30 453 H 38.4256 -0.785551 4.92575 0
M  V30 454 H 37.5796 -3.12523 5.20014 0
M  V30 455 H 36.3186 -2.83429 3.96887 0
M  V30 456 H 35.3236 -1.02834 5.40097 0
M  V30 457 H 36.5486 -1.34348 6.65678 0
M  V30 458 H 34.4946 -3.34538 5.64287 0
M  V30 459 H 34.4116 -2.4794 7.14186 0
M  V30 460 H 35.6796 -3.642 6.89187 0
M  V30 461 N 39.9087 -1.5758 0.0250728 0
M  V30 462 C 41.1577 -1.90811 -0.653767 0
M  V30 463 C 41.4707 -0.90273 -1.73523 0
M  V30 464 O 42.6767 -1.12614 -2.47043 0
M  V30 465 C 41.1327 -3.38804 -1.21409 0
M  V30 466 C 40.7407 -4.47692 -0.166126 0
M  V30 467 C 42.4847 -3.81108 -1.86967 0
M  V30 468 C 40.3917 -5.86779 -0.737856 0
M  V30 469 H 39.3217 -0.712063 -0.247956 0
M  V30 470 H 41.9727 -1.83281 0.0897137 0
M  V30 471 H 40.3547 -3.41252 -2.00905 0
M  V30 472 H 41.5287 -4.56797 0.606079 0
M  V30 473 H 39.8437 -4.14565 0.390466 0
M  V30 474 H 42.4407 -4.82375 -2.30692 0
M  V30 475 H 42.7837 -3.15953 -2.71071 0
M  V30 476 H 43.3167 -3.81065 -1.14167 0
M  V30 477 H 40.0557 -6.55468 0.0649577 0
M  V30 478 H 39.5757 -5.81288 -1.47864 0
M  V30 479 H 41.2547 -6.35223 -1.22884 0
M  V30 480 N 41.3868 0.248026 -1.55636 0
M  V30 481 C 42.2968 1.32859 -1.93354 0
M  V30 482 C 43.3128 1.52719 -0.833838 0
M  V30 483 O 44.4888 1.66363 -1.13513 0
M  V30 484 C 41.5538 2.66337 -2.21958 0
M  V30 485 C 40.6148 2.55008 -3.45354 0
M  V30 486 C 39.8478 3.82121 -3.72584 0
M  V30 487 O 40.0708 4.83951 -3.01907 0
M  V30 488 O 39.0048 3.80822 -4.6611 0
M  V30 489 H 42.8308 1.03862 -2.85388 0
M  V30 490 H 40.4158 0.448686 -1.42503 0
M  V30 491 H 42.2978 3.45216 -2.4167 0
M  V30 492 H 40.9728 2.95068 -1.33103 0
M  V30 493 H 39.8798 1.7442 -3.30951 0
M  V30 494 H 41.2128 2.31222 -4.34508 0
M  V30 495 N 42.8649 1.48995 0.513639 0
M  V30 496 C 43.7749 1.67443 1.64317 0
M  V30 497 C 44.7909 0.556947 1.64846 0
M  V30 498 O 45.9669 0.830082 1.83498 0
M  V30 499 C 43.0319 1.72515 3.00732 0
M  V30 500 C 42.0929 2.96009 3.1093 0
M  V30 501 C 41.3259 3.00829 4.40837 0
M  V30 502 O 41.5489 2.13594 5.28898 0
M  V30 503 O 40.4829 3.93168 4.55744 0
M  V30 504 H 44.3089 2.63106 1.51687 0
M  V30 505 H 41.8939 1.32588 0.688543 0
M  V30 506 H 43.7759 1.78277 3.81831 0
M  V30 507 H 42.4509 0.800278 3.13651 0
M  V30 508 H 41.3579 2.9577 2.29065 0
M  V30 509 H 42.6909 3.87934 3.02933 0
M  V30 510 N 44.343 -0.763751 1.37857 0
M  V30 511 C 45.306 -1.85889 1.34081 0
M  V30 512 C 46.306 -1.58949 0.243277 0
M  V30 513 O 47.496 -1.66882 0.499589 0
M  V30 514 C 44.628 -3.23176 1.08489 0
M  V30 515 H 45.821 -1.90648 2.31502 0
M  V30 516 H 43.374 -0.964367 1.23003 0
M  V30 517 H 44.109 -3.24091 0.116318 0
M  V30 518 H 43.894 -3.44124 1.8794 0
M  V30 519 H 45.384 -4.03254 1.08517 0
M  V30 520 N 45.8211 -1.22559 -0.990812 0
M  V30 521 C 47.2321 -1.04791 -1.54518 0
M  V30 522 C 47.5831 0.387998 -1.92325 0
M  V30 523 O 46.7081 1.27328 -1.74976 0
M  V30 524 C 47.3031 -1.896 -2.80779 0
M  V30 525 C 45.8621 -1.76124 -3.32652 0
M  V30 526 C 45.0091 -1.8594 -2.05722 0
M  V30 527 H 47.9601 -1.36374 -0.811662 0
M  V30 528 H 47.9811 -1.41464 -3.53225 0
M  V30 529 H 47.4931 -2.94101 -2.53231 0
M  V30 530 H 45.5941 -0.743643 -3.65104 0
M  V30 531 H 45.7071 -2.58913 -4.03114 0
M  V30 532 H 44.0711 -1.29403 -2.19379 0
M  V30 533 H 44.8541 -2.91976 -1.80568 0
M  V30 534 N 47.2992 1.18797 -1.03562 0
M  V30 535 C 48.5242 1.9314 -0.755764 0
M  V30 536 C 48.9492 1.7537 0.68022 0
M  V30 537 O 48.3072 1.06046 1.47051 0
M  V30 538 C 48.3552 3.42747 -1.12058 0
M  V30 539 O 47.4592 4.11683 -0.243124 0
M  V30 540 H 46.8002 0.602724 -0.278604 0
M  V30 541 H 49.3302 1.50678 -1.3841 0
M  V30 542 H 49.3402 3.93437 -1.08035 0
M  V30 543 H 48.0152 3.55002 -2.16672 0
M  V30 544 H 46.5922 3.71323 -0.342539 0
M  V30 545 N 48.7773 0.814389 1.34928 0
M  V30 546 C 49.7103 0.175641 2.27523 0
M  V30 547 C 50.6883 -0.662953 1.48471 0
M  V30 548 O 51.8723 -0.628545 1.77712 0
M  V30 549 C 48.9993 -0.755516 3.30166 0
M  V30 550 C 48.0453 0.00445305 4.265 0
M  V30 551 S 48.8783 1.34582 5.18313 0
M  V30 552 C 50.0343 0.419315 6.24494 0
M  V30 553 H 50.2673 0.960691 2.8135 0
M  V30 554 H 47.8003 0.609846 1.41846 0
M  V30 555 H 49.7583 -1.28723 3.89796 0
M  V30 556 H 48.4193 -1.51402 2.75202 0
M  V30 557 H 47.6123 -0.703077 4.99072 0
M  V30 558 H 47.2143 0.466447 3.7108 0
M  V30 559 H 49.5063 -0.392432 6.76362 0
M  V30 560 H 50.4493 1.11446 6.99275 0
M  V30 561 H 50.8573 0.0115389 5.64499 0
M  V30 562 N 50.2554 -1.46986 0.568584 0
M  V30 563 C 51.4834 -2.0683 0.0539956 0
M  V30 564 C 51.8984 -1.41953 -1.24478 0
M  V30 565 O 51.2554 -0.519933 -1.74937 0
M  V30 566 C 51.3064 -3.61254 -0.133362 0
M  V30 567 O 51.0274 -4.237 1.11399 0
M  V30 568 C 52.5284 -4.37992 -0.683927 0
M  V30 569 H 49.7484 -0.669058 0.0510141 0
M  V30 570 H 52.2924 -1.88824 0.785234 0
M  V30 571 H 50.4474 -3.78735 -0.81477 0
M  V30 572 H 50.8614 -5.16388 0.91888 0
M  V30 573 H 52.3354 -5.46684 -0.764263 0
M  V30 574 H 52.8124 -4.05058 -1.69778 0
M  V30 575 H 53.4184 -4.25283 -0.0378494 0
M  V30 576 N 51.7335 -0.305618 -1.54608 0
M  V30 577 C 52.9825 0.303098 -1.9941 0
M  V30 578 C 53.2955 1.54648 -1.19764 0
M  V30 579 O 54.5015 2.23007 -1.54855 0
M  V30 580 C 52.9575 0.590588 -3.55021 0
M  V30 581 C 52.5655 -0.634719 -4.43481 0
M  V30 582 C 54.3095 1.16025 -4.08336 0
M  V30 583 C 52.2165 -0.320126 -5.90533 0
M  V30 584 H 51.1465 0.117031 -0.744862 0
M  V30 585 H 53.7975 -0.415045 -1.78745 0
M  V30 586 H 52.1795 1.36845 -3.71604 0
M  V30 587 H 53.3535 -1.41079 -4.38672 0
M  V30 588 H 51.6685 -1.12333 -4.00962 0
M  V30 589 H 54.2655 1.40994 -5.15776 0
M  V30 590 H 54.6085 2.10397 -3.5922 0
M  V30 591 H 55.1415 0.443985 -3.95315 0
M  V30 592 H 51.8805 -1.23254 -6.43808 0
M  V30 593 H 51.4005 0.418579 -5.98338 0
M  V30 594 H 53.0795 0.0766241 -6.46955 0
M  V30 595 N 53.2116 1.57565 -0.0334293 0
M  V30 596 C 54.4586 1.91978 0.644272 0
M  V30 597 C 54.7866 0.910231 1.71887 0
M  V30 598 O 54.0416 -0.0801961 1.95536 0
M  V30 599 C 54.3406 3.33112 1.29504 0
M  V30 600 C 54.0066 4.49537 0.350388 0
M  V30 601 C 52.6686 4.81115 0.0903974 0
M  V30 602 C 55.0206 5.20347 -0.298032 0
M  V30 603 C 52.3486 5.8086 -0.825746 0
M  V30 604 C 54.7006 6.2107 -1.20226 0
M  V30 605 C 53.3646 6.51088 -1.4711 0
M  V30 606 H 52.6346 0.702496 0.235756 0
M  V30 607 H 55.2816 1.91259 -0.0961176 0
M  V30 608 H 53.5866 3.30113 2.11028 0
M  V30 609 H 55.2836 3.57011 1.82603 0
M  V30 610 H 51.8736 4.24883 0.563205 0
M  V30 611 H 56.0576 4.96178 -0.110234 0
M  V30 612 H 51.3136 6.02461 -1.04169 0
M  V30 613 H 55.4876 6.75057 -1.71086 0
M  V30 614 H 53.1146 7.28193 -2.18264 0
M  V30 615 N 54.6897 -0.239769 1.55765 0
M  V30 616 C 55.9387 -0.964754 1.77131 0
M  V30 617 C 56.2517 -1.86213 0.59868 0
M  V30 618 O 57.4577 -2.6244 0.695522 0
M  V30 619 C 55.9137 -1.76552 3.1362 0
M  V30 620 C 55.5217 -0.915185 4.38553 0
M  V30 621 C 57.2657 -2.48281 3.44321 0
M  V30 622 C 55.1727 -1.71225 5.66071 0
M  V30 623 H 54.1027 -0.363953 0.660344 0
M  V30 624 H 56.7537 -0.219181 1.82186 0
M  V30 625 H 55.1357 -2.55331 3.02691 0
M  V30 626 H 56.3097 -0.169217 4.60489 0
M  V30 627 H 54.6247 -0.310889 4.15238 0
M  V30 628 H 57.2217 -3.08382 4.36812 0
M  V30 629 H 57.5647 -3.20256 2.65973 0
M  V30 630 H 58.0977 -1.76507 3.56497 0
M  V30 631 H 54.8367 -1.03612 6.4726 0
M  V30 632 H 54.3567 -2.43331 5.48224 0
M  V30 633 H 56.0357 -2.27758 6.05587 0
M  V30 634 N 56.1678 -1.49265 -0.50573 0
M  V30 635 C 57.4138 -1.58748 -1.26202 0
M  V30 636 C 57.7468 -0.271227 -1.92297 0
M  V30 637 O 57.0218 0.724831 -1.80489 0
M  V30 638 C 57.3048 -2.74332 -2.33268 0
M  V30 639 C 57.1578 -4.15737 -1.71705 0
M  V30 640 C 58.4768 -2.85576 -3.34865 0
M  V30 641 H 55.5958 -0.577826 -0.457478 0
M  V30 642 H 58.2378 -1.81532 -0.560897 0
M  V30 643 H 56.3878 -2.55036 -2.93068 0
M  V30 644 H 58.0598 -4.46537 -1.15769 0
M  V30 645 H 56.3028 -4.21605 -1.02135 0
M  V30 646 H 56.9738 -4.92477 -2.49341 0
M  V30 647 H 59.4498 -3.03127 -2.8505 0
M  V30 648 H 58.3258 -3.68135 -4.07146 0
M  V30 649 H 58.5868 -1.94732 -3.96903 0
M  V30 650 N 57.6459 0.756429 -1.3826 0
M  V30 651 C 58.5759 1.88374 -1.37976 0
M  V30 652 C 59.5569 1.68311 -0.246082 0
M  V30 653 O 60.7419 1.88944 -0.44874 0
M  V30 654 C 57.8719 3.25864 -1.20125 0
M  V30 655 C 56.8259 3.60523 -2.30666 0
M  V30 656 C 56.1519 4.9672 -1.97923 0
M  V30 657 C 57.4519 3.65692 -3.72916 0
M  V30 658 H 59.1459 1.88869 -2.32312 0
M  V30 659 H 56.6919 0.907272 -1.11824 0
M  V30 660 H 58.6449 4.0438 -1.18552 0
M  V30 661 H 57.3689 3.25841 -0.222498 0
M  V30 662 H 56.0279 2.84324 -2.3142 0
M  V30 663 H 55.6759 4.93253 -0.985393 0
M  V30 664 H 55.3759 5.20878 -2.71955 0
M  V30 665 H 56.8999 5.77618 -1.97964 0
M  V30 666 H 58.3139 4.34328 -3.74208 0
M  V30 667 H 56.7109 4.01358 -4.4613 0
M  V30 668 H 57.7809 2.65987 -4.05436 0
M  V30 669 N 59.124 1.23083 0.984299 0
M  V30 670 C 60.072 1.00593 2.09723 0
M  V30 671 C 61.066 -0.0538014 1.69315 0
M  V30 672 O 62.272 0.0993719 1.79725 0
M  V30 673 H 58.647 0.30817 0.685956 0
M  V30 674 H 60.618 1.95012 2.2586 0
M  V30 675 C 59.367 0.609601 3.42314 0
M  V30 676 H 58.69 1.41675 3.73856 0
M  V30 677 H 60.13 0.491726 4.21139 0
M  V30 678 C 58.589 -0.681745 3.2993 0
M  V30 679 O 59.119 -1.73192 3.62446 0
M  V30 680 N 57.325 -0.656178 2.83095 0
M  V30 681 H 56.872 0.198759 2.56832 0
M  V30 682 H 56.83 -1.52044 2.75191 0
M  V30 683 N 60.6021 -1.18246 1.0419 0
M  V30 684 C 61.5351 -2.20746 0.578474 0
M  V30 685 C 62.5131 -1.57912 -0.387624 0
M  V30 686 O 63.6971 -1.86071 -0.301634 0
M  V30 687 C 60.8241 -3.38346 -0.154762 0
M  V30 688 C 59.8701 -4.19587 0.764782 0
M  V30 689 S 60.7031 -4.86014 2.24835 0
M  V30 690 C 61.8591 -6.07012 1.526 0
M  V30 691 H 62.0921 -2.59715 1.44691 0
M  V30 692 H 59.6251 -1.287 0.85297 0
M  V30 693 H 61.5831 -4.065 -0.571641 0
M  V30 694 H 60.2441 -2.97786 -0.999105 0
M  V30 695 H 59.4371 -5.03611 0.197976 0
M  V30 696 H 59.0391 -3.56818 1.12057 0
M  V30 697 H 61.3311 -6.72523 0.819733 0
M  V30 698 H 62.2741 -6.68202 2.34333 0
M  V30 699 H 62.6821 -5.55249 1.01779 0
M  V30 700 N 62.0802 -0.821533 -1.34494 0
M  V30 701 C 63.3292 -0.405355 -1.97585 0
M  V30 702 C 63.6422 1.03677 -1.65863 0
M  V30 703 O 64.8482 1.55679 -2.22433 0
M  V30 704 C 63.3042 -0.673861 -3.53535 0
M  V30 705 C 62.9122 -2.12951 -3.94152 0
M  V30 706 C 64.6562 -0.32378 -4.23263 0
M  V30 707 C 62.5632 -2.34298 -5.43009 0
M  V30 708 H 61.4932 -0.147836 -0.739365 0
M  V30 709 H 64.1442 -1.00769 -1.53355 0
M  V30 710 H 62.5262 -0.00137554 -3.96 0
M  V30 711 H 63.7002 -2.84104 -3.62797 0
M  V30 712 H 62.0152 -2.44089 -3.37356 0
M  V30 713 H 64.6122 -0.461126 -5.32708 0
M  V30 714 H 64.9552 0.731586 -4.09821 0
M  V30 715 H 65.4882 -0.950786 -3.8627 0
M  V30 716 H 62.2272 -3.38335 -5.61435 0
M  V30 717 H 61.7472 -1.67687 -5.75883 0
M  V30 718 H 63.4262 -2.16588 -6.09671 0
M  V30 719 N 63.5583 1.46682 -0.576371 0
M  V30 720 C 64.9743 1.57822 -0.237562 0
M  V30 721 C 65.1743 1.57237 1.26011 0
M  V30 722 O 64.2303 1.48596 2.04146 0
M  V30 723 C 65.5433 2.87499 -0.881168 0
M  V30 724 C 67.0913 3.01119 -0.85417 0
M  V30 725 C 67.5663 4.33524 -1.4772 0
M  V30 726 N 69.0573 4.40207 -1.44125 0
M  V30 727 C 69.7923 5.4126 -1.89276 0
M  V30 728 N 69.2883 6.49021 -2.42371 0
M  V30 729 N 71.0813 5.32422 -1.80231 0
M  V30 730 H 63.2323 1.45306 -1.54919 0
M  V30 731 H 65.4953 0.692733 -0.647167 0
M  V30 732 H 65.2013 2.9372 -1.93447 0
M  V30 733 H 65.0753 3.75224 -0.385592 0
M  V30 734 H 67.4623 2.94485 0.190491 0
M  V30 735 H 67.5433 2.14887 -1.3877 0
M  V30 736 H 67.1873 4.40916 -2.52103 0
M  V30 737 H 67.1173 5.1852 -0.918947 0
M  V30 738 H 69.6083 3.62931 -1.05307 0
M  V30 739 H 69.9213 7.2233 -2.74698 0
M  V30 740 H 68.2663 6.49858 -2.46393 0
M  V30 741 H 71.4573 4.47137 -1.38514 0
M  V30 742 H 71.6303 6.11034 -2.15735 0
M  V30 743 N 65.0364 0.313813 1.54444 0
M  V30 744 C 65.9464 -0.565714 2.27677 0
M  V30 745 C 66.9624 -1.13754 1.31666 0
M  V30 746 O 68.1384 -1.15959 1.64668 0
M  V30 747 C 65.2034 -1.71528 3.01296 0
M  V30 748 C 64.2644 -1.17624 4.12872 0
M  V30 749 C 63.4974 -2.27102 4.8297 0
M  V30 750 O 63.7204 -3.47256 4.52514 0
M  V30 751 O 62.6544 -1.9307 5.70094 0
M  V30 752 H 66.4804 0.0287296 3.03686 0
M  V30 753 H 64.0654 0.0798312 1.49187 0
M  V30 754 H 65.9474 -2.38476 3.4743 0
M  V30 755 H 64.6224 -2.29608 2.2817 0
M  V30 756 H 63.5294 -0.472124 3.71109 0
M  V30 757 H 64.8624 -0.640695 4.88012 0
M  V30 758 N 66.5145 -1.57545 0.0417849 0
M  V30 759 C 67.7425 -1.96624 -0.643928 0
M  V30 760 C 68.1575 -0.918897 -1.64929 0
M  V30 761 O 67.5145 0.0979323 -1.82237 0
M  V30 762 C 67.5655 -3.35781 -1.33914 0
M  V30 763 O 67.2865 -4.365 -0.374048 0
M  V30 764 C 68.7875 -3.89566 -2.1155 0
M  V30 765 H 66.0075 -0.647316 -0.176702 0
M  V30 766 H 68.5515 -2.04229 0.105304 0
M  V30 767 H 66.7065 -3.29357 -2.03968 0
M  V30 768 H 67.1205 -5.17248 -0.869179 0
M  V30 769 H 68.5945 -4.89242 -2.55628 0
M  V30 770 H 69.0715 -3.24488 -2.9598 0
M  V30 771 H 69.6775 -3.99298 -1.46427 0
M  V30 772 N 67.9926 0.231505 -1.5589 0
M  V30 773 C 69.2226 0.973092 -1.82248 0
M  V30 774 C 69.6306 1.78845 -0.617328 0
M  V30 775 O 68.9736 1.78752 0.423499 0
M  V30 776 C 69.0356 1.94732 -3.02192 0
M  V30 777 C 68.6996 1.31743 -4.37599 0
M  V30 778 C 69.6966 0.712238 -5.14998 0
M  V30 779 C 67.3816 1.33218 -4.84312 0
M  V30 780 C 69.3756 0.130195 -6.37267 0
M  V30 781 C 67.0626 0.746286 -6.06526 0
M  V30 782 C 68.0606 0.146337 -6.82843 0
M  V30 783 O 67.7486 -0.430465 -8.02747 0
M  V30 784 H 67.4806 0.29125 -0.61004 0
M  V30 785 H 70.0346 0.254915 -2.03812 0
M  V30 786 H 68.2646 2.70422 -2.76422 0
M  V30 787 H 69.9536 2.55362 -3.15508 0
M  V30 788 H 70.7196 0.69324 -4.8002 0
M  V30 789 H 66.5986 1.78854 -4.24891 0
M  V30 790 H 70.1426 -0.33871 -6.96777 0
M  V30 791 H 66.0396 0.762663 -6.40979 0
M  V30 792 H 66.8076 -0.323818 -8.17859 0
M  V30 793 N 69.4707 1.49531 0.497807 0
M  V30 794 C 70.7477 1.49682 1.25915 0
M  V30 795 C 71.1277 0.226339 2.09883 0
M  V30 796 O 70.4757 -0.791189 2.14365 0
M  V30 797 C 70.6857 2.77755 2.11313 0
M  V30 798 C 72.0337 3.27371 2.70395 0
M  V30 799 O 73.0577 2.78894 2.21578 0
M  V30 800 O 71.9167 4.11808 3.59272 0
M  V30 801 H 69.0107 0.599228 0.56996 0
M  V30 802 H 71.5567 1.61798 0.511816 0
M  V30 803 H 70.3287 3.61713 1.49264 0
M  V30 804 H 69.9517 2.68515 2.93233 0
M  V30 805 N 70.9488 -0.749086 1.3866 0
M  V30 806 C 72.3598 -1.32664 1.31366 0
M  V30 807 C 72.7108 -1.96179 -0.028484 0
M  V30 808 O 71.8358 -1.9537 -0.93057 0
M  V30 809 C 72.4308 -2.41219 2.37905 0
M  V30 810 C 70.9898 -2.94684 2.34176 0
M  V30 811 C 70.1368 -1.68108 2.20533 0
M  V30 812 H 73.0878 -0.547628 1.48952 0
M  V30 813 H 73.1088 -3.21268 2.0388 0
M  V30 814 H 72.6208 -1.94962 3.35576 0
M  V30 815 H 70.7218 -3.45258 1.401 0
M  V30 816 H 70.8348 -3.48757 3.2849 0
M  V30 817 H 69.1988 -1.91907 1.67463 0
M  V30 818 H 69.9818 -1.23923 3.20153 0
M  V30 819 N 72.4269 -1.23603 -0.977757 0
M  V30 820 C 73.7039 -0.977897 -1.69401 0
M  V30 821 C 74.0839 0.502738 -2.05026 0
M  V30 822 O 73.4319 1.47459 -1.74551 0
M  V30 823 C 73.6419 -1.89077 -2.93345 0
M  V30 824 C 74.9899 -2.15579 -3.65802 0
M  V30 825 O 76.0139 -1.86648 -3.03383 0
M  V30 826 O 74.8729 -2.64658 -4.78141 0
M  V30 827 H 71.9669 -0.369025 -0.740101 0
M  V30 828 H 74.5129 -1.34657 -1.03274 0
M  V30 829 H 73.2849 -2.89158 -2.63634 0
M  V30 830 H 72.9079 -1.52463 -3.67207 0
M  V30 831 N 73.905 1.17692 -1.04816 0
M  V30 832 C 74.835 2.23777 -0.666791 0
M  V30 833 C 75.816 1.66796 0.33361 0
M  V30 834 O 77.001 1.93039 0.212042 0
M  V30 835 C 74.131 3.47281 -0.0367933 0
M  V30 836 C 73.085 4.17059 -0.961546 0
M  V30 837 C 72.411 5.34342 -0.195626 0
M  V30 838 C 73.711 4.69713 -2.28402 0
M  V30 839 H 75.405 2.55933 -1.55367 0
M  V30 840 H 72.951 1.23019 -0.748484 0
M  V30 841 H 74.904 4.20706 0.241775 0
M  V30 842 H 73.628 3.14381 0.885004 0
M  V30 843 H 72.287 3.45541 -1.22462 0
M  V30 844 H 71.935 4.97692 0.728816 0
M  V30 845 H 71.635 5.81966 -0.811775 0
M  V30 846 H 73.159 6.10553 0.0757473 0
M  V30 847 H 74.573 5.34794 -2.06563 0
M  V30 848 H 72.97 5.279 -2.8538 0
M  V30 849 H 74.04 3.86726 -2.92525 0
M  V30 850 N 75.3831 0.828654 1.34056 0
M  V30 851 C 76.3311 0.242973 2.31327 0
M  V30 852 C 77.3251 -0.61944 1.57668 0
M  V30 853 O 78.5311 -0.51014 1.7262 0
M  V30 854 H 74.9061 0.059834 0.749616 0
M  V30 855 H 76.8771 1.07809 2.78244 0
M  V30 856 C 75.6261 -0.575733 3.429 0
M  V30 857 H 74.9491 0.0785582 3.99723 0
M  V30 858 H 76.3891 -0.951547 4.13185 0
M  V30 859 C 74.8481 -1.75044 2.87856 0
M  V30 860 O 75.3781 -2.84882 2.83205 0
M  V30 861 N 73.5841 -1.56903 2.44602 0
M  V30 862 H 73.1311 -0.675547 2.48584 0
M  V30 863 H 73.0891 -2.35652 2.08124 0
M  V30 864 N 76.8612 -1.46375 0.584142 0
M  V30 865 C 78.1082 -2.02378 0.0702675 0
M  V30 866 C 78.4362 -1.45545 -1.29023 0
M  V30 867 O 77.6912 -0.610967 -1.85918 0
M  V30 868 C 77.9902 -3.57373 -0.0439342 0
M  V30 869 C 77.6562 -4.33252 1.24915 0
M  V30 870 C 76.3182 -4.53701 1.60341 0
M  V30 871 C 78.6702 -4.7681 2.1048 0
M  V30 872 C 75.9982 -5.1496 2.81128 0
M  V30 873 C 78.3502 -5.39404 3.30494 0
M  V30 874 C 77.0142 -5.5808 3.66201 0
M  V30 875 H 76.2842 -0.740554 0.0257127 0
M  V30 876 H 78.9312 -1.75727 0.761065 0
M  V30 877 H 77.2362 -3.83169 -0.817869 0
M  V30 878 H 78.9332 -3.98384 -0.457318 0
M  V30 879 H 75.5232 -4.17633 0.963364 0
M  V30 880 H 79.7072 -4.60766 1.84414 0
M  V30 881 H 74.9632 -5.27611 3.08928 0
M  V30 882 H 79.1372 -5.72114 3.97063 0
M  V30 883 H 76.7642 -6.05318 4.59885 0
M  V30 884 N 78.3393 -0.321999 -1.54275 0
M  V30 885 C 79.6163 0.335232 -1.92706 0
M  V30 886 C 79.9963 1.70006 -1.25145 0
M  V30 887 O 79.3443 2.25067 -0.394596 0
M  V30 888 C 79.5543 0.429008 -3.46353 0
M  V30 889 C 80.9023 0.690029 -4.18956 0
M  V30 890 O 81.9263 0.511992 -3.52501 0
M  V30 891 O 80.7853 1.03338 -5.36641 0
M  V30 892 H 77.8793 0.191143 -0.804608 0
M  V30 893 H 80.4253 -0.3716 -1.65581 0
M  V30 894 H 79.1973 -0.529611 -3.87699 0
M  V30 895 H 78.8203 1.18348 -3.79578 0
M  V30 896 N 79.8174 1.5752 -0.0501392 0
M  V30 897 C 81.0644 1.9265 0.623874 0
M  V30 898 C 81.3924 0.928411 1.70912 0
M  V30 899 O 80.6474 -0.0594525 1.9561 0
M  V30 900 C 80.9464 3.34467 1.25963 0
M  V30 901 C 80.6124 4.49883 0.302689 0
M  V30 902 C 79.2744 4.81184 0.0393636 0
M  V30 903 C 81.6264 5.20002 -0.353205 0
M  V30 904 C 78.9544 5.79951 -0.887308 0
M  V30 905 C 81.3064 6.1976 -1.26806 0
M  V30 906 C 79.9704 6.49491 -1.54007 0
M  V30 907 H 79.2404 0.704957 0.228292 0
M  V30 908 H 81.8874 1.91146 -0.116398 0
M  V30 909 H 80.1924 3.32333 2.07514 0
M  V30 910 H 81.8894 3.58928 1.78806 0
M  V30 911 H 78.4794 4.25457 0.518109 0
M  V30 912 H 82.6634 4.96033 -0.162854 0
M  V30 913 H 77.9194 6.01322 -1.10553 0
M  V30 914 H 82.0934 6.73205 -1.78236 0
M  V30 915 H 79.7204 7.25837 -2.25976 0
M  V30 916 N 81.2955 -0.223234 1.56011 0
M  V30 917 C 82.5415 -0.949279 1.79211 0
M  V30 918 C 82.8745 -1.84054 0.619494 0
M  V30 919 O 82.1495 -1.90726 -0.381317 0
M  V30 920 C 82.4325 -1.78965 3.12479 0
M  V30 921 C 82.2855 -0.924997 4.40186 0
M  V30 922 C 83.6045 -2.76774 3.42175 0
M  V30 923 H 80.7235 -0.343676 0.651963 0
M  V30 924 H 83.3655 -0.218253 1.88742 0
M  V30 925 H 81.5155 -2.41291 3.04485 0
M  V30 926 H 83.1875 -0.318615 4.60198 0
M  V30 927 H 81.4305 -0.230344 4.33188 0
M  V30 928 H 82.1015 -1.54735 5.29869 0
M  V30 929 H 84.5775 -2.24584 3.50287 0
M  V30 930 H 83.4535 -3.32678 4.36597 0
M  V30 931 H 83.7145 -3.54429 2.64258 0
M  V30 932 N 82.7736 -1.49793 -0.48987 0
M  V30 933 C 84.0136 -1.61466 -1.25332 0
M  V30 934 C 84.3776 -0.299688 -1.89647 0
M  V30 935 O 85.5786 -0.291687 -2.67213 0
M  V30 936 C 83.8496 -2.74944 -2.28343 0
M  V30 937 S 85.4086 -3.06637 -3.13878 0
M  V30 938 H 82.2266 -0.569411 -0.425784 0
M  V30 939 H 84.8286 -1.875 -0.553541 0
M  V30 940 H 83.5326 -3.68994 -1.79643 0
M  V30 941 H 83.0636 -2.50938 -3.02975 0
M  V30 942 H 85.0786 -2.49015 -4.29192 0
M  V30 943 N 84.2517 0.741722 -1.39055 0
M  V30 944 C 85.6677 1.04638 -1.20512 0
M  V30 945 C 85.8677 2.01405 -0.0620218 0
M  V30 946 O 84.9237 2.45547 0.588457 0
M  V30 947 C 86.2367 1.6151 -2.53643 0
M  V30 948 C 87.7847 1.73623 -2.6043 0
M  V30 949 C 88.2597 2.33906 -3.93767 0
M  V30 950 N 89.7507 2.41323 -3.9537 0
M  V30 951 C 90.4857 2.88888 -4.95309 0
M  V30 952 N 89.9817 3.36401 -6.05645 0
M  V30 953 N 91.7747 2.88037 -4.82692 0
M  V30 954 H 83.9257 0.0998155 -2.12165 0
M  V30 955 H 86.1887 0.106907 -0.941953 0
M  V30 956 H 85.8947 0.978739 -3.37807 0
M  V30 957 H 85.7687 2.60411 -2.72885 0
M  V30 958 H 88.1557 2.36384 -1.76655 0
M  V30 959 H 88.2367 0.733945 -2.45045 0
M  V30 960 H 87.8807 1.71776 -4.7797 0
M  V30 961 H 87.8107 3.34799 -4.06469 0
M  V30 962 H 90.3017 2.07734 -3.15682 0
M  V30 963 H 90.6147 3.71186 -6.77821 0
M  V30 964 H 88.9597 3.34427 -6.09248 0
M  V30 965 H 92.1507 2.50237 -3.95599 0
M  V30 966 H 92.3237 3.24792 -5.60726 0
M  V30 967 N 85.7298 1.2412 0.971189 0
M  V30 968 C 86.6928 1.03156 2.04674 0
M  V30 969 C 87.6928 -0.00990322 1.60797 0
M  V30 970 O 88.8828 0.230729 1.72665 0
M  V30 971 C 86.0148 0.562765 3.36223 0
M  V30 972 H 87.2078 1.98614 2.24705 0
M  V30 973 H 84.7608 1.06293 1.14593 0
M  V30 974 H 85.4958 -0.395176 3.21883 0
M  V30 975 H 85.2808 1.31441 3.69413 0
M  V30 976 H 86.7708 0.437015 4.15307 0
M  V30 977 N 87.2079 -1.17134 1.05439 0
M  V30 978 C 88.4559 -1.87085 0.764429 0
M  V30 979 C 88.7769 -1.81584 -0.710787 0
M  V30 980 O 88.0469 -1.24349 -1.51374 0
M  V30 981 H 86.6269 -0.692627 0.279779 0
M  V30 982 H 89.2889 -1.42087 1.33406 0
M  V30 983 H 88.3849 -2.92759 1.0816 0
M  V30 984 N 88.686 -0.835752 -1.33615 0
M  V30 985 C 89.935 -0.426289 -1.97144 0
M  V30 986 C 90.248 1.01912 -1.66953 0
M  V30 987 O 91.454 1.53311 -2.24072 0
M  V30 988 C 89.91 -0.711321 -3.52801 0
M  V30 989 C 89.518 -2.1712 -3.91871 0
M  V30 990 C 91.262 -0.368654 -4.22896 0
M  V30 991 C 89.169 -2.40044 -5.40493 0
M  V30 992 H 88.099 -0.15567 -0.737755 0
M  V30 993 H 90.75 -1.0239 -1.52278 0
M  V30 994 H 89.132 -0.0433766 -3.95976 0
M  V30 995 H 90.306 -2.87936 -3.59763 0
M  V30 996 H 88.621 -2.47654 -3.34749 0
M  V30 997 H 91.218 -0.517601 -5.32189 0
M  V30 998 H 91.561 0.688078 -4.10574 0
M  V30 999 H 92.094 -0.991702 -3.8524 0
M  V30 1000 H 88.833 -3.44271 -5.57815 0
M  V30 1001 H 88.353 -1.73785 -5.74072 0
M  V30 1002 H 90.032 -2.23042 -6.0734 0
M  V30 1003 N 90.1641 1.46063 -0.591896 0
M  V30 1004 C 91.4041 2.04228 -0.0838014 0
M  V30 1005 C 91.7681 1.45231 1.25587 0
M  V30 1006 O 92.9691 1.94653 1.85375 0
M  V30 1007 C 91.2401 3.57389 -0.0286282 0
M  V30 1008 S 92.7991 4.3678 0.420557 0
M  V30 1009 H 89.6171 0.709762 -0.0419319 0
M  V30 1010 H 92.2191 1.78983 -0.786465 0
M  V30 1011 H 90.9231 3.97843 -1.00743 0
M  V30 1012 H 90.4541 3.87185 0.69652 0
M  V30 1013 H 92.4691 4.67131 1.67341 0
M  V30 1014 N 91.6422 0.330177 1.54103 0
M  V30 1015 C 92.8902 -0.269871 2.0029 0
M  V30 1016 C 93.2112 -1.52133 1.21986 0
M  V30 1017 O 92.4812 -1.93212 0.323438 0
M  V30 1018 H 91.0612 -0.10271 0.739905 0
M  V30 1019 H 93.7232 0.448249 1.89675 0
M  V30 1020 H 92.8192 -0.52166 3.07709 0
M  V30 1021 N 93.1203 -1.57491 0.0584922 0
M  V30 1022 C 94.3453 -1.97711 -0.62652 0
M  V30 1023 C 94.7703 -0.936132 -1.63151 0
M  V30 1024 O 94.1283 0.099811 -1.81025 0
M  V30 1025 C 94.1763 -3.36989 -1.28338 0
M  V30 1026 O 93.2803 -3.35433 -2.39913 0
M  V30 1027 H 92.6213 -0.643868 -0.162266 0
M  V30 1028 H 95.1513 -2.04193 0.129064 0
M  V30 1029 H 95.1613 -3.73879 -1.63335 0
M  V30 1030 H 93.8363 -4.12289 -0.546889 0
M  V30 1031 H 92.4133 -3.10298 -2.06809 0
M  V30 1032 N 94.5984 0.214957 -1.56127 0
M  V30 1033 C 95.8384 0.945364 -1.81224 0
M  V30 1034 C 96.2024 1.81265 -0.633005 0
M  V30 1035 O 97.4034 2.57731 -0.763423 0
M  V30 1036 C 95.6744 1.75665 -3.1125 0
M  V30 1037 S 97.2334 2.54179 -3.57685 0
M  V30 1038 H 94.0514 0.317443 -0.6362 0
M  V30 1039 H 96.6534 0.210381 -1.94365 0
M  V30 1040 H 95.3574 1.10977 -3.9511 0
M  V30 1041 H 94.8884 2.53381 -3.00934 0
M  V30 1042 H 96.9034 3.7792 -3.21545 0
M  V30 1043 N 96.0765 1.50051 0.48192 0
M  V30 1044 C 97.3245 1.60181 1.23234 0
M  V30 1045 C 97.6455 0.299176 1.92691 0
M  V30 1046 O 96.9155 -0.682708 1.83619 0
M  V30 1047 H 95.4955 0.590232 0.457859 0
M  V30 1048 H 98.1575 1.86775 0.556881 0
M  V30 1049 H 97.2535 2.40753 1.98607 0
M  V30 1050 N 97.5546 -0.734337 1.39446 0
M  V30 1051 C 98.4876 -1.85715 1.32609 0
M  V30 1052 C 99.4656 -1.6137 0.199636 0
M  V30 1053 O 100.65 -1.84626 0.380195 0
M  V30 1054 C 97.7766 -3.21709 1.05929 0
M  V30 1055 C 96.8226 -3.64913 2.20773 0
M  V30 1056 S 97.6556 -3.74203 3.83056 0
M  V30 1057 C 98.8116 -5.12986 3.58603 0
M  V30 1058 H 99.0446 -1.91232 2.27635 0
M  V30 1059 H 96.5776 -0.899263 1.25509 0
M  V30 1060 H 98.5356 -4.00236 0.912203 0
M  V30 1061 H 97.1966 -3.13848 0.125883 0
M  V30 1062 H 96.3896 -4.63606 1.97699 0
M  V30 1063 H 95.9916 -2.93593 2.31688 0
M  V30 1064 H 98.2836 -5.99339 3.15909 0
M  V30 1065 H 99.2266 -5.41088 4.5676 0
M  V30 1066 H 99.6346 -4.82694 2.9269 0
M  V30 1067 N 99.0327 -1.24633 -0.964593 0
M  V30 1068 C 99.9657 -0.984662 -2.05863 0
M  V30 1069 C 100.944 0.0826554 -1.6239 0
M  V30 1070 O 102.128 -0.0549296 -1.8842 0
M  V30 1071 C 99.2547 -0.486529 -3.35187 0
M  V30 1072 C 98.3007 -1.54286 -3.97615 0
M  V30 1073 S 99.1337 -3.12513 -4.34851 0
M  V30 1074 C 100.29 -2.6441 -5.67308 0
M  V30 1075 H 100.523 -1.91104 -2.27743 0
M  V30 1076 H 98.0557 -1.08052 -1.10291 0
M  V30 1077 H 100.014 -0.205757 -4.09984 0
M  V30 1078 H 98.6747 0.419186 -3.1129 0
M  V30 1079 H 97.8677 -1.14481 -4.90826 0
M  V30 1080 H 97.4697 -1.7738 -3.2926 0
M  V30 1081 H 99.7617 -2.07416 -6.44969 0
M  V30 1082 H 100.705 -3.56222 -6.11973 0
M  V30 1083 H 101.113 -2.04734 -5.26065 0
M  V30 1084 N 100.511 1.16574 -1.06058 0
M  V30 1085 C 101.76 1.86385 -0.770944 0
M  V30 1086 C 102.073 1.82448 0.705129 0
M  V30 1087 O 103.279 2.47815 1.10905 0
M  V30 1088 C 101.735 3.34466 -1.32893 0
M  V30 1089 C 101.343 3.46883 -2.83507 0
M  V30 1090 C 103.087 4.09548 -1.11672 0
M  V30 1091 C 100.994 4.89036 -3.32562 0
M  V30 1092 H 99.9238 0.698181 -0.284709 0
M  V30 1093 H 102.575 1.31583 -1.27899 0
M  V30 1094 H 100.957 3.88859 -0.748662 0
M  V30 1095 H 102.131 3.02663 -3.47465 0
M  V30 1096 H 100.446 2.85232 -3.03368 0
M  V30 1097 H 103.043 5.14434 -1.45814 0
M  V30 1098 H 103.386 4.16264 -0.0549535 0
M  V30 1099 H 103.919 3.61387 -1.66265 0
M  V30 1100 H 100.658 4.87499 -4.38207 0
M  V30 1101 H 100.178 5.3389 -2.73351 0
M  V30 1102 H 101.857 5.57843 -3.2775 0
M  V30 1103 N 101.989 0.842826 1.3317 0
M  V30 1104 C 102.937 0.267495 2.31057 0
M  V30 1105 C 103.931 -0.602682 1.58316 0
M  V30 1106 O 105.137 -0.491803 1.73151 0
M  V30 1107 H 101.512 0.0677813 0.748939 0
M  V30 1108 H 103.483 1.10754 2.77085 0
M  V30 1109 C 102.232 -0.539331 3.43492 0
M  V30 1110 H 101.555 0.12095 3.99617 0
M  V30 1111 H 102.995 -0.90767 4.14171 0
M  V30 1112 C 101.454 -1.71981 2.89697 0
M  V30 1113 O 101.984 -2.81862 2.86211 0
M  V30 1114 N 100.19 -1.54299 2.46252 0
M  V30 1115 H 99.7369 -0.649143 2.49287 0
M  V30 1116 H 99.6949 -2.33431 2.10612 0
M  V30 1117 N 103.467 -1.45747 0.599634 0
M  V30 1118 C 104.715 -2.01893 0.0915472 0
M  V30 1119 C 105.036 -1.47155 -1.27946 0
M  V30 1120 O 104.306 -0.66273 -1.84349 0
M  V30 1121 H 102.886 -0.746363 0.0308524 0
M  V30 1122 H 105.548 -1.78645 0.779237 0
M  V30 1123 H 104.644 -3.1208 0.0353086 0
M  V30 1124 N 104.945 -0.338344 -1.53925 0
M  V30 1125 C 106.361 0.0137736 -1.59594 0
M  V30 1126 C 106.561 1.49186 -1.35447 0
M  V30 1127 O 105.617 2.24987 -1.14616 0
M  V30 1128 C 106.93 -0.41773 -2.97784 0
M  V30 1129 C 108.478 -0.369633 -3.1081 0
M  V30 1130 C 108.953 -0.776524 -4.51369 0
M  V30 1131 N 110.444 -0.730506 -4.57403 0
M  V30 1132 C 111.179 -1.01736 -5.64303 0
M  V30 1133 N 110.675 -1.3721 -6.79077 0
M  V30 1134 N 112.468 -0.941942 -5.54151 0
M  V30 1135 H 104.619 -1.3012 -1.67876 0
M  V30 1136 H 106.882 -0.530082 -0.78595 0
M  V30 1137 H 106.588 -1.44811 -3.20504 0
M  V30 1138 H 106.462 0.209729 -3.76616 0
M  V30 1139 H 108.849 0.651568 -2.87817 0
M  V30 1140 H 108.93 -1.03223 -2.34049 0
M  V30 1141 H 108.574 -1.79571 -4.75096 0
M  V30 1142 H 108.504 -0.0914649 -5.26521 0
M  V30 1143 H 110.995 -0.468783 -3.74981 0
M  V30 1144 H 111.308 -1.57597 -7.5656 0
M  V30 1145 H 109.653 -1.4105 -6.80536 0
M  V30 1146 H 112.844 -0.664184 -4.63364 0
M  V30 1147 H 113.017 -1.16884 -6.37371 0
M  V30 1148 N 106.423 1.57458 -0.0668435 0
M  V30 1149 C 107.834 1.80776 0.466558 0
M  V30 1150 C 108.185 0.980361 1.69951 0
M  V30 1151 O 107.31 0.201441 2.1546 0
M  V30 1152 C 107.905 3.27881 0.85321 0
M  V30 1153 C 106.464 3.52062 1.3315 0
M  V30 1154 C 105.611 2.75513 0.314264 0
M  V30 1155 H 108.562 1.5598 -0.292588 0
M  V30 1156 H 108.583 3.39659 1.715 0
M  V30 1157 H 108.095 3.88075 -0.0443439 0
M  V30 1158 H 106.196 2.97167 2.24772 0
M  V30 1159 H 106.309 4.60762 1.31285 0
M  V30 1160 H 104.673 2.42123 0.790492 0
M  V30 1161 H 105.456 3.38442 -0.575477 0
M  V30 1162 N 107.901 -0.206675 1.56239 0
M  V30 1163 C 109.126 -0.949474 1.8439 0
M  V30 1164 C 109.551 -1.76549 0.649016 0
M  V30 1165 O 108.909 -1.76782 -0.402231 0
M  V30 1166 C 108.957 -1.83078 3.10668 0
M  V30 1167 O 108.061 -2.9281 2.90407 0
M  V30 1168 H 107.402 -0.268033 0.607499 0
M  V30 1169 H 109.932 -0.215488 2.03462 0
M  V30 1170 H 109.942 -2.2377 3.41161 0
M  V30 1171 H 108.617 -1.23112 3.97261 0
M  V30 1172 H 107.194 -2.55956 2.71184 0
M  V30 1173 N 109.379 -1.50304 -0.473955 0
M  V30 1174 C 110.309 -1.71886 -1.58042 0
M  V30 1175 C 111.29 -0.567799 -1.60344 0
M  V30 1176 O 112.475 -0.806623 -1.76656 0
M  V30 1177 C 109.605 -1.81036 -2.96384 0
M  V30 1178 C 108.559 -2.962 -3.08949 0
M  V30 1179 C 107.885 -2.9049 -4.48909 0
M  V30 1180 C 109.185 -4.36752 -2.86434 0
M  V30 1181 H 110.879 -2.64527 -1.40234 0
M  V30 1182 H 108.425 -1.27295 -0.673201 0
M  V30 1183 H 110.378 -1.94719 -3.73714 0
M  V30 1184 H 109.102 -0.850147 -3.15341 0
M  V30 1185 H 107.761 -2.82164 -2.3405 0
M  V30 1186 H 107.409 -1.92321 -4.64781 0
M  V30 1187 H 107.109 -3.67802 -4.58253 0
M  V30 1188 H 108.633 -3.06218 -5.28264 0
M  V30 1189 H 110.047 -4.5133 -3.53517 0
M  V30 1190 H 108.444 -5.15493 -3.07225 0
M  V30 1191 H 109.514 -4.49321 -1.82316 0
M  V30 1192 N 110.857 0.726932 -1.39834 0
M  V30 1193 C 111.82 1.82269 -1.38962 0
M  V30 1194 C 112.82 1.58248 -0.285334 0
M  V30 1195 O 114.01 1.65499 -0.54366 0
M  V30 1196 C 111.142 3.20186 -1.17019 0
M  V30 1197 H 112.335 1.84443 -2.36476 0
M  V30 1198 H 109.888 0.931416 -1.25516 0
M  V30 1199 H 110.623 3.23669 -0.202204 0
M  V30 1200 H 110.408 3.3902 -1.96998 0
M  V30 1201 H 111.898 4.00235 -1.1917 0
M  V30 1202 N 112.336 1.25143 0.95797 0
M  V30 1203 C 113.576 1.10893 1.71703 0
M  V30 1204 C 113.94 -0.34478 1.88879 0
M  V30 1205 O 115.141 -0.609014 2.6181 0
M  V30 1206 C 113.412 1.83889 3.06463 0
M  V30 1207 S 114.971 1.85491 3.97666 0
M  V30 1208 H 111.789 0.396428 0.590226 0
M  V30 1209 H 114.391 1.58618 1.14283 0
M  V30 1210 H 113.095 2.88756 2.9163 0
M  V30 1211 H 112.626 1.36538 3.68946 0
M  V30 1212 H 114.641 0.929553 4.87415 0
M  V30 1213 N 113.814 -1.1601 1.06675 0
M  V30 1214 C 115.23 -1.38622 0.790948 0
M  V30 1215 C 115.43 -1.92109 -0.607965 0
M  V30 1216 O 114.486 -2.12239 -1.36787 0
M  V30 1217 C 115.799 -2.36347 1.85905 0
M  V30 1218 C 117.347 -2.50023 1.88301 0
M  V30 1219 C 117.822 -3.51033 2.94176 0
M  V30 1220 N 119.313 -3.58563 2.93235 0
M  V30 1221 C 120.048 -4.36521 3.71803 0
M  V30 1222 N 119.544 -5.17869 4.602 0
M  V30 1223 N 121.337 -4.31541 3.60178 0
M  V30 1224 H 113.488 -0.796294 1.96908 0
M  V30 1225 H 115.751 -0.412597 0.853503 0
M  V30 1226 H 115.457 -2.04147 2.86386 0
M  V30 1227 H 115.331 -3.36042 1.71334 0
M  V30 1228 H 117.718 -2.81524 0.884769 0
M  V30 1229 H 117.799 -1.5035 2.06951 0
M  V30 1230 H 117.443 -3.20268 3.94196 0
M  V30 1231 H 117.373 -4.50445 2.72776 0
M  V30 1232 H 119.864 -3.00496 2.29152 0
M  V30 1233 H 120.177 -5.74578 5.16797 0
M  V30 1234 H 118.522 -5.17199 4.64253 0
M  V30 1235 H 121.713 -3.67051 2.90502 0
M  V30 1236 H 121.886 -4.9205 4.21653 0
M  V30 1237 N 115.292 -0.849877 -1.32721 0
M  V30 1238 C 116.52 -0.464754 -2.01613 0
M  V30 1239 C 116.935 0.937191 -1.63897 0
M  V30 1240 O 116.292 1.61081 -0.857856 0
M  V30 1241 C 116.343 -0.588638 -3.56675 0
M  V30 1242 O 116.064 -1.93535 -3.93034 0
M  V30 1243 C 117.565 -0.2019 -4.4284 0
M  V30 1244 H 114.785 -0.183215 -0.645502 0
M  V30 1245 H 117.329 -1.1455 -1.69407 0
M  V30 1246 H 115.484 0.0443159 -3.87375 0
M  V30 1247 H 115.898 -1.92871 -4.87751 0
M  V30 1248 H 117.372 -0.339599 -5.50954 0
M  V30 1249 H 117.849 0.857224 -4.30753 0
M  V30 1250 H 118.455 -0.809733 -4.17521 0
M  V30 1251 N 116.77 1.45427 -0.607355 0
M  V30 1252 C 117.7 2.3329 0.0989352 0
M  V30 1253 C 118.681 1.46816 0.859007 0
M  V30 1254 O 119.866 1.75588 0.829604 0
M  V30 1255 C 116.996 3.29518 1.09705 0
M  V30 1256 C 115.95 4.25626 0.450206 0
M  V30 1257 C 115.276 5.11542 1.55655 0
M  V30 1258 C 116.576 5.18505 -0.628455 0
M  V30 1259 H 118.27 2.92595 -0.634716 0
M  V30 1260 H 115.816 1.40696 -0.306681 0
M  V30 1261 H 117.769 3.89855 1.59971 0
M  V30 1262 H 116.493 2.68372 1.86129 0
M  V30 1263 H 115.152 3.66586 -0.0315886 0
M  V30 1264 H 114.8 4.46765 2.31107 0
M  V30 1265 H 114.5 5.76647 1.12925 0
M  V30 1266 H 116.024 5.74748 2.06148 0
M  V30 1267 H 117.438 5.72916 -0.209877 0
M  V30 1268 H 115.835 5.92085 -0.977489 0
M  V30 1269 H 116.905 4.60948 -1.50514 0
M  V30 1270 N 118.248 0.346503 1.53744 0
M  V30 1271 C 119.476 -0.25041 2.05379 0
M  V30 1272 C 119.891 -1.43979 1.22129 0
M  V30 1273 O 119.248 -1.80677 0.257321 0
M  V30 1274 C 119.299 -0.662575 3.55376 0
M  V30 1275 O 119.02 0.479515 4.35468 0
M  V30 1276 C 120.521 -1.31989 4.23195 0
M  V30 1277 H 117.741 -0.0478198 0.669294 0
M  V30 1278 H 120.285 0.499346 1.9831 0
M  V30 1279 H 118.44 -1.36227 3.62658 0
M  V30 1280 H 118.854 0.15037 5.24284 0
M  V30 1281 H 120.328 -1.55902 5.29527 0
M  V30 1282 H 120.805 -2.27436 3.75725 0
M  V30 1283 H 121.411 -0.662154 4.20114 0
M  V30 1284 N 119.726 -1.57421 0.075193 0
M  V30 1285 C 120.673 -2.12915 -0.890843 0
M  V30 1286 C 121.643 -1.04252 -1.29309 0
M  V30 1287 O 122.828 -1.31933 -1.37834 0
M  V30 1288 C 119.968 -2.69795 -2.15186 0
M  V30 1289 C 119.081 -3.92624 -1.80194 0
M  V30 1290 C 118.216 -4.37736 -3.00933 0
M  V30 1291 C 117.255 -5.53205 -2.61974 0
M  V30 1292 N 116.392 -5.9326 -3.75483 0
M  V30 1293 H 121.232 -2.95156 -0.410735 0
M  V30 1294 H 118.769 -1.45854 -0.191086 0
M  V30 1295 H 120.727 -3.00883 -2.89008 0
M  V30 1296 H 119.357 -1.90313 -2.60731 0
M  V30 1297 H 118.409 -3.67977 -0.964218 0
M  V30 1298 H 119.721 -4.76482 -1.47534 0
M  V30 1299 H 118.875 -4.70503 -3.8303 0
M  V30 1300 H 117.614 -3.52739 -3.36789 0
M  V30 1301 H 116.619 -5.20086 -1.783 0
M  V30 1302 H 117.844 -6.39936 -2.27284 0
M  V30 1303 H 115.79 -5.11212 -4.11094 0
M  V30 1304 H 115.707 -6.71865 -3.46602 0
M  V30 1305 H 116.975 -6.30651 -4.58148 0
M  V30 1306 N 121.204 0.198386 -1.56346 0
M  V30 1307 C 122.481 0.944982 -1.71258 0
M  V30 1308 C 122.861 2.0151 -0.629048 0
M  V30 1309 O 122.209 2.25639 0.360473 0
M  V30 1310 C 122.419 1.5344 -3.1346 0
M  V30 1311 C 123.767 2.01778 -3.73591 0
M  V30 1312 O 124.791 1.63288 -3.16568 0
M  V30 1313 O 123.65 2.72594 -4.73661 0
M  V30 1314 H 120.744 0.442939 -0.69838 0
M  V30 1315 H 123.29 0.188342 -1.68652 0
M  V30 1316 H 122.062 0.762869 -3.83792 0
M  V30 1317 H 121.685 2.35596 -3.20282 0
M  V30 1318 N 122.682 1.50554 0.465978 0
M  V30 1319 C 123.929 1.61798 1.21768 0
M  V30 1320 C 124.257 0.320696 1.91838 0
M  V30 1321 O 123.512 -0.693724 1.82992 0
M  V30 1322 C 123.811 2.75152 2.28093 0
M  V30 1323 C 123.477 4.15454 1.75239 0
M  V30 1324 C 122.139 4.53628 1.60546 0
M  V30 1325 C 124.491 5.03121 1.36083 0
M  V30 1326 C 121.819 5.77204 1.05128 0
M  V30 1327 C 124.171 6.27249 0.821056 0
M  V30 1328 C 122.835 6.64221 0.660795 0
M  V30 1329 H 122.105 0.592063 0.445582 0
M  V30 1330 H 124.752 1.84503 0.512927 0
M  V30 1331 H 123.057 2.46556 3.04496 0
M  V30 1332 H 124.754 2.81055 2.86023 0
M  V30 1333 H 121.344 3.85341 1.87644 0
M  V30 1334 H 125.528 4.74257 1.46267 0
M  V30 1335 H 120.784 6.0452 0.91462 0
M  V30 1336 H 124.958 6.94537 0.509018 0
M  V30 1337 H 122.585 7.59854 0.229226 0
M  V30 1338 N 124.16 -0.719506 1.40217 0
M  V30 1339 C 125.07 -1.86378 1.42479 0
M  V30 1340 C 126.086 -1.71073 0.317834 0
M  V30 1341 O 127.262 -1.93406 0.561794 0
M  V30 1342 C 124.327 -3.22136 1.28178 0
M  V30 1343 C 123.388 -3.49723 2.48982 0
M  V30 1344 C 122.621 -4.79004 2.35353 0
M  V30 1345 O 122.844 -5.53821 1.36524 0
M  V30 1346 O 121.778 -5.06839 3.2465 0
M  V30 1347 H 125.604 -1.87425 2.38968 0
M  V30 1348 H 123.189 -0.869405 1.21498 0
M  V30 1349 H 125.071 -4.03234 1.22395 0
M  V30 1350 H 123.746 -3.21825 0.347934 0
M  V30 1351 H 122.653 -2.6865 2.60342 0
M  V30 1352 H 123.986 -3.54828 3.41113 0
M  V30 1353 N 125.638 -1.25649 -0.95132 0
M  V30 1354 C 126.915 -1.01361 -1.67288 0
M  V30 1355 C 127.295 0.459135 -2.06046 0
M  V30 1356 O 126.643 1.43723 -1.7764 0
M  V30 1357 C 126.853 -1.95256 -2.89268 0
M  V30 1358 C 128.201 -2.23289 -3.61147 0
M  V30 1359 O 129.225 -1.93041 -2.99355 0
M  V30 1360 O 128.084 -2.74741 -4.72419 0
M  V30 1361 H 125.178 -0.38464 -0.732107 0
M  V30 1362 H 127.724 -1.36817 -1.00395 0
M  V30 1363 H 126.496 -2.94685 -2.57442 0
M  V30 1364 H 126.119 -1.60218 -3.6389 0
M  V30 1365 N 127.117 1.15442 -1.07289 0
M  V30 1366 C 128.365 1.85845 -0.794096 0
M  V30 1367 C 128.686 1.82692 0.681809 0
M  V30 1368 O 127.956 1.26741 1.49377 0
M  V30 1369 H 126.536 0.688089 -0.290763 0
M  V30 1370 H 129.198 1.39947 -1.3565 0
M  V30 1371 H 128.294 2.91001 -1.12804 0
M  V30 1372 N 128.595 0.856903 1.32268 0
M  V30 1373 C 129.841 0.462069 1.97466 0
M  V30 1374 C 130.174 -0.980298 1.67642 0
M  V30 1375 O 129.449 -1.68824 0.965858 0
M  V30 1376 C 129.732 0.704336 3.53145 0
M  V30 1377 C 129.585 2.19529 3.9259 0
M  V30 1378 C 130.904 0.1622 4.39801 0
M  V30 1379 H 128.023 0.169357 0.717278 0
M  V30 1380 H 130.665 1.07574 1.56614 0
M  V30 1381 H 128.815 0.181999 3.88073 0
M  V30 1382 H 130.487 2.78387 3.67829 0
M  V30 1383 H 128.73 2.67292 3.41668 0
M  V30 1384 H 129.401 2.31549 5.01088 0
M  V30 1385 H 131.877 0.608905 4.11621 0
M  V30 1386 H 130.753 0.361265 5.4771 0
M  V30 1387 H 131.014 -0.935158 4.32096 0
M  V30 1388 N 130.073 -1.45103 0.615059 0
M  V30 1389 C 131.322 -2.01396 0.110718 0
M  V30 1390 C 131.635 -1.48834 -1.26916 0
M  V30 1391 O 132.841 -1.97152 -1.86664 0
M  V30 1392 C 131.297 -3.59599 0.14723 0
M  V30 1393 C 130.905 -4.21158 1.52743 0
M  V30 1394 C 132.649 -4.23428 -0.30148 0
M  V30 1395 C 130.556 -5.71535 1.51992 0
M  V30 1396 H 129.486 -0.753061 0.0376241 0
M  V30 1397 H 132.137 -1.66494 0.77149 0
M  V30 1398 H 130.519 -3.91724 -0.580339 0
M  V30 1399 H 131.693 -4.00594 2.2773 0
M  V30 1400 H 130.008 -3.69552 1.91886 0
M  V30 1401 H 132.605 -5.33703 -0.326392 0
M  V30 1402 H 132.948 -3.94629 -1.32565 0
M  V30 1403 H 133.481 -3.96047 0.373065 0
M  V30 1404 H 130.22 -6.05044 2.52193 0
M  V30 1405 H 129.74 -5.94268 0.81274 0
M  V30 1406 H 131.419 -6.34873 1.24681 0
M  V30 1407 N 131.551 -0.354651 -1.53558 0
M  V30 1408 C 132.779 0.239515 -2.05509 0
M  V30 1409 C 133.194 1.4333 -1.2289 0
M  V30 1410 O 132.551 1.80538 -0.266899 0
M  V30 1411 C 132.602 0.643719 -3.55723 0
M  V30 1412 O 132.323 -0.502602 -4.35207 0
M  V30 1413 C 133.824 1.29743 -4.23889 0
M  V30 1414 H 131.044 0.0442697 -0.669538 0
M  V30 1415 H 133.588 -0.509856 -1.98042 0
M  V30 1416 H 131.743 1.34302 -3.63376 0
M  V30 1417 H 132.157 -0.178172 -5.24197 0
M  V30 1418 H 133.631 1.53091 -5.30346 0
M  V30 1419 H 134.108 2.25441 -3.76926 0
M  V30 1420 H 134.714 0.639865 -4.20459 0
M  V30 1421 N 133.029 1.57378 -0.0835403 0
M  V30 1422 C 133.959 2.1641 0.87686 0
M  V30 1423 C 134.94 1.09429 1.30228 0
M  V30 1424 O 136.125 1.37516 1.37124 0
M  V30 1425 C 133.255 2.73517 2.14022 0
M  V30 1426 C 132.209 3.85769 1.85381 0
M  V30 1427 C 131.535 4.29529 3.18448 0
M  V30 1428 C 132.835 5.09486 1.14984 0
M  V30 1429 H 134.529 2.96914 0.385059 0
M  V30 1430 H 132.075 1.42823 0.18377 0
M  V30 1431 H 134.028 3.13463 2.81636 0
M  V30 1432 H 132.752 1.90252 2.65465 0
M  V30 1433 H 131.411 3.46345 1.20169 0
M  V30 1434 H 131.059 3.43169 3.67755 0
M  V30 1435 H 130.759 5.05204 3.00071 0
M  V30 1436 H 132.283 4.72099 3.8724 0
M  V30 1437 H 133.697 5.46674 1.72687 0
M  V30 1438 H 132.094 5.90515 1.06826 0
M  V30 1439 H 133.164 4.84724 0.130749 0
M  V30 1440 N 134.507 -0.190092 1.56449 0
M  V30 1441 C 135.437 -1.23816 1.97969 0
M  V30 1442 C 136.418 -1.47201 0.852395 0
M  V30 1443 O 137.603 -1.58854 1.1171 0
M  V30 1444 C 134.733 -2.5813 2.3235 0
M  V30 1445 C 133.687 -2.49348 3.47864 0
M  V30 1446 C 133.013 -3.8798 3.67934 0
M  V30 1447 C 134.313 -2.01424 4.81898 0
M  V30 1448 H 136.007 -0.89311 2.85769 0
M  V30 1449 H 133.553 -0.428177 1.37487 0
M  V30 1450 H 135.506 -3.31637 2.59991 0
M  V30 1451 H 134.23 -2.94386 1.41438 0
M  V30 1452 H 132.889 -1.78297 3.20321 0
M  V30 1453 H 132.537 -4.21597 2.74344 0
M  V30 1454 H 132.237 -3.82978 4.45648 0
M  V30 1455 H 133.761 -4.63101 3.97957 0
M  V30 1456 H 135.175 -2.64693 5.08538 0
M  V30 1457 H 133.572 -2.07413 5.63116 0
M  V30 1458 H 134.642 -0.967677 4.75146 0
M  V30 1459 N 135.985 -1.50799 -0.457987 0
M  V30 1460 C 137.396 -1.55152 -1.0385 0
M  V30 1461 C 137.747 -0.362719 -1.92818 0
M  V30 1462 O 136.872 0.522915 -2.09987 0
M  V30 1463 C 137.467 -2.81173 -1.89017 0
M  V30 1464 C 136.026 -2.88164 -2.42154 0
M  V30 1465 C 135.173 -2.49591 -1.20829 0
M  V30 1466 H 138.124 -1.56874 -0.240068 0
M  V30 1467 H 138.145 -2.63769 -2.74238 0
M  V30 1468 H 137.657 -3.67677 -1.24238 0
M  V30 1469 H 135.758 -2.06042 -3.10447 0
M  V30 1470 H 135.871 -3.91356 -2.76364 0
M  V30 1471 H 134.235 -2.02322 -1.54719 0
M  V30 1472 H 135.018 -3.38418 -0.576927 0
M  V30 1473 N 137.463 0.71206 -1.40597 0
M  V30 1474 C 138.393 1.83889 -1.43899 0
M  V30 1475 C 139.374 1.67442 -0.299504 0
M  V30 1476 O 140.559 1.87421 -0.508624 0
M  V30 1477 C 137.689 3.21877 -1.30431 0
M  V30 1478 C 136.643 3.53002 -2.42019 0
M  V30 1479 C 135.969 4.90172 -2.13626 0
M  V30 1480 C 137.269 3.53643 -3.84362 0
M  V30 1481 H 138.963 1.81383 -2.38203 0
M  V30 1482 H 136.509 0.871237 -1.14654 0
M  V30 1483 H 138.462 4.00404 -1.31357 0
M  V30 1484 H 137.186 3.24968 -0.326049 0
M  V30 1485 H 135.845 2.76818 -2.40349 0
M  V30 1486 H 135.493 4.89869 -1.14182 0
M  V30 1487 H 135.193 5.11962 -2.88389 0
M  V30 1488 H 136.717 5.71028 -2.1624 0
M  V30 1489 H 138.131 4.22203 -3.87837 0
M  V30 1490 H 136.528 3.86961 -4.58673 0
M  V30 1491 H 137.598 2.52954 -4.13693 0
M  V30 1492 N 138.941 1.26152 0.944643 0
M  V30 1493 C 140.352 1.10454 1.50522 0
M  V30 1494 C 140.703 -0.31635 1.93633 0
M  V30 1495 O 139.828 -1.20746 1.79581 0
M  V30 1496 C 140.423 1.99891 2.73549 0
M  V30 1497 C 138.982 1.88348 3.25886 0
M  V30 1498 C 138.129 1.93447 1.9868 0
M  V30 1499 H 141.08 1.39292 0.760489 0
M  V30 1500 H 141.101 1.54477 3.47732 0
M  V30 1501 H 140.613 3.03297 2.42141 0
M  V30 1502 H 138.714 0.878636 3.62092 0
M  V30 1503 H 138.827 2.73696 3.93227 0
M  V30 1504 H 137.191 1.37456 2.14425 0
M  V30 1505 H 137.974 2.98476 1.69607 0
M  V30 1506 N 140.419 -1.14872 1.07899 0
M  V30 1507 C 141.382 -2.17986 0.708161 0
M  V30 1508 C 142.382 -1.58775 -0.25442 0
M  V30 1509 O 143.572 -1.74166 -0.034645 0
M  V30 1510 C 140.704 -3.40871 0.0446929 0
M  V30 1511 H 141.897 -2.52306 1.62116 0
M  V30 1512 H 139.45 -1.2943 0.876218 0
M  V30 1513 H 140.185 -3.12124 -0.880281 0
M  V30 1514 H 139.97 -3.8511 0.737091 0
M  V30 1515 H 141.46 -4.17121 -0.19991 0
M  V30 1516 N 141.898 -0.863906 -1.31812 0
M  V30 1517 C 143.145 -0.471836 -1.96926 0
M  V30 1518 C 143.473 0.974578 -1.68322 0
M  V30 1519 O 142.728 1.7003 -0.968933 0
M  V30 1520 C 143.027 -0.668547 -3.51091 0
M  V30 1521 C 142.693 -2.08683 -3.99703 0
M  V30 1522 C 141.355 -2.47471 -4.12688 0
M  V30 1523 C 143.707 -3.01207 -4.25351 0
M  V30 1524 C 141.035 -3.78037 -4.4867 0
M  V30 1525 C 143.387 -4.31282 -4.62794 0
M  V30 1526 C 142.051 -4.69992 -4.73987 0
M  V30 1527 H 141.321 -0.172657 -0.720604 0
M  V30 1528 H 143.968 -1.09573 -1.57054 0
M  V30 1529 H 142.273 0.0385252 -3.91781 0
M  V30 1530 H 143.97 -0.345102 -3.99512 0
M  V30 1531 H 140.56 -1.77566 -3.90087 0
M  V30 1532 H 144.744 -2.72469 -4.14819 0
M  V30 1533 H 140 -4.078 -4.55532 0
M  V30 1534 H 144.174 -5.03031 -4.81594 0
M  V30 1535 H 141.801 -5.71207 -5.01624 0
M  V30 1536 N 143.376 1.44774 -0.622745 0
M  V30 1537 C 144.323 2.30635 0.0871679 0
M  V30 1538 C 145.293 1.42994 0.845097 0
M  V30 1539 O 146.478 1.71907 0.827812 0
M  V30 1540 C 143.618 3.28144 1.06844 0
M  V30 1541 C 142.731 4.30888 0.309809 0
M  V30 1542 C 141.866 5.15494 1.28215 0
M  V30 1543 C 140.905 6.09953 0.512198 0
M  V30 1544 N 140.042 6.87287 1.43458 0
M  V30 1545 H 144.882 2.90803 -0.650974 0
M  V30 1546 H 142.419 1.43286 -0.33281 0
M  V30 1547 H 144.377 3.83157 1.65066 0
M  V30 1548 H 143.007 2.69695 1.77382 0
M  V30 1549 H 142.059 3.78414 -0.388181 0
M  V30 1550 H 143.371 4.97955 -0.290254 0
M  V30 1551 H 142.525 5.74983 1.93596 0
M  V30 1552 H 141.264 4.48481 1.91614 0
M  V30 1553 H 140.269 5.49581 -0.155151 0
M  V30 1554 H 141.494 6.78999 -0.116958 0
M  V30 1555 H 139.44 6.2295 2.05594 0
M  V30 1556 H 139.357 7.50763 0.888335 0
M  V30 1557 H 140.625 7.51306 2.07749 0
M  V30 1558 N 144.854 0.36279 1.53368 0
M  V30 1559 C 145.784 -0.476976 2.28576 0
M  V30 1560 C 146.765 -1.08631 1.30894 0
M  V30 1561 O 147.95 -1.10409 1.59761 0
M  V30 1562 C 145.08 -1.61828 3.07293 0
M  V30 1563 C 144.034 -1.13633 4.1264 0
M  V30 1564 C 143.36 -2.36766 4.79423 0
M  V30 1565 C 144.66 -0.223061 5.21823 0
M  V30 1566 H 146.354 0.150474 2.99022 0
M  V30 1567 H 143.9 0.0738103 1.43811 0
M  V30 1568 H 145.853 -2.21237 3.58653 0
M  V30 1569 H 144.577 -2.27292 2.34533 0
M  V30 1570 H 143.236 -0.564945 3.62221 0
M  V30 1571 H 142.884 -3.0068 4.03238 0
M  V30 1572 H 142.584 -2.05192 5.50609 0
M  V30 1573 H 144.108 -2.96865 5.33576 0
M  V30 1574 H 145.522 -0.724545 5.68703 0
M  V30 1575 H 143.919 0.001678 6.001 0
M  V30 1576 H 144.989 0.735553 4.79289 0
M  V30 1577 N 146.332 -1.57332 0.0918853 0
M  V30 1578 C 147.581 -1.93412 -0.572249 0
M  V30 1579 C 147.894 -0.975515 -1.69538 0
M  V30 1580 O 149.1 -1.22991 -2.42045 0
M  V30 1581 C 147.556 -3.43648 -1.0693 0
M  V30 1582 C 147.164 -4.47994 0.0239049 0
M  V30 1583 C 148.908 -3.88695 -1.70635 0
M  V30 1584 C 146.815 -5.89381 -0.488319 0
M  V30 1585 H 145.745 -0.721939 -0.217532 0
M  V30 1586 H 148.396 -1.82735 0.167369 0
M  V30 1587 H 146.778 -3.49466 -1.8625 0
M  V30 1588 H 147.952 -4.53815 0.799277 0
M  V30 1589 H 146.267 -4.12536 0.565946 0
M  V30 1590 H 148.864 -4.91725 -2.10025 0
M  V30 1591 H 149.207 -3.27166 -2.57426 0
M  V30 1592 H 149.74 -3.85564 -0.979023 0
M  V30 1593 H 146.479 -6.54602 0.342906 0
M  V30 1594 H 145.999 -5.87037 -1.23077 0
M  V30 1595 H 147.678 -6.39863 -0.958317 0
M  V30 1596 N 147.81 0.181792 -1.56548 0
M  V30 1597 C 148.757 1.22521 -1.95595 0
M  V30 1598 C 149.727 1.4454 -0.818373 0
M  V30 1599 O 150.912 1.57454 -1.07763 0
M  V30 1600 C 148.052 2.56193 -2.31212 0
M  V30 1601 C 147.165 2.41641 -3.58097 0
M  V30 1602 C 146.3 3.68108 -3.82975 0
M  V30 1603 C 145.339 3.48445 -5.03242 0
M  V30 1604 N 144.476 4.66956 -5.24306 0
M  V30 1605 H 149.316 0.885226 -2.84548 0
M  V30 1606 H 146.853 0.425718 -1.40805 0
M  V30 1607 H 148.811 3.34088 -2.49882 0
M  V30 1608 H 147.441 2.88208 -1.45382 0
M  V30 1609 H 146.493 1.54976 -3.474 0
M  V30 1610 H 147.805 2.23052 -4.46149 0
M  V30 1611 H 146.959 4.54441 -4.01956 0
M  V30 1612 H 145.698 3.89666 -2.93278 0
M  V30 1613 H 144.703 2.60499 -4.8417 0
M  V30 1614 H 145.928 3.2832 -5.9446 0
M  V30 1615 H 143.874 4.88752 -4.37559 0
M  V30 1616 H 143.791 4.51242 -6.06561 0
M  V30 1617 H 145.059 5.54602 -5.47756 0
M  V30 1618 N 149.288 1.51039 0.449983 0
M  V30 1619 C 150.565 1.53612 1.21089 0
M  V30 1620 C 150.945 0.292997 2.09057 0
M  V30 1621 O 150.293 -0.72259 2.16774 0
M  V30 1622 C 150.503 2.84337 2.0237 0
M  V30 1623 C 151.851 3.35807 2.59843 0
M  V30 1624 O 152.875 2.85802 2.12593 0
M  V30 1625 O 151.734 4.23029 3.45989 0
M  V30 1626 H 148.828 0.617057 0.550608 0
M  V30 1627 H 151.374 1.63344 0.460082 0
M  V30 1628 H 150.146 3.66278 1.37681 0
M  V30 1629 H 149.769 2.77708 2.84542 0
M  V30 1630 N 150.766 -0.704594 1.40972 0
M  V30 1631 C 151.696 -1.83124 1.44872 0
M  V30 1632 C 152.677 -1.67281 0.30838 0
M  V30 1633 O 153.862 -1.87149 0.518556 0
M  V30 1634 C 150.992 -3.21181 1.32136 0
M  V30 1635 C 149.946 -3.51714 2.43888 0
M  V30 1636 C 149.272 -4.89032 2.16222 0
M  V30 1637 C 150.572 -3.516 3.86232 0
M  V30 1638 H 152.266 -1.80117 2.39161 0
M  V30 1639 H 149.812 -0.865145 1.15114 0
M  V30 1640 H 151.765 -3.99702 1.33479 0
M  V30 1641 H 150.489 -3.24791 0.343279 0
M  V30 1642 H 149.148 -2.75539 2.41813 0
M  V30 1643 H 148.796 -4.89256 1.16778 0
M  V30 1644 H 148.496 -5.10426 2.911 0
M  V30 1645 H 150.02 -5.69873 2.19265 0
M  V30 1646 H 151.434 -4.2014 3.9007 0
M  V30 1647 H 149.831 -3.84523 4.60719 0
M  V30 1648 H 150.901 -2.50757 4.15029 0
M  V30 1649 N 152.244 -1.26651 -0.937939 0
M  V30 1650 C 153.469 -1.15279 -1.72411 0
M  V30 1651 C 153.894 0.287866 -1.85884 0
M  V30 1652 O 153.252 1.20855 -1.35143 0
M  V30 1653 C 153.3 -1.83028 -3.10698 0
M  V30 1654 O 152.404 -1.12128 -3.96864 0
M  V30 1655 H 151.745 -0.401504 -0.528858 0
M  V30 1656 H 154.275 -1.67531 -1.1745 0
M  V30 1657 H 154.285 -1.89981 -3.6107 0
M  V30 1658 H 152.96 -2.87833 -3.00208 0
M  V30 1659 H 151.537 -1.13173 -3.55312 0
M  V30 1660 N 153.722 1.14298 -1.08507 0
M  V30 1661 C 154.968 1.85633 -0.816581 0
M  V30 1662 C 155.301 1.82784 0.656021 0
M  V30 1663 O 154.576 1.25926 1.48233 0
M  V30 1664 C 154.859 3.34223 -1.34041 0
M  V30 1665 C 154.712 3.45639 -2.87843 0
M  V30 1666 C 156.031 4.29356 -0.9665 0
M  V30 1667 H 153.15 0.67402 -0.298104 0
M  V30 1668 H 155.792 1.34214 -1.34487 0
M  V30 1669 H 153.942 3.78144 -0.89104 0
M  V30 1670 H 155.614 3.10498 -3.41158 0
M  V30 1671 H 153.857 2.86817 -3.25451 0
M  V30 1672 H 154.528 4.50089 -3.19569 0
M  V30 1673 H 157.004 3.93457 -1.35391 0
M  V30 1674 H 155.88 5.3178 -1.3602 0
M  V30 1675 H 156.141 4.41919 0.126362 0
M  V30 1676 N 155.201 0.870884 1.31352 0
M  V30 1677 C 156.478 0.402907 1.91405 0
M  V30 1678 C 156.858 -1.11512 1.79244 0
M  V30 1679 O 156.206 -1.94411 1.2007 0
M  V30 1680 C 156.416 0.885301 3.37585 0
M  V30 1681 C 157.764 0.911971 4.14691 0
M  V30 1682 O 158.788 0.831016 3.46371 0
M  V30 1683 O 157.647 1.02927 5.3672 0
M  V30 1684 H 154.741 0.120698 0.818145 0
M  V30 1685 H 157.287 0.958857 1.40014 0
M  V30 1686 H 156.059 1.92889 3.40455 0
M  V30 1687 H 155.682 0.307714 3.96407 0
M  V30 1688 N 156.679 -1.44442 0.630414 0
M  V30 1689 C 157.907 -2.06414 0.141671 0
M  V30 1690 C 158.322 -1.47105 -1.18345 0
M  V30 1691 O 157.679 -0.593662 -1.72574 0
M  V30 1692 C 157.73 -3.61494 0.0199784 0
M  V30 1693 O 157.451 -4.18594 1.29269 0
M  V30 1694 C 158.952 -4.40499 -0.497544 0
M  V30 1695 H 156.172 -0.666292 0.0793452 0
M  V30 1696 H 158.716 -1.85323 0.864614 0
M  V30 1697 H 156.871 -3.8185 -0.653402 0
M  V30 1698 H 157.285 -5.12026 1.13707 0
M  V30 1699 H 158.759 -5.49433 -0.531708 0
M  V30 1700 H 159.236 -4.11895 -1.52445 0
M  V30 1701 H 159.842 -4.25061 0.142562 0
M  V30 1702 N 158.157 -0.370918 -1.53173 0
M  V30 1703 C 159.405 0.216673 -2.00935 0
M  V30 1704 C 159.726 1.48845 -1.25977 0
M  V30 1705 O 158.996 1.92286 -0.374551 0
M  V30 1706 H 157.576 0.0830565 -0.742368 0
M  V30 1707 H 160.238 -0.49838 -1.8842 0
M  V30 1708 H 159.334 0.439893 -3.08984 0
M  V30 1709 N 159.635 1.57281 -0.100228 0
M  V30 1710 C 160.583 2.15542 0.874328 0
M  V30 1711 C 161.577 1.09962 1.28859 0
M  V30 1712 O 162.783 1.28298 1.26252 0
M  V30 1713 H 159.158 0.689567 0.300003 0
M  V30 1714 H 161.129 2.96241 0.35829 0
M  V30 1715 C 159.878 2.75454 2.1218 0
M  V30 1716 H 159.201 3.56384 1.81193 0
M  V30 1717 H 160.641 3.19781 2.78417 0
M  V30 1718 C 159.1 1.71602 2.89921 0
M  V30 1719 O 159.63 1.15804 3.84646 0
M  V30 1720 N 157.836 1.41975 2.53558 0
M  V30 1721 H 157.383 1.87539 1.76598 0
M  V30 1722 H 157.341 0.727274 3.05873 0
M  V30 1723 N 161.113 -0.173488 1.56642 0
M  V30 1724 C 162.359 -0.887108 1.83035 0
M  V30 1725 C 162.714 -1.79965 0.680461 0
M  V30 1726 O 162.007 -1.88854 -0.323225 0
M  V30 1727 C 162.201 -1.72069 3.13252 0
M  V30 1728 C 162.03 -0.89035 4.40798 0
M  V30 1729 C 160.8 -0.566282 5.02117 0
M  V30 1730 C 162.998 -0.232921 5.13772 0
M  V30 1731 N 160.98 0.280427 6.13259 0
M  V30 1732 C 162.351 0.475046 6.18177 0
M  V30 1733 C 164.406 -0.150863 4.97671 0
M  V30 1734 C 163.109 1.25729 7.08227 0
M  V30 1735 C 165.135 0.618039 5.88162 0
M  V30 1736 C 164.497 1.31438 6.92029 0
M  V30 1737 H 160.596 -0.303303 0.720785 0
M  V30 1738 H 163.18 -0.154244 1.94088 0
M  V30 1739 H 161.351 -2.42499 3.03395 0
M  V30 1740 H 163.083 -2.37545 3.2765 0
M  V30 1741 H 159.838 -0.895852 4.6505 0
M  V30 1742 H 160.262 0.694027 6.73433 0
M  V30 1743 H 164.904 -0.674868 4.17379 0
M  V30 1744 H 162.622 1.79265 7.87966 0
M  V30 1745 H 166.208 0.683173 5.77775 0
M  V30 1746 H 165.088 1.89981 7.6084 0
M  V30 1747 N 162.591 -1.51276 -0.441967 0
M  V30 1748 C 163.838 -1.63715 -1.19179 0
M  V30 1749 C 164.166 -0.351175 -1.91303 0
M  V30 1750 O 163.421 0.664524 -1.84072 0
M  V30 1751 C 163.72 -2.78746 -2.23686 0
M  V30 1752 C 163.386 -4.18189 -1.68607 0
M  V30 1753 C 162.048 -4.56125 -1.53308 0
M  V30 1754 C 164.4 -5.05222 -1.28062 0
M  V30 1755 C 161.728 -5.78804 -0.959317 0
M  V30 1756 C 164.08 -6.28476 -0.721162 0
M  V30 1757 C 162.744 -6.65188 -0.55504 0
M  V30 1758 H 162.014 -0.599076 -0.436106 0
M  V30 1759 H 164.661 -1.85296 -0.48351 0
M  V30 1760 H 162.966 -2.51369 -3.00535 0
M  V30 1761 H 164.663 -2.8557 -2.81515 0
M  V30 1762 H 161.253 -3.88277 -1.8149 0
M  V30 1763 H 165.437 -4.76524 -1.38704 0
M  V30 1764 H 160.693 -6.05899 -0.81833 0
M  V30 1765 H 164.867 -6.95259 -0.398458 0
M  V30 1766 H 162.494 -7.60123 -0.108311 0
M  V30 1767 N 164.069 0.697108 -1.41344 0
M  V30 1768 C 165.017 1.83237 -1.43272 0
M  V30 1769 C 166.011 1.66522 -0.310947 0
M  V30 1770 O 167.217 1.73402 -0.482899 0
M  V30 1771 H 163.592 0.603802 -0.448249 0
M  V30 1772 H 165.563 1.78727 -2.38954 0
M  V30 1773 C 164.312 3.21245 -1.33029 0
M  V30 1774 H 163.635 3.34723 -2.18633 0
M  V30 1775 H 165.075 4.00763 -1.38439 0
M  V30 1776 C 163.534 3.36873 -0.0424635 0
M  V30 1777 O 164.064 3.91177 0.913421 0
M  V30 1778 N 162.27 2.90581 0.0331145 0
M  V30 1779 H 161.817 2.46577 -0.745506 0
M  V30 1780 H 161.775 3.01416 0.894199 0
M  V30 1781 N 165.547 1.27147 0.931209 0
M  V30 1782 C 166.795 1.13055 1.6752 0
M  V30 1783 C 167.116 -0.324791 1.92276 0
M  V30 1784 O 166.386 -1.22775 1.52654 0
M  V30 1785 H 164.966 0.415391 0.620854 0
M  V30 1786 H 167.628 1.59623 1.11833 0
M  V30 1787 H 166.724 1.65694 2.64485 0
M  V30 1788 N 167.025 -1.13721 1.09112 0
M  V30 1789 C 167.958 -2.18094 0.67158 0
M  V30 1790 C 168.936 -1.59414 -0.320299 0
M  V30 1791 O 170.12 -1.87183 -0.222444 0
M  V30 1792 C 167.247 -3.38698 -0.0111189 0
M  V30 1793 C 166.293 -4.15966 0.942055 0
M  V30 1794 S 167.126 -4.7604 2.45246 0
M  V30 1795 C 168.282 -5.99994 1.78208 0
M  V30 1796 H 168.515 -2.53344 1.55577 0
M  V30 1797 H 166.048 -1.24967 0.906789 0
M  V30 1798 H 168.006 -4.08559 -0.398716 0
M  V30 1799 H 166.667 -3.01756 -0.871905 0
M  V30 1800 H 165.86 -5.02318 0.411396 0
M  V30 1801 H 165.462 -3.51745 1.2709 0
M  V30 1802 H 167.754 -6.68441 1.10424 0
M  V30 1803 H 168.697 -6.57662 2.62463 0
M  V30 1804 H 169.105 -5.50432 1.25238 0
M  V30 1805 N 168.503 -0.877838 -1.30888 0
M  V30 1806 C 169.728 -0.506629 -2.01117 0
M  V30 1807 C 170.153 0.895564 -1.65412 0
M  V30 1808 O 169.511 1.5923 -0.866922 0
M  V30 1809 C 169.559 -0.680223 -3.54126 0
M  V30 1810 O 168.663 0.277033 -4.11468 0
M  V30 1811 H 168.004 -0.200518 -0.633 0
M  V30 1812 H 170.534 -1.18342 -1.66902 0
M  V30 1813 H 170.544 -0.5765 -4.03907 0
M  V30 1814 H 169.219 -1.70261 -3.79452 0
M  V30 1815 H 167.796 0.127606 -3.72682 0
M  V30 1816 N 169.982 1.44106 -0.638065 0
M  V30 1817 C 170.914 2.28976 0.101205 0
M  V30 1818 C 171.927 1.4167 0.802088 0
M  V30 1819 O 173.116 1.65755 0.662375 0
M  V30 1820 C 170.216 3.18217 1.16581 0
M  V30 1821 C 169.389 4.33978 0.546066 0
M  V30 1822 C 168.448 5.04202 1.50554 0
M  V30 1823 O 167.474 5.59986 1.01999 0
M  V30 1824 N 168.676 5.06296 2.8398 0
M  V30 1825 H 171.441 2.93064 -0.627186 0
M  V30 1826 H 169.002 1.54629 -0.479731 0
M  V30 1827 H 170.994 3.62061 1.80815 0
M  V30 1828 H 169.564 2.55833 1.79634 0
M  V30 1829 H 168.784 3.93239 -0.275046 0
M  V30 1830 H 170.072 5.08675 0.112793 0
M  V30 1831 H 169.47 4.62319 3.26002 0
M  V30 1832 H 168.027 5.53907 3.43556 0
M  V30 1833 N 171.46 0.379036 1.52974 0
M  V30 1834 C 172.876 0.0285448 1.59574 0
M  V30 1835 C 173.076 -1.45542 1.39355 0
M  V30 1836 O 172.132 -2.2187 1.20541 0
M  V30 1837 C 173.445 0.496535 2.96572 0
M  V30 1838 C 174.993 0.451909 3.0972 0
M  V30 1839 C 175.468 0.895924 4.49152 0
M  V30 1840 N 176.959 0.851522 4.55306 0
M  V30 1841 C 177.694 1.16661 5.61407 0
M  V30 1842 N 177.19 1.55166 6.752 0
M  V30 1843 N 178.983 1.08853 5.51459 0
M  V30 1844 H 171.134 1.34525 1.64367 0
M  V30 1845 H 173.397 0.550733 0.771619 0
M  V30 1846 H 173.103 1.53258 3.16552 0
M  V30 1847 H 172.977 -0.109802 3.7704 0
M  V30 1848 H 175.364 -0.575029 2.89443 0
M  V30 1849 H 175.445 1.09392 2.3123 0
M  V30 1850 H 175.089 1.92104 4.70168 0
M  V30 1851 H 175.019 0.23103 5.26093 0
M  V30 1852 H 177.51 0.568038 3.73606 0
M  V30 1853 H 177.823 1.776 7.52116 0
M  V30 1854 H 176.168 1.59044 6.76557 0
M  V30 1855 H 179.359 0.786803 4.6144 0
M  V30 1856 H 179.532 1.33742 6.34048 0
M  V30 1857 N 172.938 -1.57226 0.108567 0
M  V30 1858 C 174.184 -1.95121 -0.552761 0
M  V30 1859 C 174.517 -0.991345 -1.66991 0
M  V30 1860 O 173.792 -0.0267211 -1.94482 0
M  V30 1861 C 174.075 -3.43039 -1.09528 0
M  V30 1862 C 173.928 -4.49797 0.0177332 0
M  V30 1863 C 175.247 -3.92567 -1.98945 0
M  V30 1864 H 172.366 -0.709496 -0.199461 0
M  V30 1865 H 175.008 -1.89126 0.182011 0
M  V30 1866 H 173.158 -3.48279 -1.72146 0
M  V30 1867 H 174.83 -4.56661 0.652584 0
M  V30 1868 H 173.073 -4.284 0.682309 0
M  V30 1869 H 173.744 -5.50528 -0.402919 0
M  V30 1870 H 176.22 -3.89565 -1.46214 0
M  V30 1871 H 175.096 -4.96605 -2.33827 0
M  V30 1872 H 175.357 -3.32648 -2.91201 0
M  V30 1873 N 174.416 0.165178 -1.56732 0
M  V30 1874 C 175.326 1.22423 -2.00125 0
M  V30 1875 C 176.342 1.48084 -0.913619 0
M  V30 1876 O 177.518 1.60112 -1.22172 0
M  V30 1877 C 174.583 2.54197 -2.35764 0
M  V30 1878 C 173.644 2.36343 -3.58386 0
M  V30 1879 C 172.877 3.61834 -3.92316 0
M  V30 1880 O 173.1 4.67267 -3.27135 0
M  V30 1881 O 172.034 3.55579 -4.85641 0
M  V30 1882 H 175.86 0.885886 -2.90492 0
M  V30 1883 H 173.445 0.372518 -1.44681 0
M  V30 1884 H 175.327 3.3192 -2.59629 0
M  V30 1885 H 174.002 2.87598 -1.48557 0
M  V30 1886 H 172.909 1.56632 -3.39731 0
M  V30 1887 H 174.242 2.07865 -4.46154 0
M  V30 1888 N 175.894 1.51508 0.433938 0
M  V30 1889 C 177.119 1.68443 1.21003 0
M  V30 1890 C 177.544 0.382636 1.84167 0
M  V30 1891 O 176.902 -0.65755 1.68956 0
M  V30 1892 C 176.95 2.80405 2.26727 0
M  V30 1893 O 176.054 2.44245 3.32292 0
M  V30 1894 H 175.395 0.561536 0.354363 0
M  V30 1895 H 177.925 1.9809 0.512024 0
M  V30 1896 H 177.935 3.0459 2.71457 0
M  V30 1897 H 176.61 3.74867 1.80132 0
M  V30 1898 H 175.187 2.30644 2.93015 0
M  V30 1899 N 177.372 -0.689602 1.41712 0
M  V30 1900 C 178.618 -1.45041 1.42599 0
M  V30 1901 C 178.973 -1.92366 0.0363764 0
M  V30 1902 O 178.266 -1.67022 -0.938844 0
M  V30 1903 C 178.46 -2.67298 2.37247 0
M  V30 1904 C 178.289 -2.31935 3.85274 0
M  V30 1905 C 177.059 -2.2201 4.53916 0
M  V30 1906 C 179.257 -1.94526 4.76093 0
M  V30 1907 N 177.239 -1.79594 5.87043 0
M  V30 1908 C 178.61 -1.62915 5.98213 0
M  V30 1909 C 180.665 -1.81388 4.63684 0
M  V30 1910 C 179.368 -1.19486 7.09306 0
M  V30 1911 C 181.394 -1.39364 5.74745 0
M  V30 1912 C 180.756 -1.08668 6.95967 0
M  V30 1913 H 176.855 -0.527806 0.577014 0
M  V30 1914 H 179.439 -0.797266 1.77628 0
M  V30 1915 H 177.61 -3.30325 2.04304 0
M  V30 1916 H 179.342 -3.33806 2.28814 0
M  V30 1917 H 176.097 -2.406 4.07932 0
M  V30 1918 H 176.521 -1.60851 6.57614 0
M  V30 1919 H 181.163 -2.03772 3.70455 0
M  V30 1920 H 178.881 -0.958477 8.02396 0
M  V30 1921 H 182.467 -1.2974 5.6715 0
M  V30 1922 H 181.347 -0.766417 7.80446 0
M  V30 1923 N 178.85 -1.27639 -0.924453 0
M  V30 1924 C 180.099 -1.13549 -1.66702 0
M  V30 1925 C 180.412 0.317487 -1.93006 0
M  V30 1926 O 181.618 0.579333 -2.65247 0
M  V30 1927 C 180.074 -1.98426 -3.00259 0
M  V30 1928 C 179.682 -3.484 -2.81641 0
M  V30 1929 C 181.426 -1.92993 -3.78092 0
M  V30 1930 C 179.333 -4.25464 -4.10773 0
M  V30 1931 H 178.263 -0.421351 -0.625283 0
M  V30 1932 H 180.914 -1.52085 -1.02676 0
M  V30 1933 H 179.296 -1.52736 -3.6536 0
M  V30 1934 H 180.47 -4.01973 -2.25287 0
M  V30 1935 H 178.785 -3.55245 -2.17232 0
M  V30 1936 H 181.382 -2.47844 -4.7379 0
M  V30 1937 H 181.725 -0.904281 -4.0636 0
M  V30 1938 H 182.258 -2.36595 -3.19793 0
M  V30 1939 H 178.997 -5.28566 -3.87683 0
M  V30 1940 H 178.517 -3.76667 -4.66779 0
M  V30 1941 H 180.196 -4.34812 -4.79111 0
M  V30 1942 N 180.328 1.1314 -1.09713 0
M  V30 1943 C 181.278 2.16709 -0.708593 0
M  V30 1944 C 182.262 1.58471 0.278523 0
M  V30 1945 O 183.454 1.76779 0.088427 0
M  V30 1946 C 180.583 3.43039 -0.133923 0
M  V30 1947 C 179.669 4.08277 -1.14763 0
M  V30 1948 N 180.06 4.48637 -2.33577 0
M  V30 1949 C 178.358 4.34954 -0.986446 0
M  V30 1950 C 179.059 4.9952 -2.98085 0
M  V30 1951 N 178.035 4.94561 -2.25632 0
M  V30 1952 H 181.837 2.45672 -1.61315 0
M  V30 1953 H 179.351 1.29967 -0.973775 0
M  V30 1954 H 181.348 4.16583 0.162465 0
M  V30 1955 H 180.008 3.15549 0.765447 0
M  V30 1956 H 181.019 4.41246 -2.7115 0
M  V30 1957 H 177.696 4.17258 -0.142008 0
M  V30 1958 H 179.086 5.40521 -3.99108 0
M  V30 1959 N 181.806 0.884767 1.30421 0
M  V30 1960 C 182.769 0.356277 2.26414 0
M  V30 1961 C 183.769 -0.501124 1.52792 0
M  V30 1962 O 184.959 -0.30831 1.7145 0
M  V30 1963 C 182.091 -0.492316 3.37326 0
M  V30 1964 H 183.284 1.20389 2.74675 0
M  V30 1965 H 180.837 0.661607 1.41607 0
M  V30 1966 H 181.572 -1.36052 2.94381 0
M  V30 1967 H 181.357 0.121832 3.91911 0
M  V30 1968 H 182.847 -0.853871 4.08777 0
M  V30 1969 N 183.284 -1.43765 0.645699 0
M  V30 1970 C 184.216 -2.29027 -0.0890605 0
M  V30 1971 C 185.229 -1.42093 -0.794563 0
M  V30 1972 O 186.418 -1.66104 -0.653575 0
M  V30 1973 C 183.518 -3.18831 -1.14891 0
M  V30 1974 C 182.691 -4.34261 -0.523043 0
M  V30 1975 C 181.75 -5.04994 -1.47878 0
M  V30 1976 O 180.776 -5.6052 -0.990277 0
M  V30 1977 N 181.978 -5.07795 -2.81291 0
M  V30 1978 H 184.743 -2.92727 0.64272 0
M  V30 1979 H 182.304 -1.54373 0.487924 0
M  V30 1980 H 184.296 -3.63015 -1.78892 0
M  V30 1981 H 182.866 -2.56782 -1.78275 0
M  V30 1982 H 182.086 -3.93088 0.295896 0
M  V30 1983 H 183.374 -5.08728 -0.0858147 0
M  V30 1984 H 182.772 -4.64042 -3.23546 0
M  V30 1985 H 181.329 -5.55721 -3.40614 0
M  V30 1986 N 184.763 -0.387143 -1.52771 0
M  V30 1987 C 185.71 0.449048 -2.26389 0
M  V30 1988 C 186.68 1.05961 -1.27912 0
M  V30 1989 O 187.865 1.08804 -1.56737 0
M  V30 1990 C 185.005 1.57155 -3.0724 0
M  V30 1991 C 184.118 0.984066 -4.20643 0
M  V30 1992 C 183.253 2.07745 -4.88892 0
M  V30 1993 C 182.292 1.46574 -5.94292 0
M  V30 1994 N 181.429 2.49834 -6.56146 0
M  V30 1995 H 186.269 -0.185205 -2.97424 0
M  V30 1996 H 183.806 -0.103164 -1.46738 0
M  V30 1997 H 185.764 2.23309 -3.52405 0
M  V30 1998 H 184.394 2.17615 -2.38419 0
M  V30 1999 H 183.446 0.212193 -3.79808 0
M  V30 2000 H 184.758 0.497029 -4.96318 0
M  V30 2001 H 183.912 2.81673 -5.3735 0
M  V30 2002 H 182.651 2.59807 -4.12737 0
M  V30 2003 H 181.656 0.711696 -5.45174 0
M  V30 2004 H 182.881 0.953088 -6.72379 0
M  V30 2005 H 180.827 3.0107 -5.82832 0
M  V30 2006 H 180.744 2.05879 -7.27427 0
M  V30 2007 H 182.012 3.23399 -7.09249 0
M  V30 2008 N 186.241 1.57166 -0.116904 0
M  V30 2009 C 187.151 2.18745 0.847812 0
M  V30 2010 C 188.167 1.163 1.29423 0
M  V30 2011 O 189.343 1.48761 1.35765 0
M  V30 2012 C 186.408 2.77307 2.0809 0
M  V30 2013 C 185.469 3.94781 1.68661 0
M  V30 2014 C 184.702 4.50541 2.86091 0
M  V30 2015 O 184.925 4.05202 4.01456 0
M  V30 2016 O 183.859 5.41256 2.63298 0
M  V30 2017 H 187.685 3.01632 0.353778 0
M  V30 2018 H 185.27 1.49005 0.108599 0
M  V30 2019 H 187.152 3.14647 2.80313 0
M  V30 2020 H 185.827 1.97452 2.56504 0
M  V30 2021 H 184.734 3.62214 0.935518 0
M  V30 2022 H 186.067 4.76065 1.24991 0
M  V30 2023 N 187.719 -0.156864 1.56817 0
M  V30 2024 C 188.669 -1.19891 1.93934 0
M  V30 2025 C 189.653 -1.39061 0.809372 0
M  V30 2026 O 190.845 -1.40789 1.07273 0
M  V30 2027 C 187.974 -2.53493 2.31508 0
M  V30 2028 C 187.06 -2.37957 3.51052 0
M  V30 2029 N 187.451 -1.92158 4.67877 0
M  V30 2030 C 185.749 -2.68739 3.55943 0
M  V30 2031 C 186.45 -1.8943 5.49992 0
M  V30 2032 N 185.426 -2.32375 4.91429 0
M  V30 2033 H 189.228 -0.836746 2.81737 0
M  V30 2034 H 186.742 -0.365012 1.58245 0
M  V30 2035 H 188.739 -3.28811 2.56299 0
M  V30 2036 H 187.399 -2.905 1.45051 0
M  V30 2037 H 188.41 -1.62274 4.91821 0
M  V30 2038 H 185.087 -3.09687 2.80001 0
M  V30 2039 H 186.477 -1.55596 6.53636 0
M  V30 2040 N 189.197 -1.51736 -0.425897 0
M  V30 2041 C 190.474 -1.55519 -1.1863 0
M  V30 2042 C 190.854 -0.326219 -2.08564 0
M  V30 2043 O 190.202 0.688012 -2.17896 0
M  V30 2044 C 190.412 -2.87521 -1.9782 0
M  V30 2045 C 191.76 -3.39899 -2.54468 0
M  V30 2046 O 192.784 -2.89148 -2.08019 0
M  V30 2047 O 191.643 -4.2848 -3.39215 0
M  V30 2048 H 188.737 -0.625739 -0.540721 0
M  V30 2049 H 191.283 -1.64055 -0.434038 0
M  V30 2050 H 190.055 -3.68422 -1.31836 0
M  V30 2051 H 189.678 -2.822 -2.80088 0
M  V30 2052 N 190.675 0.682077 -1.42076 0
M  V30 2053 C 191.924 1.43786 -1.41451 0
M  V30 2054 C 192.237 1.95574 -0.0317074 0
M  V30 2055 O 193.443 2.71326 0.0971462 0
M  V30 2056 C 191.899 2.60071 -2.48779 0
M  V30 2057 C 191.507 2.15013 -3.93031 0
M  V30 2058 C 193.251 3.37626 -2.57311 0
M  V30 2059 C 191.158 3.28336 -4.91883 0
M  V30 2060 H 190.088 0.540143 -0.526082 0
M  V30 2061 H 192.739 0.739157 -1.67955 0
M  V30 2062 H 191.121 3.32275 -2.15429 0
M  V30 2063 H 192.295 1.5001 -4.35699 0
M  V30 2064 H 190.61 1.50416 -3.88284 0
M  V30 2065 H 193.207 4.22012 -3.28345 0
M  V30 2066 H 193.55 3.83727 -1.61429 0
M  V30 2067 H 194.083 2.72488 -2.89819 0
M  V30 2068 H 190.822 2.87234 -5.89217 0
M  V30 2069 H 190.342 3.92145 -4.53853 0
M  V30 2070 H 192.021 3.93913 -5.13265 0
M  V30 2071 N 192.153 1.28127 0.917671 0
M  V30 2072 C 193.378 1.18007 1.70555 0
M  V30 2073 C 193.803 -0.258257 1.86319 0
M  V30 2074 O 193.161 -1.1869 1.37049 0
M  V30 2075 C 193.209 1.87948 3.07746 0
M  V30 2076 O 192.313 1.18427 3.9503 0
M  V30 2077 H 191.654 0.409867 0.522403 0
M  V30 2078 H 194.184 1.69379 1.1477 0
M  V30 2079 H 194.194 1.95701 3.58001 0
M  V30 2080 H 192.869 2.92573 2.95591 0
M  V30 2081 H 191.446 1.18811 3.53466 0
M  V30 2082 N 193.631 -1.12557 1.10312 0
M  V30 2083 C 194.578 -2.18247 0.750781 0
M  V30 2084 C 195.548 -1.63853 -0.272293 0
M  V30 2085 O 196.733 -1.90195 -0.151862 0
M  V30 2086 C 193.873 -3.44591 0.187379 0
M  V30 2087 C 192.986 -4.13046 1.2656 0
M  V30 2088 C 192.121 -5.27034 0.663978 0
M  V30 2089 C 191.16 -5.87353 1.72287 0
M  V30 2090 N 190.297 -6.92757 1.1416 0
M  V30 2091 H 195.137 -2.47732 1.65628 0
M  V30 2092 H 192.674 -1.21629 0.827337 0
M  V30 2093 H 194.632 -4.16904 -0.157148 0
M  V30 2094 H 193.262 -3.15527 -0.681355 0
M  V30 2095 H 192.314 -3.38924 1.72727 0
M  V30 2096 H 193.626 -4.53947 2.06721 0
M  V30 2097 H 192.78 -6.06104 0.268824 0
M  V30 2098 H 191.519 -4.87407 -0.169082 0
M  V30 2099 H 190.524 -5.06971 2.12746 0
M  V30 2100 H 191.749 -6.29051 2.55875 0
M  V30 2101 H 189.695 -6.5517 0.329984 0
M  V30 2102 H 189.612 -7.3225 1.88007 0
M  V30 2103 H 190.88 -7.75658 0.772956 0
M  V30 2104 N 195.109 -0.891671 -1.2995 0
M  V30 2105 C 196.039 -0.379797 -2.30391 0
M  V30 2106 C 197.02 0.540919 -1.6127 0
M  V30 2107 O 198.205 0.453352 -1.88834 0
M  V30 2108 C 195.335 0.400654 -3.44981 0
M  V30 2109 C 194.289 -0.428905 -4.25846 0
M  V30 2110 C 193.615 0.478557 -5.32554 0
M  V30 2111 C 194.915 -1.67458 -4.94727 0
M  V30 2112 H 196.609 -1.21914 -2.73454 0
M  V30 2113 H 194.155 -0.587675 -1.31462 0
M  V30 2114 H 196.108 0.769434 -4.14316 0
M  V30 2115 H 194.832 1.27371 -3.0074 0
M  V30 2116 H 193.491 -0.779911 -3.58208 0
M  V30 2117 H 193.139 1.34951 -4.84559 0
M  V30 2118 H 192.839 -0.0727433 -5.87555 0
M  V30 2119 H 194.363 0.843705 -6.04743 0
M  V30 2120 H 195.777 -1.376 -5.56542 0
M  V30 2121 H 194.174 -2.16659 -5.59624 0
M  V30 2122 H 195.244 -2.41518 -4.20473 0
M  V30 2123 N 196.587 1.43421 -0.653314 0
M  V30 2124 C 197.497 2.34568 0.0388565 0
M  V30 2125 C 198.513 1.53888 0.81207 0
M  V30 2126 O 199.689 1.86539 0.759294 0
M  V30 2127 C 196.754 3.32167 0.993269 0
M  V30 2128 C 195.815 4.28751 0.216977 0
M  V30 2129 C 195.048 5.21688 1.12593 0
M  V30 2130 O 195.271 5.19052 2.36519 0
M  V30 2131 O 194.205 5.98919 0.598284 0
M  V30 2132 H 198.031 2.95251 -0.711386 0
M  V30 2133 H 195.616 1.43564 -0.413502 0
M  V30 2134 H 197.498 3.92183 1.54176 0
M  V30 2135 H 196.173 2.73987 1.72374 0
M  V30 2136 H 195.08 3.72215 -0.375101 0
M  V30 2137 H 196.413 4.89913 -0.473924 0
M  V30 2138 N 198.065 0.39524 1.52563 0
M  V30 2139 C 198.975 -0.444232 2.30356 0
M  V30 2140 C 199.991 -1.06615 1.37511 0
M  V30 2141 O 201.167 -1.07067 1.70583 0
M  V30 2142 C 198.232 -1.55315 3.09964 0
M  V30 2143 C 197.293 -0.955734 4.18526 0
M  V30 2144 C 196.526 -2.01181 4.9433 0
M  V30 2145 O 196.749 -3.22781 4.70285 0
M  V30 2146 O 195.683 -1.62579 5.79527 0
M  V30 2147 H 199.509 0.189667 3.03107 0
M  V30 2148 H 197.094 0.1588 1.48554 0
M  V30 2149 H 198.976 -2.19724 3.59582 0
M  V30 2150 H 197.651 -2.17191 2.4002 0
M  V30 2151 H 196.558 -0.274743 3.7309 0
M  V30 2152 H 197.891 -0.381109 4.90722 0
M  V30 2153 N 199.544 -1.57102 0.125237 0
M  V30 2154 C 200.96 -1.57915 -0.231322 0
M  V30 2155 C 201.16 -1.13833 -1.66266 0
M  V30 2156 O 200.216 -0.828581 -2.38518 0
M  V30 2157 C 201.529 -3.00699 0.00766489 0
M  V30 2158 C 203.077 -3.12947 -0.0577483 0
M  V30 2159 C 203.552 -4.57742 0.153626 0
M  V30 2160 N 205.043 -4.63092 0.0998073 0
M  V30 2161 C 205.778 -5.72905 0.238174 0
M  V30 2162 N 205.274 -6.91445 0.433057 0
M  V30 2163 N 207.067 -5.6182 0.177308 0
M  V30 2164 H 199.218 -1.84055 1.06007 0
M  V30 2165 H 201.481 -0.850905 0.417929 0
M  V30 2166 H 201.187 -3.3726 0.997431 0
M  V30 2167 H 201.061 -3.70236 -0.721452 0
M  V30 2168 H 203.448 -2.7624 -1.03804 0
M  V30 2169 H 203.529 -2.4594 0.70335 0
M  V30 2170 H 203.173 -4.95149 1.13092 0
M  V30 2171 H 203.103 -5.22848 -0.627534 0
M  V30 2172 H 205.594 -3.77871 -0.047051 0
M  V30 2173 H 205.907 -7.70985 0.529332 0
M  V30 2174 H 204.252 -6.93415 0.469109 0
M  V30 2175 H 207.443 -4.68093 0.0259748 0
M  V30 2176 H 207.616 -6.47357 0.288582 0
M  V30 2177 N 201.022 0.148545 -1.56898 0
M  V30 2178 C 202.271 0.85984 -1.82454 0
M  V30 2179 C 202.584 1.82406 -0.706229 0
M  V30 2180 O 203.79 2.57938 -0.847349 0
M  V30 2181 C 202.246 1.57967 -3.2338 0
M  V30 2182 C 201.854 0.65794 -4.43142 0
M  V30 2183 C 203.598 2.27784 -3.58211 0
M  V30 2184 C 201.505 1.3793 -5.75091 0
M  V30 2185 H 200.435 0.324834 -0.68044 0
M  V30 2186 H 203.086 0.112588 -1.83154 0
M  V30 2187 H 201.468 2.37249 -3.17063 0
M  V30 2188 H 202.642 -0.0995497 -4.60692 0
M  V30 2189 H 200.957 0.0682643 -4.16344 0
M  V30 2190 H 203.554 2.8239 -4.54048 0
M  V30 2191 H 203.897 3.04204 -2.84193 0
M  V30 2192 H 204.43 1.55421 -3.66182 0
M  V30 2193 H 201.169 0.656982 -6.52199 0
M  V30 2194 H 200.689 2.10954 -5.61479 0
M  V30 2195 H 202.368 1.92063 -6.17835 0
M  V30 2196 N 202.5 1.5196 0.417844 0
M  V30 2197 C 203.41 1.77554 1.53336 0
M  V30 2198 C 204.426 0.660655 1.6097 0
M  V30 2199 O 205.602 0.945099 1.77848 0
M  V30 2200 C 202.667 1.91291 2.89152 0
M  V30 2201 C 201.728 3.15183 2.91475 0
M  V30 2202 C 200.961 3.28256 4.20813 0
M  V30 2203 O 201.184 2.46798 5.14244 0
M  V30 2204 O 200.118 4.21356 4.29817 0
M  V30 2205 H 203.944 2.7222 1.34647 0
M  V30 2206 H 201.529 1.36698 0.602828 0
M  V30 2207 H 203.411 2.02199 3.69721 0
M  V30 2208 H 202.086 0.998129 3.07927 0
M  V30 2209 H 200.993 3.09739 2.09791 0
M  V30 2210 H 202.326 4.06414 2.77648 0
M  V30 2211 N 203.978 -0.674533 1.42435 0
M  V30 2212 C 205.389 -1.25514 1.38214 0
M  V30 2213 C 205.74 -1.96055 0.0755464 0
M  V30 2214 O 204.865 -2.00028 -0.8257 0
M  V30 2215 C 205.46 -2.28269 2.50357 0
M  V30 2216 C 204.019 -2.81856 2.49467 0
M  V30 2217 C 203.166 -1.56182 2.29134 0
M  V30 2218 H 206.117 -0.467902 1.51646 0
M  V30 2219 H 206.138 -3.10009 2.20624 0
M  V30 2220 H 205.65 -1.769 3.45439 0
M  V30 2221 H 203.751 -3.37346 1.58204 0
M  V30 2222 H 203.864 -3.30854 3.46515 0
M  V30 2223 H 202.228 -1.82761 1.774 0
M  V30 2224 H 203.011 -1.06778 3.26272 0
M  V30 2225 N 205.456 -1.28612 -0.910864 0
M  V30 2226 C 206.366 -1.14643 -2.0468 0
M  V30 2227 C 207.382 -0.0723121 -1.7385 0
M  V30 2228 O 208.558 -0.282178 -1.99413 0
M  V30 2229 C 205.623 -0.812561 -3.37044 0
M  V30 2230 C 204.684 -1.96935 -3.81465 0
M  V30 2231 C 203.917 -1.65131 -5.07511 0
M  V30 2232 O 204.14 -0.567013 -5.67575 0
M  V30 2233 O 203.074 -2.49585 -5.47714 0
M  V30 2234 H 206.9 -2.1001 -2.19384 0
M  V30 2235 H 204.485 -1.07958 -1.03274 0
M  V30 2236 H 206.367 -0.640441 -4.16505 0
M  V30 2237 H 205.042 0.111426 -3.23508 0
M  V30 2238 H 203.949 -2.19664 -3.02818 0
M  V30 2239 H 205.282 -2.87414 -3.99567 0
M  V30 2240 N 206.934 1.1197 -1.10907 0
M  V30 2241 C 208.18 1.8386 -0.855773 0
M  V30 2242 C 208.513 1.84134 0.617103 0
M  V30 2243 O 207.788 1.29041 1.45529 0
M  V30 2244 C 208.071 3.31305 -1.411 0
M  V30 2245 C 207.924 3.39456 -2.9511 0
M  V30 2246 C 209.243 4.2721 -1.05736 0
M  V30 2247 H 206.362 0.667545 -0.312334 0
M  V30 2248 H 209.004 1.31331 -1.37303 0
M  V30 2249 H 207.154 3.76169 -0.97105 0
M  V30 2250 H 208.826 3.03191 -3.47668 0
M  V30 2251 H 207.069 2.79849 -3.31462 0
M  V30 2252 H 207.74 4.43209 -3.29044 0
M  V30 2253 H 210.216 3.90497 -1.43706 0
M  V30 2254 H 209.092 5.28775 -1.47269 0
M  V30 2255 H 209.353 4.42088 0.0325958 0
M  V30 2256 N 208.412 0.89855 1.29475 0
M  V30 2257 C 209.375 0.380272 2.26023 0
M  V30 2258 C 210.375 -0.484891 1.53315 0
M  V30 2259 O 211.565 -0.290108 1.71767 0
M  V30 2260 C 208.697 -0.45651 3.3783 0
M  V30 2261 H 209.89 1.23295 2.73383 0
M  V30 2262 H 207.443 0.676589 1.40897 0
M  V30 2263 H 208.178 -1.32922 2.95808 0
M  V30 2264 H 207.963 0.163393 3.91759 0
M  V30 2265 H 209.453 -0.810466 4.0966 0
M  V30 2266 N 209.89 -1.43072 0.660911 0
M  V30 2267 C 210.822 -2.29108 -0.0647641 0
M  V30 2268 C 211.835 -1.42928 -0.779448 0
M  V30 2269 O 213.024 -1.66788 -0.635921 0
M  V30 2270 C 210.124 -3.20032 -1.11503 0
M  V30 2271 C 209.297 -4.34792 -0.476955 0
M  V30 2272 C 208.356 -5.06534 -1.42513 0
M  V30 2273 O 207.382 -5.61538 -0.930771 0
M  V30 2274 N 208.584 -5.1075 -2.75889 0
M  V30 2275 H 211.349 -2.92029 0.673731 0
M  V30 2276 H 208.91 -1.53846 0.50427 0
M  V30 2277 H 210.902 -3.64892 -1.75032 0
M  V30 2278 H 209.472 -2.58658 -1.75541 0
M  V30 2279 H 208.692 -3.92752 0.337572 0
M  V30 2280 H 209.98 -5.0879 -0.0318525 0
M  V30 2281 H 209.378 -4.67447 -3.18606 0
M  V30 2282 H 207.935 -5.59302 -3.347 0
M  V30 2283 N 211.368 -0.403325 -1.52352 0
M  V30 2284 C 212.278 0.432009 -2.30588 0
M  V30 2285 C 213.294 1.05884 -1.38075 0
M  V30 2286 O 214.47 1.06161 -1.71148 0
M  V30 2287 C 211.535 1.53669 -3.10784 0
M  V30 2288 C 210.596 0.933525 -4.19027 0
M  V30 2289 C 209.829 1.98557 -4.9539 0
M  V30 2290 O 210.052 3.20283 -4.71991 0
M  V30 2291 O 208.986 1.59504 -5.80381 0
M  V30 2292 H 212.812 -0.205739 -3.03002 0
M  V30 2293 H 210.397 -0.166675 -1.48467 0
M  V30 2294 H 212.279 2.17814 -3.60742 0
M  V30 2295 H 210.954 2.15915 -2.41169 0
M  V30 2296 H 209.861 0.254954 -3.7323 0
M  V30 2297 H 211.194 0.35508 -4.90918 0
M  V30 2298 N 212.846 1.57033 -0.133567 0
M  V30 2299 C 214.092 1.95976 0.521649 0
M  V30 2300 C 214.425 1.01779 1.65393 0
M  V30 2301 O 213.7 0.0576581 1.94415 0
M  V30 2302 C 213.983 3.44738 1.04057 0
M  V30 2303 C 213.836 4.49711 -0.0892897 0
M  V30 2304 C 215.155 3.95682 1.92675 0
M  V30 2305 H 212.274 0.712579 0.188149 0
M  V30 2306 H 214.916 1.88813 -0.212076 0
M  V30 2307 H 213.066 3.50973 1.66583 0
M  V30 2308 H 214.738 4.55565 -0.725152 0
M  V30 2309 H 212.981 4.27261 -0.750378 0
M  V30 2310 H 213.652 5.51099 0.315284 0
M  V30 2311 H 216.128 3.91841 1.39998 0
M  V30 2312 H 215.004 5.00262 2.25897 0
M  V30 2313 H 215.265 3.37239 2.85872 0
M  V30 2314 N 214.325 -0.140222 1.56975 0
M  V30 2315 C 215.572 -0.851687 1.83719 0
M  V30 2316 C 215.9 -1.80862 0.715485 0
M  V30 2317 O 215.155 -1.93464 -0.294956 0
M  V30 2318 C 215.454 -1.65386 3.16832 0
M  V30 2319 C 215.12 -0.843112 4.42947 0
M  V30 2320 C 213.782 -0.619464 4.77196 0
M  V30 2321 C 216.134 -0.276582 5.20466 0
M  V30 2322 C 213.462 0.181312 5.8642 0
M  V30 2323 C 215.814 0.51127 6.30531 0
M  V30 2324 C 214.478 0.745432 6.63325 0
M  V30 2325 H 213.748 -0.311654 0.672274 0
M  V30 2326 H 216.395 -0.115006 1.91154 0
M  V30 2327 H 214.7 -2.46084 3.04877 0
M  V30 2328 H 216.397 -2.20793 3.34741 0
M  V30 2329 H 212.987 -1.0275 4.16101 0
M  V30 2330 H 217.171 -0.436632 4.94376 0
M  V30 2331 H 212.427 0.372165 6.10266 0
M  V30 2332 H 216.601 0.957354 6.89788 0
M  V30 2333 H 214.228 1.36778 7.47794 0
M  V30 2334 N 215.803 -1.52179 -0.40978 0
M  V30 2335 C 216.713 -1.78364 -1.52392 0
M  V30 2336 C 217.729 -0.669183 -1.60617 0
M  V30 2337 O 218.905 -0.954518 -1.77344 0
M  V30 2338 C 215.97 -1.92822 -2.88133 0
M  V30 2339 C 215.031 -3.16725 -2.898 0
M  V30 2340 C 214.264 -3.30483 -4.19067 0
M  V30 2341 O 214.487 -2.49522 -5.12928 0
M  V30 2342 O 213.421 -4.2363 -4.27576 0
M  V30 2343 H 217.247 -2.72931 -1.33201 0
M  V30 2344 H 214.832 -1.37016 -0.59557 0
M  V30 2345 H 216.714 -2.04157 -3.68643 0
M  V30 2346 H 215.389 -1.01444 -3.07393 0
M  V30 2347 H 214.296 -3.10848 -2.08146 0
M  V30 2348 H 215.629 -4.07881 -2.75489 0
M  V30 2349 N 217.281 0.66697 -1.42791 0
M  V30 2350 C 218.211 1.79218 -1.49677 0
M  V30 2351 C 219.192 1.66405 -0.352623 0
M  V30 2352 O 220.377 1.85708 -0.567993 0
M  V30 2353 C 217.507 3.17565 -1.40605 0
M  V30 2354 C 216.461 3.45124 -2.53127 0
M  V30 2355 C 215.787 4.83127 -2.29112 0
M  V30 2356 C 217.087 3.41236 -3.95418 0
M  V30 2357 H 218.781 1.73713 -2.43853 0
M  V30 2358 H 216.327 0.83432 -1.17367 0
M  V30 2359 H 218.28 3.96022 -1.44029 0
M  V30 2360 H 217.004 3.23767 -0.429271 0
M  V30 2361 H 215.663 2.69031 -2.49034 0
M  V30 2362 H 215.311 4.85988 -1.29709 0
M  V30 2363 H 215.011 5.02528 -3.04531 0
M  V30 2364 H 216.535 5.63859 -2.34297 0
M  V30 2365 H 217.949 4.09651 -4.01073 0
M  V30 2366 H 216.346 3.72173 -4.70752 0
M  V30 2367 H 217.416 2.39665 -4.21532 0
M  V30 2368 N 218.759 1.29093 0.90403 0
M  V30 2369 C 220.036 1.075 1.63411 0
M  V30 2370 C 220.416 -0.382346 2.07609 0
M  V30 2371 O 219.764 -1.37031 1.82851 0
M  V30 2372 C 219.974 2.05858 2.81822 0
M  V30 2373 C 221.322 2.36539 3.52611 0
M  V30 2374 O 222.346 2.04019 2.91984 0
M  V30 2375 O 221.205 2.92085 4.61897 0
M  V30 2376 H 218.299 0.411547 0.717327 0
M  V30 2377 H 220.845 1.40449 0.952479 0
M  V30 2378 H 219.617 3.04037 2.46327 0
M  V30 2379 H 219.24 1.73613 3.57693 0
M  V30 2380 N 220.237 -1.11381 1.11499 0
M  V30 2381 C 221.653 -1.35143 0.849031 0
M  V30 2382 C 221.853 -1.94515 -0.525938 0
M  V30 2383 O 220.909 -2.1785 -1.27662 0
M  V30 2384 C 222.222 -2.28249 1.95762 0
M  V30 2385 C 223.77 -2.41812 1.98736 0
M  V30 2386 C 224.245 -3.3824 3.088 0
M  V30 2387 N 225.736 -3.45803 3.08179 0
M  V30 2388 C 226.471 -4.20358 3.89982 0
M  V30 2389 N 225.967 -4.97884 4.8175 0
M  V30 2390 N 227.76 -4.15877 3.78157 0
M  V30 2391 H 219.911 -0.712062 2.00109 0
M  V30 2392 H 222.174 -0.376025 0.870235 0
M  V30 2393 H 221.88 -1.91817 2.94787 0
M  V30 2394 H 221.754 -3.28473 1.85433 0
M  V30 2395 H 224.141 -2.77518 1.00338 0
M  V30 2396 H 224.222 -1.41437 2.13141 0
M  V30 2397 H 223.866 -3.03261 4.07425 0
M  V30 2398 H 223.796 -4.38471 2.91635 0
M  V30 2399 H 226.287 -2.90506 2.41691 0
M  V30 2400 H 226.6 -5.52142 5.40702 0
M  V30 2401 H 224.945 -4.97043 4.85771 0
M  V30 2402 H 228.136 -3.544 3.05808 0
M  V30 2403 H 228.309 -4.73723 4.42143 0
M  V30 2404 N 221.715 -0.905404 -1.28997 0
M  V30 2405 C 222.955 -0.541232 -1.97104 0
M  V30 2406 C 223.319 0.896841 -1.69767 0
M  V30 2407 O 224.52 1.36817 -2.31375 0
M  V30 2408 C 222.791 -0.832134 -3.47578 0
M  V30 2409 S 224.35 -0.573127 -4.35041 0
M  V30 2410 H 221.168 -0.200576 -0.682122 0
M  V30 2411 H 223.77 -1.16906 -1.56694 0
M  V30 2412 H 222.474 -1.87687 -3.64968 0
M  V30 2413 H 222.005 -0.192636 -3.92928 0
M  V30 2414 H 224.02 0.579297 -4.92807 0
M  V30 2415 N 223.193 1.4272 -0.668489 0
M  V30 2416 C 224.442 2.00846 -0.185389 0
M  V30 2417 C 224.755 1.53442 1.21305 0
M  V30 2418 O 225.961 2.03944 1.79218 0
M  V30 2419 C 224.417 3.58805 -0.280591 0
M  V30 2420 C 224.025 4.15198 -1.68268 0
M  V30 2421 C 225.769 4.24255 0.14412 0
M  V30 2422 C 223.676 5.655 -1.73099 0
M  V30 2423 H 222.606 0.751145 -0.0655475 0
M  V30 2424 H 225.257 1.63516 -0.832752 0
M  V30 2425 H 223.639 3.93608 0.434553 0
M  V30 2426 H 224.813 3.91866 -2.42441 0
M  V30 2427 H 223.128 3.62176 -2.05469 0
M  V30 2428 H 225.725 5.34547 0.128086 0
M  V30 2429 H 226.068 3.99277 1.17827 0
M  V30 2430 H 226.601 3.94389 -0.519798 0
M  V30 2431 H 223.34 5.95268 -2.74475 0
M  V30 2432 H 222.86 5.90842 -1.03274 0
M  V30 2433 H 224.539 6.29808 -1.48158 0
M  V30 2434 N 224.671 0.411399 1.52136 0
M  V30 2435 C 225.581 -0.419774 2.30814 0
M  V30 2436 C 226.597 -1.0515 1.38634 0
M  V30 2437 O 227.773 -1.05252 1.71709 0
M  V30 2438 C 224.838 -1.52019 3.11594 0
M  V30 2439 C 223.899 -0.91129 4.19516 0
M  V30 2440 C 223.132 -1.95927 4.96436 0
M  V30 2441 O 223.355 -3.17775 4.73683 0
M  V30 2442 O 222.289 -1.56423 5.81219 0
M  V30 2443 H 226.115 0.221805 3.02889 0
M  V30 2444 H 223.7 0.174547 1.48377 0
M  V30 2445 H 225.582 -2.15898 3.61892 0
M  V30 2446 H 224.257 -2.14633 2.42311 0
M  V30 2447 H 223.164 -0.235157 3.7336 0
M  V30 2448 H 224.497 -0.32904 4.91099 0
M  V30 2449 N 226.149 -1.5696 0.141893 0
M  V30 2450 C 227.389 -1.9785 -0.513304 0
M  V30 2451 C 227.753 -1.02467 -1.62371 0
M  V30 2452 O 228.954 -1.32382 -2.33941 0
M  V30 2453 C 227.225 -3.42797 -1.01118 0
M  V30 2454 S 228.784 -4.05709 -1.67169 0
M  V30 2455 H 225.602 -0.691318 -0.166135 0
M  V30 2456 H 228.204 -1.94114 0.232398 0
M  V30 2457 H 226.908 -4.0995 -0.192179 0
M  V30 2458 H 226.439 -3.50235 -1.79162 0
M  V30 2459 H 228.454 -3.98342 -2.95868 0
M  V30 2460 N 227.627 0.131896 -1.57047 0
M  V30 2461 C 228.875 0.840269 -1.83804 0
M  V30 2462 C 229.196 1.81017 -0.72512 0
M  V30 2463 O 228.466 1.94272 0.251995 0
M  V30 2464 H 227.046 0.313294 -0.678127 0
M  V30 2465 H 229.708 0.122294 -1.94516 0
M  V30 2466 H 228.804 1.39335 -2.79271 0
M  V30 2467 N 229.106 1.52395 0.401703 0
M  V30 2468 C 230.346 1.68498 1.15705 0
M  V30 2469 C 230.71 0.409748 1.87577 0
M  V30 2470 O 231.911 0.446983 2.65058 0
M  V30 2471 C 230.182 2.87789 2.11924 0
M  V30 2472 S 231.741 3.24415 2.95466 0
M  V30 2473 H 228.559 0.593267 0.391862 0
M  V30 2474 H 231.161 1.90408 0.443282 0
M  V30 2475 H 229.865 3.7884 1.57824 0
M  V30 2476 H 229.396 2.68175 2.87829 0
M  V30 2477 H 231.411 2.73614 4.13944 0
M  V30 2478 N 230.584 -0.659388 1.43143 0
M  V30 2479 C 231.824 -1.43121 1.45931 0
M  V30 2480 C 232.188 -1.91838 0.0789298 0
M  V30 2481 O 233.389 -2.68794 -0.018491 0
M  V30 2482 C 231.66 -2.58534 2.46769 0
M  V30 2483 S 233.219 -3.47154 2.68384 0
M  V30 2484 H 230.037 -0.488624 0.516496 0
M  V30 2485 H 232.639 -0.766128 1.79863 0
M  V30 2486 H 231.343 -2.21007 3.45809 0
M  V30 2487 H 230.874 -3.29898 2.14315 0
M  V30 2488 H 232.889 -4.55051 1.97845 0
M  V30 2489 N 232.062 -1.29571 -0.897171 0
M  V30 2490 C 233.311 -1.1706 -1.64256 0
M  V30 2491 C 233.624 0.276476 -1.93636 0
M  V30 2492 O 234.83 0.52294 -2.66416 0
M  V30 2493 C 233.286 -2.0475 -2.95982 0
M  V30 2494 C 232.894 -3.54295 -2.74187 0
M  V30 2495 C 234.638 -2.0097 -3.73914 0
M  V30 2496 C 232.545 -4.34081 -4.01656 0
M  V30 2497 H 231.475 -0.43452 -0.616205 0
M  V30 2498 H 234.126 -1.54229 -0.994268 0
M  V30 2499 H 232.508 -1.60452 -3.62038 0
M  V30 2500 H 233.682 -4.06662 -2.1671 0
M  V30 2501 H 231.997 -3.59773 -2.09648 0
M  V30 2502 H 234.594 -2.57838 -4.68427 0
M  V30 2503 H 234.937 -0.990273 -4.0435 0
M  V30 2504 H 235.47 -2.43325 -3.14703 0
M  V30 2505 H 232.209 -5.36671 -3.76384 0
M  V30 2506 H 231.729 -3.86483 -4.58684 0
M  V30 2507 H 233.408 -4.44877 -4.69781 0
M  V30 2508 N 233.54 1.10788 -1.12088 0
M  V30 2509 C 234.503 2.15207 -0.788577 0
M  V30 2510 C 235.503 1.59609 0.195317 0
M  V30 2511 O 236.693 1.74174 -0.0300193 0
M  V30 2512 C 233.825 3.4047 -0.171174 0
M  V30 2513 H 235.018 2.46116 -1.71368 0
M  V30 2514 H 232.571 1.26089 -0.923652 0
M  V30 2515 H 233.306 3.15176 0.763832 0
M  V30 2516 H 233.091 3.82109 -0.879514 0
M  V30 2517 H 234.581 4.17576 0.04496 0
M  V30 2518 N 235.018 0.912232 1.28515 0
M  V30 2519 C 235.981 0.404223 2.25607 0
M  V30 2520 C 236.981 -0.468602 1.53821 0
M  V30 2521 O 238.171 -0.271873 1.72065 0
M  V30 2522 C 235.303 -0.420653 3.38295 0
M  V30 2523 H 236.496 1.26188 2.7206 0
M  V30 2524 H 234.049 0.691495 1.40171 0
M  V30 2525 H 234.784 -1.29777 2.97201 0
M  V30 2526 H 234.569 0.204935 3.91564 0
M  V30 2527 H 236.059 -0.766971 4.10496 0
M  V30 2528 N 236.496 -1.42363 0.676048 0
M  V30 2529 C 237.736 -2.03392 0.20273 0
M  V30 2530 C 238.1 -1.52306 -1.16906 0
M  V30 2531 O 239.301 -2.05129 -1.73711 0
M  V30 2532 C 237.572 -3.56614 0.236947 0
M  V30 2533 S 239.131 -4.38489 -0.165186 0
M  V30 2534 H 235.949 -0.70611 0.0832418 0
M  V30 2535 H 238.551 -1.74093 0.88948 0
M  V30 2536 H 237.255 -3.91293 1.23767 0
M  V30 2537 H 236.786 -3.90587 -0.469596 0
M  V30 2538 H 238.801 -4.76093 -1.39822 0
M  V30 2539 N 237.974 -0.419461 -1.51915 0
M  V30 2540 C 239.222 0.152637 -2.01523 0
M  V30 2541 C 239.543 1.44762 -1.30649 0
M  V30 2542 O 238.813 1.90997 -0.435535 0
M  V30 2543 H 237.393 0.0593966 -0.744635 0
M  V30 2544 H 240.055 -0.558073 -1.86739 0
M  V30 2545 H 239.151 0.341369 -3.10227 0
M  V30 2546 N 239.452 1.56882 -0.150215 0
M  V30 2547 C 240.68 2.00593 0.506948 0
M  V30 2548 C 241.095 1.03033 1.58208 0
M  V30 2549 O 240.452 0.0278396 1.82479 0
M  V30 2550 C 240.503 3.44209 1.10465 0
M  V30 2551 O 240.224 4.3804 0.0724636 0
M  V30 2552 C 241.725 4.03214 1.84211 0
M  V30 2553 H 238.945 0.65795 0.13169 0
M  V30 2554 H 241.489 2.03018 -0.245743 0
M  V30 2555 H 239.644 3.42625 1.80795 0
M  V30 2556 H 240.058 5.22007 0.510793 0
M  V30 2557 H 241.532 5.0569 2.21318 0
M  V30 2558 H 242.009 3.44107 2.72923 0
M  V30 2559 H 242.615 4.08437 1.18572 0
M  V30 2560 N 240.93 -0.123565 1.57115 0
M  V30 2561 C 241.877 -1.15177 2.00007 0
M  V30 2562 C 242.847 -1.41403 0.871454 0
M  V30 2563 O 244.032 -1.53346 1.13533 0
M  V30 2564 C 241.172 -2.47436 2.40561 0
M  V30 2565 C 240.285 -2.28184 3.66819 0
M  V30 2566 C 239.42 -3.53641 3.96373 0
M  V30 2567 C 238.459 -3.29528 5.15827 0
M  V30 2568 N 237.596 -4.47175 5.41275 0
M  V30 2569 H 242.436 -0.779008 2.87638 0
M  V30 2570 H 239.973 -0.373166 1.42288 0
M  V30 2571 H 241.931 -3.24584 2.62109 0
M  V30 2572 H 240.561 -2.82614 1.55978 0
M  V30 2573 H 239.613 -1.41976 3.52912 0
M  V30 2574 H 240.925 -2.0634 4.5412 0
M  V30 2575 H 240.079 -4.39209 4.18545 0
M  V30 2576 H 238.818 -3.78512 3.07538 0
M  V30 2577 H 237.823 -2.42349 4.93505 0
M  V30 2578 H 239.048 -3.06031 6.06236 0
M  V30 2579 H 236.994 -4.72175 4.55397 0
M  V30 2580 H 236.911 -4.28419 6.22891 0
M  V30 2581 H 238.179 -5.3389 5.67963 0
M  V30 2582 N 242.408 -1.52605 -0.393616 0
M  V30 2583 C 243.657 -1.66649 -1.13627 0
M  V30 2584 C 243.97 -0.410364 -1.91247 0
M  V30 2585 O 245.176 -0.430854 -2.68059 0
M  V30 2586 C 243.632 -2.9449 -2.06891 0
M  V30 2587 C 243.24 -4.27266 -1.34714 0
M  V30 2588 C 244.984 -3.17899 -2.81319 0
M  V30 2589 C 242.891 -5.46217 -2.26717 0
M  V30 2590 H 241.821 -0.62084 -0.427871 0
M  V30 2591 H 244.472 -1.791 -0.399428 0
M  V30 2592 H 242.854 -2.75774 -2.84191 0
M  V30 2593 H 244.028 -4.56518 -0.626714 0
M  V30 2594 H 242.343 -4.10081 -0.722643 0
M  V30 2595 H 244.94 -4.03949 -3.50328 0
M  V30 2596 H 245.283 -2.32777 -3.45139 0
M  V30 2597 H 245.816 -3.37159 -2.11113 0
M  V30 2598 H 242.555 -6.33733 -1.67521 0
M  V30 2599 H 242.075 -5.21283 -2.96689 0
M  V30 2600 H 243.754 -5.7991 -2.86903 0
M  V30 2601 N 243.887 0.651787 -1.4349 0
M  V30 2602 C 244.82 1.77668 -1.43211 0
M  V30 2603 C 245.798 1.59931 -0.29338 0
M  V30 2604 O 246.982 1.82095 -0.487191 0
M  V30 2605 C 244.109 3.14986 -1.24505 0
M  V30 2606 C 243.155 3.51421 -2.41673 0
M  V30 2607 S 243.988 3.51234 -4.04222 0
M  V30 2608 C 245.144 4.91206 -3.87902 0
M  V30 2609 H 245.377 1.77635 -2.38397 0
M  V30 2610 H 242.91 0.824558 -1.30539 0
M  V30 2611 H 244.868 3.94237 -1.144 0
M  V30 2612 H 243.529 3.1258 -0.308651 0
M  V30 2613 H 242.722 4.51291 -2.24393 0
M  V30 2614 H 242.324 2.79585 -2.48411 0
M  V30 2615 H 244.616 5.79902 -3.50315 0
M  V30 2616 H 245.559 5.13537 -4.8753 0
M  V30 2617 H 245.967 4.64808 -3.20334 0
M  V30 2618 N 245.365 1.30045 0.890287 0
M  V30 2619 C 246.781 1.08261 1.17268 0
M  V30 2620 C 246.981 -0.160063 2.00863 0
M  V30 2621 O 246.037 -0.855181 2.37577 0
M  V30 2622 C 247.35 2.34323 1.8845 0
M  V30 2623 C 248.898 2.39735 2.01237 0
M  V30 2624 C 249.373 3.65625 2.7583 0
M  V30 2625 N 250.864 3.66402 2.83379 0
M  V30 2626 C 251.599 4.60498 3.41657 0
M  V30 2627 N 251.095 5.64933 4.01026 0
M  V30 2628 N 252.888 4.48051 3.39421 0
M  V30 2629 H 245.039 2.09777 0.332762 0
M  V30 2630 H 247.302 0.92446 0.209948 0
M  V30 2631 H 247.008 3.2498 1.34465 0
M  V30 2632 H 246.882 2.4256 2.88867 0
M  V30 2633 H 249.269 1.4956 2.54393 0
M  V30 2634 H 249.35 2.35476 0.999232 0
M  V30 2635 H 248.994 4.56156 2.23347 0
M  V30 2636 H 248.924 3.67144 3.77509 0
M  V30 2637 H 251.415 2.90896 2.41222 0
M  V30 2638 H 251.728 6.32841 4.43545 0
M  V30 2639 H 250.073 5.68732 3.99461 0
M  V30 2640 H 253.264 3.65649 2.92264 0
M  V30 2641 H 253.437 5.21565 3.84544 0
M  V30 2642 N 246.843 -1.10192 1.12674 0
M  V30 2643 C 247.753 -2.20172 0.810026 0
M  V30 2644 C 248.769 -1.72821 -0.202188 0
M  V30 2645 O 249.945 -2.01369 -0.0351691 0
M  V30 2646 C 247.01 -3.45631 0.272007 0
M  V30 2647 C 246.071 -4.07704 1.34447 0
M  V30 2648 C 245.304 -5.27175 0.832029 0
M  V30 2649 O 245.527 -5.69425 -0.333284 0
M  V30 2650 O 244.461 -5.80168 1.60277 0
M  V30 2651 H 248.287 -2.49701 1.72867 0
M  V30 2652 H 245.872 -1.18977 0.903597 0
M  V30 2653 H 247.754 -4.21394 -0.0230219 0
M  V30 2654 H 246.429 -3.17723 -0.619164 0
M  V30 2655 H 245.336 -3.33614 1.6927 0
M  V30 2656 H 246.669 -4.3982 2.2095 0
M  V30 2657 N 248.321 -0.919034 -1.28029 0
M  V30 2658 C 249.598 -0.473668 -1.89778 0
M  V30 2659 C 249.978 1.04783 -1.83259 0
M  V30 2660 O 249.326 1.8982 -1.27202 0
M  V30 2661 C 249.536 -1.00998 -3.34066 0
M  V30 2662 C 250.884 -1.06525 -4.1102 0
M  V30 2663 O 251.908 -0.958996 -3.43048 0
M  V30 2664 O 250.767 -1.22776 -5.3253 0
M  V30 2665 H 247.861 -0.15098 -0.813101 0
M  V30 2666 H 250.407 -1.01016 -1.36359 0
M  V30 2667 H 249.179 -2.05392 -3.33061 0
M  V30 2668 H 248.802 -0.454626 -3.94992 0
M  V30 2669 N 249.799 1.42003 -0.683588 0
M  V30 2670 C 251.046 2.01413 -0.209514 0
M  V30 2671 C 251.374 1.54088 1.1869 0
M  V30 2672 O 250.629 0.737591 1.81268 0
M  V30 2673 C 250.928 3.56827 -0.202357 0
M  V30 2674 C 250.594 4.23617 -1.54464 0
M  V30 2675 C 249.256 4.41577 -1.91215 0
M  V30 2676 C 251.608 4.61178 -2.42826 0
M  V30 2677 C 248.936 4.9437 -3.15935 0
M  V30 2678 C 251.288 5.15355 -3.66867 0
M  V30 2679 C 249.952 5.31528 -4.03776 0
M  V30 2680 H 249.222 0.737023 -0.0766668 0
M  V30 2681 H 251.869 1.70067 -0.880312 0
M  V30 2682 H 250.174 3.87892 0.551969 0
M  V30 2683 H 251.871 4.00588 0.181793 0
M  V30 2684 H 248.461 4.10004 -1.24877 0
M  V30 2685 H 252.645 4.46968 -2.15717 0
M  V30 2686 H 247.901 5.05076 -3.44541 0
M  V30 2687 H 252.075 5.43402 -4.35531 0
M  V30 2688 H 249.702 5.72199 -5.00492 0
M  V30 2689 N 251.277 0.427512 1.51691 0
M  V30 2690 C 252.523 -0.142439 2.02299 0
M  V30 2691 C 252.856 -1.43214 1.31162 0
M  V30 2692 O 252.131 -1.89833 0.423511 0
M  V30 2693 C 252.414 -0.371301 3.58181 0
M  V30 2694 C 252.267 0.936358 4.39946 0
M  V30 2695 C 253.586 -1.14542 4.24933 0
M  V30 2696 H 250.705 -0.0502937 0.735282 0
M  V30 2697 H 253.347 0.564584 1.81418 0
M  V30 2698 H 251.497 -0.973559 3.76104 0
M  V30 2699 H 253.169 1.57184 4.33694 0
M  V30 2700 H 251.412 1.5432 4.05423 0
M  V30 2701 H 252.083 0.730388 5.47147 0
M  V30 2702 H 254.559 -0.635362 4.11221 0
M  V30 2703 H 253.435 -1.27431 5.33903 0
M  V30 2704 H 253.696 -2.17093 3.85127 0
M  V30 2705 N 252.755 -1.56801 0.158532 0
M  V30 2706 C 254.003 -1.96102 -0.488712 0
M  V30 2707 C 254.324 -1.04498 -1.64636 0
M  V30 2708 O 253.594 -0.108783 -1.95598 0
M  V30 2709 H 252.174 -0.724102 -0.183535 0
M  V30 2710 H 254.836 -1.93457 0.236728 0
M  V30 2711 H 253.932 -3.00097 -0.857219 0
M  V30 2712 N 254.233 0.115231 -1.57178 0
M  V30 2713 C 255.196 1.12526 -1.99676 0
M  V30 2714 C 256.196 1.34095 -0.88742 0
M  V30 2715 O 257.386 1.30548 -1.15337 0
M  V30 2716 C 254.518 2.4789 -2.34015 0
M  V30 2717 H 255.711 0.759912 -2.90113 0
M  V30 2718 H 253.264 0.359648 -1.52106 0
M  V30 2719 H 253.999 2.89339 -1.4647 0
M  V30 2720 H 253.784 2.33588 -3.14927 0
M  V30 2721 H 255.274 3.20575 -2.67622 0
M  V30 2722 N 255.711 1.52812 0.385517 0
M  V30 2723 C 256.674 1.77188 1.45386 0
M  V30 2724 C 257.674 0.641953 1.4743 0
M  V30 2725 O 258.864 0.910033 1.4854 0
M  V30 2726 C 255.996 1.87582 2.8465 0
M  V30 2727 H 257.189 2.72583 1.25054 0
M  V30 2728 H 254.742 1.43586 0.617467 0
M  V30 2729 H 255.477 0.941849 3.10322 0
M  V30 2730 H 255.262 2.69748 2.84567 0
M  V30 2731 H 256.752 2.08102 3.62054 0
M  V30 2732 N 257.189 -0.644168 1.43834 0
M  V30 2733 C 258.437 -1.40117 1.45642 0
M  V30 2734 C 258.758 -1.94814 0.0852413 0
M  V30 2735 O 258.028 -1.74988 -0.880688 0
M  V30 2736 H 256.608 -0.52005 0.536243 0
M  V30 2737 H 259.27 -0.7591 1.7951 0
M  V30 2738 H 258.366 -2.23902 2.17427 0
M  V30 2739 N 258.668 -1.30515 -0.883378 0
M  V30 2740 C 259.598 -1.19607 -2.00541 0
M  V30 2741 C 260.579 -0.086346 -1.69881 0
M  V30 2742 O 261.764 -0.268654 -1.92333 0
M  V30 2743 C 258.894 -0.888758 -3.35736 0
M  V30 2744 C 257.848 -1.95659 -3.8066 0
M  V30 2745 C 257.174 -1.50224 -5.13164 0
M  V30 2746 C 258.474 -3.36788 -3.99213 0
M  V30 2747 H 260.168 -2.13476 -2.09925 0
M  V30 2748 H 257.714 -1.02775 -1.00863 0
M  V30 2749 H 259.667 -0.799094 -4.13754 0
M  V30 2750 H 258.391 0.0856125 -3.26488 0
M  V30 2751 H 257.05 -2.03591 -3.04871 0
M  V30 2752 H 256.698 -0.516092 -5.00345 0
M  V30 2753 H 256.398 -2.2165 -5.44192 0
M  V30 2754 H 257.922 -1.42639 -5.93706 0
M  V30 2755 H 259.336 -3.31605 -4.67665 0
M  V30 2756 H 257.733 -4.06314 -4.41621 0
M  V30 2757 H 258.803 -3.78561 -3.03017 0
M  V30 2758 N 260.146 1.09593 -1.13257 0
M  V30 2759 C 261.094 2.18271 -0.803783 0
M  V30 2760 C 262.088 1.68054 0.213148 0
M  V30 2761 O 263.294 1.79862 0.0704699 0
M  V30 2762 H 259.669 0.711949 -0.242143 0
M  V30 2763 H 261.64 2.43235 -1.72856 0
M  V30 2764 C 260.389 3.46536 -0.28424 0
M  V30 2765 H 259.712 3.85545 -1.05807 0
M  V30 2766 H 261.152 4.23899 -0.0925945 0
M  V30 2767 C 259.611 3.22036 0.989684 0
M  V30 2768 O 260.141 3.44509 2.06584 0
M  V30 2769 N 258.347 2.7565 0.920086 0
M  V30 2770 H 257.894 2.57562 0.0442019 0
M  V30 2771 H 257.852 2.59635 1.77306 0
M  V30 2772 N 261.624 0.925811 1.2754 0
M  V30 2773 C 263.04 0.625767 1.46821 0
M  V30 2774 C 263.24 -0.825506 1.83814 0
M  V30 2775 O 262.296 -1.60356 1.95044 0
M  V30 2776 C 263.609 1.57402 2.56213 0
M  V30 2777 C 265.157 1.58204 2.70075 0
M  V30 2778 C 265.632 2.51721 3.82623 0
M  V30 2779 N 267.123 2.49917 3.89994 0
M  V30 2780 C 267.858 3.18968 4.76494 0
M  V30 2781 N 267.354 3.97391 5.67496 0
M  V30 2782 N 269.147 3.07996 4.70208 0
M  V30 2783 H 261.298 1.86409 1.01811 0
M  V30 2784 H 263.561 0.800213 0.508295 0
M  V30 2785 H 263.267 2.60925 2.35819 0
M  V30 2786 H 263.141 1.31428 3.53563 0
M  V30 2787 H 265.528 0.554124 2.89851 0
M  V30 2788 H 265.609 1.88226 1.73218 0
M  V30 2789 H 265.253 3.54622 3.63601 0
M  V30 2790 H 265.183 2.18996 4.78903 0
M  V30 2791 H 267.674 1.9296 3.24923 0
M  V30 2792 H 267.987 4.4707 6.30356 0
M  V30 2793 H 266.332 4.01495 5.67298 0
M  V30 2794 H 269.523 2.46223 3.9811 0
M  V30 2795 H 269.696 3.6208 5.37403 0
M  V30 2796 N 263.102 -1.41638 0.69111 0
M  V30 2797 C 264.348 -2.01598 0.220519 0
M  V30 2798 C 264.681 -1.54594 -1.17535 0
M  V30 2799 O 263.956 -0.755177 -1.79241 0
M  V30 2800 C 264.239 -3.59062 0.273243 0
M  V30 2801 C 264.092 -4.16203 1.70573 0
M  V30 2802 C 265.411 -4.38546 -0.369457 0
M  V30 2803 H 262.53 -0.732468 0.0816045 0
M  V30 2804 H 265.172 -1.68445 0.878986 0
M  V30 2805 H 263.322 -3.87435 -0.287411 0
M  V30 2806 H 264.994 -3.98722 2.31989 0
M  V30 2807 H 263.237 -3.71414 2.2413 0
M  V30 2808 H 263.908 -5.25358 1.69419 0
M  V30 2809 H 266.384 -4.1596 0.107977 0
M  V30 2810 H 265.26 -5.48069 -0.302002 0
M  V30 2811 H 265.521 -4.17662 -1.44951 0
M  V30 2812 N 264.58 -0.43555 -1.51462 0
M  V30 2813 C 265.826 0.131709 -2.02372 0
M  V30 2814 C 266.159 1.42516 -1.3192 0
M  V30 2815 O 265.434 1.89606 -0.433573 0
M  V30 2816 C 265.717 0.352301 -3.58373 0
M  V30 2817 C 265.57 -0.959676 -4.39443 0
M  V30 2818 C 266.889 1.12286 -4.25535 0
M  V30 2819 H 264.008 0.0463936 -0.735538 0
M  V30 2820 H 266.65 -0.574197 -1.81116 0
M  V30 2821 H 264.8 0.9536 -3.76615 0
M  V30 2822 H 266.472 -1.59482 -4.32855 0
M  V30 2823 H 264.715 -1.56468 -4.04599 0
M  V30 2824 H 265.386 -0.759394 -5.46752 0
M  V30 2825 H 267.862 0.613545 -4.11552 0
M  V30 2826 H 266.738 1.24598 -5.34571 0
M  V30 2827 H 266.999 2.15048 -3.86273 0
M  V30 2828 N 266.058 1.56714 -0.166846 0
M  V30 2829 C 267.474 1.58473 0.189372 0
M  V30 2830 C 267.674 1.18201 1.63189 0
M  V30 2831 O 266.73 0.891528 2.36237 0
M  V30 2832 C 268.043 3.00573 -0.0873872 0
M  V30 2833 C 269.591 3.1299 -0.0252443 0
M  V30 2834 C 270.066 4.57174 -0.274934 0
M  V30 2835 N 271.557 4.62665 -0.222553 0
M  V30 2836 C 272.292 5.72072 -0.389985 0
M  V30 2837 N 271.788 6.90054 -0.616229 0
M  V30 2838 N 273.581 5.61153 -0.326202 0
M  V30 2839 H 265.732 1.8118 -1.10849 0
M  V30 2840 H 267.995 0.839525 -0.440342 0
M  V30 2841 H 267.701 3.34497 -1.0865 0
M  V30 2842 H 267.575 3.72019 0.623037 0
M  V30 2843 H 269.962 2.78895 0.96444 0
M  V30 2844 H 270.043 2.43989 -0.768309 0
M  V30 2845 H 269.687 4.91976 -1.26181 0
M  V30 2846 H 269.617 5.24328 0.48869 0
M  V30 2847 H 272.108 3.77863 -0.0531512 0
M  V30 2848 H 272.421 7.69311 -0.733559 0
M  V30 2849 H 270.766 6.91927 -0.652791 0
M  V30 2850 H 273.957 4.67859 -0.150072 0
M  V30 2851 H 274.13 6.46364 -0.460116 0
M  V30 2852 N 267.536 -0.106894 1.57237 0
M  V30 2853 C 268.783 -0.812526 1.85484 0
M  V30 2854 C 269.111 -1.79304 0.753687 0
M  V30 2855 O 268.366 -1.94047 -0.253853 0
M  V30 2856 C 268.665 -1.58628 3.20268 0
M  V30 2857 C 268.331 -0.748967 4.44636 0
M  V30 2858 C 266.993 -0.518104 4.78403 0
M  V30 2859 C 269.345 -0.166122 5.20935 0
M  V30 2860 C 266.673 0.305659 5.85903 0
M  V30 2861 C 269.025 0.644899 6.29304 0
M  V30 2862 C 267.689 0.885965 6.61594 0
M  V30 2863 H 266.959 -0.297324 0.678734 0
M  V30 2864 H 269.606 -0.0744332 1.91355 0
M  V30 2865 H 267.911 -2.39562 3.10028 0
M  V30 2866 H 269.608 -2.13643 3.39349 0
M  V30 2867 H 266.198 -0.939006 4.18187 0
M  V30 2868 H 270.382 -0.33167 4.95191 0
M  V30 2869 H 265.638 0.501528 6.0934 0
M  V30 2870 H 269.812 1.10345 6.87602 0
M  V30 2871 H 267.439 1.52609 7.44725 0
M  V30 2872 N 269.014 -1.53014 -0.377408 0
M  V30 2873 C 269.947 -1.73382 -1.48371 0
M  V30 2874 C 270.925 -0.581879 -1.51832 0
M  V30 2875 O 272.109 -0.81307 -1.70063 0
M  V30 2876 C 269.236 -1.80192 -2.8679 0
M  V30 2877 C 268.282 -3.02056 -3.01105 0
M  V30 2878 S 269.115 -4.61811 -2.71093 0
M  V30 2879 C 270.271 -4.71453 -4.11683 0
M  V30 2880 H 270.504 -2.66946 -1.30872 0
M  V30 2881 H 268.037 -1.43453 -0.571012 0
M  V30 2882 H 269.995 -1.84802 -3.6655 0
M  V30 2883 H 268.656 -0.877008 -3.01608 0
M  V30 2884 H 267.849 -3.03396 -4.02451 0
M  V30 2885 H 267.451 -2.95498 -2.29253 0
M  V30 2886 H 269.743 -4.50781 -5.0577 0
M  V30 2887 H 270.686 -5.73487 -4.15353 0
M  V30 2888 H 271.094 -4.00189 -3.98132 0
M  V30 2889 N 270.492 0.636531 -1.44174 0
M  V30 2890 C 271.741 1.39213 -1.45954 0
M  V30 2891 C 272.054 1.95374 -0.0939119 0
M  V30 2892 O 273.26 2.71498 0.0107767 0
M  V30 2893 C 271.716 2.52025 -2.56927 0
M  V30 2894 C 271.324 2.024 -3.99673 0
M  V30 2895 C 273.068 3.29269 -2.67922 0
M  V30 2896 C 270.975 3.12521 -5.0208 0
M  V30 2897 H 269.905 0.523132 -0.542999 0
M  V30 2898 H 272.556 0.685349 -1.70221 0
M  V30 2899 H 270.938 3.25253 -2.25891 0
M  V30 2900 H 272.112 1.36073 -4.40251 0
M  V30 2901 H 270.427 1.37987 -3.92872 0
M  V30 2902 H 273.024 4.11352 -3.41605 0
M  V30 2903 H 273.367 3.78397 -1.73555 0
M  V30 2904 H 273.9 2.63129 -2.98342 0
M  V30 2905 H 270.639 2.68343 -5.98057 0
M  V30 2906 H 270.159 3.77507 -4.66099 0
M  V30 2907 H 271.838 3.77385 -5.25538 0
M  V30 2908 N 271.97 1.30982 0.876444 0
M  V30 2909 C 273.247 1.10942 1.61094 0
M  V30 2910 C 273.627 -0.338223 2.08373 0
M  V30 2911 O 272.975 -1.33122 1.85717 0
M  V30 2912 C 273.185 2.11789 2.77392 0
M  V30 2913 C 274.533 2.43965 3.47514 0
M  V30 2914 O 275.557 2.10166 2.87591 0
M  V30 2915 O 274.416 3.01817 4.55597 0
M  V30 2916 H 271.51 0.42667 0.708436 0
M  V30 2917 H 274.056 1.42438 0.922474 0
M  V30 2918 H 272.828 3.09194 2.39823 0
M  V30 2919 H 272.451 1.81161 3.5393 0
M  V30 2920 N 273.449 -1.08991 1.13837 0
M  V30 2921 C 274.86 -1.62746 0.914917 0
M  V30 2922 C 275.211 -1.88403 -0.547594 0
M  V30 2923 O 274.336 -1.63706 -1.41525 0
M  V30 2924 C 274.931 -2.95662 1.65437 0
M  V30 2925 C 273.49 -3.46225 1.47666 0
M  V30 2926 C 272.637 -2.20562 1.6807 0
M  V30 2927 H 275.588 -0.922946 1.29102 0
M  V30 2928 H 275.609 -3.63825 1.11407 0
M  V30 2929 H 275.121 -2.76956 2.71877 0
M  V30 2930 H 273.222 -3.70046 0.435478 0
M  V30 2931 H 273.335 -4.23368 2.24268 0
M  V30 2932 H 271.699 -2.29439 1.10589 0
M  V30 2933 H 272.482 -2.0437 2.7584 0
M  V30 2934 N 274.927 -0.932562 -1.27047 0
M  V30 2935 C 275.877 -0.406392 -2.24349 0
M  V30 2936 C 276.861 0.492066 -1.53191 0
M  V30 2937 O 278.053 0.328717 -1.73921 0
M  V30 2938 C 275.182 0.335214 -3.41659 0
M  V30 2939 C 274.268 -0.58004 -4.20115 0
M  V30 2940 N 274.659 -1.70203 -4.76303 0
M  V30 2941 C 272.957 -0.383974 -4.44344 0
M  V30 2942 C 273.658 -2.27167 -5.35509 0
M  V30 2943 N 272.634 -1.56068 -5.20715 0
M  V30 2944 H 276.436 -1.26299 -2.65378 0
M  V30 2945 H 273.95 -0.787408 -1.42034 0
M  V30 2946 H 275.947 0.729142 -4.10474 0
M  V30 2947 H 274.607 1.18868 -3.0216 0
M  V30 2948 H 275.618 -2.08433 -4.74106 0
M  V30 2949 H 272.295 0.428436 -4.15296 0
M  V30 2950 H 273.685 -3.21654 -5.89905 0
M  V30 2951 N 276.405 1.4127 -0.698611 0
M  V30 2952 C 277.682 1.94955 -0.158762 0
M  V30 2953 C 278.062 1.63781 1.33188 0
M  V30 2954 O 277.41 0.946423 2.07979 0
M  V30 2955 C 277.62 3.46044 -0.453309 0
M  V30 2956 C 278.968 4.22872 -0.382707 0
M  V30 2957 O 279.992 3.54076 -0.388396 0
M  V30 2958 O 278.851 5.45407 -0.345463 0
M  V30 2959 H 275.945 0.82683 -0.0167505 0
M  V30 2960 H 278.491 1.50971 -0.77498 0
M  V30 2961 H 277.263 3.62028 -1.48498 0
M  V30 2962 H 276.886 3.97128 0.19373 0
M  V30 2963 N 277.883 0.443576 1.51229 0
M  V30 2964 C 278.793 -0.370721 2.31652 0
M  V30 2965 C 279.809 -1.02186 1.40833 0
M  V30 2966 O 280.985 -1.01586 1.73903 0
M  V30 2967 C 278.05 -1.45376 3.14749 0
M  V30 2968 C 277.111 -0.822099 4.21355 0
M  V30 2969 C 276.344 -1.85353 5.0048 0
M  V30 2970 O 276.567 -3.07656 4.80316 0
M  V30 2971 O 275.501 -1.4406 5.84406 0
M  V30 2972 H 279.327 0.286002 3.0235 0
M  V30 2973 H 276.912 0.20598 1.47973 0
M  V30 2974 H 278.794 -2.08173 3.66391 0
M  V30 2975 H 277.469 -2.09445 2.46809 0
M  V30 2976 H 276.376 -0.155909 3.73775 0
M  V30 2977 H 277.709 -0.224797 4.91686 0
M  V30 2978 N 279.361 -1.56624 0.175154 0
M  V30 2979 C 280.777 -1.58571 -0.180966 0
M  V30 2980 C 280.977 -1.19065 -1.6256 0
M  V30 2981 O 280.033 -0.904044 -2.35761 0
M  V30 2982 C 281.346 -3.00522 0.103326 0
M  V30 2983 C 282.894 -3.12972 0.0418426 0
M  V30 2984 C 283.369 -4.57022 0.299175 0
M  V30 2985 N 284.86 -4.62541 0.247086 0
M  V30 2986 C 285.595 -5.71857 0.420318 0
M  V30 2987 N 285.091 -6.89717 0.652816 0
M  V30 2988 N 286.884 -5.60972 0.355957 0
M  V30 2989 H 279.035 -1.80589 1.11809 0
M  V30 2990 H 281.298 -0.837178 0.444788 0
M  V30 2991 H 281.004 -3.33916 1.10422 0
M  V30 2992 H 280.878 -3.72344 -0.603299 0
M  V30 2993 H 283.265 -2.79403 -0.949636 0
M  V30 2994 H 283.346 -2.43578 0.781238 0
M  V30 2995 H 282.99 -4.913 1.28788 0
M  V30 2996 H 282.92 -5.24579 -0.460876 0
M  V30 2997 H 285.411 -3.77829 0.0731895 0
M  V30 2998 H 285.724 -7.68911 0.774347 0
M  V30 2999 H 284.069 -6.91572 0.689476 0
M  V30 3000 H 287.26 -4.67773 0.174882 0
M  V30 3001 H 287.433 -6.46111 0.494388 0
M  V30 3002 N 280.839 0.0985539 -1.57292 0
M  V30 3003 C 282.067 0.816318 -1.90115 0
M  V30 3004 C 282.482 1.72451 -0.768509 0
M  V30 3005 O 281.839 1.80643 0.259687 0
M  V30 3006 C 281.89 1.63259 -3.22535 0
M  V30 3007 O 281.611 0.760934 -4.31441 0
M  V30 3008 C 283.112 2.45372 -3.69199 0
M  V30 3009 H 280.332 0.233595 -0.629027 0
M  V30 3010 H 282.876 0.0768229 -2.04356 0
M  V30 3011 H 281.031 2.32463 -3.09903 0
M  V30 3012 H 281.445 1.32595 -5.07463 0
M  V30 3013 H 282.919 2.98144 -4.64558 0
M  V30 3014 H 283.396 3.23677 -2.96867 0
M  V30 3015 H 284.002 1.81373 -3.84687 0
M  V30 3016 N 282.317 1.53212 0.369288 0
M  V30 3017 C 283.594 1.59815 1.12776 0
M  V30 3018 C 283.974 0.403402 2.0721 0
M  V30 3019 O 283.322 -0.606667 2.20299 0
M  V30 3020 C 283.532 2.94664 1.87013 0
M  V30 3021 C 284.88 3.49109 2.41677 0
M  V30 3022 O 285.904 2.96669 1.97144 0
M  V30 3023 O 284.763 4.40775 3.23079 0
M  V30 3024 H 281.857 0.645376 0.517125 0
M  V30 3025 H 284.403 1.65553 0.37285 0
M  V30 3026 H 283.175 3.73061 1.18071 0
M  V30 3027 H 282.798 2.92401 2.69421 0
M  V30 3028 N 283.795 -0.628877 1.44509 0
M  V30 3029 C 284.705 -1.7694 1.54044 0
M  V30 3030 C 285.721 -1.68705 0.425987 0
M  V30 3031 O 286.897 -1.89442 0.683656 0
M  V30 3032 C 283.962 -3.13332 1.48405 0
M  V30 3033 C 283.023 -3.33181 2.70719 0
M  V30 3034 C 282.256 -4.63067 2.6534 0
M  V30 3035 O 282.479 -5.44017 1.71469 0
M  V30 3036 O 281.413 -4.85167 3.56226 0
M  V30 3037 H 285.239 -1.71848 2.50403 0
M  V30 3038 H 282.824 -0.790378 1.26781 0
M  V30 3039 H 284.706 -3.94634 1.47791 0
M  V30 3040 H 283.381 -3.1896 0.551898 0
M  V30 3041 H 282.288 -2.51549 2.769 0
M  V30 3042 H 283.621 -3.32416 3.62988 0
M  V30 3043 N 285.273 -1.31445 -0.869486 0
M  V30 3044 C 286.55 -1.11795 -1.60503 0
M  V30 3045 C 286.93 0.327168 -2.08549 0
M  V30 3046 O 286.278 1.32135 -1.8642 0
M  V30 3047 C 286.488 -2.13258 -2.76265 0
M  V30 3048 C 287.836 -2.45805 -3.46215 0
M  V30 3049 O 288.86 -2.11688 -2.86473 0
M  V30 3050 O 287.719 -3.04228 -4.5399 0
M  V30 3051 H 284.813 -0.430421 -0.706163 0
M  V30 3052 H 287.359 -1.42925 -0.914907 0
M  V30 3053 H 286.131 -3.10461 -2.3818 0
M  V30 3054 H 285.754 -1.83035 -3.52964 0
M  V30 3055 N 286.751 1.08385 -1.14413 0
M  V30 3056 C 287.981 1.8425 -0.934644 0
M  V30 3057 C 288.389 1.81907 0.520234 0
M  V30 3058 O 287.732 1.22126 1.37226 0
M  V30 3059 C 287.794 3.32853 -1.35828 0
M  V30 3060 C 287.458 3.5893 -2.82875 0
M  V30 3061 C 288.455 3.53756 -3.80989 0
M  V30 3062 C 286.14 3.86934 -3.20293 0
M  V30 3063 C 288.134 3.76216 -5.14529 0
M  V30 3064 C 285.821 4.09047 -4.54008 0
M  V30 3065 C 286.819 4.03682 -5.50936 0
M  V30 3066 O 286.507 4.25214 -6.82238 0
M  V30 3067 H 286.239 0.588502 -0.332628 0
M  V30 3068 H 288.793 1.37792 -1.52324 0
M  V30 3069 H 287.023 3.8007 -0.713019 0
M  V30 3070 H 288.712 3.90154 -1.11957 0
M  V30 3071 H 289.478 3.32135 -3.53428 0
M  V30 3072 H 285.357 3.9023 -2.45442 0
M  V30 3073 H 288.901 3.71943 -5.90173 0
M  V30 3074 H 284.798 4.30151 -4.8129 0
M  V30 3075 H 285.566 4.42619 -6.88499 0
M  V30 3076 N 288.23 0.939286 1.26551 0
M  V30 3077 C 289.46 0.601663 1.97645 0
M  V30 3078 C 289.868 -0.827206 1.70159 0
M  V30 3079 O 289.211 -1.56291 0.965338 0
M  V30 3080 C 289.273 0.761725 3.51337 0
M  V30 3081 C 288.937 2.16487 4.0247 0
M  V30 3082 C 289.934 3.14016 4.14355 0
M  V30 3083 C 287.619 2.48494 4.36527 0
M  V30 3084 C 289.613 4.41654 4.59587 0
M  V30 3085 C 287.3 3.76364 4.81449 0
M  V30 3086 C 288.298 4.72758 4.92939 0
M  V30 3087 O 287.986 5.98352 5.36871 0
M  V30 3088 H 287.718 0.225758 0.637189 0
M  V30 3089 H 290.272 1.26178 1.62075 0
M  V30 3090 H 288.502 0.0444808 3.86674 0
M  V30 3091 H 290.191 0.427442 4.03643 0
M  V30 3092 H 290.957 2.90613 3.8829 0
M  V30 3093 H 286.836 1.74202 4.26819 0
M  V30 3094 H 290.38 5.16896 4.68471 0
M  V30 3095 H 286.277 3.99582 5.06956 0
M  V30 3096 H 287.045 6.01507 5.55096 0
M  V30 3097 N 289.708 -1.40897 0.706093 0
M  V30 3098 C 290.618 -2.3455 0.0482286 0
M  V30 3099 C 291.634 -1.56796 -0.754396 0
M  V30 3100 O 292.81 -1.89228 -0.689538 0
M  V30 3101 C 289.875 -3.35625 -0.869303 0
M  V30 3102 C 288.936 -4.29261 -0.0576994 0
M  V30 3103 C 288.169 -5.25508 -0.931531 0
M  V30 3104 O 288.392 -5.27472 -2.17092 0
M  V30 3105 O 287.326 -6.00727 -0.375587 0
M  V30 3106 H 291.152 -2.92407 0.820476 0
M  V30 3107 H 288.737 -1.4193 0.4665 0
M  V30 3108 H 290.619 -3.97635 -1.39514 0
M  V30 3109 H 289.294 -2.80196 -1.62086 0
M  V30 3110 H 288.201 -3.70566 0.512988 0
M  V30 3111 H 289.534 -4.87817 0.655426 0
M  V30 3112 N 291.186 -0.45159 -1.50991 0
M  V30 3113 C 292.116 0.342898 -2.30969 0
M  V30 3114 C 293.097 1.00815 -1.37005 0
M  V30 3115 O 294.282 1.00907 -1.65926 0
M  V30 3116 C 291.412 1.43637 -3.16205 0
M  V30 3117 C 290.366 0.893818 -4.18563 0
M  V30 3118 C 289.692 2.08411 -4.92411 0
M  V30 3119 C 290.992 -0.0815568 -5.22236 0
M  V30 3120 H 292.686 -0.324556 -2.97636 0
M  V30 3121 H 290.232 -0.157531 -1.43136 0
M  V30 3122 H 292.185 1.9995 -3.70942 0
M  V30 3123 H 290.909 2.13232 -2.47386 0
M  V30 3124 H 289.568 0.352798 -3.64898 0
M  V30 3125 H 289.216 2.76658 -4.20082 0
M  V30 3126 H 288.916 1.72741 -5.61636 0
M  V30 3127 H 290.44 2.65251 -5.49976 0
M  V30 3128 H 291.854 0.391742 -5.7196 0
M  V30 3129 H 290.251 -0.351551 -5.99069 0
M  V30 3130 H 291.321 -1.01374 -4.74185 0
M  V30 3131 N 292.664 1.56529 -0.183458 0
M  V30 3132 C 293.913 1.96419 0.458511 0
M  V30 3133 C 294.226 1.0727 1.63562 0
M  V30 3134 O 295.432 1.36893 2.34462 0
M  V30 3135 C 293.888 3.49298 0.867122 0
M  V30 3136 C 293.496 4.47092 -0.285057 0
M  V30 3137 C 295.24 3.97983 1.47683 0
M  V30 3138 C 293.147 5.91225 0.143862 0
M  V30 3139 H 292.077 0.733394 0.175071 0
M  V30 3140 H 294.728 1.81448 -0.273624 0
M  V30 3141 H 293.11 3.59731 1.65559 0
M  V30 3142 H 294.284 4.48383 -1.0625 0
M  V30 3143 H 292.599 4.08535 -0.805503 0
M  V30 3144 H 295.196 5.03134 1.80999 0
M  V30 3145 H 295.539 3.41618 2.37914 0
M  V30 3146 H 296.072 3.90617 0.752562 0
M  V30 3147 H 292.811 6.5149 -0.723974 0
M  V30 3148 H 292.331 5.93214 0.886413 0
M  V30 3149 H 294.01 6.44362 0.583628 0
M  V30 3150 N 294.142 -0.090211 1.57342 0
M  V30 3151 C 295.39 -0.791241 1.85967 0
M  V30 3152 C 295.711 -1.7903 0.772859 0
M  V30 3153 O 294.981 -1.94872 -0.200398 0
M  V30 3154 H 293.561 -0.295205 0.686195 0
M  V30 3155 H 296.223 -0.0706782 1.94772 0
M  V30 3156 H 295.319 -1.31882 2.82867 0
M  V30 3157 N 295.62 -1.53406 -0.361157 0
M  V30 3158 C 296.897 -1.60411 -1.11927 0
M  V30 3159 C 297.277 -0.414385 -2.06993 0
M  V30 3160 O 296.625 0.594976 -2.20618 0
M  V30 3161 C 296.835 -2.95652 -1.85448 0
M  V30 3162 C 298.183 -3.50386 -2.39823 0
M  V30 3163 O 299.207 -2.97711 -1.95568 0
M  V30 3164 O 298.066 -4.42482 -3.20737 0
M  V30 3165 H 295.16 -0.64811 -0.513695 0
M  V30 3166 H 297.706 -1.65749 -0.364065 0
M  V30 3167 H 296.478 -3.73682 -1.16091 0
M  V30 3168 H 296.101 -2.93825 -2.67866 0
M  V30 3169 N 297.098 0.621204 -1.44841 0
M  V30 3170 C 298.375 1.38 -1.38619 0
M  V30 3171 C 298.755 2.11041 -0.0498935 0
M  V30 3172 O 298.103 2.06992 0.967816 0
M  V30 3173 C 298.313 2.33817 -2.59096 0
M  V30 3174 C 299.661 2.96844 -3.03593 0
M  V30 3175 O 300.685 2.44141 -2.59371 0
M  V30 3176 O 299.544 3.92476 -3.80296 0
M  V30 3177 H 296.638 0.61811 -0.549426 0
M  V30 3178 H 299.184 0.645429 -1.56947 0
M  V30 3179 H 297.956 1.79012 -3.47952 0
M  V30 3180 H 297.579 3.14676 -2.43032 0
M  V30 3181 N 298.576 1.31904 0.862503 0
M  V30 3182 C 299.853 1.12644 1.59908 0
M  V30 3183 C 300.233 -0.316104 2.0872 0
M  V30 3184 O 299.581 -1.31145 1.87118 0
M  V30 3185 C 299.791 2.1472 2.7513 0
M  V30 3186 C 301.139 2.47637 3.44907 0
M  V30 3187 O 302.163 2.13205 2.85346 0
M  V30 3188 O 301.022 3.06632 4.52371 0
M  V30 3189 H 298.116 0.43416 0.703871 0
M  V30 3190 H 300.662 1.43408 0.907314 0
M  V30 3191 H 299.434 3.1172 2.3653 0
M  V30 3192 H 299.057 1.84905 3.51989 0
M  V30 3193 N 300.054 -1.07777 1.14986 0
M  V30 3194 C 301.302 -1.79934 0.920235 0
M  V30 3195 C 301.623 -1.86955 -0.554336 0
M  V30 3196 O 300.893 -1.36731 -1.40291 0
M  V30 3197 H 299.473 -0.666424 0.337473 0
M  V30 3198 H 302.135 -1.3027 1.44968 0
M  V30 3199 H 301.231 -2.82539 1.32583 0
M  V30 3200 N 301.532 -0.945985 -1.26051 0
M  V30 3201 C 302.778 -0.597002 -1.93814 0
M  V30 3202 C 303.111 0.862484 -1.73997 0
M  V30 3203 O 302.386 1.61769 -1.07986 0
M  V30 3204 C 302.669 -0.945937 -3.47454 0
M  V30 3205 C 302.522 -2.46052 -3.76535 0
M  V30 3206 C 303.841 -0.464785 -4.37639 0
M  V30 3207 H 300.96 -0.218366 -0.703907 0
M  V30 3208 H 303.602 -1.18107 -1.48831 0
M  V30 3209 H 301.752 -0.448902 -3.85898 0
M  V30 3210 H 303.424 -3.03065 -3.47778 0
M  V30 3211 H 301.667 -2.90194 -3.22444 0
M  V30 3212 H 302.338 -2.65517 -4.83947 0
M  V30 3213 H 304.814 -0.891016 -4.06448 0
M  V30 3214 H 303.69 -0.737712 -5.4392 0
M  V30 3215 H 303.951 0.635274 -4.37512 0
M  V30 3216 N 303.011 1.40521 -0.713556 0
M  V30 3217 C 304.258 2.00923 -0.25219 0
M  V30 3218 C 304.586 1.56571 1.15395 0
M  V30 3219 O 303.841 0.775874 1.79663 0
M  V30 3220 C 304.14 3.56317 -0.278 0
M  V30 3221 C 303.806 4.20246 -1.63415 0
M  V30 3222 C 302.468 4.37422 -2.00538 0
M  V30 3223 C 304.82 4.55923 -2.52554 0
M  V30 3224 C 302.148 4.87558 -3.2635 0
M  V30 3225 C 304.5 5.07458 -3.77716 0
M  V30 3226 C 303.164 5.22843 -4.14959 0
M  V30 3227 H 302.434 0.735231 -0.0922829 0
M  V30 3228 H 305.081 1.68161 -0.916188 0
M  V30 3229 H 303.386 3.88976 0.469567 0
M  V30 3230 H 305.083 4.00883 0.0967819 0
M  V30 3231 H 301.673 4.07263 -1.33546 0
M  V30 3232 H 305.857 4.42291 -2.25149 0
M  V30 3233 H 301.113 4.97654 -3.55176 0
M  V30 3234 H 305.287 5.34041 -4.4696 0
M  V30 3235 H 302.914 5.61454 -5.12516 0
M  V30 3236 N 304.489 0.459591 1.5075 0
M  V30 3237 C 305.737 -0.0991532 2.01857 0
M  V30 3238 C 306.058 -1.41247 1.34441 0
M  V30 3239 O 305.328 -1.89775 0.486022 0
M  V30 3240 H 303.908 -0.039633 0.745948 0
M  V30 3241 H 306.57 0.607387 1.85194 0
M  V30 3242 H 305.666 -0.258998 3.11023 0
M  V30 3243 N 305.967 -1.56429 0.191757 0
M  V30 3244 C 307.207 -1.99383 -0.450099 0
M  V30 3245 C 307.571 -1.07581 -1.59029 0
M  V30 3246 O 308.772 -1.39758 -2.29611 0
M  V30 3247 C 307.043 -3.45841 -0.901611 0
M  V30 3248 S 308.602 -4.10822 -1.54177 0
M  V30 3249 H 305.42 -0.696253 -0.144057 0
M  V30 3250 H 308.022 -1.93276 0.294036 0
M  V30 3251 H 306.726 -4.10354 -0.0616596 0
M  V30 3252 H 306.257 -3.55757 -1.67929 0
M  V30 3253 H 308.272 -4.07553 -2.83046 0
M  V30 3254 N 307.445 0.0818655 -1.57387 0
M  V30 3255 C 308.378 1.12986 -1.98266 0
M  V30 3256 C 309.356 1.38123 -0.857954 0
M  V30 3257 O 310.54 1.51663 -1.1194 0
M  V30 3258 C 307.667 2.47632 -2.31076 0
M  V30 3259 C 306.713 2.38693 -3.53452 0
M  V30 3260 S 307.546 1.79071 -5.04672 0
M  V30 3261 C 308.702 3.15316 -5.40673 0
M  V30 3262 H 308.935 0.781435 -2.86846 0
M  V30 3263 H 306.468 0.290034 -1.51651 0
M  V30 3264 H 308.426 3.25089 -2.50654 0
M  V30 3265 H 307.087 2.79638 -1.43043 0
M  V30 3266 H 306.28 3.37964 -3.73893 0
M  V30 3267 H 305.882 1.69369 -3.33452 0
M  V30 3268 H 308.174 4.11613 -5.38127 0
M  V30 3269 H 309.117 2.99664 -6.41566 0
M  V30 3270 H 309.525 3.15457 -4.68132 0
M  V30 3271 N 308.923 1.53595 0.353017 0
M  V30 3272 C 310.151 1.74311 1.1146 0
M  V30 3273 C 310.566 0.477854 1.82653 0
M  V30 3274 O 309.923 -0.549977 1.74016 0
M  V30 3275 C 309.974 2.91694 2.13534 0
M  V30 3276 O 309.695 4.13325 1.45238 0
M  V30 3277 C 311.196 3.24384 3.02142 0
M  V30 3278 H 308.416 0.582669 0.332773 0
M  V30 3279 H 310.96 2.00386 0.408107 0
M  V30 3280 H 309.115 2.67977 2.79763 0
M  V30 3281 H 309.529 4.79148 2.13349 0
M  V30 3282 H 311.003 4.09893 3.69718 0
M  V30 3283 H 311.48 2.40282 3.67643 0
M  V30 3284 H 312.086 3.50073 2.41514 0
M  V30 3285 N 310.401 -0.613514 1.45168 0
M  V30 3286 C 311.331 -1.7354 1.56225 0
M  V30 3287 C 312.312 -1.64981 0.41414 0
M  V30 3288 O 313.497 -1.83472 0.636526 0
M  V30 3289 C 310.627 -3.12128 1.52295 0
M  V30 3290 C 309.581 -3.35491 2.65762 0
M  V30 3291 C 308.907 -4.74291 2.46885 0
M  V30 3292 C 310.207 -3.26325 4.0781 0
M  V30 3293 H 311.901 -1.64543 2.50132 0
M  V30 3294 H 309.447 -0.790185 1.20383 0
M  V30 3295 H 311.4 -3.90404 1.58628 0
M  V30 3296 H 310.124 -3.2195 0.549139 0
M  V30 3297 H 308.783 -2.59603 2.58847 0
M  V30 3298 H 308.431 -4.80839 1.47657 0
M  V30 3299 H 308.131 -4.9088 3.22972 0
M  V30 3300 H 309.655 -5.54775 2.55063 0
M  V30 3301 H 311.069 -3.94483 4.16 0
M  V30 3302 H 309.466 -3.54445 4.8424 0
M  V30 3303 H 310.536 -2.23855 4.30136 0
M  V30 3304 N 311.879 -1.3236 -0.855495 0
M  V30 3305 C 312.809 -1.23833 -1.97958 0
M  V30 3306 C 313.79 -0.122361 -1.69659 0
M  V30 3307 O 314.975 -0.30939 -1.9172 0
M  V30 3308 C 312.105 -0.959772 -3.33775 0
M  V30 3309 C 311.059 -2.03689 -3.76424 0
M  V30 3310 C 310.385 -1.61075 -5.09862 0
M  V30 3311 C 311.685 -3.4518 -3.9198 0
M  V30 3312 H 313.379 -2.1788 -2.0535 0
M  V30 3313 H 310.925 -1.04891 -0.986605 0
M  V30 3314 H 312.878 -0.886678 -4.11966 0
M  V30 3315 H 311.602 0.0163404 -3.26596 0
M  V30 3316 H 310.261 -2.10012 -3.00484 0
M  V30 3317 H 309.909 -0.622107 -4.99138 0
M  V30 3318 H 309.609 -2.33143 -5.39368 0
M  V30 3319 H 311.133 -1.55201 -5.90546 0
M  V30 3320 H 312.547 -3.4145 -4.60526 0
M  V30 3321 H 310.944 -4.1559 -4.32903 0
M  V30 3322 H 312.014 -3.84903 -2.94919 0
M  V30 3323 N 313.357 1.07166 -1.15556 0
M  V30 3324 C 314.32 2.12589 -0.856644 0
M  V30 3325 C 315.32 1.6015 0.14444 0
M  V30 3326 O 316.51 1.7399 -0.0854163 0
M  V30 3327 C 313.642 3.39753 -0.279405 0
M  V30 3328 H 314.835 2.40539 -1.79112 0
M  V30 3329 H 312.388 1.23086 -0.963298 0
M  V30 3330 H 313.123 3.17447 0.663174 0
M  V30 3331 H 312.908 3.79117 -1.00063 0
M  V30 3332 H 314.398 4.17507 -0.0879113 0
M  V30 3333 N 314.835 0.952656 1.25548 0
M  V30 3334 C 316.075 0.614013 1.9496 0
M  V30 3335 C 316.439 -0.833215 1.72978 0
M  V30 3336 O 317.64 -1.28135 2.36294 0
M  V30 3337 C 315.911 0.960562 3.4425 0
M  V30 3338 S 317.47 0.734195 4.32614 0
M  V30 3339 H 314.288 0.225754 0.674208 0
M  V30 3340 H 316.89 1.22641 1.52248 0
M  V30 3341 H 315.594 2.01103 3.57751 0
M  V30 3342 H 315.125 0.338336 3.91942 0
M  V30 3343 H 317.14 -0.395995 4.94617 0
M  V30 3344 N 316.313 -1.40141 0.720998 0
M  V30 3345 C 317.263 -2.27949 0.0482544 0
M  V30 3346 C 318.247 -1.43538 -0.727021 0
M  V30 3347 O 319.439 -1.6658 -0.598332 0
M  V30 3348 C 316.568 -3.32126 -0.868729 0
M  V30 3349 C 315.654 -4.24008 -0.0883515 0
M  V30 3350 N 316.045 -4.97154 0.931226 0
M  V30 3351 C 314.343 -4.4485 -0.320105 0
M  V30 3352 C 315.044 -5.64587 1.4006 0
M  V30 3353 N 314.02 -5.38787 0.721752 0
M  V30 3354 H 317.822 -2.81948 0.829609 0
M  V30 3355 H 315.336 -1.52656 0.554067 0
M  V30 3356 H 317.333 -3.93884 -1.36605 0
M  V30 3357 H 315.993 -2.79687 -1.6494 0
M  V30 3358 H 317.004 -5.01 1.31222 0
M  V30 3359 H 313.681 -4.03378 -1.07668 0
M  V30 3360 H 315.071 -6.33175 2.24808 0
M  V30 3361 N 317.792 -0.46758 -1.50504 0
M  V30 3362 C 319.069 0.15003 -1.95024 0
M  V30 3363 C 319.449 1.57304 -1.40779 0
M  V30 3364 O 318.797 2.20281 -0.607319 0
M  V30 3365 C 319.007 0.0969324 -3.48865 0
M  V30 3366 C 320.355 0.287565 -4.23625 0
M  V30 3367 O 321.379 0.173678 -3.55776 0
M  V30 3368 O 320.238 0.517186 -5.44047 0
M  V30 3369 H 317.332 0.113582 -0.819163 0
M  V30 3370 H 319.878 -0.52773 -1.61286 0
M  V30 3371 H 318.65 -0.896732 -3.80886 0
M  V30 3372 H 318.273 0.816303 -3.8913 0
M  V30 3373 N 319.27 1.56325 -0.20005 0
M  V30 3374 C 320.516 1.98012 0.438059 0
M  V30 3375 C 320.849 1.08702 1.60927 0
M  V30 3376 O 320.124 0.140064 1.93995 0
M  V30 3377 C 320.407 3.48841 0.893419 0
M  V30 3378 C 320.26 4.48928 -0.279947 0
M  V30 3379 C 321.579 4.03498 1.75719 0
M  V30 3380 H 318.698 0.719918 0.157757 0
M  V30 3381 H 321.34 1.87743 -0.291968 0
M  V30 3382 H 319.49 3.57723 1.51547 0
M  V30 3383 H 321.162 4.52079 -0.91772 0
M  V30 3384 H 319.405 4.23694 -0.930919 0
M  V30 3385 H 320.076 5.5194 0.0812601 0
M  V30 3386 H 322.552 3.97427 1.23253 0
M  V30 3387 H 321.428 5.09393 2.04476 0
M  V30 3388 H 321.689 3.4906 2.71311 0
M  V30 3389 N 320.748 -0.0735177 1.57428 0
M  V30 3390 C 321.988 -0.778363 1.89 0
M  V30 3391 C 322.352 -1.7483 0.793634 0
M  V30 3392 O 323.553 -2.49811 0.992367 0
M  V30 3393 C 321.824 -1.46929 3.25802 0
M  V30 3394 S 323.383 -2.20943 3.79117 0
M  V30 3395 H 320.201 -0.258874 0.662197 0
M  V30 3396 H 322.803 -0.0345338 1.95469 0
M  V30 3397 H 321.507 -0.749532 4.03497 0
M  V30 3398 H 321.038 -2.25258 3.22525 0
M  V30 3399 H 323.053 -3.47435 3.54265 0
M  V30 3400 N 322.226 -1.5378 -0.344866 0
M  V30 3401 C 323.637 -1.62428 -0.920552 0
M  V30 3402 C 323.988 -0.504747 -1.89596 0
M  V30 3403 O 323.113 0.365711 -2.13287 0
M  V30 3404 C 323.708 -2.94419 -1.67639 0
M  V30 3405 C 322.267 -3.05333 -2.20111 0
M  V30 3406 C 321.414 -2.57866 -1.01982 0
M  V30 3407 H 324.365 -1.58222 -0.123042 0
M  V30 3408 H 324.386 -2.83384 -2.53917 0
M  V30 3409 H 323.898 -3.7588 -0.966224 0
M  V30 3410 H 321.999 -2.28502 -2.94308 0
M  V30 3411 H 322.112 -4.10778 -2.46573 0
M  V30 3412 H 320.476 -2.13241 -1.39285 0
M  V30 3413 H 321.259 -3.41765 -0.324308 0
M  V30 3414 N 323.704 0.605807 -1.45491 0
M  V30 3415 C 324.651 1.7164 -1.54299 0
M  V30 3416 C 325.621 1.61486 -0.388761 0
M  V30 3417 O 326.806 1.81039 -0.602445 0
M  V30 3418 C 323.946 3.09953 -1.51734 0
M  V30 3419 C 323.059 3.309 -2.77721 0
M  V30 3420 C 322.194 4.59329 -2.66816 0
M  V30 3421 C 321.233 4.7354 -3.87848 0
M  V30 3422 N 320.37 5.9327 -3.75467 0
M  V30 3423 H 325.21 1.63449 -2.49176 0
M  V30 3424 H 322.747 0.796957 -1.23641 0
M  V30 3425 H 324.705 3.89977 -1.48235 0
M  V30 3426 H 323.335 3.17098 -0.604068 0
M  V30 3427 H 322.387 2.44639 -2.913 0
M  V30 3428 H 323.699 3.37274 -3.67488 0
M  V30 3429 H 322.853 5.4755 -2.61292 0
M  V30 3430 H 321.592 4.55355 -1.74651 0
M  V30 3431 H 320.597 3.83741 -3.93729 0
M  V30 3432 H 321.822 4.79309 -4.81082 0
M  V30 3433 H 319.768 5.90338 -2.86072 0
M  V30 3434 H 319.685 6.00811 -4.5887 0
M  V30 3435 H 320.953 6.83984 -3.73879 0
M  V30 3436 N 325.182 1.32811 0.848464 0
M  V30 3437 C 326.13 1.22231 1.97895 0
M  V30 3438 C 327.124 0.125749 1.68933 0
M  V30 3439 O 328.33 0.289083 1.77663 0
M  V30 3440 H 324.705 0.379058 0.649476 0
M  V30 3441 H 326.676 2.17828 2.03945 0
M  V30 3442 C 325.425 0.968572 3.33937 0
M  V30 3443 H 324.748 1.80458 3.56756 0
M  V30 3444 H 326.188 0.934808 4.13567 0
M  V30 3445 C 324.647 -0.328628 3.35293 0
M  V30 3446 O 325.177 -1.33848 3.78745 0
M  V30 3447 N 323.383 -0.352788 2.88451 0
M  V30 3448 H 322.93 0.469541 2.53285 0
M  V30 3449 H 322.888 -1.22057 2.89741 0
M  V30 3450 N 326.66 -1.06551 1.16123 0
M  V30 3451 C 327.59 -2.15935 0.88851 0
M  V30 3452 C 328.571 -1.69306 -0.164135 0
M  V30 3453 O 329.756 -1.94193 -0.0167857 0
M  V30 3454 C 326.886 -3.45149 0.385942 0
M  V30 3455 C 325.84 -4.05271 1.3762 0
M  V30 3456 C 325.166 -5.29664 0.732137 0
M  V30 3457 C 326.466 -4.44355 2.74493 0
M  V30 3458 H 328.16 -2.39006 1.80323 0
M  V30 3459 H 325.706 -1.14866 0.868435 0
M  V30 3460 H 327.659 -4.21004 0.182647 0
M  V30 3461 H 326.383 -3.21689 -0.564274 0
M  V30 3462 H 325.042 -3.3147 1.56599 0
M  V30 3463 H 324.69 -5.02499 -0.224483 0
M  V30 3464 H 324.39 -5.70848 1.39307 0
M  V30 3465 H 325.914 -6.08218 0.538802 0
M  V30 3466 H 327.328 -5.11303 2.59311 0
M  V30 3467 H 325.725 -4.96515 3.37035 0
M  V30 3468 H 326.795 -3.55339 3.29943 0
M  V30 3469 N 328.138 -0.959301 -1.25041 0
M  V30 3470 C 329.549 -0.65667 -1.74771 0
M  V30 3471 C 329.9 0.827852 -1.77879 0
M  V30 3472 O 329.025 1.64783 -1.40269 0
M  V30 3473 C 329.62 -1.1853 -3.1739 0
M  V30 3474 C 328.179 -0.932734 -3.6466 0
M  V30 3475 C 327.326 -1.32558 -2.43564 0
M  V30 3476 H 330.277 -1.13558 -1.10862 0
M  V30 3477 H 330.298 -0.547582 -3.76539 0
M  V30 3478 H 329.81 -2.26576 -3.15095 0
M  V30 3479 H 327.911 0.13257 -3.72364 0
M  V30 3480 H 328.024 -1.57248 -4.52559 0
M  V30 3481 H 326.388 -0.743956 -2.43593 0
M  V30 3482 H 327.171 -2.41537 -2.43957 0
M  V30 3483 N 329.616 1.39756 -0.72842 0
M  V30 3484 C 330.546 2.33289 -0.0991354 0
M  V30 3485 C 331.527 1.53568 0.731489 0
M  V30 3486 O 332.712 1.81987 0.677807 0
M  V30 3487 C 329.842 3.3763 0.813834 0
M  V30 3488 C 328.796 4.2791 0.0878663 0
M  V30 3489 C 328.122 5.22894 1.11741 0
M  V30 3490 C 329.422 5.11314 -1.06563 0
M  V30 3491 H 331.116 2.86163 -0.880408 0
M  V30 3492 H 328.662 1.37591 -0.424819 0
M  V30 3493 H 330.615 4.0201 1.26355 0
M  V30 3494 H 329.339 2.83181 1.62715 0
M  V30 3495 H 327.998 3.65 -0.342159 0
M  V30 3496 H 327.646 4.64744 1.92412 0
M  V30 3497 H 327.346 5.84143 0.636477 0
M  V30 3498 H 328.87 5.90151 1.56697 0
M  V30 3499 H 330.284 5.69076 -0.694671 0
M  V30 3500 H 328.681 5.81671 -1.47577 0
M  V30 3501 H 329.751 4.46534 -1.89038 0
M  V30 3502 N 331.094 0.475555 1.50254 0
M  V30 3503 C 332.026 -0.352649 2.26471 0
M  V30 3504 C 333.039 -0.953165 1.3198 0
M  V30 3505 O 334.228 -0.840815 1.57457 0
M  V30 3506 C 331.328 -1.50902 3.0345 0
M  V30 3507 C 330.501 -1.02047 4.25329 0
M  V30 3508 C 329.56 -2.05142 4.84565 0
M  V30 3509 O 328.586 -1.63023 5.45355 0
M  V30 3510 N 329.788 -3.37987 4.71959 0
M  V30 3511 H 332.553 0.300767 2.98187 0
M  V30 3512 H 330.114 0.306598 1.5897 0
M  V30 3513 H 332.106 -2.19572 3.39956 0
M  V30 3514 H 330.676 -2.06705 2.34504 0
M  V30 3515 H 329.896 -0.159507 3.93877 0
M  V30 3516 H 331.184 -0.672061 5.04342 0
M  V30 3517 H 330.582 -3.74913 4.23623 0
M  V30 3518 H 329.139 -4.02443 5.12721 0
M  V30 3519 N 332.573 -1.56217 0.208337 0
M  V30 3520 C 333.798 -2.02782 -0.435222 0
M  V30 3521 C 334.223 -1.08738 -1.53485 0
M  V30 3522 O 333.581 -0.0731855 -1.81152 0
M  V30 3523 C 333.629 -3.47687 -0.956335 0
M  V30 3524 O 332.733 -3.56773 -2.06849 0
M  V30 3525 H 332.074 -0.656403 -0.100158 0
M  V30 3526 H 334.604 -2.02033 0.3231 0
M  V30 3527 H 334.614 -3.87745 -1.26955 0
M  V30 3528 H 333.289 -4.15624 -0.15143 0
M  V30 3529 H 331.866 -3.28597 -1.76292 0
M  V30 3530 N 334.051 0.0651679 -1.57465 0
M  V30 3531 C 334.998 1.07675 -2.04144 0
M  V30 3532 C 335.968 1.38071 -0.923335 0
M  V30 3533 O 337.153 1.49026 -1.19146 0
M  V30 3534 C 334.293 2.38337 -2.49579 0
M  V30 3535 C 333.406 2.14413 -3.75035 0
M  V30 3536 C 332.541 3.38686 -4.09225 0
M  V30 3537 C 331.58 3.10156 -5.27702 0
M  V30 3538 N 330.717 4.26778 -5.57499 0
M  V30 3539 H 335.557 0.671716 -2.90331 0
M  V30 3540 H 333.094 0.3201 -1.43575 0
M  V30 3541 H 335.052 3.14632 -2.73975 0
M  V30 3542 H 333.682 2.7663 -1.6636 0
M  V30 3543 H 332.734 1.2878 -3.57939 0
M  V30 3544 H 334.046 1.89344 -4.61466 0
M  V30 3545 H 333.2 4.23373 -4.34558 0
M  V30 3546 H 331.939 3.66837 -3.21374 0
M  V30 3547 H 330.944 2.23866 -5.02159 0
M  V30 3548 H 332.169 2.8332 -6.17176 0
M  V30 3549 H 330.115 4.54948 -4.72608 0
M  V30 3550 H 330.032 4.05005 -6.38362 0
M  V30 3551 H 331.3 5.12443 -5.87386 0
M  V30 3552 N 335.529 1.53961 0.336706 0
M  V30 3553 C 336.778 1.70751 1.07363 0
M  V30 3554 C 337.091 0.481061 1.89592 0
M  V30 3555 O 338.297 0.530046 2.66276 0
M  V30 3556 C 336.753 3.01965 1.95818 0
M  V30 3557 C 336.361 4.31971 1.18764 0
M  V30 3558 C 338.105 3.28121 2.69327 0
M  V30 3559 C 336.012 5.54255 2.06289 0
M  V30 3560 H 334.942 0.636292 0.404535 0
M  V30 3561 H 337.593 1.80459 0.332681 0
M  V30 3562 H 335.975 2.86132 2.7376 0
M  V30 3563 H 337.149 4.5853 0.456849 0
M  V30 3564 H 335.464 4.12481 0.569946 0
M  V30 3565 H 338.061 4.16673 3.35094 0
M  V30 3566 H 338.404 2.45426 3.36261 0
M  V30 3567 H 338.937 3.44762 1.98454 0
M  V30 3568 H 335.676 6.39513 1.43885 0
M  V30 3569 H 335.196 5.31935 2.77138 0
M  V30 3570 H 336.875 5.90159 2.65182 0
M  V30 3571 N 337.007 -0.598083 1.45811 0
M  V30 3572 C 337.97 -1.69018 1.54808 0
M  V30 3573 C 338.97 -1.55037 0.426652 0
M  V30 3574 O 340.16 -1.59932 0.690456 0
M  V30 3575 C 337.292 -3.0835 1.45371 0
M  V30 3576 H 338.485 -1.62403 2.52121 0
M  V30 3577 H 336.038 -0.814626 1.33392 0
M  V30 3578 H 336.773 -3.20534 0.492793 0
M  V30 3579 H 336.558 -3.19907 2.26721 0
M  V30 3580 H 338.048 -3.8788 1.54721 0
M  V30 3581 N 338.485 -1.33259 -0.841409 0
M  V30 3582 C 339.715 -1.2742 -1.62628 0
M  V30 3583 C 340.123 0.157604 -1.88542 0
M  V30 3584 O 339.466 1.10938 -1.46419 0
M  V30 3585 C 339.528 -1.97797 -3.00194 0
M  V30 3586 C 339.192 -3.47109 -2.97261 0
M  V30 3587 C 340.189 -4.42358 -2.73159 0
M  V30 3588 C 337.874 -3.89247 -3.17478 0
M  V30 3589 C 339.868 -5.77718 -2.69296 0
M  V30 3590 C 337.555 -5.24713 -3.13241 0
M  V30 3591 C 338.553 -6.1876 -2.89181 0
M  V30 3592 O 338.241 -7.51745 -2.84843 0
M  V30 3593 H 337.973 -0.440436 -0.512827 0
M  V30 3594 H 340.527 -1.76153 -1.05638 0
M  V30 3595 H 338.757 -1.43652 -3.59028 0
M  V30 3596 H 340.446 -1.8549 -3.61038 0
M  V30 3597 H 341.212 -4.11127 -2.57294 0
M  V30 3598 H 337.091 -3.16456 -3.35226 0
M  V30 3599 H 340.635 -6.51097 -2.50436 0
M  V30 3600 H 336.532 -5.55569 -3.28654 0
M  V30 3601 H 337.3 -7.61262 -3.00702 0
M  V30 3602 N 339.963 1.05934 -1.16686 0
M  V30 3603 C 340.893 2.1546 -0.899949 0
M  V30 3604 C 341.874 1.69391 0.155154 0
M  V30 3605 O 343.059 1.94199 0.00648693 0
M  V30 3606 C 340.189 3.44939 -0.404241 0
M  V30 3607 C 339.143 4.04536 -1.39767 0
M  V30 3608 C 338.469 5.29268 -0.760216 0
M  V30 3609 C 339.769 4.42893 -2.76845 0
M  V30 3610 H 341.463 2.38046 -1.81588 0
M  V30 3611 H 339.009 1.14404 -0.874514 0
M  V30 3612 H 340.962 4.20901 -0.204971 0
M  V30 3613 H 339.686 3.21983 0.547206 0
M  V30 3614 H 338.345 3.30635 -1.58355 0
M  V30 3615 H 337.993 5.02611 0.197831 0
M  V30 3616 H 337.693 5.70101 -1.42332 0
M  V30 3617 H 339.217 6.07924 -0.57105 0
M  V30 3618 H 340.631 5.09921 -2.62019 0
M  V30 3619 H 339.028 4.94721 -3.39663 0
M  V30 3620 H 340.098 3.53584 -3.31823 0
M  V30 3621 N 341.441 0.965919 1.2453 0
M  V30 3622 C 342.857 0.67216 1.44756 0
M  V30 3623 C 343.057 -0.766609 1.86347 0
M  V30 3624 O 342.113 -1.5407 2.00047 0
M  V30 3625 C 343.426 1.65473 2.51076 0
M  V30 3626 C 344.974 1.66716 2.64905 0
M  V30 3627 C 345.449 2.63766 3.74421 0
M  V30 3628 N 346.94 2.62198 3.81846 0
M  V30 3629 C 347.675 3.33966 4.66106 0
M  V30 3630 N 347.171 4.15245 5.54566 0
M  V30 3631 N 348.964 3.22799 4.60171 0
M  V30 3632 H 341.115 1.89553 0.958293 0
M  V30 3633 H 343.378 0.815979 0.482579 0
M  V30 3634 H 343.084 2.68296 2.27399 0
M  V30 3635 H 342.958 1.4261 3.49202 0
M  V30 3636 H 345.345 0.646057 2.87941 0
M  V30 3637 H 345.426 1.93642 1.67142 0
M  V30 3638 H 345.07 3.6601 3.52135 0
M  V30 3639 H 345 2.34121 4.71694 0
M  V30 3640 H 347.491 2.032 3.18619 0
M  V30 3641 H 347.804 4.66898 6.15814 0
M  V30 3642 H 346.149 4.1934 5.54237 0
M  V30 3643 H 349.34 2.58764 3.90075 0
M  V30 3644 H 349.513 3.78994 5.25612 0
M  V30 3645 N 342.919 -1.39368 0.735821 0
M  V30 3646 C 344.335 -1.54204 0.411492 0
M  V30 3647 C 344.535 -1.70268 -1.07755 0
M  V30 3648 O 343.591 -1.70364 -1.86366 0
M  V30 3649 C 344.904 -2.75925 1.19523 0
M  V30 3650 C 346.452 -2.89761 1.18354 0
M  V30 3651 C 346.927 -4.14421 1.94986 0
M  V30 3652 N 348.418 -4.21462 1.92156 0
M  V30 3653 C 349.153 -5.16871 2.48258 0
M  V30 3654 N 348.649 -6.18063 3.13001 0
M  V30 3655 N 350.442 -5.09093 2.38287 0
M  V30 3656 H 342.593 -1.27189 1.70108 0
M  V30 3657 H 344.856 -0.616517 0.720147 0
M  V30 3658 H 344.562 -2.70401 2.24892 0
M  V30 3659 H 344.436 -3.68614 0.800222 0
M  V30 3660 H 346.823 -2.94777 0.137975 0
M  V30 3661 H 346.904 -1.98133 1.61793 0
M  V30 3662 H 346.548 -4.10166 2.99543 0
M  V30 3663 H 346.478 -5.05095 1.48953 0
M  V30 3664 H 348.969 -3.48979 1.44991 0
M  V30 3665 H 349.282 -6.87326 3.53275 0
M  V30 3666 H 347.627 -6.18448 3.17091 0
M  V30 3667 H 350.818 -4.28973 1.8735 0
M  V30 3668 H 350.991 -5.83272 2.82308 0
M  V30 3669 N 344.397 -0.483516 -1.5 0
M  V30 3670 C 345.344 0.304164 -2.28787 0
M  V30 3671 C 346.314 0.976114 -1.34392 0
M  V30 3672 O 347.499 0.986156 -1.63339 0
M  V30 3673 C 344.639 1.37298 -3.16612 0
M  V30 3674 C 343.752 0.714561 -4.26049 0
M  V30 3675 C 342.887 1.76232 -5.01114 0
M  V30 3676 C 341.926 1.08483 -6.0241 0
M  V30 3677 N 341.063 2.076 -6.70706 0
M  V30 3678 H 345.903 -0.373981 -2.95644 0
M  V30 3679 H 343.44 -0.196275 -1.45785 0
M  V30 3680 H 345.398 2.00445 -3.65893 0
M  V30 3681 H 344.028 2.02012 -2.51776 0
M  V30 3682 H 343.08 -0.0297798 -3.80388 0
M  V30 3683 H 344.392 0.180383 -4.98474 0
M  V30 3684 H 343.546 2.46929 -5.54176 0
M  V30 3685 H 342.285 2.33033 -4.28424 0
M  V30 3686 H 341.29 0.363545 -5.48597 0
M  V30 3687 H 342.515 0.523551 -6.77079 0
M  V30 3688 H 340.461 2.63394 -6.00799 0
M  V30 3689 H 340.378 1.59201 -7.39047 0
M  V30 3690 H 341.646 2.77639 -7.2838 0
M  V30 3691 N 345.875 1.56104 -0.216619 0
M  V30 3692 C 346.808 2.16026 0.735395 0
M  V30 3693 C 347.786 1.1032 1.1945 0
M  V30 3694 O 348.97 1.38549 1.27814 0
M  V30 3695 C 346.097 2.73656 1.99575 0
M  V30 3696 C 345.143 3.92146 1.67702 0
M  V30 3697 S 345.976 5.29397 0.806145 0
M  V30 3698 C 347.132 5.90463 2.07617 0
M  V30 3699 H 347.365 2.96439 0.226072 0
M  V30 3700 H 344.898 1.544 -0.00136639 0
M  V30 3701 H 346.856 3.075 2.71945 0
M  V30 3702 H 345.517 1.93245 2.47619 0
M  V30 3703 H 344.71 4.30954 2.61332 0
M  V30 3704 H 344.312 3.59423 1.03398 0
M  V30 3705 H 346.604 6.06136 3.02664 0
M  V30 3706 H 347.547 6.86589 1.73207 0
M  V30 3707 H 347.955 5.19252 2.21445 0
M  V30 3708 N 347.353 -0.0568162 1.57498 0
M  V30 3709 C 348.599 -0.75422 1.88253 0
M  V30 3710 C 348.932 -1.76461 0.810865 0
M  V30 3711 O 348.207 -1.93691 -0.177259 0
M  V30 3712 C 348.49 -1.44878 3.2967 0
M  V30 3713 C 348.343 -0.453789 4.47505 0
M  V30 3714 C 349.662 -2.38994 3.69554 0
M  V30 3715 H 346.781 -0.272724 0.684683 0
M  V30 3716 H 349.423 -0.0172113 1.89992 0
M  V30 3717 H 347.573 -2.077 3.28318 0
M  V30 3718 H 349.245 0.170371 4.60985 0
M  V30 3719 H 347.488 0.229552 4.33192 0
M  V30 3720 H 348.159 -0.977699 5.43273 0
M  V30 3721 H 350.635 -1.86239 3.72095 0
M  V30 3722 H 349.511 -2.84587 4.69363 0
M  V30 3723 H 349.772 -3.24461 3.00296 0
M  V30 3724 N 348.832 -1.54138 -0.328536 0
M  V30 3725 C 350.057 -1.76378 -1.09112 0
M  V30 3726 C 350.482 -0.508596 -1.81094 0
M  V30 3727 O 349.84 0.539598 -1.73084 0
M  V30 3728 C 349.888 -2.95358 -2.06872 0
M  V30 3729 O 348.992 -2.66556 -3.14677 0
M  V30 3730 H 348.333 -0.584614 -0.314838 0
M  V30 3731 H 350.863 -2.01146 -0.374348 0
M  V30 3732 H 350.873 -3.22566 -2.4983 0
M  V30 3733 H 349.548 -3.86385 -1.5388 0
M  V30 3734 H 348.125 -2.50282 -2.7643 0
M  V30 3735 N 350.31 0.590341 -1.46126 0
M  V30 3736 C 351.556 1.35082 -1.51264 0
M  V30 3737 C 351.889 1.93534 -0.160711 0
M  V30 3738 O 351.164 1.76045 0.826956 0
M  V30 3739 C 351.447 2.48588 -2.6053 0
M  V30 3740 C 351.3 1.95221 -4.05227 0
M  V30 3741 C 352.619 3.50662 -2.6594 0
M  V30 3742 H 349.738 0.489803 -0.550692 0
M  V30 3743 H 352.38 0.663887 -1.78024 0
M  V30 3744 H 350.53 3.07186 -2.37843 0
M  V30 3745 H 352.202 1.41139 -4.39178 0
M  V30 3746 H 350.445 1.26101 -4.15068 0
M  V30 3747 H 351.116 2.77121 -4.77397 0
M  V30 3748 H 353.592 3.01934 -2.86313 0
M  V30 3749 H 352.468 4.27551 -3.44226 0
M  V30 3750 H 352.729 4.07399 -1.71694 0
M  V30 3751 N 351.788 1.33704 0.83433 0
M  V30 3752 C 352.736 1.24323 1.96587 0
M  V30 3753 C 353.73 0.143659 1.6879 0
M  V30 3754 O 354.936 0.30791 1.77347 0
M  V30 3755 H 351.311 0.385925 0.645419 0
M  V30 3756 H 353.282 2.19978 2.01624 0
M  V30 3757 C 352.031 1.00394 3.32891 0
M  V30 3758 H 351.354 1.84231 3.54822 0
M  V30 3759 H 352.794 0.97862 4.12552 0
M  V30 3760 C 351.253 -0.293047 3.35623 0
M  V30 3761 O 351.783 -1.29823 3.80143 0
M  V30 3762 N 349.989 -0.322174 2.88809 0
M  V30 3763 H 349.536 0.496379 2.52772 0
M  V30 3764 H 349.494 -1.18977 2.91019 0
M  V30 3765 O 353.305 -0.972346 1.28948 0
M  V30 3766 H 353.996 -1.59791 1.09484 0
M  V30 END ATOM
M  V30 BEGIN BOND
M  V30 END BOND
M  V30 END CTAB
M  END
$$$$
