drugbank_target|P17540 Creatine kinase S-type, mitochondrial (DB00148; DB13191)
 OpenBabel12092119313D

  0  0  0     0  0            999 V3000
M  V30 BEGIN CTAB
M  V30 COUNTS 6688 6756 0 0 0
M  V30 BEGIN ATOM
M  V30 1 H -0.908 1.98254 -0.117106 0
M  V30 2 N 0 1.576 0 0
M  V30 3 C 0.933 2.03868 1.02534 0
M  V30 4 C 1.911 0.928543 1.3348 0
M  V30 5 O 3.095 1.19667 1.45644 0
M  V30 6 C 0.222 2.43627 2.35294 0
M  V30 7 C -0.732 3.65373 2.2001 0
M  V30 8 S 0.101 5.13292 1.52614 0
M  V30 9 C 1.257 5.56322 2.86805 0
M  V30 10 H 1.49 2.90518 0.631377 0
M  V30 11 H -0.977 1.52953 0.210867 0
M  V30 12 H 0.981 2.67203 3.11629 0
M  V30 13 H -0.358 1.57376 2.7183 0
M  V30 14 H -1.165 3.90944 3.18086 0
M  V30 15 H -1.563 3.418 1.51819 0
M  V30 16 H 0.729 5.58782 3.83104 0
M  V30 17 H 1.672 6.56266 2.65933 0
M  V30 18 H 2.08 4.83886 2.90714 0
M  V30 19 N 1.4781 -0.272755 1.55222 0
M  V30 20 C 2.4411 -1.32041 1.87344 0
M  V30 21 C 3.4411 -1.42342 0.74803 0
M  V30 22 O 4.6311 -1.41488 1.0162 0
M  V30 23 C 1.7631 -2.70173 2.07893 0
M  V30 24 H 2.9561 -1.04789 2.80997 0
M  V30 25 H 0.5091 -0.51083 1.47717 0
M  V30 26 H 1.2441 -3.02605 1.16622 0
M  V30 27 H 1.0291 -2.64082 2.89833 0
M  V30 28 H 2.5191 -3.45869 2.34017 0
M  V30 29 N 2.9562 -1.48159 -0.537278 0
M  V30 30 C 4.1812 -1.59707 -1.32319 0
M  V30 31 C 4.6062 -0.254859 -1.86365 0
M  V30 32 O 3.9642 0.772378 -1.64024 0
M  V30 33 C 4.0122 -2.6412 -2.45505 0
M  V30 34 O 3.1162 -2.20774 -3.48328 0
M  V30 35 H 2.4572 -0.535791 -0.392204 0
M  V30 36 H 4.9872 -1.94092 -0.647268 0
M  V30 37 H 4.9972 -2.85166 -2.91795 0
M  V30 38 H 3.6722 -3.61567 -2.05528 0
M  V30 39 H 2.2492 -2.09911 -3.08207 0
M  V30 40 N 4.4343 0.785586 -1.36625 0
M  V30 41 C 5.6833 1.53883 -1.30396 0
M  V30 42 C 5.9963 1.95271 0.113452 0
M  V30 43 O 7.2023 2.69858 0.298142 0
M  V30 44 C 5.6583 2.77808 -2.28802 0
M  V30 45 C 5.2663 2.43574 -3.75999 0
M  V30 46 C 7.0103 3.55783 -2.31558 0
M  V30 47 C 4.9173 3.63919 -4.66173 0
M  V30 48 H 3.8473 0.577678 -0.484566 0
M  V30 49 H 6.4983 0.861705 -1.62009 0
M  V30 50 H 4.8803 3.47339 -1.90188 0
M  V30 51 H 6.0543 1.81916 -4.23371 0
M  V30 52 H 4.3693 1.78803 -3.76056 0
M  V30 53 H 6.9663 4.45205 -2.96137 0
M  V30 54 H 7.3093 3.94644 -1.3252 0
M  V30 55 H 7.8423 2.93235 -2.68809 0
M  V30 56 H 4.5813 3.3015 -5.66287 0
M  V30 57 H 4.1013 4.2473 -4.23515 0
M  V30 58 H 5.7803 4.30901 -4.82632 0
M  V30 59 N 5.9124 1.20967 1.01018 0
M  V30 60 C 7.1594 1.02374 1.74716 0
M  V30 61 C 7.4874 -0.443375 1.89379 0
M  V30 62 O 6.7424 -1.34535 1.42123 0
M  V30 63 C 7.0414 1.65997 3.16512 0
M  V30 64 C 6.7074 3.15831 3.2181 0
M  V30 65 C 5.3694 3.56719 3.22963 0
M  V30 66 C 7.7214 4.11816 3.19464 0
M  V30 67 C 5.0494 4.92107 3.19449 0
M  V30 68 C 7.4014 5.47158 3.17491 0
M  V30 69 C 6.0654 5.87451 3.16951 0
M  V30 70 H 5.3354 0.374614 0.639332 0
M  V30 71 H 7.9824 1.50485 1.18434 0
M  V30 72 H 6.2874 1.10166 3.75993 0
M  V30 73 H 7.9844 1.49119 3.72242 0
M  V30 74 H 4.5744 2.83263 3.21652 0
M  V30 75 H 8.7584 3.81257 3.17737 0
M  V30 76 H 4.0144 5.22579 3.17366 0
M  V30 77 H 8.1884 6.21274 3.14629 0
M  V30 78 H 5.8154 6.92329 3.13983 0
M  V30 79 N 7.3905 -1.2043 1.01659 0
M  V30 80 C 8.6155 -1.94318 0.724942 0
M  V30 81 C 9.0405 -1.74266 -0.708034 0
M  V30 82 O 8.3985 -1.03694 -1.48719 0
M  V30 83 C 8.4465 -3.44486 1.06591 0
M  V30 84 O 7.5505 -4.12017 0.177599 0
M  V30 85 H 6.8915 -0.60708 0.26898 0
M  V30 86 H 9.4215 -1.52861 1.35995 0
M  V30 87 H 9.4315 -3.95106 1.01762 0
M  V30 88 H 8.1065 -3.58404 2.10997 0
M  V30 89 H 6.6835 -3.71821 0.283421 0
M  V30 90 N 8.8686 -0.792821 -1.36206 0
M  V30 91 C 9.8156 -0.191653 -2.30003 0
M  V30 92 C 10.7856 0.666453 -1.52143 0
M  V30 93 O 11.9706 0.61442 -1.80636 0
M  V30 94 C 9.1106 0.664848 -3.38635 0
M  V30 95 C 8.2236 -0.212175 -4.31479 0
M  V30 96 C 7.3586 0.651022 -5.27196 0
M  V30 97 C 6.3976 -0.227247 -6.11678 0
M  V30 98 N 5.5346 0.595127 -6.99573 0
M  V30 99 H 10.3746 -0.996978 -2.80828 0
M  V30 100 H 7.9116 -0.503206 -1.38225 0
M  V30 101 H 9.8696 1.17645 -4.00269 0
M  V30 102 H 8.4996 1.43557 -2.89122 0
M  V30 103 H 7.5516 -0.841777 -3.70969 0
M  V30 104 H 8.8636 -0.888751 -4.90818 0
M  V30 105 H 8.0176 1.2283 -5.94136 0
M  V30 106 H 6.7566 1.36121 -4.68319 0
M  V30 107 H 5.7616 -0.816904 -5.43697 0
M  V30 108 H 6.9866 -0.93509 -6.72631 0
M  V30 109 H 4.9326 1.28955 -6.432 0
M  V30 110 H 4.8496 -0.0236952 -7.55996 0
M  V30 111 H 6.1176 1.15613 -7.70879 0
M  V30 112 N 10.3467 1.47872 -0.545128 0
M  V30 113 C 11.2767 2.32661 0.197793 0
M  V30 114 C 12.2577 1.43041 0.920504 0
M  V30 115 O 13.4427 1.71912 0.90333 0
M  V30 116 C 10.5727 3.24569 1.23582 0
M  V30 117 C 9.5267 4.23333 0.630323 0
M  V30 118 C 8.8527 5.0448 1.77211 0
M  V30 119 C 10.1527 5.20704 -0.407974 0
M  V30 120 H 11.8467 2.95024 -0.510045 0
M  V30 121 H 9.3927 1.4187 -0.246731 0
M  V30 122 H 11.3457 3.8272 1.76362 0
M  V30 123 H 10.0697 2.60236 1.97344 0
M  V30 124 H 8.7287 3.6639 0.123922 0
M  V30 125 H 8.3767 4.36561 2.49847 0
M  V30 126 H 8.0767 5.71339 1.37281 0
M  V30 127 H 9.6007 5.65487 2.3034 0
M  V30 128 H 11.0147 5.7329 0.033305 0
M  V30 129 H 9.4117 5.95699 -0.725486 0
M  V30 130 H 10.4817 4.66917 -1.30828 0
M  V30 131 N 11.8248 0.280983 1.55075 0
M  V30 132 C 12.7548 -0.597469 2.25727 0
M  V30 133 C 13.7358 -1.15417 1.24952 0
M  V30 134 O 14.9208 -1.18722 1.53684 0
M  V30 135 C 12.0508 -1.7789 2.98283 0
M  V30 136 C 11.0048 -1.35347 4.06036 0
M  V30 137 C 10.3308 -2.61846 4.66198 0
M  V30 138 C 11.6308 -0.499354 5.19907 0
M  V30 139 H 13.3248 -0.00824265 2.99399 0
M  V30 140 H 10.8708 -0.0025244 1.44 0
M  V30 141 H 12.8238 -2.39937 3.46422 0
M  V30 142 H 11.5478 -2.39405 2.22155 0
M  V30 143 H 10.2068 -0.756156 3.58717 0
M  V30 144 H 9.8548 -3.21632 3.86732 0
M  V30 145 H 9.5548 -2.3409 5.38958 0
M  V30 146 H 11.0788 -3.24732 5.1709 0
M  V30 147 H 12.4928 -1.02498 5.64063 0
M  V30 148 H 10.8898 -0.316424 5.99265 0
M  V30 149 H 11.9598 0.480459 4.82514 0
M  V30 150 N 13.3029 -1.57598 0.00835791 0
M  V30 151 C 14.5309 -1.95214 -0.68549 0
M  V30 152 C 14.9459 -0.883706 -1.66841 0
M  V30 153 O 14.3029 0.136565 -1.81988 0
M  V30 154 C 14.3539 -3.32865 -1.41007 0
M  V30 155 O 14.0749 -4.35609 -0.466552 0
M  V30 156 C 15.5759 -3.84991 -2.19765 0
M  V30 157 H 12.7959 -0.643422 -0.190392 0
M  V30 158 H 15.3399 -2.04406 0.0619607 0
M  V30 159 H 13.4949 -3.24956 -2.10908 0
M  V30 160 H 13.9089 -5.15288 -0.978699 0
M  V30 161 H 15.3829 -4.8371 -2.65948 0
M  V30 162 H 15.8599 -3.18137 -3.02796 0
M  V30 163 H 16.4659 -3.96103 -1.54864 0
M  V30 164 N 14.781 0.264519 -1.55364 0
M  V30 165 C 16.029 0.993021 -1.76021 0
M  V30 166 C 16.35 1.86511 -0.569099 0
M  V30 167 O 15.62 1.91438 0.415735 0
M  V30 168 H 14.2 0.369639 -0.649135 0
M  V30 169 H 16.862 0.286707 -1.9278 0
M  V30 170 H 15.958 1.62502 -2.66457 0
M  V30 171 N 16.2591 1.48442 0.529413 0
M  V30 172 C 17.6751 1.34575 0.858004 0
M  V30 173 C 17.8751 0.3572 1.98309 0
M  V30 174 O 16.9311 -0.221379 2.51528 0
M  V30 175 C 18.2441 2.74617 1.22499 0
M  V30 176 C 19.7921 2.83109 1.33484 0
M  V30 177 C 20.2671 4.23854 1.73526 0
M  V30 178 N 21.7581 4.2653 1.80628 0
M  V30 179 C 22.4931 5.32372 2.12997 0
M  V30 180 N 21.9891 6.48491 2.43786 0
M  V30 181 N 23.7821 5.19766 2.14008 0
M  V30 182 H 15.9331 2.1133 -0.212925 0
M  V30 183 H 18.1961 0.947439 -0.0326199 0
M  V30 184 H 17.9021 3.4852 0.471905 0
M  V30 185 H 17.7761 3.08177 2.17501 0
M  V30 186 H 20.1631 2.09462 2.0787 0
M  V30 187 H 20.2441 2.53168 0.366027 0
M  V30 188 H 19.8881 4.98018 0.997013 0
M  V30 189 H 19.8181 4.5124 2.71459 0
M  V30 190 H 22.3091 3.42772 1.59108 0
M  V30 191 H 22.6221 7.24993 2.67592 0
M  V30 192 H 20.9671 6.51765 2.41304 0
M  V30 193 H 24.1581 4.28066 1.89412 0
M  V30 194 H 24.3311 6.02354 2.38902 0
M  V30 195 N 17.7372 -0.778329 1.37039 0
M  V30 196 C 18.6852 -1.91278 1.32345 0
M  V30 197 C 19.6792 -1.68051 0.213331 0
M  V30 198 O 20.8852 -1.75922 0.38098 0
M  V30 199 H 17.2602 -0.628909 0.412283 0
M  V30 200 H 19.2312 -1.92355 2.28127 0
M  V30 201 C 17.9802 -3.28455 1.14073 0
M  V30 202 H 17.3032 -3.46901 1.98746 0
M  V30 203 H 18.7432 -4.08152 1.14837 0
M  V30 204 C 17.2022 -3.36548 -0.154015 0
M  V30 205 O 17.7322 -3.85186 -1.13993 0
M  V30 206 N 15.9382 -2.89894 -0.202475 0
M  V30 207 H 15.4852 -2.50504 0.600476 0
M  V30 208 H 15.4432 -2.9569 -1.06841 0
M  V30 209 N 19.2153 -1.21501 -1.00376 0
M  V30 210 C 20.1783 -0.976927 -2.07337 0
M  V30 211 C 21.1783 0.0525322 -1.60714 0
M  V30 212 O 22.3683 -0.184869 -1.73216 0
M  V30 213 C 19.5003 -0.473423 -3.37597 0
M  V30 214 H 20.6933 -1.92587 -2.29892 0
M  V30 215 H 18.2463 -1.03217 -1.17371 0
M  V30 216 H 18.9813 0.480379 -3.20722 0
M  V30 217 H 18.7663 -1.216 -3.72768 0
M  V30 218 H 20.2563 -0.32675 -4.1632 0
M  V30 219 N 20.6934 1.19889 -1.02296 0
M  V30 220 C 21.9184 1.9393 -0.735237 0
M  V30 221 C 22.3434 1.74639 0.698782 0
M  V30 222 O 21.7014 1.04481 1.48167 0
M  V30 223 C 21.7494 3.43916 -1.08417 0
M  V30 224 O 20.8534 4.11917 -0.199446 0
M  V30 225 H 20.1944 0.605645 -0.272196 0
M  V30 226 H 22.7244 1.52137 -1.36804 0
M  V30 227 H 22.7344 3.9456 -1.03856 0
M  V30 228 H 21.4094 3.5728 -2.12894 0
M  V30 229 H 19.9864 3.71666 -0.303136 0
M  V30 230 N 22.1715 0.800033 1.35784 0
M  V30 231 C 23.1015 0.220184 2.3246 0
M  V30 232 C 24.0825 -0.65073 1.57161 0
M  V30 233 O 25.2675 -0.582359 1.85263 0
M  V30 234 C 22.3975 -0.637353 3.41402 0
M  V30 235 C 21.3515 0.134531 4.27789 0
M  V30 236 C 20.6775 -0.844285 5.27992 0
M  V30 237 C 21.9775 1.32979 5.05088 0
M  V30 238 H 23.6715 1.02787 2.81203 0
M  V30 239 H 21.2175 0.495717 1.35199 0
M  V30 240 H 23.1705 -1.05302 4.08031 0
M  V30 241 H 21.8945 -1.47785 2.91251 0
M  V30 242 H 20.5535 0.531296 3.6273 0
M  V30 243 H 20.2015 -1.68011 4.74111 0
M  V30 244 H 19.9015 -0.332184 5.8666 0
M  V30 245 H 21.4255 -1.2583 5.97494 0
M  V30 246 H 22.8395 0.98934 5.64699 0
M  V30 247 H 21.2365 1.77593 5.7322 0
M  V30 248 H 22.3065 2.11978 4.36111 0
M  V30 249 N 23.6496 -1.47581 0.552962 0
M  V30 250 C 24.5796 -2.32762 -0.185451 0
M  V30 251 C 25.5606 -1.43527 -0.912905 0
M  V30 252 O 26.7456 -1.72388 -0.894201 0
M  V30 253 C 23.8756 -3.25219 -1.21859 0
M  V30 254 C 22.8296 -4.23661 -0.607864 0
M  V30 255 C 22.1556 -5.05413 -1.74533 0
M  V30 256 C 23.4556 -5.20481 0.435582 0
M  V30 257 H 25.1496 -2.94749 0.525684 0
M  V30 258 H 22.6956 -1.41738 0.254251 0
M  V30 259 H 24.6486 -3.8365 -1.7433 0
M  V30 260 H 23.3726 -2.61279 -1.95961 0
M  V30 261 H 22.0316 -3.66451 -0.104489 0
M  V30 262 H 21.6796 -4.3788 -2.47529 0
M  V30 263 H 21.3796 -5.72059 -1.34249 0
M  V30 264 H 22.9036 -5.66701 -2.27338 0
M  V30 265 H 24.3176 -5.733 -0.00290157 0
M  V30 266 H 22.7146 -5.95305 0.757067 0
M  V30 267 H 23.7846 -4.66217 1.33303 0
M  V30 268 N 25.1277 -0.289203 -1.54924 0
M  V30 269 C 26.3747 0.323519 -1.99899 0
M  V30 270 C 26.7027 1.54797 -1.17762 0
M  V30 271 O 25.9577 1.94237 -0.238835 0
M  V30 272 C 26.2567 0.736119 -3.49737 0
M  V30 273 C 25.9227 -0.385276 -4.49251 0
M  V30 274 C 24.5847 -0.693156 -4.76181 0
M  V30 275 C 26.9367 -1.14021 -5.08575 0
M  V30 276 C 24.2647 -1.7593 -5.59701 0
M  V30 277 C 26.6167 -2.19619 -5.93254 0
M  V30 278 C 25.2807 -2.51026 -6.185 0
M  V30 279 H 24.5507 0.118384 -0.731482 0
M  V30 280 H 27.1977 -0.405847 -1.8715 0
M  V30 281 H 25.5027 1.54539 -3.60035 0
M  V30 282 H 27.1997 1.22118 -3.81953 0
M  V30 283 H 23.7897 -0.135202 -4.28387 0
M  V30 284 H 27.9737 -0.915611 -4.87781 0
M  V30 285 H 23.2297 -2.0075 -5.77503 0
M  V30 286 H 27.4037 -2.78581 -6.38252 0
M  V30 287 H 25.0307 -3.33772 -6.83008 0
M  V30 288 N 26.6058 1.57591 -0.0167156 0
M  V30 289 C 27.5688 2.08393 0.954204 0
M  V30 290 C 28.5688 0.996531 1.26198 0
M  V30 291 O 29.7588 1.25858 1.20438 0
M  V30 292 C 26.8908 2.5394 2.27436 0
M  V30 293 H 28.0838 2.95455 0.514451 0
M  V30 294 H 25.6368 1.54582 0.231089 0
M  V30 295 H 26.3718 1.70171 2.76066 0
M  V30 296 H 26.1568 3.33371 2.06412 0
M  V30 297 H 27.6468 2.93512 2.97053 0
M  V30 298 N 28.0839 -0.256276 1.55502 0
M  V30 299 C 29.3119 -1.00342 1.8094 0
M  V30 300 C 29.7269 -1.79307 0.59114 0
M  V30 301 O 29.0839 -1.77114 -0.440081 0
M  V30 302 C 29.1349 -1.94875 3.04476 0
M  V30 303 O 28.8559 -1.19107 4.21598 0
M  V30 304 C 30.3569 -2.81266 3.42644 0
M  V30 305 H 27.5769 -0.295685 0.602338 0
M  V30 306 H 30.1209 -0.281998 2.02546 0
M  V30 307 H 28.2759 -2.62457 2.84947 0
M  V30 308 H 28.6899 -1.82969 4.91551 0
M  V30 309 H 30.1639 -3.43362 4.32211 0
M  V30 310 H 30.6409 -3.51897 2.62802 0
M  V30 311 H 31.2469 -2.1915 3.64491 0
M  V30 312 N 29.562 -1.4872 -0.521534 0
M  V30 313 C 30.495 -1.58451 -1.64221 0
M  V30 314 C 31.473 -0.434513 -1.56687 0
M  V30 315 O 32.657 -0.647275 -1.77038 0
M  V30 316 C 29.784 -1.52037 -3.02659 0
M  V30 317 C 28.83 -2.71981 -3.28525 0
M  V30 318 S 29.663 -4.33869 -3.13876 0
M  V30 319 C 30.819 -4.30067 -4.54745 0
M  V30 320 H 31.052 -2.53256 -1.55719 0
M  V30 321 H 28.585 -1.37358 -0.705143 0
M  V30 322 H 30.543 -1.49023 -3.82495 0
M  V30 323 H 29.204 -0.585541 -3.08594 0
M  V30 324 H 28.397 -2.63656 -4.29536 0
M  V30 325 H 27.999 -2.72302 -2.56374 0
M  V30 326 H 30.291 -4.00521 -5.46433 0
M  V30 327 H 31.234 -5.31287 -4.68123 0
M  V30 328 H 31.642 -3.60419 -4.34463 0
M  V30 329 N 31.0401 0.771051 -1.3745 0
M  V30 330 C 32.2881 1.52661 -1.32435 0
M  V30 331 C 32.6091 1.9479 0.0905024 0
M  V30 332 O 31.8791 1.66348 1.03466 0
M  V30 333 H 30.4591 0.566218 -0.487244 0
M  V30 334 H 33.1211 0.917636 -1.71946 0
M  V30 335 H 32.2171 2.42568 -1.96385 0
M  V30 336 N 32.5182 1.22032 0.997298 0
M  V30 337 C 33.7462 1.06841 1.7718 0
M  V30 338 C 34.1612 -0.381325 1.84909 0
M  V30 339 O 33.5182 -1.26437 1.31605 0
M  V30 340 C 33.5692 1.66814 3.20711 0
M  V30 341 O 33.2902 3.06116 3.13408 0
M  V30 342 C 34.7912 1.56838 4.14628 0
M  V30 343 H 32.0112 0.374782 0.556578 0
M  V30 344 H 34.5552 1.61532 1.2541 0
M  V30 345 H 32.7102 1.16196 3.69564 0
M  V30 346 H 33.1242 3.34926 4.0364 0
M  V30 347 H 34.5982 2.03532 5.13107 0
M  V30 348 H 35.0752 0.524155 4.36061 0
M  V30 349 H 35.6812 2.06741 3.7167 0
M  V30 350 N 33.9963 -1.19345 1.0293 0
M  V30 351 C 35.2213 -1.93538 0.745511 0
M  V30 352 C 35.6463 -1.75007 -0.689511 0
M  V30 353 O 35.0043 -1.05265 -1.47611 0
M  V30 354 C 35.0523 -3.43336 1.10239 0
M  V30 355 O 34.1563 -4.11806 0.221289 0
M  V30 356 H 33.4973 -0.604193 0.275404 0
M  V30 357 H 36.0273 -1.5141 1.37609 0
M  V30 358 H 36.0373 -3.94004 1.05947 0
M  V30 359 H 34.7123 -3.56146 2.14786 0
M  V30 360 H 33.2893 -3.715 0.322842 0
M  V30 361 N 35.4744 -0.807222 -1.35358 0
M  V30 362 C 36.7204 -0.388463 -1.99045 0
M  V30 363 C 37.0534 1.04184 -1.63888 0
M  V30 364 O 36.3284 1.72292 -0.902535 0
M  V30 365 C 36.6114 -0.572783 -3.55515 0
M  V30 366 C 36.4644 -2.04807 -4.00468 0
M  V30 367 C 37.7834 0.00114064 -4.401 0
M  V30 368 H 34.9024 -0.142619 -0.723069 0
M  V30 369 H 37.5444 -1.01687 -1.60498 0
M  V30 370 H 35.6944 -0.0378425 -3.88482 0
M  V30 371 H 37.3664 -2.64544 -3.77908 0
M  V30 372 H 35.6094 -2.54427 -3.51353 0
M  V30 373 H 36.2804 -2.12792 -5.09337 0
M  V30 374 H 38.7564 -0.455716 -4.13597 0
M  V30 375 H 37.6324 -0.157737 -5.48673 0
M  V30 376 H 37.8934 1.09488 -4.28328 0
M  V30 377 N 36.9525 1.47285 -0.560781 0
M  V30 378 C 37.8825 2.32857 0.173105 0
M  V30 379 C 38.8635 1.44009 0.905281 0
M  V30 380 O 40.0485 1.7286 0.885046 0
M  V30 381 C 37.1785 3.25861 1.20133 0
M  V30 382 C 36.1325 4.23978 0.585388 0
M  V30 383 C 35.4585 5.06332 1.7185 0
M  V30 384 C 36.7585 5.20242 -0.463178 0
M  V30 385 H 38.4525 2.94466 -0.541307 0
M  V30 386 H 35.9985 1.41601 -0.261764 0
M  V30 387 H 37.9515 3.84569 1.72293 0
M  V30 388 H 36.6755 2.62315 1.94573 0
M  V30 389 H 35.3345 3.66501 0.085054 0
M  V30 390 H 34.9825 4.39186 2.45203 0
M  V30 391 H 34.6825 5.72762 1.31213 0
M  V30 392 H 36.2065 5.67899 2.24329 0
M  V30 393 H 37.6205 5.73293 -0.027502 0
M  V30 394 H 36.0175 5.94896 -0.788627 0
M  V30 395 H 37.0875 4.65504 -1.35773 0
M  V30 396 N 38.4306 0.297415 1.54768 0
M  V30 397 C 39.6586 -0.315623 2.04478 0
M  V30 398 C 40.0736 -1.47792 1.17486 0
M  V30 399 O 39.4306 -1.81404 0.19971 0
M  V30 400 C 39.4816 -0.7753 3.53088 0
M  V30 401 O 39.2026 0.340732 4.36773 0
M  V30 402 C 40.7036 -1.45386 4.18781 0
M  V30 403 H 37.9236 -0.0690887 0.667434 0
M  V30 404 H 40.4676 0.436003 1.99798 0
M  V30 405 H 38.6226 -1.47696 3.58141 0
M  V30 406 H 39.0366 -0.0165035 5.24497 0
M  V30 407 H 40.5106 -1.72669 5.24299 0
M  V30 408 H 40.9876 -2.39275 3.68299 0
M  V30 409 H 41.5936 -0.795475 4.17795 0
M  V30 410 N 39.9087 -1.5758 0.0250728 0
M  V30 411 C 41.1367 -1.9593 -0.664747 0
M  V30 412 C 41.5517 -0.901352 -1.65895 0
M  V30 413 O 40.9087 0.117255 -1.82123 0
M  V30 414 C 40.9597 -3.34342 -1.37468 0
M  V30 415 O 40.6807 -4.36079 -0.420324 0
M  V30 416 C 42.1817 -3.873 -2.1567 0
M  V30 417 H 39.4017 -0.645405 -0.183557 0
M  V30 418 H 41.9457 -2.04329 0.0836372 0
M  V30 419 H 40.1007 -3.27175 -2.0745 0
M  V30 420 H 40.5147 -5.16297 -0.923991 0
M  V30 421 H 41.9887 -4.86504 -2.60803 0
M  V30 422 H 42.4657 -3.21331 -2.99405 0
M  V30 423 H 43.0717 -3.97723 -1.50654 0
M  V30 424 N 41.3868 0.248026 -1.55636 0
M  V30 425 C 42.6348 0.974295 -1.77065 0
M  V30 426 C 42.9558 1.85897 -0.588849 0
M  V30 427 O 42.2258 1.91868 0.395407 0
M  V30 428 H 40.8058 0.362733 -0.653019 0
M  V30 429 H 43.4678 0.266244 -1.93073 0
M  V30 430 H 42.5638 1.59667 -2.68166 0
M  V30 431 N 42.8649 1.48995 0.513639 0
M  V30 432 C 44.0949 1.61297 1.291 0
M  V30 433 C 44.5029 0.278656 1.87137 0
M  V30 434 O 43.8459 -0.744325 1.67945 0
M  V30 435 C 43.9079 2.61326 2.46879 0
M  V30 436 C 43.5719 4.05993 2.09807 0
M  V30 437 C 44.5689 4.93183 1.64519 0
M  V30 438 C 42.2539 4.51642 2.19829 0
M  V30 439 C 44.2479 6.24056 1.2974 0
M  V30 440 C 41.9349 5.82532 1.84662 0
M  V30 441 C 42.9329 6.68562 1.3969 0
M  V30 442 O 42.6209 7.97014 1.04992 0
M  V30 443 H 42.3529 0.546236 0.39825 0
M  V30 444 H 44.9069 1.95673 0.62459 0
M  V30 445 H 43.1369 2.22104 3.16554 0
M  V30 446 H 44.8259 2.6329 3.08923 0
M  V30 447 H 45.5919 4.59147 1.56233 0
M  V30 448 H 41.4709 3.84855 2.53786 0
M  V30 449 H 45.0149 6.91161 0.945659 0
M  V30 450 H 40.9119 6.16099 1.92594 0
M  V30 451 H 41.6799 8.09913 1.18249 0
M  V30 452 N 44.343 -0.763751 1.37857 0
M  V30 453 C 45.273 -1.89103 1.36975 0
M  V30 454 C 46.254 -1.68439 0.237152 0
M  V30 455 O 47.439 -1.8918 0.438713 0
M  V30 456 C 44.569 -3.26496 1.18395 0
M  V30 457 C 43.523 -3.61741 2.28751 0
M  V30 458 C 42.849 -4.97762 1.95286 0
M  V30 459 C 44.149 -3.67665 3.70972 0
M  V30 460 H 45.843 -1.90099 2.31307 0
M  V30 461 H 43.389 -0.91319 1.11341 0
M  V30 462 H 45.342 -4.05003 1.16406 0
M  V30 463 H 44.066 -3.25955 0.205215 0
M  V30 464 H 42.725 -2.85547 2.29909 0
M  V30 465 H 42.373 -4.93769 0.959221 0
M  V30 466 H 42.073 -5.22313 2.69189 0
M  V30 467 H 43.597 -5.7866 1.94898 0
M  V30 468 H 45.011 -4.36307 3.719 0
M  V30 469 H 43.408 -4.03718 4.43995 0
M  V30 470 H 44.478 -2.68134 4.0402 0
M  V30 471 N 45.8211 -1.22559 -0.990812 0
M  V30 472 C 46.7511 -1.0218 -2.09956 0
M  V30 473 C 47.7321 0.0579394 -1.70001 0
M  V30 474 O 48.9171 -0.104684 -1.93918 0
M  V30 475 C 46.0471 -0.601023 -3.4206 0
M  V30 476 C 45.0011 -1.62694 -3.95872 0
M  V30 477 C 44.3271 -1.06193 -5.24049 0
M  V30 478 C 45.6271 -3.01743 -4.2632 0
M  V30 479 H 47.3211 -1.94916 -2.27262 0
M  V30 480 H 44.8671 -0.938566 -1.09211 0
M  V30 481 H 46.8201 -0.445561 -4.19038 0
M  V30 482 H 45.5441 0.362005 -3.24588 0
M  V30 483 H 44.2031 -1.77021 -3.21028 0
M  V30 484 H 43.8511 -0.0901903 -5.02919 0
M  V30 485 H 43.5511 -1.74732 -5.61019 0
M  V30 486 H 45.0751 -0.918092 -6.03658 0
M  V30 487 H 46.4891 -2.90777 -4.94087 0
M  V30 488 H 44.8861 -3.67425 -4.74467 0
M  V30 489 H 45.9561 -3.51518 -3.34011 0
M  V30 490 N 47.2992 1.18797 -1.03562 0
M  V30 491 C 48.2472 2.24297 -0.615905 0
M  V30 492 C 49.2412 1.65643 0.354808 0
M  V30 493 O 50.4472 1.78618 0.22265 0
M  V30 494 H 46.8222 0.729909 -0.180934 0
M  V30 495 H 48.7932 2.5701 -1.5162 0
M  V30 496 C 47.5422 3.47698 0.0104735 0
M  V30 497 H 46.8652 3.93125 -0.727509 0
M  V30 498 H 48.3052 4.23159 0.266995 0
M  V30 499 C 46.7642 3.12489 1.25905 0
M  V30 500 O 47.2942 3.25761 2.35038 0
M  V30 501 N 45.5002 2.6686 1.15039 0
M  V30 502 H 45.0472 2.56261 0.262328 0
M  V30 503 H 45.0052 2.43674 1.98672 0
M  V30 504 N 48.7773 0.814389 1.34928 0
M  V30 505 C 50.1933 0.499084 1.51596 0
M  V30 506 C 50.3933 -0.978319 1.76157 0
M  V30 507 O 49.4493 -1.76309 1.80752 0
M  V30 508 C 50.7623 1.35121 2.68631 0
M  V30 509 C 52.3103 1.34746 2.82511 0
M  V30 510 C 52.7853 2.18388 4.0258 0
M  V30 511 N 54.2763 2.15966 4.09772 0
M  V30 512 C 55.0113 2.77437 5.01813 0
M  V30 513 N 54.5073 3.47866 5.99134 0
M  V30 514 N 56.3003 2.67037 4.94619 0
M  V30 515 H 48.4513 1.7711 1.17243 0
M  V30 516 H 50.7143 0.754256 0.574284 0
M  V30 517 H 50.4203 2.40001 2.57085 0
M  V30 518 H 50.2943 1.00991 3.63429 0
M  V30 519 H 52.6813 0.30648 2.93504 0
M  V30 520 H 52.7623 1.72869 1.88547 0
M  V30 521 H 52.4063 3.2253 3.92347 0
M  V30 522 H 52.3363 1.77621 4.9574 0
M  V30 523 H 54.8273 1.64729 3.40107 0
M  V30 524 H 55.1403 3.92038 6.65977 0
M  V30 525 H 53.4853 3.51972 5.99284 0
M  V30 526 H 56.6763 2.11597 4.17546 0
M  V30 527 H 56.8493 3.15232 5.66156 0
M  V30 528 N 50.2554 -1.46986 0.568584 0
M  V30 529 C 51.1874 -2.28233 -0.210337 0
M  V30 530 C 52.2004 -1.37682 -0.868767 0
M  V30 531 O 53.3894 -1.62406 -0.740705 0
M  V30 532 C 50.4894 -3.12293 -1.3163 0
M  V30 533 C 49.6624 -4.30878 -0.7525 0
M  V30 534 C 48.7214 -4.96445 -1.74439 0
M  V30 535 O 47.7474 -5.54482 -1.286 0
M  V30 536 N 48.9494 -4.92171 -3.07812 0
M  V30 537 H 51.7144 -2.95723 0.486648 0
M  V30 538 H 49.2754 -1.56742 0.405409 0
M  V30 539 H 51.2674 -3.53022 -1.97883 0
M  V30 540 H 49.8374 -2.46971 -1.91636 0
M  V30 541 H 49.0574 -3.94104 0.0871128 0
M  V30 542 H 50.3454 -5.07558 -0.35536 0
M  V30 543 H 49.7434 -4.46239 -3.47688 0
M  V30 544 H 48.3004 -5.36884 -3.69592 0
M  V30 545 N 51.7335 -0.305618 -1.54608 0
M  V30 546 C 52.6805 0.568421 -2.23691 0
M  V30 547 C 53.6505 1.12592 -1.22116 0
M  V30 548 O 54.8355 1.16959 -1.50749 0
M  V30 549 C 51.9755 1.7322 -2.98477 0
M  V30 550 C 51.0885 1.20566 -4.14835 0
M  V30 551 C 50.2235 2.33368 -4.77193 0
M  V30 552 C 49.2625 1.7787 -5.85686 0
M  V30 553 N 48.3995 2.84263 -6.4198 0
M  V30 554 H 53.2395 -0.0272867 -2.97988 0
M  V30 555 H 50.7765 -0.0252363 -1.47078 0
M  V30 556 H 52.7345 2.41675 -3.40072 0
M  V30 557 H 51.3645 2.29947 -2.26548 0
M  V30 558 H 50.4165 0.413223 -3.78149 0
M  V30 559 H 51.7285 0.759417 -4.92985 0
M  V30 560 H 50.8825 3.09761 -5.21664 0
M  V30 561 H 49.6215 2.8132 -3.98385 0
M  V30 562 H 48.6265 0.99968 -5.40635 0
M  V30 563 H 49.8515 1.30816 -6.66381 0
M  V30 564 H 47.7975 3.31541 -5.66053 0
M  V30 565 H 47.7145 2.44149 -7.15491 0
M  V30 566 H 48.9825 3.6054 -6.91109 0
M  V30 567 N 53.2116 1.57565 -0.0334293 0
M  V30 568 C 54.4576 1.92262 0.645226 0
M  V30 569 C 54.7906 0.910543 1.71531 0
M  V30 570 O 54.0656 -0.066099 1.94388 0
M  V30 571 C 54.3486 3.37422 1.2577 0
M  V30 572 C 54.2016 4.49369 0.196891 0
M  V30 573 C 55.5206 3.82628 2.17449 0
M  V30 574 H 52.6396 0.699171 0.233085 0
M  V30 575 H 55.2816 1.89779 -0.0915694 0
M  V30 576 H 53.4316 3.39669 1.88566 0
M  V30 577 H 55.1036 4.59254 -0.433962 0
M  V30 578 H 53.3466 4.31168 -0.477137 0
M  V30 579 H 54.0176 5.47978 0.665124 0
M  V30 580 H 56.4936 3.82145 1.64634 0
M  V30 581 H 55.3696 4.84883 2.57254 0
M  V30 582 H 55.6306 3.18376 3.0674 0
M  V30 583 N 54.6897 -0.239769 1.55765 0
M  V30 584 C 55.9297 -0.974076 1.79697 0
M  V30 585 C 56.2937 -1.82249 0.604088 0
M  V30 586 O 57.4947 -2.58913 0.722324 0
M  V30 587 C 55.7657 -1.80595 3.08416 0
M  V30 588 S 57.3247 -2.59838 3.53596 0
M  V30 589 H 54.1427 -0.327524 0.63107 0
M  V30 590 H 56.7447 -0.241277 1.94005 0
M  V30 591 H 55.4487 -1.17249 3.93295 0
M  V30 592 H 54.9797 -2.58137 2.96865 0
M  V30 593 H 56.9947 -3.82987 3.15492 0
M  V30 594 N 56.1678 -1.49265 -0.50573 0
M  V30 595 C 57.1308 -1.65075 -1.59006 0
M  V30 596 C 58.1308 -0.522768 -1.52065 0
M  V30 597 O 59.3208 -0.789117 -1.55302 0
M  V30 598 C 56.4528 -1.64369 -2.98656 0
M  V30 599 H 57.6458 -2.61784 -1.46319 0
M  V30 600 H 55.1988 -1.38226 -0.729616 0
M  V30 601 H 55.9338 -0.692272 -3.16825 0
M  V30 602 H 55.7188 -2.46282 -3.05103 0
M  V30 603 H 57.2088 -1.78674 -3.77446 0
M  V30 604 N 57.6459 0.756429 -1.3826 0
M  V30 605 C 58.5559 1.9009 -1.37488 0
M  V30 606 C 59.5719 1.71855 -0.272366 0
M  V30 607 O 60.7479 1.94827 -0.510318 0
M  V30 608 C 57.8129 3.25421 -1.19592 0
M  V30 609 C 56.8739 3.56202 -2.39622 0
M  V30 610 C 56.1069 4.85075 -2.2257 0
M  V30 611 O 56.3299 5.57246 -1.21793 0
M  V30 612 O 55.2639 5.15269 -3.11098 0
M  V30 613 H 59.0899 1.93695 -2.33914 0
M  V30 614 H 56.6749 0.901313 -1.1915 0
M  V30 615 H 58.5569 4.06337 -1.11661 0
M  V30 616 H 57.2319 3.22634 -0.262486 0
M  V30 617 H 56.1389 2.75458 -2.53128 0
M  V30 618 H 57.4719 3.63747 -3.31586 0
M  V30 619 N 59.124 1.23083 0.984299 0
M  V30 620 C 60.37 1.06214 1.72761 0
M  V30 621 C 60.703 -0.400584 1.90024 0
M  V30 622 O 59.978 -1.29672 1.44967 0
M  V30 623 C 60.261 1.78375 3.12817 0
M  V30 624 C 60.114 3.32296 3.03149 0
M  V30 625 C 61.433 1.54309 4.12161 0
M  V30 626 H 58.552 0.387251 0.627061 0
M  V30 627 H 61.194 1.51536 1.14616 0
M  V30 628 H 59.344 1.39848 3.62457 0
M  V30 629 H 61.016 3.8032 2.61064 0
M  V30 630 H 59.259 3.6153 2.39747 0
M  V30 631 H 59.93 3.77972 4.02295 0
M  V30 632 H 62.406 1.87791 3.71314 0
M  V30 633 H 61.282 2.07281 5.08258 0
M  V30 634 H 61.543 0.477572 4.39513 0
M  V30 635 N 60.6021 -1.18246 1.0419 0
M  V30 636 C 62.0181 -1.40269 0.761366 0
M  V30 637 C 62.2181 -1.90777 -0.648578 0
M  V30 638 O 61.2741 -2.0929 -1.41258 0
M  V30 639 C 62.5871 -2.40237 1.8085 0
M  V30 640 C 64.1351 -2.53961 1.82955 0
M  V30 641 C 64.6101 -3.57194 2.86664 0
M  V30 642 N 66.1011 -3.64702 2.85563 0
M  V30 643 C 66.8361 -4.44309 3.6246 0
M  V30 644 N 66.3321 -5.27514 4.49111 0
M  V30 645 N 68.1251 -4.39084 3.50944 0
M  V30 646 H 60.2761 -0.837882 1.95175 0
M  V30 647 H 62.5391 -0.430608 0.84456 0
M  V30 648 H 62.2451 -2.10176 2.81991 0
M  V30 649 H 62.1191 -3.39601 1.64168 0
M  V30 650 H 64.5061 -2.83338 0.824855 0
M  V30 651 H 64.5871 -1.54706 2.03715 0
M  V30 652 H 64.2311 -3.28558 3.87314 0
M  V30 653 H 64.1611 -4.5613 2.6316 0
M  V30 654 H 66.6521 -3.05289 2.22727 0
M  V30 655 H 66.9651 -5.85411 5.04493 0
M  V30 656 H 65.3101 -5.2693 4.53178 0
M  V30 657 H 68.5011 -3.7313 2.82651 0
M  V30 658 H 68.6741 -5.00883 4.11121 0
M  V30 659 N 62.0802 -0.821533 -1.34494 0
M  V30 660 C 62.9902 -0.244355 -2.33324 0
M  V30 661 C 64.0062 0.620527 -1.62559 0
M  V30 662 O 65.1822 0.528754 -1.94335 0
M  V30 663 C 62.2472 0.585368 -3.41723 0
M  V30 664 C 61.3082 -0.301752 -4.28238 0
M  V30 665 C 60.5412 0.488466 -5.3146 0
M  V30 666 O 60.7642 1.72186 -5.4379 0
M  V30 667 O 59.6982 -0.12848 -6.01763 0
M  V30 668 H 63.5242 -1.06231 -2.84515 0
M  V30 669 H 61.1092 -0.583645 -1.37528 0
M  V30 670 H 62.9912 1.05747 -4.07916 0
M  V30 671 H 61.6662 1.38068 -2.92778 0
M  V30 672 H 60.5732 -0.821315 -3.64973 0
M  V30 673 H 61.9062 -1.06138 -4.8062 0
M  V30 674 N 63.5583 1.46682 -0.576371 0
M  V30 675 C 64.4903 2.28341 0.198231 0
M  V30 676 C 65.5033 1.38141 0.861453 0
M  V30 677 O 66.6923 1.62797 0.732082 0
M  V30 678 C 63.7923 3.12986 1.29972 0
M  V30 679 C 62.9653 4.31271 0.729639 0
M  V30 680 C 62.0243 4.97363 1.71803 0
M  V30 681 O 61.0503 5.55156 1.25658 0
M  V30 682 N 62.2523 4.93796 3.05198 0
M  V30 683 H 65.0173 2.9546 -0.502324 0
M  V30 684 H 62.5783 1.56525 -0.413715 0
M  V30 685 H 64.5703 3.54066 1.96008 0
M  V30 686 H 63.1403 2.47984 1.90323 0
M  V30 687 H 62.3603 3.94052 -0.108012 0
M  V30 688 H 63.6483 5.07739 0.328438 0
M  V30 689 H 63.0463 4.48077 3.45317 0
M  V30 690 H 61.6033 5.38837 3.6674 0
M  V30 691 N 65.0364 0.313813 1.54444 0
M  V30 692 C 66.4474 -0.176243 1.85866 0
M  V30 693 C 66.7984 -1.52405 1.23561 0
M  V30 694 O 65.9234 -2.09605 0.538016 0
M  V30 695 C 66.5184 -0.32657 3.37222 0
M  V30 696 C 65.0774 -0.760846 3.6863 0
M  V30 697 C 64.2244 0.123247 2.77026 0
M  V30 698 H 67.1754 0.534418 1.49431 0
M  V30 699 H 67.1964 -1.15908 3.62416 0
M  V30 700 H 66.7084 0.654531 3.82541 0
M  V30 701 H 64.8094 -1.75204 3.28838 0
M  V30 702 H 64.9224 -0.571353 4.75681 0
M  V30 703 H 63.2864 -0.399597 2.51546 0
M  V30 704 H 64.0694 1.10094 3.25168 0
M  V30 705 N 66.5145 -1.57545 0.0417849 0
M  V30 706 C 67.9305 -1.56467 -0.314704 0
M  V30 707 C 68.1305 -1.04859 -1.72066 0
M  V30 708 O 67.1865 -0.700983 -2.42575 0
M  V30 709 C 68.4995 -3.00317 -0.15174 0
M  V30 710 C 70.0475 -3.12201 -0.223553 0
M  V30 711 C 70.5225 -4.57913 -0.0892295 0
M  V30 712 N 72.0135 -4.6297 -0.145808 0
M  V30 713 C 72.7485 -5.73362 -0.0658459 0
M  V30 714 N 72.2445 -6.92769 0.0659282 0
M  V30 715 N 74.0375 -5.6197 -0.12075 0
M  V30 716 H 66.1885 -1.89416 0.961014 0
M  V30 717 H 68.4515 -0.871862 0.372237 0
M  V30 718 H 68.1575 -3.42073 0.817254 0
M  V30 719 H 68.0315 -3.65892 -0.916692 0
M  V30 720 H 70.4185 -2.70349 -1.18301 0
M  V30 721 H 70.4995 -2.49323 0.571994 0
M  V30 722 H 70.1435 -5.00448 0.866867 0
M  V30 723 H 70.0735 -5.18786 -0.903802 0
M  V30 724 H 72.5645 -3.7709 -0.247286 0
M  V30 725 H 72.8775 -7.72707 0.119905 0
M  V30 726 H 71.2225 -6.94927 0.100885 0
M  V30 727 H 74.4135 -4.67572 -0.222187 0
M  V30 728 H 74.5865 -6.47977 -0.0549735 0
M  V30 729 N 67.9926 0.231505 -1.5589 0
M  V30 730 C 68.9226 1.29022 -1.94617 0
M  V30 731 C 69.9036 1.4941 -0.813067 0
M  V30 732 O 71.0886 1.6176 -1.07459 0
M  V30 733 C 68.2186 2.64199 -2.25424 0
M  V30 734 C 67.1726 2.58484 -3.41131 0
M  V30 735 C 66.4986 3.97599 -3.57518 0
M  V30 736 C 67.7986 2.1413 -4.76388 0
M  V30 737 H 69.4926 0.968563 -2.83301 0
M  V30 738 H 67.0386 0.464479 -1.36303 0
M  V30 739 H 68.9916 3.38413 -2.51107 0
M  V30 740 H 67.7156 2.98032 -1.33583 0
M  V30 741 H 66.3746 1.86727 -3.15481 0
M  V30 742 H 66.0226 4.28723 -2.6307 0
M  V30 743 H 65.7226 3.94659 -4.35337 0
M  V30 744 H 67.2466 4.7349 -3.85538 0
M  V30 745 H 68.6606 2.78083 -5.01341 0
M  V30 746 H 67.0576 2.2227 -5.57419 0
M  V30 747 H 68.1276 1.09331 -4.72414 0
M  V30 748 N 69.4707 1.49531 0.497807 0
M  V30 749 C 70.7177 1.59179 1.25173 0
M  V30 750 C 71.0457 0.279932 1.92475 0
M  V30 751 O 70.3007 -0.732383 1.81479 0
M  V30 752 C 70.5997 2.70252 2.33878 0
M  V30 753 C 70.2657 4.11644 1.84012 0
M  V30 754 C 68.9277 4.50121 1.70132 0
M  V30 755 C 71.2797 5.00121 1.46725 0
M  V30 756 C 68.6077 5.74845 1.17348 0
M  V30 757 C 70.9597 6.25366 0.95392 0
M  V30 758 C 69.6237 6.6267 0.801538 0
M  V30 759 H 68.8937 0.582478 0.45804 0
M  V30 760 H 71.5407 1.83373 0.551948 0
M  V30 761 H 69.8457 2.40041 3.09657 0
M  V30 762 H 71.5427 2.74925 2.9192 0
M  V30 763 H 68.1327 3.81274 1.95775 0
M  V30 764 H 72.3167 4.71048 1.56294 0
M  V30 765 H 67.5727 6.02444 1.04264 0
M  V30 766 H 71.7467 6.93301 0.656225 0
M  V30 767 H 69.3737 7.59197 0.390351 0
M  V30 768 N 70.9488 -0.749086 1.3866 0
M  V30 769 C 72.3598 -1.32664 1.31366 0
M  V30 770 C 72.7108 -1.96179 -0.028484 0
M  V30 771 O 71.8358 -1.9537 -0.93057 0
M  V30 772 C 72.4308 -2.41219 2.37905 0
M  V30 773 C 70.9898 -2.94684 2.34176 0
M  V30 774 C 70.1368 -1.68108 2.20533 0
M  V30 775 H 73.0878 -0.547628 1.48952 0
M  V30 776 H 73.1088 -3.21268 2.0388 0
M  V30 777 H 72.6208 -1.94962 3.35576 0
M  V30 778 H 70.7218 -3.45258 1.401 0
M  V30 779 H 70.8348 -3.48757 3.2849 0
M  V30 780 H 69.1988 -1.91907 1.67463 0
M  V30 781 H 69.9818 -1.23923 3.20153 0
M  V30 782 N 72.4269 -1.23603 -0.977757 0
M  V30 783 C 73.8379 -1.06424 -1.53398 0
M  V30 784 C 74.1889 0.367578 -1.92726 0
M  V30 785 O 73.3139 1.25465 -1.76316 0
M  V30 786 C 73.9089 -1.92568 -2.78753 0
M  V30 787 C 72.4679 -1.79642 -3.30765 0
M  V30 788 C 71.6149 -1.88111 -2.03739 0
M  V30 789 H 74.5659 -1.37227 -0.797152 0
M  V30 790 H 74.5869 -1.45203 -3.51705 0
M  V30 791 H 74.0989 -2.96771 -2.50098 0
M  V30 792 H 72.1999 -0.782325 -3.64294 0
M  V30 793 H 72.3129 -2.63174 -4.00345 0
M  V30 794 H 70.6769 -1.31723 -2.17994 0
M  V30 795 H 71.4599 -2.93875 -1.77461 0
M  V30 796 N 73.905 1.17692 -1.04816 0
M  V30 797 C 75.13 1.92327 -0.776207 0
M  V30 798 C 75.555 1.76082 0.661581 0
M  V30 799 O 74.913 1.076 1.45917 0
M  V30 800 C 74.961 3.41539 -1.15687 0
M  V30 801 O 74.065 4.11402 -0.286775 0
M  V30 802 H 73.406 0.599735 -0.284981 0
M  V30 803 H 75.936 1.49201 -1.4 0
M  V30 804 H 75.946 3.92269 -1.12202 0
M  V30 805 H 74.621 3.52684 -2.20425 0
M  V30 806 H 73.198 3.70939 -0.381903 0
M  V30 807 N 75.3831 0.828654 1.34056 0
M  V30 808 C 76.3461 0.259927 2.27721 0
M  V30 809 C 77.3461 -0.565478 1.50529 0
M  V30 810 O 78.5361 -0.38075 1.69988 0
M  V30 811 C 75.6681 -0.634944 3.34935 0
M  V30 812 H 76.8611 1.0863 2.79534 0
M  V30 813 H 74.4141 0.600951 1.44285 0
M  V30 814 H 75.1491 -1.48416 2.88346 0
M  V30 815 H 74.9341 -0.0444999 3.92075 0
M  V30 816 H 76.4241 -1.02648 4.04788 0
M  V30 817 N 76.8612 -1.46375 0.584142 0
M  V30 818 C 78.1382 -1.956 0.0033388 0
M  V30 819 C 78.5182 -1.52679 -1.45782 0
M  V30 820 O 77.8662 -0.77816 -2.14842 0
M  V30 821 C 78.0762 -3.48551 0.176891 0
M  V30 822 C 79.4242 -4.24576 0.0454609 0
M  V30 823 O 80.4482 -3.56043 0.105801 0
M  V30 824 O 79.3072 -5.46427 -0.0890376 0
M  V30 825 H 76.4012 -0.825547 -0.0490066 0
M  V30 826 H 78.9472 -1.56652 0.65256 0
M  V30 827 H 77.7192 -3.72683 1.1926 0
M  V30 828 H 77.3422 -3.94332 -0.508695 0
M  V30 829 N 78.3393 -0.321999 -1.54275 0
M  V30 830 C 79.5693 0.282642 -2.04658 0
M  V30 831 C 79.9773 1.46453 -1.19784 0
M  V30 832 O 79.3203 1.82367 -0.220932 0
M  V30 833 C 79.3823 0.781857 -3.50895 0
M  V30 834 C 79.0463 -0.277517 -4.56157 0
M  V30 835 C 80.0433 -1.11307 -5.07845 0
M  V30 836 C 77.7283 -0.425256 -5.00497 0
M  V30 837 C 79.7223 -2.08211 -6.02434 0
M  V30 838 C 77.4093 -1.39771 -5.94901 0
M  V30 839 C 78.4073 -2.2246 -6.45756 0
M  V30 840 O 78.0953 -3.18054 -7.38307 0
M  V30 841 H 77.8273 0.0622636 -0.673126 0
M  V30 842 H 80.3813 -0.465792 -2.00049 0
M  V30 843 H 78.6113 1.58118 -3.52896 0
M  V30 844 H 80.3003 1.30467 -3.84361 0
M  V30 845 H 81.0663 -1.00991 -4.74369 0
M  V30 846 H 76.9453 0.20847 -4.60528 0
M  V30 847 H 80.4893 -2.72791 -6.42052 0
M  V30 848 H 76.3863 -1.50152 -6.27794 0
M  V30 849 H 77.1543 -3.13275 -7.56175 0
M  V30 850 N 79.8174 1.5752 -0.0501392 0
M  V30 851 C 81.2284 1.80271 0.485705 0
M  V30 852 C 81.5794 0.96228 1.70981 0
M  V30 853 O 80.7044 0.178578 2.15662 0
M  V30 854 C 81.2994 3.26957 0.887938 0
M  V30 855 C 79.8584 3.5063 1.36877 0
M  V30 856 C 79.0054 2.75165 0.343468 0
M  V30 857 H 81.9564 1.56281 -0.276028 0
M  V30 858 H 81.9774 3.37821 1.75093 0
M  V30 859 H 81.4894 3.881 -0.0031809 0
M  V30 860 H 79.5904 2.94766 2.27911 0
M  V30 861 H 79.7034 4.59343 1.36164 0
M  V30 862 H 78.0674 2.4127 0.816128 0
M  V30 863 H 78.8504 3.39034 -0.539548 0
M  V30 864 N 81.2955 -0.223234 1.56011 0
M  V30 865 C 82.5725 -0.972108 1.69733 0
M  V30 866 C 82.9525 -2.02485 0.59691 0
M  V30 867 O 82.3005 -2.25037 -0.396324 0
M  V30 868 C 82.5105 -1.58407 3.10979 0
M  V30 869 C 83.8585 -2.07696 3.70334 0
M  V30 870 O 84.8825 -1.68304 3.1393 0
M  V30 871 O 83.7415 -2.80096 4.69264 0
M  V30 872 H 80.8355 -0.453993 0.691245 0
M  V30 873 H 83.3815 -0.215149 1.68331 0
M  V30 874 H 82.1535 -0.823831 3.82529 0
M  V30 875 H 81.7765 -2.40661 3.16493 0
M  V30 876 N 82.7736 -1.49793 -0.48987 0
M  V30 877 C 83.7036 -1.70201 -1.59856 0
M  V30 878 C 84.6846 -0.55076 -1.60937 0
M  V30 879 O 85.8696 -0.787841 -1.77501 0
M  V30 880 C 82.9996 -1.77882 -2.98287 0
M  V30 881 C 81.9536 -2.92907 -3.12073 0
M  V30 882 C 81.2796 -2.85712 -4.51965 0
M  V30 883 C 82.5796 -4.3369 -2.91051 0
M  V30 884 H 84.2736 -2.63025 -1.43032 0
M  V30 885 H 81.8196 -1.26574 -0.686664 0
M  V30 886 H 83.7726 -1.90744 -3.75759 0
M  V30 887 H 82.4966 -0.816653 -3.16225 0
M  V30 888 H 81.1556 -2.79665 -2.37029 0
M  V30 889 H 80.8036 -1.8738 -4.66795 0
M  V30 890 H 80.5036 -3.62921 -4.62128 0
M  V30 891 H 82.0276 -3.00598 -5.31482 0
M  V30 892 H 83.4416 -4.47555 -3.58284 0
M  V30 893 H 81.8386 -5.12205 -3.12675 0
M  V30 894 H 82.9086 -4.47362 -1.87071 0
M  V30 895 N 84.2517 0.741722 -1.39055 0
M  V30 896 C 85.6677 1.04638 -1.20512 0
M  V30 897 C 85.8677 2.01405 -0.0620218 0
M  V30 898 O 84.9237 2.45547 0.588457 0
M  V30 899 C 86.2367 1.6151 -2.53643 0
M  V30 900 C 87.7847 1.73623 -2.6043 0
M  V30 901 C 88.2597 2.33906 -3.93767 0
M  V30 902 N 89.7507 2.41323 -3.9537 0
M  V30 903 C 90.4857 2.88888 -4.95309 0
M  V30 904 N 89.9817 3.36401 -6.05645 0
M  V30 905 N 91.7747 2.88037 -4.82692 0
M  V30 906 H 83.9257 0.0998155 -2.12165 0
M  V30 907 H 86.1887 0.106907 -0.941953 0
M  V30 908 H 85.8947 0.978739 -3.37807 0
M  V30 909 H 85.7687 2.60411 -2.72885 0
M  V30 910 H 88.1557 2.36384 -1.76655 0
M  V30 911 H 88.2367 0.733945 -2.45045 0
M  V30 912 H 87.8807 1.71776 -4.7797 0
M  V30 913 H 87.8107 3.34799 -4.06469 0
M  V30 914 H 90.3017 2.07734 -3.15682 0
M  V30 915 H 90.6147 3.71186 -6.77821 0
M  V30 916 H 88.9597 3.34427 -6.09248 0
M  V30 917 H 92.1507 2.50237 -3.95599 0
M  V30 918 H 92.3237 3.24792 -5.60726 0
M  V30 919 N 85.7298 1.2412 0.971189 0
M  V30 920 C 86.6768 1.0305 2.06517 0
M  V30 921 C 87.6468 -0.0550666 1.66009 0
M  V30 922 O 88.8318 0.0988688 1.90544 0
M  V30 923 C 85.9718 0.637653 3.39158 0
M  V30 924 C 85.0848 1.79633 3.92882 0
M  V30 925 C 84.2198 1.34939 5.13775 0
M  V30 926 C 83.2588 2.47823 5.59687 0
M  V30 927 N 82.3958 2.04022 6.71803 0
M  V30 928 H 87.2358 1.96685 2.23873 0
M  V30 929 H 84.7728 0.979694 1.09729 0
M  V30 930 H 86.7308 0.390931 4.15364 0
M  V30 931 H 85.3608 -0.261693 3.21737 0
M  V30 932 H 84.4128 2.15681 3.13346 0
M  V30 933 H 85.7248 2.64466 4.22918 0
M  V30 934 H 84.8788 1.06134 5.97345 0
M  V30 935 H 83.6178 0.471557 4.85415 0
M  V30 936 H 82.6228 2.77392 4.74693 0
M  V30 937 H 83.8478 3.36158 5.90063 0
M  V30 938 H 81.7938 1.18632 6.45184 0
M  V30 939 H 81.7108 2.82409 7.01271 0
M  V30 940 H 82.9788 1.78347 7.58823 0
M  V30 941 N 87.2079 -1.17134 1.05439 0
M  V30 942 C 88.1579 -2.1919 0.627675 0
M  V30 943 C 89.1419 -1.57328 -0.337147 0
M  V30 944 O 90.3339 -1.76329 -0.153976 0
M  V30 945 C 87.4629 -3.43299 0.00651435 0
M  V30 946 C 86.5489 -4.12255 0.995312 0
M  V30 947 N 86.9399 -4.56997 2.16765 0
M  V30 948 C 85.2379 -4.38316 0.824336 0
M  V30 949 C 85.9389 -5.10239 2.7934 0
M  V30 950 N 84.9149 -5.02595 2.07122 0
M  V30 951 H 88.7169 -2.5149 1.52086 0
M  V30 952 H 86.2309 -1.33491 0.924868 0
M  V30 953 H 88.2279 -4.15693 -0.316965 0
M  V30 954 H 86.8879 -3.1249 -0.882033 0
M  V30 955 H 87.8989 -4.51006 2.54587 0
M  V30 956 H 84.5759 -4.17498 -0.0129526 0
M  V30 957 H 85.9659 -5.54961 3.78772 0
M  V30 958 N 88.686 -0.835752 -1.33615 0
M  V30 959 C 89.634 -0.255238 -2.31195 0
M  V30 960 C 90.628 0.61107 -1.57995 0
M  V30 961 O 91.834 0.500979 -1.72888 0
M  V30 962 H 88.209 -0.0638085 -0.749288 0
M  V30 963 H 90.18 -1.09283 -2.77669 0
M  V30 964 C 88.929 0.55754 -3.43201 0
M  V30 965 H 88.252 -0.0997553 -3.99676 0
M  V30 966 H 89.692 0.929622 -4.13683 0
M  V30 967 C 88.151 1.73515 -2.88781 0
M  V30 968 O 88.681 2.83376 -2.84712 0
M  V30 969 N 86.887 1.55603 -2.4543 0
M  V30 970 H 86.434 0.662354 -2.48939 0
M  V30 971 H 86.392 2.34545 -2.09371 0
M  V30 972 N 90.1641 1.46063 -0.591896 0
M  V30 973 C 91.1121 2.32124 0.148739 0
M  V30 974 C 92.1061 1.45035 0.875286 0
M  V30 975 O 93.3121 1.61609 0.792632 0
M  V30 976 H 89.6871 0.749024 0.066832 0
M  V30 977 H 91.6581 2.92392 -0.595783 0
M  V30 978 C 90.4071 3.28373 1.1431 0
M  V30 979 H 89.7301 3.95371 0.59346 0
M  V30 980 H 91.1701 3.91352 1.63155 0
M  V30 981 C 89.6291 2.54393 2.20875 0
M  V30 982 O 90.1591 2.31373 3.28374 0
M  V30 983 N 88.3651 2.14797 1.95731 0
M  V30 984 H 87.9121 2.33719 1.08319 0
M  V30 985 H 87.8701 1.65619 2.67241 0
M  V30 986 N 91.6422 0.330177 1.54103 0
M  V30 987 C 92.8822 -0.270916 2.02597 0
M  V30 988 C 93.2462 -1.48826 1.21304 0
M  V30 989 O 94.4472 -2.16266 1.59633 0
M  V30 990 C 92.7182 -0.590328 3.52491 0
M  V30 991 S 94.2772 -1.17014 4.2291 0
M  V30 992 H 91.0952 -0.0815379 0.706309 0
M  V30 993 H 93.6972 0.464835 1.89893 0
M  V30 994 H 92.4012 0.303691 4.09275 0
M  V30 995 H 91.9322 -1.3561 3.69288 0
M  V30 996 H 93.9472 -2.45662 4.3112 0
M  V30 997 N 93.1203 -1.57491 0.0584922 0
M  V30 998 C 94.0533 -2.07533 -0.948969 0
M  V30 999 C 95.0313 -0.977444 -1.29942 0
M  V30 1000 O 96.2153 -1.2499 -1.41102 0
M  V30 1001 C 93.3423 -2.52192 -2.2609 0
M  V30 1002 C 92.3883 -3.73287 -2.06298 0
M  V30 1003 S 93.2213 -5.18603 -1.33459 0
M  V30 1004 C 94.3773 -5.66583 -2.65959 0
M  V30 1005 H 94.6103 -2.92662 -0.523118 0
M  V30 1006 H 92.1433 -1.53631 -0.153954 0
M  V30 1007 H 94.1013 -2.78585 -3.01498 0
M  V30 1008 H 92.7623 -1.67356 -2.65802 0
M  V30 1009 H 91.9553 -4.0248 -3.03357 0
M  V30 1010 H 91.5573 -3.47199 -1.39029 0
M  V30 1011 H 93.8493 -5.72616 -3.62101 0
M  V30 1012 H 94.7923 -6.65684 -2.41393 0
M  V30 1013 H 95.2003 -4.94342 -2.72554 0
M  V30 1014 N 94.5984 0.214957 -1.56127 0
M  V30 1015 C 95.5614 1.24997 -1.92116 0
M  V30 1016 C 96.5614 1.39467 -0.800344 0
M  V30 1017 O 97.7514 1.37619 -1.06802 0
M  V30 1018 C 94.8834 2.62271 -2.17777 0
M  V30 1019 H 96.0764 0.942875 -2.84693 0
M  V30 1020 H 93.6294 0.455654 -1.49511 0
M  V30 1021 H 94.3644 2.98068 -1.27773 0
M  V30 1022 H 94.1494 2.53143 -2.99434 0
M  V30 1023 H 95.6394 3.36946 -2.46693 0
M  V30 1024 N 96.0765 1.50051 0.48192 0
M  V30 1025 C 96.9865 1.7089 1.60728 0
M  V30 1026 C 98.0025 0.591788 1.63627 0
M  V30 1027 O 99.1785 0.868817 1.81696 0
M  V30 1028 C 96.2435 1.78855 2.97005 0
M  V30 1029 C 95.3045 3.02537 3.04581 0
M  V30 1030 C 94.5375 3.10112 4.34357 0
M  V30 1031 O 94.7605 2.24765 5.24249 0
M  V30 1032 O 93.6945 4.02747 4.47301 0
M  V30 1033 H 97.5205 2.66264 1.46072 0
M  V30 1034 H 95.1055 1.34018 0.660264 0
M  V30 1035 H 96.9875 1.86336 3.77964 0
M  V30 1036 H 95.6625 0.866628 3.11883 0
M  V30 1037 H 94.5695 3.00563 2.22739 0
M  V30 1038 H 95.9025 3.94272 2.94636 0
M  V30 1039 N 97.5546 -0.734337 1.39446 0
M  V30 1040 C 98.7946 -1.50655 1.38139 0
M  V30 1041 C 99.1586 -1.91986 -0.0228701 0
M  V30 1042 O 100.36 -2.68318 -0.160947 0
M  V30 1043 C 98.6306 -2.71251 2.32718 0
M  V30 1044 S 100.19 -3.60892 2.49605 0
M  V30 1045 H 97.0076 -0.515315 0.489869 0
M  V30 1046 H 99.6096 -0.860392 1.75549 0
M  V30 1047 H 98.3136 -2.39027 3.33608 0
M  V30 1048 H 97.8446 -3.40795 1.96526 0
M  V30 1049 H 99.8596 -4.64899 1.73446 0
M  V30 1050 N 99.0327 -1.24633 -0.964593 0
M  V30 1051 C 99.9627 -1.06611 -2.07741 0
M  V30 1052 C 100.944 0.0218666 -1.70086 0
M  V30 1053 O 102.129 -0.145793 -1.93652 0
M  V30 1054 C 99.2587 -0.673444 -3.40708 0
M  V30 1055 C 98.2127 -1.71054 -3.92332 0
M  V30 1056 C 97.5387 -1.17285 -5.21678 0
M  V30 1057 C 98.8387 -3.10718 -4.19824 0
M  V30 1058 H 100.533 -1.99693 -2.23076 0
M  V30 1059 H 98.0787 -0.96152 -1.07195 0
M  V30 1060 H 100.032 -0.534345 -4.17998 0
M  V30 1061 H 98.7557 0.293073 -3.25282 0
M  V30 1062 H 97.4147 -1.83791 -3.17201 0
M  V30 1063 H 97.0627 -0.196847 -5.02615 0
M  V30 1064 H 96.7627 -1.86592 -5.57187 0
M  V30 1065 H 98.2867 -1.04593 -6.01575 0
M  V30 1066 H 99.7007 -3.01192 -4.87808 0
M  V30 1067 H 98.0977 -3.77406 -4.66567 0
M  V30 1068 H 99.1677 -3.58524 -3.26479 0
M  V30 1069 N 100.511 1.16574 -1.06058 0
M  V30 1070 C 101.739 1.90952 -0.796552 0
M  V30 1071 C 102.154 1.77302 0.648808 0
M  V30 1072 O 101.511 1.11605 1.44397 0
M  V30 1073 C 101.562 3.41736 -1.17894 0
M  V30 1074 O 101.283 3.54975 -2.56758 0
M  V30 1075 C 102.784 4.33169 -0.942308 0
M  V30 1076 H 100.004 0.605594 -0.288959 0
M  V30 1077 H 102.548 1.47777 -1.41358 0
M  V30 1078 H 100.703 3.82623 -0.606491 0
M  V30 1079 H 101.117 4.4846 -2.72 0
M  V30 1080 H 102.591 5.37439 -1.25952 0
M  V30 1081 H 103.068 4.3903 0.122078 0
M  V30 1082 H 103.674 3.98007 -1.49902 0
M  V30 1083 N 101.989 0.842826 1.3317 0
M  V30 1084 C 103.4 0.496651 1.79973 0
M  V30 1085 C 103.751 -0.984641 1.69703 0
M  V30 1086 O 102.876 -1.76743 1.24863 0
M  V30 1087 C 103.471 0.894727 3.26772 0
M  V30 1088 C 102.03 0.600629 3.71577 0
M  V30 1089 C 101.177 1.10091 2.5451 0
M  V30 1090 H 104.128 1.03116 1.20635 0
M  V30 1091 H 104.149 0.206347 3.7994 0
M  V30 1092 H 103.661 1.97287 3.34215 0
M  V30 1093 H 101.762 -0.467284 3.69658 0
M  V30 1094 H 101.875 1.15863 4.64879 0
M  V30 1095 H 100.239 0.52162 2.49301 0
M  V30 1096 H 101.022 2.18591 2.64713 0
M  V30 1097 N 103.467 -1.45747 0.599634 0
M  V30 1098 C 104.43 -2.28917 -0.113835 0
M  V30 1099 C 105.43 -1.3933 -0.802729 0
M  V30 1100 O 106.62 -1.61534 -0.652103 0
M  V30 1101 C 103.752 -3.20152 -1.17114 0
M  V30 1102 H 104.945 -2.93478 0.617289 0
M  V30 1103 H 102.498 -1.52137 0.358327 0
M  V30 1104 H 103.233 -2.60374 -1.93329 0
M  V30 1105 H 103.018 -3.86133 -0.681468 0
M  V30 1106 H 104.508 -3.82708 -1.67105 0
M  V30 1107 N 104.945 -0.338344 -1.53925 0
M  V30 1108 C 106.194 0.260732 -2.00008 0
M  V30 1109 C 106.507 1.52073 -1.23017 0
M  V30 1110 O 107.713 2.19672 -1.5955 0
M  V30 1111 C 106.169 0.51515 -3.56194 0
M  V30 1112 C 105.777 -0.728645 -4.42035 0
M  V30 1113 C 107.521 1.07337 -4.10706 0
M  V30 1114 C 105.428 -0.445315 -5.89721 0
M  V30 1115 H 104.358 0.101205 -0.747177 0
M  V30 1116 H 107.009 -0.452866 -1.77824 0
M  V30 1117 H 105.391 1.28932 -3.74423 0
M  V30 1118 H 106.565 -1.50352 -4.35581 0
M  V30 1119 H 104.88 -1.20813 -3.98489 0
M  V30 1120 H 107.477 1.30022 -5.18651 0
M  V30 1121 H 107.82 2.0273 -3.63602 0
M  V30 1122 H 108.353 0.360034 -3.96167 0
M  V30 1123 H 105.092 -1.36883 -6.41049 0
M  V30 1124 H 104.612 0.291569 -5.99091 0
M  V30 1125 H 106.291 -0.0606218 -6.46972 0
M  V30 1126 N 106.423 1.57458 -0.0668435 0
M  V30 1127 C 107.653 1.97337 0.611677 0
M  V30 1128 C 108.061 0.943744 1.63982 0
M  V30 1129 O 107.404 -0.0785584 1.83532 0
M  V30 1130 C 107.466 3.33511 1.34205 0
M  V30 1131 C 107.13 4.54598 0.467941 0
M  V30 1132 C 108.127 5.19186 -0.272439 0
M  V30 1133 C 105.812 5.0075 0.39427 0
M  V30 1134 C 107.806 6.28274 -1.07476 0
M  V30 1135 C 105.493 6.09711 -0.411729 0
M  V30 1136 C 106.491 6.73335 -1.14492 0
M  V30 1137 O 106.179 7.80199 -1.93763 0
M  V30 1138 H 105.911 0.654042 0.170893 0
M  V30 1139 H 108.465 2.04961 -0.134289 0
M  V30 1140 H 106.695 3.22487 2.13398 0
M  V30 1141 H 108.384 3.58029 1.91233 0
M  V30 1142 H 109.15 4.84477 -0.225086 0
M  V30 1143 H 105.029 4.51009 0.954569 0
M  V30 1144 H 108.573 6.77866 -1.64755 0
M  V30 1145 H 104.47 6.43854 -0.460664 0
M  V30 1146 H 105.238 7.97053 -1.86142 0
M  V30 1147 N 107.901 -0.206675 1.56239 0
M  V30 1148 C 108.864 -1.23976 1.92776 0
M  V30 1149 C 109.864 -1.39041 0.807729 0
M  V30 1150 O 111.054 -1.37051 1.0753 0
M  V30 1151 C 108.186 -2.61112 2.19165 0
M  V30 1152 H 109.379 -0.927764 2.85189 0
M  V30 1153 H 106.932 -0.447718 1.4975 0
M  V30 1154 H 107.667 -2.97386 1.29352 0
M  V30 1155 H 107.452 -2.51552 3.00772 0
M  V30 1156 H 108.942 -3.35633 2.48476 0
M  V30 1157 N 109.379 -1.50304 -0.473955 0
M  V30 1158 C 110.326 -1.68959 -1.57231 0
M  V30 1159 C 111.296 -0.530899 -1.57387 0
M  V30 1160 O 112.481 -0.761133 -1.74961 0
M  V30 1161 C 109.621 -1.7871 -2.95223 0
M  V30 1162 C 108.734 -3.06061 -3.04878 0
M  V30 1163 C 107.869 -3.06626 -4.33767 0
M  V30 1164 C 106.908 -4.28443 -4.37154 0
M  V30 1165 N 106.045 -4.26763 -5.5751 0
M  V30 1166 H 110.885 -2.6273 -1.40631 0
M  V30 1167 H 108.422 -1.30241 -0.683789 0
M  V30 1168 H 110.38 -1.82344 -3.75242 0
M  V30 1169 H 109.01 -0.883806 -3.10465 0
M  V30 1170 H 108.062 -3.11911 -2.17751 0
M  V30 1171 H 109.374 -3.96039 -3.0324 0
M  V30 1172 H 108.528 -3.08973 -5.22131 0
M  V30 1173 H 107.267 -2.14473 -4.3801 0
M  V30 1174 H 106.272 -4.2631 -3.47188 0
M  V30 1175 H 107.497 -5.2182 -4.34605 0
M  V30 1176 H 105.443 -3.37462 -5.62544 0
M  V30 1177 H 105.36 -5.10507 -5.57601 0
M  V30 1178 H 106.628 -4.33253 -6.48006 0
M  V30 1179 N 110.857 0.726932 -1.39834 0
M  V30 1180 C 111.787 1.85405 -1.41941 0
M  V30 1181 C 112.768 1.67751 -0.281728 0
M  V30 1182 O 113.953 1.8795 -0.488717 0
M  V30 1183 C 111.083 3.23243 -1.2701 0
M  V30 1184 C 110.037 3.55549 -2.38262 0
M  V30 1185 C 109.363 4.9241 -2.08415 0
M  V30 1186 C 110.663 3.577 -3.80589 0
M  V30 1187 H 112.357 1.83899 -2.36266 0
M  V30 1188 H 109.903 0.883349 -1.13723 0
M  V30 1189 H 111.856 4.01775 -1.27103 0
M  V30 1190 H 110.58 3.25296 -0.291564 0
M  V30 1191 H 109.239 2.79351 -2.37399 0
M  V30 1192 H 108.887 4.91052 -1.0898 0
M  V30 1193 H 108.587 5.14992 -2.82943 0
M  V30 1194 H 110.111 5.73289 -2.10171 0
M  V30 1195 H 111.525 4.26293 -3.83337 0
M  V30 1196 H 109.922 3.91804 -4.54543 0
M  V30 1197 H 110.992 2.57328 -4.10987 0
M  V30 1198 N 112.336 1.25143 0.95797 0
M  V30 1199 C 113.752 1.01892 1.22842 0
M  V30 1200 C 113.952 -0.266311 1.99732 0
M  V30 1201 O 113.008 -0.979913 2.3271 0
M  V30 1202 C 114.321 2.24004 2.00606 0
M  V30 1203 C 115.869 2.28731 2.13662 0
M  V30 1204 C 116.344 3.5049 2.94823 0
M  V30 1205 N 117.835 3.50866 3.02403 0
M  V30 1206 C 118.57 4.4174 3.65586 0
M  V30 1207 N 118.066 5.42882 4.30408 0
M  V30 1208 N 119.859 4.29429 3.62694 0
M  V30 1209 H 112.01 2.07718 0.443493 0
M  V30 1210 H 114.273 0.912031 0.258657 0
M  V30 1211 H 113.979 3.17395 1.51503 0
M  V30 1212 H 113.853 2.26907 3.01319 0
M  V30 1213 H 116.24 1.35865 2.61963 0
M  V30 1214 H 116.321 2.29848 1.12265 0
M  V30 1215 H 115.965 4.43676 2.47213 0
M  V30 1216 H 115.895 3.46617 3.96439 0
M  V30 1217 H 118.386 2.777 2.56302 0
M  V30 1218 H 118.699 6.0844 4.76467 0
M  V30 1219 H 117.044 5.46758 4.29047 0
M  V30 1220 H 120.235 3.49643 3.11236 0
M  V30 1221 H 120.408 5.00448 4.1165 0
M  V30 1222 N 113.814 -1.1601 1.06675 0
M  V30 1223 C 114.762 -2.22586 0.675157 0
M  V30 1224 C 115.756 -1.66525 -0.310766 0
M  V30 1225 O 116.962 -1.79145 -0.175215 0
M  V30 1226 H 113.337 -0.724855 0.200223 0
M  V30 1227 H 115.308 -2.52899 1.58381 0
M  V30 1228 C 114.057 -3.47604 0.0817162 0
M  V30 1229 H 113.38 -3.91058 0.831484 0
M  V30 1230 H 114.82 -4.23718 -0.154708 0
M  V30 1231 C 113.279 -3.15718 -1.17576 0
M  V30 1232 O 113.809 -3.31878 -2.26318 0
M  V30 1233 N 112.015 -2.69816 -1.07923 0
M  V30 1234 H 111.562 -2.56866 -0.194293 0
M  V30 1235 H 111.52 -2.48855 -1.92141 0
M  V30 1236 N 115.292 -0.849877 -1.32721 0
M  V30 1237 C 116.239 -0.289033 -2.28983 0
M  V30 1238 C 117.209 0.601324 -1.54833 0
M  V30 1239 O 118.394 0.537253 -1.8308 0
M  V30 1240 C 115.534 0.520623 -3.4115 0
M  V30 1241 C 114.647 -0.394989 -4.3019 0
M  V30 1242 C 113.782 0.426834 -5.29482 0
M  V30 1243 C 112.821 -0.486476 -6.10164 0
M  V30 1244 N 111.958 0.297879 -7.01468 0
M  V30 1245 H 116.798 -1.11519 -2.76347 0
M  V30 1246 H 114.335 -0.56138 -1.35967 0
M  V30 1247 H 116.293 1.00563 -4.04899 0
M  V30 1248 H 114.923 1.31165 -2.9495 0
M  V30 1249 H 113.975 -0.99836 -3.67065 0
M  V30 1250 H 115.287 -1.09612 -4.86607 0
M  V30 1251 H 114.441 0.975205 -5.98811 0
M  V30 1252 H 113.18 1.16136 -4.73671 0
M  V30 1253 H 112.185 -1.04677 -5.39743 0
M  V30 1254 H 113.41 -1.21953 -6.6806 0
M  V30 1255 H 111.356 1.01558 -6.48091 0
M  V30 1256 H 111.273 -0.344318 -7.55216 0
M  V30 1257 H 112.541 0.828131 -7.75089 0
M  V30 1258 N 116.77 1.45427 -0.607355 0
M  V30 1259 C 118.016 2.0254 -0.102607 0
M  V30 1260 C 118.349 1.47478 1.26348 0
M  V30 1261 O 117.624 0.64939 1.83339 0
M  V30 1262 C 117.907 3.60044 -0.0634347 0
M  V30 1263 C 117.76 4.2544 -1.46017 0
M  V30 1264 C 119.079 4.35646 0.624514 0
M  V30 1265 H 116.198 0.73598 -0.0387607 0
M  V30 1266 H 118.84 1.73284 -0.779282 0
M  V30 1267 H 116.99 3.85101 0.512808 0
M  V30 1268 H 118.662 4.11569 -2.08347 0
M  V30 1269 H 116.905 3.83849 -2.02094 0
M  V30 1270 H 117.576 5.34342 -1.385 0
M  V30 1271 H 120.052 4.15882 0.134723 0
M  V30 1272 H 118.928 5.45376 0.621028 0
M  V30 1273 H 119.189 4.08501 1.69055 0
M  V30 1274 N 118.248 0.346503 1.53744 0
M  V30 1275 C 119.476 -0.25041 2.05379 0
M  V30 1276 C 119.891 -1.43979 1.22129 0
M  V30 1277 O 119.248 -1.80677 0.257321 0
M  V30 1278 C 119.299 -0.662575 3.55376 0
M  V30 1279 O 119.02 0.479515 4.35468 0
M  V30 1280 C 120.521 -1.31989 4.23195 0
M  V30 1281 H 117.741 -0.0478198 0.669294 0
M  V30 1282 H 120.285 0.499346 1.9831 0
M  V30 1283 H 118.44 -1.36227 3.62658 0
M  V30 1284 H 118.854 0.15037 5.24284 0
M  V30 1285 H 120.328 -1.55902 5.29527 0
M  V30 1286 H 120.805 -2.27436 3.75725 0
M  V30 1287 H 121.411 -0.662154 4.20114 0
M  V30 1288 N 119.726 -1.57421 0.075193 0
M  V30 1289 C 121.137 -1.81021 -0.456964 0
M  V30 1290 C 121.488 -0.98936 -1.69429 0
M  V30 1291 O 120.613 -0.212865 -2.15351 0
M  V30 1292 C 121.208 -3.28329 -0.83581 0
M  V30 1293 C 119.767 -3.52764 -1.31281 0
M  V30 1294 C 118.914 -2.75676 -0.299648 0
M  V30 1295 H 121.865 -1.55822 0.300856 0
M  V30 1296 H 121.886 -3.40564 -1.69696 0
M  V30 1297 H 121.398 -3.88046 0.0649238 0
M  V30 1298 H 119.499 -2.98355 -2.23193 0
M  V30 1299 H 119.612 -4.61451 -1.28839 0
M  V30 1300 H 117.976 -2.42538 -0.777641 0
M  V30 1301 H 118.759 -3.38132 0.593417 0
M  V30 1302 N 121.204 0.198386 -1.56346 0
M  V30 1303 C 122.152 1.26538 -1.95169 0
M  V30 1304 C 123.146 1.47295 -0.836685 0
M  V30 1305 O 124.352 1.48195 -1.02167 0
M  V30 1306 H 120.727 0.424744 -0.620561 0
M  V30 1307 H 122.698 0.910904 -2.84157 0
M  V30 1308 C 121.447 2.6035 -2.30463 0
M  V30 1309 H 120.77 2.45192 -3.15786 0
M  V30 1310 H 122.21 3.33762 -2.61494 0
M  V30 1311 C 120.669 3.17096 -1.13806 0
M  V30 1312 O 121.199 3.99588 -0.41135 0
M  V30 1313 N 119.405 2.75795 -0.915736 0
M  V30 1314 H 118.952 2.08816 -1.50843 0
M  V30 1315 H 118.91 3.14101 -0.136979 0
M  V30 1316 N 122.682 1.50554 0.465978 0
M  V30 1317 C 123.93 1.61479 1.21528 0
M  V30 1318 C 124.251 0.319596 1.92363 0
M  V30 1319 O 123.521 -0.663194 1.84333 0
M  V30 1320 H 122.101 0.595055 0.451573 0
M  V30 1321 H 124.763 1.87355 0.53704 0
M  V30 1322 H 123.859 2.42846 1.96042 0
M  V30 1323 N 124.16 -0.719506 1.40217 0
M  V30 1324 C 125.39 -1.50646 1.41384 0
M  V30 1325 C 125.798 -1.89197 0.0107743 0
M  V30 1326 O 125.141 -1.55709 -0.974708 0
M  V30 1327 C 125.203 -2.81405 2.23722 0
M  V30 1328 C 124.867 -2.65199 3.72181 0
M  V30 1329 C 125.864 -2.32717 4.64907 0
M  V30 1330 C 123.549 -2.81586 4.1595 0
M  V30 1331 C 125.543 -2.16827 5.99387 0
M  V30 1332 C 123.23 -2.65313 5.50502 0
M  V30 1333 C 124.228 -2.32981 6.42035 0
M  V30 1334 O 123.916 -2.16827 7.74107 0
M  V30 1335 H 123.648 -0.471606 0.484318 0
M  V30 1336 H 126.202 -0.895456 1.84853 0
M  V30 1337 H 124.432 -3.44823 1.75026 0
M  V30 1338 H 126.121 -3.43102 2.16878 0
M  V30 1339 H 126.887 -2.19694 4.32388 0
M  V30 1340 H 122.766 -3.0574 3.45027 0
M  V30 1341 H 126.31 -1.91513 6.70797 0
M  V30 1342 H 122.207 -2.7792 5.82607 0
M  V30 1343 H 122.975 -2.31778 7.84998 0
M  V30 1344 N 125.638 -1.25649 -0.95132 0
M  V30 1345 C 126.866 -1.13343 -1.73092 0
M  V30 1346 C 127.281 0.312434 -1.86197 0
M  V30 1347 O 126.638 1.21465 -1.36207 0
M  V30 1348 C 126.689 -1.78602 -3.14299 0
M  V30 1349 O 126.41 -3.17537 -3.01831 0
M  V30 1350 C 127.911 -1.72119 -4.08522 0
M  V30 1351 H 125.131 -0.395181 -0.542285 0
M  V30 1352 H 127.675 -1.66076 -1.19328 0
M  V30 1353 H 125.83 -1.29832 -3.64996 0
M  V30 1354 H 126.244 -3.49676 -3.90931 0
M  V30 1355 H 127.718 -2.22435 -5.052 0
M  V30 1356 H 128.195 -0.685635 -4.33815 0
M  V30 1357 H 128.801 -2.20393 -3.63741 0
M  V30 1358 N 127.117 1.15442 -1.07289 0
M  V30 1359 C 128.047 2.22312 -0.714107 0
M  V30 1360 C 129.028 1.67467 0.298155 0
M  V30 1361 O 130.213 1.93445 0.171048 0
M  V30 1362 C 127.343 3.47124 -0.110448 0
M  V30 1363 C 126.297 4.14926 -1.04979 0
M  V30 1364 C 125.623 5.33807 -0.308924 0
M  V30 1365 C 126.923 4.64762 -2.38314 0
M  V30 1366 H 128.617 2.5258 -1.6076 0
M  V30 1367 H 126.163 1.21404 -0.77441 0
M  V30 1368 H 128.116 4.21124 0.152482 0
M  V30 1369 H 126.84 3.16187 0.81812 0
M  V30 1370 H 125.499 3.42866 -1.29764 0
M  V30 1371 H 125.147 4.99126 0.623084 0
M  V30 1372 H 124.847 5.80113 -0.935036 0
M  V30 1373 H 126.371 6.10576 -0.0537771 0
M  V30 1374 H 127.785 5.30292 -2.1786 0
M  V30 1375 H 126.182 5.21728 -2.96514 0
M  V30 1376 H 127.252 3.80434 -3.00663 0
M  V30 1377 N 128.595 0.856903 1.32268 0
M  V30 1378 C 129.872 0.382583 1.91822 0
M  V30 1379 C 130.252 -1.13407 1.78051 0
M  V30 1380 O 129.6 -1.95673 1.18001 0
M  V30 1381 C 129.81 0.849446 3.38505 0
M  V30 1382 C 131.158 0.867936 4.15634 0
M  V30 1383 O 132.182 0.794232 3.47232 0
M  V30 1384 O 131.041 0.972286 5.37781 0
M  V30 1385 H 128.135 0.112014 0.819379 0
M  V30 1386 H 130.681 0.943952 1.41024 0
M  V30 1387 H 129.453 1.89267 3.42482 0
M  V30 1388 H 129.076 0.265652 3.96712 0
M  V30 1389 N 130.073 -1.45103 0.615059 0
M  V30 1390 C 131.005 -2.28786 -0.13762 0
M  V30 1391 C 132.018 -1.40376 -0.824525 0
M  V30 1392 O 133.207 -1.64681 -0.688662 0
M  V30 1393 C 130.307 -3.16322 -1.21628 0
M  V30 1394 C 129.48 -4.33054 -0.615039 0
M  V30 1395 C 128.539 -5.01743 -1.58556 0
M  V30 1396 O 127.565 -5.58293 -1.10895 0
M  V30 1397 N 128.767 -5.01714 -2.91998 0
M  V30 1398 H 131.532 -2.94025 0.580483 0
M  V30 1399 H 129.093 -1.55373 0.45507 0
M  V30 1400 H 131.085 -3.59139 -1.86552 0
M  V30 1401 H 129.655 -2.52943 -1.83681 0
M  V30 1402 H 128.875 -3.93627 0.21245 0
M  V30 1403 H 130.163 -5.08431 -0.193704 0
M  V30 1404 H 129.561 -4.57075 -3.33316 0
M  V30 1405 H 128.118 -5.48371 -3.52325 0
M  V30 1406 N 131.551 -0.354651 -1.53558 0
M  V30 1407 C 132.791 0.238651 -2.03002 0
M  V30 1408 C 133.155 1.46878 -1.23656 0
M  V30 1409 O 134.356 2.13699 -1.63053 0
M  V30 1410 C 132.627 0.534175 -3.53386 0
M  V30 1411 S 134.186 1.10271 -4.24719 0
M  V30 1412 H 131.004 0.0702908 -0.707517 0
M  V30 1413 H 133.606 -0.494987 -1.8913 0
M  V30 1414 H 132.31 -0.368765 -4.0874 0
M  V30 1415 H 131.841 1.29718 -3.71398 0
M  V30 1416 H 133.856 2.38772 -4.34974 0
M  V30 1417 N 133.029 1.57378 -0.0835403 0
M  V30 1418 C 134.278 1.93106 0.582498 0
M  V30 1419 C 134.591 0.96651 1.70053 0
M  V30 1420 O 135.797 1.21705 2.42693 0
M  V30 1421 C 134.253 3.43076 1.08751 0
M  V30 1422 C 133.861 4.48 -0.000146404 0
M  V30 1423 C 135.605 3.87785 1.72694 0
M  V30 1424 C 133.512 5.89113 0.519568 0
M  V30 1425 H 132.442 0.720775 0.221358 0
M  V30 1426 H 135.093 1.82821 -0.157675 0
M  V30 1427 H 133.475 3.48474 1.88101 0
M  V30 1428 H 134.649 4.54233 -0.775199 0
M  V30 1429 H 132.964 4.1283 -0.54406 0
M  V30 1430 H 135.561 4.90604 2.1263 0
M  V30 1431 H 135.904 3.25796 2.59158 0
M  V30 1432 H 136.437 3.8504 0.999457 0
M  V30 1433 H 133.176 6.54775 -0.308186 0
M  V30 1434 H 132.696 5.86376 1.26188 0
M  V30 1435 H 134.375 6.39346 0.992237 0
M  V30 1436 N 134.507 -0.190092 1.56449 0
M  V30 1437 C 135.439 -1.25973 1.91477 0
M  V30 1438 C 136.452 -1.41452 0.805931 0
M  V30 1439 O 137.641 -1.41789 1.08435 0
M  V30 1440 C 134.741 -2.63117 2.13594 0
M  V30 1441 C 133.914 -2.69182 3.4476 0
M  V30 1442 C 132.973 -3.87557 3.5593 0
M  V30 1443 O 131.999 -3.74427 4.28711 0
M  V30 1444 N 133.201 -5.03224 2.89388 0
M  V30 1445 H 135.966 -0.962394 2.83828 0
M  V30 1446 H 133.527 -0.379981 1.57378 0
M  V30 1447 H 135.519 -3.40742 2.1835 0
M  V30 1448 H 134.089 -2.85319 1.27719 0
M  V30 1449 H 133.309 -1.77793 3.51828 0
M  V30 1450 H 134.597 -2.70229 4.31107 0
M  V30 1451 H 133.995 -5.16791 2.30094 0
M  V30 1452 H 132.552 -5.78778 2.99764 0
M  V30 1453 N 135.985 -1.50799 -0.457987 0
M  V30 1454 C 137.213 -1.66218 -1.23203 0
M  V30 1455 C 137.628 -0.350894 -1.85511 0
M  V30 1456 O 136.985 0.668546 -1.69814 0
M  V30 1457 C 137.036 -2.76291 -2.33121 0
M  V30 1458 O 136.757 -4.02338 -1.73366 0
M  V30 1459 C 138.258 -3.028 -3.2377 0
M  V30 1460 H 135.478 -0.558361 -0.372121 0
M  V30 1461 H 138.022 -1.97099 -0.545179 0
M  V30 1462 H 136.177 -2.48068 -2.97558 0
M  V30 1463 H 136.591 -4.63312 -2.4585 0
M  V30 1464 H 138.065 -3.8345 -3.97077 0
M  V30 1465 H 138.542 -2.14385 -3.83322 0
M  V30 1466 H 139.148 -3.32604 -2.65056 0
M  V30 1467 N 137.463 0.71206 -1.40597 0
M  V30 1468 C 138.711 1.46907 -1.38791 0
M  V30 1469 C 139.032 1.94998 0.00780391 0
M  V30 1470 O 138.302 1.70587 0.963174 0
M  V30 1471 H 136.882 0.545043 -0.51082 0
M  V30 1472 H 139.544 0.843882 -1.75683 0
M  V30 1473 H 138.64 2.34021 -2.06496 0
M  V30 1474 N 138.941 1.26152 0.944643 0
M  V30 1475 C 140.187 1.11657 1.69294 0
M  V30 1476 C 140.52 -0.339926 1.91202 0
M  V30 1477 O 139.795 -1.24994 1.49019 0
M  V30 1478 C 140.078 1.88236 3.06984 0
M  V30 1479 C 139.931 3.41772 2.92424 0
M  V30 1480 C 141.25 1.67343 4.07043 0
M  V30 1481 H 138.369 0.407004 0.614424 0
M  V30 1482 H 141.011 1.55106 1.09737 0
M  V30 1483 H 139.161 1.51308 3.57824 0
M  V30 1484 H 140.833 3.88433 2.48832 0
M  V30 1485 H 139.076 3.68974 2.28124 0
M  V30 1486 H 139.747 3.90579 3.90067 0
M  V30 1487 H 142.223 1.99509 3.65151 0
M  V30 1488 H 141.099 2.23346 5.01406 0
M  V30 1489 H 141.36 0.617158 4.37771 0
M  V30 1490 N 140.419 -1.14872 1.07899 0
M  V30 1491 C 141.696 -1.81928 0.71845 0
M  V30 1492 C 142.076 -1.95417 -0.798455 0
M  V30 1493 O 141.424 -1.50997 -1.715 0
M  V30 1494 C 141.634 -3.17937 1.43935 0
M  V30 1495 C 142.982 -3.93501 1.59506 0
M  V30 1496 O 144.006 -3.27509 1.40058 0
M  V30 1497 O 142.865 -5.1183 1.91551 0
M  V30 1498 H 139.959 -0.78628 0.256305 0
M  V30 1499 H 142.505 -1.21934 1.18026 0
M  V30 1500 H 141.277 -3.0325 2.47295 0
M  V30 1501 H 140.9 -3.85619 0.968687 0
M  V30 1502 N 141.898 -0.863906 -1.31812 0
M  V30 1503 C 142.846 -0.30422 -2.30602 0
M  V30 1504 C 143.84 0.577419 -1.59255 0
M  V30 1505 O 145.046 0.464194 -1.73912 0
M  V30 1506 H 141.421 -0.0796877 -0.747766 0
M  V30 1507 H 143.392 -1.15148 -2.75288 0
M  V30 1508 C 142.141 0.484617 -3.44306 0
M  V30 1509 H 141.464 -0.18451 -3.99374 0
M  V30 1510 H 142.904 0.841664 -4.15562 0
M  V30 1511 C 141.363 1.6735 -2.92396 0
M  V30 1512 O 141.893 2.77273 -2.90659 0
M  V30 1513 N 140.099 1.50362 -2.48676 0
M  V30 1514 H 139.646 0.609402 -2.50288 0
M  V30 1515 H 139.604 2.30051 -2.14299 0
M  V30 1516 N 143.376 1.44774 -0.622745 0
M  V30 1517 C 144.787 1.85546 -0.207226 0
M  V30 1518 C 145.138 1.52093 1.23944 0
M  V30 1519 O 144.263 0.95492 1.94191 0
M  V30 1520 C 144.858 3.36781 -0.369313 0
M  V30 1521 C 143.417 3.76399 -0.00836847 0
M  V30 1522 C 142.564 2.68664 -0.686651 0
M  V30 1523 H 145.515 1.3536 -0.828454 0
M  V30 1524 H 145.536 3.78453 0.394162 0
M  V30 1525 H 145.048 3.61098 -1.42231 0
M  V30 1526 H 143.149 3.57698 1.04322 0
M  V30 1527 H 143.262 4.7732 -0.412584 0
M  V30 1528 H 141.626 2.54404 -0.122777 0
M  V30 1529 H 142.409 2.95815 -1.74208 0
M  V30 1530 N 144.854 0.36279 1.53368 0
M  V30 1531 C 146.102 -0.227326 2.00817 0
M  V30 1532 C 146.423 -1.49511 1.25186 0
M  V30 1533 O 145.693 -1.92482 0.364348 0
M  V30 1534 H 144.273 -0.0869923 0.741917 0
M  V30 1535 H 146.935 0.488381 1.88682 0
M  V30 1536 H 146.031 -0.456273 3.08747 0
M  V30 1537 N 146.332 -1.57332 0.0918853 0
M  V30 1538 C 147.282 -2.10385 -0.87876 0
M  V30 1539 C 148.266 -1.01814 -1.24591 0
M  V30 1540 O 149.458 -1.28093 -1.22152 0
M  V30 1541 C 146.587 -2.68517 -2.13901 0
M  V30 1542 C 145.673 -3.84126 -1.79744 0
M  V30 1543 N 146.064 -4.92288 -1.1613 0
M  V30 1544 C 144.362 -3.93801 -2.09373 0
M  V30 1545 C 145.063 -5.7295 -1.00513 0
M  V30 1546 N 144.039 -5.21876 -1.5214 0
M  V30 1547 H 147.841 -2.91395 -0.38293 0
M  V30 1548 H 145.355 -1.62017 -0.111423 0
M  V30 1549 H 147.352 -3.04852 -2.84378 0
M  V30 1550 H 146.012 -1.88961 -2.64053 0
M  V30 1551 H 147.023 -5.1123 -0.828504 0
M  V30 1552 H 143.7 -3.25249 -2.61762 0
M  V30 1553 H 145.09 -6.69978 -0.507902 0
M  V30 1554 N 147.81 0.181792 -1.56548 0
M  V30 1555 C 149.221 0.745244 -1.71181 0
M  V30 1556 C 149.572 1.83262 -0.70068 0
M  V30 1557 O 148.697 2.15946 0.140154 0
M  V30 1558 C 149.292 1.35859 -3.10367 0
M  V30 1559 C 147.851 1.86898 -3.2672 0
M  V30 1560 C 146.998 0.743942 -2.67134 0
M  V30 1561 H 149.949 -0.0434661 -1.5864 0
M  V30 1562 H 149.97 2.22817 -3.08436 0
M  V30 1563 H 149.482 0.566948 -3.83937 0
M  V30 1564 H 147.583 2.68738 -2.5809 0
M  V30 1565 H 147.696 2.02162 -4.34359 0
M  V30 1566 H 146.06 1.16169 -2.26665 0
M  V30 1567 H 146.843 -0.035676 -3.43281 0
M  V30 1568 N 149.288 1.51039 0.449983 0
M  V30 1569 C 150.535 1.63081 1.20045 0
M  V30 1570 C 150.863 0.341024 1.91487 0
M  V30 1571 O 150.118 -0.674276 1.83717 0
M  V30 1572 C 150.417 2.77556 2.25161 0
M  V30 1573 C 150.083 4.17289 1.70823 0
M  V30 1574 C 148.745 4.55305 1.55725 0
M  V30 1575 C 151.097 5.04536 1.3074 0
M  V30 1576 C 148.425 5.78287 0.989999 0
M  V30 1577 C 150.777 6.28085 0.754482 0
M  V30 1578 C 149.441 6.64885 0.590308 0
M  V30 1579 H 148.711 0.596755 0.439277 0
M  V30 1580 H 151.358 1.85037 0.49333 0
M  V30 1581 H 149.663 2.49771 3.01863 0
M  V30 1582 H 151.36 2.84073 2.83026 0
M  V30 1583 H 147.95 3.8731 1.83546 0
M  V30 1584 H 152.134 4.75782 1.41229 0
M  V30 1585 H 147.39 6.05456 0.850451 0
M  V30 1586 H 151.564 6.95038 0.435324 0
M  V30 1587 H 149.191 7.60055 0.14862 0
M  V30 1588 N 150.766 -0.704594 1.40972 0
M  V30 1589 C 152.015 -1.46018 1.39146 0
M  V30 1590 C 152.328 -1.956 0.000589254 0
M  V30 1591 O 153.534 -2.71137 -0.1403 0
M  V30 1592 C 151.99 -2.63996 2.4461 0
M  V30 1593 C 151.598 -2.21238 3.89561 0
M  V30 1594 C 153.342 -3.41677 2.51907 0
M  V30 1595 C 151.249 -3.3612 4.86598 0
M  V30 1596 H 150.179 -0.548444 0.517422 0
M  V30 1597 H 152.83 -0.765784 1.66757 0
M  V30 1598 H 151.212 -3.3566 2.10115 0
M  V30 1599 H 152.386 -1.56923 4.33257 0
M  V30 1600 H 150.701 -1.56574 3.85841 0
M  V30 1601 H 153.298 -4.27182 3.2159 0
M  V30 1602 H 153.641 -3.86247 1.55303 0
M  V30 1603 H 154.174 -2.77064 2.85448 0
M  V30 1604 H 150.913 -2.96572 5.84573 0
M  V30 1605 H 150.433 -3.99315 4.47557 0
M  V30 1606 H 152.112 -4.02029 5.06934 0
M  V30 1607 N 152.244 -1.26651 -0.937939 0
M  V30 1608 C 153.191 -1.0849 -2.03712 0
M  V30 1609 C 154.161 0.011033 -1.66096 0
M  V30 1610 O 155.346 -0.149353 -1.90215 0
M  V30 1611 C 152.486 -0.72735 -3.37348 0
M  V30 1612 C 151.599 -1.89986 -3.87981 0
M  V30 1613 C 150.734 -1.48513 -5.10017 0
M  V30 1614 C 149.773 -2.62575 -5.5292 0
M  V30 1615 N 148.91 -2.21762 -6.66158 0
M  V30 1616 H 153.75 -2.02551 -2.18579 0
M  V30 1617 H 151.287 -1.00844 -1.07093 0
M  V30 1618 H 153.245 -0.50092 -4.14182 0
M  V30 1619 H 151.875 0.176298 -3.22318 0
M  V30 1620 H 150.927 -2.23913 -3.07518 0
M  V30 1621 H 152.239 -2.75586 -4.15757 0
M  V30 1622 H 151.393 -1.21934 -5.94321 0
M  V30 1623 H 150.132 -0.60009 -4.83994 0
M  V30 1624 H 149.137 -2.8988 -4.67172 0
M  V30 1625 H 150.362 -3.51685 -5.80943 0
M  V30 1626 H 148.308 -1.35696 -6.41812 0
M  V30 1627 H 148.225 -3.00903 -6.93537 0
M  V30 1628 H 149.493 -1.98403 -7.53828 0
M  V30 1629 N 153.722 1.14298 -1.08507 0
M  V30 1630 C 154.95 1.89219 -0.836876 0
M  V30 1631 C 155.365 1.78638 0.611054 0
M  V30 1632 O 154.722 1.14643 1.41998 0
M  V30 1633 C 154.773 3.39158 -1.25116 0
M  V30 1634 O 154.494 3.49449 -2.64229 0
M  V30 1635 C 155.995 4.31073 -1.03398 0
M  V30 1636 H 153.215 0.599328 -0.301739 0
M  V30 1637 H 155.759 1.44746 -1.44461 0
M  V30 1638 H 153.914 3.81251 -0.687514 0
M  V30 1639 H 154.328 4.42589 -2.81452 0
M  V30 1640 H 155.802 5.34646 -1.37323 0
M  V30 1641 H 156.279 4.3919 0.0289259 0
M  V30 1642 H 156.885 3.94738 -1.58311 0
M  V30 1643 N 155.201 0.870884 1.31352 0
M  V30 1644 C 156.447 0.482987 1.96965 0
M  V30 1645 C 156.78 -0.962462 1.68672 0
M  V30 1646 O 156.055 -1.6779 0.98371 0
M  V30 1647 C 156.338 0.741752 3.52378 0
M  V30 1648 C 156.191 2.2368 3.9024 0
M  V30 1649 C 157.51 0.208838 4.39604 0
M  V30 1650 H 154.629 0.176955 0.715441 0
M  V30 1651 H 157.271 1.09229 1.55464 0
M  V30 1652 H 155.421 0.223149 3.87859 0
M  V30 1653 H 157.093 2.82273 3.64856 0
M  V30 1654 H 155.336 2.70901 3.38814 0
M  V30 1655 H 156.007 2.3685 4.98604 0
M  V30 1656 H 158.483 0.652529 4.10952 0
M  V30 1657 H 157.359 0.419336 5.47296 0
M  V30 1658 H 157.62 -0.889275 4.33064 0
M  V30 1659 N 156.679 -1.44442 0.630414 0
M  V30 1660 C 157.927 -2.01653 0.134351 0
M  V30 1661 C 158.248 -1.49836 -1.24796 0
M  V30 1662 O 157.518 -0.701684 -1.82902 0
M  V30 1663 H 156.098 -0.74554 0.0466769 0
M  V30 1664 H 158.76 -1.76952 0.816955 0
M  V30 1665 H 157.856 -3.11935 0.101498 0
M  V30 1666 N 158.157 -0.370918 -1.53173 0
M  V30 1667 C 159.09 0.516727 -2.22273 0
M  V30 1668 C 160.068 1.07877 -1.21661 0
M  V30 1669 O 161.252 1.13389 -1.50583 0
M  V30 1670 C 158.379 1.71346 -2.92161 0
M  V30 1671 C 157.425 1.27838 -4.0689 0
M  V30 1672 S 158.258 0.275217 -5.34792 0
M  V30 1673 C 159.414 1.47816 -6.08195 0
M  V30 1674 H 159.647 -0.0701054 -2.97217 0
M  V30 1675 H 157.18 -0.155038 -1.5362 0
M  V30 1676 H 159.138 2.39988 -3.3304 0
M  V30 1677 H 157.799 2.27156 -2.16931 0
M  V30 1678 H 156.992 2.17141 -4.54825 0
M  V30 1679 H 156.594 0.671105 -3.6793 0
M  V30 1680 H 158.886 2.40831 -6.33251 0
M  V30 1681 H 159.829 1.04008 -7.0042 0
M  V30 1682 H 160.237 1.68663 -5.38714 0
M  V30 1683 N 159.635 1.57281 -0.100228 0
M  V30 1684 C 160.881 1.94826 0.563101 0
M  V30 1685 C 161.214 0.982475 1.67514 0
M  V30 1686 O 160.489 0.0164069 1.94493 0
M  V30 1687 C 160.772 3.42453 1.11346 0
M  V30 1688 C 160.625 4.498 0.00612081 0
M  V30 1689 C 161.944 3.91506 2.01024 0
M  V30 1690 H 159.063 0.708428 0.203221 0
M  V30 1691 H 161.705 1.8922 -0.171979 0
M  V30 1692 H 159.855 3.47361 1.7399 0
M  V30 1693 H 161.527 4.57 -0.628357 0
M  V30 1694 H 159.77 4.28756 -0.659581 0
M  V30 1695 H 160.441 5.50306 0.432109 0
M  V30 1696 H 162.917 3.88784 1.48278 0
M  V30 1697 H 161.793 4.95358 2.36457 0
M  V30 1698 H 162.054 3.31099 2.92961 0
M  V30 1699 N 161.113 -0.173488 1.56642 0
M  V30 1700 C 162.076 -1.19859 1.95362 0
M  V30 1701 C 163.076 -1.37296 0.83704 0
M  V30 1702 O 164.266 -1.34739 1.10413 0
M  V30 1703 C 161.398 -2.56405 2.24654 0
M  V30 1704 H 162.591 -0.867062 2.87092 0
M  V30 1705 H 160.144 -0.415853 1.50666 0
M  V30 1706 H 160.879 -2.94576 1.35631 0
M  V30 1707 H 160.664 -2.45115 3.06041 0
M  V30 1708 H 162.154 -3.30287 2.5554 0
M  V30 1709 N 162.591 -1.51276 -0.441967 0
M  V30 1710 C 163.839 -1.63392 -1.18943 0
M  V30 1711 C 164.16 -0.350159 -1.9183 0
M  V30 1712 O 163.43 0.633784 -1.85364 0
M  V30 1713 H 162.01 -0.602164 -0.442049 0
M  V30 1714 H 164.672 -1.88186 -0.507165 0
M  V30 1715 H 163.768 -2.45934 -1.92154 0
M  V30 1716 N 164.069 0.697108 -1.41344 0
M  V30 1717 C 165.346 1.45154 -1.31109 0
M  V30 1718 C 165.726 2.11009 0.0620449 0
M  V30 1719 O 165.074 2.01571 1.07618 0
M  V30 1720 C 165.284 2.47223 -2.46337 0
M  V30 1721 C 166.632 3.1252 -2.87431 0
M  V30 1722 O 167.656 2.57547 -2.46065 0
M  V30 1723 O 166.515 4.12083 -3.58957 0
M  V30 1724 H 163.609 0.646365 -0.515889 0
M  V30 1725 H 166.155 0.727716 -1.53305 0
M  V30 1726 H 164.927 1.97204 -3.37974 0
M  V30 1727 H 164.55 3.27116 -2.2601 0
M  V30 1728 N 165.547 1.27147 0.931209 0
M  V30 1729 C 166.457 1.11372 2.06478 0
M  V30 1730 C 167.473 0.044645 1.73943 0
M  V30 1731 O 168.649 0.250417 1.99837 0
M  V30 1732 C 165.714 0.758838 3.38294 0
M  V30 1733 C 164.775 1.90841 3.84549 0
M  V30 1734 C 164.008 1.57036 5.10074 0
M  V30 1735 O 164.231 0.476645 5.68405 0
M  V30 1736 O 163.165 2.40839 5.51616 0
M  V30 1737 H 166.991 2.06493 2.22698 0
M  V30 1738 H 164.576 1.06301 1.04978 0
M  V30 1739 H 166.458 0.574098 4.17471 0
M  V30 1740 H 165.133 -0.162879 3.2329 0
M  V30 1741 H 164.04 2.14819 3.06274 0
M  V30 1742 H 165.373 2.81021 4.04089 0
M  V30 1743 N 167.025 -1.13721 1.09112 0
M  V30 1744 C 167.935 -2.22638 0.73957 0
M  V30 1745 C 168.951 -1.72091 -0.257068 0
M  V30 1746 O 170.127 -2.01155 -0.0992154 0
M  V30 1747 C 167.192 -3.46322 0.16191 0
M  V30 1748 C 166.253 -4.11775 1.21408 0
M  V30 1749 C 165.486 -5.29555 0.663891 0
M  V30 1750 O 165.709 -5.68077 -0.514274 0
M  V30 1751 O 164.643 -5.84973 1.41738 0
M  V30 1752 H 168.469 -2.55074 1.64836 0
M  V30 1753 H 166.054 -1.21791 0.865289 0
M  V30 1754 H 167.936 -4.21107 -0.157073 0
M  V30 1755 H 166.611 -3.15593 -0.719932 0
M  V30 1756 H 165.518 -3.3883 1.58571 0
M  V30 1757 H 166.851 -4.46627 2.06845 0
M  V30 1758 N 168.503 -0.877838 -1.30888 0
M  V30 1759 C 169.728 -0.506629 -2.01117 0
M  V30 1760 C 170.153 0.895564 -1.65412 0
M  V30 1761 O 169.511 1.5923 -0.866922 0
M  V30 1762 C 169.559 -0.680223 -3.54126 0
M  V30 1763 O 168.663 0.277033 -4.11468 0
M  V30 1764 H 168.004 -0.200518 -0.633 0
M  V30 1765 H 170.534 -1.18342 -1.66902 0
M  V30 1766 H 170.544 -0.5765 -4.03907 0
M  V30 1767 H 169.219 -1.70261 -3.79452 0
M  V30 1768 H 167.796 0.127606 -3.72682 0
M  V30 1769 N 169.982 1.44106 -0.638065 0
M  V30 1770 C 171.212 2.06037 -0.152394 0
M  V30 1771 C 171.62 1.47808 1.18108 0
M  V30 1772 O 170.963 0.598092 1.73691 0
M  V30 1773 C 171.025 3.59488 0.0293714 0
M  V30 1774 C 170.689 4.4022 -1.22702 0
M  V30 1775 C 171.686 4.73256 -2.15232 0
M  V30 1776 C 169.371 4.8048 -1.46437 0
M  V30 1777 C 171.365 5.45444 -3.29802 0
M  V30 1778 C 169.052 5.52417 -2.61303 0
M  V30 1779 C 170.05 5.84819 -3.52811 0
M  V30 1780 O 169.738 6.55289 -4.65673 0
M  V30 1781 H 169.47 0.671233 -0.0801401 0
M  V30 1782 H 172.024 1.85851 -0.874563 0
M  V30 1783 H 170.254 3.78191 0.806758 0
M  V30 1784 H 171.943 4.03164 0.470475 0
M  V30 1785 H 172.709 4.42684 -1.98131 0
M  V30 1786 H 168.588 4.54676 -0.760977 0
M  V30 1787 H 172.132 5.70653 -4.01249 0
M  V30 1788 H 168.029 5.82404 -2.78344 0
M  V30 1789 H 168.797 6.73762 -4.64744 0
M  V30 1790 N 171.46 0.379036 1.52974 0
M  V30 1791 C 172.37 -0.468639 2.29872 0
M  V30 1792 C 173.386 -1.08067 1.36373 0
M  V30 1793 O 174.562 -1.08871 1.69438 0
M  V30 1794 C 171.627 -1.58594 3.083 0
M  V30 1795 C 170.688 -1.00007 4.17489 0
M  V30 1796 C 169.921 -2.06413 4.92168 0
M  V30 1797 O 170.144 -3.27751 4.66835 0
M  V30 1798 O 169.078 -1.68717 5.7777 0
M  V30 1799 H 172.904 0.157508 3.03291 0
M  V30 1800 H 170.489 0.143035 1.48714 0
M  V30 1801 H 172.371 -2.23525 3.57232 0
M  V30 1802 H 171.046 -2.19724 2.37703 0
M  V30 1803 H 169.953 -0.314299 3.72777 0
M  V30 1804 H 171.286 -0.433135 4.90291 0
M  V30 1805 N 172.938 -1.57226 0.108567 0
M  V30 1806 C 174.184 -1.95121 -0.552761 0
M  V30 1807 C 174.517 -0.991345 -1.66991 0
M  V30 1808 O 173.792 -0.0267211 -1.94482 0
M  V30 1809 C 174.075 -3.43039 -1.09528 0
M  V30 1810 C 173.928 -4.49797 0.0177332 0
M  V30 1811 C 175.247 -3.92567 -1.98945 0
M  V30 1812 H 172.366 -0.709496 -0.199461 0
M  V30 1813 H 175.008 -1.89126 0.182011 0
M  V30 1814 H 173.158 -3.48279 -1.72146 0
M  V30 1815 H 174.83 -4.56661 0.652584 0
M  V30 1816 H 173.073 -4.284 0.682309 0
M  V30 1817 H 173.744 -5.50528 -0.402919 0
M  V30 1818 H 176.22 -3.89565 -1.46214 0
M  V30 1819 H 175.096 -4.96605 -2.33827 0
M  V30 1820 H 175.357 -3.32648 -2.91201 0
M  V30 1821 N 174.416 0.165178 -1.56732 0
M  V30 1822 C 175.663 0.880807 -1.8234 0
M  V30 1823 C 175.991 1.81977 -0.686621 0
M  V30 1824 O 175.246 1.92971 0.325697 0
M  V30 1825 C 175.545 1.70405 -3.1416 0
M  V30 1826 C 175.211 0.913475 -4.4155 0
M  V30 1827 C 173.873 0.695303 -4.7615 0
M  V30 1828 C 176.225 0.359349 -5.1996 0
M  V30 1829 C 173.553 -0.0879947 -5.86634 0
M  V30 1830 C 175.905 -0.410893 -6.31264 0
M  V30 1831 C 174.569 -0.639808 -6.64427 0
M  V30 1832 H 173.839 0.32231 -0.667231 0
M  V30 1833 H 176.486 0.145402 -1.90947 0
M  V30 1834 H 174.791 2.50903 -3.00923 0
M  V30 1835 H 176.488 2.26091 -3.31186 0
M  V30 1836 H 173.078 1.09357 -4.14414 0
M  V30 1837 H 177.262 0.515228 -4.93618 0
M  V30 1838 H 172.518 -0.27503 -6.10781 0
M  V30 1839 H 176.692 -0.847494 -6.91224 0
M  V30 1840 H 174.319 -1.24864 -7.49875 0
M  V30 1841 N 175.894 1.51508 0.433938 0
M  V30 1842 C 176.857 1.72473 1.50949 0
M  V30 1843 C 177.857 0.594725 1.49398 0
M  V30 1844 O 179.047 0.862315 1.5136 0
M  V30 1845 C 176.179 1.78431 2.90474 0
M  V30 1846 H 177.372 2.68467 1.33662 0
M  V30 1847 H 174.925 1.41549 0.662836 0
M  V30 1848 H 175.66 0.842645 3.13161 0
M  V30 1849 H 175.445 2.60558 2.93005 0
M  V30 1850 H 176.935 1.96479 3.68491 0
M  V30 1851 N 177.372 -0.689602 1.41712 0
M  V30 1852 C 178.649 -1.44457 1.31877 0
M  V30 1853 C 179.029 -2.11039 -0.0508537 0
M  V30 1854 O 178.377 -2.02138 -1.06547 0
M  V30 1855 C 178.587 -2.45913 2.47645 0
M  V30 1856 C 179.935 -3.10991 2.89084 0
M  V30 1857 O 180.959 -2.56238 2.47428 0
M  V30 1858 O 179.818 -4.10174 3.61137 0
M  V30 1859 H 176.912 -0.64362 0.519309 0
M  V30 1860 H 179.458 -0.719576 1.53689 0
M  V30 1861 H 178.23 -1.95409 3.39015 0
M  V30 1862 H 177.853 -3.25913 2.27742 0
M  V30 1863 N 178.85 -1.27639 -0.924453 0
M  V30 1864 C 179.78 -1.13166 -2.04244 0
M  V30 1865 C 180.761 -0.032256 -1.70069 0
M  V30 1866 O 181.946 -0.207328 -1.9309 0
M  V30 1867 C 179.076 -0.781496 -3.38393 0
M  V30 1868 C 178.03 -1.83449 -3.86692 0
M  V30 1869 C 177.356 -1.33822 -5.17683 0
M  V30 1870 C 178.656 -3.23917 -4.09726 0
M  V30 1871 H 180.35 -2.06689 -2.1661 0
M  V30 1872 H 177.896 -0.995136 -1.04082 0
M  V30 1873 H 179.849 -0.667057 -4.16087 0
M  V30 1874 H 178.573 0.189439 -3.2605 0
M  V30 1875 H 177.232 -1.93789 -3.11193 0
M  V30 1876 H 176.88 -0.35665 -5.01734 0
M  V30 1877 H 176.58 -2.04224 -5.50968 0
M  V30 1878 H 178.104 -1.23679 -5.97943 0
M  V30 1879 H 179.518 -3.16559 -4.77978 0
M  V30 1880 H 177.915 -3.92059 -4.54324 0
M  V30 1881 H 178.985 -3.68729 -3.14908 0
M  V30 1882 N 180.328 1.1314 -1.09713 0
M  V30 1883 C 181.575 1.84484 -0.834987 0
M  V30 1884 C 181.903 1.83689 0.639418 0
M  V30 1885 O 181.158 1.2724 1.4869 0
M  V30 1886 C 181.457 3.32167 -1.3191 0
M  V30 1887 C 181.123 3.53139 -2.80363 0
M  V30 1888 C 179.785 3.58571 -3.20905 0
M  V30 1889 C 182.137 3.60866 -3.76065 0
M  V30 1890 C 179.465 3.69267 -4.55916 0
M  V30 1891 C 181.817 3.73089 -5.10869 0
M  V30 1892 C 180.481 3.76775 -5.50996 0
M  V30 1893 H 179.751 0.675073 -0.305544 0
M  V30 1894 H 182.398 1.33554 -1.37243 0
M  V30 1895 H 180.703 3.85469 -0.701517 0
M  V30 1896 H 182.4 3.85821 -1.09284 0
M  V30 1897 H 178.99 3.49569 -2.47991 0
M  V30 1898 H 183.174 3.55946 -3.45855 0
M  V30 1899 H 178.43 3.70388 -4.86438 0
M  V30 1900 H 182.604 3.78011 -5.84877 0
M  V30 1901 H 180.231 3.84815 -6.55608 0
M  V30 1902 N 181.806 0.884767 1.30421 0
M  V30 1903 C 183.083 0.423185 1.90967 0
M  V30 1904 C 183.463 -1.09605 1.80416 0
M  V30 1905 O 182.811 -1.93126 1.22125 0
M  V30 1906 C 183.021 0.921056 3.36627 0
M  V30 1907 C 184.369 0.955903 4.137 0
M  V30 1908 O 185.393 0.867706 3.4547 0
M  V30 1909 O 184.252 1.08614 5.35598 0
M  V30 1910 H 181.346 0.129369 0.816819 0
M  V30 1911 H 183.892 0.973653 1.3899 0
M  V30 1912 H 182.664 1.96489 3.3839 0
M  V30 1913 H 182.287 0.349741 3.96059 0
M  V30 1914 N 183.284 -1.43765 0.645699 0
M  V30 1915 C 184.695 -1.85193 0.236719 0
M  V30 1916 C 185.046 -1.54045 -1.21509 0
M  V30 1917 O 184.171 -0.985694 -1.92647 0
M  V30 1918 C 184.766 -3.36151 0.422845 0
M  V30 1919 C 183.325 -3.76338 0.0682492 0
M  V30 1920 C 182.472 -2.67538 0.729306 0
M  V30 1921 H 185.423 -1.34025 0.849883 0
M  V30 1922 H 185.444 -3.79032 -0.333904 0
M  V30 1923 H 184.956 -3.5879 1.47958 0
M  V30 1924 H 183.057 -3.59312 -0.986179 0
M  V30 1925 H 183.17 -4.76603 0.488469 0
M  V30 1926 H 181.534 -2.54176 0.163235 0
M  V30 1927 H 182.317 -2.93006 1.78892 0
M  V30 1928 N 184.763 -0.387143 -1.52771 0
M  V30 1929 C 186.009 0.196025 -2.0185 0
M  V30 1930 C 186.342 1.46641 -1.27319 0
M  V30 1931 O 185.617 1.90889 -0.373032 0
M  V30 1932 C 185.9 0.466136 -3.5707 0
M  V30 1933 C 185.753 -0.819385 -4.42274 0
M  V30 1934 C 187.072 1.25768 -4.21747 0
M  V30 1935 H 184.191 0.0697708 -0.73369 0
M  V30 1936 H 186.833 -0.516286 -1.82851 0
M  V30 1937 H 184.983 1.07293 -3.7339 0
M  V30 1938 H 186.655 -1.4563 -4.37709 0
M  V30 1939 H 184.898 -1.43517 -4.09372 0
M  V30 1940 H 185.569 -0.585065 -5.48891 0
M  V30 1941 H 188.045 0.744167 -4.09391 0
M  V30 1942 H 186.921 1.41541 -5.30337 0
M  V30 1943 H 187.182 2.27228 -3.79236 0
M  V30 1944 N 186.241 1.57166 -0.116904 0
M  V30 1945 C 187.49 1.94298 0.541407 0
M  V30 1946 C 187.803 1.00236 1.67964 0
M  V30 1947 O 189.009 1.26826 2.40057 0
M  V30 1948 C 187.465 3.45306 1.01449 0
M  V30 1949 C 187.073 4.47899 -0.0951738 0
M  V30 1950 C 188.817 3.91361 1.6443 0
M  V30 1951 C 186.724 5.90083 0.394491 0
M  V30 1952 H 185.654 0.725308 0.206019 0
M  V30 1953 H 188.305 1.82446 -0.196419 0
M  V30 1954 H 186.687 3.52385 1.80667 0
M  V30 1955 H 187.861 4.52486 -0.871374 0
M  V30 1956 H 186.176 4.11583 -0.631505 0
M  V30 1957 H 188.773 4.95004 2.02176 0
M  V30 1958 H 189.116 3.3122 2.52189 0
M  V30 1959 H 189.649 3.87073 0.917559 0
M  V30 1960 H 186.388 6.53974 -0.447004 0
M  V30 1961 H 185.908 5.88921 1.13722 0
M  V30 1962 H 187.587 6.41307 0.856399 0
M  V30 1963 N 187.719 -0.156864 1.56817 0
M  V30 1964 C 188.666 -1.19394 1.97519 0
M  V30 1965 C 189.636 -1.4322 0.841265 0
M  V30 1966 O 190.821 -1.55719 1.10255 0
M  V30 1967 C 187.961 -2.52483 2.35258 0
M  V30 1968 C 187.074 -2.35914 3.61896 0
M  V30 1969 C 186.209 -3.61969 3.88782 0
M  V30 1970 C 185.248 -3.40395 5.08722 0
M  V30 1971 N 184.385 -4.58556 5.31668 0
M  V30 1972 H 189.225 -0.839845 2.85921 0
M  V30 1973 H 186.762 -0.403264 1.41464 0
M  V30 1974 H 188.72 -3.30071 2.55165 0
M  V30 1975 H 187.35 -2.85859 1.49949 0
M  V30 1976 H 186.402 -1.49429 3.49821 0
M  V30 1977 H 187.714 -2.15926 4.49641 0
M  V30 1978 H 186.868 -4.47989 4.09135 0
M  V30 1979 H 185.607 -3.84951 2.9944 0
M  V30 1980 H 184.612 -2.52763 4.88253 0
M  V30 1981 H 185.837 -3.18822 5.99608 0
M  V30 1982 H 183.783 -4.81729 4.45279 0
M  V30 1983 H 183.7 -4.41535 6.13664 0
M  V30 1984 H 184.968 -5.45817 5.5651 0
M  V30 1985 N 189.197 -1.51736 -0.425897 0
M  V30 1986 C 190.127 -1.76827 -1.52494 0
M  V30 1987 C 191.108 -0.618524 -1.58456 0
M  V30 1988 O 192.293 -0.862416 -1.74 0
M  V30 1989 C 189.423 -1.90374 -2.90474 0
M  V30 1990 C 188.377 -3.0588 -2.99369 0
M  V30 1991 C 187.703 -3.04625 -4.3944 0
M  V30 1992 C 189.003 -4.45644 -2.72394 0
M  V30 1993 H 190.697 -2.68855 -1.31748 0
M  V30 1994 H 188.243 -1.29372 -0.632362 0
M  V30 1995 H 190.196 -2.0651 -3.6733 0
M  V30 1996 H 188.92 -0.95004 -3.12477 0
M  V30 1997 H 187.579 -2.89467 -2.24954 0
M  V30 1998 H 187.227 -2.0701 -4.58428 0
M  V30 1999 H 186.927 -3.82195 -4.46319 0
M  V30 2000 H 188.451 -3.22869 -5.18255 0
M  V30 2001 H 189.865 -4.62348 -3.38979 0
M  V30 2002 H 188.262 -5.25006 -2.9067 0
M  V30 2003 H 189.332 -4.54893 -1.67929 0
M  V30 2004 N 190.675 0.682077 -1.42076 0
M  V30 2005 C 192.091 0.994324 -1.24841 0
M  V30 2006 C 192.291 2.0096 -0.147389 0
M  V30 2007 O 191.347 2.47822 0.483782 0
M  V30 2008 C 192.66 1.50607 -2.60265 0
M  V30 2009 C 194.208 1.62421 -2.6756 0
M  V30 2010 C 194.683 2.16994 -4.03333 0
M  V30 2011 N 196.174 2.24337 -4.0525 0
M  V30 2012 C 196.909 2.67621 -5.07116 0
M  V30 2013 N 196.405 3.1041 -6.19368 0
M  V30 2014 N 198.198 2.67305 -4.94474 0
M  V30 2015 H 190.349 0.00973908 -2.12398 0
M  V30 2016 H 192.612 0.0668593 -0.945639 0
M  V30 2017 H 192.318 0.834583 -3.41654 0
M  V30 2018 H 192.192 2.48602 -2.83684 0
M  V30 2019 H 194.579 2.28678 -1.86521 0
M  V30 2020 H 194.66 0.629352 -2.47937 0
M  V30 2021 H 194.304 1.51349 -4.84826 0
M  V30 2022 H 194.234 3.17258 -4.20304 0
M  V30 2023 H 196.725 1.94158 -3.24209 0
M  V30 2024 H 197.038 3.42103 -6.92954 0
M  V30 2025 H 195.383 3.08286 -6.22884 0
M  V30 2026 H 198.574 2.33233 -4.05857 0
M  V30 2027 H 198.747 3.00718 -5.73997 0
M  V30 2028 N 192.153 1.28127 0.917671 0
M  V30 2029 C 193.103 1.08361 2.00604 0
M  V30 2030 C 194.087 0.00847518 1.60898 0
M  V30 2031 O 195.279 0.228167 1.75523 0
M  V30 2032 C 192.408 0.743376 3.35155 0
M  V30 2033 C 191.494 1.85716 3.81275 0
M  V30 2034 N 191.885 3.09822 3.99805 0
M  V30 2035 C 190.183 1.74612 4.10398 0
M  V30 2036 C 190.884 3.82368 4.38372 0
M  V30 2037 N 189.86 3.10192 4.4641 0
M  V30 2038 H 193.662 2.02531 2.12975 0
M  V30 2039 H 191.176 1.18989 1.10523 0
M  V30 2040 H 193.173 0.582859 4.12805 0
M  V30 2041 H 191.833 -0.190595 3.2414 0
M  V30 2042 H 192.844 3.45475 3.85833 0
M  V30 2043 H 189.521 0.883657 4.08041 0
M  V30 2044 H 190.911 4.89082 4.60704 0
M  V30 2045 N 193.631 -1.12557 1.10312 0
M  V30 2046 C 194.579 -2.20325 0.745629 0
M  V30 2047 C 195.573 -1.67429 -0.25763 0
M  V30 2048 O 196.779 -1.79612 -0.118132 0
M  V30 2049 H 193.154 -0.718118 0.223182 0
M  V30 2050 H 195.125 -2.47733 1.66346 0
M  V30 2051 C 193.874 -3.47168 0.192262 0
M  V30 2052 H 193.197 -3.88215 0.955475 0
M  V30 2053 H 194.637 -4.23995 -0.0198274 0
M  V30 2054 C 193.096 -3.19298 -1.07472 0
M  V30 2055 O 193.626 -3.3891 -2.15645 0
M  V30 2056 N 191.832 -2.73113 -0.992847 0
M  V30 2057 H 191.379 -2.57354 -0.112474 0
M  V30 2058 H 191.337 -2.54842 -1.84127 0
M  V30 2059 N 195.109 -0.891671 -1.2995 0
M  V30 2060 C 196.357 -0.512486 -1.95494 0
M  V30 2061 C 196.678 0.942776 -1.70695 0
M  V30 2062 O 195.948 1.66374 -1.03424 0
M  V30 2063 H 194.528 -0.186533 -0.723336 0
M  V30 2064 H 197.19 -1.13621 -1.58355 0
M  V30 2065 H 196.286 -0.688342 -3.04415 0
M  V30 2066 N 196.587 1.43421 -0.653314 0
M  V30 2067 C 197.817 2.05864 -0.174238 0
M  V30 2068 C 198.225 1.49052 1.16534 0
M  V30 2069 O 197.568 0.616481 1.73047 0
M  V30 2070 C 197.63 3.59499 -0.00875873 0
M  V30 2071 C 197.294 4.38893 -1.27364 0
M  V30 2072 C 198.291 4.70947 -2.20239 0
M  V30 2073 C 195.976 4.789 -1.51525 0
M  V30 2074 C 197.97 5.41916 -3.35568 0
M  V30 2075 C 195.657 5.49614 -2.67147 0
M  V30 2076 C 196.655 5.81044 -3.58994 0
M  V30 2077 O 196.343 6.50313 -4.72597 0
M  V30 2078 H 196.075 0.670345 -0.0872549 0
M  V30 2079 H 198.629 1.84913 -0.894226 0
M  V30 2080 H 196.859 3.79025 0.7666 0
M  V30 2081 H 198.548 4.0364 0.427687 0
M  V30 2082 H 199.314 4.40558 -2.02815 0
M  V30 2083 H 195.193 4.53843 -0.809158 0
M  V30 2084 H 198.737 5.66365 -4.07279 0
M  V30 2085 H 194.634 5.79419 -2.84505 0
M  V30 2086 H 195.402 6.68795 -4.71864 0
M  V30 2087 N 198.065 0.39524 1.52563 0
M  V30 2088 C 199.342 -0.242908 1.94086 0
M  V30 2089 C 199.722 -1.63841 1.33114 0
M  V30 2090 O 199.07 -2.22928 0.501529 0
M  V30 2091 C 199.28 -0.26327 3.48006 0
M  V30 2092 C 200.628 -0.489354 4.21771 0
M  V30 2093 O 201.652 -0.343226 3.54543 0
M  V30 2094 O 200.511 -0.776169 5.4096 0
M  V30 2095 H 197.605 -0.152536 0.812811 0
M  V30 2096 H 200.151 0.450178 1.6362 0
M  V30 2097 H 198.923 0.713985 3.84731 0
M  V30 2098 H 198.546 -1.00103 3.84792 0
M  V30 2099 N 199.544 -1.57102 0.125237 0
M  V30 2100 C 200.955 -1.82384 -0.399142 0
M  V30 2101 C 201.306 -1.04276 -1.66195 0
M  V30 2102 O 200.431 -0.281269 -2.14564 0
M  V30 2103 C 201.026 -3.30821 -0.730932 0
M  V30 2104 C 199.585 -3.56762 -1.19992 0
M  V30 2105 C 198.732 -2.7649 -0.211792 0
M  V30 2106 H 201.683 -1.54786 0.350277 0
M  V30 2107 H 201.704 -3.4579 -1.58775 0
M  V30 2108 H 201.216 -3.87643 0.188345 0
M  V30 2109 H 199.317 -3.05305 -2.13588 0
M  V30 2110 H 199.43 -4.65317 -1.14093 0
M  V30 2111 H 197.794 -2.4489 -0.700085 0
M  V30 2112 H 198.577 -3.36073 0.700691 0
M  V30 2113 N 201.022 0.148545 -1.56898 0
M  V30 2114 C 202.438 0.501131 -1.51528 0
M  V30 2115 C 202.638 1.83458 -0.833399 0
M  V30 2116 O 201.694 2.49259 -0.40328 0
M  V30 2117 C 203.007 0.512864 -2.96294 0
M  V30 2118 C 204.555 0.598487 -3.07225 0
M  V30 2119 C 205.03 0.640897 -4.53494 0
M  V30 2120 N 206.521 0.703163 -4.57832 0
M  V30 2121 C 207.256 0.756935 -5.68382 0
M  V30 2122 N 206.752 0.770147 -6.88506 0
M  V30 2123 N 208.545 0.797698 -5.56411 0
M  V30 2124 H 200.696 -0.725532 -1.99624 0
M  V30 2125 H 202.959 -0.264358 -0.910395 0
M  V30 2126 H 202.665 -0.398691 -3.49433 0
M  V30 2127 H 202.539 1.35133 -3.52163 0
M  V30 2128 H 204.926 1.50046 -2.54106 0
M  V30 2129 H 205.007 -0.267093 -2.54402 0
M  V30 2130 H 204.651 -0.256915 -5.0725 0
M  V30 2131 H 204.581 1.52295 -5.04097 0
M  V30 2132 H 207.072 0.700314 -3.71354 0
M  V30 2133 H 207.385 0.812983 -7.68512 0
M  V30 2134 H 205.73 0.738049 -6.9107 0
M  V30 2135 H 208.921 0.784535 -4.61479 0
M  V30 2136 H 209.094 0.83614 -6.42583 0
M  V30 2137 N 202.5 1.5196 0.417844 0
M  V30 2138 C 203.746 1.65836 1.16732 0
M  V30 2139 C 204.079 0.382881 1.90388 0
M  V30 2140 O 203.354 -0.618368 1.84408 0
M  V30 2141 C 203.637 2.87466 2.16876 0
M  V30 2142 C 203.49 4.25041 1.47174 0
M  V30 2143 C 204.809 3.04613 3.17646 0
M  V30 2144 H 201.928 0.603515 0.423011 0
M  V30 2145 H 204.57 1.84494 0.454105 0
M  V30 2146 H 202.72 2.71689 2.777 0
M  V30 2147 H 204.392 4.52527 0.895376 0
M  V30 2148 H 202.635 4.26843 0.773806 0
M  V30 2149 H 203.306 5.06176 2.20204 0
M  V30 2150 H 205.782 3.1923 2.66892 0
M  V30 2151 H 204.658 3.91247 3.8499 0
M  V30 2152 H 204.919 2.17541 3.84874 0
M  V30 2153 N 203.978 -0.674533 1.42435 0
M  V30 2154 C 204.911 -1.79924 1.40366 0
M  V30 2155 C 205.889 -1.60378 0.267899 0
M  V30 2156 O 207.073 -1.82847 0.458159 0
M  V30 2157 C 204.2 -3.16927 1.19478 0
M  V30 2158 C 203.246 -3.55221 2.36051 0
M  V30 2159 S 204.079 -3.5762 3.98583 0
M  V30 2160 C 205.235 -4.97315 3.80038 0
M  V30 2161 H 205.468 -1.81405 2.35541 0
M  V30 2162 H 203.001 -0.845221 1.29211 0
M  V30 2163 H 204.959 -3.96007 1.08114 0
M  V30 2164 H 203.62 -3.13031 0.258883 0
M  V30 2165 H 202.813 -4.54804 2.17185 0
M  V30 2166 H 202.415 -2.83502 2.43932 0
M  V30 2167 H 204.707 -5.85401 3.41045 0
M  V30 2168 H 205.65 -5.21228 4.79298 0
M  V30 2169 H 206.058 -4.69845 3.12899 0
M  V30 2170 N 205.456 -1.28612 -0.910864 0
M  V30 2171 C 206.403 -1.12786 -2.01365 0
M  V30 2172 C 207.373 -0.024201 -1.66082 0
M  V30 2173 O 208.558 -0.189667 -1.89855 0
M  V30 2174 C 205.698 -0.798743 -3.35729 0
M  V30 2175 C 204.811 -1.98173 -3.83864 0
M  V30 2176 C 203.946 -1.59298 -5.06752 0
M  V30 2177 C 202.985 -2.74245 -5.47226 0
M  V30 2178 N 202.122 -2.35842 -6.61304 0
M  V30 2179 H 206.962 -2.07142 -2.14234 0
M  V30 2180 H 204.499 -1.03093 -1.0493 0
M  V30 2181 H 206.457 -0.588662 -4.13026 0
M  V30 2182 H 205.087 0.10789 -3.2262 0
M  V30 2183 H 204.139 -2.30386 -3.02699 0
M  V30 2184 H 205.451 -2.84343 -4.09818 0
M  V30 2185 H 204.605 -1.34513 -5.916 0
M  V30 2186 H 203.344 -0.702618 -4.82612 0
M  V30 2187 H 202.349 -2.99725 -4.60918 0
M  V30 2188 H 203.574 -3.63928 -5.73353 0
M  V30 2189 H 201.52 -1.49279 -6.38789 0
M  V30 2190 H 201.437 -3.15546 -6.86998 0
M  V30 2191 H 202.705 -2.14348 -7.4945 0
M  V30 2192 N 206.934 1.1197 -1.10907 0
M  V30 2193 C 207.884 2.15946 -0.731538 0
M  V30 2194 C 208.868 1.58758 0.261699 0
M  V30 2195 O 210.06 1.76863 0.0696722 0
M  V30 2196 C 207.189 3.42877 -0.170299 0
M  V30 2197 C 206.275 4.07037 -1.19087 0
M  V30 2198 N 206.666 4.46135 -2.38322 0
M  V30 2199 C 204.964 4.33884 -1.03252 0
M  V30 2200 C 205.665 4.96331 -3.03366 0
M  V30 2201 N 204.641 4.9214 -2.30865 0
M  V30 2202 H 208.443 2.43947 -1.63912 0
M  V30 2203 H 205.957 1.28927 -0.987505 0
M  V30 2204 H 207.954 4.16732 0.118271 0
M  V30 2205 H 206.614 3.16343 0.731935 0
M  V30 2206 H 207.625 4.38345 -2.75815 0
M  V30 2207 H 204.302 4.17084 -0.186256 0
M  V30 2208 H 205.692 5.36257 -4.04818 0
M  V30 2209 N 208.412 0.89855 1.29475 0
M  V30 2210 C 209.64 0.539261 1.99749 0
M  V30 2211 C 210.055 -0.875716 1.67262 0
M  V30 2212 O 209.412 -1.57786 0.917049 0
M  V30 2213 C 209.463 0.72061 3.54245 0
M  V30 2214 O 209.184 2.07989 3.8558 0
M  V30 2215 C 210.685 0.366118 4.41786 0
M  V30 2216 H 207.905 0.207047 0.638258 0
M  V30 2217 H 210.449 1.20758 1.65039 0
M  V30 2218 H 208.604 0.0994862 3.87272 0
M  V30 2219 H 209.018 2.10841 4.80257 0
M  V30 2220 H 210.492 0.543848 5.49314 0
M  V30 2221 H 210.969 -0.696763 4.33638 0
M  V30 2222 H 211.575 0.964135 4.14228 0
M  V30 2223 N 209.89 -1.43072 0.660911 0
M  V30 2224 C 211.118 -2.06067 0.185422 0
M  V30 2225 C 211.533 -1.49582 -1.15198 0
M  V30 2226 O 210.89 -0.630134 -1.71276 0
M  V30 2227 C 210.941 -3.61371 0.0966523 0
M  V30 2228 O 210.662 -4.15758 1.38119 0
M  V30 2229 C 212.163 -4.41455 -0.403996 0
M  V30 2230 H 209.383 -0.664459 0.0934604 0
M  V30 2231 H 211.927 -1.83447 0.90373 0
M  V30 2232 H 210.082 -3.8315 -0.572259 0
M  V30 2233 H 210.496 -5.09499 1.24542 0
M  V30 2234 H 211.97 -5.50437 -0.415045 0
M  V30 2235 H 212.447 -4.15036 -1.43674 0
M  V30 2236 H 213.053 -4.24663 0.232691 0
M  V30 2237 N 211.368 -0.403325 -1.52352 0
M  V30 2238 C 212.645 0.232611 -1.94212 0
M  V30 2239 C 213.025 1.63133 -1.33981 0
M  V30 2240 O 212.373 2.22659 -0.513344 0
M  V30 2241 C 212.583 0.244811 -3.4814 0
M  V30 2242 C 213.931 0.46698 -4.22024 0
M  V30 2243 O 214.955 0.324419 -3.5472 0
M  V30 2244 O 213.814 0.74747 -5.41364 0
M  V30 2245 H 210.908 0.148223 -0.813609 0
M  V30 2246 H 213.454 -0.458848 -1.63379 0
M  V30 2247 H 212.226 -0.734378 -3.84347 0
M  V30 2248 H 211.849 0.980611 -3.85318 0
M  V30 2249 N 212.846 1.57033 -0.133567 0
M  V30 2250 C 213.776 2.1909 0.807567 0
M  V30 2251 C 214.757 1.13517 1.26681 0
M  V30 2252 O 215.942 1.41809 1.32679 0
M  V30 2253 C 213.072 2.80188 2.05212 0
M  V30 2254 C 212.026 3.91471 1.73015 0
M  V30 2255 C 211.352 4.39443 3.04622 0
M  V30 2256 C 212.652 5.12886 0.987168 0
M  V30 2257 H 214.346 2.97988 0.290403 0
M  V30 2258 H 211.892 1.43335 0.138239 0
M  V30 2259 H 213.845 3.22264 2.71521 0
M  V30 2260 H 212.569 1.98601 2.59278 0
M  V30 2261 H 211.228 3.49993 1.0909 0
M  V30 2262 H 210.876 3.54695 3.56651 0
M  V30 2263 H 210.576 5.14495 2.83847 0
M  V30 2264 H 212.1 4.8418 3.72024 0
M  V30 2265 H 213.514 5.51891 1.55208 0
M  V30 2266 H 211.911 5.93615 0.87985 0
M  V30 2267 H 212.981 4.84894 -0.0235286 0
M  V30 2268 N 214.325 -0.140222 1.56975 0
M  V30 2269 C 215.602 -0.880769 1.74648 0
M  V30 2270 C 215.982 -1.99036 0.703404 0
M  V30 2271 O 215.33 -2.26821 -0.27648 0
M  V30 2272 C 215.54 -1.417 3.18939 0
M  V30 2273 C 216.888 -1.87774 3.80823 0
M  V30 2274 O 217.912 -1.51427 3.2241 0
M  V30 2275 O 216.771 -2.54827 4.83452 0
M  V30 2276 H 213.865 -0.416713 0.714338 0
M  V30 2277 H 216.411 -0.125618 1.69234 0
M  V30 2278 H 215.183 -0.619902 3.86359 0
M  V30 2279 H 214.806 -2.23546 3.28805 0
M  V30 2280 N 215.803 -1.52179 -0.40978 0
M  V30 2281 C 216.766 -1.74853 -1.48186 0
M  V30 2282 C 217.766 -0.618417 -1.48433 0
M  V30 2283 O 218.956 -0.886286 -1.49969 0
M  V30 2284 C 216.088 -1.8303 -2.87598 0
M  V30 2285 H 217.281 -2.70559 -1.29374 0
M  V30 2286 H 214.834 -1.42586 -0.640233 0
M  V30 2287 H 215.569 -0.89236 -3.11781 0
M  V30 2288 H 215.354 -2.65187 -2.88822 0
M  V30 2289 H 216.844 -2.02316 -3.65319 0
M  V30 2290 N 217.281 0.66697 -1.42791 0
M  V30 2291 C 218.506 1.46004 -1.47301 0
M  V30 2292 C 218.931 1.87894 -0.0880317 0
M  V30 2293 O 218.289 1.56502 0.915253 0
M  V30 2294 C 218.337 2.68031 -2.41229 0
M  V30 2295 O 217.441 3.6659 -1.88906 0
M  V30 2296 H 216.782 0.43832 -0.49877 0
M  V30 2297 H 219.312 0.817391 -1.87563 0
M  V30 2298 H 219.322 3.1601 -2.58073 0
M  V30 2299 H 217.997 2.36883 -3.41847 0
M  V30 2300 H 216.574 3.25661 -1.81656 0
M  V30 2301 N 218.759 1.29093 0.90403 0
M  V30 2302 C 219.706 1.13853 2.00764 0
M  V30 2303 C 220.676 0.0330084 1.66067 0
M  V30 2304 O 221.861 0.199733 1.89752 0
M  V30 2305 C 219.001 0.816537 3.35301 0
M  V30 2306 C 218.114 2.00206 3.82807 0
M  V30 2307 C 217.249 1.61983 5.059 0
M  V30 2308 C 216.288 2.77143 5.45764 0
M  V30 2309 N 215.425 2.39346 6.60044 0
M  V30 2310 H 220.265 2.08276 2.13132 0
M  V30 2311 H 217.802 1.03648 1.04381 0
M  V30 2312 H 219.76 0.610557 4.12708 0
M  V30 2313 H 218.39 -0.090779 3.22672 0
M  V30 2314 H 217.442 2.31988 3.01473 0
M  V30 2315 H 218.754 2.86512 4.08304 0
M  V30 2316 H 217.908 1.37649 5.90879 0
M  V30 2317 H 216.647 0.728202 4.82233 0
M  V30 2318 H 215.652 3.02165 4.59322 0
M  V30 2319 H 216.877 3.66964 5.71414 0
M  V30 2320 H 214.823 1.52665 6.37989 0
M  V30 2321 H 214.74 3.19185 6.85315 0
M  V30 2322 H 216.008 2.1832 7.48303 0
M  V30 2323 N 220.237 -1.11381 1.11499 0
M  V30 2324 C 221.486 -1.82494 0.858993 0
M  V30 2325 C 221.799 -1.85605 -0.617278 0
M  V30 2326 O 223.005 -2.52824 -0.989552 0
M  V30 2327 C 221.461 -3.27745 1.48699 0
M  V30 2328 C 221.069 -3.32961 2.99735 0
M  V30 2329 C 222.813 -4.03754 1.31085 0
M  V30 2330 C 220.72 -4.72612 3.55516 0
M  V30 2331 H 219.65 -0.683802 0.317696 0
M  V30 2332 H 222.301 -1.25331 1.34031 0
M  V30 2333 H 220.683 -3.84844 0.933339 0
M  V30 2334 H 221.857 -2.85741 3.61509 0
M  V30 2335 H 220.172 -2.70433 3.16631 0
M  V30 2336 H 222.769 -5.06891 1.70192 0
M  V30 2337 H 223.112 -4.15527 0.253496 0
M  V30 2338 H 223.645 -3.53043 1.83318 0
M  V30 2339 H 220.384 -4.66036 4.60967 0
M  V30 2340 H 219.904 -5.2024 2.98513 0
M  V30 2341 H 221.583 -5.4157 3.53992 0
M  V30 2342 N 221.715 -0.905404 -1.28997 0
M  V30 2343 C 222.943 -0.549846 -1.9946 0
M  V30 2344 C 223.358 0.866834 -1.67724 0
M  V30 2345 O 222.715 1.57298 -0.925404 0
M  V30 2346 C 222.766 -0.739387 -3.53858 0
M  V30 2347 O 222.487 -2.10031 -3.84472 0
M  V30 2348 C 223.988 -0.389541 -4.41585 0
M  V30 2349 H 221.208 -0.210429 -0.637151 0
M  V30 2350 H 223.752 -1.21632 -1.64396 0
M  V30 2351 H 221.907 -0.120023 -3.87214 0
M  V30 2352 H 222.321 -2.13385 -4.79132 0
M  V30 2353 H 223.795 -0.572972 -5.49018 0
M  V30 2354 H 224.272 0.673756 -4.34001 0
M  V30 2355 H 224.878 -0.986089 -4.1371 0
M  V30 2356 N 223.193 1.4272 -0.668489 0
M  V30 2357 C 224.125 2.2914 0.052613 0
M  V30 2358 C 225.138 1.43339 0.771857 0
M  V30 2359 O 226.327 1.67123 0.627067 0
M  V30 2360 C 223.427 3.20618 1.09804 0
M  V30 2361 C 222.6 4.35039 0.45389 0
M  V30 2362 C 221.659 5.07282 1.39825 0
M  V30 2363 O 220.685 5.62024 0.900978 0
M  V30 2364 N 221.887 5.12206 2.73176 0
M  V30 2365 H 224.652 2.91668 -0.689209 0
M  V30 2366 H 222.213 1.53577 -0.512422 0
M  V30 2367 H 224.205 3.65815 1.73094 0
M  V30 2368 H 222.775 2.59585 1.74167 0
M  V30 2369 H 221.995 3.92567 -0.358396 0
M  V30 2370 H 223.283 5.088 0.00486972 0
M  V30 2371 H 222.681 4.6913 3.16122 0
M  V30 2372 H 221.238 5.61069 3.31729 0
M  V30 2373 N 224.671 0.411399 1.52136 0
M  V30 2374 C 225.919 -0.163322 2.01439 0
M  V30 2375 C 226.24 -1.45453 1.29879 0
M  V30 2376 O 225.51 -1.91225 0.4254 0
M  V30 2377 H 224.09 -0.0633447 0.744309 0
M  V30 2378 H 226.752 0.548161 1.87033 0
M  V30 2379 H 225.848 -0.357817 3.10042 0
M  V30 2380 N 226.149 -1.5696 0.141893 0
M  V30 2381 C 227.081 -2.13619 -0.830627 0
M  V30 2382 C 228.094 -1.08439 -1.21428 0
M  V30 2383 O 229.283 -1.35734 -1.15925 0
M  V30 2384 C 226.383 -2.63978 -2.12529 0
M  V30 2385 C 225.556 -3.93504 -1.9098 0
M  V30 2386 C 224.615 -4.29225 -3.04388 0
M  V30 2387 O 223.641 -4.97641 -2.76302 0
M  V30 2388 N 224.843 -3.88393 -4.31429 0
M  V30 2389 H 227.608 -2.97691 -0.34641 0
M  V30 2390 H 225.169 -1.61846 -0.0418375 0
M  V30 2391 H 227.161 -2.84891 -2.87436 0
M  V30 2392 H 225.731 -1.84659 -2.52229 0
M  V30 2393 H 224.951 -3.81269 -1.00139 0
M  V30 2394 H 226.239 -4.78154 -1.73914 0
M  V30 2395 H 225.637 -3.33257 -4.57117 0
M  V30 2396 H 224.194 -4.14368 -5.03133 0
M  V30 2397 N 227.627 0.131896 -1.57047 0
M  V30 2398 C 228.874 0.841932 -1.84168 0
M  V30 2399 C 229.202 1.8048 -0.725066 0
M  V30 2400 O 228.457 1.93618 0.284692 0
M  V30 2401 C 228.756 1.63703 -3.17704 0
M  V30 2402 C 228.422 0.81961 -4.43388 0
M  V30 2403 C 227.084 0.594148 -4.77518 0
M  V30 2404 C 229.436 0.248977 -5.20605 0
M  V30 2405 C 226.764 -0.212409 -5.86315 0
M  V30 2406 C 229.116 -0.544701 -6.30251 0
M  V30 2407 C 227.78 -0.780599 -6.6292 0
M  V30 2408 H 227.05 0.308085 -0.673917 0
M  V30 2409 H 229.697 0.104867 -1.91213 0
M  V30 2410 H 228.002 2.44464 -3.06177 0
M  V30 2411 H 229.699 2.19015 -3.35907 0
M  V30 2412 H 226.289 1.00542 -4.16641 0
M  V30 2413 H 230.473 0.410408 -4.946 0
M  V30 2414 H 225.729 -0.404524 -6.1006 0
M  V30 2415 H 229.903 -0.993922 -6.89271 0
M  V30 2416 H 227.53 -1.40742 -7.47058 0
M  V30 2417 N 229.106 1.52395 0.401703 0
M  V30 2418 C 230.383 1.57387 1.16141 0
M  V30 2419 C 230.763 0.359359 2.08019 0
M  V30 2420 O 230.111 -0.65326 2.18963 0
M  V30 2421 C 230.321 2.90631 1.93221 0
M  V30 2422 C 231.669 3.43904 2.49028 0
M  V30 2423 O 232.693 2.92421 2.03393 0
M  V30 2424 O 231.552 4.33823 3.32356 0
M  V30 2425 H 228.646 0.634262 0.530698 0
M  V30 2426 H 231.192 1.64725 0.407883 0
M  V30 2427 H 229.964 3.70473 1.25958 0
M  V30 2428 H 229.587 2.8662 2.75563 0
M  V30 2429 N 230.584 -0.659388 1.43143 0
M  V30 2430 C 231.494 -1.80167 1.50256 0
M  V30 2431 C 232.51 -1.69571 0.390106 0
M  V30 2432 O 233.686 -1.90849 0.643319 0
M  V30 2433 C 230.751 -3.16409 1.41725 0
M  V30 2434 C 229.812 -3.38848 2.63591 0
M  V30 2435 C 229.045 -4.68591 2.55458 0
M  V30 2436 O 229.268 -5.47532 1.59891 0
M  V30 2437 O 228.202 -4.92614 3.45854 0
M  V30 2438 H 232.028 -1.77121 2.46702 0
M  V30 2439 H 229.613 -0.817092 1.25076 0
M  V30 2440 H 231.495 -3.9768 1.39387 0
M  V30 2441 H 230.17 -3.20059 0.484118 0
M  V30 2442 H 229.077 -2.57366 2.71502 0
M  V30 2443 H 230.41 -3.4004 3.55856 0
M  V30 2444 N 232.062 -1.29571 -0.897171 0
M  V30 2445 C 233.012 -1.11539 -1.98855 0
M  V30 2446 C 233.996 -0.0340716 -1.60864 0
M  V30 2447 O 235.188 -0.256062 -1.75138 0
M  V30 2448 C 232.317 -0.796603 -3.3393 0
M  V30 2449 C 231.403 -1.91758 -3.78272 0
M  V30 2450 N 231.794 -3.16143 -3.94826 0
M  V30 2451 C 230.092 -1.81119 -4.07568 0
M  V30 2452 C 230.793 -3.89293 -4.32233 0
M  V30 2453 N 229.769 -3.17255 -4.41419 0
M  V30 2454 H 233.571 -2.05894 -2.09726 0
M  V30 2455 H 231.085 -1.20732 -1.08616 0
M  V30 2456 H 233.082 -0.648459 -4.11826 0
M  V30 2457 H 231.742 0.139003 -3.24402 0
M  V30 2458 H 232.753 -3.5157 -3.80288 0
M  V30 2459 H 229.43 -0.948461 -4.06584 0
M  V30 2460 H 230.82 -4.9635 -4.52865 0
M  V30 2461 N 233.54 1.10788 -1.12088 0
M  V30 2462 C 234.77 1.86191 -0.895351 0
M  V30 2463 C 235.178 1.80763 0.558702 0
M  V30 2464 O 234.521 1.19188 1.39785 0
M  V30 2465 C 234.583 3.35659 -1.28737 0
M  V30 2466 C 234.247 3.64849 -2.75198 0
M  V30 2467 C 235.244 3.61757 -3.734 0
M  V30 2468 C 232.929 3.93641 -3.12013 0
M  V30 2469 C 234.923 3.87045 -5.06434 0
M  V30 2470 C 232.61 4.18585 -4.4523 0
M  V30 2471 C 233.608 4.15277 -5.42249 0
M  V30 2472 O 233.296 4.3959 -6.73065 0
M  V30 2473 H 233.028 0.595425 -0.32007 0
M  V30 2474 H 235.582 1.40992 -1.49367 0
M  V30 2475 H 233.812 3.81497 -0.63224 0
M  V30 2476 H 235.501 3.92441 -1.03656 0
M  V30 2477 H 236.267 3.39557 -3.46303 0
M  V30 2478 H 232.146 3.95348 -2.37109 0
M  V30 2479 H 235.69 3.84378 -5.82151 0
M  V30 2480 H 231.587 4.40264 -4.72057 0
M  V30 2481 H 232.355 4.57123 -6.78956 0
M  V30 2482 N 235.018 0.912232 1.28515 0
M  V30 2483 C 236.264 0.545405 1.95328 0
M  V30 2484 C 236.597 -0.908313 1.71649 0
M  V30 2485 O 235.872 -1.64575 1.03659 0
M  V30 2486 C 236.155 0.853483 3.4984 0
M  V30 2487 C 236.008 2.35982 3.82926 0
M  V30 2488 C 237.327 0.348589 4.38717 0
M  V30 2489 H 234.446 0.199626 0.709449 0
M  V30 2490 H 237.088 1.1412 1.5191 0
M  V30 2491 H 235.238 0.34643 3.86952 0
M  V30 2492 H 236.91 2.93738 3.55691 0
M  V30 2493 H 235.153 2.81543 3.30024 0
M  V30 2494 H 235.824 2.52593 4.90816 0
M  V30 2495 H 238.3 0.78294 4.08668 0
M  V30 2496 H 237.176 0.593242 5.45685 0
M  V30 2497 H 237.437 -0.751049 4.35674 0
M  V30 2498 N 236.496 -1.42363 0.676048 0
M  V30 2499 C 237.426 -2.33497 0.0124832 0
M  V30 2500 C 238.407 -1.50748 -0.787981 0
M  V30 2501 O 239.592 -1.79346 -0.744884 0
M  V30 2502 C 236.722 -3.34377 -0.938582 0
M  V30 2503 C 235.676 -4.27289 -0.246622 0
M  V30 2504 C 235.002 -5.18386 -1.31071 0
M  V30 2505 C 236.302 -5.14916 0.875125 0
M  V30 2506 H 237.996 -2.89233 0.773593 0
M  V30 2507 H 235.542 -1.39073 0.37346 0
M  V30 2508 H 237.495 -3.97044 -1.41188 0
M  V30 2509 H 236.219 -2.76947 -1.73113 0
M  V30 2510 H 234.878 -3.66018 0.206456 0
M  V30 2511 H 234.526 -4.57282 -2.09528 0
M  V30 2512 H 234.226 -5.81378 -0.852839 0
M  V30 2513 H 235.75 -5.83929 -1.78492 0
M  V30 2514 H 237.164 -5.71262 0.482983 0
M  V30 2515 H 235.561 -5.86747 1.25887 0
M  V30 2516 H 236.631 -4.53242 1.72335 0
M  V30 2517 N 237.974 -0.419461 -1.51915 0
M  V30 2518 C 239.199 0.154572 -2.06823 0
M  V30 2519 C 239.624 1.3722 -1.28656 0
M  V30 2520 O 238.982 1.78461 -0.319583 0
M  V30 2521 C 239.03 0.473172 -3.57482 0
M  V30 2522 O 238.134 1.56255 -3.81652 0
M  V30 2523 H 237.475 0.0096924 -0.663929 0
M  V30 2524 H 240.005 -0.595642 -1.95738 0
M  V30 2525 H 240.015 0.728825 -4.01438 0
M  V30 2526 H 238.69 -0.416873 -4.13805 0
M  V30 2527 H 237.267 1.29825 -3.49571 0
M  V30 2528 N 239.452 1.56882 -0.150215 0
M  V30 2529 C 240.677 2.01027 0.510184 0
M  V30 2530 C 241.102 1.02966 1.57415 0
M  V30 2531 O 240.46 0.00590158 1.81299 0
M  V30 2532 C 240.508 3.43899 1.08472 0
M  V30 2533 O 239.612 3.4885 2.19948 0
M  V30 2534 H 238.953 0.652233 0.124451 0
M  V30 2535 H 241.483 2.03093 -0.247894 0
M  V30 2536 H 241.493 3.82766 1.41259 0
M  V30 2537 H 240.168 4.14776 0.305582 0
M  V30 2538 H 238.745 3.21827 1.88366 0
M  V30 2539 N 240.93 -0.123565 1.57115 0
M  V30 2540 C 242.346 -0.476961 1.52306 0
M  V30 2541 C 242.546 -1.82109 0.86248 0
M  V30 2542 O 241.602 -2.48586 0.442884 0
M  V30 2543 C 242.915 -0.465661 2.97073 0
M  V30 2544 C 244.463 -0.549534 3.08138 0
M  V30 2545 C 244.938 -0.568669 4.54456 0
M  V30 2546 N 246.429 -0.630237 4.58892 0
M  V30 2547 C 247.164 -0.666415 5.69514 0
M  V30 2548 N 246.66 -0.660514 6.89644 0
M  V30 2549 N 248.453 -0.709077 5.5761 0
M  V30 2550 H 240.604 0.757198 1.98445 0
M  V30 2551 H 242.867 0.278808 0.906074 0
M  V30 2552 H 242.573 0.454232 3.48754 0
M  V30 2553 H 242.447 -1.29513 3.54269 0
M  V30 2554 H 244.834 -1.45985 2.56461 0
M  V30 2555 H 244.915 0.307532 2.53945 0
M  V30 2556 H 244.559 0.337581 5.06777 0
M  V30 2557 H 244.489 -1.44256 5.06456 0
M  V30 2558 H 246.98 -0.641146 3.72421 0
M  V30 2559 H 247.293 -0.690616 7.69708 0
M  V30 2560 H 245.638 -0.628012 6.92157 0
M  V30 2561 H 248.829 -0.711019 4.62668 0
M  V30 2562 H 249.002 -0.733804 6.43832 0
M  V30 2563 N 242.408 -1.52605 -0.393616 0
M  V30 2564 C 243.654 -1.67672 -1.14079 0
M  V30 2565 C 243.987 -0.413121 -1.89755 0
M  V30 2566 O 243.262 0.588952 -1.85369 0
M  V30 2567 C 243.545 -2.9088 -2.12276 0
M  V30 2568 C 243.398 -4.27329 -1.40394 0
M  V30 2569 C 244.717 -3.09628 -3.12759 0
M  V30 2570 H 241.836 -0.610168 -0.413356 0
M  V30 2571 H 244.478 -1.85193 -0.424696 0
M  V30 2572 H 242.628 -2.76073 -2.73342 0
M  V30 2573 H 244.3 -4.53894 -0.82327 0
M  V30 2574 H 242.543 -4.2802 -0.705801 0
M  V30 2575 H 243.214 -5.09615 -2.12123 0
M  V30 2576 H 245.69 -3.23436 -2.61779 0
M  V30 2577 H 244.566 -3.97322 -3.78717 0
M  V30 2578 H 244.827 -2.23637 -3.81365 0
M  V30 2579 N 243.887 0.651787 -1.4349 0
M  V30 2580 C 245.303 0.96762 -1.26922 0
M  V30 2581 C 245.503 2.00602 -0.189982 0
M  V30 2582 O 244.559 2.48793 0.431107 0
M  V30 2583 C 245.872 1.45052 -2.63401 0
M  V30 2584 C 247.42 1.5671 -2.70945 0
M  V30 2585 C 247.895 2.0839 -4.07845 0
M  V30 2586 N 249.386 2.1569 -4.09917 0
M  V30 2587 C 250.121 2.56804 -5.12679 0
M  V30 2588 N 249.617 2.97203 -6.25813 0
M  V30 2589 N 251.41 2.56756 -5.00033 0
M  V30 2590 H 243.561 -0.0353158 -2.12371 0
M  V30 2591 H 245.824 0.0467858 -0.946845 0
M  V30 2592 H 245.53 0.761926 -3.43348 0
M  V30 2593 H 245.404 2.42529 -2.88894 0
M  V30 2594 H 247.791 2.2467 -1.9133 0
M  V30 2595 H 247.872 0.57662 -2.49216 0
M  V30 2596 H 247.516 1.41031 -4.87927 0
M  V30 2597 H 247.446 3.08271 -4.26938 0
M  V30 2598 H 249.937 1.87237 -3.28254 0
M  V30 2599 H 250.25 3.27328 -7.00055 0
M  V30 2600 H 248.595 2.95004 -6.29283 0
M  V30 2601 H 251.786 2.24572 -4.10713 0
M  V30 2602 H 251.959 2.88475 -5.80247 0
M  V30 2603 N 245.365 1.30045 0.890287 0
M  V30 2604 C 246.593 1.21472 1.67487 0
M  V30 2605 C 247.008 -0.223241 1.87476 0
M  V30 2606 O 246.365 -1.14828 1.41847 0
M  V30 2607 C 246.416 1.93394 3.05419 0
M  V30 2608 O 246.137 3.31576 2.86337 0
M  V30 2609 C 247.638 1.91414 3.99844 0
M  V30 2610 H 244.858 0.420604 0.522813 0
M  V30 2611 H 247.402 1.7158 1.11268 0
M  V30 2612 H 245.557 1.47099 3.58386 0
M  V30 2613 H 245.971 3.67929 3.73802 0
M  V30 2614 H 247.445 2.46285 4.94012 0
M  V30 2615 H 247.922 0.891833 4.3005 0
M  V30 2616 H 248.528 2.37496 3.52811 0
M  V30 2617 N 246.843 -1.10192 1.12674 0
M  V30 2618 C 248.091 -1.81845 0.881861 0
M  V30 2619 C 248.412 -1.85737 -0.593867 0
M  V30 2620 O 247.682 -1.33724 -1.4316 0
M  V30 2621 H 246.262 -0.673432 0.323261 0
M  V30 2622 H 248.924 -1.33316 1.42172 0
M  V30 2623 H 248.02 -2.85288 1.2656 0
M  V30 2624 N 248.321 -0.919034 -1.28029 0
M  V30 2625 C 249.737 -0.617972 -1.4715 0
M  V30 2626 C 249.937 0.835242 -1.83374 0
M  V30 2627 O 248.993 1.61388 -1.94191 0
M  V30 2628 C 250.306 -1.56041 -2.57044 0
M  V30 2629 C 251.854 -1.56769 -2.7091 0
M  V30 2630 C 252.329 -2.49688 -3.83953 0
M  V30 2631 N 253.82 -2.47845 -3.91314 0
M  V30 2632 C 254.555 -3.16437 -4.78179 0
M  V30 2633 N 254.051 -3.94376 -5.69596 0
M  V30 2634 N 255.844 -3.05498 -4.71834 0
M  V30 2635 H 247.995 -1.85866 -1.02798 0
M  V30 2636 H 250.258 -0.797506 -0.512531 0
M  V30 2637 H 249.964 -2.59671 -2.372 0
M  V30 2638 H 249.838 -1.29551 -3.54255 0
M  V30 2639 H 252.225 -0.538745 -2.90141 0
M  V30 2640 H 252.306 -1.87305 -1.74214 0
M  V30 2641 H 251.95 -3.52688 -3.65477 0
M  V30 2642 H 251.88 -2.16453 -4.80058 0
M  V30 2643 H 254.371 -1.91234 -3.25941 0
M  V30 2644 H 254.684 -4.43721 -6.32718 0
M  V30 2645 H 253.029 -3.98481 -5.69419 0
M  V30 2646 H 256.22 -2.44108 -3.99411 0
M  V30 2647 H 256.393 -3.59225 -5.39316 0
M  V30 2648 N 249.799 1.42003 -0.683588 0
M  V30 2649 C 251.024 2.06265 -0.216647 0
M  V30 2650 C 251.449 1.51059 1.12083 0
M  V30 2651 O 250.807 0.632638 1.69904 0
M  V30 2652 C 250.855 3.60191 -0.171759 0
M  V30 2653 O 249.959 4.03396 0.857069 0
M  V30 2654 H 249.3 0.65502 -0.108834 0
M  V30 2655 H 251.83 1.81982 -0.935077 0
M  V30 2656 H 251.84 4.08 0.0014303 0
M  V30 2657 H 250.515 3.99743 -1.14796 0
M  V30 2658 H 249.092 3.67117 0.654208 0
M  V30 2659 N 251.277 0.427512 1.51691 0
M  V30 2660 C 252.526 -0.143679 2.01188 0
M  V30 2661 C 252.839 -1.44642 1.31674 0
M  V30 2662 O 254.045 -2.09997 1.72086 0
M  V30 2663 C 252.501 -0.306602 3.58592 0
M  V30 2664 C 252.109 0.985125 4.37035 0
M  V30 2665 C 253.853 -0.832091 4.16265 0
M  V30 2666 C 251.76 0.788382 5.86122 0
M  V30 2667 H 250.69 -0.0574701 0.751807 0
M  V30 2668 H 253.341 0.555772 1.74881 0
M  V30 2669 H 251.723 -1.06882 3.81303 0
M  V30 2670 H 252.897 1.75492 4.26074 0
M  V30 2671 H 251.212 1.4384 3.90767 0
M  V30 2672 H 253.809 -0.995617 5.25349 0
M  V30 2673 H 254.152 -1.81186 3.74803 0
M  V30 2674 H 254.685 -0.128444 3.97593 0
M  V30 2675 H 251.424 1.74025 6.31978 0
M  V30 2676 H 250.944 0.0582143 5.99772 0
M  V30 2677 H 252.623 0.437722 6.45518 0
M  V30 2678 N 252.755 -1.56801 0.158532 0
M  V30 2679 C 254.171 -1.5837 -0.197774 0
M  V30 2680 C 254.371 -1.17334 -1.63814 0
M  V30 2681 O 253.427 -0.878988 -2.36707 0
M  V30 2682 C 254.74 -3.00615 0.0714459 0
M  V30 2683 C 256.288 -3.12999 0.00864533 0
M  V30 2684 C 256.763 -4.57313 0.250685 0
M  V30 2685 N 258.254 -4.62777 0.198014 0
M  V30 2686 C 258.989 -5.72271 0.359642 0
M  V30 2687 N 258.485 -6.90371 0.579625 0
M  V30 2688 N 260.278 -5.61318 0.296438 0
M  V30 2689 H 252.429 -1.81765 1.09887 0
M  V30 2690 H 254.692 -0.841849 0.435884 0
M  V30 2691 H 254.398 -3.35068 1.06874 0
M  V30 2692 H 254.272 -3.71683 -0.642757 0
M  V30 2693 H 256.659 -2.7838 -0.979217 0
M  V30 2694 H 256.74 -2.44393 0.755359 0
M  V30 2695 H 256.384 -4.92639 1.2357 0
M  V30 2696 H 256.314 -5.24061 -0.516489 0
M  V30 2697 H 258.805 -3.77885 0.0331115 0
M  V30 2698 H 259.118 -7.69689 0.69275 0
M  V30 2699 H 257.463 -6.92264 0.616087 0
M  V30 2700 H 260.654 -4.67932 0.125258 0
M  V30 2701 H 260.827 -6.46599 0.425831 0
M  V30 2702 N 254.233 0.115231 -1.57178 0
M  V30 2703 C 255.481 0.820727 -1.84685 0
M  V30 2704 C 255.802 1.80237 -0.744279 0
M  V30 2705 O 255.072 1.94529 0.231375 0
M  V30 2706 H 253.652 0.306084 -0.681411 0
M  V30 2707 H 256.314 0.101656 -1.94635 0
M  V30 2708 H 255.41 1.36366 -2.80733 0
M  V30 2709 N 255.711 1.52812 0.385517 0
M  V30 2710 C 256.641 1.80808 1.47752 0
M  V30 2711 C 257.622 0.660318 1.5676 0
M  V30 2712 O 258.807 0.908246 1.71652 0
M  V30 2713 C 255.937 1.98008 2.85324 0
M  V30 2714 C 254.891 3.13709 2.91154 0
M  V30 2715 C 254.217 3.16169 4.31209 0
M  V30 2716 C 255.517 4.52709 2.60483 0
M  V30 2717 H 257.211 2.72253 1.24573 0
M  V30 2718 H 254.757 1.31003 0.597839 0
M  V30 2719 H 256.71 2.16176 3.61726 0
M  V30 2720 H 255.434 1.03255 3.09848 0
M  V30 2721 H 254.093 2.95329 2.17201 0
M  V30 2722 H 253.741 2.19092 4.52778 0
M  V30 2723 H 253.441 3.93894 4.36029 0
M  V30 2724 H 254.965 3.36496 5.09512 0
M  V30 2725 H 256.379 4.71173 3.26602 0
M  V30 2726 H 254.776 5.32528 2.76648 0
M  V30 2727 H 255.846 4.59186 1.55809 0
M  V30 2728 N 257.189 -0.644168 1.43834 0
M  V30 2729 C 258.414 -1.43642 1.49605 0
M  V30 2730 C 258.839 -1.8773 0.117913 0
M  V30 2731 O 258.197 -1.57938 -0.890239 0
M  V30 2732 C 258.245 -2.6416 2.45463 0
M  V30 2733 O 257.349 -3.63538 1.94714 0
M  V30 2734 H 256.69 -0.430329 0.50568 0
M  V30 2735 H 259.22 -0.787448 1.8884 0
M  V30 2736 H 259.23 -3.11864 2.63068 0
M  V30 2737 H 257.905 -2.31414 3.45572 0
M  V30 2738 H 256.482 -3.2273 1.86814 0
M  V30 2739 N 258.668 -1.30515 -0.883378 0
M  V30 2740 C 259.598 -1.19607 -2.00541 0
M  V30 2741 C 260.579 -0.086346 -1.69881 0
M  V30 2742 O 261.764 -0.268654 -1.92333 0
M  V30 2743 C 258.894 -0.888758 -3.35736 0
M  V30 2744 C 257.848 -1.95659 -3.8066 0
M  V30 2745 C 257.174 -1.50224 -5.13164 0
M  V30 2746 C 258.474 -3.36788 -3.99213 0
M  V30 2747 H 260.168 -2.13476 -2.09925 0
M  V30 2748 H 257.714 -1.02775 -1.00863 0
M  V30 2749 H 259.667 -0.799094 -4.13754 0
M  V30 2750 H 258.391 0.0856125 -3.26488 0
M  V30 2751 H 257.05 -2.03591 -3.04871 0
M  V30 2752 H 256.698 -0.516092 -5.00345 0
M  V30 2753 H 256.398 -2.2165 -5.44192 0
M  V30 2754 H 257.922 -1.42639 -5.93706 0
M  V30 2755 H 259.336 -3.31605 -4.67665 0
M  V30 2756 H 257.733 -4.06314 -4.41621 0
M  V30 2757 H 258.803 -3.78561 -3.03017 0
M  V30 2758 N 260.146 1.09593 -1.13257 0
M  V30 2759 C 261.557 1.63229 -0.906274 0
M  V30 2760 C 261.908 1.8811 0.557578 0
M  V30 2761 O 261.033 1.62953 1.42391 0
M  V30 2762 C 261.628 2.96535 -1.63867 0
M  V30 2763 C 260.187 3.47003 -1.45828 0
M  V30 2764 C 259.334 2.2145 -1.66898 0
M  V30 2765 H 262.285 0.92978 -1.28611 0
M  V30 2766 H 262.306 3.64411 -1.09476 0
M  V30 2767 H 261.818 2.78394 -2.70404 0
M  V30 2768 H 259.919 3.70272 -0.415848 0
M  V30 2769 H 260.032 4.24551 -2.2202 0
M  V30 2770 H 258.396 2.30022 -1.09371 0
M  V30 2771 H 259.179 2.0583 -2.74752 0
M  V30 2772 N 261.624 0.925811 1.2754 0
M  V30 2773 C 263.035 0.610102 1.7645 0
M  V30 2774 C 263.386 -0.874723 1.75622 0
M  V30 2775 O 262.511 -1.68444 1.35851 0
M  V30 2776 C 263.106 1.10073 3.20421 0
M  V30 2777 C 261.665 0.835723 3.67005 0
M  V30 2778 C 260.812 1.26054 2.46993 0
M  V30 2779 H 263.763 1.10579 1.13833 0
M  V30 2780 H 263.784 0.447557 3.77859 0
M  V30 2781 H 263.296 2.18143 3.20991 0
M  V30 2782 H 261.397 -0.231249 3.71882 0
M  V30 2783 H 261.51 1.45193 4.56569 0
M  V30 2784 H 259.874 0.679111 2.45479 0
M  V30 2785 H 260.657 2.34984 2.50275 0
M  V30 2786 N 263.102 -1.41638 0.69111 0
M  V30 2787 C 264.065 -2.29178 0.0319786 0
M  V30 2788 C 265.065 -1.44153 -0.712496 0
M  V30 2789 O 266.255 -1.65354 -0.548053 0
M  V30 2790 C 263.387 -3.26952 -0.965161 0
M  V30 2791 H 264.58 -2.88959 0.802681 0
M  V30 2792 H 262.133 -1.4955 0.454356 0
M  V30 2793 H 262.868 -2.72142 -1.76378 0
M  V30 2794 H 262.653 -3.89685 -0.434522 0
M  V30 2795 H 264.143 -3.92561 -1.42428 0
M  V30 2796 N 264.58 -0.43555 -1.51462 0
M  V30 2797 C 265.82 0.130708 -2.03982 0
M  V30 2798 C 266.184 1.40117 -1.31268 0
M  V30 2799 O 267.385 2.04755 -1.74152 0
M  V30 2800 C 265.656 0.346102 -3.5572 0
M  V30 2801 S 267.215 0.876022 -4.29967 0
M  V30 2802 H 264.033 0.0326881 -0.710248 0
M  V30 2803 H 266.635 -0.594544 -1.8624 0
M  V30 2804 H 265.339 -0.584911 -4.0621 0
M  V30 2805 H 264.87 1.09849 -3.77752 0
M  V30 2806 H 266.885 2.15379 -4.47019 0
M  V30 2807 N 266.058 1.56714 -0.166846 0
M  V30 2808 C 267.286 2.0112 0.485644 0
M  V30 2809 C 267.701 1.04705 1.57106 0
M  V30 2810 O 267.058 0.0471923 1.82439 0
M  V30 2811 C 267.109 3.45361 1.06808 0
M  V30 2812 O 266.83 4.38092 0.0259995 0
M  V30 2813 C 268.331 4.05145 1.79924 0
M  V30 2814 H 265.551 0.65931 0.124704 0
M  V30 2815 H 268.095 2.02746 -0.267262 0
M  V30 2816 H 266.25 3.44524 1.7715 0
M  V30 2817 H 266.664 5.22519 0.455398 0
M  V30 2818 H 268.138 5.08009 2.15942 0
M  V30 2819 H 268.615 3.46982 2.69258 0
M  V30 2820 H 269.221 4.09672 1.14234 0
M  V30 2821 N 267.536 -0.106894 1.57237 0
M  V30 2822 C 268.952 -0.46078 1.52804 0
M  V30 2823 C 269.152 -1.81184 0.881746 0
M  V30 2824 O 268.208 -2.48102 0.469224 0
M  V30 2825 C 269.521 -0.434127 2.9755 0
M  V30 2826 C 271.069 -0.516821 3.08704 0
M  V30 2827 C 271.544 -0.520436 4.55033 0
M  V30 2828 N 273.035 -0.58153 4.59535 0
M  V30 2829 C 273.77 -0.605973 5.70189 0
M  V30 2830 N 273.266 -0.587331 6.90306 0
M  V30 2831 N 275.059 -0.649895 5.5833 0
M  V30 2832 H 267.21 0.778203 1.9763 0
M  V30 2833 H 269.473 0.288403 0.903066 0
M  V30 2834 H 269.179 0.491197 3.48253 0
M  V30 2835 H 269.053 -1.25748 3.55622 0
M  V30 2836 H 271.44 -1.43256 2.57995 0
M  V30 2837 H 271.521 0.334449 2.53604 0
M  V30 2838 H 271.165 0.391313 5.0639 0
M  V30 2839 H 271.095 -1.38876 5.07958 0
M  V30 2840 H 273.586 -0.60161 3.73081 0
M  V30 2841 H 273.899 -0.60894 7.70397 0
M  V30 2842 H 272.244 -0.554564 6.92784 0
M  V30 2843 H 275.435 -0.661907 4.63397 0
M  V30 2844 H 275.608 -0.665476 6.44574 0
M  V30 2845 N 269.014 -1.53014 -0.377408 0
M  V30 2846 C 269.977 -1.77957 -1.44444 0
M  V30 2847 C 270.977 -0.649763 -1.47087 0
M  V30 2848 O 272.167 -0.917897 -1.48055 0
M  V30 2849 C 269.299 -1.89089 -2.83651 0
M  V30 2850 H 270.492 -2.73243 -1.23606 0
M  V30 2851 H 268.045 -1.43912 -0.609844 0
M  V30 2852 H 268.78 -0.958293 -3.09818 0
M  V30 2853 H 268.565 -2.71254 -2.83132 0
M  V30 2854 H 270.055 -2.1002 -3.60945 0
M  V30 2855 N 270.492 0.636531 -1.44174 0
M  V30 2856 C 271.402 1.77754 -1.53103 0
M  V30 2857 C 272.418 1.68928 -0.417034 0
M  V30 2858 O 273.594 1.89801 -0.6736 0
M  V30 2859 C 270.659 3.14115 -1.46741 0
M  V30 2860 C 269.72 3.34612 -2.68948 0
M  V30 2861 C 268.953 4.64467 -2.6288 0
M  V30 2862 O 269.176 5.44919 -1.68581 0
M  V30 2863 O 268.11 4.87049 -3.53648 0
M  V30 2864 H 271.936 1.73174 -2.49489 0
M  V30 2865 H 269.521 0.79709 -1.2636 0
M  V30 2866 H 271.403 3.95412 -1.45696 0
M  V30 2867 H 270.078 3.19249 -0.534975 0
M  V30 2868 H 268.985 2.53014 -2.75562 0
M  V30 2869 H 270.318 3.34336 -3.61221 0
M  V30 2870 N 271.97 1.30982 0.876444 0
M  V30 2871 C 273.386 1.09498 1.16113 0
M  V30 2872 C 273.586 -0.13875 2.01022 0
M  V30 2873 O 272.642 -0.829935 2.38471 0
M  V30 2874 C 273.955 2.36308 1.85954 0
M  V30 2875 C 275.503 2.41856 1.98683 0
M  V30 2876 C 275.978 3.6853 2.71937 0
M  V30 2877 N 277.469 3.69387 2.79477 0
M  V30 2878 C 278.204 4.64096 3.36753 0
M  V30 2879 N 277.7 5.69155 3.95012 0
M  V30 2880 N 279.493 4.51626 3.3465 0
M  V30 2881 H 271.644 2.10118 0.310494 0
M  V30 2882 H 273.907 0.926634 0.200131 0
M  V30 2883 H 273.613 3.26388 1.31011 0
M  V30 2884 H 273.487 2.4561 2.86278 0
M  V30 2885 H 275.874 1.52249 2.52793 0
M  V30 2886 H 275.955 2.36523 0.9742 0
M  V30 2887 H 275.599 4.58499 2.18496 0
M  V30 2888 H 275.529 3.71127 3.73593 0
M  V30 2889 H 278.02 2.93438 2.38123 0
M  V30 2890 H 278.333 6.3751 4.36808 0
M  V30 2891 H 276.678 5.72937 3.93406 0
M  V30 2892 H 279.869 3.68728 2.8837 0
M  V30 2893 H 280.042 5.25614 3.7899 0
M  V30 2894 N 273.449 -1.08991 1.13837 0
M  V30 2895 C 274.865 -1.33312 0.877506 0
M  V30 2896 C 275.065 -1.95587 -0.48456 0
M  V30 2897 O 274.121 -2.20509 -1.23013 0
M  V30 2898 C 275.434 -2.24045 2.0056 0
M  V30 2899 C 276.982 -2.37542 2.03821 0
M  V30 2900 C 277.457 -3.31614 3.15905 0
M  V30 2901 N 278.948 -3.39189 3.15445 0
M  V30 2902 C 279.683 -4.11992 3.98811 0
M  V30 2903 N 279.179 -4.87553 4.92203 0
M  V30 2904 N 280.972 -4.07762 3.86894 0
M  V30 2905 H 273.123 -0.669456 2.01574 0
M  V30 2906 H 275.386 -0.357482 0.878015 0
M  V30 2907 H 275.092 -1.85521 2.98789 0
M  V30 2908 H 274.966 -3.24466 1.92359 0
M  V30 2909 H 277.353 -2.75327 1.06202 0
M  V30 2910 H 277.434 -1.36884 2.16093 0
M  V30 2911 H 277.078 -2.94551 4.13766 0
M  V30 2912 H 277.008 -4.32186 3.0087 0
M  V30 2913 H 279.499 -2.85314 2.47799 0
M  V30 2914 H 279.812 -5.40549 5.52292 0
M  V30 2915 H 278.157 -4.86627 4.96205 0
M  V30 2916 H 281.348 -3.47833 3.13257 0
M  V30 2917 H 281.521 -4.64238 4.52092 0
M  V30 2918 N 274.927 -0.932562 -1.27047 0
M  V30 2919 C 275.837 -0.441219 -2.30414 0
M  V30 2920 C 276.853 0.480525 -1.67233 0
M  V30 2921 O 278.029 0.362151 -1.98117 0
M  V30 2922 C 275.094 0.293651 -3.45454 0
M  V30 2923 C 274.155 -0.663601 -4.2414 0
M  V30 2924 C 273.388 0.0362932 -5.33688 0
M  V30 2925 O 273.611 1.2548 -5.56427 0
M  V30 2926 O 272.545 -0.638015 -5.98509 0
M  V30 2927 H 276.371 -1.29962 -2.74488 0
M  V30 2928 H 273.956 -0.6981 -1.32087 0
M  V30 2929 H 275.838 0.707951 -4.15411 0
M  V30 2930 H 274.513 1.12758 -3.03426 0
M  V30 2931 H 273.42 -1.12768 -3.56699 0
M  V30 2932 H 274.753 -1.46489 -4.69896 0
M  V30 2933 N 276.405 1.4127 -0.698611 0
M  V30 2934 C 277.651 2.01478 -0.231207 0
M  V30 2935 C 277.984 1.55215 1.16713 0
M  V30 2936 O 277.259 0.764672 1.78838 0
M  V30 2937 C 277.542 3.58912 -0.292281 0
M  V30 2938 C 277.395 4.15293 -1.72778 0
M  V30 2939 C 278.714 4.38736 0.346194 0
M  V30 2940 H 275.833 0.732025 -0.0854878 0
M  V30 2941 H 278.475 1.67977 -0.887906 0
M  V30 2942 H 276.625 3.87582 0.26686 0
M  V30 2943 H 278.297 3.97486 -2.341 0
M  V30 2944 H 276.54 3.7022 -2.26096 0
M  V30 2945 H 277.211 5.24452 -1.72202 0
M  V30 2946 H 279.687 4.15897 -0.130035 0
M  V30 2947 H 278.563 5.48221 0.272932 0
M  V30 2948 H 278.824 4.18425 1.42734 0
M  V30 2949 N 277.883 0.443576 1.51229 0
M  V30 2950 C 278.793 -0.370721 2.31652 0
M  V30 2951 C 279.809 -1.02186 1.40833 0
M  V30 2952 O 280.985 -1.01586 1.73903 0
M  V30 2953 C 278.05 -1.45376 3.14749 0
M  V30 2954 C 277.111 -0.822099 4.21355 0
M  V30 2955 C 276.344 -1.85353 5.0048 0
M  V30 2956 O 276.567 -3.07656 4.80316 0
M  V30 2957 O 275.501 -1.4406 5.84406 0
M  V30 2958 H 279.327 0.286002 3.0235 0
M  V30 2959 H 276.912 0.20598 1.47973 0
M  V30 2960 H 278.794 -2.08173 3.66391 0
M  V30 2961 H 277.469 -2.09445 2.46809 0
M  V30 2962 H 276.376 -0.155909 3.73775 0
M  V30 2963 H 277.709 -0.224797 4.91686 0
M  V30 2964 N 279.361 -1.56624 0.175154 0
M  V30 2965 C 280.309 -2.19468 -0.770495 0
M  V30 2966 C 281.303 -1.15985 -1.23466 0
M  V30 2967 O 282.509 -1.34176 -1.19987 0
M  V30 2968 H 278.884 -0.703095 -0.266761 0
M  V30 2969 H 280.855 -2.97613 -0.216542 0
M  V30 2970 C 279.604 -2.85264 -1.98796 0
M  V30 2971 H 278.927 -3.64623 -1.63983 0
M  V30 2972 H 280.367 -3.327 -2.62843 0
M  V30 2973 C 278.826 -1.85239 -2.81404 0
M  V30 2974 O 279.356 -1.34024 -3.78682 0
M  V30 2975 N 277.562 -1.53911 -2.46495 0
M  V30 2976 H 277.109 -1.95751 -1.67449 0
M  V30 2977 H 277.067 -0.872382 -3.02054 0
M  V30 2978 N 280.839 0.0985539 -1.57292 0
M  V30 2979 C 282.085 0.803867 -1.86188 0
M  V30 2980 C 282.418 1.78549 -0.763794 0
M  V30 2981 O 281.693 1.93153 0.22855 0
M  V30 2982 C 281.976 1.53568 -3.25713 0
M  V30 2983 C 281.829 0.572277 -4.46145 0
M  V30 2984 C 283.148 2.48708 -3.63087 0
M  V30 2985 H 280.267 0.290781 -0.677211 0
M  V30 2986 H 282.909 0.0675783 -1.8988 0
M  V30 2987 H 281.059 2.16332 -3.22696 0
M  V30 2988 H 282.731 -0.0480894 -4.61275 0
M  V30 2989 H 280.974 -0.114618 -4.33649 0
M  V30 2990 H 281.645 1.12139 -5.40489 0
M  V30 2991 H 284.121 1.96039 -3.67026 0
M  V30 2992 H 282.997 2.96932 -4.61652 0
M  V30 2993 H 283.258 3.32309 -2.91588 0
M  V30 2994 N 282.317 1.53212 0.369288 0
M  V30 2995 C 283.28 1.7872 1.43498 0
M  V30 2996 C 284.28 0.657554 1.46741 0
M  V30 2997 O 285.47 0.925736 1.47566 0
M  V30 2998 C 282.602 1.90591 2.82645 0
M  V30 2999 H 283.795 2.73894 1.22156 0
M  V30 3000 H 281.348 1.44233 0.602203 0
M  V30 3001 H 282.083 0.974709 3.09306 0
M  V30 3002 H 281.868 2.72751 2.8169 0
M  V30 3003 H 283.358 2.11931 3.59826 0
M  V30 3004 N 283.795 -0.628877 1.44509 0
M  V30 3005 C 285.044 -1.38437 1.4669 0
M  V30 3006 C 285.357 -1.95322 0.104272 0
M  V30 3007 O 286.563 -2.715 0.00362163 0
M  V30 3008 C 285.019 -2.50659 2.5826 0
M  V30 3009 C 284.627 -2.00277 4.0074 0
M  V30 3010 C 286.371 -3.27844 2.69664 0
M  V30 3011 C 284.278 -3.09854 5.0373 0
M  V30 3012 H 283.208 -0.520245 0.545766 0
M  V30 3013 H 285.859 -0.676313 1.70582 0
M  V30 3014 H 284.241 -3.2405 2.27612 0
M  V30 3015 H 285.415 -1.33736 4.40966 0
M  V30 3016 H 283.73 -1.35901 3.93599 0
M  V30 3017 H 286.327 -4.09534 3.43781 0
M  V30 3018 H 286.67 -3.77471 1.75559 0
M  V30 3019 H 287.203 -2.61543 2.99733 0
M  V30 3020 H 283.942 -2.65168 5.99472 0
M  V30 3021 H 283.462 -3.7503 4.68095 0
M  V30 3022 H 285.141 -3.74592 5.27532 0
M  V30 3023 N 285.273 -1.31445 -0.869486 0
M  V30 3024 C 286.501 -1.24122 -1.65534 0
M  V30 3025 C 286.916 0.193387 -1.87807 0
M  V30 3026 O 286.273 1.12557 -1.43656 0
M  V30 3027 C 286.324 -1.98229 -3.02304 0
M  V30 3028 O 286.045 -3.3609 -2.81026 0
M  V30 3029 C 287.546 -1.97751 -3.96749 0
M  V30 3030 H 284.766 -0.428868 -0.516055 0
M  V30 3031 H 287.31 -1.73328 -1.08525 0
M  V30 3032 H 285.465 -1.52782 -3.56001 0
M  V30 3033 H 285.879 -3.7383 -3.67902 0
M  V30 3034 H 287.353 -2.54114 -4.90031 0
M  V30 3035 H 287.83 -0.960137 -4.28577 0
M  V30 3036 H 288.436 -2.43079 -3.48988 0
M  V30 3037 N 286.751 1.08385 -1.14413 0
M  V30 3038 C 287.714 2.13486 -0.834048 0
M  V30 3039 C 288.714 1.59988 0.161418 0
M  V30 3040 O 289.904 1.74071 -0.0669575 0
M  V30 3041 C 287.036 3.4003 -0.243354 0
M  V30 3042 H 288.229 2.42425 -1.7655 0
M  V30 3043 H 285.782 1.24101 -0.950189 0
M  V30 3044 H 286.517 3.16726 0.696807 0
M  V30 3045 H 286.302 3.80157 -0.960367 0
M  V30 3046 H 287.792 4.17577 -0.0436242 0
M  V30 3047 N 288.23 0.939286 1.26551 0
M  V30 3048 C 289.16 0.465044 2.28822 0
M  V30 3049 C 290.141 -0.480692 1.63167 0
M  V30 3050 O 291.326 -0.382955 1.90387 0
M  V30 3051 C 288.456 -0.27234 3.46231 0
M  V30 3052 C 287.41 0.58666 4.2396 0
M  V30 3053 C 286.736 -0.280573 5.33963 0
M  V30 3054 C 288.036 1.85704 4.88171 0
M  V30 3055 H 289.73 1.31979 2.68741 0
M  V30 3056 H 287.276 0.636061 1.29191 0
M  V30 3057 H 289.229 -0.615133 4.16886 0
M  V30 3058 H 287.953 -1.16121 3.0526 0
M  V30 3059 H 286.612 0.91232 3.55067 0
M  V30 3060 H 286.26 -1.16874 4.89234 0
M  V30 3061 H 285.96 0.29076 5.8688 0
M  V30 3062 H 287.484 -0.618678 6.07458 0
M  V30 3063 H 288.898 1.58161 5.51052 0
M  V30 3064 H 287.295 2.37279 5.51197 0
M  V30 3065 H 288.365 2.56957 4.11219 0
M  V30 3066 N 289.708 -1.40897 0.706093 0
M  V30 3067 C 290.618 -2.3455 0.0482286 0
M  V30 3068 C 291.634 -1.56796 -0.754396 0
M  V30 3069 O 292.81 -1.89228 -0.689538 0
M  V30 3070 C 289.875 -3.35625 -0.869303 0
M  V30 3071 C 288.936 -4.29261 -0.0576994 0
M  V30 3072 C 288.169 -5.25508 -0.931531 0
M  V30 3073 O 288.392 -5.27472 -2.17092 0
M  V30 3074 O 287.326 -6.00727 -0.375587 0
M  V30 3075 H 291.152 -2.92407 0.820476 0
M  V30 3076 H 288.737 -1.4193 0.4665 0
M  V30 3077 H 290.619 -3.97635 -1.39514 0
M  V30 3078 H 289.294 -2.80196 -1.62086 0
M  V30 3079 H 288.201 -3.70566 0.512988 0
M  V30 3080 H 289.534 -4.87817 0.655426 0
M  V30 3081 N 291.186 -0.45159 -1.50991 0
M  V30 3082 C 292.434 0.109857 -2.01801 0
M  V30 3083 C 292.755 1.41958 -1.3369 0
M  V30 3084 O 292.025 1.9003 -0.475951 0
M  V30 3085 H 290.605 0.0435884 -0.745727 0
M  V30 3086 H 293.267 -0.597557 -1.85514 0
M  V30 3087 H 292.363 0.275489 -3.10882 0
M  V30 3088 N 292.664 1.56529 -0.183458 0
M  V30 3089 C 293.594 2.21549 0.737456 0
M  V30 3090 C 294.575 1.17489 1.23005 0
M  V30 3091 O 295.76 1.45959 1.281 0
M  V30 3092 C 292.89 2.86575 1.96194 0
M  V30 3093 C 291.844 3.96778 1.60473 0
M  V30 3094 C 291.17 4.48911 2.90487 0
M  V30 3095 C 292.47 5.15767 0.823497 0
M  V30 3096 H 294.164 2.98761 0.195453 0
M  V30 3097 H 291.71 1.43702 0.0925686 0
M  V30 3098 H 293.663 3.30739 2.61131 0
M  V30 3099 H 292.387 2.06749 2.52828 0
M  V30 3100 H 291.046 3.53286 0.978997 0
M  V30 3101 H 290.694 3.65862 3.45186 0
M  V30 3102 H 290.394 5.23265 2.67335 0
M  V30 3103 H 291.918 4.95771 3.56432 0
M  V30 3104 H 293.332 5.56549 1.37571 0
M  V30 3105 H 291.729 5.96114 0.690551 0
M  V30 3106 H 292.799 4.84574 -0.177782 0
M  V30 3107 N 294.142 -0.090211 1.57342 0
M  V30 3108 C 295.089 -1.10909 2.02405 0
M  V30 3109 C 296.059 -1.39523 0.901252 0
M  V30 3110 O 297.244 -1.50903 1.1676 0
M  V30 3111 C 294.384 -2.42277 2.45755 0
M  V30 3112 C 293.497 -2.20352 3.71576 0
M  V30 3113 C 292.632 -3.45154 4.03785 0
M  V30 3114 C 291.671 -3.18512 5.22701 0
M  V30 3115 N 290.808 -4.35593 5.50639 0
M  V30 3116 H 295.648 -0.71782 2.89225 0
M  V30 3117 H 293.185 -0.342901 1.43048 0
M  V30 3118 H 295.143 -3.18951 2.68935 0
M  V30 3119 H 293.773 -2.79242 1.61938 0
M  V30 3120 H 292.825 -1.34458 3.55844 0
M  V30 3121 H 294.137 -1.96661 4.58395 0
M  V30 3122 H 293.291 -4.30233 4.27767 0
M  V30 3123 H 292.03 -3.71904 3.15498 0
M  V30 3124 H 291.035 -2.31827 4.98534 0
M  V30 3125 H 292.26 -2.93103 6.12591 0
M  V30 3126 H 290.206 -4.6241 4.6531 0
M  V30 3127 H 290.123 -4.1511 6.31838 0
M  V30 3128 H 291.391 -5.21723 5.7916 0
M  V30 3129 N 295.62 -1.53406 -0.361157 0
M  V30 3130 C 296.868 -1.69467 -1.10115 0
M  V30 3131 C 297.189 -0.451352 -1.89705 0
M  V30 3132 O 296.459 0.534636 -1.88463 0
M  V30 3133 H 295.039 -0.624749 -0.409508 0
M  V30 3134 H 297.701 -1.90609 -0.406699 0
M  V30 3135 H 296.797 -2.55774 -1.78847 0
M  V30 3136 N 297.098 0.621204 -1.44841 0
M  V30 3137 C 298.375 1.38 -1.38619 0
M  V30 3138 C 298.755 2.11041 -0.0498935 0
M  V30 3139 O 298.103 2.06992 0.967816 0
M  V30 3140 C 298.313 2.33817 -2.59096 0
M  V30 3141 C 299.661 2.96844 -3.03593 0
M  V30 3142 O 300.685 2.44141 -2.59371 0
M  V30 3143 O 299.544 3.92476 -3.80296 0
M  V30 3144 H 296.638 0.61811 -0.549426 0
M  V30 3145 H 299.184 0.645429 -1.56947 0
M  V30 3146 H 297.956 1.79012 -3.47952 0
M  V30 3147 H 297.579 3.14676 -2.43032 0
M  V30 3148 N 298.576 1.31904 0.862503 0
M  V30 3149 C 299.506 1.22782 1.98612 0
M  V30 3150 C 300.487 0.113362 1.69722 0
M  V30 3151 O 301.672 0.299218 1.91881 0
M  V30 3152 C 298.802 0.942058 3.34279 0
M  V30 3153 C 297.756 2.0169 3.77499 0
M  V30 3154 C 297.082 1.58369 5.10709 0
M  V30 3155 C 298.382 3.43096 3.93805 0
M  V30 3156 H 300.076 2.16788 2.06502 0
M  V30 3157 H 297.622 1.04366 0.992154 0
M  V30 3158 H 299.575 0.864818 4.1243 0
M  V30 3159 H 298.299 -0.0336603 3.26583 0
M  V30 3160 H 296.958 2.08416 3.01593 0
M  V30 3161 H 296.606 0.595628 4.99461 0
M  V30 3162 H 296.306 2.30279 5.40597 0
M  V30 3163 H 297.83 1.52067 5.91361 0
M  V30 3164 H 299.244 3.39003 4.62331 0
M  V30 3165 H 297.641 4.13288 4.35101 0
M  V30 3166 H 298.711 3.83334 2.96957 0
M  V30 3167 N 300.054 -1.07777 1.14986 0
M  V30 3168 C 301.017 -2.13041 0.845358 0
M  V30 3169 C 302.017 -1.60071 -0.152931 0
M  V30 3170 O 303.207 -1.74033 0.0761879 0
M  V30 3171 C 300.339 -3.39896 0.261383 0
M  V30 3172 H 301.532 -2.41485 1.77834 0
M  V30 3173 H 299.085 -1.23595 0.956757 0
M  V30 3174 H 299.82 -3.17091 -0.68 0
M  V30 3175 H 299.605 -3.79642 0.980514 0
M  V30 3176 H 301.095 -4.17548 0.0657687 0
M  V30 3177 N 301.532 -0.945985 -1.26051 0
M  V30 3178 C 302.78 -0.594941 -1.93145 0
M  V30 3179 C 303.101 0.86953 -1.7454 0
M  V30 3180 O 302.371 1.61838 -1.10387 0
M  V30 3181 H 300.951 -0.217044 -0.714773 0
M  V30 3182 H 303.613 -1.20235 -1.53393 0
M  V30 3183 H 302.709 -0.816835 -3.01221 0
M  V30 3184 N 303.011 1.40521 -0.713556 0
M  V30 3185 C 304.427 1.54839 -0.386907 0
M  V30 3186 C 304.627 1.68532 1.1045 0
M  V30 3187 O 303.683 1.67377 1.89053 0
M  V30 3188 C 304.996 2.77792 -1.15118 0
M  V30 3189 C 306.544 2.91607 -1.13729 0
M  V30 3190 C 307.019 4.1747 -1.88368 0
M  V30 3191 N 308.51 4.24466 -1.85427 0
M  V30 3192 C 309.245 5.20755 -2.40004 0
M  V30 3193 N 308.741 6.22965 -3.03129 0
M  V30 3194 N 310.534 5.1282 -2.30158 0
M  V30 3195 H 302.685 1.29879 -1.68063 0
M  V30 3196 H 304.948 0.627896 -0.710247 0
M  V30 3197 H 304.654 2.73944 -2.20561 0
M  V30 3198 H 304.528 3.6984 -0.741477 0
M  V30 3199 H 306.915 2.94959 -0.0910608 0
M  V30 3200 H 306.996 2.00682 -1.5862 0
M  V30 3201 H 306.64 4.1488 -2.9298 0
M  V30 3202 H 306.57 5.074 -1.40898 0
M  V30 3203 H 309.061 3.51241 -1.3942 0
M  V30 3204 H 309.374 6.92859 -3.42295 0
M  V30 3205 H 307.719 6.23415 -3.07212 0
M  V30 3206 H 310.91 4.31899 -1.80501 0
M  V30 3207 H 311.083 5.87689 -2.72993 0
M  V30 3208 N 304.489 0.459591 1.5075 0
M  V30 3209 C 305.719 -0.0972338 2.06371 0
M  V30 3210 C 306.127 -1.35074 1.32483 0
M  V30 3211 O 305.47 -1.79637 0.384226 0
M  V30 3212 C 305.532 -0.462759 3.56509 0
M  V30 3213 C 305.196 0.687084 4.51805 0
M  V30 3214 C 306.193 1.56578 4.95761 0
M  V30 3215 C 303.878 0.874144 4.94635 0
M  V30 3216 C 305.872 2.61604 5.81242 0
M  V30 3217 C 303.559 1.92765 5.79901 0
M  V30 3218 C 304.557 2.79697 6.23104 0
M  V30 3219 O 304.245 3.83235 7.06673 0
M  V30 3220 H 303.977 -0.00140687 0.675999 0
M  V30 3221 H 306.531 0.644011 1.95043 0
M  V30 3222 H 304.761 -1.25703 3.65699 0
M  V30 3223 H 306.45 -0.953323 3.94546 0
M  V30 3224 H 307.216 1.4329 4.6335 0
M  V30 3225 H 303.095 0.207006 4.60535 0
M  V30 3226 H 306.639 3.29489 6.14884 0
M  V30 3227 H 302.536 2.06064 6.11725 0
M  V30 3228 H 303.304 3.80084 7.24899 0
M  V30 3229 N 305.967 -1.56429 0.191757 0
M  V30 3230 C 307.197 -2.01574 -0.452928 0
M  V30 3231 C 307.605 -1.07107 -1.55964 0
M  V30 3232 O 306.948 -0.067534 -1.83576 0
M  V30 3233 C 307.01 -3.43121 -1.07278 0
M  V30 3234 C 306.674 -4.56879 -0.105214 0
M  V30 3235 C 307.671 -5.15379 0.684149 0
M  V30 3236 C 305.356 -5.023 0.00489824 0
M  V30 3237 C 307.35 -6.17746 1.57062 0
M  V30 3238 C 305.037 -6.04511 0.894935 0
M  V30 3239 C 306.035 -6.62108 1.67637 0
M  V30 3240 O 305.723 -7.62335 2.55149 0
M  V30 3241 H 305.455 -0.665554 -0.118379 0
M  V30 3242 H 308.009 -2.03245 0.296737 0
M  V30 3243 H 306.239 -3.38425 -1.87097 0
M  V30 3244 H 307.928 -3.72093 -1.62177 0
M  V30 3245 H 308.694 -4.81157 0.609365 0
M  V30 3246 H 304.573 -4.57168 -0.593156 0
M  V30 3247 H 308.117 -6.6263 2.181 0
M  V30 3248 H 304.014 -6.38157 0.970847 0
M  V30 3249 H 304.782 -7.79741 2.48892 0
M  V30 3250 N 307.445 0.0818655 -1.57387 0
M  V30 3251 C 308.392 1.09834 -2.0299 0
M  V30 3252 C 309.362 1.39043 -0.908639 0
M  V30 3253 O 310.547 1.50282 -1.17559 0
M  V30 3254 C 307.687 2.40971 -2.47037 0
M  V30 3255 C 306.8 2.18379 -3.7274 0
M  V30 3256 C 305.935 3.43008 -4.0561 0
M  V30 3257 C 304.974 3.15736 -5.24383 0
M  V30 3258 N 304.111 4.32667 -5.52941 0
M  V30 3259 H 308.951 0.702472 -2.89602 0
M  V30 3260 H 306.488 0.33531 -1.43227 0
M  V30 3261 H 308.446 3.1752 -2.70623 0
M  V30 3262 H 307.076 2.78379 -1.63417 0
M  V30 3263 H 306.128 1.32569 -3.56552 0
M  V30 3264 H 307.44 1.94227 -4.59431 0
M  V30 3265 H 306.594 4.27958 -4.30043 0
M  V30 3266 H 305.333 3.70225 -3.17466 0
M  V30 3267 H 304.338 2.2918 -4.99757 0
M  V30 3268 H 305.563 2.8985 -6.14136 0
M  V30 3269 H 303.509 4.59935 -4.67756 0
M  V30 3270 H 303.426 4.11753 -6.34031 0
M  V30 3271 H 304.694 5.18644 -5.81918 0
M  V30 3272 N 308.923 1.53595 0.353017 0
M  V30 3273 C 309.853 1.83902 1.43883 0
M  V30 3274 C 310.834 0.693421 1.55324 0
M  V30 3275 O 312.019 0.944452 1.69687 0
M  V30 3276 C 309.149 2.04016 2.8106 0
M  V30 3277 C 308.103 3.19814 2.84434 0
M  V30 3278 C 307.429 3.25244 4.24406 0
M  V30 3279 C 308.729 4.58133 2.50822 0
M  V30 3280 H 310.423 2.74835 1.1877 0
M  V30 3281 H 307.969 1.32242 0.569917 0
M  V30 3282 H 309.922 2.238 3.57059 0
M  V30 3283 H 308.646 1.09804 3.07588 0
M  V30 3284 H 307.305 2.9987 2.10887 0
M  V30 3285 H 306.953 2.28646 4.48029 0
M  V30 3286 H 306.653 4.03054 4.27576 0
M  V30 3287 H 308.177 3.47228 5.0226 0
M  V30 3288 H 309.591 4.77995 3.16534 0
M  V30 3289 H 307.988 5.38276 2.6529 0
M  V30 3290 H 309.058 4.62387 1.46034 0
M  V30 3291 N 310.401 -0.613514 1.45168 0
M  V30 3292 C 311.626 -1.40437 1.52618 0
M  V30 3293 C 312.051 -1.87438 0.157707 0
M  V30 3294 O 311.409 -1.59791 -0.856537 0
M  V30 3295 C 311.457 -2.58894 2.51011 0
M  V30 3296 O 310.561 -3.59326 2.02382 0
M  V30 3297 H 309.902 -0.419506 0.514695 0
M  V30 3298 H 312.432 -0.747215 1.90467 0
M  V30 3299 H 312.442 -3.06214 2.69624 0
M  V30 3300 H 311.117 -2.24032 3.50403 0
M  V30 3301 H 309.694 -3.18695 1.93618 0
M  V30 3302 N 311.879 -1.3236 -0.855495 0
M  V30 3303 C 312.789 -1.23221 -1.99634 0
M  V30 3304 C 313.805 -0.145983 -1.73387 0
M  V30 3305 O 314.981 -0.366502 -1.98037 0
M  V30 3306 C 312.046 -0.954782 -3.33294 0
M  V30 3307 C 311.107 -2.12937 -3.72769 0
M  V30 3308 C 310.34 -1.86508 -5.00051 0
M  V30 3309 O 310.563 -0.807231 -5.64659 0
M  V30 3310 O 309.497 -2.72591 -5.36636 0
M  V30 3311 H 313.323 -2.19126 -2.1028 0
M  V30 3312 H 310.908 -1.12241 -0.986018 0
M  V30 3313 H 312.79 -0.816519 -4.13414 0
M  V30 3314 H 311.465 -0.0258854 -3.2369 0
M  V30 3315 H 310.372 -2.3231 -2.93228 0
M  V30 3316 H 311.705 -3.04102 -3.87018 0
M  V30 3317 N 313.357 1.07166 -1.15556 0
M  V30 3318 C 314.29 2.13808 -0.797593 0
M  V30 3319 C 315.268 1.6101 0.226812 0
M  V30 3320 O 316.452 1.88161 0.112932 0
M  V30 3321 C 313.579 3.38187 -0.186371 0
M  V30 3322 C 312.625 4.09766 -1.18297 0
M  V30 3323 S 313.458 4.60932 -2.72584 0
M  V30 3324 C 314.614 5.88583 -2.12886 0
M  V30 3325 H 314.847 2.43843 -1.70083 0
M  V30 3326 H 312.38 1.19467 -0.978106 0
M  V30 3327 H 314.338 4.10189 0.159837 0
M  V30 3328 H 312.999 3.06326 0.694489 0
M  V30 3329 H 312.192 4.99065 -0.703562 0
M  V30 3330 H 311.794 3.43736 -1.47381 0
M  V30 3331 H 314.086 6.60866 -1.49208 0
M  V30 3332 H 315.029 6.41241 -3.0036 0
M  V30 3333 H 315.437 5.42194 -1.57116 0
M  V30 3334 N 314.835 0.952656 1.25548 0
M  V30 3335 C 316.063 0.623496 1.97282 0
M  V30 3336 C 316.478 -0.803987 1.70826 0
M  V30 3337 O 315.835 -1.53755 0.983147 0
M  V30 3338 C 315.886 0.870209 3.5087 0
M  V30 3339 O 315.607 2.24156 3.76412 0
M  V30 3340 C 317.108 0.553164 4.39835 0
M  V30 3341 H 314.328 0.233931 0.628902 0
M  V30 3342 H 316.872 1.27649 1.59768 0
M  V30 3343 H 315.027 0.263652 3.86502 0
M  V30 3344 H 315.441 2.31021 4.70882 0
M  V30 3345 H 316.915 0.776342 5.46513 0
M  V30 3346 H 317.392 -0.512215 4.36203 0
M  V30 3347 H 317.998 1.13896 4.09766 0
M  V30 3348 N 316.313 -1.40141 0.720998 0
M  V30 3349 C 317.223 -2.34486 0.0731031 0
M  V30 3350 C 318.239 -1.57587 -0.737723 0
M  V30 3351 O 319.415 -1.89949 -0.669429 0
M  V30 3352 C 316.48 -3.36528 -0.833656 0
M  V30 3353 C 315.541 -4.29298 -0.0121673 0
M  V30 3354 C 314.774 -5.26466 -0.875742 0
M  V30 3355 O 314.997 -5.29745 -2.11485 0
M  V30 3356 O 313.931 -6.01092 -0.31185 0
M  V30 3357 H 317.757 -2.9152 0.851444 0
M  V30 3358 H 315.342 -1.41427 0.481527 0
M  V30 3359 H 317.224 -3.99093 -1.35289 0
M  V30 3360 H 315.899 -2.81899 -1.59105 0
M  V30 3361 H 314.806 -3.70001 0.552262 0
M  V30 3362 H 316.139 -4.87094 0.707129 0
M  V30 3363 N 317.792 -0.46758 -1.50504 0
M  V30 3364 C 318.724 0.364655 -2.26281 0
M  V30 3365 C 319.737 0.960151 -1.31472 0
M  V30 3366 O 320.926 0.849153 -1.57008 0
M  V30 3367 C 318.026 1.52509 -3.02645 0
M  V30 3368 C 317.199 1.04302 -4.24782 0
M  V30 3369 C 316.258 2.07709 -4.8347 0
M  V30 3370 O 315.284 1.65913 -5.44483 0
M  V30 3371 N 316.486 3.40485 -4.70159 0
M  V30 3372 H 319.251 -0.28495 -2.98342 0
M  V30 3373 H 316.812 -0.298163 -1.59131 0
M  V30 3374 H 318.804 2.21371 -3.38787 0
M  V30 3375 H 317.374 2.07945 -2.33404 0
M  V30 3376 H 316.594 0.180393 -3.93787 0
M  V30 3377 H 317.882 0.698798 -5.03978 0
M  V30 3378 H 317.28 3.77155 -4.21629 0
M  V30 3379 H 315.837 4.05156 -5.1058 0
M  V30 3380 N 319.27 1.56325 -0.20005 0
M  V30 3381 C 320.547 1.89484 0.48529 0
M  V30 3382 C 320.927 1.1143 1.79294 0
M  V30 3383 O 320.275 0.216919 2.27468 0
M  V30 3384 C 320.485 3.41923 0.699243 0
M  V30 3385 C 321.833 4.12256 1.01638 0
M  V30 3386 O 322.857 3.47402 0.786792 0
M  V30 3387 O 321.716 5.26887 1.45095 0
M  V30 3388 H 318.81 0.787144 0.253639 0
M  V30 3389 H 321.356 1.67985 -0.240633 0
M  V30 3390 H 320.128 3.90658 -0.224008 0
M  V30 3391 H 319.751 3.69131 1.47744 0
M  V30 3392 N 320.748 -0.0735177 1.57428 0
M  V30 3393 C 321.68 -1.11423 2.00294 0
M  V30 3394 C 322.693 -1.35084 0.908637 0
M  V30 3395 O 323.882 -1.33355 1.18654 0
M  V30 3396 C 320.982 -2.46548 2.32523 0
M  V30 3397 C 320.155 -2.42867 3.63778 0
M  V30 3398 C 319.214 -3.60087 3.83697 0
M  V30 3399 O 318.24 -3.41595 4.55304 0
M  V30 3400 N 319.442 -4.80372 3.25919 0
M  V30 3401 H 322.207 -0.749206 2.90184 0
M  V30 3402 H 319.768 -0.262195 1.59763 0
M  V30 3403 H 321.76 -3.23607 2.43024 0
M  V30 3404 H 320.33 -2.75059 1.48531 0
M  V30 3405 H 319.55 -1.51206 3.64047 0
M  V30 3406 H 320.838 -2.37506 4.49965 0
M  V30 3407 H 320.236 -4.983 2.67795 0
M  V30 3408 H 318.793 -5.54948 3.41871 0
M  V30 3409 N 322.226 -1.5378 -0.344866 0
M  V30 3410 C 323.158 -1.77988 -1.44406 0
M  V30 3411 C 324.171 -0.661138 -1.48771 0
M  V30 3412 O 325.36 -0.937842 -1.51877 0
M  V30 3413 C 322.46 -1.86345 -2.8307 0
M  V30 3414 C 321.633 -3.16256 -3.0216 0
M  V30 3415 C 320.692 -3.15588 -4.21059 0
M  V30 3416 O 319.718 -3.89314 -4.15239 0
M  V30 3417 N 320.92 -2.37864 -5.29529 0
M  V30 3418 H 323.685 -2.72839 -1.24012 0
M  V30 3419 H 321.246 -1.52814 -0.534737 0
M  V30 3420 H 323.238 -1.83351 -3.60783 0
M  V30 3421 H 321.808 -0.986858 -2.96614 0
M  V30 3422 H 321.028 -3.32385 -2.11929 0
M  V30 3423 H 322.316 -4.0207 -3.11797 0
M  V30 3424 H 321.714 -1.77514 -5.37127 0
M  V30 3425 H 320.271 -2.40668 -6.05741 0
M  V30 3426 N 323.704 0.605807 -1.45491 0
M  V30 3427 C 325.12 0.926751 -1.29936 0
M  V30 3428 C 325.32 1.99896 -0.253706 0
M  V30 3429 O 324.376 2.50038 0.351737 0
M  V30 3430 C 325.689 1.36599 -2.67883 0
M  V30 3431 C 327.237 1.4801 -2.75793 0
M  V30 3432 C 327.712 1.95309 -4.14268 0
M  V30 3433 N 329.203 2.0254 -4.16571 0
M  V30 3434 C 329.938 2.40363 -5.20589 0
M  V30 3435 N 329.434 2.77143 -6.34952 0
M  V30 3436 N 331.227 2.40718 -5.07948 0
M  V30 3437 H 323.378 -0.102862 -2.12151 0
M  V30 3438 H 325.641 0.016639 -0.947854 0
M  V30 3439 H 325.347 0.652306 -3.45598 0
M  V30 3440 H 325.221 2.33215 -2.96463 0
M  V30 3441 H 327.608 2.1847 -1.98381 0
M  V30 3442 H 327.689 0.497041 -2.50925 0
M  V30 3443 H 327.333 1.25436 -4.92167 0
M  V30 3444 H 327.263 2.94532 -4.3653 0
M  V30 3445 H 329.754 1.76699 -3.34045 0
M  V30 3446 H 330.067 3.0489 -7.10114 0
M  V30 3447 H 328.412 2.74834 -6.3835 0
M  V30 3448 H 331.603 2.11392 -4.1765 0
M  V30 3449 H 331.776 2.69869 -5.89131 0
M  V30 3450 N 325.182 1.32811 0.848464 0
M  V30 3451 C 326.112 1.24882 1.97299 0
M  V30 3452 C 327.093 0.131357 1.69592 0
M  V30 3453 O 328.278 0.319553 1.91553 0
M  V30 3454 C 325.408 0.97746 3.33261 0
M  V30 3455 C 324.362 2.05682 3.75338 0
M  V30 3456 C 323.688 1.63777 5.09 0
M  V30 3457 C 324.988 3.47254 3.90144 0
M  V30 3458 H 326.682 2.18966 2.04191 0
M  V30 3459 H 324.228 1.05413 0.981029 0
M  V30 3460 H 326.181 0.908513 4.1149 0
M  V30 3461 H 324.905 0.000980011 3.266 0
M  V30 3462 H 323.564 2.11603 2.99366 0
M  V30 3463 H 323.212 0.648569 4.98801 0
M  V30 3464 H 322.912 2.36 5.38124 0
M  V30 3465 H 324.436 1.5833 5.89715 0
M  V30 3466 H 325.85 3.43888 4.58709 0
M  V30 3467 H 324.247 4.1788 4.30693 0
M  V30 3468 H 325.317 3.86462 2.92874 0
M  V30 3469 N 326.66 -1.06551 1.16123 0
M  V30 3470 C 327.909 -1.78687 0.935622 0
M  V30 3471 C 328.222 -1.88056 -0.538001 0
M  V30 3472 O 329.428 -2.56794 -0.88143 0
M  V30 3473 C 327.884 -3.21143 1.62466 0
M  V30 3474 C 327.492 -3.19949 3.13587 0
M  V30 3475 C 329.236 -3.9783 1.48092 0
M  V30 3476 C 327.143 -4.57108 3.75241 0
M  V30 3477 H 326.073 -0.669712 0.346412 0
M  V30 3478 H 328.724 -1.19534 1.39226 0
M  V30 3479 H 327.106 -3.80539 1.09572 0
M  V30 3480 H 328.28 -2.70151 3.73303 0
M  V30 3481 H 326.595 -2.5676 3.27816 0
M  V30 3482 H 329.192 -4.99217 1.91538 0
M  V30 3483 H 329.535 -4.14078 0.429507 0
M  V30 3484 H 330.068 -3.4495 1.98127 0
M  V30 3485 H 326.807 -4.46065 4.80319 0
M  V30 3486 H 326.327 -5.07111 3.20309 0
M  V30 3487 H 328.006 -5.26069 3.76644 0
M  V30 3488 N 328.138 -0.959301 -1.25041 0
M  V30 3489 C 329.415 -0.533805 -1.88175 0
M  V30 3490 C 329.795 0.988994 -1.865 0
M  V30 3491 O 329.143 1.85677 -1.33177 0
M  V30 3492 C 329.353 -1.11575 -3.30684 0
M  V30 3493 C 330.701 -1.19548 -4.07423 0
M  V30 3494 O 331.725 -1.06765 -3.39823 0
M  V30 3495 O 330.584 -1.39656 -5.28354 0
M  V30 3496 H 327.678 -0.176772 -0.807887 0
M  V30 3497 H 330.224 -1.05303 -1.33076 0
M  V30 3498 H 328.996 -2.15884 -3.26358 0
M  V30 3499 H 328.619 -0.580059 -3.93346 0
M  V30 3500 N 329.616 1.39756 -0.72842 0
M  V30 3501 C 330.893 1.94574 -0.200079 0
M  V30 3502 C 331.273 1.66569 1.29684 0
M  V30 3503 O 330.621 0.990326 2.05924 0
M  V30 3504 C 330.831 3.45004 -0.526608 0
M  V30 3505 C 332.179 4.21965 -0.472318 0
M  V30 3506 O 333.203 3.53173 -0.463413 0
M  V30 3507 O 332.062 5.44552 -0.461075 0
M  V30 3508 H 329.156 0.826289 -0.0342851 0
M  V30 3509 H 331.702 1.49293 -0.806829 0
M  V30 3510 H 330.474 3.58796 -1.56144 0
M  V30 3511 H 330.097 3.97449 0.109449 0
M  V30 3512 N 331.094 0.475555 1.50254 0
M  V30 3513 C 332.044 -0.335025 2.25525 0
M  V30 3514 C 333.028 -0.957625 1.29299 0
M  V30 3515 O 334.22 -0.869436 1.54175 0
M  V30 3516 C 331.349 -1.41385 3.12834 0
M  V30 3517 C 330.435 -0.798762 4.1651 0
M  V30 3518 N 330.826 0.0835815 5.05731 0
M  V30 3519 C 329.124 -1.06221 4.33166 0
M  V30 3520 C 329.825 0.433113 5.80085 0
M  V30 3521 N 328.801 -0.1928 5.43258 0
M  V30 3522 H 332.603 0.344612 2.91873 0
M  V30 3523 H 330.117 0.289986 1.5979 0
M  V30 3524 H 332.114 -2.00777 3.65368 0
M  V30 3525 H 330.774 -2.09543 2.48036 0
M  V30 3526 H 331.785 0.452715 5.15918 0
M  V30 3527 H 328.462 -1.73844 3.79585 0
M  V30 3528 H 329.852 1.15346 6.61925 0
M  V30 3529 N 332.573 -1.56217 0.208337 0
M  V30 3530 C 333.82 -1.97949 -0.42692 0
M  V30 3531 C 334.148 -1.09562 -1.60706 0
M  V30 3532 O 333.403 -0.137616 -1.95216 0
M  V30 3533 C 333.702 -3.45441 -0.916797 0
M  V30 3534 C 333.368 -4.50646 0.151391 0
M  V30 3535 C 332.03 -4.79139 0.444867 0
M  V30 3536 C 334.382 -5.13811 0.874492 0
M  V30 3537 C 331.71 -5.68084 1.46619 0
M  V30 3538 C 334.062 -6.03861 1.88506 0
M  V30 3539 C 332.726 -6.30704 2.18559 0
M  V30 3540 H 331.996 -0.724345 -0.156221 0
M  V30 3541 H 334.643 -1.89006 0.308084 0
M  V30 3542 H 332.948 -3.51521 -1.73032 0
M  V30 3543 H 334.645 -3.75094 -1.41794 0
M  V30 3544 H 331.235 -4.28511 -0.0875068 0
M  V30 3545 H 335.419 -4.91879 0.660996 0
M  V30 3546 H 330.675 -5.87151 1.7048 0
M  V30 3547 H 334.849 -6.51861 2.45051 0
M  V30 3548 H 332.476 -6.99424 2.97843 0
M  V30 3549 N 334.051 0.0651679 -1.57465 0
M  V30 3550 C 334.981 1.07693 -2.07182 0
M  V30 3551 C 335.962 1.39962 -0.966673 0
M  V30 3552 O 337.147 1.49475 -1.2398 0
M  V30 3553 C 334.277 2.3885 -2.52127 0
M  V30 3554 C 333.231 2.20917 -3.66579 0
M  V30 3555 C 332.557 3.57515 -3.97601 0
M  V30 3556 C 333.857 1.62493 -4.9638 0
M  V30 3557 H 335.551 0.663199 -2.91962 0
M  V30 3558 H 333.097 0.317569 -1.40455 0
M  V30 3559 H 335.05 3.09928 -2.85522 0
M  V30 3560 H 333.774 2.82215 -1.64384 0
M  V30 3561 H 332.433 1.52279 -3.33477 0
M  V30 3562 H 332.081 3.98463 -3.06979 0
M  V30 3563 H 331.781 3.46353 -4.74672 0
M  V30 3564 H 333.305 4.30013 -4.33499 0
M  V30 3565 H 334.719 2.23445 -5.27963 0
M  V30 3566 H 333.116 1.62009 -5.77818 0
M  V30 3567 H 334.186 0.587041 -4.81333 0
M  V30 3568 N 335.529 1.53961 0.336706 0
M  V30 3569 C 336.776 1.71536 1.07618 0
M  V30 3570 C 337.104 0.482125 1.8843 0
M  V30 3571 O 336.359 -0.536142 1.88213 0
M  V30 3572 C 336.658 2.93493 2.03953 0
M  V30 3573 C 336.324 4.28811 1.39399 0
M  V30 3574 C 334.986 4.65602 1.21523 0
M  V30 3575 C 337.338 5.12844 0.929541 0
M  V30 3576 C 334.666 5.84037 0.558312 0
M  V30 3577 C 337.018 6.31951 0.286505 0
M  V30 3578 C 335.682 6.67432 0.0954869 0
M  V30 3579 H 334.952 0.627696 0.393801 0
M  V30 3580 H 337.599 1.88186 0.354715 0
M  V30 3581 H 335.904 2.71475 2.82504 0
M  V30 3582 H 337.601 3.04285 2.61174 0
M  V30 3583 H 334.191 3.99858 1.54311 0
M  V30 3584 H 338.375 4.84947 1.05548 0
M  V30 3585 H 333.631 6.10097 0.398995 0
M  V30 3586 H 337.805 6.96352 -0.0814376 0
M  V30 3587 H 335.432 7.59063 -0.415579 0
M  V30 3588 N 337.007 -0.598083 1.45811 0
M  V30 3589 C 338.284 -1.35777 1.40797 0
M  V30 3590 C 338.664 -2.10935 0.083462 0
M  V30 3591 O 338.012 -2.08505 -0.934763 0
M  V30 3592 C 338.222 -2.29666 2.62783 0
M  V30 3593 C 339.57 -2.91977 3.08277 0
M  V30 3594 O 340.594 -2.39984 2.63223 0
M  V30 3595 O 339.453 -3.86376 3.86491 0
M  V30 3596 H 336.547 -0.609291 0.55919 0
M  V30 3597 H 339.093 -0.620379 1.57954 0
M  V30 3598 H 337.865 -1.73454 3.50756 0
M  V30 3599 H 337.488 -3.1077 2.48008 0
M  V30 3600 N 338.485 -1.33259 -0.841409 0
M  V30 3601 C 339.432 -1.23302 -1.95103 0
M  V30 3602 C 340.402 -0.112204 -1.65721 0
M  V30 3603 O 341.587 -0.290038 -1.88583 0
M  V30 3604 C 338.727 -0.975583 -3.31023 0
M  V30 3605 C 337.84 -2.18243 -3.72819 0
M  V30 3606 C 336.975 -1.85936 -4.97595 0
M  V30 3607 C 336.014 -3.02866 -5.3192 0
M  V30 3608 N 335.151 -2.70565 -6.47873 0
M  V30 3609 H 339.991 -2.18207 -2.02952 0
M  V30 3610 H 337.528 -1.0851 -0.993173 0
M  V30 3611 H 339.486 -0.80677 -4.09325 0
M  V30 3612 H 338.116 -0.0632755 -3.22738 0
M  V30 3613 H 337.168 -2.46107 -2.90061 0
M  V30 3614 H 338.48 -3.05666 -3.94169 0
M  V30 3615 H 337.634 -1.65684 -5.83638 0
M  V30 3616 H 336.373 -0.957452 -4.78209 0
M  V30 3617 H 335.378 -3.23736 -4.44382 0
M  V30 3618 H 336.603 -3.93809 -5.53255 0
M  V30 3619 H 334.549 -1.8293 -6.29978 0
M  V30 3620 H 334.466 -3.51519 -6.69306 0
M  V30 3621 H 335.734 -2.53774 -7.37034 0
M  V30 3622 N 339.963 1.05934 -1.16686 0
M  V30 3623 C 341.374 1.60263 -0.957745 0
M  V30 3624 C 341.725 1.89789 0.49745 0
M  V30 3625 O 340.85 1.67401 1.37135 0
M  V30 3626 C 341.445 2.91172 -1.73218 0
M  V30 3627 C 340.004 3.42188 -1.56794 0
M  V30 3628 C 339.151 2.16028 -1.73859 0
M  V30 3629 H 342.102 0.888392 -1.31504 0
M  V30 3630 H 342.123 3.60744 -1.21014 0
M  V30 3631 H 341.635 2.6965 -2.79124 0
M  V30 3632 H 339.736 3.68762 -0.533437 0
M  V30 3633 H 339.849 4.17273 -2.35414 0
M  V30 3634 H 338.213 2.26426 -1.16633 0
M  V30 3635 H 338.996 1.96985 -2.81161 0
M  V30 3636 N 341.441 0.965919 1.2453 0
M  V30 3637 C 342.687 0.62776 1.92839 0
M  V30 3638 C 343.02 -0.834694 1.75347 0
M  V30 3639 O 342.295 -1.60031 1.10546 0
M  V30 3640 C 342.578 1.00109 3.45905 0
M  V30 3641 C 342.431 2.52011 3.72573 0
M  V30 3642 C 343.75 0.53435 4.36844 0
M  V30 3643 H 340.869 0.229537 0.700344 0
M  V30 3644 H 343.511 1.2046 1.46933 0
M  V30 3645 H 341.661 0.510238 3.85135 0
M  V30 3646 H 343.333 3.08559 3.42912 0
M  V30 3647 H 341.576 2.95287 3.17786 0
M  V30 3648 H 342.247 2.73183 4.79661 0
M  V30 3649 H 344.723 0.955565 4.04979 0
M  V30 3650 H 343.599 0.824152 5.42678 0
M  V30 3651 H 343.86 -0.565589 4.38467 0
M  V30 3652 N 342.919 -1.39368 0.735821 0
M  V30 3653 C 344.144 -2.05319 0.293052 0
M  V30 3654 C 344.569 -1.55115 -1.064 0
M  V30 3655 O 343.927 -0.695261 -1.67439 0
M  V30 3656 C 343.975 -3.59305 0.305323 0
M  V30 3657 O 343.079 -4.06299 -0.706761 0
M  V30 3658 H 342.42 -0.650529 0.13307 0
M  V30 3659 H 344.95 -1.78386 1.00197 0
M  V30 3660 H 344.96 -4.07724 0.149997 0
M  V30 3661 H 343.635 -3.95207 1.29553 0
M  V30 3662 H 342.212 -3.69292 -0.517504 0
M  V30 3663 N 344.397 -0.483516 -1.5 0
M  V30 3664 C 345.808 -0.0314176 -1.86674 0
M  V30 3665 C 346.159 1.37728 -1.39733 0
M  V30 3666 O 345.284 2.02327 -0.767635 0
M  V30 3667 C 345.879 -0.0502376 -3.38763 0
M  V30 3668 C 344.438 0.346442 -3.74802 0
M  V30 3669 C 343.585 -0.430366 -2.7394 0
M  V30 3670 H 346.536 -0.697182 -1.42566 0
M  V30 3671 H 346.557 0.749116 -3.73053 0
M  V30 3672 H 346.069 -1.07563 -3.72897 0
M  V30 3673 H 344.17 1.37572 -3.46273 0
M  V30 3674 H 344.283 0.0391486 -4.79084 0
M  V30 3675 H 342.647 0.117557 -2.54429 0
M  V30 3676 H 343.43 -1.4555 -3.10918 0
M  V30 3677 N 345.875 1.56104 -0.216619 0
M  V30 3678 C 346.805 2.23063 0.690296 0
M  V30 3679 C 347.786 1.20072 1.20485 0
M  V30 3680 O 348.971 1.48643 1.24976 0
M  V30 3681 C 346.101 2.90672 1.90072 0
M  V30 3682 C 345.055 4.00092 1.5202 0
M  V30 3683 C 344.381 4.54972 2.80899 0
M  V30 3684 C 345.681 5.17398 0.71391 0
M  V30 3685 H 347.375 2.99109 0.132038 0
M  V30 3686 H 344.921 1.43866 0.0620664 0
M  V30 3687 H 346.874 3.36204 2.54057 0
M  V30 3688 H 345.598 2.12066 2.48386 0
M  V30 3689 H 344.257 3.55283 0.903839 0
M  V30 3690 H 343.905 3.73102 3.37348 0
M  V30 3691 H 343.605 5.28817 2.56176 0
M  V30 3692 H 345.129 5.0322 3.45836 0
M  V30 3693 H 346.543 5.59342 1.25735 0
M  V30 3694 H 344.94 5.97444 0.563951 0
M  V30 3695 H 346.01 4.84088 -0.280527 0
M  V30 3696 N 347.353 -0.0568162 1.57498 0
M  V30 3697 C 348.283 -1.06593 2.0775 0
M  V30 3698 C 349.264 -1.39448 0.974082 0
M  V30 3699 O 350.449 -1.48815 1.24771 0
M  V30 3700 C 347.579 -2.37509 2.5339 0
M  V30 3701 C 346.533 -2.1897 3.67745 0
M  V30 3702 C 345.859 -3.55402 3.99492 0
M  V30 3703 C 347.159 -1.59859 4.97235 0
M  V30 3704 H 348.853 -0.647706 2.9231 0
M  V30 3705 H 346.399 -0.310116 1.40621 0
M  V30 3706 H 348.352 -3.08409 2.87162 0
M  V30 3707 H 347.076 -2.8134 1.65878 0
M  V30 3708 H 345.735 -1.50508 3.3428 0
M  V30 3709 H 345.383 -3.9683 3.09088 0
M  V30 3710 H 345.083 -3.43831 4.76502 0
M  V30 3711 H 346.607 -4.27708 4.35773 0
M  V30 3712 H 348.021 -2.20642 5.29141 0
M  V30 3713 H 346.418 -1.58942 5.78669 0
M  V30 3714 H 347.488 -0.561506 4.81638 0
M  V30 3715 N 348.832 -1.54138 -0.328536 0
M  V30 3716 C 350.06 -1.76062 -1.08673 0
M  V30 3717 C 350.475 -0.506852 -1.81869 0
M  V30 3718 O 349.832 0.522223 -1.74869 0
M  V30 3719 C 349.883 -2.95054 -2.08866 0
M  V30 3720 O 349.604 -4.15583 -1.38644 0
M  V30 3721 C 351.105 -3.2915 -2.96943 0
M  V30 3722 H 348.325 -0.587889 -0.323461 0
M  V30 3723 H 350.869 -2.0101 -0.376175 0
M  V30 3724 H 349.024 -2.72394 -2.75464 0
M  V30 3725 H 349.438 -4.82481 -2.05699 0
M  V30 3726 H 350.912 -4.15723 -3.63151 0
M  V30 3727 H 351.389 -2.461 -3.63774 0
M  V30 3728 H 351.995 -3.53871 -2.35914 0
M  V30 3729 N 350.31 0.590341 -1.46126 0
M  V30 3730 C 351.55 1.35995 -1.52593 0
M  V30 3731 C 351.914 1.91243 -0.170368 0
M  V30 3732 O 353.115 2.68576 -0.109775 0
M  V30 3733 C 351.386 2.46465 -2.58823 0
M  V30 3734 S 352.945 3.33953 -2.84641 0
M  V30 3735 H 349.763 0.463425 -0.53922 0
M  V30 3736 H 352.365 0.67944 -1.83314 0
M  V30 3737 H 351.069 2.04256 -3.5596 0
M  V30 3738 H 350.6 3.19297 -2.2981 0
M  V30 3739 H 352.615 4.45094 -2.19331 0
M  V30 3740 N 351.788 1.33704 0.83433 0
M  V30 3741 C 352.751 1.24244 1.92603 0
M  V30 3742 C 353.751 0.160383 1.59998 0
M  V30 3743 O 354.941 0.412228 1.69252 0
M  V30 3744 C 352.073 0.91555 3.28376 0
M  V30 3745 H 353.266 2.21287 2.02416 0
M  V30 3746 H 350.819 1.17827 1.02696 0
M  V30 3747 H 351.554 -0.0521886 3.24258 0
M  V30 3748 H 351.339 1.69811 3.53422 0
M  V30 3749 H 352.829 0.874231 4.08347 0
M  V30 3750 N 353.266 -1.05314 1.17247 0
M  V30 3751 C 354.514 -1.77941 0.958194 0
M  V30 3752 C 354.835 -1.88089 -0.514556 0
M  V30 3753 O 354.105 -1.39676 -1.37359 0
M  V30 3754 H 352.685 -0.659116 0.351533 0
M  V30 3755 H 355.347 -1.27166 1.47699 0
M  V30 3756 H 354.443 -2.79663 1.38546 0
M  V30 3757 N 354.744 -0.972509 -1.24016 0
M  V30 3758 C 355.677 -0.45117 -2.23696 0
M  V30 3759 C 356.655 0.477378 -1.55434 0
M  V30 3760 O 357.839 0.407647 -1.84039 0
M  V30 3761 C 354.966 0.34818 -3.36906 0
M  V30 3762 C 354.012 -0.523355 -4.23277 0
M  V30 3763 S 354.845 -1.96647 -4.98087 0
M  V30 3764 C 356.001 -1.17604 -6.14752 0
M  V30 3765 H 356.234 -1.29588 -2.67571 0
M  V30 3766 H 353.767 -0.777903 -1.33372 0
M  V30 3767 H 355.725 0.803387 -4.02562 0
M  V30 3768 H 354.386 1.16792 -2.91579 0
M  V30 3769 H 353.579 0.0906181 -5.03919 0
M  V30 3770 H 353.181 -0.914485 -3.62647 0
M  V30 3771 H 355.473 -0.433434 -6.76112 0
M  V30 3772 H 356.416 -1.95701 -6.8052 0
M  V30 3773 H 356.824 -0.698295 -5.60164 0
M  V30 3774 N 356.222 1.38976 -0.743202 0
M  V30 3775 C 357.185 2.28901 -0.117014 0
M  V30 3776 C 358.185 1.46698 0.658503 0
M  V30 3777 O 359.375 1.67274 0.486305 0
M  V30 3778 C 356.507 3.30309 0.84315 0
M  V30 3779 H 357.7 2.8578 -0.909373 0
M  V30 3780 H 355.253 1.47761 -0.509547 0
M  V30 3781 H 355.988 2.785 1.66157 0
M  V30 3782 H 355.773 3.91029 0.289594 0
M  V30 3783 H 357.263 3.97577 1.2776 0
M  V30 3784 N 357.7 0.491464 1.49741 0
M  V30 3785 C 359.116 0.146835 1.58923 0
M  V30 3786 C 359.316 -1.34804 1.49767 0
M  V30 3787 O 358.372 -2.12317 1.36667 0
M  V30 3788 C 359.685 0.715157 2.92072 0
M  V30 3789 C 361.233 0.680407 3.05515 0
M  V30 3790 C 361.708 1.22663 4.41269 0
M  V30 3791 N 363.199 1.18691 4.47735 0
M  V30 3792 C 363.934 1.57984 5.51207 0
M  V30 3793 N 363.43 2.04824 6.6183 0
M  V30 3794 N 365.223 1.49459 5.41866 0
M  V30 3795 H 357.374 1.46347 1.53936 0
M  V30 3796 H 359.637 0.606453 0.728642 0
M  V30 3797 H 359.343 1.76317 3.04311 0
M  V30 3798 H 359.217 0.17018 3.76816 0
M  V30 3799 H 361.604 -0.358743 2.92911 0
M  V30 3800 H 361.685 1.26242 2.22478 0
M  V30 3801 H 361.329 2.26451 4.54623 0
M  V30 3802 H 361.259 0.620637 5.2293 0
M  V30 3803 H 363.75 0.843605 3.68364 0
M  V30 3804 H 364.063 2.32901 7.3687 0
M  V30 3805 H 362.408 2.08791 6.62896 0
M  V30 3806 H 365.599 1.12692 4.54333 0
M  V30 3807 H 365.772 1.80406 6.22381 0
M  V30 3808 N 359.178 -1.55987 0.224894 0
M  V30 3809 C 360.455 -1.90232 -0.455083 0
M  V30 3810 C 360.835 -1.14269 -1.77499 0
M  V30 3811 O 360.183 -0.253079 -2.27094 0
M  V30 3812 C 360.393 -3.42993 -0.644758 0
M  V30 3813 C 361.741 -4.13821 -0.950669 0
M  V30 3814 O 362.765 -3.4861 -0.731423 0
M  V30 3815 O 361.624 -5.29128 -1.36695 0
M  V30 3816 H 358.718 -0.79108 -0.241084 0
M  V30 3817 H 361.264 -1.67581 0.267327 0
M  V30 3818 H 360.036 -3.90252 0.28613 0
M  V30 3819 H 359.659 -3.71434 -1.41853 0
M  V30 3820 N 360.656 0.0484629 -1.57525 0
M  V30 3821 C 361.902 0.738854 -1.89506 0
M  V30 3822 C 362.257 1.73989 -0.821319 0
M  V30 3823 O 361.55 1.90825 0.172129 0
M  V30 3824 C 361.744 1.46632 -3.25935 0
M  V30 3825 C 361.573 0.537254 -4.46479 0
M  V30 3826 C 360.343 0.165484 -5.05029 0
M  V30 3827 C 362.541 -0.176085 -5.13998 0
M  V30 3828 N 360.523 -0.766868 -6.09091 0
M  V30 3829 C 361.894 -0.96478 -6.12448 0
M  V30 3830 C 363.949 -0.24509 -4.97296 0
M  V30 3831 C 362.652 -1.8161 -6.95996 0
M  V30 3832 C 364.678 -1.08347 -5.81391 0
M  V30 3833 C 364.04 -1.86014 -6.79395 0
M  V30 3834 H 360.139 0.245067 -0.742608 0
M  V30 3835 H 362.723 -0.000476161 -1.947 0
M  V30 3836 H 360.894 2.17623 -3.21706 0
M  V30 3837 H 362.626 2.10757 -3.45491 0
M  V30 3838 H 359.381 0.523466 -4.70698 0
M  V30 3839 H 359.805 -1.22698 -6.65788 0
M  V30 3840 H 364.447 0.341063 -4.21422 0
M  V30 3841 H 362.165 -2.41313 -7.71229 0
M  V30 3842 H 365.751 -1.14014 -5.70519 0
M  V30 3843 H 364.631 -2.4984 -7.43337 0
M  V30 3844 N 362.134 1.5431 0.320358 0
M  V30 3845 C 363.545 1.63872 0.894594 0
M  V30 3846 C 363.896 0.534847 1.88769 0
M  V30 3847 O 363.021 -0.331732 2.13842 0
M  V30 3848 C 363.616 2.97049 1.62934 0
M  V30 3849 C 362.175 3.08796 2.15226 0
M  V30 3850 C 361.322 2.59456 0.978671 0
M  V30 3851 H 364.273 1.58398 0.0978544 0
M  V30 3852 H 364.294 2.87388 2.49376 0
M  V30 3853 H 363.806 3.7737 0.906302 0
M  V30 3854 H 361.907 2.33156 2.90636 0
M  V30 3855 H 362.02 4.14649 2.40006 0
M  V30 3856 H 360.384 2.1543 1.35875 0
M  V30 3857 H 361.167 3.42237 0.269895 0
M  V30 3858 N 363.613 -0.582584 1.46437 0
M  V30 3859 C 364.89 -1.34276 1.4223 0
M  V30 3860 C 365.27 -2.10835 0.10583 0
M  V30 3861 O 364.618 -2.09485 -0.912596 0
M  V30 3862 C 364.828 -2.26865 2.65204 0
M  V30 3863 C 366.176 -2.88691 3.11356 0
M  V30 3864 O 367.2 -2.37178 2.65753 0
M  V30 3865 O 366.059 -3.82255 3.90568 0
M  V30 3866 H 363.153 -0.603326 0.565621 0
M  V30 3867 H 365.699 -0.603591 1.58603 0
M  V30 3868 H 364.471 -1.69724 3.52576 0
M  V30 3869 H 364.094 -3.08122 2.5129 0
M  V30 3870 N 365.091 -1.34144 -0.827227 0
M  V30 3871 C 366.054 -1.25264 -1.91942 0
M  V30 3872 C 367.054 -0.168866 -1.59911 0
M  V30 3873 O 368.244 -0.421198 -1.69031 0
M  V30 3874 C 365.376 -0.932952 -3.27885 0
M  V30 3875 H 366.569 -2.22357 -2.0124 0
M  V30 3876 H 364.122 -1.1837 -1.0207 0
M  V30 3877 H 364.857 0.0349917 -3.24281 0
M  V30 3878 H 364.642 -1.71682 -3.52516 0
M  V30 3879 H 366.132 -0.895874 -4.07877 0
M  V30 3880 N 366.569 1.04691 -1.17803 0
M  V30 3881 C 367.985 1.29963 -0.926379 0
M  V30 3882 C 368.185 1.97251 0.411635 0
M  V30 3883 O 367.241 2.24922 1.14744 0
M  V30 3884 C 368.554 2.16447 -2.08737 0
M  V30 3885 C 370.102 2.29814 -2.12496 0
M  V30 3886 C 370.577 3.19661 -3.27995 0
M  V30 3887 N 372.068 3.27247 -3.27816 0
M  V30 3888 C 372.803 3.96906 -4.13827 0
M  V30 3889 N 372.299 4.6895 -5.09959 0
M  V30 3890 N 374.092 3.93122 -4.01761 0
M  V30 3891 H 366.243 0.594182 -2.0392 0
M  V30 3892 H 368.506 0.324649 -0.890678 0
M  V30 3893 H 368.212 1.74304 -3.05469 0
M  V30 3894 H 368.086 3.17103 -2.04268 0
M  V30 3895 H 370.473 2.71196 -1.16347 0
M  V30 3896 H 370.554 1.2877 -2.21025 0
M  V30 3897 H 370.198 2.78991 -4.24413 0
M  V30 3898 H 370.128 4.20722 -3.16703 0
M  V30 3899 H 372.619 2.75921 -2.58217 0
M  V30 3900 H 372.932 5.19679 -5.71974 0
M  V30 3901 H 371.277 4.67875 -5.13924 0
M  V30 3902 H 374.468 3.35967 -3.2595 0
M  V30 3903 H 374.641 4.47139 -4.6901 0
M  V30 3904 N 368.047 0.979072 1.23499 0
M  V30 3905 C 369.295 0.645941 1.91499 0
M  V30 3906 C 369.616 -0.822948 1.76784 0
M  V30 3907 O 368.886 -1.58854 1.14639 0
M  V30 3908 H 367.466 0.235919 0.708767 0
M  V30 3909 H 370.128 1.2426 1.50152 0
M  V30 3910 H 369.224 0.896411 2.9895 0
M  V30 3911 N 369.525 -1.3858 0.750561 0
M  V30 3912 C 370.774 -1.99424 0.302172 0
M  V30 3913 C 371.087 -1.60254 -1.12152 0
M  V30 3914 O 372.293 -2.14046 -1.67023 0
M  V30 3915 C 370.749 -3.56558 0.489307 0
M  V30 3916 C 370.357 -4.04682 1.92189 0
M  V30 3917 C 372.101 -4.24374 0.103478 0
M  V30 3918 C 370.008 -5.54446 2.05775 0
M  V30 3919 H 368.938 -0.746046 0.10923 0
M  V30 3920 H 371.589 -1.58383 0.92667 0
M  V30 3921 H 369.971 -3.95472 -0.204329 0
M  V30 3922 H 371.145 -3.77065 2.64875 0
M  V30 3923 H 369.46 -3.4958 2.26236 0
M  V30 3924 H 372.057 -5.34384 0.183787 0
M  V30 3925 H 372.4 -4.05468 -0.943481 0
M  V30 3926 H 372.933 -3.90688 0.748854 0
M  V30 3927 H 369.672 -5.78252 3.08714 0
M  V30 3928 H 369.192 -5.83816 1.37546 0
M  V30 3929 H 370.871 -6.20099 1.84626 0
M  V30 3930 N 371.003 -0.499398 -1.49478 0
M  V30 3931 C 372.249 0.0377587 -2.03365 0
M  V30 3932 C 372.604 1.3484 -1.37244 0
M  V30 3933 O 371.897 1.85 -0.498547 0
M  V30 3934 C 372.091 0.248424 -3.56536 0
M  V30 3935 C 371.92 -1.04025 -4.37503 0
M  V30 3936 C 370.69 -1.59159 -4.79579 0
M  V30 3937 C 372.888 -1.9431 -4.76181 0
M  V30 3938 N 370.87 -2.82634 -5.44969 0
M  V30 3939 C 372.241 -3.02364 -5.41272 0
M  V30 3940 C 374.296 -1.95008 -4.58123 0
M  V30 3941 C 372.999 -4.1114 -5.90217 0
M  V30 3942 C 375.025 -3.02758 -5.08027 0
M  V30 3943 C 374.387 -4.09531 -5.73118 0
M  V30 3944 H 370.486 -0.026923 -0.781536 0
M  V30 3945 H 373.07 -0.673901 -1.82665 0
M  V30 3946 H 371.241 0.929139 -3.77123 0
M  V30 3947 H 372.973 0.782445 -3.97064 0
M  V30 3948 H 369.728 -1.13696 -4.5975 0
M  V30 3949 H 370.152 -3.45416 -5.82252 0
M  V30 3950 H 374.794 -1.13766 -4.07207 0
M  V30 3951 H 372.512 -4.93181 -6.40155 0
M  V30 3952 H 376.098 -3.04315 -4.95866 0
M  V30 3953 H 374.978 -4.91534 -6.11035 0
M  V30 3954 N 372.481 1.55866 -0.233164 0
M  V30 3955 C 373.431 2.17442 0.685774 0
M  V30 3956 C 374.415 1.12617 1.14918 0
M  V30 3957 O 375.607 1.3857 1.10124 0
M  V30 3958 C 372.736 2.86685 1.88856 0
M  V30 3959 C 371.822 3.98749 1.4443 0
M  V30 3960 N 372.213 5.00744 0.713364 0
M  V30 3961 C 370.511 4.11052 1.73068 0
M  V30 3962 C 371.212 5.79673 0.485205 0
M  V30 3963 N 370.188 5.33454 1.04536 0
M  V30 3964 H 373.99 2.93659 0.119022 0
M  V30 3965 H 371.504 1.62362 -0.0348995 0
M  V30 3966 H 373.501 3.29218 2.55776 0
M  V30 3967 H 372.161 2.11967 2.45967 0
M  V30 3968 H 373.172 5.16613 0.364861 0
M  V30 3969 H 369.849 3.47495 2.31416 0
M  V30 3970 H 371.239 6.71829 -0.097365 0
M  V30 3971 N 373.959 -0.0401083 1.57549 0
M  V30 3972 C 374.907 -1.06264 2.06908 0
M  V30 3973 C 375.901 -1.38132 0.980608 0
M  V30 3974 O 377.107 -1.37167 1.16556 0
M  V30 3975 H 373.482 -0.360166 0.660139 0
M  V30 3976 H 375.453 -0.620445 2.91878 0
M  V30 3977 C 374.202 -2.35846 2.55483 0
M  V30 3978 H 373.525 -2.12183 3.38849 0
M  V30 3979 H 374.965 -3.05765 2.93741 0
M  V30 3980 C 373.424 -3.0404 1.45126 0
M  V30 3981 O 373.954 -3.93424 0.811216 0
M  V30 3982 N 372.16 -2.65184 1.18852 0
M  V30 3983 H 371.707 -1.92584 1.71083 0
M  V30 3984 H 371.665 -3.1113 0.452244 0
M  V30 3985 N 375.437 -1.54477 -0.31217 0
M  V30 3986 C 376.667 -1.76948 -1.06645 0
M  V30 3987 C 377.075 -0.523593 -1.81811 0
M  V30 3988 O 376.418 0.51578 -1.76311 0
M  V30 3989 C 376.48 -2.91668 -2.10166 0
M  V30 3990 C 376.144 -4.30165 -1.54296 0
M  V30 3991 C 377.141 -5.10603 -0.978793 0
M  V30 3992 C 374.826 -4.76738 -1.58196 0
M  V30 3993 C 376.82 -6.3573 -0.461048 0
M  V30 3994 C 374.507 -6.01831 -1.06034 0
M  V30 3995 C 375.505 -6.81161 -0.500844 0
M  V30 3996 O 375.193 -8.03899 0.0128958 0
M  V30 3997 H 374.925 -0.594088 -0.322546 0
M  V30 3998 H 377.479 -2.02213 -0.360441 0
M  V30 3999 H 375.709 -2.62001 -2.84416 0
M  V30 4000 H 377.398 -3.01817 -2.71406 0
M  V30 4001 H 378.164 -4.75771 -0.941651 0
M  V30 4002 H 374.043 -4.15027 -2.00683 0
M  V30 4003 H 377.587 -6.97596 -0.0236894 0
M  V30 4004 H 373.484 -6.36152 -1.09459 0
M  V30 4005 H 374.252 -8.18437 -0.101457 0
M  V30 4006 N 376.915 0.57481 -1.46744 0
M  V30 4007 C 378.192 1.3352 -1.4294 0
M  V30 4008 C 378.572 2.10775 -0.117009 0
M  V30 4009 O 377.92 2.09966 0.901474 0
M  V30 4010 C 378.13 2.25456 -2.66403 0
M  V30 4011 C 379.478 2.87035 -3.12883 0
M  V30 4012 O 380.502 2.35766 -2.67007 0
M  V30 4013 O 379.361 3.80179 -3.92589 0
M  V30 4014 H 376.455 0.600318 -0.568812 0
M  V30 4015 H 379.001 0.595171 -1.58921 0
M  V30 4016 H 377.773 1.67851 -3.53471 0
M  V30 4017 H 377.396 3.06785 -2.52921 0
M  V30 4018 N 378.394 1.34581 0.820102 0
M  V30 4019 C 379.341 1.2639 1.93117 0
M  V30 4020 C 380.311 0.138554 1.65521 0
M  V30 4021 O 381.496 0.320004 1.88097 0
M  V30 4022 C 378.636 1.02812 3.29429 0
M  V30 4023 C 377.749 2.24146 3.693 0
M  V30 4024 C 376.884 1.93829 4.94574 0
M  V30 4025 C 375.923 3.1129 5.27034 0
M  V30 4026 N 375.06 2.80838 6.43486 0
M  V30 4027 H 379.9 2.21408 1.99455 0
M  V30 4028 H 377.437 1.10077 0.975784 0
M  V30 4029 H 379.395 0.871788 4.0799 0
M  V30 4030 H 378.025 0.114612 3.22596 0
M  V30 4031 H 377.077 2.50691 2.86109 0
M  V30 4032 H 378.389 3.11899 3.89257 0
M  V30 4033 H 377.543 1.74948 5.80929 0
M  V30 4034 H 376.282 1.03341 4.76626 0
M  V30 4035 H 375.287 3.30764 4.39175 0
M  V30 4036 H 376.512 4.02561 5.4692 0
M  V30 4037 H 374.458 1.92929 6.26988 0
M  V30 4038 H 374.375 3.62123 6.63629 0
M  V30 4039 H 375.643 2.65467 7.32903 0
M  V30 4040 N 379.872 -1.04064 1.18357 0
M  V30 4041 C 381.1 -1.80916 1.00384 0
M  V30 4042 C 381.515 -1.83414 -0.447738 0
M  V30 4043 O 380.872 -1.26962 -1.31099 0
M  V30 4044 C 380.923 -3.26516 1.55144 0
M  V30 4045 O 380.644 -3.2424 2.94618 0
M  V30 4046 C 382.145 -4.20013 1.41789 0
M  V30 4047 H 379.365 -0.569728 0.354474 0
M  V30 4048 H 381.909 -1.31151 1.56906 0
M  V30 4049 H 380.064 -3.73512 1.02798 0
M  V30 4050 H 380.478 -4.15452 3.20156 0
M  V30 4051 H 381.952 -5.20111 1.84901 0
M  V30 4052 H 382.429 -4.37667 0.36661 0
M  V30 4053 H 383.035 -3.78881 1.93207 0
M  V30 4054 N 381.35 -0.985608 -1.22978 0
M  V30 4055 C 382.597 -0.657386 -1.91532 0
M  V30 4056 C 382.925 0.809707 -1.76845 0
M  V30 4057 O 382.18 1.60021 -1.12658 0
M  V30 4058 C 382.479 -1.00014 -3.43121 0
M  V30 4059 C 382.145 -2.4583 -3.77993 0
M  V30 4060 C 380.807 -2.85679 -3.87222 0
M  V30 4061 C 383.159 -3.40378 -3.94705 0
M  V30 4062 C 380.487 -4.19081 -4.10595 0
M  V30 4063 C 382.839 -4.73429 -4.1958 0
M  V30 4064 C 381.503 -5.1303 -4.27032 0
M  V30 4065 H 380.773 -0.240555 -0.700867 0
M  V30 4066 H 383.42 -1.24044 -1.45895 0
M  V30 4067 H 381.725 -0.335072 -3.90365 0
M  V30 4068 H 383.422 -0.724322 -3.94404 0
M  V30 4069 H 380.012 -2.13939 -3.71387 0
M  V30 4070 H 384.196 -3.10766 -3.8696 0
M  V30 4071 H 379.452 -4.49362 -4.14589 0
M  V30 4072 H 383.626 -5.46644 -4.31455 0
M  V30 4073 H 381.253 -6.16418 -4.44896 0
M  V30 4074 N 382.828 1.3818 -0.7579 0
M  V30 4075 C 383.758 2.33027 -0.148597 0
M  V30 4076 C 384.739 1.55085 0.69875 0
M  V30 4077 O 385.924 1.83384 0.639053 0
M  V30 4078 C 383.054 3.3928 0.742034 0
M  V30 4079 C 382.008 4.28 -0.00291946 0
M  V30 4080 C 381.334 5.25146 1.00625 0
M  V30 4081 C 382.634 5.08938 -1.17385 0
M  V30 4082 H 384.328 2.84231 -0.940909 0
M  V30 4083 H 381.874 1.36659 -0.453908 0
M  V30 4084 H 383.827 4.046 1.17799 0
M  V30 4085 H 382.551 2.86569 1.56671 0
M  V30 4086 H 381.21 3.64192 -0.419504 0
M  V30 4087 H 380.858 4.68721 1.8251 0
M  V30 4088 H 380.558 5.85361 0.512428 0
M  V30 4089 H 382.082 5.93342 1.44143 0
M  V30 4090 H 383.496 5.67474 -0.815224 0
M  V30 4091 H 381.893 5.7841 -1.59882 0
M  V30 4092 H 382.963 4.42424 -1.98468 0
M  V30 4093 N 384.306 0.507319 1.49211 0
M  V30 4094 C 385.555 -0.0368315 2.01666 0
M  V30 4095 C 385.868 -1.37459 1.39156 0
M  V30 4096 O 387.074 -2.00579 1.82976 0
M  V30 4097 C 385.53 -0.116089 3.59713 0
M  V30 4098 C 385.138 1.2154 4.31198 0
M  V30 4099 C 386.882 -0.610268 4.2009 0
M  V30 4100 C 384.789 1.09796 5.81119 0
M  V30 4101 H 383.719 -0.0175376 0.753796 0
M  V30 4102 H 386.37 0.647691 1.71689 0
M  V30 4103 H 384.752 -0.8652 3.86433 0
M  V30 4104 H 385.926 1.9783 4.16173 0
M  V30 4105 H 384.241 1.64352 3.82593 0
M  V30 4106 H 386.838 -0.715742 5.29888 0
M  V30 4107 H 387.181 -1.61064 3.8388 0
M  V30 4108 H 387.714 0.0824916 3.97714 0
M  V30 4109 H 384.453 2.0728 6.21864 0
M  V30 4110 H 383.973 0.376058 5.9862 0
M  V30 4111 H 385.652 0.779281 6.4229 0
M  V30 4112 N 385.784 -1.5574 0.241426 0
M  V30 4113 C 387.03 -1.99846 -0.378555 0
M  V30 4114 C 387.385 -1.12665 -1.55963 0
M  V30 4115 O 386.678 -0.180966 -1.90743 0
M  V30 4116 C 386.872 -3.47308 -0.843317 0
M  V30 4117 C 386.701 -4.48756 0.291178 0
M  V30 4118 C 385.471 -4.9949 0.764077 0
M  V30 4119 C 387.669 -5.02039 1.11631 0
M  V30 4120 N 385.651 -5.84676 1.87156 0
M  V30 4121 C 387.022 -5.84343 2.07226 0
M  V30 4122 C 389.077 -4.84354 1.15349 0
M  V30 4123 C 387.78 -6.50851 3.06245 0
M  V30 4124 C 389.806 -5.51636 2.13195 0
M  V30 4125 C 389.168 -6.33724 3.07528 0
M  V30 4126 H 385.267 -0.774968 -0.104634 0
M  V30 4127 H 387.851 -1.91385 0.357751 0
M  V30 4128 H 386.022 -3.56178 -1.54893 0
M  V30 4129 H 387.754 -3.78299 -1.43779 0
M  V30 4130 H 384.509 -4.72311 0.349175 0
M  V30 4131 H 384.933 -6.31967 2.42789 0
M  V30 4132 H 389.575 -4.20525 0.438057 0
M  V30 4133 H 387.293 -7.1385 3.78739 0
M  V30 4134 H 390.879 -5.39909 2.16771 0
M  V30 4135 H 389.759 -6.84867 3.82003 0
M  V30 4136 N 387.262 0.0317525 -1.57568 0
M  V30 4137 C 388.511 0.722131 -1.8833 0
M  V30 4138 C 388.824 1.76664 -0.839587 0
M  V30 4139 O 390.03 2.50942 -1.03635 0
M  V30 4140 C 388.486 1.33544 -3.34207 0
M  V30 4141 C 388.094 0.327415 -4.46802 0
M  V30 4142 C 389.838 2.00585 -3.7412 0
M  V30 4143 C 387.745 0.948915 -5.83738 0
M  V30 4144 H 386.675 0.273466 -0.702661 0
M  V30 4145 H 389.326 -0.0235811 -1.83485 0
M  V30 4146 H 387.708 2.13077 -3.33788 0
M  V30 4147 H 388.882 -0.441006 -4.58685 0
M  V30 4148 H 387.197 -0.240758 -4.15703 0
M  V30 4149 H 389.794 2.47932 -4.73744 0
M  V30 4150 H 390.137 2.82285 -3.05975 0
M  V30 4151 H 390.67 1.27831 -3.76702 0
M  V30 4152 H 387.409 0.171387 -6.55276 0
M  V30 4153 H 386.929 1.68724 -5.7558 0
M  V30 4154 H 388.608 1.45705 -6.3038 0
M  V30 4155 N 388.74 1.54641 0.303973 0
M  V30 4156 C 389.688 1.86137 1.39484 0
M  V30 4157 C 390.682 0.734854 1.52631 0
M  V30 4158 O 391.888 0.918803 1.54784 0
M  V30 4159 H 388.263 0.590324 0.465856 0
M  V30 4160 H 390.234 2.77324 1.10154 0
M  V30 4161 C 388.983 2.12274 2.75382 0
M  V30 4162 H 388.306 2.98429 2.66046 0
M  V30 4163 H 389.746 2.38254 3.5073 0
M  V30 4164 C 388.205 0.920365 3.24085 0
M  V30 4165 O 388.735 0.139377 4.01458 0
M  V30 4166 N 386.941 0.726566 2.81371 0
M  V30 4167 H 386.488 1.36332 2.18567 0
M  V30 4168 H 386.446 -0.0763799 3.14307 0
M  V30 4169 N 390.218 -0.567019 1.47046 0
M  V30 4170 C 391.128 -1.70247 1.6141 0
M  V30 4171 C 392.144 -1.66746 0.497157 0
M  V30 4172 O 393.32 -1.86371 0.763389 0
M  V30 4173 C 390.385 -3.06756 1.61561 0
M  V30 4174 C 389.446 -3.21399 2.84607 0
M  V30 4175 C 388.679 -4.51396 2.84741 0
M  V30 4176 O 388.902 -5.36255 1.94388 0
M  V30 4177 O 387.836 -4.69621 3.76483 0
M  V30 4178 H 391.662 -1.61073 2.57467 0
M  V30 4179 H 389.247 -0.735894 1.30019 0
M  V30 4180 H 391.129 -3.8801 1.64396 0
M  V30 4181 H 389.804 -3.16333 0.686684 0
M  V30 4182 H 388.711 -2.39579 2.8732 0
M  V30 4183 H 390.044 -3.16721 3.76761 0
M  V30 4184 N 391.696 -1.35014 -0.812953 0
M  V30 4185 C 392.606 -1.2951 -1.95613 0
M  V30 4186 C 393.622 -0.20107 -1.72834 0
M  V30 4187 O 394.798 -0.42932 -1.96771 0
M  V30 4188 C 391.863 -1.06033 -3.30088 0
M  V30 4189 C 390.924 -2.24688 -3.65805 0
M  V30 4190 C 390.157 -2.02322 -4.93864 0
M  V30 4191 O 390.38 -0.986464 -5.61805 0
M  V30 4192 O 389.314 -2.89525 -5.27692 0
M  V30 4193 H 393.14 -2.25705 -2.03202 0
M  V30 4194 H 390.725 -1.15321 -0.949811 0
M  V30 4195 H 392.607 -0.94763 -4.10607 0
M  V30 4196 H 391.282 -0.128852 -3.23443 0
M  V30 4197 H 390.189 -2.41521 -2.85689 0
M  V30 4198 H 391.522 -3.16261 -3.77147 0
M  V30 4199 N 393.175 1.03435 -1.18907 0
M  V30 4200 C 394.452 1.73778 -0.89781 0
M  V30 4201 C 394.832 2.02458 0.597832 0
M  V30 4202 O 394.18 1.67482 1.55441 0
M  V30 4203 C 394.39 3.01845 -1.75187 0
M  V30 4204 C 395.738 3.7546 -1.9828 0
M  V30 4205 O 396.762 3.11759 -1.72293 0
M  V30 4206 O 395.621 4.89966 -2.42065 0
M  V30 4207 H 392.715 0.75651 -0.334098 0
M  V30 4208 H 395.261 1.09444 -1.29693 0
M  V30 4209 H 394.033 2.76836 -2.76545 0
M  V30 4210 H 393.656 3.73919 -1.35167 0
M  V30 4211 N 394.653 0.992116 1.22453 0
M  V30 4212 C 395.603 0.512969 2.22155 0
M  V30 4213 C 396.587 -0.418416 1.55364 0
M  V30 4214 O 397.779 -0.245363 1.75291 0
M  V30 4215 C 394.908 -0.171822 3.4287 0
M  V30 4216 C 393.994 0.779822 4.16869 0
M  V30 4217 N 394.385 1.92734 4.6764 0
M  V30 4218 C 392.683 0.59554 4.42006 0
M  V30 4219 C 393.384 2.52458 5.24061 0
M  V30 4220 N 392.36 1.80735 5.12675 0
M  V30 4221 H 396.162 1.38817 2.5905 0
M  V30 4222 H 393.676 0.854277 1.38115 0
M  V30 4223 H 395.673 -0.532469 4.13486 0
M  V30 4224 H 394.333 -1.04317 3.07487 0
M  V30 4225 H 395.344 2.30816 4.63621 0
M  V30 4226 H 392.021 -0.229805 4.16867 0
M  V30 4227 H 393.411 3.49433 5.73887 0
M  V30 4228 N 396.131 -1.37776 0.765217 0
M  V30 4229 C 397.359 -2.04124 0.337767 0
M  V30 4230 C 397.774 -1.57715 -1.03785 0
M  V30 4231 O 397.131 -0.755447 -1.6613 0
M  V30 4232 C 397.182 -3.59658 0.364442 0
M  V30 4233 O 396.903 -4.04367 1.68579 0
M  V30 4234 C 398.404 -4.43236 -0.0754221 0
M  V30 4235 H 395.624 -0.655696 0.142491 0
M  V30 4236 H 398.168 -1.76238 1.03732 0
M  V30 4237 H 396.323 -3.86339 -0.286471 0
M  V30 4238 H 396.737 -4.98857 1.61993 0
M  V30 4239 H 398.211 -5.52 -0.00560067 0
M  V30 4240 H 398.688 -4.2455 -1.12491 0
M  V30 4241 H 399.294 -4.21767 0.547055 0
M  V30 4242 N 397.609 -0.515225 -1.4894 0
M  V30 4243 C 399.025 -0.172099 -1.58669 0
M  V30 4244 C 399.225 1.32405 -1.51892 0
M  V30 4245 O 398.281 2.10116 -1.40027 0
M  V30 4246 C 399.594 -0.761533 -2.90897 0
M  V30 4247 C 401.142 -0.728926 -3.04394 0
M  V30 4248 C 401.617 -1.29667 -4.39261 0
M  V30 4249 N 403.108 -1.25799 -4.4579 0
M  V30 4250 C 403.843 -1.66733 -5.48623 0
M  V30 4251 N 403.339 -2.15327 -6.58488 0
M  V30 4252 N 405.132 -1.58061 -5.39419 0
M  V30 4253 H 397.283 -1.48778 -1.51588 0
M  V30 4254 H 399.546 -0.617968 -0.718901 0
M  V30 4255 H 399.252 -1.81136 -3.01468 0
M  V30 4256 H 399.126 -0.230106 -3.76497 0
M  V30 4257 H 401.513 0.312098 -2.93445 0
M  V30 4258 H 401.594 -1.29766 -2.20442 0
M  V30 4259 H 401.238 -2.33655 -4.50963 0
M  V30 4260 H 401.168 -0.703752 -5.21876 0
M  V30 4261 H 403.659 -0.902102 -3.66975 0
M  V30 4262 H 403.972 -2.44594 -7.33071 0
M  V30 4263 H 402.317 -2.19311 -6.59491 0
M  V30 4264 H 405.508 -1.19906 -4.52482 0
M  V30 4265 H 405.681 -1.90284 -6.19432 0
M  V30 4266 N 399.087 1.5561 -0.249682 0
M  V30 4267 C 400.333 1.99306 0.374841 0
M  V30 4268 C 400.666 1.13767 1.57387 0
M  V30 4269 O 399.941 0.201711 1.93451 0
M  V30 4270 C 400.224 3.51507 0.781986 0
M  V30 4271 C 400.077 4.4781 -0.422629 0
M  V30 4272 C 401.396 4.08884 1.62793 0
M  V30 4273 H 398.515 0.724572 0.134773 0
M  V30 4274 H 401.157 1.86719 -0.351549 0
M  V30 4275 H 399.307 3.62363 1.4009 0
M  V30 4276 H 400.979 4.48931 -1.06108 0
M  V30 4277 H 399.222 4.20518 -1.06524 0
M  V30 4278 H 399.893 5.51919 -0.0943766 0
M  V30 4279 H 402.369 4.01147 1.10547 0
M  V30 4280 H 401.245 5.1564 1.88166 0
M  V30 4281 H 401.506 3.57515 2.60068 0
M  V30 4282 N 400.565 -0.0233959 1.57583 0
M  V30 4283 C 401.814 -0.712133 1.8871 0
M  V30 4284 C 402.127 -1.76217 0.848944 0
M  V30 4285 O 403.333 -2.50389 1.04964 0
M  V30 4286 C 401.789 -1.3177 3.3491 0
M  V30 4287 C 401.397 -0.303715 4.46969 0
M  V30 4288 C 403.141 -1.98598 3.75179 0
M  V30 4289 C 401.048 -0.917945 5.84233 0
M  V30 4290 H 399.978 -0.269735 0.704101 0
M  V30 4291 H 402.629 0.0333114 1.8347 0
M  V30 4292 H 401.011 -2.11304 3.34913 0
M  V30 4293 H 402.185 0.465325 4.58445 0
M  V30 4294 H 400.5 0.2628 4.1557 0
M  V30 4295 H 403.097 -2.45416 4.75053 0
M  V30 4296 H 403.44 -2.80659 3.07468 0
M  V30 4297 H 403.973 -1.25831 3.77374 0
M  V30 4298 H 400.712 -0.136633 6.55358 0
M  V30 4299 H 400.232 -1.65669 5.76467 0
M  V30 4300 H 401.911 -1.4236 6.31144 0
M  V30 4301 N 402.043 -1.548 -0.295768 0
M  V30 4302 C 403.268 -1.78653 -1.05346 0
M  V30 4303 C 403.693 -0.546894 -1.79974 0
M  V30 4304 O 403.051 0.502763 -1.7419 0
M  V30 4305 C 403.099 -2.99679 -2.00561 0
M  V30 4306 O 402.203 -2.7317 -3.08953 0
M  V30 4307 H 401.544 -0.59116 -0.302367 0
M  V30 4308 H 404.074 -2.01895 -0.331598 0
M  V30 4309 H 404.084 -3.27793 -2.42932 0
M  V30 4310 H 402.759 -3.89562 -1.4565 0
M  V30 4311 H 401.336 -2.56089 -2.71059 0
M  V30 4312 N 403.521 0.559213 -1.47345 0
M  V30 4313 C 404.454 1.68201 -1.5422 0
M  V30 4314 C 405.432 1.57742 -0.394497 0
M  V30 4315 O 406.616 1.78628 -0.60201 0
M  V30 4316 C 403.743 3.0643 -1.44285 0
M  V30 4317 C 402.789 3.3534 -2.63532 0
M  V30 4318 S 403.622 3.24816 -4.25741 0
M  V30 4319 C 404.778 4.65542 -4.18355 0
M  V30 4320 H 405.011 1.62114 -2.49211 0
M  V30 4321 H 402.544 0.739871 -1.35519 0
M  V30 4322 H 404.502 3.86164 -1.3924 0
M  V30 4323 H 403.163 3.09984 -0.506816 0
M  V30 4324 H 402.356 4.36107 -2.52639 0
M  V30 4325 H 401.958 2.63221 -2.65689 0
M  V30 4326 H 404.25 5.56449 -3.86485 0
M  V30 4327 H 405.193 4.81493 -5.19202 0
M  V30 4328 H 405.601 4.43495 -3.49246 0
M  V30 4329 N 404.999 1.35443 0.805782 0
M  V30 4330 C 405.909 1.30546 1.94923 0
M  V30 4331 C 406.925 0.210233 1.72725 0
M  V30 4332 O 408.101 0.43975 1.9654 0
M  V30 4333 C 405.166 1.07782 3.29521 0
M  V30 4334 C 404.227 2.26625 3.64609 0
M  V30 4335 C 403.46 2.04938 4.92784 0
M  V30 4336 O 403.683 1.01624 5.61274 0
M  V30 4337 O 402.617 2.9232 5.26149 0
M  V30 4338 H 406.443 2.26779 2.02002 0
M  V30 4339 H 404.028 1.15823 0.943682 0
M  V30 4340 H 405.91 0.969392 4.10098 0
M  V30 4341 H 404.585 0.146003 3.23371 0
M  V30 4342 H 403.492 2.43033 2.84404 0
M  V30 4343 H 404.825 3.18257 3.75464 0
M  V30 4344 N 406.477 -1.02803 1.19454 0
M  V30 4345 C 407.424 -2.11099 0.933046 0
M  V30 4346 C 408.394 -1.65571 -0.132447 0
M  V30 4347 O 409.579 -1.90797 0.00987576 0
M  V30 4348 C 406.719 -3.41763 0.478747 0
M  V30 4349 C 405.832 -4.00833 1.6111 0
M  V30 4350 C 404.967 -5.19511 1.10825 0
M  V30 4351 C 404.006 -5.70639 2.21445 0
M  V30 4352 N 403.143 -6.80589 1.72461 0
M  V30 4353 H 407.983 -2.32804 1.86028 0
M  V30 4354 H 405.52 -1.14179 0.927441 0
M  V30 4355 H 407.478 -4.16736 0.196745 0
M  V30 4356 H 406.108 -3.20166 -0.411493 0
M  V30 4357 H 405.16 -3.23066 2.00829 0
M  V30 4358 H 406.472 -4.34794 2.4445 0
M  V30 4359 H 405.626 -6.01645 0.781533 0
M  V30 4360 H 404.365 -4.87086 0.244606 0
M  V30 4361 H 403.37 -4.87116 2.54947 0
M  V30 4362 H 404.595 -6.05102 3.08267 0
M  V30 4363 H 402.541 -6.50016 0.884056 0
M  V30 4364 H 402.458 -7.13681 2.49389 0
M  V30 4365 H 403.726 -7.66317 1.42755 0
M  V30 4366 N 407.956 -0.998596 -1.21925 0
M  V30 4367 C 409.204 -0.676325 -1.90448 0
M  V30 4368 C 409.525 0.794719 -1.78071 0
M  V30 4369 O 408.795 1.5701 -1.17152 0
M  V30 4370 H 407.375 -0.247165 -0.704925 0
M  V30 4371 H 410.037 -1.26633 -1.48156 0
M  V30 4372 H 409.133 -0.943858 -2.97486 0
M  V30 4373 N 409.434 1.37368 -0.772513 0
M  V30 4374 C 410.682 1.99279 -0.336516 0
M  V30 4375 C 411.003 1.6163 1.09091 0
M  V30 4376 O 410.273 0.882109 1.74916 0
M  V30 4377 H 408.853 0.737063 -0.121435 0
M  V30 4378 H 411.515 1.67836 -0.990809 0
M  V30 4379 H 410.611 3.09332 -0.414763 0
M  V30 4380 N 410.912 0.523116 1.48665 0
M  V30 4381 C 411.86 -0.256859 2.31177 0
M  V30 4382 C 412.854 -0.94199 1.40794 0
M  V30 4383 O 414.06 -0.867157 1.57735 0
M  V30 4384 H 410.435 -0.1017 0.745091 0
M  V30 4385 H 412.406 0.458739 2.94853 0
M  V30 4386 C 411.155 -1.29503 3.22683 0
M  V30 4387 H 410.478 -0.777248 3.92172 0
M  V30 4388 H 411.918 -1.81233 3.83315 0
M  V30 4389 C 410.377 -2.32501 2.43813 0
M  V30 4390 O 410.907 -3.3881 2.15803 0
M  V30 4391 N 409.113 -2.05538 2.05432 0
M  V30 4392 H 408.66 -1.19104 2.28412 0
M  V30 4393 H 408.618 -2.74676 1.52973 0
M  V30 4394 N 412.39 -1.55475 0.257931 0
M  V30 4395 C 413.323 -2.179 -0.677862 0
M  V30 4396 C 414.301 -1.13448 -1.16483 0
M  V30 4397 O 415.485 -1.41889 -1.24095 0
M  V30 4398 C 412.612 -2.78851 -1.92249 0
M  V30 4399 C 411.658 -3.96454 -1.57246 0
M  V30 4400 S 412.491 -5.31349 -0.665501 0
M  V30 4401 C 413.647 -5.9576 -1.91889 0
M  V30 4402 H 413.88 -2.96934 -0.147396 0
M  V30 4403 H 411.413 -1.54342 0.0423023 0
M  V30 4404 H 413.371 -3.14602 -2.63697 0
M  V30 4405 H 412.032 -1.99742 -2.42409 0
M  V30 4406 H 411.225 -4.37731 -2.49814 0
M  V30 4407 H 410.827 -3.62038 -0.938325 0
M  V30 4408 H 413.119 -6.13947 -2.86487 0
M  V30 4409 H 414.062 -6.9094 -1.54942 0
M  V30 4410 H 414.47 -5.2494 -2.076 0
M  V30 4411 N 413.868 0.0150385 -1.57593 0
M  V30 4412 C 414.815 1.01126 -2.07466 0
M  V30 4413 C 415.785 1.35064 -0.966794 0
M  V30 4414 O 416.97 1.4516 -1.23827 0
M  V30 4415 C 414.11 2.30276 -2.57035 0
M  V30 4416 C 413.223 2.02373 -3.81666 0
M  V30 4417 C 412.358 3.25496 -4.19793 0
M  V30 4418 C 411.397 2.93211 -5.37303 0
M  V30 4419 N 410.534 4.08826 -5.70794 0
M  V30 4420 H 415.374 0.57901 -2.92321 0
M  V30 4421 H 412.911 0.27426 -1.44521 0
M  V30 4422 H 414.869 3.05757 -2.83846 0
M  V30 4423 H 413.499 2.71197 -1.75077 0
M  V30 4424 H 412.551 1.17327 -3.61854 0
M  V30 4425 H 413.863 1.74567 -4.67256 0
M  V30 4426 H 413.017 4.09333 -4.47807 0
M  V30 4427 H 411.756 3.56428 -3.32882 0
M  V30 4428 H 410.761 2.07777 -5.09027 0
M  V30 4429 H 411.986 2.63542 -6.25877 0
M  V30 4430 H 409.932 4.39682 -4.86842 0
M  V30 4431 H 409.849 3.84491 -6.50924 0
M  V30 4432 H 411.117 4.93496 -6.03392 0
M  V30 4433 N 415.346 1.54954 0.287554 0
M  V30 4434 C 416.762 1.46469 0.633964 0
M  V30 4435 C 416.962 0.666865 1.90145 0
M  V30 4436 O 416.018 0.179906 2.51858 0
M  V30 4437 C 417.331 2.90556 0.774454 0
M  V30 4438 C 418.879 3.00681 0.869462 0
M  V30 4439 C 419.354 4.45993 1.04184 0
M  V30 4440 N 420.845 4.4976 1.10772 0
M  V30 4441 C 421.58 5.59393 1.25964 0
M  V30 4442 N 421.076 6.78923 1.37968 0
M  V30 4443 N 422.869 5.47107 1.28959 0
M  V30 4444 H 415.02 2.05288 -0.545041 0
M  V30 4445 H 417.283 0.930305 -0.182308 0
M  V30 4446 H 416.989 3.51594 -0.086207 0
M  V30 4447 H 416.863 3.38743 1.6593 0
M  V30 4448 H 419.25 2.39749 1.7206 0
M  V30 4449 H 419.331 2.55769 -0.0396831 0
M  V30 4450 H 418.975 5.07524 0.195422 0
M  V30 4451 H 418.905 4.88548 1.96542 0
M  V30 4452 H 421.396 3.63651 1.02794 0
M  V30 4453 H 421.709 7.58231 1.49353 0
M  V30 4454 H 420.054 6.81763 1.34999 0
M  V30 4455 H 423.245 4.52668 1.19202 0
M  V30 4456 H 423.418 6.32595 1.40455 0
M  V30 4457 N 416.824 -0.551391 1.4764 0
M  V30 4458 C 418.07 -1.31024 1.54792 0
M  V30 4459 C 418.403 -1.9304 0.211967 0
M  V30 4460 O 417.678 -1.78175 -0.77999 0
M  V30 4461 C 417.961 -2.41593 2.67029 0
M  V30 4462 C 417.814 -1.84408 4.10261 0
M  V30 4463 C 419.133 -3.43488 2.75143 0
M  V30 4464 H 416.252 -0.475031 0.563485 0
M  V30 4465 H 418.894 -0.616454 1.79722 0
M  V30 4466 H 417.044 -3.00772 2.45904 0
M  V30 4467 H 418.716 -1.29445 4.42766 0
M  V30 4468 H 416.959 -1.15051 4.18265 0
M  V30 4469 H 417.63 -2.64367 4.84576 0
M  V30 4470 H 420.106 -2.94236 2.94218 0
M  V30 4471 H 418.982 -4.18274 3.55441 0
M  V30 4472 H 419.243 -4.02703 1.82435 0
M  V30 4473 N 418.302 -1.35869 -0.798587 0
M  V30 4474 C 419.549 -1.29588 -1.55606 0
M  V30 4475 C 419.877 0.127456 -1.94082 0
M  V30 4476 O 419.132 1.09461 -1.62225 0
M  V30 4477 C 419.431 -2.1556 -2.85077 0
M  V30 4478 C 419.097 -3.6424 -2.65781 0
M  V30 4479 C 417.759 -4.04766 -2.60227 0
M  V30 4480 C 420.111 -4.58547 -2.47758 0
M  V30 4481 C 417.439 -5.37753 -2.34603 0
M  V30 4482 C 419.791 -5.91742 -2.23662 0
M  V30 4483 C 418.455 -6.31402 -2.16534 0
M  V30 4484 H 417.725 -0.474197 -0.569402 0
M  V30 4485 H 420.372 -1.67839 -0.922086 0
M  V30 4486 H 418.677 -1.70216 -3.52893 0
M  V30 4487 H 420.374 -2.08031 -3.42818 0
M  V30 4488 H 416.964 -3.32086 -2.70956 0
M  V30 4489 H 421.148 -4.28117 -2.51056 0
M  V30 4490 H 416.404 -5.67474 -2.2756 0
M  V30 4491 H 420.578 -6.6439 -2.08708 0
M  V30 4492 H 418.205 -7.34381 -1.96441 0
M  V30 4493 N 419.78 1.02168 -1.19998 0
M  V30 4494 C 420.69 2.14069 -0.959774 0
M  V30 4495 C 421.706 1.73804 0.082655 0
M  V30 4496 O 422.882 2.01133 -0.103633 0
M  V30 4497 C 419.947 3.42936 -0.509459 0
M  V30 4498 C 419.008 3.97474 -1.62213 0
M  V30 4499 C 418.241 5.2019 -1.19321 0
M  V30 4500 O 418.464 5.70369 -0.0597726 0
M  V30 4501 O 417.398 5.67749 -1.99863 0
M  V30 4502 H 421.224 2.37199 -1.89658 0
M  V30 4503 H 418.809 1.12469 -0.983411 0
M  V30 4504 H 420.691 4.20551 -0.267322 0
M  V30 4505 H 419.366 3.21234 0.398821 0
M  V30 4506 H 418.273 3.21161 -1.9185 0
M  V30 4507 H 419.606 4.23555 -2.50723 0
M  V30 4508 N 421.258 1.00505 1.21394 0
M  V30 4509 C 422.674 0.717873 1.42544 0
M  V30 4510 C 422.874 -0.706936 1.88692 0
M  V30 4511 O 421.93 -1.47627 2.04847 0
M  V30 4512 C 423.243 1.73377 2.45684 0
M  V30 4513 C 424.791 1.75059 2.59467 0
M  V30 4514 C 425.266 2.75545 3.6584 0
M  V30 4515 N 426.757 2.74213 3.73311 0
M  V30 4516 C 427.492 3.48626 4.55245 0
M  V30 4517 N 426.988 4.32678 5.41075 0
M  V30 4518 N 428.781 3.37276 4.49668 0
M  V30 4519 H 420.932 1.92506 0.897503 0
M  V30 4520 H 423.195 0.830919 0.456375 0
M  V30 4521 H 422.901 2.75395 2.18748 0
M  V30 4522 H 422.775 1.53647 3.44489 0
M  V30 4523 H 425.162 0.737337 2.8574 0
M  V30 4524 H 425.243 1.98861 1.60897 0
M  V30 4525 H 424.887 3.77028 3.40313 0
M  V30 4526 H 424.817 2.49009 4.64007 0
M  V30 4527 H 427.308 2.13234 3.11993 0
M  V30 4528 H 427.621 4.86253 6.00648 0
M  V30 4529 H 425.966 4.3676 5.40616 0
M  V30 4530 H 429.157 2.71043 3.81646 0
M  V30 4531 H 429.33 3.95524 5.13288 0
M  V30 4532 N 422.737 -1.36956 0.779787 0
M  V30 4533 C 423.984 -1.99491 0.347766 0
M  V30 4534 C 424.312 -1.61898 -1.07793 0
M  V30 4535 O 423.567 -0.86071 -1.75756 0
M  V30 4536 C 423.866 -3.54585 0.447686 0
M  V30 4537 C 423.532 -4.1197 1.83279 0
M  V30 4538 C 422.194 -4.27356 2.2118 0
M  V30 4539 C 424.546 -4.43354 2.74019 0
M  V30 4540 C 421.874 -4.71432 3.4924 0
M  V30 4541 C 424.226 -4.88858 4.01497 0
M  V30 4542 C 422.89 -5.0245 4.39432 0
M  V30 4543 H 422.16 -0.729991 0.127257 0
M  V30 4544 H 424.807 -1.63599 0.995376 0
M  V30 4545 H 423.112 -3.90773 -0.283447 0
M  V30 4546 H 424.809 -4.00888 0.0945948 0
M  V30 4547 H 421.399 -4.00428 1.52825 0
M  V30 4548 H 425.583 -4.31045 2.45995 0
M  V30 4549 H 420.839 -4.80141 3.78516 0
M  V30 4550 H 425.013 -5.12108 4.71931 0
M  V30 4551 H 422.64 -5.36362 5.38721 0
M  V30 4552 N 424.215 -0.530993 -1.48385 0
M  V30 4553 C 425.455 0.000718982 -2.044 0
M  V30 4554 C 425.819 1.31485 -1.39913 0
M  V30 4555 O 427.02 1.93265 -1.86821 0
M  V30 4556 C 425.291 0.119177 -3.57201 0
M  V30 4557 S 426.85 0.600806 -4.34667 0
M  V30 4558 H 423.668 -0.0125473 -0.710889 0
M  V30 4559 H 426.27 -0.711783 -1.82082 0
M  V30 4560 H 424.974 -0.842061 -4.01668 0
M  V30 4561 H 424.505 0.856026 -3.83974 0
M  V30 4562 H 426.52 1.86514 -4.59812 0
M  V30 4563 N 425.693 1.55336 -0.266172 0
M  V30 4564 C 427.109 1.59356 0.0882065 0
M  V30 4565 C 427.309 1.2834 1.55342 0
M  V30 4566 O 426.365 1.03996 2.30089 0
M  V30 4567 C 427.678 2.99409 -0.278364 0
M  V30 4568 C 429.226 3.12196 -0.224243 0
M  V30 4569 C 429.701 4.545 -0.565123 0
M  V30 4570 N 431.192 4.60313 -0.51634 0
M  V30 4571 C 431.927 5.68434 -0.753013 0
M  V30 4572 N 431.423 6.84738 -1.05383 0
M  V30 4573 N 433.216 5.57942 -0.682414 0
M  V30 4574 H 425.367 1.73764 -1.22147 0
M  V30 4575 H 427.63 0.809822 -0.492841 0
M  V30 4576 H 427.336 3.2691 -1.29703 0
M  V30 4577 H 427.21 3.75228 0.385186 0
M  V30 4578 H 429.597 2.84464 0.78512 0
M  V30 4579 H 429.678 2.38609 -0.921922 0
M  V30 4580 H 429.322 4.82956 -1.57213 0
M  V30 4581 H 429.252 5.26374 0.154248 0
M  V30 4582 H 431.743 3.7676 -0.29335 0
M  V30 4583 H 432.056 7.63088 -1.22133 0
M  V30 4584 H 430.401 6.86375 -1.09151 0
M  V30 4585 H 433.592 4.65958 -0.44731 0
M  V30 4586 H 433.765 6.4213 -0.870248 0
M  V30 4587 N 427.171 -0.0066808 1.57599 0
M  V30 4588 C 428.419 -0.691552 1.899 0
M  V30 4589 C 428.74 -1.74682 0.866672 0
M  V30 4590 O 428.01 -1.95661 -0.0968189 0
M  V30 4591 H 426.59 -0.258416 0.700878 0
M  V30 4592 H 429.252 0.0326655 1.94873 0
M  V30 4593 H 428.348 -1.16702 2.8946 0
M  V30 4594 N 428.649 -1.55105 -0.279332 0
M  V30 4595 C 429.579 -1.90557 -1.34945 0
M  V30 4596 C 430.56 -0.766738 -1.51839 0
M  V30 4597 O 431.745 -1.02434 -1.64988 0
M  V30 4598 C 428.875 -2.17193 -2.71006 0
M  V30 4599 C 427.829 -3.33021 -2.68851 0
M  V30 4600 C 427.155 -3.45123 -4.08405 0
M  V30 4601 C 428.455 -4.69578 -2.28678 0
M  V30 4602 H 430.149 -2.80188 -1.05522 0
M  V30 4603 H 427.695 -1.34811 -0.506173 0
M  V30 4604 H 429.648 -2.40581 -3.45975 0
M  V30 4605 H 428.372 -1.24355 -3.01999 0
M  V30 4606 H 427.031 -3.0959 -1.9634 0
M  V30 4607 H 426.679 -2.49762 -4.3661 0
M  V30 4608 H 426.379 -4.22995 -4.07859 0
M  V30 4609 H 427.903 -3.70796 -4.85121 0
M  V30 4610 H 429.317 -4.92553 -2.93368 0
M  V30 4611 H 427.714 -5.5032 -2.39306 0
M  V30 4612 H 428.784 -4.68828 -1.23807 0
M  V30 4613 N 430.127 0.543554 -1.4793 0
M  V30 4614 C 431.074 1.64942 -1.6144 0
M  V30 4615 C 432.044 1.59692 -0.456903 0
M  V30 4616 O 433.229 1.78321 -0.678688 0
M  V30 4617 C 430.369 3.03238 -1.64744 0
M  V30 4618 C 429.482 3.18823 -2.91506 0
M  V30 4619 C 428.617 4.47599 -2.86057 0
M  V30 4620 C 427.656 4.56664 -4.07584 0
M  V30 4621 N 426.793 5.76811 -4.00292 0
M  V30 4622 H 431.633 1.52733 -2.55884 0
M  V30 4623 H 429.17 0.7438 -1.2691 0
M  V30 4624 H 431.128 3.83339 -1.64641 0
M  V30 4625 H 429.758 3.1425 -0.738017 0
M  V30 4626 H 428.81 2.32064 -3.01414 0
M  V30 4627 H 430.122 3.21384 -3.81463 0
M  V30 4628 H 429.276 5.35975 -2.84281 0
M  V30 4629 H 428.015 4.47538 -1.93807 0
M  V30 4630 H 427.02 3.66697 -4.09651 0
M  V30 4631 H 428.245 4.58474 -5.00978 0
M  V30 4632 H 426.191 5.77673 -3.10853 0
M  V30 4633 H 426.108 5.80808 -4.8394 0
M  V30 4634 H 427.376 6.67512 -4.02553 0
M  V30 4635 N 431.605 1.3629 0.791371 0
M  V30 4636 C 432.515 1.32606 1.93527 0
M  V30 4637 C 433.531 0.228541 1.72493 0
M  V30 4638 O 434.707 0.460571 1.96063 0
M  V30 4639 C 431.772 1.11271 3.28359 0
M  V30 4640 C 430.833 2.3048 3.62185 0
M  V30 4641 C 430.066 2.10154 4.90583 0
M  V30 4642 O 430.289 1.07572 5.60165 0
M  V30 4643 O 429.223 2.97884 5.23019 0
M  V30 4644 H 433.049 2.28909 1.99585 0
M  V30 4645 H 430.634 1.16818 0.931344 0
M  V30 4646 H 432.516 1.01283 4.09047 0
M  V30 4647 H 431.191 0.180292 3.23198 0
M  V30 4648 H 430.098 2.46036 2.81811 0
M  V30 4649 H 431.431 3.22221 3.72068 0
M  V30 4650 N 433.083 -1.0153 1.20538 0
M  V30 4651 C 434.329 -1.75408 1.01783 0
M  V30 4652 C 434.662 -1.88943 -0.448814 0
M  V30 4653 O 433.937 -1.4162 -1.33319 0
M  V30 4654 C 434.22 -3.17255 1.70356 0
M  V30 4655 C 434.073 -3.11508 3.24473 0
M  V30 4656 C 435.392 -4.15955 1.43769 0
M  V30 4657 H 432.511 -0.636713 0.371167 0
M  V30 4658 H 435.153 -1.18436 1.4857 0
M  V30 4659 H 433.303 -3.65898 1.30578 0
M  V30 4660 H 434.975 -2.70658 3.73553 0
M  V30 4661 H 433.218 -2.4887 3.55311 0
M  V30 4662 H 433.889 -4.11784 3.67611 0
M  V30 4663 H 436.365 -3.75973 1.7828 0
M  V30 4664 H 435.241 -5.13368 1.94279 0
M  V30 4665 H 435.502 -4.40586 0.365564 0
M  V30 4666 N 434.561 -1.01147 -1.20859 0
M  V30 4667 C 435.471 -0.58686 -2.27141 0
M  V30 4668 C 436.487 0.373198 -1.69951 0
M  V30 4669 O 437.663 0.235423 -2.00019 0
M  V30 4670 C 434.728 0.0733602 -3.46622 0
M  V30 4671 C 433.789 -0.931995 -4.19061 0
M  V30 4672 C 433.022 -0.303186 -5.32838 0
M  V30 4673 O 433.245 0.898395 -5.63281 0
M  V30 4674 O 432.179 -1.01735 -5.9324 0
M  V30 4675 H 436.005 -1.47155 -2.65667 0
M  V30 4676 H 433.59 -0.780689 -1.2738 0
M  V30 4677 H 435.472 0.442333 -4.19072 0
M  V30 4678 H 434.147 0.932329 -3.09983 0
M  V30 4679 H 433.054 -1.35224 -3.48805 0
M  V30 4680 H 434.387 -1.76076 -4.59628 0
M  V30 4681 N 436.039 1.36541 -0.78704 0
M  V30 4682 C 437.455 1.52571 -0.46844 0
M  V30 4683 C 437.655 1.7415 1.01361 0
M  V30 4684 O 436.711 1.77163 1.79915 0
M  V30 4685 C 438.024 2.71299 -1.29682 0
M  V30 4686 C 439.572 2.85169 -1.29027 0
M  V30 4687 C 440.047 4.06898 -2.10233 0
M  V30 4688 N 441.538 4.1404 -2.07666 0
M  V30 4689 C 442.273 5.07301 -2.67271 0
M  V30 4690 N 441.769 6.06021 -3.35724 0
M  V30 4691 N 443.562 4.99898 -2.57018 0
M  V30 4692 H 435.713 1.20788 -1.74711 0
M  V30 4693 H 437.976 0.589364 -0.742532 0
M  V30 4694 H 437.682 2.61868 -2.34773 0
M  V30 4695 H 437.556 3.6539 -0.936479 0
M  V30 4696 H 439.943 2.94062 -0.247284 0
M  V30 4697 H 440.024 1.91992 -1.69035 0
M  V30 4698 H 439.668 3.98766 -3.1456 0
M  V30 4699 H 439.598 4.99218 -1.67597 0
M  V30 4700 H 442.089 3.43357 -1.57843 0
M  V30 4701 H 442.402 6.73741 -3.78541 0
M  V30 4702 H 440.747 6.06253 -3.39826 0
M  V30 4703 H 443.938 4.21724 -2.03142 0
M  V30 4704 H 444.111 5.72392 -3.03761 0
M  V30 4705 N 437.518 0.538854 1.48102 0
M  V30 4706 C 438.448 -0.207654 2.32575 0
M  V30 4707 C 439.429 -0.926559 1.4265 0
M  V30 4708 O 440.614 -0.91061 1.71527 0
M  V30 4709 C 437.744 -1.24957 3.24042 0
M  V30 4710 C 436.698 -0.648263 4.23062 0
M  V30 4711 C 436.024 -1.79348 5.03725 0
M  V30 4712 C 437.324 0.385897 5.20872 0
M  V30 4713 H 439.018 0.497534 2.95237 0
M  V30 4714 H 436.564 0.240715 1.41974 0
M  V30 4715 H 438.517 -1.77983 3.81969 0
M  V30 4716 H 437.241 -1.98446 2.59397 0
M  V30 4717 H 435.9 -0.139452 3.66335 0
M  V30 4718 H 435.548 -2.51696 4.35498 0
M  V30 4719 H 435.248 -1.39702 5.70751 0
M  V30 4720 H 436.772 -2.32735 5.64506 0
M  V30 4721 H 438.186 -0.057607 5.73271 0
M  V30 4722 H 436.583 0.700227 5.96001 0
M  V30 4723 H 437.653 1.28848 4.67468 0
M  V30 4724 N 438.996 -1.55193 0.274407 0
M  V30 4725 C 440.245 -1.98758 -0.343213 0
M  V30 4726 C 440.558 -1.16624 -1.5703 0
M  V30 4727 O 441.764 -1.5033 -2.26082 0
M  V30 4728 C 440.22 -3.53759 -0.661996 0
M  V30 4729 C 439.828 -4.4467 0.54524 0
M  V30 4730 C 441.572 -4.05916 -1.24228 0
M  V30 4731 C 439.479 -5.91058 0.201084 0
M  V30 4732 H 438.409 -0.742353 -0.132014 0
M  V30 4733 H 441.06 -1.79545 0.378948 0
M  V30 4734 H 439.442 -3.68772 -1.44304 0
M  V30 4735 H 440.616 -4.41426 1.32212 0
M  V30 4736 H 438.931 -4.03143 1.04232 0
M  V30 4737 H 441.528 -5.12831 -1.51357 0
M  V30 4738 H 441.871 -3.54908 -2.17592 0
M  V30 4739 H 442.404 -3.9434 -0.523542 0
M  V30 4740 H 439.143 -6.46161 1.10258 0
M  V30 4741 H 438.663 -5.97373 -0.539045 0
M  V30 4742 H 440.342 -6.46669 -0.206954 0
M  V30 4743 N 440.474 -0.00167713 -1.576 0
M  V30 4744 C 441.406 1.0174 -2.05382 0
M  V30 4745 C 442.419 1.30595 -0.972052 0
M  V30 4746 O 443.608 1.27542 -1.24882 0
M  V30 4747 C 440.708 2.35174 -2.44022 0
M  V30 4748 C 439.881 2.25234 -3.74951 0
M  V30 4749 C 438.94 3.4137 -4.00441 0
M  V30 4750 O 437.966 3.19483 -4.71083 0
M  V30 4751 N 439.168 4.64275 -3.48467 0
M  V30 4752 H 441.933 0.609902 -2.93428 0
M  V30 4753 H 439.494 0.185672 -1.60832 0
M  V30 4754 H 441.486 3.11643 -2.58187 0
M  V30 4755 H 440.056 2.67659 -1.61485 0
M  V30 4756 H 439.276 1.33664 -3.70847 0
M  V30 4757 H 440.564 2.15767 -4.60784 0
M  V30 4758 H 439.962 4.84955 -2.91264 0
M  V30 4759 H 438.519 5.38005 -3.67959 0
M  V30 4760 N 441.952 1.55251 0.271103 0
M  V30 4761 C 442.862 1.9136 1.35714 0
M  V30 4762 C 443.878 0.811075 1.5394 0
M  V30 4763 O 445.054 1.11031 1.6803 0
M  V30 4764 C 442.119 2.1798 2.69603 0
M  V30 4765 C 441.18 3.4153 2.60107 0
M  V30 4766 C 440.413 3.66871 3.8761 0
M  V30 4767 O 440.636 2.94689 4.8838 0
M  V30 4768 O 439.57 4.60405 3.87699 0
M  V30 4769 H 443.396 2.83815 1.08088 0
M  V30 4770 H 440.981 1.41821 0.469792 0
M  V30 4771 H 442.863 2.36518 3.48765 0
M  V30 4772 H 441.538 1.28708 2.97012 0
M  V30 4773 H 440.445 3.28325 1.79314 0
M  V30 4774 H 441.778 4.31027 2.37647 0
M  V30 4775 N 443.43 -0.535701 1.48216 0
M  V30 4776 C 444.846 -0.863701 1.3421 0
M  V30 4777 C 445.046 -1.98458 0.34879 0
M  V30 4778 O 444.102 -2.51432 -0.23204 0
M  V30 4779 C 445.415 -1.23662 2.74095 0
M  V30 4780 C 446.963 -1.34683 2.82541 0
M  V30 4781 C 447.438 -1.75322 4.23115 0
M  V30 4782 N 448.929 -1.82434 4.2576 0
M  V30 4783 C 449.664 -2.15252 5.31464 0
M  V30 4784 N 449.16 -2.46533 6.47452 0
M  V30 4785 N 450.953 -2.16209 5.18855 0
M  V30 4786 H 443.104 0.203965 2.11418 0
M  V30 4787 H 445.367 0.0286033 0.947568 0
M  V30 4788 H 445.073 -0.486674 3.48316 0
M  V30 4789 H 444.947 -2.18805 3.07253 0
M  V30 4790 H 447.334 -2.08756 2.08579 0
M  V30 4791 H 447.415 -0.376756 2.5301 0
M  V30 4792 H 447.059 -1.01812 4.97591 0
M  V30 4793 H 446.989 -2.7337 4.50085 0
M  V30 4794 H 449.48 -1.6056 3.42095 0
M  V30 4795 H 449.793 -2.70662 7.23852 0
M  V30 4796 H 448.138 -2.44065 6.50736 0
M  V30 4797 H 451.329 -1.91224 4.2726 0
M  V30 4798 H 451.502 -2.41453 6.01335 0
M  V30 4799 N 444.908 -1.36708 -0.784132 0
M  V30 4800 C 446.156 -1.30972 -1.53918 0
M  V30 4801 C 446.477 0.109086 -1.94695 0
M  V30 4802 O 445.747 1.05048 -1.65353 0
M  V30 4803 H 444.327 -0.481819 -0.570841 0
M  V30 4804 H 446.989 -1.71063 -0.934002 0
M  V30 4805 H 446.085 -1.94061 -2.44431 0
M  V30 4806 N 446.386 1.0089 -1.21074 0
M  V30 4807 C 447.632 1.7497 -1.03717 0
M  V30 4808 C 447.987 1.8764 0.425344 0
M  V30 4809 O 447.28 1.39679 1.3115 0
M  V30 4810 C 447.474 3.16335 -1.66334 0
M  V30 4811 C 447.303 3.17449 -3.18522 0
M  V30 4812 C 446.073 3.2425 -3.87543 0
M  V30 4813 C 448.271 3.02877 -4.15656 0
M  V30 4814 N 446.253 3.14949 -5.26954 0
M  V30 4815 C 447.624 3.0143 -5.41793 0
M  V30 4816 C 449.679 2.8715 -4.06755 0
M  V30 4817 C 448.382 2.85869 -6.60054 0
M  V30 4818 C 450.408 2.72944 -5.24648 0
M  V30 4819 C 449.77 2.72171 -6.49694 0
M  V30 4820 H 445.869 0.650627 -0.43383 0
M  V30 4821 H 448.453 1.19944 -1.53367 0
M  V30 4822 H 446.624 3.69638 -1.19256 0
M  V30 4823 H 448.356 3.78888 -1.42219 0
M  V30 4824 H 445.111 3.31288 -3.38446 0
M  V30 4825 H 445.535 3.13651 -5.9996 0
M  V30 4826 H 450.177 2.86557 -3.10878 0
M  V30 4827 H 447.895 2.8521 -7.56096 0
M  V30 4828 H 451.481 2.61782 -5.19578 0
M  V30 4829 H 450.361 2.61307 -7.39384 0
M  V30 4830 N 447.864 1.01787 1.20321 0
M  V30 4831 C 448.774 0.598898 2.26827 0
M  V30 4832 C 449.79 -0.36418 1.70146 0
M  V30 4833 O 450.966 -0.224812 2.00141 0
M  V30 4834 C 448.031 -0.0549769 3.46656 0
M  V30 4835 C 447.092 0.954205 4.18561 0
M  V30 4836 C 446.325 0.331439 5.3267 0
M  V30 4837 O 446.548 -0.86851 5.63749 0
M  V30 4838 O 445.482 1.0488 5.92692 0
M  V30 4839 H 449.308 1.48562 2.64883 0
M  V30 4840 H 446.893 0.787434 1.26964 0
M  V30 4841 H 448.775 -0.420102 4.19301 0
M  V30 4842 H 447.45 -0.915876 3.10473 0
M  V30 4843 H 446.357 1.37072 3.48083 0
M  V30 4844 H 447.69 1.78511 4.58688 0
M  V30 4845 N 449.342 -1.36122 0.79427 0
M  V30 4846 C 450.589 -1.99111 0.368905 0
M  V30 4847 C 450.917 -1.63032 -1.0607 0
M  V30 4848 O 450.172 -0.879303 -1.74833 0
M  V30 4849 C 450.471 -3.5409 0.48527 0
M  V30 4850 C 450.137 -4.10003 1.87638 0
M  V30 4851 C 448.799 -4.24986 2.257 0
M  V30 4852 C 451.151 -4.40423 2.78706 0
M  V30 4853 C 448.479 -4.67701 3.54221 0
M  V30 4854 C 450.831 -4.84573 4.0666 0
M  V30 4855 C 449.495 -4.97761 4.44737 0
M  V30 4856 H 448.765 -0.7286 0.134992 0
M  V30 4857 H 451.412 -1.62534 1.01267 0
M  V30 4858 H 449.717 -3.91052 -0.241984 0
M  V30 4859 H 451.414 -4.00766 0.137109 0
M  V30 4860 H 448.004 -3.98784 1.57064 0
M  V30 4861 H 452.188 -4.28412 2.50553 0
M  V30 4862 H 447.444 -4.761 3.83587 0
M  V30 4863 H 451.618 -5.07074 4.77336 0
M  V30 4864 H 449.245 -5.30618 5.44379 0
M  V30 4865 N 450.82 -0.546701 -1.47814 0
M  V30 4866 C 451.753 0.254472 -2.26777 0
M  V30 4867 C 452.731 0.929809 -1.33392 0
M  V30 4868 O 453.915 0.950889 -1.62759 0
M  V30 4869 C 451.042 1.36171 -3.10121 0
M  V30 4870 C 450.088 0.796038 -4.19005 0
M  V30 4871 S 450.921 -0.349191 -5.3436 0
M  V30 4872 C 452.077 0.760122 -6.21267 0
M  V30 4873 H 452.31 -0.415612 -2.94381 0
M  V30 4874 H 449.843 -0.332809 -1.5077 0
M  V30 4875 H 451.801 1.99588 -3.58713 0
M  V30 4876 H 450.462 2.00359 -2.41899 0
M  V30 4877 H 449.655 1.62719 -4.7701 0
M  V30 4878 H 449.257 0.238246 -3.7324 0
M  V30 4879 H 451.549 1.65479 -6.5698 0
M  V30 4880 H 452.492 0.217673 -7.07765 0
M  V30 4881 H 452.9 1.04806 -5.54685 0
M  V30 4882 N 452.299 1.55045 -0.282633 0
M  V30 4883 C 453.545 2.0078 0.325436 0
M  V30 4884 C 453.9 1.1676 1.52921 0
M  V30 4885 O 453.193 0.231475 1.90197 0
M  V30 4886 C 453.387 3.49422 0.750938 0
M  V30 4887 C 453.216 4.47827 -0.410056 0
M  V30 4888 C 451.986 4.97288 -0.896239 0
M  V30 4889 C 454.184 4.98903 -1.24902 0
M  V30 4890 N 452.166 5.79508 -2.02591 0
M  V30 4891 C 453.537 5.78644 -2.22646 0
M  V30 4892 C 455.592 4.81126 -1.2815 0
M  V30 4893 C 454.295 6.42502 -3.23393 0
M  V30 4894 C 456.321 5.45789 -2.27745 0
M  V30 4895 C 455.683 6.25348 -3.24222 0
M  V30 4896 H 451.782 0.77747 0.08405 0
M  V30 4897 H 454.366 1.90369 -0.408368 0
M  V30 4898 H 452.537 3.60159 1.45395 0
M  V30 4899 H 454.269 3.81978 1.33698 0
M  V30 4900 H 451.024 4.71219 -0.474277 0
M  V30 4901 H 451.448 6.25308 -2.59459 0
M  V30 4902 H 456.09 4.19215 -0.549397 0
M  V30 4903 H 453.808 7.03558 -3.97533 0
M  V30 4904 H 457.394 5.33972 -2.31009 0
M  V30 4905 H 456.274 6.74498 -4.00027 0
M  V30 4906 N 453.777 0.010035 1.57597 0
M  V30 4907 C 454.725 -0.996272 2.10184 0
M  V30 4908 C 455.719 -1.34942 1.02406 0
M  V30 4909 O 456.925 -1.33389 1.20861 0
M  V30 4910 H 453.3 -0.338982 0.671264 0
M  V30 4911 H 455.271 -0.527272 2.93705 0
M  V30 4912 C 454.02 -2.27599 2.62857 0
M  V30 4913 H 453.343 -2.01295 3.45428 0
M  V30 4914 H 454.783 -2.96265 3.0332 0
M  V30 4915 C 453.242 -2.99269 1.54725 0
M  V30 4916 O 453.772 -3.90644 0.93597 0
M  V30 4917 N 451.978 -2.61269 1.27228 0
M  V30 4918 H 451.525 -1.87043 1.77123 0
M  V30 4919 H 451.483 -3.09534 0.550999 0
M  V30 4920 N 455.255 -1.55392 -0.262866 0
M  V30 4921 C 456.165 -1.92077 -1.34698 0
M  V30 4922 C 457.181 -0.819227 -1.53508 0
M  V30 4923 O 458.357 -1.11921 -1.67439 0
M  V30 4924 C 455.422 -2.19407 -2.68443 0
M  V30 4925 C 454.483 -3.42905 -2.58292 0
M  V30 4926 C 453.716 -3.68921 -3.85659 0
M  V30 4927 O 453.939 -2.97275 -4.8681 0
M  V30 4928 O 452.873 -4.62455 -3.85252 0
M  V30 4929 H 456.699 -2.84384 -1.06581 0
M  V30 4930 H 454.284 -1.42069 -0.462264 0
M  V30 4931 H 456.166 -2.38365 -3.47506 0
M  V30 4932 H 454.841 -1.30282 -2.96325 0
M  V30 4933 H 453.748 -3.29272 -1.7757 0
M  V30 4934 H 455.081 -4.32282 -2.35358 0
M  V30 4935 N 456.733 0.527833 -1.48498 0
M  V30 4936 C 458.149 0.856571 -1.34666 0
M  V30 4937 C 458.349 1.98271 -0.35931 0
M  V30 4938 O 457.405 2.51551 0.218703 0
M  V30 4939 C 458.718 1.22207 -2.74747 0
M  V30 4940 C 460.266 1.33183 -2.83251 0
M  V30 4941 C 460.741 1.73075 -4.24039 0
M  V30 4942 N 462.232 1.80174 -4.26722 0
M  V30 4943 C 462.967 2.1243 -5.32598 0
M  V30 4944 N 462.463 2.43096 -6.4875 0
M  V30 4945 N 464.256 2.13454 -5.19994 0
M  V30 4946 H 456.407 -0.215174 -2.11307 0
M  V30 4947 H 458.67 -0.0336281 -0.947403 0
M  V30 4948 H 458.376 0.468195 -3.4857 0
M  V30 4949 H 458.25 2.17173 -3.08409 0
M  V30 4950 H 460.637 2.07647 -2.09683 0
M  V30 4951 H 460.718 0.363333 -2.53206 0
M  V30 4952 H 460.362 0.991712 -4.98124 0
M  V30 4953 H 460.292 2.70979 -4.51529 0
M  V30 4954 H 462.783 1.58744 -3.42942 0
M  V30 4955 H 463.096 2.6682 -7.25277 0
M  V30 4956 H 461.441 2.40611 -6.52021 0
M  V30 4957 H 464.632 1.88956 -4.28268 0
M  V30 4958 H 464.805 2.38261 -6.02608 0
M  V30 4959 N 458.211 1.37122 0.776871 0
M  V30 4960 C 459.141 1.35164 1.90402 0
M  V30 4961 C 460.122 0.221069 1.68657 0
M  V30 4962 O 461.307 0.420642 1.8959 0
M  V30 4963 C 458.437 1.15274 3.27611 0
M  V30 4964 C 457.391 2.25289 3.63908 0
M  V30 4965 C 456.717 1.90527 4.99603 0
M  V30 4966 C 458.017 3.67446 3.71188 0
M  V30 4967 H 459.711 2.29482 1.92297 0
M  V30 4968 H 457.257 1.10465 0.923773 0
M  V30 4969 H 459.21 1.12536 4.06096 0
M  V30 4970 H 457.934 0.174102 3.26136 0
M  V30 4971 H 456.593 2.27174 2.87728 0
M  V30 4972 H 456.241 0.91206 4.94662 0
M  V30 4973 H 455.941 2.64193 5.24858 0
M  V30 4974 H 457.465 1.89367 5.80493 0
M  V30 4975 H 458.879 3.67719 4.39836 0
M  V30 4976 H 457.276 4.40123 4.07936 0
M  V30 4977 H 458.346 4.01443 2.71977 0
M  V30 4978 N 459.689 -1.00246 1.21608 0
M  V30 4979 C 460.937 -1.73717 1.0328 0
M  V30 4980 C 461.258 -1.90102 -0.434318 0
M  V30 4981 O 460.528 -1.45376 -1.31311 0
M  V30 4982 H 459.108 -0.643613 0.379172 0
M  V30 4983 H 461.77 -1.20787 1.52959 0
M  V30 4984 H 460.866 -2.73535 1.50283 0
M  V30 4985 N 461.167 -1.02423 -1.1978 0
M  V30 4986 C 462.397 -0.736387 -1.93031 0
M  V30 4987 C 462.805 0.708023 -1.75453 0
M  V30 4988 O 462.148 1.4927 -1.07071 0
M  V30 4989 C 462.21 -1.00194 -3.45255 0
M  V30 4990 C 461.874 -2.43698 -3.86601 0
M  V30 4991 C 462.871 -3.41814 -3.91738 0
M  V30 4992 C 460.556 -2.77975 -4.18372 0
M  V30 4993 C 462.55 -4.72265 -4.28071 0
M  V30 4994 C 460.237 -4.08636 -4.54378 0
M  V30 4995 C 461.235 -5.05592 -4.59201 0
M  V30 4996 O 460.923 -6.33914 -4.94376 0
M  V30 4997 H 460.655 -0.269116 -0.620123 0
M  V30 4998 H 463.209 -1.37043 -1.52998 0
M  V30 4999 H 461.439 -0.310747 -3.85449 0
M  V30 5000 H 463.128 -0.704488 -3.9974 0
M  V30 5001 H 463.894 -3.16671 -3.67348 0
M  V30 5002 H 459.773 -2.0319 -4.13805 0
M  V30 5003 H 463.317 -5.4794 -4.3175 0
M  V30 5004 H 459.214 -4.33556 -4.78226 0
M  V30 5005 H 459.982 -6.38317 -5.12341 0
M  V30 5006 N 462.645 1.35699 -0.801477 0
M  V30 5007 C 463.894 1.98165 -0.375979 0
M  V30 5008 C 464.207 1.64306 1.06127 0
M  V30 5009 O 465.413 2.20097 1.58964 0
M  V30 5010 C 463.869 3.54497 -0.621305 0
M  V30 5011 C 463.477 3.9727 -2.07076 0
M  V30 5012 C 465.221 4.23697 -0.26091 0
M  V30 5013 C 463.128 5.46427 -2.26211 0
M  V30 5014 H 462.058 0.741478 -0.136844 0
M  V30 5015 H 464.709 1.54834 -0.984814 0
M  V30 5016 H 463.091 3.95958 0.0574112 0
M  V30 5017 H 464.265 3.66974 -2.78687 0
M  V30 5018 H 462.58 3.40943 -2.39054 0
M  V30 5019 H 465.177 5.33334 -0.381994 0
M  V30 5020 H 465.52 4.0869 0.792344 0
M  V30 5021 H 466.053 3.87639 -0.893339 0
M  V30 5022 H 462.792 5.66396 -3.29963 0
M  V30 5023 H 462.312 5.78309 -1.59119 0
M  V30 5024 H 463.991 6.12819 -2.07513 0
M  V30 5025 N 464.123 0.554532 1.47522 0
M  V30 5026 C 465.053 -0.182974 2.32782 0
M  V30 5027 C 466.034 -0.911377 1.43624 0
M  V30 5028 O 467.219 -0.892366 1.72483 0
M  V30 5029 C 464.349 -1.21513 3.25349 0
M  V30 5030 C 463.303 -0.603355 4.23726 0
M  V30 5031 C 462.629 -1.73995 5.05598 0
M  V30 5032 C 463.929 0.441121 5.20434 0
M  V30 5033 H 465.623 0.52882 2.94693 0
M  V30 5034 H 463.169 0.255759 1.41711 0
M  V30 5035 H 465.122 -1.73922 3.83835 0
M  V30 5036 H 463.846 -1.95683 2.61487 0
M  V30 5037 H 462.505 -0.10059 3.66462 0
M  V30 5038 H 462.153 -2.47063 4.38143 0
M  V30 5039 H 461.853 -1.3364 5.72201 0
M  V30 5040 H 463.377 -2.26735 5.66942 0
M  V30 5041 H 464.791 0.00319931 5.733 0
M  V30 5042 H 463.188 0.763402 5.95224 0
M  V30 5043 H 464.258 1.33799 4.66075 0
M  V30 5044 N 465.601 -1.54893 0.290851 0
M  V30 5045 C 466.829 -2.04343 -0.324288 0
M  V30 5046 C 467.244 -1.16859 -1.48289 0
M  V30 5047 O 466.601 -0.192018 -1.81487 0
M  V30 5048 C 466.652 -3.52756 -0.79026 0
M  V30 5049 O 466.373 -4.36913 0.322213 0
M  V30 5050 C 467.874 -4.18161 -1.4716 0
M  V30 5051 H 465.094 -0.667135 -0.0719173 0
M  V30 5052 H 467.638 -1.99981 0.427529 0
M  V30 5053 H 465.793 -3.57511 -1.49213 0
M  V30 5054 H 466.207 -5.24486 -0.0387372 0
M  V30 5055 H 467.681 -5.23562 -1.7489 0
M  V30 5056 H 468.158 -3.67282 -2.40834 0
M  V30 5057 H 468.764 -4.17454 -0.813178 0
M  V30 5058 N 467.08 -0.0183926 -1.57589 0
M  V30 5059 C 468.32 0.666846 -1.93216 0
M  V30 5060 C 468.684 1.69905 -0.894215 0
M  V30 5061 O 469.885 2.436 -1.13633 0
M  V30 5062 C 468.156 1.27684 -3.33814 0
M  V30 5063 S 469.715 1.98464 -3.91353 0
M  V30 5064 H 466.533 0.219826 -0.676164 0
M  V30 5065 H 469.135 -0.0794893 -1.95338 0
M  V30 5066 H 467.839 0.513006 -4.07181 0
M  V30 5067 H 467.37 2.06071 -3.3511 0
M  V30 5068 H 469.385 3.26189 -3.73918 0
M  V30 5069 N 468.558 1.5553 0.254621 0
M  V30 5070 C 469.969 1.67518 0.824286 0
M  V30 5071 C 470.32 0.614429 1.86331 0
M  V30 5072 O 469.445 -0.240736 2.15057 0
M  V30 5073 C 470.04 3.03692 1.50189 0
M  V30 5074 C 468.599 3.17646 2.01935 0
M  V30 5075 C 467.746 2.63373 0.867746 0
M  V30 5076 H 470.697 1.58671 0.0305843 0
M  V30 5077 H 470.718 2.97706 2.36962 0
M  V30 5078 H 470.23 3.80874 0.745431 0
M  V30 5079 H 468.331 2.45273 2.80485 0
M  V30 5080 H 468.444 4.24455 2.22204 0
M  V30 5081 H 466.808 2.20999 1.26616 0
M  V30 5082 H 467.591 3.43074 0.124498 0
M  V30 5083 N 470.036 -0.519951 1.48776 0
M  V30 5084 C 471.261 -1.30447 1.6124 0
M  V30 5085 C 471.686 -1.86055 0.276591 0
M  V30 5086 O 471.044 -1.64915 -0.753183 0
M  V30 5087 C 471.092 -2.42406 2.66967 0
M  V30 5088 O 470.196 -3.45728 2.24824 0
M  V30 5089 H 469.537 -0.385924 0.540332 0
M  V30 5090 H 472.067 -0.624572 1.94834 0
M  V30 5091 H 472.077 -2.88447 2.88552 0
M  V30 5092 H 470.752 -2.01294 3.63941 0
M  V30 5093 H 469.329 -3.05737 2.13494 0
M  V30 5094 N 471.514 -1.37532 -0.769588 0
M  V30 5095 C 472.462 -1.33561 -1.90432 0
M  V30 5096 C 473.456 -0.224027 -1.67912 0
M  V30 5097 O 474.662 -0.392174 -1.75676 0
M  V30 5098 H 471.037 -0.416279 -0.626271 0
M  V30 5099 H 473.008 -2.29348 -1.90899 0
M  V30 5100 C 471.757 -1.16162 -3.27722 0
M  V30 5101 H 471.08 -2.00951 -3.45628 0
M  V30 5102 H 472.52 -1.17434 -4.07413 0
M  V30 5103 C 470.979 0.132583 -3.36639 0
M  V30 5104 O 471.509 1.11539 -3.85904 0
M  V30 5105 N 469.715 0.184013 -2.90017 0
M  V30 5106 H 469.262 -0.616415 -2.50116 0
M  V30 5107 H 469.22 1.04956 -2.96364 0
M  V30 5108 N 472.992 0.995999 -1.22138 0
M  V30 5109 C 473.922 2.10387 -1.01289 0
M  V30 5110 C 474.903 1.69975 0.0651454 0
M  V30 5111 O 476.088 1.9396 -0.0964628 0
M  V30 5112 C 473.218 3.42312 -0.586517 0
M  V30 5113 C 472.172 3.96558 -1.61014 0
M  V30 5114 C 471.498 5.24494 -1.0397 0
M  V30 5115 C 472.798 4.27595 -2.99933 0
M  V30 5116 H 474.492 2.28086 -1.93951 0
M  V30 5117 H 472.038 1.09607 -0.933928 0
M  V30 5118 H 473.991 4.19223 -0.427793 0
M  V30 5119 H 472.715 3.24431 0.375761 0
M  V30 5120 H 471.374 3.21776 -1.75658 0
M  V30 5121 H 471.022 5.02953 -0.0688703 0
M  V30 5122 H 470.722 5.61755 -1.72352 0
M  V30 5123 H 472.246 6.04042 -0.892494 0
M  V30 5124 H 473.66 4.95315 -2.8868 0
M  V30 5125 H 472.057 4.76021 -3.6541 0
M  V30 5126 H 473.127 3.35498 -3.50099 0
M  V30 5127 N 474.47 1.03057 1.19235 0
M  V30 5128 C 475.718 0.726581 1.88587 0
M  V30 5129 C 476.039 -0.747227 1.80115 0
M  V30 5130 O 475.309 -1.53849 1.21274 0
M  V30 5131 H 473.889 0.265768 0.698124 0
M  V30 5132 H 476.551 1.30516 1.44746 0
M  V30 5133 H 475.647 1.0224 2.94879 0
M  V30 5134 N 475.948 -1.35272 0.808662 0
M  V30 5135 C 477.176 -2.02946 0.402537 0
M  V30 5136 C 477.591 -1.60937 -0.987147 0
M  V30 5137 O 476.948 -0.807917 -1.63643 0
M  V30 5138 C 476.999 -3.58317 0.47868 0
M  V30 5139 O 476.72 -3.98799 1.81358 0
M  V30 5140 C 478.221 -4.43251 0.0656281 0
M  V30 5141 H 475.441 -0.650831 0.163279 0
M  V30 5142 H 477.985 -1.72849 1.09286 0
M  V30 5143 H 476.14 -3.87055 -0.163415 0
M  V30 5144 H 476.554 -4.93451 1.77781 0
M  V30 5145 H 478.028 -5.51738 0.170017 0
M  V30 5146 H 478.505 -4.27913 -0.989278 0
M  V30 5147 H 479.111 -4.19813 0.68096 0
M  V30 5148 N 477.426 -0.562348 -1.47226 0
M  V30 5149 C 478.674 -0.0401371 -2.0206 0
M  V30 5150 C 478.995 1.3165 -1.43852 0
M  V30 5151 O 478.265 1.85976 -0.615599 0
M  V30 5152 H 476.845 -0.0118479 -0.746906 0
M  V30 5153 H 479.507 -0.73352 -1.8057 0
M  V30 5154 H 478.603 0.0441254 -3.12069 0
M  V30 5155 N 478.904 1.54736 -0.299062 0
M  V30 5156 C 479.834 2.26409 0.571085 0
M  V30 5157 C 480.815 1.2629 1.13951 0
M  V30 5158 O 482 1.55059 1.16921 0
M  V30 5159 C 479.13 3.00338 1.74396 0
M  V30 5160 C 478.084 4.07588 1.30599 0
M  V30 5161 C 477.41 4.69222 2.56387 0
M  V30 5162 C 478.71 5.20455 0.438645 0
M  V30 5163 H 480.404 2.99388 -0.0266991 0
M  V30 5164 H 477.95 1.43993 -0.0142812 0
M  V30 5165 H 479.903 3.49198 2.35878 0
M  V30 5166 H 478.627 2.24934 2.36796 0
M  V30 5167 H 477.286 3.59575 0.71424 0
M  V30 5168 H 476.934 3.9046 3.17097 0
M  V30 5169 H 476.634 5.41653 2.27784 0
M  V30 5170 H 478.158 5.20844 3.18675 0
M  V30 5171 H 479.572 5.65221 0.959085 0
M  V30 5172 H 477.969 5.99594 0.246466 0
M  V30 5173 H 479.039 4.8192 -0.536738 0
M  V30 5174 N 480.382 0.0267497 1.57577 0
M  V30 5175 C 481.798 -0.32962 1.56159 0
M  V30 5176 C 481.998 -1.73059 1.03213 0
M  V30 5177 O 481.054 -2.43233 0.677804 0
M  V30 5178 C 482.367 -0.18039 3.00158 0
M  V30 5179 C 483.915 -0.253334 3.11973 0
M  V30 5180 C 484.39 -0.132921 4.57807 0
M  V30 5181 N 485.881 -0.189979 4.6281 0
M  V30 5182 C 486.616 -0.120554 5.73273 0
M  V30 5183 N 486.112 -0.000180315 6.928 0
M  V30 5184 N 487.905 -0.174369 5.61829 0
M  V30 5185 H 480.056 0.942896 1.90324 0
M  V30 5186 H 482.319 0.3639 0.875375 0
M  V30 5187 H 482.025 0.784576 3.42837 0
M  V30 5188 H 481.899 -0.951565 3.65 0
M  V30 5189 H 484.286 -1.20876 2.69208 0
M  V30 5190 H 484.367 0.548177 2.49857 0
M  V30 5191 H 484.011 0.819073 5.01252 0
M  V30 5192 H 483.941 -0.953264 5.179 0
M  V30 5193 H 486.432 -0.283257 3.76837 0
M  V30 5194 H 486.745 0.0461666 7.72786 0
M  V30 5195 H 485.09 0.034569 6.94991 0
M  V30 5196 H 488.281 -0.266794 4.67339 0
M  V30 5197 H 488.454 -0.116802 6.47895 0
M  V30 5198 N 481.861 -1.55662 -0.24637 0
M  V30 5199 C 482.824 -1.89558 -1.28842 0
M  V30 5200 C 483.824 -0.772082 -1.41052 0
M  V30 5201 O 485.014 -1.04007 -1.39743 0
M  V30 5202 C 482.146 -2.12449 -2.66605 0
M  V30 5203 H 483.339 -2.82735 -1.00004 0
M  V30 5204 H 480.892 -1.48562 -0.485684 0
M  V30 5205 H 481.627 -1.21742 -3.00582 0
M  V30 5206 H 481.412 -2.94273 -2.59125 0
M  V30 5207 H 482.902 -2.39854 -3.41847 0
M  V30 5208 N 483.339 0.512053 -1.4905 0
M  V30 5209 C 484.587 1.26436 -1.57665 0
M  V30 5210 C 484.908 1.93255 -0.260293 0
M  V30 5211 O 484.178 1.82206 0.719564 0
M  V30 5212 H 482.758 0.469658 -0.580888 0
M  V30 5213 H 485.42 0.594398 -1.85615 0
M  V30 5214 H 484.516 2.03417 -2.36702 0
M  V30 5215 N 484.817 1.37938 0.762283 0
M  V30 5216 C 486.063 1.33866 1.52341 0
M  V30 5217 C 486.396 -0.0738961 1.94059 0
M  V30 5218 O 485.671 -1.03326 1.64785 0
M  V30 5219 C 485.954 2.28644 2.78197 0
M  V30 5220 C 485.807 3.78722 2.42672 0
M  V30 5221 C 487.126 2.21702 3.80179 0
M  V30 5222 H 484.245 0.487593 0.55265 0
M  V30 5223 H 486.887 1.68717 0.873767 0
M  V30 5224 H 485.037 1.99055 3.33631 0
M  V30 5225 H 486.709 4.18948 1.93081 0
M  V30 5226 H 484.952 3.96827 1.75244 0
M  V30 5227 H 485.623 4.40486 3.3268 0
M  V30 5228 H 488.099 2.47805 3.34263 0
M  V30 5229 H 486.975 2.90143 4.65949 0
M  V30 5230 H 487.236 1.21301 4.25133 0
M  V30 5231 N 486.295 -0.989507 1.22664 0
M  V30 5232 C 487.245 -2.06478 0.967005 0
M  V30 5233 C 488.229 -1.60682 -0.0836374 0
M  V30 5234 O 489.421 -1.76541 0.127322 0
M  V30 5235 C 486.55 -3.38861 0.550313 0
M  V30 5236 C 485.636 -3.9128 1.63587 0
M  V30 5237 N 486.027 -4.16884 2.86429 0
M  V30 5238 C 484.325 -4.1972 1.50834 0
M  V30 5239 C 485.026 -4.5954 3.56648 0
M  V30 5240 N 484.002 -4.63434 2.84131 0
M  V30 5241 H 487.804 -2.24219 1.90008 0
M  V30 5242 H 485.318 -1.17153 1.12467 0
M  V30 5243 H 487.315 -4.15465 0.345612 0
M  V30 5244 H 485.975 -3.22518 -0.375822 0
M  V30 5245 H 486.986 -4.04976 3.22823 0
M  V30 5246 H 483.663 -4.1243 0.648643 0
M  V30 5247 H 485.053 -4.87944 4.61909 0
M  V30 5248 N 487.773 -1.03688 -1.18687 0
M  V30 5249 C 489.019 -0.739123 -1.88851 0
M  V30 5250 C 489.352 0.731042 -1.79915 0
M  V30 5251 O 488.627 1.53313 -1.19688 0
M  V30 5252 C 488.91 -1.20106 -3.3948 0
M  V30 5253 C 488.763 -2.73304 -3.57246 0
M  V30 5254 C 490.082 -0.788134 -4.32986 0
M  V30 5255 H 487.201 -0.269978 -0.68577 0
M  V30 5256 H 489.843 -1.28822 -1.3966 0
M  V30 5257 H 487.993 -0.733915 -3.81505 0
M  V30 5258 H 489.665 -3.28027 -3.24339 0
M  V30 5259 H 487.908 -3.13313 -3.00029 0
M  V30 5260 H 488.579 -3.00684 -4.62918 0
M  V30 5261 H 491.055 -1.19005 -3.98719 0
M  V30 5262 H 489.931 -1.13915 -5.36949 0
M  V30 5263 H 490.192 0.308988 -4.41019 0
M  V30 5264 N 489.251 1.34841 -0.815825 0
M  V30 5265 C 490.667 1.51543 -0.500697 0
M  V30 5266 C 490.867 1.76261 0.976444 0
M  V30 5267 O 489.923 1.8094 1.76117 0
M  V30 5268 C 491.236 2.68487 -1.35407 0
M  V30 5269 C 492.784 2.82368 -1.35046 0
M  V30 5270 C 493.259 4.02347 -2.18816 0
M  V30 5271 N 494.75 4.09542 -2.16402 0
M  V30 5272 C 495.485 5.01517 -2.77971 0
M  V30 5273 N 494.981 5.98763 -3.48503 0
M  V30 5274 N 496.774 4.94334 -2.67563 0
M  V30 5275 H 488.925 1.17055 -1.77234 0
M  V30 5276 H 491.188 0.573481 -0.754866 0
M  V30 5277 H 490.894 2.56829 -2.40274 0
M  V30 5278 H 490.768 3.63321 -1.01377 0
M  V30 5279 H 493.155 2.93471 -0.309604 0
M  V30 5280 H 493.236 1.88363 -1.73069 0
M  V30 5281 H 492.88 3.92004 -3.22948 0
M  V30 5282 H 492.81 4.95551 -1.78148 0
M  V30 5283 H 495.301 3.39932 -1.65091 0
M  V30 5284 H 495.614 6.6556 -3.92747 0
M  V30 5285 H 493.959 5.98909 -3.52609 0
M  V30 5286 H 497.15 4.1732 -2.12041 0
M  V30 5287 H 497.323 5.6582 -3.15834 0
M  V30 5288 N 490.729 0.570148 1.46925 0
M  V30 5289 C 491.978 0.0487352 2.01641 0
M  V30 5290 C 492.291 -1.31433 1.44861 0
M  V30 5291 O 493.497 -1.92638 1.91318 0
M  V30 5292 C 491.953 0.0365817 3.59881 0
M  V30 5293 C 491.561 1.39719 4.25655 0
M  V30 5294 C 493.305 -0.431545 4.22301 0
M  V30 5295 C 491.212 1.34345 5.75939 0
M  V30 5296 H 490.142 0.0144492 0.753862 0
M  V30 5297 H 492.793 0.719928 1.68788 0
M  V30 5298 H 491.175 -0.700522 3.89755 0
M  V30 5299 H 492.349 2.15303 4.07408 0
M  V30 5300 H 490.664 1.80431 3.75278 0
M  V30 5301 H 493.261 -0.490354 5.32447 0
M  V30 5302 H 493.604 -1.44638 3.90366 0
M  V30 5303 H 494.137 0.251102 3.97007 0
M  V30 5304 H 490.876 2.33469 6.12513 0
M  V30 5305 H 490.396 0.629615 5.96486 0
M  V30 5306 H 492.075 1.051 6.38407 0
M  V30 5307 N 492.207 -1.54576 0.307264 0
M  V30 5308 C 493.618 -1.8579 -0.184121 0
M  V30 5309 C 493.969 -1.22914 -1.52927 0
M  V30 5310 O 493.094 -0.529126 -2.09831 0
M  V30 5311 C 493.689 -3.37081 -0.340862 0
M  V30 5312 C 492.248 -3.68304 -0.776465 0
M  V30 5313 C 491.395 -2.77076 0.111503 0
M  V30 5314 H 494.346 -1.49656 0.528078 0
M  V30 5315 H 494.367 -3.61922 -1.17443 0
M  V30 5316 H 493.879 -3.82815 0.638309 0
M  V30 5317 H 491.98 -3.28092 -1.76596 0
M  V30 5318 H 492.093 -4.75434 -0.591512 0
M  V30 5319 H 490.457 -2.51374 -0.410256 0
M  V30 5320 H 491.24 -3.25632 1.08714 0
M  V30 5321 N 493.685 -0.035106 -1.57561 0
M  V30 5322 C 494.632 0.94474 -2.10578 0
M  V30 5323 C 495.602 1.3192 -1.00927 0
M  V30 5324 O 496.787 1.41147 -1.28382 0
M  V30 5325 C 493.927 2.21982 -2.64231 0
M  V30 5326 C 493.04 1.90128 -3.87911 0
M  V30 5327 C 492.175 3.11975 -4.29936 0
M  V30 5328 C 491.214 2.75968 -5.46359 0
M  V30 5329 N 490.351 3.90459 -5.83512 0
M  V30 5330 H 495.191 0.485717 -2.94015 0
M  V30 5331 H 492.728 0.228143 -1.4532 0
M  V30 5332 H 494.686 2.96572 -2.9343 0
M  V30 5333 H 493.316 2.6549 -1.83616 0
M  V30 5334 H 492.368 1.05755 -3.65404 0
M  V30 5335 H 493.68 1.59613 -4.72573 0
M  V30 5336 H 492.834 3.9488 -4.60603 0
M  V30 5337 H 491.573 3.45657 -3.44053 0
M  V30 5338 H 490.578 1.91478 -5.1538 0
M  V30 5339 H 491.803 2.43497 -6.33945 0
M  V30 5340 H 489.749 4.23971 -5.00584 0
M  V30 5341 H 489.666 3.63588 -6.62827 0
M  V30 5342 H 490.934 4.7405 -6.18787 0
M  V30 5343 N 495.163 1.55791 0.238111 0
M  V30 5344 C 496.093 1.94068 1.29846 0
M  V30 5345 C 497.074 0.806726 1.49753 0
M  V30 5346 O 498.259 1.06772 1.62214 0
M  V30 5347 C 495.389 2.24302 2.65153 0
M  V30 5348 C 494.343 3.40032 2.59927 0
M  V30 5349 C 493.669 3.55829 3.99111 0
M  V30 5350 C 494.969 4.75476 2.16148 0
M  V30 5351 H 496.663 2.82887 0.980563 0
M  V30 5352 H 494.209 1.36105 0.470253 0
M  V30 5353 H 496.162 2.4967 3.39475 0
M  V30 5354 H 494.886 1.32318 2.98596 0
M  V30 5355 H 493.545 3.14687 1.88063 0
M  V30 5356 H 493.193 2.6125 4.29834 0
M  V30 5357 H 492.893 4.3366 3.96501 0
M  V30 5358 H 494.417 3.83528 4.7512 0
M  V30 5359 H 495.831 5.00158 2.80205 0
M  V30 5360 H 494.228 5.56472 2.24631 0
M  V30 5361 H 495.298 4.71946 1.11333 0
M  V30 5362 N 496.642 -0.504142 1.49319 0
M  V30 5363 C 497.867 -1.28729 1.62615 0
M  V30 5364 C 498.292 -1.85752 0.296309 0
M  V30 5365 O 497.65 -1.65704 -0.735649 0
M  V30 5366 C 497.698 -2.39561 2.69524 0
M  V30 5367 O 496.802 -3.43324 2.28478 0
M  V30 5368 H 496.143 -0.380172 0.544395 0
M  V30 5369 H 498.673 -0.603872 1.95485 0
M  V30 5370 H 498.683 -2.8537 2.91595 0
M  V30 5371 H 497.358 -1.97423 3.66056 0
M  V30 5372 H 495.935 -3.03455 2.16725 0
M  V30 5373 N 498.12 -1.38341 -0.754957 0
M  V30 5374 C 499.067 -1.3546 -1.86867 0
M  V30 5375 C 500.037 -0.217369 -1.64672 0
M  V30 5376 O 501.222 -0.409383 -1.86356 0
M  V30 5377 C 498.362 -1.18413 -3.24149 0
M  V30 5378 C 497.475 -2.41511 -3.58185 0
M  V30 5379 C 496.61 -2.17205 -4.84763 0
M  V30 5380 C 495.649 -3.36081 -5.11582 0
M  V30 5381 N 494.786 -3.11219 -6.29354 0
M  V30 5382 H 499.626 -2.30672 -1.88664 0
M  V30 5383 H 497.163 -1.14607 -0.922154 0
M  V30 5384 H 499.121 -1.06545 -4.03366 0
M  V30 5385 H 497.751 -0.268397 -3.21682 0
M  V30 5386 H 496.803 -2.64056 -2.73822 0
M  V30 5387 H 498.115 -3.30115 -3.73932 0
M  V30 5388 H 497.269 -2.02465 -5.7192 0
M  V30 5389 H 496.008 -1.25964 -4.71152 0
M  V30 5390 H 495.013 -3.51341 -4.22894 0
M  V30 5391 H 496.238 -4.28196 -5.27091 0
M  V30 5392 H 494.184 -2.22624 -6.17069 0
M  V30 5393 H 494.101 -3.93373 -6.45596 0
M  V30 5394 H 495.369 -3.00132 -7.19403 0
M  V30 5395 N 499.598 0.982988 -1.23187 0
M  V30 5396 C 500.875 1.69814 -0.970707 0
M  V30 5397 C 501.255 2.04811 0.511424 0
M  V30 5398 O 500.603 1.73924 1.48198 0
M  V30 5399 C 500.813 2.94143 -1.87831 0
M  V30 5400 C 502.161 3.66712 -2.14026 0
M  V30 5401 O 503.185 3.04171 -1.8536 0
M  V30 5402 O 502.044 4.79258 -2.62629 0
M  V30 5403 H 499.138 0.741659 -0.365884 0
M  V30 5404 H 501.684 1.03844 -1.34218 0
M  V30 5405 H 500.456 2.64858 -2.88038 0
M  V30 5406 H 500.079 3.6785 -1.50905 0
M  V30 5407 N 501.076 1.04316 1.18135 0
M  V30 5408 C 502.487 0.775505 1.69832 0
M  V30 5409 C 502.838 -0.703348 1.8316 0
M  V30 5410 O 501.963 -1.54729 1.51287 0
M  V30 5411 C 502.558 1.40112 3.0847 0
M  V30 5412 C 501.117 1.18172 3.57368 0
M  V30 5413 C 500.264 1.49022 2.33854 0
M  V30 5414 H 503.215 1.20925 1.02775 0
M  V30 5415 H 503.236 0.805672 3.71873 0
M  V30 5416 H 502.748 2.47744 2.98738 0
M  V30 5417 H 500.849 0.124258 3.72393 0
M  V30 5418 H 500.962 1.8805 4.40652 0
M  V30 5419 H 499.326 0.909995 2.37889 0
M  V30 5420 H 500.109 2.57768 2.26738 0
M  V30 5421 N 502.554 -1.34406 0.822964 0
M  V30 5422 C 503.97 -1.51275 0.508727 0
M  V30 5423 C 504.17 -1.76776 -0.967083 0
M  V30 5424 O 503.226 -1.81871 -1.75155 0
M  V30 5425 C 504.539 -2.67765 1.36829 0
M  V30 5426 C 506.087 -2.81647 1.36542 0
M  V30 5427 C 506.562 -4.01181 2.20947 0
M  V30 5428 N 508.053 -4.08388 2.18571 0
M  V30 5429 C 508.788 -5.00036 2.80627 0
M  V30 5430 N 508.284 -5.96906 3.51674 0
M  V30 5431 N 510.077 -4.92908 2.70181 0
M  V30 5432 H 502.228 -1.16113 1.77852 0
M  V30 5433 H 504.491 -0.56947 0.757897 0
M  V30 5434 H 504.197 -2.55551 2.41633 0
M  V30 5435 H 504.071 -3.62779 1.03303 0
M  V30 5436 H 506.458 -2.93303 0.325163 0
M  V30 5437 H 506.539 -1.87443 1.74066 0
M  V30 5438 H 506.183 -3.90286 3.25022 0
M  V30 5439 H 506.113 -4.94599 1.80774 0
M  V30 5440 H 508.604 -3.39051 1.66891 0
M  V30 5441 H 508.917 -6.63468 3.96271 0
M  V30 5442 H 507.262 -5.9703 3.5578 0
M  V30 5443 H 510.453 -4.1619 2.14251 0
M  V30 5444 H 510.626 -5.64137 3.18831 0
M  V30 5445 N 504.032 -0.577932 -1.46621 0
M  V30 5446 C 505.279 -0.0616879 -2.02406 0
M  V30 5447 C 505.607 1.29638 -1.44997 0
M  V30 5448 O 504.862 1.86176 -0.60308 0
M  V30 5449 C 505.161 0.0590832 -3.57351 0
M  V30 5450 C 504.827 -1.23077 -4.33777 0
M  V30 5451 C 503.489 -1.58416 -4.54376 0
M  V30 5452 C 505.841 -2.08457 -4.77698 0
M  V30 5453 C 503.169 -2.78943 -5.16147 0
M  V30 5454 C 505.521 -3.28204 -5.408 0
M  V30 5455 C 504.185 -3.63832 -5.59627 0
M  V30 5456 H 503.455 -0.0225732 -0.740656 0
M  V30 5457 H 506.102 -0.753609 -1.76048 0
M  V30 5458 H 504.407 0.834104 -3.82818 0
M  V30 5459 H 506.104 0.474202 -3.98186 0
M  V30 5460 H 502.694 -0.945652 -4.18038 0
M  V30 5461 H 506.878 -1.82459 -4.61544 0
M  V30 5462 H 502.134 -3.06689 -5.28916 0
M  V30 5463 H 506.308 -3.94634 -5.73792 0
M  V30 5464 H 503.935 -4.57315 -6.07262 0
M  V30 5465 N 505.51 1.54411 -0.315457 0
M  V30 5466 C 506.735 2.05299 0.294496 0
M  V30 5467 C 507.16 1.19052 1.4563 0
M  V30 5468 O 506.518 0.197804 1.80218 0
M  V30 5469 C 506.566 3.5345 0.714549 0
M  V30 5470 O 505.67 3.70175 1.81781 0
M  V30 5471 H 505.011 0.661743 0.0547019 0
M  V30 5472 H 507.541 1.99327 -0.461508 0
M  V30 5473 H 507.551 3.9557 0.999426 0
M  V30 5474 H 506.226 4.1568 -0.135244 0
M  V30 5475 H 504.803 3.3996 1.53236 0
M  V30 5476 N 506.988 0.0434614 1.5754 0
M  V30 5477 C 507.935 -0.93356 2.11077 0
M  V30 5478 C 508.905 -1.31383 1.01626 0
M  V30 5479 O 510.09 -1.40465 1.29129 0
M  V30 5480 C 507.23 -2.20578 2.65404 0
M  V30 5481 C 506.343 -1.88068 3.88914 0
M  V30 5482 C 505.478 -3.09691 4.31584 0
M  V30 5483 C 504.517 -2.73067 5.47815 0
M  V30 5484 N 503.654 -3.87359 5.85574 0
M  V30 5485 H 508.494 -0.470118 2.94268 0
M  V30 5486 H 506.031 -0.220434 1.45439 0
M  V30 5487 H 507.989 -2.95011 2.94999 0
M  V30 5488 H 506.619 -2.64513 1.85021 0
M  V30 5489 H 505.671 -1.03816 3.6596 0
M  V30 5490 H 506.983 -1.57104 4.73413 0
M  V30 5491 H 506.137 -3.92431 4.62691 0
M  V30 5492 H 504.876 -3.43827 3.45882 0
M  V30 5493 H 503.881 -1.88742 5.16388 0
M  V30 5494 H 505.106 -2.40131 6.35227 0
M  V30 5495 H 503.052 -4.21311 5.02825 0
M  V30 5496 H 502.969 -3.60068 6.64746 0
M  V30 5497 H 504.237 -4.70761 6.21292 0
M  V30 5498 N 508.466 -1.55915 -0.229846 0
M  V30 5499 C 509.715 -1.77742 -0.953455 0
M  V30 5500 C 510.028 -0.610524 -1.85828 0
M  V30 5501 O 511.234 -0.712219 -2.61992 0
M  V30 5502 C 509.69 -3.14738 -1.74551 0
M  V30 5503 C 509.298 -4.39126 -0.887242 0
M  V30 5504 C 511.042 -3.45895 -2.46084 0
M  V30 5505 C 508.949 -5.67149 -1.67617 0
M  V30 5506 H 507.879 -0.662648 -0.359741 0
M  V30 5507 H 510.53 -1.82322 -0.207576 0
M  V30 5508 H 508.912 -3.04311 -2.53399 0
M  V30 5509 H 510.086 -4.60588 -0.139892 0
M  V30 5510 H 508.401 -4.15427 -0.284443 0
M  V30 5511 H 510.998 -4.38767 -3.05594 0
M  V30 5512 H 511.341 -2.68007 -3.18556 0
M  V30 5513 H 511.874 -3.57614 -1.74233 0
M  V30 5514 H 508.613 -6.47906 -0.994881 0
M  V30 5515 H 508.133 -5.49763 -2.39836 0
M  V30 5516 H 509.812 -6.07025 -2.23898 0
M  V30 5517 N 509.944 0.496216 -1.49584 0
M  V30 5518 C 510.874 1.60576 -1.69521 0
M  V30 5519 C 511.855 1.61169 -0.543933 0
M  V30 5520 O 513.04 1.77834 -0.78031 0
M  V30 5521 C 510.17 2.99038 -1.76616 0
M  V30 5522 C 509.124 3.13312 -2.91581 0
M  V30 5523 C 508.45 4.53172 -2.83794 0
M  V30 5524 C 509.75 2.92886 -4.32452 0
M  V30 5525 H 511.444 1.44146 -2.62416 0
M  V30 5526 H 508.99 0.692024 -1.26282 0
M  V30 5527 H 510.943 3.76564 -1.8915 0
M  V30 5528 H 509.667 3.16568 -0.80324 0
M  V30 5529 H 508.326 2.38213 -2.78658 0
M  V30 5530 H 507.974 4.67585 -1.854 0
M  V30 5531 H 507.674 4.63662 -3.60958 0
M  V30 5532 H 509.198 5.32752 -2.98342 0
M  V30 5533 H 510.612 3.60178 -4.46032 0
M  V30 5534 H 509.009 3.14844 -5.10875 0
M  V30 5535 H 510.079 1.88966 -4.46565 0
M  V30 5536 N 511.423 1.38739 0.74761 0
M  V30 5537 C 512.333 1.38696 1.89211 0
M  V30 5538 C 513.349 0.283303 1.71678 0
M  V30 5539 O 514.525 0.522713 1.94498 0
M  V30 5540 C 511.59 1.21662 3.24653 0
M  V30 5541 C 510.651 2.41886 3.54669 0
M  V30 5542 C 509.884 2.25655 4.83648 0
M  V30 5543 O 510.107 1.25339 5.56459 0
M  V30 5544 O 509.041 3.14372 5.13277 0
M  V30 5545 H 512.867 2.35143 1.92202 0
M  V30 5546 H 510.452 1.19721 0.893708 0
M  V30 5547 H 512.334 1.14246 4.05618 0
M  V30 5548 H 511.009 0.283024 3.2246 0
M  V30 5549 H 509.916 2.54877 2.73841 0
M  V30 5550 H 511.249 3.33895 3.61628 0
M  V30 5551 N 512.901 -0.976442 1.23707 0
M  V30 5552 C 513.849 -2.09078 1.01927 0
M  V30 5553 C 514.843 -1.69345 -0.0430193 0
M  V30 5554 O 516.049 -1.79659 0.110814 0
M  V30 5555 H 512.424 -0.68398 0.312531 0
M  V30 5556 H 514.395 -2.24614 1.96447 0
M  V30 5557 C 513.144 -3.41919 0.631385 0
M  V30 5558 H 512.467 -3.72946 1.44053 0
M  V30 5559 H 513.907 -4.20817 0.518532 0
M  V30 5560 C 512.366 -3.30357 -0.660723 0
M  V30 5561 O 512.896 -3.63542 -1.70881 0
M  V30 5562 N 511.102 -2.83507 -0.638139 0
M  V30 5563 H 510.649 -2.567 0.215108 0
M  V30 5564 H 510.607 -2.76153 -1.50289 0
M  V30 5565 N 514.379 -1.04941 -1.1758 0
M  V30 5566 C 515.309 -0.669172 -2.23706 0
M  V30 5567 C 516.29 0.331835 -1.66832 0
M  V30 5568 O 517.475 0.209988 -1.93061 0
M  V30 5569 C 514.605 -0.0404889 -3.47276 0
M  V30 5570 C 513.559 -0.965983 -4.16957 0
M  V30 5571 C 512.885 -0.201312 -5.34321 0
M  V30 5572 C 514.185 -2.28902 -4.69469 0
M  V30 5573 H 515.879 -1.55639 -2.55767 0
M  V30 5574 H 513.425 -0.749793 -1.22939 0
M  V30 5575 H 515.378 0.237298 -4.20731 0
M  V30 5576 H 514.102 0.881658 -3.14475 0
M  V30 5577 H 512.761 -1.22829 -3.45411 0
M  V30 5578 H 512.409 0.723519 -4.97769 0
M  V30 5579 H 512.109 -0.817968 -5.81879 0
M  V30 5580 H 513.633 0.0692499 -6.10561 0
M  V30 5581 H 515.047 -2.07132 -5.34574 0
M  V30 5582 H 513.444 -2.85942 -5.27596 0
M  V30 5583 H 514.514 -2.92937 -3.86414 0
M  V30 5584 N 515.857 1.33968 -0.830081 0
M  V30 5585 C 517.273 1.51003 -0.516742 0
M  V30 5586 C 517.473 1.77286 0.957694 0
M  V30 5587 O 516.529 1.82797 1.74188 0
M  V30 5588 C 517.842 2.67036 -1.38247 0
M  V30 5589 C 519.39 2.80919 -1.38034 0
M  V30 5590 C 519.865 4.00004 -2.23071 0
M  V30 5591 N 521.356 4.07224 -2.20733 0
M  V30 5592 C 522.091 4.98541 -2.83275 0
M  V30 5593 N 521.587 5.95033 -3.54835 0
M  V30 5594 N 523.38 4.91469 -2.72791 0
M  V30 5595 H 515.531 1.15168 -1.78466 0
M  V30 5596 H 517.794 0.565443 -0.760906 0
M  V30 5597 H 517.5 2.54266 -2.42985 0
M  V30 5598 H 517.374 3.62226 -1.05225 0
M  V30 5599 H 519.761 2.93127 -0.340713 0
M  V30 5600 H 519.842 1.86517 -1.75057 0
M  V30 5601 H 519.486 3.88557 -3.27087 0
M  V30 5602 H 519.416 4.93634 -1.83394 0
M  V30 5603 H 521.907 3.38162 -1.68687 0
M  V30 5604 H 522.22 6.61357 -3.99784 0
M  V30 5605 H 520.565 5.95135 -3.58942 0
M  V30 5606 H 523.756 4.15048 -2.16456 0
M  V30 5607 H 523.929 5.62439 -3.21818 0
M  V30 5608 N 517.335 0.585699 1.46312 0
M  V30 5609 C 518.265 -0.133556 2.33118 0
M  V30 5610 C 519.246 -0.880707 1.45525 0
M  V30 5611 O 520.431 -0.855579 1.74337 0
M  V30 5612 C 517.561 -1.14585 3.27853 0
M  V30 5613 C 516.515 -0.513341 4.2491 0
M  V30 5614 C 515.841 -1.63231 5.09175 0
M  V30 5615 C 517.141 0.551413 5.19381 0
M  V30 5616 H 518.835 0.59121 2.93505 0
M  V30 5617 H 516.381 0.285761 1.41136 0
M  V30 5618 H 518.334 -1.65741 3.87438 0
M  V30 5619 H 517.058 -1.90093 2.65579 0
M  V30 5620 H 515.717 -0.0228349 3.66593 0
M  V30 5621 H 515.365 -2.37713 4.43285 0
M  V30 5622 H 515.065 -1.21473 5.74907 0
M  V30 5623 H 516.589 -2.14658 5.71624 0
M  V30 5624 H 518.003 0.124804 5.73164 0
M  V30 5625 H 516.4 0.889486 5.93471 0
M  V30 5626 H 517.47 1.43655 4.63132 0
M  V30 5627 N 518.813 -1.54241 0.323641 0
M  V30 5628 C 519.745 -2.21836 -0.576311 0
M  V30 5629 C 520.758 -1.21837 -1.07979 0
M  V30 5630 O 521.947 -1.48306 -0.99336 0
M  V30 5631 C 519.047 -2.86923 -1.80356 0
M  V30 5632 C 518.22 -4.1306 -1.43875 0
M  V30 5633 C 517.279 -4.6174 -2.52353 0
M  V30 5634 O 516.305 -5.26421 -2.16494 0
M  V30 5635 N 517.507 -4.35974 -3.83284 0
M  V30 5636 H 520.272 -2.997 0.00247987 0
M  V30 5637 H 517.833 -1.61233 0.146848 0
M  V30 5638 H 519.825 -3.16414 -2.52318 0
M  V30 5639 H 518.395 -2.12765 -2.29019 0
M  V30 5640 H 517.615 -3.90334 -0.550752 0
M  V30 5641 H 518.903 -4.95148 -1.17071 0
M  V30 5642 H 518.301 -3.84203 -4.15216 0
M  V30 5643 H 516.858 -4.70119 -4.51477 0
M  V30 5644 N 520.291 -0.0518155 -1.57515 0
M  V30 5645 C 521.238 0.922352 -2.11569 0
M  V30 5646 C 522.208 1.30842 -1.02321 0
M  V30 5647 O 523.393 1.39778 -1.29872 0
M  V30 5648 C 520.533 2.19167 -2.6657 0
M  V30 5649 C 519.646 1.86003 -3.89906 0
M  V30 5650 C 518.781 3.07398 -4.33221 0
M  V30 5651 C 517.82 2.70158 -5.49255 0
M  V30 5652 N 516.957 3.84248 -5.8762 0
M  V30 5653 H 521.797 0.454506 -2.94514 0
M  V30 5654 H 519.334 0.212718 -1.45554 0
M  V30 5655 H 521.292 2.93443 -2.96559 0
M  V30 5656 H 519.922 2.63528 -1.86421 0
M  V30 5657 H 518.974 1.01874 -3.66505 0
M  V30 5658 H 520.286 1.54592 -4.74239 0
M  V30 5659 H 519.44 3.89972 -4.64765 0
M  V30 5660 H 518.179 3.41988 -3.477 0
M  V30 5661 H 517.184 1.86001 -5.17382 0
M  V30 5662 H 518.409 2.36759 -6.36492 0
M  V30 5663 H 516.355 4.18638 -5.05053 0
M  V30 5664 H 516.272 3.56538 -6.66646 0
M  V30 5665 H 517.54 4.6746 -6.2378 0
M  V30 5666 N 521.769 1.56035 0.221574 0
M  V30 5667 C 523.185 1.49026 0.571271 0
M  V30 5668 C 523.385 0.746912 1.87146 0
M  V30 5669 O 522.441 0.286566 2.50869 0
M  V30 5670 C 523.754 2.93579 0.650522 0
M  V30 5671 C 525.302 3.04099 0.741151 0
M  V30 5672 C 525.777 4.5001 0.851747 0
M  V30 5673 N 527.268 4.54053 0.915968 0
M  V30 5674 C 528.003 5.64232 1.02125 0
M  V30 5675 N 527.499 6.84164 1.09049 0
M  V30 5676 N 529.292 5.52084 1.05639 0
M  V30 5677 H 521.443 2.02791 -0.63162 0
M  V30 5678 H 523.706 0.921736 -0.221602 0
M  V30 5679 H 523.412 3.50912 -0.235253 0
M  V30 5680 H 523.286 3.45476 1.51413 0
M  V30 5681 H 525.673 2.4683 1.61737 0
M  V30 5682 H 525.754 2.55371 -0.148128 0
M  V30 5683 H 525.398 5.07896 -0.0200117 0
M  V30 5684 H 525.328 4.96444 1.75644 0
M  V30 5685 H 527.819 3.67683 0.872782 0
M  V30 5686 H 528.132 7.63883 1.1706 0
M  V30 5687 H 526.477 6.86875 1.05962 0
M  V30 5688 H 529.668 4.57317 0.998953 0
M  V30 5689 H 529.841 6.37983 1.13498 0
M  V30 5690 N 523.247 -0.488276 1.49845 0
M  V30 5691 C 524.495 -1.23911 1.59657 0
M  V30 5692 C 524.816 -1.92816 0.291005 0
M  V30 5693 O 524.086 -1.83328 -0.690485 0
M  V30 5694 H 522.666 -0.460357 0.588286 0
M  V30 5695 H 525.328 -0.564794 1.86537 0
M  V30 5696 H 524.424 -1.99625 2.39909 0
M  V30 5697 N 524.725 -1.39134 -0.740242 0
M  V30 5698 C 525.953 -1.39334 -1.5295 0
M  V30 5699 C 526.368 0.0135008 -1.88795 0
M  V30 5700 O 525.725 0.983524 -1.5373 0
M  V30 5701 C 525.776 -2.2614 -2.82034 0
M  V30 5702 O 525.497 -3.61345 -2.47712 0
M  V30 5703 C 526.998 -2.34666 -3.76094 0
M  V30 5704 H 524.218 -0.476103 -0.472828 0
M  V30 5705 H 526.762 -1.82883 -0.9151 0
M  V30 5706 H 524.917 -1.86018 -3.39818 0
M  V30 5707 H 525.331 -4.07194 -3.30595 0
M  V30 5708 H 526.805 -2.99663 -4.63579 0
M  V30 5709 H 527.282 -1.36426 -4.17474 0
M  V30 5710 H 527.888 -2.75236 -3.2423 0
M  V30 5711 N 526.204 0.969867 -1.24223 0
M  V30 5712 C 527.452 1.70918 -1.0785 0
M  V30 5713 C 527.773 1.91186 0.383763 0
M  V30 5714 O 527.043 1.48806 1.27411 0
M  V30 5715 H 525.623 0.633334 -0.396103 0
M  V30 5716 H 528.285 1.16689 -1.56108 0
M  V30 5717 H 527.381 2.69455 -1.57482 0
M  V30 5718 N 527.682 1.05563 1.17022 0
M  V30 5719 C 528.93 0.76642 1.87004 0
M  V30 5720 C 529.251 -0.708854 1.8166 0
M  V30 5721 O 528.521 -1.51242 1.2451 0
M  V30 5722 H 527.101 0.280516 0.692329 0
M  V30 5723 H 529.763 1.33557 1.41945 0
M  V30 5724 H 528.859 1.08472 2.92644 0
M  V30 5725 N 529.16 -1.33526 0.837174 0
M  V30 5726 C 530.406 -1.9813 0.432704 0
M  V30 5727 C 530.739 -1.66168 -1.00508 0
M  V30 5728 O 530.014 -0.94069 -1.70239 0
M  V30 5729 C 530.297 -3.54151 0.651834 0
M  V30 5730 C 530.15 -3.95806 2.13676 0
M  V30 5731 C 531.469 -4.39993 0.0968937 0
M  V30 5732 H 528.588 -0.719713 0.15869 0
M  V30 5733 H 531.23 -1.58193 1.05237 0
M  V30 5734 H 529.38 -3.88301 0.124369 0
M  V30 5735 H 531.052 -3.71921 2.72896 0
M  V30 5736 H 529.295 -3.45599 2.62191 0
M  V30 5737 H 529.966 -5.0447 2.24084 0
M  V30 5738 H 532.442 -4.12479 0.547733 0
M  V30 5739 H 531.318 -5.48186 0.279917 0
M  V30 5740 H 531.579 -4.3066 -0.9992 0
M  V30 5741 N 530.638 -0.59345 -1.46 0
M  V30 5742 C 531.915 -0.0157933 -1.95594 0
M  V30 5743 C 532.295 1.44807 -1.53604 0
M  V30 5744 O 531.643 2.14342 -0.791824 0
M  V30 5745 C 531.853 -0.199081 -3.48432 0
M  V30 5746 C 533.201 -0.0724943 -4.24538 0
M  V30 5747 O 534.225 -0.128469 -3.55968 0
M  V30 5748 O 533.084 0.0542426 -5.46473 0
M  V30 5749 H 530.178 0.043749 -0.825842 0
M  V30 5750 H 532.724 -0.662522 -1.56233 0
M  V30 5751 H 531.496 -1.21631 -3.71916 0
M  V30 5752 H 531.119 0.483576 -3.94648 0
M  V30 5753 N 532.116 1.54067 -0.331816 0
M  V30 5754 C 533.344 2.05131 0.269996 0
M  V30 5755 C 533.759 1.20749 1.45138 0
M  V30 5756 O 533.116 0.240069 1.80914 0
M  V30 5757 C 533.167 3.54728 0.696456 0
M  V30 5758 O 532.888 4.35906 -0.43794 0
M  V30 5759 C 534.389 4.21916 1.36021 0
M  V30 5760 H 531.609 0.668807 0.0542042 0
M  V30 5761 H 534.153 1.98777 -0.4804 0
M  V30 5762 H 532.308 3.61342 1.39681 0
M  V30 5763 H 532.722 5.24404 -0.100334 0
M  V30 5764 H 534.196 5.28015 1.60947 0
M  V30 5765 H 534.673 3.73538 2.31011 0
M  V30 5766 H 535.279 4.19463 0.702212 0
M  V30 5767 N 533.594 0.0601682 1.57485 0
M  V30 5768 C 534.557 -0.896373 2.10945 0
M  V30 5769 C 535.557 -1.23402 1.03095 0
M  V30 5770 O 536.747 -1.16921 1.29132 0
M  V30 5771 C 533.879 -2.20346 2.60116 0
M  V30 5772 H 535.072 -0.432778 2.96761 0
M  V30 5773 H 532.625 -0.188372 1.55161 0
M  V30 5774 H 533.36 -2.71268 1.7772 0
M  V30 5775 H 533.145 -1.9714 3.38937 0
M  V30 5776 H 534.635 -2.88846 3.01592 0
M  V30 5777 N 535.072 -1.5615 -0.213296 0
M  V30 5778 C 536.035 -1.92249 -1.24792 0
M  V30 5779 C 537.035 -0.801828 -1.39382 0
M  V30 5780 O 538.225 -1.06948 -1.37506 0
M  V30 5781 C 535.357 -2.18056 -2.62039 0
M  V30 5782 H 536.55 -2.84793 -0.939845 0
M  V30 5783 H 534.103 -1.49559 -0.454062 0
M  V30 5784 H 534.838 -1.2809 -2.97932 0
M  V30 5785 H 534.623 -2.99703 -2.52825 0
M  V30 5786 H 536.113 -2.47051 -3.36683 0
M  V30 5787 N 536.55 0.480323 -1.50102 0
M  V30 5788 C 537.796 1.23489 -1.60867 0
M  V30 5789 C 538.129 1.91809 -0.303827 0
M  V30 5790 O 537.404 1.81694 0.694092 0
M  V30 5791 C 537.687 2.28578 -2.78252 0
M  V30 5792 C 537.54 1.64624 -4.18592 0
M  V30 5793 C 538.859 3.2997 -2.91218 0
M  V30 5794 H 535.978 0.447605 -0.585507 0
M  V30 5795 H 538.62 0.530005 -1.82458 0
M  V30 5796 H 536.77 2.88697 -2.59974 0
M  V30 5797 H 538.442 1.08173 -4.48438 0
M  V30 5798 H 536.685 0.949645 -4.23278 0
M  V30 5799 H 537.356 2.40946 -4.96638 0
M  V30 5800 H 539.832 2.79864 -3.07921 0
M  V30 5801 H 538.708 4.00839 -3.74993 0
M  V30 5802 H 538.969 3.93541 -2.0144 0
M  V30 5803 N 538.028 1.39524 0.732853 0
M  V30 5804 C 538.991 1.38189 1.82857 0
M  V30 5805 C 539.991 0.278624 1.58368 0
M  V30 5806 O 541.181 0.536639 1.65728 0
M  V30 5807 C 538.313 1.15661 3.2068 0
M  V30 5808 H 539.506 2.35692 1.85444 0
M  V30 5809 H 537.059 1.2512 0.936728 0
M  V30 5810 H 537.794 0.188482 3.23752 0
M  V30 5811 H 537.579 1.95559 3.39852 0
M  V30 5812 H 539.069 1.17472 4.00737 0
M  V30 5813 N 539.506 -0.963266 1.24736 0
M  V30 5814 C 540.783 -1.68248 0.9976 0
M  V30 5815 C 541.163 -2.05599 -0.478776 0
M  V30 5816 O 540.511 -1.7626 -1.45412 0
M  V30 5817 C 540.721 -2.91118 1.92487 0
M  V30 5818 C 542.069 -3.63261 2.19833 0
M  V30 5819 O 543.093 -3.01184 1.90176 0
M  V30 5820 O 541.952 -4.75019 2.7022 0
M  V30 5821 H 539.046 -0.735744 0.377637 0
M  V30 5822 H 541.592 -1.01696 1.35853 0
M  V30 5823 H 540.364 -2.60242 2.92215 0
M  V30 5824 H 539.987 -3.65402 1.56738 0
M  V30 5825 N 540.985 -1.06182 -1.16461 0
M  V30 5826 C 542.231 -0.779015 -1.87241 0
M  V30 5827 C 542.564 0.692715 -1.81425 0
M  V30 5828 O 541.839 1.5074 -1.22913 0
M  V30 5829 C 542.122 -1.2728 -3.36856 0
M  V30 5830 C 541.975 -2.80821 -3.51368 0
M  V30 5831 C 543.294 -0.879799 -4.31216 0
M  V30 5832 H 540.413 -0.284464 -0.679889 0
M  V30 5833 H 543.055 -1.31755 -1.36896 0
M  V30 5834 H 541.205 -0.814673 -3.79862 0
M  V30 5835 H 542.877 -3.34833 -3.17308 0
M  V30 5836 H 541.12 -3.19606 -2.93316 0
M  V30 5837 H 541.791 -3.10435 -4.56436 0
M  V30 5838 H 544.267 -1.27436 -3.96105 0
M  V30 5839 H 543.143 -1.25278 -5.34412 0
M  V30 5840 H 543.404 0.215372 -4.41575 0
M  V30 5841 N 542.463 1.3308 -0.844243 0
M  V30 5842 C 543.693 2.01515 -0.455541 0
M  V30 5843 C 544.101 1.63655 0.949406 0
M  V30 5844 O 543.444 0.84848 1.62931 0
M  V30 5845 C 543.506 3.55967 -0.502801 0
M  V30 5846 C 543.17 4.17222 -1.86481 0
M  V30 5847 C 544.167 4.36205 -2.8288 0
M  V30 5848 C 541.852 4.53528 -2.15911 0
M  V30 5849 C 543.846 4.90649 -4.06869 0
M  V30 5850 C 541.533 5.07679 -3.40155 0
M  V30 5851 C 542.531 5.26186 -4.35451 0
M  V30 5852 O 542.219 5.79183 -5.57496 0
M  V30 5853 H 541.951 0.65199 -0.178565 0
M  V30 5854 H 544.505 1.70867 -1.1399 0
M  V30 5855 H 542.735 3.85965 0.23836 0
M  V30 5856 H 544.424 4.05688 -0.131169 0
M  V30 5857 H 545.19 4.085 -2.61444 0
M  V30 5858 H 541.069 4.38414 -1.42528 0
M  V30 5859 H 544.613 5.0501 -4.81259 0
M  V30 5860 H 540.51 5.34815 -3.61446 0
M  V30 5861 H 541.278 5.97591 -5.5931 0
M  V30 5862 N 543.941 0.601185 1.45683 0
M  V30 5863 C 545.218 0.0261659 1.95582 0
M  V30 5864 C 545.598 -1.4399 1.5437 0
M  V30 5865 O 544.946 -2.13919 0.80318 0
M  V30 5866 C 545.156 0.217557 3.48321 0
M  V30 5867 C 546.504 0.0950076 4.24494 0
M  V30 5868 O 547.528 0.147345 3.55895 0
M  V30 5869 O 546.387 -0.025261 5.46494 0
M  V30 5870 H 543.481 -0.0393688 0.826062 0
M  V30 5871 H 546.027 0.670798 1.55879 0
M  V30 5872 H 544.799 1.23601 3.71266 0
M  V30 5873 H 544.422 -0.46264 3.94899 0
M  V30 5874 N 545.419 -1.53889 0.339982 0
M  V30 5875 C 546.668 -2.00035 -0.258604 0
M  V30 5876 C 546.981 -1.23179 -1.51942 0
M  V30 5877 O 548.187 -1.59784 -2.19503 0
M  V30 5878 C 546.643 -3.56249 -0.511359 0
M  V30 5879 C 546.251 -4.41957 0.733349 0
M  V30 5880 C 547.995 -4.1082 -1.069 0
M  V30 5881 C 545.902 -5.89673 0.451591 0
M  V30 5882 H 544.832 -0.747284 -0.10041 0
M  V30 5883 H 547.483 -1.77776 0.454758 0
M  V30 5884 H 545.865 -3.7456 -1.28533 0
M  V30 5885 H 547.039 -4.35421 1.50815 0
M  V30 5886 H 545.354 -3.9836 1.21237 0
M  V30 5887 H 547.951 -5.18789 -1.2947 0
M  V30 5888 H 548.294 -3.63817 -2.02343 0
M  V30 5889 H 548.827 -3.96205 -0.355817 0
M  V30 5890 H 545.566 -6.40903 1.37565 0
M  V30 5891 H 545.086 -5.99122 -0.285193 0
M  V30 5892 H 546.765 -6.46965 0.0675067 0
M  V30 5893 N 546.897 -0.0685191 -1.57451 0
M  V30 5894 C 548.122 0.613919 -1.98106 0
M  V30 5895 C 548.547 1.62551 -0.946501 0
M  V30 5896 O 547.905 1.81085 0.0882824 0
M  V30 5897 C 547.953 1.26189 -3.378 0
M  V30 5898 O 547.057 2.37773 -3.36954 0
M  V30 5899 H 546.398 0.158163 -0.644888 0
M  V30 5900 H 548.928 -0.142063 -2.04106 0
M  V30 5901 H 548.938 1.60951 -3.74912 0
M  V30 5902 H 547.613 0.520625 -4.12629 0
M  V30 5903 H 546.19 2.04829 -3.11608 0
M  V30 5904 N 548.375 1.56261 0.205012 0
M  V30 5905 C 549.323 1.94631 1.27364 0
M  V30 5906 C 550.317 0.830434 1.47649 0
M  V30 5907 O 551.523 1.01538 1.48627 0
M  V30 5908 H 547.898 0.618755 0.427371 0
M  V30 5909 H 549.869 2.83768 0.922941 0
M  V30 5910 C 548.618 2.29358 2.61324 0
M  V30 5911 H 547.941 3.14744 2.46528 0
M  V30 5912 H 549.381 2.60076 3.34868 0
M  V30 5913 C 547.84 1.12461 3.17575 0
M  V30 5914 O 548.37 0.394407 3.99759 0
M  V30 5915 N 546.576 0.904036 2.7618 0
M  V30 5916 H 546.123 1.49956 2.09454 0
M  V30 5917 H 546.081 0.123662 3.14157 0
M  V30 5918 N 549.853 -0.472356 1.50355 0
M  V30 5919 C 551.102 -1.2213 1.60522 0
M  V30 5920 C 551.415 -1.9312 0.310466 0
M  V30 5921 O 552.621 -2.69936 0.291029 0
M  V30 5922 C 551.077 -2.21909 2.83345 0
M  V30 5923 C 550.685 -1.56727 4.19691 0
M  V30 5924 C 552.429 -2.97453 3.02856 0
M  V30 5925 C 550.336 -2.54785 5.33703 0
M  V30 5926 H 549.266 -0.459543 0.597776 0
M  V30 5927 H 551.917 -0.491922 1.76783 0
M  V30 5928 H 550.299 -2.98133 2.60639 0
M  V30 5929 H 551.473 -0.863007 4.52646 0
M  V30 5930 H 549.788 -0.934685 4.05774 0
M  V30 5931 H 552.385 -3.70838 3.85205 0
M  V30 5932 H 552.728 -3.56764 2.14534 0
M  V30 5933 H 553.261 -2.28342 3.25737 0
M  V30 5934 H 550 -2.00214 6.24175 0
M  V30 5935 H 549.52 -3.23367 5.05167 0
M  V30 5936 H 551.199 -3.16639 5.64224 0
M  V30 5937 N 551.331 -1.39911 -0.725443 0
M  V30 5938 C 552.608 -1.28158 -1.47766 0
M  V30 5939 C 552.988 0.104545 -2.10841 0
M  V30 5940 O 552.336 1.11657 -1.99361 0
M  V30 5941 C 552.546 -2.41306 -2.52135 0
M  V30 5942 C 553.894 -2.81076 -3.18247 0
M  V30 5943 O 554.918 -2.40827 -2.62452 0
M  V30 5944 O 553.777 -3.50581 -4.19231 0
M  V30 5945 H 550.871 -0.502761 -0.656628 0
M  V30 5946 H 553.417 -1.51808 -0.758456 0
M  V30 5947 H 552.189 -3.33932 -2.03974 0
M  V30 5948 H 551.812 -2.19374 -3.31603 0
M  V30 5949 N 552.809 0.956637 -1.25245 0
M  V30 5950 C 554.225 1.22733 -1.02023 0
M  V30 5951 C 554.425 1.99761 0.264186 0
M  V30 5952 O 553.481 2.32814 0.977436 0
M  V30 5953 C 554.794 2.00367 -2.24217 0
M  V30 5954 C 556.342 2.13418 -2.28958 0
M  V30 5955 C 556.817 2.9445 -3.50803 0
M  V30 5956 N 558.308 3.02029 -3.51187 0
M  V30 5957 C 559.043 3.65116 -4.42129 0
M  V30 5958 N 558.539 4.2983 -5.43339 0
M  V30 5959 N 560.332 3.62237 -4.29815 0
M  V30 5960 H 552.483 0.441282 -2.07765 0
M  V30 5961 H 554.746 0.257686 -0.912306 0
M  V30 5962 H 554.452 1.51165 -3.17556 0
M  V30 5963 H 554.326 3.01077 -2.27228 0
M  V30 5964 H 556.713 2.61819 -1.36143 0
M  V30 5965 H 556.794 1.1202 -2.29968 0
M  V30 5966 H 556.438 2.46741 -4.43939 0
M  V30 5967 H 556.368 3.9607 -3.47039 0
M  V30 5968 H 558.859 2.56007 -2.77973 0
M  V30 5969 H 559.172 4.75819 -6.08947 0
M  V30 5970 H 557.517 4.28465 -5.47214 0
M  V30 5971 H 560.708 3.10863 -3.49974 0
M  V30 5972 H 560.881 4.11117 -5.00886 0
M  V30 5973 N 554.287 1.06798 1.15896 0
M  V30 5974 C 555.536 0.782796 1.8589 0
M  V30 5975 C 555.849 -0.693498 1.82893 0
M  V30 5976 O 557.055 -1.09325 2.48516 0
M  V30 5977 C 555.511 1.3502 3.33613 0
M  V30 5978 C 555.119 2.8571 3.45071 0
M  V30 5979 C 556.863 1.14278 4.08829 0
M  V30 5980 C 554.77 3.35669 4.86909 0
M  V30 5981 H 553.7 0.289149 0.696354 0
M  V30 5982 H 556.351 1.28734 1.30766 0
M  V30 5983 H 554.733 0.773407 3.88374 0
M  V30 5984 H 555.907 3.49385 3.00445 0
M  V30 5985 H 554.222 3.05178 2.83294 0
M  V30 5986 H 556.819 1.49087 5.13495 0
M  V30 5987 H 557.162 0.0814575 4.1622 0
M  V30 5988 H 557.695 1.68563 3.60321 0
M  V30 5989 H 554.434 4.41302 4.84698 0
M  V30 5990 H 553.954 2.76745 5.32139 0
M  V30 5991 H 555.633 3.31296 5.55745 0
M  V30 5992 N 555.766 -1.3263 0.851289 0
M  V30 5993 C 557.014 -1.96978 0.452128 0
M  V30 5994 C 557.335 -1.67715 -0.99482 0
M  V30 5995 O 556.605 -0.98259 -1.69476 0
M  V30 5996 H 555.185 -0.72873 0.164202 0
M  V30 5997 H 557.847 -1.61774 1.08698 0
M  V30 5998 H 556.943 -3.06387 0.594407 0
M  V30 5999 N 557.244 -0.608902 -1.45362 0
M  V30 6000 C 558.66 -0.272659 -1.57254 0
M  V30 6001 C 558.86 1.22477 -1.60005 0
M  V30 6002 O 557.916 2.00785 -1.53106 0
M  V30 6003 C 559.229 -0.944991 -2.85465 0
M  V30 6004 C 560.777 -0.921033 -2.99142 0
M  V30 6005 C 561.252 -1.5734 -4.30126 0
M  V30 6006 N 562.743 -1.53895 -4.36887 0
M  V30 6007 C 563.478 -2.01286 -5.36909 0
M  V30 6008 N 562.974 -2.56768 -6.43461 0
M  V30 6009 N 564.767 -1.92046 -5.28275 0
M  V30 6010 H 556.918 -1.58117 -1.4182 0
M  V30 6011 H 559.181 -0.662437 -0.678146 0
M  V30 6012 H 558.887 -1.99941 -2.89338 0
M  V30 6013 H 558.761 -0.469079 -3.74272 0
M  V30 6014 H 561.148 0.124846 -2.94836 0
M  V30 6015 H 561.229 -1.43522 -2.11743 0
M  V30 6016 H 560.873 -2.61862 -4.35191 0
M  V30 6017 H 560.803 -1.03422 -5.16344 0
M  V30 6018 H 563.294 -1.13366 -3.60495 0
M  V30 6019 H 563.607 -2.9072 -7.16032 0
M  V30 6020 H 561.952 -2.60808 -6.44208 0
M  V30 6021 H 565.143 -1.48439 -4.43941 0
M  V30 6022 H 565.316 -2.29293 -6.06077 0
M  V30 6023 N 558.722 1.53707 -0.348139 0
M  V30 6024 C 559.947 2.05877 0.250883 0
M  V30 6025 C 560.372 1.22115 1.43072 0
M  V30 6026 O 559.73 0.235986 1.79758 0
M  V30 6027 C 559.778 3.54886 0.639416 0
M  V30 6028 O 558.882 3.73948 1.73888 0
M  V30 6029 H 558.223 0.662754 0.040653 0
M  V30 6030 H 560.753 1.98303 -0.503685 0
M  V30 6031 H 560.763 3.97601 0.915295 0
M  V30 6032 H 559.438 4.153 -0.223386 0
M  V30 6033 H 558.015 3.43134 1.45991 0
M  V30 6034 N 560.2 0.0768682 1.57412 0
M  V30 6035 C 561.11 -0.903207 2.16516 0
M  V30 6036 C 562.126 -1.32341 1.12968 0
M  V30 6037 O 563.302 -1.39507 1.45258 0
M  V30 6038 C 560.367 -2.1508 2.71922 0
M  V30 6039 C 559.428 -1.78653 3.90361 0
M  V30 6040 C 558.661 -2.97465 4.43114 0
M  V30 6041 O 558.884 -4.11638 3.94854 0
M  V30 6042 O 557.818 -2.76987 5.3438 0
M  V30 6043 H 561.644 -0.430427 3.00634 0
M  V30 6044 H 559.229 -0.146485 1.4868 0
M  V30 6045 H 561.111 -2.8823 3.07411 0
M  V30 6046 H 559.786 -2.61446 1.9086 0
M  V30 6047 H 558.693 -1.0274 3.59716 0
M  V30 6048 H 560.026 -1.37066 4.7273 0
M  V30 6049 N 561.678 -1.56367 -0.196722 0
M  V30 6050 C 562.924 -1.80796 -0.918725 0
M  V30 6051 C 563.257 -0.650645 -1.82976 0
M  V30 6052 O 562.532 0.348889 -1.91345 0
M  V30 6053 C 562.815 -3.15472 -1.73636 0
M  V30 6054 C 562.668 -4.41693 -0.85015 0
M  V30 6055 C 563.987 -3.46824 -2.70927 0
M  V30 6056 H 561.106 -0.657702 -0.332561 0
M  V30 6057 H 563.748 -1.89086 -0.186186 0
M  V30 6058 H 561.898 -3.08536 -2.36088 0
M  V30 6059 H 563.57 -4.60673 -0.240459 0
M  V30 6060 H 561.813 -4.33517 -0.156785 0
M  V30 6061 H 562.484 -5.32419 -1.45719 0
M  V30 6062 H 564.96 -3.54049 -2.18607 0
M  V30 6063 H 563.836 -4.4218 -3.25219 0
M  V30 6064 H 564.097 -2.70236 -3.49893 0
M  V30 6065 N 563.156 0.464375 -1.50603 0
M  V30 6066 C 564.066 1.58723 -1.72754 0
M  V30 6067 C 565.082 1.62925 -0.610844 0
M  V30 6068 O 566.258 1.8067 -0.889963 0
M  V30 6069 C 563.323 2.94897 -1.82309 0
M  V30 6070 C 562.384 3.0103 -3.06071 0
M  V30 6071 C 561.617 4.30708 -3.1516 0
M  V30 6072 O 561.84 5.2159 -2.30868 0
M  V30 6073 O 560.774 4.42571 -4.0794 0
M  V30 6074 H 564.6 1.42954 -2.67951 0
M  V30 6075 H 562.185 0.644579 -1.3478 0
M  V30 6076 H 564.067 3.75764 -1.90735 0
M  V30 6077 H 562.742 3.10851 -0.902967 0
M  V30 6078 H 561.649 2.19217 -3.03142 0
M  V30 6079 H 562.982 2.90014 -3.97684 0
M  V30 6080 N 564.634 1.40294 0.718013 0
M  V30 6081 C 565.564 1.43118 1.84498 0
M  V30 6082 C 566.545 0.292403 1.67568 0
M  V30 6083 O 567.73 0.500675 1.87635 0
M  V30 6084 C 564.86 1.29065 3.22427 0
M  V30 6085 C 563.814 2.40521 3.54025 0
M  V30 6086 C 563.14 2.11546 4.91073 0
M  V30 6087 C 564.44 3.82859 3.55269 0
M  V30 6088 H 566.134 2.37432 1.82391 0
M  V30 6089 H 563.68 1.14283 0.87609 0
M  V30 6090 H 565.633 1.29658 4.00957 0
M  V30 6091 H 564.357 0.312271 3.25104 0
M  V30 6092 H 563.016 2.39173 2.77834 0
M  V30 6093 H 562.664 1.12104 4.90348 0
M  V30 6094 H 562.364 2.86216 5.1318 0
M  V30 6095 H 563.888 2.13817 5.71939 0
M  V30 6096 H 565.302 3.86044 4.23843 0
M  V30 6097 H 563.699 4.57029 3.88902 0
M  V30 6098 H 564.769 4.12617 2.54706 0
M  V30 6099 N 566.112 -0.949982 1.2575 0
M  V30 6100 C 567.358 -1.69766 1.10938 0
M  V30 6101 C 567.691 -1.91056 -0.348028 0
M  V30 6102 O 566.966 -1.48488 -1.25625 0
M  V30 6103 C 567.249 -3.07779 1.86933 0
M  V30 6104 C 567.102 -2.9387 3.4053 0
M  V30 6105 C 568.421 -4.07749 1.65616 0
M  V30 6106 H 565.54 -0.616144 0.404396 0
M  V30 6107 H 568.182 -1.10394 1.54639 0
M  V30 6108 H 566.332 -3.58462 1.4979 0
M  V30 6109 H 568.004 -2.50476 3.87375 0
M  V30 6110 H 566.247 -2.29686 3.68004 0
M  V30 6111 H 566.918 -3.91719 3.88922 0
M  V30 6112 H 569.394 -3.65994 1.97959 0
M  V30 6113 H 568.27 -5.02348 2.21218 0
M  V30 6114 H 568.531 -4.38029 0.598595 0
M  V30 6115 N 567.59 -1.07411 -1.15328 0
M  V30 6116 C 568.522 -0.652924 -2.19703 0
M  V30 6117 C 569.535 0.294869 -1.60107 0
M  V30 6118 O 570.724 0.0840932 -1.78302 0
M  V30 6119 C 567.824 0.061434 -3.38844 0
M  V30 6120 C 566.997 -0.902696 -4.27984 0
M  V30 6121 C 566.056 -0.225521 -5.25717 0
M  V30 6122 O 565.082 -0.86676 -5.62562 0
M  V30 6123 N 566.284 1.02858 -5.71315 0
M  V30 6124 H 569.049 -1.55081 -2.56457 0
M  V30 6125 H 566.61 -0.958883 -1.30449 0
M  V30 6126 H 568.602 0.525145 -4.01278 0
M  V30 6127 H 567.172 0.861269 -3.00501 0
M  V30 6128 H 566.392 -1.54551 -3.6264 0
M  V30 6129 H 567.68 -1.55636 -4.84412 0
M  V30 6130 H 567.078 1.56948 -5.43492 0
M  V30 6131 H 565.635 1.43596 -6.35786 0
M  V30 6132 N 569.068 1.32177 -0.85831 0
M  V30 6133 C 570.317 1.96392 -0.459689 0
M  V30 6134 C 570.63 1.68659 0.990632 0
M  V30 6135 O 571.836 2.26641 1.49485 0
M  V30 6136 C 570.292 3.51542 -0.7711 0
M  V30 6137 C 569.9 3.8813 -2.2374 0
M  V30 6138 C 571.644 4.2221 -0.44038 0
M  V30 6139 C 569.551 5.36341 -2.49183 0
M  V30 6140 H 568.481 0.735007 -0.168169 0
M  V30 6141 H 571.132 1.50518 -1.0496 0
M  V30 6142 H 569.514 3.95846 -0.11058 0
M  V30 6143 H 570.688 3.54824 -2.94001 0
M  V30 6144 H 569.003 3.30497 -2.533 0
M  V30 6145 H 571.6 5.31234 -0.607855 0
M  V30 6146 H 571.943 4.11683 0.618291 0
M  V30 6147 H 572.476 3.83502 -1.05695 0
M  V30 6148 H 569.215 5.51892 -3.53689 0
M  V30 6149 H 568.735 5.7104 -1.83504 0
M  V30 6150 H 570.414 6.03466 -2.33318 0
M  V30 6151 N 570.547 0.616602 1.45037 0
M  V30 6152 C 571.793 0.115501 2.02471 0
M  V30 6153 C 572.126 -1.25406 1.4828 0
M  V30 6154 O 571.401 -1.82922 0.661051 0
M  V30 6155 C 571.684 0.0863588 3.59996 0
M  V30 6156 C 571.537 1.48723 4.24501 0
M  V30 6157 C 572.856 -0.596762 4.36035 0
M  V30 6158 H 569.975 0.0434461 0.735718 0
M  V30 6159 H 572.617 0.7903 1.72784 0
M  V30 6160 H 570.767 -0.488277 3.85419 0
M  V30 6161 H 572.439 2.10964 4.10234 0
M  V30 6162 H 570.682 2.04534 3.82555 0
M  V30 6163 H 571.353 1.419 5.3345 0
M  V30 6164 H 573.829 -0.10824 4.15959 0
M  V30 6165 H 572.705 -0.586289 5.4576 0
M  V30 6166 H 572.966 -1.66451 4.09569 0
M  V30 6167 N 572.025 -1.5352 0.356285 0
M  V30 6168 C 573.274 -2.00298 -0.237373 0
M  V30 6169 C 573.587 -1.24784 -1.50627 0
M  V30 6170 O 574.793 -1.62103 -2.17795 0
M  V30 6171 C 573.249 -3.56771 -0.473545 0
M  V30 6172 C 572.857 -4.41154 0.780183 0
M  V30 6173 C 574.601 -4.1193 -1.02537 0
M  V30 6174 C 572.508 -5.89161 0.514108 0
M  V30 6175 H 571.438 -0.748307 -0.092478 0
M  V30 6176 H 574.089 -1.77283 0.473588 0
M  V30 6177 H 572.471 -3.75902 -1.24553 0
M  V30 6178 H 573.645 -4.33797 1.55425 0
M  V30 6179 H 571.96 -3.97052 1.25455 0
M  V30 6180 H 574.557 -5.20133 -1.2396 0
M  V30 6181 H 574.9 -3.65943 -1.98473 0
M  V30 6182 H 575.433 -3.96561 -0.313775 0
M  V30 6183 H 572.172 -6.39408 1.44355 0
M  V30 6184 H 571.692 -5.9939 -0.221632 0
M  V30 6185 H 573.371 -6.46857 0.136122 0
M  V30 6186 N 573.503 -0.0852151 -1.57369 0
M  V30 6187 C 574.78 0.622534 -1.85429 0
M  V30 6188 C 575.16 1.86962 -0.980229 0
M  V30 6189 O 574.508 2.28445 -0.0500219 0
M  V30 6190 C 574.718 0.947374 -3.35896 0
M  V30 6191 C 576.066 1.31509 -4.03721 0
M  V30 6192 O 577.09 1.03869 -3.40719 0
M  V30 6193 O 575.949 1.83231 -5.14868 0
M  V30 6194 H 573.043 0.310513 -0.766492 0
M  V30 6195 H 575.589 -0.117164 -1.69295 0
M  V30 6196 H 574.361 0.0622264 -3.91251 0
M  V30 6197 H 573.984 1.74338 -3.5734 0
M  V30 6198 N 574.981 1.5647 0.188427 0
M  V30 6199 C 576.229 1.80655 0.905986 0
M  V30 6200 C 576.55 0.659391 1.83513 0
M  V30 6201 O 575.82 -0.321868 1.93238 0
M  V30 6202 H 574.4 0.666391 0.337538 0
M  V30 6203 H 577.062 1.93949 0.192339 0
M  V30 6204 H 576.158 2.74066 1.49313 0
M  V30 6205 N 576.459 -0.456382 1.50847 0
M  V30 6206 C 577.705 -1.20914 1.62811 0
M  V30 6207 C 578.038 -1.91301 0.334304 0
M  V30 6208 O 577.313 -1.82775 -0.665098 0
M  V30 6209 C 577.596 -2.24122 2.81853 0
M  V30 6210 C 577.449 -1.57944 4.21158 0
M  V30 6211 C 578.768 -3.25295 2.96431 0
M  V30 6212 H 575.887 -0.438233 0.592554 0
M  V30 6213 H 578.529 -0.50091 1.83278 0
M  V30 6214 H 576.679 -2.84524 2.64534 0
M  V30 6215 H 578.351 -1.01025 4.50102 0
M  V30 6216 H 576.594 -0.882185 4.24735 0
M  V30 6217 H 577.265 -2.33014 5.00408 0
M  V30 6218 H 579.741 -2.7493 3.12335 0
M  V30 6219 H 578.617 -3.94822 3.81322 0
M  V30 6220 H 578.878 -3.90286 2.07676 0
M  V30 6221 N 577.937 -1.40673 -0.710563 0
M  V30 6222 C 578.885 -1.41517 -1.84596 0
M  V30 6223 C 579.879 -0.295043 -1.66811 0
M  V30 6224 O 581.085 -0.466331 -1.73854 0
M  V30 6225 H 577.46 -0.442467 -0.608052 0
M  V30 6226 H 579.431 -2.37238 -1.80999 0
M  V30 6227 C 578.18 -1.29957 -3.225 0
M  V30 6228 H 577.503 -2.15429 -3.36794 0
M  V30 6229 H 578.943 -1.34608 -4.02066 0
M  V30 6230 C 577.402 -0.0103164 -3.36898 0
M  V30 6231 O 577.932 0.950707 -3.90288 0
M  V30 6232 N 576.138 0.0608409 -2.90536 0
M  V30 6233 H 575.685 -0.721943 -2.47277 0
M  V30 6234 H 575.643 0.92292 -3.00549 0
M  V30 6235 N 579.415 0.9433 -1.26252 0
M  V30 6236 C 580.645 1.72117 -1.14277 0
M  V30 6237 C 581.053 1.86726 0.304944 0
M  V30 6238 O 580.396 1.3727 1.22076 0
M  V30 6239 C 580.458 3.14778 -1.73651 0
M  V30 6240 C 580.122 3.23561 -3.22734 0
M  V30 6241 C 581.119 3.07001 -4.19579 0
M  V30 6242 C 578.804 3.47019 -3.63157 0
M  V30 6243 C 580.798 3.13763 -5.54826 0
M  V30 6244 C 578.485 3.53416 -4.98538 0
M  V30 6245 C 579.483 3.36804 -5.94182 0
M  V30 6246 O 579.171 3.42906 -7.27098 0
M  V30 6247 H 578.903 0.545781 -0.398873 0
M  V30 6248 H 581.457 1.19123 -1.67328 0
M  V30 6249 H 579.687 3.69186 -1.1506 0
M  V30 6250 H 581.376 3.74469 -1.56613 0
M  V30 6251 H 582.142 2.88736 -3.89688 0
M  V30 6252 H 578.021 3.59006 -2.89199 0
M  V30 6253 H 581.565 3.00714 -6.29458 0
M  V30 6254 H 577.462 3.71201 -5.28091 0
M  V30 6255 H 578.23 3.59463 -7.35342 0
M  V30 6256 N 580.893 1.08022 1.14757 0
M  V30 6257 C 581.823 0.728248 2.21853 0
M  V30 6258 C 582.804 -0.287486 1.67653 0
M  V30 6259 O 583.989 -0.158727 1.9355 0
M  V30 6260 C 581.119 0.132549 3.47047 0
M  V30 6261 C 580.073 1.07619 4.14249 0
M  V30 6262 C 579.399 0.342907 5.33599 0
M  V30 6263 C 580.699 2.41268 4.63235 0
M  V30 6264 H 582.393 1.62365 2.51551 0
M  V30 6265 H 579.939 0.782125 1.20908 0
M  V30 6266 H 581.892 -0.125665 4.21213 0
M  V30 6267 H 580.616 -0.797971 3.16702 0
M  V30 6268 H 579.275 1.31944 3.42033 0
M  V30 6269 H 578.923 -0.59129 4.99513 0
M  V30 6270 H 578.623 0.971955 5.79506 0
M  V30 6271 H 580.147 0.0926538 6.1053 0
M  V30 6272 H 581.561 2.21232 5.28894 0
M  V30 6273 H 579.958 2.9983 5.19829 0
M  V30 6274 H 581.028 3.03079 3.78512 0
M  V30 6275 N 582.371 -1.3172 0.865308 0
M  V30 6276 C 583.617 -1.97168 0.474633 0
M  V30 6277 C 583.95 -1.68263 -0.969604 0
M  V30 6278 O 583.225 -0.976588 -1.68205 0
M  V30 6279 C 583.508 -3.52689 0.726808 0
M  V30 6280 C 583.361 -3.91185 2.22024 0
M  V30 6281 C 584.68 -4.39689 0.190201 0
M  V30 6282 H 581.799 -0.716185 0.17392 0
M  V30 6283 H 584.441 -1.55925 1.08569 0
M  V30 6284 H 582.591 -3.8795 0.206705 0
M  V30 6285 H 584.263 -3.66049 2.80724 0
M  V30 6286 H 582.506 -3.3996 2.69462 0
M  V30 6287 H 583.177 -4.99604 2.34735 0
M  V30 6288 H 585.653 -4.11225 0.635103 0
M  V30 6289 H 584.529 -5.47469 0.396132 0
M  V30 6290 H 584.79 -4.32683 -0.907625 0
M  V30 6291 N 583.85 -0.624285 -1.44708 0
M  V30 6292 C 585.127 -0.0572781 -1.95516 0
M  V30 6293 C 585.507 1.41516 -1.56641 0
M  V30 6294 O 584.855 2.12614 -0.837111 0
M  V30 6295 C 585.065 -0.272944 -3.47931 0
M  V30 6296 C 586.413 -0.162529 -4.24289 0
M  V30 6297 O 587.437 -0.203946 -3.55616 0
M  V30 6298 O 586.296 -0.0616847 -5.46465 0
M  V30 6299 H 583.389 0.0262219 -0.826584 0
M  V30 6300 H 585.936 -0.695512 -1.54793 0
M  V30 6301 H 584.707 -1.29492 -3.69253 0
M  V30 6302 H 584.331 0.399756 -3.95585 0
M  V30 6303 N 585.328 1.53329 -0.364422 0
M  V30 6304 C 586.568 2.0315 0.22572 0
M  V30 6305 C 586.932 1.24589 1.46087 0
M  V30 6306 O 588.133 1.64411 2.12656 0
M  V30 6307 C 586.404 3.53718 0.511663 0
M  V30 6308 S 587.963 4.25412 1.07564 0
M  V30 6309 H 584.781 0.70795 0.0657843 0
M  V30 6310 H 587.383 1.88811 -0.507019 0
M  V30 6311 H 586.087 4.08497 -0.394784 0
M  V30 6312 H 585.618 3.72217 1.27351 0
M  V30 6313 H 587.633 4.36486 2.35997 0
M  V30 6314 N 586.806 0.0935595 1.57322 0
M  V30 6315 C 587.716 -0.880192 2.17462 0
M  V30 6316 C 588.732 -1.31135 1.14366 0
M  V30 6317 O 589.908 -1.37958 1.46729 0
M  V30 6318 C 586.973 -2.12184 2.74188 0
M  V30 6319 C 586.034 -1.74503 3.92234 0
M  V30 6320 C 585.267 -2.92748 4.46245 0
M  V30 6321 O 585.49 -4.07427 3.99198 0
M  V30 6322 O 584.424 -2.71303 5.37288 0
M  V30 6323 H 588.25 -0.398516 3.01074 0
M  V30 6324 H 585.835 -0.130707 1.48827 0
M  V30 6325 H 587.717 -2.84953 3.10451 0
M  V30 6326 H 586.392 -2.59407 1.93623 0
M  V30 6327 H 585.299 -0.989186 3.60785 0
M  V30 6328 H 586.632 -1.32044 4.74157 0
M  V30 6329 N 588.284 -1.56567 -0.180126 0
M  V30 6330 C 589.231 -1.95725 -1.22313 0
M  V30 6331 C 590.201 -0.819911 -1.44453 0
M  V30 6332 O 591.386 -1.07931 -1.57339 0
M  V30 6333 C 588.526 -2.31484 -2.55947 0
M  V30 6334 C 587.639 -3.58354 -2.4126 0
M  V30 6335 C 586.774 -3.83366 -3.67701 0
M  V30 6336 C 585.813 -5.03612 -3.47909 0
M  V30 6337 N 584.95 -5.24802 -4.66398 0
M  V30 6338 H 589.79 -2.84642 -0.882198 0
M  V30 6339 H 587.327 -1.4085 -0.42422 0
M  V30 6340 H 589.285 -2.50237 -3.33822 0
M  V30 6341 H 587.915 -1.45689 -2.88053 0
M  V30 6342 H 586.967 -3.47565 -1.54606 0
M  V30 6343 H 588.279 -4.46386 -2.22577 0
M  V30 6344 H 587.433 -4.02439 -4.54013 0
M  V30 6345 H 586.172 -2.93692 -3.89353 0
M  V30 6346 H 585.177 -4.84447 -2.59983 0
M  V30 6347 H 586.402 -5.94809 -3.27688 0
M  V30 6348 H 584.348 -4.38079 -4.88286 0
M  V30 6349 H 584.265 -6.07041 -4.50596 0
M  V30 6350 H 585.533 -5.48346 -5.54019 0
M  V30 6351 N 589.762 0.448376 -1.51087 0
M  V30 6352 C 590.709 1.54341 -1.71603 0
M  V30 6353 C 591.679 1.56463 -0.557536 0
M  V30 6354 O 592.864 1.73644 -0.79072 0
M  V30 6355 C 590.004 2.92148 -1.83695 0
M  V30 6356 C 589.117 2.99639 -3.11192 0
M  V30 6357 C 588.252 4.285 -3.13944 0
M  V30 6358 C 587.291 4.29819 -4.35801 0
M  V30 6359 N 586.428 5.50186 -4.36164 0
M  V30 6360 H 591.268 1.36151 -2.65079 0
M  V30 6361 H 588.805 0.661585 -1.31383 0
M  V30 6362 H 590.763 3.72093 -1.88687 0
M  V30 6363 H 589.393 3.0892 -0.936374 0
M  V30 6364 H 588.445 2.12425 -3.15562 0
M  V30 6365 H 589.757 2.96474 -4.01129 0
M  V30 6366 H 588.911 5.16811 -3.17791 0
M  V30 6367 H 587.65 4.34307 -2.21876 0
M  V30 6368 H 586.655 3.39902 -4.32142 0
M  V30 6369 H 587.88 4.25685 -5.29121 0
M  V30 6370 H 585.826 5.56735 -3.46961 0
M  V30 6371 H 585.743 5.48856 -5.19897 0
M  V30 6372 H 587.011 6.40559 -4.44189 0
M  V30 6373 N 591.24 1.41047 0.703093 0
M  V30 6374 C 592.17 1.45067 1.82969 0
M  V30 6375 C 593.151 0.31016 1.67248 0
M  V30 6376 O 594.336 0.520548 1.87093 0
M  V30 6377 C 591.466 1.32478 3.2104 0
M  V30 6378 C 590.42 2.44262 3.51454 0
M  V30 6379 C 589.746 2.16742 4.88801 0
M  V30 6380 C 591.046 3.86606 3.51189 0
M  V30 6381 H 592.74 2.39353 1.79863 0
M  V30 6382 H 590.286 1.15206 0.863919 0
M  V30 6383 H 592.239 1.33904 3.99559 0
M  V30 6384 H 590.963 0.346735 3.24754 0
M  V30 6385 H 589.622 2.42107 2.75282 0
M  V30 6386 H 589.27 1.17299 4.89132 0
M  V30 6387 H 588.97 2.91643 5.10116 0
M  V30 6388 H 590.494 2.19872 5.69639 0
M  V30 6389 H 591.908 3.90517 4.19725 0
M  V30 6390 H 590.305 4.61128 3.84033 0
M  V30 6391 H 591.375 4.15296 2.50315 0
M  V30 6392 N 592.718 -0.936591 1.26751 0
M  V30 6393 C 593.628 -2.06949 1.10496 0
M  V30 6394 C 594.644 -1.7396 0.037271 0
M  V30 6395 O 595.82 -1.99941 0.241944 0
M  V30 6396 C 592.885 -3.38612 0.744491 0
M  V30 6397 C 591.946 -3.85355 1.89209 0
M  V30 6398 C 591.179 -5.10735 1.54873 0
M  V30 6399 O 591.402 -5.68602 0.452546 0
M  V30 6400 O 590.336 -5.52632 2.38499 0
M  V30 6401 H 594.162 -2.23571 2.05547 0
M  V30 6402 H 591.747 -1.05428 1.05855 0
M  V30 6403 H 593.629 -4.17711 0.556396 0
M  V30 6404 H 592.304 -3.23218 -0.176582 0
M  V30 6405 H 591.211 -3.07182 2.13518 0
M  V30 6406 H 592.544 -4.05277 2.79305 0
M  V30 6407 N 594.196 -1.08629 -1.14182 0
M  V30 6408 C 595.612 -0.814363 -1.3726 0
M  V30 6409 C 595.812 0.575271 -1.93114 0
M  V30 6410 O 594.868 1.33165 -2.1453 0
M  V30 6411 C 596.181 -1.8989 -2.33157 0
M  V30 6412 C 597.729 -1.92518 -2.46791 0
M  V30 6413 C 598.204 -3.00092 -3.45989 0
M  V30 6414 N 599.695 -2.99279 -3.53534 0
M  V30 6415 C 600.43 -3.79158 -4.30147 0
M  V30 6416 N 599.926 -4.68923 -5.09983 0
M  V30 6417 N 601.719 -3.67451 -4.25366 0
M  V30 6418 H 593.87 -1.98232 -0.762758 0
M  V30 6419 H 596.133 -0.860383 -0.398051 0
M  V30 6420 H 595.839 -2.89809 -1.99257 0
M  V30 6421 H 595.713 -1.77013 -3.33086 0
M  V30 6422 H 598.1 -0.932425 -2.79982 0
M  V30 6423 H 598.181 -2.09473 -1.46816 0
M  V30 6424 H 597.825 -3.99575 -3.13532 0
M  V30 6425 H 597.755 -2.80382 -4.45751 0
M  V30 6426 H 600.246 -2.3422 -2.96563 0
M  V30 6427 H 600.559 -5.26475 -5.65724 0
M  V30 6428 H 598.904 -4.72964 -5.09244 0
M  V30 6429 H 602.095 -2.9669 -3.62067 0
M  V30 6430 H 602.268 -4.29944 -4.84822 0
M  V30 6431 N 595.674 1.31259 -0.872281 0
M  V30 6432 C 596.922 1.96233 -0.483409 0
M  V30 6433 C 597.243 1.69276 0.968012 0
M  V30 6434 O 596.513 1.00943 1.67891 0
M  V30 6435 H 595.093 0.726025 -0.175774 0
M  V30 6436 H 597.755 1.60024 -1.11258 0
M  V30 6437 H 596.851 3.05403 -0.643075 0
M  V30 6438 N 597.152 0.631951 1.44375 0
M  V30 6439 C 598.084 -0.110911 2.28931 0
M  V30 6440 C 599.097 -0.808086 1.41329 0
M  V30 6441 O 600.286 -0.669396 1.65473 0
M  V30 6442 C 597.386 -1.17928 3.1772 0
M  V30 6443 C 596.559 -0.564458 4.33743 0
M  V30 6444 C 595.618 -1.5269 5.0356 0
M  V30 6445 O 594.644 -1.04372 5.59549 0
M  V30 6446 N 595.846 -2.86123 5.05088 0
M  V30 6447 H 598.611 0.614758 2.93327 0
M  V30 6448 H 596.172 0.473171 1.54831 0
M  V30 6449 H 598.164 -1.82348 3.61291 0
M  V30 6450 H 596.734 -1.80717 2.55069 0
M  V30 6451 H 595.954 0.258373 3.93352 0
M  V30 6452 H 597.242 -0.134355 5.08623 0
M  V30 6453 H 596.64 -3.27959 4.60933 0
M  V30 6454 H 595.197 -3.45901 5.52445 0
M  V30 6455 N 598.631 -1.53133 0.372548 0
M  V30 6456 C 599.908 -1.93704 -0.271693 0
M  V30 6457 C 600.288 -1.30667 -1.65799 0
M  V30 6458 O 599.636 -0.46838 -2.23648 0
M  V30 6459 C 599.846 -3.47576 -0.314903 0
M  V30 6460 C 601.194 -4.20998 -0.551912 0
M  V30 6461 O 602.218 -3.53994 -0.39582 0
M  V30 6462 O 601.077 -5.39748 -0.85639 0
M  V30 6463 H 598.171 -0.810457 -0.164586 0
M  V30 6464 H 600.717 -1.6427 0.425838 0
M  V30 6465 H 599.489 -3.85749 0.656792 0
M  V30 6466 H 599.112 -3.83264 -1.05804 0
M  V30 6467 N 600.109 -0.101901 -1.5727 0
M  V30 6468 C 601.358 0.559922 -1.93772 0
M  V30 6469 C 601.671 1.68913 -0.98629 0
M  V30 6470 O 602.877 2.41256 -1.24529 0
M  V30 6471 C 601.333 1.04739 -3.44322 0
M  V30 6472 C 600.941 -0.05243 -4.47969 0
M  V30 6473 C 602.685 1.68157 -3.89774 0
M  V30 6474 C 600.592 0.450781 -5.8968 0
M  V30 6475 H 599.522 0.212931 -0.723309 0
M  V30 6476 H 602.173 -0.179001 -1.82625 0
M  V30 6477 H 600.555 1.84021 -3.50645 0
M  V30 6478 H 601.729 -0.828157 -4.53297 0
M  V30 6479 H 600.044 -0.592202 -4.12167 0
M  V30 6480 H 602.641 2.0689 -4.93052 0
M  V30 6481 H 602.984 2.55338 -3.28798 0
M  V30 6482 H 603.517 0.954453 -3.8618 0
M  V30 6483 H 600.256 -0.38458 -6.54371 0
M  V30 6484 H 599.776 1.19336 -5.87809 0
M  V30 6485 H 601.455 0.917555 -6.40461 0
M  V30 6486 N 601.587 1.56661 0.17182 0
M  V30 6487 C 602.534 1.96371 1.21273 0
M  V30 6488 C 603.504 0.82756 1.44016 0
M  V30 6489 O 604.689 1.08764 1.56764 0
M  V30 6490 C 601.829 2.32838 2.54716 0
M  V30 6491 C 600.942 3.59628 2.39356 0
M  V30 6492 C 600.077 3.85311 3.65662 0
M  V30 6493 C 599.116 5.0545 3.45234 0
M  V30 6494 N 598.253 5.27268 4.63608 0
M  V30 6495 H 603.093 2.85106 0.86709 0
M  V30 6496 H 600.63 1.41073 0.416744 0
M  V30 6497 H 602.588 2.52004 3.3249 0
M  V30 6498 H 601.218 1.47214 2.87277 0
M  V30 6499 H 600.27 3.4838 1.52761 0
M  V30 6500 H 601.582 4.4756 2.20207 0
M  V30 6501 H 600.736 4.04841 4.51872 0
M  V30 6502 H 599.475 2.95753 3.8779 0
M  V30 6503 H 598.48 4.85819 2.5741 0
M  V30 6504 H 599.705 5.96538 3.24529 0
M  V30 6505 H 597.651 4.40662 4.85956 0
M  V30 6506 H 597.568 6.09422 4.4737 0
M  V30 6507 H 598.836 5.51277 5.51103 0
M  V30 6508 N 603.065 -0.440357 1.51323 0
M  V30 6509 C 604.311 -1.19181 1.64085 0
M  V30 6510 C 604.644 -1.90936 0.354575 0
M  V30 6511 O 603.919 -1.8347 -0.645675 0
M  V30 6512 C 604.202 -2.2112 2.84215 0
M  V30 6513 C 604.055 -1.53468 4.22809 0
M  V30 6514 C 605.374 -3.22133 2.99864 0
M  V30 6515 H 602.493 -0.431924 0.597169 0
M  V30 6516 H 605.135 -0.481443 1.83799 0
M  V30 6517 H 603.285 -2.81703 2.67537 0
M  V30 6518 H 604.957 -0.962455 4.51148 0
M  V30 6519 H 603.2 -0.837086 4.25647 0
M  V30 6520 H 603.871 -2.27694 5.02852 0
M  V30 6521 H 606.347 -2.71601 3.15233 0
M  V30 6522 H 605.223 -3.90756 3.85488 0
M  V30 6523 H 605.484 -3.88061 2.11804 0
M  V30 6524 N 604.543 -1.41418 -0.695603 0
M  V30 6525 C 605.954 -1.36335 -1.27552 0
M  V30 6526 C 606.305 -0.0464336 -1.96145 0
M  V30 6527 O 605.43 0.855304 -1.9878 0
M  V30 6528 C 606.025 -2.46941 -2.3196 0
M  V30 6529 C 604.584 -2.45256 -2.85529 0
M  V30 6530 C 603.731 -2.2679 -1.59566 0
M  V30 6531 H 606.682 -1.50934 -0.490362 0
M  V30 6532 H 606.703 -2.15997 -3.1325 0
M  V30 6533 H 606.215 -3.42775 -1.82008 0
M  V30 6534 H 604.316 -1.53179 -3.39657 0
M  V30 6535 H 604.429 -3.41565 -3.35961 0
M  V30 6536 H 602.793 -1.74667 -1.85374 0
M  V30 6537 H 603.576 -3.24651 -1.1161 0
M  V30 6538 N 606.021 0.929856 -1.27246 0
M  V30 6539 C 607.432 1.49223 -1.12203 0
M  V30 6540 C 607.783 1.93989 0.293731 0
M  V30 6541 O 606.908 1.80978 1.18642 0
M  V30 6542 C 607.503 2.71198 -2.0307 0
M  V30 6543 C 606.062 3.23666 -1.92139 0
M  V30 6544 C 605.209 1.96409 -1.95752 0
M  V30 6545 H 608.16 0.744181 -1.4017 0
M  V30 6546 H 608.181 3.45905 -1.58524 0
M  V30 6547 H 607.693 2.38585 -3.06102 0
M  V30 6548 H 605.794 3.61042 -0.920834 0
M  V30 6549 H 605.907 3.90006 -2.78267 0
M  V30 6550 H 604.271 2.12806 -1.39949 0
M  V30 6551 H 605.054 1.66113 -3.00436 0
M  V30 6552 N 607.499 1.09233 1.13605 0
M  V30 6553 C 608.91 0.846839 1.6639 0
M  V30 6554 C 609.261 -0.625031 1.85978 0
M  V30 6555 O 608.386 -1.48173 1.57714 0
M  V30 6556 C 608.981 1.5307 3.0225 0
M  V30 6557 C 607.54 1.33223 3.52035 0
M  V30 6558 C 606.687 1.58806 2.27323 0
M  V30 6559 H 609.638 1.25175 0.975541 0
M  V30 6560 H 609.659 0.96267 3.68121 0
M  V30 6561 H 609.171 2.60192 2.87961 0
M  V30 6562 H 607.272 0.282091 3.71531 0
M  V30 6563 H 607.385 2.0657 4.32279 0
M  V30 6564 H 605.749 1.01007 2.33815 0
M  V30 6565 H 606.532 2.67153 2.15602 0
M  V30 6566 N 608.977 -1.30795 0.87923 0
M  V30 6567 C 609.907 -2.30742 0.357796 0
M  V30 6568 C 610.888 -1.60747 -0.556283 0
M  V30 6569 O 612.073 -1.88393 -0.47135 0
M  V30 6570 C 609.203 -3.44583 -0.433555 0
M  V30 6571 C 608.157 -4.26235 0.388251 0
M  V30 6572 C 607.483 -5.32073 -0.529352 0
M  V30 6573 C 608.783 -4.96303 1.62729 0
M  V30 6574 H 610.477 -2.74605 1.19299 0
M  V30 6575 H 608.023 -1.32017 0.575104 0
M  V30 6576 H 609.976 -4.13563 -0.808934 0
M  V30 6577 H 608.7 -2.99511 -1.30234 0
M  V30 6578 H 607.359 -3.58936 0.745695 0
M  V30 6579 H 607.007 -4.83249 -1.39569 0
M  V30 6580 H 606.707 -5.87598 0.0166741 0
M  V30 6581 H 608.231 -6.0391 -0.901373 0
M  V30 6582 H 609.645 -5.5783 1.32283 0
M  V30 6583 H 608.042 -5.61666 2.11309 0
M  V30 6584 H 609.112 -4.22758 2.37494 0
M  V30 6585 N 610.455 -0.639598 -1.44038 0
M  V30 6586 C 611.866 -0.228866 -1.85292 0
M  V30 6587 C 612.217 1.22161 -1.53529 0
M  V30 6588 O 611.342 1.93064 -0.977518 0
M  V30 6589 C 611.937 -0.408592 -3.36327 0
M  V30 6590 C 610.496 -0.0522953 -3.76364 0
M  V30 6591 C 609.643 -0.717959 -2.67844 0
M  V30 6592 H 612.594 -0.844194 -1.34384 0
M  V30 6593 H 612.615 0.349968 -3.78887 0
M  V30 6594 H 612.127 -1.46435 -3.59414 0
M  V30 6595 H 610.228 1.0014 -3.58891 0
M  V30 6596 H 610.341 -0.468261 -4.76806 0
M  V30 6597 H 608.705 -0.152459 -2.54243 0
M  V30 6598 H 609.488 -1.77648 -2.93762 0
M  V30 6599 N 611.933 1.52934 -0.380664 0
M  V30 6600 C 612.865 2.23822 0.493581 0
M  V30 6601 C 613.878 1.25761 1.03383 0
M  V30 6602 O 615.067 1.5189 0.937633 0
M  V30 6603 C 612.167 2.9342 1.69582 0
M  V30 6604 C 611.34 4.18115 1.28445 0
M  V30 6605 C 610.399 4.70788 2.35042 0
M  V30 6606 O 609.425 5.34093 1.96807 0
M  V30 6607 N 610.627 4.49899 3.66839 0
M  V30 6608 H 613.392 2.99484 -0.11371 0
M  V30 6609 H 610.953 1.60577 -0.206587 0
M  V30 6610 H 612.945 3.2556 2.40401 0
M  V30 6611 H 611.515 2.21119 2.20965 0
M  V30 6612 H 610.735 3.92109 0.405503 0
M  V30 6613 H 612.023 4.99152 0.986132 0
M  V30 6614 H 611.421 3.99349 4.0067 0
M  V30 6615 H 609.978 4.86551 4.33718 0
M  V30 6616 N 613.412 0.11024 1.57214 0
M  V30 6617 C 614.659 -0.54987 1.94891 0
M  V30 6618 C 614.987 -1.67243 0.992984 0
M  V30 6619 O 614.242 -1.95694 0.0152703 0
M  V30 6620 C 614.541 -1.13102 3.39032 0
M  V30 6621 C 614.207 -0.130713 4.5071 0
M  V30 6622 C 612.869 0.14437 4.80983 0
M  V30 6623 C 615.221 0.551472 5.18274 0
M  V30 6624 C 612.549 1.10807 5.76141 0
M  V30 6625 C 614.901 1.50375 6.14467 0
M  V30 6626 C 613.565 1.78691 6.43138 0
M  V30 6627 H 612.835 -0.201212 0.713158 0
M  V30 6628 H 615.482 0.189288 1.90562 0
M  V30 6629 H 613.787 -1.94675 3.40013 0
M  V30 6630 H 615.484 -1.64973 3.65493 0
M  V30 6631 H 612.074 -0.355301 4.27125 0
M  V30 6632 H 616.258 0.35211 4.95049 0
M  V30 6633 H 611.514 1.3343 5.96663 0
M  V30 6634 H 615.688 2.03808 6.65909 0
M  V30 6635 H 613.315 2.53522 7.1668 0
M  V30 6636 N 614.89 -1.56749 -0.16351 0
M  V30 6637 C 616.138 -1.82074 -0.87713 0
M  V30 6638 C 616.459 -0.688503 -1.82441 0
M  V30 6639 O 615.729 0.291085 -1.93725 0
M  V30 6640 H 614.309 -0.671677 -0.326893 0
M  V30 6641 H 616.971 -1.9423 -0.161459 0
M  V30 6642 H 616.067 -2.76407 -1.44934 0
M  V30 6643 N 616.368 0.432326 -1.51554 0
M  V30 6644 C 617.315 1.52512 -1.7323 0
M  V30 6645 C 618.285 1.55863 -0.5741 0
M  V30 6646 O 619.47 1.72796 -0.809093 0
M  V30 6647 C 616.61 2.90183 -1.86783 0
M  V30 6648 C 615.723 2.96322 -3.14352 0
M  V30 6649 C 614.858 4.25147 -3.18471 0
M  V30 6650 C 613.897 4.25172 -4.40335 0
M  V30 6651 N 613.034 5.45529 -4.41975 0
M  V30 6652 H 617.874 1.33332 -2.66508 0
M  V30 6653 H 615.411 0.647613 -1.32077 0
M  V30 6654 H 617.369 3.70071 -1.92623 0
M  V30 6655 H 615.999 3.0791 -0.969087 0
M  V30 6656 H 615.051 2.09066 -3.17798 0
M  V30 6657 H 616.363 2.92203 -4.04251 0
M  V30 6658 H 615.517 5.13411 -3.23255 0
M  V30 6659 H 614.256 4.31929 -2.2647 0
M  V30 6660 H 613.261 3.353 -4.35723 0
M  V30 6661 H 614.486 4.20049 -5.33606 0
M  V30 6662 H 612.432 5.53024 -3.52847 0
M  V30 6663 H 612.349 5.43311 -5.25689 0
M  V30 6664 H 613.617 6.35812 -4.50958 0
M  V30 6665 N 617.846 1.41785 0.688094 0
M  V30 6666 C 618.793 1.44221 1.80191 0
M  V30 6667 C 619.763 0.295688 1.63447 0
M  V30 6668 O 620.948 0.49783 1.84191 0
M  V30 6669 C 618.088 1.33743 3.1813 0
M  V30 6670 C 617.201 2.58325 3.46254 0
M  V30 6671 C 616.336 2.40086 4.73848 0
M  V30 6672 C 615.375 3.60107 4.94964 0
M  V30 6673 N 614.512 3.40892 6.13789 0
M  V30 6674 H 619.352 2.39411 1.77444 0
M  V30 6675 H 616.889 1.18876 0.866423 0
M  V30 6676 H 618.847 1.25669 3.97823 0
M  V30 6677 H 617.477 0.42157 3.20035 0
M  V30 6678 H 616.529 2.7682 2.60912 0
M  V30 6679 H 617.841 3.4758 3.57756 0
M  V30 6680 H 616.995 2.29522 5.61609 0
M  V30 6681 H 615.734 1.483 4.64606 0
M  V30 6682 H 614.739 3.71118 4.05649 0
M  V30 6683 H 615.964 4.52857 5.06061 0
M  V30 6684 H 613.91 2.51812 6.05745 0
M  V30 6685 H 613.827 4.23727 6.26092 0
M  V30 6686 H 615.095 3.34114 7.04264 0
M  V30 6687 O 619.363 -0.830368 1.38518 0
M  V30 6688 H 620.054 -1.47302 1.25785 0
M  V30 END ATOM
M  V30 BEGIN BOND
M  V30 END BOND
M  V30 END CTAB
M  END
$$$$
