drugbank_target|P17676 CCAAT/enhancer-binding protein beta (DB04216)
 OpenBabel12092121023D

  0  0  0     0  0            999 V3000
M  V30 BEGIN CTAB
M  V30 COUNTS 5043 5125 0 0 0
M  V30 BEGIN ATOM
M  V30 1 H -0.908 1.98254 -0.117106 0
M  V30 2 N 0 1.576 0 0
M  V30 3 C 0.933 2.03868 1.02534 0
M  V30 4 C 1.911 0.928543 1.3348 0
M  V30 5 O 3.095 1.19667 1.45644 0
M  V30 6 C 0.222 2.43627 2.35294 0
M  V30 7 C -0.732 3.65373 2.2001 0
M  V30 8 S 0.101 5.13292 1.52614 0
M  V30 9 C 1.257 5.56322 2.86805 0
M  V30 10 H 1.49 2.90518 0.631377 0
M  V30 11 H -0.977 1.52953 0.210867 0
M  V30 12 H 0.981 2.67203 3.11629 0
M  V30 13 H -0.358 1.57376 2.7183 0
M  V30 14 H -1.165 3.90944 3.18086 0
M  V30 15 H -1.563 3.418 1.51819 0
M  V30 16 H 0.729 5.58782 3.83104 0
M  V30 17 H 1.672 6.56266 2.65933 0
M  V30 18 H 2.08 4.83886 2.90714 0
M  V30 19 N 1.4781 -0.272755 1.55222 0
M  V30 20 C 2.4101 -1.35946 1.8453 0
M  V30 21 C 3.4231 -1.45525 0.729818 0
M  V30 22 O 4.6121 -1.47337 1.00767 0
M  V30 23 C 1.7121 -2.74069 1.99347 0
M  V30 24 C 0.8851 -2.87079 3.30007 0
M  V30 25 C -0.0559 -4.05879 3.34886 0
M  V30 26 O -1.0299 -3.96626 4.08261 0
M  V30 27 N 0.1721 -5.17857 2.62307 0
M  V30 28 H 2.9371 -1.11149 2.78327 0
M  V30 29 H 0.4981 -0.462869 1.55142 0
M  V30 30 H 2.4901 -3.51838 1.99981 0
M  V30 31 H 1.0601 -2.91688 1.12415 0
M  V30 32 H 0.2801 -1.96193 3.41909 0
M  V30 33 H 1.5681 -2.92701 4.16177 0
M  V30 34 H 0.9661 -5.28261 2.02377 0
M  V30 35 H -0.4769 -5.93855 2.68663 0
M  V30 36 N 2.9562 -1.48159 -0.537278 0
M  V30 37 C 4.3722 -1.34118 -0.865129 0
M  V30 38 C 4.5722 -0.346678 -1.98495 0
M  V30 39 O 3.6282 0.234715 -2.51407 0
M  V30 40 C 4.9412 -2.73963 -1.23954 0
M  V30 41 C 6.4892 -2.82397 -1.34984 0
M  V30 42 C 6.9642 -4.22928 -1.75772 0
M  V30 43 N 8.4552 -4.25566 -1.82887 0
M  V30 44 C 9.1902 -5.31235 -2.15817 0
M  V30 45 N 8.6862 -6.47189 -2.47222 0
M  V30 46 N 10.4792 -5.18624 -2.16761 0
M  V30 47 H 2.6302 -2.1144 0.201715 0
M  V30 48 H 4.8932 -0.947598 0.0275949 0
M  V30 49 H 4.5992 -3.48264 -0.490381 0
M  V30 50 H 4.4732 -3.0702 -2.19132 0
M  V30 51 H 6.8602 -2.08356 -2.08978 0
M  V30 52 H 6.9412 -2.5297 -0.379448 0
M  V30 53 H 6.5852 -4.97482 -1.02341 0
M  V30 54 H 6.5152 -4.49794 -2.73848 0
M  V30 55 H 9.0062 -3.41924 -1.60924 0
M  V30 56 H 9.3192 -7.23564 -2.71433 0
M  V30 57 H 7.6642 -6.50476 -2.44757 0
M  V30 58 H 10.8552 -4.27056 -1.91679 0
M  V30 59 H 11.0282 -6.01078 -2.42093 0
M  V30 60 N 4.4343 0.785586 -1.36625 0
M  V30 61 C 5.3643 1.91259 -1.33949 0
M  V30 62 C 6.3453 1.68795 -0.210325 0
M  V30 63 O 7.5303 1.89854 -0.408561 0
M  V30 64 C 4.6603 3.28339 -1.13186 0
M  V30 65 C 3.6143 3.65335 -2.22967 0
M  V30 66 C 2.9403 5.00806 -1.87342 0
M  V30 67 C 4.2403 3.7352 -3.65075 0
M  V30 68 H 5.9343 1.93755 -2.28253 0
M  V30 69 H 3.4803 0.930788 -1.09874 0
M  V30 70 H 5.4333 4.06804 -1.09948 0
M  V30 71 H 4.1573 3.2624 -0.153332 0
M  V30 72 H 2.8163 2.89169 -2.25337 0
M  V30 73 H 2.4643 4.95233 -0.880545 0
M  V30 74 H 2.1643 5.26529 -2.60846 0
M  V30 75 H 3.6883 5.81687 -1.85667 0
M  V30 76 H 5.1023 4.42168 -3.64911 0
M  V30 77 H 3.4993 4.10731 -4.37516 0
M  V30 78 H 4.5693 2.74527 -3.99703 0
M  V30 79 N 5.9124 1.20967 1.01018 0
M  V30 80 C 7.1584 1.02526 1.74975 0
M  V30 81 C 7.4914 -0.4408 1.89131 0
M  V30 82 O 6.7664 -1.32718 1.42184 0
M  V30 83 C 7.0494 1.71699 3.1653 0
M  V30 84 C 6.9024 3.25791 3.10129 0
M  V30 85 C 8.2214 1.45531 4.15342 0
M  V30 86 H 5.3404 0.373863 0.635134 0
M  V30 87 H 7.9824 1.49071 1.17805 0
M  V30 88 H 6.1324 1.32128 3.65341 0
M  V30 89 H 7.8044 3.74697 2.69072 0
M  V30 90 H 6.0474 3.56363 2.47362 0
M  V30 91 H 6.7184 3.69353 4.10222 0
M  V30 92 H 9.1944 1.79872 3.75213 0
M  V30 93 H 8.0704 1.96453 5.1254 0
M  V30 94 H 8.3314 0.384237 4.40427 0
M  V30 95 N 7.3905 -1.2043 1.01659 0
M  V30 96 C 8.3535 -2.21433 0.591616 0
M  V30 97 C 9.3535 -1.57203 -0.338226 0
M  V30 98 O 10.5435 -1.73737 -0.126918 0
M  V30 99 C 7.6755 -3.40628 -0.136058 0
M  V30 100 H 8.8685 -2.60545 1.48514 0
M  V30 101 H 6.4215 -1.33893 0.806379 0
M  V30 102 H 7.1565 -3.07019 -1.04449 0
M  V30 103 H 6.9415 -3.88475 0.531917 0
M  V30 104 H 8.4315 -4.15475 -0.420735 0
M  V30 105 N 8.8686 -0.792821 -1.36206 0
M  V30 106 C 10.1146 -0.376415 -1.99887 0
M  V30 107 C 10.4696 1.04127 -1.61788 0
M  V30 108 O 9.7626 1.71004 -0.864193 0
M  V30 109 C 9.9566 -0.481501 -3.54142 0
M  V30 110 C 9.7856 -1.90786 -4.07223 0
M  V30 111 C 8.5556 -2.53322 -4.37214 0
M  V30 112 C 10.7536 -2.87048 -4.26741 0
M  V30 113 N 8.7356 -3.8751 -4.7614 0
M  V30 114 C 10.1066 -4.06077 -4.6851 0
M  V30 115 C 12.1616 -2.8406 -4.08918 0
M  V30 116 C 10.8646 -5.22532 -4.94321 0
M  V30 117 C 12.8906 -3.99705 -4.35878 0
M  V30 118 C 12.2526 -5.1748 -4.77906 0
M  V30 119 H 8.3516 -0.185226 -0.759747 0
M  V30 120 H 10.9356 -1.03114 -1.65153 0
M  V30 121 H 9.1066 0.143154 -3.88136 0
M  V30 122 H 10.8386 -0.0410128 -4.04679 0
M  V30 123 H 7.5936 -2.04777 -4.2704 0
M  V30 124 H 8.0176 -4.5656 -4.99882 0
M  V30 125 H 12.6596 -1.94165 -3.75579 0
M  V30 126 H 10.3776 -6.1301 -5.2654 0
M  V30 127 H 13.9636 -3.98758 -4.23655 0
M  V30 128 H 12.8436 -6.05478 -4.98363 0
M  V30 129 N 10.3467 1.47872 -0.545128 0
M  V30 130 C 11.6237 1.9554 0.0485222 0
M  V30 131 C 12.0037 1.4876 1.49779 0
M  V30 132 O 11.3517 0.720925 2.16829 0
M  V30 133 C 11.5617 3.48898 -0.084417 0
M  V30 134 C 12.9097 4.24547 0.0671239 0
M  V30 135 O 13.9337 3.56198 -0.0113649 0
M  V30 136 O 12.7927 5.45999 0.233882 0
M  V30 137 H 9.8867 0.823957 0.0708773 0
M  V30 138 H 12.4327 1.58327 -0.610798 0
M  V30 139 H 11.2047 3.75714 -1.09337 0
M  V30 140 H 10.8277 3.92845 0.613066 0
M  V30 141 N 11.8248 0.280983 1.55075 0
M  V30 142 C 13.2358 -0.215629 1.85451 0
M  V30 143 C 13.5868 -1.54991 1.203 0
M  V30 144 O 12.7118 -2.10699 0.493435 0
M  V30 145 C 13.3068 -0.398026 3.36454 0
M  V30 146 C 11.8658 -0.838866 3.66933 0
M  V30 147 C 11.0128 0.064458 2.77225 0
M  V30 148 H 13.9638 0.502601 1.50531 0
M  V30 149 H 13.9848 -1.23569 3.59876 0
M  V30 150 H 13.4968 0.573241 3.83843 0
M  V30 151 H 11.5978 -1.8214 3.25048 0
M  V30 152 H 11.7108 -0.672123 4.74362 0
M  V30 153 H 10.0748 -0.452863 2.50642 0
M  V30 154 H 10.8578 1.03172 3.2743 0
M  V30 155 N 13.3029 -1.57598 0.00835791 0
M  V30 156 C 14.2659 -2.07884 -0.965242 0
M  V30 157 C 15.2659 -0.989825 -1.26725 0
M  V30 158 O 16.4559 -1.25218 -1.21104 0
M  V30 159 C 13.5879 -2.52731 -2.28779 0
M  V30 160 H 14.7809 -2.95178 -0.530112 0
M  V30 161 H 12.3339 -1.54458 -0.239283 0
M  V30 162 H 13.0689 -1.68705 -2.76964 0
M  V30 163 H 12.8539 -3.32272 -2.08177 0
M  V30 164 H 14.3439 -2.91933 -2.98605 0
M  V30 165 N 14.781 0.264519 -1.55364 0
M  V30 166 C 16.021 1.00254 -1.78125 0
M  V30 167 C 16.385 1.83187 -0.575017 0
M  V30 168 O 17.586 2.60029 -0.681042 0
M  V30 169 C 15.857 1.85478 -3.05504 0
M  V30 170 S 17.416 2.6543 -3.49417 0
M  V30 171 H 14.234 0.337522 -0.625779 0
M  V30 172 H 16.836 0.272111 -1.93597 0
M  V30 173 H 15.54 1.23491 -3.9138 0
M  V30 174 H 15.071 2.62827 -2.92721 0
M  V30 175 H 17.086 3.87958 -3.09359 0
M  V30 176 N 16.2591 1.48442 0.529413 0
M  V30 177 C 17.1891 1.65902 1.64313 0
M  V30 178 C 18.1701 0.507897 1.6234 0
M  V30 179 O 19.3551 0.740503 1.79528 0
M  V30 180 C 16.4851 1.69911 3.02898 0
M  V30 181 C 15.4391 2.8453 3.19729 0
M  V30 182 C 14.7651 2.73629 4.59381 0
M  V30 183 C 16.0651 4.25821 3.02447 0
M  V30 184 H 17.7591 2.5914 1.49955 0
M  V30 185 H 15.3051 1.24709 0.719982 0
M  V30 186 H 17.2581 1.80715 3.80684 0
M  V30 187 H 15.9821 0.732524 3.18279 0
M  V30 188 H 14.6411 2.73283 2.44361 0
M  V30 189 H 14.2891 1.74938 4.71599 0
M  V30 190 H 13.9891 3.50541 4.71588 0
M  V30 191 H 15.5131 2.86401 5.39265 0
M  V30 192 H 16.9271 4.37898 3.70024 0
M  V30 193 H 15.3241 5.03735 3.26146 0
M  V30 194 H 16.3941 4.42244 1.98867 0
M  V30 195 N 17.7372 -0.778329 1.37039 0
M  V30 196 C 19.1482 -1.35421 1.28523 0
M  V30 197 C 19.4992 -1.96075 -0.0700901 0
M  V30 198 O 18.6242 -1.93352 -0.971801 0
M  V30 199 C 19.2192 -2.46211 2.32735 0
M  V30 200 C 17.7782 -2.99585 2.27873 0
M  V30 201 C 16.9252 -1.72748 2.16918 0
M  V30 202 H 19.8762 -0.5791 1.47757 0
M  V30 203 H 19.8972 -3.2552 1.9702 0
M  V30 204 H 19.4092 -2.02036 3.31365 0
M  V30 205 H 17.5102 -3.48152 1.32745 0
M  V30 206 H 17.6232 -3.55646 3.21018 0
M  V30 207 H 15.9872 -1.95416 1.63354 0
M  V30 208 H 16.7702 -1.30686 3.17452 0
M  V30 209 N 19.2153 -1.21501 -1.00376 0
M  V30 210 C 20.1453 -0.999478 -2.11028 0
M  V30 211 C 21.1263 0.0759671 -1.6993 0
M  V30 212 O 22.3113 -0.0841106 -1.94018 0
M  V30 213 C 19.4413 -0.564709 -3.42678 0
M  V30 214 C 18.3953 -1.58486 -3.97576 0
M  V30 215 C 17.7213 -1.00628 -5.25146 0
M  V30 216 C 19.0213 -2.97204 -4.29496 0
M  V30 217 H 20.7153 -1.92495 -2.29317 0
M  V30 218 H 18.2613 -0.92693 -1.102 0
M  V30 219 H 20.2143 -0.401091 -4.19487 0
M  V30 220 H 18.9383 0.396411 -3.24185 0
M  V30 221 H 17.5973 -1.73606 -3.22888 0
M  V30 222 H 17.2453 -0.0368439 -5.02987 0
M  V30 223 H 16.9453 -1.68771 -5.62841 0
M  V30 224 H 18.4693 -0.854015 -6.04598 0
M  V30 225 H 19.8833 -2.8552 -4.97143 0
M  V30 226 H 18.2803 -3.62372 -4.78338 0
M  V30 227 H 19.3503 -3.47956 -3.3772 0
M  V30 228 N 20.6934 1.19889 -1.02296 0
M  V30 229 C 22.1044 1.71124 -0.746568 0
M  V30 230 C 22.4554 1.81939 0.734335 0
M  V30 231 O 21.5804 1.48639 1.57275 0
M  V30 232 C 22.1754 3.10804 -1.34857 0
M  V30 233 C 20.7344 3.59323 -1.1209 0
M  V30 234 C 19.8814 2.3635 -1.45031 0
M  V30 235 H 22.8324 1.04813 -1.19163 0
M  V30 236 H 22.8534 3.73186 -0.742437 0
M  V30 237 H 22.3654 3.029 -2.42638 0
M  V30 238 H 20.4664 3.7255 -0.0610337 0
M  V30 239 H 20.5794 4.4378 -1.80544 0
M  V30 240 H 18.9434 2.39399 -0.869487 0
M  V30 241 H 19.7264 2.31081 -2.53883 0
M  V30 242 N 22.1715 0.800033 1.35784 0
M  V30 243 C 23.5825 0.439142 1.81462 0
M  V30 244 C 23.9335 -1.03813 1.66485 0
M  V30 245 O 23.0585 -1.80626 1.19177 0
M  V30 246 C 23.6535 0.790314 3.29453 0
M  V30 247 C 22.2125 0.482111 3.733 0
M  V30 248 C 21.3595 1.01938 2.57883 0
M  V30 249 H 24.3105 0.992254 1.23855 0
M  V30 250 H 24.3315 0.0853677 3.80404 0
M  V30 251 H 23.8435 1.86554 3.40322 0
M  V30 252 H 21.9445 -0.584652 3.67984 0
M  V30 253 H 22.0575 1.01015 4.6833 0
M  V30 254 H 20.4215 0.442043 2.50835 0
M  V30 255 H 21.2045 2.10059 2.71533 0
M  V30 256 N 23.6496 -1.47581 0.552962 0
M  V30 257 C 25.0606 -1.86324 0.118463 0
M  V30 258 C 25.4116 -1.46006 -1.3106 0
M  V30 259 O 24.5366 -0.861182 -1.98526 0
M  V30 260 C 25.1316 -3.3816 0.20821 0
M  V30 261 C 23.6906 -3.7601 -0.171226 0
M  V30 262 C 22.8376 -2.71634 0.557686 0
M  V30 263 H 25.7886 -1.39159 0.762928 0
M  V30 264 H 25.8096 -3.76141 -0.574278 0
M  V30 265 H 25.3216 -3.67473 1.24841 0
M  V30 266 H 23.4226 -3.52313 -1.21269 0
M  V30 267 H 23.5356 -4.78745 0.184379 0
M  V30 268 H 21.8996 -2.547 0.00125792 0
M  V30 269 H 22.6826 -3.0379 1.59896 0
M  V30 270 N 25.1277 -0.289203 -1.54924 0
M  V30 271 C 26.5387 0.205791 -1.85562 0
M  V30 272 C 26.8897 1.54351 -1.2112 0
M  V30 273 O 26.0147 2.10435 -0.504601 0
M  V30 274 C 26.6097 0.380177 -3.3666 0
M  V30 275 C 25.1687 0.819395 -3.67373 0
M  V30 276 C 24.3157 -0.079159 -2.77187 0
M  V30 277 H 27.2667 -0.510577 -1.50262 0
M  V30 278 H 27.2877 1.21659 -3.60526 0
M  V30 279 H 26.7997 -0.593589 -3.83534 0
M  V30 280 H 24.9007 1.80413 -3.26009 0
M  V30 281 H 25.0137 0.646957 -4.74712 0
M  V30 282 H 23.3777 0.439565 -2.50878 0
M  V30 283 H 24.1607 -1.04906 -3.26878 0
M  V30 284 N 26.6058 1.57591 -0.0167156 0
M  V30 285 C 28.0168 1.79201 0.523834 0
M  V30 286 C 28.3678 0.925796 1.72984 0
M  V30 287 O 27.4928 0.132792 2.15992 0
M  V30 288 C 28.0878 3.25 0.957091 0
M  V30 289 C 26.6468 3.47648 1.44283 0
M  V30 290 C 25.7938 2.74374 0.401757 0
M  V30 291 H 28.7448 1.56831 -0.242816 0
M  V30 292 H 28.7658 3.34031 1.82219 0
M  V30 293 H 28.2778 3.88019 0.0791415 0
M  V30 294 H 26.3788 2.89866 2.34113 0
M  V30 295 H 26.4918 4.56352 1.45877 0
M  V30 296 H 24.8558 2.39485 0.867121 0
M  V30 297 H 25.6388 3.40102 -0.467513 0
M  V30 298 N 28.0839 -0.256276 1.55502 0
M  V30 299 C 29.0469 -1.30047 1.88734 0
M  V30 300 C 30.0469 -1.4154 0.763086 0
M  V30 301 O 31.2369 -1.40403 1.03115 0
M  V30 302 C 28.3689 -2.67953 2.10747 0
M  V30 303 H 29.5619 -1.01802 2.82093 0
M  V30 304 H 27.1149 -0.495134 1.4825 0
M  V30 305 H 27.8499 -3.01351 1.19825 0
M  V30 306 H 27.6349 -2.60993 2.92617 0
M  V30 307 H 29.1249 -3.43368 2.37673 0
M  V30 308 N 29.562 -1.4872 -0.521534 0
M  V30 309 C 30.809 -1.57168 -1.27689 0
M  V30 310 C 31.137 -0.249275 -1.92896 0
M  V30 311 O 30.392 0.761162 -1.80291 0
M  V30 312 C 30.691 -2.66497 -2.38148 0
M  V30 313 C 30.357 -4.08664 -1.90538 0
M  V30 314 C 29.019 -4.47357 -1.77271 0
M  V30 315 C 31.371 -4.97724 -1.54663 0
M  V30 316 C 28.699 -5.72905 -1.26478 0
M  V30 317 C 31.051 -6.2377 -1.05329 0
M  V30 318 C 29.715 -6.61311 -0.906861 0
M  V30 319 H 28.985 -0.575117 -0.467249 0
M  V30 320 H 31.632 -1.82472 -0.581051 0
M  V30 321 H 29.937 -2.35085 -3.13437 0
M  V30 322 H 31.634 -2.70246 -2.96257 0
M  V30 323 H 28.224 -3.78111 -2.01816 0
M  V30 324 H 32.408 -4.68501 -1.63768 0
M  V30 325 H 27.664 -6.00709 -1.13835 0
M  V30 326 H 31.838 -6.9217 -0.76644 0
M  V30 327 H 29.465 -7.5848 -0.511083 0
M  V30 328 N 31.0401 0.771051 -1.3745 0
M  V30 329 C 31.9871 1.88435 -1.3327 0
M  V30 330 C 32.9571 1.64914 -0.198136 0
M  V30 331 O 34.1421 1.86821 -0.387606 0
M  V30 332 C 31.2821 3.25509 -1.14622 0
M  V30 333 C 30.3951 3.60979 -2.37314 0
M  V30 334 C 29.5301 4.87265 -2.11533 0
M  V30 335 C 28.5691 5.15469 -3.30088 0
M  V30 336 N 27.7061 6.32944 -3.03853 0
M  V30 337 H 32.5461 1.91344 -2.28455 0
M  V30 338 H 30.0831 0.935466 -1.13523 0
M  V30 339 H 32.0411 4.04582 -1.01831 0
M  V30 340 H 30.6711 3.21974 -0.230837 0
M  V30 341 H 29.7231 2.76885 -2.60842 0
M  V30 342 H 31.0351 3.77759 -3.25729 0
M  V30 343 H 30.1891 5.74244 -1.95777 0
M  V30 344 H 28.9281 4.7259 -1.20457 0
M  V30 345 H 27.9331 4.26966 -3.46382 0
M  V30 346 H 29.1581 5.32052 -4.22016 0
M  V30 347 H 27.1041 6.19625 -2.15407 0
M  V30 348 H 27.0211 6.50143 -3.85812 0
M  V30 349 H 28.2891 7.22857 -2.91716 0
M  V30 350 N 32.5182 1.22032 0.997298 0
M  V30 351 C 33.7432 1.06921 1.77715 0
M  V30 352 C 34.1682 -0.376226 1.84299 0
M  V30 353 O 33.5262 -1.27165 1.29223 0
M  V30 354 C 33.5742 1.67996 3.19076 0
M  V30 355 O 32.6782 0.930653 4.01762 0
M  V30 356 H 32.0192 0.375814 0.547412 0
M  V30 357 H 34.5492 1.61737 1.25309 0
M  V30 358 H 34.5592 1.72538 3.69723 0
M  V30 359 H 33.2342 2.73182 3.13599 0
M  V30 360 H 31.8112 0.960917 3.60307 0
M  V30 361 N 33.9963 -1.19345 1.0293 0
M  V30 362 C 34.9293 -2.21347 0.555029 0
M  V30 363 C 35.9073 -1.57492 -0.404351 0
M  V30 364 O 37.0913 -1.85741 -0.321352 0
M  V30 365 C 34.2183 -3.38163 -0.19064 0
M  V30 366 C 33.2643 -4.20375 0.720236 0
M  V30 367 S 34.0973 -4.88371 2.19668 0
M  V30 368 C 35.2533 -6.08597 1.46153 0
M  V30 369 H 35.4863 -2.61235 1.41929 0
M  V30 370 H 33.0193 -1.29598 0.839272 0
M  V30 371 H 34.9773 -4.05871 -0.614724 0
M  V30 372 H 33.6383 -2.9671 -1.03063 0
M  V30 373 H 32.8313 -5.03793 0.14455 0
M  V30 374 H 32.4333 -3.57987 1.08266 0
M  V30 375 H 34.7253 -6.73354 0.748357 0
M  V30 376 H 35.6683 -6.7065 2.27233 0
M  V30 377 H 36.0763 -5.56297 0.958842 0
M  V30 378 N 35.4744 -0.807222 -1.35358 0
M  V30 379 C 36.3844 -0.219594 -2.3357 0
M  V30 380 C 37.4004 0.637734 -1.61892 0
M  V30 381 O 38.5764 0.549336 -1.93763 0
M  V30 382 C 35.6414 0.62158 -3.41083 0
M  V30 383 C 34.7024 -0.256315 -4.28534 0
M  V30 384 C 33.9354 0.544807 -5.30912 0
M  V30 385 O 34.1584 1.77944 -5.41934 0
M  V30 386 O 33.0924 -0.0646478 -6.01865 0
M  V30 387 H 36.9184 -1.03208 -2.85625 0
M  V30 388 H 34.5034 -0.569025 -1.38139 0
M  V30 389 H 36.3854 1.10067 -4.06772 0
M  V30 390 H 35.0604 1.41165 -2.91297 0
M  V30 391 H 33.9674 -0.782559 -3.65823 0
M  V30 392 H 35.3004 -1.01034 -4.81719 0
M  V30 393 N 36.9525 1.47285 -0.560781 0
M  V30 394 C 38.1985 2.02764 -0.0381184 0
M  V30 395 C 38.5315 1.43384 1.30976 0
M  V30 396 O 37.8065 0.590733 1.85312 0
M  V30 397 C 38.0895 3.60064 0.0511427 0
M  V30 398 C 37.9425 4.2987 -1.32408 0
M  V30 399 C 39.2615 4.33439 0.762795 0
M  V30 400 H 36.3805 0.736841 -0.0153264 0
M  V30 401 H 39.0225 1.75675 -0.723759 0
M  V30 402 H 37.1725 3.83274 0.635065 0
M  V30 403 H 38.8445 4.17989 -1.95148 0
M  V30 404 H 37.0875 3.90085 -1.8978 0
M  V30 405 H 37.7585 5.38478 -1.21431 0
M  V30 406 H 40.2345 4.15243 0.266965 0
M  V30 407 H 39.1105 5.43124 0.794221 0
M  V30 408 H 39.3715 4.02915 1.81966 0
M  V30 409 N 38.4306 0.297415 1.54768 0
M  V30 410 C 39.3936 -0.567375 2.22066 0
M  V30 411 C 40.3936 -1.06409 1.20556 0
M  V30 412 O 41.5836 -0.960691 1.45315 0
M  V30 413 C 38.7156 -1.78517 2.90421 0
M  V30 414 H 39.9086 0.0205534 2.99893 0
M  V30 415 H 37.4616 0.0482163 1.56226 0
M  V30 416 H 38.1966 -2.41303 2.16664 0
M  V30 417 H 37.9816 -1.43669 3.64831 0
M  V30 418 H 39.4716 -2.39964 3.41771 0
M  V30 419 N 39.9087 -1.5758 0.0250728 0
M  V30 420 C 40.8567 -2.11125 -0.97617 0
M  V30 421 C 41.8507 -1.03689 -1.33959 0
M  V30 422 O 43.0567 -1.22128 -1.3223 0
M  V30 423 H 39.4317 -0.674468 -0.332561 0
M  V30 424 H 41.4027 -2.94194 -0.499223 0
M  V30 425 C 40.1517 -2.65017 -2.2508 0
M  V30 426 H 39.4747 -3.47333 -1.9799 0
M  V30 427 H 40.9147 -3.06133 -2.93357 0
M  V30 428 C 39.3737 -1.57574 -2.97779 0
M  V30 429 O 39.9037 -0.973203 -3.89733 0
M  V30 430 N 38.1097 -1.29716 -2.60043 0
M  V30 431 H 37.6567 -1.789 -1.85345 0
M  V30 432 H 37.6147 -0.58051 -3.08994 0
M  V30 433 N 41.3868 0.248026 -1.55636 0
M  V30 434 C 42.6338 0.976224 -1.77415 0
M  V30 435 C 42.9618 1.85361 -0.589193 0
M  V30 436 O 42.2168 1.90973 0.427529 0
M  V30 437 C 42.5158 1.86819 -3.04686 0
M  V30 438 C 42.1818 1.14625 -4.36087 0
M  V30 439 C 40.8438 0.946723 -4.71795 0
M  V30 440 C 43.1958 0.634463 -5.17324 0
M  V30 441 C 40.5238 0.223091 -5.86276 0
M  V30 442 C 42.8758 -0.0756959 -6.32555 0
M  V30 443 C 41.5398 -0.286711 -6.66884 0
M  V30 444 H 40.8098 0.357226 -0.649208 0
M  V30 445 H 43.4568 0.246415 -1.89908 0
M  V30 446 H 41.7618 2.66502 -2.872 0
M  V30 447 H 43.4588 2.43329 -3.18735 0
M  V30 448 H 40.0488 1.3117 -4.08035 0
M  V30 449 H 44.2328 0.77616 -4.90193 0
M  V30 450 H 39.4888 0.0491185 -6.1138 0
M  V30 451 H 43.6628 -0.479899 -6.94745 0
M  V30 452 H 41.2898 -0.849389 -7.5544 0
M  V30 453 N 42.8649 1.48995 0.513639 0
M  V30 454 C 44.0949 1.61297 1.291 0
M  V30 455 C 44.5029 0.278656 1.87137 0
M  V30 456 O 43.8459 -0.744325 1.67945 0
M  V30 457 C 43.9079 2.61326 2.46879 0
M  V30 458 C 43.5719 4.05993 2.09807 0
M  V30 459 C 44.5689 4.93183 1.64519 0
M  V30 460 C 42.2539 4.51642 2.19829 0
M  V30 461 C 44.2479 6.24056 1.2974 0
M  V30 462 C 41.9349 5.82532 1.84662 0
M  V30 463 C 42.9329 6.68562 1.3969 0
M  V30 464 O 42.6209 7.97014 1.04992 0
M  V30 465 H 42.3529 0.546236 0.39825 0
M  V30 466 H 44.9069 1.95673 0.62459 0
M  V30 467 H 43.1369 2.22104 3.16554 0
M  V30 468 H 44.8259 2.6329 3.08923 0
M  V30 469 H 45.5919 4.59147 1.56233 0
M  V30 470 H 41.4709 3.84855 2.53786 0
M  V30 471 H 45.0149 6.91161 0.945659 0
M  V30 472 H 40.9119 6.16099 1.92594 0
M  V30 473 H 41.6799 8.09913 1.18249 0
M  V30 474 N 44.343 -0.763751 1.37857 0
M  V30 475 C 45.573 -1.55067 1.3652 0
M  V30 476 C 45.981 -1.89135 -0.0494227 0
M  V30 477 O 45.324 -1.52529 -1.02375 0
M  V30 478 C 45.386 -2.8838 2.14656 0
M  V30 479 C 45.05 -2.76905 3.63555 0
M  V30 480 C 46.047 -2.4739 4.57268 0
M  V30 481 C 43.732 -2.94676 4.06781 0
M  V30 482 C 45.726 -2.35786 5.92186 0
M  V30 483 C 43.413 -2.82692 5.41782 0
M  V30 484 C 44.411 -2.53289 6.34298 0
M  V30 485 O 44.099 -2.41345 7.66817 0
M  V30 486 H 43.831 -0.486776 0.469069 0
M  V30 487 H 46.385 -0.953812 1.81911 0
M  V30 488 H 44.615 -3.50217 1.63967 0
M  V30 489 H 46.304 -3.49828 2.05852 0
M  V30 490 H 47.07 -2.33339 4.2518 0
M  V30 491 H 42.949 -3.16563 3.35126 0
M  V30 492 H 46.493 -2.12757 6.64365 0
M  V30 493 H 42.39 -2.96314 5.7347 0
M  V30 494 H 43.158 -2.56634 7.77226 0
M  V30 495 N 45.8211 -1.22559 -0.990812 0
M  V30 496 C 46.7311 -1.01394 -2.11557 0
M  V30 497 C 47.7471 0.0383962 -1.73958 0
M  V30 498 O 48.9231 -0.154787 -2.00804 0
M  V30 499 C 45.9881 -0.596569 -3.41529 0
M  V30 500 C 45.0491 -1.72276 -3.93217 0
M  V30 501 C 44.2821 -1.32521 -5.16985 0
M  V30 502 O 44.5051 -0.204909 -5.70032 0
M  V30 503 O 43.4391 -2.14247 -5.62478 0
M  V30 504 H 47.2651 -1.95633 -2.32296 0
M  V30 505 H 44.8501 -1.01172 -1.0993 0
M  V30 506 H 46.7321 -0.374263 -4.19735 0
M  V30 507 H 45.4071 0.316939 -3.22145 0
M  V30 508 H 44.3141 -1.99961 -3.16174 0
M  V30 509 H 45.6471 -2.61421 -4.17037 0
M  V30 510 N 47.2992 1.18797 -1.03562 0
M  V30 511 C 48.2622 2.20464 -0.626769 0
M  V30 512 C 49.2622 1.57721 0.313173 0
M  V30 513 O 50.4522 1.73917 0.0992615 0
M  V30 514 C 47.5842 3.40802 0.0818498 0
M  V30 515 H 48.7772 2.58149 -1.5264 0
M  V30 516 H 46.3302 1.32593 -0.827578 0
M  V30 517 H 47.0652 3.08642 0.995518 0
M  V30 518 H 46.8502 3.8758 -0.593652 0
M  V30 519 H 48.3402 4.16092 0.354584 0
M  V30 520 N 48.7773 0.814389 1.34928 0
M  V30 521 C 50.0543 0.321363 1.92942 0
M  V30 522 C 50.4343 -1.19014 1.74353 0
M  V30 523 O 49.7823 -1.99328 1.11716 0
M  V30 524 C 49.9923 0.741323 3.41036 0
M  V30 525 C 51.3403 0.735266 4.18185 0
M  V30 526 O 52.3643 0.68336 3.49584 0
M  V30 527 O 51.2233 0.800703 5.40602 0
M  V30 528 H 48.3173 0.0858893 0.822528 0
M  V30 529 H 50.8633 0.898609 1.43955 0
M  V30 530 H 49.6353 1.78276 3.4833 0
M  V30 531 H 49.2583 0.139307 3.97356 0
M  V30 532 N 50.2554 -1.46986 0.568584 0
M  V30 533 C 51.4954 -2.04336 0.0512999 0
M  V30 534 C 51.8594 -1.43214 -1.27881 0
M  V30 535 O 53.0604 -1.91679 -1.88448 0
M  V30 536 C 51.3314 -3.57389 -0.0282328 0
M  V30 537 S 52.8904 -4.36056 -0.489991 0
M  V30 538 H 49.7084 -0.71034 0.0306349 0
M  V30 539 H 52.3104 -1.80212 0.757891 0
M  V30 540 H 51.0144 -3.99395 0.944011 0
M  V30 541 H 50.5454 -3.86028 -0.75803 0
M  V30 542 H 52.5604 -4.6441 -1.74752 0
M  V30 543 N 51.7335 -0.305618 -1.54608 0
M  V30 544 C 52.6635 0.561482 -2.26649 0
M  V30 545 C 53.6445 1.13415 -1.26772 0
M  V30 546 O 54.8295 1.16262 -1.55553 0
M  V30 547 C 51.9595 1.73122 -3.01075 0
M  V30 548 C 50.9135 1.2887 -4.08138 0
M  V30 549 C 50.2395 2.54396 -4.70305 0
M  V30 550 C 51.5395 0.416578 -5.20636 0
M  V30 551 H 53.2335 -0.0393902 -2.99374 0
M  V30 552 H 50.7795 -0.020385 -1.43986 0
M  V30 553 H 52.7325 2.34396 -3.50195 0
M  V30 554 H 51.4565 2.3584 -2.25936 0
M  V30 555 H 50.1155 0.698991 -3.59875 0
M  V30 556 H 49.7635 3.15439 -3.918 0
M  V30 557 H 49.4635 2.25486 -5.42614 0
M  V30 558 H 50.9875 3.16464 -5.2219 0
M  V30 559 H 52.4015 0.935116 -5.65622 0
M  V30 560 H 50.7985 0.221046 -5.99693 0
M  V30 561 H 51.8685 -0.557162 -4.81688 0
M  V30 562 N 53.2116 1.57565 -0.0334293 0
M  V30 563 C 54.1746 2.09393 0.932048 0
M  V30 564 C 55.1746 1.00986 1.25134 0
M  V30 565 O 56.3646 1.27129 1.19096 0
M  V30 566 C 53.4966 2.56338 2.2473 0
M  V30 567 H 54.6896 2.95984 0.483085 0
M  V30 568 H 52.2426 1.54819 0.21468 0
M  V30 569 H 52.9776 1.7309 2.74245 0
M  V30 570 H 52.7626 3.35542 2.02865 0
M  V30 571 H 54.2526 2.96646 2.93923 0
M  V30 572 N 54.6897 -0.239769 1.55765 0
M  V30 573 C 55.6527 -1.28038 1.90103 0
M  V30 574 C 56.6527 -1.40723 0.778055 0
M  V30 575 O 57.8427 -1.39301 1.04599 0
M  V30 576 C 54.9747 -2.65702 2.13577 0
M  V30 577 H 56.1677 -0.988048 2.83157 0
M  V30 578 H 53.7207 -0.479382 1.48767 0
M  V30 579 H 54.4557 -3.00063 1.23015 0
M  V30 580 H 54.2407 -2.57875 2.95369 0
M  V30 581 H 55.7307 -3.40828 2.41301 0
M  V30 582 N 56.1678 -1.49265 -0.50573 0
M  V30 583 C 57.1308 -1.65075 -1.59006 0
M  V30 584 C 58.1308 -0.522768 -1.52065 0
M  V30 585 O 59.3208 -0.789117 -1.55302 0
M  V30 586 C 56.4528 -1.64369 -2.98656 0
M  V30 587 H 57.6458 -2.61784 -1.46319 0
M  V30 588 H 55.1988 -1.38226 -0.729616 0
M  V30 589 H 55.9338 -0.692272 -3.16825 0
M  V30 590 H 55.7188 -2.46282 -3.05103 0
M  V30 591 H 57.2088 -1.78674 -3.77446 0
M  V30 592 N 57.6459 0.756429 -1.3826 0
M  V30 593 C 58.8759 1.54341 -1.3734 0
M  V30 594 C 59.2839 1.89159 0.0393917 0
M  V30 595 O 58.6269 1.5307 1.01565 0
M  V30 596 C 58.6889 2.87238 -2.16182 0
M  V30 597 C 58.3529 2.74973 -3.65019 0
M  V30 598 C 59.3499 2.44962 -4.58574 0
M  V30 599 C 57.0349 2.92515 -4.08338 0
M  V30 600 C 59.0289 2.32642 -5.93428 0
M  V30 601 C 56.7159 2.79815 -5.43274 0
M  V30 602 C 57.7139 2.49921 -6.35632 0
M  V30 603 O 57.4019 2.37275 -7.68086 0
M  V30 604 H 57.1339 0.484281 -0.471643 0
M  V30 605 H 59.6879 0.944152 -1.82414 0
M  V30 606 H 57.9179 3.49342 -1.65822 0
M  V30 607 H 59.6069 3.48731 -2.07705 0
M  V30 608 H 60.3729 2.31081 -4.26412 0
M  V30 609 H 56.2519 3.14781 -3.368 0
M  V30 610 H 59.7959 2.0923 -6.65484 0
M  V30 611 H 55.6929 2.93269 -5.75034 0
M  V30 612 H 56.4609 2.52509 -7.78577 0
M  V30 613 N 59.124 1.23083 0.984299 0
M  V30 614 C 60.372 1.05848 1.72165 0
M  V30 615 C 60.693 -0.406049 1.90726 0
M  V30 616 O 59.963 -1.29139 1.47309 0
M  V30 617 H 58.543 0.388685 0.637913 0
M  V30 618 H 61.205 1.54736 1.18503 0
M  V30 619 H 60.301 1.54327 2.71274 0
M  V30 620 N 60.6021 -1.18246 1.0419 0
M  V30 621 C 61.8501 -1.87886 0.744543 0
M  V30 622 C 62.1711 -1.8082 -0.730006 0
M  V30 623 O 61.4411 -1.22736 -1.52685 0
M  V30 624 H 60.0211 -0.695556 0.272417 0
M  V30 625 H 62.6831 -1.43494 1.31892 0
M  V30 626 H 61.7791 -2.9389 1.05049 0
M  V30 627 N 62.0802 -0.821533 -1.34494 0
M  V30 628 C 63.0272 -0.240397 -2.29545 0
M  V30 629 C 63.9972 0.634031 -1.53523 0
M  V30 630 O 65.1822 0.575966 -1.81899 0
M  V30 631 C 62.3222 0.592869 -3.39969 0
M  V30 632 C 61.4352 -0.30365 -4.30932 0
M  V30 633 C 60.5702 0.539049 -5.28458 0
M  V30 634 C 59.6092 -0.356942 -6.11058 0
M  V30 635 N 58.7462 0.446603 -7.00678 0
M  V30 636 H 63.5862 -1.05632 -2.7865 0
M  V30 637 H 61.1232 -0.532413 -1.37127 0
M  V30 638 H 63.0812 1.09129 -4.02675 0
M  V30 639 H 61.7112 1.37392 -2.92102 0
M  V30 640 H 60.7632 -0.920276 -3.691 0
M  V30 641 H 62.0752 -0.992661 -4.88823 0
M  V30 642 H 61.2292 1.102 -5.96608 0
M  V30 643 H 59.9682 1.26157 -4.71101 0
M  V30 644 H 58.9732 -0.932047 -5.41842 0
M  V30 645 H 60.1982 -1.07755 -6.70497 0
M  V30 646 H 58.1442 1.15282 -6.45791 0
M  V30 647 H 58.0612 -0.184048 -7.55776 0
M  V30 648 H 59.3292 0.992352 -7.73158 0
M  V30 649 N 63.5583 1.46682 -0.576371 0
M  V30 650 C 64.5213 2.28707 0.150239 0
M  V30 651 C 65.5213 1.38035 0.824794 0
M  V30 652 O 66.7113 1.60476 0.677719 0
M  V30 653 C 63.8433 3.18248 1.22192 0
M  V30 654 H 65.0363 2.94423 -0.570521 0
M  V30 655 H 62.5893 1.52688 -0.334078 0
M  V30 656 H 63.3243 2.57265 1.97447 0
M  V30 657 H 63.1093 3.85 0.742812 0
M  V30 658 H 64.5993 3.80001 1.73172 0
M  V30 659 N 65.0364 0.313813 1.54444 0
M  V30 660 C 65.9994 -0.54379 2.22656 0
M  V30 661 C 66.9994 -1.05124 1.21678 0
M  V30 662 O 68.1894 -0.945225 1.46325 0
M  V30 663 C 65.3214 -1.75427 2.92298 0
M  V30 664 H 66.5144 0.0523599 2.99854 0
M  V30 665 H 64.0674 0.0647834 1.56166 0
M  V30 666 H 64.8024 -2.38991 2.19211 0
M  V30 667 H 64.5874 -1.39791 3.66334 0
M  V30 668 H 66.0774 -2.36325 3.44297 0
M  V30 669 N 66.5145 -1.57545 0.0417849 0
M  V30 670 C 67.9255 -1.80011 -0.495259 0
M  V30 671 C 68.2765 -0.953199 -1.71489 0
M  V30 672 O 67.4015 -0.167138 -2.15754 0
M  V30 673 C 67.9965 -3.26482 -0.905265 0
M  V30 674 C 66.5555 -3.499 -1.38734 0
M  V30 675 C 65.7025 -2.74979 -0.358056 0
M  V30 676 H 68.6535 -1.56425 0.267736 0
M  V30 677 H 68.6745 -3.36887 -1.76882 0
M  V30 678 H 68.1865 -3.88096 -0.017401 0
M  V30 679 H 66.2875 -2.93553 -2.29471 0
M  V30 680 H 66.4005 -4.58615 -1.38598 0
M  V30 681 H 64.7645 -2.40834 -0.828912 0
M  V30 682 H 65.5475 -3.39315 0.521561 0
M  V30 683 N 67.9926 0.231505 -1.5589 0
M  V30 684 C 68.9556 1.27028 -1.90779 0
M  V30 685 C 69.9556 1.40308 -0.785507 0
M  V30 686 O 71.1456 1.38744 -1.05336 0
M  V30 687 C 68.2776 2.64566 -2.14983 0
M  V30 688 H 69.4706 0.973017 -2.83677 0
M  V30 689 H 67.0236 0.471486 -1.49019 0
M  V30 690 H 67.7586 2.99406 -1.24604 0
M  V30 691 H 67.5436 2.56305 -2.96732 0
M  V30 692 H 69.0336 3.39543 -2.43105 0
M  V30 693 N 69.4707 1.49531 0.497807 0
M  V30 694 C 70.4337 1.65916 1.58128 0
M  V30 695 C 71.4337 0.530825 1.51786 0
M  V30 696 O 72.6237 0.797342 1.54881 0
M  V30 697 C 69.7557 1.65951 2.9778 0
M  V30 698 H 70.9487 2.62556 1.44929 0
M  V30 699 H 68.5017 1.38611 0.722275 0
M  V30 700 H 69.2367 0.709065 3.16453 0
M  V30 701 H 69.0217 2.47897 3.03792 0
M  V30 702 H 70.5117 1.80673 3.76493 0
M  V30 703 N 70.9488 -0.749086 1.3866 0
M  V30 704 C 72.3598 -1.32664 1.31366 0
M  V30 705 C 72.7108 -1.96179 -0.028484 0
M  V30 706 O 71.8358 -1.9537 -0.93057 0
M  V30 707 C 72.4308 -2.41219 2.37905 0
M  V30 708 C 70.9898 -2.94684 2.34176 0
M  V30 709 C 70.1368 -1.68108 2.20533 0
M  V30 710 H 73.0878 -0.547628 1.48952 0
M  V30 711 H 73.1088 -3.21268 2.0388 0
M  V30 712 H 72.6208 -1.94962 3.35576 0
M  V30 713 H 70.7218 -3.45258 1.401 0
M  V30 714 H 70.8348 -3.48757 3.2849 0
M  V30 715 H 69.1988 -1.91907 1.67463 0
M  V30 716 H 69.9818 -1.23923 3.20153 0
M  V30 717 N 72.4269 -1.23603 -0.977757 0
M  V30 718 C 73.8379 -1.06424 -1.53398 0
M  V30 719 C 74.1889 0.367578 -1.92726 0
M  V30 720 O 73.3139 1.25465 -1.76316 0
M  V30 721 C 73.9089 -1.92568 -2.78753 0
M  V30 722 C 72.4679 -1.79642 -3.30765 0
M  V30 723 C 71.6149 -1.88111 -2.03739 0
M  V30 724 H 74.5659 -1.37227 -0.797152 0
M  V30 725 H 74.5869 -1.45203 -3.51705 0
M  V30 726 H 74.0989 -2.96771 -2.50098 0
M  V30 727 H 72.1999 -0.782325 -3.64294 0
M  V30 728 H 72.3129 -2.63174 -4.00345 0
M  V30 729 H 70.6769 -1.31723 -2.17994 0
M  V30 730 H 71.4599 -2.93875 -1.77461 0
M  V30 731 N 73.905 1.17692 -1.04816 0
M  V30 732 C 74.868 2.19787 -0.650117 0
M  V30 733 C 75.868 1.58044 0.296427 0
M  V30 734 O 77.058 1.74012 0.0808097 0
M  V30 735 C 74.19 3.40869 0.0456987 0
M  V30 736 H 75.383 2.56516 -1.5537 0
M  V30 737 H 72.936 1.31708 -0.841594 0
M  V30 738 H 73.671 3.09681 0.962726 0
M  V30 739 H 73.456 3.86928 -0.634727 0
M  V30 740 H 74.946 4.16445 0.310432 0
M  V30 741 N 75.3831 0.828654 1.34056 0
M  V30 742 C 76.3461 0.259927 2.27721 0
M  V30 743 C 77.3461 -0.565478 1.50529 0
M  V30 744 O 78.5361 -0.38075 1.69988 0
M  V30 745 C 75.6681 -0.634944 3.34935 0
M  V30 746 H 76.8611 1.0863 2.79534 0
M  V30 747 H 74.4141 0.600951 1.44285 0
M  V30 748 H 75.1491 -1.48416 2.88346 0
M  V30 749 H 74.9341 -0.0444999 3.92075 0
M  V30 750 H 76.4241 -1.02648 4.04788 0
M  V30 751 N 76.8612 -1.46375 0.584142 0
M  V30 752 C 78.2772 -1.57694 0.245929 0
M  V30 753 C 78.4772 -1.57903 -1.25175 0
M  V30 754 O 77.5332 -1.49676 -2.03355 0
M  V30 755 C 78.8462 -2.87028 0.896402 0
M  V30 756 C 80.3942 -3.00662 0.870127 0
M  V30 757 C 80.8692 -4.32734 1.50017 0
M  V30 758 N 82.3602 -4.39436 1.46458 0
M  V30 759 C 83.0952 -5.40248 1.92144 0
M  V30 760 N 82.5912 -6.47726 2.4581 0
M  V30 761 N 84.3842 -5.31459 1.83052 0
M  V30 762 H 76.5352 -1.44483 1.55687 0
M  V30 763 H 78.7982 -0.689291 0.650831 0
M  V30 764 H 78.5042 -2.9269 1.95002 0
M  V30 765 H 78.3782 -3.75014 0.405486 0
M  V30 766 H 80.7652 -2.94581 -0.174871 0
M  V30 767 H 80.8462 -2.14148 1.39908 0
M  V30 768 H 80.4902 -4.39573 2.54437 0
M  V30 769 H 80.4202 -5.18025 0.946432 0
M  V30 770 H 82.9112 -3.62367 1.07231 0
M  V30 771 H 83.2242 -7.20863 2.78525 0
M  V30 772 H 81.5692 -6.48542 2.49836 0
M  V30 773 H 84.7602 -4.46396 1.40883 0
M  V30 774 H 84.9332 -6.09881 2.18973 0
M  V30 775 N 78.3393 -0.321999 -1.54275 0
M  V30 776 C 79.7503 0.166384 -1.85957 0
M  V30 777 C 80.1013 1.51747 -1.24367 0
M  V30 778 O 79.2263 2.09317 -0.549124 0
M  V30 779 C 79.8213 0.308681 -3.37391 0
M  V30 780 C 78.3803 0.741286 -3.69028 0
M  V30 781 C 77.5273 -0.137937 -2.76957 0
M  V30 782 H 80.4783 -0.542335 -1.49146 0
M  V30 783 H 80.4993 1.13984 -3.63026 0
M  V30 784 H 80.0113 -0.674809 -3.82188 0
M  V30 785 H 78.1123 1.73458 -3.29762 0
M  V30 786 H 78.2253 0.546118 -4.75977 0
M  V30 787 H 76.5893 0.386251 -2.51754 0
M  V30 788 H 77.3723 -1.11816 -3.2458 0
M  V30 789 N 79.8174 1.5752 -0.0501392 0
M  V30 790 C 81.0654 1.9227 0.622642 0
M  V30 791 C 81.3864 0.929083 1.71444 0
M  V30 792 O 80.6564 -0.0262186 1.95882 0
M  V30 793 H 79.2364 0.709739 0.232981 0
M  V30 794 H 81.8984 1.94628 -0.102898 0
M  V30 795 H 80.9944 2.93479 1.06191 0
M  V30 796 N 81.2955 -0.223234 1.56011 0
M  V30 797 C 82.7065 -0.790368 1.69145 0
M  V30 798 C 83.0575 -1.85055 0.651845 0
M  V30 799 O 82.1825 -2.15498 -0.197359 0
M  V30 800 C 82.7775 -1.4404 3.06656 0
M  V30 801 C 81.3365 -1.95494 3.2165 0
M  V30 802 C 80.4835 -0.814506 2.65068 0
M  V30 803 H 83.4345 0.00139011 1.587 0
M  V30 804 H 83.4555 -2.30916 3.0242 0
M  V30 805 H 82.9675 -0.668543 3.82298 0
M  V30 806 H 81.0685 -2.75487 2.50874 0
M  V30 807 H 81.1815 -2.13607 4.28846 0
M  V30 808 H 79.5455 -1.22137 2.23505 0
M  V30 809 H 80.3285 -0.0553515 3.43255 0
M  V30 810 N 82.7736 -1.49793 -0.48987 0
M  V30 811 C 84.1896 -1.36803 -0.822022 0
M  V30 812 C 84.3896 -0.409652 -1.97292 0
M  V30 813 O 83.4456 0.154614 -2.52026 0
M  V30 814 C 84.7586 -2.77768 -1.15175 0
M  V30 815 C 86.3066 -2.86549 -1.25931 0
M  V30 816 C 86.7816 -4.28306 -1.62228 0
M  V30 817 N 88.2726 -4.31169 -1.69256 0
M  V30 818 C 89.0076 -5.37832 -1.98807 0
M  V30 819 N 88.5036 -6.54726 -2.26507 0
M  V30 820 N 90.2966 -5.25258 -2.00152 0
M  V30 821 H 82.4476 -2.10691 0.268881 0
M  V30 822 H 84.7106 -0.946241 0.057728 0
M  V30 823 H 84.4166 -3.49648 -0.379335 0
M  V30 824 H 84.2906 -3.13836 -2.09253 0
M  V30 825 H 86.6776 -2.14899 -2.02243 0
M  V30 826 H 86.7586 -2.54049 -0.298776 0
M  V30 827 H 86.4026 -5.00486 -0.864622 0
M  V30 828 H 86.3326 -4.58279 -2.594 0
M  V30 829 H 88.8236 -3.4687 -1.49965 0
M  V30 830 H 89.1366 -7.31833 -2.48276 0
M  V30 831 H 87.4816 -6.57933 -2.23939 0
M  V30 832 H 90.6726 -4.32938 -1.77996 0
M  V30 833 H 90.8456 -6.08476 -2.22848 0
M  V30 834 N 84.2517 0.741722 -1.39055 0
M  V30 835 C 85.6627 1.31966 -1.32068 0
M  V30 836 C 86.0137 1.96192 0.0180797 0
M  V30 837 O 85.1387 1.95861 0.920196 0
M  V30 838 C 85.7337 2.39954 -2.39181 0
M  V30 839 C 84.2927 2.93438 -2.35735 0
M  V30 840 C 83.4397 1.66936 -2.21422 0
M  V30 841 H 86.3907 0.539721 -1.4924 0
M  V30 842 H 86.4117 3.20182 -2.05581 0
M  V30 843 H 85.9237 1.9318 -3.36605 0
M  V30 844 H 84.0247 3.4451 -1.41929 0
M  V30 845 H 84.1377 3.4701 -3.30335 0
M  V30 846 H 82.5017 1.91016 -1.68478 0
M  V30 847 H 83.2847 1.22224 -3.20806 0
M  V30 848 N 85.7298 1.2412 0.971189 0
M  V30 849 C 87.1408 1.07236 1.52831 0
M  V30 850 C 87.4918 -0.357352 1.92918 0
M  V30 851 O 86.6168 -1.24528 1.76979 0
M  V30 852 C 87.2118 1.94043 2.77728 0
M  V30 853 C 85.7708 1.81394 3.29808 0
M  V30 854 C 84.9178 1.89189 2.02738 0
M  V30 855 H 87.8688 1.37648 0.789864 0
M  V30 856 H 87.8898 1.47066 3.5093 0
M  V30 857 H 87.4018 2.98093 2.4852 0
M  V30 858 H 85.5028 0.801634 3.63874 0
M  V30 859 H 85.6158 2.65294 3.98944 0
M  V30 860 H 83.9798 1.32877 2.17292 0
M  V30 861 H 84.7628 2.94812 1.759 0
M  V30 862 N 87.2079 -1.17134 1.05439 0
M  V30 863 C 88.1709 -2.19439 0.661764 0
M  V30 864 C 89.1709 -1.58199 -0.288042 0
M  V30 865 O 90.3609 -1.74053 -0.0715803 0
M  V30 866 C 87.4929 -3.40889 -0.0276209 0
M  V30 867 H 88.6859 -2.55688 1.56728 0
M  V30 868 H 86.2389 -1.31259 0.848567 0
M  V30 869 H 86.9739 -3.10187 -0.94629 0
M  V30 870 H 86.7589 -3.86586 0.655238 0
M  V30 871 H 88.2489 -4.16603 -0.288342 0
M  V30 872 N 88.686 -0.835752 -1.33615 0
M  V30 873 C 89.934 -0.429109 -1.97492 0
M  V30 874 C 90.255 1.01433 -1.66543 0
M  V30 875 O 89.525 1.70611 -0.962744 0
M  V30 876 H 88.105 -0.155686 -0.730596 0
M  V30 877 H 90.767 -1.06802 -1.63031 0
M  V30 878 H 89.863 -0.55861 -3.0706 0
M  V30 879 N 90.1641 1.46063 -0.591896 0
M  V30 880 C 91.0741 2.34192 0.13831 0
M  V30 881 C 92.0901 1.50305 0.876608 0
M  V30 882 O 93.2661 1.8315 0.837728 0
M  V30 883 C 90.3311 3.27656 1.13326 0
M  V30 884 C 89.3921 4.27445 0.39863 0
M  V30 885 C 88.6251 5.16443 1.34618 0
M  V30 886 O 88.8481 5.08553 2.58321 0
M  V30 887 O 87.7821 5.95843 0.851768 0
M  V30 888 H 91.6081 2.98002 -0.58552 0
M  V30 889 H 89.1931 1.45188 -0.352239 0
M  V30 890 H 91.0751 3.85291 1.70671 0
M  V30 891 H 89.7501 2.6643 1.83839 0
M  V30 892 H 88.6571 3.73471 -0.216895 0
M  V30 893 H 89.9901 4.91482 -0.265709 0
M  V30 894 N 91.6422 0.330177 1.54103 0
M  V30 895 C 92.5722 -0.525353 2.27513 0
M  V30 896 C 93.5532 -1.11383 1.2856 0
M  V30 897 O 94.7382 -1.13773 1.57383 0
M  V30 898 C 91.8682 -1.6831 3.03791 0
M  V30 899 C 90.8222 -1.2236 4.10137 0
M  V30 900 C 90.1482 -2.46882 4.74293 0
M  V30 901 C 91.4482 -0.333697 5.21233 0
M  V30 902 H 93.1422 0.087013 2.99274 0
M  V30 903 H 90.6882 0.0432893 1.43935 0
M  V30 904 H 92.6412 -2.28795 3.5388 0
M  V30 905 H 91.3652 -2.32216 2.29659 0
M  V30 906 H 90.0242 -0.64165 3.60941 0
M  V30 907 H 89.6722 -3.09165 3.96769 0
M  V30 908 H 89.3722 -2.16825 5.46133 0
M  V30 909 H 90.8962 -3.08117 5.27159 0
M  V30 910 H 92.3102 -0.845013 5.67038 0
M  V30 911 H 90.7072 -0.125612 5.99969 0
M  V30 912 H 91.7772 0.633724 4.80741 0
M  V30 913 N 93.1203 -1.57491 0.0584922 0
M  V30 914 C 94.3683 -1.92597 -0.612436 0
M  V30 915 C 94.6893 -0.938162 -1.70949 0
M  V30 916 O 93.9593 0.0158301 -1.95894 0
M  V30 917 H 92.5393 -0.710964 -0.229214 0
M  V30 918 H 95.2013 -1.94571 0.113218 0
M  V30 919 H 94.2973 -2.94038 -1.04633 0
M  V30 920 N 94.5984 0.214957 -1.56127 0
M  V30 921 C 95.8234 0.95924 -1.83884 0
M  V30 922 C 96.2484 1.7689 -0.639644 0
M  V30 923 O 95.6064 1.76566 0.411601 0
M  V30 924 C 95.6544 1.84723 -3.09693 0
M  V30 925 O 94.7584 2.94346 -2.8885 0
M  V30 926 H 94.0994 0.27125 -0.606069 0
M  V30 927 H 96.6294 0.226276 -2.03345 0
M  V30 928 H 96.6394 2.25576 -3.39969 0
M  V30 929 H 95.3144 1.25218 -3.96602 0
M  V30 930 H 93.8914 2.57391 -2.69823 0
M  V30 931 N 96.0765 1.50051 0.48192 0
M  V30 932 C 97.3255 1.59741 1.23149 0
M  V30 933 C 97.6385 0.298163 1.93314 0
M  V30 934 O 98.8445 0.273835 2.70116 0
M  V30 935 C 97.3005 2.81926 2.23708 0
M  V30 936 C 96.9085 4.18685 1.59396 0
M  V30 937 C 98.6525 3.00956 2.99375 0
M  V30 938 C 96.5595 5.3207 2.58178 0
M  V30 939 H 95.4895 0.594838 0.46334 0
M  V30 940 H 98.1405 1.76467 0.503169 0
M  V30 941 H 96.5225 2.58736 2.99786 0
M  V30 942 H 97.6965 4.52088 0.891811 0
M  V30 943 H 96.0115 4.05171 0.960503 0
M  V30 944 H 98.6085 3.82836 3.73283 0
M  V30 945 H 98.9515 2.12258 3.58123 0
M  V30 946 H 99.4845 3.24277 2.30411 0
M  V30 947 H 96.2235 6.22888 2.04184 0
M  V30 948 H 95.7435 5.03098 3.26577 0
M  V30 949 H 97.4225 5.62196 3.20225 0
M  V30 950 N 97.5546 -0.734337 1.39446 0
M  V30 951 C 98.8026 -1.49096 1.36436 0
M  V30 952 C 99.1236 -1.94961 -0.0388255 0
M  V30 953 O 98.3936 -1.69033 -0.990191 0
M  V30 954 H 96.9736 -0.5531 0.502085 0
M  V30 955 H 99.6356 -0.871725 1.74319 0
M  V30 956 H 98.7316 -2.37276 2.02747 0
M  V30 957 N 99.0327 -1.24633 -0.964593 0
M  V30 958 C 100.31 -0.995809 -1.68354 0
M  V30 959 C 100.69 0.480964 -2.05548 0
M  V30 960 O 100.038 1.45599 -1.76105 0
M  V30 961 C 100.248 -1.92177 -2.91323 0
M  V30 962 C 101.596 -2.19446 -3.63495 0
M  V30 963 O 102.62 -1.89855 -3.01386 0
M  V30 964 O 101.479 -2.69714 -4.75307 0
M  V30 965 H 98.5727 -0.376854 -0.736146 0
M  V30 966 H 101.119 -1.35745 -1.0184 0
M  V30 967 H 99.8907 -2.91938 -2.60553 0
M  V30 968 H 99.5137 -1.56349 -3.65569 0
M  V30 969 N 100.511 1.16574 -1.06058 0
M  V30 970 C 101.461 2.18854 -0.63929 0
M  V30 971 C 102.445 1.57505 0.328798 0
M  V30 972 O 103.637 1.76408 0.144623 0
M  V30 973 C 100.766 3.43291 -0.0247203 0
M  V30 974 C 99.8518 4.11722 -1.01716 0
M  V30 975 N 100.243 4.55841 -2.19186 0
M  V30 976 C 98.5408 4.37872 -0.847569 0
M  V30 977 C 99.2418 5.08751 -2.82042 0
M  V30 978 N 98.2178 5.01489 -2.09784 0
M  V30 979 H 102.02 2.5068 -1.53417 0
M  V30 980 H 99.5338 1.32999 -0.931935 0
M  V30 981 H 101.531 4.15856 0.294915 0
M  V30 982 H 100.191 3.12954 0.865448 0
M  V30 983 H 101.202 4.49649 -2.56975 0
M  V30 984 H 97.8788 4.17499 -0.00918848 0
M  V30 985 H 99.2688 5.52944 -3.81709 0
M  V30 986 N 101.989 0.842826 1.3317 0
M  V30 987 C 102.899 0.281444 2.32906 0
M  V30 988 C 103.915 -0.594587 1.63526 0
M  V30 989 O 105.091 -0.49777 1.95152 0
M  V30 990 C 102.156 -0.530929 3.42611 0
M  V30 991 C 101.217 0.369843 4.27704 0
M  V30 992 C 100.45 -0.403853 5.3217 0
M  V30 993 O 100.673 -1.63513 5.46461 0
M  V30 994 O 99.6069 0.224199 6.01482 0
M  V30 995 H 103.433 1.10744 2.82789 0
M  V30 996 H 101.018 0.60545 1.36582 0
M  V30 997 H 102.9 -0.992437 4.09547 0
M  V30 998 H 101.575 -1.33392 2.94938 0
M  V30 999 H 100.482 0.879275 3.6362 0
M  V30 1000 H 101.815 1.13771 4.78871 0
M  V30 1001 N 103.467 -1.45747 0.599634 0
M  V30 1002 C 104.883 -1.57424 0.26264 0
M  V30 1003 C 105.083 -1.59222 -1.23493 0
M  V30 1004 O 104.139 -1.51825 -2.01756 0
M  V30 1005 C 105.452 -2.86061 0.926795 0
M  V30 1006 C 107 -2.99722 0.901967 0
M  V30 1007 C 107.475 -4.31119 1.54598 0
M  V30 1008 N 108.966 -4.37858 1.5111 0
M  V30 1009 C 109.701 -5.3818 1.97863 0
M  V30 1010 N 109.197 -6.45083 2.52666 0
M  V30 1011 N 110.99 -5.29487 1.88679 0
M  V30 1012 H 103.141 -1.42823 1.57211 0
M  V30 1013 H 105.404 -0.68235 0.658105 0
M  V30 1014 H 105.11 -2.90605 1.98095 0
M  V30 1015 H 104.984 -3.74563 0.445238 0
M  V30 1016 H 107.371 -2.9475 -0.143617 0
M  V30 1017 H 107.452 -2.12652 1.42171 0
M  V30 1018 H 107.096 -4.36849 2.59085 0
M  V30 1019 H 107.026 -5.16992 1.00132 0
M  V30 1020 H 109.517 -3.61209 1.11068 0
M  V30 1021 H 109.83 -7.17869 2.86155 0
M  V30 1022 H 108.175 -6.45856 2.56701 0
M  V30 1023 H 111.366 -4.44877 1.4561 0
M  V30 1024 H 111.539 -6.07524 2.25429 0
M  V30 1025 N 104.945 -0.338344 -1.53925 0
M  V30 1026 C 105.908 0.508299 -2.23493 0
M  V30 1027 C 106.908 1.03175 -1.23335 0
M  V30 1028 O 108.098 0.921826 -1.47811 0
M  V30 1029 C 105.23 1.70754 -2.95052 0
M  V30 1030 H 106.423 -0.100058 -2.99733 0
M  V30 1031 H 103.976 -0.0896198 -1.56043 0
M  V30 1032 H 104.711 2.35474 -2.22986 0
M  V30 1033 H 104.496 1.33946 -3.68512 0
M  V30 1034 H 105.986 2.30818 -3.48013 0
M  V30 1035 N 106.423 1.57458 -0.0668435 0
M  V30 1036 C 107.672 1.92477 0.602947 0
M  V30 1037 C 107.985 0.948419 1.71068 0
M  V30 1038 O 109.191 1.19124 2.43971 0
M  V30 1039 C 107.647 3.41903 1.12383 0
M  V30 1040 C 107.255 4.47975 0.04737 0
M  V30 1041 C 108.999 3.85931 1.76797 0
M  V30 1042 C 106.906 5.88529 0.582022 0
M  V30 1043 H 105.836 0.718387 0.22899 0
M  V30 1044 H 108.487 1.82978 -0.138276 0
M  V30 1045 H 106.869 3.46459 1.91787 0
M  V30 1046 H 108.043 4.55029 -0.726978 0
M  V30 1047 H 106.358 4.13384 -0.500243 0
M  V30 1048 H 108.955 4.88322 2.17821 0
M  V30 1049 H 109.298 3.23029 2.62599 0
M  V30 1050 H 109.831 3.83958 1.04024 0
M  V30 1051 H 106.57 6.55065 -0.238721 0
M  V30 1052 H 106.09 5.85004 1.324 0
M  V30 1053 H 107.769 6.38258 1.05999 0
M  V30 1054 N 107.901 -0.206675 1.56239 0
M  V30 1055 C 109.178 -0.954051 1.70755 0
M  V30 1056 C 109.558 -2.01841 0.618353 0
M  V30 1057 O 108.906 -2.25444 -0.372434 0
M  V30 1058 C 109.116 -1.551 3.12642 0
M  V30 1059 C 110.464 -2.03757 3.72516 0
M  V30 1060 O 111.488 -1.64965 3.15698 0
M  V30 1061 O 110.347 -2.75103 4.72208 0
M  V30 1062 H 107.441 -0.446636 0.696021 0
M  V30 1063 H 109.987 -0.197283 1.68549 0
M  V30 1064 H 108.759 -0.783212 3.83382 0
M  V30 1065 H 108.382 -2.37291 3.19028 0
M  V30 1066 N 109.379 -1.50304 -0.473955 0
M  V30 1067 C 110.626 -1.6115 -1.22625 0
M  V30 1068 C 110.954 -0.310517 -1.92005 0
M  V30 1069 O 110.209 0.703419 -1.82621 0
M  V30 1070 C 110.508 -2.73938 -2.29549 0
M  V30 1071 C 110.174 -4.14519 -1.7744 0
M  V30 1072 C 108.836 -4.5277 -1.62949 0
M  V30 1073 C 111.188 -5.02392 -1.3875 0
M  V30 1074 C 108.516 -5.76639 -1.08187 0
M  V30 1075 C 110.868 -6.26805 -0.854309 0
M  V30 1076 C 109.532 -6.63861 -0.696011 0
M  V30 1077 H 108.802 -0.589691 -0.448715 0
M  V30 1078 H 111.449 -1.84228 -0.522705 0
M  V30 1079 H 109.754 -2.44937 -3.05799 0
M  V30 1080 H 111.451 -2.79534 -2.87509 0
M  V30 1081 H 108.041 -3.8434 -1.89685 0
M  V30 1082 H 112.225 -4.73474 -1.4878 0
M  V30 1083 H 107.481 -6.04027 -0.946666 0
M  V30 1084 H 111.655 -6.94258 -0.545843 0
M  V30 1085 H 109.282 -7.59722 -0.26952 0
M  V30 1086 N 110.857 0.726932 -1.39834 0
M  V30 1087 C 112.082 1.52121 -1.40976 0
M  V30 1088 C 112.507 1.88098 -0.00826029 0
M  V30 1089 O 111.865 1.52479 0.980807 0
M  V30 1090 C 111.913 2.78021 -2.29644 0
M  V30 1091 O 111.017 3.74272 -1.73188 0
M  V30 1092 H 110.358 0.45908 -0.479731 0
M  V30 1093 H 112.888 0.896207 -1.83927 0
M  V30 1094 H 112.898 3.26671 -2.44438 0
M  V30 1095 H 111.573 2.51169 -3.31492 0
M  V30 1096 H 110.15 3.33073 -1.6768 0
M  V30 1097 N 112.336 1.25143 0.95797 0
M  V30 1098 C 113.747 1.08851 1.51685 0
M  V30 1099 C 114.098 -0.33687 1.93286 0
M  V30 1100 O 113.223 -1.22644 1.7829 0
M  V30 1101 C 113.818 1.96978 2.75654 0
M  V30 1102 C 112.377 1.84881 3.27866 0
M  V30 1103 C 111.524 1.91329 2.0072 0
M  V30 1104 H 114.475 1.38478 0.77522 0
M  V30 1105 H 114.496 1.5078 3.4935 0
M  V30 1106 H 114.008 3.00712 2.45345 0
M  V30 1107 H 112.109 0.840182 3.63004 0
M  V30 1108 H 112.222 2.6951 3.96107 0
M  V30 1109 H 110.586 1.35174 2.15871 0
M  V30 1110 H 111.369 2.96661 1.72764 0
M  V30 1111 N 113.814 -1.1601 1.06675 0
M  V30 1112 C 115.044 -1.90251 0.805497 0
M  V30 1113 C 115.452 -1.77891 -0.64431 0
M  V30 1114 O 114.795 -1.12383 -1.45313 0
M  V30 1115 C 114.857 -3.41419 1.12576 0
M  V30 1116 C 114.521 -3.77564 2.57477 0
M  V30 1117 C 115.518 -3.79161 3.55715 0
M  V30 1118 C 113.203 -4.08079 2.92877 0
M  V30 1119 C 115.197 -4.10767 4.8739 0
M  V30 1120 C 112.884 -4.39351 4.24751 0
M  V30 1121 C 113.882 -4.40675 5.21818 0
M  V30 1122 O 113.57 -4.71202 6.51325 0
M  V30 1123 H 113.302 -0.610018 0.291297 0
M  V30 1124 H 115.856 -1.47958 1.4247 0
M  V30 1125 H 114.086 -3.84079 0.449503 0
M  V30 1126 H 115.775 -3.9694 0.84814 0
M  V30 1127 H 116.541 -3.55693 3.29708 0
M  V30 1128 H 112.42 -4.06211 2.17976 0
M  V30 1129 H 115.964 -4.11715 5.63148 0
M  V30 1130 H 111.861 -4.62285 4.50514 0
M  V30 1131 H 112.629 -4.88996 6.56373 0
M  V30 1132 N 115.292 -0.849877 -1.32721 0
M  V30 1133 C 116.222 -0.306308 -2.31482 0
M  V30 1134 C 117.203 0.591952 -1.59468 0
M  V30 1135 O 118.388 0.513199 -1.87296 0
M  V30 1136 C 115.518 0.510204 -3.43532 0
M  V30 1137 C 114.472 -0.293209 -4.26994 0
M  V30 1138 C 113.798 0.647743 -5.30762 0
M  V30 1139 C 115.098 -1.51634 -4.99804 0
M  V30 1140 H 116.792 -1.13153 -2.77195 0
M  V30 1141 H 114.338 -0.545553 -1.33266 0
M  V30 1142 H 116.291 0.900856 -4.11658 0
M  V30 1143 H 115.015 1.36874 -2.96535 0
M  V30 1144 H 113.674 -0.665555 -3.60508 0
M  V30 1145 H 113.322 1.50299 -4.8002 0
M  V30 1146 H 113.022 0.11422 -5.87489 0
M  V30 1147 H 114.546 1.03567 -6.01753 0
M  V30 1148 H 115.96 -1.19824 -5.60638 0
M  V30 1149 H 114.357 -1.98745 -5.66234 0
M  V30 1150 H 115.427 -2.28018 -4.27943 0
M  V30 1151 N 116.77 1.45427 -0.607355 0
M  V30 1152 C 117.68 2.34325 0.113463 0
M  V30 1153 C 118.696 1.51226 0.860617 0
M  V30 1154 O 119.872 1.84029 0.818255 0
M  V30 1155 C 116.937 3.28839 1.09844 0
M  V30 1156 C 115.998 4.27844 0.353271 0
M  V30 1157 C 115.231 5.17842 1.29133 0
M  V30 1158 O 115.454 5.11264 2.52913 0
M  V30 1159 O 114.388 5.96713 0.788523 0
M  V30 1160 H 118.214 2.97364 -0.617094 0
M  V30 1161 H 115.799 1.44807 -0.367619 0
M  V30 1162 H 117.681 3.8708 1.66575 0
M  V30 1163 H 116.356 2.68365 1.81003 0
M  V30 1164 H 115.263 3.7322 -0.256494 0
M  V30 1165 H 116.596 4.91173 -0.317822 0
M  V30 1166 N 118.248 0.346503 1.53744 0
M  V30 1167 C 119.659 -0.136779 1.86198 0
M  V30 1168 C 120.01 -1.49749 1.26766 0
M  V30 1169 O 119.135 -2.08417 0.582355 0
M  V30 1170 C 119.73 -0.254966 3.37839 0
M  V30 1171 C 118.289 -0.682482 3.70161 0
M  V30 1172 C 117.436 0.181981 2.76702 0
M  V30 1173 H 120.387 0.565994 1.48264 0
M  V30 1174 H 120.408 -1.08195 3.64793 0
M  V30 1175 H 119.92 0.735526 3.81066 0
M  V30 1176 H 118.021 -1.68189 3.3248 0
M  V30 1177 H 118.134 -0.470326 4.76786 0
M  V30 1178 H 116.498 -0.34615 2.52337 0
M  V30 1179 H 117.281 1.16966 3.2276 0
M  V30 1180 N 119.726 -1.57421 0.075193 0
M  V30 1181 C 120.656 -2.15942 -0.888324 0
M  V30 1182 C 121.637 -1.08737 -1.30806 0
M  V30 1183 O 122.822 -1.36787 -1.37851 0
M  V30 1184 C 119.952 -2.72379 -2.1547 0
M  V30 1185 C 118.906 -3.8478 -1.87425 0
M  V30 1186 C 118.232 -4.27834 -3.20721 0
M  V30 1187 C 119.532 -5.08869 -1.17684 0
M  V30 1188 H 121.226 -2.96705 -0.400799 0
M  V30 1189 H 118.772 -1.42723 -0.191342 0
M  V30 1190 H 120.725 -3.11965 -2.83295 0
M  V30 1191 H 119.449 -1.88841 -2.6647 0
M  V30 1192 H 118.108 -3.45703 -1.22004 0
M  V30 1193 H 117.756 -3.41214 -3.6957 0
M  V30 1194 H 117.456 -5.03605 -3.02746 0
M  V30 1195 H 118.98 -4.70039 -3.89738 0
M  V30 1196 H 120.394 -5.4575 -1.75584 0
M  V30 1197 H 118.791 -5.8994 -1.09956 0
M  V30 1198 H 119.861 -4.84648 -0.156453 0
M  V30 1199 N 121.204 0.198386 -1.56346 0
M  V30 1200 C 122.452 0.91747 -1.80075 0
M  V30 1201 C 122.773 1.83929 -0.647692 0
M  V30 1202 O 122.043 1.93029 0.334166 0
M  V30 1203 H 120.623 0.341774 -0.664228 0
M  V30 1204 H 123.285 0.204684 -1.93822 0
M  V30 1205 H 122.381 1.51055 -2.7311 0
M  V30 1206 N 122.682 1.50554 0.465978 0
M  V30 1207 C 123.645 1.69233 1.54574 0
M  V30 1208 C 124.645 0.562901 1.50626 0
M  V30 1209 O 125.835 0.830016 1.53155 0
M  V30 1210 C 122.967 1.7223 2.94193 0
M  V30 1211 H 124.16 2.65571 1.39327 0
M  V30 1212 H 121.713 1.40111 0.692711 0
M  V30 1213 H 122.448 0.77603 3.14878 0
M  V30 1214 H 122.233 2.54285 2.98466 0
M  V30 1215 H 123.723 1.88618 3.72576 0
M  V30 1216 N 124.16 -0.719506 1.40217 0
M  V30 1217 C 125.571 -1.29848 1.34151 0
M  V30 1218 C 125.922 -1.96196 0.0131349 0
M  V30 1219 O 125.047 -1.973 -0.88892 0
M  V30 1220 C 125.642 -2.36118 2.42968 0
M  V30 1221 C 124.201 -2.8965 2.40374 0
M  V30 1222 C 123.348 -1.63393 2.24049 0
M  V30 1223 H 126.299 -0.51591 1.5008 0
M  V30 1224 H 126.32 -3.16871 2.10649 0
M  V30 1225 H 125.832 -1.878 3.39636 0
M  V30 1226 H 123.933 -3.42208 1.47392 0
M  V30 1227 H 124.046 -3.4171 3.35814 0
M  V30 1228 H 122.41 -1.88312 1.71495 0
M  V30 1229 H 123.193 -1.17104 3.2271 0
M  V30 1230 N 125.638 -1.25649 -0.95132 0
M  V30 1231 C 126.57 -1.02112 -2.05197 0
M  V30 1232 C 127.583 0.0150571 -1.62793 0
M  V30 1233 O 128.772 -0.223874 -1.77091 0
M  V30 1234 C 125.872 -0.522361 -3.3485 0
M  V30 1235 C 125.045 -1.62546 -4.06076 0
M  V30 1236 C 124.104 -1.12649 -5.14001 0
M  V30 1237 O 123.13 -1.82156 -5.39266 0
M  V30 1238 N 124.332 0.03047 -5.80492 0
M  V30 1239 H 127.097 -1.96885 -2.25957 0
M  V30 1240 H 124.658 -1.16899 -1.1201 0
M  V30 1241 H 126.65 -0.172961 -4.0433 0
M  V30 1242 H 125.22 0.33151 -3.10837 0
M  V30 1243 H 124.44 -2.14628 -3.30649 0
M  V30 1244 H 125.728 -2.36644 -4.50419 0
M  V30 1245 H 125.126 0.611169 -5.62389 0
M  V30 1246 H 123.683 0.320875 -6.5101 0
M  V30 1247 N 127.117 1.15442 -1.07289 0
M  V30 1248 C 128.08 2.18358 -0.696591 0
M  V30 1249 C 129.08 1.58637 0.262837 0
M  V30 1250 O 130.27 1.74145 0.0438809 0
M  V30 1251 C 127.402 3.4089 -0.0266151 0
M  V30 1252 H 128.595 2.53162 -1.60776 0
M  V30 1253 H 126.148 1.29893 -0.869342 0
M  V30 1254 H 126.883 3.11653 0.896822 0
M  V30 1255 H 126.668 3.85495 -0.716657 0
M  V30 1256 H 128.158 4.17009 0.222028 0
M  V30 1257 N 128.595 0.856903 1.32268 0
M  V30 1258 C 130.006 0.515711 1.79436 0
M  V30 1259 C 130.357 -0.966586 1.70738 0
M  V30 1260 O 129.482 -1.75409 1.26731 0
M  V30 1261 C 130.077 0.929335 3.25805 0
M  V30 1262 C 128.636 0.640006 3.70919 0
M  V30 1263 C 127.783 1.12784 2.53328 0
M  V30 1264 H 130.734 1.04389 1.19535 0
M  V30 1265 H 130.755 0.246633 3.797 0
M  V30 1266 H 130.267 2.00821 3.32103 0
M  V30 1267 H 128.368 -0.428051 3.70133 0
M  V30 1268 H 128.481 1.20788 4.63624 0
M  V30 1269 H 126.845 0.548033 2.48734 0
M  V30 1270 H 127.628 2.21387 2.62379 0
M  V30 1271 N 130.073 -1.45103 0.615059 0
M  V30 1272 C 131.036 -2.29025 -0.0895485 0
M  V30 1273 C 132.036 -1.40174 -0.787906 0
M  V30 1274 O 133.226 -1.62217 -0.634933 0
M  V30 1275 C 130.358 -3.21376 -1.13711 0
M  V30 1276 H 131.551 -2.92807 0.648382 0
M  V30 1277 H 129.104 -1.51749 0.374444 0
M  V30 1278 H 129.839 -2.6241 -1.90556 0
M  V30 1279 H 129.624 -3.86834 -0.640475 0
M  V30 1280 H 131.114 -3.84459 -1.63036 0
M  V30 1281 N 131.551 -0.354651 -1.53558 0
M  V30 1282 C 132.962 0.126902 -1.86268 0
M  V30 1283 C 133.313 1.49075 -1.27558 0
M  V30 1284 O 132.438 2.08105 -0.5934 0
M  V30 1285 C 133.033 0.237046 -3.3797 0
M  V30 1286 C 131.592 0.662842 -3.70518 0
M  V30 1287 C 130.739 -0.196652 -2.76602 0
M  V30 1288 H 133.69 -0.573849 -1.47962 0
M  V30 1289 H 133.711 1.06259 -3.65362 0
M  V30 1290 H 133.223 -0.755725 -3.80671 0
M  V30 1291 H 131.324 1.66424 -3.33367 0
M  V30 1292 H 131.437 0.445034 -4.77029 0
M  V30 1293 H 129.801 0.332763 -2.52517 0
M  V30 1294 H 130.584 -1.18676 -3.22135 0
M  V30 1295 N 133.029 1.57378 -0.0835403 0
M  V30 1296 C 133.992 2.12252 0.864959 0
M  V30 1297 C 134.992 1.04916 1.21858 0
M  V30 1298 O 136.182 1.30853 1.14991 0
M  V30 1299 C 133.314 2.63358 2.16461 0
M  V30 1300 H 134.507 2.97371 0.388676 0
M  V30 1301 H 132.06 1.55423 0.165317 0
M  V30 1302 H 132.795 1.81727 2.686 0
M  V30 1303 H 132.58 3.41826 1.92087 0
M  V30 1304 H 134.07 3.05847 2.84337 0
M  V30 1305 N 134.507 -0.190092 1.56449 0
M  V30 1306 C 135.735 -0.925772 1.85033 0
M  V30 1307 C 136.15 -1.76638 0.666658 0
M  V30 1308 O 135.507 -1.78822 -0.364565 0
M  V30 1309 C 135.558 -1.81786 3.12468 0
M  V30 1310 O 135.279 -1.01118 4.26271 0
M  V30 1311 C 136.78 -2.6648 3.54265 0
M  V30 1312 H 134 -0.269872 0.614337 0
M  V30 1313 H 136.544 -0.195837 2.0356 0
M  V30 1314 H 134.699 -2.50136 2.95822 0
M  V30 1315 H 135.113 -1.61956 4.98869 0
M  V30 1316 H 136.587 -3.24722 4.46385 0
M  V30 1317 H 137.064 -3.40434 2.77491 0
M  V30 1318 H 137.67 -2.03493 3.73458 0
M  V30 1319 N 135.985 -1.50799 -0.457987 0
M  V30 1320 C 136.948 -1.7005 -1.53674 0
M  V30 1321 C 137.948 -0.570881 -1.50325 0
M  V30 1322 O 139.138 -0.838126 -1.52712 0
M  V30 1323 C 136.27 -1.73788 -2.93276 0
M  V30 1324 H 137.463 -2.66306 -1.37917 0
M  V30 1325 H 135.016 -1.40477 -0.685271 0
M  V30 1326 H 135.751 -0.792717 -3.14462 0
M  V30 1327 H 135.536 -2.55864 -2.97113 0
M  V30 1328 H 137.026 -1.90591 -3.71571 0
M  V30 1329 N 137.463 0.71206 -1.40597 0
M  V30 1330 C 138.691 1.50111 -1.42388 0
M  V30 1331 C 139.106 1.88784 -0.0245395 0
M  V30 1332 O 138.463 1.55681 0.952351 0
M  V30 1333 C 138.514 2.7742 -2.31776 0
M  V30 1334 O 138.235 2.40382 -3.66262 0
M  V30 1335 C 139.736 3.7129 -2.42196 0
M  V30 1336 H 136.956 0.46314 -0.485533 0
M  V30 1337 H 139.5 0.878068 -1.8469 0
M  V30 1338 H 137.655 3.36001 -1.92827 0
M  V30 1339 H 138.069 3.22324 -4.13772 0
M  V30 1340 H 139.543 4.57448 -3.08943 0
M  V30 1341 H 140.02 4.14641 -1.44809 0
M  V30 1342 H 140.626 3.18619 -2.81712 0
M  V30 1343 N 138.941 1.26152 0.944643 0
M  V30 1344 C 140.218 1.02247 1.66748 0
M  V30 1345 C 140.598 -0.448202 2.06287 0
M  V30 1346 O 139.946 -1.42779 1.78399 0
M  V30 1347 C 140.156 1.96788 2.88228 0
M  V30 1348 C 141.504 2.25201 3.59958 0
M  V30 1349 O 142.528 1.94626 2.98327 0
M  V30 1350 O 141.387 2.77242 4.70956 0
M  V30 1351 H 138.481 0.388517 0.730057 0
M  V30 1352 H 141.027 1.37348 0.99668 0
M  V30 1353 H 139.799 2.96047 2.55875 0
M  V30 1354 H 139.422 1.62145 3.63035 0
M  V30 1355 N 140.419 -1.14872 1.07899 0
M  V30 1356 C 141.647 -1.89661 0.82683 0
M  V30 1357 C 142.062 -1.78312 -0.620519 0
M  V30 1358 O 141.419 -1.13888 -1.42604 0
M  V30 1359 C 141.47 -3.39817 1.23316 0
M  V30 1360 O 141.191 -3.50845 2.62372 0
M  V30 1361 C 142.692 -4.31615 1.0111 0
M  V30 1362 H 139.912 -0.60092 0.298557 0
M  V30 1363 H 142.456 -1.4551 1.43691 0
M  V30 1364 H 140.611 -3.8161 0.667286 0
M  V30 1365 H 141.025 -4.44076 2.79101 0
M  V30 1366 H 142.499 -5.35367 1.34486 0
M  V30 1367 H 142.976 -4.39169 -0.0522168 0
M  V30 1368 H 143.582 -3.95572 1.56215 0
M  V30 1369 N 141.898 -0.863906 -1.31812 0
M  V30 1370 C 143.145 -0.471836 -1.96926 0
M  V30 1371 C 143.473 0.974578 -1.68322 0
M  V30 1372 O 142.728 1.7003 -0.968933 0
M  V30 1373 C 143.027 -0.668547 -3.51091 0
M  V30 1374 C 142.693 -2.08683 -3.99703 0
M  V30 1375 C 141.355 -2.47471 -4.12688 0
M  V30 1376 C 143.707 -3.01207 -4.25351 0
M  V30 1377 C 141.035 -3.78037 -4.4867 0
M  V30 1378 C 143.387 -4.31282 -4.62794 0
M  V30 1379 C 142.051 -4.69992 -4.73987 0
M  V30 1380 H 141.321 -0.172657 -0.720604 0
M  V30 1381 H 143.968 -1.09573 -1.57054 0
M  V30 1382 H 142.273 0.0385252 -3.91781 0
M  V30 1383 H 143.97 -0.345102 -3.99512 0
M  V30 1384 H 140.56 -1.77566 -3.90087 0
M  V30 1385 H 144.744 -2.72469 -4.14819 0
M  V30 1386 H 140 -4.078 -4.55532 0
M  V30 1387 H 144.174 -5.03031 -4.81594 0
M  V30 1388 H 141.801 -5.71207 -5.01624 0
M  V30 1389 N 143.376 1.44774 -0.622745 0
M  V30 1390 C 144.286 2.34433 0.0886031 0
M  V30 1391 C 145.302 1.52131 0.844529 0
M  V30 1392 O 146.478 1.84886 0.798691 0
M  V30 1393 C 143.543 3.29986 1.0635 0
M  V30 1394 C 142.604 4.28195 0.307873 0
M  V30 1395 C 141.837 5.19183 1.23633 0
M  V30 1396 O 142.06 5.13918 2.47476 0
M  V30 1397 O 140.994 5.97515 0.725189 0
M  V30 1398 H 144.82 2.96693 -0.648599 0
M  V30 1399 H 142.405 1.44408 -0.382957 0
M  V30 1400 H 144.287 3.88825 1.6246 0
M  V30 1401 H 142.962 2.70269 1.78146 0
M  V30 1402 H 141.869 3.72927 -0.296064 0
M  V30 1403 H 143.202 4.90808 -0.3699 0
M  V30 1404 N 144.854 0.36279 1.53368 0
M  V30 1405 C 145.817 -0.472679 2.24273 0
M  V30 1406 C 146.817 -1.012 1.24961 0
M  V30 1407 O 148.007 -0.898194 1.49259 0
M  V30 1408 C 145.139 -1.66039 2.97731 0
M  V30 1409 H 146.332 0.14773 2.99536 0
M  V30 1410 H 143.885 0.114434 1.55881 0
M  V30 1411 H 144.62 -2.31896 2.26704 0
M  V30 1412 H 144.405 -1.28066 3.70596 0
M  V30 1413 H 145.895 -2.25252 3.51641 0
M  V30 1414 N 146.332 -1.57332 0.0918853 0
M  V30 1415 C 147.295 -2.12708 -0.85369 0
M  V30 1416 C 148.295 -1.05561 -1.213 0
M  V30 1417 O 149.485 -1.31461 -1.14296 0
M  V30 1418 C 146.617 -2.64503 -2.15061 0
M  V30 1419 H 147.81 -2.97573 -0.3729 0
M  V30 1420 H 145.363 -1.55509 -0.157072 0
M  V30 1421 H 146.098 -1.83149 -2.67632 0
M  V30 1422 H 145.883 -3.4284 -1.90272 0
M  V30 1423 H 147.373 -3.07351 -2.82711 0
M  V30 1424 N 147.81 0.181792 -1.56548 0
M  V30 1425 C 149.221 0.745244 -1.71181 0
M  V30 1426 C 149.572 1.83262 -0.70068 0
M  V30 1427 O 148.697 2.15946 0.140154 0
M  V30 1428 C 149.292 1.35859 -3.10367 0
M  V30 1429 C 147.851 1.86898 -3.2672 0
M  V30 1430 C 146.998 0.743942 -2.67134 0
M  V30 1431 H 149.949 -0.0434661 -1.5864 0
M  V30 1432 H 149.97 2.22817 -3.08436 0
M  V30 1433 H 149.482 0.566948 -3.83937 0
M  V30 1434 H 147.583 2.68738 -2.5809 0
M  V30 1435 H 147.696 2.02162 -4.34359 0
M  V30 1436 H 146.06 1.16169 -2.26665 0
M  V30 1437 H 146.843 -0.035676 -3.43281 0
M  V30 1438 N 149.288 1.51039 0.449983 0
M  V30 1439 C 150.699 1.557 1.03026 0
M  V30 1440 C 151.05 0.372939 1.92623 0
M  V30 1441 O 150.175 -0.511771 2.10261 0
M  V30 1442 C 150.77 2.82171 1.87523 0
M  V30 1443 C 149.329 2.89444 2.40622 0
M  V30 1444 C 148.476 2.50228 1.19504 0
M  V30 1445 H 151.427 1.56999 0.231745 0
M  V30 1446 H 151.448 2.65219 2.72835 0
M  V30 1447 H 150.96 3.68331 1.22286 0
M  V30 1448 H 149.061 2.07685 3.0935 0
M  V30 1449 H 149.174 3.92816 2.74285 0
M  V30 1450 H 147.538 2.03139 1.53644 0
M  V30 1451 H 148.321 3.38719 0.558972 0
M  V30 1452 N 150.766 -0.704594 1.40972 0
M  V30 1453 C 151.729 -1.80035 1.41845 0
M  V30 1454 C 152.729 -1.57774 0.310474 0
M  V30 1455 O 153.919 -1.64613 0.56992 0
M  V30 1456 C 151.051 -3.18284 1.22098 0
M  V30 1457 H 152.244 -1.80658 2.3938 0
M  V30 1458 H 149.797 -0.911329 1.26982 0
M  V30 1459 H 150.532 -3.23306 0.253672 0
M  V30 1460 H 150.317 -3.35843 2.02366 0
M  V30 1461 H 151.807 -3.98289 1.25522 0
M  V30 1462 N 152.244 -1.26651 -0.937939 0
M  V30 1463 C 153.655 -1.1125 -1.49934 0
M  V30 1464 C 154.006 0.306077 -1.93798 0
M  V30 1465 O 153.131 1.19792 -1.80219 0
M  V30 1466 C 153.726 -2.01339 -2.72485 0
M  V30 1467 C 152.285 -1.90074 -3.24883 0
M  V30 1468 C 151.432 -1.94498 -1.97651 0
M  V30 1469 H 154.383 -1.39693 -0.753091 0
M  V30 1470 H 154.404 -1.56319 -3.46907 0
M  V30 1471 H 153.916 -3.04577 -2.40529 0
M  V30 1472 H 152.017 -0.897827 -3.61621 0
M  V30 1473 H 152.13 -2.75778 -3.9177 0
M  V30 1474 H 150.494 -1.38591 -2.13693 0
M  V30 1475 H 151.277 -2.99372 -1.68022 0
M  V30 1476 N 153.722 1.14298 -1.08507 0
M  V30 1477 C 154.685 2.17607 -0.719711 0
M  V30 1478 C 155.685 1.58907 0.245997 0
M  V30 1479 O 156.875 1.74181 0.0254081 0
M  V30 1480 C 154.007 3.40842 -0.0627695 0
M  V30 1481 H 155.2 2.51443 -1.63452 0
M  V30 1482 H 152.753 1.28963 -0.88307 0
M  V30 1483 H 153.488 3.12587 0.863716 0
M  V30 1484 H 153.273 3.84713 -0.757504 0
M  V30 1485 H 154.763 4.17221 0.177786 0
M  V30 1486 N 155.201 0.870884 1.31352 0
M  V30 1487 C 156.612 0.534714 1.78879 0
M  V30 1488 C 156.963 -0.948423 1.71754 0
M  V30 1489 O 156.088 -1.74055 1.28584 0
M  V30 1490 C 156.683 0.963839 3.24801 0
M  V30 1491 C 155.242 0.679311 3.70219 0
M  V30 1492 C 154.389 1.15465 2.52117 0
M  V30 1493 H 157.34 1.05651 1.18421 0
M  V30 1494 H 157.361 0.286892 3.79417 0
M  V30 1495 H 156.873 2.04332 3.29955 0
M  V30 1496 H 154.974 -0.388769 3.70566 0
M  V30 1497 H 155.087 1.25698 4.62317 0
M  V30 1498 H 153.451 0.574383 2.48139 0
M  V30 1499 H 154.234 2.24157 2.60016 0
M  V30 1500 N 156.679 -1.44442 0.630414 0
M  V30 1501 C 157.642 -2.29107 -0.0652523 0
M  V30 1502 C 158.642 -1.41002 -0.772995 0
M  V30 1503 O 159.832 -1.62881 -0.617692 0
M  V30 1504 C 156.964 -3.22564 -1.10296 0
M  V30 1505 H 158.157 -2.92103 0.679401 0
M  V30 1506 H 155.71 -1.51343 0.390517 0
M  V30 1507 H 156.445 -2.64416 -1.87762 0
M  V30 1508 H 156.23 -3.87491 -0.59941 0
M  V30 1509 H 157.72 -3.86167 -1.5895 0
M  V30 1510 N 158.157 -0.370918 -1.53173 0
M  V30 1511 C 159.568 0.107139 -1.86392 0
M  V30 1512 C 159.919 1.47714 -1.29132 0
M  V30 1513 O 159.044 2.07464 -0.615439 0
M  V30 1514 C 159.639 0.201187 -3.38202 0
M  V30 1515 C 158.198 0.623507 -3.712 0
M  V30 1516 C 157.345 -0.225978 -2.76378 0
M  V30 1517 H 160.296 -0.58951 -1.47345 0
M  V30 1518 H 160.317 1.02377 -3.66468 0
M  V30 1519 H 159.829 -0.796058 -3.79848 0
M  V30 1520 H 157.93 1.62879 -3.35114 0
M  V30 1521 H 158.043 0.394414 -4.77474 0
M  V30 1522 H 156.407 0.305962 -2.52856 0
M  V30 1523 H 157.19 -1.22086 -3.20858 0
M  V30 1524 N 159.635 1.57281 -0.100228 0
M  V30 1525 C 160.598 2.13158 0.842398 0
M  V30 1526 C 161.598 1.06202 1.20738 0
M  V30 1527 O 162.788 1.32066 1.13597 0
M  V30 1528 C 159.92 2.65639 2.13655 0
M  V30 1529 H 161.113 2.97766 0.357114 0
M  V30 1530 H 158.666 1.5559 0.148823 0
M  V30 1531 H 159.401 1.84566 2.66657 0
M  V30 1532 H 159.186 3.43844 1.88451 0
M  V30 1533 H 160.676 3.08846 2.81077 0
M  V30 1534 N 161.113 -0.173488 1.56642 0
M  V30 1535 C 162.338 -0.910149 1.86363 0
M  V30 1536 C 162.763 -1.75132 0.686318 0
M  V30 1537 O 162.121 -1.77595 -0.364643 0
M  V30 1538 C 162.169 -1.76447 3.14482 0
M  V30 1539 O 161.273 -2.86584 2.96553 0
M  V30 1540 H 160.614 -0.255086 0.613047 0
M  V30 1541 H 163.144 -0.172283 2.03873 0
M  V30 1542 H 163.154 -2.16483 3.45831 0
M  V30 1543 H 161.829 -1.14658 3.99783 0
M  V30 1544 H 160.406 -2.50146 2.76553 0
M  V30 1545 N 162.591 -1.51276 -0.441967 0
M  V30 1546 C 163.816 -1.67799 -1.21895 0
M  V30 1547 C 164.241 -0.372864 -1.84367 0
M  V30 1548 O 163.599 0.666501 -1.68604 0
M  V30 1549 C 163.647 -2.79199 -2.28211 0
M  V30 1550 O 162.751 -2.42479 -3.33583 0
M  V30 1551 H 162.092 -0.559649 -0.357336 0
M  V30 1552 H 164.622 -1.97815 -0.522522 0
M  V30 1553 H 164.632 -3.03146 -2.73069 0
M  V30 1554 H 163.307 -3.73906 -1.82118 0
M  V30 1555 H 161.884 -2.29087 -2.94234 0
M  V30 1556 N 164.069 0.697108 -1.41344 0
M  V30 1557 C 165.317 1.45426 -1.40341 0
M  V30 1558 C 165.638 1.94996 -0.0128787 0
M  V30 1559 O 164.908 1.71599 0.945027 0
M  V30 1560 H 163.488 0.539594 -0.516573 0
M  V30 1561 H 166.15 0.825201 -1.76569 0
M  V30 1562 H 165.246 2.31817 -2.08967 0
M  V30 1563 N 165.547 1.27147 0.931209 0
M  V30 1564 C 166.479 1.05364 2.03546 0
M  V30 1565 C 167.492 0.0108438 1.62796 0
M  V30 1566 O 168.681 0.25202 1.76712 0
M  V30 1567 C 165.781 0.575566 3.33977 0
M  V30 1568 C 164.954 1.68985 4.03439 0
M  V30 1569 C 164.013 1.20813 5.12143 0
M  V30 1570 O 163.039 1.90712 5.363 0
M  V30 1571 N 164.241 0.0618851 5.80467 0
M  V30 1572 H 167.006 2.00454 2.22796 0
M  V30 1573 H 164.567 1.18666 1.10136 0
M  V30 1574 H 166.559 0.237264 4.04004 0
M  V30 1575 H 165.129 -0.282016 3.11325 0
M  V30 1576 H 164.349 2.19861 3.27192 0
M  V30 1577 H 165.637 2.4378 4.46597 0
M  V30 1578 H 165.035 -0.521621 5.6329 0
M  V30 1579 H 163.592 -0.217264 6.51438 0
M  V30 1580 N 167.025 -1.13721 1.09112 0
M  V30 1581 C 167.975 -2.17082 0.697091 0
M  V30 1582 C 168.959 -1.58321 -0.286923 0
M  V30 1583 O 170.151 -1.7673 -0.0978008 0
M  V30 1584 C 167.28 -3.43105 0.115729 0
M  V30 1585 C 166.366 -4.0888 1.12596 0
M  V30 1586 N 166.757 -4.4987 2.31195 0
M  V30 1587 C 165.055 -4.35471 0.963366 0
M  V30 1588 C 165.756 -5.01094 2.95431 0
M  V30 1589 N 164.732 -4.95751 2.23006 0
M  V30 1590 H 168.534 -2.46524 1.6001 0
M  V30 1591 H 166.048 -1.30481 0.966869 0
M  V30 1592 H 168.045 -4.16491 -0.184555 0
M  V30 1593 H 166.705 -3.15138 -0.78217 0
M  V30 1594 H 167.716 -4.42678 2.68806 0
M  V30 1595 H 164.393 -4.17328 0.119878 0
M  V30 1596 H 165.783 -5.4263 3.96236 0
M  V30 1597 N 168.503 -0.877838 -1.30888 0
M  V30 1598 C 169.453 -0.310872 -2.25871 0
M  V30 1599 C 170.437 0.556596 -1.50966 0
M  V30 1600 O 171.629 0.402187 -1.7237 0
M  V30 1601 C 168.758 0.479821 -3.3993 0
M  V30 1602 C 167.844 -0.401333 -4.22197 0
M  V30 1603 N 168.235 -1.49848 -4.83093 0
M  V30 1604 C 166.533 -0.195167 -4.45573 0
M  V30 1605 C 167.234 -2.0425 -5.44662 0
M  V30 1606 N 166.21 -1.33843 -5.26865 0
M  V30 1607 H 170.012 -1.1493 -2.70496 0
M  V30 1608 H 167.526 -0.726458 -1.45246 0
M  V30 1609 H 169.523 0.902582 -4.07012 0
M  V30 1610 H 168.183 1.31577 -2.96846 0
M  V30 1611 H 169.194 -1.88137 -4.82519 0
M  V30 1612 H 165.871 0.604192 -4.13105 0
M  V30 1613 H 167.261 -2.96345 -6.03017 0
M  V30 1614 N 169.982 1.44106 -0.638065 0
M  V30 1615 C 171.259 1.95453 -0.0759321 0
M  V30 1616 C 171.639 1.57984 1.40015 0
M  V30 1617 O 170.987 0.857361 2.11806 0
M  V30 1618 C 171.197 3.47655 -0.306132 0
M  V30 1619 C 172.545 4.24114 -0.203008 0
M  V30 1620 O 173.569 3.55405 -0.237871 0
M  V30 1621 O 172.428 5.46381 -0.113827 0
M  V30 1622 H 169.522 0.826797 0.0183332 0
M  V30 1623 H 172.068 1.54122 -0.710251 0
M  V30 1624 H 170.84 3.68 -1.3301 0
M  V30 1625 H 170.463 3.95949 0.361991 0
M  V30 1626 N 171.46 0.379036 1.52974 0
M  V30 1627 C 172.707 -0.206421 2.01445 0
M  V30 1628 C 173.035 -1.47668 1.26587 0
M  V30 1629 O 172.29 -1.92514 0.351675 0
M  V30 1630 C 172.589 -0.53096 3.53434 0
M  V30 1631 C 172.255 0.646546 4.46241 0
M  V30 1632 C 170.917 0.969604 4.7133 0
M  V30 1633 C 173.269 1.43479 5.01062 0
M  V30 1634 C 170.597 2.08263 5.48492 0
M  V30 1635 C 172.949 2.53834 5.7944 0
M  V30 1636 C 171.613 2.86659 6.02812 0
M  V30 1637 H 170.883 -0.0755349 0.73714 0
M  V30 1638 H 173.53 0.514271 1.84465 0
M  V30 1639 H 171.835 -1.33285 3.68432 0
M  V30 1640 H 173.532 -0.996417 3.88423 0
M  V30 1641 H 170.122 0.384734 4.2687 0
M  V30 1642 H 174.306 1.19844 4.81613 0
M  V30 1643 H 169.562 2.34078 5.64816 0
M  V30 1644 H 173.736 3.15319 6.20924 0
M  V30 1645 H 171.363 3.73026 6.62387 0
M  V30 1646 N 172.938 -1.57226 0.108567 0
M  V30 1647 C 173.868 -2.17778 -0.84232 0
M  V30 1648 C 174.849 -1.11487 -1.2847 0
M  V30 1649 O 176.034 -1.39681 -1.34918 0
M  V30 1650 C 173.164 -2.76888 -2.09644 0
M  V30 1651 C 172.118 -3.88669 -1.79221 0
M  V30 1652 C 171.444 -4.34541 -3.11574 0
M  V30 1653 C 172.744 -5.11251 -1.06864 0
M  V30 1654 H 174.438 -2.97489 -0.337774 0
M  V30 1655 H 171.984 -1.43097 -0.161025 0
M  V30 1656 H 173.937 -3.17904 -2.76614 0
M  V30 1657 H 172.661 -1.94451 -2.62405 0
M  V30 1658 H 171.32 -3.48213 -1.14644 0
M  V30 1659 H 170.968 -3.48977 -3.62249 0
M  V30 1660 H 170.668 -5.09914 -2.91996 0
M  V30 1661 H 172.192 -4.782 -3.7968 0
M  V30 1662 H 173.606 -5.49352 -1.63968 0
M  V30 1663 H 172.003 -5.9214 -0.974178 0
M  V30 1664 H 173.073 -4.8487 -0.0536168 0
M  V30 1665 N 174.416 0.165178 -1.56732 0
M  V30 1666 C 175.641 0.900253 -1.86843 0
M  V30 1667 C 176.066 1.74766 -0.695596 0
M  V30 1668 O 175.424 1.77786 0.35522 0
M  V30 1669 C 175.472 1.74777 -3.15413 0
M  V30 1670 O 174.576 2.85007 -2.98068 0
M  V30 1671 H 173.917 0.251832 -0.614391 0
M  V30 1672 H 176.447 0.161468 -2.03962 0
M  V30 1673 H 176.457 2.14646 -3.46974 0
M  V30 1674 H 175.132 1.12537 -4.00385 0
M  V30 1675 H 173.709 2.48676 -2.77875 0
M  V30 1676 N 175.894 1.51508 0.433938 0
M  V30 1677 C 177.171 1.54888 1.19453 0
M  V30 1678 C 177.551 0.315154 2.08734 0
M  V30 1679 O 176.899 -0.699558 2.17528 0
M  V30 1680 C 177.109 2.86467 1.99342 0
M  V30 1681 C 178.457 3.38545 2.56267 0
M  V30 1682 O 179.481 2.88041 2.0955 0
M  V30 1683 O 178.34 4.26675 3.41483 0
M  V30 1684 H 175.434 0.622863 0.544032 0
M  V30 1685 H 177.98 1.63823 0.442732 0
M  V30 1686 H 176.752 3.67718 1.33788 0
M  V30 1687 H 176.375 2.8071 2.8158 0
M  V30 1688 N 177.372 -0.689602 1.41712 0
M  V30 1689 C 178.302 -1.81577 1.46806 0
M  V30 1690 C 179.283 -1.66945 0.326105 0
M  V30 1691 O 180.468 -1.86588 0.538377 0
M  V30 1692 C 177.598 -3.19762 1.35535 0
M  V30 1693 C 176.552 -3.49107 2.47605 0
M  V30 1694 C 175.878 -4.86711 2.21397 0
M  V30 1695 C 177.178 -3.47483 3.89939 0
M  V30 1696 H 178.872 -1.7757 2.41058 0
M  V30 1697 H 176.418 -0.852887 1.16025 0
M  V30 1698 H 178.371 -3.98263 1.3771 0
M  V30 1699 H 177.095 -3.24409 0.377708 0
M  V30 1700 H 175.754 -2.72959 2.44722 0
M  V30 1701 H 175.402 -4.8799 1.21961 0
M  V30 1702 H 175.102 -5.0731 2.96497 0
M  V30 1703 H 176.626 -5.67515 2.25297 0
M  V30 1704 H 178.04 -4.1598 3.94505 0
M  V30 1705 H 176.437 -3.79615 4.64771 0
M  V30 1706 H 177.507 -2.46341 4.17665 0
M  V30 1707 N 178.85 -1.27639 -0.924453 0
M  V30 1708 C 180.097 -1.14167 -1.67249 0
M  V30 1709 C 180.425 0.311863 -1.91984 0
M  V30 1710 O 179.68 1.24425 -1.51053 0
M  V30 1711 C 179.979 -1.87407 -3.04325 0
M  V30 1712 C 179.645 -3.37249 -2.99289 0
M  V30 1713 C 178.307 -3.7812 -2.97622 0
M  V30 1714 C 180.659 -4.32845 -2.90336 0
M  V30 1715 C 177.987 -5.12944 -2.8479 0
M  V30 1716 C 180.339 -5.6773 -2.79045 0
M  V30 1717 C 179.003 -6.07889 -2.7573 0
M  V30 1718 H 178.273 -0.417766 -0.612007 0
M  V30 1719 H 180.92 -1.58286 -1.07786 0
M  V30 1720 H 179.225 -1.35805 -3.67511 0
M  V30 1721 H 180.922 -1.74408 -3.61086 0
M  V30 1722 H 177.512 -3.04748 -3.01374 0
M  V30 1723 H 181.696 -4.02239 -2.90719 0
M  V30 1724 H 176.952 -5.432 -2.80612 0
M  V30 1725 H 181.126 -6.41472 -2.71083 0
M  V30 1726 H 178.753 -7.12314 -2.65544 0
M  V30 1727 N 180.328 1.1314 -1.09713 0
M  V30 1728 C 181.553 1.88862 -0.857081 0
M  V30 1729 C 181.978 1.78729 0.586304 0
M  V30 1730 O 181.336 1.13692 1.41222 0
M  V30 1731 C 181.384 3.36325 -1.30069 0
M  V30 1732 O 180.488 4.09815 -0.461007 0
M  V30 1733 H 179.829 0.587108 -0.310162 0
M  V30 1734 H 182.359 1.43129 -1.46203 0
M  V30 1735 H 182.369 3.87157 -1.28738 0
M  V30 1736 H 181.044 3.43017 -2.35185 0
M  V30 1737 H 179.621 3.68986 -0.538888 0
M  V30 1738 N 181.806 0.884767 1.30421 0
M  V30 1739 C 183.083 0.423185 1.90967 0
M  V30 1740 C 183.463 -1.09605 1.80416 0
M  V30 1741 O 182.811 -1.93126 1.22125 0
M  V30 1742 C 183.021 0.921056 3.36627 0
M  V30 1743 C 184.369 0.955903 4.137 0
M  V30 1744 O 185.393 0.867706 3.4547 0
M  V30 1745 O 184.252 1.08614 5.35598 0
M  V30 1746 H 181.346 0.129369 0.816819 0
M  V30 1747 H 183.892 0.973653 1.3899 0
M  V30 1748 H 182.664 1.96489 3.3839 0
M  V30 1749 H 182.287 0.349741 3.96059 0
M  V30 1750 N 183.284 -1.43765 0.645699 0
M  V30 1751 C 184.561 -1.9541 0.0862963 0
M  V30 1752 C 184.941 -1.58725 -1.39175 0
M  V30 1753 O 184.289 -0.868581 -2.11348 0
M  V30 1754 C 184.499 -3.47488 0.324565 0
M  V30 1755 C 185.847 -4.24001 0.225497 0
M  V30 1756 O 186.871 -3.55274 0.256715 0
M  V30 1757 O 185.73 -5.46313 0.142801 0
M  V30 1758 H 182.824 -0.826882 -0.0139483 0
M  V30 1759 H 185.37 -1.53743 0.718415 0
M  V30 1760 H 184.142 -3.67289 1.3496 0
M  V30 1761 H 183.765 -3.96135 -0.340987 0
M  V30 1762 N 184.763 -0.387143 -1.52771 0
M  V30 1763 C 185.993 0.195585 -2.05672 0
M  V30 1764 C 186.401 1.41241 -1.25887 0
M  V30 1765 O 185.744 1.81265 -0.298081 0
M  V30 1766 C 185.806 0.632327 -3.53895 0
M  V30 1767 C 185.47 -0.470739 -4.54569 0
M  V30 1768 C 186.467 -1.32746 -5.02667 0
M  V30 1769 C 184.152 -0.637151 -4.98243 0
M  V30 1770 C 186.146 -2.33574 -5.93061 0
M  V30 1771 C 183.833 -1.64877 -5.88438 0
M  V30 1772 C 184.831 -2.49649 -6.35739 0
M  V30 1773 O 184.519 -3.49082 -7.24153 0
M  V30 1774 H 184.251 0.033658 -0.675162 0
M  V30 1775 H 186.805 -0.550221 -1.97893 0
M  V30 1776 H 185.035 1.43008 -3.59285 0
M  V30 1777 H 186.724 1.14048 -3.89548 0
M  V30 1778 H 187.49 -1.21019 -4.69659 0
M  V30 1779 H 183.369 0.0129567 -4.60998 0
M  V30 1780 H 186.913 -2.99777 -6.29904 0
M  V30 1781 H 182.81 -1.76643 -6.2086 0
M  V30 1782 H 183.578 -3.45065 -7.42208 0
M  V30 1783 N 186.241 1.57166 -0.116904 0
M  V30 1784 C 187.489 1.94737 0.540533 0
M  V30 1785 C 187.81 1.00096 1.67349 0
M  V30 1786 O 187.08 0.0568854 1.95817 0
M  V30 1787 H 185.66 0.718981 0.202669 0
M  V30 1788 H 188.322 1.94017 -0.185353 0
M  V30 1789 H 187.418 2.97719 0.936483 0
M  V30 1790 N 187.719 -0.156864 1.56817 0
M  V30 1791 C 188.967 -0.869404 1.82444 0
M  V30 1792 C 189.288 -1.82147 0.69623 0
M  V30 1793 O 188.558 -1.93847 -0.28287 0
M  V30 1794 H 187.138 -0.324043 0.673056 0
M  V30 1795 H 189.8 -0.153224 1.94297 0
M  V30 1796 H 188.896 -1.43761 2.77019 0
M  V30 1797 N 189.197 -1.51736 -0.425897 0
M  V30 1798 C 190.144 -1.73875 -1.51776 0
M  V30 1799 C 191.114 -0.580702 -1.55618 0
M  V30 1800 O 192.299 -0.81641 -1.72451 0
M  V30 1801 C 189.439 -1.88012 -2.89388 0
M  V30 1802 C 188.552 -3.15606 -2.94986 0
M  V30 1803 C 187.687 -3.20271 -4.23793 0
M  V30 1804 C 186.726 -4.42134 -4.23302 0
M  V30 1805 N 185.863 -4.44284 -5.43651 0
M  V30 1806 H 190.703 -2.67071 -1.32201 0
M  V30 1807 H 188.24 -1.32351 -0.642008 0
M  V30 1808 H 190.198 -1.9419 -3.69251 0
M  V30 1809 H 188.828 -0.98213 -3.07496 0
M  V30 1810 H 187.88 -3.18681 -2.07717 0
M  V30 1811 H 189.192 -4.05486 -2.90486 0
M  V30 1812 H 188.346 -3.25428 -5.12036 0
M  V30 1813 H 187.085 -2.28299 -4.30965 0
M  V30 1814 H 186.09 -4.3714 -3.3345 0
M  V30 1815 H 187.315 -5.35382 -4.17783 0
M  V30 1816 H 185.261 -3.55188 -5.51523 0
M  V30 1817 H 185.178 -5.27988 -5.41078 0
M  V30 1818 H 186.446 -4.53649 -6.33895 0
M  V30 1819 N 190.675 0.682077 -1.42076 0
M  V30 1820 C 191.623 1.81707 -1.45208 0
M  V30 1821 C 192.617 1.66183 -0.328591 0
M  V30 1822 O 193.823 1.7288 -0.501264 0
M  V30 1823 H 190.198 0.599014 -0.454628 0
M  V30 1824 H 192.169 1.76183 -2.40836 0
M  V30 1825 C 190.918 3.19816 -1.36428 0
M  V30 1826 H 190.241 3.32385 -2.22171 0
M  V30 1827 H 191.681 3.99272 -1.42681 0
M  V30 1828 C 190.14 3.36809 -0.078191 0
M  V30 1829 O 190.67 3.92124 0.87188 0
M  V30 1830 N 188.876 2.906 0.00229266 0
M  V30 1831 H 188.423 2.45772 -0.771616 0
M  V30 1832 H 188.381 3.02347 0.862179 0
M  V30 1833 N 192.153 1.28127 0.917671 0
M  V30 1834 C 193.393 1.163 1.68088 0
M  V30 1835 C 193.757 -0.284515 1.8988 0
M  V30 1836 O 194.958 -0.525413 2.63615 0
M  V30 1837 C 193.229 1.93546 3.00457 0
M  V30 1838 S 194.788 1.98048 3.91564 0
M  V30 1839 H 191.606 0.415005 0.577315 0
M  V30 1840 H 194.208 1.62173 1.09179 0
M  V30 1841 H 192.912 2.97888 2.82295 0
M  V30 1842 H 192.443 1.48207 3.64415 0
M  V30 1843 H 194.458 1.08415 4.84211 0
M  V30 1844 N 193.631 -1.12557 1.10312 0
M  V30 1845 C 194.578 -2.18247 0.750781 0
M  V30 1846 C 195.548 -1.63853 -0.272293 0
M  V30 1847 O 196.733 -1.90195 -0.151862 0
M  V30 1848 C 193.873 -3.44591 0.187379 0
M  V30 1849 C 192.986 -4.13046 1.2656 0
M  V30 1850 C 192.121 -5.27034 0.663978 0
M  V30 1851 C 191.16 -5.87353 1.72287 0
M  V30 1852 N 190.297 -6.92757 1.1416 0
M  V30 1853 H 195.137 -2.47732 1.65628 0
M  V30 1854 H 192.674 -1.21629 0.827337 0
M  V30 1855 H 194.632 -4.16904 -0.157148 0
M  V30 1856 H 193.262 -3.15527 -0.681355 0
M  V30 1857 H 192.314 -3.38924 1.72727 0
M  V30 1858 H 193.626 -4.53947 2.06721 0
M  V30 1859 H 192.78 -6.06104 0.268824 0
M  V30 1860 H 191.519 -4.87407 -0.169082 0
M  V30 1861 H 190.524 -5.06971 2.12746 0
M  V30 1862 H 191.749 -6.29051 2.55875 0
M  V30 1863 H 189.695 -6.5517 0.329984 0
M  V30 1864 H 189.612 -7.3225 1.88007 0
M  V30 1865 H 190.88 -7.75658 0.772956 0
M  V30 1866 N 195.109 -0.891671 -1.2995 0
M  V30 1867 C 196.056 -0.361736 -2.27948 0
M  V30 1868 C 197.026 0.551761 -1.56668 0
M  V30 1869 O 198.211 0.478736 -1.84696 0
M  V30 1870 C 195.351 0.411825 -3.42634 0
M  V30 1871 C 194.464 -0.531651 -4.28716 0
M  V30 1872 C 193.599 0.258167 -5.30572 0
M  V30 1873 C 192.638 -0.680349 -6.08307 0
M  V30 1874 N 191.775 0.0745613 -7.0206 0
M  V30 1875 H 196.615 -1.20254 -2.72659 0
M  V30 1876 H 194.152 -0.604352 -1.34112 0
M  V30 1877 H 196.11 0.876304 -4.07893 0
M  V30 1878 H 194.74 1.21715 -2.98974 0
M  V30 1879 H 193.792 -1.11463 -3.63703 0
M  V30 1880 H 195.104 -1.25038 -4.82874 0
M  V30 1881 H 194.258 0.784204 -6.0161 0
M  V30 1882 H 192.997 1.01008 -4.77126 0
M  V30 1883 H 192.002 -1.21796 -5.3614 0
M  V30 1884 H 193.227 -1.43145 -6.63842 0
M  V30 1885 H 191.173 0.808883 -6.50994 0
M  V30 1886 H 191.09 -0.584409 -7.53738 0
M  V30 1887 H 192.358 0.581123 -7.77331 0
M  V30 1888 N 196.587 1.43421 -0.653314 0
M  V30 1889 C 197.998 1.85065 -0.246537 0
M  V30 1890 C 198.349 1.54688 1.2069 0
M  V30 1891 O 197.474 0.995896 1.92122 0
M  V30 1892 C 198.069 3.35922 -0.440666 0
M  V30 1893 C 196.628 3.76297 -0.0882064 0
M  V30 1894 C 195.775 2.67147 -0.743484 0
M  V30 1895 H 198.726 1.33572 -0.856979 0
M  V30 1896 H 198.747 3.79204 0.313798 0
M  V30 1897 H 198.259 3.58 -1.49858 0
M  V30 1898 H 196.36 3.5983 0.96711 0
M  V30 1899 H 196.473 4.76338 -0.513738 0
M  V30 1900 H 194.837 2.54086 -0.176712 0
M  V30 1901 H 195.62 2.92053 -1.80443 0
M  V30 1902 N 198.065 0.39524 1.52563 0
M  V30 1903 C 199.028 -0.425001 2.25225 0
M  V30 1904 C 200.028 -0.985266 1.27079 0
M  V30 1905 O 201.218 -0.866332 1.5113 0
M  V30 1906 C 198.35 -1.59686 3.01186 0
M  V30 1907 H 199.543 0.211233 2.99155 0
M  V30 1908 H 197.096 0.147472 1.55603 0
M  V30 1909 H 197.831 -2.27035 2.31572 0
M  V30 1910 H 197.616 -1.20176 3.73229 0
M  V30 1911 H 199.106 -2.17743 3.5634 0
M  V30 1912 N 199.544 -1.57102 0.125237 0
M  V30 1913 C 200.454 -2.19191 -0.8362 0
M  V30 1914 C 201.47 -1.16985 -1.28805 0
M  V30 1915 O 202.646 -1.49479 -1.34974 0
M  V30 1916 C 199.711 -2.78407 -2.06617 0
M  V30 1917 C 198.772 -3.9567 -1.66565 0
M  V30 1918 C 198.005 -4.52052 -2.83698 0
M  V30 1919 O 198.228 -4.07326 -3.99302 0
M  V30 1920 O 197.162 -5.42645 -2.60423 0
M  V30 1921 H 200.988 -3.01816 -0.337776 0
M  V30 1922 H 198.573 -1.4906 -0.100695 0
M  V30 1923 H 200.455 -3.16129 -2.7864 0
M  V30 1924 H 199.13 -1.9881 -2.55453 0
M  V30 1925 H 198.037 -3.62705 -0.916296 0
M  V30 1926 H 199.37 -4.76722 -1.22464 0
M  V30 1927 N 201.022 0.148545 -1.56898 0
M  V30 1928 C 202.252 0.875118 -1.8715 0
M  V30 1929 C 202.66 1.75322 -0.711262 0
M  V30 1930 O 202.003 1.80745 0.328151 0
M  V30 1931 C 202.065 1.7844 -3.12089 0
M  V30 1932 C 201.729 1.08361 -4.43967 0
M  V30 1933 C 202.726 0.438247 -5.1805 0
M  V30 1934 C 200.411 1.07358 -4.90693 0
M  V30 1935 C 202.405 -0.20779 -6.37061 0
M  V30 1936 C 200.092 0.42373 -6.09629 0
M  V30 1937 C 201.09 -0.215829 -6.82659 0
M  V30 1938 O 200.778 -0.855378 -7.99336 0
M  V30 1939 H 200.51 0.258504 -0.624621 0
M  V30 1940 H 203.064 0.14652 -2.04877 0
M  V30 1941 H 201.294 2.55389 -2.90367 0
M  V30 1942 H 202.983 2.38279 -3.286 0
M  V30 1943 H 203.749 0.437817 -4.8302 0
M  V30 1944 H 199.628 1.5608 -4.33774 0
M  V30 1945 H 203.172 -0.70758 -6.94002 0
M  V30 1946 H 199.069 0.421822 -6.4412 0
M  V30 1947 H 199.837 -0.756892 -8.14993 0
M  V30 1948 N 202.5 1.5196 0.417844 0
M  V30 1949 C 203.748 1.65263 1.16329 0
M  V30 1950 C 204.069 0.380634 1.91249 0
M  V30 1951 O 203.339 -0.604214 1.86349 0
M  V30 1952 H 201.919 0.60912 0.432414 0
M  V30 1953 H 204.581 1.88969 0.477162 0
M  V30 1954 H 203.677 2.4896 1.88217 0
M  V30 1955 N 203.978 -0.674533 1.42435 0
M  V30 1956 C 205.208 -1.46071 1.46105 0
M  V30 1957 C 205.616 -1.89067 0.0709605 0
M  V30 1958 O 204.959 -1.58731 -0.924677 0
M  V30 1959 C 205.021 -2.74145 2.32561 0
M  V30 1960 C 204.685 -2.53224 3.8043 0
M  V30 1961 C 205.682 -2.17809 4.72075 0
M  V30 1962 C 203.367 -2.6821 4.24698 0
M  V30 1963 C 205.361 -1.97648 6.05982 0
M  V30 1964 C 203.048 -2.47665 5.58664 0
M  V30 1965 C 204.046 -2.12437 6.49122 0
M  V30 1966 O 203.734 -1.9209 7.80613 0
M  V30 1967 H 203.466 -0.455959 0.499076 0
M  V30 1968 H 206.02 -0.836193 1.87609 0
M  V30 1969 H 204.25 -3.3908 1.85908 0
M  V30 1970 H 205.939 -3.36028 2.27683 0
M  V30 1971 H 206.705 -2.05826 4.39159 0
M  V30 1972 H 202.584 -2.94609 3.54579 0
M  V30 1973 H 206.128 -1.70075 6.7655 0
M  V30 1974 H 202.025 -2.59244 5.91154 0
M  V30 1975 H 202.793 -2.06686 7.91974 0
M  V30 1976 N 205.456 -1.28612 -0.910864 0
M  V30 1977 C 206.702 -1.16106 -1.66274 0
M  V30 1978 C 207.035 0.289113 -1.92036 0
M  V30 1979 O 206.31 1.21 -1.52281 0
M  V30 1980 C 206.593 -1.96309 -3.01885 0
M  V30 1981 C 206.446 -3.49405 -2.8326 0
M  V30 1982 C 207.765 -1.78076 -4.02463 0
M  V30 1983 H 204.884 -0.423152 -0.603417 0
M  V30 1984 H 207.526 -1.57961 -1.05586 0
M  V30 1985 H 205.676 -1.60742 -3.53687 0
M  V30 1986 H 207.348 -3.94894 -2.38446 0
M  V30 1987 H 205.591 -3.74893 -2.18261 0
M  V30 1988 H 206.262 -4.00784 -3.79574 0
M  V30 1989 H 208.738 -2.0912 -3.59733 0
M  V30 1990 H 207.614 -2.36561 -4.95308 0
M  V30 1991 H 207.875 -0.733008 -4.35981 0
M  V30 1992 N 206.934 1.1197 -1.10907 0
M  V30 1993 C 208.159 1.87942 -0.877064 0
M  V30 1994 C 208.584 1.79341 0.567314 0
M  V30 1995 O 207.942 1.15184 1.40009 0
M  V30 1996 C 207.99 3.34926 -1.33629 0
M  V30 1997 O 207.094 4.09303 -0.504447 0
M  V30 1998 H 206.435 0.583785 -0.316371 0
M  V30 1999 H 208.965 1.4157 -1.47712 0
M  V30 2000 H 208.975 3.8577 -1.32837 0
M  V30 2001 H 207.65 3.40504 -2.3881 0
M  V30 2002 H 206.227 3.68393 -0.577993 0
M  V30 2003 N 208.412 0.89855 1.29475 0
M  V30 2004 C 209.342 0.39201 2.30186 0
M  V30 2005 C 210.323 -0.532359 1.61555 0
M  V30 2006 O 211.508 -0.443331 1.89072 0
M  V30 2007 C 208.638 -0.382353 3.45189 0
M  V30 2008 C 207.592 0.451483 4.25612 0
M  V30 2009 C 206.918 -0.450307 5.328 0
M  V30 2010 C 208.218 1.70079 4.93832 0
M  V30 2011 H 209.912 1.23362 2.72804 0
M  V30 2012 H 207.458 0.594638 1.31149 0
M  V30 2013 H 209.411 -0.747451 4.14718 0
M  V30 2014 H 208.135 -1.25774 3.01411 0
M  V30 2015 H 206.794 0.798897 3.57789 0
M  V30 2016 H 206.442 -1.32379 4.85268 0
M  V30 2017 H 206.142 0.103902 5.87508 0
M  V30 2018 H 207.666 -0.811623 6.05182 0
M  V30 2019 H 209.08 1.40549 5.55805 0
M  V30 2020 H 207.477 2.19623 5.58467 0
M  V30 2021 H 208.547 2.43744 4.19186 0
M  V30 2022 N 209.89 -1.43072 0.660911 0
M  V30 2023 C 211.138 -2.01323 0.177094 0
M  V30 2024 C 211.459 -1.5245 -1.2159 0
M  V30 2025 O 210.729 -0.740322 -1.81373 0
M  V30 2026 H 209.309 -0.744382 0.0624804 0
M  V30 2027 H 211.971 -1.75179 0.854305 0
M  V30 2028 H 211.067 -3.11649 0.167641 0
M  V30 2029 N 211.368 -0.403325 -1.52352 0
M  V30 2030 C 212.784 -0.0539281 -1.59509 0
M  V30 2031 C 212.984 1.43307 -1.41652 0
M  V30 2032 O 212.04 2.19924 -1.24056 0
M  V30 2033 C 213.353 -0.543654 -2.95745 0
M  V30 2034 C 214.901 -0.501125 -3.08962 0
M  V30 2035 C 215.376 -0.967267 -4.47669 0
M  V30 2036 N 216.867 -0.923849 -4.53893 0
M  V30 2037 C 217.602 -1.25578 -5.5948 0
M  V30 2038 N 217.098 -1.65889 -6.72646 0
M  V30 2039 N 218.891 -1.17613 -5.49658 0
M  V30 2040 H 211.042 -1.37123 -1.62206 0
M  V30 2041 H 213.305 -0.56294 -0.76276 0
M  V30 2042 H 213.011 -1.58275 -3.14073 0
M  V30 2043 H 212.885 0.0498042 -3.77167 0
M  V30 2044 H 215.272 0.528909 -2.90321 0
M  V30 2045 H 215.353 -1.13056 -2.2946 0
M  V30 2046 H 214.997 -1.9956 -4.67053 0
M  V30 2047 H 214.927 -0.314698 -5.25659 0
M  V30 2048 H 217.418 -0.627403 -3.72655 0
M  V30 2049 H 217.731 -1.89543 -7.49195 0
M  V30 2050 H 216.076 -1.69787 -6.73942 0
M  V30 2051 H 219.267 -0.860115 -4.6013 0
M  V30 2052 H 219.44 -1.43812 -6.3184 0
M  V30 2053 N 212.846 1.57033 -0.133567 0
M  V30 2054 C 213.776 2.1909 0.807567 0
M  V30 2055 C 214.757 1.13517 1.26681 0
M  V30 2056 O 215.942 1.41809 1.32679 0
M  V30 2057 C 213.072 2.80188 2.05212 0
M  V30 2058 C 212.026 3.91471 1.73015 0
M  V30 2059 C 211.352 4.39443 3.04622 0
M  V30 2060 C 212.652 5.12886 0.987168 0
M  V30 2061 H 214.346 2.97988 0.290403 0
M  V30 2062 H 211.892 1.43335 0.138239 0
M  V30 2063 H 213.845 3.22264 2.71521 0
M  V30 2064 H 212.569 1.98601 2.59278 0
M  V30 2065 H 211.228 3.49993 1.0909 0
M  V30 2066 H 210.876 3.54695 3.56651 0
M  V30 2067 H 210.576 5.14495 2.83847 0
M  V30 2068 H 212.1 4.8418 3.72024 0
M  V30 2069 H 213.514 5.51891 1.55208 0
M  V30 2070 H 211.911 5.93615 0.87985 0
M  V30 2071 H 212.981 4.84894 -0.0235286 0
M  V30 2072 N 214.325 -0.140222 1.56975 0
M  V30 2073 C 215.573 -0.850005 1.83356 0
M  V30 2074 C 215.894 -1.81399 0.71551 0
M  V30 2075 O 215.164 -1.94136 -0.262294 0
M  V30 2076 H 213.744 -0.316886 0.676456 0
M  V30 2077 H 216.406 -0.132608 1.94448 0
M  V30 2078 H 215.502 -1.40814 2.78528 0
M  V30 2079 N 215.803 -1.52179 -0.40978 0
M  V30 2080 C 216.766 -1.74853 -1.48186 0
M  V30 2081 C 217.766 -0.618417 -1.48433 0
M  V30 2082 O 218.956 -0.886286 -1.49969 0
M  V30 2083 C 216.088 -1.8303 -2.87598 0
M  V30 2084 H 217.281 -2.70559 -1.29374 0
M  V30 2085 H 214.834 -1.42586 -0.640233 0
M  V30 2086 H 215.569 -0.89236 -3.11781 0
M  V30 2087 H 215.354 -2.65187 -2.88822 0
M  V30 2088 H 216.844 -2.02316 -3.65319 0
M  V30 2089 N 217.281 0.66697 -1.42791 0
M  V30 2090 C 218.244 1.76211 -1.46568 0
M  V30 2091 C 219.244 1.56896 -0.352196 0
M  V30 2092 O 220.434 1.63044 -0.613364 0
M  V30 2093 C 217.566 3.14935 -1.30494 0
M  V30 2094 H 218.759 1.74247 -2.44086 0
M  V30 2095 H 216.312 0.877342 -1.29354 0
M  V30 2096 H 217.047 3.2252 -0.339301 0
M  V30 2097 H 216.832 3.30359 -2.11199 0
M  V30 2098 H 218.322 3.94821 -1.36038 0
M  V30 2099 N 218.759 1.29093 0.90403 0
M  V30 2100 C 219.706 1.13853 2.00764 0
M  V30 2101 C 220.676 0.0330084 1.66067 0
M  V30 2102 O 221.861 0.199733 1.89752 0
M  V30 2103 C 219.001 0.816537 3.35301 0
M  V30 2104 C 218.114 2.00206 3.82807 0
M  V30 2105 C 217.249 1.61983 5.059 0
M  V30 2106 C 216.288 2.77143 5.45764 0
M  V30 2107 N 215.425 2.39346 6.60044 0
M  V30 2108 H 220.265 2.08276 2.13132 0
M  V30 2109 H 217.802 1.03648 1.04381 0
M  V30 2110 H 219.76 0.610557 4.12708 0
M  V30 2111 H 218.39 -0.090779 3.22672 0
M  V30 2112 H 217.442 2.31988 3.01473 0
M  V30 2113 H 218.754 2.86512 4.08304 0
M  V30 2114 H 217.908 1.37649 5.90879 0
M  V30 2115 H 216.647 0.728202 4.82233 0
M  V30 2116 H 215.652 3.02165 4.59322 0
M  V30 2117 H 216.877 3.66964 5.71414 0
M  V30 2118 H 214.823 1.52665 6.37989 0
M  V30 2119 H 214.74 3.19185 6.85315 0
M  V30 2120 H 216.008 2.1832 7.48303 0
M  V30 2121 N 220.237 -1.11381 1.11499 0
M  V30 2122 C 221.485 -1.8277 0.862524 0
M  V30 2123 C 221.806 -1.85097 -0.613534 0
M  V30 2124 O 221.076 -1.32198 -1.4457 0
M  V30 2125 H 219.656 -0.676823 0.316101 0
M  V30 2126 H 222.318 -1.34816 1.4075 0
M  V30 2127 H 221.414 -2.86614 1.23527 0
M  V30 2128 N 221.715 -0.905404 -1.28997 0
M  V30 2129 C 222.678 -0.392253 -2.25819 0
M  V30 2130 C 223.678 0.476753 -1.5357 0
M  V30 2131 O 224.868 0.280994 -1.71919 0
M  V30 2132 C 222 0.438588 -3.38067 0
M  V30 2133 H 223.193 -1.24743 -2.72725 0
M  V30 2134 H 220.746 -0.684051 -1.40536 0
M  V30 2135 H 221.481 1.31352 -2.96508 0
M  V30 2136 H 221.266 -0.184167 -3.91667 0
M  V30 2137 H 222.756 0.78873 -4.10084 0
M  V30 2138 N 223.193 1.4272 -0.668489 0
M  V30 2139 C 224.123 2.335 -0.000100175 0
M  V30 2140 C 225.104 1.50328 0.795964 0
M  V30 2141 O 226.289 1.78949 0.754385 0
M  V30 2142 C 223.419 3.33874 0.956302 0
M  V30 2143 C 222.373 4.27152 0.269278 0
M  V30 2144 C 221.699 5.17684 1.33818 0
M  V30 2145 C 222.999 5.15373 -0.847805 0
M  V30 2146 H 224.693 2.89639 -0.758244 0
M  V30 2147 H 222.239 1.39269 -0.366079 0
M  V30 2148 H 224.192 3.9629 1.43292 0
M  V30 2149 H 222.916 2.76025 1.74579 0
M  V30 2150 H 221.575 3.66123 -0.187042 0
M  V30 2151 H 221.223 4.56165 2.1195 0
M  V30 2152 H 220.923 5.80918 0.883659 0
M  V30 2153 H 222.447 5.82974 1.81586 0
M  V30 2154 H 223.861 5.7151 -0.452681 0
M  V30 2155 H 222.258 5.87407 -1.22773 0
M  V30 2156 H 223.328 4.5415 -1.69929 0
M  V30 2157 N 224.671 0.411399 1.52136 0
M  V30 2158 C 225.621 -0.430376 2.23901 0
M  V30 2159 C 226.605 -1.0116 1.25121 0
M  V30 2160 O 227.797 -0.934044 1.50348 0
M  V30 2161 C 224.926 -1.54527 3.06556 0
M  V30 2162 C 224.012 -0.9747 4.12747 0
M  V30 2163 N 224.403 -0.130991 5.0563 0
M  V30 2164 C 222.701 -1.24497 4.28271 0
M  V30 2165 C 223.402 0.186689 5.814 0
M  V30 2166 N 222.378 -0.42304 5.41951 0
M  V30 2167 H 226.18 0.220509 2.93072 0
M  V30 2168 H 223.694 0.221952 1.60876 0
M  V30 2169 H 225.691 -2.16093 3.56524 0
M  V30 2170 H 224.351 -2.19875 2.38925 0
M  V30 2171 H 225.362 0.23349 5.17373 0
M  V30 2172 H 222.039 -1.89787 3.7187 0
M  V30 2173 H 223.429 0.871673 6.66222 0
M  V30 2174 N 226.149 -1.5696 0.141893 0
M  V30 2175 C 227.56 -1.82797 -0.379776 0
M  V30 2176 C 227.911 -1.06033 -1.6508 0
M  V30 2177 O 227.036 -0.304011 -2.14254 0
M  V30 2178 C 227.631 -3.31578 -0.695802 0
M  V30 2179 C 226.19 -3.58014 -1.16201 0
M  V30 2180 C 225.337 -2.76699 -0.182455 0
M  V30 2181 H 228.288 -1.54406 0.366675 0
M  V30 2182 H 228.309 -3.47454 -1.55099 0
M  V30 2183 H 227.821 -3.87421 0.229449 0
M  V30 2184 H 225.922 -3.07553 -2.10338 0
M  V30 2185 H 226.035 -4.66501 -1.09151 0
M  V30 2186 H 224.399 -2.45618 -0.674072 0
M  V30 2187 H 225.182 -3.35311 0.736297 0
M  V30 2188 N 227.627 0.131896 -1.57047 0
M  V30 2189 C 228.875 0.840269 -1.83804 0
M  V30 2190 C 229.196 1.81017 -0.72512 0
M  V30 2191 O 228.466 1.94272 0.251995 0
M  V30 2192 H 227.046 0.313294 -0.678127 0
M  V30 2193 H 229.708 0.122294 -1.94516 0
M  V30 2194 H 228.804 1.39335 -2.79271 0
M  V30 2195 N 229.106 1.52395 0.401703 0
M  V30 2196 C 230.346 1.68498 1.15705 0
M  V30 2197 C 230.71 0.409748 1.87577 0
M  V30 2198 O 231.911 0.446983 2.65058 0
M  V30 2199 C 230.182 2.87789 2.11924 0
M  V30 2200 S 231.741 3.24415 2.95466 0
M  V30 2201 H 228.559 0.593267 0.391862 0
M  V30 2202 H 231.161 1.90408 0.443282 0
M  V30 2203 H 229.865 3.7884 1.57824 0
M  V30 2204 H 229.396 2.68175 2.87829 0
M  V30 2205 H 231.411 2.73614 4.13944 0
M  V30 2206 N 230.584 -0.659388 1.43143 0
M  V30 2207 C 231.831 -1.41935 1.44433 0
M  V30 2208 C 232.159 -1.94387 0.0663522 0
M  V30 2209 O 231.414 -1.72314 -0.927706 0
M  V30 2210 C 231.713 -2.62206 2.42864 0
M  V30 2211 C 231.379 -2.28208 3.88886 0
M  V30 2212 C 230.041 -2.18647 4.28657 0
M  V30 2213 C 232.393 -2.00887 4.8093 0
M  V30 2214 C 229.721 -1.79914 5.58433 0
M  V30 2215 C 232.073 -1.63653 6.11065 0
M  V30 2216 C 230.737 -1.52614 6.49819 0
M  V30 2217 H 230.007 -0.519376 0.528517 0
M  V30 2218 H 232.654 -0.750453 1.76183 0
M  V30 2219 H 230.959 -3.34199 2.04495 0
M  V30 2220 H 232.656 -3.2041 2.41119 0
M  V30 2221 H 229.246 -2.36557 3.57406 0
M  V30 2222 H 233.43 -2.07198 4.5098 0
M  V30 2223 H 228.686 -1.69948 5.87305 0
M  V30 2224 H 232.86 -1.41543 6.81864 0
M  V30 2225 H 230.487 -1.22371 7.50286 0
M  V30 2226 N 232.062 -1.29571 -0.897171 0
M  V30 2227 C 233.025 -1.14913 -1.98312 0
M  V30 2228 C 234.025 -0.0838629 -1.60581 0
M  V30 2229 O 235.215 -0.331006 -1.71026 0
M  V30 2230 C 232.347 -0.757835 -3.3237 0
M  V30 2231 H 233.54 -2.11377 -2.12743 0
M  V30 2232 H 231.093 -1.12793 -1.08201 0
M  V30 2233 H 231.828 0.206837 -3.2364 0
M  V30 2234 H 231.613 -1.52755 -3.61121 0
M  V30 2235 H 233.103 -0.678408 -4.12053 0
M  V30 2236 N 233.54 1.10788 -1.12088 0
M  V30 2237 C 234.951 1.64181 -0.88891 0
M  V30 2238 C 235.302 1.87508 0.577498 0
M  V30 2239 O 234.427 1.61434 1.44112 0
M  V30 2240 C 235.022 2.98257 -1.60712 0
M  V30 2241 C 233.581 3.4853 -1.42139 0
M  V30 2242 C 232.728 2.23208 -1.6454 0
M  V30 2243 H 235.679 0.943368 -1.27618 0
M  V30 2244 H 235.7 3.65552 -1.05604 0
M  V30 2245 H 235.212 2.81246 -2.67436 0
M  V30 2246 H 233.313 3.70692 -0.376552 0
M  V30 2247 H 233.426 4.26882 -2.17505 0
M  V30 2248 H 231.79 2.31169 -1.06925 0
M  V30 2249 H 232.573 2.08733 -2.72554 0
M  V30 2250 N 235.018 0.912232 1.28515 0
M  V30 2251 C 235.948 0.416403 2.29757 0
M  V30 2252 C 236.929 -0.515194 1.6211 0
M  V30 2253 O 238.114 -0.423253 1.89532 0
M  V30 2254 C 235.244 -0.34572 3.45575 0
M  V30 2255 C 234.198 0.496599 4.25109 0
M  V30 2256 C 233.524 -0.393771 5.33248 0
M  V30 2257 C 234.824 1.75307 4.92001 0
M  V30 2258 H 236.518 1.26249 2.7148 0
M  V30 2259 H 234.064 0.608515 1.30511 0
M  V30 2260 H 236.017 -0.703422 4.15488 0
M  V30 2261 H 234.741 -1.2257 3.02728 0
M  V30 2262 H 233.4 0.8368 3.56922 0
M  V30 2263 H 233.048 -1.27225 4.86644 0
M  V30 2264 H 232.748 0.166209 5.87365 0
M  V30 2265 H 234.272 -0.747389 6.06009 0
M  V30 2266 H 235.686 1.46437 5.54283 0
M  V30 2267 H 234.083 2.25534 5.56106 0
M  V30 2268 H 235.153 2.48176 4.16577 0
M  V30 2269 N 236.496 -1.42363 0.676048 0
M  V30 2270 C 237.446 -2.27987 -0.0242903 0
M  V30 2271 C 238.43 -1.41153 -0.772319 0
M  V30 2272 O 239.622 -1.64592 -0.651025 0
M  V30 2273 C 236.751 -3.29195 -0.973953 0
M  V30 2274 C 235.837 -4.23512 -0.223202 0
M  V30 2275 N 236.228 -4.99865 0.772589 0
M  V30 2276 C 234.526 -4.43606 -0.461469 0
M  V30 2277 C 235.227 -5.68757 1.22027 0
M  V30 2278 N 234.203 -5.40811 0.549975 0
M  V30 2279 H 238.005 -2.84445 0.73949 0
M  V30 2280 H 235.519 -1.54341 0.50522 0
M  V30 2281 H 237.516 -3.89339 -1.49067 0
M  V30 2282 H 236.176 -2.74298 -1.73755 0
M  V30 2283 H 237.187 -5.04921 1.15217 0
M  V30 2284 H 233.864 -3.99749 -1.20446 0
M  V30 2285 H 235.254 -6.40007 2.0455 0
M  V30 2286 N 237.974 -0.419461 -1.51915 0
M  V30 2287 C 239.385 0.0477853 -1.86639 0
M  V30 2288 C 239.736 1.43531 -1.33766 0
M  V30 2289 O 238.861 2.05401 -0.68113 0
M  V30 2290 C 239.456 0.0934885 -3.38671 0
M  V30 2291 C 238.015 0.505097 -3.72996 0
M  V30 2292 C 237.162 -0.313792 -2.75519 0
M  V30 2293 H 240.113 -0.636088 -1.45395 0
M  V30 2294 H 240.134 0.906667 -3.6954 0
M  V30 2295 H 239.646 -0.916501 -3.77123 0
M  V30 2296 H 237.747 1.52135 -3.40126 0
M  V30 2297 H 237.86 0.242309 -4.78487 0
M  V30 2298 H 236.224 0.225363 -2.53701 0
M  V30 2299 H 237.007 -1.32232 -3.16812 0
M  V30 2300 N 239.452 1.56882 -0.150215 0
M  V30 2301 C 240.863 1.82995 0.370076 0
M  V30 2302 C 241.214 1.06907 1.64515 0
M  V30 2303 O 240.339 0.315369 2.1409 0
M  V30 2304 C 240.934 3.31942 0.678208 0
M  V30 2305 C 239.493 3.58625 1.14301 0
M  V30 2306 C 238.64 2.76792 0.167778 0
M  V30 2307 H 241.591 1.54209 -0.374858 0
M  V30 2308 H 241.612 3.48272 1.53254 0
M  V30 2309 H 241.124 3.87294 -0.249991 0
M  V30 2310 H 239.225 3.08664 2.08704 0
M  V30 2311 H 239.338 4.67073 1.06676 0
M  V30 2312 H 237.702 2.45972 0.661037 0
M  V30 2313 H 238.485 3.34916 -0.754069 0
M  V30 2314 N 240.93 -0.123565 1.57115 0
M  V30 2315 C 242.341 -0.681198 1.73829 0
M  V30 2316 C 242.692 -1.80535 0.768214 0
M  V30 2317 O 241.817 -2.16317 -0.0599103 0
M  V30 2318 C 242.412 -1.24246 3.15196 0
M  V30 2319 C 240.971 -1.74643 3.33432 0
M  V30 2320 C 240.118 -0.644284 2.69711 0
M  V30 2321 H 243.069 0.102315 1.5837 0
M  V30 2322 H 243.09 -2.11216 3.16493 0
M  V30 2323 H 242.602 -0.424062 3.85776 0
M  V30 2324 H 240.703 -2.58974 2.67886 0
M  V30 2325 H 240.816 -1.85902 4.41562 0
M  V30 2326 H 239.18 -1.07676 2.3082 0
M  V30 2327 H 239.963 0.163058 3.42913 0
M  V30 2328 N 242.408 -1.52605 -0.393616 0
M  V30 2329 C 243.819 -1.59417 -0.971761 0
M  V30 2330 C 244.17 -0.444173 -1.91106 0
M  V30 2331 O 243.295 0.433382 -2.12016 0
M  V30 2332 C 243.89 -2.88936 -1.76921 0
M  V30 2333 C 242.449 -2.98175 -2.29714 0
M  V30 2334 C 241.596 -2.54491 -1.10135 0
M  V30 2335 H 244.547 -1.57751 -0.173317 0
M  V30 2336 H 244.568 -2.75163 -2.62804 0
M  V30 2337 H 244.08 -3.72616 -1.08532 0
M  V30 2338 H 242.181 -2.19024 -3.01429 0
M  V30 2339 H 242.294 -4.02726 -2.59517 0
M  V30 2340 H 240.658 -2.08702 -1.45999 0
M  V30 2341 H 241.441 -3.4056 -0.432874 0
M  V30 2342 N 243.887 0.651787 -1.4349 0
M  V30 2343 C 245.298 1.233 -1.40193 0
M  V30 2344 C 245.649 1.9591 -0.106727 0
M  V30 2345 O 244.774 2.01316 0.793773 0
M  V30 2346 C 245.369 2.24257 -2.53957 0
M  V30 2347 C 243.928 2.77852 -2.5392 0
M  V30 2348 C 243.075 1.52517 -2.3159 0
M  V30 2349 H 246.026 0.443717 -1.52371 0
M  V30 2350 H 246.047 3.0646 -2.25528 0
M  V30 2351 H 245.559 1.71382 -3.4821 0
M  V30 2352 H 243.66 3.34786 -1.63551 0
M  V30 2353 H 243.773 3.25299 -3.51735 0
M  V30 2354 H 242.137 1.79915 -1.80285 0
M  V30 2355 H 242.92 1.01574 -3.27929 0
M  V30 2356 N 245.365 1.30045 0.890287 0
M  V30 2357 C 246.776 1.16738 1.45702 0
M  V30 2358 C 247.127 -0.233939 1.948 0
M  V30 2359 O 246.252 -1.13021 1.84541 0
M  V30 2360 C 246.847 2.11313 2.64825 0
M  V30 2361 C 245.406 2.02001 3.17604 0
M  V30 2362 C 244.553 2.01699 1.90296 0
M  V30 2363 H 247.504 1.42392 0.700726 0
M  V30 2364 H 247.525 1.69086 3.40867 0
M  V30 2365 H 247.037 3.13294 2.2906 0
M  V30 2366 H 245.138 1.03142 3.5804 0
M  V30 2367 H 245.251 2.90128 3.81264 0
M  V30 2368 H 243.615 1.46427 2.08402 0
M  V30 2369 H 244.398 3.05402 1.56795 0
M  V30 2370 N 246.843 -1.10192 1.12674 0
M  V30 2371 C 248.254 -1.63707 0.897604 0
M  V30 2372 C 248.605 -1.87812 -0.567546 0
M  V30 2373 O 247.73 -1.62196 -1.43253 0
M  V30 2374 C 248.325 -2.974 1.62292 0
M  V30 2375 C 246.884 -3.47772 1.43986 0
M  V30 2376 C 246.031 -2.22332 1.65722 0
M  V30 2377 H 248.982 -0.936587 1.28116 0
M  V30 2378 H 249.003 -3.64986 1.07541 0
M  V30 2379 H 248.515 -2.79824 2.68924 0
M  V30 2380 H 246.616 -3.70487 0.396206 0
M  V30 2381 H 246.729 -4.25723 2.19765 0
M  V30 2382 H 245.093 -2.30599 1.08149 0
M  V30 2383 H 245.876 -2.07285 2.73657 0
M  V30 2384 N 248.321 -0.919034 -1.28029 0
M  V30 2385 C 249.732 -0.600735 -1.76771 0
M  V30 2386 C 250.083 0.884024 -1.75156 0
M  V30 2387 O 249.208 1.69163 -1.34956 0
M  V30 2388 C 249.803 -1.08372 -3.21 0
M  V30 2389 C 248.362 -0.816248 -3.67443 0
M  V30 2390 C 247.509 -1.24742 -2.47658 0
M  V30 2391 H 250.46 -1.09974 -1.14418 0
M  V30 2392 H 250.481 -0.427512 -3.78091 0
M  V30 2393 H 249.993 -2.16437 -3.22144 0
M  V30 2394 H 248.094 0.250968 -3.71754 0
M  V30 2395 H 248.207 -1.4277 -4.57333 0
M  V30 2396 H 246.571 -0.666083 -2.45836 0
M  V30 2397 H 247.354 -2.33653 -2.51518 0
M  V30 2398 N 249.799 1.42003 -0.683588 0
M  V30 2399 C 251.21 1.84501 -0.285736 0
M  V30 2400 C 251.561 1.57213 1.17382 0
M  V30 2401 O 250.686 1.03642 1.89966 0
M  V30 2402 C 251.281 3.34912 -0.511821 0
M  V30 2403 C 249.84 3.76025 -0.168005 0
M  V30 2404 C 248.987 2.6551 -0.799983 0
M  V30 2405 H 251.938 1.31724 -0.885119 0
M  V30 2406 H 251.959 3.79784 0.233292 0
M  V30 2407 H 251.471 3.54741 -1.57418 0
M  V30 2408 H 249.572 3.61801 0.890567 0
M  V30 2409 H 249.685 4.75141 -0.614661 0
M  V30 2410 H 248.049 2.53654 -0.230568 0
M  V30 2411 H 248.832 2.8816 -1.86597 0
M  V30 2412 N 251.277 0.427512 1.51691 0
M  V30 2413 C 252.24 -0.377132 2.26076 0
M  V30 2414 C 253.24 -0.958089 1.29141 0
M  V30 2415 O 254.43 -0.83408 1.52934 0
M  V30 2416 C 251.562 -1.53262 3.04506 0
M  V30 2417 H 252.755 0.27464 2.9864 0
M  V30 2418 H 250.308 0.180445 1.55255 0
M  V30 2419 H 251.043 -2.22072 2.36335 0
M  V30 2420 H 250.828 -1.12232 3.75694 0
M  V30 2421 H 252.318 -2.10135 3.60878 0
M  V30 2422 N 252.755 -1.56801 0.158532 0
M  V30 2423 C 253.665 -2.20916 -0.789518 0
M  V30 2424 C 254.681 -1.1969 -1.26294 0
M  V30 2425 O 255.857 -1.52308 -1.31773 0
M  V30 2426 C 252.922 -2.82727 -2.00665 0
M  V30 2427 C 251.983 -3.99114 -1.58134 0
M  V30 2428 C 251.216 -4.57968 -2.74045 0
M  V30 2429 O 251.439 -4.15704 -3.90572 0
M  V30 2430 O 250.373 -5.48047 -2.48855 0
M  V30 2431 H 254.199 -3.02464 -0.273681 0
M  V30 2432 H 251.784 -1.4924 -0.0690548 0
M  V30 2433 H 253.666 -3.21968 -2.71872 0
M  V30 2434 H 252.341 -2.04184 -2.51179 0
M  V30 2435 H 251.248 -3.64567 -0.839155 0
M  V30 2436 H 252.581 -4.79212 -1.12325 0
M  V30 2437 N 254.233 0.115231 -1.57178 0
M  V30 2438 C 255.163 1.1423 -2.03651 0
M  V30 2439 C 256.144 1.42967 -0.921655 0
M  V30 2440 O 257.329 1.53343 -1.19162 0
M  V30 2441 C 254.459 2.4675 -2.44401 0
M  V30 2442 C 253.413 2.32467 -3.59365 0
M  V30 2443 C 252.739 3.69984 -3.86026 0
M  V30 2444 C 254.039 1.78203 -4.90959 0
M  V30 2445 H 255.733 0.755749 -2.89705 0
M  V30 2446 H 253.279 0.362093 -1.39373 0
M  V30 2447 H 255.232 3.18854 -2.75517 0
M  V30 2448 H 253.956 2.87302 -1.55322 0
M  V30 2449 H 252.615 1.62811 -3.28463 0
M  V30 2450 H 252.263 4.08028 -2.94147 0
M  V30 2451 H 251.963 3.61279 -4.63412 0
M  V30 2452 H 253.487 4.43587 -4.19599 0
M  V30 2453 H 254.901 2.40128 -5.20587 0
M  V30 2454 H 253.298 1.8031 -5.72371 0
M  V30 2455 H 254.368 0.739876 -4.79222 0
M  V30 2456 N 255.711 1.52812 0.385517 0
M  V30 2457 C 256.658 1.77838 1.47113 0
M  V30 2458 C 257.628 0.621757 1.54024 0
M  V30 2459 O 258.813 0.861846 1.70226 0
M  V30 2460 C 255.953 1.95618 2.84302 0
M  V30 2461 C 255.066 3.23316 2.86515 0
M  V30 2462 C 254.201 3.31394 4.15152 0
M  V30 2463 C 253.24 4.53201 4.1143 0
M  V30 2464 N 252.377 4.58542 5.3168 0
M  V30 2465 H 257.217 2.70482 1.25073 0
M  V30 2466 H 254.754 1.34006 0.606692 0
M  V30 2467 H 256.712 2.03912 3.63972 0
M  V30 2468 H 255.342 1.06331 3.04784 0
M  V30 2469 H 254.394 3.24076 1.99195 0
M  V30 2470 H 255.706 4.13045 2.79634 0
M  V30 2471 H 254.86 3.3889 5.03228 0
M  V30 2472 H 253.599 2.39645 4.24761 0
M  V30 2473 H 252.604 4.45827 3.21742 0
M  V30 2474 H 253.829 5.46271 4.03442 0
M  V30 2475 H 251.775 3.69686 5.41912 0
M  V30 2476 H 251.692 5.42148 5.26889 0
M  V30 2477 H 252.96 4.70296 6.21644 0
M  V30 2478 N 257.189 -0.644168 1.43834 0
M  V30 2479 C 258.152 -1.73857 1.49353 0
M  V30 2480 C 259.152 -1.56315 0.377112 0
M  V30 2481 O 260.342 -1.62048 0.639226 0
M  V30 2482 C 257.474 -3.12819 1.35488 0
M  V30 2483 H 258.667 -1.70342 2.46827 0
M  V30 2484 H 256.22 -0.856652 1.30733 0
M  V30 2485 H 256.955 -3.2194 0.390569 0
M  V30 2486 H 256.74 -3.26958 2.16428 0
M  V30 2487 H 258.23 -3.92606 1.42302 0
M  V30 2488 N 258.668 -1.30515 -0.883378 0
M  V30 2489 C 259.578 -1.18959 -2.02203 0
M  V30 2490 C 260.594 -0.109172 -1.73657 0
M  V30 2491 O 261.77 -0.324413 -1.9877 0
M  V30 2492 C 258.835 -0.883871 -3.35244 0
M  V30 2493 C 257.896 -2.04982 -3.77201 0
M  V30 2494 C 257.129 -1.75859 -5.03894 0
M  V30 2495 O 257.352 -0.687276 -5.66244 0
M  V30 2496 O 256.286 -2.61146 -5.42297 0
M  V30 2497 H 260.112 -2.14616 -2.1488 0
M  V30 2498 H 257.697 -1.10124 -1.0096 0
M  V30 2499 H 259.579 -0.728644 -4.15053 0
M  V30 2500 H 258.254 0.0427798 -3.23672 0
M  V30 2501 H 257.161 -2.26038 -2.9809 0
M  V30 2502 H 258.494 -2.95825 -3.93381 0
M  V30 2503 N 260.146 1.09593 -1.13257 0
M  V30 2504 C 261.557 1.63229 -0.906274 0
M  V30 2505 C 261.908 1.8811 0.557578 0
M  V30 2506 O 261.033 1.62953 1.42391 0
M  V30 2507 C 261.628 2.96535 -1.63867 0
M  V30 2508 C 260.187 3.47003 -1.45828 0
M  V30 2509 C 259.334 2.2145 -1.66898 0
M  V30 2510 H 262.285 0.92978 -1.28611 0
M  V30 2511 H 262.306 3.64411 -1.09476 0
M  V30 2512 H 261.818 2.78394 -2.70404 0
M  V30 2513 H 259.919 3.70272 -0.415848 0
M  V30 2514 H 260.032 4.24551 -2.2202 0
M  V30 2515 H 258.396 2.30022 -1.09371 0
M  V30 2516 H 259.179 2.0583 -2.74752 0
M  V30 2517 N 261.624 0.925811 1.2754 0
M  V30 2518 C 262.872 0.564138 1.94067 0
M  V30 2519 C 263.193 -0.897188 1.73134 0
M  V30 2520 O 262.463 -1.63573 1.07799 0
M  V30 2521 H 261.043 0.205645 0.718136 0
M  V30 2522 H 263.705 1.1778 1.55287 0
M  V30 2523 H 262.801 0.76881 3.02483 0
M  V30 2524 N 263.102 -1.41638 0.69111 0
M  V30 2525 C 264.349 -2.01299 0.220193 0
M  V30 2526 C 264.677 -1.54715 -1.17871 0
M  V30 2527 O 263.932 -0.747193 -1.80874 0
M  V30 2528 C 264.231 -3.56714 0.221277 0
M  V30 2529 C 263.897 -4.22792 1.56709 0
M  V30 2530 C 262.559 -4.40557 1.93554 0
M  V30 2531 C 264.911 -4.59883 2.45268 0
M  V30 2532 C 262.239 -4.92688 3.18552 0
M  V30 2533 C 264.591 -5.13403 3.69595 0
M  V30 2534 C 263.255 -5.29379 4.06589 0
M  V30 2535 H 262.525 -0.736606 0.0805743 0
M  V30 2536 H 265.172 -1.69598 0.889319 0
M  V30 2537 H 263.477 -3.8818 -0.531391 0
M  V30 2538 H 265.174 -4.00678 -0.160547 0
M  V30 2539 H 261.764 -4.09336 1.2705 0
M  V30 2540 H 265.948 -4.45817 2.18084 0
M  V30 2541 H 261.204 -5.03242 3.47214 0
M  V30 2542 H 265.378 -5.41084 4.38407 0
M  V30 2543 H 263.005 -5.69537 5.03519 0
M  V30 2544 N 264.58 -0.43555 -1.51462 0
M  V30 2545 C 265.49 0.383001 -2.31453 0
M  V30 2546 C 266.506 1.02931 -1.4029 0
M  V30 2547 O 267.682 1.02507 -1.73362 0
M  V30 2548 C 264.747 1.47043 -3.13973 0
M  V30 2549 C 263.808 0.844433 -4.20913 0
M  V30 2550 C 263.041 1.88004 -4.9949 0
M  V30 2551 O 263.264 3.10199 -4.78678 0
M  V30 2552 O 262.198 1.47157 -5.83634 0
M  V30 2553 H 266.024 -0.269964 -3.02498 0
M  V30 2554 H 263.609 -0.19813 -1.4808 0
M  V30 2555 H 265.491 2.10113 -3.65281 0
M  V30 2556 H 264.166 2.10751 -2.45695 0
M  V30 2557 H 263.073 0.175729 -3.73687 0
M  V30 2558 H 264.406 0.250869 -4.9156 0
M  V30 2559 N 266.058 1.56714 -0.166846 0
M  V30 2560 C 267.469 1.83378 0.350646 0
M  V30 2561 C 267.82 1.08646 1.63372 0
M  V30 2562 O 266.945 0.338058 2.13743 0
M  V30 2563 C 267.54 3.32643 0.642963 0
M  V30 2564 C 266.099 3.59818 1.10491 0
M  V30 2565 C 265.246 2.76954 0.138411 0
M  V30 2566 H 268.197 1.53803 -0.391193 0
M  V30 2567 H 268.218 3.49878 1.49551 0
M  V30 2568 H 267.73 3.87007 -0.291055 0
M  V30 2569 H 265.831 3.1086 2.05418 0
M  V30 2570 H 265.944 4.68178 1.01716 0
M  V30 2571 H 264.308 2.4666 0.634911 0
M  V30 2572 H 265.091 3.34097 -0.789549 0
M  V30 2573 N 267.536 -0.106894 1.57237 0
M  V30 2574 C 268.499 -1.11466 2.0027 0
M  V30 2575 C 269.499 -1.33623 0.894519 0
M  V30 2576 O 270.689 -1.29935 1.16028 0
M  V30 2577 C 267.821 -2.46646 2.35327 0
M  V30 2578 H 269.014 -0.744516 2.90512 0
M  V30 2579 H 266.567 -0.351576 1.52295 0
M  V30 2580 H 267.302 -2.88558 1.48003 0
M  V30 2581 H 267.087 -2.31915 3.16161 0
M  V30 2582 H 268.577 -3.19151 2.69318 0
M  V30 2583 N 269.014 -1.53014 -0.377408 0
M  V30 2584 C 270.291 -1.59215 -1.13622 0
M  V30 2585 C 270.671 -0.392407 -2.07421 0
M  V30 2586 O 270.019 0.618342 -2.19975 0
M  V30 2587 C 270.229 -2.93669 -1.88573 0
M  V30 2588 C 271.577 -3.47822 -2.43526 0
M  V30 2589 O 272.601 -2.9562 -1.98715 0
M  V30 2590 O 271.46 -4.39055 -3.25412 0
M  V30 2591 H 268.554 -0.642625 -0.52054 0
M  V30 2592 H 271.1 -1.65353 -0.381625 0
M  V30 2593 H 269.872 -3.7243 -1.20048 0
M  V30 2594 H 269.495 -2.90968 -2.70968 0
M  V30 2595 N 270.492 0.636531 -1.44174 0
M  V30 2596 C 271.732 1.40781 -1.48189 0
M  V30 2597 C 272.096 1.91688 -0.10944 0
M  V30 2598 O 273.297 2.68789 -0.0242741 0
M  V30 2599 C 271.568 2.54575 -2.50851 0
M  V30 2600 S 273.127 3.4284 -2.73873 0
M  V30 2601 H 269.945 0.480345 -0.524204 0
M  V30 2602 H 272.547 0.737416 -1.81059 0
M  V30 2603 H 271.251 2.15478 -3.49281 0
M  V30 2604 H 270.782 3.26447 -2.19536 0
M  V30 2605 H 272.797 4.51846 -2.05059 0
M  V30 2606 N 271.97 1.30982 0.876444 0
M  V30 2607 C 272.917 1.18085 1.98304 0
M  V30 2608 C 273.887 0.0682263 1.6596 0
M  V30 2609 O 275.072 0.239937 1.89285 0
M  V30 2610 C 272.212 0.887475 3.33493 0
M  V30 2611 C 271.325 2.08281 3.78475 0
M  V30 2612 C 270.46 1.72678 5.0235 0
M  V30 2613 C 269.499 2.88657 5.39762 0
M  V30 2614 N 268.636 2.53292 6.54819 0
M  V30 2615 H 273.476 2.1275 2.08666 0
M  V30 2616 H 271.013 1.05839 1.02159 0
M  V30 2617 H 272.971 0.697961 4.1132 0
M  V30 2618 H 271.601 -0.022315 3.22792 0
M  V30 2619 H 270.653 2.3833 2.96484 0
M  V30 2620 H 271.965 2.95108 4.02135 0
M  V30 2621 H 271.119 1.50151 5.87826 0
M  V30 2622 H 269.858 0.830327 4.8058 0
M  V30 2623 H 268.863 3.1184 4.52809 0
M  V30 2624 H 270.088 3.79002 5.63502 0
M  V30 2625 H 268.034 1.66163 6.34607 0
M  V30 2626 H 267.951 3.3365 6.7839 0
M  V30 2627 H 269.219 2.34143 7.43503 0
M  V30 2628 N 273.449 -1.08991 1.13837 0
M  V30 2629 C 274.865 -1.33312 0.877506 0
M  V30 2630 C 275.065 -1.95587 -0.48456 0
M  V30 2631 O 274.121 -2.20509 -1.23013 0
M  V30 2632 C 275.434 -2.24045 2.0056 0
M  V30 2633 C 276.982 -2.37542 2.03821 0
M  V30 2634 C 277.457 -3.31614 3.15905 0
M  V30 2635 N 278.948 -3.39189 3.15445 0
M  V30 2636 C 279.683 -4.11992 3.98811 0
M  V30 2637 N 279.179 -4.87553 4.92203 0
M  V30 2638 N 280.972 -4.07762 3.86894 0
M  V30 2639 H 273.123 -0.669456 2.01574 0
M  V30 2640 H 275.386 -0.357482 0.878015 0
M  V30 2641 H 275.092 -1.85521 2.98789 0
M  V30 2642 H 274.966 -3.24466 1.92359 0
M  V30 2643 H 277.353 -2.75327 1.06202 0
M  V30 2644 H 277.434 -1.36884 2.16093 0
M  V30 2645 H 277.078 -2.94551 4.13766 0
M  V30 2646 H 277.008 -4.32186 3.0087 0
M  V30 2647 H 279.499 -2.85314 2.47799 0
M  V30 2648 H 279.812 -5.40549 5.52292 0
M  V30 2649 H 278.157 -4.86627 4.96205 0
M  V30 2650 H 281.348 -3.47833 3.13257 0
M  V30 2651 H 281.521 -4.64238 4.52092 0
M  V30 2652 N 274.927 -0.932562 -1.27047 0
M  V30 2653 C 275.874 -0.434072 -2.26681 0
M  V30 2654 C 276.844 0.501639 -1.58344 0
M  V30 2655 O 278.029 0.419734 -1.86126 0
M  V30 2656 C 275.169 0.30261 -3.43771 0
M  V30 2657 C 274.282 -0.667774 -4.26808 0
M  V30 2658 C 273.417 0.0892393 -5.31125 0
M  V30 2659 C 272.456 -0.873532 -6.05835 0
M  V30 2660 N 271.593 -0.148832 -7.01942 0
M  V30 2661 H 276.433 -1.28868 -2.68695 0
M  V30 2662 H 273.97 -0.646713 -1.32121 0
M  V30 2663 H 275.928 0.746092 -4.10474 0
M  V30 2664 H 274.558 1.12142 -3.02695 0
M  V30 2665 H 273.61 -1.22978 -3.59973 0
M  V30 2666 H 274.922 -1.40337 -4.78651 0
M  V30 2667 H 274.076 0.592409 -6.03801 0
M  V30 2668 H 272.815 0.85777 -4.80097 0
M  V30 2669 H 271.82 -1.38791 -5.31994 0
M  V30 2670 H 273.045 -1.64193 -6.58952 0
M  V30 2671 H 270.991 0.601365 -6.53238 0
M  V30 2672 H 270.908 -0.82391 -7.51497 0
M  V30 2673 H 272.176 0.333527 -7.78786 0
M  V30 2674 N 276.405 1.4127 -0.698611 0
M  V30 2675 C 277.315 2.34573 -0.0357891 0
M  V30 2676 C 278.331 1.56393 0.762701 0
M  V30 2677 O 279.507 1.8886 0.699564 0
M  V30 2678 C 276.572 3.35159 0.887089 0
M  V30 2679 C 275.633 4.29225 0.0804634 0
M  V30 2680 C 274.866 5.25006 0.959387 0
M  V30 2681 O 275.089 5.26314 2.19886 0
M  V30 2682 O 274.023 6.00519 0.407439 0
M  V30 2683 H 277.849 2.92838 -0.804957 0
M  V30 2684 H 275.434 1.42175 -0.458966 0
M  V30 2685 H 277.316 3.9689 1.41621 0
M  V30 2686 H 275.991 2.79333 1.6357 0
M  V30 2687 H 274.898 3.70833 -0.493328 0
M  V30 2688 H 276.231 4.88157 -0.629547 0
M  V30 2689 N 277.883 0.443576 1.51229 0
M  V30 2690 C 278.793 -0.370721 2.31652 0
M  V30 2691 C 279.809 -1.02186 1.40833 0
M  V30 2692 O 280.985 -1.01586 1.73903 0
M  V30 2693 C 278.05 -1.45376 3.14749 0
M  V30 2694 C 277.111 -0.822099 4.21355 0
M  V30 2695 C 276.344 -1.85353 5.0048 0
M  V30 2696 O 276.567 -3.07656 4.80316 0
M  V30 2697 O 275.501 -1.4406 5.84406 0
M  V30 2698 H 279.327 0.286002 3.0235 0
M  V30 2699 H 276.912 0.20598 1.47973 0
M  V30 2700 H 278.794 -2.08173 3.66391 0
M  V30 2701 H 277.469 -2.09445 2.46809 0
M  V30 2702 H 276.376 -0.155909 3.73775 0
M  V30 2703 H 277.709 -0.224797 4.91686 0
M  V30 2704 N 279.361 -1.56624 0.175154 0
M  V30 2705 C 280.324 -2.16934 -0.739738 0
M  V30 2706 C 281.324 -1.11842 -1.15533 0
M  V30 2707 O 282.514 -1.37335 -1.07167 0
M  V30 2708 C 279.646 -2.75531 -2.00738 0
M  V30 2709 H 280.839 -2.99131 -0.214639 0
M  V30 2710 H 278.392 -1.56123 -0.0744197 0
M  V30 2711 H 279.127 -1.97078 -2.57548 0
M  V30 2712 H 278.912 -3.52444 -1.71831 0
M  V30 2713 H 280.402 -3.21904 -2.66021 0
M  V30 2714 N 280.839 0.0985539 -1.57292 0
M  V30 2715 C 282.087 0.801092 -1.85545 0
M  V30 2716 C 282.408 1.79438 -0.763353 0
M  V30 2717 O 281.678 1.94763 0.21073 0
M  V30 2718 H 280.258 0.29884 -0.684619 0
M  V30 2719 H 282.92 0.0810064 -1.94732 0
M  V30 2720 H 282.016 1.3338 -2.82163 0
M  V30 2721 N 282.317 1.53212 0.369288 0
M  V30 2722 C 283.28 1.7872 1.43498 0
M  V30 2723 C 284.28 0.657554 1.46741 0
M  V30 2724 O 285.47 0.925736 1.47566 0
M  V30 2725 C 282.602 1.90591 2.82645 0
M  V30 2726 H 283.795 2.73894 1.22156 0
M  V30 2727 H 281.348 1.44233 0.602203 0
M  V30 2728 H 282.083 0.974709 3.09306 0
M  V30 2729 H 281.868 2.72751 2.8169 0
M  V30 2730 H 283.358 2.11931 3.59826 0
M  V30 2731 N 283.795 -0.628877 1.44509 0
M  V30 2732 C 285.206 -1.21054 1.42137 0
M  V30 2733 C 285.557 -1.95715 0.137881 0
M  V30 2734 O 284.682 -2.02554 -0.761645 0
M  V30 2735 C 285.277 -2.20189 2.57493 0
M  V30 2736 C 283.836 -2.73777 2.58308 0
M  V30 2737 C 282.983 -1.48813 2.33987 0
M  V30 2738 H 285.934 -0.41942 1.53057 0
M  V30 2739 H 285.955 -3.02833 2.30375 0
M  V30 2740 H 285.467 -1.6582 3.50892 0
M  V30 2741 H 283.568 -3.32142 1.68856 0
M  V30 2742 H 283.681 -3.19662 3.56865 0
M  V30 2743 H 282.045 -1.77024 1.83124 0
M  V30 2744 H 282.828 -0.963442 3.29504 0
M  V30 2745 N 285.273 -1.31445 -0.869486 0
M  V30 2746 C 286.521 -1.20918 -1.61936 0
M  V30 2747 C 286.842 0.232683 -1.93607 0
M  V30 2748 O 286.112 1.15352 -1.58338 0
M  V30 2749 H 284.692 -0.44454 -0.600328 0
M  V30 2750 H 287.354 -1.64776 -1.0409 0
M  V30 2751 H 286.45 -1.78124 -2.56278 0
M  V30 2752 N 286.751 1.08385 -1.14413 0
M  V30 2753 C 287.999 1.80419 -0.910679 0
M  V30 2754 C 288.32 1.86658 0.564243 0
M  V30 2755 O 287.59 1.35985 1.41014 0
M  V30 2756 H 286.17 0.668204 -0.333934 0
M  V30 2757 H 288.832 1.31037 -1.44275 0
M  V30 2758 H 287.928 2.83238 -1.31082 0
M  V30 2759 N 288.23 0.939286 1.26551 0
M  V30 2760 C 289.478 0.58469 1.93457 0
M  V30 2761 C 289.799 -0.878774 1.74076 0
M  V30 2762 O 289.069 -1.62421 1.09528 0
M  V30 2763 H 287.649 0.21325 0.715914 0
M  V30 2764 H 290.311 1.1942 1.54029 0
M  V30 2765 H 289.407 0.800849 3.0165 0
M  V30 2766 N 289.708 -1.40897 0.706093 0
M  V30 2767 C 290.671 -2.29131 0.0562841 0
M  V30 2768 C 291.671 -1.44901 -0.697166 0
M  V30 2769 O 292.861 -1.65926 -0.530484 0
M  V30 2770 C 289.993 -3.27957 -0.93043 0
M  V30 2771 H 291.186 -2.88091 0.833284 0
M  V30 2772 H 288.739 -1.4906 0.470192 0
M  V30 2773 H 289.474 -2.73997 -1.73482 0
M  V30 2774 H 289.259 -3.90124 -0.393166 0
M  V30 2775 H 290.749 -3.94049 -1.38256 0
M  V30 2776 N 291.186 -0.45159 -1.50991 0
M  V30 2777 C 292.434 0.109857 -2.01801 0
M  V30 2778 C 292.755 1.41958 -1.3369 0
M  V30 2779 O 292.025 1.9003 -0.475951 0
M  V30 2780 H 290.605 0.0435884 -0.745727 0
M  V30 2781 H 293.267 -0.597557 -1.85514 0
M  V30 2782 H 292.363 0.275489 -3.10882 0
M  V30 2783 N 292.664 1.56529 -0.183458 0
M  V30 2784 C 293.597 2.14417 0.781052 0
M  V30 2785 C 294.575 1.07761 1.21763 0
M  V30 2786 O 295.759 1.35807 1.30724 0
M  V30 2787 C 292.886 2.69361 2.05335 0
M  V30 2788 C 291.932 3.885 1.75982 0
M  V30 2789 S 292.765 5.27568 0.918256 0
M  V30 2790 C 293.921 5.85926 2.20095 0
M  V30 2791 H 294.154 2.95893 0.2889 0
M  V30 2792 H 291.687 1.54368 0.0313844 0
M  V30 2793 H 293.645 3.01662 2.78406 0
M  V30 2794 H 292.306 1.87949 2.51663 0
M  V30 2795 H 291.499 4.25314 2.70415 0
M  V30 2796 H 291.101 3.57149 1.10999 0
M  V30 2797 H 293.393 5.99579 3.15453 0
M  V30 2798 H 294.336 6.82761 1.87731 0
M  V30 2799 H 294.744 5.14438 2.32409 0
M  V30 2800 N 294.142 -0.090211 1.57342 0
M  V30 2801 C 295.105 -1.09335 2.01441 0
M  V30 2802 C 296.105 -1.32666 0.908641 0
M  V30 2803 O 297.295 -1.28697 1.174 0
M  V30 2804 C 294.427 -2.44136 2.3793 0
M  V30 2805 H 295.62 -0.713662 2.91285 0
M  V30 2806 H 293.173 -0.335404 1.52659 0
M  V30 2807 H 293.908 -2.86972 1.51055 0
M  V30 2808 H 293.693 -2.28548 3.18603 0
M  V30 2809 H 295.183 -3.16277 2.72688 0
M  V30 2810 N 295.62 -1.53406 -0.361157 0
M  V30 2811 C 296.583 -1.79479 -1.42548 0
M  V30 2812 C 297.583 -0.665327 -1.4639 0
M  V30 2813 O 298.773 -0.933549 -1.47073 0
M  V30 2814 C 295.905 -1.92087 -2.8163 0
M  V30 2815 H 297.098 -2.74538 -1.20701 0
M  V30 2816 H 294.651 -1.4455 -0.594546 0
M  V30 2817 H 295.386 -0.991099 -3.08784 0
M  V30 2818 H 295.171 -2.74241 -2.80239 0
M  V30 2819 H 296.661 -2.13836 -3.58697 0
M  V30 2820 N 297.098 0.621204 -1.44841 0
M  V30 2821 C 298.346 1.37783 -1.47852 0
M  V30 2822 C 298.667 1.94653 -0.116224 0
M  V30 2823 O 297.937 1.76367 0.852737 0
M  V30 2824 H 296.517 0.511453 -0.544449 0
M  V30 2825 H 299.179 0.730446 -1.80694 0
M  V30 2826 H 298.275 2.20414 -2.20961 0
M  V30 2827 N 298.576 1.31904 0.862503 0
M  V30 2828 C 299.823 1.22017 1.61611 0
M  V30 2829 C 300.151 -0.21991 1.93253 0
M  V30 2830 O 299.406 -1.17076 1.56817 0
M  V30 2831 C 299.705 2.01713 2.95037 0
M  V30 2832 C 299.371 3.51145 2.82857 0
M  V30 2833 C 298.033 3.91889 2.79243 0
M  V30 2834 C 300.385 4.46204 2.69353 0
M  V30 2835 C 297.713 5.25947 2.59993 0
M  V30 2836 C 300.065 5.80397 2.5164 0
M  V30 2837 C 298.729 6.20352 2.46413 0
M  V30 2838 H 297.999 0.44649 0.591378 0
M  V30 2839 H 300.646 1.63248 1.00111 0
M  V30 2840 H 298.951 1.53185 3.60613 0
M  V30 2841 H 300.648 1.91437 3.52353 0
M  V30 2842 H 297.238 3.1878 2.86491 0
M  V30 2843 H 301.422 4.15652 2.71196 0
M  V30 2844 H 296.678 5.5597 2.54376 0
M  V30 2845 H 300.852 6.53676 2.40169 0
M  V30 2846 H 298.479 7.24172 2.31256 0
M  V30 2847 N 300.054 -1.07777 1.14986 0
M  V30 2848 C 301.465 -1.61766 0.932127 0
M  V30 2849 C 301.816 -1.88974 -0.527581 0
M  V30 2850 O 300.941 -1.65198 -1.39781 0
M  V30 2851 C 301.536 -2.93891 1.68563 0
M  V30 2852 C 300.095 -3.44639 1.5133 0
M  V30 2853 C 299.242 -2.18767 1.704 0
M  V30 2854 H 302.193 -0.909201 1.30074 0
M  V30 2855 H 302.214 -3.62623 1.15259 0
M  V30 2856 H 301.726 -2.74057 2.74799 0
M  V30 2857 H 299.827 -3.69564 0.474702 0
M  V30 2858 H 299.94 -4.20966 2.28746 0
M  V30 2859 H 298.304 -2.28253 1.13016 0
M  V30 2860 H 299.087 -2.01433 2.77992 0
M  V30 2861 N 301.532 -0.945985 -1.26051 0
M  V30 2862 C 302.762 -0.612136 -1.97323 0
M  V30 2863 C 303.17 0.818171 -1.70595 0
M  V30 2864 O 302.513 1.55777 -0.973613 0
M  V30 2865 C 302.575 -0.780347 -3.50929 0
M  V30 2866 C 302.239 -2.18619 -4.01317 0
M  V30 2867 C 303.236 -3.16209 -4.12683 0
M  V30 2868 C 300.921 -2.50805 -4.35203 0
M  V30 2869 C 302.915 -4.44085 -4.57238 0
M  V30 2870 C 300.602 -3.78912 -4.79446 0
M  V30 2871 C 301.6 -4.75365 -4.90425 0
M  V30 2872 O 301.288 -6.01191 -5.3369 0
M  V30 2873 H 301.02 -0.229134 -0.635982 0
M  V30 2874 H 303.574 -1.27036 -1.61404 0
M  V30 2875 H 301.804 -0.0649864 -3.86645 0
M  V30 2876 H 303.493 -0.448842 -4.03411 0
M  V30 2877 H 304.259 -2.92668 -3.86744 0
M  V30 2878 H 300.138 -1.76463 -4.2589 0
M  V30 2879 H 303.682 -5.19373 -4.65723 0
M  V30 2880 H 299.579 -4.02265 -5.0483 0
M  V30 2881 H 300.347 -6.04442 -5.51899 0
M  V30 2882 N 303.011 1.40521 -0.713556 0
M  V30 2883 C 303.974 2.29098 -0.0684347 0
M  V30 2884 C 304.974 1.45268 0.689472 0
M  V30 2885 O 306.164 1.66205 0.521677 0
M  V30 2886 C 303.296 3.28446 0.913024 0
M  V30 2887 H 304.489 2.87645 -0.84855 0
M  V30 2888 H 302.042 1.48809 -0.47809 0
M  V30 2889 H 302.777 2.74913 1.72027 0
M  V30 2890 H 302.562 3.90327 0.372472 0
M  V30 2891 H 304.052 3.94777 1.36165 0
M  V30 2892 N 304.489 0.459591 1.5075 0
M  V30 2893 C 305.419 -0.330644 2.31147 0
M  V30 2894 C 306.4 -1.00087 1.37538 0
M  V30 2895 O 307.585 -1.00025 1.66459 0
M  V30 2896 C 304.715 -1.41958 3.16962 0
M  V30 2897 C 303.669 -0.871608 4.19031 0
M  V30 2898 C 302.995 -2.05797 4.9351 0
M  V30 2899 C 304.295 0.109251 5.22186 0
M  V30 2900 H 305.989 0.340336 2.97459 0
M  V30 2901 H 303.535 0.165119 1.4305 0
M  V30 2902 H 305.488 -1.9798 3.71997 0
M  V30 2903 H 304.212 -2.11917 2.48513 0
M  V30 2904 H 302.871 -0.333442 3.6508 0
M  V30 2905 H 302.519 -2.74427 4.21544 0
M  V30 2906 H 302.219 -1.6976 5.62544 0
M  V30 2907 H 303.743 -2.62331 5.51375 0
M  V30 2908 H 305.157 -0.361405 5.7216 0
M  V30 2909 H 303.554 0.383316 5.98875 0
M  V30 2910 H 304.624 1.03887 4.73641 0
M  V30 2911 N 305.967 -1.56429 0.191757 0
M  V30 2912 C 307.383 -1.58754 -0.164137 0
M  V30 2913 C 307.583 -1.20782 -1.61288 0
M  V30 2914 O 306.639 -0.928999 -2.34789 0
M  V30 2915 C 307.952 -3.00396 0.135195 0
M  V30 2916 C 309.5 -3.1291 0.0750351 0
M  V30 2917 C 309.975 -4.56679 0.347632 0
M  V30 2918 N 311.466 -4.62252 0.296131 0
M  V30 2919 C 312.201 -5.71379 0.480948 0
M  V30 2920 N 311.697 -6.88986 0.725933 0
M  V30 2921 N 313.49 -5.60563 0.415435 0
M  V30 2922 H 305.641 -1.79393 1.13718 0
M  V30 2923 H 307.904 -0.832414 0.453643 0
M  V30 2924 H 307.61 -3.32726 1.13958 0
M  V30 2925 H 307.484 -3.72963 -0.563773 0
M  V30 2926 H 309.871 -2.80394 -0.919948 0
M  V30 2927 H 309.952 -2.42736 0.807029 0
M  V30 2928 H 309.596 -4.89907 1.33992 0
M  V30 2929 H 309.526 -5.25039 -0.405212 0
M  V30 2930 H 312.017 -3.7773 0.113259 0
M  V30 2931 H 312.33 -7.68046 0.855857 0
M  V30 2932 H 310.675 -6.90801 0.762788 0
M  V30 2933 H 313.866 -4.67561 0.224486 0
M  V30 2934 H 314.039 -6.45551 0.562889 0
M  V30 2935 N 307.445 0.0818655 -1.57387 0
M  V30 2936 C 308.408 1.08265 -2.02018 0
M  V30 2937 C 309.408 1.32183 -0.915664 0
M  V30 2938 O 310.598 1.28073 -1.18081 0
M  V30 2939 C 307.73 2.42871 -2.39221 0
M  V30 2940 H 308.923 0.698204 -2.91659 0
M  V30 2941 H 306.476 0.327303 -1.52835 0
M  V30 2942 H 307.211 2.86167 -1.52575 0
M  V30 2943 H 306.996 2.26855 -3.19811 0
M  V30 2944 H 308.486 3.14826 -2.74362 0
M  V30 2945 N 308.923 1.53595 0.353017 0
M  V30 2946 C 310.153 1.74058 1.11299 0
M  V30 2947 C 310.561 0.475205 1.83135 0
M  V30 2948 O 309.904 -0.562344 1.74881 0
M  V30 2949 C 309.966 2.85994 2.17825 0
M  V30 2950 C 309.63 4.25923 1.65647 0
M  V30 2951 C 310.627 5.07829 1.11383 0
M  V30 2952 C 308.312 4.72377 1.7078 0
M  V30 2953 C 310.306 6.34285 0.629439 0
M  V30 2954 C 307.993 5.98808 1.21953 0
M  V30 2955 C 308.991 6.79594 0.681265 0
M  V30 2956 O 308.679 8.03651 0.200248 0
M  V30 2957 H 308.411 0.585327 0.338183 0
M  V30 2958 H 310.965 2.01186 0.413927 0
M  V30 2959 H 309.195 2.54368 2.91262 0
M  V30 2960 H 310.884 2.94515 2.79313 0
M  V30 2961 H 311.65 4.73107 1.06746 0
M  V30 2962 H 307.529 4.0956 2.11617 0
M  V30 2963 H 311.073 6.97288 0.208636 0
M  V30 2964 H 306.97 6.33026 1.26287 0
M  V30 2965 H 307.738 8.1788 0.318416 0
M  V30 2966 N 310.401 -0.613514 1.45168 0
M  V30 2967 C 311.331 -1.7354 1.56225 0
M  V30 2968 C 312.312 -1.64981 0.41414 0
M  V30 2969 O 313.497 -1.83472 0.636526 0
M  V30 2970 C 310.627 -3.12128 1.52295 0
M  V30 2971 C 309.581 -3.35491 2.65762 0
M  V30 2972 C 308.907 -4.74291 2.46885 0
M  V30 2973 C 310.207 -3.26325 4.0781 0
M  V30 2974 H 311.901 -1.64543 2.50132 0
M  V30 2975 H 309.447 -0.790185 1.20383 0
M  V30 2976 H 311.4 -3.90404 1.58628 0
M  V30 2977 H 310.124 -3.2195 0.549139 0
M  V30 2978 H 308.783 -2.59603 2.58847 0
M  V30 2979 H 308.431 -4.80839 1.47657 0
M  V30 2980 H 308.131 -4.9088 3.22972 0
M  V30 2981 H 309.655 -5.54775 2.55063 0
M  V30 2982 H 311.069 -3.94483 4.16 0
M  V30 2983 H 309.466 -3.54445 4.8424 0
M  V30 2984 H 310.536 -2.23855 4.30136 0
M  V30 2985 N 311.879 -1.3236 -0.855495 0
M  V30 2986 C 313.127 -1.22629 -1.60644 0
M  V30 2987 C 313.448 0.212136 -1.93843 0
M  V30 2988 O 312.718 1.13666 -1.59552 0
M  V30 2989 H 311.298 -0.450882 -0.595579 0
M  V30 2990 H 313.96 -1.65871 -1.02337 0
M  V30 2991 H 313.056 -1.80832 -2.54374 0
M  V30 2992 N 313.357 1.07166 -1.15556 0
M  V30 2993 C 314.587 1.83248 -0.954133 0
M  V30 2994 C 314.995 1.82449 0.500911 0
M  V30 2995 O 314.338 1.23575 1.35923 0
M  V30 2996 C 314.4 3.31393 -1.39351 0
M  V30 2997 C 314.064 3.5591 -2.86666 0
M  V30 2998 C 315.061 3.49695 -3.8472 0
M  V30 2999 C 312.746 3.83515 -3.24379 0
M  V30 3000 C 314.74 3.70737 -5.18491 0
M  V30 3001 C 312.427 4.04209 -4.58321 0
M  V30 3002 C 313.425 3.97815 -5.55186 0
M  V30 3003 O 313.113 4.17954 -6.86709 0
M  V30 3004 H 312.845 0.584941 -0.338851 0
M  V30 3005 H 315.399 1.36169 -1.53777 0
M  V30 3006 H 313.629 3.79292 -0.75329 0
M  V30 3007 H 315.318 3.88945 -1.16089 0
M  V30 3008 H 316.084 3.28368 -3.56931 0
M  V30 3009 H 311.963 3.87605 -2.49567 0
M  V30 3010 H 315.507 3.65663 -5.94085 0
M  V30 3011 H 311.404 4.25023 -4.85825 0
M  V30 3012 H 312.172 4.35291 -6.93155 0
M  V30 3013 N 314.835 0.952656 1.25548 0
M  V30 3014 C 315.767 0.428609 2.25157 0
M  V30 3015 C 316.78 -0.454428 1.56329 0
M  V30 3016 O 317.969 -0.263023 1.76552 0
M  V30 3017 C 315.069 -0.401972 3.36508 0
M  V30 3018 C 314.242 0.467601 4.34893 0
M  V30 3019 C 313.301 -0.30445 5.25319 0
M  V30 3020 O 312.327 0.296473 5.68427 0
M  V30 3021 N 313.529 -1.59805 5.5807 0
M  V30 3022 H 316.294 1.28497 2.70756 0
M  V30 3023 H 313.855 0.822798 1.39433 0
M  V30 3024 H 315.847 -0.926134 3.9396 0
M  V30 3025 H 314.417 -1.15918 2.90313 0
M  V30 3026 H 313.637 1.17288 3.76347 0
M  V30 3027 H 314.925 1.06119 4.97611 0
M  V30 3028 H 314.323 -2.10823 5.24948 0
M  V30 3029 H 312.88 -2.06822 6.18116 0
M  V30 3030 N 316.313 -1.40141 0.720998 0
M  V30 3031 C 317.276 -2.29058 0.0805834 0
M  V30 3032 C 318.276 -1.45632 -0.681758 0
M  V30 3033 O 319.466 -1.6648 -0.512856 0
M  V30 3034 C 316.598 -3.28925 -0.895593 0
M  V30 3035 H 317.791 -2.87191 0.863793 0
M  V30 3036 H 315.344 -1.48553 0.485975 0
M  V30 3037 H 316.079 -2.75822 -1.70566 0
M  V30 3038 H 315.864 -3.90519 -0.351766 0
M  V30 3039 H 317.354 -3.95494 -1.34069 0
M  V30 3040 N 317.792 -0.46758 -1.50504 0
M  V30 3041 C 319.038 0.0887532 -2.02606 0
M  V30 3042 C 319.371 1.39686 -1.34913 0
M  V30 3043 O 318.646 1.88644 -0.473694 0
M  V30 3044 C 318.929 0.276206 -3.59039 0
M  V30 3045 C 318.782 -1.05267 -4.37309 0
M  V30 3046 C 320.101 1.03235 -4.27821 0
M  V30 3047 H 317.22 0.0307814 -0.736357 0
M  V30 3048 H 319.862 -0.612485 -1.79857 0
M  V30 3049 H 318.012 0.8735 -3.78553 0
M  V30 3050 H 319.684 -1.68628 -4.29374 0
M  V30 3051 H 317.927 -1.65015 -4.01189 0
M  V30 3052 H 318.598 -0.875197 -5.45018 0
M  V30 3053 H 321.074 0.526111 -4.12761 0
M  V30 3054 H 319.95 1.1323 -5.37094 0
M  V30 3055 H 320.211 2.06806 -3.90748 0
M  V30 3056 N 319.27 1.56325 -0.20005 0
M  V30 3057 C 320.681 1.8408 0.31167 0
M  V30 3058 C 321.032 1.12087 1.61031 0
M  V30 3059 O 320.157 0.38332 2.12978 0
M  V30 3060 C 320.752 3.33932 0.57226 0
M  V30 3061 C 319.311 3.6208 1.02834 0
M  V30 3062 C 318.458 2.77186 0.079634 0
M  V30 3063 H 321.409 1.52939 -0.423729 0
M  V30 3064 H 321.43 3.52971 1.42096 0
M  V30 3065 H 320.942 3.86303 -0.37308 0
M  V30 3066 H 319.043 3.15147 1.98778 0
M  V30 3067 H 319.156 4.7023 0.917624 0
M  V30 3068 H 317.52 2.47951 0.582448 0
M  V30 3069 H 318.303 3.32347 -0.860238 0
M  V30 3070 N 320.748 -0.0735177 1.57428 0
M  V30 3071 C 321.973 -0.789787 1.91774 0
M  V30 3072 C 322.398 -1.70413 0.796306 0
M  V30 3073 O 321.756 -1.79555 -0.250961 0
M  V30 3074 C 321.804 -1.5609 3.25067 0
M  V30 3075 O 320.908 -2.67144 3.14178 0
M  V30 3076 H 320.249 -0.215582 0.628029 0
M  V30 3077 H 322.779 -0.0422781 2.04556 0
M  V30 3078 H 322.789 -1.94052 3.58898 0
M  V30 3079 H 321.464 -0.890015 4.06265 0
M  V30 3080 H 320.041 -2.32052 2.91901 0
M  V30 3081 N 322.226 -1.5378 -0.344866 0
M  V30 3082 C 323.474 -1.70625 -1.08311 0
M  V30 3083 C 323.795 -0.471447 -1.89215 0
M  V30 3084 O 323.065 0.514616 -1.8902 0
M  V30 3085 H 321.645 -0.629058 -0.402859 0
M  V30 3086 H 324.307 -1.9103 -0.386459 0
M  V30 3087 H 323.403 -2.57656 -1.76124 0
M  V30 3088 N 323.704 0.605807 -1.45491 0
M  V30 3089 C 324.929 1.39625 -1.53361 0
M  V30 3090 C 325.354 1.87351 -0.167645 0
M  V30 3091 O 324.712 1.60243 0.848051 0
M  V30 3092 C 324.76 2.57559 -2.5238 0
M  V30 3093 O 323.864 3.58248 -2.04285 0
M  V30 3094 H 323.205 0.416771 -0.516912 0
M  V30 3095 H 325.735 0.737103 -1.90861 0
M  V30 3096 H 325.745 3.0478 -2.71244 0
M  V30 3097 H 324.42 2.22171 -3.51586 0
M  V30 3098 H 322.997 3.17664 -1.95305 0
M  V30 3099 N 325.182 1.32811 0.848464 0
M  V30 3100 C 326.407 1.26882 1.6406 0
M  V30 3101 C 326.832 -0.15913 1.87426 0
M  V30 3102 O 326.19 -1.11258 1.43148 0
M  V30 3103 C 326.238 2.03997 2.97351 0
M  V30 3104 O 325.342 1.39201 3.88197 0
M  V30 3105 H 324.683 0.436982 0.499943 0
M  V30 3106 H 327.213 1.75224 1.0563 0
M  V30 3107 H 327.223 2.14403 3.47124 0
M  V30 3108 H 325.898 3.0783 2.79666 0
M  V30 3109 H 324.475 1.37381 3.46671 0
M  V30 3110 N 326.66 -1.06551 1.16123 0
M  V30 3111 C 327.908 -1.78947 0.939267 0
M  V30 3112 C 328.229 -1.87532 -0.534476 0
M  V30 3113 O 327.499 -1.38211 -1.38833 0
M  V30 3114 H 326.079 -0.662807 0.344523 0
M  V30 3115 H 328.741 -1.28725 1.46342 0
M  V30 3116 H 327.837 -2.81117 1.35572 0
M  V30 3117 N 328.138 -0.959301 -1.25041 0
M  V30 3118 C 329.363 -0.633507 -1.97488 0
M  V30 3119 C 329.788 0.788555 -1.70773 0
M  V30 3120 O 329.146 1.53394 -0.966431 0
M  V30 3121 C 329.194 -0.904057 -3.49083 0
M  V30 3122 O 328.298 0.0147939 -4.12397 0
M  V30 3123 H 327.639 -0.240368 -0.618966 0
M  V30 3124 H 330.169 -1.28717 -1.59038 0
M  V30 3125 H 330.179 -0.832203 -3.99423 0
M  V30 3126 H 328.854 -1.94048 -3.67856 0
M  V30 3127 H 327.431 -0.109664 -3.72739 0
M  V30 3128 N 329.616 1.39756 -0.72842 0
M  V30 3129 C 330.546 2.33289 -0.0991354 0
M  V30 3130 C 331.527 1.53568 0.731489 0
M  V30 3131 O 332.712 1.81987 0.677807 0
M  V30 3132 C 329.842 3.3763 0.813834 0
M  V30 3133 C 328.796 4.2791 0.0878663 0
M  V30 3134 C 328.122 5.22894 1.11741 0
M  V30 3135 C 329.422 5.11314 -1.06563 0
M  V30 3136 H 331.116 2.86163 -0.880408 0
M  V30 3137 H 328.662 1.37591 -0.424819 0
M  V30 3138 H 330.615 4.0201 1.26355 0
M  V30 3139 H 329.339 2.83181 1.62715 0
M  V30 3140 H 327.998 3.65 -0.342159 0
M  V30 3141 H 327.646 4.64744 1.92412 0
M  V30 3142 H 327.346 5.84143 0.636477 0
M  V30 3143 H 328.87 5.90151 1.56697 0
M  V30 3144 H 330.284 5.69076 -0.694671 0
M  V30 3145 H 328.681 5.81671 -1.47577 0
M  V30 3146 H 329.751 4.46534 -1.89038 0
M  V30 3147 N 331.094 0.475555 1.50254 0
M  V30 3148 C 332.319 -0.0777042 2.07254 0
M  V30 3149 C 332.744 -1.3235 1.3366 0
M  V30 3150 O 332.102 -1.77152 0.385597 0
M  V30 3151 C 332.15 -0.340169 3.58992 0
M  V30 3152 O 331.254 -1.41982 3.87188 0
M  V30 3153 H 330.595 0.0149556 0.663832 0
M  V30 3154 H 333.125 0.667878 1.93392 0
M  V30 3155 H 333.135 -0.579332 4.03866 0
M  V30 3156 H 331.81 0.570167 4.11973 0
M  V30 3157 H 330.387 -1.16762 3.54148 0
M  V30 3158 N 332.573 -1.56217 0.208337 0
M  V30 3159 C 333.801 -2.02337 -0.43215 0
M  V30 3160 C 334.216 -1.08834 -1.54275 0
M  V30 3161 O 333.573 -0.0955462 -1.8225 0
M  V30 3162 C 333.624 -3.48072 -0.976138 0
M  V30 3163 O 333.345 -4.38007 0.0901621 0
M  V30 3164 C 334.846 -4.09773 -1.69119 0
M  V30 3165 H 332.066 -0.662385 -0.10718 0
M  V30 3166 H 334.61 -2.01966 0.320923 0
M  V30 3167 H 332.765 -3.49099 -1.67954 0
M  V30 3168 H 333.179 -5.23543 -0.316701 0
M  V30 3169 H 334.653 -5.13556 -2.02397 0
M  V30 3170 H 335.13 -3.53999 -2.59964 0
M  V30 3171 H 335.736 -4.12556 -1.03332 0
M  V30 3172 N 334.051 0.0651679 -1.57465 0
M  V30 3173 C 335.276 0.779605 -1.9219 0
M  V30 3174 C 335.701 1.69988 -0.805333 0
M  V30 3175 O 335.059 1.79685 0.241435 0
M  V30 3176 C 335.107 1.54364 -3.2589 0
M  V30 3177 O 334.211 2.65474 -3.1559 0
M  V30 3178 H 333.552 0.212249 -0.629163 0
M  V30 3179 H 336.082 0.0314294 -2.04576 0
M  V30 3180 H 336.092 1.92146 -3.59922 0
M  V30 3181 H 334.767 0.868457 -4.06732 0
M  V30 3182 H 333.344 2.30501 -2.93128 0
M  V30 3183 N 335.529 1.53961 0.336706 0
M  V30 3184 C 336.754 1.75797 1.10046 0
M  V30 3185 C 337.179 0.498985 1.81361 0
M  V30 3186 O 336.537 -0.548769 1.72795 0
M  V30 3187 C 336.585 2.94257 2.08436 0
M  V30 3188 O 335.689 2.64883 3.16087 0
M  V30 3189 H 335.03 0.582936 0.317934 0
M  V30 3190 H 337.56 2.00945 0.38501 0
M  V30 3191 H 337.57 3.21237 2.51537 0
M  V30 3192 H 336.245 3.85564 1.55927 0
M  V30 3193 H 334.822 2.48812 2.77753 0
M  V30 3194 N 337.007 -0.598083 1.45811 0
M  V30 3195 C 338.232 -1.3881 1.54099 0
M  V30 3196 C 338.657 -1.8726 0.177578 0
M  V30 3197 O 338.015 -1.6069 -0.839541 0
M  V30 3198 C 338.063 -2.56217 2.53743 0
M  V30 3199 O 337.167 -3.5716 2.06182 0
M  V30 3200 H 336.508 -0.414024 0.519115 0
M  V30 3201 H 339.038 -0.726971 1.91249 0
M  V30 3202 H 339.048 -3.03337 2.72856 0
M  V30 3203 H 337.723 -2.20303 3.5276 0
M  V30 3204 H 336.3 -3.16624 1.96987 0
M  V30 3205 N 338.485 -1.33259 -0.841409 0
M  V30 3206 C 339.71 -1.2775 -1.63385 0
M  V30 3207 C 340.135 0.149188 -1.87507 0
M  V30 3208 O 339.493 1.10498 -1.43736 0
M  V30 3209 C 339.541 -2.05571 -2.96265 0
M  V30 3210 O 338.645 -1.41257 -3.87453 0
M  V30 3211 H 337.986 -0.439627 -0.497618 0
M  V30 3212 H 340.516 -1.75782 -1.04699 0
M  V30 3213 H 340.526 -2.16241 -3.45982 0
M  V30 3214 H 339.201 -3.09309 -2.7803 0
M  V30 3215 H 337.778 -1.39217 -3.45938 0
M  V30 3216 N 339.963 1.05934 -1.16686 0
M  V30 3217 C 341.188 1.83029 -0.975455 0
M  V30 3218 C 341.613 1.82096 0.471452 0
M  V30 3219 O 340.971 1.22443 1.33706 0
M  V30 3220 C 341.019 3.27372 -1.51195 0
M  V30 3221 O 340.123 4.06054 -0.720701 0
M  V30 3222 H 339.464 0.566194 -0.346872 0
M  V30 3223 H 341.994 1.33541 -1.55009 0
M  V30 3224 H 342.004 3.78186 -1.53099 0
M  V30 3225 H 340.679 3.27366 -2.56523 0
M  V30 3226 H 339.256 3.64812 -0.772458 0
M  V30 3227 N 341.441 0.965919 1.2453 0
M  V30 3228 C 342.852 0.665929 1.7442 0
M  V30 3229 C 343.203 -0.818407 1.78316 0
M  V30 3230 O 342.328 -1.64037 1.41141 0
M  V30 3231 C 342.923 1.20211 3.16757 0
M  V30 3232 C 341.482 0.952059 3.6416 0
M  V30 3233 C 340.629 1.33848 2.42858 0
M  V30 3234 H 343.58 1.14144 1.10258 0
M  V30 3235 H 343.601 0.567544 3.76244 0
M  V30 3236 H 343.113 2.28244 3.13889 0
M  V30 3237 H 341.214 -0.112821 3.72429 0
M  V30 3238 H 341.327 1.59645 4.51719 0
M  V30 3239 H 339.691 0.756864 2.43195 0
M  V30 3240 H 340.474 2.42827 2.42673 0
M  V30 3241 N 342.919 -1.39368 0.735821 0
M  V30 3242 C 344.33 -1.83313 0.354015 0
M  V30 3243 C 344.681 -1.61461 -1.11466 0
M  V30 3244 O 343.806 -1.10621 -1.85989 0
M  V30 3245 C 344.401 -3.32781 0.635769 0
M  V30 3246 C 342.96 -3.75142 0.307448 0
M  V30 3247 C 342.107 -2.62358 0.897974 0
M  V30 3248 H 345.058 -1.28349 0.933398 0
M  V30 3249 H 345.079 -3.80388 -0.0921773 0
M  V30 3250 H 344.591 -3.48654 1.70476 0
M  V30 3251 H 342.692 -3.64857 -0.755674 0
M  V30 3252 H 342.805 -4.72532 0.790583 0
M  V30 3253 H 341.169 -2.52624 0.324551 0
M  V30 3254 H 341.952 -2.81036 1.97164 0
M  V30 3255 N 344.397 -0.483516 -1.5 0
M  V30 3256 C 345.645 0.067027 -2.01989 0
M  V30 3257 C 345.966 1.3909 -1.36671 0
M  V30 3258 O 345.236 1.88978 -0.516152 0
M  V30 3259 H 343.816 0.0277606 -0.746484 0
M  V30 3260 H 346.478 -0.636773 -1.84204 0
M  V30 3261 H 345.574 0.209484 -3.11396 0
M  V30 3262 N 345.875 1.56104 -0.216619 0
M  V30 3263 C 347.103 2.02563 0.421413 0
M  V30 3264 C 347.518 1.0965 1.53695 0
M  V30 3265 O 346.875 0.10521 1.82196 0
M  V30 3266 C 346.926 3.48584 0.957665 0
M  V30 3267 O 346.647 4.37953 -0.113389 0
M  V30 3268 C 348.148 4.10664 1.66943 0
M  V30 3269 H 345.368 0.662944 0.103665 0
M  V30 3270 H 347.912 2.01793 -0.331629 0
M  V30 3271 H 346.067 3.49985 1.661 0
M  V30 3272 H 346.481 5.23704 0.288932 0
M  V30 3273 H 347.955 5.14622 1.99671 0
M  V30 3274 H 348.432 3.55373 2.58083 0
M  V30 3275 H 349.038 4.13098 1.01142 0
M  V30 3276 N 347.353 -0.0568162 1.57498 0
M  V30 3277 C 348.764 -0.606858 1.76562 0
M  V30 3278 C 349.115 -1.77114 0.844094 0
M  V30 3279 O 348.24 -2.16376 0.0318911 0
M  V30 3280 C 348.835 -1.10766 3.20182 0
M  V30 3281 C 347.394 -1.60344 3.40539 0
M  V30 3282 C 346.541 -0.529311 2.72201 0
M  V30 3283 H 349.492 0.169393 1.57793 0
M  V30 3284 H 349.513 -1.97602 3.25167 0
M  V30 3285 H 349.025 -0.26006 3.87228 0
M  V30 3286 H 347.126 -2.47379 2.78629 0
M  V30 3287 H 347.239 -1.67006 4.4905 0
M  V30 3288 H 345.603 -0.977893 2.35179 0
M  V30 3289 H 346.386 0.308352 3.41912 0
M  V30 3290 N 348.832 -1.54138 -0.328536 0
M  V30 3291 C 350.057 -1.76378 -1.09112 0
M  V30 3292 C 350.482 -0.508596 -1.81094 0
M  V30 3293 O 349.84 0.539598 -1.73084 0
M  V30 3294 C 349.888 -2.95358 -2.06872 0
M  V30 3295 O 348.992 -2.66556 -3.14677 0
M  V30 3296 H 348.333 -0.584614 -0.314838 0
M  V30 3297 H 350.863 -2.01146 -0.374348 0
M  V30 3298 H 350.873 -3.22566 -2.4983 0
M  V30 3299 H 349.548 -3.86385 -1.5388 0
M  V30 3300 H 348.125 -2.50282 -2.7643 0
M  V30 3301 N 350.31 0.590341 -1.46126 0
M  V30 3302 C 351.721 1.17243 -1.45296 0
M  V30 3303 C 352.072 1.95281 -0.189723 0
M  V30 3304 O 351.197 2.04502 0.707674 0
M  V30 3305 C 351.792 2.13284 -2.6324 0
M  V30 3306 C 350.351 2.66832 -2.65476 0
M  V30 3307 C 349.498 1.42557 -2.3785 0
M  V30 3308 H 352.449 0.378692 -1.54116 0
M  V30 3309 H 352.47 2.96619 -2.38323 0
M  V30 3310 H 351.982 1.56459 -3.55165 0
M  V30 3311 H 350.083 3.27548 -1.77603 0
M  V30 3312 H 350.196 3.10088 -3.65215 0
M  V30 3313 H 348.56 1.72107 -1.87753 0
M  V30 3314 H 349.343 0.875741 -3.31942 0
M  V30 3315 N 351.788 1.33704 0.83433 0
M  V30 3316 C 352.751 1.24244 1.92603 0
M  V30 3317 C 353.751 0.160383 1.59998 0
M  V30 3318 O 354.941 0.412228 1.69252 0
M  V30 3319 C 352.073 0.91555 3.28376 0
M  V30 3320 H 353.266 2.21287 2.02416 0
M  V30 3321 H 350.819 1.17827 1.02696 0
M  V30 3322 H 351.554 -0.0521886 3.24258 0
M  V30 3323 H 351.339 1.69811 3.53422 0
M  V30 3324 H 352.829 0.874231 4.08347 0
M  V30 3325 N 353.266 -1.05314 1.17247 0
M  V30 3326 C 354.543 -1.75184 0.87005 0
M  V30 3327 C 354.923 -2.01481 -0.629965 0
M  V30 3328 O 354.271 -1.64988 -1.58086 0
M  V30 3329 C 354.481 -3.04594 1.70363 0
M  V30 3330 C 355.829 -3.78567 1.92281 0
M  V30 3331 O 356.853 -3.14461 1.67311 0
M  V30 3332 O 355.712 -4.93755 2.3424 0
M  V30 3333 H 352.806 -0.761729 0.322021 0
M  V30 3334 H 355.352 -1.11493 1.27935 0
M  V30 3335 H 354.124 -2.81201 2.72106 0
M  V30 3336 H 353.747 -3.76022 1.29202 0
M  V30 3337 N 354.744 -0.972509 -1.24016 0
M  V30 3338 C 355.707 -0.511403 -2.23422 0
M  V30 3339 C 356.707 0.394679 -1.55881 0
M  V30 3340 O 357.897 0.189469 -1.73167 0
M  V30 3341 C 355.029 0.258769 -3.39916 0
M  V30 3342 H 356.222 -1.39024 -2.6573 0
M  V30 3343 H 353.775 -0.757585 -1.36713 0
M  V30 3344 H 354.51 1.1545 -3.03054 0
M  V30 3345 H 354.295 -0.391522 -3.9014 0
M  V30 3346 H 355.785 0.570244 -4.13688 0
M  V30 3347 N 356.222 1.38976 -0.743202 0
M  V30 3348 C 357.169 2.30544 -0.10861 0
M  V30 3349 C 358.139 1.49642 0.720869 0
M  V30 3350 O 359.324 1.78304 0.679142 0
M  V30 3351 C 356.464 3.36018 0.786496 0
M  V30 3352 C 355.577 4.31963 -0.0564849 0
M  V30 3353 C 354.712 5.24506 0.840657 0
M  V30 3354 C 353.751 6.121 -0.00658363 0
M  V30 3355 N 352.888 6.96973 0.846943 0
M  V30 3356 H 357.728 2.8424 -0.895088 0
M  V30 3357 H 355.265 1.3995 -0.453048 0
M  V30 3358 H 357.223 3.95768 1.31999 0
M  V30 3359 H 355.853 2.83758 1.53887 0
M  V30 3360 H 354.905 3.73763 -0.707492 0
M  V30 3361 H 356.217 4.93703 -0.711229 0
M  V30 3362 H 355.371 5.89322 1.4417 0
M  V30 3363 H 354.11 4.63107 1.52916 0
M  V30 3364 H 353.115 5.46289 -0.620366 0
M  V30 3365 H 354.34 6.75565 -0.691992 0
M  V30 3366 H 352.286 6.38133 1.52059 0
M  V30 3367 H 352.203 7.5559 0.248864 0
M  V30 3368 H 353.471 7.6621 1.43328 0
M  V30 3369 N 357.7 0.491464 1.49741 0
M  V30 3370 C 358.663 -0.280906 2.27472 0
M  V30 3371 C 359.663 -0.902454 1.33088 0
M  V30 3372 O 360.853 -0.768465 1.56334 0
M  V30 3373 C 357.985 -1.40209 3.10732 0
M  V30 3374 H 359.178 0.401056 2.97206 0
M  V30 3375 H 356.731 0.246131 1.5435 0
M  V30 3376 H 357.466 -2.11849 2.45541 0
M  V30 3377 H 357.251 -0.961969 3.80117 0
M  V30 3378 H 358.741 -1.9464 3.69466 0
M  V30 3379 N 359.178 -1.55987 0.224894 0
M  V30 3380 C 360.589 -1.84553 -0.282345 0
M  V30 3381 C 360.94 -1.14634 -1.59227 0
M  V30 3382 O 360.065 -0.417155 -2.12341 0
M  V30 3383 C 360.66 -3.348 -0.519062 0
M  V30 3384 C 359.219 -3.63671 -0.970604 0
M  V30 3385 C 358.366 -2.77277 -0.0355261 0
M  V30 3386 H 361.317 -1.52245 0.448006 0
M  V30 3387 H 361.338 -3.55187 -1.36463 0
M  V30 3388 H 360.85 -3.8566 0.43449 0
M  V30 3389 H 358.951 -3.1827 -1.9374 0
M  V30 3390 H 359.064 -4.71631 -0.842698 0
M  V30 3391 H 357.428 -2.48846 -0.542927 0
M  V30 3392 H 358.211 -3.30937 0.913003 0
M  V30 3393 N 360.656 0.0484629 -1.57525 0
M  V30 3394 C 362.067 0.597486 -1.76881 0
M  V30 3395 C 362.418 1.76664 -0.853475 0
M  V30 3396 O 361.543 2.16357 -0.0433656 0
M  V30 3397 C 362.138 1.09066 -3.20765 0
M  V30 3398 C 360.697 1.58535 -3.41385 0
M  V30 3399 C 359.844 0.514868 -2.72478 0
M  V30 3400 H 362.795 -0.177758 -1.57701 0
M  V30 3401 H 362.816 1.95875 -3.2621 0
M  V30 3402 H 362.328 0.239521 -3.8736 0
M  V30 3403 H 360.429 2.45898 -2.79937 0
M  V30 3404 H 360.542 1.64622 -4.49929 0
M  V30 3405 H 358.906 0.965407 -2.35695 0
M  V30 3406 H 359.689 -0.32648 -3.41744 0
M  V30 3407 N 362.134 1.5431 0.320358 0
M  V30 3408 C 363.362 1.76636 1.07738 0
M  V30 3409 C 363.777 0.51649 1.81598 0
M  V30 3410 O 363.134 -0.512942 1.75143 0
M  V30 3411 C 363.185 2.96158 2.07299 0
M  V30 3412 O 362.906 4.16313 1.36438 0
M  V30 3413 C 364.407 3.3072 2.95193 0
M  V30 3414 H 361.627 0.589597 0.320339 0
M  V30 3415 H 364.171 2.01207 0.36551 0
M  V30 3416 H 362.326 2.73851 2.74016 0
M  V30 3417 H 362.74 4.83565 2.03138 0
M  V30 3418 H 364.214 4.17643 3.60941 0
M  V30 3419 H 364.691 2.48026 3.62463 0
M  V30 3420 H 365.297 3.55117 2.34034 0
M  V30 3421 N 363.613 -0.582584 1.46437 0
M  V30 3422 C 364.576 -1.67366 1.56592 0
M  V30 3423 C 365.576 -1.54575 0.443072 0
M  V30 3424 O 366.766 -1.59191 0.707381 0
M  V30 3425 C 363.898 -3.06791 1.48634 0
M  V30 3426 H 365.091 -1.5972 2.5383 0
M  V30 3427 H 362.644 -0.800432 1.34249 0
M  V30 3428 H 363.379 -3.19993 0.526763 0
M  V30 3429 H 363.164 -3.17484 2.30101 0
M  V30 3430 H 364.654 -3.86218 1.58826 0
M  V30 3431 N 365.091 -1.34144 -0.827227 0
M  V30 3432 C 366.331 -1.27603 -1.59677 0
M  V30 3433 C 366.695 0.153035 -1.91389 0
M  V30 3434 O 367.896 0.342566 -2.66608 0
M  V30 3435 C 366.167 -2.13784 -2.86411 0
M  V30 3436 S 367.726 -2.24552 -3.76991 0
M  V30 3437 H 364.544 -0.453789 -0.547354 0
M  V30 3438 H 367.146 -1.69309 -0.977479 0
M  V30 3439 H 365.85 -3.16627 -2.61104 0
M  V30 3440 H 365.381 -1.72959 -3.5334 0
M  V30 3441 H 367.396 -1.41514 -4.75593 0
M  V30 3442 N 366.569 1.04691 -1.17803 0
M  V30 3443 C 367.799 1.81183 -0.992788 0
M  V30 3444 C 368.207 1.8347 0.462098 0
M  V30 3445 O 367.55 1.2643 1.33271 0
M  V30 3446 C 367.612 3.28363 -1.46349 0
M  V30 3447 C 367.276 3.49749 -2.94151 0
M  V30 3448 C 368.273 3.41456 -3.92051 0
M  V30 3449 C 365.958 3.76548 -3.32441 0
M  V30 3450 C 367.952 3.59656 -5.26238 0
M  V30 3451 C 365.639 3.94396 -4.66792 0
M  V30 3452 C 366.637 3.8595 -5.635 0
M  V30 3453 O 366.325 4.03294 -6.9542 0
M  V30 3454 H 366.057 0.577622 -0.351182 0
M  V30 3455 H 368.611 1.32876 -1.5663 0
M  V30 3456 H 366.841 3.77609 -0.833574 0
M  V30 3457 H 368.53 3.86395 -1.24313 0
M  V30 3458 H 369.296 3.20723 -3.63815 0
M  V30 3459 H 365.175 3.82224 -2.57732 0
M  V30 3460 H 368.719 3.52979 -6.01707 0
M  V30 3461 H 364.616 4.14622 -4.94731 0
M  V30 3462 H 365.384 4.2049 -7.02232 0
M  V30 3463 N 368.047 0.979072 1.23499 0
M  V30 3464 C 369.01 0.523244 2.23147 0
M  V30 3465 C 370.01 -0.386406 1.56088 0
M  V30 3466 O 371.2 -0.180283 1.73265 0
M  V30 3467 C 368.332 -0.240739 3.40049 0
M  V30 3468 H 369.525 1.40432 2.64989 0
M  V30 3469 H 367.078 0.764824 1.36309 0
M  V30 3470 H 367.813 -1.13841 3.03662 0
M  V30 3471 H 367.598 0.412207 3.89927 0
M  V30 3472 H 369.088 -0.548297 4.13985 0
M  V30 3473 N 369.525 -1.3858 0.750561 0
M  V30 3474 C 370.773 -1.99789 0.30477 0
M  V30 3475 C 371.094 -1.59874 -1.11649 0
M  V30 3476 O 370.364 -0.85417 -1.76297 0
M  V30 3477 H 368.944 -0.738902 0.109694 0
M  V30 3478 H 371.606 -1.69391 0.963983 0
M  V30 3479 H 370.702 -3.09952 0.365499 0
M  V30 3480 N 371.003 -0.499398 -1.49478 0
M  V30 3481 C 371.966 0.268838 -2.27618 0
M  V30 3482 C 372.966 0.895383 -1.33565 0
M  V30 3483 O 374.156 0.760164 -1.56739 0
M  V30 3484 C 371.288 1.38559 -3.11471 0
M  V30 3485 H 372.481 -0.416812 -2.96989 0
M  V30 3486 H 370.034 -0.254313 -1.54217 0
M  V30 3487 H 370.769 2.10544 -2.46661 0
M  V30 3488 H 370.554 0.941797 -3.80621 0
M  V30 3489 H 372.044 1.92678 -3.70493 0
M  V30 3490 N 372.481 1.55866 -0.233164 0
M  V30 3491 C 373.444 2.1953 0.658715 0
M  V30 3492 C 374.444 1.16053 1.11303 0
M  V30 3493 O 375.634 1.41218 1.01996 0
M  V30 3494 C 372.766 2.82791 1.90373 0
M  V30 3495 H 373.959 2.99721 0.10347 0
M  V30 3496 H 371.512 1.56291 0.0164245 0
M  V30 3497 H 372.247 2.06501 2.50056 0
M  V30 3498 H 372.032 3.58578 1.58632 0
M  V30 3499 H 373.522 3.31556 2.53891 0
M  V30 3500 N 373.959 -0.0401083 1.57549 0
M  V30 3501 C 375.37 -0.588097 1.77196 0
M  V30 3502 C 375.721 -1.76209 0.862832 0
M  V30 3503 O 374.846 -2.16331 0.0548389 0
M  V30 3504 C 375.441 -1.07363 3.21339 0
M  V30 3505 C 374 -1.56723 3.42221 0
M  V30 3506 C 373.147 -0.50041 2.72747 0
M  V30 3507 H 376.098 0.186119 1.57605 0
M  V30 3508 H 376.119 -1.94143 3.27244 0
M  V30 3509 H 375.631 -0.218975 3.87482 0
M  V30 3510 H 373.732 -2.4441 2.81237 0
M  V30 3511 H 373.845 -1.62234 4.50796 0
M  V30 3512 H 372.209 -0.952894 2.36203 0
M  V30 3513 H 372.992 0.344599 3.41566 0
M  V30 3514 N 375.437 -1.54477 -0.31217 0
M  V30 3515 C 376.4 -1.83923 -1.36766 0
M  V30 3516 C 377.4 -0.711563 -1.44199 0
M  V30 3517 O 378.59 -0.979866 -1.44029 0
M  V30 3518 C 375.722 -2.0095 -2.75376 0
M  V30 3519 H 376.915 -2.78239 -1.11906 0
M  V30 3520 H 374.468 -1.46369 -0.548257 0
M  V30 3521 H 375.203 -1.08883 -3.05475 0
M  V30 3522 H 374.988 -2.83018 -2.71373 0
M  V30 3523 H 376.478 -2.2514 -3.51713 0
M  V30 3524 N 376.915 0.57481 -1.46744 0
M  V30 3525 C 378.326 1.15695 -1.46532 0
M  V30 3526 C 378.677 1.95068 -0.210425 0
M  V30 3527 O 377.802 2.05241 0.685944 0
M  V30 3528 C 378.397 2.1048 -2.65487 0
M  V30 3529 C 376.956 2.64002 -2.68291 0
M  V30 3530 C 376.103 1.40026 -2.39349 0
M  V30 3531 H 379.054 0.362325 -1.54509 0
M  V30 3532 H 379.075 2.94074 -2.41455 0
M  V30 3533 H 378.587 1.52683 -3.56805 0
M  V30 3534 H 376.688 3.25646 -1.81067 0
M  V30 3535 H 376.801 3.06197 -3.68483 0
M  V30 3536 H 375.165 1.70106 -1.89568 0
M  V30 3537 H 375.948 0.840485 -3.32852 0
M  V30 3538 N 378.394 1.34581 0.820102 0
M  V30 3539 C 379.619 1.30333 1.61332 0
M  V30 3540 C 380.044 -0.119339 1.87721 0
M  V30 3541 O 379.402 -1.08197 1.45475 0
M  V30 3542 C 379.45 2.10258 2.92957 0
M  V30 3543 O 378.554 1.47404 3.85157 0
M  V30 3544 H 377.895 0.447488 0.490561 0
M  V30 3545 H 380.425 1.77425 1.01889 0
M  V30 3546 H 380.435 2.21718 3.42498 0
M  V30 3547 H 379.11 3.13693 2.73074 0
M  V30 3548 H 377.687 1.44703 3.43679 0
M  V30 3549 N 379.872 -1.04064 1.18357 0
M  V30 3550 C 380.804 -2.12114 0.868358 0
M  V30 3551 C 381.817 -1.62247 -0.134045 0
M  V30 3552 O 383.006 -1.78253 0.0937933 0
M  V30 3553 C 380.106 -3.37773 0.276132 0
M  V30 3554 C 379.279 -4.16874 1.3242 0
M  V30 3555 C 378.338 -5.20861 0.747662 0
M  V30 3556 O 377.364 -5.51141 1.42239 0
M  V30 3557 N 378.566 -5.78715 -0.454823 0
M  V30 3558 H 381.331 -2.39748 1.79836 0
M  V30 3559 H 378.892 -1.20258 1.08396 0
M  V30 3560 H 380.884 -4.04513 -0.123133 0
M  V30 3561 H 379.454 -3.07581 -0.557895 0
M  V30 3562 H 378.674 -3.45456 1.89878 0
M  V30 3563 H 379.962 -4.66516 2.03078 0
M  V30 3564 H 379.36 -5.56415 -1.02073 0
M  V30 3565 H 377.917 -6.46921 -0.79601 0
M  V30 3566 N 381.35 -0.985608 -1.22978 0
M  V30 3567 C 382.596 -0.65836 -1.91816 0
M  V30 3568 C 382.929 0.806692 -1.76653 0
M  V30 3569 O 382.204 1.58252 -1.13078 0
M  V30 3570 C 382.487 -1.056 -3.44268 0
M  V30 3571 C 382.34 -2.57906 -3.68516 0
M  V30 3572 C 383.659 -0.603781 -4.35939 0
M  V30 3573 H 380.778 -0.24065 -0.696604 0
M  V30 3574 H 383.42 -1.22783 -1.44998 0
M  V30 3575 H 381.57 -0.571445 -3.84274 0
M  V30 3576 H 383.242 -3.13976 -3.3796 0
M  V30 3577 H 381.485 -3.00305 -3.13048 0
M  V30 3578 H 382.156 -2.80779 -4.75255 0
M  V30 3579 H 384.632 -1.01987 -4.03408 0
M  V30 3580 H 383.508 -0.910383 -5.41298 0
M  V30 3581 H 383.769 0.495761 -4.39312 0
M  V30 3582 N 382.828 1.3818 -0.7579 0
M  V30 3583 C 383.775 2.30416 -0.133057 0
M  V30 3584 C 384.745 1.50398 0.704957 0
M  V30 3585 O 385.93 1.79014 0.660192 0
M  V30 3586 C 383.07 3.36834 0.750813 0
M  V30 3587 C 382.183 4.31879 -0.102297 0
M  V30 3588 C 381.318 5.25368 0.784979 0
M  V30 3589 C 380.357 6.12058 -0.0715046 0
M  V30 3590 N 379.494 6.97832 0.772972 0
M  V30 3591 H 384.334 2.83274 -0.925186 0
M  V30 3592 H 381.871 1.39461 -0.467866 0
M  V30 3593 H 383.829 3.97145 1.27794 0
M  V30 3594 H 382.459 2.85374 1.50868 0
M  V30 3595 H 381.511 3.72991 -0.747095 0
M  V30 3596 H 382.823 4.92921 -0.763552 0
M  V30 3597 H 381.977 5.90818 1.37911 0
M  V30 3598 H 380.716 4.64703 1.47996 0
M  V30 3599 H 379.721 5.456 -0.678272 0
M  V30 3600 H 380.946 6.74793 -0.763606 0
M  V30 3601 H 378.892 6.3971 1.45282 0
M  V30 3602 H 378.809 7.55812 0.168709 0
M  V30 3603 H 380.077 7.67687 1.35194 0
M  V30 3604 N 384.306 0.507319 1.49211 0
M  V30 3605 C 385.531 -0.033725 2.07373 0
M  V30 3606 C 385.956 -1.29485 1.36437 0
M  V30 3607 O 385.314 -1.76294 0.423087 0
M  V30 3608 C 385.362 -0.263945 3.59633 0
M  V30 3609 O 384.466 -1.33737 3.90113 0
M  V30 3610 H 383.807 0.0290331 0.663365 0
M  V30 3611 H 386.337 0.708749 1.91932 0
M  V30 3612 H 386.347 -0.493536 4.05004 0
M  V30 3613 H 385.022 0.657424 4.10671 0
M  V30 3614 H 383.599 -1.09224 3.56545 0
M  V30 3615 N 385.784 -1.5574 0.241426 0
M  V30 3616 C 386.731 -2.21149 -0.660432 0
M  V30 3617 C 387.701 -1.17356 -1.17545 0
M  V30 3618 O 388.886 -1.45784 -1.23093 0
M  V30 3619 C 386.026 -2.91059 -1.85414 0
M  V30 3620 C 385.139 -4.09495 -1.37616 0
M  V30 3621 C 384.274 -4.67135 -2.529 0
M  V30 3622 C 383.313 -5.77831 -2.01936 0
M  V30 3623 N 382.45 -6.29677 -3.10566 0
M  V30 3624 H 387.29 -2.97845 -0.095955 0
M  V30 3625 H 384.827 -1.47057 -0.0356024 0
M  V30 3626 H 386.785 -3.29788 -2.5553 0
M  V30 3627 H 385.415 -2.16846 -2.39118 0
M  V30 3628 H 384.467 -3.76117 -0.569235 0
M  V30 3629 H 385.779 -4.89423 -0.962618 0
M  V30 3630 H 384.933 -5.08409 -3.31067 0
M  V30 3631 H 383.672 -3.86411 -2.97553 0
M  V30 3632 H 382.677 -5.36039 -1.22238 0
M  V30 3633 H 383.902 -6.60402 -1.58259 0
M  V30 3634 H 381.848 -5.5186 -3.54664 0
M  V30 3635 H 381.765 -7.04783 -2.73526 0
M  V30 3636 H 383.033 -6.75609 -3.88809 0
M  V30 3637 N 387.262 0.0317525 -1.57568 0
M  V30 3638 C 388.225 1.01783 -2.0536 0
M  V30 3639 C 389.225 1.29203 -0.957253 0
M  V30 3640 O 390.415 1.24251 -1.22095 0
M  V30 3641 C 387.547 2.35137 -2.46827 0
M  V30 3642 H 388.74 0.605062 -2.93733 0
M  V30 3643 H 386.293 0.278514 -1.53799 0
M  V30 3644 H 387.028 2.81168 -1.61602 0
M  V30 3645 H 386.813 2.16566 -3.26866 0
M  V30 3646 H 388.303 3.05938 -2.84239 0
M  V30 3647 N 388.74 1.54641 0.303973 0
M  V30 3648 C 389.687 1.85386 1.37479 0
M  V30 3649 C 390.657 0.702528 1.50512 0
M  V30 3650 O 391.842 0.950867 1.65418 0
M  V30 3651 C 388.982 2.10413 2.73533 0
M  V30 3652 C 388.095 3.38049 2.68974 0
M  V30 3653 C 387.23 3.52934 3.97002 0
M  V30 3654 C 386.269 4.74373 3.86829 0
M  V30 3655 N 385.406 4.8608 5.06627 0
M  V30 3656 H 390.246 2.76732 1.1056 0
M  V30 3657 H 387.783 1.37034 0.534805 0
M  V30 3658 H 389.741 2.22919 3.52652 0
M  V30 3659 H 388.371 1.22338 2.98719 0
M  V30 3660 H 387.423 3.3418 1.81736 0
M  V30 3661 H 388.735 4.27288 2.57346 0
M  V30 3662 H 387.889 3.65088 4.84557 0
M  V30 3663 H 386.628 2.61824 4.1146 0
M  V30 3664 H 385.633 4.62255 2.97658 0
M  V30 3665 H 386.858 5.66888 3.73918 0
M  V30 3666 H 384.804 3.97891 5.21554 0
M  V30 3667 H 384.721 5.69315 4.9741 0
M  V30 3668 H 385.989 5.02587 5.95841 0
M  V30 3669 N 390.218 -0.567019 1.47046 0
M  V30 3670 C 391.165 -1.67489 1.58796 0
M  V30 3671 C 392.135 -1.60399 0.43144 0
M  V30 3672 O 393.32 -1.79378 0.650233 0
M  V30 3673 C 390.46 -3.05821 1.59899 0
M  V30 3674 C 389.573 -3.2342 2.86397 0
M  V30 3675 C 388.708 -4.52093 2.789 0
M  V30 3676 C 387.747 -4.6309 4.00267 0
M  V30 3677 N 386.884 -5.83106 3.91064 0
M  V30 3678 H 391.724 -1.56785 2.53422 0
M  V30 3679 H 389.261 -0.763896 1.2571 0
M  V30 3680 H 391.219 -3.8591 1.58522 0
M  V30 3681 H 389.849 -3.15384 0.687929 0
M  V30 3682 H 388.901 -2.3683 2.97684 0
M  V30 3683 H 390.213 -3.27412 3.76301 0
M  V30 3684 H 389.367 -5.4043 2.75718 0
M  V30 3685 H 388.106 -4.50565 1.86662 0
M  V30 3686 H 387.111 -3.73168 4.03765 0
M  V30 3687 H 388.336 -4.66386 4.93621 0
M  V30 3688 H 386.282 -5.82546 3.01623 0
M  V30 3689 H 386.199 -5.88434 4.74638 0
M  V30 3690 H 387.467 -6.73831 3.91882 0
M  V30 3691 N 391.696 -1.35014 -0.812953 0
M  V30 3692 C 392.924 -1.31031 -1.6012 0
M  V30 3693 C 393.339 0.113558 -1.88458 0
M  V30 3694 O 392.696 1.06363 -1.48301 0
M  V30 3695 C 392.747 -2.10872 -2.93624 0
M  V30 3696 O 392.468 -3.47706 -2.66518 0
M  V30 3697 C 393.969 -2.14401 -3.88004 0
M  V30 3698 H 391.189 -0.45037 -0.497401 0
M  V30 3699 H 393.733 -1.77775 -1.01076 0
M  V30 3700 H 391.888 -1.67744 -3.492 0
M  V30 3701 H 392.302 -3.89097 -3.51715 0
M  V30 3702 H 393.776 -2.74669 -4.78812 0
M  V30 3703 H 394.253 -1.14105 -4.24119 0
M  V30 3704 H 394.859 -2.57662 -3.38364 0
M  V30 3705 N 393.175 1.03435 -1.18907 0
M  V30 3706 C 394.421 1.77005 -0.989798 0
M  V30 3707 C 394.754 1.88205 0.478816 0
M  V30 3708 O 394.029 1.39481 1.35556 0
M  V30 3709 C 394.312 3.19925 -1.65287 0
M  V30 3710 C 394.165 3.1663 -3.19477 0
M  V30 3711 C 395.484 4.18189 -1.37134 0
M  V30 3712 H 392.603 0.642538 -0.360991 0
M  V30 3713 H 395.245 1.20784 -1.46667 0
M  V30 3714 H 393.395 3.67929 -1.24741 0
M  V30 3715 H 395.067 2.76567 -3.692 0
M  V30 3716 H 393.31 2.54491 -3.51307 0
M  V30 3717 H 393.981 4.1758 -3.61013 0
M  V30 3718 H 396.457 3.78761 -1.72276 0
M  V30 3719 H 395.333 5.16394 -1.86087 0
M  V30 3720 H 395.594 4.41112 -0.295424 0
M  V30 3721 N 394.653 0.992116 1.22453 0
M  V30 3722 C 395.93 0.583508 1.86694 0
M  V30 3723 C 396.31 -0.9392 1.89056 0
M  V30 3724 O 395.658 -1.82081 1.38053 0
M  V30 3725 C 395.868 1.20304 3.2761 0
M  V30 3726 C 397.216 1.30308 4.0411 0
M  V30 3727 O 398.24 1.15737 3.36873 0
M  V30 3728 O 397.099 1.53615 5.24466 0
M  V30 3729 H 394.193 0.198129 0.802916 0
M  V30 3730 H 396.739 1.08794 1.30238 0
M  V30 3731 H 395.511 2.24461 3.2052 0
M  V30 3732 H 395.134 0.684144 3.9167 0
M  V30 3733 N 396.131 -1.37776 0.765217 0
M  V30 3734 C 397.078 -2.30342 0.145274 0
M  V30 3735 C 398.048 -1.5077 -0.696971 0
M  V30 3736 O 399.233 -1.79362 -0.650689 0
M  V30 3737 C 396.373 -3.37227 -0.732939 0
M  V30 3738 C 395.486 -4.31819 0.125199 0
M  V30 3739 C 394.621 -5.25777 -0.757107 0
M  V30 3740 C 393.66 -6.12012 0.103963 0
M  V30 3741 N 392.797 -6.98232 -0.735953 0
M  V30 3742 H 397.637 -2.8278 0.940195 0
M  V30 3743 H 395.174 -1.39211 0.475255 0
M  V30 3744 H 397.132 -3.97818 -1.25686 0
M  V30 3745 H 395.762 -2.86171 -1.49353 0
M  V30 3746 H 394.814 -3.7259 0.766865 0
M  V30 3747 H 396.126 -4.92509 0.789683 0
M  V30 3748 H 395.28 -5.91541 -1.34776 0
M  V30 3749 H 394.019 -4.65481 -1.45529 0
M  V30 3750 H 393.024 -5.45233 0.707197 0
M  V30 3751 H 394.249 -6.74379 0.799381 0
M  V30 3752 H 392.195 -6.40472 -1.41887 0
M  V30 3753 H 392.112 -7.55891 -0.128624 0
M  V30 3754 H 393.38 -7.68393 -1.31121 0
M  V30 3755 N 397.609 -0.515225 -1.4894 0
M  V30 3756 C 398.559 0.275113 -2.26334 0
M  V30 3757 C 399.543 0.923007 -1.31793 0
M  V30 3758 O 400.735 0.828254 -1.56426 0
M  V30 3759 C 397.864 1.33041 -3.16473 0
M  V30 3760 C 396.95 0.688051 -4.18481 0
M  V30 3761 N 397.341 -0.217638 -5.05332 0
M  V30 3762 C 395.639 0.94699 -4.3583 0
M  V30 3763 C 396.34 -0.58676 -5.78733 0
M  V30 3764 N 395.316 0.0486966 -5.43578 0
M  V30 3765 H 399.118 -0.421876 -2.90856 0
M  V30 3766 H 396.632 -0.332249 -1.58965 0
M  V30 3767 H 398.629 1.9102 -3.70563 0
M  V30 3768 H 397.289 2.02894 -2.53504 0
M  V30 3769 H 398.3 -0.589343 -5.14536 0
M  V30 3770 H 394.977 1.63719 -3.8406 0
M  V30 3771 H 396.367 -1.32855 -6.58634 0
M  V30 3772 N 399.087 1.5561 -0.249682 0
M  V30 3773 C 400.312 2.03865 0.381305 0
M  V30 3774 C 400.737 1.12769 1.50548 0
M  V30 3775 O 400.095 0.121189 1.80895 0
M  V30 3776 C 400.143 3.50101 0.863816 0
M  V30 3777 O 399.247 3.62132 1.97318 0
M  V30 3778 H 398.588 0.658827 0.0827194 0
M  V30 3779 H 401.118 2.01105 -0.376552 0
M  V30 3780 H 401.128 3.90975 1.1663 0
M  V30 3781 H 399.803 4.1588 0.0411816 0
M  V30 3782 H 398.38 3.33155 1.67517 0
M  V30 3783 N 400.565 -0.0233959 1.57583 0
M  V30 3784 C 401.842 -0.748794 1.807 0
M  V30 3785 C 402.222 -1.9327 0.849106 0
M  V30 3786 O 401.57 -2.28247 -0.107468 0
M  V30 3787 C 401.78 -1.17651 3.28571 0
M  V30 3788 C 403.128 -1.59008 3.93702 0
M  V30 3789 O 404.152 -1.27094 3.32755 0
M  V30 3790 O 403.011 -2.18264 5.01022 0
M  V30 3791 H 400.105 -0.362578 0.743281 0
M  V30 3792 H 402.651 0.000261958 1.697 0
M  V30 3793 H 401.423 -0.331603 3.89892 0
M  V30 3794 H 401.046 -1.98541 3.44481 0
M  V30 3795 N 402.043 -1.548 -0.295768 0
M  V30 3796 C 402.953 -1.89177 -1.38742 0
M  V30 3797 C 403.969 -0.786481 -1.55211 0
M  V30 3798 O 405.145 -1.08344 -1.69775 0
M  V30 3799 C 402.21 -2.13663 -2.73036 0
M  V30 3800 C 401.271 -3.37349 -2.65508 0
M  V30 3801 C 400.504 -3.60658 -3.93398 0
M  V30 3802 O 400.727 -2.86882 -4.93006 0
M  V30 3803 O 399.661 -4.54179 -3.94975 0
M  V30 3804 H 403.487 -2.82059 -1.12589 0
M  V30 3805 H 401.072 -1.41056 -0.492295 0
M  V30 3806 H 402.954 -2.3094 -3.52484 0
M  V30 3807 H 401.629 -1.23967 -2.99022 0
M  V30 3808 H 400.536 -3.25431 -1.84514 0
M  V30 3809 H 401.869 -4.27192 -2.44474 0
M  V30 3810 N 403.521 0.559213 -1.47345 0
M  V30 3811 C 404.751 1.33999 -1.57251 0
M  V30 3812 C 405.159 1.87905 -0.220978 0
M  V30 3813 O 404.502 1.65577 0.795617 0
M  V30 3814 C 404.564 2.54798 -2.53611 0
M  V30 3815 C 404.228 2.22192 -3.99349 0
M  V30 3816 C 405.225 1.79607 -4.87891 0
M  V30 3817 C 402.91 2.33613 -4.44669 0
M  V30 3818 C 404.904 1.48868 -6.19772 0
M  V30 3819 C 402.591 2.02487 -5.76578 0
M  V30 3820 C 403.589 1.60183 -6.63951 0
M  V30 3821 O 403.277 1.29451 -7.93409 0
M  V30 3822 H 403.009 0.414858 -0.533731 0
M  V30 3823 H 405.563 0.684465 -1.9366 0
M  V30 3824 H 403.793 3.23235 -2.12265 0
M  V30 3825 H 405.482 3.16873 -2.53666 0
M  V30 3826 H 406.248 1.70278 -4.54126 0
M  V30 3827 H 402.127 2.65501 -3.76869 0
M  V30 3828 H 405.671 1.15775 -6.87926 0
M  V30 3829 H 401.568 2.11448 -6.09885 0
M  V30 3830 H 402.336 1.43098 -8.05894 0
M  V30 3831 N 404.999 1.35443 0.805782 0
M  V30 3832 C 405.946 1.28431 1.91766 0
M  V30 3833 C 406.916 0.156102 1.65365 0
M  V30 3834 O 408.101 0.339936 1.87747 0
M  V30 3835 C 405.241 1.06301 3.2832 0
M  V30 3836 C 404.354 2.2805 3.66902 0
M  V30 3837 C 403.489 1.99064 4.92491 0
M  V30 3838 C 402.528 3.16863 5.23703 0
M  V30 3839 N 401.665 2.87647 6.40471 0
M  V30 3840 H 406.505 2.23511 1.97096 0
M  V30 3841 H 404.042 1.11105 0.964054 0
M  V30 3842 H 406 0.915012 4.07042 0
M  V30 3843 H 404.63 0.148822 3.22457 0
M  V30 3844 H 403.682 2.53711 2.83434 0
M  V30 3845 H 404.994 3.1601 3.85927 0
M  V30 3846 H 404.148 1.81099 5.7904 0
M  V30 3847 H 402.887 1.0839 4.75503 0
M  V30 3848 H 401.892 3.35404 4.35642 0
M  V30 3849 H 403.117 4.08339 5.4262 0
M  V30 3850 H 401.063 1.99568 6.24907 0
M  V30 3851 H 400.98 3.69141 6.59751 0
M  V30 3852 H 402.248 2.73226 7.30047 0
M  V30 3853 N 406.477 -1.02803 1.19454 0
M  V30 3854 C 407.726 -1.7562 0.991996 0
M  V30 3855 C 408.039 -1.89672 -0.477901 0
M  V30 3856 O 409.245 -2.59468 -0.799287 0
M  V30 3857 C 407.701 -3.15812 1.72601 0
M  V30 3858 C 407.309 -3.0981 3.23607 0
M  V30 3859 C 409.053 -3.92918 1.60674 0
M  V30 3860 C 406.96 -4.44939 3.89594 0
M  V30 3861 H 405.89 -0.658352 0.367543 0
M  V30 3862 H 408.541 -1.15044 1.42959 0
M  V30 3863 H 406.923 -3.7686 1.21624 0
M  V30 3864 H 408.097 -2.58138 3.81709 0
M  V30 3865 H 406.412 -2.46201 3.35819 0
M  V30 3866 H 409.009 -4.9287 2.07323 0
M  V30 3867 H 409.352 -4.12502 0.561025 0
M  V30 3868 H 409.885 -3.38472 2.09001 0
M  V30 3869 H 406.624 -4.30559 4.94267 0
M  V30 3870 H 406.144 -4.96664 3.36281 0
M  V30 3871 H 407.823 -5.1382 3.93189 0
M  V30 3872 N 407.956 -0.998596 -1.21925 0
M  V30 3873 C 409.372 -0.710303 -1.42923 0
M  V30 3874 C 409.572 0.716933 -1.88314 0
M  V30 3875 O 408.628 1.48712 -2.04062 0
M  V30 3876 C 409.941 -1.72072 -2.466 0
M  V30 3877 C 411.489 -1.73681 -2.60392 0
M  V30 3878 C 411.964 -2.73601 -3.67296 0
M  V30 3879 N 413.455 -2.7223 -3.7476 0
M  V30 3880 C 414.19 -3.46206 -4.57087 0
M  V30 3881 N 413.686 -4.29802 -5.43362 0
M  V30 3882 N 415.479 -3.34886 -4.51451 0
M  V30 3883 H 407.63 -1.92028 -0.9077 0
M  V30 3884 H 409.893 -0.828487 -0.460775 0
M  V30 3885 H 409.599 -2.74231 -2.20206 0
M  V30 3886 H 409.473 -1.51818 -3.45299 0
M  V30 3887 H 411.86 -0.722173 -2.86127 0
M  V30 3888 H 411.941 -1.98005 -1.61949 0
M  V30 3889 H 411.585 -3.75217 -3.42307 0
M  V30 3890 H 411.515 -2.46545 -4.65321 0
M  V30 3891 H 414.006 -2.11576 -3.1312 0
M  V30 3892 H 414.319 -4.83061 -6.03218 0
M  V30 3893 H 412.664 -4.33887 -5.42925 0
M  V30 3894 H 415.855 -2.69015 -3.83078 0
M  V30 3895 H 416.028 -3.92796 -5.15379 0
M  V30 3896 N 409.434 1.37368 -0.772513 0
M  V30 3897 C 410.85 1.53059 -0.452231 0
M  V30 3898 C 411.05 1.73065 1.03203 0
M  V30 3899 O 410.106 1.75245 1.81784 0
M  V30 3900 C 411.419 2.72659 -1.26797 0
M  V30 3901 C 412.967 2.86521 -1.25995 0
M  V30 3902 C 413.442 4.09105 -2.05905 0
M  V30 3903 N 414.933 4.16219 -2.03263 0
M  V30 3904 C 415.668 5.10107 -2.61875 0
M  V30 3905 N 415.164 6.09547 -3.29278 0
M  V30 3906 N 416.957 5.02596 -2.51701 0
M  V30 3907 H 409.108 1.22634 -1.7342 0
M  V30 3908 H 411.371 0.597206 -0.736239 0
M  V30 3909 H 411.077 2.64343 -2.31982 0
M  V30 3910 H 410.951 3.66363 -0.897672 0
M  V30 3911 H 413.338 2.94308 -0.216081 0
M  V30 3912 H 413.419 1.93774 -1.66989 0
M  V30 3913 H 413.063 4.0208 -3.10313 0
M  V30 3914 H 412.993 5.00968 -1.62292 0
M  V30 3915 H 415.484 3.45012 -1.54192 0
M  V30 3916 H 415.797 6.77718 -3.71374 0
M  V30 3917 H 414.142 6.09824 -3.33377 0
M  V30 3918 H 417.333 4.23855 -1.98657 0
M  V30 3919 H 417.506 5.75582 -2.97673 0
M  V30 3920 N 410.912 0.523116 1.48665 0
M  V30 3921 C 411.822 -0.247406 2.33292 0
M  V30 3922 C 412.838 -0.945769 1.46052 0
M  V30 3923 O 414.014 -0.922253 1.79043 0
M  V30 3924 C 411.079 -1.28487 3.22012 0
M  V30 3925 C 410.14 -0.597592 4.2512 0
M  V30 3926 C 409.373 -1.58563 5.09601 0
M  V30 3927 O 409.596 -2.81763 4.95949 0
M  V30 3928 O 408.53 -1.12879 5.91221 0
M  V30 3929 H 412.356 0.445869 3.00409 0
M  V30 3930 H 409.941 0.284128 1.46673 0
M  V30 3931 H 411.823 -1.88459 3.7691 0
M  V30 3932 H 410.498 -1.96068 2.57564 0
M  V30 3933 H 409.405 0.0424407 3.74076 0
M  V30 3934 H 410.738 0.0361517 4.92187 0
M  V30 3935 N 412.39 -1.55475 0.257931 0
M  V30 3936 C 413.806 -1.59307 -0.0966563 0
M  V30 3937 C 414.006 -1.27514 -1.5602 0
M  V30 3938 O 413.062 -1.02774 -2.30637 0
M  V30 3939 C 414.375 -2.99552 0.262481 0
M  V30 3940 C 415.923 -3.1231 0.207683 0
M  V30 3941 C 416.398 -4.54793 0.541012 0
M  V30 3942 N 417.889 -4.6058 0.491921 0
M  V30 3943 C 418.624 -5.68825 0.722857 0
M  V30 3944 N 418.12 -6.85287 1.0175 0
M  V30 3945 N 419.913 -5.58296 0.652815 0
M  V30 3946 H 412.064 -1.74409 1.21224 0
M  V30 3947 H 414.327 -0.812424 0.48854 0
M  V30 3948 H 414.033 -3.27593 1.27967 0
M  V30 3949 H 413.907 -3.75019 -0.40508 0
M  V30 3950 H 416.294 -2.84044 -0.800195 0
M  V30 3951 H 416.375 -2.39095 0.909255 0
M  V30 3952 H 416.019 -4.83783 1.5465 0
M  V30 3953 H 415.949 -5.26285 -0.18216 0
M  V30 3954 H 418.44 -3.7691 0.273366 0
M  V30 3955 H 418.753 -7.63725 1.18084 0
M  V30 3956 H 417.098 -6.86945 1.05509 0
M  V30 3957 H 420.289 -4.66189 0.422592 0
M  V30 3958 H 420.462 -6.42582 0.836182 0
M  V30 3959 N 413.868 0.0150385 -1.57593 0
M  V30 3960 C 414.816 1.02958 -2.08572 0
M  V30 3961 C 415.81 1.36554 -1.00246 0
M  V30 3962 O 417.016 1.35295 -1.18724 0
M  V30 3963 H 413.391 0.349619 -0.665786 0
M  V30 3964 H 415.362 0.573932 -2.92829 0
M  V30 3965 C 414.111 2.31752 -2.59203 0
M  V30 3966 H 413.434 2.06765 -3.42182 0
M  V30 3967 H 414.874 3.01053 -2.98568 0
M  V30 3968 C 413.333 3.01692 -1.49945 0
M  V30 3969 O 413.863 3.92083 -0.873704 0
M  V30 3970 N 412.069 2.6326 -1.23056 0
M  V30 3971 H 411.616 1.89838 -1.74125 0
M  V30 3972 H 411.574 3.10372 -0.501685 0
M  V30 3973 N 415.346 1.54954 0.287554 0
M  V30 3974 C 416.294 1.87606 1.37502 0
M  V30 3975 C 417.288 0.751001 1.51843 0
M  V30 3976 O 418.494 0.935169 1.53801 0
M  V30 3977 H 414.869 0.595231 0.459569 0
M  V30 3978 H 416.84 2.78477 1.07206 0
M  V30 3979 C 415.589 2.15183 2.73115 0
M  V30 3980 H 414.912 3.01234 2.62866 0
M  V30 3981 H 416.352 2.4196 3.48183 0
M  V30 3982 C 414.811 0.954686 3.2309 0
M  V30 3983 O 415.341 0.181949 4.01288 0
M  V30 3984 N 413.547 0.756368 2.80584 0
M  V30 3985 H 413.094 1.38643 2.17108 0
M  V30 3986 H 413.052 -0.0430391 3.14371 0
M  V30 3987 N 416.824 -0.551391 1.4764 0
M  V30 3988 C 418.073 -1.30467 1.53822 0
M  V30 3989 C 418.386 -1.94495 0.207661 0
M  V30 3990 O 419.592 -2.71099 0.147533 0
M  V30 3991 C 418.048 -2.36616 2.71184 0
M  V30 3992 C 417.656 -1.78754 4.10793 0
M  V30 3993 C 419.4 -3.13088 2.86663 0
M  V30 3994 C 417.307 -2.82717 5.19447 0
M  V30 3995 H 416.237 -0.490584 0.572576 0
M  V30 3996 H 418.888 -0.58494 1.73927 0
M  V30 3997 H 417.27 -3.11529 2.4447 0
M  V30 3998 H 418.444 -1.10173 4.47435 0
M  V30 3999 H 416.759 -1.14846 4.00249 0
M  V30 4000 H 419.356 -3.90736 3.65007 0
M  V30 4001 H 419.699 -3.67635 1.95321 0
M  V30 4002 H 420.232 -2.45288 3.13175 0
M  V30 4003 H 416.971 -2.33018 6.12685 0
M  V30 4004 H 416.491 -3.4969 4.87316 0
M  V30 4005 H 418.17 -3.46102 5.46646 0
M  V30 4006 N 418.302 -1.35869 -0.798587 0
M  V30 4007 C 419.265 -1.29307 -1.89242 0
M  V30 4008 C 420.265 -0.202747 -1.59517 0
M  V30 4009 O 421.455 -0.456957 -1.681 0
M  V30 4010 C 418.587 -1.00229 -3.25833 0
M  V30 4011 H 419.78 -2.26576 -1.96478 0
M  V30 4012 H 417.333 -1.20509 -0.995358 0
M  V30 4013 H 418.068 -0.033801 -3.24282 0
M  V30 4014 H 417.853 -1.79121 -3.48795 0
M  V30 4015 H 419.343 -0.98219 -4.05885 0
M  V30 4016 N 419.78 1.02168 -1.19998 0
M  V30 4017 C 421.026 1.75945 -1.00852 0
M  V30 4018 C 421.359 1.88702 0.458828 0
M  V30 4019 O 420.634 1.40911 1.34069 0
M  V30 4020 C 420.917 3.18154 -1.68671 0
M  V30 4021 C 420.77 3.13224 -3.22817 0
M  V30 4022 C 422.089 4.16711 -1.41561 0
M  V30 4023 H 419.208 0.638673 -0.367785 0
M  V30 4024 H 421.85 1.19222 -1.4794 0
M  V30 4025 H 420 3.66586 -1.28636 0
M  V30 4026 H 421.672 2.72635 -3.72112 0
M  V30 4027 H 419.915 2.50751 -3.53986 0
M  V30 4028 H 420.586 4.13728 -3.65422 0
M  V30 4029 H 423.062 3.76913 -1.76284 0
M  V30 4030 H 421.938 5.14391 -1.91553 0
M  V30 4031 H 422.199 4.40774 -0.342193 0
M  V30 4032 N 421.258 1.00505 1.21394 0
M  V30 4033 C 422.674 0.717873 1.42544 0
M  V30 4034 C 422.874 -0.706936 1.88692 0
M  V30 4035 O 421.93 -1.47627 2.04847 0
M  V30 4036 C 423.243 1.73377 2.45684 0
M  V30 4037 C 424.791 1.75059 2.59467 0
M  V30 4038 C 425.266 2.75545 3.6584 0
M  V30 4039 N 426.757 2.74213 3.73311 0
M  V30 4040 C 427.492 3.48626 4.55245 0
M  V30 4041 N 426.988 4.32678 5.41075 0
M  V30 4042 N 428.781 3.37276 4.49668 0
M  V30 4043 H 420.932 1.92506 0.897503 0
M  V30 4044 H 423.195 0.830919 0.456375 0
M  V30 4045 H 422.901 2.75395 2.18748 0
M  V30 4046 H 422.775 1.53647 3.44489 0
M  V30 4047 H 425.162 0.737337 2.8574 0
M  V30 4048 H 425.243 1.98861 1.60897 0
M  V30 4049 H 424.887 3.77028 3.40313 0
M  V30 4050 H 424.817 2.49009 4.64007 0
M  V30 4051 H 427.308 2.13234 3.11993 0
M  V30 4052 H 427.621 4.86253 6.00648 0
M  V30 4053 H 425.966 4.3676 5.40616 0
M  V30 4054 H 429.157 2.71043 3.81646 0
M  V30 4055 H 429.33 3.95524 5.13288 0
M  V30 4056 N 422.737 -1.36956 0.779787 0
M  V30 4057 C 423.684 -2.30175 0.169697 0
M  V30 4058 C 424.654 -1.51501 -0.68094 0
M  V30 4059 O 425.839 -1.80042 -0.631629 0
M  V30 4060 C 422.979 -3.37985 -0.697131 0
M  V30 4061 C 422.092 -4.31661 0.170992 0
M  V30 4062 C 421.227 -5.2655 -0.701298 0
M  V30 4063 C 420.266 -6.11867 0.168869 0
M  V30 4064 N 419.403 -6.98973 -0.661855 0
M  V30 4065 H 424.243 -2.81767 0.970135 0
M  V30 4066 H 421.78 -1.38699 0.489994 0
M  V30 4067 H 423.738 -3.99128 -1.2146 0
M  V30 4068 H 422.368 -2.87739 -1.46309 0
M  V30 4069 H 421.42 -3.71756 0.80634 0
M  V30 4070 H 422.732 -4.91644 0.841875 0
M  V30 4071 H 421.886 -5.92937 -1.28494 0
M  V30 4072 H 420.625 -4.66998 -1.40584 0
M  V30 4073 H 419.63 -5.44452 0.764986 0
M  V30 4074 H 420.855 -6.73493 0.870863 0
M  V30 4075 H 418.801 -6.41941 -1.35086 0
M  V30 4076 H 418.718 -7.55984 -0.0484447 0
M  V30 4077 H 419.986 -7.6974 -1.22963 0
M  V30 4078 N 424.215 -0.530993 -1.48385 0
M  V30 4079 C 425.44 0.000729535 -2.074 0
M  V30 4080 C 425.865 1.27298 -1.3848 0
M  V30 4081 O 425.223 1.75599 -0.451081 0
M  V30 4082 C 425.271 0.206697 -3.60007 0
M  V30 4083 O 424.375 1.27514 -3.92191 0
M  V30 4084 H 423.716 -0.039583 -0.662819 0
M  V30 4085 H 426.246 -0.739194 -1.9078 0
M  V30 4086 H 426.256 0.42904 -4.05738 0
M  V30 4087 H 424.931 -0.722675 -4.09573 0
M  V30 4088 H 423.508 1.03537 -3.58238 0
M  V30 4089 N 425.693 1.55336 -0.266172 0
M  V30 4090 C 427.109 1.59356 0.0882065 0
M  V30 4091 C 427.309 1.2834 1.55342 0
M  V30 4092 O 426.365 1.03996 2.30089 0
M  V30 4093 C 427.678 2.99409 -0.278364 0
M  V30 4094 C 429.226 3.12196 -0.224243 0
M  V30 4095 C 429.701 4.545 -0.565123 0
M  V30 4096 N 431.192 4.60313 -0.51634 0
M  V30 4097 C 431.927 5.68434 -0.753013 0
M  V30 4098 N 431.423 6.84738 -1.05383 0
M  V30 4099 N 433.216 5.57942 -0.682414 0
M  V30 4100 H 425.367 1.73764 -1.22147 0
M  V30 4101 H 427.63 0.809822 -0.492841 0
M  V30 4102 H 427.336 3.2691 -1.29703 0
M  V30 4103 H 427.21 3.75228 0.385186 0
M  V30 4104 H 429.597 2.84464 0.78512 0
M  V30 4105 H 429.678 2.38609 -0.921922 0
M  V30 4106 H 429.322 4.82956 -1.57213 0
M  V30 4107 H 429.252 5.26374 0.154248 0
M  V30 4108 H 431.743 3.7676 -0.29335 0
M  V30 4109 H 432.056 7.63088 -1.22133 0
M  V30 4110 H 430.401 6.86375 -1.09151 0
M  V30 4111 H 433.592 4.65958 -0.44731 0
M  V30 4112 H 433.765 6.4213 -0.870248 0
M  V30 4113 N 427.171 -0.0066808 1.57599 0
M  V30 4114 C 428.448 -0.729586 1.81484 0
M  V30 4115 C 428.828 -1.92359 0.869558 0
M  V30 4116 O 428.176 -2.28348 -0.0832533 0
M  V30 4117 C 428.386 -1.1416 3.29801 0
M  V30 4118 C 429.734 -1.54823 3.95367 0
M  V30 4119 O 430.758 -1.23558 3.34084 0
M  V30 4120 O 429.617 -2.12937 5.03309 0
M  V30 4121 H 426.711 -0.354674 0.747085 0
M  V30 4122 H 429.257 0.0182609 1.6969 0
M  V30 4123 H 428.029 -0.290231 3.90222 0
M  V30 4124 H 427.652 -1.94876 3.46568 0
M  V30 4125 N 428.649 -1.55105 -0.279332 0
M  V30 4126 C 429.596 -1.8755 -1.34513 0
M  V30 4127 C 430.566 -0.726384 -1.49375 0
M  V30 4128 O 431.751 -0.977063 -1.63884 0
M  V30 4129 C 428.891 -2.14738 -2.70151 0
M  V30 4130 C 428.004 -3.42285 -2.63562 0
M  V30 4131 C 427.139 -3.59206 -3.91337 0
M  V30 4132 C 426.178 -4.80467 -3.79233 0
M  V30 4133 N 425.315 -4.94079 -4.98829 0
M  V30 4134 H 430.155 -2.78456 -1.06143 0
M  V30 4135 H 427.692 -1.37867 -0.512936 0
M  V30 4136 H 429.65 -2.28501 -3.49061 0
M  V30 4137 H 428.28 -1.27075 -2.96735 0
M  V30 4138 H 427.332 -3.37029 -1.76397 0
M  V30 4139 H 428.644 -4.31328 -2.50515 0
M  V30 4140 H 427.798 -3.72751 -4.78687 0
M  V30 4141 H 426.537 -2.68337 -4.07243 0
M  V30 4142 H 425.542 -4.66932 -2.90266 0
M  V30 4143 H 426.767 -5.72765 -3.64852 0
M  V30 4144 H 424.713 -4.06139 -5.15158 0
M  V30 4145 H 424.63 -5.77156 -4.8829 0
M  V30 4146 H 425.898 -5.12003 -5.8777 0
M  V30 4147 N 430.127 0.543554 -1.4793 0
M  V30 4148 C 431.09 1.63156 -1.60975 0
M  V30 4149 C 432.09 1.53346 -0.483899 0
M  V30 4150 O 433.28 1.5726 -0.749339 0
M  V30 4151 C 430.412 3.02743 -1.56716 0
M  V30 4152 H 431.605 1.52934 -2.57975 0
M  V30 4153 H 429.158 0.764557 -1.36324 0
M  V30 4154 H 429.893 3.18484 -0.611418 0
M  V30 4155 H 429.678 3.11272 -2.38438 0
M  V30 4156 H 431.168 3.81871 -1.6901 0
M  V30 4157 N 431.605 1.3629 0.791371 0
M  V30 4158 C 432.552 1.30458 1.90393 0
M  V30 4159 C 433.522 0.173632 1.6519 0
M  V30 4160 O 434.707 0.35983 1.87376 0
M  V30 4161 C 431.847 1.09777 3.27174 0
M  V30 4162 C 430.96 2.31929 3.64462 0
M  V30 4163 C 430.095 2.04276 4.90352 0
M  V30 4164 C 429.134 3.224 5.20312 0
M  V30 4165 N 428.271 2.94424 6.37385 0
M  V30 4166 H 433.111 2.25589 1.94714 0
M  V30 4167 H 430.648 1.12122 0.952216 0
M  V30 4168 H 432.606 0.958133 4.06049 0
M  V30 4169 H 431.236 0.183014 3.22281 0
M  V30 4170 H 430.288 2.56703 2.80727 0
M  V30 4171 H 431.6 3.20085 3.82553 0
M  V30 4172 H 430.754 1.87231 5.77087 0
M  V30 4173 H 429.493 1.13428 4.74326 0
M  V30 4174 H 428.498 3.40005 4.32061 0
M  V30 4175 H 429.723 4.14071 5.38258 0
M  V30 4176 H 427.669 2.06185 6.22755 0
M  V30 4177 H 427.586 3.76118 6.55798 0
M  V30 4178 H 428.854 2.80953 7.27108 0
M  V30 4179 N 433.083 -1.0153 1.20538 0
M  V30 4180 C 434.016 -2.09759 0.898695 0
M  V30 4181 C 434.994 -1.61909 -0.149733 0
M  V30 4182 O 436.178 -1.88486 -0.0230293 0
M  V30 4183 C 433.305 -3.36913 0.347512 0
M  V30 4184 C 432.351 -4.03655 1.37713 0
M  V30 4185 S 433.184 -4.47402 2.94265 0
M  V30 4186 C 434.34 -5.77756 2.40726 0
M  V30 4187 H 434.573 -2.3545 1.81523 0
M  V30 4188 H 432.106 -1.14665 1.03399 0
M  V30 4189 H 434.064 -4.10484 0.0360518 0
M  V30 4190 H 432.725 -3.09291 -0.547546 0
M  V30 4191 H 431.918 -4.9514 0.940872 0
M  V30 4192 H 431.52 -3.36313 1.63614 0
M  V30 4193 H 433.812 -6.52994 1.80569 0
M  V30 4194 H 434.755 -6.2618 3.30612 0
M  V30 4195 H 435.163 -5.34081 1.82806 0
M  V30 4196 N 434.561 -1.01147 -1.20859 0
M  V30 4197 C 435.977 -0.725422 -1.42161 0
M  V30 4198 C 436.177 0.696919 -1.89064 0
M  V30 4199 O 435.233 1.46539 -2.05627 0
M  V30 4200 C 436.546 -1.74678 -2.44761 0
M  V30 4201 C 438.094 -1.76433 -2.58535 0
M  V30 4202 C 438.569 -2.77481 -3.64374 0
M  V30 4203 N 440.06 -2.76189 -3.71852 0
M  V30 4204 C 440.795 -3.51035 -4.53389 0
M  V30 4205 N 440.291 -4.35541 -5.38773 0
M  V30 4206 N 442.084 -3.39655 -4.47873 0
M  V30 4207 H 434.235 -1.92979 -0.887282 0
M  V30 4208 H 436.498 -0.833327 -0.451962 0
M  V30 4209 H 436.204 -2.76551 -2.17285 0
M  V30 4210 H 436.078 -1.55472 -3.43669 0
M  V30 4211 H 438.465 -0.75248 -2.85345 0
M  V30 4212 H 438.546 -1.99712 -1.5984 0
M  V30 4213 H 438.19 -3.78827 -3.38308 0
M  V30 4214 H 438.12 -2.51466 -4.6268 0
M  V30 4215 H 440.611 -2.14885 -3.10858 0
M  V30 4216 H 440.924 -4.89432 -5.98061 0
M  V30 4217 H 439.269 -4.39621 -5.38292 0
M  V30 4218 H 442.46 -2.73063 -3.80203 0
M  V30 4219 H 442.633 -3.9824 -5.11184 0
M  V30 4220 N 436.039 1.36541 -0.78704 0
M  V30 4221 C 436.987 2.31965 -0.171724 0
M  V30 4222 C 437.981 1.55689 0.667631 0
M  V30 4223 O 439.187 1.70969 0.562981 0
M  V30 4224 H 435.562 0.751101 -0.0367545 0
M  V30 4225 H 437.533 2.81428 -0.992017 0
M  V30 4226 C 436.282 3.40968 0.680904 0
M  V30 4227 H 435.605 3.99775 0.0443961 0
M  V30 4228 H 437.045 4.10063 1.07815 0
M  V30 4229 C 435.504 2.82338 1.83813 0
M  V30 4230 O 436.034 2.74311 2.93456 0
M  V30 4231 N 434.24 2.39661 1.6435 0
M  V30 4232 H 433.787 2.46389 0.751668 0
M  V30 4233 H 433.745 2.00779 2.4194 0
M  V30 4234 N 437.518 0.538854 1.48102 0
M  V30 4235 C 438.448 -0.207654 2.32575 0
M  V30 4236 C 439.429 -0.926559 1.4265 0
M  V30 4237 O 440.614 -0.91061 1.71527 0
M  V30 4238 C 437.744 -1.24957 3.24042 0
M  V30 4239 C 436.698 -0.648263 4.23062 0
M  V30 4240 C 436.024 -1.79348 5.03725 0
M  V30 4241 C 437.324 0.385897 5.20872 0
M  V30 4242 H 439.018 0.497534 2.95237 0
M  V30 4243 H 436.564 0.240715 1.41974 0
M  V30 4244 H 438.517 -1.77983 3.81969 0
M  V30 4245 H 437.241 -1.98446 2.59397 0
M  V30 4246 H 435.9 -0.139452 3.66335 0
M  V30 4247 H 435.548 -2.51696 4.35498 0
M  V30 4248 H 435.248 -1.39702 5.70751 0
M  V30 4249 H 436.772 -2.32735 5.64506 0
M  V30 4250 H 438.186 -0.057607 5.73271 0
M  V30 4251 H 436.583 0.700227 5.96001 0
M  V30 4252 H 437.653 1.28848 4.67468 0
M  V30 4253 N 438.996 -1.55193 0.274407 0
M  V30 4254 C 439.906 -2.26164 -0.623473 0
M  V30 4255 C 440.922 -1.28729 -1.17068 0
M  V30 4256 O 442.098 -1.61663 -1.20112 0
M  V30 4257 C 439.163 -2.96833 -1.7914 0
M  V30 4258 C 438.224 -4.09745 -1.28093 0
M  V30 4259 C 437.457 -4.77034 -2.3932 0
M  V30 4260 O 437.68 -4.4353 -3.5866 0
M  V30 4261 O 436.614 -5.64996 -2.07516 0
M  V30 4262 H 440.44 -3.03661 -0.0485661 0
M  V30 4263 H 438.025 -1.49341 0.0418382 0
M  V30 4264 H 439.907 -3.41248 -2.4724 0
M  V30 4265 H 438.582 -2.22253 -2.35341 0
M  V30 4266 H 437.489 -3.69787 -0.566416 0
M  V30 4267 H 438.822 -4.86224 -0.764683 0
M  V30 4268 N 440.474 -0.00167713 -1.576 0
M  V30 4269 C 441.702 0.693759 -1.94922 0
M  V30 4270 C 442.117 1.67215 -0.876626 0
M  V30 4271 O 441.474 1.81929 0.144279 0
M  V30 4272 C 441.525 1.42416 -3.32265 0
M  V30 4273 O 441.246 0.485014 -4.35407 0
M  V30 4274 C 442.747 2.21395 -3.84056 0
M  V30 4275 H 439.967 0.193118 -0.642609 0
M  V30 4276 H 442.511 -0.0532952 -2.04431 0
M  V30 4277 H 440.666 2.12284 -3.24059 0
M  V30 4278 H 441.08 1.00053 -5.14868 0
M  V30 4279 H 442.554 2.67996 -4.82578 0
M  V30 4280 H 443.031 3.04142 -3.16851 0
M  V30 4281 H 443.637 1.56542 -3.95443 0
M  V30 4282 N 441.952 1.55251 0.271103 0
M  V30 4283 C 442.884 1.84675 1.35749 0
M  V30 4284 C 443.897 0.731366 1.45447 0
M  V30 4285 O 445.086 1.00924 1.4723 0
M  V30 4286 C 442.186 1.99638 2.73857 0
M  V30 4287 C 441.359 3.30312 2.86727 0
M  V30 4288 C 440.418 3.35318 4.05522 0
M  V30 4289 O 439.444 4.08682 3.96191 0
M  V30 4290 N 440.646 2.62857 5.17577 0
M  V30 4291 H 443.411 2.78445 1.10853 0
M  V30 4292 H 440.972 1.55191 0.461218 0
M  V30 4293 H 442.964 2.00355 3.51625 0
M  V30 4294 H 441.534 1.12725 2.91568 0
M  V30 4295 H 440.754 3.42118 1.95829 0
M  V30 4296 H 442.042 4.16488 2.92258 0
M  V30 4297 H 441.44 2.02939 5.28046 0
M  V30 4298 H 439.997 2.69295 5.93568 0
M  V30 4299 N 443.43 -0.535701 1.48216 0
M  V30 4300 C 444.38 -1.63688 1.58714 0
M  V30 4301 C 445.364 -1.54635 0.444615 0
M  V30 4302 O 446.556 -1.62753 0.695742 0
M  V30 4303 C 443.685 -3.02423 1.62466 0
M  V30 4304 C 442.771 -3.16601 2.82178 0
M  V30 4305 N 443.162 -3.00771 4.06658 0
M  V30 4306 C 441.46 -3.47645 2.79391 0
M  V30 4307 C 442.161 -3.18213 4.86945 0
M  V30 4308 N 441.137 -3.45528 4.19656 0
M  V30 4309 H 444.939 -1.5005 2.5271 0
M  V30 4310 H 442.453 -0.741018 1.44508 0
M  V30 4311 H 444.45 -3.81517 1.6808 0
M  V30 4312 H 443.11 -3.17157 0.695826 0
M  V30 4313 H 444.121 -2.77652 4.37184 0
M  V30 4314 H 440.798 -3.68771 1.95739 0
M  V30 4315 H 442.188 -3.1076 5.95716 0
M  V30 4316 N 444.908 -1.36708 -0.784132 0
M  V30 4317 C 445.855 -1.31466 -1.89698 0
M  V30 4318 C 446.825 -0.18239 -1.65096 0
M  V30 4319 O 448.01 -0.369762 -1.87183 0
M  V30 4320 C 445.15 -1.1151 -3.26588 0
M  V30 4321 C 444.263 -2.33859 -3.63227 0
M  V30 4322 C 443.398 -2.06873 -4.89262 0
M  V30 4323 C 442.437 -3.25154 -5.18595 0
M  V30 4324 N 441.574 -2.978 -6.35814 0
M  V30 4325 H 446.414 -2.26619 -1.93515 0
M  V30 4326 H 443.951 -1.12625 -0.946256 0
M  V30 4327 H 445.909 -0.979653 -4.05535 0
M  V30 4328 H 444.539 -0.200103 -3.22179 0
M  V30 4329 H 443.591 -2.58188 -2.79362 0
M  V30 4330 H 444.903 -3.22109 -3.8085 0
M  V30 4331 H 444.057 -1.90289 -5.76086 0
M  V30 4332 H 442.796 -1.15942 -4.73718 0
M  V30 4333 H 441.801 -3.42292 -4.30251 0
M  V30 4334 H 443.026 -4.1692 -5.36055 0
M  V30 4335 H 440.972 -2.09485 -6.21653 0
M  V30 4336 H 440.889 -3.7959 -6.53794 0
M  V30 4337 H 442.157 -2.84805 -7.25607 0
M  V30 4338 N 446.386 1.0089 -1.21074 0
M  V30 4339 C 447.632 1.74866 -1.02712 0
M  V30 4340 C 447.965 1.89178 0.438787 0
M  V30 4341 O 447.24 1.42325 1.32567 0
M  V30 4342 C 447.523 3.16347 -1.72036 0
M  V30 4343 C 447.376 3.09782 -3.26121 0
M  V30 4344 C 448.695 4.15187 -1.45973 0
M  V30 4345 H 445.814 0.634736 -0.374539 0
M  V30 4346 H 448.456 1.17646 -1.49196 0
M  V30 4347 H 446.606 3.65201 -1.32517 0
M  V30 4348 H 448.278 2.68673 -3.74983 0
M  V30 4349 H 446.521 2.46982 -3.56626 0
M  V30 4350 H 447.192 4.09829 -3.6979 0
M  V30 4351 H 449.668 3.75022 -1.80272 0
M  V30 4352 H 448.544 5.12331 -1.96999 0
M  V30 4353 H 448.805 4.40386 -0.388924 0
M  V30 4354 N 447.864 1.01787 1.20321 0
M  V30 4355 C 448.794 0.609625 2.25401 0
M  V30 4356 C 449.775 -0.375951 1.65893 0
M  V30 4357 O 450.96 -0.261101 1.92437 0
M  V30 4358 C 448.09 -0.0515995 3.47262 0
M  V30 4359 C 447.044 0.855095 4.19371 0
M  V30 4360 C 446.37 0.0595757 5.34667 0
M  V30 4361 C 447.67 2.16374 4.75373 0
M  V30 4362 H 449.364 1.48803 2.59804 0
M  V30 4363 H 446.91 0.716934 1.24884 0
M  V30 4364 H 448.863 -0.348764 4.19954 0
M  V30 4365 H 447.587 -0.964726 3.12027 0
M  V30 4366 H 446.246 1.13628 3.48546 0
M  V30 4367 H 445.894 -0.85524 4.95676 0
M  V30 4368 H 445.594 0.663406 5.83843 0
M  V30 4369 H 447.118 -0.231105 6.10162 0
M  V30 4370 H 448.532 1.92885 5.39878 0
M  V30 4371 H 446.929 2.71853 5.34991 0
M  V30 4372 H 447.999 2.82589 3.94045 0
M  V30 4373 N 449.342 -1.36122 0.79427 0
M  V30 4374 C 450.252 -2.33769 0.197296 0
M  V30 4375 C 451.268 -1.61276 -0.653153 0
M  V30 4376 O 452.444 -1.9323 -0.5678 0
M  V30 4377 C 449.509 -3.40474 -0.654098 0
M  V30 4378 C 448.57 -4.28759 0.215411 0
M  V30 4379 C 447.803 -5.30368 -0.595443 0
M  V30 4380 O 448.026 -5.40211 -1.83107 0
M  V30 4381 O 446.96 -6.019 0.00721351 0
M  V30 4382 H 450.786 -2.86597 1.00478 0
M  V30 4383 H 448.371 -1.38676 0.555818 0
M  V30 4384 H 450.253 -4.05703 -1.13944 0
M  V30 4385 H 448.928 -2.89937 -1.43938 0
M  V30 4386 H 447.835 -3.66554 0.747615 0
M  V30 4387 H 449.168 -4.82661 0.964332 0
M  V30 4388 N 450.82 -0.546701 -1.47814 0
M  V30 4389 C 451.75 0.195317 -2.32682 0
M  V30 4390 C 452.731 0.918981 -1.43139 0
M  V30 4391 O 453.916 0.901501 -1.72008 0
M  V30 4392 C 451.046 1.23237 -3.247 0
M  V30 4393 C 450 0.625818 -4.234 0
M  V30 4394 C 449.326 1.76674 -5.04669 0
M  V30 4395 C 450.626 -0.413515 -5.2066 0
M  V30 4396 H 452.32 -0.513184 -2.94969 0
M  V30 4397 H 449.866 -0.248241 -1.41844 0
M  V30 4398 H 451.819 1.75955 -3.82907 0
M  V30 4399 H 450.543 1.97067 -2.60446 0
M  V30 4400 H 449.202 0.120023 -3.66403 0
M  V30 4401 H 448.85 2.49383 -4.36826 0
M  V30 4402 H 448.55 1.36673 -5.71484 0
M  V30 4403 H 450.074 2.29738 -5.65732 0
M  V30 4404 H 451.488 0.0272042 -5.73294 0
M  V30 4405 H 449.885 -0.731825 -5.95621 0
M  V30 4406 H 450.955 -1.31325 -4.66778 0
M  V30 4407 N 452.299 1.55045 -0.282633 0
M  V30 4408 C 453.527 2.04168 0.33512 0
M  V30 4409 C 453.942 1.16071 1.48906 0
M  V30 4410 O 453.299 0.182391 1.81586 0
M  V30 4411 C 453.35 3.52332 0.808957 0
M  V30 4412 O 453.071 4.37078 -0.299038 0
M  V30 4413 C 454.572 4.17375 1.49375 0
M  V30 4414 H 451.792 0.666744 0.0754543 0
M  V30 4415 H 454.336 2.00205 -0.416918 0
M  V30 4416 H 452.491 3.56715 1.51106 0
M  V30 4417 H 452.905 5.24458 0.0665514 0
M  V30 4418 H 454.379 5.22627 1.77664 0
M  V30 4419 H 454.856 3.65999 2.42778 0
M  V30 4420 H 455.462 4.17016 0.835305 0
M  V30 4421 N 453.777 0.010035 1.57597 0
M  V30 4422 C 454.74 -0.963029 2.07986 0
M  V30 4423 C 455.74 -1.26619 0.991173 0
M  V30 4424 O 456.93 -1.2097 1.25347 0
M  V30 4425 C 454.062 -2.2851 2.52974 0
M  V30 4426 H 455.255 -0.526971 2.95234 0
M  V30 4427 H 452.808 -0.237639 1.54483 0
M  V30 4428 H 453.543 -2.76784 1.69 0
M  V30 4429 H 453.328 -2.07824 3.32493 0
M  V30 4430 H 454.818 -2.98294 2.9225 0
M  V30 4431 N 455.255 -1.55392 -0.262866 0
M  V30 4432 C 456.165 -1.92077 -1.34698 0
M  V30 4433 C 457.181 -0.819227 -1.53508 0
M  V30 4434 O 458.357 -1.11921 -1.67439 0
M  V30 4435 C 455.422 -2.19407 -2.68443 0
M  V30 4436 C 454.483 -3.42905 -2.58292 0
M  V30 4437 C 453.716 -3.68921 -3.85659 0
M  V30 4438 O 453.939 -2.97275 -4.8681 0
M  V30 4439 O 452.873 -4.62455 -3.85252 0
M  V30 4440 H 456.699 -2.84384 -1.06581 0
M  V30 4441 H 454.284 -1.42069 -0.462264 0
M  V30 4442 H 456.166 -2.38365 -3.47506 0
M  V30 4443 H 454.841 -1.30282 -2.96325 0
M  V30 4444 H 453.748 -3.29272 -1.7757 0
M  V30 4445 H 455.081 -4.32282 -2.35358 0
M  V30 4446 N 456.733 0.527833 -1.48498 0
M  V30 4447 C 457.681 1.65313 -1.63628 0
M  V30 4448 C 458.675 1.6177 -0.502676 0
M  V30 4449 O 459.881 1.66601 -0.681469 0
M  V30 4450 H 456.256 0.547518 -0.515488 0
M  V30 4451 H 458.227 1.49696 -2.58135 0
M  V30 4452 C 456.976 3.03576 -1.6952 0
M  V30 4453 H 456.299 3.06997 -2.56111 0
M  V30 4454 H 457.739 3.81923 -1.84149 0
M  V30 4455 C 456.198 3.34089 -0.43432 0
M  V30 4456 O 456.728 3.99151 0.451852 0
M  V30 4457 N 454.934 2.88991 -0.305368 0
M  V30 4458 H 454.481 2.36222 -1.02747 0
M  V30 4459 H 454.439 3.09776 0.537249 0
M  V30 4460 N 458.211 1.37122 0.776871 0
M  V30 4461 C 459.121 1.34651 1.9211 0
M  V30 4462 C 460.137 0.246824 1.7224 0
M  V30 4463 O 461.313 0.48134 1.95563 0
M  V30 4464 C 458.378 1.14748 3.2716 0
M  V30 4465 C 457.439 2.34308 3.5972 0
M  V30 4466 C 456.672 2.15345 4.88326 0
M  V30 4467 O 456.895 1.13507 5.58992 0
M  V30 4468 O 455.829 3.03414 5.1983 0
M  V30 4469 H 459.655 2.31013 1.97146 0
M  V30 4470 H 457.24 1.17799 0.918901 0
M  V30 4471 H 459.122 1.05616 4.0795 0
M  V30 4472 H 457.797 0.214562 3.22988 0
M  V30 4473 H 456.704 2.49011 2.79185 0
M  V30 4474 H 458.037 3.26149 3.68629 0
M  V30 4475 N 459.689 -1.00246 1.21608 0
M  V30 4476 C 461.105 -1.26435 0.973975 0
M  V30 4477 C 461.305 -1.98642 -0.338143 0
M  V30 4478 O 460.361 -2.29026 -1.06317 0
M  V30 4479 C 461.674 -2.08551 2.16626 0
M  V30 4480 C 463.222 -2.21769 2.20879 0
M  V30 4481 C 463.697 -3.07267 3.39633 0
M  V30 4482 N 465.188 -3.14855 3.39736 0
M  V30 4483 C 465.923 -3.81274 4.28273 0
M  V30 4484 N 465.419 -4.497 5.27012 0
M  V30 4485 N 467.212 -3.7794 4.16074 0
M  V30 4486 H 459.363 -0.518089 2.05984 0
M  V30 4487 H 461.626 -0.291368 0.902113 0
M  V30 4488 H 461.332 -1.62847 3.11727 0
M  V30 4489 H 461.206 -3.09303 2.15897 0
M  V30 4490 H 463.593 -2.66691 1.26332 0
M  V30 4491 H 463.674 -1.20478 2.25652 0
M  V30 4492 H 463.318 -2.63047 4.34475 0
M  V30 4493 H 463.248 -4.08678 3.321 0
M  V30 4494 H 465.739 -2.66147 2.6828 0
M  V30 4495 H 466.052 -4.98092 5.90867 0
M  V30 4496 H 464.397 -4.48479 5.30935 0
M  V30 4497 H 467.588 -3.23638 3.38195 0
M  V30 4498 H 467.761 -4.29424 4.85282 0
M  V30 4499 N 461.167 -1.02423 -1.1978 0
M  V30 4500 C 462.097 -0.62157 -2.25075 0
M  V30 4501 C 463.078 0.367148 -1.6609 0
M  V30 4502 O 464.263 0.250892 -1.92573 0
M  V30 4503 C 461.393 0.0331826 -3.47284 0
M  V30 4504 C 460.347 -0.877323 -4.18912 0
M  V30 4505 C 459.673 -0.0879296 -5.34628 0
M  V30 4506 C 460.973 -2.18892 -4.74219 0
M  V30 4507 H 462.667 -1.50179 -2.59011 0
M  V30 4508 H 460.213 -0.723547 -1.24502 0
M  V30 4509 H 462.166 0.326488 -4.20133 0
M  V30 4510 H 460.89 0.948164 -3.12534 0
M  V30 4511 H 459.549 -1.15475 -3.47938 0
M  V30 4512 H 459.197 0.828941 -4.96123 0
M  V30 4513 H 458.897 -0.694359 -5.83483 0
M  V30 4514 H 460.421 0.198743 -6.10276 0
M  V30 4515 H 461.835 -1.95746 -5.38847 0
M  V30 4516 H 460.232 -2.74686 -5.33542 0
M  V30 4517 H 461.302 -2.84674 -3.92541 0
M  V30 4518 N 462.645 1.35699 -0.801477 0
M  V30 4519 C 463.577 2.28598 -0.166028 0
M  V30 4520 C 464.59 1.50044 0.631721 0
M  V30 4521 O 465.779 1.72339 0.464921 0
M  V30 4522 C 462.879 3.29625 0.787451 0
M  V30 4523 C 462.052 4.37384 0.037171 0
M  V30 4524 C 461.111 5.183 0.908375 0
M  V30 4525 O 460.137 5.68053 0.361189 0
M  V30 4526 N 461.339 5.35912 2.23112 0
M  V30 4527 H 464.104 2.83771 -0.964071 0
M  V30 4528 H 461.665 1.47994 -0.656469 0
M  V30 4529 H 463.657 3.80648 1.37439 0
M  V30 4530 H 462.227 2.75004 1.48632 0
M  V30 4531 H 461.447 3.87364 -0.730935 0
M  V30 4532 H 462.735 5.0653 -0.480109 0
M  V30 4533 H 462.133 4.97125 2.69968 0
M  V30 4534 H 460.69 5.90133 2.76741 0
M  V30 4535 N 464.123 0.554532 1.47522 0
M  V30 4536 C 465.07 -0.19466 2.29978 0
M  V30 4537 C 466.04 -0.910882 1.38896 0
M  V30 4538 O 467.225 -0.907102 1.67858 0
M  V30 4539 C 464.365 -1.22035 3.22802 0
M  V30 4540 C 463.478 -0.510474 4.28973 0
M  V30 4541 C 462.613 -1.52123 5.08952 0
M  V30 4542 C 461.652 -0.796173 6.069 0
M  V30 4543 N 460.789 -1.75363 6.79847 0
M  V30 4544 H 465.629 0.51461 2.93523 0
M  V30 4545 H 463.166 0.265607 1.44682 0
M  V30 4546 H 465.124 -1.8276 3.7504 0
M  V30 4547 H 463.754 -1.89769 2.61127 0
M  V30 4548 H 462.806 0.211234 3.79813 0
M  V30 4549 H 464.118 0.0576503 4.98767 0
M  V30 4550 H 463.272 -2.20207 5.65326 0
M  V30 4551 H 462.011 -2.12327 4.39054 0
M  V30 4552 H 461.016 -0.101388 5.49707 0
M  V30 4553 H 462.241 -0.199911 6.78806 0
M  V30 4554 H 460.187 -2.3443 6.12682 0
M  V30 4555 H 460.104 -1.23759 7.45801 0
M  V30 4556 H 461.372 -2.4257 7.40797 0
M  V30 4557 N 465.601 -1.54893 0.290851 0
M  V30 4558 C 466.548 -2.23138 -0.58974 0
M  V30 4559 C 467.518 -1.21036 -1.13752 0
M  V30 4560 O 468.703 -1.49626 -1.18392 0
M  V30 4561 C 465.843 -2.96811 -1.76061 0
M  V30 4562 C 464.956 -4.13665 -1.24519 0
M  V30 4563 C 464.091 -4.74944 -2.3791 0
M  V30 4564 C 463.13 -5.83963 -1.83451 0
M  V30 4565 N 462.267 -6.39239 -2.90376 0
M  V30 4566 H 467.107 -2.98 -0.00114915 0
M  V30 4567 H 464.644 -1.47096 0.0112006 0
M  V30 4568 H 466.602 -3.37751 -2.44909 0
M  V30 4569 H 465.232 -2.24344 -2.32098 0
M  V30 4570 H 464.284 -3.77737 -0.449288 0
M  V30 4571 H 465.596 -4.92238 -0.806424 0
M  V30 4572 H 464.75 -5.18684 -3.14724 0
M  V30 4573 H 463.489 -3.95682 -2.85109 0
M  V30 4574 H 462.494 -5.39657 -1.05122 0
M  V30 4575 H 463.719 -6.65103 -1.37169 0
M  V30 4576 H 461.665 -5.62864 -3.36927 0
M  V30 4577 H 461.582 -7.13129 -2.50965 0
M  V30 4578 H 462.85 -6.87637 -3.67118 0
M  V30 4579 N 467.08 -0.0183926 -1.57589 0
M  V30 4580 C 468.326 0.663543 -1.91638 0
M  V30 4581 C 468.659 1.72392 -0.894134 0
M  V30 4582 O 467.934 1.94316 0.0846449 0
M  V30 4583 C 468.217 1.28984 -3.36207 0
M  V30 4584 C 468.07 0.239761 -4.49161 0
M  V30 4585 C 469.389 2.2109 -3.80536 0
M  V30 4586 H 466.508 0.239746 -0.696915 0
M  V30 4587 H 469.15 -0.073456 -1.89858 0
M  V30 4588 H 467.3 1.91799 -3.37854 0
M  V30 4589 H 468.972 -0.390119 -4.59647 0
M  V30 4590 H 467.215 -0.435972 -4.31604 0
M  V30 4591 H 467.886 0.717383 -5.47319 0
M  V30 4592 H 470.362 1.68273 -3.80557 0
M  V30 4593 H 469.238 2.61869 -4.82406 0
M  V30 4594 H 469.499 3.09764 -3.15434 0
M  V30 4595 N 468.558 1.5553 0.254621 0
M  V30 4596 C 469.468 1.92789 1.33677 0
M  V30 4597 C 470.484 0.827356 1.53071 0
M  V30 4598 O 471.66 1.12807 1.66843 0
M  V30 4599 C 468.725 2.20827 2.67275 0
M  V30 4600 C 467.786 3.4427 2.5647 0
M  V30 4601 C 467.019 3.70961 3.83697 0
M  V30 4602 O 467.242 2.99852 4.85227 0
M  V30 4603 O 466.176 4.64491 3.82794 0
M  V30 4604 H 470.002 2.84945 1.05071 0
M  V30 4605 H 467.587 1.42312 0.454723 0
M  V30 4606 H 469.469 2.40204 3.46237 0
M  V30 4607 H 468.144 1.31851 2.9563 0
M  V30 4608 H 467.051 3.30209 1.75821 0
M  V30 4609 H 468.384 4.33524 2.33062 0
M  V30 4610 N 470.036 -0.519951 1.48776 0
M  V30 4611 C 470.968 -1.63973 1.60142 0
M  V30 4612 C 471.981 -1.55404 0.485117 0
M  V30 4613 O 473.17 -1.61682 0.756391 0
M  V30 4614 C 470.27 -3.02676 1.52449 0
M  V30 4615 C 469.443 -3.36624 2.79291 0
M  V30 4616 C 468.502 -4.54652 2.64912 0
M  V30 4617 O 467.528 -4.57374 3.38818 0
M  V30 4618 N 468.73 -5.53432 1.75195 0
M  V30 4619 H 471.495 -1.54656 2.56713 0
M  V30 4620 H 469.056 -0.707439 1.45626 0
M  V30 4621 H 471.048 -3.79525 1.4051 0
M  V30 4622 H 469.618 -3.06018 0.638125 0
M  V30 4623 H 468.838 -2.48855 3.0572 0
M  V30 4624 H 470.126 -3.56094 3.6342 0
M  V30 4625 H 469.524 -5.54018 1.14371 0
M  V30 4626 H 468.081 -6.29459 1.69189 0
M  V30 4627 N 471.514 -1.37532 -0.769588 0
M  V30 4628 C 472.444 -1.36172 -1.89682 0
M  V30 4629 C 473.425 -0.23001 -1.68538 0
M  V30 4630 O 474.61 -0.43069 -1.89364 0
M  V30 4631 C 471.74 -1.1701 -3.26995 0
M  V30 4632 C 470.694 -2.27216 -3.62708 0
M  V30 4633 C 470.02 -1.93174 -4.98586 0
M  V30 4634 C 471.32 -3.6941 -3.69234 0
M  V30 4635 H 473.014 -2.30499 -1.91078 0
M  V30 4636 H 470.56 -1.10953 -0.917902 0
M  V30 4637 H 472.513 -1.14688 -4.05493 0
M  V30 4638 H 471.237 -0.191395 -3.26039 0
M  V30 4639 H 469.896 -2.28697 -2.86519 0
M  V30 4640 H 469.544 -0.938281 -4.94171 0
M  V30 4641 H 469.244 -2.66973 -5.23449 0
M  V30 4642 H 470.768 -1.92443 -5.79481 0
M  V30 4643 H 472.182 -3.70047 -4.37879 0
M  V30 4644 H 470.579 -4.4228 -4.05597 0
M  V30 4645 H 471.649 -4.0288 -2.69844 0
M  V30 4646 N 472.992 0.995999 -1.22138 0
M  V30 4647 C 474.217 1.77601 -1.0711 0
M  V30 4648 C 474.642 1.84339 0.374264 0
M  V30 4649 O 474 1.29359 1.27028 0
M  V30 4650 C 474.048 3.18897 -1.68336 0
M  V30 4651 O 473.152 4.01663 -0.934928 0
M  V30 4652 H 472.493 0.547011 -0.376397 0
M  V30 4653 H 475.023 1.25137 -1.6187 0
M  V30 4654 H 475.033 3.69539 -1.72931 0
M  V30 4655 H 473.708 3.13308 -2.73516 0
M  V30 4656 H 472.285 3.60204 -0.964751 0
M  V30 4657 N 474.47 1.03057 1.19235 0
M  V30 4658 C 475.886 0.747947 1.40989 0
M  V30 4659 C 476.086 -0.666752 1.90149 0
M  V30 4660 O 475.142 -1.43249 2.07933 0
M  V30 4661 C 476.455 1.7855 2.41951 0
M  V30 4662 C 478.003 1.80524 2.55695 0
M  V30 4663 C 478.478 2.83243 3.59913 0
M  V30 4664 N 479.969 2.8207 3.67411 0
M  V30 4665 C 480.704 3.58204 4.47747 0
M  V30 4666 N 480.2 4.44057 5.31775 0
M  V30 4667 N 481.993 3.46738 4.42413 0
M  V30 4668 H 474.144 1.94367 0.856468 0
M  V30 4669 H 476.407 0.840412 0.438647 0
M  V30 4670 H 476.113 2.79973 2.12857 0
M  V30 4671 H 475.987 1.6092 3.41152 0
M  V30 4672 H 478.374 0.79778 2.84112 0
M  V30 4673 H 478.455 2.02229 1.56643 0
M  V30 4674 H 478.099 3.84161 3.32239 0
M  V30 4675 H 478.029 2.58795 4.5862 0
M  V30 4676 H 480.52 2.19803 3.074 0
M  V30 4677 H 480.833 4.98884 5.90199 0
M  V30 4678 H 479.178 4.48129 5.3123 0
M  V30 4679 H 482.369 2.79077 3.75811 0
M  V30 4680 H 482.542 4.06322 5.04783 0
M  V30 4681 N 475.948 -1.35272 0.808662 0
M  V30 4682 C 476.858 -2.33546 0.222079 0
M  V30 4683 C 477.874 -1.6196 -0.636011 0
M  V30 4684 O 479.05 -1.93822 -0.547274 0
M  V30 4685 C 476.115 -3.41148 -0.61795 0
M  V30 4686 C 475.176 -4.28507 0.260875 0
M  V30 4687 C 474.409 -5.3097 -0.539156 0
M  V30 4688 O 474.632 -5.42123 -1.77367 0
M  V30 4689 O 473.566 -6.01858 0.0710526 0
M  V30 4690 H 477.392 -2.85515 1.03512 0
M  V30 4691 H 474.977 -1.38079 0.570495 0
M  V30 4692 H 476.859 -4.06889 -1.09634 0
M  V30 4693 H 475.534 -2.91447 -1.40855 0
M  V30 4694 H 474.441 -3.6574 0.786451 0
M  V30 4695 H 475.774 -4.81611 1.01547 0
M  V30 4696 N 477.426 -0.562348 -1.47226 0
M  V30 4697 C 478.356 0.170627 -2.32876 0
M  V30 4698 C 479.337 0.903748 -1.44106 0
M  V30 4699 O 480.522 0.883206 -1.72954 0
M  V30 4700 C 477.652 1.19786 -3.25989 0
M  V30 4701 C 476.606 0.580875 -4.2404 0
M  V30 4702 C 475.932 1.71311 -5.06514 0
M  V30 4703 C 477.232 -0.468714 -5.20193 0
M  V30 4704 H 478.926 -0.544441 -2.94408 0
M  V30 4705 H 476.472 -0.263271 -1.41573 0
M  V30 4706 H 478.425 1.71884 -3.84752 0
M  V30 4707 H 477.149 1.94294 -2.62521 0
M  V30 4708 H 475.808 0.0811538 -3.6651 0
M  V30 4709 H 475.456 2.44736 -4.39447 0
M  V30 4710 H 475.156 1.30604 -5.72902 0
M  V30 4711 H 476.68 2.23725 -5.68137 0
M  V30 4712 H 478.094 -0.0336028 -5.7329 0
M  V30 4713 H 476.491 -0.794957 -5.94811 0
M  V30 4714 H 477.561 -1.36269 -4.65359 0
M  V30 4715 N 478.904 1.54736 -0.299062 0
M  V30 4716 C 480.129 2.04975 0.316254 0
M  V30 4717 C 480.554 1.17501 1.46885 0
M  V30 4718 O 479.912 0.178678 1.80417 0
M  V30 4719 C 479.96 3.52672 0.751997 0
M  V30 4720 O 479.064 3.68226 1.85697 0
M  V30 4721 H 478.405 0.661126 0.0617175 0
M  V30 4722 H 480.935 1.99805 -0.440341 0
M  V30 4723 H 480.945 3.94488 1.04133 0
M  V30 4724 H 479.62 4.158 -0.0911482 0
M  V30 4725 H 478.197 3.38316 1.56834 0
M  V30 4726 N 480.382 0.0267497 1.57577 0
M  V30 4727 C 481.61 -0.662661 1.96001 0
M  V30 4728 C 482.025 -1.65799 0.903117 0
M  V30 4729 O 481.382 -1.82135 -0.115317 0
M  V30 4730 C 481.433 -1.37112 3.34488 0
M  V30 4731 O 481.154 -0.415683 4.36123 0
M  V30 4732 C 482.655 -2.15257 3.8753 0
M  V30 4733 H 479.875 -0.18287 0.6456 0
M  V30 4734 H 482.419 0.0858116 2.0432 0
M  V30 4735 H 480.574 -2.07101 3.27395 0
M  V30 4736 H 480.988 -0.918496 5.16395 0
M  V30 4737 H 482.462 -2.60285 4.86781 0
M  V30 4738 H 482.939 -2.99063 3.21649 0
M  V30 4739 H 483.545 -1.50231 3.97883 0
M  V30 4740 N 481.861 -1.55662 -0.24637 0
M  V30 4741 C 482.791 -1.93377 -1.30873 0
M  V30 4742 C 483.772 -0.798773 -1.50179 0
M  V30 4743 O 484.957 -1.0591 -1.62778 0
M  V30 4744 C 482.087 -2.22893 -2.66338 0
M  V30 4745 C 481.041 -3.38649 -2.61727 0
M  V30 4746 C 480.367 -3.53708 -4.00992 0
M  V30 4747 C 481.667 -4.74323 -2.18666 0
M  V30 4748 H 483.361 -2.82363 -0.995552 0
M  V30 4749 H 480.907 -1.35854 -0.477464 0
M  V30 4750 H 482.86 -2.47866 -3.40794 0
M  V30 4751 H 481.584 -1.30733 -2.99293 0
M  V30 4752 H 480.243 -3.13685 -1.89729 0
M  V30 4753 H 479.891 -2.58967 -4.31214 0
M  V30 4754 H 479.591 -4.31551 -3.98795 0
M  V30 4755 H 481.115 -3.81003 -4.77147 0
M  V30 4756 H 482.529 -4.98665 -2.82854 0
M  V30 4757 H 480.926 -5.55273 -2.27579 0
M  V30 4758 H 481.996 -4.71349 -1.13834 0
M  V30 4759 N 483.339 0.512053 -1.4905 0
M  V30 4760 C 484.755 0.84224 -1.35567 0
M  V30 4761 C 484.955 1.97878 -0.380319 0
M  V30 4762 O 484.011 2.51769 0.19201 0
M  V30 4763 C 485.324 1.19286 -2.76028 0
M  V30 4764 C 486.872 1.30171 -2.84648 0
M  V30 4765 C 487.347 1.68568 -4.25851 0
M  V30 4766 N 488.838 1.75638 -4.28609 0
M  V30 4767 C 489.573 2.06769 -5.34821 0
M  V30 4768 N 489.069 2.36201 -6.51292 0
M  V30 4769 N 490.862 2.07927 -5.22229 0
M  V30 4770 H 483.013 -0.237574 -2.11067 0
M  V30 4771 H 485.276 -0.0436747 -0.946993 0
M  V30 4772 H 484.982 0.431199 -3.49047 0
M  V30 4773 H 484.856 2.13889 -3.10695 0
M  V30 4774 H 487.243 2.05411 -2.11873 0
M  V30 4775 H 487.324 0.336457 -2.53578 0
M  V30 4776 H 486.968 0.938824 -4.99148 0
M  V30 4777 H 486.898 2.66174 -4.54377 0
M  V30 4778 H 489.389 1.55097 -3.44606 0
M  V30 4779 H 489.702 2.59112 -7.28066 0
M  V30 4780 H 488.047 2.33681 -6.54536 0
M  V30 4781 H 491.238 1.84403 -4.30248 0
M  V30 4782 H 491.411 2.31856 -6.05101 0
M  V30 4783 N 484.817 1.37938 0.762283 0
M  V30 4784 C 485.765 1.34569 1.89721 0
M  V30 4785 C 486.759 0.232929 1.67791 0
M  V30 4786 O 487.965 0.401485 1.75465 0
M  V30 4787 H 484.34 0.419594 0.624055 0
M  V30 4788 H 486.311 2.30357 1.8968 0
M  V30 4789 C 485.06 1.17898 3.27101 0
M  V30 4790 H 484.383 2.02781 3.44558 0
M  V30 4791 H 485.823 1.19593 4.06784 0
M  V30 4792 C 484.282 -0.114728 3.36705 0
M  V30 4793 O 484.812 -1.0949 3.8649 0
M  V30 4794 N 483.018 -0.16863 2.9011 0
M  V30 4795 H 482.565 0.62967 2.49786 0
M  V30 4796 H 482.523 -1.03383 2.96916 0
M  V30 4797 N 486.295 -0.989507 1.22664 0
M  V30 4798 C 487.225 -2.09847 1.02404 0
M  V30 4799 C 488.206 -1.70007 -0.0561303 0
M  V30 4800 O 489.391 -1.93906 0.106748 0
M  V30 4801 C 486.521 -3.41996 0.604663 0
M  V30 4802 C 485.475 -3.95699 1.63115 0
M  V30 4803 C 484.801 -5.23936 1.0675 0
M  V30 4804 C 486.101 -4.25999 3.02196 0
M  V30 4805 H 487.795 -2.27054 1.95158 0
M  V30 4806 H 485.341 -1.09111 0.939727 0
M  V30 4807 H 487.294 -4.1899 0.45002 0
M  V30 4808 H 486.018 -3.24626 -0.35855 0
M  V30 4809 H 484.677 -3.2084 1.77362 0
M  V30 4810 H 484.325 -5.02909 0.0955422 0
M  V30 4811 H 484.025 -5.60833 1.75328 0
M  V30 4812 H 485.549 -6.0356 0.924516 0
M  V30 4813 H 486.963 -4.93777 2.91303 0
M  V30 4814 H 485.36 -4.74076 3.67929 0
M  V30 4815 H 486.43 -3.33636 3.51873 0
M  V30 4816 N 487.773 -1.03688 -1.18687 0
M  V30 4817 C 489.02 -0.73803 -1.88572 0
M  V30 4818 C 489.348 0.733973 -1.8012 0
M  V30 4819 O 488.603 1.55098 -1.19344 0
M  V30 4820 C 488.902 -1.14477 -3.3857 0
M  V30 4821 C 488.568 -2.61641 -3.67226 0
M  V30 4822 C 487.23 -3.01846 -3.74757 0
M  V30 4823 C 489.582 -3.56812 -3.79914 0
M  V30 4824 C 486.91 -4.36118 -3.92451 0
M  V30 4825 C 489.262 -4.90799 -3.99123 0
M  V30 4826 C 487.926 -5.3068 -4.04888 0
M  V30 4827 H 487.196 -0.270064 -0.690034 0
M  V30 4828 H 489.843 -1.3012 -1.40503 0
M  V30 4829 H 488.148 -0.500337 -3.88592 0
M  V30 4830 H 489.845 -0.89095 -3.90977 0
M  V30 4831 H 486.435 -2.29498 -3.61979 0
M  V30 4832 H 490.619 -3.26899 -3.73431 0
M  V30 4833 H 485.875 -4.66542 -3.95157 0
M  V30 4834 H 490.049 -5.64451 -4.07882 0
M  V30 4835 H 487.676 -6.34733 -4.18351 0
M  V30 4836 N 489.251 1.34841 -0.815825 0
M  V30 4837 C 490.198 2.29644 -0.230664 0
M  V30 4838 C 491.168 1.53253 0.640533 0
M  V30 4839 O 492.353 1.81653 0.583672 0
M  V30 4840 C 489.493 3.39715 0.607275 0
M  V30 4841 C 488.606 4.31056 -0.28538 0
M  V30 4842 C 487.741 5.28225 0.561446 0
M  V30 4843 C 486.78 6.11204 -0.331035 0
M  V30 4844 N 485.917 7.00483 0.476302 0
M  V30 4845 H 490.757 2.79095 -1.0445 0
M  V30 4846 H 488.294 1.37351 -0.526595 0
M  V30 4847 H 490.252 4.02208 1.10835 0
M  V30 4848 H 488.882 2.91517 1.38629 0
M  V30 4849 H 487.934 3.69487 -0.904621 0
M  V30 4850 H 489.246 4.89239 -0.97193 0
M  V30 4851 H 488.4 5.96135 1.12728 0
M  V30 4852 H 487.139 4.70562 1.28153 0
M  V30 4853 H 486.144 5.42232 -0.909069 0
M  V30 4854 H 487.369 6.70947 -1.04912 0
M  V30 4855 H 485.315 6.45296 1.18019 0
M  V30 4856 H 485.232 7.55847 -0.152008 0
M  V30 4857 H 486.5 7.7273 1.02512 0
M  V30 4858 N 490.729 0.570148 1.46925 0
M  V30 4859 C 491.661 -0.207909 2.28255 0
M  V30 4860 C 492.674 -0.867301 1.37774 0
M  V30 4861 O 493.863 -0.738976 1.62485 0
M  V30 4862 C 490.963 -1.31298 3.12433 0
M  V30 4863 C 490.136 -0.747915 4.30958 0
M  V30 4864 C 489.195 -1.7391 4.9663 0
M  V30 4865 O 488.221 -1.2801 5.54619 0
M  V30 4866 N 489.423 -3.07288 4.92498 0
M  V30 4867 H 492.188 0.489794 2.95671 0
M  V30 4868 H 489.749 0.407076 1.56699 0
M  V30 4869 H 491.741 -1.97507 3.53232 0
M  V30 4870 H 490.311 -1.91373 2.47175 0
M  V30 4871 H 489.531 0.0913066 3.94094 0
M  V30 4872 H 490.819 -0.349958 5.07595 0
M  V30 4873 H 490.217 -3.47213 4.46609 0
M  V30 4874 H 488.774 -3.69021 5.37277 0
M  V30 4875 N 492.207 -1.54576 0.307264 0
M  V30 4876 C 493.137 -2.26708 -0.55907 0
M  V30 4877 C 494.118 -1.26893 -1.1328 0
M  V30 4878 O 495.303 -1.55677 -1.16097 0
M  V30 4879 C 492.433 -3.01259 -1.72801 0
M  V30 4880 C 491.387 -4.08275 -1.28435 0
M  V30 4881 C 490.713 -4.70575 -2.53895 0
M  V30 4882 C 492.013 -5.2068 -0.411038 0
M  V30 4883 H 493.707 -2.9937 0.042576 0
M  V30 4884 H 491.253 -1.43983 0.0219173 0
M  V30 4885 H 493.206 -3.50444 -2.34023 0
M  V30 4886 H 491.93 -2.26187 -2.356 0
M  V30 4887 H 490.589 -3.59949 -0.695161 0
M  V30 4888 H 490.237 -3.92136 -3.15021 0
M  V30 4889 H 489.937 -5.42854 -2.24908 0
M  V30 4890 H 491.461 -5.22527 -3.15908 0
M  V30 4891 H 492.875 -5.65721 -0.929097 0
M  V30 4892 H 491.272 -5.99716 -0.214664 0
M  V30 4893 H 492.342 -4.81629 0.562287 0
M  V30 4894 N 493.685 -0.035106 -1.57561 0
M  V30 4895 C 495.096 0.502885 -1.798 0
M  V30 4896 C 495.447 1.71892 -0.945921 0
M  V30 4897 O 494.572 2.15822 -0.157991 0
M  V30 4898 C 495.167 0.919097 -3.26095 0
M  V30 4899 C 493.726 1.40216 -3.49308 0
M  V30 4900 C 492.873 0.369709 -2.74824 0
M  V30 4901 H 495.824 -0.261102 -1.56537 0
M  V30 4902 H 495.845 1.78308 -3.36135 0
M  V30 4903 H 495.357 0.0338526 -3.88085 0
M  V30 4904 H 493.458 2.30714 -2.92578 0
M  V30 4905 H 493.571 1.40541 -4.58023 0
M  V30 4906 H 491.935 0.839113 -2.40481 0
M  V30 4907 H 492.718 -0.507173 -3.39533 0
M  V30 4908 N 495.163 1.55791 0.238111 0
M  V30 4909 C 496.073 1.94196 1.31625 0
M  V30 4910 C 497.089 0.843545 1.52185 0
M  V30 4911 O 498.265 1.1457 1.65637 0
M  V30 4912 C 495.33 2.2365 2.64918 0
M  V30 4913 C 494.391 3.46971 2.52804 0
M  V30 4914 C 493.624 3.7501 3.79741 0
M  V30 4915 O 493.847 3.04982 4.82019 0
M  V30 4916 O 492.781 4.68525 3.77846 0
M  V30 4917 H 496.607 2.86044 1.02043 0
M  V30 4918 H 494.192 1.42786 0.439603 0
M  V30 4919 H 496.074 2.43863 3.4367 0
M  V30 4920 H 494.749 1.34979 2.94215 0
M  V30 4921 H 493.656 3.32055 1.72309 0
M  V30 4922 H 494.989 4.35971 2.28451 0
M  V30 4923 N 496.642 -0.504142 1.49319 0
M  V30 4924 C 498.053 -1.08572 1.51885 0
M  V30 4925 C 498.404 -1.93842 0.303255 0
M  V30 4926 O 497.529 -2.0828 -0.58724 0
M  V30 4927 C 498.124 -1.97574 2.75227 0
M  V30 4928 C 496.683 -2.509 2.80581 0
M  V30 4929 C 495.83 -1.28447 2.45757 0
M  V30 4930 H 498.781 -0.288194 1.56061 0
M  V30 4931 H 498.802 -2.82219 2.55211 0
M  V30 4932 H 498.314 -1.35486 3.63683 0
M  V30 4933 H 496.415 -3.16636 1.96398 0
M  V30 4934 H 496.528 -2.88268 3.82673 0
M  V30 4935 H 494.892 -1.60868 1.97468 0
M  V30 4936 H 495.675 -0.68072 3.36483 0
M  V30 4937 N 498.12 -1.38341 -0.754957 0
M  V30 4938 C 499.05 -1.38176 -1.88227 0
M  V30 4939 C 500.031 -0.247873 -1.68284 0
M  V30 4940 O 501.216 -0.45075 -1.88896 0
M  V30 4941 C 498.346 -1.20471 -3.25736 0
M  V30 4942 C 497.3 -2.3105 -3.60278 0
M  V30 4943 C 496.626 -1.98452 -4.96509 0
M  V30 4944 C 497.926 -3.73305 -3.65295 0
M  V30 4945 H 499.62 -2.32512 -1.88622 0
M  V30 4946 H 497.166 -1.1192 -0.906082 0
M  V30 4947 H 499.119 -1.18982 -4.04254 0
M  V30 4948 H 497.843 -0.225965 -3.25817 0
M  V30 4949 H 496.502 -2.31723 -2.84078 0
M  V30 4950 H 496.15 -0.990641 -4.93148 0
M  V30 4951 H 495.85 -2.7251 -5.20588 0
M  V30 4952 H 497.374 -1.98578 -5.77407 0
M  V30 4953 H 498.788 -3.7467 -4.3393 0
M  V30 4954 H 497.185 -4.46557 -4.00883 0
M  V30 4955 H 498.255 -4.05719 -2.65556 0
M  V30 4956 N 499.598 0.982988 -1.23187 0
M  V30 4957 C 500.528 2.09301 -1.03515 0
M  V30 4958 C 501.509 1.70035 0.0471136 0
M  V30 4959 O 502.694 1.93847 -0.117029 0
M  V30 4960 C 499.824 3.4167 -0.622791 0
M  V30 4961 C 498.778 3.94828 -1.65211 0
M  V30 4962 C 498.104 5.23362 -1.09527 0
M  V30 4963 C 499.404 4.2439 -3.04451 0
M  V30 4964 H 501.098 2.26016 -1.96359 0
M  V30 4965 H 498.644 1.08611 -0.945501 0
M  V30 4966 H 500.597 4.18746 -0.472233 0
M  V30 4967 H 499.321 3.24811 0.341329 0
M  V30 4968 H 497.98 3.19895 -1.79061 0
M  V30 4969 H 497.628 5.02852 -0.122211 0
M  V30 4970 H 497.328 5.59895 -1.783 0
M  V30 4971 H 498.852 6.03062 -0.956511 0
M  V30 4972 H 500.266 4.92225 -2.93917 0
M  V30 4973 H 498.663 4.72118 -3.70438 0
M  V30 4974 H 499.733 3.31765 -3.53638 0
M  V30 4975 N 501.076 1.04316 1.18135 0
M  V30 4976 C 502.039 0.640794 2.2006 0
M  V30 4977 C 503.039 -0.303124 1.57917 0
M  V30 4978 O 504.229 -0.0881855 1.73977 0
M  V30 4979 C 501.361 -0.060148 3.40847 0
M  V30 4980 H 502.554 1.54281 2.57172 0
M  V30 4981 H 500.107 0.836004 1.32063 0
M  V30 4982 H 500.842 -0.975845 3.0927 0
M  V30 4983 H 500.627 0.618319 3.87194 0
M  V30 4984 H 502.117 -0.328082 4.16309 0
M  V30 4985 N 502.554 -1.34406 0.822964 0
M  V30 4986 C 503.779 -2.0304 0.423034 0
M  V30 4987 C 504.204 -1.61568 -0.963196 0
M  V30 4988 O 503.562 -0.800339 -1.62678 0
M  V30 4989 C 503.61 -3.56636 0.53321 0
M  V30 4990 O 502.714 -4.09971 -0.446939 0
M  V30 4991 H 502.055 -0.64075 0.174171 0
M  V30 4992 H 504.585 -1.71653 1.11339 0
M  V30 4993 H 504.595 -4.05945 0.408991 0
M  V30 4994 H 503.27 -3.86168 1.54425 0
M  V30 4995 H 501.847 -3.71835 -0.281601 0
M  V30 4996 N 504.032 -0.577932 -1.46621 0
M  V30 4997 C 505.257 -0.0652536 -2.07297 0
M  V30 4998 C 505.682 1.22828 -1.4246 0
M  V30 4999 O 505.04 1.74075 -0.506718 0
M  V30 5000 C 505.088 0.0920589 -3.60482 0
M  V30 5001 O 504.192 1.14972 -3.96049 0
M  V30 5002 H 503.533 -0.06065 -0.661224 0
M  V30 5003 H 506.063 -0.799515 -1.88332 0
M  V30 5004 H 506.073 0.299741 -4.06897 0
M  V30 5005 H 504.748 -0.852612 -4.07067 0
M  V30 5006 H 503.325 0.920879 -3.61351 0
M  V30 5007 N 505.51 1.54411 -0.315457 0
M  V30 5008 C 506.758 2.00023 0.288971 0
M  V30 5009 C 507.079 1.20529 1.5329 0
M  V30 5010 O 506.349 0.304986 1.93511 0
M  V30 5011 H 504.929 0.738891 0.109766 0
M  V30 5012 H 507.591 1.90094 -0.430129 0
M  V30 5013 H 506.687 3.07198 0.550999 0
M  V30 5014 N 506.988 0.0434614 1.5754 0
M  V30 5015 C 507.938 -0.943039 2.07583 0
M  V30 5016 C 508.922 -1.27662 0.979342 0
M  V30 5017 O 510.114 -1.26034 1.24276 0
M  V30 5018 C 507.243 -2.22056 2.61813 0
M  V30 5019 C 506.329 -1.91471 3.78417 0
M  V30 5020 N 506.72 -1.31214 4.88484 0
M  V30 5021 C 505.018 -2.21384 3.87176 0
M  V30 5022 C 505.719 -1.18084 5.69588 0
M  V30 5023 N 504.695 -1.68116 5.16951 0
M  V30 5024 H 508.497 -0.472354 2.90079 0
M  V30 5025 H 506.011 -0.161191 1.61598 0
M  V30 5026 H 508.008 -2.93618 2.95963 0
M  V30 5027 H 506.668 -2.69738 1.80752 0
M  V30 5028 H 507.679 -0.985318 5.08441 0
M  V30 5029 H 504.356 -2.7164 3.17046 0
M  V30 5030 H 505.746 -0.713684 6.68099 0
M  V30 5031 N 508.466 -1.55915 -0.229846 0
M  V30 5032 C 509.706 -1.80314 -0.962614 0
M  V30 5033 C 510.07 -0.61568 -1.81861 0
M  V30 5034 O 511.271 -0.738795 -2.58448 0
M  V30 5035 C 509.542 -3.0956 -1.78627 0
M  V30 5036 S 511.101 -3.55243 -2.57581 0
M  V30 5037 H 507.919 -0.633142 -0.323499 0
M  V30 5038 H 510.521 -1.94155 -0.228919 0
M  V30 5039 H 509.225 -3.94033 -1.14742 0
M  V30 5040 H 508.756 -2.98503 -2.56241 0
M  V30 5041 H 510.771 -3.17924 -3.80971 0
M  V30 5042 O 509.983 0.375361 -1.57077 0
M  V30 5043 H 510.674 1.02655 -1.64261 0
M  V30 END ATOM
M  V30 BEGIN BOND
M  V30 END BOND
M  V30 END CTAB
M  END
$$$$
