drugbank_target|P17787 Neuronal acetylcholine receptor subunit beta-2 (DB00184; DB00333; DB00514; DB00572; DB00657; DB00747; DB00753; DB00898; DB00981; DB01245; DB01273; DB05458; DB05740; DB05855; DB07720; DB09028)
 OpenBabel12092119413D

  0  0  0     0  0            999 V3000
M  V30 BEGIN CTAB
M  V30 COUNTS 8023 8128 0 0 0
M  V30 BEGIN ATOM
M  V30 1 H -0.908 1.98254 -0.117106 0
M  V30 2 N 0 1.576 0 0
M  V30 3 C 0.933 2.03868 1.02534 0
M  V30 4 C 1.911 0.928543 1.3348 0
M  V30 5 O 3.095 1.19667 1.45644 0
M  V30 6 C 0.222 2.43627 2.35294 0
M  V30 7 C -0.732 3.65373 2.2001 0
M  V30 8 S 0.101 5.13292 1.52614 0
M  V30 9 C 1.257 5.56322 2.86805 0
M  V30 10 H 1.49 2.90518 0.631377 0
M  V30 11 H -0.977 1.52953 0.210867 0
M  V30 12 H 0.981 2.67203 3.11629 0
M  V30 13 H -0.358 1.57376 2.7183 0
M  V30 14 H -1.165 3.90944 3.18086 0
M  V30 15 H -1.563 3.418 1.51819 0
M  V30 16 H 0.729 5.58782 3.83104 0
M  V30 17 H 1.672 6.56266 2.65933 0
M  V30 18 H 2.08 4.83886 2.90714 0
M  V30 19 N 1.4781 -0.272755 1.55222 0
M  V30 20 C 2.4411 -1.32041 1.87344 0
M  V30 21 C 3.4411 -1.42342 0.74803 0
M  V30 22 O 4.6311 -1.41488 1.0162 0
M  V30 23 C 1.7631 -2.70173 2.07893 0
M  V30 24 H 2.9561 -1.04789 2.80997 0
M  V30 25 H 0.5091 -0.51083 1.47717 0
M  V30 26 H 1.2441 -3.02605 1.16622 0
M  V30 27 H 1.0291 -2.64082 2.89833 0
M  V30 28 H 2.5191 -3.45869 2.34017 0
M  V30 29 N 2.9562 -1.48159 -0.537278 0
M  V30 30 C 4.3722 -1.34118 -0.865129 0
M  V30 31 C 4.5722 -0.346678 -1.98495 0
M  V30 32 O 3.6282 0.234715 -2.51407 0
M  V30 33 C 4.9412 -2.73963 -1.23954 0
M  V30 34 C 6.4892 -2.82397 -1.34984 0
M  V30 35 C 6.9642 -4.22928 -1.75772 0
M  V30 36 N 8.4552 -4.25566 -1.82887 0
M  V30 37 C 9.1902 -5.31235 -2.15817 0
M  V30 38 N 8.6862 -6.47189 -2.47222 0
M  V30 39 N 10.4792 -5.18624 -2.16761 0
M  V30 40 H 2.6302 -2.1144 0.201715 0
M  V30 41 H 4.8932 -0.947598 0.0275949 0
M  V30 42 H 4.5992 -3.48264 -0.490381 0
M  V30 43 H 4.4732 -3.0702 -2.19132 0
M  V30 44 H 6.8602 -2.08356 -2.08978 0
M  V30 45 H 6.9412 -2.5297 -0.379448 0
M  V30 46 H 6.5852 -4.97482 -1.02341 0
M  V30 47 H 6.5152 -4.49794 -2.73848 0
M  V30 48 H 9.0062 -3.41924 -1.60924 0
M  V30 49 H 9.3192 -7.23564 -2.71433 0
M  V30 50 H 7.6642 -6.50476 -2.44757 0
M  V30 51 H 10.8552 -4.27056 -1.91679 0
M  V30 52 H 11.0282 -6.01078 -2.42093 0
M  V30 53 N 4.4343 0.785586 -1.36625 0
M  V30 54 C 5.8503 1.08419 -1.17122 0
M  V30 55 C 6.0503 2.015 0.00208491 0
M  V30 56 O 5.1063 2.43551 0.666278 0
M  V30 57 C 6.4193 1.69498 -2.48377 0
M  V30 58 C 7.9673 1.81821 -2.54775 0
M  V30 59 C 8.4423 2.46315 -3.86126 0
M  V30 60 N 9.9333 2.53779 -3.87492 0
M  V30 61 C 10.6683 3.045 -4.85868 0
M  V30 62 N 10.1643 3.55499 -5.94637 0
M  V30 63 N 11.9573 3.03247 -4.73284 0
M  V30 64 H 4.1083 0.167264 -2.1174 0
M  V30 65 H 6.3713 0.13682 -0.938075 0
M  V30 66 H 6.0773 1.08571 -3.34522 0
M  V30 67 H 5.9513 2.6896 -2.64462 0
M  V30 68 H 8.3383 2.41884 -1.69045 0
M  V30 69 H 8.4193 0.811532 -2.42586 0
M  V30 70 H 8.0633 1.86895 -4.72263 0
M  V30 71 H 7.9933 3.47561 -3.95612 0
M  V30 72 H 10.4843 2.17672 -3.08913 0
M  V30 73 H 10.7973 3.92562 -6.65669 0
M  V30 74 H 9.1423 3.5364 -5.98301 0
M  V30 75 H 12.3333 2.62696 -3.87438 0
M  V30 76 H 12.5063 3.42467 -5.50109 0
M  V30 77 N 5.9124 1.20967 1.01018 0
M  V30 78 C 7.1524 1.03511 1.76252 0
M  V30 79 C 7.5164 -0.42458 1.87247 0
M  V30 80 O 8.7174 -0.719508 2.58991 0
M  V30 81 C 6.9884 1.70726 3.13986 0
M  V30 82 S 8.5474 1.68458 4.05176 0
M  V30 83 H 5.3654 0.371037 0.606508 0
M  V30 84 H 7.9674 1.53628 1.20908 0
M  V30 85 H 6.6714 2.76128 3.03614 0
M  V30 86 H 6.2024 1.20767 3.74405 0
M  V30 87 H 8.2174 0.721987 4.90919 0
M  V30 88 N 7.3905 -1.2043 1.01659 0
M  V30 89 C 8.6385 -1.89423 0.704522 0
M  V30 90 C 8.9595 -1.79231 -0.768197 0
M  V30 91 O 8.2295 -1.1947 -1.55254 0
M  V30 92 H 6.8095 -0.701178 0.257602 0
M  V30 93 H 9.4715 -1.4626 1.28818 0
M  V30 94 H 8.5675 -2.96052 0.987916 0
M  V30 95 N 8.8686 -0.792821 -1.36206 0
M  V30 96 C 10.2796 -0.429513 -1.81692 0
M  V30 97 C 10.6306 1.04695 -1.65932 0
M  V30 98 O 9.7556 1.81256 -1.18218 0
M  V30 99 C 10.3506 -0.772831 -3.29868 0
M  V30 100 C 8.9096 -0.462307 -3.7355 0
M  V30 101 C 8.0566 -1.00569 -2.5842 0
M  V30 102 H 11.0076 -0.985672 -1.24379 0
M  V30 103 H 11.0286 -0.0651928 -3.80444 0
M  V30 104 H 10.5406 -1.84747 -3.41307 0
M  V30 105 H 8.6416 0.604158 -3.67669 0
M  V30 106 H 8.7546 -0.985299 -4.68859 0
M  V30 107 H 7.1186 -0.428734 -2.51066 0
M  V30 108 H 7.9016 -2.08616 -2.72643 0
M  V30 109 N 10.3467 1.47872 -0.545128 0
M  V30 110 C 11.5927 2.02793 -0.0166104 0
M  V30 111 C 11.9257 1.41987 1.32489 0
M  V30 112 O 11.2007 0.571045 1.85928 0
M  V30 113 C 11.4837 3.59989 0.0893294 0
M  V30 114 C 11.3367 4.3125 -1.27841 0
M  V30 115 C 12.6557 4.32606 0.808724 0
M  V30 116 H 9.7747 0.736962 -0.00751035 0
M  V30 117 H 12.4167 1.76433 -0.705085 0
M  V30 118 H 10.5667 3.82579 0.675681 0
M  V30 119 H 12.2387 4.20035 -1.90704 0
M  V30 120 H 10.4817 3.92076 -1.85632 0
M  V30 121 H 11.1527 5.39736 -1.15713 0
M  V30 122 H 13.6287 4.14936 0.310992 0
M  V30 123 H 12.5047 5.42251 0.851782 0
M  V30 124 H 12.7657 4.00963 1.86229 0
M  V30 125 N 11.8248 0.280983 1.55075 0
M  V30 126 C 12.7878 -0.590896 2.21452 0
M  V30 127 C 13.7878 -1.07682 1.19421 0
M  V30 128 O 14.9778 -0.97605 1.44288 0
M  V30 129 C 12.1098 -1.81587 2.88511 0
M  V30 130 H 13.3028 -0.0112554 2.99898 0
M  V30 131 H 10.8558 0.0316438 1.56268 0
M  V30 132 H 11.5908 -2.43587 2.14093 0
M  V30 133 H 11.3758 -1.4753 3.63287 0
M  V30 134 H 12.8658 -2.43575 3.39206 0
M  V30 135 N 13.3029 -1.57598 0.00835791 0
M  V30 136 C 14.2329 -2.1198 -0.979113 0
M  V30 137 C 15.2139 -1.03091 -1.35301 0
M  V30 138 O 16.3989 -1.30818 -1.43528 0
M  V30 139 C 13.5289 -2.62995 -2.26828 0
M  V30 140 C 12.4829 -3.76485 -2.03576 0
M  V30 141 C 11.8089 -4.13846 -3.38579 0
M  V30 142 C 13.1089 -5.0342 -1.39161 0
M  V30 143 H 14.8029 -2.94738 -0.526281 0
M  V30 144 H 12.3489 -1.41783 -0.251704 0
M  V30 145 H 14.3019 -2.99669 -2.96271 0
M  V30 146 H 13.0259 -1.7737 -2.7424 0
M  V30 147 H 11.6849 -3.40217 -1.36557 0
M  V30 148 H 11.3329 -3.25232 -3.83709 0
M  V30 149 H 11.0329 -4.90312 -3.23834 0
M  V30 150 H 12.5569 -4.53086 -4.09323 0
M  V30 151 H 13.9709 -5.37812 -1.98573 0
M  V30 152 H 12.3679 -5.84746 -1.34878 0
M  V30 153 H 13.4379 -4.83548 -0.361868 0
M  V30 154 N 14.781 0.264519 -1.55364 0
M  V30 155 C 15.711 1.33121 -1.91836 0
M  V30 156 C 16.692 1.51101 -0.781192 0
M  V30 157 O 17.877 1.64003 -1.04003 0
M  V30 158 C 15.007 2.68921 -2.19769 0
M  V30 159 C 13.961 2.65661 -3.35571 0
M  V30 160 C 13.287 4.05093 -3.49004 0
M  V30 161 C 14.587 2.24187 -4.71739 0
M  V30 162 H 16.281 1.02844 -2.81182 0
M  V30 163 H 13.827 0.493286 -1.35287 0
M  V30 164 H 15.78 3.43663 -2.43872 0
M  V30 165 H 14.504 3.00799 -1.27231 0
M  V30 166 H 13.163 1.93377 -3.1145 0
M  V30 167 H 12.811 4.34206 -2.53917 0
M  V30 168 H 12.511 4.03804 -4.26868 0
M  V30 169 H 14.035 4.81561 -3.75408 0
M  V30 170 H 15.449 2.88654 -4.9533 0
M  V30 171 H 13.846 2.34044 -5.52579 0
M  V30 172 H 14.916 1.19327 -4.69988 0
M  V30 173 N 16.2591 1.48442 0.529413 0
M  V30 174 C 17.1891 1.65902 1.64313 0
M  V30 175 C 18.1701 0.507897 1.6234 0
M  V30 176 O 19.3551 0.740503 1.79528 0
M  V30 177 C 16.4851 1.69911 3.02898 0
M  V30 178 C 15.4391 2.8453 3.19729 0
M  V30 179 C 14.7651 2.73629 4.59381 0
M  V30 180 C 16.0651 4.25821 3.02447 0
M  V30 181 H 17.7591 2.5914 1.49955 0
M  V30 182 H 15.3051 1.24709 0.719982 0
M  V30 183 H 17.2581 1.80715 3.80684 0
M  V30 184 H 15.9821 0.732524 3.18279 0
M  V30 185 H 14.6411 2.73283 2.44361 0
M  V30 186 H 14.2891 1.74938 4.71599 0
M  V30 187 H 13.9891 3.50541 4.71588 0
M  V30 188 H 15.5131 2.86401 5.39265 0
M  V30 189 H 16.9271 4.37898 3.70024 0
M  V30 190 H 15.3241 5.03735 3.26146 0
M  V30 191 H 16.3941 4.42244 1.98867 0
M  V30 192 N 17.7372 -0.778329 1.37039 0
M  V30 193 C 18.9852 -1.53361 1.31623 0
M  V30 194 C 19.3062 -1.94739 -0.100831 0
M  V30 195 O 18.5762 -1.65797 -1.04347 0
M  V30 196 H 17.1562 -0.568794 0.484234 0
M  V30 197 H 19.8182 -0.926742 1.71457 0
M  V30 198 H 18.9142 -2.43606 1.95096 0
M  V30 199 N 19.2153 -1.21501 -1.00376 0
M  V30 200 C 20.4623 -1.03299 -1.74171 0
M  V30 201 C 20.7903 0.433326 -1.89612 0
M  V30 202 O 20.0453 1.33779 -1.42834 0
M  V30 203 C 20.3443 -1.67673 -3.15627 0
M  V30 204 C 20.0103 -3.17533 -3.2013 0
M  V30 205 C 18.6723 -3.58427 -3.21067 0
M  V30 206 C 21.0243 -4.13504 -3.17275 0
M  V30 207 C 18.3523 -4.93794 -3.16835 0
M  V30 208 C 20.7043 -5.48834 -3.14585 0
M  V30 209 C 19.3683 -5.89123 -3.13831 0
M  V30 210 H 18.6383 -0.377999 -0.637336 0
M  V30 211 H 21.2853 -1.51111 -1.17634 0
M  V30 212 H 19.5903 -1.12158 -3.75404 0
M  V30 213 H 21.2873 -1.51091 -3.71446 0
M  V30 214 H 17.8773 -2.84965 -3.20145 0
M  V30 215 H 22.0613 -3.82936 -3.15711 0
M  V30 216 H 17.3173 -5.24255 -3.1459 0
M  V30 217 H 21.4913 -6.22934 -3.1133 0
M  V30 218 H 19.1183 -6.93984 -3.10307 0
M  V30 219 N 20.6934 1.19889 -1.02296 0
M  V30 220 C 21.9414 1.89046 -0.714558 0
M  V30 221 C 22.2624 1.79636 0.758681 0
M  V30 222 O 21.5324 1.20292 1.54618 0
M  V30 223 H 20.1124 0.699802 -0.261317 0
M  V30 224 H 22.7744 1.45574 -1.29592 0
M  V30 225 H 21.8704 2.95524 -1.0036 0
M  V30 226 N 22.1715 0.800033 1.35784 0
M  V30 227 C 23.1015 0.220184 2.3246 0
M  V30 228 C 24.0825 -0.65073 1.57161 0
M  V30 229 O 25.2675 -0.582359 1.85263 0
M  V30 230 C 22.3975 -0.637353 3.41402 0
M  V30 231 C 21.3515 0.134531 4.27789 0
M  V30 232 C 20.6775 -0.844285 5.27992 0
M  V30 233 C 21.9775 1.32979 5.05088 0
M  V30 234 H 23.6715 1.02787 2.81203 0
M  V30 235 H 21.2175 0.495717 1.35199 0
M  V30 236 H 23.1705 -1.05302 4.08031 0
M  V30 237 H 21.8945 -1.47785 2.91251 0
M  V30 238 H 20.5535 0.531296 3.6273 0
M  V30 239 H 20.2015 -1.68011 4.74111 0
M  V30 240 H 19.9015 -0.332184 5.8666 0
M  V30 241 H 21.4255 -1.2583 5.97494 0
M  V30 242 H 22.8395 0.98934 5.64699 0
M  V30 243 H 21.2365 1.77593 5.7322 0
M  V30 244 H 22.3065 2.11978 4.36111 0
M  V30 245 N 23.6496 -1.47581 0.552962 0
M  V30 246 C 24.5796 -2.32762 -0.185451 0
M  V30 247 C 25.5606 -1.43527 -0.912905 0
M  V30 248 O 26.7456 -1.72388 -0.894201 0
M  V30 249 C 23.8756 -3.25219 -1.21859 0
M  V30 250 C 22.8296 -4.23661 -0.607864 0
M  V30 251 C 22.1556 -5.05413 -1.74533 0
M  V30 252 C 23.4556 -5.20481 0.435582 0
M  V30 253 H 25.1496 -2.94749 0.525684 0
M  V30 254 H 22.6956 -1.41738 0.254251 0
M  V30 255 H 24.6486 -3.8365 -1.7433 0
M  V30 256 H 23.3726 -2.61279 -1.95961 0
M  V30 257 H 22.0316 -3.66451 -0.104489 0
M  V30 258 H 21.6796 -4.3788 -2.47529 0
M  V30 259 H 21.3796 -5.72059 -1.34249 0
M  V30 260 H 22.9036 -5.66701 -2.27338 0
M  V30 261 H 24.3176 -5.733 -0.00290157 0
M  V30 262 H 22.7146 -5.95305 0.757067 0
M  V30 263 H 23.7846 -4.66217 1.33303 0
M  V30 264 N 25.1277 -0.289203 -1.54924 0
M  V30 265 C 26.5437 0.0645403 -1.59469 0
M  V30 266 C 26.7437 1.53419 -1.30632 0
M  V30 267 O 25.7997 2.2852 -1.074 0
M  V30 268 C 27.1127 -0.32278 -2.98963 0
M  V30 269 C 28.6607 -0.270564 -3.11828 0
M  V30 270 C 29.1357 -0.632532 -4.53611 0
M  V30 271 N 30.6267 -0.584617 -4.59496 0
M  V30 272 C 31.3617 -0.837314 -5.67254 0
M  V30 273 N 30.8577 -1.15536 -6.83098 0
M  V30 274 N 32.6507 -0.765166 -5.56868 0
M  V30 275 H 24.8017 -1.24714 -1.71931 0
M  V30 276 H 27.0647 -0.504809 -0.802416 0
M  V30 277 H 26.7707 -1.34541 -3.24948 0
M  V30 278 H 26.6447 0.32944 -3.75759 0
M  V30 279 H 29.0317 0.742805 -2.85598 0
M  V30 280 H 29.1127 -0.957242 -2.37214 0
M  V30 281 H 28.7567 -1.64365 -4.80569 0
M  V30 282 H 28.6867 0.07609 -5.26545 0
M  V30 283 H 31.1777 -0.349248 -3.76283 0
M  V30 284 H 31.4907 -1.33447 -7.61191 0
M  V30 285 H 29.8357 -1.19328 -6.84679 0
M  V30 286 H 33.0267 -0.516432 -4.65243 0
M  V30 287 H 33.1997 -0.965477 -6.40767 0
M  V30 288 N 26.6058 1.57591 -0.0167156 0
M  V30 289 C 27.5358 2.12496 0.967858 0
M  V30 290 C 28.5168 1.03807 1.34752 0
M  V30 291 O 29.7018 1.31577 1.42833 0
M  V30 292 C 26.8318 2.64194 2.25431 0
M  V30 293 C 25.7858 3.77559 2.01576 0
M  V30 294 C 25.1118 4.15636 3.36379 0
M  V30 295 C 26.4118 5.04151 1.36489 0
M  V30 296 H 28.1058 2.95013 0.510643 0
M  V30 297 H 25.6518 1.41915 0.244181 0
M  V30 298 H 27.6048 3.01236 2.94678 0
M  V30 299 H 26.3288 1.78821 2.73296 0
M  V30 300 H 24.9878 3.40937 1.34751 0
M  V30 301 H 24.6358 3.27263 3.81979 0
M  V30 302 H 24.3358 4.92022 3.21229 0
M  V30 303 H 25.8598 4.5525 4.06915 0
M  V30 304 H 27.2738 5.38857 1.95718 0
M  V30 305 H 25.6708 5.85453 1.31776 0
M  V30 306 H 26.7408 4.83733 0.336219 0
M  V30 307 N 28.0839 -0.256276 1.55502 0
M  V30 308 C 29.3239 -0.993081 1.78654 0
M  V30 309 C 29.6879 -1.8288 0.584724 0
M  V30 310 O 30.8889 -2.59665 0.694822 0
M  V30 311 C 29.1599 -1.83856 3.06483 0
M  V30 312 S 30.7189 -2.63573 3.5082 0
M  V30 313 H 27.5369 -0.334199 0.62756 0
M  V30 314 H 30.1389 -0.26184 1.93739 0
M  V30 315 H 28.8429 -1.21414 3.92029 0
M  V30 316 H 28.3739 -2.61271 2.94111 0
M  V30 317 H 30.3889 -3.86312 3.11412 0
M  V30 318 N 29.562 -1.4872 -0.521534 0
M  V30 319 C 30.787 -1.61101 -1.30618 0
M  V30 320 C 31.212 -0.274611 -1.86085 0
M  V30 321 O 30.57 0.754937 -1.64834 0
M  V30 322 C 30.618 -2.66709 -2.4269 0
M  V30 323 O 29.722 -2.24456 -3.45967 0
M  V30 324 H 29.063 -0.539921 -0.386499 0
M  V30 325 H 31.593 -1.94767 -0.626645 0
M  V30 326 H 31.603 -2.88245 -2.88754 0
M  V30 327 H 30.278 -3.63727 -2.01682 0
M  V30 328 H 28.855 -2.13168 -3.05964 0
M  V30 329 N 31.0401 0.771051 -1.3745 0
M  V30 330 C 32.2881 1.52661 -1.32435 0
M  V30 331 C 32.6091 1.9479 0.0905024 0
M  V30 332 O 31.8791 1.66348 1.03466 0
M  V30 333 H 30.4591 0.566218 -0.487244 0
M  V30 334 H 33.1211 0.917636 -1.71946 0
M  V30 335 H 32.2171 2.42568 -1.96385 0
M  V30 336 N 32.5182 1.22032 0.997298 0
M  V30 337 C 33.7642 1.04376 1.73878 0
M  V30 338 C 34.0972 -0.420716 1.89588 0
M  V30 339 O 33.3722 -1.31202 1.43583 0
M  V30 340 C 33.6552 1.75047 3.14691 0
M  V30 341 C 33.5082 3.29062 3.06656 0
M  V30 342 C 34.8272 1.49928 4.13775 0
M  V30 343 H 31.9462 0.380578 0.631133 0
M  V30 344 H 34.5882 1.50312 1.16217 0
M  V30 345 H 32.7382 1.35996 3.63919 0
M  V30 346 H 34.4102 3.7753 2.65083 0
M  V30 347 H 32.6532 3.58967 2.43568 0
M  V30 348 H 33.3242 3.73683 4.06282 0
M  V30 349 H 35.8002 1.83842 3.73285 0
M  V30 350 H 34.6762 2.01878 5.10428 0
M  V30 351 H 34.9372 0.430929 4.39995 0
M  V30 352 N 33.9963 -1.19345 1.0293 0
M  V30 353 C 35.2423 -1.89585 0.736824 0
M  V30 354 C 35.5973 -1.78148 -0.726703 0
M  V30 355 O 34.8903 -1.16332 -1.52242 0
M  V30 356 C 35.0843 -3.39292 1.12319 0
M  V30 357 C 34.9133 -3.65298 2.62273 0
M  V30 358 C 33.6833 -3.83304 3.29251 0
M  V30 359 C 35.8813 -3.6682 3.60482 0
M  V30 360 N 33.8633 -3.96944 4.68304 0
M  V30 361 C 35.2343 -3.86037 4.85155 0
M  V30 362 C 37.2893 -3.49848 3.54275 0
M  V30 363 C 35.9923 -3.9004 6.04369 0
M  V30 364 C 38.0183 -3.55129 4.72903 0
M  V30 365 C 37.3803 -3.74831 5.9639 0
M  V30 366 H 33.4793 -0.712856 0.321497 0
M  V30 367 H 36.0633 -1.43427 1.31669 0
M  V30 368 H 34.2343 -3.84172 0.571524 0
M  V30 369 H 35.9663 -3.97055 0.78292 0
M  V30 370 H 32.7213 -3.82211 2.79663 0
M  V30 371 H 33.1453 -4.07613 5.40538 0
M  V30 372 H 37.7873 -3.33572 2.59788 0
M  V30 373 H 35.5053 -4.05108 6.99223 0
M  V30 374 H 39.0913 -3.43287 4.69729 0
M  V30 375 H 37.9713 -3.78792 6.86649 0
M  V30 376 N 35.4744 -0.807222 -1.35358 0
M  V30 377 C 36.7224 -0.387122 -1.98358 0
M  V30 378 C 37.0434 1.04942 -1.64354 0
M  V30 379 O 36.3134 1.72615 -0.926339 0
M  V30 380 H 34.8934 -0.140154 -0.733734 0
M  V30 381 H 37.5554 -1.0332 -1.6526 0
M  V30 382 H 36.6514 -0.493352 -3.08176 0
M  V30 383 N 36.9525 1.47285 -0.560781 0
M  V30 384 C 38.1805 2.06855 -0.0430262 0
M  V30 385 C 38.5955 1.41291 1.25229 0
M  V30 386 O 37.9525 0.510648 1.7521 0
M  V30 387 C 38.0035 3.61178 0.152518 0
M  V30 388 O 37.7245 4.24285 -1.0915 0
M  V30 389 C 39.2255 4.37624 0.707145 0
M  V30 390 H 36.4455 0.669319 -0.0474652 0
M  V30 391 H 38.9895 1.89237 -0.77521 0
M  V30 392 H 37.1445 3.78298 0.834843 0
M  V30 393 H 37.5585 5.16868 -0.891482 0
M  V30 394 H 39.0325 5.46271 0.793244 0
M  V30 395 H 39.5095 4.04152 1.71923 0
M  V30 396 H 40.1155 4.25257 0.0604027 0
M  V30 397 N 38.4306 0.297415 1.54768 0
M  V30 398 C 39.7076 -0.365847 1.92148 0
M  V30 399 C 40.0876 -1.71975 1.22424 0
M  V30 400 O 39.4356 -2.25666 0.358739 0
M  V30 401 C 39.6456 -0.484056 3.45627 0
M  V30 402 C 40.9936 -0.756594 4.17805 0
M  V30 403 O 42.0176 -0.568007 3.51642 0
M  V30 404 O 40.8766 -1.11863 5.34929 0
M  V30 405 H 37.9706 -0.203919 0.801465 0
M  V30 406 H 40.5166 0.34521 1.66152 0
M  V30 407 H 39.2886 0.467865 3.88493 0
M  V30 408 H 38.9116 -1.24372 3.77647 0
M  V30 409 N 39.9087 -1.5758 0.0250728 0
M  V30 410 C 41.1367 -1.9593 -0.664747 0
M  V30 411 C 41.5517 -0.901352 -1.65895 0
M  V30 412 O 40.9087 0.117255 -1.82123 0
M  V30 413 C 40.9597 -3.34342 -1.37468 0
M  V30 414 O 40.6807 -4.36079 -0.420324 0
M  V30 415 C 42.1817 -3.873 -2.1567 0
M  V30 416 H 39.4017 -0.645405 -0.183557 0
M  V30 417 H 41.9457 -2.04329 0.0836372 0
M  V30 418 H 40.1007 -3.27175 -2.0745 0
M  V30 419 H 40.5147 -5.16297 -0.923991 0
M  V30 420 H 41.9887 -4.86504 -2.60803 0
M  V30 421 H 42.4657 -3.21331 -2.99405 0
M  V30 422 H 43.0717 -3.97723 -1.50654 0
M  V30 423 N 41.3868 0.248026 -1.55636 0
M  V30 424 C 42.2968 1.32859 -1.93354 0
M  V30 425 C 43.3128 1.52719 -0.833838 0
M  V30 426 O 44.4888 1.66363 -1.13513 0
M  V30 427 C 41.5538 2.66337 -2.21958 0
M  V30 428 C 40.6148 2.55008 -3.45354 0
M  V30 429 C 39.8478 3.82121 -3.72584 0
M  V30 430 O 40.0708 4.83951 -3.01907 0
M  V30 431 O 39.0048 3.80822 -4.6611 0
M  V30 432 H 42.8308 1.03862 -2.85388 0
M  V30 433 H 40.4158 0.448686 -1.42503 0
M  V30 434 H 42.2978 3.45216 -2.4167 0
M  V30 435 H 40.9728 2.95068 -1.33103 0
M  V30 436 H 39.8798 1.7442 -3.30951 0
M  V30 437 H 41.2128 2.31222 -4.34508 0
M  V30 438 N 42.8649 1.48995 0.513639 0
M  V30 439 C 43.7749 1.67443 1.64317 0
M  V30 440 C 44.7909 0.556947 1.64846 0
M  V30 441 O 45.9669 0.830082 1.83498 0
M  V30 442 C 43.0319 1.72515 3.00732 0
M  V30 443 C 42.0929 2.96009 3.1093 0
M  V30 444 C 41.3259 3.00829 4.40837 0
M  V30 445 O 41.5489 2.13594 5.28898 0
M  V30 446 O 40.4829 3.93168 4.55744 0
M  V30 447 H 44.3089 2.63106 1.51687 0
M  V30 448 H 41.8939 1.32588 0.688543 0
M  V30 449 H 43.7759 1.78277 3.81831 0
M  V30 450 H 42.4509 0.800278 3.13651 0
M  V30 451 H 41.3579 2.9577 2.29065 0
M  V30 452 H 42.6909 3.87934 3.02933 0
M  V30 453 N 44.343 -0.763751 1.37857 0
M  V30 454 C 45.759 -1.06542 1.18832 0
M  V30 455 C 45.959 -2.01478 0.0299722 0
M  V30 456 O 45.015 -2.4458 -0.627447 0
M  V30 457 C 46.328 -1.65525 2.51042 0
M  V30 458 C 47.876 -1.77745 2.57635 0
M  V30 459 C 48.351 -2.4014 3.89996 0
M  V30 460 N 49.842 -2.47582 3.91481 0
M  V30 461 C 50.577 -2.96732 4.9065 0
M  V30 462 N 50.073 -3.45993 6.00217 0
M  V30 463 N 51.866 -2.95679 4.78048 0
M  V30 464 H 44.017 -0.133556 2.1198 0
M  V30 465 H 46.28 -0.121879 0.940133 0
M  V30 466 H 45.986 -1.03236 3.36207 0
M  V30 467 H 45.86 -2.64719 2.68707 0
M  V30 468 H 48.247 -2.39164 1.72872 0
M  V30 469 H 48.328 -0.772836 2.43846 0
M  V30 470 H 47.972 -1.79358 4.75177 0
M  V30 471 H 47.902 -3.41223 4.01092 0
M  V30 472 H 50.393 -2.1273 3.12337 0
M  V30 473 H 50.706 -3.81922 6.7183 0
M  V30 474 H 49.051 -3.44077 6.03851 0
M  V30 475 H 52.242 -2.56499 3.91568 0
M  V30 476 H 52.415 -3.33672 5.55488 0
M  V30 477 N 45.8211 -1.22559 -0.990812 0
M  V30 478 C 46.7511 -1.0218 -2.09956 0
M  V30 479 C 47.7321 0.0579394 -1.70001 0
M  V30 480 O 48.9171 -0.104684 -1.93918 0
M  V30 481 C 46.0471 -0.601023 -3.4206 0
M  V30 482 C 45.0011 -1.62694 -3.95872 0
M  V30 483 C 44.3271 -1.06193 -5.24049 0
M  V30 484 C 45.6271 -3.01743 -4.2632 0
M  V30 485 H 47.3211 -1.94916 -2.27262 0
M  V30 486 H 44.8671 -0.938566 -1.09211 0
M  V30 487 H 46.8201 -0.445561 -4.19038 0
M  V30 488 H 45.5441 0.362005 -3.24588 0
M  V30 489 H 44.2031 -1.77021 -3.21028 0
M  V30 490 H 43.8511 -0.0901903 -5.02919 0
M  V30 491 H 43.5511 -1.74732 -5.61019 0
M  V30 492 H 45.0751 -0.918092 -6.03658 0
M  V30 493 H 46.4891 -2.90777 -4.94087 0
M  V30 494 H 44.8861 -3.67425 -4.74467 0
M  V30 495 H 45.9561 -3.51518 -3.34011 0
M  V30 496 N 47.2992 1.18797 -1.03562 0
M  V30 497 C 48.5452 1.8893 -0.737113 0
M  V30 498 C 48.8782 1.79837 0.732956 0
M  V30 499 O 48.1532 1.19525 1.5344 0
M  V30 500 C 48.4362 3.39607 -1.19745 0
M  V30 501 C 48.2892 3.57537 -2.72924 0
M  V30 502 C 49.6082 4.33069 -0.783526 0
M  V30 503 H 46.7272 0.686057 -0.269249 0
M  V30 504 H 49.3692 1.39797 -1.28673 0
M  V30 505 H 47.5192 3.81583 -0.729855 0
M  V30 506 H 49.1912 3.24688 -3.27682 0
M  V30 507 H 47.4342 3.00363 -3.12993 0
M  V30 508 H 48.1052 4.63238 -3.00191 0
M  V30 509 H 50.5812 3.98846 -1.18581 0
M  V30 510 H 49.4572 5.3707 -1.13343 0
M  V30 511 H 49.7182 4.40986 0.313681 0
M  V30 512 N 48.7773 0.814389 1.34928 0
M  V30 513 C 49.6873 0.231978 2.3345 0
M  V30 514 C 50.7033 -0.629139 1.62228 0
M  V30 515 O 51.8793 -0.539052 1.94052 0
M  V30 516 C 48.9443 -0.603482 3.41407 0
M  V30 517 C 48.0053 0.279037 4.28392 0
M  V30 518 C 47.2383 -0.516643 5.31193 0
M  V30 519 O 47.4613 -1.75068 5.4287 0
M  V30 520 O 46.3953 0.0965652 6.01823 0
M  V30 521 H 50.2213 1.04721 2.85074 0
M  V30 522 H 47.8063 0.576343 1.37836 0
M  V30 523 H 49.6883 -1.07908 4.0735 0
M  V30 524 H 48.3633 -1.39618 2.92042 0
M  V30 525 H 47.2703 0.801948 3.65403 0
M  V30 526 H 48.6033 1.03588 4.81176 0
M  V30 527 N 50.2554 -1.46986 0.568584 0
M  V30 528 C 51.2054 -2.27179 -0.193339 0
M  V30 529 C 52.1894 -1.35035 -0.874895 0
M  V30 530 O 53.3814 -1.5931 -0.771322 0
M  V30 531 C 50.5104 -3.21063 -1.21546 0
M  V30 532 C 49.5964 -4.2069 -0.536738 0
M  V30 533 N 49.9874 -5.04218 0.399673 0
M  V30 534 C 48.2854 -4.38961 -0.789254 0
M  V30 535 C 48.9864 -5.76242 0.795017 0
M  V30 536 N 47.9624 -5.434 0.1473 0
M  V30 537 H 51.7644 -2.89146 0.526458 0
M  V30 538 H 49.2784 -1.57664 0.389342 0
M  V30 539 H 51.2754 -3.77209 -1.77536 0
M  V30 540 H 49.9354 -2.60654 -1.93623 0
M  V30 541 H 50.9464 -5.12077 0.774454 0
M  V30 542 H 47.6234 -3.89713 -1.49767 0
M  V30 543 H 49.0134 -6.53417 1.56513 0
M  V30 544 N 51.7335 -0.305618 -1.54608 0
M  V30 545 C 52.6635 0.561482 -2.26649 0
M  V30 546 C 53.6445 1.13415 -1.26772 0
M  V30 547 O 54.8295 1.16262 -1.55553 0
M  V30 548 C 51.9595 1.73122 -3.01075 0
M  V30 549 C 50.9135 1.2887 -4.08138 0
M  V30 550 C 50.2395 2.54396 -4.70305 0
M  V30 551 C 51.5395 0.416578 -5.20636 0
M  V30 552 H 53.2335 -0.0393902 -2.99374 0
M  V30 553 H 50.7795 -0.020385 -1.43986 0
M  V30 554 H 52.7325 2.34396 -3.50195 0
M  V30 555 H 51.4565 2.3584 -2.25936 0
M  V30 556 H 50.1155 0.698991 -3.59875 0
M  V30 557 H 49.7635 3.15439 -3.918 0
M  V30 558 H 49.4635 2.25486 -5.42614 0
M  V30 559 H 50.9875 3.16464 -5.2219 0
M  V30 560 H 52.4015 0.935116 -5.65622 0
M  V30 561 H 50.7985 0.221046 -5.99693 0
M  V30 562 H 51.8685 -0.557162 -4.81688 0
M  V30 563 N 53.2116 1.57565 -0.0334293 0
M  V30 564 C 54.1416 2.13511 0.945265 0
M  V30 565 C 55.1226 1.05231 1.33643 0
M  V30 566 O 56.3076 1.33084 1.41429 0
M  V30 567 C 53.4376 2.6657 2.22616 0
M  V30 568 C 52.3916 3.79676 1.97561 0
M  V30 569 C 51.7176 4.1918 3.31952 0
M  V30 570 C 53.0176 5.0557 1.31135 0
M  V30 571 H 54.7116 2.95538 0.479325 0
M  V30 572 H 52.2576 1.42166 0.229115 0
M  V30 573 H 54.2106 3.04344 2.91466 0
M  V30 574 H 52.9346 1.8171 2.71384 0
M  V30 575 H 51.5936 3.42347 1.31127 0
M  V30 576 H 51.2416 3.31296 3.78487 0
M  V30 577 H 50.9416 4.95402 3.15992 0
M  V30 578 H 52.4656 4.59541 4.02063 0
M  V30 579 H 53.8796 5.40903 1.89992 0
M  V30 580 H 52.2766 5.86818 1.25559 0
M  V30 581 H 53.3466 4.84062 0.284894 0
M  V30 582 N 54.6897 -0.239769 1.55765 0
M  V30 583 C 55.9667 -0.990056 1.68693 0
M  V30 584 C 56.3467 -2.03107 0.5754 0
M  V30 585 O 55.6947 -2.24604 -0.42017 0
M  V30 586 C 55.9047 -1.61696 3.09282 0
M  V30 587 C 57.2527 -2.11613 3.6811 0
M  V30 588 O 58.2767 -1.71624 3.12127 0
M  V30 589 O 57.1357 -2.85057 4.66267 0
M  V30 590 H 54.2297 -0.461299 0.686391 0
M  V30 591 H 56.7757 -0.232991 1.68093 0
M  V30 592 H 55.5477 -0.864357 3.81634 0
M  V30 593 H 55.1707 -2.44005 3.13923 0
M  V30 594 N 56.1678 -1.49265 -0.50573 0
M  V30 595 C 57.5788 -1.51769 -1.08734 0
M  V30 596 C 57.9298 -0.301192 -1.93874 0
M  V30 597 O 57.0548 0.589456 -2.08217 0
M  V30 598 C 57.6498 -2.75017 -1.97867 0
M  V30 599 C 56.2088 -2.80314 -2.51199 0
M  V30 600 C 55.3558 -2.4562 -1.28709 0
M  V30 601 H 58.3068 -1.56031 -0.289855 0
M  V30 602 H 58.3278 -2.5491 -2.82491 0
M  V30 603 H 57.8398 -3.63539 -1.35873 0
M  V30 604 H 55.9408 -1.96061 -3.16845 0
M  V30 605 H 56.0538 -3.82366 -2.88675 0
M  V30 606 H 54.4178 -1.97297 -1.61078 0
M  V30 607 H 55.2008 -3.36411 -0.6843 0
M  V30 608 N 57.6459 0.756429 -1.3826 0
M  V30 609 C 58.8709 1.55077 -1.37717 0
M  V30 610 C 59.2959 1.88073 0.03164 0
M  V30 611 O 58.6539 1.50364 1.01293 0
M  V30 612 C 58.7019 2.8283 -2.23695 0
M  V30 613 O 57.8059 3.77862 -1.6521 0
M  V30 614 H 57.1469 0.469152 -0.469885 0
M  V30 615 H 59.6769 0.935019 -1.81985 0
M  V30 616 H 59.6869 3.31783 -2.37453 0
M  V30 617 H 58.3619 2.58144 -3.2609 0
M  V30 618 H 56.9389 3.36555 -1.60578 0
M  V30 619 N 59.124 1.23083 0.984299 0
M  V30 620 C 60.54 0.992637 1.24975 0
M  V30 621 C 60.74 -0.308618 1.99123 0
M  V30 622 O 59.796 -1.02905 2.30579 0
M  V30 623 C 61.109 2.19698 2.05312 0
M  V30 624 C 62.657 2.24147 2.18465 0
M  V30 625 C 63.132 3.44157 3.02192 0
M  V30 626 N 64.623 3.44372 3.09777 0
M  V30 627 C 65.358 4.33886 3.74874 0
M  V30 628 N 64.854 5.3363 4.41827 0
M  V30 629 N 66.647 4.21639 3.71721 0
M  V30 630 H 58.798 2.06731 0.487453 0
M  V30 631 H 61.061 0.906339 0.277944 0
M  V30 632 H 60.767 3.1411 1.58201 0
M  V30 633 H 60.641 2.20465 3.06064 0
M  V30 634 H 63.028 1.30277 2.64786 0
M  V30 635 H 63.109 2.27415 1.17115 0
M  V30 636 H 62.753 4.38332 2.56568 0
M  V30 637 H 62.683 3.3813 4.03702 0
M  V30 638 H 65.174 2.72201 2.62135 0
M  V30 639 H 65.487 5.98196 4.89266 0
M  V30 640 H 63.832 5.37534 4.40548 0
M  V30 641 H 67.023 3.42962 3.18582 0
M  V30 642 H 67.196 4.91604 4.22173 0
M  V30 643 N 60.6021 -1.18246 1.0419 0
M  V30 644 C 61.8321 -1.91916 0.764961 0
M  V30 645 C 62.2401 -1.76485 -0.681898 0
M  V30 646 O 61.5831 -1.09275 -1.47664 0
M  V30 647 C 61.6451 -3.4373 1.05309 0
M  V30 648 C 61.3091 -3.8294 2.4941 0
M  V30 649 C 62.3061 -3.86621 3.47592 0
M  V30 650 C 59.9911 -4.142 2.84155 0
M  V30 651 C 61.9851 -4.21013 4.78568 0
M  V30 652 C 59.6721 -4.48262 4.15337 0
M  V30 653 C 60.6701 -4.51645 5.12353 0
M  V30 654 O 60.3581 -4.84911 6.41183 0
M  V30 655 H 60.0901 -0.61606 0.278292 0
M  V30 656 H 62.6441 -1.50947 1.39299 0
M  V30 657 H 60.8741 -3.84946 0.367933 0
M  V30 658 H 62.5631 -3.9865 0.763752 0
M  V30 659 H 63.3291 -3.62607 3.22089 0
M  V30 660 H 59.2081 -4.10743 2.09311 0
M  V30 661 H 62.7521 -4.23568 5.54289 0
M  V30 662 H 58.6491 -4.71737 4.40607 0
M  V30 663 H 59.4171 -5.02809 6.45852 0
M  V30 664 N 62.0802 -0.821533 -1.34494 0
M  V30 665 C 63.0282 -0.230702 -2.31453 0
M  V30 666 C 64.0222 0.627793 -1.57338 0
M  V30 667 O 65.2282 0.519288 -1.72347 0
M  V30 668 H 61.6032 -0.0558577 -0.749923 0
M  V30 669 H 63.5742 -1.06332 -2.78812 0
M  V30 670 C 62.3232 0.59391 -3.4259 0
M  V30 671 H 61.6462 -0.0573588 -3.99759 0
M  V30 672 H 63.0862 0.973446 -4.12674 0
M  V30 673 C 61.5452 1.76568 -2.86924 0
M  V30 674 O 62.0752 2.8638 -2.81691 0
M  V30 675 N 60.2812 1.58198 -2.43766 0
M  V30 676 H 59.8282 0.68872 -2.48222 0
M  V30 677 H 59.7862 2.36752 -2.06871 0
M  V30 678 N 63.5583 1.46682 -0.576371 0
M  V30 679 C 64.5053 2.30241 0.160499 0
M  V30 680 C 65.4753 1.40233 0.890162 0
M  V30 681 O 66.6603 1.69186 0.882084 0
M  V30 682 C 63.8003 3.24578 1.1723 0
M  V30 683 C 62.9133 4.29684 0.446736 0
M  V30 684 C 62.0483 5.11154 1.44551 0
M  V30 685 C 61.0873 6.08015 0.70599 0
M  V30 686 N 60.2243 6.82376 1.65251 0
M  V30 687 H 65.0643 2.92727 -0.558127 0
M  V30 688 H 62.6013 1.44272 -0.287056 0
M  V30 689 H 64.5593 3.77711 1.77172 0
M  V30 690 H 63.1893 2.63916 1.85872 0
M  V30 691 H 62.2413 3.79458 -0.267594 0
M  V30 692 H 63.5533 4.98626 -0.131686 0
M  V30 693 H 62.7073 5.68533 2.11791 0
M  V30 694 H 61.4463 4.42158 2.05786 0
M  V30 695 H 60.4513 5.49796 0.0197725 0
M  V30 696 H 61.6763 6.79028 0.09912 0
M  V30 697 H 59.6223 6.16094 2.25308 0
M  V30 698 H 59.5393 7.47556 1.12673 0
M  V30 699 H 60.8073 7.44316 2.31546 0
M  V30 700 N 65.0364 0.313813 1.54444 0
M  V30 701 C 65.9664 -0.549454 2.26943 0
M  V30 702 C 66.9474 -1.12741 1.27372 0
M  V30 703 O 68.1324 -1.15436 1.56167 0
M  V30 704 C 65.2624 -1.71523 3.01989 0
M  V30 705 C 64.2164 -1.26703 4.08816 0
M  V30 706 C 63.5424 -2.51898 4.71647 0
M  V30 707 C 64.8424 -0.388962 5.2085 0
M  V30 708 H 66.5364 0.0552661 2.99349 0
M  V30 709 H 64.0824 0.0280207 1.43973 0
M  V30 710 H 66.0354 -2.32535 3.51433 0
M  V30 711 H 64.7594 -2.34639 2.27183 0
M  V30 712 H 63.4184 -0.679896 3.6024 0
M  V30 713 H 63.0664 -3.13356 3.93468 0
M  V30 714 H 62.7664 -2.22605 5.43802 0
M  V30 715 H 64.2904 -3.1369 5.23861 0
M  V30 716 H 65.7044 -0.905107 5.6611 0
M  V30 717 H 64.1014 -0.18924 5.99802 0
M  V30 718 H 65.1714 0.582699 4.81386 0
M  V30 719 N 66.5145 -1.57545 0.0417849 0
M  V30 720 C 67.7635 -1.91494 -0.633492 0
M  V30 721 C 68.0765 -0.921084 -1.72556 0
M  V30 722 O 69.2825 -1.15228 -2.45835 0
M  V30 723 C 67.7385 -3.40072 -1.17808 0
M  V30 724 C 67.3465 -4.47843 -0.118633 0
M  V30 725 C 69.0905 -3.8307 -1.82915 0
M  V30 726 C 66.9975 -5.87529 -0.675578 0
M  V30 727 H 65.9275 -0.714653 -0.24039 0
M  V30 728 H 68.5785 -1.83175 0.109148 0
M  V30 729 H 66.9605 -3.43364 -1.97274 0
M  V30 730 H 68.1345 -4.56128 0.654494 0
M  V30 731 H 66.4495 -4.14128 0.434414 0
M  V30 732 H 69.0465 -4.84794 -2.25563 0
M  V30 733 H 69.3895 -3.1881 -2.67705 0
M  V30 734 H 69.9225 -3.82255 -1.10119 0
M  V30 735 H 66.6615 -6.55362 0.134475 0
M  V30 736 H 66.1815 -5.82824 -1.4169 0
M  V30 737 H 67.8605 -6.36491 -1.1614 0
M  V30 738 N 67.9926 0.231505 -1.5589 0
M  V30 739 C 69.4086 0.580748 -1.48659 0
M  V30 740 C 69.6086 1.87617 -0.73498 0
M  V30 741 O 68.6646 2.51046 -0.270586 0
M  V30 742 C 69.9776 0.669202 -2.93159 0
M  V30 743 C 71.5256 0.760499 -3.03621 0
M  V30 744 C 72.0006 0.880383 -4.49459 0
M  V30 745 N 73.4916 0.944861 -4.53461 0
M  V30 746 C 74.2266 1.05716 -5.63571 0
M  V30 747 N 73.7226 1.13403 -6.83456 0
M  V30 748 N 75.5156 1.09152 -5.514 0
M  V30 749 H 67.6666 -0.618695 -2.03189 0
M  V30 750 H 69.9296 -0.215728 -0.923128 0
M  V30 751 H 69.6356 -0.212904 -3.51055 0
M  V30 752 H 69.5096 1.5361 -3.44505 0
M  V30 753 H 71.8966 1.63305 -2.45796 0
M  V30 754 H 71.9776 -0.131864 -2.5546 0
M  V30 755 H 71.6216 0.0123284 -5.07899 0
M  V30 756 H 71.5516 1.78802 -4.95316 0
M  V30 757 H 74.0426 0.896176 -3.6712 0
M  V30 758 H 74.3556 1.21921 -7.63122 0
M  V30 759 H 72.7006 1.10333 -6.86186 0
M  V30 760 H 75.8916 1.02805 -4.56671 0
M  V30 761 H 76.0646 1.17558 -6.37247 0
M  V30 762 N 69.4707 1.49531 0.497807 0
M  V30 763 C 70.8817 1.52344 1.07927 0
M  V30 764 C 71.2327 0.311469 1.93712 0
M  V30 765 O 70.3577 -0.578405 2.08527 0
M  V30 766 C 70.9527 2.76062 1.96405 0
M  V30 767 C 69.5117 2.81643 2.49709 0
M  V30 768 C 68.6587 2.46299 1.27404 0
M  V30 769 H 71.6097 1.56182 0.281576 0
M  V30 770 H 71.6307 2.56405 2.81135 0
M  V30 771 H 71.1427 3.64254 1.33943 0
M  V30 772 H 69.2437 1.97739 3.15801 0
M  V30 773 H 69.3567 3.83891 2.86643 0
M  V30 774 H 67.7207 1.98148 1.60029 0
M  V30 775 H 68.5037 3.36769 0.66645 0
M  V30 776 N 70.9488 -0.749086 1.3866 0
M  V30 777 C 71.9118 -1.84457 1.36045 0
M  V30 778 C 72.9118 -1.58682 0.260122 0
M  V30 779 O 74.1018 -1.66343 0.517261 0
M  V30 780 C 71.2338 -3.22008 1.11911 0
M  V30 781 H 72.4268 -1.88182 2.33512 0
M  V30 782 H 69.9798 -0.951266 1.24019 0
M  V30 783 H 70.7148 -3.2395 0.150686 0
M  V30 784 H 70.4998 -3.42111 1.91579 0
M  V30 785 H 71.9898 -4.0208 1.12788 0
M  V30 786 N 72.4269 -1.23603 -0.977757 0
M  V30 787 C 73.6549 -1.09646 -1.75458 0
M  V30 788 C 74.0699 0.351859 -1.85492 0
M  V30 789 O 73.4269 1.24327 -1.336 0
M  V30 790 C 73.4779 -1.71895 -3.18016 0
M  V30 791 O 73.1989 -3.11063 -3.08498 0
M  V30 792 C 74.6999 -1.63415 -4.12081 0
M  V30 793 H 71.9199 -0.38359 -0.550545 0
M  V30 794 H 74.4639 -1.63507 -1.22824 0
M  V30 795 H 72.6189 -1.22061 -3.67668 0
M  V30 796 H 73.0329 -3.41305 -3.9826 0
M  V30 797 H 74.5069 -2.11669 -5.09804 0
M  V30 798 H 74.9839 -0.593462 -4.35172 0
M  V30 799 H 75.5899 -2.12628 -3.68334 0
M  V30 800 N 73.905 1.17692 -1.04816 0
M  V30 801 C 74.853 2.23632 -0.63966 0
M  V30 802 C 75.847 1.6601 0.337219 0
M  V30 803 O 77.053 1.78844 0.203693 0
M  V30 804 H 73.428 0.727949 -0.188665 0
M  V30 805 H 75.399 2.55387 -1.54337 0
M  V30 806 C 74.148 3.4769 -0.0264051 0
M  V30 807 H 73.471 3.92331 -0.769164 0
M  V30 808 H 74.911 4.23418 0.222098 0
M  V30 809 C 73.37 3.13807 1.22584 0
M  V30 810 O 73.9 3.28236 2.31569 0
M  V30 811 N 72.106 2.68065 1.12202 0
M  V30 812 H 71.653 2.56525 0.235133 0
M  V30 813 H 71.611 2.45767 1.96076 0
M  V30 814 N 75.3831 0.828654 1.34056 0
M  V30 815 C 76.6311 0.41863 1.97717 0
M  V30 816 C 76.9521 -1.02314 1.66002 0
M  V30 817 O 76.2221 -1.71119 0.953683 0
M  V30 818 H 74.8021 0.151809 0.731412 0
M  V30 819 H 77.4641 1.05936 1.63596 0
M  V30 820 H 76.5601 0.542318 3.07352 0
M  V30 821 N 76.8612 -1.46375 0.584142 0
M  V30 822 C 78.0862 -2.07268 0.0740405 0
M  V30 823 C 78.5112 -1.42979 -1.22223 0
M  V30 824 O 77.8692 -0.514092 -1.73859 0
M  V30 825 C 77.9172 -3.60518 -0.0767769 0
M  V30 826 O 77.0212 -3.96533 -1.13292 0
M  V30 827 H 76.3622 -0.660961 0.0634524 0
M  V30 828 H 78.8922 -1.87991 0.807492 0
M  V30 829 H 78.9022 -4.07021 -0.282489 0
M  V30 830 H 77.5772 -4.06702 0.86986 0
M  V30 831 H 76.1542 -3.61738 -0.905553 0
M  V30 832 N 78.3393 -0.321999 -1.54275 0
M  V30 833 C 79.2493 0.553631 -2.27974 0
M  V30 834 C 80.2653 1.13054 -1.32268 0
M  V30 835 O 81.4413 1.15084 -1.6528 0
M  V30 836 C 78.5063 1.69927 -3.02201 0
M  V30 837 C 77.5673 1.15433 -4.1349 0
M  V30 838 C 76.8003 2.24537 -4.84168 0
M  V30 839 O 77.0233 3.44852 -4.5435 0
M  V30 840 O 75.9573 1.90044 -5.7111 0
M  V30 841 H 79.7833 -0.0448345 -3.03667 0
M  V30 842 H 77.3683 -0.0877418 -1.49142 0
M  V30 843 H 79.2503 2.3663 -3.48689 0
M  V30 844 H 77.9253 2.28395 -2.29385 0
M  V30 845 H 76.8323 0.452436 -3.71354 0
M  V30 846 H 78.1653 0.614805 -4.88345 0
M  V30 847 N 79.8174 1.5752 -0.0501392 0
M  V30 848 C 80.7474 2.14502 0.922566 0
M  V30 849 C 81.7284 1.06642 1.3252 0
M  V30 850 O 82.9134 1.34577 1.4001 0
M  V30 851 C 80.0434 2.68916 2.19776 0
M  V30 852 C 78.9974 3.8175 1.93523 0
M  V30 853 C 78.3234 4.22677 3.27487 0
M  V30 854 C 79.6234 5.06932 1.25765 0
M  V30 855 H 81.3174 2.9603 0.447952 0
M  V30 856 H 78.8634 1.42401 0.214024 0
M  V30 857 H 80.8164 3.07419 2.88222 0
M  V30 858 H 79.5404 1.84578 2.69441 0
M  V30 859 H 78.1994 3.43718 1.27489 0
M  V30 860 H 77.8474 3.35291 3.74952 0
M  V30 861 H 77.5474 4.98725 3.1072 0
M  V30 862 H 79.0714 4.63779 3.97166 0
M  V30 863 H 80.4854 5.42888 1.84244 0
M  V30 864 H 78.8824 5.88116 1.19328 0
M  V30 865 H 79.9524 4.84337 0.233536 0
M  V30 866 N 81.2955 -0.223234 1.56011 0
M  V30 867 C 82.5415 -0.949279 1.79211 0
M  V30 868 C 82.8745 -1.84054 0.619494 0
M  V30 869 O 82.1495 -1.90726 -0.381317 0
M  V30 870 C 82.4325 -1.78965 3.12479 0
M  V30 871 C 82.2855 -0.924997 4.40186 0
M  V30 872 C 83.6045 -2.76774 3.42175 0
M  V30 873 H 80.7235 -0.343676 0.651963 0
M  V30 874 H 83.3655 -0.218253 1.88742 0
M  V30 875 H 81.5155 -2.41291 3.04485 0
M  V30 876 H 83.1875 -0.318615 4.60198 0
M  V30 877 H 81.4305 -0.230344 4.33188 0
M  V30 878 H 82.1015 -1.54735 5.29869 0
M  V30 879 H 84.5775 -2.24584 3.50287 0
M  V30 880 H 83.4535 -3.32678 4.36597 0
M  V30 881 H 83.7145 -3.54429 2.64258 0
M  V30 882 N 82.7736 -1.49793 -0.48987 0
M  V30 883 C 84.0016 -1.63568 -1.26701 0
M  V30 884 C 84.4166 -0.311465 -1.86213 0
M  V30 885 O 83.7736 0.704416 -1.68357 0
M  V30 886 C 83.8246 -2.71284 -2.38929 0
M  V30 887 O 83.5456 -3.9857 -1.81861 0
M  V30 888 C 85.0466 -2.95864 -3.3012 0
M  V30 889 H 82.2666 -0.550342 -0.383881 0
M  V30 890 H 84.8106 -1.95898 -0.586864 0
M  V30 891 H 82.9656 -2.417 -3.02753 0
M  V30 892 H 83.3796 -4.57993 -2.55622 0
M  V30 893 H 84.8536 -3.74941 -4.05121 0
M  V30 894 H 85.3306 -2.06206 -3.87783 0
M  V30 895 H 85.9366 -3.26907 -2.72051 0
M  V30 896 N 84.2517 0.741722 -1.39055 0
M  V30 897 C 85.4977 1.50336 -1.36113 0
M  V30 898 C 85.8307 1.94148 0.0450796 0
M  V30 899 O 85.1057 1.66301 1.00868 0
M  V30 900 C 85.3887 2.74773 -2.32749 0
M  V30 901 C 85.2417 2.37023 -3.82283 0
M  V30 902 C 86.5607 3.76846 -2.27322 0
M  V30 903 H 83.6797 0.545351 -0.495743 0
M  V30 904 H 86.3217 0.848624 -1.69995 0
M  V30 905 H 84.4717 3.30639 -2.03986 0
M  V30 906 H 86.1437 1.8684 -4.21768 0
M  V30 907 H 84.3867 1.69334 -3.99385 0
M  V30 908 H 85.0577 3.26104 -4.45376 0
M  V30 909 H 87.5337 3.30548 -2.5274 0
M  V30 910 H 86.4097 4.6159 -2.97028 0
M  V30 911 H 86.6707 4.23286 -1.27599 0
M  V30 912 N 85.7298 1.2412 0.971189 0
M  V30 913 C 86.6618 0.988349 2.06795 0
M  V30 914 C 87.6748 -0.0409541 1.62748 0
M  V30 915 O 88.8638 0.195673 1.77424 0
M  V30 916 C 85.9638 0.469023 3.35639 0
M  V30 917 C 85.1368 1.56065 4.08611 0
M  V30 918 C 84.1958 1.04458 5.15728 0
M  V30 919 O 83.2218 1.73553 5.42096 0
M  V30 920 N 84.4238 -0.122817 5.8037 0
M  V30 921 H 87.1888 1.93265 2.29061 0
M  V30 922 H 84.7498 1.15102 1.13856 0
M  V30 923 H 86.7418 0.108613 4.04554 0
M  V30 924 H 85.3118 -0.380919 3.1027 0
M  V30 925 H 84.5318 2.09341 3.34021 0
M  V30 926 H 85.8198 2.29449 4.54126 0
M  V30 927 H 85.2178 -0.700563 5.61345 0
M  V30 928 H 83.7748 -0.424404 6.50417 0
M  V30 929 N 87.2079 -1.17134 1.05439 0
M  V30 930 C 88.1379 -2.2342 0.678649 0
M  V30 931 C 89.1189 -1.66971 -0.32476 0
M  V30 932 O 90.3039 -1.93149 -0.201802 0
M  V30 933 C 87.4339 -3.47256 0.0552099 0
M  V30 934 C 86.3879 -4.16543 0.98365 0
M  V30 935 C 85.7139 -5.34231 0.223961 0
M  V30 936 C 87.0139 -4.68495 2.3089 0
M  V30 937 H 88.7079 -2.55105 1.56722 0
M  V30 938 H 86.2539 -1.2262 0.754998 0
M  V30 939 H 88.2069 -4.20828 -0.21946 0
M  V30 940 H 86.9309 -3.14846 -0.868319 0
M  V30 941 H 85.5899 -3.44887 1.24293 0
M  V30 942 H 85.2379 -4.98071 -0.702412 0
M  V30 943 H 84.9379 -5.81527 0.842627 0
M  V30 944 H 86.4619 -6.10585 -0.0433671 0
M  V30 945 H 87.8759 -5.33691 2.09396 0
M  V30 946 H 86.2729 -5.26379 2.88176 0
M  V30 947 H 87.3429 -3.85169 2.94572 0
M  V30 948 N 88.686 -0.835752 -1.33615 0
M  V30 949 C 89.619 -0.211815 -2.27215 0
M  V30 950 C 90.597 0.639249 -1.49507 0
M  V30 951 O 91.781 0.600193 -1.78689 0
M  V30 952 C 88.908 0.702893 -3.31326 0
M  V30 953 C 87.954 -0.0723049 -4.26439 0
M  V30 954 S 88.787 -1.42811 -5.16106 0
M  V30 955 C 89.943 -0.518613 -6.23748 0
M  V30 956 H 90.176 -1.00533 -2.79786 0
M  V30 957 H 87.709 -0.632336 -1.40858 0
M  V30 958 H 89.667 1.22505 -3.91794 0
M  V30 959 H 88.328 1.47004 -2.77576 0
M  V30 960 H 87.521 0.62359 -5.00127 0
M  V30 961 H 87.123 -0.525424 -3.70291 0
M  V30 962 H 89.415 0.284778 -6.76901 0
M  V30 963 H 90.358 -1.22556 -6.97413 0
M  V30 964 H 90.766 -0.101344 -5.64409 0
M  V30 965 N 90.1641 1.46063 -0.591896 0
M  V30 966 C 91.4101 2.02638 -0.0811191 0
M  V30 967 C 91.7431 1.4613 1.27905 0
M  V30 968 O 91.0181 0.629908 1.84017 0
M  V30 969 C 91.3011 3.60091 -0.0252436 0
M  V30 970 C 91.1541 4.26965 -1.41496 0
M  V30 971 C 92.4731 4.3496 0.670685 0
M  V30 972 H 89.5921 0.73635 -0.0309524 0
M  V30 973 H 92.2341 1.741 -0.760859 0
M  V30 974 H 90.3841 3.84535 0.553624 0
M  V30 975 H 92.0561 4.13756 -2.0397 0
M  V30 976 H 90.2991 3.85971 -1.98011 0
M  V30 977 H 90.9701 5.35781 -1.32825 0
M  V30 978 H 93.4461 4.15716 0.178825 0
M  V30 979 H 92.3221 5.44686 0.678837 0
M  V30 980 H 92.5831 4.06685 1.73379 0
M  V30 981 N 91.6422 0.330177 1.54103 0
M  V30 982 C 92.8672 -0.274893 2.0557 0
M  V30 983 C 93.2922 -1.44487 1.20437 0
M  V30 984 O 92.6502 -1.80021 0.214991 0
M  V30 985 C 92.6982 -0.68079 3.54115 0
M  V30 986 O 91.8022 -1.7824 3.71893 0
M  V30 987 H 91.1432 -0.0483849 0.662235 0
M  V30 988 H 93.6732 0.480508 1.98878 0
M  V30 989 H 93.6832 -0.961635 3.96505 0
M  V30 990 H 92.3582 0.174903 4.15532 0
M  V30 991 H 90.9352 -1.49985 3.41407 0
M  V30 992 N 93.1203 -1.57491 0.0584922 0
M  V30 993 C 94.0503 -2.14988 -0.911178 0
M  V30 994 C 95.0313 -1.07343 -1.31952 0
M  V30 995 O 96.2163 -1.35318 -1.39294 0
M  V30 996 C 93.3463 -2.70078 -2.18347 0
M  V30 997 C 92.3003 -3.82771 -1.91495 0
M  V30 998 C 91.6263 -4.24408 -3.25241 0
M  V30 999 C 92.9263 -5.07592 -1.23075 0
M  V30 1000 H 94.6203 -2.96263 -0.432246 0
M  V30 1001 H 92.1663 -1.42512 -0.206469 0
M  V30 1002 H 94.1193 -3.08943 -2.86587 0
M  V30 1003 H 92.8433 -1.86005 -2.68458 0
M  V30 1004 H 91.5023 -3.44389 -1.25664 0
M  V30 1005 H 91.1503 -3.37275 -3.73168 0
M  V30 1006 H 90.8503 -5.00366 -3.08071 0
M  V30 1007 H 92.3743 -4.65879 -3.94701 0
M  V30 1008 H 93.7883 -5.43857 -1.81362 0
M  V30 1009 H 92.1853 -5.88741 -1.16207 0
M  V30 1010 H 93.2553 -4.84454 -0.207847 0
M  V30 1011 N 94.5984 0.214957 -1.56127 0
M  V30 1012 C 95.5614 1.24997 -1.92116 0
M  V30 1013 C 96.5614 1.39467 -0.800344 0
M  V30 1014 O 97.7514 1.37619 -1.06802 0
M  V30 1015 C 94.8834 2.62271 -2.17777 0
M  V30 1016 H 96.0764 0.942875 -2.84693 0
M  V30 1017 H 93.6294 0.455654 -1.49511 0
M  V30 1018 H 94.3644 2.98068 -1.27773 0
M  V30 1019 H 94.1494 2.53143 -2.99434 0
M  V30 1020 H 95.6394 3.36946 -2.46693 0
M  V30 1021 N 96.0765 1.50051 0.48192 0
M  V30 1022 C 97.0085 1.64263 1.59844 0
M  V30 1023 C 98.0215 0.52451 1.54119 0
M  V30 1024 O 99.2105 0.797293 1.59704 0
M  V30 1025 C 96.3105 1.60102 2.98698 0
M  V30 1026 C 95.4835 2.87767 3.29407 0
M  V30 1027 C 94.5425 2.76397 4.47762 0
M  V30 1028 O 93.5685 3.50348 4.48603 0
M  V30 1029 N 94.7705 1.89222 5.48794 0
M  V30 1030 H 97.5355 2.60566 1.48073 0
M  V30 1031 H 95.0965 1.47379 0.670149 0
M  V30 1032 H 97.0885 1.50123 3.75826 0
M  V30 1033 H 95.6585 0.715798 3.04294 0
M  V30 1034 H 94.8785 3.11954 2.40994 0
M  V30 1035 H 96.1665 3.72365 3.4673 0
M  V30 1036 H 95.5645 1.28434 5.50928 0
M  V30 1037 H 94.1215 1.85154 6.24949 0
M  V30 1038 N 97.5546 -0.734337 1.39446 0
M  V30 1039 C 98.4846 -1.86155 1.40955 0
M  V30 1040 C 99.4656 -1.67898 0.272827 0
M  V30 1041 O 100.651 -1.88207 0.478743 0
M  V30 1042 C 97.7806 -3.23912 1.25294 0
M  V30 1043 C 96.7346 -3.56808 2.36373 0
M  V30 1044 C 96.0606 -4.93508 2.058 0
M  V30 1045 C 97.3606 -3.59713 3.78687 0
M  V30 1046 H 99.0546 -1.8515 2.35287 0
M  V30 1047 H 96.6006 -0.889367 1.13253 0
M  V30 1048 H 98.5536 -4.02443 1.2497 0
M  V30 1049 H 97.2776 -3.25446 0.274308 0
M  V30 1050 H 95.9366 -2.80606 2.35914 0
M  V30 1051 H 95.5846 -4.91623 1.06374 0
M  V30 1052 H 95.2846 -5.16486 2.80208 0
M  V30 1053 H 96.8086 -5.74396 2.07128 0
M  V30 1054 H 98.2226 -4.2832 3.81071 0
M  V30 1055 H 96.6196 -3.94209 4.52459 0
M  V30 1056 H 97.6896 -2.59504 4.09617 0
M  V30 1057 N 99.0327 -1.24633 -0.964593 0
M  V30 1058 C 100.282 -1.08188 -1.7023 0
M  V30 1059 C 100.595 0.37873 -1.91898 0
M  V30 1060 O 101.801 0.663427 -2.6327 0
M  V30 1061 C 100.257 -1.88773 -3.06419 0
M  V30 1062 C 99.8647 -3.39263 -2.92582 0
M  V30 1063 C 101.609 -1.80867 -3.84041 0
M  V30 1064 C 99.5157 -4.1218 -4.24101 0
M  V30 1065 H 98.4457 -0.401245 -0.638372 0
M  V30 1066 H 101.097 -1.48742 -1.07462 0
M  V30 1067 H 99.4787 -1.41035 -3.70034 0
M  V30 1068 H 100.653 -3.94603 -2.37961 0
M  V30 1069 H 98.9677 -3.48154 -2.28424 0
M  V30 1070 H 101.565 -2.32646 -4.81435 0
M  V30 1071 H 101.908 -0.774543 -4.09031 0
M  V30 1072 H 102.441 -2.26301 -3.27159 0
M  V30 1073 H 99.1797 -5.15965 -4.04303 0
M  V30 1074 H 98.6997 -3.61626 -4.78526 0
M  V30 1075 H 100.379 -4.19349 -4.92702 0
M  V30 1076 N 100.511 1.16574 -1.06058 0
M  V30 1077 C 101.736 1.91493 -0.796562 0
M  V30 1078 C 102.161 1.76773 0.642868 0
M  V30 1079 O 101.519 1.09142 1.44768 0
M  V30 1080 C 101.567 3.40293 -1.19303 0
M  V30 1081 O 100.671 4.11074 -0.330394 0
M  V30 1082 H 100.012 0.596678 -0.291326 0
M  V30 1083 H 102.542 1.47708 -1.41575 0
M  V30 1084 H 102.552 3.91057 -1.16356 0
M  V30 1085 H 101.227 3.50326 -2.24153 0
M  V30 1086 H 99.8038 3.70513 -0.421225 0
M  V30 1087 N 101.989 0.842826 1.3317 0
M  V30 1088 C 103.235 0.441099 1.97945 0
M  V30 1089 C 103.568 -0.998024 1.66593 0
M  V30 1090 O 102.843 -1.69839 0.947898 0
M  V30 1091 C 103.126 0.666841 3.53872 0
M  V30 1092 C 102.979 2.15352 3.94897 0
M  V30 1093 C 104.298 0.115544 4.39948 0
M  V30 1094 H 101.417 0.161739 0.719034 0
M  V30 1095 H 104.059 1.05907 1.57746 0
M  V30 1096 H 102.209 0.140828 3.88245 0
M  V30 1097 H 103.881 2.7447 3.70761 0
M  V30 1098 H 102.124 2.63653 3.44484 0
M  V30 1099 H 102.795 2.26221 5.03516 0
M  V30 1100 H 105.271 0.565213 4.12243 0
M  V30 1101 H 104.147 0.303152 5.48062 0
M  V30 1102 H 104.408 -0.980935 4.3108 0
M  V30 1103 N 103.467 -1.45747 0.599634 0
M  V30 1104 C 104.417 -2.27538 -0.145107 0
M  V30 1105 C 105.401 -1.3686 -0.846055 0
M  V30 1106 O 106.593 -1.6091 -0.737357 0
M  V30 1107 C 103.722 -3.23569 -1.14708 0
M  V30 1108 C 102.808 -4.21734 -0.447383 0
M  V30 1109 N 103.199 -5.03257 0.506535 0
M  V30 1110 C 101.497 -4.40536 -0.695966 0
M  V30 1111 C 102.198 -5.74426 0.917068 0
M  V30 1112 N 101.174 -5.42966 0.26253 0
M  V30 1113 H 104.976 -2.87965 0.587672 0
M  V30 1114 H 102.49 -1.56803 0.422697 0
M  V30 1115 H 104.487 -3.8089 -1.69495 0
M  V30 1116 H 103.147 -2.64702 -1.8805 0
M  V30 1117 H 104.158 -5.10319 0.882899 0
M  V30 1118 H 100.835 -3.92802 -1.41467 0
M  V30 1119 H 102.225 -6.4995 1.70338 0
M  V30 1120 N 104.945 -0.338344 -1.53925 0
M  V30 1121 C 105.855 0.529421 -2.28548 0
M  V30 1122 C 106.871 1.11645 -1.3346 0
M  V30 1123 O 108.047 1.13325 -1.66492 0
M  V30 1124 C 105.112 1.66713 -3.03987 0
M  V30 1125 C 104.173 1.11041 -4.14691 0
M  V30 1126 C 103.406 2.19389 -4.86522 0
M  V30 1127 O 103.629 3.40013 -4.57982 0
M  V30 1128 O 102.563 1.83976 -5.73094 0
M  V30 1129 H 106.389 -0.0770399 -3.03602 0
M  V30 1130 H 103.974 -0.103555 -1.49041 0
M  V30 1131 H 105.856 2.32918 -3.5118 0
M  V30 1132 H 104.531 2.25949 -2.31794 0
M  V30 1133 H 103.438 0.413024 -3.71813 0
M  V30 1134 H 104.771 0.562975 -4.8897 0
M  V30 1135 N 106.423 1.57458 -0.0668435 0
M  V30 1136 C 107.839 1.56947 0.289772 0
M  V30 1137 C 108.039 1.07584 1.70376 0
M  V30 1138 O 107.095 0.739486 2.41429 0
M  V30 1139 C 108.408 3.0052 0.103943 0
M  V30 1140 C 109.956 3.12517 0.173857 0
M  V30 1141 C 110.431 4.57997 0.0163682 0
M  V30 1142 N 111.922 4.63144 0.0721352 0
M  V30 1143 C 112.657 5.73394 -0.0253794 0
M  V30 1144 N 112.153 6.92576 -0.176133 0
M  V30 1145 N 113.946 5.62091 0.0313305 0
M  V30 1146 H 106.097 1.87863 -0.991027 0
M  V30 1147 H 108.36 0.86583 -0.38606 0
M  V30 1148 H 108.066 3.40729 -0.871572 0
M  V30 1149 H 107.94 3.67304 0.858366 0
M  V30 1150 H 110.327 2.72197 1.13985 0
M  V30 1151 H 110.408 2.48381 -0.611586 0
M  V30 1152 H 110.052 4.99005 -0.946374 0
M  V30 1153 H 109.982 5.20158 0.821153 0
M  V30 1154 H 112.473 3.77436 0.187263 0
M  V30 1155 H 112.786 7.72418 -0.242821 0
M  V30 1156 H 111.131 6.94678 -0.211429 0
M  V30 1157 H 114.322 4.67867 0.147773 0
M  V30 1158 H 114.495 6.47982 -0.048121 0
M  V30 1159 N 107.901 -0.206675 1.56239 0
M  V30 1160 C 108.811 -1.27686 1.96808 0
M  V30 1161 C 109.827 -1.50455 0.874035 0
M  V30 1162 O 111.003 -1.63295 1.17884 0
M  V30 1163 C 108.068 -2.60358 2.28942 0
M  V30 1164 C 107.129 -2.45762 3.51994 0
M  V30 1165 C 106.362 -3.72108 3.82585 0
M  V30 1166 O 106.585 -4.75776 3.14631 0
M  V30 1167 O 105.519 -3.6833 4.76043 0
M  V30 1168 H 109.345 -0.962593 2.88041 0
M  V30 1169 H 106.93 -0.410746 1.43643 0
M  V30 1170 H 108.812 -3.38687 2.50737 0
M  V30 1171 H 107.487 -2.91435 1.4088 0
M  V30 1172 H 106.394 -1.65584 3.35459 0
M  V30 1173 H 107.727 -2.19621 4.40486 0
M  V30 1174 N 109.379 -1.50304 -0.473955 0
M  V30 1175 C 110.311 -1.65109 -1.58971 0
M  V30 1176 C 111.324 -0.532676 -1.53839 0
M  V30 1177 O 112.513 -0.805751 -1.59279 0
M  V30 1178 C 109.613 -1.61684 -2.97845 0
M  V30 1179 C 108.786 -2.8951 -3.27876 0
M  V30 1180 C 107.845 -2.78768 -4.4629 0
M  V30 1181 O 106.871 -3.52722 -4.46739 0
M  V30 1182 N 108.073 -1.9213 -5.47783 0
M  V30 1183 H 110.838 -2.61347 -1.46689 0
M  V30 1184 H 108.399 -1.47732 -0.662324 0
M  V30 1185 H 110.391 -1.52114 -3.75024 0
M  V30 1186 H 108.961 -0.731925 -3.03911 0
M  V30 1187 H 108.181 -3.13228 -2.39336 0
M  V30 1188 H 109.469 -3.74199 -3.4475 0
M  V30 1189 H 108.867 -1.31353 -5.50239 0
M  V30 1190 H 107.424 -1.88466 -6.23958 0
M  V30 1191 N 110.857 0.726932 -1.39834 0
M  V30 1192 C 112.106 1.48214 -1.36805 0
M  V30 1193 C 112.419 1.95576 0.0305291 0
M  V30 1194 O 113.625 2.7088 0.183417 0
M  V30 1195 C 112.081 2.67854 -2.40379 0
M  V30 1196 C 111.689 2.27408 -3.85992 0
M  V30 1197 C 113.433 3.45641 -2.46439 0
M  V30 1198 C 111.34 3.43819 -4.81189 0
M  V30 1199 H 110.27 0.556606 -0.508631 0
M  V30 1200 H 112.921 0.792216 -1.65518 0
M  V30 1201 H 111.303 3.3896 -2.04749 0
M  V30 1202 H 112.477 1.63795 -4.30706 0
M  V30 1203 H 110.792 1.62692 -3.83302 0
M  V30 1204 H 113.389 4.32244 -3.14753 0
M  V30 1205 H 113.732 3.88669 -1.49139 0
M  V30 1206 H 114.265 2.8157 -2.81004 0
M  V30 1207 H 111.004 3.05834 -5.79781 0
M  V30 1208 H 110.524 4.06385 -4.41148 0
M  V30 1209 H 112.203 4.10043 -5.00474 0
M  V30 1210 N 112.336 1.25143 0.95797 0
M  V30 1211 C 113.269 0.995565 2.05338 0
M  V30 1212 C 114.247 -0.0740423 1.62431 0
M  V30 1213 O 115.431 0.0649212 1.88388 0
M  V30 1214 C 112.558 0.504298 3.34925 0
M  V30 1215 C 111.604 1.56393 3.96792 0
M  V30 1216 S 112.437 3.14815 4.33188 0
M  V30 1217 C 113.593 2.67415 5.65898 0
M  V30 1218 H 113.826 1.92309 2.26726 0
M  V30 1219 H 111.359 1.08635 1.09716 0
M  V30 1220 H 113.317 0.227497 4.09869 0
M  V30 1221 H 111.978 -0.402671 3.11508 0
M  V30 1222 H 111.171 1.17082 4.90212 0
M  V30 1223 H 110.773 1.79124 3.28315 0
M  V30 1224 H 113.065 2.10833 6.4386 0
M  V30 1225 H 114.008 3.59463 6.10076 0
M  V30 1226 H 114.416 2.07521 5.24972 0
M  V30 1227 N 113.814 -1.1601 1.06675 0
M  V30 1228 C 115.042 -1.90527 0.806667 0
M  V30 1229 C 115.457 -1.77643 -0.639396 0
M  V30 1230 O 114.814 -1.12369 -1.43803 0
M  V30 1231 C 114.865 -3.41106 1.19705 0
M  V30 1232 O 114.586 -3.53608 2.58636 0
M  V30 1233 C 116.087 -4.32663 0.965266 0
M  V30 1234 H 113.307 -0.604053 0.292166 0
M  V30 1235 H 115.851 -1.47026 1.4214 0
M  V30 1236 H 114.006 -3.82296 0.626774 0
M  V30 1237 H 114.42 -4.47011 2.74375 0
M  V30 1238 H 115.894 -5.36763 1.288 0
M  V30 1239 H 116.371 -4.39089 -0.0987936 0
M  V30 1240 H 116.977 -3.97206 1.52011 0
M  V30 1241 N 115.292 -0.849877 -1.32721 0
M  V30 1242 C 116.52 -0.464754 -2.01613 0
M  V30 1243 C 116.935 0.937191 -1.63897 0
M  V30 1244 O 116.292 1.61081 -0.857856 0
M  V30 1245 C 116.343 -0.588638 -3.56675 0
M  V30 1246 O 116.064 -1.93535 -3.93034 0
M  V30 1247 C 117.565 -0.2019 -4.4284 0
M  V30 1248 H 114.785 -0.183215 -0.645502 0
M  V30 1249 H 117.329 -1.1455 -1.69407 0
M  V30 1250 H 115.484 0.0443159 -3.87375 0
M  V30 1251 H 115.898 -1.92871 -4.87751 0
M  V30 1252 H 117.372 -0.339599 -5.50954 0
M  V30 1253 H 117.849 0.857224 -4.30753 0
M  V30 1254 H 118.455 -0.809733 -4.17521 0
M  V30 1255 N 116.77 1.45427 -0.607355 0
M  V30 1256 C 117.718 2.32269 0.12411 0
M  V30 1257 C 118.712 1.45955 0.859854 0
M  V30 1258 O 119.918 1.6244 0.775447 0
M  V30 1259 H 116.293 0.749691 0.0588839 0
M  V30 1260 H 118.264 2.91743 -0.626762 0
M  V30 1261 C 117.013 3.29567 1.1082 0
M  V30 1262 H 116.336 3.95978 0.551492 0
M  V30 1263 H 117.776 3.93061 1.58995 0
M  V30 1264 C 116.235 2.56722 2.18164 0
M  V30 1265 O 116.765 2.34842 3.25902 0
M  V30 1266 N 114.971 2.16861 1.93442 0
M  V30 1267 H 114.518 2.34855 1.05834 0
M  V30 1268 H 114.476 1.68444 2.65469 0
M  V30 1269 N 118.248 0.346503 1.53744 0
M  V30 1270 C 119.494 -0.249473 2.0126 0
M  V30 1271 C 119.827 -1.49965 1.23386 0
M  V30 1272 O 119.102 -1.91811 0.32229 0
M  V30 1273 C 119.385 -0.560643 3.55709 0
M  V30 1274 C 119.238 0.701836 4.44291 0
M  V30 1275 C 120.557 -1.36905 4.18264 0
M  V30 1276 H 117.676 -0.0891987 0.731582 0
M  V30 1277 H 120.318 0.467624 1.84156 0
M  V30 1278 H 118.468 -1.17156 3.70414 0
M  V30 1279 H 120.14 1.33974 4.41417 0
M  V30 1280 H 118.383 1.32612 4.13033 0
M  V30 1281 H 119.054 0.43933 5.50249 0
M  V30 1282 H 121.53 -0.852448 4.07275 0
M  V30 1283 H 120.406 -1.55553 5.26398 0
M  V30 1284 H 120.667 -2.37203 3.73078 0
M  V30 1285 N 119.726 -1.57421 0.075193 0
M  V30 1286 C 120.972 -1.94716 -0.587998 0
M  V30 1287 C 121.327 -0.955205 -1.67014 0
M  V30 1288 O 120.62 0.0219842 -1.91587 0
M  V30 1289 C 120.814 -3.36428 -1.20626 0
M  V30 1290 C 120.643 -4.49317 -0.185541 0
M  V30 1291 C 119.413 -5.04772 0.23099 0
M  V30 1292 C 121.611 -5.11036 0.57854 0
M  V30 1293 N 119.593 -6.01204 1.24206 0
M  V30 1294 C 120.964 -6.02998 1.44199 0
M  V30 1295 C 123.019 -4.93844 0.634237 0
M  V30 1296 C 121.722 -6.79614 2.3562 0
M  V30 1297 C 123.748 -5.71106 1.53597 0
M  V30 1298 C 123.11 -6.6272 2.38709 0
M  V30 1299 H 119.209 -0.759536 -0.186089 0
M  V30 1300 H 121.793 -1.94097 0.153128 0
M  V30 1301 H 119.964 -3.37778 -1.9173 0
M  V30 1302 H 121.696 -3.60951 -1.8302 0
M  V30 1303 H 118.451 -4.73353 -0.152807 0
M  V30 1304 H 118.875 -6.54119 1.74521 0
M  V30 1305 H 123.517 -4.22799 -0.00960004 0
M  V30 1306 H 121.235 -7.49934 3.01038 0
M  V30 1307 H 124.821 -5.59824 1.58394 0
M  V30 1308 H 123.701 -7.2146 3.07352 0
M  V30 1309 N 121.204 0.198386 -1.56346 0
M  V30 1310 C 122.134 1.24865 -1.9731 0
M  V30 1311 C 123.115 1.47651 -0.844576 0
M  V30 1312 O 124.3 1.59444 -1.10866 0
M  V30 1313 C 121.43 2.59358 -2.30977 0
M  V30 1314 C 120.384 2.5119 -3.46537 0
M  V30 1315 C 119.71 3.89926 -3.65871 0
M  V30 1316 C 121.01 2.03977 -4.80823 0
M  V30 1317 H 122.704 0.908252 -2.85291 0
M  V30 1318 H 120.25 0.435462 -1.37258 0
M  V30 1319 H 122.203 3.33011 -2.58228 0
M  V30 1320 H 120.927 2.95132 -1.39874 0
M  V30 1321 H 119.586 1.79993 -3.19371 0
M  V30 1322 H 119.234 4.23046 -2.72105 0
M  V30 1323 H 118.934 3.85336 -4.4361 0
M  V30 1324 H 120.458 4.65205 -3.95495 0
M  V30 1325 H 121.872 2.67386 -5.07127 0
M  V30 1326 H 120.269 2.10397 -5.62008 0
M  V30 1327 H 121.339 0.992861 -4.74626 0
M  V30 1328 N 122.682 1.50554 0.465978 0
M  V30 1329 C 123.91 1.65563 1.24083 0
M  V30 1330 C 124.325 0.341051 1.85694 0
M  V30 1331 O 123.682 -0.677543 1.69457 0
M  V30 1332 C 123.733 2.75051 2.34583 0
M  V30 1333 O 123.454 4.01413 1.75497 0
M  V30 1334 C 124.955 3.01078 3.25372 0
M  V30 1335 H 122.175 0.55638 0.375077 0
M  V30 1336 H 124.719 1.96807 0.555624 0
M  V30 1337 H 122.874 2.46486 2.9887 0
M  V30 1338 H 123.288 4.62002 2.48303 0
M  V30 1339 H 124.762 3.81339 3.99105 0
M  V30 1340 H 125.239 2.12349 3.84453 0
M  V30 1341 H 125.845 3.31194 2.66816 0
M  V30 1342 N 124.16 -0.719506 1.40217 0
M  V30 1343 C 125.092 -1.84428 1.36084 0
M  V30 1344 C 126.105 -1.60597 0.266913 0
M  V30 1345 O 127.294 -1.70544 0.526983 0
M  V30 1346 C 124.394 -3.20757 1.094 0
M  V30 1347 C 123.567 -3.71817 2.30372 0
M  V30 1348 C 122.626 -4.86748 1.99907 0
M  V30 1349 O 121.652 -4.99603 2.72737 0
M  V30 1350 N 122.854 -5.7226 0.974635 0
M  V30 1351 H 125.619 -1.88473 2.33019 0
M  V30 1352 H 123.18 -0.900885 1.3452 0
M  V30 1353 H 125.172 -3.95235 0.870116 0
M  V30 1354 H 123.742 -3.11884 0.211452 0
M  V30 1355 H 122.962 -2.88514 2.68614 0
M  V30 1356 H 124.25 -4.02666 3.11026 0
M  V30 1357 H 123.648 -5.6448 0.371368 0
M  V30 1358 H 122.205 -6.46739 0.810656 0
M  V30 1359 N 125.638 -1.25649 -0.95132 0
M  V30 1360 C 126.548 -1.08073 -2.08224 0
M  V30 1361 C 127.564 -0.0169666 -1.73992 0
M  V30 1362 O 128.74 -0.218593 -2.0021 0
M  V30 1363 C 125.805 -0.704922 -3.39458 0
M  V30 1364 C 124.866 -1.84699 -3.87537 0
M  V30 1365 C 124.099 -1.48902 -5.12508 0
M  V30 1366 O 124.322 -0.386156 -5.69091 0
M  V30 1367 O 123.256 -2.32033 -5.55378 0
M  V30 1368 H 127.082 -2.02924 -2.25954 0
M  V30 1369 H 124.667 -1.04618 -1.06656 0
M  V30 1370 H 126.549 -0.507609 -4.18332 0
M  V30 1371 H 125.224 0.214291 -3.2299 0
M  V30 1372 H 124.131 -2.09919 -3.09653 0
M  V30 1373 H 125.464 -2.74557 -4.08509 0
M  V30 1374 N 127.117 1.15442 -1.07289 0
M  V30 1375 C 128.363 1.8672 -0.806679 0
M  V30 1376 C 128.718 1.80723 0.660084 0
M  V30 1377 O 128.011 1.21902 1.47819 0
M  V30 1378 C 128.205 3.3489 -1.24834 0
M  V30 1379 C 128.034 3.55313 -2.7565 0
M  V30 1380 C 126.804 3.7082 -3.4325 0
M  V30 1381 C 129.002 3.53188 -3.73848 0
M  V30 1382 N 126.984 3.7929 -4.82713 0
M  V30 1383 C 128.355 3.67765 -4.99149 0
M  V30 1384 C 130.41 3.36459 -3.67015 0
M  V30 1385 C 129.113 3.6734 -6.18428 0
M  V30 1386 C 131.139 3.37333 -4.85758 0
M  V30 1387 C 130.501 3.52438 -6.09891 0
M  V30 1388 H 126.6 0.700433 -0.347733 0
M  V30 1389 H 129.184 1.38441 -1.36902 0
M  V30 1390 H 127.355 3.81786 -0.713713 0
M  V30 1391 H 129.087 3.93875 -0.929745 0
M  V30 1392 H 125.842 3.71568 -2.93656 0
M  V30 1393 H 126.266 3.8727 -5.55294 0
M  V30 1394 H 130.908 3.237 -2.71989 0
M  V30 1395 H 128.626 3.78878 -7.13777 0
M  V30 1396 H 132.212 3.25617 -4.82146 0
M  V30 1397 H 131.092 3.53047 -7.00234 0
M  V30 1398 N 128.595 0.856903 1.32268 0
M  V30 1399 C 129.505 0.306131 2.32594 0
M  V30 1400 C 130.521 -0.577209 1.64147 0
M  V30 1401 O 131.697 -0.477043 1.95669 0
M  V30 1402 C 128.762 -0.494561 3.43154 0
M  V30 1403 C 127.823 0.415186 4.27288 0
M  V30 1404 C 127.056 -0.347387 5.32568 0
M  V30 1405 O 127.279 -1.57708 5.48165 0
M  V30 1406 O 126.213 0.287982 6.01211 0
M  V30 1407 H 130.039 1.13737 2.81598 0
M  V30 1408 H 127.624 0.619902 1.35932 0
M  V30 1409 H 129.506 -0.948944 4.10576 0
M  V30 1410 H 128.181 -1.30257 2.96336 0
M  V30 1411 H 127.088 0.917793 3.62667 0
M  V30 1412 H 128.421 1.18844 4.77637 0
M  V30 1413 N 130.073 -1.45103 0.615059 0
M  V30 1414 C 131.35 -1.95549 0.0448276 0
M  V30 1415 C 131.73 -1.55737 -1.4251 0
M  V30 1416 O 131.078 -0.823556 -2.13143 0
M  V30 1417 C 131.288 -3.48098 0.250785 0
M  V30 1418 C 132.636 -4.24384 0.135509 0
M  V30 1419 O 133.66 -3.55738 0.181299 0
M  V30 1420 O 132.519 -5.46493 0.0268878 0
M  V30 1421 H 129.613 -0.8264 -0.0314845 0
M  V30 1422 H 132.159 -1.55232 0.685642 0
M  V30 1423 H 130.931 -3.7007 1.27139 0
M  V30 1424 H 130.554 -3.95323 -0.424937 0
M  V30 1425 N 131.551 -0.354651 -1.53558 0
M  V30 1426 C 132.781 0.239167 -2.05211 0
M  V30 1427 C 133.189 1.43879 -1.22863 0
M  V30 1428 O 132.532 1.81857 -0.259565 0
M  V30 1429 C 132.594 0.707251 -3.52474 0
M  V30 1430 C 132.258 -0.374212 -4.55465 0
M  V30 1431 C 133.255 -1.22054 -5.0537 0
M  V30 1432 C 130.94 -0.531323 -4.99482 0
M  V30 1433 C 132.934 -2.20942 -5.97882 0
M  V30 1434 C 130.621 -1.52358 -5.91802 0
M  V30 1435 C 131.619 -2.36108 -6.40892 0
M  V30 1436 O 131.307 -3.33643 -7.31394 0
M  V30 1437 H 131.039 0.0479716 -0.674296 0
M  V30 1438 H 133.593 -0.508121 -1.99016 0
M  V30 1439 H 131.823 1.50596 -3.56171 0
M  V30 1440 H 133.512 1.22285 -3.87042 0
M  V30 1441 H 134.278 -1.1103 -4.7212 0
M  V30 1442 H 130.157 0.110738 -4.60867 0
M  V30 1443 H 133.701 -2.86348 -6.36121 0
M  V30 1444 H 129.598 -1.63434 -6.24467 0
M  V30 1445 H 130.366 -3.29244 -7.4936 0
M  V30 1446 N 133.029 1.57378 -0.0835403 0
M  V30 1447 C 134.445 1.57246 0.273109 0
M  V30 1448 C 134.645 1.09385 1.69225 0
M  V30 1449 O 133.701 0.765051 2.40631 0
M  V30 1450 C 135.014 3.00614 0.0720628 0
M  V30 1451 C 136.562 3.12684 0.1407 0
M  V30 1452 C 137.037 4.57989 -0.0322094 0
M  V30 1453 N 138.528 4.63194 0.0230085 0
M  V30 1454 C 139.263 5.73335 -0.0861941 0
M  V30 1455 N 138.759 6.9235 -0.24958 0
M  V30 1456 N 140.552 5.62093 -0.0282886 0
M  V30 1457 H 132.703 1.86801 -1.0109 0
M  V30 1458 H 134.966 0.861687 -0.395222 0
M  V30 1459 H 134.672 3.39786 -0.907662 0
M  V30 1460 H 134.546 3.68193 0.81936 0
M  V30 1461 H 136.933 2.73391 1.11092 0
M  V30 1462 H 137.014 2.47719 -0.637896 0
M  V30 1463 H 136.658 4.97973 -0.999247 0
M  V30 1464 H 136.588 5.21 0.765937 0
M  V30 1465 H 139.079 3.77613 0.14722 0
M  V30 1466 H 139.392 7.72117 -0.324733 0
M  V30 1467 H 137.737 6.94415 -0.285097 0
M  V30 1468 H 140.928 4.67997 0.0981408 0
M  V30 1469 H 141.101 6.47895 -0.116845 0
M  V30 1470 N 134.507 -0.190092 1.56449 0
M  V30 1471 C 135.437 -1.23816 1.97969 0
M  V30 1472 C 136.418 -1.47201 0.852395 0
M  V30 1473 O 137.603 -1.58854 1.1171 0
M  V30 1474 C 134.733 -2.5813 2.3235 0
M  V30 1475 C 133.687 -2.49348 3.47864 0
M  V30 1476 C 133.013 -3.8798 3.67934 0
M  V30 1477 C 134.313 -2.01424 4.81898 0
M  V30 1478 H 136.007 -0.89311 2.85769 0
M  V30 1479 H 133.553 -0.428177 1.37487 0
M  V30 1480 H 135.506 -3.31637 2.59991 0
M  V30 1481 H 134.23 -2.94386 1.41438 0
M  V30 1482 H 132.889 -1.78297 3.20321 0
M  V30 1483 H 132.537 -4.21597 2.74344 0
M  V30 1484 H 132.237 -3.82978 4.45648 0
M  V30 1485 H 133.761 -4.63101 3.97957 0
M  V30 1486 H 135.175 -2.64693 5.08538 0
M  V30 1487 H 133.572 -2.07413 5.63116 0
M  V30 1488 H 134.642 -0.967677 4.75146 0
M  V30 1489 N 135.985 -1.50799 -0.457987 0
M  V30 1490 C 137.213 -1.66218 -1.23203 0
M  V30 1491 C 137.628 -0.350894 -1.85511 0
M  V30 1492 O 136.985 0.668546 -1.69814 0
M  V30 1493 C 137.036 -2.76291 -2.33121 0
M  V30 1494 O 136.757 -4.02338 -1.73366 0
M  V30 1495 C 138.258 -3.028 -3.2377 0
M  V30 1496 H 135.478 -0.558361 -0.372121 0
M  V30 1497 H 138.022 -1.97099 -0.545179 0
M  V30 1498 H 136.177 -2.48068 -2.97558 0
M  V30 1499 H 136.591 -4.63312 -2.4585 0
M  V30 1500 H 138.065 -3.8345 -3.97077 0
M  V30 1501 H 138.542 -2.14385 -3.83322 0
M  V30 1502 H 139.148 -3.32604 -2.65056 0
M  V30 1503 N 137.463 0.71206 -1.40597 0
M  V30 1504 C 138.709 1.47292 -1.40274 0
M  V30 1505 C 139.064 1.92399 -0.00576812 0
M  V30 1506 O 138.357 1.65507 0.965297 0
M  V30 1507 C 138.551 2.71039 -2.32965 0
M  V30 1508 C 138.38 2.38035 -3.81536 0
M  V30 1509 C 137.15 2.29203 -4.50327 0
M  V30 1510 C 139.348 2.02076 -4.72938 0
M  V30 1511 N 137.33 1.88911 -5.84111 0
M  V30 1512 C 138.701 1.72412 -5.95545 0
M  V30 1513 C 140.756 1.88742 -4.60739 0
M  V30 1514 C 139.459 1.30756 -7.07316 0
M  V30 1515 C 141.485 1.4849 -5.72455 0
M  V30 1516 C 140.847 1.19726 -6.94151 0
M  V30 1517 H 136.946 0.536919 -0.568544 0
M  V30 1518 H 139.53 0.825424 -1.76337 0
M  V30 1519 H 137.701 3.33533 -1.99023 0
M  V30 1520 H 139.433 3.37404 -2.23474 0
M  V30 1521 H 136.188 2.47059 -4.04053 0
M  V30 1522 H 136.612 1.71293 -6.54972 0
M  V30 1523 H 141.254 2.0964 -3.67166 0
M  V30 1524 H 138.972 1.08601 -8.00769 0
M  V30 1525 H 142.558 1.38747 -5.65014 0
M  V30 1526 H 141.438 0.890482 -7.79128 0
M  V30 1527 N 138.941 1.26152 0.944643 0
M  V30 1528 C 139.888 1.07408 2.04285 0
M  V30 1529 C 140.858 -0.0198413 1.66088 0
M  V30 1530 O 142.043 0.139264 1.90291 0
M  V30 1531 C 139.183 0.70945 3.37729 0
M  V30 1532 C 138.296 1.87926 3.88983 0
M  V30 1533 C 137.431 1.45807 5.10797 0
M  V30 1534 C 136.47 2.5964 5.54305 0
M  V30 1535 N 135.607 2.18226 6.67324 0
M  V30 1536 H 140.447 2.01389 2.1965 0
M  V30 1537 H 137.984 1.00275 1.07626 0
M  V30 1538 H 139.942 0.478948 4.14442 0
M  V30 1539 H 138.572 -0.193389 3.2222 0
M  V30 1540 H 137.624 2.22279 3.08701 0
M  V30 1541 H 138.936 2.73377 4.17213 0
M  V30 1542 H 138.09 1.18781 5.94959 0
M  V30 1543 H 136.829 0.574414 4.84305 0
M  V30 1544 H 135.834 2.87399 4.68702 0
M  V30 1545 H 137.059 3.48599 5.828 0
M  V30 1546 H 135.005 1.3229 6.42523 0
M  V30 1547 H 134.922 2.97221 6.95123 0
M  V30 1548 H 136.19 1.94403 7.54869 0
M  V30 1549 N 140.419 -1.14872 1.07899 0
M  V30 1550 C 141.83 -1.67367 0.827363 0
M  V30 1551 C 142.181 -1.85236 -0.646693 0
M  V30 1552 O 141.306 -1.55974 -1.50004 0
M  V30 1553 C 141.901 -3.04016 1.49532 0
M  V30 1554 C 140.46 -3.53566 1.29106 0
M  V30 1555 C 139.607 -2.29161 1.56143 0
M  V30 1556 H 142.558 -0.990083 1.24028 0
M  V30 1557 H 142.579 -3.69219 0.919643 0
M  V30 1558 H 142.091 -2.90978 2.56814 0
M  V30 1559 H 140.192 -3.71835 0.238713 0
M  V30 1560 H 140.305 -4.34661 2.01511 0
M  V30 1561 H 138.669 -2.34978 0.982717 0
M  V30 1562 H 139.452 -2.18705 2.64619 0
M  V30 1563 N 141.898 -0.863906 -1.31812 0
M  V30 1564 C 142.808 -0.318461 -2.32428 0
M  V30 1565 C 143.824 0.568496 -1.64451 0
M  V30 1566 O 145 0.46666 -1.95919 0
M  V30 1567 C 142.065 0.476355 -3.43412 0
M  V30 1568 C 141.126 -0.43784 -4.27061 0
M  V30 1569 C 140.359 0.319138 -5.32745 0
M  V30 1570 O 140.582 1.54799 -5.48993 0
M  V30 1571 O 139.516 -0.319861 -6.01049 0
M  V30 1572 H 143.342 -1.15229 -2.80991 0
M  V30 1573 H 140.927 -0.627103 -1.35602 0
M  V30 1574 H 142.809 0.927156 -4.11074 0
M  V30 1575 H 141.484 1.28683 -2.97022 0
M  V30 1576 H 140.391 -0.937013 -3.62175 0
M  V30 1577 H 141.724 -1.21375 -4.77 0
M  V30 1578 N 143.376 1.44774 -0.622745 0
M  V30 1579 C 144.286 2.34433 0.0886031 0
M  V30 1580 C 145.302 1.52131 0.844529 0
M  V30 1581 O 146.478 1.84886 0.798691 0
M  V30 1582 C 143.543 3.29986 1.0635 0
M  V30 1583 C 142.604 4.28195 0.307873 0
M  V30 1584 C 141.837 5.19183 1.23633 0
M  V30 1585 O 142.06 5.13918 2.47476 0
M  V30 1586 O 140.994 5.97515 0.725189 0
M  V30 1587 H 144.82 2.96693 -0.648599 0
M  V30 1588 H 142.405 1.44408 -0.382957 0
M  V30 1589 H 144.287 3.88825 1.6246 0
M  V30 1590 H 142.962 2.70269 1.78146 0
M  V30 1591 H 141.869 3.72927 -0.296064 0
M  V30 1592 H 143.202 4.90808 -0.3699 0
M  V30 1593 N 144.854 0.36279 1.53368 0
M  V30 1594 C 146.101 -0.227776 2.01215 0
M  V30 1595 C 146.429 -1.49003 1.25014 0
M  V30 1596 O 145.684 -1.92876 0.331236 0
M  V30 1597 C 145.983 -0.568417 3.52851 0
M  V30 1598 C 145.649 0.59918 4.46901 0
M  V30 1599 C 144.311 0.919559 4.72332 0
M  V30 1600 C 146.663 1.38156 5.02556 0
M  V30 1601 C 143.991 2.02434 5.5067 0
M  V30 1602 C 146.343 2.47674 5.821 0
M  V30 1603 C 145.007 2.8025 6.05819 0
M  V30 1604 H 144.277 -0.083349 0.736297 0
M  V30 1605 H 146.924 0.494677 1.85001 0
M  V30 1606 H 145.229 -1.37185 3.66998 0
M  V30 1607 H 146.926 -1.03756 3.87344 0
M  V30 1608 H 143.516 0.339437 4.27254 0
M  V30 1609 H 147.7 1.14729 4.82857 0
M  V30 1610 H 142.956 2.28075 5.67267 0
M  V30 1611 H 147.13 3.08716 6.24234 0
M  V30 1612 H 144.757 3.65979 6.66306 0
M  V30 1613 N 146.332 -1.57332 0.0918853 0
M  V30 1614 C 147.609 -1.85691 -0.614668 0
M  V30 1615 C 147.989 -0.988146 -1.86545 0
M  V30 1616 O 147.337 -0.0597055 -2.28422 0
M  V30 1617 C 147.547 -3.36294 -0.933126 0
M  V30 1618 C 148.895 -4.04275 -1.29796 0
M  V30 1619 O 149.919 -3.41157 -1.02424 0
M  V30 1620 O 148.778 -5.1564 -1.81047 0
M  V30 1621 H 145.872 -0.767802 -0.307261 0
M  V30 1622 H 148.418 -1.69244 0.12434 0
M  V30 1623 H 147.19 -3.91273 -0.0456404 0
M  V30 1624 H 146.813 -3.58076 -1.72822 0
M  V30 1625 N 147.81 0.181792 -1.56548 0
M  V30 1626 C 148.758 1.24461 -1.965 0
M  V30 1627 C 149.752 1.464 -0.852261 0
M  V30 1628 O 150.958 1.47103 -1.03733 0
M  V30 1629 H 147.333 0.418138 -0.625031 0
M  V30 1630 H 149.304 0.880714 -2.85107 0
M  V30 1631 C 148.053 2.57891 -2.33212 0
M  V30 1632 H 147.376 2.41829 -3.18369 0
M  V30 1633 H 148.816 3.3097 -2.65019 0
M  V30 1634 C 147.275 3.15871 -1.17163 0
M  V30 1635 O 147.805 3.9913 -0.453708 0
M  V30 1636 N 146.011 2.74808 -0.944936 0
M  V30 1637 H 145.558 2.07205 -1.53049 0
M  V30 1638 H 145.516 3.13939 -0.170286 0
M  V30 1639 N 149.288 1.51039 0.449983 0
M  V30 1640 C 150.221 1.66105 1.56474 0
M  V30 1641 C 151.199 0.508776 1.54435 0
M  V30 1642 O 152.383 0.731005 1.73749 0
M  V30 1643 C 149.51 1.66304 2.9506 0
M  V30 1644 C 148.556 2.87346 3.15174 0
M  V30 1645 S 149.389 4.4835 2.92818 0
M  V30 1646 C 150.545 4.51274 4.33708 0
M  V30 1647 H 150.778 2.60397 1.43459 0
M  V30 1648 H 148.311 1.40565 0.638805 0
M  V30 1649 H 150.269 1.67103 3.74949 0
M  V30 1650 H 148.93 0.732108 3.05449 0
M  V30 1651 H 148.123 2.83849 4.16468 0
M  V30 1652 H 147.725 2.84223 2.43091 0
M  V30 1653 H 150.017 4.26136 5.26701 0
M  V30 1654 H 150.96 5.53017 4.42242 0
M  V30 1655 H 151.368 3.80738 4.16772 0
M  V30 1656 N 150.766 -0.704594 1.40972 0
M  V30 1657 C 151.713 -1.81862 1.42109 0
M  V30 1658 C 152.683 -1.63781 0.276593 0
M  V30 1659 O 153.868 -1.84759 0.4763 0
M  V30 1660 C 151.008 -3.19669 1.30022 0
M  V30 1661 C 150.121 -3.49246 2.54267 0
M  V30 1662 C 149.256 -4.76618 2.3454 0
M  V30 1663 C 148.295 -4.99133 3.54306 0
M  V30 1664 N 147.432 -6.17726 3.33706 0
M  V30 1665 H 152.272 -1.80226 2.37324 0
M  V30 1666 H 149.809 -0.880238 1.17857 0
M  V30 1667 H 151.767 -3.99263 1.21018 0
M  V30 1668 H 150.397 -3.20506 0.384192 0
M  V30 1669 H 149.449 -2.64125 2.73756 0
M  V30 1670 H 150.761 -3.61788 3.43381 0
M  V30 1671 H 149.915 -5.64249 2.22952 0
M  V30 1672 H 148.654 -4.66305 1.42867 0
M  V30 1673 H 147.659 -4.09953 3.66359 0
M  V30 1674 H 148.884 -5.11311 4.4692 0
M  V30 1675 H 146.83 -6.08642 2.44725 0
M  V30 1676 H 146.747 -6.30995 4.16391 0
M  V30 1677 H 148.015 -7.08115 3.25873 0
M  V30 1678 N 152.244 -1.26651 -0.937939 0
M  V30 1679 C 153.191 -1.0849 -2.03712 0
M  V30 1680 C 154.161 0.011033 -1.66096 0
M  V30 1681 O 155.346 -0.149353 -1.90215 0
M  V30 1682 C 152.486 -0.72735 -3.37348 0
M  V30 1683 C 151.599 -1.89986 -3.87981 0
M  V30 1684 C 150.734 -1.48513 -5.10017 0
M  V30 1685 C 149.773 -2.62575 -5.5292 0
M  V30 1686 N 148.91 -2.21762 -6.66158 0
M  V30 1687 H 153.75 -2.02551 -2.18579 0
M  V30 1688 H 151.287 -1.00844 -1.07093 0
M  V30 1689 H 153.245 -0.50092 -4.14182 0
M  V30 1690 H 151.875 0.176298 -3.22318 0
M  V30 1691 H 150.927 -2.23913 -3.07518 0
M  V30 1692 H 152.239 -2.75586 -4.15757 0
M  V30 1693 H 151.393 -1.21934 -5.94321 0
M  V30 1694 H 150.132 -0.60009 -4.83994 0
M  V30 1695 H 149.137 -2.8988 -4.67172 0
M  V30 1696 H 150.362 -3.51685 -5.80943 0
M  V30 1697 H 148.308 -1.35696 -6.41812 0
M  V30 1698 H 148.225 -3.00903 -6.93537 0
M  V30 1699 H 149.493 -1.98403 -7.53828 0
M  V30 1700 N 153.722 1.14298 -1.08507 0
M  V30 1701 C 154.968 1.85633 -0.816581 0
M  V30 1702 C 155.301 1.82784 0.656021 0
M  V30 1703 O 154.576 1.25926 1.48233 0
M  V30 1704 C 154.859 3.34223 -1.34041 0
M  V30 1705 C 154.712 3.45639 -2.87843 0
M  V30 1706 C 156.031 4.29356 -0.9665 0
M  V30 1707 H 153.15 0.67402 -0.298104 0
M  V30 1708 H 155.792 1.34214 -1.34487 0
M  V30 1709 H 153.942 3.78144 -0.89104 0
M  V30 1710 H 155.614 3.10498 -3.41158 0
M  V30 1711 H 153.857 2.86817 -3.25451 0
M  V30 1712 H 154.528 4.50089 -3.19569 0
M  V30 1713 H 157.004 3.93457 -1.35391 0
M  V30 1714 H 155.88 5.3178 -1.3602 0
M  V30 1715 H 156.141 4.41919 0.126362 0
M  V30 1716 N 155.201 0.870884 1.31352 0
M  V30 1717 C 156.617 0.562932 1.49343 0
M  V30 1718 C 156.817 -0.902725 1.80148 0
M  V30 1719 O 155.873 -1.68484 1.88067 0
M  V30 1720 C 157.186 1.46393 2.62659 0
M  V30 1721 C 158.734 1.46607 2.76542 0
M  V30 1722 C 159.209 2.35266 3.92955 0
M  V30 1723 N 160.7 2.33151 4.00243 0
M  V30 1724 C 161.435 2.98471 4.89594 0
M  V30 1725 N 160.931 3.72964 5.8384 0
M  V30 1726 N 162.724 2.87775 4.82848 0
M  V30 1727 H 154.875 1.81923 1.09626 0
M  V30 1728 H 157.138 0.777934 0.541777 0
M  V30 1729 H 156.844 2.50689 2.46674 0
M  V30 1730 H 156.718 1.16314 3.58819 0
M  V30 1731 H 159.105 0.43069 2.9194 0
M  V30 1732 H 159.186 1.8071 1.81046 0
M  V30 1733 H 158.83 3.38881 3.78315 0
M  V30 1734 H 158.76 1.98487 4.87761 0
M  V30 1735 H 161.251 1.79006 3.32814 0
M  V30 1736 H 161.564 4.19932 6.4875 0
M  V30 1737 H 159.909 3.77073 5.83816 0
M  V30 1738 H 163.1 2.29116 4.08195 0
M  V30 1739 H 163.273 3.38961 5.52277 0
M  V30 1740 N 156.679 -1.44442 0.630414 0
M  V30 1741 C 157.609 -2.33418 -0.0618083 0
M  V30 1742 C 158.59 -1.48165 -0.835541 0
M  V30 1743 O 159.775 -1.76886 -0.801564 0
M  V30 1744 C 156.905 -3.31222 -1.04449 0
M  V30 1745 C 155.859 -4.26288 -0.382436 0
M  V30 1746 C 155.185 -5.13954 -1.47497 0
M  V30 1747 C 156.485 -5.1744 0.710865 0
M  V30 1748 H 158.179 -2.91548 0.681184 0
M  V30 1749 H 155.725 -1.40191 0.329026 0
M  V30 1750 H 157.678 -3.92351 -1.53748 0
M  V30 1751 H 156.402 -2.71299 -1.81836 0
M  V30 1752 H 155.061 -3.6649 0.0899054 0
M  V30 1753 H 154.709 -4.50385 -2.2397 0
M  V30 1754 H 154.409 -5.7837 -1.03737 0
M  V30 1755 H 155.933 -5.77955 -1.96979 0
M  V30 1756 H 157.347 -5.72509 0.300996 0
M  V30 1757 H 155.744 -5.90455 1.07156 0
M  V30 1758 H 156.814 -4.58496 1.57829 0
M  V30 1759 N 158.157 -0.370918 -1.53173 0
M  V30 1760 C 159.568 0.107139 -1.86392 0
M  V30 1761 C 159.919 1.47714 -1.29132 0
M  V30 1762 O 159.044 2.07464 -0.615439 0
M  V30 1763 C 159.639 0.201187 -3.38202 0
M  V30 1764 C 158.198 0.623507 -3.712 0
M  V30 1765 C 157.345 -0.225978 -2.76378 0
M  V30 1766 H 160.296 -0.58951 -1.47345 0
M  V30 1767 H 160.317 1.02377 -3.66468 0
M  V30 1768 H 159.829 -0.796058 -3.79848 0
M  V30 1769 H 157.93 1.62879 -3.35114 0
M  V30 1770 H 158.043 0.394414 -4.77474 0
M  V30 1771 H 156.407 0.305962 -2.52856 0
M  V30 1772 H 157.19 -1.22086 -3.20858 0
M  V30 1773 N 159.635 1.57281 -0.100228 0
M  V30 1774 C 160.86 1.99302 0.573881 0
M  V30 1775 C 161.285 0.979059 1.60611 0
M  V30 1776 O 160.643 -0.0517803 1.81226 0
M  V30 1777 C 160.691 3.40274 1.19358 0
M  V30 1778 O 159.795 3.41676 2.30935 0
M  V30 1779 H 159.136 0.647944 0.145138 0
M  V30 1780 H 161.666 2.03779 -0.183156 0
M  V30 1781 H 161.676 3.78078 1.53365 0
M  V30 1782 H 160.351 4.13594 0.437385 0
M  V30 1783 H 158.928 3.15672 1.98509 0
M  V30 1784 N 161.113 -0.173488 1.56642 0
M  V30 1785 C 162.06 -1.21482 1.96242 0
M  V30 1786 C 163.03 -1.44104 0.826027 0
M  V30 1787 O 164.215 -1.5688 1.08597 0
M  V30 1788 C 161.355 -2.54964 2.32567 0
M  V30 1789 C 160.468 -2.39739 3.59373 0
M  V30 1790 C 159.603 -3.66072 3.84921 0
M  V30 1791 C 158.642 -3.45771 5.05083 0
M  V30 1792 N 157.779 -4.64169 5.26775 0
M  V30 1793 H 162.619 -0.870123 2.85014 0
M  V30 1794 H 160.156 -0.418245 1.41029 0
M  V30 1795 H 162.114 -3.32758 2.5165 0
M  V30 1796 H 160.744 -2.87433 1.46908 0
M  V30 1797 H 159.796 -1.53131 3.48217 0
M  V30 1798 H 161.108 -2.20683 4.47326 0
M  V30 1799 H 160.262 -4.52303 4.0436 0
M  V30 1800 H 159.001 -3.88105 2.9534 0
M  V30 1801 H 158.006 -2.57927 4.85545 0
M  V30 1802 H 159.231 -3.25163 5.96193 0
M  V30 1803 H 157.177 -4.86425 4.40144 0
M  V30 1804 H 157.094 -4.48019 6.08946 0
M  V30 1805 H 158.362 -5.51689 5.5069 0
M  V30 1806 N 162.591 -1.51276 -0.441967 0
M  V30 1807 C 163.541 -1.6864 -1.53442 0
M  V30 1808 C 164.525 -0.540444 -1.51552 0
M  V30 1809 O 165.717 -0.796157 -1.58083 0
M  V30 1810 C 162.846 -1.8106 -2.91672 0
M  V30 1811 C 161.932 -3.01424 -2.98336 0
M  V30 1812 N 162.323 -4.2467 -2.74752 0
M  V30 1813 C 160.621 -3.00584 -3.29493 0
M  V30 1814 C 161.322 -5.05891 -2.87139 0
M  V30 1815 N 160.298 -4.40442 -3.18609 0
M  V30 1816 H 164.1 -2.61598 -1.33954 0
M  V30 1817 H 161.614 -1.4886 -0.6492 0
M  V30 1818 H 163.611 -1.91609 -3.70259 0
M  V30 1819 H 162.271 -0.892795 -3.12185 0
M  V30 1820 H 163.282 -4.53691 -2.49769 0
M  V30 1821 H 159.959 -2.18417 -3.55809 0
M  V30 1822 H 161.349 -6.13983 -2.72899 0
M  V30 1823 N 164.069 0.697108 -1.41344 0
M  V30 1824 C 165.318 1.45279 -1.39918 0
M  V30 1825 C 165.631 1.95597 -0.0109624 0
M  V30 1826 O 166.837 2.71208 0.125919 0
M  V30 1827 C 165.293 2.62695 -2.46007 0
M  V30 1828 C 164.901 2.19169 -3.90729 0
M  V30 1829 C 166.645 3.40336 -2.53715 0
M  V30 1830 C 164.552 3.33535 -4.88373 0
M  V30 1831 H 163.482 0.545692 -0.520323 0
M  V30 1832 H 166.133 0.756929 -1.67161 0
M  V30 1833 H 164.515 3.34541 -2.11892 0
M  V30 1834 H 165.689 1.54623 -4.34083 0
M  V30 1835 H 164.004 1.54525 -3.86666 0
M  V30 1836 H 166.601 4.2547 -3.2385 0
M  V30 1837 H 166.944 3.85418 -1.5735 0
M  V30 1838 H 167.477 2.75546 -2.86913 0
M  V30 1839 H 164.216 2.93468 -5.86137 0
M  V30 1840 H 163.736 3.96936 -4.49668 0
M  V30 1841 H 165.415 3.99335 -5.09059 0
M  V30 1842 N 165.547 1.27147 0.931209 0
M  V30 1843 C 166.793 1.14455 1.68141 0
M  V30 1844 C 167.148 -0.307172 1.89932 0
M  V30 1845 O 166.441 -1.22158 1.47607 0
M  V30 1846 C 166.635 1.8579 3.05314 0
M  V30 1847 C 166.464 3.3775 2.96909 0
M  V30 1848 C 165.234 4.07062 2.99381 0
M  V30 1849 C 167.432 4.33783 2.76291 0
M  V30 1850 N 165.414 5.45618 2.8138 0
M  V30 1851 C 166.785 5.59582 2.6696 0
M  V30 1852 C 168.84 4.23915 2.61152 0
M  V30 1853 C 167.543 6.76639 2.44033 0
M  V30 1854 C 169.569 5.40689 2.39602 0
M  V30 1855 C 168.931 6.65443 2.3101 0
M  V30 1856 H 165.03 0.473667 0.622225 0
M  V30 1857 H 167.614 1.60568 1.10118 0
M  V30 1858 H 165.785 1.42138 3.61457 0
M  V30 1859 H 167.517 1.65634 3.69253 0
M  V30 1860 H 164.272 3.585 3.09475 0
M  V30 1861 H 164.696 6.184 2.75519 0
M  V30 1862 H 169.338 3.28189 2.66555 0
M  V30 1863 H 167.056 7.72451 2.3737 0
M  V30 1864 H 170.642 5.34932 2.28778 0
M  V30 1865 H 169.522 7.54277 2.14558 0
M  V30 1866 N 167.025 -1.13721 1.09112 0
M  V30 1867 C 167.955 -2.21148 0.749385 0
M  V30 1868 C 168.936 -1.6792 -0.271475 0
M  V30 1869 O 170.121 -1.93693 -0.140251 0
M  V30 1870 C 167.251 -3.46905 0.165659 0
M  V30 1871 C 166.205 -4.13203 1.11567 0
M  V30 1872 C 165.531 -5.33248 0.393809 0
M  V30 1873 C 166.831 -4.60912 2.45678 0
M  V30 1874 H 168.525 -2.4999 1.64758 0
M  V30 1875 H 166.071 -1.20156 0.793626 0
M  V30 1876 H 168.024 -4.21313 -0.085466 0
M  V30 1877 H 166.748 -3.17449 -0.767714 0
M  V30 1878 H 165.407 -3.40758 1.35202 0
M  V30 1879 H 165.055 -5.00054 -0.543599 0
M  V30 1880 H 164.755 -5.78552 1.02721 0
M  V30 1881 H 166.279 -6.10413 0.150908 0
M  V30 1882 H 167.693 -5.26759 2.26269 0
M  V30 1883 H 166.09 -5.16944 3.04776 0
M  V30 1884 H 167.16 -3.75603 3.06677 0
M  V30 1885 N 168.503 -0.877838 -1.30888 0
M  V30 1886 C 169.914 -0.544193 -1.78593 0
M  V30 1887 C 170.265 0.939301 -1.72254 0
M  V30 1888 O 169.39 1.7337 -1.29505 0
M  V30 1889 C 169.985 -0.98105 -3.24285 0
M  V30 1890 C 168.544 -0.698935 -3.69854 0
M  V30 1891 C 167.691 -1.168 -2.51502 0
M  V30 1892 H 170.642 -1.06278 -1.17859 0
M  V30 1893 H 170.663 -0.307009 -3.79259 0
M  V30 1894 H 170.175 -2.06079 -3.28866 0
M  V30 1895 H 168.276 0.369112 -3.70767 0
M  V30 1896 H 168.389 -1.28148 -4.61644 0
M  V30 1897 H 166.753 -0.587535 -2.47831 0
M  V30 1898 H 167.536 -2.25533 -2.58824 0
M  V30 1899 N 169.982 1.44106 -0.638065 0
M  V30 1900 C 171.259 1.95453 -0.0759321 0
M  V30 1901 C 171.639 1.57984 1.40015 0
M  V30 1902 O 170.987 0.857361 2.11806 0
M  V30 1903 C 171.197 3.47655 -0.306132 0
M  V30 1904 C 172.545 4.24114 -0.203008 0
M  V30 1905 O 173.569 3.55405 -0.237871 0
M  V30 1906 O 172.428 5.46381 -0.113827 0
M  V30 1907 H 169.522 0.826797 0.0183332 0
M  V30 1908 H 172.068 1.54122 -0.710251 0
M  V30 1909 H 170.84 3.68 -1.3301 0
M  V30 1910 H 170.463 3.95949 0.361991 0
M  V30 1911 N 171.46 0.379036 1.52974 0
M  V30 1912 C 172.706 -0.206727 2.01744 0
M  V30 1913 C 173.039 -1.47314 1.26539 0
M  V30 1914 O 172.314 -1.91084 0.362903 0
M  V30 1915 C 172.597 -0.485066 3.56818 0
M  V30 1916 C 172.45 0.795919 4.42702 0
M  V30 1917 C 173.769 -1.28003 4.21074 0
M  V30 1918 H 170.888 -0.0736607 0.73331 0
M  V30 1919 H 173.53 0.506581 1.83122 0
M  V30 1920 H 171.68 -1.09272 3.72816 0
M  V30 1921 H 173.352 1.43307 4.38476 0
M  V30 1922 H 171.595 1.41344 4.10127 0
M  V30 1923 H 172.266 0.555947 5.49193 0
M  V30 1924 H 174.742 -0.765867 4.08991 0
M  V30 1925 H 173.618 -1.44352 5.29579 0
M  V30 1926 H 173.879 -2.29236 3.78026 0
M  V30 1927 N 172.938 -1.57226 0.108567 0
M  V30 1928 C 174.184 -1.95121 -0.552761 0
M  V30 1929 C 174.517 -0.991345 -1.66991 0
M  V30 1930 O 173.792 -0.0267211 -1.94482 0
M  V30 1931 C 174.075 -3.43039 -1.09528 0
M  V30 1932 C 173.928 -4.49797 0.0177332 0
M  V30 1933 C 175.247 -3.92567 -1.98945 0
M  V30 1934 H 172.366 -0.709496 -0.199461 0
M  V30 1935 H 175.008 -1.89126 0.182011 0
M  V30 1936 H 173.158 -3.48279 -1.72146 0
M  V30 1937 H 174.83 -4.56661 0.652584 0
M  V30 1938 H 173.073 -4.284 0.682309 0
M  V30 1939 H 173.744 -5.50528 -0.402919 0
M  V30 1940 H 176.22 -3.89565 -1.46214 0
M  V30 1941 H 175.096 -4.96605 -2.33827 0
M  V30 1942 H 175.357 -3.32648 -2.91201 0
M  V30 1943 N 174.416 0.165178 -1.56732 0
M  V30 1944 C 175.346 1.20651 -1.99914 0
M  V30 1945 C 176.327 1.45827 -0.875705 0
M  V30 1946 O 177.512 1.57057 -1.14223 0
M  V30 1947 C 174.642 2.54401 -2.36427 0
M  V30 1948 C 173.596 2.43782 -3.51787 0
M  V30 1949 C 172.922 3.82078 -3.7406 0
M  V30 1950 C 174.222 1.93732 -4.85041 0
M  V30 1951 H 175.916 0.847534 -2.87154 0
M  V30 1952 H 173.462 0.40625 -1.38151 0
M  V30 1953 H 175.415 3.27458 -2.65234 0
M  V30 1954 H 174.139 2.92098 -1.46103 0
M  V30 1955 H 172.798 1.73178 -3.23117 0
M  V30 1956 H 172.446 4.17179 -2.81017 0
M  V30 1957 H 172.146 3.7584 -4.51684 0
M  V30 1958 H 173.67 4.56712 -4.05274 0
M  V30 1959 H 175.084 2.56569 -5.12684 0
M  V30 1960 H 173.481 1.98428 -5.66345 0
M  V30 1961 H 174.551 0.891962 -4.76626 0
M  V30 1962 N 175.894 1.51508 0.433938 0
M  V30 1963 C 177.124 1.67914 1.20369 0
M  V30 1964 C 177.532 0.377461 1.85397 0
M  V30 1965 O 176.875 -0.654255 1.71654 0
M  V30 1966 C 176.937 2.74045 2.32679 0
M  V30 1967 C 176.601 4.16543 1.87991 0
M  V30 1968 C 177.598 5.01211 1.38145 0
M  V30 1969 C 175.283 4.6266 1.95579 0
M  V30 1970 C 177.277 6.30056 0.964774 0
M  V30 1971 C 174.964 5.91501 1.53523 0
M  V30 1972 C 175.962 6.75027 1.04055 0
M  V30 1973 O 175.65 8.01459 0.625964 0
M  V30 1974 H 175.382 0.566578 0.368735 0
M  V30 1975 H 177.936 1.98709 0.51999 0
M  V30 1976 H 176.166 2.38572 3.04336 0
M  V30 1977 H 177.855 2.79295 2.94532 0
M  V30 1978 H 178.621 4.66783 1.31675 0
M  V30 1979 H 174.5 3.97767 2.33029 0
M  V30 1980 H 178.044 6.95202 0.57796 0
M  V30 1981 H 173.941 6.25442 1.59665 0
M  V30 1982 H 174.709 8.15043 0.751509 0
M  V30 1983 N 177.372 -0.689602 1.41712 0
M  V30 1984 C 178.32 -1.82475 1.44242 0
M  V30 1985 C 179.314 -1.66354 0.319774 0
M  V30 1986 O 180.52 -1.73143 0.492089 0
M  V30 1987 H 176.895 -0.601416 0.451445 0
M  V30 1988 H 178.866 -1.77458 2.39899 0
M  V30 1989 C 177.615 -3.20535 1.3473 0
M  V30 1990 H 176.938 -3.33559 2.20405 0
M  V30 1991 H 178.378 -4.00023 1.40562 0
M  V30 1992 C 176.837 -3.36846 0.0603281 0
M  V30 1993 O 177.367 -3.91656 -0.892663 0
M  V30 1994 N 175.573 -2.90595 -0.0177039 0
M  V30 1995 H 175.12 -2.46178 0.758572 0
M  V30 1996 H 175.078 -3.01886 -0.878201 0
M  V30 1997 N 178.85 -1.27639 -0.924453 0
M  V30 1998 C 179.798 -1.10485 -2.04685 0
M  V30 1999 C 180.792 -0.0270421 -1.69378 0
M  V30 2000 O 181.998 -0.185008 -1.79047 0
M  V30 2001 H 178.373 -0.340546 -0.670472 0
M  V30 2002 H 180.344 -2.05566 -2.16298 0
M  V30 2003 C 179.093 -0.772229 -3.39016 0
M  V30 2004 H 178.416 -1.59351 -3.66671 0
M  V30 2005 H 179.856 -0.692097 -4.18313 0
M  V30 2006 C 178.315 0.523554 -3.32807 0
M  V30 2007 O 178.845 1.55702 -3.70297 0
M  V30 2008 N 177.051 0.520363 -2.85903 0
M  V30 2009 H 176.598 -0.32107 -2.55591 0
M  V30 2010 H 176.556 1.38742 -2.82131 0
M  V30 2011 N 180.328 1.1314 -1.09713 0
M  V30 2012 C 181.291 2.16831 -0.742751 0
M  V30 2013 C 182.291 1.59159 0.229129 0
M  V30 2014 O 183.481 1.74199 0.00693237 0
M  V30 2015 C 180.613 3.40756 -0.0989168 0
M  V30 2016 H 181.806 2.49695 -1.66109 0
M  V30 2017 H 179.359 1.2802 -0.896699 0
M  V30 2018 H 180.094 3.13485 0.830514 0
M  V30 2019 H 179.879 3.83888 -0.798265 0
M  V30 2020 H 181.369 4.17386 0.133524 0
M  V30 2021 N 181.806 0.884767 1.30421 0
M  V30 2022 C 183.083 0.423185 1.90967 0
M  V30 2023 C 183.463 -1.09605 1.80416 0
M  V30 2024 O 182.811 -1.93126 1.22125 0
M  V30 2025 C 183.021 0.921056 3.36627 0
M  V30 2026 C 184.369 0.955903 4.137 0
M  V30 2027 O 185.393 0.867706 3.4547 0
M  V30 2028 O 184.252 1.08614 5.35598 0
M  V30 2029 H 181.346 0.129369 0.816819 0
M  V30 2030 H 183.892 0.973653 1.3899 0
M  V30 2031 H 182.664 1.96489 3.3839 0
M  V30 2032 H 182.287 0.349741 3.96059 0
M  V30 2033 N 183.284 -1.43765 0.645699 0
M  V30 2034 C 184.532 -2.01499 0.155731 0
M  V30 2035 C 184.853 -1.51151 -1.232 0
M  V30 2036 O 184.123 -0.721044 -1.82148 0
M  V30 2037 H 182.703 -0.745003 0.0545817 0
M  V30 2038 H 185.365 -1.76075 0.835677 0
M  V30 2039 H 184.461 -3.1181 0.134577 0
M  V30 2040 N 184.763 -0.387143 -1.52771 0
M  V30 2041 C 185.696 0.493123 -2.22808 0
M  V30 2042 C 186.674 1.0658 -1.22798 0
M  V30 2043 O 187.858 1.11785 -1.51777 0
M  V30 2044 C 184.985 1.68238 -2.93962 0
M  V30 2045 C 184.031 1.23515 -4.08223 0
M  V30 2046 S 184.864 0.21848 -5.35054 0
M  V30 2047 C 186.02 1.41357 -6.09729 0
M  V30 2048 H 186.253 -0.101625 -2.97126 0
M  V30 2049 H 183.786 -0.171323 -1.53447 0
M  V30 2050 H 185.744 2.36443 -3.35567 0
M  V30 2051 H 184.405 2.24842 -2.19328 0
M  V30 2052 H 183.598 2.12304 -4.57103 0
M  V30 2053 H 183.2 0.632044 -3.68621 0
M  V30 2054 H 185.492 2.34101 -6.3577 0
M  V30 2055 H 186.435 0.965736 -7.01484 0
M  V30 2056 H 186.843 1.6294 -5.40473 0
M  V30 2057 N 186.241 1.57166 -0.116904 0
M  V30 2058 C 187.471 1.99184 0.548586 0
M  V30 2059 C 187.879 0.995436 1.60897 0
M  V30 2060 O 187.222 -0.0201293 1.83689 0
M  V30 2061 C 187.284 3.37611 1.23526 0
M  V30 2062 C 186.948 4.55857 0.323077 0
M  V30 2063 C 187.945 5.18056 -0.437476 0
M  V30 2064 C 185.63 5.01751 0.234761 0
M  V30 2065 C 187.624 6.24536 -1.2741 0
M  V30 2066 C 185.311 6.08093 -0.605496 0
M  V30 2067 C 186.309 6.69352 -1.35856 0
M  V30 2068 O 185.997 7.7364 -2.18487 0
M  V30 2069 H 185.729 0.659148 0.149999 0
M  V30 2070 H 188.283 2.0443 -0.199428 0
M  V30 2071 H 186.513 3.29113 2.0303 0
M  V30 2072 H 188.202 3.63932 1.79745 0
M  V30 2073 H 188.968 4.83516 -0.379105 0
M  V30 2074 H 184.847 4.53817 0.810601 0
M  V30 2075 H 188.391 6.72281 -1.86237 0
M  V30 2076 H 184.288 6.42063 -0.665268 0
M  V30 2077 H 185.056 7.90727 -2.11406 0
M  V30 2078 N 187.719 -0.156864 1.56817 0
M  V30 2079 C 188.629 -1.2136 2.00771 0
M  V30 2080 C 189.645 -1.47598 0.921459 0
M  V30 2081 O 190.821 -1.59462 1.2302 0
M  V30 2082 C 187.886 -2.52943 2.37109 0
M  V30 2083 C 186.947 -2.34439 3.59634 0
M  V30 2084 C 186.18 -3.59748 3.94229 0
M  V30 2085 O 186.403 -4.65526 3.29609 0
M  V30 2086 O 185.337 -3.52998 4.8752 0
M  V30 2087 H 189.163 -0.870468 2.90958 0
M  V30 2088 H 186.748 -0.36484 1.44877 0
M  V30 2089 H 188.63 -3.30538 2.61386 0
M  V30 2090 H 187.305 -2.86806 1.5008 0
M  V30 2091 H 186.212 -1.54828 3.40557 0
M  V30 2092 H 187.545 -2.05496 4.4725 0
M  V30 2093 N 189.197 -1.51736 -0.425897 0
M  V30 2094 C 190.443 -1.65214 -1.1761 0
M  V30 2095 C 190.776 -0.372778 -1.90589 0
M  V30 2096 O 190.051 0.628139 -1.84078 0
M  V30 2097 C 190.334 -2.86312 -2.18398 0
M  V30 2098 C 190.187 -4.24254 -1.49426 0
M  V30 2099 C 191.506 -3.02925 -3.19256 0
M  V30 2100 H 188.625 -0.601263 -0.426206 0
M  V30 2101 H 191.267 -1.8425 -0.463882 0
M  V30 2102 H 189.417 -2.70213 -2.79137 0
M  V30 2103 H 191.089 -4.52046 -0.919362 0
M  V30 2104 H 189.332 -4.26426 -0.796432 0
M  V30 2105 H 190.003 -5.05001 -2.22885 0
M  V30 2106 H 192.479 -3.1781 -2.68581 0
M  V30 2107 H 191.355 -3.89199 -3.8706 0
M  V30 2108 H 191.616 -2.15497 -3.86023 0
M  V30 2109 N 190.675 0.682077 -1.42076 0
M  V30 2110 C 191.9 1.47558 -1.45744 0
M  V30 2111 C 192.325 1.87977 -0.0680981 0
M  V30 2112 O 191.683 1.55522 0.9318 0
M  V30 2113 C 191.731 2.70575 -2.38373 0
M  V30 2114 O 190.835 3.68573 -1.85007 0
M  V30 2115 H 190.176 0.443585 -0.494093 0
M  V30 2116 H 192.706 0.837238 -1.86686 0
M  V30 2117 H 192.716 3.18729 -2.54707 0
M  V30 2118 H 191.391 2.40495 -3.39315 0
M  V30 2119 H 189.968 3.2757 -1.78192 0
M  V30 2120 N 192.153 1.28127 0.917671 0
M  V30 2121 C 193.4 1.15052 1.66641 0
M  V30 2122 C 193.728 -0.301677 1.92146 0
M  V30 2123 O 192.983 -1.23622 1.51711 0
M  V30 2124 C 193.282 1.89018 3.03327 0
M  V30 2125 C 192.948 3.38832 2.97496 0
M  V30 2126 C 191.61 3.79693 2.95613 0
M  V30 2127 C 193.962 4.34378 2.88036 0
M  V30 2128 C 191.29 5.14447 2.82066 0
M  V30 2129 C 193.642 5.69201 2.7603 0
M  V30 2130 C 192.306 6.09343 2.72502 0
M  V30 2131 H 191.576 0.421006 0.609783 0
M  V30 2132 H 194.223 1.58855 1.06945 0
M  V30 2133 H 192.528 1.37752 3.66785 0
M  V30 2134 H 194.225 1.76321 3.60156 0
M  V30 2135 H 190.815 3.06342 2.99754 0
M  V30 2136 H 194.999 4.03775 2.88581 0
M  V30 2137 H 190.255 5.44681 2.77728 0
M  V30 2138 H 194.429 6.42901 2.67678 0
M  V30 2139 H 192.056 7.13712 2.61762 0
M  V30 2140 N 193.631 -1.12557 1.10312 0
M  V30 2141 C 194.861 -1.87592 0.865617 0
M  V30 2142 C 195.269 -1.79851 -0.587389 0
M  V30 2143 O 194.612 -1.16949 -1.41664 0
M  V30 2144 C 194.674 -3.37665 1.23381 0
M  V30 2145 C 194.338 -3.69181 2.69359 0
M  V30 2146 C 195.335 -3.67652 3.67597 0
M  V30 2147 C 193.02 -3.98555 3.05711 0
M  V30 2148 C 195.014 -3.95053 5.00212 0
M  V30 2149 C 192.701 -4.25616 4.38514 0
M  V30 2150 C 193.699 -4.23851 5.35574 0
M  V30 2151 O 193.387 -4.50242 6.65986 0
M  V30 2152 H 193.119 -0.600442 0.310557 0
M  V30 2153 H 195.673 -1.4335 1.47105 0
M  V30 2154 H 193.903 -3.82454 0.571467 0
M  V30 2155 H 195.592 -3.94041 0.973994 0
M  V30 2156 H 196.358 -3.45024 3.40857 0
M  V30 2157 H 192.237 -3.99071 2.30789 0
M  V30 2158 H 195.781 -3.93591 5.75962 0
M  V30 2159 H 191.678 -4.47718 4.64994 0
M  V30 2160 H 192.446 -4.67867 6.71597 0
M  V30 2161 N 195.109 -0.891671 -1.2995 0
M  V30 2162 C 196.334 -0.527932 -2.00568 0
M  V30 2163 C 196.759 0.877969 -1.66353 0
M  V30 2164 O 196.117 1.58301 -0.883762 0
M  V30 2165 C 196.165 -0.717745 -3.53385 0
M  V30 2166 O 195.269 0.233376 -4.11739 0
M  V30 2167 H 194.61 -0.20722 -0.630837 0
M  V30 2168 H 197.14 -1.20105 -1.65638 0
M  V30 2169 H 197.15 -0.619307 -4.03272 0
M  V30 2170 H 195.825 -1.74276 -3.77625 0
M  V30 2171 H 194.402 0.0880706 -3.72796 0
M  V30 2172 N 196.587 1.43421 -0.653314 0
M  V30 2173 C 197.535 2.32546 0.0501531 0
M  V30 2174 C 198.529 1.48617 0.812985 0
M  V30 2175 O 199.735 1.64825 0.723375 0
M  V30 2176 H 196.11 0.751185 0.0350032 0
M  V30 2177 H 198.081 2.89602 -0.719261 0
M  V30 2178 C 196.83 3.32925 1.00279 0
M  V30 2179 H 196.153 3.97532 0.425236 0
M  V30 2180 H 197.593 3.9792 1.46409 0
M  V30 2181 C 196.052 2.63532 2.09886 0
M  V30 2182 O 196.582 2.45092 3.18265 0
M  V30 2183 N 194.788 2.22905 1.86445 0
M  V30 2184 H 194.335 2.38103 0.98309 0
M  V30 2185 H 194.293 1.76805 2.59976 0
M  V30 2186 N 198.065 0.39524 1.52563 0
M  V30 2187 C 199.028 -0.425001 2.25225 0
M  V30 2188 C 200.028 -0.985266 1.27079 0
M  V30 2189 O 201.218 -0.866332 1.5113 0
M  V30 2190 C 198.35 -1.59686 3.01186 0
M  V30 2191 H 199.543 0.211233 2.99155 0
M  V30 2192 H 197.096 0.147472 1.55603 0
M  V30 2193 H 197.831 -2.27035 2.31572 0
M  V30 2194 H 197.616 -1.20176 3.73229 0
M  V30 2195 H 199.106 -2.17743 3.5634 0
M  V30 2196 N 199.544 -1.57102 0.125237 0
M  V30 2197 C 200.79 -1.95697 -0.532035 0
M  V30 2198 C 201.123 -1.009 -1.6593 0
M  V30 2199 O 200.398 -0.047347 -1.94442 0
M  V30 2200 C 200.681 -3.44181 -1.05884 0
M  V30 2201 C 200.534 -4.49752 0.0654392 0
M  V30 2202 C 201.853 -3.94655 -1.9477 0
M  V30 2203 H 198.972 -0.711571 -0.191925 0
M  V30 2204 H 201.614 -1.88923 0.20206 0
M  V30 2205 H 199.764 -3.50085 -1.68442 0
M  V30 2206 H 201.436 -4.55943 0.700982 0
M  V30 2207 H 199.679 -4.27653 0.727709 0
M  V30 2208 H 200.35 -5.50924 -0.344505 0
M  V30 2209 H 202.826 -3.91094 -1.42074 0
M  V30 2210 H 201.702 -4.99057 -2.28546 0
M  V30 2211 H 201.963 -3.35718 -2.87656 0
M  V30 2212 N 201.022 0.148545 -1.56898 0
M  V30 2213 C 202.268 0.862694 -1.83536 0
M  V30 2214 C 202.601 1.80889 -0.706604 0
M  V30 2215 O 201.876 1.92328 0.289885 0
M  V30 2216 C 202.159 1.63853 -3.20662 0
M  V30 2217 C 202.012 0.713925 -4.44098 0
M  V30 2218 C 203.331 2.60133 -3.54991 0
M  V30 2219 H 200.45 0.312179 -0.667618 0
M  V30 2220 H 203.092 0.127953 -1.89569 0
M  V30 2221 H 201.242 2.26489 -3.1565 0
M  V30 2222 H 202.914 0.098686 -4.61194 0
M  V30 2223 H 201.157 0.0234019 -4.33794 0
M  V30 2224 H 201.828 1.29278 -5.36648 0
M  V30 2225 H 204.304 2.07616 -3.60603 0
M  V30 2226 H 203.18 3.11468 -4.51972 0
M  V30 2227 H 203.441 3.41417 -2.80868 0
M  V30 2228 N 202.5 1.5196 0.417844 0
M  V30 2229 C 203.725 1.69717 1.1921 0
M  V30 2230 C 204.15 0.402148 1.83751 0
M  V30 2231 O 203.508 -0.639593 1.69643 0
M  V30 2232 C 203.556 2.82794 2.2374 0
M  V30 2233 O 202.66 2.47756 3.29683 0
M  V30 2234 H 202.001 0.565263 0.348387 0
M  V30 2235 H 204.531 1.98621 0.490985 0
M  V30 2236 H 204.541 3.07452 2.68212 0
M  V30 2237 H 203.216 3.76756 1.76146 0
M  V30 2238 H 201.793 2.33739 2.90552 0
M  V30 2239 N 203.978 -0.674533 1.42435 0
M  V30 2240 C 205.208 -1.46071 1.46105 0
M  V30 2241 C 205.616 -1.89067 0.0709605 0
M  V30 2242 O 204.959 -1.58731 -0.924677 0
M  V30 2243 C 205.021 -2.74145 2.32561 0
M  V30 2244 C 204.685 -2.53224 3.8043 0
M  V30 2245 C 205.682 -2.17809 4.72075 0
M  V30 2246 C 203.367 -2.6821 4.24698 0
M  V30 2247 C 205.361 -1.97648 6.05982 0
M  V30 2248 C 203.048 -2.47665 5.58664 0
M  V30 2249 C 204.046 -2.12437 6.49122 0
M  V30 2250 O 203.734 -1.9209 7.80613 0
M  V30 2251 H 203.466 -0.455959 0.499076 0
M  V30 2252 H 206.02 -0.836193 1.87609 0
M  V30 2253 H 204.25 -3.3908 1.85908 0
M  V30 2254 H 205.939 -3.36028 2.27683 0
M  V30 2255 H 206.705 -2.05826 4.39159 0
M  V30 2256 H 202.584 -2.94609 3.54579 0
M  V30 2257 H 206.128 -1.70075 6.7655 0
M  V30 2258 H 202.025 -2.59244 5.91154 0
M  V30 2259 H 202.793 -2.06686 7.91974 0
M  V30 2260 N 205.456 -1.28612 -0.910864 0
M  V30 2261 C 206.733 -1.06632 -1.63979 0
M  V30 2262 C 207.113 0.393351 -2.07403 0
M  V30 2263 O 206.461 1.37999 -1.82122 0
M  V30 2264 C 206.671 -2.0436 -2.8291 0
M  V30 2265 C 208.019 -2.34666 -3.5386 0
M  V30 2266 O 209.043 -2.02467 -2.93062 0
M  V30 2267 O 207.902 -2.89631 -4.63439 0
M  V30 2268 H 204.996 -0.407737 -0.7195 0
M  V30 2269 H 207.542 -1.39942 -0.959914 0
M  V30 2270 H 206.314 -3.02727 -2.47936 0
M  V30 2271 H 205.937 -1.71714 -3.58609 0
M  V30 2272 N 206.934 1.1197 -1.10907 0
M  V30 2273 C 208.182 1.83225 -0.852819 0
M  V30 2274 C 208.503 1.84769 0.623341 0
M  V30 2275 O 207.773 1.3143 1.45269 0
M  V30 2276 H 206.353 0.67849 -0.312507 0
M  V30 2277 H 209.015 1.3556 -1.40033 0
M  V30 2278 H 208.111 2.87265 -1.22005 0
M  V30 2279 N 208.412 0.89855 1.29475 0
M  V30 2280 C 209.637 0.538561 2.00285 0
M  V30 2281 C 210.062 -0.869135 1.66816 0
M  V30 2282 O 209.42 -1.57831 0.892145 0
M  V30 2283 C 209.468 0.736475 3.52999 0
M  V30 2284 O 208.572 -0.211537 4.11857 0
M  V30 2285 H 207.913 0.210563 0.62973 0
M  V30 2286 H 210.443 1.20982 1.64998 0
M  V30 2287 H 210.453 0.640685 4.02938 0
M  V30 2288 H 209.128 1.76276 3.76696 0
M  V30 2289 H 207.705 -0.0682991 3.72837 0
M  V30 2290 N 209.89 -1.43072 0.660911 0
M  V30 2291 C 211.139 -2.00942 0.174735 0
M  V30 2292 C 211.452 -1.52797 -1.22117 0
M  V30 2293 O 212.658 -2.02991 -1.80297 0
M  V30 2294 C 211.114 -3.58948 0.261559 0
M  V30 2295 C 210.722 -4.16085 1.66064 0
M  V30 2296 C 212.466 -4.24173 -0.166617 0
M  V30 2297 C 210.373 -5.6641 1.70098 0
M  V30 2298 H 209.303 -0.751483 0.0615631 0
M  V30 2299 H 211.954 -1.63955 0.824069 0
M  V30 2300 H 210.336 -3.93372 -0.455421 0
M  V30 2301 H 211.51 -3.93147 2.40359 0
M  V30 2302 H 209.825 -3.6326 2.03546 0
M  V30 2303 H 212.422 -5.34471 -0.156433 0
M  V30 2304 H 212.765 -3.98647 -1.19943 0
M  V30 2305 H 213.298 -3.94659 0.498875 0
M  V30 2306 H 210.037 -5.96715 2.71315 0
M  V30 2307 H 209.557 -5.91382 1.00139 0
M  V30 2308 H 211.236 -6.30585 1.44816 0
M  V30 2309 N 211.368 -0.403325 -1.52352 0
M  V30 2310 C 212.615 0.174347 -2.01748 0
M  V30 2311 C 212.943 1.45636 -1.2892 0
M  V30 2312 O 212.198 1.9193 -0.382258 0
M  V30 2313 C 212.497 0.474665 -3.54234 0
M  V30 2314 C 212.163 -0.717458 -4.45155 0
M  V30 2315 C 210.825 -1.04447 -4.69728 0
M  V30 2316 C 213.177 -1.51432 -4.98716 0
M  V30 2317 C 210.505 -2.16963 -5.45109 0
M  V30 2318 C 212.857 -2.6302 -5.75329 0
M  V30 2319 C 211.521 -2.96213 -5.98175 0
M  V30 2320 H 210.791 0.0637981 -0.738248 0
M  V30 2321 H 213.438 -0.543553 -1.83624 0
M  V30 2322 H 211.743 1.27406 -3.70506 0
M  V30 2323 H 213.44 0.934496 -3.89959 0
M  V30 2324 H 210.03 -0.452596 -4.26204 0
M  V30 2325 H 214.214 -1.27491 -4.79645 0
M  V30 2326 H 209.47 -2.43034 -5.61021 0
M  V30 2327 H 213.644 -3.25158 -6.15829 0
M  V30 2328 H 211.271 -3.83516 -6.56368 0
M  V30 2329 N 212.846 1.57033 -0.133567 0
M  V30 2330 C 214.092 1.96764 0.515326 0
M  V30 2331 C 214.447 1.01653 1.63353 0
M  V30 2332 O 213.74 0.0491374 1.91537 0
M  V30 2333 C 213.934 3.40674 1.08057 0
M  V30 2334 C 213.763 4.49696 0.0186522 0
M  V30 2335 C 212.533 5.03567 -0.418174 0
M  V30 2336 C 214.731 5.08536 -0.767809 0
M  V30 2337 N 212.713 5.9618 -1.46434 0
M  V30 2338 C 214.084 5.97231 -1.6648 0
M  V30 2339 C 216.139 4.9115 -0.817087 0
M  V30 2340 C 214.842 6.70401 -2.60681 0
M  V30 2341 C 216.868 5.65012 -1.74687 0
M  V30 2342 C 216.23 6.53403 -2.63141 0
M  V30 2343 H 212.329 0.765919 0.157771 0
M  V30 2344 H 214.913 1.93395 -0.22506 0
M  V30 2345 H 213.084 3.44662 1.79061 0
M  V30 2346 H 214.816 3.67495 1.69497 0
M  V30 2347 H 211.571 4.73594 -0.0229803 0
M  V30 2348 H 211.995 6.47191 -1.98678 0
M  V30 2349 H 216.637 4.22543 -0.147326 0
M  V30 2350 H 214.355 7.38245 -3.28664 0
M  V30 2351 H 217.941 5.53559 -1.79063 0
M  V30 2352 H 216.821 7.09556 -3.33917 0
M  V30 2353 N 214.325 -0.140222 1.56975 0
M  V30 2354 C 215.255 -1.17456 2.01808 0
M  V30 2355 C 216.236 -1.44415 0.898794 0
M  V30 2356 O 217.421 -1.5522 1.16707 0
M  V30 2357 C 214.551 -2.50607 2.40444 0
M  V30 2358 C 213.505 -2.38155 3.55621 0
M  V30 2359 C 212.831 -3.76078 3.80091 0
M  V30 2360 C 214.131 -1.85991 4.88062 0
M  V30 2361 H 215.825 -0.801743 2.88466 0
M  V30 2362 H 213.371 -0.38422 1.38779 0
M  V30 2363 H 215.324 -3.23197 2.7041 0
M  V30 2364 H 214.048 -2.89737 1.50732 0
M  V30 2365 H 212.707 -1.68016 3.25832 0
M  V30 2366 H 212.355 -4.12656 2.87618 0
M  V30 2367 H 212.055 -3.68606 4.57606 0
M  V30 2368 H 213.579 -4.50206 4.12488 0
M  V30 2369 H 214.993 -2.4838 5.16701 0
M  V30 2370 H 213.39 -1.89393 5.6943 0
M  V30 2371 H 214.46 -0.816023 4.77984 0
M  V30 2372 N 215.803 -1.52179 -0.40978 0
M  V30 2373 C 217.214 -1.58377 -0.988615 0
M  V30 2374 C 217.565 -0.423879 -1.91566 0
M  V30 2375 O 216.69 0.455844 -2.11544 0
M  V30 2376 C 217.285 -2.87044 -1.79976 0
M  V30 2377 C 215.844 -2.95722 -2.32863 0
M  V30 2378 C 214.991 -2.53309 -1.12828 0
M  V30 2379 H 217.942 -1.57558 -0.190039 0
M  V30 2380 H 217.963 -2.7236 -2.65707 0
M  V30 2381 H 217.475 -3.71444 -1.12478 0
M  V30 2382 H 215.576 -2.15814 -3.03735 0
M  V30 2383 H 215.689 -3.99951 -2.63773 0
M  V30 2384 H 214.053 -2.07142 -1.48204 0
M  V30 2385 H 214.836 -3.40082 -0.46897 0
M  V30 2386 N 217.281 0.66697 -1.42791 0
M  V30 2387 C 218.692 1.2478 -1.38877 0
M  V30 2388 C 219.043 1.96012 -0.0859426 0
M  V30 2389 O 218.168 2.00463 0.815081 0
M  V30 2390 C 218.763 2.26938 -2.51564 0
M  V30 2391 C 217.322 2.80529 -2.50959 0
M  V30 2392 C 216.469 1.54965 -2.29959 0
M  V30 2393 H 219.42 0.459853 -1.51892 0
M  V30 2394 H 219.441 3.08834 -2.22265 0
M  V30 2395 H 218.953 1.75065 -3.46372 0
M  V30 2396 H 217.054 3.36502 -1.59991 0
M  V30 2397 H 217.167 3.29012 -3.48265 0
M  V30 2398 H 215.531 1.81817 -1.78366 0
M  V30 2399 H 216.314 1.05047 -3.26833 0
M  V30 2400 N 218.759 1.29093 0.90403 0
M  V30 2401 C 219.722 1.1386 1.98919 0
M  V30 2402 C 220.722 0.0753457 1.60623 0
M  V30 2403 O 221.912 0.321931 1.71199 0
M  V30 2404 C 219.044 0.740198 3.32767 0
M  V30 2405 H 220.237 2.10246 2.13861 0
M  V30 2406 H 217.79 1.12218 1.08797 0
M  V30 2407 H 218.525 -0.223997 3.23525 0
M  V30 2408 H 218.31 1.50838 3.61926 0
M  V30 2409 H 219.8 0.656546 4.12407 0
M  V30 2410 N 220.237 -1.11381 1.11499 0
M  V30 2411 C 221.486 -1.82494 0.858993 0
M  V30 2412 C 221.799 -1.85605 -0.617278 0
M  V30 2413 O 223.005 -2.52824 -0.989552 0
M  V30 2414 C 221.461 -3.27745 1.48699 0
M  V30 2415 C 221.069 -3.32961 2.99735 0
M  V30 2416 C 222.813 -4.03754 1.31085 0
M  V30 2417 C 220.72 -4.72612 3.55516 0
M  V30 2418 H 219.65 -0.683802 0.317696 0
M  V30 2419 H 222.301 -1.25331 1.34031 0
M  V30 2420 H 220.683 -3.84844 0.933339 0
M  V30 2421 H 221.857 -2.85741 3.61509 0
M  V30 2422 H 220.172 -2.70433 3.16631 0
M  V30 2423 H 222.769 -5.06891 1.70192 0
M  V30 2424 H 223.112 -4.15527 0.253496 0
M  V30 2425 H 223.645 -3.53043 1.83318 0
M  V30 2426 H 220.384 -4.66036 4.60967 0
M  V30 2427 H 219.904 -5.2024 2.98513 0
M  V30 2428 H 221.583 -5.4157 3.53992 0
M  V30 2429 N 221.715 -0.905404 -1.28997 0
M  V30 2430 C 222.945 -0.549049 -1.99171 0
M  V30 2431 C 223.353 0.87203 -1.67906 0
M  V30 2432 O 222.696 1.58796 -0.923561 0
M  V30 2433 C 222.758 -0.668306 -3.53234 0
M  V30 2434 C 222.422 -2.0574 -4.08069 0
M  V30 2435 C 223.419 -3.0292 -4.22534 0
M  V30 2436 C 221.104 -2.36833 -4.42962 0
M  V30 2437 C 223.098 -4.29314 -4.71135 0
M  V30 2438 C 220.785 -3.63467 -4.91258 0
M  V30 2439 C 221.783 -4.59522 -5.053 0
M  V30 2440 O 221.471 -5.83907 -5.52546 0
M  V30 2441 H 221.203 -0.208784 -0.64295 0
M  V30 2442 H 223.757 -1.21836 -1.65363 0
M  V30 2443 H 221.987 0.0580547 -3.86656 0
M  V30 2444 H 223.676 -0.320273 -4.04634 0
M  V30 2445 H 224.442 -2.80216 -3.95859 0
M  V30 2446 H 220.321 -1.62824 -4.31288 0
M  V30 2447 H 223.865 -5.04293 -4.8201 0
M  V30 2448 H 219.762 -3.86 -5.17372 0
M  V30 2449 H 220.53 -5.86578 -5.70849 0
M  V30 2450 N 223.193 1.4272 -0.668489 0
M  V30 2451 C 224.14 2.30796 0.0137489 0
M  V30 2452 C 225.11 1.4561 0.799177 0
M  V30 2453 O 226.295 1.74453 0.772702 0
M  V30 2454 C 223.435 3.31377 0.963507 0
M  V30 2455 C 222.548 4.31655 0.172569 0
M  V30 2456 C 221.683 5.19312 1.1175 0
M  V30 2457 C 220.722 6.11274 0.317886 0
M  V30 2458 N 219.859 6.91504 1.2152 0
M  V30 2459 H 224.699 2.88585 -0.743161 0
M  V30 2460 H 222.236 1.42154 -0.378226 0
M  V30 2461 H 224.194 3.88214 1.52792 0
M  V30 2462 H 222.824 2.75202 1.68712 0
M  V30 2463 H 221.876 3.76988 -0.508374 0
M  V30 2464 H 223.188 4.96779 -0.448527 0
M  V30 2465 H 222.342 5.80851 1.75206 0
M  V30 2466 H 221.081 4.5435 1.77249 0
M  V30 2467 H 220.086 5.48809 -0.329918 0
M  V30 2468 H 221.311 6.78283 -0.332917 0
M  V30 2469 H 219.257 6.29176 1.85671 0
M  V30 2470 H 219.174 7.53209 0.649036 0
M  V30 2471 H 220.442 7.57535 1.83742 0
M  V30 2472 N 224.671 0.411399 1.52136 0
M  V30 2473 C 225.896 -0.165538 2.06738 0
M  V30 2474 C 226.321 -1.379 1.27926 0
M  V30 2475 O 225.679 -1.78628 0.310114 0
M  V30 2476 C 225.727 -0.492124 3.57226 0
M  V30 2477 O 224.831 -1.58276 3.80818 0
M  V30 2478 H 224.172 -0.0132132 0.663869 0
M  V30 2479 H 226.702 0.585253 1.96051 0
M  V30 2480 H 226.712 -0.750104 4.01045 0
M  V30 2481 H 225.387 0.394922 4.14021 0
M  V30 2482 H 223.964 -1.31677 3.48877 0
M  V30 2483 N 226.149 -1.5696 0.141893 0
M  V30 2484 C 227.112 -2.15316 -0.785587 0
M  V30 2485 C 228.112 -1.09366 -1.1788 0
M  V30 2486 O 229.302 -1.35031 -1.10056 0
M  V30 2487 C 226.434 -2.71211 -2.06537 0
M  V30 2488 H 227.627 -2.98608 -0.278041 0
M  V30 2489 H 225.18 -1.5593 -0.107519 0
M  V30 2490 H 225.915 -1.91571 -2.6167 0
M  V30 2491 H 225.7 -3.4872 -1.79268 0
M  V30 2492 H 227.19 -3.16189 -2.72789 0
M  V30 2493 N 227.627 0.131896 -1.57047 0
M  V30 2494 C 228.867 0.847972 -1.85981 0
M  V30 2495 C 229.231 1.77655 -0.7282 0
M  V30 2496 O 230.432 2.53322 -0.898968 0
M  V30 2497 C 228.703 1.58919 -3.20124 0
M  V30 2498 S 230.262 2.34862 -3.70655 0
M  V30 2499 H 227.08 0.283273 -0.652133 0
M  V30 2500 H 229.682 0.107057 -1.95207 0
M  V30 2501 H 228.386 0.898771 -4.00438 0
M  V30 2502 H 227.917 2.37073 -3.13942 0
M  V30 2503 H 229.932 3.60344 -3.41126 0
M  V30 2504 N 229.106 1.52395 0.401703 0
M  V30 2505 C 230.053 1.76268 1.48991 0
M  V30 2506 C 231.023 0.605386 1.54675 0
M  V30 2507 O 232.208 0.843742 1.7113 0
M  V30 2508 C 229.348 1.92592 2.86361 0
M  V30 2509 C 228.461 3.20259 2.89928 0
M  V30 2510 C 227.596 3.26972 4.18644 0
M  V30 2511 C 226.635 4.48812 4.16214 0
M  V30 2512 N 225.772 4.52877 5.36514 0
M  V30 2513 H 230.612 2.6914 1.27935 0
M  V30 2514 H 228.149 1.33355 0.620871 0
M  V30 2515 H 230.107 2.0004 3.66115 0
M  V30 2516 H 228.737 1.03093 3.05895 0
M  V30 2517 H 227.789 3.21945 2.02621 0
M  V30 2518 H 229.101 4.10056 2.83999 0
M  V30 2519 H 228.255 3.33533 5.06794 0
M  V30 2520 H 226.994 2.35126 4.27278 0
M  V30 2521 H 225.999 4.4239 3.26453 0
M  V30 2522 H 227.224 5.41961 4.09213 0
M  V30 2523 H 225.17 3.63917 5.45802 0
M  V30 2524 H 225.087 5.36529 5.32609 0
M  V30 2525 H 226.355 4.63676 6.26597 0
M  V30 2526 N 230.584 -0.659388 1.43143 0
M  V30 2527 C 231.833 -1.41518 1.43721 0
M  V30 2528 C 232.146 -1.95499 0.0628176 0
M  V30 2529 O 233.352 -2.71446 -0.0539683 0
M  V30 2530 C 231.808 -2.5608 2.52885 0
M  V30 2531 C 231.416 -2.08733 3.96402 0
M  V30 2532 C 233.16 -3.3349 2.62649 0
M  V30 2533 C 231.067 -3.20469 4.97045 0
M  V30 2534 H 229.997 -0.531705 0.534608 0
M  V30 2535 H 232.648 -0.712343 1.69109 0
M  V30 2536 H 231.03 -3.28805 2.20688 0
M  V30 2537 H 232.204 -1.43059 4.3803 0
M  V30 2538 H 230.519 -1.44219 3.90627 0
M  V30 2539 H 233.116 -4.16734 3.35017 0
M  V30 2540 H 233.459 -3.8111 1.67513 0
M  V30 2541 H 233.992 -2.67842 2.94118 0
M  V30 2542 H 230.731 -2.77824 5.93712 0
M  V30 2543 H 230.251 -3.84874 4.60034 0
M  V30 2544 H 231.93 -3.85698 5.19467 0
M  V30 2545 N 232.062 -1.29571 -0.897171 0
M  V30 2546 C 232.972 -1.16808 -2.03453 0
M  V30 2547 C 233.988 -0.0907471 -1.73763 0
M  V30 2548 O 235.164 -0.303312 -1.99103 0
M  V30 2549 C 232.229 -0.848264 -3.36163 0
M  V30 2550 C 231.29 -2.0097 -3.79354 0
M  V30 2551 C 230.523 -1.70505 -5.05731 0
M  V30 2552 O 230.746 -0.62718 -5.66941 0
M  V30 2553 O 229.68 -2.5538 -5.45036 0
M  V30 2554 H 233.506 -2.12325 -2.17144 0
M  V30 2555 H 231.091 -1.09047 -1.02123 0
M  V30 2556 H 232.973 -0.684581 -4.15802 0
M  V30 2557 H 231.648 0.0771071 -3.23608 0
M  V30 2558 H 230.555 -2.22863 -3.00471 0
M  V30 2559 H 231.888 -2.91636 -3.96496 0
M  V30 2560 N 233.54 1.10788 -1.12088 0
M  V30 2561 C 234.786 1.82942 -0.875226 0
M  V30 2562 C 235.119 1.84779 0.597538 0
M  V30 2563 O 234.394 1.30578 1.44152 0
M  V30 2564 C 234.677 3.29789 -1.44606 0
M  V30 2565 C 234.53 3.36307 -2.98693 0
M  V30 2566 C 235.849 4.26064 -1.10261 0
M  V30 2567 H 232.968 0.664195 -0.319397 0
M  V30 2568 H 235.61 1.29867 -1.38689 0
M  V30 2569 H 233.76 3.75118 -1.01089 0
M  V30 2570 H 235.432 2.99487 -3.50864 0
M  V30 2571 H 233.675 2.76318 -3.34411 0
M  V30 2572 H 234.346 4.39694 -3.33726 0
M  V30 2573 H 236.822 3.88951 -1.4784 0
M  V30 2574 H 235.698 5.27183 -1.52869 0
M  V30 2575 H 235.959 4.42098 -0.0142953 0
M  V30 2576 N 235.018 0.912232 1.28515 0
M  V30 2577 C 235.965 0.397954 2.27343 0
M  V30 2578 C 236.935 -0.526766 1.57526 0
M  V30 2579 O 238.12 -0.449292 1.85435 0
M  V30 2580 C 235.26 -0.357263 3.43246 0
M  V30 2581 C 234.373 0.599788 4.27816 0
M  V30 2582 C 233.508 -0.173725 5.30916 0
M  V30 2583 C 232.547 0.777039 6.07148 0
M  V30 2584 N 231.684 0.0371398 7.0209 0
M  V30 2585 H 236.524 1.24577 2.70711 0
M  V30 2586 H 234.061 0.625612 1.33133 0
M  V30 2587 H 236.019 -0.8113 4.09236 0
M  V30 2588 H 234.649 -1.16943 3.00872 0
M  V30 2589 H 233.701 1.17235 3.61884 0
M  V30 2590 H 235.013 1.32704 4.80823 0
M  V30 2591 H 234.167 -0.688394 6.02782 0
M  V30 2592 H 232.906 -0.934041 4.78672 0
M  V30 2593 H 231.911 1.3031 5.34134 0
M  V30 2594 H 233.136 1.53689 6.61481 0
M  V30 2595 H 231.082 -0.705213 6.52198 0
M  V30 2596 H 230.999 0.704249 7.52713 0
M  V30 2597 H 232.267 -0.457383 7.78157 0
M  V30 2598 N 236.496 -1.42363 0.676048 0
M  V30 2599 C 237.446 -2.27987 -0.0242903 0
M  V30 2600 C 238.43 -1.41153 -0.772319 0
M  V30 2601 O 239.622 -1.64592 -0.651025 0
M  V30 2602 C 236.751 -3.29195 -0.973953 0
M  V30 2603 C 235.837 -4.23512 -0.223202 0
M  V30 2604 N 236.228 -4.99865 0.772589 0
M  V30 2605 C 234.526 -4.43606 -0.461469 0
M  V30 2606 C 235.227 -5.68757 1.22027 0
M  V30 2607 N 234.203 -5.40811 0.549975 0
M  V30 2608 H 238.005 -2.84445 0.73949 0
M  V30 2609 H 235.519 -1.54341 0.50522 0
M  V30 2610 H 237.516 -3.89339 -1.49067 0
M  V30 2611 H 236.176 -2.74298 -1.73755 0
M  V30 2612 H 237.187 -5.04921 1.15217 0
M  V30 2613 H 233.864 -3.99749 -1.20446 0
M  V30 2614 H 235.254 -6.40007 2.0455 0
M  V30 2615 N 237.974 -0.419461 -1.51915 0
M  V30 2616 C 239.221 0.152939 -2.01922 0
M  V30 2617 C 239.549 1.4426 -1.30458 0
M  V30 2618 O 238.804 1.91514 -0.402593 0
M  V30 2619 C 239.103 0.437067 -3.54717 0
M  V30 2620 C 238.769 -0.764632 -4.44369 0
M  V30 2621 C 237.431 -1.09423 -4.68594 0
M  V30 2622 C 239.783 -1.56713 -4.97082 0
M  V30 2623 C 237.111 -2.22732 -5.42777 0
M  V30 2624 C 239.463 -2.69107 -5.72507 0
M  V30 2625 C 238.127 -3.02541 -5.95 0
M  V30 2626 H 237.397 0.0559644 -0.738884 0
M  V30 2627 H 240.044 -0.562998 -1.83037 0
M  V30 2628 H 238.349 1.23469 -3.71837 0
M  V30 2629 H 240.046 0.893083 -3.90928 0
M  V30 2630 H 236.636 -0.497775 -4.257 0
M  V30 2631 H 240.82 -1.32571 -4.78266 0
M  V30 2632 H 236.076 -2.48971 -5.58411 0
M  V30 2633 H 240.25 -3.31671 -6.12346 0
M  V30 2634 H 237.877 -3.90457 -6.52264 0
M  V30 2635 N 239.452 1.56882 -0.150215 0
M  V30 2636 C 240.863 1.82995 0.370076 0
M  V30 2637 C 241.214 1.06907 1.64515 0
M  V30 2638 O 240.339 0.315369 2.1409 0
M  V30 2639 C 240.934 3.31942 0.678208 0
M  V30 2640 C 239.493 3.58625 1.14301 0
M  V30 2641 C 238.64 2.76792 0.167778 0
M  V30 2642 H 241.591 1.54209 -0.374858 0
M  V30 2643 H 241.612 3.48272 1.53254 0
M  V30 2644 H 241.124 3.87294 -0.249991 0
M  V30 2645 H 239.225 3.08664 2.08704 0
M  V30 2646 H 239.338 4.67073 1.06676 0
M  V30 2647 H 237.702 2.45972 0.661037 0
M  V30 2648 H 238.485 3.34916 -0.754069 0
M  V30 2649 N 240.93 -0.123565 1.57115 0
M  V30 2650 C 242.177 -0.832153 1.84612 0
M  V30 2651 C 242.505 -1.80093 0.734627 0
M  V30 2652 O 241.76 -1.93766 -0.27442 0
M  V30 2653 C 242.059 -1.62016 3.18568 0
M  V30 2654 C 241.725 -0.796084 4.43817 0
M  V30 2655 C 240.387 -0.568816 4.77826 0
M  V30 2656 C 242.739 -0.221364 5.2073 0
M  V30 2657 C 240.067 0.243499 5.86194 0
M  V30 2658 C 242.419 0.578117 6.29953 0
M  V30 2659 C 241.083 0.815744 6.62497 0
M  V30 2660 H 240.353 -0.304507 0.675542 0
M  V30 2661 H 243 -0.0947248 1.91266 0
M  V30 2662 H 241.305 -2.42837 3.0747 0
M  V30 2663 H 243.002 -2.17231 3.37064 0
M  V30 2664 H 239.592 -0.983307 4.17168 0
M  V30 2665 H 243.776 -0.384173 4.94811 0
M  V30 2666 H 239.032 0.436871 6.09837 0
M  V30 2667 H 243.206 1.03046 6.88734 0
M  V30 2668 H 240.833 1.44701 7.46301 0
M  V30 2669 N 242.408 -1.52605 -0.393616 0
M  V30 2670 C 243.685 -1.58001 -1.15304 0
M  V30 2671 C 244.065 -0.370385 -2.07825 0
M  V30 2672 O 243.413 0.641638 -2.19306 0
M  V30 2673 C 243.623 -2.91652 -1.91677 0
M  V30 2674 C 244.971 -3.4522 -2.47201 0
M  V30 2675 O 245.995 -2.93495 -2.01839 0
M  V30 2676 O 244.854 -4.35579 -3.3005 0
M  V30 2677 H 241.948 -0.637068 -0.527327 0
M  V30 2678 H 244.494 -1.64939 -0.399141 0
M  V30 2679 H 243.266 -3.71136 -1.23992 0
M  V30 2680 H 242.889 -2.88077 -2.74039 0
M  V30 2681 N 243.887 0.651787 -1.4349 0
M  V30 2682 C 244.819 1.77725 -1.44729 0
M  V30 2683 C 245.832 1.59141 -0.343231 0
M  V30 2684 O 247.021 1.67835 -0.607751 0
M  V30 2685 C 244.121 3.15172 -1.24579 0
M  V30 2686 C 243.294 3.60402 -2.47849 0
M  V30 2687 C 242.353 4.76656 -2.22902 0
M  V30 2688 O 241.379 4.86022 -2.96263 0
M  V30 2689 N 242.581 5.66958 -1.24656 0
M  V30 2690 H 245.346 1.77141 -2.41746 0
M  V30 2691 H 242.907 0.835678 -1.38665 0
M  V30 2692 H 244.899 3.90634 -1.0577 0
M  V30 2693 H 243.469 3.1052 -0.360015 0
M  V30 2694 H 242.689 2.75369 -2.82073 0
M  V30 2695 H 243.977 3.87368 -3.29884 0
M  V30 2696 H 243.375 5.62065 -0.640265 0
M  V30 2697 H 241.932 6.42135 -1.1183 0
M  V30 2698 N 245.365 1.30045 0.890287 0
M  V30 2699 C 246.297 1.11786 2.00091 0
M  V30 2700 C 247.31 0.0626307 1.62679 0
M  V30 2701 O 248.499 0.308112 1.75821 0
M  V30 2702 C 245.599 0.681527 3.31977 0
M  V30 2703 C 244.772 1.81735 3.97858 0
M  V30 2704 C 243.831 1.37045 5.08041 0
M  V30 2705 O 242.857 2.07677 5.29961 0
M  V30 2706 N 244.059 0.246525 5.79976 0
M  V30 2707 H 246.824 2.07441 2.16306 0
M  V30 2708 H 244.385 1.2211 1.06305 0
M  V30 2709 H 246.377 0.365675 4.03045 0
M  V30 2710 H 244.947 -0.182828 3.12065 0
M  V30 2711 H 244.167 2.30159 3.20032 0
M  V30 2712 H 245.455 2.57865 4.38615 0
M  V30 2713 H 244.853 -0.34215 5.64664 0
M  V30 2714 H 243.41 -0.00990438 6.51799 0
M  V30 2715 N 246.843 -1.10192 1.12674 0
M  V30 2716 C 247.791 -2.18694 0.792196 0
M  V30 2717 C 248.785 -1.67938 -0.222058 0
M  V30 2718 O 249.991 -1.79822 -0.0800074 0
M  V30 2719 H 246.366 -0.713223 0.238364 0
M  V30 2720 H 248.337 -2.44149 1.71564 0
M  V30 2721 C 247.086 -3.46682 0.265859 0
M  V30 2722 H 246.409 -3.86101 1.03761 0
M  V30 2723 H 247.849 -4.23942 0.0701128 0
M  V30 2724 C 246.308 -3.21506 -1.00675 0
M  V30 2725 O 246.838 -3.43408 -2.08408 0
M  V30 2726 N 245.044 -2.75158 -0.934692 0
M  V30 2727 H 244.591 -2.57535 -0.0578604 0
M  V30 2728 H 244.549 -2.58691 -1.7868 0
M  V30 2729 N 248.321 -0.919034 -1.28029 0
M  V30 2730 C 249.561 -0.562107 -1.96519 0
M  V30 2731 C 249.925 0.878784 -1.70708 0
M  V30 2732 O 251.126 1.34355 -2.32813 0
M  V30 2733 C 249.397 -0.868953 -3.46676 0
M  V30 2734 S 250.956 -0.619237 -4.34409 0
M  V30 2735 H 247.774 -0.2078 -0.679956 0
M  V30 2736 H 250.376 -1.18562 -1.55446 0
M  V30 2737 H 249.08 -1.91547 -3.62957 0
M  V30 2738 H 248.611 -0.234301 -3.92702 0
M  V30 2739 H 250.626 0.526995 -4.93394 0
M  V30 2740 N 249.799 1.42003 -0.683588 0
M  V30 2741 C 251.027 2.05746 -0.218182 0
M  V30 2742 C 251.442 1.51396 1.12804 0
M  V30 2743 O 250.799 0.657303 1.70252 0
M  V30 2744 C 250.85 3.61171 -0.154131 0
M  V30 2745 O 250.571 4.13508 -1.44716 0
M  V30 2746 C 252.072 4.42042 0.333713 0
M  V30 2747 H 249.292 0.662888 -0.10402 0
M  V30 2748 H 251.836 1.81987 -0.9328 0
M  V30 2749 H 249.991 3.84012 0.511231 0
M  V30 2750 H 250.405 5.07453 -1.32632 0
M  V30 2751 H 251.879 5.51028 0.327423 0
M  V30 2752 H 252.356 4.17269 1.37053 0
M  V30 2753 H 252.962 4.24239 -0.300222 0
M  V30 2754 N 251.277 0.427512 1.51691 0
M  V30 2755 C 252.21 -0.433876 2.24037 0
M  V30 2756 C 253.188 -1.03287 1.25581 0
M  V30 2757 O 254.372 -1.07722 1.54688 0
M  V30 2758 C 251.499 -1.60385 2.98319 0
M  V30 2759 C 250.545 -1.12648 4.11355 0
M  V30 2760 S 251.378 -0.076543 5.35445 0
M  V30 2761 C 252.534 -1.25141 6.13262 0
M  V30 2762 H 252.767 0.180367 2.96752 0
M  V30 2763 H 250.3 0.211946 1.52938 0
M  V30 2764 H 252.258 -2.27462 3.41718 0
M  V30 2765 H 250.919 -2.18948 2.25213 0
M  V30 2766 H 250.112 -2.0011 4.62571 0
M  V30 2767 H 249.714 -0.534088 3.70167 0
M  V30 2768 H 252.006 -2.17162 6.41753 0
M  V30 2769 H 252.949 -0.779411 7.03797 0
M  V30 2770 H 253.357 -1.48553 5.44603 0
M  V30 2771 N 252.755 -1.56801 0.158532 0
M  V30 2772 C 253.702 -2.17337 -0.776729 0
M  V30 2773 C 254.672 -1.1096 -1.23601 0
M  V30 2774 O 255.857 -1.39054 -1.30647 0
M  V30 2775 C 252.997 -2.80822 -2.00582 0
M  V30 2776 C 252.11 -4.01624 -1.59129 0
M  V30 2777 C 251.245 -4.53072 -2.77306 0
M  V30 2778 C 250.284 -5.66314 -2.32282 0
M  V30 2779 N 249.421 -6.12329 -3.43508 0
M  V30 2780 H 254.261 -2.96918 -0.253701 0
M  V30 2781 H 251.798 -1.46661 -0.113504 0
M  V30 2782 H 253.756 -3.15779 -2.72652 0
M  V30 2783 H 252.386 -2.03866 -2.50277 0
M  V30 2784 H 251.438 -3.72571 -0.767806 0
M  V30 2785 H 252.75 -4.83633 -1.2207 0
M  V30 2786 H 251.904 -4.90145 -3.57551 0
M  V30 2787 H 250.643 -3.70095 -3.17617 0
M  V30 2788 H 249.648 -5.28806 -1.5048 0
M  V30 2789 H 250.873 -6.51085 -1.93043 0
M  V30 2790 H 248.819 -5.32284 -3.83418 0
M  V30 2791 H 248.736 -6.89293 -3.105 0
M  V30 2792 H 250.004 -6.5405 -4.24075 0
M  V30 2793 N 254.233 0.115231 -1.57178 0
M  V30 2794 C 255.48 0.822351 -1.8505 0
M  V30 2795 C 255.808 1.79701 -0.744168 0
M  V30 2796 O 255.063 1.93909 0.26414 0
M  V30 2797 C 255.362 1.60324 -3.19423 0
M  V30 2798 C 255.028 0.772536 -4.44233 0
M  V30 2799 C 253.69 0.543468 -4.78121 0
M  V30 2800 C 256.042 0.193746 -5.2084 0
M  V30 2801 C 253.37 -0.274583 -5.86057 0
M  V30 2802 C 255.722 -0.611517 -6.29637 0
M  V30 2803 C 254.386 -0.850867 -6.62055 0
M  V30 2804 H 253.656 0.30092 -0.677147 0
M  V30 2805 H 256.303 0.0845802 -1.91313 0
M  V30 2806 H 254.608 2.41203 -3.08753 0
M  V30 2807 H 256.305 2.1544 -3.38211 0
M  V30 2808 H 252.895 0.96117 -4.17683 0
M  V30 2809 H 257.079 0.357926 -4.95008 0
M  V30 2810 H 252.335 -0.469206 -6.09597 0
M  V30 2811 H 256.509 -1.06697 -6.88178 0
M  V30 2812 H 254.136 -1.48657 -7.45523 0
M  V30 2813 N 255.711 1.52812 0.385517 0
M  V30 2814 C 257.127 1.4214 0.725829 0
M  V30 2815 C 257.327 0.544589 1.94001 0
M  V30 2816 O 256.383 0.0193693 2.52493 0
M  V30 2817 C 257.696 2.85042 0.957668 0
M  V30 2818 C 259.244 2.94543 1.05892 0
M  V30 2819 C 259.719 4.38464 1.32337 0
M  V30 2820 N 261.21 4.41804 1.39151 0
M  V30 2821 C 261.945 5.5025 1.61285 0
M  V30 2822 N 261.441 6.68775 1.80866 0
M  V30 2823 N 263.234 5.37798 1.63492 0
M  V30 2824 H 255.385 2.08338 -0.413383 0
M  V30 2825 H 257.648 0.940016 -0.122775 0
M  V30 2826 H 257.354 3.51431 0.137568 0
M  V30 2827 H 257.228 3.27505 1.87137 0
M  V30 2828 H 259.615 2.28321 1.86959 0
M  V30 2829 H 259.696 2.55504 0.123057 0
M  V30 2830 H 259.34 5.05254 0.517793 0
M  V30 2831 H 259.27 4.75059 2.27214 0
M  V30 2832 H 261.761 3.56377 1.25713 0
M  V30 2833 H 262.074 7.47197 1.97271 0
M  V30 2834 H 260.419 6.71797 1.78083 0
M  V30 2835 H 263.61 4.44171 1.47749 0
M  V30 2836 H 263.783 6.22382 1.80402 0
M  V30 2837 N 257.189 -0.644168 1.43834 0
M  V30 2838 C 258.414 -1.43642 1.49605 0
M  V30 2839 C 258.839 -1.8773 0.117913 0
M  V30 2840 O 258.197 -1.57938 -0.890239 0
M  V30 2841 C 258.245 -2.6416 2.45463 0
M  V30 2842 O 257.349 -3.63538 1.94714 0
M  V30 2843 H 256.69 -0.430329 0.50568 0
M  V30 2844 H 259.22 -0.787448 1.8884 0
M  V30 2845 H 259.23 -3.11864 2.63068 0
M  V30 2846 H 257.905 -2.31414 3.45572 0
M  V30 2847 H 256.482 -3.2273 1.86814 0
M  V30 2848 N 258.668 -1.30515 -0.883378 0
M  V30 2849 C 259.914 -1.20617 -1.63778 0
M  V30 2850 C 260.269 0.236469 -1.90941 0
M  V30 2851 O 259.562 1.16596 -1.52039 0
M  V30 2852 C 259.756 -1.96994 -2.98209 0
M  V30 2853 C 259.585 -3.48537 -2.84169 0
M  V30 2854 C 258.355 -4.17893 -2.84067 0
M  V30 2855 C 260.553 -4.43738 -2.60001 0
M  V30 2856 N 258.535 -5.55685 -2.60936 0
M  V30 2857 C 259.906 -5.69105 -2.46007 0
M  V30 2858 C 261.961 -4.33316 -2.45239 0
M  V30 2859 C 260.664 -6.8523 -2.18752 0
M  V30 2860 C 262.69 -5.4921 -2.19369 0
M  V30 2861 C 262.052 -6.73558 -2.06153 0
M  V30 2862 H 258.151 -0.496434 -0.604216 0
M  V30 2863 H 260.735 -1.64544 -1.04083 0
M  V30 2864 H 258.906 -1.55455 -3.55933 0
M  V30 2865 H 260.638 -1.79225 -3.62851 0
M  V30 2866 H 257.393 -3.69739 -2.95956 0
M  V30 2867 H 257.817 -6.28199 -2.52378 0
M  V30 2868 H 262.459 -3.37856 -2.54191 0
M  V30 2869 H 260.177 -7.80729 -2.08537 0
M  V30 2870 H 263.763 -5.43054 -2.08766 0
M  V30 2871 H 262.643 -7.61721 -1.86416 0
M  V30 2872 N 260.146 1.09593 -1.13257 0
M  V30 2873 C 261.374 1.855 -0.916378 0
M  V30 2874 C 261.789 1.81069 0.534738 0
M  V30 2875 O 261.146 1.20562 1.37007 0
M  V30 2876 C 261.197 3.33546 -1.39388 0
M  V30 2877 O 260.918 3.37927 -2.78813 0
M  V30 2878 C 262.419 4.26299 -1.21588 0
M  V30 2879 H 259.639 0.585991 -0.326887 0
M  V30 2880 H 262.183 1.38488 -1.5047 0
M  V30 2881 H 260.338 3.77992 -0.848597 0
M  V30 2882 H 260.752 4.30254 -2.9997 0
M  V30 2883 H 262.226 5.28341 -1.59876 0
M  V30 2884 H 262.703 4.38918 -0.157376 0
M  V30 2885 H 263.309 3.87668 -1.7491 0
M  V30 2886 N 261.624 0.925811 1.2754 0
M  V30 2887 C 262.854 0.580666 1.98272 0
M  V30 2888 C 263.262 -0.845207 1.69272 0
M  V30 2889 O 262.605 -1.57306 0.948707 0
M  V30 2890 C 262.667 0.724418 3.52126 0
M  V30 2891 C 262.331 2.12206 4.04744 0
M  V30 2892 C 263.328 3.09604 4.17662 0
M  V30 2893 C 261.013 2.4385 4.39138 0
M  V30 2894 C 263.007 4.36755 4.64246 0
M  V30 2895 C 260.694 3.71237 4.85414 0
M  V30 2896 C 261.692 4.67503 4.97926 0
M  V30 2897 O 261.38 5.92624 5.43187 0
M  V30 2898 H 261.112 0.218987 0.639547 0
M  V30 2899 H 263.666 1.24452 1.63404 0
M  V30 2900 H 261.896 0.0034663 3.867 0
M  V30 2901 H 263.585 0.384607 4.04074 0
M  V30 2902 H 264.351 2.86478 3.91351 0
M  V30 2903 H 260.23 1.69665 4.28643 0
M  V30 2904 H 263.774 5.11898 4.73927 0
M  V30 2905 H 259.671 3.94182 5.11166 0
M  V30 2906 H 260.439 5.95585 5.61445 0
M  V30 2907 N 263.102 -1.41638 0.69111 0
M  V30 2908 C 264.379 -1.95036 0.148421 0
M  V30 2909 C 264.759 -1.63072 -1.34055 0
M  V30 2910 O 264.107 -0.93538 -2.08478 0
M  V30 2911 C 264.317 -3.46279 0.434951 0
M  V30 2912 C 265.665 -4.23069 0.360275 0
M  V30 2913 O 266.689 -3.54277 0.369613 0
M  V30 2914 O 265.548 -5.45583 0.316534 0
M  V30 2915 H 262.642 -0.826908 0.0123654 0
M  V30 2916 H 265.188 -1.5138 0.766963 0
M  V30 2917 H 263.96 -3.6281 1.46576 0
M  V30 2918 H 263.583 -3.97019 -0.214787 0
M  V30 2919 N 264.58 -0.43555 -1.51462 0
M  V30 2920 C 265.996 -0.0877501 -1.59359 0
M  V30 2921 C 266.196 1.4027 -1.4466 0
M  V30 2922 O 265.252 2.17243 -1.28693 0
M  V30 2923 C 266.565 -0.606264 -2.94525 0
M  V30 2924 C 268.113 -0.566548 -3.0783 0
M  V30 2925 C 268.588 -1.06201 -4.45517 0
M  V30 2926 N 270.079 -1.01992 -4.51832 0
M  V30 2927 C 270.814 -1.37417 -5.5669 0
M  V30 2928 N 270.31 -1.80119 -6.68976 0
M  V30 2929 N 272.103 -1.29245 -5.47039 0
M  V30 2930 H 264.254 -1.40533 -1.59261 0
M  V30 2931 H 266.517 -0.578992 -0.750648 0
M  V30 2932 H 266.223 -1.64901 -3.10645 0
M  V30 2933 H 266.097 -0.0302097 -3.77188 0
M  V30 2934 H 268.484 0.467208 -2.91378 0
M  V30 2935 H 268.565 -1.17898 -2.2701 0
M  V30 2936 H 268.209 -2.09422 -4.62715 0
M  V30 2937 H 268.139 -0.426127 -5.24873 0
M  V30 2938 H 270.63 -0.706308 -3.71241 0
M  V30 2939 H 270.943 -2.05392 -7.45006 0
M  V30 2940 H 269.288 -1.84044 -6.70189 0
M  V30 2941 H 272.479 -0.957522 -4.58202 0
M  V30 2942 H 272.652 -1.57182 -6.28648 0
M  V30 2943 N 266.058 1.56714 -0.166846 0
M  V30 2944 C 267.286 2.0112 0.485644 0
M  V30 2945 C 267.701 1.04705 1.57106 0
M  V30 2946 O 267.058 0.0471923 1.82439 0
M  V30 2947 C 267.109 3.45361 1.06808 0
M  V30 2948 O 266.83 4.38092 0.0259995 0
M  V30 2949 C 268.331 4.05145 1.79924 0
M  V30 2950 H 265.551 0.65931 0.124704 0
M  V30 2951 H 268.095 2.02746 -0.267262 0
M  V30 2952 H 266.25 3.44524 1.7715 0
M  V30 2953 H 266.664 5.22519 0.455398 0
M  V30 2954 H 268.138 5.08009 2.15942 0
M  V30 2955 H 268.615 3.46982 2.69258 0
M  V30 2956 H 269.221 4.09672 1.14234 0
M  V30 2957 N 267.536 -0.106894 1.57237 0
M  V30 2958 C 268.446 -1.14911 2.0453 0
M  V30 2959 C 269.462 -1.44592 0.96795 0
M  V30 2960 O 270.638 -1.55468 1.2803 0
M  V30 2961 C 267.703 -2.45272 2.45036 0
M  V30 2962 C 266.764 -2.22879 3.66911 0
M  V30 2963 C 265.997 -3.47024 4.05475 0
M  V30 2964 O 266.22 -4.54804 3.44252 0
M  V30 2965 O 265.154 -3.3731 4.98504 0
M  V30 2966 H 268.98 -0.777461 2.9358 0
M  V30 2967 H 266.565 -0.318563 1.45964 0
M  V30 2968 H 268.447 -3.22055 2.71769 0
M  V30 2969 H 267.122 -2.81886 1.59129 0
M  V30 2970 H 266.029 -1.43915 3.45311 0
M  V30 2971 H 267.362 -1.91163 4.53561 0
M  V30 2972 N 269.014 -1.53014 -0.377408 0
M  V30 2973 C 270.263 -1.67845 -1.11853 0
M  V30 2974 C 270.576 -0.430625 -1.90801 0
M  V30 2975 O 271.782 -0.459261 -2.67587 0
M  V30 2976 C 270.238 -2.96668 -2.03756 0
M  V30 2977 C 269.846 -4.28671 -1.30175 0
M  V30 2978 C 271.59 -3.20865 -2.77932 0
M  V30 2979 C 269.497 -5.48591 -2.20911 0
M  V30 2980 H 268.427 -0.625343 -0.421263 0
M  V30 2981 H 271.078 -1.79514 -0.380409 0
M  V30 2982 H 269.46 -2.78773 -2.8125 0
M  V30 2983 H 270.634 -4.57157 -0.578259 0
M  V30 2984 H 268.949 -4.10825 -0.679108 0
M  V30 2985 H 271.546 -4.07642 -3.46024 0
M  V30 2986 H 271.889 -2.36424 -3.4265 0
M  V30 2987 H 272.422 -3.39379 -2.07525 0
M  V30 2988 H 269.161 -6.35474 -1.6079 0
M  V30 2989 H 268.681 -5.244 -2.91144 0
M  V30 2990 H 270.36 -5.8292 -2.80736 0
M  V30 2991 N 270.492 0.636531 -1.44174 0
M  V30 2992 C 271.769 1.39463 -1.37148 0
M  V30 2993 C 272.149 2.11082 -0.027507 0
M  V30 2994 O 271.497 2.05954 0.989716 0
M  V30 2995 C 271.707 2.36552 -2.56601 0
M  V30 2996 C 273.055 3.00048 -3.00427 0
M  V30 2997 O 274.079 2.46878 -2.56767 0
M  V30 2998 O 272.938 3.96488 -3.76111 0
M  V30 2999 H 270.032 0.623903 -0.542839 0
M  V30 3000 H 272.578 0.662039 -1.56253 0
M  V30 3001 H 271.35 1.82692 -3.46034 0
M  V30 3002 H 270.973 3.17236 -2.39681 0
M  V30 3003 N 271.97 1.30982 0.876444 0
M  V30 3004 C 272.9 1.20668 1.99903 0
M  V30 3005 C 273.881 0.095354 1.69833 0
M  V30 3006 O 275.066 0.27885 1.92188 0
M  V30 3007 C 272.196 0.90655 3.3526 0
M  V30 3008 C 271.15 1.97675 3.79617 0
M  V30 3009 C 270.476 1.52943 5.1236 0
M  V30 3010 C 271.776 3.389 3.97422 0
M  V30 3011 H 273.47 2.14586 2.0879 0
M  V30 3012 H 271.016 1.03308 1.00317 0
M  V30 3013 H 272.969 0.821025 4.13324 0
M  V30 3014 H 271.693 -0.0682969 3.26529 0
M  V30 3015 H 270.352 2.05205 3.03787 0
M  V30 3016 H 270 0.54262 5.00065 0
M  V30 3017 H 269.7 2.24532 5.43009 0
M  V30 3018 H 271.224 1.45786 5.92941 0
M  V30 3019 H 272.638 3.34081 4.659 0
M  V30 3020 H 271.035 4.0865 4.3946 0
M  V30 3021 H 272.105 3.80163 3.01006 0
M  V30 3022 N 273.449 -1.08991 1.13837 0
M  V30 3023 C 274.695 -1.81526 0.90422 0
M  V30 3024 C 275.028 -1.85706 -0.568066 0
M  V30 3025 O 274.303 -1.32855 -1.42056 0
M  V30 3026 C 274.586 -3.27447 1.49835 0
M  V30 3027 C 274.439 -3.31512 3.04006 0
M  V30 3028 C 275.758 -4.24256 1.17025 0
M  V30 3029 H 272.877 -0.659029 0.329923 0
M  V30 3030 H 275.519 -1.27644 1.40737 0
M  V30 3031 H 273.669 -3.73462 1.07044 0
M  V30 3032 H 275.341 -2.93867 3.55584 0
M  V30 3033 H 273.584 -2.70963 3.38765 0
M  V30 3034 H 274.255 -4.34329 3.40679 0
M  V30 3035 H 276.731 -3.86549 1.54009 0
M  V30 3036 H 275.607 -5.24684 1.61237 0
M  V30 3037 H 275.868 -4.42019 0.0846274 0
M  V30 3038 N 274.927 -0.932562 -1.27047 0
M  V30 3039 C 275.857 -0.452902 -2.29066 0
M  V30 3040 C 276.838 0.489338 -1.62909 0
M  V30 3041 O 278.023 0.393046 -1.90181 0
M  V30 3042 C 275.153 0.290698 -3.46081 0
M  V30 3043 C 274.107 -0.564168 -4.24265 0
M  V30 3044 C 273.433 0.308886 -5.33807 0
M  V30 3045 C 274.733 -1.83112 -4.89149 0
M  V30 3046 H 276.427 -1.30552 -2.69437 0
M  V30 3047 H 273.973 -0.629201 -1.29526 0
M  V30 3048 H 275.926 0.637233 -4.16554 0
M  V30 3049 H 274.65 1.17738 -3.0464 0
M  V30 3050 H 273.309 -0.893477 -3.55545 0
M  V30 3051 H 272.957 1.19467 -4.88607 0
M  V30 3052 H 272.657 -0.259633 -5.87026 0
M  V30 3053 H 274.181 0.650884 -6.07121 0
M  V30 3054 H 275.595 -1.55236 -5.51883 0
M  V30 3055 H 273.992 -2.34353 -5.52448 0
M  V30 3056 H 275.062 -2.54772 -4.12576 0
M  V30 3057 N 276.405 1.4127 -0.698611 0
M  V30 3058 C 277.352 2.30773 -0.0352094 0
M  V30 3059 C 278.322 1.47273 0.768111 0
M  V30 3060 O 279.507 1.76053 0.735524 0
M  V30 3061 C 276.647 3.33346 0.893 0
M  V30 3062 C 275.76 4.31924 0.0809695 0
M  V30 3063 C 274.895 5.21566 1.0071 0
M  V30 3064 C 273.934 6.11811 0.188155 0
M  V30 3065 N 273.071 6.93926 1.06825 0
M  V30 3066 H 277.911 2.86943 -0.804207 0
M  V30 3067 H 275.448 1.4132 -0.408294 0
M  V30 3068 H 277.406 3.91368 1.44523 0
M  V30 3069 H 276.036 2.78719 1.62836 0
M  V30 3070 H 275.088 3.75825 -0.588224 0
M  V30 3071 H 276.4 4.95716 -0.553801 0
M  V30 3072 H 275.554 5.84437 1.62845 0
M  V30 3073 H 274.293 4.58008 1.67572 0
M  V30 3074 H 273.298 5.47986 -0.446254 0
M  V30 3075 H 274.523 6.77425 -0.476716 0
M  V30 3076 H 272.469 6.32973 1.72283 0
M  V30 3077 H 272.386 7.54416 0.489123 0
M  V30 3078 H 273.654 7.61262 1.67632 0
M  V30 3079 N 277.883 0.443576 1.51229 0
M  V30 3080 C 279.108 -0.121648 2.07043 0
M  V30 3081 C 279.533 -1.35156 1.30823 0
M  V30 3082 O 278.891 -1.7793 0.347934 0
M  V30 3083 C 278.939 -0.41624 3.5819 0
M  V30 3084 O 278.043 -1.50163 3.8409 0
M  V30 3085 H 277.384 0.000871367 0.663999 0
M  V30 3086 H 279.914 0.626706 1.94765 0
M  V30 3087 H 279.924 -0.664867 4.02546 0
M  V30 3088 H 278.599 0.482653 4.1309 0
M  V30 3089 H 277.176 -1.24248 3.51592 0
M  V30 3090 N 279.361 -1.56624 0.175154 0
M  V30 3091 C 280.271 -2.21741 -0.766042 0
M  V30 3092 C 281.287 -1.21023 -1.25018 0
M  V30 3093 O 282.463 -1.53697 -1.3015 0
M  V30 3094 C 279.528 -2.84839 -1.97655 0
M  V30 3095 C 278.589 -4.00769 -1.53892 0
M  V30 3096 C 277.822 -4.60849 -2.69173 0
M  V30 3097 O 278.045 -4.19823 -3.86141 0
M  V30 3098 O 276.979 -5.50655 -2.43028 0
M  V30 3099 H 280.805 -3.02738 -0.241585 0
M  V30 3100 H 278.39 -1.49305 -0.053222 0
M  V30 3101 H 280.272 -3.24834 -2.68442 0
M  V30 3102 H 278.947 -2.06836 -2.48999 0
M  V30 3103 H 277.854 -3.65436 -0.80044 0
M  V30 3104 H 279.187 -4.80376 -1.07236 0
M  V30 3105 N 280.839 0.0985539 -1.57292 0
M  V30 3106 C 282.085 0.803867 -1.86188 0
M  V30 3107 C 282.418 1.78549 -0.763794 0
M  V30 3108 O 281.693 1.93153 0.22855 0
M  V30 3109 C 281.976 1.53568 -3.25713 0
M  V30 3110 C 281.829 0.572277 -4.46145 0
M  V30 3111 C 283.148 2.48708 -3.63087 0
M  V30 3112 H 280.267 0.290781 -0.677211 0
M  V30 3113 H 282.909 0.0675783 -1.8988 0
M  V30 3114 H 281.059 2.16332 -3.22696 0
M  V30 3115 H 282.731 -0.0480894 -4.61275 0
M  V30 3116 H 280.974 -0.114618 -4.33649 0
M  V30 3117 H 281.645 1.12139 -5.40489 0
M  V30 3118 H 284.121 1.96039 -3.67026 0
M  V30 3119 H 282.997 2.96932 -4.61652 0
M  V30 3120 H 283.258 3.32309 -2.91588 0
M  V30 3121 N 282.317 1.53212 0.369288 0
M  V30 3122 C 283.28 1.7872 1.43498 0
M  V30 3123 C 284.28 0.657554 1.46741 0
M  V30 3124 O 285.47 0.925736 1.47566 0
M  V30 3125 C 282.602 1.90591 2.82645 0
M  V30 3126 H 283.795 2.73894 1.22156 0
M  V30 3127 H 281.348 1.44233 0.602203 0
M  V30 3128 H 282.083 0.974709 3.09306 0
M  V30 3129 H 281.868 2.72751 2.8169 0
M  V30 3130 H 283.358 2.11931 3.59826 0
M  V30 3131 N 283.795 -0.628877 1.44509 0
M  V30 3132 C 285.02 -1.42048 1.5112 0
M  V30 3133 C 285.445 -1.87594 0.137818 0
M  V30 3134 O 284.803 -1.58873 -0.873437 0
M  V30 3135 C 284.851 -2.61541 2.48251 0
M  V30 3136 O 283.955 -3.61453 1.98559 0
M  V30 3137 H 283.296 -0.424942 0.510216 0
M  V30 3138 H 285.826 -0.767374 1.89664 0
M  V30 3139 H 285.836 -3.09057 2.66361 0
M  V30 3140 H 284.511 -2.27736 3.48007 0
M  V30 3141 H 283.088 -3.20731 1.90227 0
M  V30 3142 N 285.273 -1.31445 -0.869486 0
M  V30 3143 C 286.203 -1.21727 -1.99261 0
M  V30 3144 C 287.184 -0.104359 -1.6978 0
M  V30 3145 O 288.369 -0.289038 -1.92037 0
M  V30 3146 C 285.499 -0.924317 -3.34774 0
M  V30 3147 C 284.453 -1.99685 -3.78563 0
M  V30 3148 C 283.779 -1.55658 -5.11541 0
M  V30 3149 C 285.079 -3.41003 -3.95619 0
M  V30 3150 H 286.773 -2.1569 -2.07649 0
M  V30 3151 H 284.319 -1.03839 -0.997675 0
M  V30 3152 H 286.272 -0.842934 -4.12883 0
M  V30 3153 H 284.996 0.0509793 -3.2656 0
M  V30 3154 H 283.655 -2.06813 -3.02694 0
M  V30 3155 H 283.303 -0.569132 -4.9977 0
M  V30 3156 H 283.003 -2.27409 -5.41811 0
M  V30 3157 H 284.527 -1.48928 -5.92159 0
M  V30 3158 H 285.941 -3.36547 -4.64122 0
M  V30 3159 H 284.338 -4.10975 -4.37286 0
M  V30 3160 H 285.408 -3.81754 -2.98985 0
M  V30 3161 N 286.751 1.08385 -1.14413 0
M  V30 3162 C 288.028 1.77429 -0.823297 0
M  V30 3163 C 288.408 1.9974 0.683163 0
M  V30 3164 O 287.756 1.60739 1.62405 0
M  V30 3165 C 287.966 3.09004 -1.62227 0
M  V30 3166 C 289.314 3.83532 -1.82177 0
M  V30 3167 O 290.338 3.18786 -1.58915 0
M  V30 3168 O 289.197 4.99792 -2.21067 0
M  V30 3169 H 286.291 0.769999 -0.301712 0
M  V30 3170 H 288.837 1.14846 -1.24934 0
M  V30 3171 H 287.609 2.88316 -2.64555 0
M  V30 3172 H 287.232 3.79316 -1.19187 0
M  V30 3173 N 288.23 0.939286 1.26551 0
M  V30 3174 C 289.507 0.5038 1.89001 0
M  V30 3175 C 289.887 -1.01854 1.84903 0
M  V30 3176 O 289.235 -1.87773 1.30206 0
M  V30 3177 C 289.445 1.063 3.32417 0
M  V30 3178 C 290.793 1.13051 4.09273 0
M  V30 3179 O 291.817 1.01345 3.41479 0
M  V30 3180 O 290.676 1.31233 5.30509 0
M  V30 3181 H 287.77 0.163897 0.810597 0
M  V30 3182 H 290.316 1.03173 1.34735 0
M  V30 3183 H 289.088 2.10665 3.29752 0
M  V30 3184 H 288.711 0.517408 3.94219 0
M  V30 3185 N 289.708 -1.40897 0.706093 0
M  V30 3186 C 290.955 -2.01054 0.241531 0
M  V30 3187 C 291.283 -1.55956 -1.16223 0
M  V30 3188 O 290.538 -0.766336 -1.80072 0
M  V30 3189 C 290.837 -3.5646 0.259099 0
M  V30 3190 C 290.503 -4.21106 1.61184 0
M  V30 3191 C 289.165 -4.38479 1.98216 0
M  V30 3192 C 291.517 -4.57256 2.50132 0
M  V30 3193 C 288.845 -4.89282 3.2376 0
M  V30 3194 C 291.197 -5.09454 3.7502 0
M  V30 3195 C 289.861 -5.25037 4.12181 0
M  V30 3196 H 289.131 -0.73571 0.0883825 0
M  V30 3197 H 291.778 -1.68645 0.907257 0
M  V30 3198 H 290.083 -3.88721 -0.490189 0
M  V30 3199 H 291.78 -4.00826 -0.11804 0
M  V30 3200 H 288.37 -4.07966 1.31384 0
M  V30 3201 H 292.554 -4.43479 2.228 0
M  V30 3202 H 287.81 -4.99531 3.52532 0
M  V30 3203 H 291.984 -5.36404 4.44121 0
M  V30 3204 H 289.611 -5.64164 5.09532 0
M  V30 3205 N 291.186 -0.45159 -1.50991 0
M  V30 3206 C 292.414 0.108334 -2.06616 0
M  V30 3207 C 292.829 1.35224 -1.31757 0
M  V30 3208 O 292.186 1.78475 -0.381174 0
M  V30 3209 C 292.237 0.41619 -3.59096 0
M  V30 3210 O 291.958 -0.778361 -4.3113 0
M  V30 3211 C 293.459 1.02523 -4.31282 0
M  V30 3212 H 290.679 0.00159995 -0.670998 0
M  V30 3213 H 293.223 -0.634771 -1.94399 0
M  V30 3214 H 291.378 1.10921 -3.71181 0
M  V30 3215 H 291.792 -0.511181 -5.22003 0
M  V30 3216 H 293.266 1.19053 -5.39009 0
M  V30 3217 H 293.743 2.01013 -3.905 0
M  V30 3218 H 294.349 0.371173 -4.23677 0
M  V30 3219 N 292.664 1.56529 -0.183458 0
M  V30 3220 C 294.075 1.83739 0.331177 0
M  V30 3221 C 294.426 1.10373 1.62211 0
M  V30 3222 O 293.551 0.36071 2.13373 0
M  V30 3223 C 294.146 3.33306 0.607646 0
M  V30 3224 C 292.705 3.60969 1.06668 0
M  V30 3225 C 291.852 2.77086 0.109029 0
M  V30 3226 H 294.803 1.53379 -0.407484 0
M  V30 3227 H 294.824 3.51444 1.45832 0
M  V30 3228 H 294.336 3.86677 -0.332086 0
M  V30 3229 H 292.437 3.13021 2.0211 0
M  V30 3230 H 292.55 4.69231 0.967447 0
M  V30 3231 H 290.914 2.47319 0.608714 0
M  V30 3232 H 291.697 3.33241 -0.82494 0
M  V30 3233 N 294.142 -0.090211 1.57342 0
M  V30 3234 C 295.367 -0.810082 1.90925 0
M  V30 3235 C 295.792 -1.71248 0.778187 0
M  V30 3236 O 295.15 -1.79278 -0.269991 0
M  V30 3237 C 295.198 -1.59529 3.23393 0
M  V30 3238 O 294.302 -2.70461 3.11327 0
M  V30 3239 H 293.643 -0.222231 0.625707 0
M  V30 3240 H 296.173 -0.0639716 2.045 0
M  V30 3241 H 296.183 -1.97847 3.5682 0
M  V30 3242 H 294.858 -0.933055 4.05299 0
M  V30 3243 H 293.435 -2.35135 2.89423 0
M  V30 3244 N 295.62 -1.53406 -0.361157 0
M  V30 3245 C 296.868 -1.69467 -1.10115 0
M  V30 3246 C 297.189 -0.451352 -1.89705 0
M  V30 3247 O 296.459 0.534636 -1.88463 0
M  V30 3248 H 295.039 -0.624749 -0.409508 0
M  V30 3249 H 297.701 -1.90609 -0.406699 0
M  V30 3250 H 296.797 -2.55774 -1.78847 0
M  V30 3251 N 297.098 0.621204 -1.44841 0
M  V30 3252 C 298.008 1.7612 -1.5498 0
M  V30 3253 C 299.024 1.68477 -0.434927 0
M  V30 3254 O 300.2 1.89076 -0.693693 0
M  V30 3255 C 297.265 3.1254 -1.50065 0
M  V30 3256 C 296.326 3.31741 -2.72482 0
M  V30 3257 C 295.559 4.61653 -2.67792 0
M  V30 3258 O 295.782 5.431 -1.74352 0
M  V30 3259 O 294.716 4.83271 -3.58794 0
M  V30 3260 H 298.542 1.70518 -2.51311 0
M  V30 3261 H 296.127 0.783643 -1.27198 0
M  V30 3262 H 298.009 3.93844 -1.49882 0
M  V30 3263 H 296.684 3.18663 -0.568806 0
M  V30 3264 H 295.591 2.50077 -2.7823 0
M  V30 3265 H 296.924 3.30486 -3.64746 0
M  V30 3266 N 298.576 1.31904 0.862503 0
M  V30 3267 C 299.822 1.23207 1.61838 0
M  V30 3268 C 300.177 -0.206062 1.91293 0
M  V30 3269 O 299.47 -1.14162 1.53875 0
M  V30 3270 C 299.664 2.01713 2.95037 0
M  V30 3271 C 299.493 3.53014 2.78588 0
M  V30 3272 C 298.263 4.22359 2.77382 0
M  V30 3273 C 300.461 4.47819 2.52909 0
M  V30 3274 N 298.443 5.59766 2.52062 0
M  V30 3275 C 299.814 5.72947 2.36922 0
M  V30 3276 C 301.869 4.37162 2.38314 0
M  V30 3277 C 300.572 6.88623 2.07823 0
M  V30 3278 C 302.598 5.5263 2.10604 0
M  V30 3279 C 301.96 6.76752 1.95411 0
M  V30 3280 H 298.059 0.505984 0.596242 0
M  V30 3281 H 300.643 1.66179 1.01452 0
M  V30 3282 H 298.814 1.61098 3.53415 0
M  V30 3283 H 300.546 1.84975 3.59953 0
M  V30 3284 H 297.301 3.74401 2.90036 0
M  V30 3285 H 297.725 6.32135 2.42352 0
M  V30 3286 H 302.367 3.41857 2.48784 0
M  V30 3287 H 300.085 7.83948 1.9609 0
M  V30 3288 H 303.671 5.46307 2.00101 0
M  V30 3289 H 302.551 7.6459 1.74274 0
M  V30 3290 N 300.054 -1.07777 1.14986 0
M  V30 3291 C 301.331 -1.7699 0.832695 0
M  V30 3292 C 301.711 -2.001 -0.672561 0
M  V30 3293 O 301.059 -1.61598 -1.6155 0
M  V30 3294 C 301.269 -3.08139 1.63863 0
M  V30 3295 C 302.617 -3.8256 1.84208 0
M  V30 3296 O 303.641 -3.17939 1.60603 0
M  V30 3297 O 302.5 -4.98612 2.23714 0
M  V30 3298 H 299.594 -0.768389 0.305791 0
M  V30 3299 H 302.14 -1.14182 1.25541 0
M  V30 3300 H 300.912 -2.86909 2.6608 0
M  V30 3301 H 300.535 -3.78678 1.21197 0
M  V30 3302 N 301.532 -0.945985 -1.26051 0
M  V30 3303 C 302.781 -0.591836 -1.92822 0
M  V30 3304 C 303.094 0.873956 -1.7499 0
M  V30 3305 O 304.3 1.33769 -2.36259 0
M  V30 3306 C 302.756 -1.00776 -3.45503 0
M  V30 3307 C 302.364 -2.4955 -3.7206 0
M  V30 3308 C 304.108 -0.725735 -4.1825 0
M  V30 3309 C 302.015 -2.84988 -5.18205 0
M  V30 3310 H 300.945 -0.217635 -0.721908 0
M  V30 3311 H 303.596 -1.14927 -1.43052 0
M  V30 3312 H 301.978 -0.378812 -3.94184 0
M  V30 3313 H 303.152 -3.1739 -3.34066 0
M  V30 3314 H 301.467 -2.75133 -3.12555 0
M  V30 3315 H 304.064 -0.966771 -5.25887 0
M  V30 3316 H 304.407 0.337639 -4.14929 0
M  V30 3317 H 304.94 -1.31463 -3.7545 0
M  V30 3318 H 301.679 -3.90307 -5.26631 0
M  V30 3319 H 301.199 -2.21813 -5.57278 0
M  V30 3320 H 302.878 -2.73712 -5.86252 0
M  V30 3321 N 303.011 1.40521 -0.713556 0
M  V30 3322 C 304.257 2.01221 -0.252564 0
M  V30 3323 C 304.59 1.56444 1.1506 0
M  V30 3324 O 303.865 0.783597 1.78017 0
M  V30 3325 C 304.148 3.58582 -0.330332 0
M  V30 3326 C 304.001 4.13437 -1.77173 0
M  V30 3327 C 305.32 4.39079 0.299641 0
M  V30 3328 H 302.439 0.731077 -0.0932471 0
M  V30 3329 H 305.081 1.67026 -0.905673 0
M  V30 3330 H 303.231 3.87844 0.225737 0
M  V30 3331 H 304.903 3.9498 -2.38303 0
M  V30 3332 H 303.146 3.67801 -2.3001 0
M  V30 3333 H 303.817 5.22597 -1.77755 0
M  V30 3334 H 306.293 4.15735 -0.174139 0
M  V30 3335 H 305.169 5.4848 0.214771 0
M  V30 3336 H 305.43 4.19915 1.38288 0
M  V30 3337 N 304.489 0.459591 1.5075 0
M  V30 3338 C 305.452 -0.329093 2.26825 0
M  V30 3339 C 306.452 -0.930481 1.31144 0
M  V30 3340 O 307.642 -0.801453 1.54669 0
M  V30 3341 C 304.774 -1.46768 3.07688 0
M  V30 3342 H 305.967 0.337924 2.9799 0
M  V30 3343 H 303.52 0.213336 1.54837 0
M  V30 3344 H 304.255 -2.17009 2.40993 0
M  V30 3345 H 304.04 -1.04238 3.77991 0
M  V30 3346 H 305.53 -2.02433 3.65254 0
M  V30 3347 N 305.967 -1.56429 0.191757 0
M  V30 3348 C 306.897 -2.21937 -0.725696 0
M  V30 3349 C 307.878 -1.1814 -1.2238 0
M  V30 3350 O 309.063 -1.46636 -1.27325 0
M  V30 3351 C 306.193 -2.87611 -1.94672 0
M  V30 3352 C 305.147 -3.97623 -1.58366 0
M  V30 3353 C 304.473 -4.50446 -2.88102 0
M  V30 3354 C 305.773 -5.16197 -0.796133 0
M  V30 3355 H 307.467 -2.98861 -0.179606 0
M  V30 3356 H 305.013 -1.43749 -0.0849464 0
M  V30 3357 H 306.966 -3.3212 -2.59373 0
M  V30 3358 H 305.69 -2.08087 -2.51728 0
M  V30 3359 H 304.349 -3.53801 -0.960247 0
M  V30 3360 H 303.997 -3.67688 -3.43241 0
M  V30 3361 H 303.697 -5.24675 -2.64556 0
M  V30 3362 H 305.221 -4.97654 -3.53798 0
M  V30 3363 H 306.635 -5.57271 -1.34618 0
M  V30 3364 H 305.032 -5.96471 -0.658928 0
M  V30 3365 H 306.102 -4.84473 0.203478 0
M  V30 3366 N 307.445 0.0818655 -1.57387 0
M  V30 3367 C 308.856 0.634871 -1.75574 0
M  V30 3368 C 309.207 1.78435 -0.815809 0
M  V30 3369 O 308.332 2.164 0.0025366 0
M  V30 3370 C 308.927 1.15845 -3.18379 0
M  V30 3371 C 307.486 1.65741 -3.37945 0
M  V30 3372 C 306.633 0.572549 -2.71325 0
M  V30 3373 H 309.584 -0.144268 -1.58043 0
M  V30 3374 H 309.605 2.02751 -3.21982 0
M  V30 3375 H 309.117 0.321631 -3.86765 0
M  V30 3376 H 307.218 2.51781 -2.74658 0
M  V30 3377 H 307.331 1.74129 -4.46336 0
M  V30 3378 H 305.695 1.01518 -2.33594 0
M  V30 3379 H 306.478 -0.253918 -3.4236 0
M  V30 3380 N 308.923 1.53595 0.353017 0
M  V30 3381 C 310.171 1.70049 1.09215 0
M  V30 3382 C 310.492 0.461406 1.89463 0
M  V30 3383 O 309.762 -0.524633 1.88744 0
M  V30 3384 H 308.342 0.626912 0.40619 0
M  V30 3385 H 311.004 1.90822 0.396585 0
M  V30 3386 H 310.1 2.56718 1.77488 0
M  V30 3387 N 310.401 -0.613514 1.45168 0
M  V30 3388 C 311.817 -0.933629 1.29443 0
M  V30 3389 C 312.017 -2.00028 0.243101 0
M  V30 3390 O 311.073 -2.49848 -0.364992 0
M  V30 3391 C 312.386 -1.38018 2.67155 0
M  V30 3392 C 313.934 -1.49471 2.75004 0
M  V30 3393 C 314.409 -1.97503 4.13227 0
M  V30 3394 N 315.9 -2.04746 4.15491 0
M  V30 3395 C 316.635 -2.43121 5.19307 0
M  V30 3396 N 316.131 -2.80506 6.33473 0
M  V30 3397 N 317.924 -2.43408 5.06664 0
M  V30 3398 H 310.075 0.0916097 2.12202 0
M  V30 3399 H 312.338 -0.0216655 0.947752 0
M  V30 3400 H 312.044 -0.670625 3.45247 0
M  V30 3401 H 311.918 -2.34784 2.95222 0
M  V30 3402 H 314.305 -2.19519 1.9722 0
M  V30 3403 H 314.386 -0.510342 2.50657 0
M  V30 3404 H 314.03 -1.28045 4.91495 0
M  V30 3405 H 313.96 -2.96843 4.34962 0
M  V30 3406 H 316.451 -1.78468 3.33103 0
M  V30 3407 H 316.764 -3.08652 7.08487 0
M  V30 3408 H 315.109 -2.78216 6.36884 0
M  V30 3409 H 318.3 -2.13604 4.16523 0
M  V30 3410 H 318.473 -2.72989 5.87691 0
M  V30 3411 N 311.879 -1.3236 -0.855495 0
M  V30 3412 C 313.295 -1.11332 -1.14356 0
M  V30 3413 C 313.495 0.106751 -2.01217 0
M  V30 3414 O 312.551 0.791891 -2.39761 0
M  V30 3415 C 313.864 -2.39237 -1.82171 0
M  V30 3416 C 315.412 -2.44986 -1.9481 0
M  V30 3417 C 315.887 -3.7281 -2.66039 0
M  V30 3418 N 317.378 -3.73787 -2.73565 0
M  V30 3419 C 318.113 -4.69394 -3.29327 0
M  V30 3420 N 317.609 -5.75367 -3.85907 0
M  V30 3421 N 319.402 -4.56893 -3.27423 0
M  V30 3422 H 311.553 -2.10586 -0.277027 0
M  V30 3423 H 313.816 -0.929701 -0.185364 0
M  V30 3424 H 313.522 -3.28431 -1.25802 0
M  V30 3425 H 313.396 -2.50134 -2.82335 0
M  V30 3426 H 315.783 -1.56252 -2.50338 0
M  V30 3427 H 315.864 -2.38043 -0.936448 0
M  V30 3428 H 315.508 -4.61918 -2.11174 0
M  V30 3429 H 315.438 -3.77024 -3.67642 0
M  V30 3430 H 317.929 -2.97189 -2.33424 0
M  V30 3431 H 318.242 -6.44378 -4.26611 0
M  V30 3432 H 316.587 -5.79123 -3.84242 0
M  V30 3433 H 319.778 -3.73269 -2.82467 0
M  V30 3434 H 319.951 -5.31577 -3.7058 0
M  V30 3435 N 313.357 1.07166 -1.15556 0
M  V30 3436 C 314.305 2.16517 -0.8499 0
M  V30 3437 C 315.299 1.68468 0.177454 0
M  V30 3438 O 316.505 1.79971 0.0323026 0
M  V30 3439 H 312.88 0.706652 -0.25719 0
M  V30 3440 H 314.851 2.39514 -1.77976 0
M  V30 3441 C 313.6 3.45855 -0.357682 0
M  V30 3442 H 312.923 3.83214 -1.13961 0
M  V30 3443 H 314.363 4.23607 -0.182489 0
M  V30 3444 C 312.822 3.24062 0.921152 0
M  V30 3445 O 313.352 3.48813 1.9923 0
M  V30 3446 N 311.558 2.77539 0.86141 0
M  V30 3447 H 311.105 2.57598 -0.0104408 0
M  V30 3448 H 311.063 2.63337 1.71758 0
M  V30 3449 N 314.835 0.952656 1.25548 0
M  V30 3450 C 315.745 0.47782 2.29682 0
M  V30 3451 C 316.761 -0.453859 1.67977 0
M  V30 3452 O 317.937 -0.330587 1.98668 0
M  V30 3453 C 315.002 -0.238655 3.45878 0
M  V30 3454 C 314.063 0.730994 4.23031 0
M  V30 3455 C 313.296 0.0486165 5.33678 0
M  V30 3456 O 313.519 -1.16612 5.58353 0
M  V30 3457 O 312.453 0.733152 5.97418 0
M  V30 3458 H 316.279 1.34312 2.72386 0
M  V30 3459 H 313.864 0.719026 1.30959 0
M  V30 3460 H 315.746 -0.641774 4.16484 0
M  V30 3461 H 314.421 -1.07916 3.05181 0
M  V30 3462 H 313.328 1.18428 3.5486 0
M  V30 3463 H 314.661 1.53946 4.67506 0
M  V30 3464 N 316.313 -1.40141 0.720998 0
M  V30 3465 C 317.261 -2.3252 0.0608547 0
M  V30 3466 C 318.255 -1.52326 -0.741152 0
M  V30 3467 O 319.461 -1.68089 -0.643911 0
M  V30 3468 H 315.836 -0.751999 0.000876664 0
M  V30 3469 H 317.807 -2.8584 0.856614 0
M  V30 3470 C 316.556 -3.37331 -0.842809 0
M  V30 3471 H 315.879 -3.99108 -0.235084 0
M  V30 3472 H 317.319 -4.04452 -1.27257 0
M  V30 3473 C 315.778 -2.73246 -1.97074 0
M  V30 3474 O 316.308 -2.59998 -3.06209 0
M  V30 3475 N 314.514 -2.31547 -1.75597 0
M  V30 3476 H 314.061 -2.42522 -0.868368 0
M  V30 3477 H 314.019 -1.89007 -2.51244 0
M  V30 3478 N 317.792 -0.46758 -1.50504 0
M  V30 3479 C 319.203 -0.0116166 -1.86696 0
M  V30 3480 C 319.554 1.39202 -1.38265 0
M  V30 3481 O 318.679 2.0313 -0.746132 0
M  V30 3482 C 319.274 -0.0143044 -3.38797 0
M  V30 3483 C 317.833 0.386175 -3.74414 0
M  V30 3484 C 316.98 -0.401287 -2.74381 0
M  V30 3485 H 319.931 -0.682022 -1.43297 0
M  V30 3486 H 319.952 0.788641 -3.72237 0
M  V30 3487 H 319.464 -1.03602 -3.74016 0
M  V30 3488 H 317.565 1.41237 -3.44794 0
M  V30 3489 H 317.678 0.0899596 -4.79016 0
M  V30 3490 H 316.042 0.144536 -2.5429 0
M  V30 3491 H 316.825 -1.42244 -3.12444 0
M  V30 3492 N 319.27 1.56325 -0.20005 0
M  V30 3493 C 320.547 1.89484 0.48529 0
M  V30 3494 C 320.927 1.1143 1.79294 0
M  V30 3495 O 320.275 0.216919 2.27468 0
M  V30 3496 C 320.485 3.41923 0.699243 0
M  V30 3497 C 321.833 4.12256 1.01638 0
M  V30 3498 O 322.857 3.47402 0.786792 0
M  V30 3499 O 321.716 5.26887 1.45095 0
M  V30 3500 H 318.81 0.787144 0.253639 0
M  V30 3501 H 321.356 1.67985 -0.240633 0
M  V30 3502 H 320.128 3.90658 -0.224008 0
M  V30 3503 H 319.751 3.69131 1.47744 0
M  V30 3504 N 320.748 -0.0735177 1.57428 0
M  V30 3505 C 322.025 -0.805903 1.78226 0
M  V30 3506 C 322.405 -1.95874 0.787189 0
M  V30 3507 O 321.753 -2.2779 -0.180029 0
M  V30 3508 C 321.963 -1.28045 3.24662 0
M  V30 3509 C 323.311 -1.71453 3.88444 0
M  V30 3510 O 324.335 -1.37616 3.28543 0
M  V30 3511 O 323.194 -2.34093 4.93825 0
M  V30 3512 H 320.288 -0.386041 0.73137 0
M  V30 3513 H 322.834 -0.0537269 1.69615 0
M  V30 3514 H 321.606 -0.455476 3.8864 0
M  V30 3515 H 321.229 -2.094 3.37991 0
M  V30 3516 N 322.226 -1.5378 -0.344866 0
M  V30 3517 C 323.451 -1.75211 -1.10977 0
M  V30 3518 C 323.876 -0.48936 -1.81623 0
M  V30 3519 O 323.234 0.557925 -1.72502 0
M  V30 3520 C 323.282 -2.93147 -2.09993 0
M  V30 3521 O 322.386 -2.63203 -3.17487 0
M  V30 3522 H 321.727 -0.581241 -0.321021 0
M  V30 3523 H 324.257 -2.00738 -0.395661 0
M  V30 3524 H 324.267 -3.19898 -2.53237 0
M  V30 3525 H 322.942 -3.84731 -1.5797 0
M  V30 3526 H 321.519 -2.47336 -2.79069 0
M  V30 3527 N 323.704 0.605807 -1.45491 0
M  V30 3528 C 324.932 1.39136 -1.5313 0
M  V30 3529 C 325.347 1.88082 -0.164507 0
M  V30 3530 O 324.704 1.62316 0.834247 0
M  V30 3531 C 324.755 2.59463 -2.51716 0
M  V30 3532 O 324.476 2.12551 -3.83084 0
M  V30 3533 C 325.977 3.52301 -2.6907 0
M  V30 3534 H 323.197 0.425849 -0.51855 0
M  V30 3535 H 325.741 0.73865 -1.90694 0
M  V30 3536 H 323.896 3.20772 -2.17219 0
M  V30 3537 H 324.31 2.90744 -4.36541 0
M  V30 3538 H 325.784 4.33271 -3.42024 0
M  V30 3539 H 326.261 4.02757 -1.75167 0
M  V30 3540 H 326.867 2.96845 -3.04571 0
M  V30 3541 N 325.182 1.32811 0.848464 0
M  V30 3542 C 326.412 1.26556 1.63301 0
M  V30 3543 C 326.82 -0.1676 1.88456 0
M  V30 3544 O 326.163 -1.11713 1.45828 0
M  V30 3545 C 326.225 1.96202 3.01239 0
M  V30 3546 C 325.889 3.45528 2.99098 0
M  V30 3547 C 326.886 4.40903 2.75501 0
M  V30 3548 C 324.571 3.87558 3.19537 0
M  V30 3549 C 326.565 5.76282 2.72356 0
M  V30 3550 C 324.252 5.23044 3.16019 0
M  V30 3551 C 325.25 6.17217 2.92458 0
M  V30 3552 O 324.938 7.50223 2.88825 0
M  V30 3553 H 324.67 0.43771 0.515156 0
M  V30 3554 H 327.224 1.7559 1.0657 0
M  V30 3555 H 325.454 1.41746 3.59785 0
M  V30 3556 H 327.143 1.83573 3.62016 0
M  V30 3557 H 327.909 4.09756 2.5947 0
M  V30 3558 H 323.788 3.14674 3.369 0
M  V30 3559 H 327.332 6.4976 2.53886 0
M  V30 3560 H 323.229 5.53818 3.31596 0
M  V30 3561 H 323.997 7.59657 3.04735 0
M  V30 3562 N 326.66 -1.06551 1.16123 0
M  V30 3563 C 327.906 -1.79567 0.94252 0
M  V30 3564 C 328.239 -1.86869 -0.528547 0
M  V30 3565 O 327.514 -1.35838 -1.39206 0
M  V30 3566 C 327.797 -3.24195 1.56747 0
M  V30 3567 C 327.65 -3.24989 3.10969 0
M  V30 3568 C 328.969 -4.21678 1.25998 0
M  V30 3569 H 326.088 -0.651883 0.343828 0
M  V30 3570 H 328.73 -1.2463 1.43413 0
M  V30 3571 H 326.88 -3.71107 1.14942 0
M  V30 3572 H 328.552 -2.86258 3.61737 0
M  V30 3573 H 326.795 -2.63716 3.44436 0
M  V30 3574 H 327.466 -4.27005 3.49815 0
M  V30 3575 H 329.942 -3.83196 1.62174 0
M  V30 3576 H 328.818 -5.21146 1.7233 0
M  V30 3577 H 329.079 -4.4174 0.178367 0
M  V30 3578 N 328.138 -0.959301 -1.25041 0
M  V30 3579 C 329.415 -0.533805 -1.88175 0
M  V30 3580 C 329.795 0.988994 -1.865 0
M  V30 3581 O 329.143 1.85677 -1.33177 0
M  V30 3582 C 329.353 -1.11575 -3.30684 0
M  V30 3583 C 330.701 -1.19548 -4.07423 0
M  V30 3584 O 331.725 -1.06765 -3.39823 0
M  V30 3585 O 330.584 -1.39656 -5.28354 0
M  V30 3586 H 327.678 -0.176772 -0.807887 0
M  V30 3587 H 330.224 -1.05303 -1.33076 0
M  V30 3588 H 328.996 -2.15884 -3.26358 0
M  V30 3589 H 328.619 -0.580059 -3.93346 0
M  V30 3590 N 329.616 1.39756 -0.72842 0
M  V30 3591 C 330.865 1.99879 -0.270407 0
M  V30 3592 C 331.178 1.58449 1.14688 0
M  V30 3593 O 332.384 2.11362 1.70407 0
M  V30 3594 C 330.84 3.57292 -0.43252 0
M  V30 3595 C 330.448 4.07688 -1.85727 0
M  V30 3596 C 332.192 4.24485 -0.0359507 0
M  V30 3597 C 330.099 5.5765 -1.96928 0
M  V30 3598 H 329.029 0.747689 -0.0973472 0
M  V30 3599 H 331.68 1.59837 -0.901355 0
M  V30 3600 H 330.062 3.95097 0.267219 0
M  V30 3601 H 331.236 3.81231 -2.58843 0
M  V30 3602 H 329.551 3.53135 -2.20646 0
M  V30 3603 H 332.148 5.34609 -0.0987484 0
M  V30 3604 H 332.491 4.03915 1.00787 0
M  V30 3605 H 333.024 3.9183 -0.686604 0
M  V30 3606 H 329.763 5.8309 -2.99476 0
M  V30 3607 H 329.283 5.8593 -1.28241 0
M  V30 3608 H 330.962 6.22957 -1.74737 0
M  V30 3609 N 331.094 0.475555 1.50254 0
M  V30 3610 C 332.322 -0.0754493 2.06762 0
M  V30 3611 C 332.737 -1.33111 1.33891 0
M  V30 3612 O 332.094 -1.77846 0.40952 0
M  V30 3613 C 332.145 -0.359008 3.59713 0
M  V30 3614 O 331.866 0.846851 4.29837 0
M  V30 3615 C 333.367 -0.956484 4.32858 0
M  V30 3616 H 330.587 0.00907525 0.670939 0
M  V30 3617 H 333.131 0.665618 1.93364 0
M  V30 3618 H 331.286 -1.05001 3.72899 0
M  V30 3619 H 331.7 0.594162 5.21124 0
M  V30 3620 H 333.174 -1.10463 5.40834 0
M  V30 3621 H 333.651 -1.94775 3.93649 0
M  V30 3622 H 334.257 -0.303723 4.24214 0
M  V30 3623 N 332.573 -1.56217 0.208337 0
M  V30 3624 C 333.803 -2.02043 -0.431523 0
M  V30 3625 C 334.211 -1.08755 -1.54819 0
M  V30 3626 O 333.554 -0.0870009 -1.83494 0
M  V30 3627 C 333.616 -3.44239 -1.03633 0
M  V30 3628 C 333.28 -4.56965 -0.0567502 0
M  V30 3629 C 334.277 -5.14624 0.738773 0
M  V30 3630 C 331.962 -5.02266 0.0581736 0
M  V30 3631 C 333.956 -6.16045 1.63605 0
M  V30 3632 C 331.643 -6.03528 0.959001 0
M  V30 3633 C 332.641 -6.60293 1.7465 0
M  V30 3634 O 332.329 -7.59586 2.6322 0
M  V30 3635 H 332.061 -0.666772 -0.111313 0
M  V30 3636 H 334.615 -2.02919 0.318277 0
M  V30 3637 H 332.845 -3.40391 -1.83497 0
M  V30 3638 H 334.534 -3.73793 -1.58221 0
M  V30 3639 H 335.3 -4.80483 0.660364 0
M  V30 3640 H 331.179 -4.57771 -0.544633 0
M  V30 3641 H 334.723 -6.60279 2.25116 0
M  V30 3642 H 330.62 -6.37092 1.03848 0
M  V30 3643 H 331.388 -7.77057 2.57148 0
M  V30 3644 N 334.051 0.0651679 -1.57465 0
M  V30 3645 C 335.328 0.79644 -1.78651 0
M  V30 3646 C 335.708 1.95454 -0.797566 0
M  V30 3647 O 335.056 2.27882 0.167946 0
M  V30 3648 C 335.266 1.26322 -3.25337 0
M  V30 3649 C 336.614 1.6939 -3.89348 0
M  V30 3650 O 337.638 1.35872 -3.29268 0
M  V30 3651 O 336.497 2.31471 -4.95059 0
M  V30 3652 H 333.591 0.382157 -0.733407 0
M  V30 3653 H 336.137 0.0447311 -1.69641 0
M  V30 3654 H 334.909 0.434859 -3.88876 0
M  V30 3655 H 334.532 2.07604 -3.39096 0
M  V30 3656 N 335.529 1.53961 0.336706 0
M  V30 3657 C 336.776 1.71536 1.07618 0
M  V30 3658 C 337.104 0.482125 1.8843 0
M  V30 3659 O 336.359 -0.536142 1.88213 0
M  V30 3660 C 336.658 2.93493 2.03953 0
M  V30 3661 C 336.324 4.28811 1.39399 0
M  V30 3662 C 334.986 4.65602 1.21523 0
M  V30 3663 C 337.338 5.12844 0.929541 0
M  V30 3664 C 334.666 5.84037 0.558312 0
M  V30 3665 C 337.018 6.31951 0.286505 0
M  V30 3666 C 335.682 6.67432 0.0954869 0
M  V30 3667 H 334.952 0.627696 0.393801 0
M  V30 3668 H 337.599 1.88186 0.354715 0
M  V30 3669 H 335.904 2.71475 2.82504 0
M  V30 3670 H 337.601 3.04285 2.61174 0
M  V30 3671 H 334.191 3.99858 1.54311 0
M  V30 3672 H 338.375 4.84947 1.05548 0
M  V30 3673 H 333.631 6.10097 0.398995 0
M  V30 3674 H 337.805 6.96352 -0.0814376 0
M  V30 3675 H 335.432 7.59063 -0.415579 0
M  V30 3676 N 337.007 -0.598083 1.45811 0
M  V30 3677 C 338.256 -1.35295 1.49594 0
M  V30 3678 C 338.569 -1.95057 0.145679 0
M  V30 3679 O 339.775 -2.71431 0.0612099 0
M  V30 3680 C 338.231 -2.45124 2.63519 0
M  V30 3681 C 337.839 -1.91732 4.04899 0
M  V30 3682 C 339.583 -3.2205 2.76558 0
M  V30 3683 C 337.49 -2.991 5.1019 0
M  V30 3684 H 336.42 -0.508552 0.556679 0
M  V30 3685 H 339.071 -0.639977 1.71978 0
M  V30 3686 H 337.453 -3.19149 2.34435 0
M  V30 3687 H 338.627 -1.24352 4.43704 0
M  V30 3688 H 336.942 -1.27522 3.96393 0
M  V30 3689 H 339.539 -4.0215 3.52391 0
M  V30 3690 H 339.882 -3.73663 1.83526 0
M  V30 3691 H 340.415 -2.55127 3.05213 0
M  V30 3692 H 337.154 -2.52393 6.04961 0
M  V30 3693 H 336.674 -3.65017 4.75944 0
M  V30 3694 H 338.353 -3.63318 5.35359 0
M  V30 3695 N 338.485 -1.33259 -0.841409 0
M  V30 3696 C 339.734 -1.23921 -1.59143 0
M  V30 3697 C 340.047 0.1941 -1.94635 0
M  V30 3698 O 341.253 0.409474 -2.68394 0
M  V30 3699 C 339.709 -2.17119 -2.87032 0
M  V30 3700 C 339.317 -3.65606 -2.58914 0
M  V30 3701 C 341.061 -2.16648 -3.65053 0
M  V30 3702 C 338.968 -4.50726 -3.82884 0
M  V30 3703 H 337.898 -0.460264 -0.597221 0
M  V30 3704 H 340.549 -1.58307 -0.927959 0
M  V30 3705 H 338.931 -1.75663 -3.54906 0
M  V30 3706 H 340.105 -4.15487 -1.99267 0
M  V30 3707 H 338.42 -3.68341 -1.942 0
M  V30 3708 H 341.017 -2.77474 -4.57069 0
M  V30 3709 H 341.36 -1.16088 -3.99787 0
M  V30 3710 H 341.893 -2.56453 -3.041 0
M  V30 3711 H 338.632 -5.52151 -3.53283 0
M  V30 3712 H 338.152 -4.0559 -4.41879 0
M  V30 3713 H 339.831 -4.64401 -4.50489 0
M  V30 3714 N 339.963 1.05934 -1.16686 0
M  V30 3715 C 341.379 1.30938 -0.912542 0
M  V30 3716 C 341.579 1.96803 0.432533 0
M  V30 3717 O 340.635 2.23693 1.17123 0
M  V30 3718 C 341.948 2.18649 -2.06429 0
M  V30 3719 C 343.496 2.32055 -2.10047 0
M  V30 3720 C 343.971 3.23122 -3.24586 0
M  V30 3721 N 345.462 3.30706 -3.24327 0
M  V30 3722 C 346.197 4.01273 -4.09594 0
M  V30 3723 N 345.693 4.74332 -5.04956 0
M  V30 3724 N 347.486 3.97361 -3.97569 0
M  V30 3725 H 339.637 0.615777 -2.03278 0
M  V30 3726 H 341.9 0.334077 -0.887185 0
M  V30 3727 H 341.606 1.77534 -3.03603 0
M  V30 3728 H 341.48 3.19252 -2.00894 0
M  V30 3729 H 343.867 2.72415 -1.13464 0
M  V30 3730 H 343.948 1.31107 -2.19647 0
M  V30 3731 H 343.592 2.83477 -4.2143 0
M  V30 3732 H 343.522 4.24057 -3.12223 0
M  V30 3733 H 346.013 2.78644 -2.55276 0
M  V30 3734 H 346.326 5.25716 -5.6643 0
M  V30 3735 H 344.671 4.733 -5.08933 0
M  V30 3736 H 347.862 3.39405 -3.22369 0
M  V30 3737 H 348.035 4.52089 -4.64241 0
M  V30 3738 N 341.441 0.965919 1.2453 0
M  V30 3739 C 342.857 0.67216 1.44756 0
M  V30 3740 C 343.057 -0.766609 1.86347 0
M  V30 3741 O 342.113 -1.5407 2.00047 0
M  V30 3742 C 343.426 1.65473 2.51076 0
M  V30 3743 C 344.974 1.66716 2.64905 0
M  V30 3744 C 345.449 2.63766 3.74421 0
M  V30 3745 N 346.94 2.62198 3.81846 0
M  V30 3746 C 347.675 3.33966 4.66106 0
M  V30 3747 N 347.171 4.15245 5.54566 0
M  V30 3748 N 348.964 3.22799 4.60171 0
M  V30 3749 H 341.115 1.89553 0.958293 0
M  V30 3750 H 343.378 0.815979 0.482579 0
M  V30 3751 H 343.084 2.68296 2.27399 0
M  V30 3752 H 342.958 1.4261 3.49202 0
M  V30 3753 H 345.345 0.646057 2.87941 0
M  V30 3754 H 345.426 1.93642 1.67142 0
M  V30 3755 H 345.07 3.6601 3.52135 0
M  V30 3756 H 345 2.34121 4.71694 0
M  V30 3757 H 347.491 2.032 3.18619 0
M  V30 3758 H 347.804 4.66898 6.15814 0
M  V30 3759 H 346.149 4.1934 5.54237 0
M  V30 3760 H 349.34 2.58764 3.90075 0
M  V30 3761 H 349.513 3.78994 5.25612 0
M  V30 3762 N 342.919 -1.39368 0.735821 0
M  V30 3763 C 343.866 -2.30599 0.0963825 0
M  V30 3764 C 344.836 -1.49257 -0.728794 0
M  V30 3765 O 346.021 -1.77941 -0.688588 0
M  V30 3766 C 343.161 -3.35596 -0.804305 0
M  V30 3767 C 342.274 -4.31987 0.0335761 0
M  V30 3768 C 341.409 -5.24053 -0.868461 0
M  V30 3769 C 340.448 -6.12095 -0.0258776 0
M  V30 3770 N 339.585 -6.96514 -0.883893 0
M  V30 3771 H 344.425 -2.8471 0.880002 0
M  V30 3772 H 341.962 -1.40188 0.445619 0
M  V30 3773 H 343.92 -3.95062 -1.34096 0
M  V30 3774 H 342.55 -2.82938 -1.55389 0
M  V30 3775 H 341.602 -3.74133 0.68766 0
M  V30 3776 H 342.914 -4.94074 0.685036 0
M  V30 3777 H 342.068 -5.88549 -1.47293 0
M  V30 3778 H 340.807 -4.62289 -1.5537 0
M  V30 3779 H 339.812 -5.4661 0.591386 0
M  V30 3780 H 341.037 -6.75923 0.656156 0
M  V30 3781 H 338.983 -6.37318 -1.55441 0
M  V30 3782 H 338.9 -7.55448 -0.288931 0
M  V30 3783 H 340.168 -7.65439 -1.4739 0
M  V30 3784 N 344.397 -0.483516 -1.5 0
M  V30 3785 C 345.808 -0.0314176 -1.86674 0
M  V30 3786 C 346.159 1.37728 -1.39733 0
M  V30 3787 O 345.284 2.02327 -0.767635 0
M  V30 3788 C 345.879 -0.0502376 -3.38763 0
M  V30 3789 C 344.438 0.346442 -3.74802 0
M  V30 3790 C 343.585 -0.430366 -2.7394 0
M  V30 3791 H 346.536 -0.697182 -1.42566 0
M  V30 3792 H 346.557 0.749116 -3.73053 0
M  V30 3793 H 346.069 -1.07563 -3.72897 0
M  V30 3794 H 344.17 1.37572 -3.46273 0
M  V30 3795 H 344.283 0.0391486 -4.79084 0
M  V30 3796 H 342.647 0.117557 -2.54429 0
M  V30 3797 H 343.43 -1.4555 -3.10918 0
M  V30 3798 N 345.875 1.56104 -0.216619 0
M  V30 3799 C 346.805 2.23063 0.690296 0
M  V30 3800 C 347.786 1.20072 1.20485 0
M  V30 3801 O 348.971 1.48643 1.24976 0
M  V30 3802 C 346.101 2.90672 1.90072 0
M  V30 3803 C 345.055 4.00092 1.5202 0
M  V30 3804 C 344.381 4.54972 2.80899 0
M  V30 3805 C 345.681 5.17398 0.71391 0
M  V30 3806 H 347.375 2.99109 0.132038 0
M  V30 3807 H 344.921 1.43866 0.0620664 0
M  V30 3808 H 346.874 3.36204 2.54057 0
M  V30 3809 H 345.598 2.12066 2.48386 0
M  V30 3810 H 344.257 3.55283 0.903839 0
M  V30 3811 H 343.905 3.73102 3.37348 0
M  V30 3812 H 343.605 5.28817 2.56176 0
M  V30 3813 H 345.129 5.0322 3.45836 0
M  V30 3814 H 346.543 5.59342 1.25735 0
M  V30 3815 H 344.94 5.97444 0.563951 0
M  V30 3816 H 346.01 4.84088 -0.280527 0
M  V30 3817 N 347.353 -0.0568162 1.57498 0
M  V30 3818 C 348.6 -0.753104 1.87975 0
M  V30 3819 C 348.928 -1.76815 0.81035 0
M  V30 3820 O 348.183 -1.94756 -0.19199 0
M  V30 3821 C 348.482 -1.48359 3.25153 0
M  V30 3822 C 348.148 -0.60713 4.46794 0
M  V30 3823 C 346.81 -0.365642 4.79809 0
M  V30 3824 C 349.162 -0.000305978 5.212 0
M  V30 3825 C 346.49 0.491905 5.84634 0
M  V30 3826 C 348.842 0.844781 6.26934 0
M  V30 3827 C 347.506 1.096 6.58441 0
M  V30 3828 H 346.776 -0.27558 0.687849 0
M  V30 3829 H 349.423 -0.0135173 1.91495 0
M  V30 3830 H 347.728 -2.29577 3.17492 0
M  V30 3831 H 349.425 -2.02739 3.45974 0
M  V30 3832 H 346.015 -0.805487 4.20963 0
M  V30 3833 H 350.199 -0.173961 4.95995 0
M  V30 3834 H 345.455 0.695131 6.07436 0
M  V30 3835 H 349.629 1.32165 6.83744 0
M  V30 3836 H 347.256 1.76224 7.39492 0
M  V30 3837 N 348.832 -1.54138 -0.328536 0
M  V30 3838 C 350.062 -1.75807 -1.08516 0
M  V30 3839 C 350.47 -0.50428 -1.82356 0
M  V30 3840 O 349.813 0.534451 -1.75754 0
M  V30 3841 C 349.875 -2.89423 -2.13248 0
M  V30 3842 C 349.539 -4.28504 -1.5885 0
M  V30 3843 C 350.536 -5.09536 -1.03289 0
M  V30 3844 C 348.221 -4.75034 -1.63243 0
M  V30 3845 C 350.215 -6.35206 -0.52845 0
M  V30 3846 C 347.902 -6.00672 -1.12411 0
M  V30 3847 C 348.9 -6.80592 -0.573062 0
M  V30 3848 O 348.588 -8.03867 -0.0723692 0
M  V30 3849 H 348.32 -0.590633 -0.328829 0
M  V30 3850 H 350.874 -2.01819 -0.381868 0
M  V30 3851 H 349.104 -2.5897 -2.87178 0
M  V30 3852 H 350.793 -2.98921 -2.74592 0
M  V30 3853 H 351.559 -4.74745 -0.99206 0
M  V30 3854 H 347.438 -4.12875 -2.05074 0
M  V30 3855 H 350.982 -6.97532 -0.0976774 0
M  V30 3856 H 346.879 -6.34955 -1.162 0
M  V30 3857 H 347.647 -8.18283 -0.188258 0
M  V30 3858 N 350.31 0.590341 -1.46126 0
M  V30 3859 C 351.538 1.37504 -1.54597 0
M  V30 3860 C 351.953 1.87897 -0.184447 0
M  V30 3861 O 351.31 1.63192 0.816984 0
M  V30 3862 C 351.361 2.56779 -2.54454 0
M  V30 3863 O 351.082 2.08476 -3.85317 0
M  V30 3864 C 352.583 3.49427 -2.72792 0
M  V30 3865 H 349.803 0.420325 -0.523037 0
M  V30 3866 H 352.347 0.718383 -1.91467 0
M  V30 3867 H 350.502 3.1845 -2.20609 0
M  V30 3868 H 350.916 2.86097 -4.396 0
M  V30 3869 H 352.39 4.29619 -3.466 0
M  V30 3870 H 352.867 4.00876 -1.79429 0
M  V30 3871 H 353.473 2.93598 -3.07702 0
M  V30 3872 N 351.788 1.33704 0.83433 0
M  V30 3873 C 353.037 1.24763 1.58484 0
M  V30 3874 C 353.35 -0.183775 1.94735 0
M  V30 3875 O 354.556 -0.395234 2.68608 0
M  V30 3876 C 353.012 2.18638 2.85876 0
M  V30 3877 C 352.62 3.66974 2.56971 0
M  V30 3878 C 354.364 2.18581 3.63899 0
M  V30 3879 C 352.271 4.5275 3.80488 0
M  V30 3880 H 351.201 0.463425 0.594772 0
M  V30 3881 H 353.852 1.58797 0.919551 0
M  V30 3882 H 352.234 1.77542 3.5397 0
M  V30 3883 H 353.408 4.16538 1.9706 0
M  V30 3884 H 351.723 3.69366 1.92244 0
M  V30 3885 H 354.32 2.79894 4.55591 0
M  V30 3886 H 354.663 1.18207 3.99165 0
M  V30 3887 H 355.196 2.58062 3.02735 0
M  V30 3888 H 351.935 5.54017 3.5035 0
M  V30 3889 H 351.455 4.07927 4.39722 0
M  V30 3890 H 353.134 4.66784 4.4802 0
M  V30 3891 N 353.266 -1.05314 1.17247 0
M  V30 3892 C 354.214 -2.15137 0.884238 0
M  V30 3893 C 355.208 -1.68729 -0.15063 0
M  V30 3894 O 356.414 -1.8 -0.00366673 0
M  V30 3895 H 352.789 -0.702471 0.2684 0
M  V30 3896 H 354.76 -2.36652 1.81764 0
M  V30 3897 C 353.509 -3.45243 0.412659 0
M  V30 3898 H 352.832 -3.81352 1.20043 0
M  V30 3899 H 354.272 -4.23263 0.249858 0
M  V30 3900 C 352.731 -3.25487 -0.86948 0
M  V30 3901 O 353.261 -3.51938 -1.93655 0
M  V30 3902 N 351.467 -2.78875 -0.817147 0
M  V30 3903 H 351.014 -2.57549 0.0514211 0
M  V30 3904 H 350.972 -2.66036 -1.67547 0
M  V30 3905 N 354.744 -0.972509 -1.24016 0
M  V30 3906 C 355.674 -0.525548 -2.27509 0
M  V30 3907 C 356.655 0.437262 -1.64384 0
M  V30 3908 O 357.84 0.332343 -1.91335 0
M  V30 3909 C 354.97 0.180448 -3.46831 0
M  V30 3910 C 353.924 -0.698859 -4.22256 0
M  V30 3911 C 353.25 0.138903 -5.3452 0
M  V30 3912 C 354.55 -1.98582 -4.83076 0
M  V30 3913 H 356.244 -1.39058 -2.65148 0
M  V30 3914 H 353.79 -0.67009 -1.27459 0
M  V30 3915 H 355.743 0.504387 -4.18371 0
M  V30 3916 H 354.467 1.07987 -3.08231 0
M  V30 3917 H 353.126 -1.00614 -3.52523 0
M  V30 3918 H 352.774 1.03862 -4.9216 0
M  V30 3919 H 352.474 -0.446259 -5.85903 0
M  V30 3920 H 353.998 0.457404 -6.08884 0
M  V30 3921 H 355.412 -1.72715 -5.46665 0
M  V30 3922 H 353.809 -2.5181 -5.44713 0
M  V30 3923 H 354.879 -2.67769 -4.04262 0
M  V30 3924 N 356.222 1.38976 -0.743202 0
M  V30 3925 C 357.471 1.99581 -0.291592 0
M  V30 3926 C 357.784 1.59656 1.13001 0
M  V30 3927 O 358.99 2.13157 1.68156 0
M  V30 3928 C 357.446 3.56813 -0.470391 0
M  V30 3929 C 357.054 4.05695 -1.90041 0
M  V30 3930 C 358.798 4.24423 -0.0809709 0
M  V30 3931 C 356.705 5.5553 -2.02832 0
M  V30 3932 H 355.635 0.746615 -0.105272 0
M  V30 3933 H 358.286 1.58872 -0.918258 0
M  V30 3934 H 356.668 3.95359 0.225299 0
M  V30 3935 H 357.842 3.78464 -2.62872 0
M  V30 3936 H 356.157 3.50775 -2.24379 0
M  V30 3937 H 358.754 5.34474 -0.155445 0
M  V30 3938 H 359.097 4.04962 0.96497 0
M  V30 3939 H 359.63 3.9108 -0.728124 0
M  V30 3940 H 356.369 5.79881 -3.05643 0
M  V30 3941 H 355.889 5.84537 -1.34448 0
M  V30 3942 H 357.568 6.21069 -1.81335 0
M  V30 3943 N 357.7 0.491464 1.49741 0
M  V30 3944 C 358.949 -0.0582189 2.01616 0
M  V30 3945 C 359.262 -1.38927 1.3769 0
M  V30 3946 O 360.468 -2.02509 1.80838 0
M  V30 3947 C 358.924 -0.154235 3.59569 0
M  V30 3948 C 358.532 1.1696 4.32463 0
M  V30 3949 C 360.276 -0.65479 4.1942 0
M  V30 3950 C 358.183 1.03627 5.8225 0
M  V30 3951 H 357.113 -0.0255317 0.753568 0
M  V30 3952 H 359.764 0.629445 1.72367 0
M  V30 3953 H 358.146 -0.906138 3.85493 0
M  V30 3954 H 359.32 1.93405 4.18248 0
M  V30 3955 H 357.635 1.60285 3.84315 0
M  V30 3956 H 360.232 -0.771903 5.29099 0
M  V30 3957 H 360.575 -1.65127 3.8215 0
M  V30 3958 H 361.108 0.040304 3.9778 0
M  V30 3959 H 357.847 2.00672 6.24028 0
M  V30 3960 H 357.367 0.312546 5.98985 0
M  V30 3961 H 359.046 0.711114 6.4308 0
M  V30 3962 N 359.178 -1.55987 0.224894 0
M  V30 3963 C 360.589 -1.84553 -0.282345 0
M  V30 3964 C 360.94 -1.14634 -1.59227 0
M  V30 3965 O 360.065 -0.417155 -2.12341 0
M  V30 3966 C 360.66 -3.348 -0.519062 0
M  V30 3967 C 359.219 -3.63671 -0.970604 0
M  V30 3968 C 358.366 -2.77277 -0.0355261 0
M  V30 3969 H 361.317 -1.52245 0.448006 0
M  V30 3970 H 361.338 -3.55187 -1.36463 0
M  V30 3971 H 360.85 -3.8566 0.43449 0
M  V30 3972 H 358.951 -3.1827 -1.9374 0
M  V30 3973 H 359.064 -4.71631 -0.842698 0
M  V30 3974 H 357.428 -2.48846 -0.542927 0
M  V30 3975 H 358.211 -3.30937 0.913003 0
M  V30 3976 N 360.656 0.0484629 -1.57525 0
M  V30 3977 C 361.896 0.748196 -1.90214 0
M  V30 3978 C 362.26 1.73545 -0.821347 0
M  V30 3979 O 363.461 2.48201 -1.03198 0
M  V30 3980 C 361.732 1.41727 -3.28098 0
M  V30 3981 S 363.291 2.14884 -3.82584 0
M  V30 3982 H 360.109 0.248307 -0.666232 0
M  V30 3983 H 362.711 0.00343188 -1.955 0
M  V30 3984 H 361.415 0.685244 -4.04639 0
M  V30 3985 H 360.946 2.20099 -3.26068 0
M  V30 3986 H 362.961 3.41755 -3.59747 0
M  V30 3987 N 362.134 1.5431 0.320358 0
M  V30 3988 C 363.38 1.72924 1.05949 0
M  V30 3989 C 363.713 0.503185 1.87568 0
M  V30 3990 O 362.988 -0.499839 1.87968 0
M  V30 3991 C 363.271 3.00676 1.98156 0
M  V30 3992 C 363.124 4.3354 1.19845 0
M  V30 3993 C 364.443 3.24198 2.9763 0
M  V30 3994 H 361.562 0.629195 0.383774 0
M  V30 3995 H 364.204 1.87008 0.335854 0
M  V30 3996 H 362.354 2.888 2.59859 0
M  V30 3997 H 364.026 4.57305 0.605773 0
M  V30 3998 H 362.269 4.309 0.500784 0
M  V30 3999 H 362.94 5.19156 1.87567 0
M  V30 4000 H 365.416 3.35557 2.4605 0
M  V30 4001 H 364.292 4.14938 3.59329 0
M  V30 4002 H 364.553 2.41577 3.7026 0
M  V30 4003 N 363.613 -0.582584 1.46437 0
M  V30 4004 C 364.543 -1.70187 1.59871 0
M  V30 4005 C 365.524 -1.64066 0.449042 0
M  V30 4006 O 366.709 -1.82081 0.6753 0
M  V30 4007 C 363.839 -3.08827 1.58881 0
M  V30 4008 C 362.793 -3.29779 2.72819 0
M  V30 4009 C 362.119 -4.68947 2.5689 0
M  V30 4010 C 363.419 -3.17601 4.1464 0
M  V30 4011 H 365.113 -1.592 2.53566 0
M  V30 4012 H 362.659 -0.764472 1.22032 0
M  V30 4013 H 364.612 -3.86951 1.66873 0
M  V30 4014 H 363.336 -3.20713 0.617306 0
M  V30 4015 H 361.995 -2.54054 2.64296 0
M  V30 4016 H 361.643 -4.77599 1.57823 0
M  V30 4017 H 361.343 -4.83919 3.33312 0
M  V30 4018 H 362.867 -5.4924 2.66773 0
M  V30 4019 H 364.281 -3.8557 4.24274 0
M  V30 4020 H 362.678 -3.44094 4.9165 0
M  V30 4021 H 363.748 -2.14681 4.34788 0
M  V30 4022 N 365.091 -1.34144 -0.827227 0
M  V30 4023 C 366.34 -1.25602 -1.5782 0
M  V30 4024 C 366.653 0.173445 -1.94829 0
M  V30 4025 O 367.859 0.380984 -2.68814 0
M  V30 4026 C 366.315 -2.20151 -2.84713 0
M  V30 4027 C 365.923 -3.68331 -2.55021 0
M  V30 4028 C 367.667 -2.20508 -3.62735 0
M  V30 4029 C 365.574 -4.54762 -3.78082 0
M  V30 4030 H 364.504 -0.466573 -0.592306 0
M  V30 4031 H 367.155 -1.59283 -0.911116 0
M  V30 4032 H 365.537 -1.79417 -3.53023 0
M  V30 4033 H 366.711 -4.17577 -1.94849 0
M  V30 4034 H 365.026 -3.7038 -1.90283 0
M  V30 4035 H 367.623 -2.82306 -4.54101 0
M  V30 4036 H 367.966 -1.20322 -3.98533 0
M  V30 4037 H 368.499 -2.59664 -3.01362 0
M  V30 4038 H 365.238 -5.55867 -3.47407 0
M  V30 4039 H 364.758 -4.10254 -4.37552 0
M  V30 4040 H 366.437 -4.69153 -4.45538 0
M  V30 4041 N 366.569 1.04691 -1.17803 0
M  V30 4042 C 367.797 1.81446 -0.99423 0
M  V30 4043 C 368.212 1.83174 0.457459 0
M  V30 4044 O 367.569 1.26265 1.31771 0
M  V30 4045 C 367.62 3.27334 -1.5341 0
M  V30 4046 O 367.341 3.25798 -2.92895 0
M  V30 4047 C 368.842 4.20759 -1.39559 0
M  V30 4048 H 366.062 0.571599 -0.351447 0
M  V30 4049 H 368.606 1.31982 -1.56208 0
M  V30 4050 H 366.761 3.74052 -1.00815 0
M  V30 4051 H 367.175 4.17144 -3.17949 0
M  V30 4052 H 368.649 5.21084 -1.82141 0
M  V30 4053 H 369.126 4.37856 -0.343394 0
M  V30 4054 H 369.732 3.79901 -1.91195 0
M  V30 4055 N 368.047 0.979072 1.23499 0
M  V30 4056 C 369.272 0.664845 1.96455 0
M  V30 4057 C 369.697 -0.761287 1.72006 0
M  V30 4058 O 369.055 -1.51837 0.990713 0
M  V30 4059 C 369.103 0.959479 3.47601 0
M  V30 4060 O 368.207 0.0508168 4.12369 0
M  V30 4061 H 367.548 0.250185 0.615064 0
M  V30 4062 H 370.078 1.31231 1.5697 0
M  V30 4063 H 370.088 0.895642 3.98048 0
M  V30 4064 H 368.763 1.99876 3.64723 0
M  V30 4065 H 367.34 0.16895 3.72517 0
M  V30 4066 N 369.525 -1.3858 0.750561 0
M  V30 4067 C 370.455 -2.33102 0.136237 0
M  V30 4068 C 371.436 -1.54713 -0.706965 0
M  V30 4069 O 372.621 -1.83043 -0.648769 0
M  V30 4070 C 369.751 -3.38882 -0.760017 0
M  V30 4071 C 368.705 -4.27995 -0.0197785 0
M  V30 4072 C 368.031 -5.24605 -1.03408 0
M  V30 4073 C 369.331 -5.09554 1.14684 0
M  V30 4074 H 371.025 -2.84726 0.925822 0
M  V30 4075 H 368.571 -1.36898 0.446654 0
M  V30 4076 H 370.524 -4.0397 -1.19943 0
M  V30 4077 H 369.248 -2.85734 -1.58189 0
M  V30 4078 H 367.907 -3.64409 0.400184 0
M  V30 4079 H 367.555 -4.67746 -1.84994 0
M  V30 4080 H 367.255 -5.85081 -0.543464 0
M  V30 4081 H 368.779 -5.9257 -1.47288 0
M  V30 4082 H 370.193 -5.67899 0.785118 0
M  V30 4083 H 368.59 -5.7925 1.56812 0
M  V30 4084 H 369.66 -4.4347 1.96118 0
M  V30 4085 N 371.003 -0.499398 -1.49478 0
M  V30 4086 C 371.966 0.268838 -2.27618 0
M  V30 4087 C 372.966 0.895383 -1.33565 0
M  V30 4088 O 374.156 0.760164 -1.56739 0
M  V30 4089 C 371.288 1.38559 -3.11471 0
M  V30 4090 H 372.481 -0.416812 -2.96989 0
M  V30 4091 H 370.034 -0.254313 -1.54217 0
M  V30 4092 H 370.769 2.10544 -2.46661 0
M  V30 4093 H 370.554 0.941797 -3.80621 0
M  V30 4094 H 372.044 1.92678 -3.70493 0
M  V30 4095 N 372.481 1.55866 -0.233164 0
M  V30 4096 C 373.73 1.97779 0.39579 0
M  V30 4097 C 374.043 1.12419 1.60066 0
M  V30 4098 O 375.249 1.44283 2.29988 0
M  V30 4099 C 373.705 3.5188 0.755556 0
M  V30 4100 C 373.313 4.45959 -0.427152 0
M  V30 4101 C 375.057 4.02479 1.34946 0
M  V30 4102 C 372.964 5.91383 -0.0443043 0
M  V30 4103 H 371.894 0.738592 0.15165 0
M  V30 4104 H 374.545 1.80486 -0.331212 0
M  V30 4105 H 372.927 3.64816 1.5403 0
M  V30 4106 H 374.101 4.44776 -1.20462 0
M  V30 4107 H 372.416 4.05765 -0.935068 0
M  V30 4108 H 375.013 5.08637 1.649 0
M  V30 4109 H 375.356 3.49014 2.26925 0
M  V30 4110 H 375.889 3.92813 0.62791 0
M  V30 4111 H 372.628 6.48857 -0.930874 0
M  V30 4112 H 372.148 5.95734 0.697238 0
M  V30 4113 H 373.827 6.45893 0.378334 0
M  V30 4114 N 373.959 -0.0401083 1.57549 0
M  V30 4115 C 374.889 -1.04384 2.08869 0
M  V30 4116 C 375.87 -1.38407 0.988817 0
M  V30 4117 O 377.055 -1.47483 1.26342 0
M  V30 4118 C 374.185 -2.34808 2.55895 0
M  V30 4119 C 373.139 -2.15057 3.70047 0
M  V30 4120 C 372.465 -3.51145 4.03239 0
M  V30 4121 C 373.765 -1.54576 4.98902 0
M  V30 4122 H 375.459 -0.616666 2.92981 0
M  V30 4123 H 373.005 -0.295184 1.40942 0
M  V30 4124 H 374.958 -3.05346 2.90417 0
M  V30 4125 H 373.682 -2.79565 1.68853 0
M  V30 4126 H 372.341 -1.46954 3.35857 0
M  V30 4127 H 371.989 -3.93529 3.13279 0
M  V30 4128 H 371.689 -3.38758 4.80122 0
M  V30 4129 H 373.213 -4.23062 4.40285 0
M  V30 4130 H 374.627 -2.15017 5.31451 0
M  V30 4131 H 373.024 -1.52796 5.80322 0
M  V30 4132 H 374.094 -0.51039 4.82206 0
M  V30 4133 N 375.437 -1.54477 -0.31217 0
M  V30 4134 C 376.683 -1.73483 -1.0503 0
M  V30 4135 C 377.016 -0.513125 -1.87298 0
M  V30 4136 O 376.291 0.489864 -1.8823 0
M  V30 4137 C 376.574 -3.01723 -1.96558 0
M  V30 4138 C 376.427 -4.3417 -1.17545 0
M  V30 4139 C 377.746 -3.25772 -2.95907 0
M  V30 4140 H 374.865 -0.631222 -0.380432 0
M  V30 4141 H 377.507 -1.87184 -0.325932 0
M  V30 4142 H 375.657 -2.90174 -2.58324 0
M  V30 4143 H 377.329 -4.5762 -0.581513 0
M  V30 4144 H 375.572 -4.31159 -0.477925 0
M  V30 4145 H 376.243 -5.20143 -1.84811 0
M  V30 4146 H 378.719 -3.36857 -2.44267 0
M  V30 4147 H 377.595 -4.16838 -3.57123 0
M  V30 4148 H 377.856 -2.43537 -3.68974 0
M  V30 4149 N 376.915 0.57481 -1.46744 0
M  V30 4150 C 378.162 1.33272 -1.52462 0
M  V30 4151 C 378.49 1.93669 -0.179572 0
M  V30 4152 O 377.745 1.7743 0.825664 0
M  V30 4153 C 378.044 2.476 -2.57738 0
M  V30 4154 C 377.71 2.05146 -4.01529 0
M  V30 4155 C 376.372 1.93284 -4.40676 0
M  V30 4156 C 378.724 1.72506 -4.91824 0
M  V30 4157 C 376.052 1.47049 -5.67973 0
M  V30 4158 C 378.404 1.27748 -6.19567 0
M  V30 4159 C 377.068 1.14468 -6.57612 0
M  V30 4160 H 376.338 0.487678 -0.557899 0
M  V30 4161 H 378.985 0.646456 -1.80259 0
M  V30 4162 H 377.29 3.21708 -2.23632 0
M  V30 4163 H 378.987 3.05807 -2.5939 0
M  V30 4164 H 375.577 2.15316 -3.7059 0
M  V30 4165 H 379.761 1.80552 -4.62293 0
M  V30 4166 H 375.017 1.35417 -5.96215 0
M  V30 4167 H 379.191 1.01547 -6.88957 0
M  V30 4168 H 376.818 0.78419 -7.56145 0
M  V30 4169 N 378.394 1.34581 0.820102 0
M  V30 4170 C 379.624 1.29991 1.6058 0
M  V30 4171 C 380.032 -0.127588 1.88769 0
M  V30 4172 O 379.375 -1.08595 1.48165 0
M  V30 4173 C 379.437 2.02548 2.9701 0
M  V30 4174 C 379.101 3.51794 2.91701 0
M  V30 4175 C 380.098 4.46647 2.66087 0
M  V30 4176 C 377.783 3.94249 3.11245 0
M  V30 4177 C 379.777 5.81929 2.60071 0
M  V30 4178 C 377.464 5.2963 3.04853 0
M  V30 4179 C 378.462 6.23282 2.793 0
M  V30 4180 O 378.15 7.56181 2.72847 0
M  V30 4181 H 377.882 0.448539 0.505756 0
M  V30 4182 H 380.436 1.77811 1.02822 0
M  V30 4183 H 378.666 1.49345 3.56697 0
M  V30 4184 H 380.355 1.91211 3.58041 0
M  V30 4185 H 381.121 4.15168 2.5072 0
M  V30 4186 H 377 3.21749 3.30149 0
M  V30 4187 H 380.544 6.54999 2.40046 0
M  V30 4188 H 376.441 5.60727 3.19774 0
M  V30 4189 H 377.209 7.6595 2.88553 0
M  V30 4190 N 379.872 -1.04064 1.18357 0
M  V30 4191 C 380.802 -2.14001 0.934113 0
M  V30 4192 C 381.783 -1.69616 -0.128186 0
M  V30 4193 O 382.968 -1.94185 0.0244093 0
M  V30 4194 C 380.098 -3.44253 0.459066 0
M  V30 4195 C 379.052 -4.02261 1.46185 0
M  V30 4196 C 378.378 -5.27992 0.844322 0
M  V30 4197 C 379.678 -4.38432 2.83856 0
M  V30 4198 H 381.372 -2.35127 1.85352 0
M  V30 4199 H 378.918 -1.12998 0.892604 0
M  V30 4200 H 380.871 -4.20522 0.271907 0
M  V30 4201 H 379.595 -3.22813 -0.495912 0
M  V30 4202 H 378.254 -3.28074 1.63595 0
M  V30 4203 H 377.902 -5.02862 -0.117845 0
M  V30 4204 H 377.602 -5.67765 1.51384 0
M  V30 4205 H 379.126 -6.06938 0.667693 0
M  V30 4206 H 380.54 -5.05688 2.70098 0
M  V30 4207 H 378.937 -4.89254 3.47491 0
M  V30 4208 H 380.007 -3.4826 3.37406 0
M  V30 4209 N 381.35 -0.985608 -1.22978 0
M  V30 4210 C 382.761 -0.693593 -1.73338 0
M  V30 4211 C 383.112 0.789935 -1.79595 0
M  V30 4212 O 382.237 1.61771 -1.43733 0
M  V30 4213 C 382.832 -1.25235 -3.14804 0
M  V30 4214 C 381.391 -1.00987 -3.626 0
M  V30 4215 C 380.538 -1.37695 -2.40698 0
M  V30 4216 H 383.489 -1.15884 -1.08428 0
M  V30 4217 H 383.51 -0.627329 -3.75293 0
M  V30 4218 H 383.022 -2.33209 -3.10218 0
M  V30 4219 H 381.123 0.0535565 -3.72562 0
M  V30 4220 H 381.236 -1.66812 -4.49122 0
M  V30 4221 H 379.6 -0.795459 -2.4196 0
M  V30 4222 H 380.383 -2.46657 -2.38779 0
M  V30 4223 N 382.828 1.3818 -0.7579 0
M  V30 4224 C 384.053 2.04827 -0.325679 0
M  V30 4225 C 384.478 1.56788 1.03919 0
M  V30 4226 O 383.836 0.721811 1.66312 0
M  V30 4227 C 383.884 3.58774 -0.362447 0
M  V30 4228 O 382.988 4.07372 0.642033 0
M  V30 4229 H 382.329 0.64833 -0.143402 0
M  V30 4230 H 384.859 1.7677 -1.03023 0
M  V30 4231 H 384.869 4.07434 -0.214844 0
M  V30 4232 H 383.544 3.93096 -1.35824 0
M  V30 4233 H 382.121 3.70068 0.458688 0
M  V30 4234 N 384.306 0.507319 1.49211 0
M  V30 4235 C 385.583 -0.0982702 1.95353 0
M  V30 4236 C 385.963 -1.53516 1.449 0
M  V30 4237 O 385.311 -2.18594 0.66551 0
M  V30 4238 C 385.521 -0.00440283 3.49 0
M  V30 4239 C 386.869 -0.175147 4.24239 0
M  V30 4240 O 387.893 -0.0792891 3.56112 0
M  V30 4241 O 386.752 -0.37276 5.45227 0
M  V30 4242 H 383.846 -0.0918236 0.821887 0
M  V30 4243 H 386.392 0.570307 1.5983 0
M  V30 4244 H 385.164 0.997402 3.78375 0
M  V30 4245 H 384.787 -0.712845 3.91158 0
M  V30 4246 N 385.784 -1.5574 0.241426 0
M  V30 4247 C 387.024 -2.00714 -0.38644 0
M  V30 4248 C 387.388 -1.12586 -1.55526 0
M  V30 4249 O 388.589 -1.46992 -2.25048 0
M  V30 4250 C 386.86 -3.48534 -0.791128 0
M  V30 4251 S 388.419 -4.15519 -1.41029 0
M  V30 4252 H 385.237 -0.700484 -0.121834 0
M  V30 4253 H 387.839 -1.92243 0.355377 0
M  V30 4254 H 386.543 -4.10342 0.0689225 0
M  V30 4255 H 386.074 -3.6092 -1.56526 0
M  V30 4256 H 388.089 -4.16352 -2.69936 0
M  V30 4257 N 387.262 0.0317525 -1.57568 0
M  V30 4258 C 388.51 0.721676 -1.88776 0
M  V30 4259 C 388.831 1.76039 -0.838772 0
M  V30 4260 O 388.101 1.95482 0.127935 0
M  V30 4261 H 386.681 0.269534 -0.696678 0
M  V30 4262 H 389.343 -0.00165879 -1.949 0
M  V30 4263 H 388.439 1.21293 -2.87566 0
M  V30 4264 N 388.74 1.54641 0.303973 0
M  V30 4265 C 389.65 1.88439 1.39743 0
M  V30 4266 C 390.666 0.778239 1.55626 0
M  V30 4267 O 391.842 1.07442 1.70347 0
M  V30 4268 C 388.907 2.12212 2.74166 0
M  V30 4269 C 387.968 3.35936 2.67293 0
M  V30 4270 C 387.201 3.58566 3.95305 0
M  V30 4271 O 387.424 2.84263 4.9452 0
M  V30 4272 O 386.358 4.52078 3.97378 0
M  V30 4273 H 390.184 2.81458 1.14083 0
M  V30 4274 H 387.769 1.40793 0.499768 0
M  V30 4275 H 389.651 2.29067 3.53704 0
M  V30 4276 H 388.326 1.22379 2.99675 0
M  V30 4277 H 387.233 3.24448 1.86237 0
M  V30 4278 H 388.566 4.2589 2.46736 0
M  V30 4279 N 390.218 -0.567019 1.47046 0
M  V30 4280 C 391.165 -1.67489 1.58796 0
M  V30 4281 C 392.135 -1.60399 0.43144 0
M  V30 4282 O 393.32 -1.79378 0.650233 0
M  V30 4283 C 390.46 -3.05821 1.59899 0
M  V30 4284 C 389.573 -3.2342 2.86397 0
M  V30 4285 C 388.708 -4.52093 2.789 0
M  V30 4286 C 387.747 -4.6309 4.00267 0
M  V30 4287 N 386.884 -5.83106 3.91064 0
M  V30 4288 H 391.724 -1.56785 2.53422 0
M  V30 4289 H 389.261 -0.763896 1.2571 0
M  V30 4290 H 391.219 -3.8591 1.58522 0
M  V30 4291 H 389.849 -3.15384 0.687929 0
M  V30 4292 H 388.901 -2.3683 2.97684 0
M  V30 4293 H 390.213 -3.27412 3.76301 0
M  V30 4294 H 389.367 -5.4043 2.75718 0
M  V30 4295 H 388.106 -4.50565 1.86662 0
M  V30 4296 H 387.111 -3.73168 4.03765 0
M  V30 4297 H 388.336 -4.66386 4.93621 0
M  V30 4298 H 386.282 -5.82546 3.01623 0
M  V30 4299 H 386.199 -5.88434 4.74638 0
M  V30 4300 H 387.467 -6.73831 3.91882 0
M  V30 4301 N 391.696 -1.35014 -0.812953 0
M  V30 4302 C 392.629 -1.21761 -1.93001 0
M  V30 4303 C 393.607 -0.10694 -1.62248 0
M  V30 4304 O 394.791 -0.273891 -1.865 0
M  V30 4305 C 391.918 -0.873404 -3.27245 0
M  V30 4306 C 390.964 -1.99523 -3.76952 0
M  V30 4307 S 391.797 -3.61009 -3.95516 0
M  V30 4308 C 392.953 -3.28651 -5.32672 0
M  V30 4309 H 393.186 -2.16315 -2.03948 0
M  V30 4310 H 390.719 -1.20156 -0.969631 0
M  V30 4311 H 392.677 -0.68161 -4.04802 0
M  V30 4312 H 391.338 0.053971 -3.14054 0
M  V30 4313 H 390.531 -1.70838 -4.74163 0
M  V30 4314 H 390.133 -2.14503 -3.06373 0
M  V30 4315 H 392.425 -2.81085 -6.1644 0
M  V30 4316 H 393.368 -4.25039 -5.66346 0
M  V30 4317 H 393.776 -2.6458 -4.98656 0
M  V30 4318 N 393.175 1.03435 -1.18907 0
M  V30 4319 C 394.403 1.80381 -1.01342 0
M  V30 4320 C 394.818 1.83649 0.438005 0
M  V30 4321 O 394.175 1.27655 1.30424 0
M  V30 4322 C 394.226 3.25689 -1.56873 0
M  V30 4323 O 393.947 3.22673 -2.96334 0
M  V30 4324 C 395.448 4.19255 -1.44014 0
M  V30 4325 H 392.668 0.56784 -0.35749 0
M  V30 4326 H 395.212 1.30317 -1.576 0
M  V30 4327 H 393.367 3.72962 -1.04777 0
M  V30 4328 H 393.781 4.13748 -3.22355 0
M  V30 4329 H 395.255 5.19123 -1.87657 0
M  V30 4330 H 395.732 4.37467 -0.389815 0
M  V30 4331 H 396.338 3.77851 -1.95214 0
M  V30 4332 N 394.653 0.992116 1.22453 0
M  V30 4333 C 395.583 0.561677 2.26644 0
M  V30 4334 C 396.564 -0.411055 1.65059 0
M  V30 4335 O 397.749 -0.301861 1.9184 0
M  V30 4336 C 394.879 -0.125247 3.47074 0
M  V30 4337 C 393.833 0.765948 4.21091 0
M  V30 4338 C 393.159 -0.0538484 5.34673 0
M  V30 4339 C 394.459 2.06242 4.79856 0
M  V30 4340 H 396.153 1.43259 2.62902 0
M  V30 4341 H 393.699 0.690283 1.26377 0
M  V30 4342 H 395.652 -0.437764 4.1912 0
M  V30 4343 H 394.376 -1.03069 3.0991 0
M  V30 4344 H 393.035 1.0621 3.50878 0
M  V30 4345 H 392.683 -0.960188 4.9375 0
M  V30 4346 H 392.383 0.539415 5.85119 0
M  V30 4347 H 393.907 -0.360477 6.09535 0
M  V30 4348 H 395.321 1.8139 5.43848 0
M  V30 4349 H 393.718 2.60444 5.40638 0
M  V30 4350 H 394.788 2.74167 3.99951 0
M  V30 4351 N 396.131 -1.37776 0.765217 0
M  V30 4352 C 397.371 -2.01691 0.331669 0
M  V30 4353 C 397.735 -1.59432 -1.06983 0
M  V30 4354 O 398.936 -2.15761 -1.60314 0
M  V30 4355 C 397.207 -3.54385 0.463261 0
M  V30 4356 S 398.766 -4.38652 0.114011 0
M  V30 4357 H 395.584 -0.699387 0.127979 0
M  V30 4358 H 398.186 -1.68084 0.998396 0
M  V30 4359 H 396.89 -3.82629 1.48401 0
M  V30 4360 H 396.421 -3.92783 -0.220246 0
M  V30 4361 H 398.436 -4.84021 -1.09261 0
M  V30 4362 N 397.609 -0.515225 -1.4894 0
M  V30 4363 C 398.858 0.0261361 -2.01683 0
M  V30 4364 C 399.171 1.36719 -1.39883 0
M  V30 4365 O 400.377 1.99606 -1.84037 0
M  V30 4366 C 398.833 0.0970111 -3.59769 0
M  V30 4367 C 398.441 -1.23825 -4.30548 0
M  V30 4368 C 400.185 0.587981 -4.20408 0
M  V30 4369 C 398.092 -1.12877 -5.80528 0
M  V30 4370 H 397.022 0.0135398 -0.753878 0
M  V30 4371 H 399.673 -0.656787 -1.71343 0
M  V30 4372 H 398.055 0.844694 -3.86886 0
M  V30 4373 H 399.229 -2.00034 -4.15118 0
M  V30 4374 H 397.544 -1.66379 -3.81716 0
M  V30 4375 H 400.141 0.68763 -5.3026 0
M  V30 4376 H 400.484 1.59026 -3.84729 0
M  V30 4377 H 401.017 -0.103582 -3.97665 0
M  V30 4378 H 397.756 -2.10575 -6.20756 0
M  V30 4379 H 397.276 -0.407799 -5.98412 0
M  V30 4380 H 398.955 -0.813332 -6.41868 0
M  V30 4381 N 399.087 1.5561 -0.249682 0
M  V30 4382 C 400.312 2.03865 0.381305 0
M  V30 4383 C 400.737 1.12769 1.50548 0
M  V30 4384 O 400.095 0.121189 1.80895 0
M  V30 4385 C 400.143 3.50101 0.863816 0
M  V30 4386 O 399.247 3.62132 1.97318 0
M  V30 4387 H 398.588 0.658827 0.0827194 0
M  V30 4388 H 401.118 2.01105 -0.376552 0
M  V30 4389 H 401.128 3.90975 1.1663 0
M  V30 4390 H 399.803 4.1588 0.0411816 0
M  V30 4391 H 398.38 3.33155 1.67517 0
M  V30 4392 N 400.565 -0.0233959 1.57583 0
M  V30 4393 C 401.811 -0.714119 1.89811 0
M  V30 4394 C 402.144 -1.74702 0.848113 0
M  V30 4395 O 401.419 -1.94023 -0.136135 0
M  V30 4396 C 401.702 -1.37853 3.32669 0
M  V30 4397 C 401.555 -0.358764 4.48367 0
M  V30 4398 C 402.874 -2.31101 3.7454 0
M  V30 4399 H 399.993 -0.25814 0.690314 0
M  V30 4400 H 402.635 0.0230927 1.89986 0
M  V30 4401 H 400.785 -2.00689 3.3265 0
M  V30 4402 H 402.457 0.268115 4.6052 0
M  V30 4403 H 400.7 0.321387 4.32608 0
M  V30 4404 H 401.371 -0.862242 5.45224 0
M  V30 4405 H 403.847 -1.78304 3.75961 0
M  V30 4406 H 402.723 -2.74567 4.75294 0
M  V30 4407 H 402.984 -3.18018 3.0711 0
M  V30 4408 N 402.043 -1.548 -0.295768 0
M  V30 4409 C 402.973 -1.89115 -1.36959 0
M  V30 4410 C 403.954 -0.75059 -1.52644 0
M  V30 4411 O 405.139 -1.00678 -1.66065 0
M  V30 4412 C 402.269 -2.14307 -2.73295 0
M  V30 4413 C 401.223 -3.30151 -2.72368 0
M  V30 4414 C 400.549 -3.40772 -4.12042 0
M  V30 4415 C 401.849 -4.67126 -2.33646 0
M  V30 4416 H 403.543 -2.79053 -1.08488 0
M  V30 4417 H 401.089 -1.34266 -0.520443 0
M  V30 4418 H 403.042 -2.36898 -3.48507 0
M  V30 4419 H 401.766 -1.21145 -3.03301 0
M  V30 4420 H 400.425 -3.0749 -1.99613 0
M  V30 4421 H 400.073 -2.45117 -4.39234 0
M  V30 4422 H 399.773 -4.18645 -4.12322 0
M  V30 4423 H 401.297 -3.6563 -4.89027 0
M  V30 4424 H 402.711 -4.89414 -2.98575 0
M  V30 4425 H 401.108 -5.47751 -2.45129 0
M  V30 4426 H 402.178 -4.67489 -1.28772 0
M  V30 4427 N 403.521 0.559213 -1.47345 0
M  V30 4428 C 404.451 1.67622 -1.62558 0
M  V30 4429 C 405.432 1.63331 -0.475087 0
M  V30 4430 O 406.617 1.80983 -0.704182 0
M  V30 4431 C 403.747 3.0626 -1.63774 0
M  V30 4432 C 402.701 3.25397 -2.7803 0
M  V30 4433 C 402.027 4.64801 -2.64318 0
M  V30 4434 C 403.327 3.10965 -4.19641 0
M  V30 4435 H 405.021 1.55146 -2.56067 0
M  V30 4436 H 402.567 0.744961 -1.23233 0
M  V30 4437 H 404.52 3.84247 -1.73008 0
M  V30 4438 H 403.244 3.1969 -0.66825 0
M  V30 4439 H 401.903 2.49817 -2.68304 0
M  V30 4440 H 401.551 4.75028 -1.65401 0
M  V30 4441 H 401.251 4.78555 -3.40968 0
M  V30 4442 H 402.775 5.44926 -2.75478 0
M  V30 4443 H 404.189 3.78772 -4.30354 0
M  V30 4444 H 402.586 3.36229 -4.97062 0
M  V30 4445 H 403.656 2.07736 -4.38148 0
M  V30 4446 N 404.999 1.35443 0.805782 0
M  V30 4447 C 405.962 1.28301 1.89925 0
M  V30 4448 C 406.962 0.194285 1.59622 0
M  V30 4449 O 408.152 0.448036 1.6834 0
M  V30 4450 C 405.284 0.984997 3.2636 0
M  V30 4451 H 406.477 2.2553 1.97677 0
M  V30 4452 H 404.03 1.19979 1.00173 0
M  V30 4453 H 404.765 0.016603 3.24296 0
M  V30 4454 H 404.55 1.77269 3.4974 0
M  V30 4455 H 406.04 0.960651 4.064 0
M  V30 4456 N 406.477 -1.02803 1.19454 0
M  V30 4457 C 407.407 -2.12999 0.956758 0
M  V30 4458 C 408.388 -1.69743 -0.110188 0
M  V30 4459 O 409.573 -1.94148 0.0450038 0
M  V30 4460 C 406.703 -3.43746 0.495553 0
M  V30 4461 C 405.657 -4.00688 1.50443 0
M  V30 4462 C 404.983 -5.27067 0.900275 0
M  V30 4463 C 406.283 -4.35397 2.8849 0
M  V30 4464 H 407.977 -2.33148 1.87836 0
M  V30 4465 H 405.523 -1.12045 0.904539 0
M  V30 4466 H 407.476 -4.2021 0.316493 0
M  V30 4467 H 406.2 -3.23321 -0.461646 0
M  V30 4468 H 404.859 -3.2632 1.67065 0
M  V30 4469 H 404.507 -5.02959 -0.064503 0
M  V30 4470 H 404.207 -5.66127 1.57397 0
M  V30 4471 H 405.731 -6.06196 0.73203 0
M  V30 4472 H 407.145 -5.02795 2.75446 0
M  V30 4473 H 405.542 -4.85541 3.52661 0
M  V30 4474 H 406.612 -3.44662 3.41081 0
M  V30 4475 N 407.956 -0.998596 -1.21925 0
M  V30 4476 C 409.184 -0.696286 -1.94832 0
M  V30 4477 C 409.599 0.740032 -1.73692 0
M  V30 4478 O 408.956 1.5 -1.03953 0
M  V30 4479 C 409.007 -0.999833 -3.47398 0
M  V30 4480 O 408.728 -2.37972 -3.67833 0
M  V30 4481 C 410.229 -0.716025 -4.37479 0
M  V30 4482 H 407.449 -0.257111 -0.619786 0
M  V30 4483 H 409.993 -1.33491 -1.54921 0
M  V30 4484 H 408.148 -0.406918 -3.85257 0
M  V30 4485 H 408.562 -2.48338 -4.61983 0
M  V30 4486 H 410.036 -0.978642 -5.43256 0
M  V30 4487 H 410.513 0.349968 -4.37803 0
M  V30 4488 H 411.119 -1.29025 -4.05256 0
M  V30 4489 N 409.434 1.37368 -0.772513 0
M  V30 4490 C 410.68 1.99969 -0.337681 0
M  V30 4491 C 411.013 1.61184 1.08321 0
M  V30 4492 O 410.288 0.858395 1.74533 0
M  V30 4493 C 410.571 3.56858 -0.482121 0
M  V30 4494 C 410.424 4.0555 -1.94549 0
M  V30 4495 C 411.743 4.39955 0.113143 0
M  V30 4496 H 408.862 0.726464 -0.124171 0
M  V30 4497 H 411.504 1.63034 -0.975699 0
M  V30 4498 H 409.654 3.88452 0.0610361 0
M  V30 4499 H 411.326 3.84518 -2.54841 0
M  V30 4500 H 409.569 3.57715 -2.45403 0
M  V30 4501 H 410.24 5.14587 -1.9976 0
M  V30 4502 H 412.716 4.14623 -0.35031 0
M  V30 4503 H 411.592 5.48897 -0.0180514 0
M  V30 4504 H 411.853 4.25403 1.20354 0
M  V30 4505 N 410.912 0.523116 1.48665 0
M  V30 4506 C 412.159 -0.0134763 2.02496 0
M  V30 4507 C 412.487 -1.3493 1.40086 0
M  V30 4508 O 411.742 -1.88286 0.533567 0
M  V30 4509 C 412.041 -0.191671 3.56886 0
M  V30 4510 C 411.707 1.06893 4.38046 0
M  V30 4511 C 410.369 1.41443 4.59943 0
M  V30 4512 C 412.721 1.90584 4.85106 0
M  V30 4513 C 410.049 2.59594 5.26144 0
M  V30 4514 C 412.401 3.07907 5.52609 0
M  V30 4515 C 411.065 3.42811 5.72745 0
M  V30 4516 H 410.335 -0.00493133 0.740984 0
M  V30 4517 H 412.982 0.687751 1.78724 0
M  V30 4518 H 411.287 -0.97561 3.79459 0
M  V30 4519 H 412.984 -0.621659 3.96152 0
M  V30 4520 H 409.574 0.789848 4.21259 0
M  V30 4521 H 413.758 1.65203 4.67997 0
M  V30 4522 H 409.014 2.86847 5.39934 0
M  V30 4523 H 413.188 3.73066 5.88043 0
M  V30 4524 H 410.815 4.34462 6.23816 0
M  V30 4525 N 412.39 -1.55475 0.257931 0
M  V30 4526 C 413.32 -2.24815 -0.630912 0
M  V30 4527 C 414.301 -1.23224 -1.17259 0
M  V30 4528 O 415.486 -1.51904 -1.20991 0
M  V30 4529 C 412.616 -2.95609 -1.82298 0
M  V30 4530 C 411.57 -4.03982 -1.41359 0
M  V30 4531 C 410.896 -4.6226 -2.68738 0
M  V30 4532 C 412.196 -5.19109 -0.57648 0
M  V30 4533 H 413.89 -2.99354 -0.0526878 0
M  V30 4534 H 411.436 -1.4398 -0.023901 0
M  V30 4535 H 413.389 -3.42822 -2.45054 0
M  V30 4536 H 412.113 -2.18577 -2.42676 0
M  V30 4537 H 410.772 -3.57555 -0.809324 0
M  V30 4538 H 410.42 -3.81915 -3.27338 0
M  V30 4539 H 410.12 -5.35424 -2.42065 0
M  V30 4540 H 411.644 -5.12212 -3.32372 0
M  V30 4541 H 413.058 -5.62479 -1.10861 0
M  V30 4542 H 411.455 -5.98729 -0.405351 0
M  V30 4543 H 412.525 -4.83174 0.408776 0
M  V30 4544 N 413.868 0.0150385 -1.57593 0
M  V30 4545 C 414.798 1.01047 -2.10503 0
M  V30 4546 C 415.779 1.36816 -1.01071 0
M  V30 4547 O 416.964 1.45455 -1.28672 0
M  V30 4548 C 414.094 2.30708 -2.59598 0
M  V30 4549 C 413.048 2.09142 -3.73421 0
M  V30 4550 C 412.374 3.44685 -4.08774 0
M  V30 4551 C 413.674 1.46619 -5.01298 0
M  V30 4552 H 415.368 0.569978 -2.93925 0
M  V30 4553 H 412.914 0.272724 -1.41394 0
M  V30 4554 H 414.867 3.00687 -2.95238 0
M  V30 4555 H 413.591 2.76843 -1.73279 0
M  V30 4556 H 412.25 1.41592 -3.38153 0
M  V30 4557 H 411.898 3.88495 -3.195 0
M  V30 4558 H 411.598 3.31077 -4.8545 0
M  V30 4559 H 413.122 4.16004 -4.4696 0
M  V30 4560 H 414.536 2.06535 -5.34805 0
M  V30 4561 H 412.933 1.43544 -5.82679 0
M  V30 4562 H 414.003 0.433611 -4.82957 0
M  V30 4563 N 415.346 1.54954 0.287554 0
M  V30 4564 C 416.276 1.89839 1.35954 0
M  V30 4565 C 417.257 0.758675 1.52244 0
M  V30 4566 O 418.442 1.01557 1.65529 0
M  V30 4567 C 415.572 2.15753 2.72154 0
M  V30 4568 C 414.526 3.3159 2.70614 0
M  V30 4569 C 413.852 3.42952 4.10229 0
M  V30 4570 C 415.152 4.68359 2.31165 0
M  V30 4571 H 416.846 2.79625 1.07007 0
M  V30 4572 H 414.392 1.3454 0.513316 0
M  V30 4573 H 416.345 2.38743 3.47246 0
M  V30 4574 H 415.069 1.22752 3.02654 0
M  V30 4575 H 413.728 3.08545 1.97979 0
M  V30 4576 H 413.376 2.47443 4.37928 0
M  V30 4577 H 413.076 4.20826 4.10097 0
M  V30 4578 H 414.6 3.68218 4.87081 0
M  V30 4579 H 416.014 4.9099 2.95976 0
M  V30 4580 H 414.411 5.49044 2.42221 0
M  V30 4581 H 415.481 4.68165 1.26291 0
M  V30 4582 N 416.824 -0.551391 1.4764 0
M  V30 4583 C 418.073 -1.30467 1.53822 0
M  V30 4584 C 418.386 -1.94495 0.207661 0
M  V30 4585 O 419.592 -2.71099 0.147533 0
M  V30 4586 C 418.048 -2.36616 2.71184 0
M  V30 4587 C 417.656 -1.78754 4.10793 0
M  V30 4588 C 419.4 -3.13088 2.86663 0
M  V30 4589 C 417.307 -2.82717 5.19447 0
M  V30 4590 H 416.237 -0.490584 0.572576 0
M  V30 4591 H 418.888 -0.58494 1.73927 0
M  V30 4592 H 417.27 -3.11529 2.4447 0
M  V30 4593 H 418.444 -1.10173 4.47435 0
M  V30 4594 H 416.759 -1.14846 4.00249 0
M  V30 4595 H 419.356 -3.90736 3.65007 0
M  V30 4596 H 419.699 -3.67635 1.95321 0
M  V30 4597 H 420.232 -2.45288 3.13175 0
M  V30 4598 H 416.971 -2.33018 6.12685 0
M  V30 4599 H 416.491 -3.4969 4.87316 0
M  V30 4600 H 418.17 -3.46102 5.46646 0
M  V30 4601 N 418.302 -1.35869 -0.798587 0
M  V30 4602 C 419.527 -1.32883 -1.59238 0
M  V30 4603 C 419.952 0.0894587 -1.87887 0
M  V30 4604 O 419.31 1.05869 -1.47178 0
M  V30 4605 C 419.358 -2.14892 -2.89575 0
M  V30 4606 O 418.462 -1.53512 -3.82763 0
M  V30 4607 H 417.803 -0.455236 -0.48338 0
M  V30 4608 H 420.333 -1.79024 -0.990539 0
M  V30 4609 H 420.343 -2.27139 -3.38928 0
M  V30 4610 H 419.018 -3.17998 -2.68049 0
M  V30 4611 H 417.595 -1.50153 -3.41334 0
M  V30 4612 N 419.78 1.02168 -1.19998 0
M  V30 4613 C 420.727 2.10601 -0.944228 0
M  V30 4614 C 421.697 1.65639 0.123664 0
M  V30 4615 O 422.882 1.9079 -0.0199941 0
M  V30 4616 C 420.022 3.41504 -0.496865 0
M  V30 4617 C 419.135 3.99973 -1.63234 0
M  V30 4618 C 418.27 5.18915 -1.13579 0
M  V30 4619 C 417.309 5.69456 -2.24468 0
M  V30 4620 N 416.446 6.79665 -1.76068 0
M  V30 4621 H 421.286 2.31814 -1.8726 0
M  V30 4622 H 418.823 1.13686 -0.933483 0
M  V30 4623 H 420.781 4.16626 -0.218843 0
M  V30 4624 H 419.411 3.2038 0.394508 0
M  V30 4625 H 418.463 3.21997 -2.0254 0
M  V30 4626 H 419.775 4.33492 -2.46752 0
M  V30 4627 H 418.929 6.01222 -0.813429 0
M  V30 4628 H 417.668 4.8695 -0.270434 0
M  V30 4629 H 416.673 4.85757 -2.57526 0
M  V30 4630 H 417.898 6.03459 -3.11472 0
M  V30 4631 H 415.844 6.49538 -0.918516 0
M  V30 4632 H 415.761 7.12349 -2.5317 0
M  V30 4633 H 417.029 7.65549 -1.46817 0
M  V30 4634 N 421.258 1.00505 1.21394 0
M  V30 4635 C 422.507 0.683159 1.89778 0
M  V30 4636 C 422.82 -0.789471 1.7896 0
M  V30 4637 O 424.026 -1.22344 2.42372 0
M  V30 4638 C 422.482 1.17146 3.40301 0
M  V30 4639 C 422.09 2.67017 3.5973 0
M  V30 4640 C 423.834 0.924461 4.14311 0
M  V30 4641 C 421.741 3.09387 5.04017 0
M  V30 4642 H 420.671 0.25183 0.710702 0
M  V30 4643 H 423.322 1.21622 1.37406 0
M  V30 4644 H 421.704 0.566451 3.91928 0
M  V30 4645 H 422.878 3.32968 3.18542 0
M  V30 4646 H 421.193 2.89732 2.99073 0
M  V30 4647 H 423.79 1.21658 5.20676 0
M  V30 4648 H 424.133 -0.139286 4.16067 0
M  V30 4649 H 424.666 1.49226 3.6875 0
M  V30 4650 H 421.405 4.14989 5.07409 0
M  V30 4651 H 420.925 2.48149 5.46061 0
M  V30 4652 H 422.604 3.01371 5.72525 0
M  V30 4653 N 422.737 -1.36956 0.779787 0
M  V30 4654 C 423.983 -1.99787 0.348281 0
M  V30 4655 C 424.316 -1.61756 -1.07465 0
M  V30 4656 O 423.591 -0.867639 -1.74075 0
M  V30 4657 C 423.874 -3.56597 0.50104 0
M  V30 4658 C 423.727 -4.04513 1.96697 0
M  V30 4659 C 425.046 -4.40008 -0.0898097 0
M  V30 4660 H 422.165 -0.725796 0.128022 0
M  V30 4661 H 424.807 -1.62514 0.984331 0
M  V30 4662 H 422.957 -3.88479 -0.0404347 0
M  V30 4663 H 424.629 -3.83161 2.56876 0
M  V30 4664 H 422.872 -3.56408 2.47297 0
M  V30 4665 H 423.543 -5.1352 2.02486 0
M  V30 4666 H 426.019 -4.14431 0.372293 0
M  V30 4667 H 424.895 -5.4888 0.0471605 0
M  V30 4668 H 425.156 -4.26035 -1.18096 0
M  V30 4669 N 424.215 -0.530993 -1.48385 0
M  V30 4670 C 425.626 -0.0907905 -1.86479 0
M  V30 4671 C 425.977 1.33213 -1.44044 0
M  V30 4672 O 425.102 1.99783 -0.831615 0
M  V30 4673 C 425.697 -0.157987 -3.38431 0
M  V30 4674 C 424.256 0.227026 -3.75715 0
M  V30 4675 C 423.403 -0.5173 -2.72432 0
M  V30 4676 H 426.354 -0.742186 -1.40276 0
M  V30 4677 H 426.375 0.630053 -3.75247 0
M  V30 4678 H 425.887 -1.19372 -3.69286 0
M  V30 4679 H 423.988 1.26486 -3.50474 0
M  V30 4680 H 424.101 -0.113288 -4.78966 0
M  V30 4681 H 422.465 0.0365527 -2.54674 0
M  V30 4682 H 423.248 -1.55368 -3.0613 0
M  V30 4683 N 425.693 1.55336 -0.266172 0
M  V30 4684 C 427.104 1.85236 0.233315 0
M  V30 4685 C 427.455 1.18816 1.56132 0
M  V30 4686 O 426.58 0.473307 2.11161 0
M  V30 4687 C 427.175 3.36059 0.430113 0
M  V30 4688 C 425.734 3.66116 0.873842 0
M  V30 4689 C 424.881 2.77274 -0.0380016 0
M  V30 4690 H 427.832 1.51004 -0.488214 0
M  V30 4691 H 427.853 3.58681 1.26998 0
M  V30 4692 H 427.365 3.84373 -0.536588 0
M  V30 4693 H 425.466 3.23295 1.85233 0
M  V30 4694 H 425.579 4.73699 0.717358 0
M  V30 4695 H 423.943 2.50198 0.476759 0
M  V30 4696 H 424.726 3.284 -1.00042 0
M  V30 4697 N 427.171 -0.0066808 1.57599 0
M  V30 4698 C 428.399 -0.704087 1.94551 0
M  V30 4699 C 428.814 -1.67677 0.867746 0
M  V30 4700 O 428.171 -1.8185 -0.153925 0
M  V30 4701 C 428.222 -1.44177 3.31505 0
M  V30 4702 O 427.943 -0.508097 4.35144 0
M  V30 4703 C 429.444 -2.23429 3.82876 0
M  V30 4704 H 426.664 -0.196523 0.641576 0
M  V30 4705 H 429.208 0.042453 2.04456 0
M  V30 4706 H 427.363 -2.13999 3.22929 0
M  V30 4707 H 427.777 -1.02782 5.14331 0
M  V30 4708 H 429.251 -2.70552 4.8115 0
M  V30 4709 H 429.728 -3.05818 3.15233 0
M  V30 4710 H 430.334 -1.58636 3.94607 0
M  V30 4711 N 428.649 -1.55105 -0.279332 0
M  V30 4712 C 429.874 -1.7976 -1.03446 0
M  V30 4713 C 430.299 -0.565952 -1.79384 0
M  V30 4714 O 429.657 0.484259 -1.74713 0
M  V30 4715 C 429.705 -3.0179 -1.97371 0
M  V30 4716 O 428.809 -2.76432 -3.06038 0
M  V30 4717 H 428.15 -0.594334 -0.29608 0
M  V30 4718 H 430.68 -2.02235 -0.310165 0
M  V30 4719 H 430.69 -3.30351 -2.39441 0
M  V30 4720 H 429.365 -3.91085 -1.4151 0
M  V30 4721 H 427.942 -2.58949 -2.68328 0
M  V30 4722 N 430.127 0.543554 -1.4793 0
M  V30 4723 C 431.057 1.65888 -1.64327 0
M  V30 4724 C 432.038 1.62818 -0.492383 0
M  V30 4725 O 433.223 1.80226 -0.723338 0
M  V30 4726 C 430.353 3.04506 -1.67013 0
M  V30 4727 C 429.307 3.2243 -2.81466 0
M  V30 4728 C 428.633 4.61972 -2.69233 0
M  V30 4729 C 429.933 3.06496 -4.22915 0
M  V30 4730 H 431.627 1.52421 -2.57698 0
M  V30 4731 H 429.173 0.731849 -1.24016 0
M  V30 4732 H 431.126 3.82391 -1.77074 0
M  V30 4733 H 429.85 3.18964 -0.70212 0
M  V30 4734 H 428.509 2.46957 -2.70938 0
M  V30 4735 H 428.157 4.73247 -1.7043 0
M  V30 4736 H 427.857 4.74911 -3.46025 0
M  V30 4737 H 429.381 5.41974 -2.81242 0
M  V30 4738 H 430.795 3.74186 -4.34348 0
M  V30 4739 H 429.192 3.30938 -5.006 0
M  V30 4740 H 430.262 2.03077 -4.40327 0
M  V30 4741 N 431.605 1.3629 0.791371 0
M  V30 4742 C 432.882 1.20962 1.53712 0
M  V30 4743 C 433.262 -0.205021 2.10102 0
M  V30 4744 O 432.61 -1.21042 1.93807 0
M  V30 4745 C 432.82 2.29002 2.63361 0
M  V30 4746 C 434.168 2.65572 3.31295 0
M  V30 4747 O 435.192 2.2803 2.73643 0
M  V30 4748 O 434.051 3.3018 4.35481 0
M  V30 4749 H 431.145 0.47086 0.679867 0
M  V30 4750 H 433.691 1.48016 0.830021 0
M  V30 4751 H 432.463 3.2382 2.19674 0
M  V30 4752 H 432.086 2.03303 3.41692 0
M  V30 4753 N 433.083 -1.0153 1.20538 0
M  V30 4754 C 434.329 -1.75408 1.01783 0
M  V30 4755 C 434.662 -1.88943 -0.448814 0
M  V30 4756 O 433.937 -1.4162 -1.33319 0
M  V30 4757 C 434.22 -3.17255 1.70356 0
M  V30 4758 C 434.073 -3.11508 3.24473 0
M  V30 4759 C 435.392 -4.15955 1.43769 0
M  V30 4760 H 432.511 -0.636713 0.371167 0
M  V30 4761 H 435.153 -1.18436 1.4857 0
M  V30 4762 H 433.303 -3.65898 1.30578 0
M  V30 4763 H 434.975 -2.70658 3.73553 0
M  V30 4764 H 433.218 -2.4887 3.55311 0
M  V30 4765 H 433.889 -4.11784 3.67611 0
M  V30 4766 H 436.365 -3.75973 1.7828 0
M  V30 4767 H 435.241 -5.13368 1.94279 0
M  V30 4768 H 435.502 -4.40586 0.365564 0
M  V30 4769 N 434.561 -1.01147 -1.20859 0
M  V30 4770 C 435.972 -0.730205 -1.71828 0
M  V30 4771 C 436.323 0.751662 -1.8123 0
M  V30 4772 O 435.448 1.58686 -1.47132 0
M  V30 4773 C 436.043 -1.31885 -3.12077 0
M  V30 4774 C 434.602 -1.08656 -3.60376 0
M  V30 4775 C 433.749 -1.42769 -2.37723 0
M  V30 4776 H 436.7 -1.18158 -1.05945 0
M  V30 4777 H 436.721 -0.706793 -3.73878 0
M  V30 4778 H 436.233 -2.39737 -3.05201 0
M  V30 4779 H 434.334 -0.0254814 -3.72591 0
M  V30 4780 H 434.447 -1.76301 -4.45483 0
M  V30 4781 H 432.811 -0.846603 -2.40218 0
M  V30 4782 H 433.594 -2.51666 -2.33493 0
M  V30 4783 N 436.039 1.36541 -0.78704 0
M  V30 4784 C 436.969 2.32659 -0.197992 0
M  V30 4785 C 437.95 1.56533 0.665697 0
M  V30 4786 O 439.135 1.84698 0.60001 0
M  V30 4787 C 436.265 3.40778 0.669901 0
M  V30 4788 C 435.219 4.27897 -0.0937039 0
M  V30 4789 C 434.545 5.27163 0.894629 0
M  V30 4790 C 435.845 5.06334 -1.28154 0
M  V30 4791 H 437.539 2.82171 -1.00099 0
M  V30 4792 H 435.085 1.35665 -0.482793 0
M  V30 4793 H 437.038 4.07008 1.09191 0
M  V30 4794 H 435.762 2.89827 1.50558 0
M  V30 4795 H 434.421 3.6322 -0.49666 0
M  V30 4796 H 434.069 4.72486 1.72527 0
M  V30 4797 H 433.769 5.86317 0.388149 0
M  V30 4798 H 435.293 5.96266 1.31525 0
M  V30 4799 H 436.707 5.65617 -0.93541 0
M  V30 4800 H 435.104 5.74888 -1.72115 0
M  V30 4801 H 436.174 4.38114 -2.07807 0
M  V30 4802 N 437.518 0.538854 1.48102 0
M  V30 4803 C 438.764 0.00801365 2.02798 0
M  V30 4804 C 439.097 -1.3309 1.41424 0
M  V30 4805 O 438.372 -1.86169 0.563158 0
M  V30 4806 C 438.655 -0.104589 3.59948 0
M  V30 4807 C 438.508 1.26012 4.31788 0
M  V30 4808 C 439.827 -0.827055 4.32259 0
M  V30 4809 H 436.946 0.00438624 0.736987 0
M  V30 4810 H 439.588 0.6976 1.7673 0
M  V30 4811 H 437.738 -0.691893 3.82289 0
M  V30 4812 H 439.41 1.88922 4.2084 0
M  V30 4813 H 437.653 1.83968 3.92859 0
M  V30 4814 H 438.324 1.13424 5.40221 0
M  V30 4815 H 440.8 -0.328578 4.14801 0
M  V30 4816 H 439.676 -0.87476 5.41885 0
M  V30 4817 H 439.937 -1.87927 4.0017 0
M  V30 4818 N 438.996 -1.55193 0.274407 0
M  V30 4819 C 440.244 -1.99187 -0.341902 0
M  V30 4820 C 440.565 -1.16422 -1.56431 0
M  V30 4821 O 439.835 -0.253573 -1.94252 0
M  V30 4822 H 438.415 -0.735721 -0.129317 0
M  V30 4823 H 441.077 -1.91168 0.379578 0
M  V30 4824 H 440.173 -3.05629 -0.632253 0
M  V30 4825 N 440.474 -0.00167713 -1.576 0
M  V30 4826 C 441.421 0.989195 -2.08527 0
M  V30 4827 C 442.391 1.34031 -0.981065 0
M  V30 4828 O 443.576 1.43839 -1.2536 0
M  V30 4829 C 440.716 2.27537 -2.59463 0
M  V30 4830 C 439.829 1.98314 -3.83791 0
M  V30 4831 C 438.964 3.21025 -4.23222 0
M  V30 4832 C 438.003 2.87495 -5.40382 0
M  V30 4833 N 437.14 4.02749 -5.75098 0
M  V30 4834 H 441.98 0.547973 -2.92919 0
M  V30 4835 H 439.517 0.258917 -1.44803 0
M  V30 4836 H 441.475 3.02729 -2.87073 0
M  V30 4837 H 440.105 2.69325 -1.77943 0
M  V30 4838 H 439.157 1.13482 -3.63078 0
M  V30 4839 H 440.469 1.69601 -4.69081 0
M  V30 4840 H 439.623 4.04561 -4.52123 0
M  V30 4841 H 438.362 3.52877 -3.36644 0
M  V30 4842 H 437.367 2.02367 -5.11202 0
M  V30 4843 H 438.592 2.56889 -6.28637 0
M  V30 4844 H 436.538 4.34494 -4.91478 0
M  V30 4845 H 436.455 3.77566 -6.54966 0
M  V30 4846 H 437.723 4.87068 -6.08592 0
M  V30 4847 N 441.952 1.55251 0.271103 0
M  V30 4848 C 443.182 1.79713 1.01916 0
M  V30 4849 C 443.59 0.571613 1.80359 0
M  V30 4850 O 442.933 -0.468853 1.77616 0
M  V30 4851 C 442.995 2.97138 2.02359 0
M  V30 4852 C 442.659 4.34104 1.42837 0
M  V30 4853 C 443.656 5.13019 0.843071 0
M  V30 4854 C 441.341 4.80765 1.455 0
M  V30 4855 C 443.335 6.36729 0.292333 0
M  V30 4856 C 441.022 6.0443 0.900402 0
M  V30 4857 C 442.02 6.8225 0.32007 0
M  V30 4858 O 441.708 8.03582 -0.226031 0
M  V30 4859 H 441.44 0.602431 0.306681 0
M  V30 4860 H 443.994 2.03097 0.306701 0
M  V30 4861 H 442.224 2.6945 2.77369 0
M  V30 4862 H 443.913 3.08907 2.63309 0
M  V30 4863 H 444.679 4.781 0.815178 0
M  V30 4864 H 440.558 4.20202 1.89609 0
M  V30 4865 H 444.102 6.97414 -0.161274 0
M  V30 4866 H 439.999 6.3883 0.925541 0
M  V30 4867 H 440.767 8.18418 -0.115572 0
M  V30 4868 N 443.43 -0.535701 1.48216 0
M  V30 4869 C 444.36 -1.65014 1.65204 0
M  V30 4870 C 445.341 -1.62554 0.501011 0
M  V30 4871 O 446.526 -1.7984 0.732886 0
M  V30 4872 C 443.656 -3.03616 1.68626 0
M  V30 4873 C 442.61 -3.20932 2.83172 0
M  V30 4874 C 441.936 -4.60537 2.71679 0
M  V30 4875 C 443.236 -3.04249 4.24535 0
M  V30 4876 H 444.93 -1.51053 2.58502 0
M  V30 4877 H 442.476 -0.725262 1.24402 0
M  V30 4878 H 444.429 -3.81446 1.79099 0
M  V30 4879 H 443.153 -3.18587 0.719026 0
M  V30 4880 H 441.812 -2.45517 2.72244 0
M  V30 4881 H 441.46 -4.72336 1.72937 0
M  V30 4882 H 441.16 -4.73069 3.48538 0
M  V30 4883 H 442.684 -5.40475 2.84112 0
M  V30 4884 H 444.098 -3.71877 4.36326 0
M  V30 4885 H 442.495 -3.28278 5.02348 0
M  V30 4886 H 443.565 -2.00739 4.41397 0
M  V30 4887 N 444.908 -1.36708 -0.784132 0
M  V30 4888 C 445.841 -1.25827 -1.90375 0
M  V30 4889 C 446.819 -0.141331 -1.61985 0
M  V30 4890 O 448.003 -0.313389 -1.85877 0
M  V30 4891 C 445.13 -0.942621 -3.25319 0
M  V30 4892 C 444.176 -2.07474 -3.72635 0
M  V30 4893 S 445.009 -3.69317 -3.8777 0
M  V30 4894 C 446.165 -3.39876 -5.25581 0
M  V30 4895 H 446.398 -2.20593 -1.99314 0
M  V30 4896 H 443.931 -1.22186 -0.943926 0
M  V30 4897 H 445.889 -0.767321 -4.03265 0
M  V30 4898 H 444.55 -0.0126566 -3.14097 0
M  V30 4899 H 443.743 -1.80858 -4.70432 0
M  V30 4900 H 443.345 -2.20953 -3.01754 0
M  V30 4901 H 445.637 -2.94097 -6.10339 0
M  V30 4902 H 446.58 -4.36956 -5.57203 0
M  V30 4903 H 446.988 -2.75098 -4.92931 0
M  V30 4904 N 446.386 1.0089 -1.21074 0
M  V30 4905 C 447.633 1.74607 -1.0256 0
M  V30 4906 C 447.961 1.89426 0.44136 0
M  V30 4907 O 447.216 1.42266 1.34384 0
M  V30 4908 C 447.515 3.16335 -1.66334 0
M  V30 4909 C 447.181 3.21474 -3.16173 0
M  V30 4910 C 445.843 3.22583 -3.57062 0
M  V30 4911 C 448.195 3.19025 -4.12156 0
M  V30 4912 C 445.523 3.18925 -4.92446 0
M  V30 4913 C 447.875 3.16909 -5.47496 0
M  V30 4914 C 446.539 3.16326 -5.87787 0
M  V30 4915 H 445.809 0.638933 -0.375294 0
M  V30 4916 H 448.456 1.18274 -1.50611 0
M  V30 4917 H 446.761 3.75876 -1.10566 0
M  V30 4918 H 448.458 3.72083 -1.49516 0
M  V30 4919 H 445.048 3.2135 -2.83605 0
M  V30 4920 H 449.232 3.17332 -3.81595 0
M  V30 4921 H 444.488 3.16809 -5.22917 0
M  V30 4922 H 448.662 3.13968 -6.21609 0
M  V30 4923 H 446.289 3.13246 -6.92662 0
M  V30 4924 N 447.864 1.01787 1.20321 0
M  V30 4925 C 449.092 0.727194 1.937 0
M  V30 4926 C 449.507 -0.712305 1.74848 0
M  V30 4927 O 448.864 -1.48327 1.06327 0
M  V30 4928 C 448.915 1.05497 3.45764 0
M  V30 4929 O 448.636 2.43794 3.64 0
M  V30 4930 C 450.137 0.785534 4.36285 0
M  V30 4931 H 447.357 0.266939 0.615617 0
M  V30 4932 H 449.901 1.35939 1.52777 0
M  V30 4933 H 448.056 0.468158 3.84561 0
M  V30 4934 H 448.47 2.55656 4.57974 0
M  V30 4935 H 449.944 1.06495 5.4163 0
M  V30 4936 H 450.421 -0.280273 4.38305 0
M  V30 4937 H 451.027 1.35456 4.03152 0
M  V30 4938 N 449.342 -1.36122 0.79427 0
M  V30 4939 C 450.275 -2.27759 0.141845 0
M  V30 4940 C 451.253 -1.47471 -0.684921 0
M  V30 4941 O 452.437 -1.76759 -0.654857 0
M  V30 4942 C 449.564 -3.29008 -0.804446 0
M  V30 4943 C 448.61 -4.26459 -0.0588617 0
M  V30 4944 S 449.443 -5.20253 1.26873 0
M  V30 4945 C 450.599 -6.25048 0.326562 0
M  V30 4946 H 450.832 -2.82746 0.918818 0
M  V30 4947 H 448.365 -1.42736 0.588722 0
M  V30 4948 H 450.323 -3.87842 -1.34495 0
M  V30 4949 H 448.984 -2.72924 -1.5547 0
M  V30 4950 H 448.177 -4.97973 -0.777087 0
M  V30 4951 H 447.779 -3.71731 0.411309 0
M  V30 4952 H 450.071 -6.75705 -0.492795 0
M  V30 4953 H 451.014 -7.00852 1.01053 0
M  V30 4954 H 451.422 -5.64454 -0.0722627 0
M  V30 4955 N 450.82 -0.546701 -1.47814 0
M  V30 4956 C 452.066 -0.0187684 -2.02791 0
M  V30 4957 C 452.399 1.32338 -1.42128 0
M  V30 4958 O 451.674 1.85867 -0.573023 0
M  V30 4959 C 451.957 0.0854985 -3.59998 0
M  V30 4960 C 451.81 -1.283 -4.31114 0
M  V30 4961 C 453.129 0.80412 -4.32691 0
M  V30 4962 H 450.248 -0.0082946 -0.736953 0
M  V30 4963 H 452.89 -0.706962 -1.76358 0
M  V30 4964 H 451.04 0.671609 -3.82651 0
M  V30 4965 H 452.712 -1.91151 -4.19832 0
M  V30 4966 H 450.955 -1.86049 -3.91878 0
M  V30 4967 H 451.626 -1.16287 -5.39612 0
M  V30 4968 H 454.102 0.306576 -4.14969 0
M  V30 4969 H 452.978 0.846011 -5.42341 0
M  V30 4970 H 453.239 1.85802 -4.01161 0
M  V30 4971 N 452.299 1.55045 -0.282633 0
M  V30 4972 C 453.229 2.2579 0.595066 0
M  V30 4973 C 454.21 1.25074 1.15284 0
M  V30 4974 O 455.395 1.5381 1.18559 0
M  V30 4975 C 452.525 2.98472 1.77572 0
M  V30 4976 C 451.479 4.0618 1.34914 0
M  V30 4977 C 450.805 4.66477 2.6135 0
M  V30 4978 C 452.105 5.1996 0.493821 0
M  V30 4979 H 453.799 2.994 0.00505653 0
M  V30 4980 H 451.345 1.44 0.000992001 0
M  V30 4981 H 453.298 3.46677 2.39568 0
M  V30 4982 H 452.022 2.2241 2.39168 0
M  V30 4983 H 450.681 3.58797 0.752338 0
M  V30 4984 H 450.329 3.87074 3.2122 0
M  V30 4985 H 450.029 5.39207 2.33516 0
M  V30 4986 H 451.553 5.17435 3.24181 0
M  V30 4987 H 452.967 5.64172 1.01898 0
M  V30 4988 H 451.364 5.99299 0.310047 0
M  V30 4989 H 452.434 4.82462 -0.485593 0
M  V30 4990 N 453.777 0.010035 1.57597 0
M  V30 4991 C 455.023 -0.673697 1.91283 0
M  V30 4992 C 455.356 -1.72863 0.884979 0
M  V30 4993 O 454.631 -1.94268 -0.0949487 0
M  V30 4994 C 454.914 -1.30766 3.35518 0
M  V30 4995 C 454.767 -0.263578 4.49027 0
M  V30 4996 C 456.086 -2.23105 3.79358 0
M  V30 4997 H 453.205 -0.243439 0.695634 0
M  V30 4998 H 455.847 0.0633864 1.89894 0
M  V30 4999 H 453.997 -1.93588 3.36832 0
M  V30 5000 H 455.669 0.365738 4.59848 0
M  V30 5001 H 453.912 0.413077 4.31829 0
M  V30 5002 H 454.583 -0.746398 5.4693 0
M  V30 5003 H 457.059 -1.70289 3.79659 0
M  V30 5004 H 455.935 -2.64424 4.81011 0
M  V30 5005 H 456.196 -3.11433 3.13787 0
M  V30 5006 N 455.255 -1.55392 -0.262866 0
M  V30 5007 C 456.483 -1.80513 -1.01108 0
M  V30 5008 C 456.898 -0.583533 -1.79556 0
M  V30 5009 O 456.255 0.447585 -1.76926 0
M  V30 5010 C 456.306 -3.03648 -1.96164 0
M  V30 5011 O 456.027 -4.2109 -1.20893 0
M  V30 5012 C 457.528 -3.41448 -2.82715 0
M  V30 5013 H 454.748 -0.601079 -0.298236 0
M  V30 5014 H 457.292 -2.02425 -0.290582 0
M  V30 5015 H 455.447 -2.83832 -2.63663 0
M  V30 5016 H 455.861 -4.90771 -1.85051 0
M  V30 5017 H 457.335 -4.30751 -3.45192 0
M  V30 5018 H 457.812 -2.61308 -3.53008 0
M  V30 5019 H 458.418 -3.63559 -2.20693 0
M  V30 5020 N 456.733 0.527833 -1.48498 0
M  V30 5021 C 457.98 1.28354 -1.56625 0
M  V30 5022 C 458.308 1.93 -0.241096 0
M  V30 5023 O 457.563 1.79967 0.768798 0
M  V30 5024 C 457.862 2.39275 -2.65485 0
M  V30 5025 C 457.528 1.92268 -4.07853 0
M  V30 5026 C 456.19 1.79166 -4.46602 0
M  V30 5027 C 458.542 1.56771 -4.97064 0
M  V30 5028 C 455.87 1.28905 -5.72364 0
M  V30 5029 C 458.222 1.07972 -6.23318 0
M  V30 5030 C 456.886 0.934887 -6.60921 0
M  V30 5031 H 456.156 0.469682 -0.573131 0
M  V30 5032 H 458.803 0.588781 -1.82224 0
M  V30 5033 H 457.108 3.1443 -2.33754 0
M  V30 5034 H 458.805 2.974 -2.68988 0
M  V30 5035 H 455.395 2.03417 -3.77252 0
M  V30 5036 H 459.579 1.65753 -4.67803 0
M  V30 5037 H 454.835 1.16381 -6.00221 0
M  V30 5038 H 459.009 0.795775 -6.91838 0
M  V30 5039 H 456.636 0.543231 -7.58257 0
M  V30 5040 N 458.211 1.37122 0.776871 0
M  V30 5041 C 459.436 1.354 1.57104 0
M  V30 5042 C 459.861 -0.0595562 1.88006 0
M  V30 5043 O 459.219 -1.03514 1.48844 0
M  V30 5044 C 459.267 2.19472 2.8612 0
M  V30 5045 O 458.371 1.59582 3.80273 0
M  V30 5046 H 457.712 0.462869 0.476076 0
M  V30 5047 H 460.242 1.80577 0.961932 0
M  V30 5048 H 460.252 2.32502 3.35271 0
M  V30 5049 H 458.927 3.22222 2.62956 0
M  V30 5050 H 457.504 1.55564 3.38902 0
M  V30 5051 N 459.689 -1.00246 1.21608 0
M  V30 5052 C 460.938 -1.73476 1.02902 0
M  V30 5053 C 461.251 -1.90643 -0.437561 0
M  V30 5054 O 462.457 -2.61105 -0.74407 0
M  V30 5055 C 460.913 -3.12079 1.79261 0
M  V30 5056 C 460.521 -3.02877 3.30106 0
M  V30 5057 C 462.265 -3.89421 1.68972 0
M  V30 5058 C 460.172 -4.36575 3.98944 0
M  V30 5059 H 459.102 -0.650408 0.381425 0
M  V30 5060 H 461.753 -1.11985 1.45367 0
M  V30 5061 H 460.135 -3.74196 1.2959 0
M  V30 5062 H 461.309 -2.49983 3.87098 0
M  V30 5063 H 459.624 -2.39022 3.40965 0
M  V30 5064 H 462.221 -4.88362 2.17731 0
M  V30 5065 H 462.564 -4.1122 0.648397 0
M  V30 5066 H 463.097 -3.33963 2.16133 0
M  V30 5067 H 459.836 -4.19978 5.03288 0
M  V30 5068 H 459.356 -4.8942 3.4674 0
M  V30 5069 H 461.035 -5.05364 4.04 0
M  V30 5070 N 461.167 -1.02423 -1.1978 0
M  V30 5071 C 462.413 -0.719051 -1.89625 0
M  V30 5072 C 462.746 0.750083 -1.7913 0
M  V30 5073 O 462.021 1.54574 -1.18056 0
M  V30 5074 C 462.304 -1.16499 -3.40735 0
M  V30 5075 C 462.157 -2.695 -3.60125 0
M  V30 5076 C 463.476 -0.742166 -4.33797 0
M  V30 5077 H 460.595 -0.26269 -0.688595 0
M  V30 5078 H 463.237 -1.27333 -1.41018 0
M  V30 5079 H 461.387 -0.69341 -3.82262 0
M  V30 5080 H 463.059 -3.24569 -3.278 0
M  V30 5081 H 461.302 -3.10113 -3.03336 0
M  V30 5082 H 461.973 -2.95757 -4.66081 0
M  V30 5083 H 464.449 -1.1477 -3.99959 0
M  V30 5084 H 463.325 -1.08213 -5.38127 0
M  V30 5085 H 463.586 0.355747 -4.40666 0
M  V30 5086 N 462.645 1.35699 -0.801477 0
M  V30 5087 C 463.873 2.03157 -0.391768 0
M  V30 5088 C 464.288 1.60412 0.995668 0
M  V30 5089 O 463.645 0.799228 1.64069 0
M  V30 5090 C 463.696 3.58566 -0.459671 0
M  V30 5091 O 463.417 3.99756 -1.7924 0
M  V30 5092 C 464.918 4.4328 -0.0421205 0
M  V30 5093 H 462.138 0.651688 -0.159825 0
M  V30 5094 H 464.682 1.73426 -1.08368 0
M  V30 5095 H 462.837 3.86963 0.183939 0
M  V30 5096 H 463.251 4.94387 -1.75162 0
M  V30 5097 H 464.725 5.51821 -0.140754 0
M  V30 5098 H 465.202 4.27383 1.01196 0
M  V30 5099 H 465.808 4.20168 -0.658687 0
M  V30 5100 N 464.123 0.554532 1.47522 0
M  V30 5101 C 465.348 0.0322661 2.07375 0
M  V30 5102 C 465.773 -1.25079 1.40488 0
M  V30 5103 O 465.131 -1.74859 0.47896 0
M  V30 5104 C 465.179 -0.149397 3.6029 0
M  V30 5105 O 464.283 -1.21259 3.9417 0
M  V30 5106 H 463.624 0.0501228 0.662106 0
M  V30 5107 H 466.154 0.769452 1.8958 0
M  V30 5108 H 466.164 -0.364437 4.06369 0
M  V30 5109 H 464.839 0.787743 4.08372 0
M  V30 5110 H 463.416 -0.97825 3.5984 0
M  V30 5111 N 465.601 -1.54893 0.290851 0
M  V30 5112 C 466.847 -2.0023 -0.321867 0
M  V30 5113 C 467.18 -1.179 -1.54316 0
M  V30 5114 O 466.455 -0.25293 -1.92848 0
M  V30 5115 C 466.738 -3.53456 -0.688515 0
M  V30 5116 C 466.591 -4.46532 0.541209 0
M  V30 5117 C 467.91 -4.13057 -1.51895 0
M  V30 5118 H 465.029 -0.727891 -0.115515 0
M  V30 5119 H 467.671 -1.85722 0.400931 0
M  V30 5120 H 465.821 -3.6595 -1.30433 0
M  V30 5121 H 467.493 -4.4596 1.17973 0
M  V30 5122 H 465.736 -4.17545 1.17636 0
M  V30 5123 H 466.407 -5.51475 0.240675 0
M  V30 5124 H 468.883 -4.03937 -0.99872 0
M  V30 5125 H 467.759 -5.20448 -1.74429 0
M  V30 5126 H 468.02 -3.64284 -2.50498 0
M  V30 5127 N 467.08 -0.0183926 -1.57589 0
M  V30 5128 C 468.32 0.666846 -1.93216 0
M  V30 5129 C 468.684 1.69905 -0.894215 0
M  V30 5130 O 469.885 2.436 -1.13633 0
M  V30 5131 C 468.156 1.27684 -3.33814 0
M  V30 5132 S 469.715 1.98464 -3.91353 0
M  V30 5133 H 466.533 0.219826 -0.676164 0
M  V30 5134 H 469.135 -0.0794893 -1.95338 0
M  V30 5135 H 467.839 0.513006 -4.07181 0
M  V30 5136 H 467.37 2.06071 -3.3511 0
M  V30 5137 H 469.385 3.26189 -3.73918 0
M  V30 5138 N 468.558 1.5553 0.254621 0
M  V30 5139 C 469.804 1.77262 0.985193 0
M  V30 5140 C 470.137 0.582286 1.85265 0
M  V30 5141 O 469.412 -0.419666 1.89919 0
M  V30 5142 C 469.695 3.0881 1.85225 0
M  V30 5143 C 469.548 4.38233 1.0135 0
M  V30 5144 C 470.867 3.3653 2.83612 0
M  V30 5145 H 467.986 0.644906 0.356742 0
M  V30 5146 H 470.628 1.88264 0.256236 0
M  V30 5147 H 468.778 2.99562 2.47376 0
M  V30 5148 H 470.45 4.59463 0.411269 0
M  V30 5149 H 468.693 4.32636 0.317574 0
M  V30 5150 H 469.364 5.26644 1.65379 0
M  V30 5151 H 471.84 3.45691 2.31596 0
M  V30 5152 H 470.716 4.29805 3.41407 0
M  V30 5153 H 470.977 2.57064 3.59681 0
M  V30 5154 N 470.036 -0.519951 1.48776 0
M  V30 5155 C 470.966 -1.63253 1.66945 0
M  V30 5156 C 471.947 -1.62014 0.518224 0
M  V30 5157 O 473.132 -1.79053 0.751919 0
M  V30 5158 C 470.262 -3.0181 1.71836 0
M  V30 5159 C 469.216 -3.17911 2.8656 0
M  V30 5160 C 468.542 -4.5763 2.76548 0
M  V30 5161 C 469.842 -2.99729 4.27738 0
M  V30 5162 H 471.536 -1.48302 2.6009 0
M  V30 5163 H 469.082 -0.712026 1.25165 0
M  V30 5164 H 471.035 -3.79525 1.83135 0
M  V30 5165 H 469.759 -3.17806 0.752775 0
M  V30 5166 H 468.418 -2.42616 2.74833 0
M  V30 5167 H 468.066 -4.70476 1.77937 0
M  V30 5168 H 467.766 -4.69346 3.53536 0
M  V30 5169 H 469.29 -5.37431 2.89828 0
M  V30 5170 H 470.704 -3.67228 4.40246 0
M  V30 5171 H 469.101 -3.22932 5.05801 0
M  V30 5172 H 470.171 -1.96047 4.43502 0
M  V30 5173 N 471.514 -1.37532 -0.769588 0
M  V30 5174 C 472.462 -1.33561 -1.90432 0
M  V30 5175 C 473.456 -0.224027 -1.67912 0
M  V30 5176 O 474.662 -0.392174 -1.75676 0
M  V30 5177 H 471.037 -0.416279 -0.626271 0
M  V30 5178 H 473.008 -2.29348 -1.90899 0
M  V30 5179 C 471.757 -1.16162 -3.27722 0
M  V30 5180 H 471.08 -2.00951 -3.45628 0
M  V30 5181 H 472.52 -1.17434 -4.07413 0
M  V30 5182 C 470.979 0.132583 -3.36639 0
M  V30 5183 O 471.509 1.11539 -3.85904 0
M  V30 5184 N 469.715 0.184013 -2.90017 0
M  V30 5185 H 469.262 -0.616415 -2.50116 0
M  V30 5186 H 469.22 1.04956 -2.96364 0
M  V30 5187 N 472.992 0.995999 -1.22138 0
M  V30 5188 C 474.238 1.73767 -1.04561 0
M  V30 5189 C 474.571 1.89633 0.418698 0
M  V30 5190 O 473.846 1.43723 1.3105 0
M  V30 5191 C 474.129 3.14505 -1.75382 0
M  V30 5192 C 473.982 3.06306 -3.29388 0
M  V30 5193 C 475.301 4.13615 -1.50369 0
M  V30 5194 H 472.42 0.630728 -0.38125 0
M  V30 5195 H 475.062 1.16057 -1.50435 0
M  V30 5196 H 473.212 3.63775 -1.36383 0
M  V30 5197 H 474.884 2.64681 -3.77812 0
M  V30 5198 H 473.127 2.43186 -3.59226 0
M  V30 5199 H 473.798 4.05884 -3.74116 0
M  V30 5200 H 476.274 3.73089 -1.84239 0
M  V30 5201 H 475.15 5.10212 -2.02421 0
M  V30 5202 H 475.411 4.39949 -0.435611 0
M  V30 5203 N 474.47 1.03057 1.19235 0
M  V30 5204 C 475.42 0.583386 2.2041 0
M  V30 5205 C 476.404 -0.368776 1.56617 0
M  V30 5206 O 477.596 -0.189471 1.75983 0
M  V30 5207 C 474.725 -0.0626534 3.43243 0
M  V30 5208 C 473.811 0.91205 4.14177 0
M  V30 5209 N 474.202 2.07514 4.61272 0
M  V30 5210 C 472.5 0.735859 4.39888 0
M  V30 5211 C 473.201 2.69003 5.15764 0
M  V30 5212 N 472.177 1.96954 5.06666 0
M  V30 5213 H 475.979 1.46988 2.54503 0
M  V30 5214 H 473.493 0.897785 1.35328 0
M  V30 5215 H 475.49 -0.400653 4.1497 0
M  V30 5216 H 474.15 -0.944813 3.1065 0
M  V30 5217 H 475.161 2.45448 4.56043 0
M  V30 5218 H 471.838 -0.0970656 4.17387 0
M  V30 5219 H 473.228 3.67514 5.6248 0
M  V30 5220 N 475.948 -1.35272 0.808662 0
M  V30 5221 C 476.898 -2.27181 0.193124 0
M  V30 5222 C 477.882 -1.47871 -0.634265 0
M  V30 5223 O 479.074 -1.70048 -0.491182 0
M  V30 5224 C 476.203 -3.36979 -0.655751 0
M  V30 5225 C 475.289 -4.23712 0.181481 0
M  V30 5226 N 475.68 -4.90225 1.24551 0
M  V30 5227 C 473.978 -4.45985 -0.0365493 0
M  V30 5228 C 474.679 -5.54537 1.75682 0
M  V30 5229 N 473.655 -5.33107 1.06294 0
M  V30 5230 H 477.457 -2.76101 1.00724 0
M  V30 5231 H 474.971 -1.48823 0.650029 0
M  V30 5232 H 476.968 -4.01774 -1.11279 0
M  V30 5233 H 475.628 -2.89611 -1.46819 0
M  V30 5234 H 476.639 -4.91641 1.62818 0
M  V30 5235 H 473.316 -4.09409 -0.817964 0
M  V30 5236 H 474.706 -6.17597 2.64621 0
M  V30 5237 N 477.426 -0.562348 -1.47226 0
M  V30 5238 C 478.842 -0.222492 -1.58042 0
M  V30 5239 C 479.042 1.27505 -1.56028 0
M  V30 5240 O 478.098 2.05555 -1.46641 0
M  V30 5241 C 479.411 -0.853694 -2.88327 0
M  V30 5242 C 480.959 -0.825397 -3.01921 0
M  V30 5243 C 481.434 -1.43576 -4.34914 0
M  V30 5244 N 482.925 -1.39918 -4.41562 0
M  V30 5245 C 483.66 -1.84103 -5.43041 0
M  V30 5246 N 483.156 -2.36167 -6.51304 0
M  V30 5247 N 484.949 -1.75142 -5.34118 0
M  V30 5248 H 477.1 -1.53525 -1.46778 0
M  V30 5249 H 479.363 -0.640527 -0.698877 0
M  V30 5250 H 479.069 -1.90635 -2.95552 0
M  V30 5251 H 478.943 -0.34977 -3.75575 0
M  V30 5252 H 481.33 0.218583 -2.94289 0
M  V30 5253 H 481.411 -1.36713 -2.16202 0
M  V30 5254 H 481.055 -2.47884 -4.43301 0
M  V30 5255 H 480.985 -0.869427 -5.19373 0
M  V30 5256 H 483.476 -1.0184 -3.63919 0
M  V30 5257 H 483.789 -2.67793 -7.24919 0
M  V30 5258 H 482.134 -2.40181 -6.52179 0
M  V30 5259 H 485.325 -1.34241 -4.48439 0
M  V30 5260 H 485.498 -2.09895 -6.13065 0
M  V30 5261 N 478.904 1.54736 -0.299062 0
M  V30 5262 C 480.129 2.04975 0.316254 0
M  V30 5263 C 480.554 1.17501 1.46885 0
M  V30 5264 O 479.912 0.178678 1.80417 0
M  V30 5265 C 479.96 3.52672 0.751997 0
M  V30 5266 O 479.064 3.68226 1.85697 0
M  V30 5267 H 478.405 0.661126 0.0617175 0
M  V30 5268 H 480.935 1.99805 -0.440341 0
M  V30 5269 H 480.945 3.94488 1.04133 0
M  V30 5270 H 479.62 4.158 -0.0911482 0
M  V30 5271 H 478.197 3.38316 1.56834 0
M  V30 5272 N 480.382 0.0267497 1.57577 0
M  V30 5273 C 481.793 -0.512413 1.79531 0
M  V30 5274 C 482.144 -1.72391 0.936791 0
M  V30 5275 O 481.269 -2.15903 0.146543 0
M  V30 5276 C 481.864 -0.936378 3.25603 0
M  V30 5277 C 480.423 -1.42067 3.4856 0
M  V30 5278 C 479.57 -0.384278 2.74624 0
M  V30 5279 H 482.521 0.252797 1.56674 0
M  V30 5280 H 482.542 -1.80088 3.35184 0
M  V30 5281 H 482.054 -0.0544332 3.88062 0
M  V30 5282 H 480.155 -2.32262 2.9135 0
M  V30 5283 H 480.268 -1.42968 4.57271 0
M  V30 5284 H 478.632 -0.851855 2.40032 0
M  V30 5285 H 479.415 0.489159 3.39797 0
M  V30 5286 N 481.861 -1.55662 -0.24637 0
M  V30 5287 C 483.089 -1.81575 -0.991876 0
M  V30 5288 C 483.504 -0.602545 -1.78927 0
M  V30 5289 O 482.861 0.428795 -1.77391 0
M  V30 5290 C 482.912 -3.05711 -1.92933 0
M  V30 5291 O 482.633 -4.22348 -1.1642 0
M  V30 5292 C 484.134 -3.44428 -2.79078 0
M  V30 5293 H 481.354 -0.604209 -0.291844 0
M  V30 5294 H 483.898 -2.02722 -0.269095 0
M  V30 5295 H 482.053 -2.86612 -2.60638 0
M  V30 5296 H 482.467 -4.92706 -1.79835 0
M  V30 5297 H 483.941 -4.34388 -3.40603 0
M  V30 5298 H 484.418 -2.65037 -3.50217 0
M  V30 5299 H 485.024 -3.65879 -2.16824 0
M  V30 5300 N 483.339 0.512053 -1.4905 0
M  V30 5301 C 484.567 1.29116 -1.61669 0
M  V30 5302 C 484.982 1.86655 -0.283787 0
M  V30 5303 O 484.339 1.67293 0.729331 0
M  V30 5304 C 484.39 2.4293 -2.67707 0
M  V30 5305 O 484.111 1.87758 -3.95826 0
M  V30 5306 C 485.612 3.34476 -2.90931 0
M  V30 5307 H 482.832 0.392009 -0.544583 0
M  V30 5308 H 485.376 0.615881 -1.95006 0
M  V30 5309 H 483.531 3.06308 -2.37179 0
M  V30 5310 H 483.945 2.62393 -4.54148 0
M  V30 5311 H 485.419 4.10642 -3.68886 0
M  V30 5312 H 485.896 3.90801 -2.00427 0
M  V30 5313 H 486.502 2.76874 -3.22832 0
M  V30 5314 N 484.817 1.37938 0.762283 0
M  V30 5315 C 485.767 1.30976 1.86626 0
M  V30 5316 C 486.751 0.195714 1.59705 0
M  V30 5317 O 487.943 0.430937 1.71674 0
M  V30 5318 C 485.072 1.12847 3.24223 0
M  V30 5319 C 484.158 2.28836 3.57064 0
M  V30 5320 N 484.549 3.54256 3.61022 0
M  V30 5321 C 482.847 2.21198 3.87282 0
M  V30 5322 C 483.548 4.30798 3.90881 0
M  V30 5323 N 482.524 3.60049 4.07266 0
M  V30 5324 H 486.326 2.25946 1.87951 0
M  V30 5325 H 483.84 1.31046 0.959206 0
M  V30 5326 H 485.837 1.05943 4.03214 0
M  V30 5327 H 484.497 0.188024 3.24155 0
M  V30 5328 H 485.508 3.8804 3.42995 0
M  V30 5329 H 482.185 1.35264 3.94981 0
M  V30 5330 H 483.575 5.39386 4.00639 0
M  V30 5331 N 486.295 -0.989507 1.22664 0
M  V30 5332 C 487.523 -1.76496 1.07967 0
M  V30 5333 C 487.938 -1.85148 -0.369543 0
M  V30 5334 O 487.295 -1.32408 -1.25596 0
M  V30 5335 C 487.346 -3.19642 1.68853 0
M  V30 5336 O 487.067 -3.11453 3.08105 0
M  V30 5337 C 488.568 -4.13621 1.59475 0
M  V30 5338 H 485.788 -0.55418 0.378319 0
M  V30 5339 H 488.332 -1.24378 1.62328 0
M  V30 5340 H 486.487 -3.68816 1.18547 0
M  V30 5341 H 486.901 -4.01499 3.37489 0
M  V30 5342 H 488.375 -5.11801 2.06795 0
M  V30 5343 H 488.852 -4.35718 0.55191 0
M  V30 5344 H 489.458 -3.70346 2.09103 0
M  V30 5345 N 487.773 -1.03688 -1.18687 0
M  V30 5346 C 488.706 -0.569112 -2.2099 0
M  V30 5347 C 489.684 0.394315 -1.57746 0
M  V30 5348 O 490.868 0.309519 -1.85941 0
M  V30 5349 C 487.995 0.169104 -3.38278 0
M  V30 5350 C 487.041 -0.746989 -4.19908 0
M  V30 5351 S 487.874 -2.22773 -4.86963 0
M  V30 5352 C 489.03 -1.50025 -6.07654 0
M  V30 5353 H 489.263 -1.43589 -2.60326 0
M  V30 5354 H 486.796 -0.847507 -1.29061 0
M  V30 5355 H 488.754 0.588868 -4.06254 0
M  V30 5356 H 487.415 1.01172 -2.9736 0
M  V30 5357 H 486.608 -0.176626 -5.0369 0
M  V30 5358 H 486.21 -1.10543 -3.5729 0
M  V30 5359 H 488.502 -0.791217 -6.72864 0
M  V30 5360 H 489.445 -2.31498 -6.69189 0
M  V30 5361 H 489.853 -0.994245 -5.55675 0
M  V30 5362 N 489.251 1.34841 -0.815825 0
M  V30 5363 C 490.214 2.27959 -0.238185 0
M  V30 5364 C 491.214 1.49983 0.579816 0
M  V30 5365 O 492.404 1.69617 0.396953 0
M  V30 5366 C 489.536 3.34314 0.666876 0
M  V30 5367 H 490.729 2.80558 -1.05958 0
M  V30 5368 H 488.282 1.44852 -0.587156 0
M  V30 5369 H 489.017 2.86916 1.5116 0
M  V30 5370 H 488.802 3.92014 0.0819106 0
M  V30 5371 H 490.292 4.0379 1.06506 0
M  V30 5372 N 490.729 0.570148 1.46925 0
M  V30 5373 C 492.14 0.1402 1.86173 0
M  V30 5374 C 492.491 -1.29347 1.47526 0
M  V30 5375 O 491.616 -1.97508 0.884292 0
M  V30 5376 C 492.211 0.247661 3.37894 0
M  V30 5377 C 490.77 -0.127332 3.76185 0
M  V30 5378 C 489.917 0.589349 2.70965 0
M  V30 5379 H 492.868 0.779117 1.38259 0
M  V30 5380 H 492.889 -0.530341 3.76786 0
M  V30 5381 H 492.401 1.29121 3.65991 0
M  V30 5382 H 490.502 -1.17149 3.53704 0
M  V30 5383 H 490.615 0.240238 4.78497 0
M  V30 5384 H 488.979 0.0309824 2.54681 0
M  V30 5385 H 489.762 1.6343 3.01903 0
M  V30 5386 N 492.207 -1.54576 0.307264 0
M  V30 5387 C 493.453 -2.01272 -0.293453 0
M  V30 5388 C 493.808 -1.19178 -1.51044 0
M  V30 5389 O 493.101 -0.261704 -1.89804 0
M  V30 5390 C 493.295 -3.50572 -0.695253 0
M  V30 5391 C 493.124 -4.47118 0.481249 0
M  V30 5392 C 491.894 -4.958 0.97524 0
M  V30 5393 C 494.092 -4.96853 1.32823 0
M  V30 5394 N 492.074 -5.76212 2.11785 0
M  V30 5395 C 493.445 -5.75028 2.31824 0
M  V30 5396 C 495.5 -4.79026 1.35788 0
M  V30 5397 C 494.203 -6.37276 3.33574 0
M  V30 5398 C 496.229 -5.42097 2.364 0
M  V30 5399 C 495.591 -6.2011 3.34129 0
M  V30 5400 H 491.69 -0.778709 -0.0716705 0
M  V30 5401 H 494.274 -1.89695 0.438602 0
M  V30 5402 H 492.445 -3.62427 -1.39647 0
M  V30 5403 H 494.177 -3.84056 -1.27604 0
M  V30 5404 H 490.932 -4.70405 0.549184 0
M  V30 5405 H 491.356 -6.21101 2.69375 0
M  V30 5406 H 495.998 -4.18288 0.616021 0
M  V30 5407 H 493.716 -6.97144 4.08676 0
M  V30 5408 H 497.302 -5.30229 2.39475 0
M  V30 5409 H 496.182 -6.68049 4.10707 0
M  V30 5410 N 493.685 -0.035106 -1.57561 0
M  V30 5411 C 494.931 0.64318 -1.92331 0
M  V30 5412 C 495.264 1.71434 -0.912368 0
M  V30 5413 O 494.539 1.94395 0.0640303 0
M  V30 5414 C 494.822 1.25411 -3.37556 0
M  V30 5415 C 494.675 0.192109 -4.4939 0
M  V30 5416 C 495.994 2.17041 -3.82859 0
M  V30 5417 H 493.113 0.232341 -0.699419 0
M  V30 5418 H 495.755 -0.0935889 -1.89769 0
M  V30 5419 H 493.905 1.88205 -3.39869 0
M  V30 5420 H 495.577 -0.438849 -4.59208 0
M  V30 5421 H 493.82 -0.481725 -4.31117 0
M  V30 5422 H 494.491 0.659292 -5.48049 0
M  V30 5423 H 496.967 1.64228 -3.8232 0
M  V30 5424 H 495.843 2.56738 -4.85157 0
M  V30 5425 H 496.104 3.06401 -3.18702 0
M  V30 5426 N 495.163 1.55791 0.238111 0
M  V30 5427 C 496.11 1.9105 1.29493 0
M  V30 5428 C 497.08 0.765733 1.47397 0
M  V30 5429 O 498.265 1.02017 1.61236 0
M  V30 5430 C 495.405 2.21826 2.64362 0
M  V30 5431 C 494.518 3.49153 2.54394 0
M  V30 5432 C 493.653 3.69455 3.81676 0
M  V30 5433 C 492.692 4.90353 3.66361 0
M  V30 5434 N 491.829 5.07131 4.85554 0
M  V30 5435 H 496.669 2.81172 0.987233 0
M  V30 5436 H 494.206 1.39179 0.476203 0
M  V30 5437 H 496.164 2.37675 3.4288 0
M  V30 5438 H 494.794 1.34897 2.93262 0
M  V30 5439 H 493.846 3.41587 1.67399 0
M  V30 5440 H 495.158 4.37818 2.38991 0
M  V30 5441 H 494.312 3.85311 4.68636 0
M  V30 5442 H 493.051 2.7904 3.99985 0
M  V30 5443 H 492.056 4.74464 2.77784 0
M  V30 5444 H 493.281 5.82237 3.49538 0
M  V30 5445 H 491.227 4.19654 5.04209 0
M  V30 5446 H 491.144 5.89899 4.72816 0
M  V30 5447 H 492.412 5.27407 5.73988 0
M  V30 5448 N 496.642 -0.504142 1.49319 0
M  V30 5449 C 497.888 -1.26033 1.58882 0
M  V30 5450 C 498.221 -1.92268 0.273274 0
M  V30 5451 O 497.496 -1.80567 -0.72291 0
M  V30 5452 C 497.779 -2.32976 2.7458 0
M  V30 5453 C 497.632 -1.71263 4.1592 0
M  V30 5454 C 498.951 -3.34561 2.85932 0
M  V30 5455 H 496.07 -0.456863 0.578312 0
M  V30 5456 H 498.712 -0.558965 1.81592 0
M  V30 5457 H 496.862 -2.92796 2.55348 0
M  V30 5458 H 498.534 -1.15294 4.4666 0
M  V30 5459 H 496.777 -1.01686 4.21714 0
M  V30 5460 H 497.448 -2.48816 4.92742 0
M  V30 5461 H 499.924 -2.84727 3.0343 0
M  V30 5462 H 498.8 -4.06754 3.68568 0
M  V30 5463 H 499.061 -3.96695 1.95154 0
M  V30 5464 N 498.12 -1.38341 -0.754957 0
M  V30 5465 C 499.366 -1.34672 -1.51628 0
M  V30 5466 C 499.699 0.0636036 -1.94096 0
M  V30 5467 O 498.974 1.0245 -1.6533 0
M  V30 5468 C 499.257 -2.30116 -2.76981 0
M  V30 5469 C 499.11 -3.80003 -2.4066 0
M  V30 5470 C 500.429 -2.23715 -3.78998 0
M  V30 5471 H 497.548 -0.490517 -0.550056 0
M  V30 5472 H 500.19 -1.69178 -0.864807 0
M  V30 5473 H 498.34 -2.00821 -3.3257 0
M  V30 5474 H 500.012 -4.19966 -1.90856 0
M  V30 5475 H 498.255 -3.97751 -1.73137 0
M  V30 5476 H 498.926 -4.42244 -3.30339 0
M  V30 5477 H 501.402 -2.49574 -3.32945 0
M  V30 5478 H 500.278 -2.9261 -4.64403 0
M  V30 5479 H 500.539 -1.23554 -4.24484 0
M  V30 5480 N 499.598 0.982988 -1.23187 0
M  V30 5481 C 500.845 1.72392 -1.06241 0
M  V30 5482 C 501.173 1.9032 0.40108 0
M  V30 5483 O 500.428 1.45084 1.31336 0
M  V30 5484 C 500.727 3.12736 -1.73006 0
M  V30 5485 C 500.393 3.14695 -3.22921 0
M  V30 5486 C 499.055 3.14937 -3.63824 0
M  V30 5487 C 501.407 3.10211 -4.1883 0
M  V30 5488 C 498.735 3.08408 -4.99101 0
M  V30 5489 C 501.087 3.05224 -5.54095 0
M  V30 5490 C 499.751 3.03787 -5.94365 0
M  V30 5491 H 499.021 0.630829 -0.388762 0
M  V30 5492 H 501.668 1.15053 -1.53085 0
M  V30 5493 H 499.973 3.73446 -1.18514 0
M  V30 5494 H 501.67 3.68828 -1.57374 0
M  V30 5495 H 498.26 3.15262 -2.90358 0
M  V30 5496 H 502.444 3.09166 -3.8824 0
M  V30 5497 H 497.7 3.05646 -5.29519 0
M  V30 5498 H 501.874 3.00712 -6.28128 0
M  V30 5499 H 499.501 2.98483 -6.99151 0
M  V30 5500 N 501.076 1.04316 1.18135 0
M  V30 5501 C 502.006 0.657299 2.24058 0
M  V30 5502 C 502.987 -0.340678 1.66654 0
M  V30 5503 O 504.172 -0.220223 1.92947 0
M  V30 5504 C 501.302 0.0220715 3.47293 0
M  V30 5505 C 500.256 0.943857 4.17463 0
M  V30 5506 C 499.582 0.172973 5.3442 0
M  V30 5507 C 500.882 2.26409 4.70677 0
M  V30 5508 H 502.576 1.5428 2.56589 0
M  V30 5509 H 500.122 0.743263 1.23335 0
M  V30 5510 H 502.075 -0.259607 4.206 0
M  V30 5511 H 500.799 -0.898323 3.14003 0
M  V30 5512 H 499.458 1.20996 3.46057 0
M  V30 5513 H 499.106 -0.749907 4.97379 0
M  V30 5514 H 498.806 0.787098 5.82304 0
M  V30 5515 H 500.33 -0.101628 6.10515 0
M  V30 5516 H 501.744 2.04294 5.35665 0
M  V30 5517 H 500.141 2.8314 5.29105 0
M  V30 5518 H 501.211 2.90883 3.87962 0
M  V30 5519 N 502.554 -1.34406 0.822964 0
M  V30 5520 C 503.464 -2.33298 0.246838 0
M  V30 5521 C 504.48 -1.62625 -0.618797 0
M  V30 5522 O 505.656 -1.94391 -0.526685 0
M  V30 5523 C 502.721 -3.41785 -0.581731 0
M  V30 5524 C 501.782 -4.28206 0.306309 0
M  V30 5525 C 501.015 -5.31512 -0.48281 0
M  V30 5526 O 501.238 -5.43973 -1.71607 0
M  V30 5527 O 500.172 -6.01749 0.134884 0
M  V30 5528 H 503.998 -2.84401 1.06534 0
M  V30 5529 H 501.583 -1.37466 0.585108 0
M  V30 5530 H 503.465 -4.08028 -1.05313 0
M  V30 5531 H 502.14 -2.92925 -1.37756 0
M  V30 5532 H 501.047 -3.64885 0.825199 0
M  V30 5533 H 502.38 -4.80507 1.06649 0
M  V30 5534 N 504.032 -0.577932 -1.46621 0
M  V30 5535 C 504.979 0.158048 -2.30258 0
M  V30 5536 C 505.949 0.888669 -1.40328 0
M  V30 5537 O 507.134 0.880283 -1.6928 0
M  V30 5538 C 504.274 1.16884 -3.24703 0
M  V30 5539 C 503.387 0.442163 -4.29731 0
M  V30 5540 C 502.522 1.44007 -5.11308 0
M  V30 5541 C 501.561 0.69952 -6.0809 0
M  V30 5542 N 500.698 1.64525 -6.82551 0
M  V30 5543 H 505.538 -0.561242 -2.92667 0
M  V30 5544 H 503.075 -0.288591 -1.44241 0
M  V30 5545 H 505.033 1.7677 -3.779 0
M  V30 5546 H 503.663 1.85591 -2.64113 0
M  V30 5547 H 502.715 -0.271632 -3.79429 0
M  V30 5548 H 504.027 -0.136992 -4.98612 0
M  V30 5549 H 503.181 2.11186 -5.68758 0
M  V30 5550 H 501.92 2.05315 -4.42377 0
M  V30 5551 H 500.925 0.0139217 -5.49798 0
M  V30 5552 H 502.15 0.091894 -6.79038 0
M  V30 5553 H 500.096 2.24653 -6.16334 0
M  V30 5554 H 500.013 1.11878 -7.47676 0
M  V30 5555 H 501.281 2.30754 -7.44562 0
M  V30 5556 N 505.51 1.54411 -0.315457 0
M  V30 5557 C 506.44 2.27002 0.547039 0
M  V30 5558 C 507.421 1.27492 1.12605 0
M  V30 5559 O 508.606 1.5629 1.15269 0
M  V30 5560 C 505.736 3.02171 1.71201 0
M  V30 5561 C 504.69 4.0895 1.26268 0
M  V30 5562 C 504.016 4.71915 2.51396 0
M  V30 5563 C 505.316 5.20891 0.383419 0
M  V30 5564 H 507.01 2.99343 -0.0584517 0
M  V30 5565 H 504.556 1.4397 -0.0295527 0
M  V30 5566 H 506.509 3.51681 2.32161 0
M  V30 5567 H 505.233 2.27433 2.34397 0
M  V30 5568 H 503.892 3.60312 0.676062 0
M  V30 5569 H 503.54 3.93801 3.12937 0
M  V30 5570 H 503.24 5.44039 2.22026 0
M  V30 5571 H 504.764 5.24195 3.13133 0
M  V30 5572 H 506.178 5.66206 0.899082 0
M  V30 5573 H 504.575 5.99821 0.182857 0
M  V30 5574 H 505.645 4.81324 -0.587821 0
M  V30 5575 N 506.988 0.0434614 1.5754 0
M  V30 5576 C 508.399 -0.493343 1.80064 0
M  V30 5577 C 508.75 -1.71388 0.955023 0
M  V30 5578 O 507.875 -2.15736 0.169434 0
M  V30 5579 C 508.47 -0.90179 3.26578 0
M  V30 5580 C 507.029 -1.38362 3.50047 0
M  V30 5581 C 506.176 -0.355129 2.75017 0
M  V30 5582 H 509.127 0.2694 1.56397 0
M  V30 5583 H 509.148 -1.76523 3.37075 0
M  V30 5584 H 508.66 -0.013271 3.88098 0
M  V30 5585 H 506.761 -2.29159 2.93798 0
M  V30 5586 H 506.874 -1.3811 4.58762 0
M  V30 5587 H 505.238 -0.826348 2.40922 0
M  V30 5588 H 506.021 0.525172 3.39259 0
M  V30 5589 N 508.466 -1.55915 -0.229846 0
M  V30 5590 C 509.429 -1.90914 -1.26824 0
M  V30 5591 C 510.429 -0.786999 -1.40225 0
M  V30 5592 O 511.619 -1.05484 -1.38632 0
M  V30 5593 C 508.751 -2.15264 -2.64337 0
M  V30 5594 H 509.944 -2.8378 -0.969998 0
M  V30 5595 H 507.497 -1.49069 -0.4699 0
M  V30 5596 H 508.232 -1.24923 -2.99274 0
M  V30 5597 H 508.017 -2.97005 -2.55989 0
M  V30 5598 H 509.507 -2.43467 -3.39284 0
M  V30 5599 N 509.944 0.496216 -1.49584 0
M  V30 5600 C 510.874 1.60576 -1.69521 0
M  V30 5601 C 511.855 1.61169 -0.543933 0
M  V30 5602 O 513.04 1.77834 -0.78031 0
M  V30 5603 C 510.17 2.99038 -1.76616 0
M  V30 5604 C 509.124 3.13312 -2.91581 0
M  V30 5605 C 508.45 4.53172 -2.83794 0
M  V30 5606 C 509.75 2.92886 -4.32452 0
M  V30 5607 H 511.444 1.44146 -2.62416 0
M  V30 5608 H 508.99 0.692024 -1.26282 0
M  V30 5609 H 510.943 3.76564 -1.8915 0
M  V30 5610 H 509.667 3.16568 -0.80324 0
M  V30 5611 H 508.326 2.38213 -2.78658 0
M  V30 5612 H 507.974 4.67585 -1.854 0
M  V30 5613 H 507.674 4.63662 -3.60958 0
M  V30 5614 H 509.198 5.32752 -2.98342 0
M  V30 5615 H 510.612 3.60178 -4.46032 0
M  V30 5616 H 509.009 3.14844 -5.10875 0
M  V30 5617 H 510.079 1.88966 -4.46565 0
M  V30 5618 N 511.423 1.38739 0.74761 0
M  V30 5619 C 512.353 1.39173 1.87492 0
M  V30 5620 C 513.334 0.256794 1.6815 0
M  V30 5621 O 514.519 0.460762 1.88655 0
M  V30 5622 C 511.649 1.22197 3.25093 0
M  V30 5623 C 510.603 2.32957 3.59047 0
M  V30 5624 C 509.929 2.01082 4.95449 0
M  V30 5625 C 511.229 3.75237 3.6331 0
M  V30 5626 H 512.923 2.3351 1.87386 0
M  V30 5627 H 510.469 1.12399 0.900134 0
M  V30 5628 H 512.422 1.21124 4.03617 0
M  V30 5629 H 511.146 0.243241 3.25693 0
M  V30 5630 H 509.805 2.33226 2.82845 0
M  V30 5631 H 509.453 1.01678 4.92616 0
M  V30 5632 H 509.153 2.75267 5.19136 0
M  V30 5633 H 510.677 2.01638 5.76346 0
M  V30 5634 H 512.091 3.76966 4.31937 0
M  V30 5635 H 510.488 4.48677 3.98509 0
M  V30 5636 H 511.558 4.07122 2.634 0
M  V30 5637 N 512.901 -0.976442 1.23707 0
M  V30 5638 C 514.148 -1.71827 1.07153 0
M  V30 5639 C 514.476 -1.9053 -0.390982 0
M  V30 5640 O 513.731 -1.45779 -1.30564 0
M  V30 5641 C 514.03 -3.11814 1.74662 0
M  V30 5642 C 513.696 -3.12978 3.24585 0
M  V30 5643 C 512.358 -3.13003 3.6549 0
M  V30 5644 C 514.71 -3.07986 4.20469 0
M  V30 5645 C 512.038 -3.05757 5.00729 0
M  V30 5646 C 514.39 -3.02282 5.55705 0
M  V30 5647 C 513.054 -3.00631 5.95968 0
M  V30 5648 H 512.324 -0.628758 0.392102 0
M  V30 5649 H 514.971 -1.14239 1.53693 0
M  V30 5650 H 513.276 -3.72812 1.20492 0
M  V30 5651 H 514.973 -3.67989 1.59328 0
M  V30 5652 H 511.563 -3.13718 2.92026 0
M  V30 5653 H 515.747 -3.07103 3.89874 0
M  V30 5654 H 511.003 -3.02834 5.31132 0
M  V30 5655 H 515.177 -2.97376 6.29714 0
M  V30 5656 H 512.804 -2.94771 7.00724 0
M  V30 5657 N 514.379 -1.04941 -1.1758 0
M  V30 5658 C 515.312 -0.592518 -2.20373 0
M  V30 5659 C 516.29 0.377561 -1.58156 0
M  V30 5660 O 517.474 0.28978 -1.86259 0
M  V30 5661 C 514.601 0.133215 -3.38438 0
M  V30 5662 C 513.647 -0.791484 -4.19092 0
M  V30 5663 S 514.48 -2.27925 -4.84572 0
M  V30 5664 C 515.636 -1.56462 -6.06028 0
M  V30 5665 H 515.869 -1.46342 -2.58788 0
M  V30 5666 H 513.402 -0.861148 -1.28155 0
M  V30 5667 H 515.36 0.545746 -4.06856 0
M  V30 5668 H 514.021 0.980124 -2.98416 0
M  V30 5669 H 513.214 -0.230039 -5.03475 0
M  V30 5670 H 512.816 -1.14326 -3.56098 0
M  V30 5671 H 515.108 -0.862539 -6.71987 0
M  V30 5672 H 516.051 -2.38583 -6.66696 0
M  V30 5673 H 516.459 -1.05313 -5.5459 0
M  V30 5674 N 515.857 1.33968 -0.830081 0
M  V30 5675 C 516.789 2.28194 -0.21448 0
M  V30 5676 C 517.802 1.5135 0.599752 0
M  V30 5677 O 518.991 1.73286 0.42826 0
M  V30 5678 C 516.091 3.31221 0.717356 0
M  V30 5679 C 515.264 4.37365 -0.055613 0
M  V30 5680 C 514.323 5.2011 0.798231 0
M  V30 5681 O 513.349 5.68691 0.240616 0
M  V30 5682 N 514.551 5.40523 2.11695 0
M  V30 5683 H 517.316 2.81662 -1.02405 0
M  V30 5684 H 514.877 1.46568 -0.687713 0
M  V30 5685 H 516.869 3.83477 1.29334 0
M  V30 5686 H 515.439 2.78095 1.42765 0
M  V30 5687 H 514.659 3.85727 -0.812936 0
M  V30 5688 H 515.947 5.05397 -0.587444 0
M  V30 5689 H 515.345 5.0274 2.59363 0
M  V30 5690 H 513.902 5.95871 2.64162 0
M  V30 5691 N 517.335 0.585699 1.46312 0
M  V30 5692 C 518.267 -0.183687 2.28463 0
M  V30 5693 C 519.28 -0.85264 1.38686 0
M  V30 5694 O 520.469 -0.721701 1.6326 0
M  V30 5695 C 517.569 -1.27977 3.13808 0
M  V30 5696 C 516.742 -0.702164 4.31727 0
M  V30 5697 C 515.801 -1.68633 4.98447 0
M  V30 5698 O 514.827 -1.22121 5.55945 0
M  V30 5699 N 516.029 -3.02047 4.95729 0
M  V30 5700 H 518.794 0.521127 2.95134 0
M  V30 5701 H 516.355 0.423673 1.56258 0
M  V30 5702 H 518.347 -1.9375 3.55307 0
M  V30 5703 H 516.917 -1.8874 2.4919 0
M  V30 5704 H 516.137 0.1331 3.93975 0
M  V30 5705 H 517.425 -0.296101 5.07938 0
M  V30 5706 H 516.823 -3.42457 4.50266 0
M  V30 5707 H 515.38 -3.63301 5.41161 0
M  V30 5708 N 518.813 -1.54241 0.323641 0
M  V30 5709 C 520.224 -1.85975 -0.164405 0
M  V30 5710 C 520.575 -1.24529 -1.51615 0
M  V30 5711 O 519.7 -0.551351 -2.09258 0
M  V30 5712 C 520.295 -3.37424 -0.305091 0
M  V30 5713 C 518.854 -3.69107 -0.737358 0
M  V30 5714 C 518.001 -2.76942 0.140884 0
M  V30 5715 H 520.952 -1.49088 0.543922 0
M  V30 5716 H 520.973 -3.63147 -1.13598 0
M  V30 5717 H 520.485 -3.82116 0.678876 0
M  V30 5718 H 518.586 -3.29947 -1.73107 0
M  V30 5719 H 518.699 -4.76035 -0.541053 0
M  V30 5720 H 517.063 -2.51795 -0.383572 0
M  V30 5721 H 517.846 -3.24461 1.12162 0
M  V30 5722 N 520.291 -0.0518155 -1.57515 0
M  V30 5723 C 521.707 0.304735 -1.56664 0
M  V30 5724 C 521.907 1.71395 -1.05953 0
M  V30 5725 O 520.963 2.42123 -0.716414 0
M  V30 5726 C 522.276 0.132614 -3.00407 0
M  V30 5727 C 523.824 0.20367 -3.12337 0
M  V30 5728 C 524.299 0.0600706 -4.57961 0
M  V30 5729 N 525.79 0.116326 -4.63054 0
M  V30 5730 C 526.525 0.0293363 -5.73392 0
M  V30 5731 N 526.021 -0.110038 -6.92713 0
M  V30 5732 N 527.814 0.0849651 -5.62036 0
M  V30 5733 H 519.965 -0.973056 -1.888 0
M  V30 5734 H 522.228 -0.377781 -0.869474 0
M  V30 5735 H 521.934 -0.839019 -3.41546 0
M  V30 5736 H 521.808 0.893376 -3.66468 0
M  V30 5737 H 524.195 1.16578 -2.71097 0
M  V30 5738 H 524.276 -0.587857 -2.48954 0
M  V30 5739 H 523.92 -0.898715 -4.99886 0
M  V30 5740 H 523.85 0.87075 -5.19351 0
M  V30 5741 H 526.341 0.22327 -3.7724 0
M  V30 5742 H 526.654 -0.169104 -7.72615 0
M  V30 5743 H 524.999 -0.145132 -6.94848 0
M  V30 5744 H 528.19 0.192411 -4.67704 0
M  V30 5745 H 528.363 0.0137131 -6.47999 0
M  V30 5746 N 521.769 1.56035 0.221574 0
M  V30 5747 C 522.719 1.8881 1.27807 0
M  V30 5748 C 523.703 0.751177 1.42289 0
M  V30 5749 O 524.895 1.01359 1.45104 0
M  V30 5750 C 522.024 2.20828 2.6285 0
M  V30 5751 C 521.11 3.40912 2.52269 0
M  V30 5752 N 521.501 4.59531 2.1134 0
M  V30 5753 C 519.799 3.44526 2.83228 0
M  V30 5754 C 520.5 5.41689 2.1201 0
M  V30 5755 N 519.476 4.814 2.52497 0
M  V30 5756 H 523.278 2.78036 0.952529 0
M  V30 5757 H 520.792 1.566 0.430134 0
M  V30 5758 H 522.789 2.42483 3.39127 0
M  V30 5759 H 521.449 1.32914 2.9625 0
M  V30 5760 H 522.46 4.8469 1.82472 0
M  V30 5761 H 519.137 2.66956 3.21 0
M  V30 5762 H 520.527 6.46643 1.82491 0
M  V30 5763 N 523.247 -0.488276 1.49845 0
M  V30 5764 C 524.197 -1.58556 1.63842 0
M  V30 5765 C 525.181 -1.53142 0.493586 0
M  V30 5766 O 526.373 -1.60457 0.747169 0
M  V30 5767 C 523.502 -2.97101 1.72005 0
M  V30 5768 C 522.588 -3.07463 2.92108 0
M  V30 5769 N 522.979 -2.87681 4.16021 0
M  V30 5770 C 521.277 -3.3858 2.90309 0
M  V30 5771 C 521.978 -3.0256 4.96822 0
M  V30 5772 N 520.954 -3.32002 4.30437 0
M  V30 5773 H 524.756 -1.41935 2.57355 0
M  V30 5774 H 522.27 -0.694668 1.46793 0
M  V30 5775 H 524.267 -3.75976 1.80132 0
M  V30 5776 H 522.927 -3.14782 0.796375 0
M  V30 5777 H 523.938 -2.63603 4.45796 0
M  V30 5778 H 520.615 -3.62357 2.07372 0
M  V30 5779 H 522.005 -2.9165 6.05301 0
M  V30 5780 N 524.725 -1.39134 -0.740242 0
M  V30 5781 C 525.965 -1.37499 -1.51239 0
M  V30 5782 C 526.329 0.0310084 -1.91975 0
M  V30 5783 O 527.53 0.172319 -2.68247 0
M  V30 5784 C 525.801 -2.31566 -2.72235 0
M  V30 5785 S 527.36 -2.48073 -3.61947 0
M  V30 5786 H 524.178 -0.48768 -0.517387 0
M  V30 5787 H 526.78 -1.75183 -0.867826 0
M  V30 5788 H 525.484 -3.32592 -2.40439 0
M  V30 5789 H 525.015 -1.9508 -3.41625 0
M  V30 5790 H 527.03 -1.71473 -4.6563 0
M  V30 5791 N 526.204 0.969867 -1.24223 0
M  V30 5792 C 527.167 2.04564 -1.03373 0
M  V30 5793 C 528.167 1.60798 0.00819206 0
M  V30 5794 O 529.357 1.72641 -0.232567 0
M  V30 5795 C 526.489 3.36163 -0.566343 0
M  V30 5796 H 527.682 2.24494 -1.98853 0
M  V30 5797 H 525.235 1.1448 -1.06415 0
M  V30 5798 H 525.97 3.21925 0.391751 0
M  V30 5799 H 525.755 3.69273 -1.31834 0
M  V30 5800 H 527.245 4.1526 -0.441435 0
M  V30 5801 N 527.682 1.05563 1.17022 0
M  V30 5802 C 529.098 0.777684 1.39371 0
M  V30 5803 C 529.298 -0.626269 1.91521 0
M  V30 5804 O 528.354 -1.38806 2.10924 0
M  V30 5805 C 529.667 1.83642 2.3811 0
M  V30 5806 C 531.215 1.85907 2.51809 0
M  V30 5807 C 531.69 2.90813 3.53824 0
M  V30 5808 N 533.181 2.898 3.61345 0
M  V30 5809 C 533.916 3.6762 4.40049 0
M  V30 5810 N 533.412 4.55237 5.22237 0
M  V30 5811 N 535.205 3.56044 4.34959 0
M  V30 5812 H 527.356 1.9614 0.815047 0
M  V30 5813 H 529.619 0.849527 0.420722 0
M  V30 5814 H 529.325 2.84425 2.06871 0
M  V30 5815 H 529.199 1.6812 3.37662 0
M  V30 5816 H 531.586 0.857865 2.82356 0
M  V30 5817 H 531.667 2.05506 1.52318 0
M  V30 5818 H 531.311 3.91122 3.24015 0
M  V30 5819 H 531.241 2.68465 4.53028 0
M  V30 5820 H 533.732 2.26274 3.02669 0
M  V30 5821 H 534.045 5.11291 5.79484 0
M  V30 5822 H 532.39 4.59296 5.21605 0
M  V30 5823 H 535.581 2.86986 3.69806 0
M  V30 5824 H 535.754 4.16938 4.96051 0
M  V30 5825 N 529.16 -1.33526 0.837174 0
M  V30 5826 C 530.092 -2.28077 0.226579 0
M  V30 5827 C 531.105 -1.51666 -0.591717 0
M  V30 5828 O 532.294 -1.73511 -0.419064 0
M  V30 5829 C 529.394 -3.31597 -0.69978 0
M  V30 5830 C 528.567 -4.37329 0.0788067 0
M  V30 5831 C 527.626 -5.20526 -0.770637 0
M  V30 5832 O 526.652 -5.68811 -0.210453 0
M  V30 5833 N 527.854 -5.41639 -2.08825 0
M  V30 5834 H 530.619 -2.81115 1.03897 0
M  V30 5835 H 528.18 -1.46201 0.695476 0
M  V30 5836 H 530.172 -3.84158 -1.27298 0
M  V30 5837 H 528.742 -2.78848 -1.41288 0
M  V30 5838 H 527.962 -3.8529 0.833381 0
M  V30 5839 H 529.25 -5.05079 0.614238 0
M  V30 5840 H 528.648 -5.04108 -2.56693 0
M  V30 5841 H 527.205 -5.97263 -2.60998 0
M  V30 5842 N 530.638 -0.59345 -1.46 0
M  V30 5843 C 532.054 -0.255965 -1.57534 0
M  V30 5844 C 532.254 1.24167 -1.58697 0
M  V30 5845 O 531.31 2.02398 -1.50968 0
M  V30 5846 C 532.623 -0.91466 -2.86451 0
M  V30 5847 C 534.171 -0.889253 -3.00102 0
M  V30 5848 C 534.646 -1.52769 -4.3177 0
M  V30 5849 N 536.137 -1.49253 -4.38495 0
M  V30 5850 C 536.872 -1.9558 -5.39014 0
M  V30 5851 N 536.368 -2.49929 -6.46148 0
M  V30 5852 N 538.161 -1.86432 -5.30282 0
M  V30 5853 H 530.312 -1.56604 -1.43489 0
M  V30 5854 H 532.575 -0.655207 -0.685133 0
M  V30 5855 H 532.281 -1.96861 -2.91442 0
M  V30 5856 H 532.155 -0.429356 -3.74748 0
M  V30 5857 H 534.542 0.156111 -2.94687 0
M  V30 5858 H 534.623 -1.41268 -2.13253 0
M  V30 5859 H 534.267 -2.57231 -4.37944 0
M  V30 5860 H 534.197 -0.979398 -5.17412 0
M  V30 5861 H 536.688 -1.09536 -3.61677 0
M  V30 5862 H 537.001 -2.83109 -7.19075 0
M  V30 5863 H 535.346 -2.53961 -6.46938 0
M  V30 5864 H 538.537 -1.43722 -4.4549 0
M  V30 5865 H 538.71 -2.22852 -6.08474 0
M  V30 5866 N 532.116 1.54067 -0.331816 0
M  V30 5867 C 533.046 2.27569 0.522932 0
M  V30 5868 C 534.027 1.28679 1.11247 0
M  V30 5869 O 535.212 1.57504 1.13605 0
M  V30 5870 C 532.342 3.0397 1.67987 0
M  V30 5871 C 531.296 4.10267 1.21924 0
M  V30 5872 C 530.622 4.74555 2.46377 0
M  V30 5873 C 531.922 5.21268 0.32815 0
M  V30 5874 H 533.616 2.99264 -0.0901977 0
M  V30 5875 H 531.162 1.4393 -0.044821 0
M  V30 5876 H 533.115 3.54123 2.28418 0
M  V30 5877 H 531.839 2.29906 2.31971 0
M  V30 5878 H 530.498 3.61009 0.637809 0
M  V30 5879 H 530.146 3.97098 3.08743 0
M  V30 5880 H 529.846 5.46363 2.16243 0
M  V30 5881 H 531.37 5.27487 3.07555 0
M  V30 5882 H 532.784 5.67128 0.838978 0
M  V30 5883 H 531.181 5.99982 0.119228 0
M  V30 5884 H 532.251 4.80673 -0.638839 0
M  V30 5885 N 533.594 0.0601682 1.57485 0
M  V30 5886 C 535.01 -0.296422 1.56823 0
M  V30 5887 C 535.21 -1.70831 1.0686 0
M  V30 5888 O 534.266 -2.4174 0.729245 0
M  V30 5889 C 535.579 -0.116681 3.00474 0
M  V30 5890 C 537.127 -0.187103 3.1244 0
M  V30 5891 C 537.602 -0.035783 4.57986 0
M  V30 5892 N 539.093 -0.0917676 4.63109 0
M  V30 5893 C 539.828 0.00107251 5.734 0
M  V30 5894 N 539.324 0.146773 6.92645 0
M  V30 5895 N 541.117 -0.0551577 5.62073 0
M  V30 5896 H 533.268 0.983055 1.88281 0
M  V30 5897 H 535.531 0.382386 0.867459 0
M  V30 5898 H 535.237 0.85712 3.41096 0
M  V30 5899 H 535.111 -0.873929 3.66936 0
M  V30 5900 H 537.498 -1.15138 2.71712 0
M  V30 5901 H 537.579 0.601052 2.48638 0
M  V30 5902 H 537.223 0.925212 4.99402 0
M  V30 5903 H 537.153 -0.843196 5.19806 0
M  V30 5904 H 539.644 -0.203261 3.77353 0
M  V30 5905 H 539.957 0.210076 7.72514 0
M  V30 5906 H 538.302 0.181979 6.94762 0
M  V30 5907 H 541.493 -0.167605 4.678 0
M  V30 5908 H 541.666 0.020652 6.47997 0
M  V30 5909 N 535.072 -1.5615 -0.213296 0
M  V30 5910 C 536.002 -1.96109 -1.26742 0
M  V30 5911 C 536.983 -0.830448 -1.48451 0
M  V30 5912 O 538.168 -1.09339 -1.60495 0
M  V30 5913 C 535.298 -2.28492 -2.61551 0
M  V30 5914 C 534.252 -3.44124 -2.54485 0
M  V30 5915 C 533.578 -3.62134 -3.93399 0
M  V30 5916 C 534.878 -4.78855 -2.08556 0
M  V30 5917 H 536.572 -2.84412 -0.935434 0
M  V30 5918 H 534.118 -1.36836 -0.44854 0
M  V30 5919 H 536.071 -2.55039 -3.3546 0
M  V30 5920 H 534.795 -1.37052 -2.96453 0
M  V30 5921 H 533.454 -3.17639 -1.83033 0
M  V30 5922 H 533.102 -2.68055 -4.25623 0
M  V30 5923 H 532.802 -4.39913 -3.89551 0
M  V30 5924 H 534.326 -3.91038 -4.68958 0
M  V30 5925 H 535.74 -5.04552 -2.72213 0
M  V30 5926 H 534.137 -5.59975 -2.1575 0
M  V30 5927 H 535.207 -4.73657 -1.03811 0
M  V30 5928 N 536.55 0.480323 -1.50102 0
M  V30 5929 C 537.966 0.813295 -1.37323 0
M  V30 5930 C 538.166 1.97027 -0.422206 0
M  V30 5931 O 537.222 2.5212 0.138563 0
M  V30 5932 C 538.535 1.13404 -2.78496 0
M  V30 5933 C 540.083 1.24104 -2.87345 0
M  V30 5934 C 540.558 1.59497 -4.29331 0
M  V30 5935 N 542.049 1.66507 -4.32238 0
M  V30 5936 C 542.784 1.95378 -5.39087 0
M  V30 5937 N 542.28 2.22333 -6.56155 0
M  V30 5938 N 544.073 1.96803 -5.26522 0
M  V30 5939 H 536.224 -0.282291 -2.10516 0
M  V30 5940 H 538.487 -0.063752 -0.945854 0
M  V30 5941 H 538.193 0.357064 -3.49883 0
M  V30 5942 H 538.067 2.07251 -3.15162 0
M  V30 5943 H 540.454 2.00871 -2.16183 0
M  V30 5944 H 540.535 0.282593 -2.54234 0
M  V30 5945 H 540.179 0.832736 -5.01027 0
M  V30 5946 H 540.109 2.56477 -4.59921 0
M  V30 5947 H 542.6 1.47753 -3.47818 0
M  V30 5948 H 542.913 2.43611 -7.33399 0
M  V30 5949 H 541.258 2.19745 -6.59346 0
M  V30 5950 H 544.449 1.75235 -4.34062 0
M  V30 5951 H 544.622 2.18969 -6.09883 0
M  V30 5952 N 538.028 1.39524 0.732853 0
M  V30 5953 C 539.444 1.21176 1.03868 0
M  V30 5954 C 539.644 0.0748448 2.01361 0
M  V30 5955 O 538.7 -0.57281 2.45917 0
M  V30 5956 C 540.013 2.54667 1.59892 0
M  V30 5957 C 541.561 2.6153 1.71962 0
M  V30 5958 C 542.036 3.95248 2.31394 0
M  V30 5959 N 543.527 3.96899 2.38801 0
M  V30 5960 C 544.262 4.97138 2.85729 0
M  V30 5961 N 543.758 6.07775 3.32537 0
M  V30 5962 N 545.551 4.84516 2.84957 0
M  V30 5963 H 537.702 2.12225 0.086304 0
M  V30 5964 H 539.965 0.942614 0.100907 0
M  V30 5965 H 539.671 3.38423 0.95721 0
M  V30 5966 H 539.545 2.74538 2.58668 0
M  V30 5967 H 541.932 1.78156 2.35254 0
M  V30 5968 H 542.013 2.45507 0.718327 0
M  V30 5969 H 541.657 4.79054 1.68729 0
M  V30 5970 H 541.587 4.08593 3.32204 0
M  V30 5971 H 544.078 3.16998 2.05719 0
M  V30 5972 H 544.391 6.8017 3.66862 0
M  V30 5973 H 542.736 6.11366 3.30541 0
M  V30 5974 H 545.927 3.97185 2.47713 0
M  V30 5975 H 546.1 5.62783 3.21215 0
M  V30 5976 N 539.506 -0.963266 1.24736 0
M  V30 5977 C 540.922 -1.23273 1.01371 0
M  V30 5978 C 541.122 -1.99618 -0.274776 0
M  V30 5979 O 540.178 -2.32293 -0.989769 0
M  V30 5980 C 541.491 -2.01554 2.23152 0
M  V30 5981 C 543.039 -2.14629 2.27823 0
M  V30 5982 C 543.514 -2.96307 3.49237 0
M  V30 5983 N 545.005 -3.03887 3.49581 0
M  V30 5984 C 545.74 -3.67456 4.40186 0
M  V30 5985 N 545.236 -4.32706 5.41052 0
M  V30 5986 N 547.029 -3.64511 4.27888 0
M  V30 5987 H 539.18 -0.452294 2.07528 0
M  V30 5988 H 541.443 -0.262521 0.910926 0
M  V30 5989 H 541.149 -1.52847 3.1675 0
M  V30 5990 H 541.023 -3.02278 2.25628 0
M  V30 5991 H 543.41 -2.62537 1.34753 0
M  V30 5992 H 543.491 -1.13238 2.2937 0
M  V30 5993 H 543.135 -2.49091 4.42624 0
M  V30 5994 H 543.065 -3.97905 3.44933 0
M  V30 5995 H 545.556 -2.57477 2.76611 0
M  V30 5996 H 545.869 -4.79042 6.06415 0
M  V30 5997 H 544.214 -4.31361 5.44934 0
M  V30 5998 H 547.405 -3.12715 3.4832 0
M  V30 5999 H 547.578 -4.13768 4.98698 0
M  V30 6000 N 540.985 -1.06182 -1.16461 0
M  V30 6001 C 541.917 -0.629584 -2.20383 0
M  V30 6002 C 542.93 0.311834 -1.59786 0
M  V30 6003 O 544.119 0.103 -1.78203 0
M  V30 6004 C 541.219 0.0973695 -3.3876 0
M  V30 6005 C 540.392 -0.857252 -4.28917 0
M  V30 6006 C 539.451 -0.169749 -5.25926 0
M  V30 6007 O 538.477 -0.807044 -5.6345 0
M  V30 6008 N 539.679 1.08911 -5.70192 0
M  V30 6009 H 542.444 -1.52352 -2.58087 0
M  V30 6010 H 540.005 -0.944993 -1.31459 0
M  V30 6011 H 541.997 0.567676 -4.00699 0
M  V30 6012 H 540.567 0.893093 -2.99571 0
M  V30 6013 H 539.787 -1.50696 -3.64259 0
M  V30 6014 H 541.075 -1.50489 -4.86035 0
M  V30 6015 H 540.473 1.62703 -5.41797 0
M  V30 6016 H 539.03 1.50331 -6.34227 0
M  V30 6017 N 542.463 1.3308 -0.844243 0
M  V30 6018 C 543.879 1.50447 -0.532729 0
M  V30 6019 C 544.079 1.78292 0.938837 0
M  V30 6020 O 543.135 1.84635 1.72239 0
M  V30 6021 C 544.448 2.65555 -1.41072 0
M  V30 6022 C 545.996 2.7944 -1.41005 0
M  V30 6023 C 546.471 3.97616 -2.27301 0
M  V30 6024 N 547.962 4.0486 -2.2504 0
M  V30 6025 C 548.697 4.95508 -2.88547 0
M  V30 6026 N 548.193 5.91236 -3.61126 0
M  V30 6027 N 549.986 4.88548 -2.77989 0
M  V30 6028 H 542.137 1.13269 -1.79677 0
M  V30 6029 H 544.4 0.55734 -0.766861 0
M  V30 6030 H 544.106 2.51675 -2.45668 0
M  V30 6031 H 543.98 3.61089 -1.09061 0
M  V30 6032 H 546.367 2.92749 -0.371784 0
M  V30 6033 H 546.448 1.8465 -1.77026 0
M  V30 6034 H 546.092 3.85066 -3.3119 0
M  V30 6035 H 546.022 4.91661 -1.88619 0
M  V30 6036 H 548.513 3.36353 -1.72264 0
M  V30 6037 H 548.826 6.57079 -4.06776 0
M  V30 6038 H 547.171 5.91295 -3.65234 0
M  V30 6039 H 550.362 4.12729 -2.20846 0
M  V30 6040 H 550.535 5.58994 -3.27765 0
M  V30 6041 N 543.941 0.601185 1.45683 0
M  V30 6042 C 544.851 -0.123395 2.34275 0
M  V30 6043 C 545.867 -0.86702 1.5086 0
M  V30 6044 O 547.043 -0.826049 1.8368 0
M  V30 6045 C 544.108 -1.11237 3.2837 0
M  V30 6046 C 543.169 -0.371405 4.2769 0
M  V30 6047 C 542.402 -1.31327 5.1729 0
M  V30 6048 O 542.625 -2.55078 5.10188 0
M  V30 6049 O 541.559 -0.813811 5.96373 0
M  V30 6050 H 545.385 0.604483 2.97623 0
M  V30 6051 H 542.97 0.361477 1.44961 0
M  V30 6052 H 544.852 -1.68214 3.8637 0
M  V30 6053 H 543.527 -1.82139 2.67595 0
M  V30 6054 H 542.434 0.24067 3.73325 0
M  V30 6055 H 543.767 0.296998 4.91303 0
M  V30 6056 N 545.419 -1.53889 0.339982 0
M  V30 6057 C 546.835 -1.59595 -0.0120752 0
M  V30 6058 C 547.035 -1.35605 -1.49042 0
M  V30 6059 O 546.091 -1.14856 -2.24865 0
M  V30 6060 C 547.404 -2.9774 0.420898 0
M  V30 6061 C 548.952 -3.1077 0.37294 0
M  V30 6062 C 549.427 -4.51286 0.781327 0
M  V30 6063 N 550.918 -4.57325 0.735374 0
M  V30 6064 C 551.653 -5.64194 1.02336 0
M  V30 6065 N 551.149 -6.7893 1.37933 0
M  V30 6066 N 552.942 -5.54051 0.947838 0
M  V30 6067 H 545.093 -1.67738 1.30299 0
M  V30 6068 H 547.356 -0.785385 0.530918 0
M  V30 6069 H 547.062 -3.20349 1.45152 0
M  V30 6070 H 546.936 -3.76639 -0.205721 0
M  V30 6071 H 549.323 -2.87886 -0.648505 0
M  V30 6072 H 549.404 -2.33939 1.03472 0
M  V30 6073 H 549.048 -4.74905 1.80077 0
M  V30 6074 H 548.978 -5.26511 0.0970679 0
M  V30 6075 H 551.469 -3.74931 0.472773 0
M  V30 6076 H 551.782 -7.56392 1.58402 0
M  V30 6077 H 550.127 -6.80386 1.41774 0
M  V30 6078 H 553.318 -4.63293 0.669115 0
M  V30 6079 H 553.491 -6.37246 1.17563 0
M  V30 6080 N 546.897 -0.0685191 -1.57451 0
M  V30 6081 C 547.807 0.914677 -2.16034 0
M  V30 6082 C 548.823 1.32938 -1.12265 0
M  V30 6083 O 549.999 1.40275 -1.44516 0
M  V30 6084 C 547.064 2.16519 -2.70777 0
M  V30 6085 C 546.125 1.80721 -3.89408 0
M  V30 6086 C 545.358 2.9981 -4.41531 0
M  V30 6087 O 545.581 4.13727 -3.92666 0
M  V30 6088 O 544.515 2.79817 -5.32903 0
M  V30 6089 H 548.341 0.446364 -3.00402 0
M  V30 6090 H 545.926 0.154367 -1.486 0
M  V30 6091 H 547.808 2.89856 -3.05878 0
M  V30 6092 H 546.483 2.62454 -1.89471 0
M  V30 6093 H 545.39 1.04646 -3.59166 0
M  V30 6094 H 546.723 1.39571 -4.71997 0
M  V30 6095 N 548.375 1.56261 0.205012 0
M  V30 6096 C 549.623 1.79684 0.925096 0
M  V30 6097 C 549.944 0.63989 1.84202 0
M  V30 6098 O 549.214 -0.342345 1.92885 0
M  V30 6099 H 547.794 0.662774 0.344587 0
M  V30 6100 H 550.456 1.93734 0.212899 0
M  V30 6101 H 549.552 2.72467 1.52211 0
M  V30 6102 N 549.853 -0.472356 1.50355 0
M  V30 6103 C 550.816 -1.5529 1.68576 0
M  V30 6104 C 551.816 -1.50863 0.556511 0
M  V30 6105 O 553.006 -1.53505 0.823516 0
M  V30 6106 C 550.138 -2.94921 1.70981 0
M  V30 6107 H 551.331 -1.40451 2.64978 0
M  V30 6108 H 548.884 -0.698645 1.39816 0
M  V30 6109 H 549.619 -3.15204 0.762675 0
M  V30 6110 H 549.404 -2.99541 2.53017 0
M  V30 6111 H 550.894 -3.73372 1.87037 0
M  V30 6112 N 551.331 -1.39911 -0.725443 0
M  V30 6113 C 552.579 -1.37382 -1.48224 0
M  V30 6114 C 552.9 0.0264107 -1.94982 0
M  V30 6115 O 552.17 0.979408 -1.6966 0
M  V30 6116 H 550.75 -0.505596 -0.549892 0
M  V30 6117 H 553.412 -1.7487 -0.860608 0
M  V30 6118 H 552.508 -2.04254 -2.3598 0
M  V30 6119 N 552.809 0.956637 -1.25245 0
M  V30 6120 C 553.772 2.03457 -1.05537 0
M  V30 6121 C 554.772 1.60798 -0.00886317 0
M  V30 6122 O 555.962 1.72384 -0.250865 0
M  V30 6123 C 553.094 3.35543 -0.601965 0
M  V30 6124 H 554.287 2.22372 -2.01223 0
M  V30 6125 H 551.84 1.13344 -1.07623 0
M  V30 6126 H 552.575 3.22323 0.357584 0
M  V30 6127 H 552.36 3.67854 -1.35743 0
M  V30 6128 H 553.85 4.14769 -0.485454 0
M  V30 6129 N 554.287 1.06798 1.15896 0
M  V30 6130 C 555.217 0.704677 2.22613 0
M  V30 6131 C 556.198 -0.305252 1.67339 0
M  V30 6132 O 557.383 -0.179247 1.93371 0
M  V30 6133 C 554.513 0.0957325 3.47168 0
M  V30 6134 C 553.467 1.0322 4.15367 0
M  V30 6135 C 552.793 0.286293 5.33933 0
M  V30 6136 C 554.093 2.36341 4.65768 0
M  V30 6137 H 555.787 1.59688 2.53259 0
M  V30 6138 H 553.333 0.769257 1.21731 0
M  V30 6139 H 555.286 -0.170333 4.21056 0
M  V30 6140 H 554.01 -0.831516 3.15838 0
M  V30 6141 H 552.669 1.28309 3.43413 0
M  V30 6142 H 552.317 -0.644237 4.98857 0
M  V30 6143 H 552.017 0.910436 5.80504 0
M  V30 6144 H 553.541 0.0278938 6.10594 0
M  V30 6145 H 554.955 2.1561 5.31211 0
M  V30 6146 H 553.352 2.94299 5.2298 0
M  V30 6147 H 554.422 2.99047 3.81705 0
M  V30 6148 N 555.766 -1.3263 0.851289 0
M  V30 6149 C 557.013 -1.97368 0.453023 0
M  V30 6150 C 557.341 -1.67384 -0.990596 0
M  V30 6151 O 556.596 -0.952665 -1.70947 0
M  V30 6152 C 556.895 -3.51713 0.635015 0
M  V30 6153 C 556.561 -4.01676 2.04859 0
M  V30 6154 C 555.223 -4.15031 2.43522 0
M  V30 6155 C 557.575 -4.28206 2.97135 0
M  V30 6156 C 554.903 -4.52257 3.73739 0
M  V30 6157 C 557.255 -4.66889 4.26846 0
M  V30 6158 C 555.919 -4.7845 4.65448 0
M  V30 6159 H 555.189 -0.722219 0.165773 0
M  V30 6160 H 557.836 -1.58092 1.0807 0
M  V30 6161 H 556.141 -3.91726 -0.0759081 0
M  V30 6162 H 557.838 -3.99823 0.306964 0
M  V30 6163 H 554.428 -3.91764 1.73836 0
M  V30 6164 H 558.612 -4.174 2.68498 0
M  V30 6165 H 553.868 -4.59402 4.03435 0
M  V30 6166 H 558.042 -4.86372 4.98413 0
M  V30 6167 H 555.669 -5.07052 5.66395 0
M  V30 6168 N 557.244 -0.608902 -1.45362 0
M  V30 6169 C 558.491 -0.104607 -2.0223 0
M  V30 6170 C 558.819 1.26534 -1.47714 0
M  V30 6171 O 558.074 1.84855 -0.642435 0
M  V30 6172 C 558.373 -0.0167296 -3.57396 0
M  V30 6173 C 558.039 -1.32251 -4.31069 0
M  V30 6174 C 556.701 -1.68019 -4.50914 0
M  V30 6175 C 559.053 -2.18542 -4.73169 0
M  V30 6176 C 556.381 -2.89828 -5.10114 0
M  V30 6177 C 558.733 -3.39602 -5.33717 0
M  V30 6178 C 557.397 -3.7562 -5.51784 0
M  V30 6179 H 556.667 -0.0382785 -0.740011 0
M  V30 6180 H 559.314 -0.790782 -1.7441 0
M  V30 6181 H 557.619 0.752715 -3.84502 0
M  V30 6182 H 559.316 0.389634 -3.99103 0
M  V30 6183 H 555.906 -1.03411 -4.15938 0
M  V30 6184 H 560.09 -1.92208 -4.5757 0
M  V30 6185 H 555.346 -3.17839 -5.22291 0
M  V30 6186 H 559.52 -4.06716 -5.65292 0
M  V30 6187 H 557.147 -4.70093 -5.97425 0
M  V30 6188 N 558.722 1.53707 -0.348139 0
M  V30 6189 C 560.138 1.596 0.00361134 0
M  V30 6190 C 560.338 1.36394 1.4832 0
M  V30 6191 O 559.394 1.16046 2.24253 0
M  V30 6192 C 560.707 2.97512 -0.436682 0
M  V30 6193 C 562.255 3.10568 -0.389416 0
M  V30 6194 C 562.73 4.50866 -0.805249 0
M  V30 6195 N 564.221 4.56929 -0.759616 0
M  V30 6196 C 564.956 5.63643 -1.05327 0
M  V30 6197 N 564.452 6.78189 -1.41531 0
M  V30 6198 N 566.245 5.5354 -0.977207 0
M  V30 6199 H 558.396 1.67044 -1.31187 0
M  V30 6200 H 560.659 0.782559 -0.535075 0
M  V30 6201 H 560.365 3.19575 -1.46849 0
M  V30 6202 H 560.239 3.76742 0.185744 0
M  V30 6203 H 562.626 2.88226 0.633228 0
M  V30 6204 H 562.707 2.33387 -1.04711 0
M  V30 6205 H 562.351 4.73943 -1.82593 0
M  V30 6206 H 562.281 5.26452 -0.124989 0
M  V30 6207 H 564.772 3.74675 -0.49265 0
M  V30 6208 H 565.085 7.55541 -1.62411 0
M  V30 6209 H 563.43 6.79624 -1.45381 0
M  V30 6210 H 566.621 4.62932 -0.693675 0
M  V30 6211 H 566.794 6.36614 -1.2094 0
M  V30 6212 N 560.2 0.0768682 1.57412 0
M  V30 6213 C 561.11 -0.903207 2.16516 0
M  V30 6214 C 562.126 -1.32341 1.12968 0
M  V30 6215 O 563.302 -1.39507 1.45258 0
M  V30 6216 C 560.367 -2.1508 2.71922 0
M  V30 6217 C 559.428 -1.78653 3.90361 0
M  V30 6218 C 558.661 -2.97465 4.43114 0
M  V30 6219 O 558.884 -4.11638 3.94854 0
M  V30 6220 O 557.818 -2.76987 5.3438 0
M  V30 6221 H 561.644 -0.430427 3.00634 0
M  V30 6222 H 559.229 -0.146485 1.4868 0
M  V30 6223 H 561.111 -2.8823 3.07411 0
M  V30 6224 H 559.786 -2.61446 1.9086 0
M  V30 6225 H 558.693 -1.0274 3.59716 0
M  V30 6226 H 560.026 -1.37066 4.7273 0
M  V30 6227 N 561.678 -1.56367 -0.196722 0
M  V30 6228 C 562.641 -1.93561 -1.22746 0
M  V30 6229 C 563.641 -0.816566 -1.38524 0
M  V30 6230 O 564.831 -1.084 -1.36363 0
M  V30 6231 C 561.963 -2.20823 -2.59712 0
M  V30 6232 H 563.156 -2.85774 -0.909586 0
M  V30 6233 H 560.709 -1.50032 -0.438174 0
M  V30 6234 H 561.444 -1.31243 -2.96557 0
M  V30 6235 H 561.229 -3.02368 -2.49632 0
M  V30 6236 H 562.719 -2.50608 -3.34044 0
M  V30 6237 N 563.156 0.464375 -1.50603 0
M  V30 6238 C 564.567 1.04507 -1.5471 0
M  V30 6239 C 564.918 1.9297 -0.354542 0
M  V30 6240 O 564.043 2.09763 0.531812 0
M  V30 6241 C 564.638 1.90207 -2.80369 0
M  V30 6242 C 563.197 2.43373 -2.87135 0
M  V30 6243 C 562.344 1.21886 -2.49076 0
M  V30 6244 H 565.295 0.246716 -1.56771 0
M  V30 6245 H 565.316 2.75353 -2.62604 0
M  V30 6246 H 564.828 1.25796 -3.67147 0
M  V30 6247 H 562.929 3.11318 -2.04724 0
M  V30 6248 H 563.042 2.7802 -3.90181 0
M  V30 6249 H 561.406 1.55575 -2.01664 0
M  V30 6250 H 562.189 0.591268 -3.3817 0
M  V30 6251 N 564.634 1.40294 0.718013 0
M  V30 6252 C 565.882 1.38167 1.47494 0
M  V30 6253 C 566.203 -0.01607 1.94993 0
M  V30 6254 O 565.473 -0.970396 1.70177 0
M  V30 6255 H 564.053 0.508505 0.547203 0
M  V30 6256 H 566.715 1.75324 0.851322 0
M  V30 6257 H 565.811 2.05503 2.34894 0
M  V30 6258 N 566.112 -0.949982 1.2575 0
M  V30 6259 C 567.075 -2.02894 1.06615 0
M  V30 6260 C 568.075 -1.60791 0.0173905 0
M  V30 6261 O 569.265 -1.72249 0.260003 0
M  V30 6262 C 566.397 -3.35219 0.619751 0
M  V30 6263 H 567.59 -2.21302 2.02399 0
M  V30 6264 H 565.143 -1.12772 1.08223 0
M  V30 6265 H 565.878 -3.22508 -0.340486 0
M  V30 6266 H 565.663 -3.67129 1.37692 0
M  V30 6267 H 567.153 -4.14505 0.507443 0
M  V30 6268 N 567.59 -1.07411 -1.15328 0
M  V30 6269 C 568.867 -0.710732 -1.82231 0
M  V30 6270 C 569.247 0.806732 -1.95077 0
M  V30 6271 O 568.595 1.72139 -1.50268 0
M  V30 6272 C 568.805 -1.42586 -3.18544 0
M  V30 6273 C 570.153 -1.57836 -3.94174 0
M  V30 6274 O 571.177 -1.38669 -3.281 0
M  V30 6275 O 570.036 -1.8938 -5.12638 0
M  V30 6276 H 567.13 -0.25297 -0.78736 0
M  V30 6277 H 569.676 -1.17508 -1.22434 0
M  V30 6278 H 568.448 -2.46008 -3.04296 0
M  V30 6279 H 568.071 -0.952332 -3.86026 0
M  V30 6280 N 569.068 1.32177 -0.85831 0
M  V30 6281 C 570.293 2.01847 -0.476718 0
M  V30 6282 C 570.718 1.64065 0.920021 0
M  V30 6283 O 570.076 0.843189 1.60499 0
M  V30 6284 C 570.124 3.55097 -0.627578 0
M  V30 6285 O 569.228 4.11012 0.338086 0
M  V30 6286 H 568.569 0.635907 -0.191099 0
M  V30 6287 H 571.099 1.68641 -1.15851 0
M  V30 6288 H 571.109 4.04718 -0.516476 0
M  V30 6289 H 569.784 3.81938 -1.64609 0
M  V30 6290 H 568.361 3.72451 0.182917 0
M  V30 6291 N 570.547 0.616602 1.45037 0
M  V30 6292 C 571.787 0.118453 2.04056 0
M  V30 6293 C 572.151 -1.23104 1.47341 0
M  V30 6294 O 573.352 -1.82044 1.97771 0
M  V30 6295 C 571.623 0.0892842 3.57288 0
M  V30 6296 S 573.182 -0.346361 4.37431 0
M  V30 6297 H 570 0.0539728 0.708948 0
M  V30 6298 H 572.602 0.816731 1.77623 0
M  V30 6299 H 571.306 1.07481 3.96076 0
M  V30 6300 H 570.837 -0.630703 3.88311 0
M  V30 6301 H 572.852 -1.59389 4.69904 0
M  V30 6302 N 572.025 -1.5352 0.356285 0
M  V30 6303 C 573.253 -2.05534 -0.237328 0
M  V30 6304 C 573.668 -1.23043 -1.43199 0
M  V30 6305 O 573.025 -0.268821 -1.80509 0
M  V30 6306 C 573.076 -3.55791 -0.639933 0
M  V30 6307 O 572.797 -4.35154 0.507233 0
M  V30 6308 C 574.298 -4.24027 -1.29292 0
M  V30 6309 H 571.518 -0.669585 -0.0435572 0
M  V30 6310 H 574.062 -1.97988 0.511963 0
M  V30 6311 H 572.217 -3.63518 -1.33915 0
M  V30 6312 H 572.631 -5.24178 0.18375 0
M  V30 6313 H 574.105 -5.30509 -1.52527 0
M  V30 6314 H 574.582 -3.77166 -2.25039 0
M  V30 6315 H 575.188 -4.20527 -0.63539 0
M  V30 6316 N 573.503 -0.0852151 -1.57369 0
M  V30 6317 C 574.743 0.584297 -1.95871 0
M  V30 6318 C 575.107 1.6596 -0.965473 0
M  V30 6319 O 576.308 2.38561 -1.23862 0
M  V30 6320 C 574.579 1.13411 -3.38929 0
M  V30 6321 S 576.138 1.81687 -3.99419 0
M  V30 6322 H 572.956 0.19095 -0.684879 0
M  V30 6323 H 575.558 -0.162267 -1.94825 0
M  V30 6324 H 574.262 0.339845 -4.0899 0
M  V30 6325 H 573.793 1.91672 -3.43548 0
M  V30 6326 H 575.808 3.10037 -3.87417 0
M  V30 6327 N 574.981 1.5647 0.188427 0
M  V30 6328 C 576.228 1.81013 0.907779 0
M  V30 6329 C 576.556 0.65953 1.82977 0
M  V30 6330 O 575.811 -0.354308 1.92466 0
M  V30 6331 C 576.11 3.11596 1.7505 0
M  V30 6332 C 575.776 4.40145 0.978922 0
M  V30 6333 C 574.438 4.75066 0.765912 0
M  V30 6334 C 576.79 5.19369 0.436498 0
M  V30 6335 C 574.118 5.867 -0.00089868 0
M  V30 6336 C 576.47 6.31805 -0.317136 0
M  V30 6337 C 575.134 6.65303 -0.541103 0
M  V30 6338 H 574.404 0.662373 0.33218 0
M  V30 6339 H 577.051 1.9071 0.173732 0
M  V30 6340 H 575.356 2.97165 2.55343 0
M  V30 6341 H 577.053 3.27793 2.30983 0
M  V30 6342 H 573.643 4.12745 1.15497 0
M  V30 6343 H 577.827 4.92799 0.588449 0
M  V30 6344 H 573.083 6.11122 -0.184329 0
M  V30 6345 H 577.257 6.92406 -0.744788 0
M  V30 6346 H 574.884 7.51646 -1.13718 0
M  V30 6347 N 576.459 -0.456382 1.50847 0
M  V30 6348 C 577.705 -1.20914 1.62811 0
M  V30 6349 C 578.038 -1.91301 0.334304 0
M  V30 6350 O 577.313 -1.82775 -0.665098 0
M  V30 6351 C 577.596 -2.24122 2.81853 0
M  V30 6352 C 577.449 -1.57944 4.21158 0
M  V30 6353 C 578.768 -3.25295 2.96431 0
M  V30 6354 H 575.887 -0.438233 0.592554 0
M  V30 6355 H 578.529 -0.50091 1.83278 0
M  V30 6356 H 576.679 -2.84524 2.64534 0
M  V30 6357 H 578.351 -1.01025 4.50102 0
M  V30 6358 H 576.594 -0.882185 4.24735 0
M  V30 6359 H 577.265 -2.33014 5.00408 0
M  V30 6360 H 579.741 -2.7493 3.12335 0
M  V30 6361 H 578.617 -3.94822 3.81322 0
M  V30 6362 H 578.878 -3.90286 2.07676 0
M  V30 6363 N 577.937 -1.40673 -0.710563 0
M  V30 6364 C 578.885 -1.41517 -1.84596 0
M  V30 6365 C 579.879 -0.295043 -1.66811 0
M  V30 6366 O 581.085 -0.466331 -1.73854 0
M  V30 6367 H 577.46 -0.442467 -0.608052 0
M  V30 6368 H 579.431 -2.37238 -1.80999 0
M  V30 6369 C 578.18 -1.29957 -3.225 0
M  V30 6370 H 577.503 -2.15429 -3.36794 0
M  V30 6371 H 578.943 -1.34608 -4.02066 0
M  V30 6372 C 577.402 -0.0103164 -3.36898 0
M  V30 6373 O 577.932 0.950707 -3.90288 0
M  V30 6374 N 576.138 0.0608409 -2.90536 0
M  V30 6375 H 575.685 -0.721943 -2.47277 0
M  V30 6376 H 575.643 0.92292 -3.00549 0
M  V30 6377 N 579.415 0.9433 -1.26252 0
M  V30 6378 C 580.831 1.21644 -1.03319 0
M  V30 6379 C 581.031 2.0003 0.242983 0
M  V30 6380 O 580.087 2.33838 0.952688 0
M  V30 6381 C 581.4 1.97978 -2.2633 0
M  V30 6382 C 582.948 2.10978 -2.31209 0
M  V30 6383 C 583.423 2.90713 -3.53907 0
M  V30 6384 N 584.914 2.98287 -3.54371 0
M  V30 6385 C 585.649 3.60406 -4.45976 0
M  V30 6386 N 585.145 4.24043 -5.47868 0
M  V30 6387 N 586.938 3.57658 -4.33633 0
M  V30 6388 H 579.089 0.419221 -2.08222 0
M  V30 6389 H 581.352 0.247995 -0.914988 0
M  V30 6390 H 581.058 1.47788 -3.19142 0
M  V30 6391 H 580.932 2.9865 -2.30408 0
M  V30 6392 H 583.319 2.6036 -1.38913 0
M  V30 6393 H 583.4 1.09575 -2.31143 0
M  V30 6394 H 583.044 2.42018 -4.46531 0
M  V30 6395 H 582.974 3.92367 -3.5122 0
M  V30 6396 H 585.465 2.53044 -2.80673 0
M  V30 6397 H 585.778 4.69334 -6.13959 0
M  V30 6398 H 584.123 4.22637 -5.51728 0
M  V30 6399 H 587.314 3.07134 -3.53251 0
M  V30 6400 H 587.487 4.05782 -5.05218 0
M  V30 6401 N 580.893 1.08022 1.14757 0
M  V30 6402 C 581.856 0.71048 2.1791 0
M  V30 6403 C 582.856 -0.252731 1.58801 0
M  V30 6404 O 584.046 -0.0327915 1.74169 0
M  V30 6405 C 581.178 0.0483203 3.40866 0
M  V30 6406 H 582.371 1.62384 2.52134 0
M  V30 6407 H 579.924 0.877595 1.29337 0
M  V30 6408 H 580.659 -0.876959 3.12218 0
M  V30 6409 H 580.444 0.741189 3.85031 0
M  V30 6410 H 581.934 -0.195471 4.17142 0
M  V30 6411 N 582.371 -1.3172 0.865308 0
M  V30 6412 C 583.596 -2.01591 0.487415 0
M  V30 6413 C 584.021 -1.6455 -0.911307 0
M  V30 6414 O 583.379 -0.851689 -1.6005 0
M  V30 6415 C 583.427 -3.54759 0.646401 0
M  V30 6416 O 582.531 -4.11185 -0.316284 0
M  V30 6417 H 581.872 -0.634884 0.194468 0
M  V30 6418 H 584.402 -1.68024 1.16744 0
M  V30 6419 H 584.412 -4.04438 0.537932 0
M  V30 6420 H 583.087 -3.8106 1.66632 0
M  V30 6421 H 581.664 -3.72543 -0.163162 0
M  V30 6422 N 583.85 -0.624285 -1.44708 0
M  V30 6423 C 585.096 -0.126237 -2.02407 0
M  V30 6424 C 585.428 1.24618 -1.48943 0
M  V30 6425 O 584.704 1.82569 -0.670742 0
M  V30 6426 C 584.986 -0.105449 -3.59946 0
M  V30 6427 C 584.84 -1.50972 -4.23707 0
M  V30 6428 C 586.159 0.573629 -4.36346 0
M  V30 6429 H 583.278 -0.0473472 -0.735478 0
M  V30 6430 H 585.92 -0.799452 -1.72362 0
M  V30 6431 H 584.07 0.46783 -3.85673 0
M  V30 6432 H 585.742 -2.13136 -4.0911 0
M  V30 6433 H 583.985 -2.0656 -3.81465 0
M  V30 6434 H 584.656 -1.44727 -5.32689 0
M  V30 6435 H 587.132 0.0861787 -4.16011 0
M  V30 6436 H 586.008 0.557338 -5.46063 0
M  V30 6437 H 586.269 1.64276 -4.10446 0
M  V30 6438 N 585.328 1.53329 -0.364422 0
M  V30 6439 C 586.26 2.23286 0.517293 0
M  V30 6440 C 587.273 1.24657 1.04711 0
M  V30 6441 O 588.462 1.50887 0.95369 0
M  V30 6442 C 585.562 2.91604 1.72685 0
M  V30 6443 C 584.735 4.1673 1.32873 0
M  V30 6444 C 583.794 4.68269 2.40022 0
M  V30 6445 O 582.82 5.31976 2.02461 0
M  V30 6446 N 584.022 4.45983 3.7159 0
M  V30 6447 H 586.787 2.99588 -0.0819391 0
M  V30 6448 H 584.348 1.60787 -0.189544 0
M  V30 6449 H 586.34 3.22992 2.4384 0
M  V30 6450 H 584.91 2.18763 2.23297 0
M  V30 6451 H 584.13 3.91657 0.447069 0
M  V30 6452 H 585.418 4.98078 1.03902 0
M  V30 6453 H 584.816 3.95077 4.04883 0
M  V30 6454 H 583.373 4.81924 4.38854 0
M  V30 6455 N 586.806 0.0935595 1.57322 0
M  V30 6456 C 588.054 -0.569383 1.93913 0
M  V30 6457 C 588.375 -1.68817 0.976009 0
M  V30 6458 O 587.645 -1.9588 0.0278099 0
M  V30 6459 H 586.225 -0.21332 0.715894 0
M  V30 6460 H 588.887 0.156531 1.9427 0
M  V30 6461 H 587.983 -0.980577 2.96296 0
M  V30 6462 N 588.284 -1.56567 -0.180126 0
M  V30 6463 C 589.214 -1.98753 -1.22553 0
M  V30 6464 C 590.195 -0.86175 -1.46656 0
M  V30 6465 O 591.38 -1.12719 -1.58139 0
M  V30 6466 C 588.51 -2.33988 -2.56645 0
M  V30 6467 C 587.464 -3.49445 -2.47128 0
M  V30 6468 C 586.79 -3.70397 -3.8563 0
M  V30 6469 C 588.09 -4.83171 -1.98352 0
M  V30 6470 H 589.784 -2.86332 -0.874896 0
M  V30 6471 H 587.33 -1.37757 -0.419414 0
M  V30 6472 H 589.283 -2.62097 -3.29974 0
M  V30 6473 H 588.007 -1.43309 -2.93479 0
M  V30 6474 H 586.666 -3.2145 -1.76254 0
M  V30 6475 H 586.314 -2.77023 -4.19842 0
M  V30 6476 H 586.014 -4.48077 -3.80132 0
M  V30 6477 H 587.538 -4.00897 -4.60558 0
M  V30 6478 H 588.952 -5.10213 -2.61449 0
M  V30 6479 H 587.349 -5.64425 -2.03823 0
M  V30 6480 H 588.419 -4.75753 -0.937402 0
M  V30 6481 N 589.762 0.448376 -1.51087 0
M  V30 6482 C 590.725 1.52588 -1.71025 0
M  V30 6483 C 591.725 1.49958 -0.580442 0
M  V30 6484 O 592.915 1.52176 -0.847833 0
M  V30 6485 C 590.047 2.92163 -1.75652 0
M  V30 6486 H 591.24 1.36218 -2.67179 0
M  V30 6487 H 588.793 0.676313 -1.4091 0
M  V30 6488 H 589.528 3.13951 -0.812724 0
M  V30 6489 H 589.313 2.95478 -2.57751 0
M  V30 6490 H 590.803 3.70349 -1.92953 0
M  V30 6491 N 591.24 1.41047 0.703093 0
M  V30 6492 C 592.488 1.39723 1.4602 0
M  V30 6493 C 592.809 0.00461257 1.94999 0
M  V30 6494 O 592.079 -0.952292 1.71196 0
M  V30 6495 H 590.659 0.514281 0.541779 0
M  V30 6496 H 593.321 1.76217 0.832678 0
M  V30 6497 H 592.417 2.07982 2.32701 0
M  V30 6498 N 592.718 -0.936591 1.26751 0
M  V30 6499 C 593.681 -2.01752 1.08761 0
M  V30 6500 C 594.681 -1.60763 0.0344435 0
M  V30 6501 O 595.871 -1.71963 0.278258 0
M  V30 6502 C 593.003 -3.34543 0.655271 0
M  V30 6503 H 594.196 -2.19143 2.04735 0
M  V30 6504 H 591.749 -1.11618 1.09413 0
M  V30 6505 H 592.484 -3.22851 -0.30626 0
M  V30 6506 H 592.269 -3.65647 1.41578 0
M  V30 6507 H 593.759 -4.13944 0.551378 0
M  V30 6508 N 594.196 -1.08629 -1.14182 0
M  V30 6509 C 595.443 -0.817345 -1.85272 0
M  V30 6510 C 595.771 0.656917 -1.83071 0
M  V30 6511 O 595.026 1.49897 -1.25815 0
M  V30 6512 C 595.325 -1.28734 -3.3341 0
M  V30 6513 C 594.991 -2.76981 -3.55798 0
M  V30 6514 C 593.653 -3.17469 -3.61617 0
M  V30 6515 C 596.005 -3.72605 -3.64438 0
M  V30 6516 C 593.333 -4.52371 -3.736 0
M  V30 6517 C 595.685 -5.07286 -3.77947 0
M  V30 6518 C 594.349 -5.47376 -3.82016 0
M  V30 6519 H 593.619 -0.299088 -0.677958 0
M  V30 6520 H 596.266 -1.35962 -1.34857 0
M  V30 6521 H 594.571 -0.664702 -3.8612 0
M  V30 6522 H 596.268 -1.05598 -3.86846 0
M  V30 6523 H 592.858 -2.44644 -3.51919 0
M  V30 6524 H 597.042 -3.42443 -3.5923 0
M  V30 6525 H 592.298 -4.82882 -3.75013 0
M  V30 6526 H 596.472 -5.81243 -3.83575 0
M  V30 6527 H 594.099 -6.51906 -3.91054 0
M  V30 6528 N 595.674 1.31259 -0.872281 0
M  V30 6529 C 596.922 1.96233 -0.483409 0
M  V30 6530 C 597.243 1.69276 0.968012 0
M  V30 6531 O 596.513 1.00943 1.67891 0
M  V30 6532 H 595.093 0.726025 -0.175774 0
M  V30 6533 H 597.755 1.60024 -1.11258 0
M  V30 6534 H 596.851 3.05403 -0.643075 0
M  V30 6535 N 597.152 0.631951 1.44375 0
M  V30 6536 C 598.115 -0.0628142 2.29114 0
M  V30 6537 C 599.115 -0.771494 1.41084 0
M  V30 6538 O 600.305 -0.615959 1.62947 0
M  V30 6539 C 597.437 -1.09953 3.22681 0
M  V30 6540 H 598.63 0.682509 2.92031 0
M  V30 6541 H 596.183 0.392128 1.51301 0
M  V30 6542 H 596.918 -1.87481 2.64616 0
M  V30 6543 H 596.703 -0.595286 3.87555 0
M  V30 6544 H 598.193 -1.58538 3.86336 0
M  V30 6545 N 598.631 -1.53133 0.372548 0
M  V30 6546 C 599.541 -2.29671 -0.478379 0
M  V30 6547 C 600.557 -1.35913 -1.08644 0
M  V30 6548 O 601.733 -1.68975 -1.09588 0
M  V30 6549 C 598.798 -3.07625 -1.599 0
M  V30 6550 C 597.859 -4.17061 -1.01776 0
M  V30 6551 C 597.092 -4.91289 -2.08497 0
M  V30 6552 O 597.315 -4.65442 -3.29727 0
M  V30 6553 O 596.249 -5.7705 -1.71164 0
M  V30 6554 H 600.075 -3.03355 0.144649 0
M  V30 6555 H 597.66 -1.48773 0.136729 0
M  V30 6556 H 599.542 -3.56281 -2.25038 0
M  V30 6557 H 598.217 -2.3677 -2.2073 0
M  V30 6558 H 597.124 -3.72641 -0.330098 0
M  V30 6559 H 598.457 -4.90102 -0.453915 0
M  V30 6560 N 600.109 -0.101901 -1.5727 0
M  V30 6561 C 601.52 0.426173 -1.81771 0
M  V30 6562 C 601.871 1.67725 -1.01797 0
M  V30 6563 O 600.996 2.14958 -0.249386 0
M  V30 6564 C 601.591 0.779962 -3.297 0
M  V30 6565 C 600.15 1.25275 -3.54941 0
M  V30 6566 C 599.297 0.252814 -2.76145 0
M  V30 6567 H 602.248 -0.32726 -1.55289 0
M  V30 6568 H 602.269 1.63891 -3.43395 0
M  V30 6569 H 601.781 -0.130778 -3.8788 0
M  V30 6570 H 599.882 2.18097 -3.021 0
M  V30 6571 H 599.995 1.20988 -4.63572 0
M  V30 6572 H 598.359 0.736362 -2.43823 0
M  V30 6573 H 599.142 -0.650724 -3.37076 0
M  V30 6574 N 601.587 1.56661 0.17182 0
M  V30 6575 C 602.55 1.9549 1.19651 0
M  V30 6576 C 603.55 0.838501 1.37207 0
M  V30 6577 O 604.74 1.10556 1.34622 0
M  V30 6578 C 601.872 2.24927 2.56166 0
M  V30 6579 H 603.065 2.87184 0.864007 0
M  V30 6580 H 600.618 1.50711 0.41425 0
M  V30 6581 H 601.353 1.35944 2.94431 0
M  V30 6582 H 601.138 3.06301 2.4479 0
M  V30 6583 H 602.628 2.55891 3.30014 0
M  V30 6584 N 603.065 -0.440357 1.51323 0
M  V30 6585 C 604.476 -1.02032 1.56353 0
M  V30 6586 C 604.827 -1.92382 0.385197 0
M  V30 6587 O 603.952 -2.10583 -0.498373 0
M  V30 6588 C 604.547 -1.85723 2.83359 0
M  V30 6589 C 603.106 -2.38774 2.90971 0
M  V30 6590 C 602.253 -1.17908 2.50984 0
M  V30 6591 H 605.204 -0.221744 1.57143 0
M  V30 6592 H 605.225 -2.71141 2.66951 0
M  V30 6593 H 604.737 -1.19939 3.69102 0
M  V30 6594 H 602.838 -3.08021 2.09651 0
M  V30 6595 H 602.951 -2.71778 3.94555 0
M  V30 6596 H 601.315 -1.52347 2.04114 0
M  V30 6597 H 602.098 -0.537393 3.39068 0
M  V30 6598 N 604.543 -1.41418 -0.695603 0
M  V30 6599 C 605.789 -1.40982 -1.4578 0
M  V30 6600 C 606.122 -0.0187763 -1.94191 0
M  V30 6601 O 605.397 0.95346 -1.69527 0
M  V30 6602 C 605.68 -2.41657 -2.66972 0
M  V30 6603 C 605.533 -3.89869 -2.24327 0
M  V30 6604 C 606.852 -2.39589 -3.69168 0
M  V30 6605 H 603.971 -0.513405 -0.528757 0
M  V30 6606 H 606.613 -1.72693 -0.792275 0
M  V30 6607 H 604.763 -2.14746 -3.23754 0
M  V30 6608 H 606.435 -4.27683 -1.72872 0
M  V30 6609 H 604.678 -4.04737 -1.56111 0
M  V30 6610 H 605.349 -4.55857 -3.11285 0
M  V30 6611 H 607.825 -2.63471 -3.2206 0
M  V30 6612 H 606.701 -3.12044 -4.51575 0
M  V30 6613 H 606.962 -1.41447 -4.18862 0
M  V30 6614 N 606.021 0.929856 -1.27246 0
M  V30 6615 C 606.984 2.01172 -1.09829 0
M  V30 6616 C 607.984 1.60743 -0.0429687 0
M  V30 6617 O 609.174 1.71813 -0.287373 0
M  V30 6618 C 606.306 3.34191 -0.673003 0
M  V30 6619 H 607.499 2.18054 -2.05895 0
M  V30 6620 H 605.052 1.11036 -1.10003 0
M  V30 6621 H 605.787 3.23009 0.289134 0
M  V30 6622 H 605.572 3.64892 -1.43515 0
M  V30 6623 H 607.062 4.13646 -0.573323 0
M  V30 6624 N 607.499 1.09233 1.13605 0
M  V30 6625 C 608.747 0.825525 1.84471 0
M  V30 6626 C 609.068 -0.650702 1.83823 0
M  V30 6627 O 608.338 -1.47204 1.29259 0
M  V30 6628 H 606.918 0.3024 0.683054 0
M  V30 6629 H 609.58 1.38006 1.37624 0
M  V30 6630 H 608.676 1.17727 2.89045 0
M  V30 6631 N 608.977 -1.30795 0.87923 0
M  V30 6632 C 610.388 -1.78535 0.546093 0
M  V30 6633 C 610.739 -1.72354 -0.937467 0
M  V30 6634 O 609.864 -1.2969 -1.73233 0
M  V30 6635 C 610.459 -3.24181 0.9845 0
M  V30 6636 C 609.018 -3.69779 0.702871 0
M  V30 6637 C 608.165 -2.51377 1.17068 0
M  V30 6638 H 611.116 -1.17746 1.06403 0
M  V30 6639 H 611.137 -3.79227 0.311045 0
M  V30 6640 H 610.649 -3.28647 2.06429 0
M  V30 6641 H 608.75 -3.70806 -0.365166 0
M  V30 6642 H 608.863 -4.61507 1.28639 0
M  V30 6643 H 607.227 -2.47768 0.590172 0
M  V30 6644 H 608.01 -2.58584 2.25808 0
M  V30 6645 N 610.455 -0.639598 -1.44038 0
M  V30 6646 C 611.703 -0.147188 -2.01563 0
M  V30 6647 C 612.024 1.2384 -1.50628 0
M  V30 6648 O 611.294 1.82452 -0.713316 0
M  V30 6649 H 609.874 -0.0514231 -0.745228 0
M  V30 6650 H 612.536 -0.828205 -1.76428 0
M  V30 6651 H 611.632 -0.121358 -3.11864 0
M  V30 6652 N 611.933 1.52934 -0.380664 0
M  V30 6653 C 613.349 1.59571 -0.0302429 0
M  V30 6654 C 613.549 1.39509 1.45394 0
M  V30 6655 O 612.605 1.20777 2.21741 0
M  V30 6656 C 613.918 2.96519 -0.499691 0
M  V30 6657 C 615.466 3.09672 -0.455204 0
M  V30 6658 C 615.941 4.49056 -0.900703 0
M  V30 6659 N 617.432 4.55215 -0.856367 0
M  V30 6660 C 618.167 5.61282 -1.17259 0
M  V30 6661 N 617.663 6.75035 -1.55885 0
M  V30 6662 N 619.456 5.51343 -1.0944 0
M  V30 6663 H 611.607 1.64224 -1.347 0
M  V30 6664 H 613.87 0.771033 -0.551554 0
M  V30 6665 H 613.576 3.16388 -1.53595 0
M  V30 6666 H 613.45 3.77052 0.105789 0
M  V30 6667 H 615.837 2.89504 0.571949 0
M  V30 6668 H 615.918 2.31113 -1.09638 0
M  V30 6669 H 615.562 4.69964 -1.92604 0
M  V30 6670 H 615.492 5.26068 -0.236629 0
M  V30 6671 H 617.983 3.73546 -0.572013 0
M  V30 6672 H 618.296 7.51926 -1.784 0
M  V30 6673 H 616.641 6.76388 -1.59764 0
M  V30 6674 H 619.832 4.61356 -0.791713 0
M  V30 6675 H 620.005 6.33905 -1.34417 0
M  V30 6676 N 613.412 0.11024 1.57214 0
M  V30 6677 C 614.637 -0.561179 1.99664 0
M  V30 6678 C 615.062 -1.59985 0.989266 0
M  V30 6679 O 614.42 -1.81255 -0.0402399 0
M  V30 6680 C 614.468 -1.17189 3.41027 0
M  V30 6681 O 613.572 -2.28755 3.4314 0
M  V30 6682 H 612.913 -0.14101 0.648855 0
M  V30 6683 H 615.443 0.196128 2.03658 0
M  V30 6684 H 615.453 -1.50954 3.79047 0
M  V30 6685 H 614.128 -0.411041 4.13864 0
M  V30 6686 H 612.705 -1.96495 3.16929 0
M  V30 6687 N 614.89 -1.56749 -0.16351 0
M  V30 6688 C 616.138 -1.82074 -0.87713 0
M  V30 6689 C 616.459 -0.688503 -1.82441 0
M  V30 6690 O 615.729 0.291085 -1.93725 0
M  V30 6691 H 614.309 -0.671677 -0.326893 0
M  V30 6692 H 616.971 -1.9423 -0.161459 0
M  V30 6693 H 616.067 -2.76407 -1.44934 0
M  V30 6694 N 616.368 0.432326 -1.51554 0
M  V30 6695 C 617.278 1.55023 -1.76082 0
M  V30 6696 C 618.294 1.61593 -0.645265 0
M  V30 6697 O 619.47 1.78742 -0.928086 0
M  V30 6698 C 616.535 2.90964 -1.88523 0
M  V30 6699 C 615.596 2.9447 -3.12388 0
M  V30 6700 C 614.829 4.23926 -3.24225 0
M  V30 6701 O 615.052 5.16576 -2.4188 0
M  V30 6702 O 613.986 4.33818 -4.17235 0
M  V30 6703 H 617.812 1.37238 -2.70923 0
M  V30 6704 H 615.397 0.615845 -1.36117 0
M  V30 6705 H 617.279 3.71633 -1.98662 0
M  V30 6706 H 615.954 3.08865 -0.9687 0
M  V30 6707 H 614.861 2.12737 -3.07723 0
M  V30 6708 H 616.194 2.81514 -4.03746 0
M  V30 6709 N 617.846 1.41785 0.688094 0
M  V30 6710 C 619.257 1.3701 1.26828 0
M  V30 6711 C 619.608 0.056835 1.96118 0
M  V30 6712 O 618.733 -0.84475 1.99231 0
M  V30 6713 C 619.328 2.48168 2.30648 0
M  V30 6714 C 617.887 2.46766 2.84224 0
M  V30 6715 C 617.034 2.27633 1.58361 0
M  V30 6716 H 619.985 1.51192 0.482351 0
M  V30 6717 H 620.006 2.17655 3.121 0
M  V30 6718 H 619.518 3.43735 1.80188 0
M  V30 6719 H 617.619 1.54978 3.3884 0
M  V30 6720 H 617.732 3.43342 3.34145 0
M  V30 6721 H 616.096 1.75648 1.84445 0
M  V30 6722 H 616.879 3.25238 1.09887 0
M  V30 6723 N 619.324 -0.923095 1.27737 0
M  V30 6724 C 620.564 -1.6858 1.15586 0
M  V30 6725 C 620.928 -1.89758 -0.292562 0
M  V30 6726 O 622.129 -2.6339 -0.536583 0
M  V30 6727 C 620.4 -3.01275 1.92271 0
M  V30 6728 S 621.959 -3.924 1.96387 0
M  V30 6729 H 618.777 -0.579069 0.412554 0
M  V30 6730 H 621.379 -1.09866 1.61709 0
M  V30 6731 H 620.083 -2.83556 2.96689 0
M  V30 6732 H 619.614 -3.6504 1.46661 0
M  V30 6733 H 621.629 -4.84667 1.06361 0
M  V30 6734 N 620.802 -1.09834 -1.13024 0
M  V30 6735 C 622.05 -0.835297 -1.8403 0
M  V30 6736 C 622.371 0.640944 -1.84165 0
M  V30 6737 O 621.641 1.46517 -1.30037 0
M  V30 6738 H 620.221 -0.306018 -0.681441 0
M  V30 6739 H 622.883 -1.38734 -1.36891 0
M  V30 6740 H 621.979 -1.19258 -2.88416 0
M  V30 6741 N 622.28 1.30327 -0.886154 0
M  V30 6742 C 623.52 1.97886 -0.511912 0
M  V30 6743 C 623.884 1.68417 0.921944 0
M  V30 6744 O 625.085 2.29319 1.40237 0
M  V30 6745 C 623.356 3.48775 -0.780444 0
M  V30 6746 S 624.915 4.35844 -0.508482 0
M  V30 6747 H 621.733 0.685024 -0.190428 0
M  V30 6748 H 624.335 1.58413 -1.14567 0
M  V30 6749 H 623.039 3.67714 -1.82248 0
M  V30 6750 H 622.57 3.93171 -0.134284 0
M  V30 6751 H 624.585 4.91893 0.65239 0
M  V30 6752 N 623.758 0.647228 1.43697 0
M  V30 6753 C 625.006 0.157876 2.01482 0
M  V30 6754 C 625.327 -1.23039 1.51282 0
M  V30 6755 O 624.597 -1.82071 0.722982 0
M  V30 6756 H 623.177 0.0553745 0.744945 0
M  V30 6757 H 625.839 0.83755 1.75986 0
M  V30 6758 H 624.935 0.137895 3.11795 0
M  V30 6759 N 625.236 -1.5273 0.388769 0
M  V30 6760 C 626.166 -2.29353 -0.438111 0
M  V30 6761 C 627.147 -1.32719 -1.06394 0
M  V30 6762 O 628.332 -1.61612 -1.07681 0
M  V30 6763 C 625.462 -3.09995 -1.56589 0
M  V30 6764 C 624.416 -4.14509 -1.06613 0
M  V30 6765 C 623.742 -4.83372 -2.28594 0
M  V30 6766 C 625.042 -5.22127 -0.134459 0
M  V30 6767 H 626.736 -2.98723 0.201206 0
M  V30 6768 H 624.282 -1.43665 0.0982089 0
M  V30 6769 H 626.235 -3.62357 -2.15118 0
M  V30 6770 H 624.959 -2.38357 -2.23279 0
M  V30 6771 H 623.618 -3.63128 -0.503383 0
M  V30 6772 H 623.266 -4.08283 -2.93792 0
M  V30 6773 H 622.966 -5.54012 -1.95817 0
M  V30 6774 H 624.49 -5.38538 -2.87766 0
M  V30 6775 H 625.904 -5.69851 -0.627914 0
M  V30 6776 H 624.301 -6.00011 0.103534 0
M  V30 6777 H 625.371 -4.77971 0.816798 0
M  V30 6778 N 626.714 -0.118576 -1.57153 0
M  V30 6779 C 628.13 0.238014 -1.57815 0
M  V30 6780 C 628.33 1.66747 -1.13127 0
M  V30 6781 O 627.386 2.38867 -0.818462 0
M  V30 6782 C 628.699 0.00508207 -3.007 0
M  V30 6783 C 630.247 0.0710139 -3.12919 0
M  V30 6784 C 630.722 -0.13422 -4.57803 0
M  V30 6785 N 632.213 -0.0801755 -4.63131 0
M  V30 6786 C 632.948 -0.213885 -5.73001 0
M  V30 6787 N 632.444 -0.403742 -6.91623 0
M  V30 6788 N 634.237 -0.15349 -5.6189 0
M  V30 6789 H 626.388 -1.05226 -1.84503 0
M  V30 6790 H 628.651 -0.414318 -0.852669 0
M  V30 6791 H 628.357 -0.983125 -3.3768 0
M  V30 6792 H 628.231 0.73714 -3.69927 0
M  V30 6793 H 630.618 1.04975 -2.75798 0
M  V30 6794 H 630.699 -0.692918 -2.46236 0
M  V30 6795 H 630.343 -1.10992 -4.95624 0
M  V30 6796 H 630.273 0.649692 -5.22577 0
M  V30 6797 H 632.764 0.0630689 -3.77847 0
M  V30 6798 H 633.077 -0.496645 -7.71202 0
M  V30 6799 H 631.422 -0.43971 -6.93608 0
M  V30 6800 H 634.613 -0.00613174 -4.681 0
M  V30 6801 H 634.786 -0.261138 -6.47474 0
M  V30 6802 N 628.193 1.56834 0.155195 0
M  V30 6803 C 629.103 2.009 1.21146 0
M  V30 6804 C 630.119 0.923029 1.475 0
M  V30 6805 O 631.295 1.23189 1.59331 0
M  V30 6806 C 628.36 2.37378 2.52691 0
M  V30 6807 C 627.421 3.59883 2.34057 0
M  V30 6808 C 626.654 3.94612 3.59329 0
M  V30 6809 O 626.877 3.30104 4.65175 0
M  V30 6810 O 625.811 4.87895 3.52479 0
M  V30 6811 H 629.637 2.9105 0.867371 0
M  V30 6812 H 627.222 1.44916 0.363298 0
M  V30 6813 H 629.104 2.61737 3.3026 0
M  V30 6814 H 627.779 1.50385 2.86646 0
M  V30 6815 H 626.686 3.40722 1.54465 0
M  V30 6816 H 628.019 4.47468 2.0502 0
M  V30 6817 N 629.671 -0.424282 1.51781 0
M  V30 6818 C 630.634 -1.49848 1.73431 0
M  V30 6819 C 631.634 -1.49016 0.604225 0
M  V30 6820 O 632.824 -1.50808 0.871935 0
M  V30 6821 C 629.956 -2.89332 1.80277 0
M  V30 6822 H 631.149 -1.3195 2.69312 0
M  V30 6823 H 628.702 -0.653809 1.41968 0
M  V30 6824 H 629.437 -3.12618 0.862568 0
M  V30 6825 H 629.222 -2.9134 2.62419 0
M  V30 6826 H 630.712 -3.67233 1.98821 0
M  V30 6827 N 631.149 -1.42148 -0.680565 0
M  V30 6828 C 632.395 -1.42521 -1.44277 0
M  V30 6829 C 632.728 -0.0393718 -1.9416 0
M  V30 6830 O 632.003 0.935425 -1.70529 0
M  V30 6831 C 632.286 -2.44475 -2.64394 0
M  V30 6832 C 632.139 -3.92226 -2.20179 0
M  V30 6833 C 633.458 -2.43491 -3.66606 0
M  V30 6834 H 630.577 -0.518985 -0.523282 0
M  V30 6835 H 633.219 -1.73524 -0.773914 0
M  V30 6836 H 631.369 -2.18168 -3.21458 0
M  V30 6837 H 633.041 -4.29493 -1.68327 0
M  V30 6838 H 631.284 -4.0637 -1.5181 0
M  V30 6839 H 631.955 -4.59133 -3.06433 0
M  V30 6840 H 634.431 -2.66872 -3.19247 0
M  V30 6841 H 633.307 -3.16816 -4.4824 0
M  V30 6842 H 633.568 -1.45881 -4.17338 0
M  V30 6843 N 632.627 0.916307 -1.28225 0
M  V30 6844 C 633.904 1.64429 -1.05936 0
M  V30 6845 C 634.284 2.07234 0.402139 0
M  V30 6846 O 633.632 1.81535 1.3877 0
M  V30 6847 C 633.842 2.83773 -2.03159 0
M  V30 6848 C 635.19 3.54852 -2.33164 0
M  V30 6849 O 636.214 2.93918 -2.01223 0
M  V30 6850 O 635.073 4.64663 -2.87664 0
M  V30 6851 H 632.167 0.721221 -0.404683 0
M  V30 6852 H 634.713 0.965838 -1.39534 0
M  V30 6853 H 633.485 2.49217 -3.01673 0
M  V30 6854 H 633.108 3.59333 -1.70192 0
M  V30 6855 N 634.105 1.10431 1.1244 0
M  V30 6856 C 635.353 0.845045 1.83585 0
M  V30 6857 C 635.674 -0.631168 1.84503 0
M  V30 6858 O 634.944 -1.45825 1.30813 0
M  V30 6859 H 633.524 0.309628 0.679809 0
M  V30 6860 H 636.186 1.39458 1.36153 0
M  V30 6861 H 635.282 1.20786 2.8778 0
M  V30 6862 N 635.583 -1.29855 0.893053 0
M  V30 6863 C 636.829 -1.96116 0.516349 0
M  V30 6864 C 637.162 -1.70281 -0.933695 0
M  V30 6865 O 636.437 -1.01205 -1.66096 0
M  V30 6866 C 636.72 -3.51068 0.801455 0
M  V30 6867 C 636.573 -3.86387 2.30272 0
M  V30 6868 C 637.892 -4.39186 0.283423 0
M  V30 6869 H 635.011 -0.712335 0.189072 0
M  V30 6870 H 637.653 -1.53587 1.11852 0
M  V30 6871 H 635.803 -3.87424 0.288949 0
M  V30 6872 H 637.475 -3.60012 2.88425 0
M  V30 6873 H 635.718 -3.34167 2.76613 0
M  V30 6874 H 636.389 -4.94512 2.45279 0
M  V30 6875 H 638.865 -4.09785 0.722187 0
M  V30 6876 H 637.741 -5.46505 0.512169 0
M  V30 6877 H 638.002 -4.34511 -0.815643 0
M  V30 6878 N 637.061 -0.65484 -1.43351 0
M  V30 6879 C 638.477 -0.32255 -1.56307 0
M  V30 6880 C 638.677 1.17324 -1.63821 0
M  V30 6881 O 637.733 1.95813 -1.59417 0
M  V30 6882 C 639.046 -1.03533 -2.82314 0
M  V30 6883 C 640.594 -1.01574 -2.9606 0
M  V30 6884 C 641.069 -1.70945 -4.24902 0
M  V30 6885 N 642.56 -1.67716 -4.3177 0
M  V30 6886 C 643.295 -2.18265 -5.30234 0
M  V30 6887 N 642.791 -2.7711 -6.34966 0
M  V30 6888 N 644.584 -2.08756 -5.21898 0
M  V30 6889 H 636.735 -1.62549 -1.36717 0
M  V30 6890 H 638.998 -0.683676 -0.656727 0
M  V30 6891 H 638.704 -2.09045 -2.8283 0
M  V30 6892 H 638.578 -0.587913 -3.7259 0
M  V30 6893 H 640.965 0.0309834 -2.95084 0
M  V30 6894 H 641.046 -1.50186 -2.07069 0
M  V30 6895 H 640.69 -2.75574 -4.26639 0
M  V30 6896 H 640.62 -1.19797 -5.12793 0
M  V30 6897 H 643.111 -1.24777 -3.56706 0
M  V30 6898 H 643.424 -3.13353 -7.06421 0
M  V30 6899 H 641.769 -2.81171 -6.35585 0
M  V30 6900 H 644.96 -1.62488 -4.38994 0
M  V30 6901 H 645.133 -2.48459 -5.98475 0
M  V30 6902 N 638.539 1.52521 -0.396863 0
M  V30 6903 C 639.786 2.01672 0.182898 0
M  V30 6904 C 640.114 1.28302 1.46181 0
M  V30 6905 O 639.369 0.374118 1.92091 0
M  V30 6906 C 639.668 3.5403 0.489677 0
M  V30 6907 C 639.334 4.45456 -0.698581 0
M  V30 6908 C 637.996 4.70166 -1.02454 0
M  V30 6909 C 640.348 4.99354 -1.49316 0
M  V30 6910 C 637.676 5.46024 -2.1465 0
M  V30 6911 C 640.028 5.76439 -2.60579 0
M  V30 6912 C 638.692 5.99426 -2.93675 0
M  V30 6913 H 637.962 0.737971 0.066927 0
M  V30 6914 H 640.609 1.83853 -0.535764 0
M  V30 6915 H 638.914 3.69963 1.28976 0
M  V30 6916 H 640.611 3.8956 0.951018 0
M  V30 6917 H 637.201 4.26392 -0.434525 0
M  V30 6918 H 641.385 4.80182 -1.25457 0
M  V30 6919 H 636.641 5.62046 -2.40654 0
M  V30 6920 H 640.815 6.17202 -3.22544 0
M  V30 6921 H 638.442 6.57988 -3.80731 0
M  V30 6922 N 640.017 0.126909 1.57088 0
M  V30 6923 C 641.266 -0.529024 1.94639 0
M  V30 6924 C 641.579 -1.67323 1.01304 0
M  V30 6925 O 642.785 -2.39245 1.28352 0
M  V30 6926 C 641.241 -0.992483 3.45945 0
M  V30 6927 C 640.849 0.123691 4.47829 0
M  V30 6928 C 642.593 -1.61934 3.924 0
M  V30 6929 C 640.5 -0.356911 5.90322 0
M  V30 6930 H 639.43 -0.201397 0.726605 0
M  V30 6931 H 642.081 0.208032 1.82317 0
M  V30 6932 H 640.463 -1.7842 3.53528 0
M  V30 6933 H 641.637 0.900168 4.51922 0
M  V30 6934 H 639.952 0.657699 4.11173 0
M  V30 6935 H 642.549 -1.9902 4.96281 0
M  V30 6936 H 642.892 -2.50075 3.32819 0
M  V30 6937 H 643.425 -0.892894 3.8765 0
M  V30 6938 H 640.164 0.488636 6.53676 0
M  V30 6939 H 639.684 -1.0997 5.89633 0
M  V30 6940 H 641.363 -0.815547 6.41839 0
M  V30 6941 N 641.495 -1.56914 -0.146875 0
M  V30 6942 C 642.458 -1.97368 -1.16526 0
M  V30 6943 C 643.458 -0.860223 -1.35856 0
M  V30 6944 O 644.648 -1.12684 -1.32846 0
M  V30 6945 C 641.78 -2.28974 -2.52555 0
M  V30 6946 H 642.973 -2.88523 -0.818209 0
M  V30 6947 H 640.526 -1.5135 -0.390221 0
M  V30 6948 H 641.261 -1.40611 -2.92231 0
M  V30 6949 H 641.046 -3.10157 -2.39886 0
M  V30 6950 H 642.536 -2.61109 -3.25902 0
M  V30 6951 N 642.974 0.416227 -1.52004 0
M  V30 6952 C 644.251 1.17637 -1.56272 0
M  V30 6953 C 644.631 2.08352 -0.339493 0
M  V30 6954 O 643.979 2.1833 0.674124 0
M  V30 6955 C 644.189 1.95986 -2.88774 0
M  V30 6956 C 645.537 2.52299 -3.41512 0
M  V30 6957 O 646.561 2.06174 -2.90467 0
M  V30 6958 O 645.42 3.3648 -4.30631 0
M  V30 6959 H 642.514 0.536726 -0.629169 0
M  V30 6960 H 645.06 0.423583 -1.64329 0
M  V30 6961 H 643.832 1.29487 -3.69254 0
M  V30 6962 H 643.455 2.78285 -2.83978 0
M  V30 6963 N 644.452 1.42507 0.673017 0
M  V30 6964 C 645.402 1.4258 1.77919 0
M  V30 6965 C 646.386 0.296885 1.58137 0
M  V30 6966 O 647.578 0.539243 1.68586 0
M  V30 6967 C 644.707 1.33238 3.1639 0
M  V30 6968 C 643.793 2.51081 3.41788 0
M  V30 6969 N 644.184 3.76498 3.37761 0
M  V30 6970 C 642.482 2.4538 3.72431 0
M  V30 6971 C 643.183 4.54784 3.62693 0
M  V30 6972 N 642.159 3.8522 3.83544 0
M  V30 6973 H 645.961 2.37442 1.73201 0
M  V30 6974 H 643.475 1.36881 0.873924 0
M  V30 6975 H 645.472 1.31372 3.9566 0
M  V30 6976 H 644.132 0.393794 3.22303 0
M  V30 6977 H 645.143 4.09068 3.17622 0
M  V30 6978 H 641.82 1.60109 3.85579 0
M  V30 6979 H 643.21 5.63774 3.65525 0
M  V30 6980 N 645.93 -0.909495 1.28709 0
M  V30 6981 C 646.863 -2.01388 1.07323 0
M  V30 6982 C 647.841 -1.62596 -0.0119757 0
M  V30 6983 O 649.025 -1.88003 0.136796 0
M  V30 6984 C 646.152 -3.32755 0.631797 0
M  V30 6985 C 645.198 -3.90532 1.71428 0
M  V30 6986 S 646.031 -4.20853 3.31124 0
M  V30 6987 C 647.187 -5.55276 2.88825 0
M  V30 6988 H 647.42 -2.19219 2.00824 0
M  V30 6989 H 644.953 -1.05489 1.12745 0
M  V30 6990 H 646.911 -4.08702 0.38381 0
M  V30 6991 H 645.572 -3.12818 -0.283451 0
M  V30 6992 H 644.765 -4.85385 1.35712 0
M  V30 6993 H 644.367 -3.21237 1.91528 0
M  V30 6994 H 646.659 -6.35341 2.3526 0
M  V30 6995 H 647.602 -5.95907 3.82492 0
M  V30 6996 H 648.01 -5.16666 2.27412 0
M  V30 6997 N 647.408 -1.11026 -1.11852 0
M  V30 6998 C 648.824 -0.843294 -1.35502 0
M  V30 6999 C 649.024 0.534179 -1.9429 0
M  V30 7000 O 648.08 1.28585 -2.17307 0
M  V30 7001 C 649.393 -1.94793 -2.29077 0
M  V30 7002 C 650.941 -1.97709 -2.42652 0
M  V30 7003 C 651.416 -3.07364 -3.39546 0
M  V30 7004 N 652.907 -3.0671 -3.47107 0
M  V30 7005 C 653.642 -3.88197 -4.22008 0
M  V30 7006 N 653.138 -4.79635 -4.99922 0
M  V30 7007 N 654.931 -3.76391 -4.17476 0
M  V30 7008 H 647.082 -1.99805 -0.720538 0
M  V30 7009 H 649.345 -0.868633 -0.379711 0
M  V30 7010 H 649.051 -2.93971 -1.93065 0
M  V30 7011 H 648.925 -1.84039 -3.29256 0
M  V30 7012 H 651.312 -0.991604 -2.77941 0
M  V30 7013 H 651.393 -2.1254 -1.4234 0
M  V30 7014 H 651.037 -4.06136 -3.04985 0
M  V30 7015 H 650.967 -2.89774 -4.39703 0
M  V30 7016 H 653.458 -2.40457 -2.91528 0
M  V30 7017 H 653.771 -5.38357 -5.54429 0
M  V30 7018 H 652.116 -4.8366 -4.99097 0
M  V30 7019 H 655.307 -3.04303 -3.55693 0
M  V30 7020 H 655.48 -4.40131 -4.75593 0
M  V30 7021 N 648.886 1.2938 -0.899927 0
M  V30 7022 C 650.111 2.00228 -0.540692 0
M  V30 7023 C 650.536 1.66909 0.867359 0
M  V30 7024 O 649.894 0.893824 1.57735 0
M  V30 7025 C 649.942 3.52921 -0.740232 0
M  V30 7026 O 649.046 4.11879 0.207154 0
M  V30 7027 H 648.387 0.629505 -0.211233 0
M  V30 7028 H 650.917 1.6487 -1.21158 0
M  V30 7029 H 650.927 4.0287 -0.644973 0
M  V30 7030 H 649.602 3.76508 -1.76677 0
M  V30 7031 H 648.179 3.72845 0.0643315 0
M  V30 7032 N 650.364 0.662433 1.43002 0
M  V30 7033 C 651.274 -0.0239199 2.34588 0
M  V30 7034 C 652.29 -0.802255 1.54402 0
M  V30 7035 O 653.466 -0.747401 1.87018 0
M  V30 7036 C 650.531 -0.972098 3.32793 0
M  V30 7037 C 649.592 -0.189673 4.28881 0
M  V30 7038 C 648.825 -1.09269 5.22395 0
M  V30 7039 O 649.048 -2.33209 5.20547 0
M  V30 7040 O 647.982 -0.560136 5.99288 0
M  V30 7041 H 651.808 0.730171 2.94792 0
M  V30 7042 H 649.393 0.422635 1.43297 0
M  V30 7043 H 651.275 -1.51676 3.93157 0
M  V30 7044 H 649.95 -1.70626 2.75079 0
M  V30 7045 H 648.857 0.398794 3.71968 0
M  V30 7046 H 650.19 0.50511 4.89601 0
M  V30 7047 N 651.842 -1.52309 0.404946 0
M  V30 7048 C 653.119 -1.94237 -0.230544 0
M  V30 7049 C 653.499 -1.34154 -1.6299 0
M  V30 7050 O 652.847 -0.515713 -2.22604 0
M  V30 7051 C 653.057 -3.48166 -0.241106 0
M  V30 7052 C 654.405 -4.22074 -0.462488 0
M  V30 7053 O 655.429 -3.54754 -0.320644 0
M  V30 7054 O 654.288 -5.41443 -0.741708 0
M  V30 7055 H 651.382 -0.813766 -0.147358 0
M  V30 7056 H 653.928 -1.6333 0.460587 0
M  V30 7057 H 652.7 -3.84269 0.738467 0
M  V30 7058 H 652.323 -3.85422 -0.97651 0
M  V30 7059 N 653.32 -0.135238 -1.57019 0
M  V30 7060 C 654.597 0.563227 -1.87316 0
M  V30 7061 C 654.977 1.83749 -1.03921 0
M  V30 7062 O 654.325 2.2817 -0.122675 0
M  V30 7063 C 654.535 0.840031 -3.3874 0
M  V30 7064 C 655.883 1.18598 -4.077 0
M  V30 7065 O 656.907 0.92977 -3.43851 0
M  V30 7066 O 655.766 1.66758 -5.20436 0
M  V30 7067 H 652.86 0.285971 -0.775983 0
M  V30 7068 H 655.406 -0.170965 -1.68837 0
M  V30 7069 H 654.178 -0.0622785 -3.9125 0
M  V30 7070 H 653.801 1.62882 -3.62706 0
M  V30 7071 N 654.798 1.5699 0.138552 0
M  V30 7072 C 656.075 1.74741 0.87891 0
M  V30 7073 C 656.455 0.705522 1.98961 0
M  V30 7074 O 655.803 -0.274066 2.2685 0
M  V30 7075 C 656.013 3.1909 1.4136 0
M  V30 7076 C 657.361 3.81023 1.87368 0
M  V30 7077 O 658.385 3.22571 1.51084 0
M  V30 7078 O 657.244 4.83722 2.54312 0
M  V30 7079 H 654.338 0.714781 0.415953 0
M  V30 7080 H 656.884 1.69248 0.123817 0
M  V30 7081 H 655.656 3.86424 0.61579 0
M  V30 7082 H 655.279 3.29043 2.23196 0
M  V30 7083 N 656.276 -0.40816 1.52223 0
M  V30 7084 C 657.208 -1.51642 1.71864 0
M  V30 7085 C 658.221 -1.51378 0.599056 0
M  V30 7086 O 659.41 -1.55626 0.874239 0
M  V30 7087 C 656.51 -2.90534 1.74481 0
M  V30 7088 C 655.683 -3.14979 3.03491 0
M  V30 7089 C 654.742 -4.33749 2.97907 0
M  V30 7090 O 653.768 -4.30982 3.71811 0
M  V30 7091 N 654.97 -5.38912 2.15764 0
M  V30 7092 H 657.735 -1.35188 2.67478 0
M  V30 7093 H 655.296 -0.597468 1.50472 0
M  V30 7094 H 657.288 -3.68056 1.68275 0
M  V30 7095 H 655.858 -3.00441 0.863363 0
M  V30 7096 H 655.078 -2.25492 3.23337 0
M  V30 7097 H 656.366 -3.28156 3.88833 0
M  V30 7098 H 655.764 -5.44008 1.55152 0
M  V30 7099 H 654.321 -6.15174 2.15415 0
M  V30 7100 N 657.755 -1.42862 -0.66545 0
M  V30 7101 C 658.98 -1.47456 -1.45848 0
M  V30 7102 C 659.405 -0.0900312 -1.87884 0
M  V30 7103 O 658.763 0.913587 -1.56599 0
M  V30 7104 C 658.811 -2.41514 -2.67774 0
M  V30 7105 O 657.915 -1.89296 -3.66389 0
M  V30 7106 H 657.256 -0.499236 -0.437789 0
M  V30 7107 H 659.786 -1.8765 -0.815394 0
M  V30 7108 H 659.796 -2.58409 -3.15735 0
M  V30 7109 H 658.471 -3.42099 -2.36519 0
M  V30 7110 H 657.048 -1.82003 -3.25468 0
M  V30 7111 N 659.233 0.902656 -1.29189 0
M  V30 7112 C 660.479 1.65532 -1.17163 0
M  V30 7113 C 660.812 1.92216 0.276879 0
M  V30 7114 O 660.087 1.53048 1.20027 0
M  V30 7115 C 660.37 3.00629 -1.98228 0
M  V30 7116 C 660.223 2.81029 -3.51202 0
M  V30 7117 C 661.542 4.01321 -1.80635 0
M  V30 7118 H 658.661 0.60071 -0.426985 0
M  V30 7119 H 661.303 1.04578 -1.5863 0
M  V30 7120 H 659.453 3.52656 -1.62991 0
M  V30 7121 H 661.125 2.35927 -3.96404 0
M  V30 7122 H 659.368 2.1587 -3.76275 0
M  V30 7123 H 660.039 3.77014 -4.03192 0
M  V30 7124 H 662.515 3.58394 -2.11406 0
M  V30 7125 H 661.391 4.93792 -2.3971 0
M  V30 7126 H 661.652 4.35505 -0.760754 0
M  V30 7127 N 660.711 1.11618 1.11262 0
M  V30 7128 C 661.936 0.889013 1.8738 0
M  V30 7129 C 662.361 -0.555884 1.79698 0
M  V30 7130 O 661.719 -1.39272 1.16073 0
M  V30 7131 C 661.767 1.35759 3.34069 0
M  V30 7132 O 660.871 0.530499 4.08974 0
M  V30 7133 H 660.212 0.320082 0.581759 0
M  V30 7134 H 662.742 1.48611 1.40627 0
M  V30 7135 H 662.752 1.35291 3.84916 0
M  V30 7136 H 661.427 2.40973 3.38976 0
M  V30 7137 H 660.004 0.601439 3.68018 0
M  V30 7138 N 662.189 -1.289 0.906776 0
M  V30 7139 C 663.099 -2.31256 0.394707 0
M  V30 7140 C 664.115 -1.66231 -0.514121 0
M  V30 7141 O 665.291 -1.97347 -0.401994 0
M  V30 7142 C 662.356 -3.44792 -0.363191 0
M  V30 7143 C 661.417 -4.25391 0.578012 0
M  V30 7144 C 660.65 -5.33506 -0.143811 0
M  V30 7145 O 660.873 -5.53786 -1.36665 0
M  V30 7146 O 659.807 -5.99673 0.5173 0
M  V30 7147 H 663.633 -2.77051 1.24405 0
M  V30 7148 H 661.218 -1.33466 0.671346 0
M  V30 7149 H 663.1 -4.139 -0.791503 0
M  V30 7150 H 661.775 -3.01093 -1.18848 0
M  V30 7151 H 660.682 -3.58899 1.05558 0
M  V30 7152 H 662.015 -4.72752 1.36992 0
M  V30 7153 N 663.667 -0.670007 -1.42649 0
M  V30 7154 C 664.944 -0.119451 -1.95235 0
M  V30 7155 C 665.324 1.36461 -1.61064 0
M  V30 7156 O 664.672 2.09843 -0.904329 0
M  V30 7157 C 664.882 -0.383498 -3.46887 0
M  V30 7158 C 666.23 -0.297431 -4.23557 0
M  V30 7159 O 667.254 -0.31698 -3.54787 0
M  V30 7160 O 666.113 -0.235507 -5.45992 0
M  V30 7161 H 663.207 -8.85474e-05 -0.827 0
M  V30 7162 H 665.753 -0.744406 -1.52501 0
M  V30 7163 H 664.525 -1.41174 -3.64946 0
M  V30 7164 H 664.148 0.273702 -3.96657 0
M  V30 7165 N 665.145 1.52092 -0.413018 0
M  V30 7166 C 666.391 2.02815 0.154104 0
M  V30 7167 C 666.746 1.293 1.42475 0
M  V30 7168 O 666.039 0.391835 1.87551 0
M  V30 7169 C 666.233 3.54529 0.4521 0
M  V30 7170 C 666.062 4.4274 -0.788116 0
M  V30 7171 C 664.832 4.87903 -1.31447 0
M  V30 7172 C 667.03 4.86522 -1.66735 0
M  V30 7173 N 665.012 5.60254 -2.50976 0
M  V30 7174 C 666.383 5.57692 -2.70886 0
M  V30 7175 C 668.438 4.68534 -1.68465 0
M  V30 7176 C 667.141 6.12783 -3.76682 0
M  V30 7177 C 669.167 5.24524 -2.73182 0
M  V30 7178 C 668.529 5.9562 -3.76054 0
M  V30 7179 H 664.628 0.781796 0.0178567 0
M  V30 7180 H 667.212 1.86223 -0.568237 0
M  V30 7181 H 665.383 3.71186 1.14348 0
M  V30 7182 H 667.115 3.91934 1.00844 0
M  V30 7183 H 663.87 4.65504 -0.871931 0
M  V30 7184 H 664.294 6.01069 -3.11521 0
M  V30 7185 H 668.936 4.13051 -0.902708 0
M  V30 7186 H 666.654 6.67335 -4.55729 0
M  V30 7187 H 670.24 5.12473 -2.75433 0
M  V30 7188 H 669.12 6.38169 -4.55752 0
M  V30 7189 N 666.623 0.143563 1.56945 0
M  V30 7190 C 667.57 -0.797433 2.16586 0
M  V30 7191 C 668.54 -1.24654 1.09775 0
M  V30 7192 O 669.725 -1.31968 1.37801 0
M  V30 7193 C 666.865 -2.03253 2.78895 0
M  V30 7194 C 665.978 -1.62954 4.00087 0
M  V30 7195 C 665.113 -2.81617 4.50406 0
M  V30 7196 C 664.152 -2.37675 5.64072 0
M  V30 7197 N 663.289 -3.49335 6.09023 0
M  V30 7198 H 668.129 -0.282023 2.96662 0
M  V30 7199 H 665.666 -0.127494 1.46546 0
M  V30 7200 H 667.624 -2.75653 3.13163 0
M  V30 7201 H 666.254 -2.52211 2.01469 0
M  V30 7202 H 665.306 -0.803322 3.71821 0
M  V30 7203 H 666.618 -1.26679 4.82446 0
M  V30 7204 H 665.772 -3.62212 4.86711 0
M  V30 7205 H 664.511 -3.21134 3.67048 0
M  V30 7206 H 663.516 -1.55519 5.27346 0
M  V30 7207 H 664.741 -1.99247 6.49213 0
M  V30 7208 H 662.687 -3.8848 5.28601 0
M  V30 7209 H 662.604 -3.17064 6.86299 0
M  V30 7210 H 663.872 -4.30297 6.49973 0
M  V30 7211 N 668.101 -1.57061 -0.130224 0
M  V30 7212 C 669.331 -1.88159 -0.853217 0
M  V30 7213 C 669.739 -0.731675 -1.7448 0
M  V30 7214 O 669.082 0.307035 -1.81116 0
M  V30 7215 C 669.144 -3.1415 -1.74785 0
M  V30 7216 C 668.808 -4.45202 -1.03173 0
M  V30 7217 C 669.805 -5.18526 -0.377759 0
M  V30 7218 C 667.49 -4.91912 -1.01624 0
M  V30 7219 C 669.484 -6.36775 0.282123 0
M  V30 7220 C 667.171 -6.10082 -0.352555 0
M  V30 7221 C 668.169 -6.82361 0.295483 0
M  V30 7222 O 667.857 -7.98284 0.948606 0
M  V30 7223 H 667.589 -0.627596 -0.251197 0
M  V30 7224 H 670.143 -2.05034 -0.1226 0
M  V30 7225 H 668.373 -2.93328 -2.51983 0
M  V30 7226 H 670.062 -3.31359 -2.34427 0
M  V30 7227 H 670.828 -4.83498 -0.381417 0
M  V30 7228 H 666.707 -4.35566 -1.51007 0
M  V30 7229 H 670.251 -6.93129 0.788525 0
M  V30 7230 H 666.148 -6.44569 -0.346621 0
M  V30 7231 H 666.916 -8.14054 0.851954 0
M  V30 7232 N 669.579 0.400081 -1.52437 0
M  V30 7233 C 670.825 1.14788 -1.67187 0
M  V30 7234 C 671.158 1.89928 -0.405074 0
M  V30 7235 O 670.433 1.85118 0.596804 0
M  V30 7236 C 670.716 2.13507 -2.89977 0
M  V30 7237 C 670.569 1.42204 -4.2673 0
M  V30 7238 C 671.888 3.14069 -3.083 0
M  V30 7239 H 669.007 0.415939 -0.608411 0
M  V30 7240 H 671.649 0.432542 -1.85011 0
M  V30 7241 H 669.799 2.7451 -2.74912 0
M  V30 7242 H 671.471 0.842503 -4.53541 0
M  V30 7243 H 669.714 0.723939 -4.27717 0
M  V30 7244 H 670.385 2.14281 -5.08712 0
M  V30 7245 H 672.861 2.63148 -3.22323 0
M  V30 7246 H 671.737 3.80398 -3.95713 0
M  V30 7247 H 671.998 3.82309 -2.22018 0
M  V30 7248 N 671.057 1.43213 0.657864 0
M  V30 7249 C 672.02 1.47687 1.75275 0
M  V30 7250 C 673.02 0.362179 1.56668 0
M  V30 7251 O 674.21 0.623734 1.62651 0
M  V30 7252 C 671.342 1.32497 3.14098 0
M  V30 7253 H 672.535 2.4519 1.7269 0
M  V30 7254 H 670.088 1.2991 0.869087 0
M  V30 7255 H 670.823 0.359831 3.22298 0
M  V30 7256 H 670.608 2.13299 3.29008 0
M  V30 7257 H 672.098 1.38549 3.93946 0
M  V30 7258 N 672.536 -0.895792 1.29666 0
M  V30 7259 C 673.469 -2.00238 1.09453 0
M  V30 7260 C 674.447 -1.62599 0.00527044 0
M  V30 7261 O 675.631 -1.87847 0.156729 0
M  V30 7262 C 672.758 -3.32066 0.667054 0
M  V30 7263 C 671.804 -3.88691 1.7556 0
M  V30 7264 S 672.637 -4.17317 3.35569 0
M  V30 7265 C 673.793 -5.52181 2.94698 0
M  V30 7266 H 674.026 -2.17076 2.03138 0
M  V30 7267 H 671.559 -1.04287 1.13858 0
M  V30 7268 H 673.517 -4.08272 0.427136 0
M  V30 7269 H 672.178 -3.13101 -0.250256 0
M  V30 7270 H 671.371 -4.83918 1.40853 0
M  V30 7271 H 670.973 -3.19187 1.94924 0
M  V30 7272 H 673.265 -6.3281 2.41986 0
M  V30 7273 H 674.208 -5.91817 3.88791 0
M  V30 7274 H 674.616 -5.14225 2.32879 0
M  V30 7275 N 674.014 -1.12206 -1.10668 0
M  V30 7276 C 675.26 -0.877172 -1.82848 0
M  V30 7277 C 675.593 0.595571 -1.84842 0
M  V30 7278 O 674.868 1.44013 -1.30731 0
M  V30 7279 C 675.151 -1.44957 -3.29635 0
M  V30 7280 C 675.004 -2.99051 -3.35989 0
M  V30 7281 C 676.323 -1.10714 -4.25946 0
M  V30 7282 H 673.442 -0.320103 -0.663854 0
M  V30 7283 H 676.084 -1.38827 -1.2972 0
M  V30 7284 H 674.234 -1.01488 -3.7501 0
M  V30 7285 H 675.906 -3.51182 -2.99113 0
M  V30 7286 H 674.149 -3.34705 -2.75962 0
M  V30 7287 H 674.82 -3.34194 -4.39339 0
M  V30 7288 H 677.296 -1.48254 -3.88793 0
M  V30 7289 H 676.172 -1.5343 -5.2702 0
M  V30 7290 H 676.433 -0.019 -4.42096 0
M  V30 7291 N 675.492 1.28418 -0.913599 0
M  V30 7292 C 676.741 1.94265 -0.542572 0
M  V30 7293 C 677.054 1.72709 0.918207 0
M  V30 7294 O 678.26 2.32778 1.39738 0
M  V30 7295 C 676.716 3.47956 -0.919507 0
M  V30 7296 C 676.324 3.78291 -2.4 0
M  V30 7297 C 678.068 4.19962 -0.619057 0
M  V30 7298 C 675.975 5.2529 -2.71707 0
M  V30 7299 H 674.905 0.727213 -0.199192 0
M  V30 7300 H 677.556 1.45931 -1.11249 0
M  V30 7301 H 675.938 3.9502 -0.278372 0
M  V30 7302 H 677.112 3.42035 -3.08786 0
M  V30 7303 H 675.427 3.19456 -2.67089 0
M  V30 7304 H 678.024 5.28178 -0.832623 0
M  V30 7305 H 678.367 4.13935 0.443126 0
M  V30 7306 H 678.9 3.78674 -1.21865 0
M  V30 7307 H 675.639 5.36394 -3.76778 0
M  V30 7308 H 675.159 5.62743 -2.07559 0
M  V30 7309 H 676.838 5.93027 -2.58703 0
M  V30 7310 N 676.97 0.677563 1.42291 0
M  V30 7311 C 678.247 0.129803 1.95169 0
M  V30 7312 C 678.627 -1.35605 1.61786 0
M  V30 7313 O 677.975 -2.09361 0.915444 0
M  V30 7314 C 678.185 0.401889 3.46678 0
M  V30 7315 C 679.533 0.319889 4.23393 0
M  V30 7316 O 680.557 0.33579 3.54614 0
M  V30 7317 O 679.416 0.264459 5.4586 0
M  V30 7318 H 676.51 0.00447433 0.826988 0
M  V30 7319 H 679.056 0.752483 1.52105 0
M  V30 7320 H 677.828 1.43108 3.64192 0
M  V30 7321 H 677.451 -0.252662 3.96796 0
M  V30 7322 N 678.448 -1.51871 0.421078 0
M  V30 7323 C 679.864 -1.59435 0.0725398 0
M  V30 7324 C 680.064 -1.43315 -1.41644 0
M  V30 7325 O 679.12 -1.26614 -2.18461 0
M  V30 7326 C 680.433 -2.9509 0.578132 0
M  V30 7327 C 681.981 -3.08356 0.537149 0
M  V30 7328 C 682.456 -4.4651 1.01945 0
M  V30 7329 N 683.947 -4.52784 0.976758 0
M  V30 7330 C 684.682 -5.57976 1.32099 0
M  V30 7331 N 684.178 -6.70664 1.73727 0
M  V30 7332 N 685.971 -5.48248 1.2402 0
M  V30 7333 H 678.122 -1.60595 1.39007 0
M  V30 7334 H 680.385 -0.756138 0.571803 0
M  V30 7335 H 680.091 -3.12205 1.61929 0
M  V30 7336 H 679.965 -3.772 -0.00578374 0
M  V30 7337 H 682.352 -2.90919 -0.494991 0
M  V30 7338 H 682.433 -2.28125 1.15727 0
M  V30 7339 H 682.077 -4.64692 2.04997 0
M  V30 7340 H 682.007 -5.25256 0.376023 0
M  V30 7341 H 684.498 -3.71898 0.670851 0
M  V30 7342 H 684.811 -7.46932 1.98274 0
M  V30 7343 H 683.156 -6.71914 1.77641 0
M  V30 7344 H 686.347 -4.59095 0.913756 0
M  V30 7345 H 686.52 -6.30119 1.51176 0
M  V30 7346 N 679.926 -0.151884 -1.56866 0
M  V30 7347 C 680.856 0.781943 -2.20018 0
M  V30 7348 C 681.837 1.25347 -1.14987 0
M  V30 7349 O 683.022 1.31015 -1.43348 0
M  V30 7350 C 680.152 2.01928 -2.82564 0
M  V30 7351 C 679.106 1.68434 -3.93464 0
M  V30 7352 C 678.432 2.99472 -4.42968 0
M  V30 7353 C 679.732 0.927244 -5.14003 0
M  V30 7354 H 681.426 0.255607 -2.98307 0
M  V30 7355 H 678.972 0.121502 -1.43486 0
M  V30 7356 H 680.925 2.67741 -3.25411 0
M  V30 7357 H 679.649 2.56943 -2.01614 0
M  V30 7358 H 678.308 1.04998 -3.51242 0
M  V30 7359 H 677.956 3.52488 -3.58834 0
M  V30 7360 H 677.656 2.77823 -5.17772 0
M  V30 7361 H 679.18 3.66348 -4.88489 0
M  V30 7362 H 680.594 1.48756 -5.53665 0
M  V30 7363 H 678.991 0.810513 -5.94601 0
M  V30 7364 H 680.061 -0.0801163 -4.84834 0
M  V30 7365 N 681.404 1.57128 0.121893 0
M  V30 7366 C 682.651 1.847 0.830188 0
M  V30 7367 C 682.979 0.736543 1.80015 0
M  V30 7368 O 682.234 -0.272358 1.93796 0
M  V30 7369 C 682.533 3.1874 1.61677 0
M  V30 7370 C 682.199 4.43901 0.791361 0
M  V30 7371 C 680.861 4.77887 0.563731 0
M  V30 7372 C 683.213 5.20753 0.215823 0
M  V30 7373 C 680.541 5.86168 -0.249737 0
M  V30 7374 C 682.893 6.29891 -0.584821 0
M  V30 7375 C 681.557 6.6241 -0.822794 0
M  V30 7376 H 680.827 0.675866 0.303787 0
M  V30 7377 H 683.474 1.91276 0.0926894 0
M  V30 7378 H 681.779 3.07728 2.42509 0
M  V30 7379 H 683.476 3.37295 2.16872 0
M  V30 7380 H 680.066 4.17272 0.978867 0
M  V30 7381 H 684.25 4.94851 0.378907 0
M  V30 7382 H 679.506 6.0979 -0.44336 0
M  V30 7383 H 683.68 6.88624 -1.03779 0
M  V30 7384 H 681.307 7.46147 -1.45496 0
M  V30 7385 N 682.882 -0.391992 1.52647 0
M  V30 7386 C 683.812 -1.48517 1.8018 0
M  V30 7387 C 684.793 -1.57039 0.653667 0
M  V30 7388 O 685.978 -1.72036 0.900962 0
M  V30 7389 C 683.108 -2.86161 1.96797 0
M  V30 7390 C 682.062 -2.92481 3.12472 0
M  V30 7391 C 681.388 -4.32546 3.14338 0
M  V30 7392 C 682.688 -2.624 4.51601 0
M  V30 7393 H 684.382 -1.25726 2.71723 0
M  V30 7394 H 681.928 -0.603387 1.30749 0
M  V30 7395 H 683.881 -3.62639 2.14641 0
M  V30 7396 H 682.605 -3.10283 1.01941 0
M  V30 7397 H 681.264 -2.18451 2.94406 0
M  V30 7398 H 680.912 -4.53703 2.1717 0
M  V30 7399 H 680.612 -4.37695 3.92042 0
M  V30 7400 H 682.136 -5.10934 3.34333 0
M  V30 7401 H 683.55 -3.28596 4.69785 0
M  V30 7402 H 681.947 -2.78903 5.3135 0
M  V30 7403 H 683.017 -1.57754 4.58521 0
M  V30 7404 N 684.36 -1.4356 -0.65026 0
M  V30 7405 C 685.606 -1.46545 -1.41054 0
M  V30 7406 C 685.961 -0.0894113 -1.92192 0
M  V30 7407 O 685.254 0.892427 -1.69547 0
M  V30 7408 C 685.448 -2.44528 -2.60654 0
M  V30 7409 C 685.277 -3.91524 -2.21222 0
M  V30 7410 C 684.047 -4.59866 -2.09408 0
M  V30 7411 C 686.245 -4.81276 -1.81323 0
M  V30 7412 N 684.227 -5.91772 -1.63337 0
M  V30 7413 C 685.598 -6.02478 -1.46356 0
M  V30 7414 C 687.653 -4.6851 -1.68532 0
M  V30 7415 C 686.356 -7.12332 -0.998805 0
M  V30 7416 C 688.382 -5.78369 -1.23461 0
M  V30 7417 C 687.744 -6.98699 -0.894337 0
M  V30 7418 H 683.843 -0.59135 -0.511693 0
M  V30 7419 H 686.427 -1.79759 -0.747978 0
M  V30 7420 H 684.598 -2.13336 -3.24565 0
M  V30 7421 H 686.33 -2.37932 -3.27369 0
M  V30 7422 H 683.085 -4.14412 -2.29259 0
M  V30 7423 H 683.509 -6.61799 -1.42655 0
M  V30 7424 H 688.151 -3.75933 -1.93479 0
M  V30 7425 H 685.869 -8.04734 -0.736835 0
M  V30 7426 H 689.455 -5.70512 -1.1405 0
M  V30 7427 H 688.335 -7.82263 -0.550901 0
M  V30 7428 N 685.838 0.888903 -1.30139 0
M  V30 7429 C 687.087 1.63507 -1.18103 0
M  V30 7430 C 687.4 1.93808 0.264141 0
M  V30 7431 O 688.606 2.66744 0.505966 0
M  V30 7432 C 687.062 2.94673 -2.0663 0
M  V30 7433 C 686.67 2.71926 -3.56034 0
M  V30 7434 C 688.414 3.72626 -2.03346 0
M  V30 7435 C 686.321 3.98884 -4.3663 0
M  V30 7436 H 685.251 0.613426 -0.438435 0
M  V30 7437 H 687.902 0.984427 -1.54859 0
M  V30 7438 H 686.284 3.61009 -1.62754 0
M  V30 7439 H 687.458 2.14116 -4.08033 0
M  V30 7440 H 685.773 2.07353 -3.61101 0
M  V30 7441 H 688.37 4.66775 -2.60816 0
M  V30 7442 H 688.713 4.03712 -1.016 0
M  V30 7443 H 689.246 3.13147 -2.45324 0
M  V30 7444 H 685.985 3.72959 -5.39056 0
M  V30 7445 H 685.505 4.56214 -3.89396 0
M  V30 7446 H 687.184 4.66938 -4.47859 0
M  V30 7447 N 687.317 1.12792 1.10072 0
M  V30 7448 C 688.564 0.885545 1.82111 0
M  V30 7449 C 688.892 -0.588519 1.85383 0
M  V30 7450 O 688.147 -1.45124 1.31292 0
M  V30 7451 C 688.446 1.4102 3.28403 0
M  V30 7452 C 688.112 2.89995 3.45273 0
M  V30 7453 C 686.774 3.30671 3.49585 0
M  V30 7454 C 689.126 3.85874 3.50358 0
M  V30 7455 C 686.454 4.65925 3.56553 0
M  V30 7456 C 688.806 5.20963 3.58859 0
M  V30 7457 C 687.47 5.61177 3.61437 0
M  V30 7458 H 686.74 0.324044 0.666391 0
M  V30 7459 H 689.387 1.40874 1.29718 0
M  V30 7460 H 687.692 0.807551 3.83387 0
M  V30 7461 H 689.389 1.19882 3.82661 0
M  V30 7462 H 685.979 2.57537 3.42597 0
M  V30 7463 H 690.163 3.5554 3.46273 0
M  V30 7464 H 685.419 4.96468 3.56833 0
M  V30 7465 H 689.593 5.95079 3.61738 0
M  V30 7466 H 687.22 6.6597 3.66589 0
M  V30 7467 N 688.795 -1.27931 0.920396 0
M  V30 7468 C 690.041 -1.94977 0.557832 0
M  V30 7469 C 690.374 -1.72224 -0.897365 0
M  V30 7470 O 689.649 -1.04705 -1.63912 0
M  V30 7471 C 689.932 -3.49289 0.875741 0
M  V30 7472 C 689.785 -3.81416 2.38416 0
M  V30 7473 C 691.104 -4.38486 0.376517 0
M  V30 7474 H 688.223 -0.708164 0.20414 0
M  V30 7475 H 690.865 -1.5118 1.15085 0
M  V30 7476 H 689.015 -3.86724 0.371062 0
M  V30 7477 H 690.687 -3.53813 2.95997 0
M  V30 7478 H 688.93 -3.28225 2.83639 0
M  V30 7479 H 689.601 -4.89198 2.55713 0
M  V30 7480 H 692.077 -4.08161 0.808945 0
M  V30 7481 H 690.953 -5.45296 0.627976 0
M  V30 7482 H 691.214 -4.36143 -0.723293 0
M  V30 7483 N 690.273 -0.685099 -1.4193 0
M  V30 7484 C 691.52 -0.211658 -2.01391 0
M  V30 7485 C 691.848 1.18526 -1.54214 0
M  V30 7486 O 691.103 1.81189 -0.739519 0
M  V30 7487 C 691.402 -0.206154 -3.56805 0
M  V30 7488 C 691.068 -1.54915 -4.23453 0
M  V30 7489 C 689.73 -1.91684 -4.41373 0
M  V30 7490 C 692.082 -2.43317 -4.60919 0
M  V30 7491 C 689.41 -3.16461 -4.94034 0
M  V30 7492 C 691.762 -3.67415 -5.14965 0
M  V30 7493 C 690.426 -4.04341 -5.31098 0
M  V30 7494 H 689.696 -0.0774511 -0.736941 0
M  V30 7495 H 692.343 -0.882121 -1.69973 0
M  V30 7496 H 690.648 0.547841 -3.87951 0
M  V30 7497 H 692.345 0.17753 -4.00607 0
M  V30 7498 H 688.935 -1.25314 -4.09871 0
M  V30 7499 H 693.119 -2.16192 -4.46738 0
M  V30 7500 H 688.375 -3.45078 -5.04709 0
M  V30 7501 H 692.549 -4.3611 -5.42938 0
M  V30 7502 H 690.176 -5.01101 -5.71666 0
M  V30 7503 N 691.751 1.51645 -0.429126 0
M  V30 7504 C 692.997 2.02314 0.140286 0
M  V30 7505 C 693.33 1.31314 1.43074 0
M  V30 7506 O 692.605 0.425531 1.89788 0
M  V30 7507 C 692.888 3.5822 0.36749 0
M  V30 7508 C 692.741 4.39846 -0.941039 0
M  V30 7509 C 694.06 4.25055 1.14089 0
M  V30 7510 H 691.179 0.735335 0.0495112 0
M  V30 7511 H 693.821 1.81358 -0.566514 0
M  V30 7512 H 691.971 3.76207 0.969556 0
M  V30 7513 H 693.643 4.33527 -1.57646 0
M  V30 7514 H 691.886 4.05259 -1.54751 0
M  V30 7515 H 692.557 5.47069 -0.73621 0
M  V30 7516 H 695.033 4.11288 0.630986 0
M  V30 7517 H 693.909 5.34038 1.26863 0
M  V30 7518 H 694.17 3.85358 2.16683 0
M  V30 7519 N 693.229 0.160201 1.56784 0
M  V30 7520 C 694.469 -0.490179 1.98435 0
M  V30 7521 C 694.833 -1.61164 1.04355 0
M  V30 7522 O 696.034 -2.3238 1.35103 0
M  V30 7523 C 694.305 -0.971106 3.43954 0
M  V30 7524 S 695.864 -1.62423 4.07632 0
M  V30 7525 H 692.682 -0.158056 0.693209 0
M  V30 7526 H 695.284 0.255036 1.93829 0
M  V30 7527 H 693.988 -0.144323 4.10146 0
M  V30 7528 H 693.519 -1.75063 3.52302 0
M  V30 7529 H 695.534 -2.91199 4.01768 0
M  V30 7530 N 694.707 -1.5719 -0.113559 0
M  V30 7531 C 695.953 -1.85412 -0.821597 0
M  V30 7532 C 696.286 -0.746722 -1.7927 0
M  V30 7533 O 695.561 0.246971 -1.92926 0
M  V30 7534 C 695.844 -3.24233 -1.56669 0
M  V30 7535 C 695.697 -4.45578 -0.614823 0
M  V30 7536 C 697.016 -3.60697 -2.52161 0
M  V30 7537 H 694.135 -0.674406 -0.29723 0
M  V30 7538 H 696.777 -1.89807 -0.085694 0
M  V30 7539 H 694.927 -3.20617 -2.19401 0
M  V30 7540 H 696.599 -4.613 0.00407137 0
M  V30 7541 H 694.842 -4.33738 0.0732332 0
M  V30 7542 H 695.513 -5.39395 -1.17292 0
M  V30 7543 H 697.989 -3.65139 -1.99532 0
M  V30 7544 H 696.865 -4.58798 -3.01323 0
M  V30 7545 H 697.126 -2.88403 -3.35076 0
M  V30 7546 N 696.185 0.383891 -1.52853 0
M  V30 7547 C 697.432 1.12842 -1.68146 0
M  V30 7548 C 697.76 1.89823 -0.423954 0
M  V30 7549 O 697.015 1.86475 0.593765 0
M  V30 7550 C 697.314 2.12881 -2.87082 0
M  V30 7551 C 696.98 1.52519 -4.24322 0
M  V30 7552 C 695.642 1.35783 -4.61645 0
M  V30 7553 C 697.994 1.0868 -5.09743 0
M  V30 7554 C 695.322 0.737643 -5.82044 0
M  V30 7555 C 697.674 0.480699 -6.30771 0
M  V30 7556 C 696.338 0.300681 -6.66822 0
M  V30 7557 H 695.608 0.412917 -0.615289 0
M  V30 7558 H 698.255 0.412416 -1.87006 0
M  V30 7559 H 696.56 2.90719 -2.62659 0
M  V30 7560 H 698.257 2.70408 -2.96109 0
M  V30 7561 H 694.847 1.66534 -3.94923 0
M  V30 7562 H 699.031 1.2041 -4.81472 0
M  V30 7563 H 694.287 0.586415 -6.08581 0
M  V30 7564 H 698.461 0.132733 -6.96273 0
M  V30 7565 H 696.088 -0.181966 -7.59982 0
M  V30 7566 N 697.663 1.43903 0.642637 0
M  V30 7567 C 698.911 1.45791 1.39962 0
M  V30 7568 C 699.232 0.0873144 1.94804 0
M  V30 7569 O 698.502 -0.878825 1.75081 0
M  V30 7570 H 697.082 0.536797 0.519479 0
M  V30 7571 H 699.744 1.7959 0.757189 0
M  V30 7572 H 698.84 2.17665 2.2367 0
M  V30 7573 N 699.141 -0.881989 1.30609 0
M  V30 7574 C 700.369 -1.66711 1.22536 0
M  V30 7575 C 700.784 -1.87614 -0.2113 0
M  V30 7576 O 700.141 -1.42576 -1.13923 0
M  V30 7577 C 700.192 -3.04182 1.95335 0
M  V30 7578 O 699.913 -2.8422 3.33393 0
M  V30 7579 C 701.414 -3.98617 1.93956 0
M  V30 7580 H 698.634 -0.520124 0.423925 0
M  V30 7581 H 701.178 -1.10174 1.72285 0
M  V30 7582 H 699.333 -3.57442 1.49378 0
M  V30 7583 H 699.747 -3.71452 3.70302 0
M  V30 7584 H 701.221 -4.92433 2.49426 0
M  V30 7585 H 701.698 -4.29473 0.919198 0
M  V30 7586 H 702.304 -3.51292 2.39738 0
M  V30 7587 N 700.619 -1.13374 -1.09472 0
M  V30 7588 C 701.868 -0.889844 -1.8101 0
M  V30 7589 C 702.181 0.585686 -1.86625 0
M  V30 7590 O 703.387 0.946497 -2.54467 0
M  V30 7591 C 701.843 -1.54241 -3.25174 0
M  V30 7592 C 701.451 -3.05343 -3.27826 0
M  V30 7593 C 703.195 -1.37919 -4.0147 0
M  V30 7594 C 701.102 -3.63486 -4.6651 0
M  V30 7595 H 700.032 -0.329256 -0.678311 0
M  V30 7596 H 702.683 -1.36139 -1.23038 0
M  V30 7597 H 701.065 -0.998525 -3.83204 0
M  V30 7598 H 702.239 -3.66307 -2.79563 0
M  V30 7599 H 700.554 -3.21175 -2.65019 0
M  V30 7600 H 703.151 -1.78771 -5.03929 0
M  V30 7601 H 703.494 -0.323987 -4.15037 0
M  V30 7602 H 704.027 -1.89284 -3.49881 0
M  V30 7603 H 700.766 -4.68811 -4.58145 0
M  V30 7604 H 700.286 -3.073 -5.15099 0
M  V30 7605 H 701.965 -3.63134 -5.35484 0
M  V30 7606 N 702.098 1.27442 -0.927168 0
M  V30 7607 C 703.346 1.94007 -0.566203 0
M  V30 7608 C 703.667 1.7323 0.895345 0
M  V30 7609 O 702.937 1.07973 1.63459 0
M  V30 7610 H 701.517 0.717917 -0.206409 0
M  V30 7611 H 704.179 1.55161 -1.17945 0
M  V30 7612 H 703.275 3.02401 -0.772028 0
M  V30 7613 N 703.576 0.692616 1.41565 0
M  V30 7614 C 704.509 -0.025063 2.28186 0
M  V30 7615 C 705.487 -0.790912 1.42068 0
M  V30 7616 O 706.671 -0.782344 1.71498 0
M  V30 7617 C 703.798 -1.04285 3.22246 0
M  V30 7618 C 702.844 -0.370515 4.24888 0
M  V30 7619 S 703.677 0.884942 5.28137 0
M  V30 7620 C 704.833 -0.131324 6.25762 0
M  V30 7621 H 705.066 0.709626 2.88707 0
M  V30 7622 H 702.599 0.482783 1.46658 0
M  V30 7623 H 704.557 -1.62493 3.7697 0
M  V30 7624 H 703.218 -1.7501 2.60827 0
M  V30 7625 H 702.411 -1.13911 4.90959 0
M  V30 7626 H 702.013 0.138411 3.73744 0
M  V30 7627 H 704.305 -0.985527 6.70294 0
M  V30 7628 H 705.248 0.495384 7.06365 0
M  V30 7629 H 705.656 -0.484777 5.62415 0
M  V30 7630 N 705.054 -1.51416 0.437162 0
M  V30 7631 C 706.301 -2.02086 -0.129364 0
M  V30 7632 C 706.629 -1.32133 -1.42728 0
M  V30 7633 O 705.884 -0.424916 -1.91031 0
M  V30 7634 C 706.183 -3.55203 -0.39564 0
M  V30 7635 C 705.849 -4.43447 0.81644 0
M  V30 7636 C 704.511 -4.67285 1.14884 0
M  V30 7637 C 706.863 -4.95219 1.62503 0
M  V30 7638 C 704.191 -5.40141 2.29052 0
M  V30 7639 C 706.543 -5.69327 2.7577 0
M  V30 7640 C 705.207 -5.91429 3.09464 0
M  V30 7641 H 704.477 -0.739486 -0.0473375 0
M  V30 7642 H 707.124 -1.82368 0.584321 0
M  V30 7643 H 705.429 -3.73252 -1.19121 0
M  V30 7644 H 707.126 -3.91944 -0.847399 0
M  V30 7645 H 703.716 -4.2509 0.547422 0
M  V30 7646 H 707.9 -4.76686 1.38144 0
M  V30 7647 H 703.156 -5.55468 2.55471 0
M  V30 7648 H 707.33 -6.08433 3.38795 0
M  V30 7649 H 704.957 -6.47662 3.98042 0
M  V30 7650 N 706.532 -0.168513 -1.56696 0
M  V30 7651 C 707.462 0.758563 -2.20835 0
M  V30 7652 C 708.443 1.24121 -1.1631 0
M  V30 7653 O 709.628 1.29487 -1.4473 0
M  V30 7654 C 706.758 1.9892 -2.8469 0
M  V30 7655 C 705.712 1.64252 -3.95228 0
M  V30 7656 C 705.038 2.94757 -4.46119 0
M  V30 7657 C 706.338 0.872675 -5.14958 0
M  V30 7658 H 708.032 0.223953 -2.98561 0
M  V30 7659 H 705.578 0.106277 -1.43607 0
M  V30 7660 H 707.531 2.64275 -3.28233 0
M  V30 7661 H 706.255 2.5479 -2.04327 0
M  V30 7662 H 704.914 1.01266 -3.52336 0
M  V30 7663 H 704.562 3.48662 -3.62552 0
M  V30 7664 H 704.262 2.72316 -5.2069 0
M  V30 7665 H 705.786 3.61147 -4.92347 0
M  V30 7666 H 707.2 1.42875 -5.55211 0
M  V30 7667 H 705.597 0.747402 -5.95428 0
M  V30 7668 H 706.667 -0.131535 -4.84722 0
M  V30 7669 N 708.01 1.57248 0.105221 0
M  V30 7670 C 708.942 1.98008 1.15436 0
M  V30 7671 C 709.955 0.881236 1.36887 0
M  V30 7672 O 711.144 1.15943 1.35718 0
M  V30 7673 C 708.244 2.27509 2.51183 0
M  V30 7674 C 707.417 3.58811 2.50147 0
M  V30 7675 C 706.476 3.76365 3.67745 0
M  V30 7676 O 705.502 4.48329 3.50699 0
M  V30 7677 N 706.704 3.16174 4.86841 0
M  V30 7678 H 709.469 2.88616 0.807519 0
M  V30 7679 H 707.03 1.59202 0.29433 0
M  V30 7680 H 709.022 2.36455 3.28438 0
M  V30 7681 H 707.592 1.42959 2.77995 0
M  V30 7682 H 706.812 3.60927 1.5851 0
M  V30 7683 H 708.1 4.45088 2.46524 0
M  V30 7684 H 707.498 2.57701 5.03594 0
M  V30 7685 H 706.055 3.30621 5.61723 0
M  V30 7686 N 709.488 -0.375779 1.53054 0
M  V30 7687 C 710.899 -0.95309 1.6054 0
M  V30 7688 C 711.25 -1.90575 0.466446 0
M  V30 7689 O 710.375 -2.12507 -0.408609 0
M  V30 7690 C 710.97 -1.73537 2.90982 0
M  V30 7691 C 709.529 -2.26218 3.00836 0
M  V30 7692 C 708.676 -1.07157 2.55759 0
M  V30 7693 H 711.627 -0.154895 1.57942 0
M  V30 7694 H 711.648 -2.59574 2.78211 0
M  V30 7695 H 711.16 -1.04176 3.73857 0
M  V30 7696 H 709.261 -2.98852 2.22527 0
M  V30 7697 H 709.374 -2.54799 4.05727 0
M  V30 7698 H 707.738 -1.43553 2.10391 0
M  V30 7699 H 708.521 -0.393099 3.41042 0
M  V30 7700 N 710.966 -1.44241 -0.634997 0
M  V30 7701 C 711.896 -1.53632 -1.7584 0
M  V30 7702 C 712.877 -0.389603 -1.65578 0
M  V30 7703 O 714.062 -0.609219 -1.84397 0
M  V30 7704 C 711.192 -1.47644 -3.14354 0
M  V30 7705 C 710.146 -2.60752 -3.394 0
M  V30 7706 C 709.472 -2.39817 -4.77904 0
M  V30 7707 C 710.772 -4.02921 -3.32343 0
M  V30 7708 H 712.466 -2.47662 -1.68238 0
M  V30 7709 H 710.012 -1.19197 -0.807969 0
M  V30 7710 H 711.965 -1.52815 -3.92716 0
M  V30 7711 H 710.689 -0.501284 -3.2273 0
M  V30 7712 H 709.348 -2.54965 -2.63417 0
M  V30 7713 H 708.996 -1.40502 -4.82978 0
M  V30 7714 H 708.696 -3.15649 -4.9562 0
M  V30 7715 H 710.22 -2.46799 -5.585 0
M  V30 7716 H 711.634 -4.10098 -4.00615 0
M  V30 7717 H 710.031 -4.78925 -3.61595 0
M  V30 7718 H 711.101 -4.26766 -2.30215 0
M  V30 7719 N 712.444 0.87505 -1.31075 0
M  V30 7720 C 713.691 1.62768 -1.20469 0
M  V30 7721 C 714.019 1.93034 0.23834 0
M  V30 7722 O 713.274 1.55693 1.18567 0
M  V30 7723 C 713.573 2.96948 -1.98888 0
M  V30 7724 C 713.239 2.86195 -3.4843 0
M  V30 7725 C 711.901 2.82969 -3.89207 0
M  V30 7726 C 714.253 2.73599 -4.43614 0
M  V30 7727 C 711.581 2.64999 -5.23443 0
M  V30 7728 C 713.933 2.57166 -5.77969 0
M  V30 7729 C 712.597 2.52321 -6.17973 0
M  V30 7730 H 711.867 0.595611 -0.440827 0
M  V30 7731 H 714.514 1.01665 -1.62285 0
M  V30 7732 H 712.819 3.62058 -1.49737 0
M  V30 7733 H 714.516 3.54164 -1.88067 0
M  V30 7734 H 711.106 2.8952 -3.16032 0
M  V30 7735 H 715.29 2.7515 -4.13045 0
M  V30 7736 H 710.546 2.5967 -5.53517 0
M  V30 7737 H 714.72 2.46396 -6.51354 0
M  V30 7738 H 712.347 2.38156 -7.21932 0
M  V30 7739 N 713.922 1.13953 1.08869 0
M  V30 7740 C 714.854 0.779906 2.15523 0
M  V30 7741 C 715.867 -0.20102 1.61554 0
M  V30 7742 O 717.056 0.0200049 1.78489 0
M  V30 7743 C 714.156 0.136226 3.38626 0
M  V30 7744 C 713.329 1.15069 4.21993 0
M  V30 7745 C 712.388 0.531645 5.23507 0
M  V30 7746 O 711.414 1.19327 5.56552 0
M  V30 7747 N 712.616 -0.693734 5.7634 0
M  V30 7748 H 715.381 1.69769 2.46979 0
M  V30 7749 H 712.942 1.03331 1.24637 0
M  V30 7750 H 714.934 -0.290295 4.03658 0
M  V30 7751 H 713.504 -0.684603 3.05011 0
M  V30 7752 H 712.724 1.75431 3.53012 0
M  V30 7753 H 714.012 1.83614 4.74514 0
M  V30 7754 H 713.41 -1.24994 5.51718 0
M  V30 7755 H 711.967 -1.06283 6.43076 0
M  V30 7756 N 715.4 -1.26948 0.933913 0
M  V30 7757 C 716.348 -2.2862 0.428463 0
M  V30 7758 C 717.342 -1.62144 -0.490464 0
M  V30 7759 O 718.548 -1.76167 -0.36948 0
M  V30 7760 H 714.923 -0.742363 0.120003 0
M  V30 7761 H 716.894 -2.68659 1.29865 0
M  V30 7762 C 715.643 -3.46423 -0.29774 0
M  V30 7763 H 714.966 -3.97792 0.400183 0
M  V30 7764 H 716.406 -4.19505 -0.615736 0
M  V30 7765 C 714.865 -3.01017 -1.51295 0
M  V30 7766 O 715.395 -3.05226 -2.61151 0
M  V30 7767 N 713.601 -2.56442 -1.36696 0
M  V30 7768 H 713.148 -2.53217 -0.473178 0
M  V30 7769 H 713.106 -2.26424 -2.18127 0
M  V30 7770 N 716.879 -0.700114 -1.41195 0
M  V30 7771 C 718.109 -0.241828 -2.0518 0
M  V30 7772 C 718.517 1.1157 -1.52803 0
M  V30 7773 O 717.86 1.70926 -0.673042 0
M  V30 7774 C 717.922 -0.12695 -3.59276 0
M  V30 7775 C 717.586 -1.41725 -4.34469 0
M  V30 7776 C 718.583 -2.35604 -4.63451 0
M  V30 7777 C 716.268 -1.67189 -4.73659 0
M  V30 7778 C 718.262 -3.53204 -5.3059 0
M  V30 7779 C 715.949 -2.85073 -5.40534 0
M  V30 7780 C 716.947 -3.77904 -5.68927 0
M  V30 7781 O 716.635 -4.93723 -6.34424 0
M  V30 7782 H 716.367 -0.109247 -0.667114 0
M  V30 7783 H 718.921 -0.954538 -1.81873 0
M  V30 7784 H 717.151 0.641571 -3.81341 0
M  V30 7785 H 718.84 0.294748 -4.04828 0
M  V30 7786 H 719.606 -2.1719 -4.33651 0
M  V30 7787 H 715.485 -0.957935 -4.50937 0
M  V30 7788 H 719.029 -4.25679 -5.52669 0
M  V30 7789 H 714.926 -3.03402 -5.69752 0
M  V30 7790 H 715.694 -4.93597 -6.5292 0
M  V30 7791 N 718.357 1.51182 -0.445186 0
M  V30 7792 C 719.585 2.06568 0.117091 0
M  V30 7793 C 720 1.31182 1.35781 0
M  V30 7794 O 719.357 0.373605 1.78635 0
M  V30 7795 C 719.408 3.58917 0.431408 0
M  V30 7796 O 719.129 4.31456 -0.760078 0
M  V30 7797 C 720.63 4.30843 1.0435 0
M  V30 7798 H 717.85 0.670985 0.00444436 0
M  V30 7799 H 720.394 1.94666 -0.626525 0
M  V30 7800 H 718.549 3.70708 1.12493 0
M  V30 7801 H 718.963 5.22215 -0.489048 0
M  V30 7802 H 720.437 5.38499 1.21337 0
M  V30 7803 H 720.914 3.89644 2.02667 0
M  V30 7804 H 721.52 4.23516 0.38913 0
M  V30 7805 N 719.835 0.176821 1.56605 0
M  V30 7806 C 721.063 -0.472828 2.01425 0
M  V30 7807 C 721.478 -1.56436 1.05703 0
M  V30 7808 O 720.835 -1.82405 0.058808 0
M  V30 7809 C 720.886 -1.04607 3.46034 0
M  V30 7810 O 720.607 0.00189608 4.381 0
M  V30 7811 C 722.108 -1.7734 4.06282 0
M  V30 7812 H 719.328 -0.120503 0.660091 0
M  V30 7813 H 721.872 0.280166 2.02572 0
M  V30 7814 H 720.027 -1.74953 3.45645 0
M  V30 7815 H 720.441 -0.422118 5.22799 0
M  V30 7816 H 721.915 -2.12703 5.09374 0
M  V30 7817 H 722.392 -2.67043 3.4869 0
M  V30 7818 H 722.998 -1.11623 4.10391 0
M  V30 7819 N 721.313 -1.57302 -0.09688 0
M  V30 7820 C 722.541 -1.90202 -0.814295 0
M  V30 7821 C 722.956 -0.770344 -1.72369 0
M  V30 7822 O 722.313 0.257764 -1.8067 0
M  V30 7823 C 722.364 -3.22708 -1.62916 0
M  V30 7824 O 722.085 -4.31522 -0.756343 0
M  V30 7825 C 723.586 -3.69459 -2.44979 0
M  V30 7826 H 720.806 -0.629275 -0.232925 0
M  V30 7827 H 723.35 -2.04364 -0.0746482 0
M  V30 7828 H 721.505 -3.1015 -2.32133 0
M  V30 7829 H 721.919 -5.07604 -1.32054 0
M  V30 7830 H 723.393 -4.64875 -2.9765 0
M  V30 7831 H 723.87 -2.97211 -3.23361 0
M  V30 7832 H 724.476 -3.84879 -1.80964 0
M  V30 7833 N 722.791 0.367657 -1.53252 0
M  V30 7834 C 724.019 1.13119 -1.73239 0
M  V30 7835 C 724.434 1.831 -0.460404 0
M  V30 7836 O 723.791 1.73483 0.566557 0
M  V30 7837 C 723.842 2.16308 -2.89643 0
M  V30 7838 O 723.563 1.49175 -4.1192 0
M  V30 7839 C 725.064 3.05224 -3.21486 0
M  V30 7840 H 722.284 0.338318 -0.579467 0
M  V30 7841 H 724.828 0.42721 -1.99988 0
M  V30 7842 H 722.983 2.82307 -2.65295 0
M  V30 7843 H 723.397 2.17912 -4.7709 0
M  V30 7844 H 724.871 3.73613 -4.06346 0
M  V30 7845 H 725.348 3.69919 -2.36763 0
M  V30 7846 H 725.954 2.44843 -3.47753 0
M  V30 7847 N 724.269 1.44576 0.627338 0
M  V30 7848 C 725.516 1.47558 1.38682 0
M  V30 7849 C 725.844 0.109636 1.94191 0
M  V30 7850 O 725.099 -0.889092 1.74338 0
M  V30 7851 C 725.398 2.48644 2.56731 0
M  V30 7852 C 725.064 3.93873 2.19489 0
M  V30 7853 C 723.726 4.33421 2.09045 0
M  V30 7854 C 726.078 4.85286 1.90124 0
M  V30 7855 C 723.406 5.62303 1.6743 0
M  V30 7856 C 725.758 6.14559 1.50001 0
M  V30 7857 C 724.422 6.53058 1.38101 0
M  V30 7858 H 723.692 0.539955 0.507474 0
M  V30 7859 H 726.339 1.77811 0.711021 0
M  V30 7860 H 724.644 2.11889 3.29561 0
M  V30 7861 H 726.341 2.48197 3.14959 0
M  V30 7862 H 722.931 3.62587 2.28537 0
M  V30 7863 H 727.115 4.55483 1.971 0
M  V30 7864 H 722.371 5.90945 1.56823 0
M  V30 7865 H 726.545 6.84848 1.26319 0
M  V30 7866 H 724.172 7.52826 1.05628 0
M  V30 7867 N 725.747 -0.868086 1.31537 0
M  V30 7868 C 726.677 -1.99131 1.21939 0
M  V30 7869 C 727.658 -1.69768 0.106166 0
M  V30 7870 O 728.843 -1.92006 0.291081 0
M  V30 7871 C 725.973 -3.34676 0.927879 0
M  V30 7872 C 724.927 -3.7835 2.00088 0
M  V30 7873 C 724.253 -5.11375 1.56203 0
M  V30 7874 C 725.553 -3.95256 3.41424 0
M  V30 7875 H 727.247 -2.07419 2.15911 0
M  V30 7876 H 724.793 -0.996569 1.03945 0
M  V30 7877 H 726.746 -4.12793 0.847327 0
M  V30 7878 H 725.47 -3.26565 -0.0475042 0
M  V30 7879 H 724.129 -3.02474 2.07135 0
M  V30 7880 H 723.777 -4.99709 0.57445 0
M  V30 7881 H 723.477 -5.41568 2.27985 0
M  V30 7882 H 725.001 -5.92001 1.49558 0
M  V30 7883 H 726.415 -4.63764 3.3704 0
M  V30 7884 H 724.812 -4.36849 4.1144 0
M  V30 7885 H 725.882 -2.98579 3.82072 0
M  V30 7886 N 727.225 -1.14528 -1.08264 0
M  V30 7887 C 728.175 -0.802141 -2.13424 0
M  V30 7888 C 729.159 0.209362 -1.59532 0
M  V30 7889 O 730.351 0.0114859 -1.76996 0
M  V30 7890 C 727.48 -0.282938 -3.42132 0
M  V30 7891 C 726.566 -1.32405 -4.02902 0
M  V30 7892 N 726.957 -2.52861 -4.38058 0
M  V30 7893 C 725.255 -1.17462 -4.30254 0
M  V30 7894 C 725.956 -3.1952 -4.86088 0
M  V30 7895 N 724.932 -2.46921 -4.84284 0
M  V30 7896 H 728.734 -1.71843 -2.38426 0
M  V30 7897 H 726.248 -1.02936 -1.2561 0
M  V30 7898 H 728.245 -0.0188053 -4.16896 0
M  V30 7899 H 726.905 0.627533 -3.18578 0
M  V30 7900 H 727.916 -2.90078 -4.2904 0
M  V30 7901 H 724.593 -0.323283 -4.16246 0
M  V30 7902 H 725.983 -4.2223 -5.22658 0
M  V30 7903 N 728.703 1.26451 -0.940633 0
M  V30 7904 C 729.928 1.98407 -0.60412 0
M  V30 7905 C 730.353 1.69584 0.81382 0
M  V30 7906 O 729.711 0.943553 1.54812 0
M  V30 7907 C 729.759 3.50387 -0.852136 0
M  V30 7908 O 728.863 4.1233 0.076013 0
M  V30 7909 H 728.204 0.622466 -0.231153 0
M  V30 7910 H 730.734 1.60932 -1.26342 0
M  V30 7911 H 730.744 4.00614 -0.772816 0
M  V30 7912 H 729.419 3.70696 -1.88566 0
M  V30 7913 H 727.996 3.7286 -0.0543187 0
M  V30 7914 N 730.181 0.707592 1.40822 0
M  V30 7915 C 731.458 0.171172 1.9485 0
M  V30 7916 C 731.838 -1.32143 1.64625 0
M  V30 7917 O 731.186 -2.07372 0.959647 0
M  V30 7918 C 731.396 0.475334 3.45748 0
M  V30 7919 C 732.744 0.409625 4.22619 0
M  V30 7920 O 733.768 0.410934 3.53822 0
M  V30 7921 O 732.627 0.380185 5.45176 0
M  V30 7922 H 729.721 0.022015 0.826707 0
M  V30 7923 H 732.267 0.784577 1.50474 0
M  V30 7924 H 731.039 1.50801 3.61075 0
M  V30 7925 H 730.662 -0.168439 3.97243 0
M  V30 7926 N 731.66 -1.50943 0.453197 0
M  V30 7927 C 732.61 -2.25003 -0.368467 0
M  V30 7928 C 733.594 -1.27864 -0.976714 0
M  V30 7929 O 734.786 -1.52867 -0.892228 0
M  V30 7930 C 731.915 -3.10701 -1.46014 0
M  V30 7931 C 731.001 -4.15278 -0.860506 0
M  V30 7932 N 731.392 -5.05799 0.00849611 0
M  V30 7933 C 729.69 -4.31542 -1.1264 0
M  V30 7934 C 730.391 -5.80664 0.346951 0
M  V30 7935 N 729.367 -5.42912 -0.273426 0
M  V30 7936 H 733.169 -2.92352 0.301246 0
M  V30 7937 H 730.683 -1.60203 0.266233 0
M  V30 7938 H 732.68 -3.62348 -2.06179 0
M  V30 7939 H 731.34 -2.44898 -2.13202 0
M  V30 7940 H 732.351 -5.16533 0.376077 0
M  V30 7941 H 729.028 -3.76962 -1.7946 0
M  V30 7942 H 730.418 -6.63565 1.05507 0
M  V30 7943 N 733.138 -0.185124 -1.56509 0
M  V30 7944 C 734.363 0.465278 -2.02114 0
M  V30 7945 C 734.788 1.55083 -1.06447 0
M  V30 7946 O 734.146 1.81241 -0.0462852 0
M  V30 7947 C 734.194 1.00784 -3.46229 0
M  V30 7948 O 733.298 2.12123 -3.53663 0
M  V30 7949 H 732.639 0.109891 -0.654843 0
M  V30 7950 H 735.169 -0.293072 -2.0249 0
M  V30 7951 H 735.179 1.32697 -3.85818 0
M  V30 7952 H 733.854 0.213113 -4.15354 0
M  V30 7953 H 732.431 1.8115 -3.25943 0
M  V30 7954 N 734.616 1.57351 0.0885366 0
M  V30 7955 C 735.579 2.01557 1.09121 0
M  V30 7956 C 736.579 0.910052 1.3257 0
M  V30 7957 O 737.769 1.17537 1.28572 0
M  V30 7958 C 734.901 2.38189 2.43883 0
M  V30 7959 H 736.094 2.91361 0.710562 0
M  V30 7960 H 733.647 1.52694 0.333779 0
M  V30 7961 H 734.382 1.5136 2.86811 0
M  V30 7962 H 734.167 3.18846 2.28209 0
M  V30 7963 H 735.657 2.73025 3.15986 0
M  V30 7964 N 736.094 -0.359525 1.53444 0
M  V30 7965 C 737.505 -0.936009 1.61542 0
M  V30 7966 C 737.856 -1.90069 0.486633 0
M  V30 7967 O 736.981 -2.12929 -0.386047 0
M  V30 7968 C 737.576 -1.70441 2.92806 0
M  V30 7969 C 736.135 -2.23015 3.03218 0
M  V30 7970 C 735.282 -1.04438 2.56881 0
M  V30 7971 H 738.233 -0.138134 1.58098 0
M  V30 7972 H 738.254 -2.56609 2.80948 0
M  V30 7973 H 737.766 -1.00205 3.74941 0
M  V30 7974 H 735.867 -2.96475 2.25684 0
M  V30 7975 H 735.98 -2.50481 4.08407 0
M  V30 7976 H 734.344 -1.41314 2.11902 0
M  V30 7977 H 735.127 -0.356905 3.4144 0
M  V30 7978 N 737.572 -1.44907 -0.619662 0
M  V30 7979 C 738.797 -1.52021 -1.41083 0
M  V30 7980 C 739.222 -0.14976 -1.87503 0
M  V30 7981 O 738.58 0.863303 -1.59426 0
M  V30 7982 C 738.628 -2.49911 -2.59955 0
M  V30 7983 O 737.732 -2.00857 -3.60181 0
M  V30 7984 H 737.073 -0.512912 -0.421684 0
M  V30 7985 H 739.603 -1.90149 -0.755282 0
M  V30 7986 H 739.613 -2.68323 -3.07354 0
M  V30 7987 H 738.288 -3.4945 -2.25516 0
M  V30 7988 H 736.865 -1.92265 -3.19513 0
M  V30 7989 N 739.05 0.861098 -1.31996 0
M  V30 7990 C 740.275 1.65264 -1.2531 0
M  V30 7991 C 740.7 1.87265 0.177007 0
M  V30 7992 O 740.058 1.4208 1.12619 0
M  V30 7993 C 740.106 2.99284 -2.0115 0
M  V30 7994 O 739.21 3.89508 -1.3549 0
M  V30 7995 H 738.551 0.50409 -0.432192 0
M  V30 7996 H 741.081 1.07297 -1.74208 0
M  V30 7997 H 741.091 3.49154 -2.11081 0
M  V30 7998 H 739.766 2.82591 -3.05148 0
M  V30 7999 H 738.343 3.47966 -1.34066 0
M  V30 8000 N 740.528 1.15101 1.07655 0
M  V30 8001 C 741.475 0.844958 2.14777 0
M  V30 8002 C 742.445 -0.200798 1.64882 0
M  V30 8003 O 743.63 -0.0690278 1.90675 0
M  V30 8004 C 740.77 0.337018 3.4345 0
M  V30 8005 C 739.883 1.44398 4.07153 0
M  V30 8006 C 739.018 0.892487 5.23649 0
M  V30 8007 C 738.057 1.9766 5.79307 0
M  V30 8008 N 737.194 1.44171 6.87138 0
M  V30 8009 H 742.034 1.76242 2.40297 0
M  V30 8010 H 739.571 0.879435 1.17917 0
M  V30 8011 H 741.529 0.024256 4.17193 0
M  V30 8012 H 740.159 -0.543531 3.18191 0
M  V30 8013 H 739.211 1.87299 3.31094 0
M  V30 8014 H 740.523 2.26262 4.4453 0
M  V30 8015 H 739.677 0.532083 6.04362 0
M  V30 8016 H 738.416 0.0429854 4.87681 0
M  V30 8017 H 737.421 2.34586 4.97242 0
M  V30 8018 H 738.646 2.82982 6.17331 0
M  V30 8019 H 736.592 0.614518 6.53115 0
M  V30 8020 H 736.509 2.19665 7.23383 0
M  V30 8021 H 737.777 1.10945 7.71564 0
M  V30 8022 O 742.045 -1.2028 1.07773 0
M  V30 8023 H 742.736 -1.77907 0.76608 0
M  V30 END ATOM
M  V30 BEGIN BOND
M  V30 END BOND
M  V30 END CTAB
M  END
$$$$
