drugbank_target|P17752 Tryptophan 5-hydroxylase 1 (DB00360; DB05199; DB12095)
 OpenBabel12092119243D

  0  0  0     0  0            999 V3000
M  V30 BEGIN CTAB
M  V30 COUNTS 7157 7241 0 0 0
M  V30 BEGIN ATOM
M  V30 1 H -0.908 1.98254 -0.117106 0
M  V30 2 N 0 1.576 0 0
M  V30 3 C 0.933 2.03868 1.02534 0
M  V30 4 C 1.911 0.928543 1.3348 0
M  V30 5 O 3.095 1.19667 1.45644 0
M  V30 6 C 0.222 2.43627 2.35294 0
M  V30 7 C -0.732 3.65373 2.2001 0
M  V30 8 S 0.101 5.13292 1.52614 0
M  V30 9 C 1.257 5.56322 2.86805 0
M  V30 10 H 1.49 2.90518 0.631377 0
M  V30 11 H -0.977 1.52953 0.210867 0
M  V30 12 H 0.981 2.67203 3.11629 0
M  V30 13 H -0.358 1.57376 2.7183 0
M  V30 14 H -1.165 3.90944 3.18086 0
M  V30 15 H -1.563 3.418 1.51819 0
M  V30 16 H 0.729 5.58782 3.83104 0
M  V30 17 H 1.672 6.56266 2.65933 0
M  V30 18 H 2.08 4.83886 2.90714 0
M  V30 19 N 1.4781 -0.272755 1.55222 0
M  V30 20 C 2.7271 -1.00211 1.75045 0
M  V30 21 C 3.0401 -1.87441 0.559046 0
M  V30 22 O 4.2461 -2.63856 0.639698 0
M  V30 23 C 2.7021 -1.83165 3.09804 0
M  V30 24 C 2.3101 -1.008 4.36513 0
M  V30 25 C 4.0541 -2.55529 3.38977 0
M  V30 26 C 1.9611 -1.83194 5.62311 0
M  V30 27 H 0.8911 -0.377878 0.652476 0
M  V30 28 H 3.5421 -0.257776 1.8168 0
M  V30 29 H 1.9241 -2.61694 2.97207 0
M  V30 30 H 3.0981 -0.266855 4.60027 0
M  V30 31 H 1.4131 -0.398897 4.14485 0
M  V30 32 H 4.0101 -3.17578 4.30172 0
M  V30 33 H 4.3531 -3.25825 2.59121 0
M  V30 34 H 4.8861 -1.84029 3.52673 0
M  V30 35 H 1.6251 -1.17318 6.44916 0
M  V30 36 H 1.1451 -2.54905 5.4294 0
M  V30 37 H 2.8241 -2.40552 6.00619 0
M  V30 38 N 2.9562 -1.48159 -0.537278 0
M  V30 39 C 3.8662 -1.64807 -1.6696 0
M  V30 40 C 4.8822 -0.530651 -1.65711 0
M  V30 41 O 6.0582 -0.800784 -1.84796 0
M  V30 42 C 3.1232 -1.67708 -3.03438 0
M  V30 43 C 2.1842 -2.91025 -3.156 0
M  V30 44 C 1.4172 -2.93778 -4.45567 0
M  V30 45 O 1.6402 -2.05153 -5.3223 0
M  V30 46 O 0.5742 -3.85868 -4.61941 0
M  V30 47 H 4.4002 -2.6066 -1.55853 0
M  V30 48 H 1.9852 -1.31475 -0.709549 0
M  V30 49 H 3.8672 -1.7218 -3.84619 0
M  V30 50 H 2.5422 -0.750278 -3.14885 0
M  V30 51 H 1.4492 -2.92089 -2.33741 0
M  V30 52 H 2.7822 -3.83065 -3.09066 0
M  V30 53 N 4.4343 0.785586 -1.36625 0
M  V30 54 C 5.7113 1.53198 -1.21613 0
M  V30 55 C 6.0913 2.10187 0.196113 0
M  V30 56 O 5.4393 1.94318 1.20219 0
M  V30 57 C 5.6493 2.62388 -2.30116 0
M  V30 58 C 6.9973 3.30167 -2.66974 0
M  V30 59 O 8.0213 2.72674 -2.29188 0
M  V30 60 O 6.8803 4.34077 -3.32023 0
M  V30 61 H 3.9743 0.677865 -0.473738 0
M  V30 62 H 6.5203 0.823739 -1.48367 0
M  V30 63 H 5.2923 2.18299 -3.24748 0
M  V30 64 H 4.9153 3.40827 -2.0475 0
M  V30 65 N 5.9124 1.20967 1.01018 0
M  V30 66 C 6.8604 0.961223 2.1181 0
M  V30 67 C 7.8544 -0.0897034 1.69162 0
M  V30 68 O 9.0604 0.0612271 1.79896 0
M  V30 69 H 5.4354 0.29355 0.692338 0
M  V30 70 H 7.4064 1.90178 2.29946 0
M  V30 71 C 6.1554 0.536854 3.4353 0
M  V30 72 H 5.4784 1.33713 3.76777 0
M  V30 73 H 6.9184 0.402286 4.22087 0
M  V30 74 C 5.3774 -0.751574 3.2841 0
M  V30 75 O 5.9074 -1.80841 3.58691 0
M  V30 76 N 4.1134 -0.716079 2.81639 0
M  V30 77 H 3.6604 0.144236 2.57196 0
M  V30 78 H 3.6184 -1.57847 2.71904 0
M  V30 79 N 7.3905 -1.2043 1.01659 0
M  V30 80 C 8.3375 -2.23215 0.586822 0
M  V30 81 C 9.3075 -1.61382 -0.393085 0
M  V30 82 O 10.4925 -1.88544 -0.292525 0
M  V30 83 C 7.6325 -3.45032 -0.0687464 0
M  V30 84 C 6.7455 -4.21296 0.955724 0
M  V30 85 C 5.8805 -5.30507 0.271208 0
M  V30 86 C 4.9195 -5.98515 1.28244 0
M  V30 87 N 4.0565 -6.99316 0.62459 0
M  V30 88 H 8.8965 -2.59336 1.46796 0
M  V30 89 H 6.4335 -1.27431 0.734836 0
M  V30 90 H 8.3915 -4.1459 -0.465965 0
M  V30 91 H 7.0215 -3.09604 -0.913529 0
M  V30 92 H 6.0735 -3.50803 1.4711 0
M  V30 93 H 7.3855 -4.6803 1.72479 0
M  V30 94 H 6.5395 -6.06428 -0.18151 0
M  V30 95 H 5.2785 -4.8481 -0.530163 0
M  V30 96 H 4.2835 -5.21355 1.74554 0
M  V30 97 H 5.5085 -6.46298 2.08509 0
M  V30 98 H 3.4545 -6.55812 -0.156914 0
M  V30 99 H 3.3715 -7.44178 1.33172 0
M  V30 100 H 4.6395 -7.79255 0.195462 0
M  V30 101 N 8.8686 -0.792821 -1.36206 0
M  V30 102 C 9.7786 -0.194808 -2.3379 0
M  V30 103 C 10.7946 0.654869 -1.61206 0
M  V30 104 O 11.9706 0.569856 -1.9317 0
M  V30 105 C 9.0356 0.657721 -3.40404 0
M  V30 106 C 8.0966 -0.210849 -4.28782 0
M  V30 107 C 7.3296 0.601086 -5.30304 0
M  V30 108 O 7.5526 1.83682 -5.40016 0
M  V30 109 O 6.4866 -0.000808277 -6.019 0
M  V30 110 H 10.3126 -1.00172 -2.86704 0
M  V30 111 H 7.8976 -0.554341 -1.38735 0
M  V30 112 H 9.7796 1.14375 -4.05581 0
M  V30 113 H 8.4546 1.44247 -2.89784 0
M  V30 114 H 7.3616 -0.743714 -3.66633 0
M  V30 115 H 8.6946 -0.959195 -4.82763 0
M  V30 116 N 10.3467 1.47872 -0.545128 0
M  V30 117 C 11.2947 2.31533 0.222512 0
M  V30 118 C 12.2887 1.42177 0.920985 0
M  V30 119 O 13.4947 1.59005 0.843645 0
M  V30 120 H 9.8697 0.746519 0.0906278 0
M  V30 121 H 11.8407 2.94139 -0.50246 0
M  V30 122 C 10.5897 3.2457 1.24699 0
M  V30 123 H 9.9127 3.93283 0.718944 0
M  V30 124 H 11.3527 3.85963 1.75523 0
M  V30 125 C 9.8117 2.47237 2.28856 0
M  V30 126 O 10.3417 2.20808 3.35569 0
M  V30 127 N 8.5477 2.08461 2.02466 0
M  V30 128 H 8.0947 2.30155 1.157 0
M  V30 129 H 8.0527 1.57033 2.72375 0
M  V30 130 N 11.8248 0.280983 1.55075 0
M  V30 131 C 12.7718 -0.603937 2.22758 0
M  V30 132 C 13.7418 -1.1452 1.20309 0
M  V30 133 O 14.9268 -1.19343 1.48869 0
M  V30 134 C 12.0668 -1.77947 2.95684 0
M  V30 135 C 11.1798 -1.2715 4.12864 0
M  V30 136 C 10.3148 -2.4093 4.7342 0
M  V30 137 C 9.3538 -1.87165 5.82783 0
M  V30 138 N 8.4908 -2.94441 6.37377 0
M  V30 139 H 13.3308 -0.020124 2.97993 0
M  V30 140 H 10.8678 0.00183425 1.471 0
M  V30 141 H 12.8258 -2.47055 3.36184 0
M  V30 142 H 11.4558 -2.33522 2.22861 0
M  V30 143 H 10.5078 -0.473331 3.77444 0
M  V30 144 H 11.8198 -0.837751 4.91715 0
M  V30 145 H 10.9738 -3.18021 5.1667 0
M  V30 146 H 9.7128 -2.87623 3.93859 0
M  V30 147 H 8.7178 -1.08556 5.38976 0
M  V30 148 H 9.9428 -1.41401 6.64216 0
M  V30 149 H 7.8888 -3.40505 5.60707 0
M  V30 150 H 7.8058 -2.55501 7.11516 0
M  V30 151 H 9.0738 -3.71489 6.85285 0
M  V30 152 N 13.3029 -1.57598 0.00835791 0
M  V30 153 C 14.5799 -1.82172 -0.712235 0
M  V30 154 C 14.9599 -0.887873 -1.9152 0
M  V30 155 O 14.3079 0.06146 -2.28417 0
M  V30 156 C 14.5179 -3.30875 -1.11008 0
M  V30 157 C 15.8659 -3.96826 -1.51044 0
M  V30 158 O 16.8899 -3.35248 -1.20364 0
M  V30 159 O 15.7489 -5.05318 -2.08125 0
M  V30 160 H 12.8429 -0.750435 -0.347529 0
M  V30 161 H 15.3889 -1.69665 0.0344523 0
M  V30 162 H 14.1609 -3.90481 -0.252982 0
M  V30 163 H 13.7839 -3.48412 -1.9156 0
M  V30 164 N 14.781 0.264519 -1.55364 0
M  V30 165 C 15.731 1.32966 -1.85214 0
M  V30 166 C 16.715 1.44306 -0.711653 0
M  V30 167 O 17.907 1.47844 -0.973192 0
M  V30 168 C 15.036 2.68839 -2.13495 0
M  V30 169 C 14.122 2.61575 -3.33825 0
M  V30 170 N 14.513 2.23933 -4.53528 0
M  V30 171 C 12.811 2.92621 -3.36584 0
M  V30 172 C 13.512 2.26868 -5.35636 0
M  V30 173 N 12.488 2.65677 -4.74254 0
M  V30 174 H 16.29 1.02884 -2.75304 0
M  V30 175 H 13.804 0.473157 -1.55354 0
M  V30 176 H 15.801 3.45685 -2.33039 0
M  V30 177 H 14.461 2.99802 -1.24694 0
M  V30 178 H 15.472 1.95769 -4.79474 0
M  V30 179 H 12.149 3.2824 -2.58002 0
M  V30 180 H 13.539 2.00254 -6.41364 0
M  V30 181 N 16.2591 1.48442 0.529413 0
M  V30 182 C 17.4841 1.60406 1.31471 0
M  V30 183 C 17.9091 0.264738 1.86228 0
M  V30 184 O 17.2671 -0.763668 1.64432 0
M  V30 185 C 17.3151 2.65419 2.44101 0
M  V30 186 O 16.4191 2.22618 3.47153 0
M  V30 187 H 15.7601 0.537863 0.389357 0
M  V30 188 H 18.2901 1.94432 0.636965 0
M  V30 189 H 18.3001 2.86709 2.90279 0
M  V30 190 H 16.9751 3.62652 2.03608 0
M  V30 191 H 15.5521 2.11543 3.0709 0
M  V30 192 N 17.7372 -0.778329 1.37039 0
M  V30 193 C 18.6672 -1.90546 1.34962 0
M  V30 194 C 19.6482 -1.68681 0.219274 0
M  V30 195 O 20.8332 -1.89634 0.418624 0
M  V30 196 C 17.9632 -3.27734 1.14925 0
M  V30 197 C 16.9172 -3.64147 2.24902 0
M  V30 198 C 16.2432 -4.99806 1.89996 0
M  V30 199 C 17.5432 -3.71579 3.67051 0
M  V30 200 H 19.2372 -1.92541 2.29277 0
M  V30 201 H 16.7832 -0.924948 1.10366 0
M  V30 202 H 18.7362 -4.06215 1.12104 0
M  V30 203 H 17.4602 -3.26154 0.170631 0
M  V30 204 H 16.1192 -2.8797 2.26868 0
M  V30 205 H 15.7672 -4.94759 0.906796 0
M  V30 206 H 15.4672 -5.25139 2.63634 0
M  V30 207 H 16.9912 -5.80694 1.88749 0
M  V30 208 H 18.4052 -4.40227 3.67251 0
M  V30 209 H 16.8022 -4.08405 4.39688 0
M  V30 210 H 17.8722 -2.72404 4.01154 0
M  V30 211 N 19.2153 -1.21501 -1.00376 0
M  V30 212 C 20.1253 -0.991447 -2.12621 0
M  V30 213 C 21.1413 0.0568446 -1.73907 0
M  V30 214 O 22.3173 -0.13348 -2.00957 0
M  V30 215 C 19.3823 -0.560312 -3.42142 0
M  V30 216 C 18.4433 -1.68096 -3.95022 0
M  V30 217 C 17.6763 -1.2703 -5.18362 0
M  V30 218 O 17.8993 -0.144438 -5.70217 0
M  V30 219 O 16.8333 -2.08269 -5.64719 0
M  V30 220 H 20.6593 -1.93158 -2.34358 0
M  V30 221 H 18.2443 -0.999999 -1.10997 0
M  V30 222 H 20.1263 -0.329724 -4.20108 0
M  V30 223 H 18.8013 0.351089 -3.2179 0
M  V30 224 H 17.7083 -1.96597 -3.18278 0
M  V30 225 H 19.0413 -2.56983 -4.19786 0
M  V30 226 N 20.6934 1.19889 -1.02296 0
M  V30 227 C 22.1094 1.41462 -0.738954 0
M  V30 228 C 22.3094 1.89721 0.678846 0
M  V30 229 O 21.3654 2.07016 1.4457 0
M  V30 230 C 22.6784 2.43083 -1.77005 0
M  V30 231 C 24.2264 2.5684 -1.78892 0
M  V30 232 C 24.7014 3.61709 -2.80945 0
M  V30 233 N 26.1924 3.69199 -2.79725 0
M  V30 234 C 26.9274 4.50019 -3.55345 0
M  V30 235 N 26.4234 5.34592 -4.40662 0
M  V30 236 N 28.2164 4.44612 -3.43914 0
M  V30 237 H 20.3674 0.868827 -1.93817 0
M  V30 238 H 22.6304 0.44399 -0.837602 0
M  V30 239 H 22.3364 2.14636 -2.78612 0
M  V30 240 H 22.2104 3.4217 -1.58744 0
M  V30 241 H 24.5974 2.84614 -0.779674 0
M  V30 242 H 24.6784 1.57927 -2.01228 0
M  V30 243 H 24.3224 3.34678 -3.82038 0
M  V30 244 H 24.2524 4.60259 -2.5587 0
M  V30 245 H 26.7434 3.08794 -2.17842 0
M  V30 246 H 27.0564 5.93363 -4.95116 0
M  V30 247 H 25.4014 5.34073 -4.44737 0
M  V30 248 H 28.5924 3.7758 -2.76679 0
M  V30 249 H 28.7654 5.0736 -4.031 0
M  V30 250 N 22.1715 0.800033 1.35784 0
M  V30 251 C 23.4195 0.376597 1.9856 0
M  V30 252 C 23.7405 -1.05812 1.63795 0
M  V30 253 O 23.0105 -1.73103 0.917171 0
M  V30 254 H 21.5905 0.136261 0.734467 0
M  V30 255 H 24.2525 1.02442 1.65806 0
M  V30 256 H 23.3485 0.477002 3.08433 0
M  V30 257 N 23.6496 -1.47581 0.552962 0
M  V30 258 C 25.0656 -1.5818 0.212424 0
M  V30 259 C 25.2656 -1.55213 -1.28496 0
M  V30 260 O 24.3216 -1.45329 -2.06484 0
M  V30 261 C 25.6346 -2.88865 0.835318 0
M  V30 262 C 27.1826 -3.0244 0.806156 0
M  V30 263 C 27.6576 -4.35819 1.40804 0
M  V30 264 N 29.1486 -4.42444 1.37103 0
M  V30 265 C 29.8836 -5.44202 1.80641 0
M  V30 266 N 29.3796 -6.52795 2.32015 0
M  V30 267 N 31.1726 -5.35222 1.71738 0
M  V30 268 H 23.3236 -1.47753 1.52587 0
M  V30 269 H 25.5866 -0.702941 0.636064 0
M  V30 270 H 25.2926 -2.9676 1.88749 0
M  V30 271 H 25.1666 -3.7579 0.325848 0
M  V30 272 H 27.5536 -2.94144 -0.237317 0
M  V30 273 H 27.6346 -2.17068 1.35334 0
M  V30 274 H 27.2786 -4.44871 2.45056 0
M  V30 275 H 27.2086 -5.19916 0.836338 0
M  V30 276 H 29.6996 -3.6456 0.995202 0
M  V30 277 H 30.0126 -7.26609 2.63171 0
M  V30 278 H 28.3576 -6.53696 2.36023 0
M  V30 279 H 31.5486 -4.49284 1.31382 0
M  V30 280 H 31.7216 -6.14389 2.05987 0
M  V30 281 N 25.1277 -0.289203 -1.54924 0
M  V30 282 C 26.0907 0.579144 -2.21762 0
M  V30 283 C 27.0907 1.07047 -1.1999 0
M  V30 284 O 28.2807 0.968384 -1.44803 0
M  V30 285 C 25.4127 1.80055 -2.8947 0
M  V30 286 H 26.6057 -0.00464908 -2.999 0
M  V30 287 H 24.1587 -0.0399306 -1.56249 0
M  V30 288 H 24.8937 2.42449 -2.15381 0
M  V30 289 H 24.6787 1.45602 -3.64064 0
M  V30 290 H 26.1687 2.41773 -3.40493 0
M  V30 291 N 26.6058 1.57591 -0.0167156 0
M  V30 292 C 27.8308 1.9598 0.67872 0
M  V30 293 C 28.2558 0.892546 1.65575 0
M  V30 294 O 27.6138 -0.147772 1.80697 0
M  V30 295 C 27.6618 3.33468 1.37227 0
M  V30 296 O 26.7658 3.28954 2.48722 0
M  V30 297 H 26.1068 0.639339 0.17928 0
M  V30 298 H 28.6368 2.04463 -0.0748802 0
M  V30 299 H 28.6468 3.69417 1.7319 0
M  V30 300 H 27.3218 4.10694 0.656007 0
M  V30 301 H 25.8988 3.04705 2.14963 0
M  V30 302 N 28.0839 -0.256276 1.55502 0
M  V30 303 C 29.0139 -1.32102 1.92539 0
M  V30 304 C 29.9949 -1.50684 0.789194 0
M  V30 305 O 31.1799 -1.63449 1.04872 0
M  V30 306 C 28.3099 -2.67752 2.21192 0
M  V30 307 C 27.2639 -2.63878 3.36975 0
M  V30 308 C 26.5899 -4.03236 3.51147 0
M  V30 309 C 27.8899 -2.21682 4.72921 0
M  V30 310 H 29.5839 -1.01351 2.81724 0
M  V30 311 H 27.1299 -0.486105 1.35547 0
M  V30 312 H 29.0829 -3.42365 2.45691 0
M  V30 313 H 27.8069 -3.0012 1.28824 0
M  V30 314 H 26.4659 -1.91722 3.12471 0
M  V30 315 H 26.1139 -4.32854 2.56216 0
M  V30 316 H 25.8139 -4.01535 4.29003 0
M  V30 317 H 27.3379 -4.79563 3.77957 0
M  V30 318 H 28.7519 -2.86023 4.96854 0
M  V30 319 H 27.1489 -2.3111 5.53812 0
M  V30 320 H 28.2189 -1.16833 4.70615 0
M  V30 321 N 29.562 -1.4872 -0.521534 0
M  V30 322 C 30.811 -1.56419 -1.27341 0
M  V30 323 C 31.124 -0.246805 -1.94037 0
M  V30 324 O 32.33 -0.202122 -2.70747 0
M  V30 325 C 30.786 -2.75896 -2.31105 0
M  V30 326 C 30.394 -4.14311 -1.70441 0
M  V30 327 C 32.138 -2.92913 -3.07249 0
M  V30 328 C 30.045 -5.25038 -2.72194 0
M  V30 329 H 28.975 -0.582344 -0.478949 0
M  V30 330 H 31.626 -1.75071 -0.549779 0
M  V30 331 H 30.008 -2.50697 -3.06541 0
M  V30 332 H 31.182 -4.49564 -1.01136 0
M  V30 333 H 29.497 -4.02482 -1.06759 0
M  V30 334 H 32.094 -3.72805 -3.83302 0
M  V30 335 H 32.437 -2.02689 -3.63625 0
M  V30 336 H 32.97 -3.18054 -2.38928 0
M  V30 337 H 29.709 -6.17255 -2.20627 0
M  V30 338 H 29.229 -4.94263 -3.39801 0
M  V30 339 H 30.908 -5.53508 -3.35019 0
M  V30 340 N 31.0401 0.771051 -1.3745 0
M  V30 341 C 32.2871 1.52963 -1.32697 0
M  V30 342 C 32.6151 1.94299 0.0883274 0
M  V30 343 O 31.8701 1.64397 1.0617 0
M  V30 344 C 32.1691 2.80676 -2.2126 0
M  V30 345 C 31.8351 2.58389 -3.69521 0
M  V30 346 C 30.4971 2.52019 -4.09927 0
M  V30 347 C 32.8491 2.38469 -4.63446 0
M  V30 348 C 30.1771 2.23721 -5.42371 0
M  V30 349 C 32.5291 2.11694 -5.96128 0
M  V30 350 C 31.1931 2.03769 -6.35637 0
M  V30 351 H 30.4631 0.559732 -0.485573 0
M  V30 352 H 33.1101 0.888083 -1.69662 0
M  V30 353 H 31.4151 3.49392 -1.77291 0
M  V30 354 H 33.1121 3.38557 -2.14895 0
M  V30 355 H 29.7021 2.6421 -3.37478 0
M  V30 356 H 33.8861 2.4238 -4.33089 0
M  V30 357 H 29.1421 2.16081 -5.71943 0
M  V30 358 H 33.3161 1.9528 -6.6846 0
M  V30 359 H 30.9431 1.81606 -7.38189 0
M  V30 360 N 32.5182 1.22032 0.997298 0
M  V30 361 C 33.7432 1.06921 1.77715 0
M  V30 362 C 34.1682 -0.376226 1.84299 0
M  V30 363 O 33.5262 -1.27165 1.29223 0
M  V30 364 C 33.5742 1.67996 3.19076 0
M  V30 365 O 32.6782 0.930653 4.01762 0
M  V30 366 H 32.0192 0.375814 0.547412 0
M  V30 367 H 34.5492 1.61737 1.25309 0
M  V30 368 H 34.5592 1.72538 3.69723 0
M  V30 369 H 33.2342 2.73182 3.13599 0
M  V30 370 H 31.8112 0.960917 3.60307 0
M  V30 371 N 33.9963 -1.19345 1.0293 0
M  V30 372 C 34.9263 -2.2481 0.631105 0
M  V30 373 C 35.9073 -1.66245 -0.360104 0
M  V30 374 O 37.0923 -1.92677 -0.242726 0
M  V30 375 C 34.2223 -3.47295 -0.0184607 0
M  V30 376 C 33.1763 -4.18536 0.895073 0
M  V30 377 C 32.5023 -5.34586 0.110592 0
M  V30 378 C 33.8023 -4.73287 2.209 0
M  V30 379 H 35.4963 -2.58372 1.51275 0
M  V30 380 H 33.0423 -1.24194 0.728818 0
M  V30 381 H 34.9953 -4.20268 -0.308675 0
M  V30 382 H 33.7193 -3.12933 -0.934907 0
M  V30 383 H 32.3783 -3.47446 1.16949 0
M  V30 384 H 32.0263 -4.96469 -0.807902 0
M  V30 385 H 31.7263 -5.83183 0.719087 0
M  V30 386 H 33.2503 -6.10355 -0.172871 0
M  V30 387 H 34.6643 -5.38013 1.98028 0
M  V30 388 H 33.0613 -5.32373 2.76946 0
M  V30 389 H 34.1313 -3.91331 2.86336 0
M  V30 390 N 35.4744 -0.807222 -1.35358 0
M  V30 391 C 36.4214 -0.216037 -2.29787 0
M  V30 392 C 37.3914 0.650278 -1.52842 0
M  V30 393 O 38.5764 0.595227 -1.81278 0
M  V30 394 C 35.7164 0.628893 -3.39321 0
M  V30 395 C 34.8294 -0.257927 -4.31229 0
M  V30 396 C 33.9644 0.595069 -5.27856 0
M  V30 397 C 33.0034 -0.292111 -6.11403 0
M  V30 398 N 32.1404 0.520895 -7.00165 0
M  V30 399 H 36.9804 -1.02671 -2.79755 0
M  V30 400 H 34.5174 -0.517839 -1.37684 0
M  V30 401 H 36.4754 1.13393 -4.01494 0
M  V30 402 H 35.1054 1.40482 -2.90628 0
M  V30 403 H 34.1574 -0.881076 -3.70056 0
M  V30 404 H 35.4694 -0.940759 -4.89848 0
M  V30 405 H 34.6234 1.16522 -5.95405 0
M  V30 406 H 33.3624 1.31146 -4.69736 0
M  V30 407 H 32.3674 -0.874525 -5.428 0
M  V30 408 H 33.5924 -1.00638 -6.71602 0
M  V30 409 H 31.5384 1.22125 -6.44532 0
M  V30 410 H 31.4554 -0.103877 -7.55929 0
M  V30 411 H 32.7234 1.0743 -7.72062 0
M  V30 412 N 36.9525 1.47285 -0.560781 0
M  V30 413 C 37.9005 2.31756 0.197942 0
M  V30 414 C 38.8945 1.43146 0.905854 0
M  V30 415 O 40.1005 1.59891 0.826733 0
M  V30 416 H 36.4755 0.747438 0.0827049 0
M  V30 417 H 38.4465 2.9359 -0.533629 0
M  V30 418 C 37.1955 3.25874 1.21249 0
M  V30 419 H 36.5185 3.94023 0.67719 0
M  V30 420 H 37.9585 3.87803 1.71419 0
M  V30 421 C 36.4175 2.49651 2.26221 0
M  V30 422 O 36.9475 2.24355 3.33208 0
M  V30 423 N 35.1535 2.10597 2.00243 0
M  V30 424 H 34.7005 2.31369 1.13252 0
M  V30 425 H 34.6585 1.59913 2.70694 0
M  V30 426 N 38.4306 0.297415 1.54768 0
M  V30 427 C 39.3406 -0.58983 2.27064 0
M  V30 428 C 40.3566 -1.15144 1.30453 0
M  V30 429 O 41.5326 -1.17699 1.63428 0
M  V30 430 C 38.5976 -1.74714 2.9946 0
M  V30 431 C 37.6586 -1.21997 4.11601 0
M  V30 432 C 36.8916 -2.32212 4.80535 0
M  V30 433 O 37.1146 -3.52036 4.48806 0
M  V30 434 O 36.0486 -1.99106 5.68014 0
M  V30 435 H 39.8746 -0.00348199 3.037 0
M  V30 436 H 37.4596 0.0640035 1.49263 0
M  V30 437 H 39.3416 -2.42147 3.44881 0
M  V30 438 H 38.0166 -2.32016 2.25722 0
M  V30 439 H 36.9236 -0.511458 3.70587 0
M  V30 440 H 38.2566 -0.692419 4.87305 0
M  V30 441 N 39.9087 -1.5758 0.0250728 0
M  V30 442 C 41.1547 -1.91917 -0.655413 0
M  V30 443 C 41.4877 -0.901433 -1.72011 0
M  V30 444 O 40.7627 0.0764069 -1.9435 0
M  V30 445 C 41.0457 -3.36751 -1.27558 0
M  V30 446 C 40.8987 -4.49258 -0.220719 0
M  V30 447 C 42.2177 -3.81469 -2.19475 0
M  V30 448 H 39.3367 -0.697925 -0.23679 0
M  V30 449 H 41.9787 -1.89825 0.0815036 0
M  V30 450 H 40.1287 -3.38664 -1.90365 0
M  V30 451 H 41.8007 -4.59478 0.409601 0
M  V30 452 H 40.0437 -4.31415 0.454264 0
M  V30 453 H 40.7147 -5.47618 -0.694175 0
M  V30 454 H 43.1907 -3.81266 -1.66659 0
M  V30 455 H 42.0667 -4.83512 -2.59822 0
M  V30 456 H 42.3277 -3.16744 -3.08424 0
M  V30 457 N 41.3868 0.248026 -1.55636 0
M  V30 458 C 42.6348 0.974295 -1.77065 0
M  V30 459 C 42.9558 1.85897 -0.588849 0
M  V30 460 O 42.2258 1.91868 0.395407 0
M  V30 461 H 40.8058 0.362733 -0.653019 0
M  V30 462 H 43.4678 0.266244 -1.93073 0
M  V30 463 H 42.5638 1.59667 -2.68166 0
M  V30 464 N 42.8649 1.48995 0.513639 0
M  V30 465 C 44.1129 1.57531 1.26604 0
M  V30 466 C 44.4339 0.258236 1.93283 0
M  V30 467 O 43.7039 -0.721502 1.8213 0
M  V30 468 H 42.2839 0.580387 0.470276 0
M  V30 469 H 44.9459 1.85552 0.596373 0
M  V30 470 H 44.0419 2.36486 2.03669 0
M  V30 471 N 44.343 -0.763751 1.37857 0
M  V30 472 C 45.273 -1.89103 1.36975 0
M  V30 473 C 46.254 -1.68439 0.237152 0
M  V30 474 O 47.439 -1.8918 0.438713 0
M  V30 475 C 44.569 -3.26496 1.18395 0
M  V30 476 C 43.523 -3.61741 2.28751 0
M  V30 477 C 42.849 -4.97762 1.95286 0
M  V30 478 C 44.149 -3.67665 3.70972 0
M  V30 479 H 45.843 -1.90099 2.31307 0
M  V30 480 H 43.389 -0.91319 1.11341 0
M  V30 481 H 45.342 -4.05003 1.16406 0
M  V30 482 H 44.066 -3.25955 0.205215 0
M  V30 483 H 42.725 -2.85547 2.29909 0
M  V30 484 H 42.373 -4.93769 0.959221 0
M  V30 485 H 42.073 -5.22313 2.69189 0
M  V30 486 H 43.597 -5.7866 1.94898 0
M  V30 487 H 45.011 -4.36307 3.719 0
M  V30 488 H 43.408 -4.03718 4.43995 0
M  V30 489 H 44.478 -2.68134 4.0402 0
M  V30 490 N 45.8211 -1.22559 -0.990812 0
M  V30 491 C 47.0701 -1.04553 -1.72486 0
M  V30 492 C 47.3831 0.419349 -1.91052 0
M  V30 493 O 48.5891 0.719121 -2.61803 0
M  V30 494 C 47.0451 -1.82231 -3.10355 0
M  V30 495 C 46.6531 -3.32981 -2.99713 0
M  V30 496 C 48.3971 -1.7268 -3.87791 0
M  V30 497 C 46.3041 -4.03091 -4.32748 0
M  V30 498 H 45.2341 -0.387614 -0.646739 0
M  V30 499 H 47.8851 -1.46429 -1.10593 0
M  V30 500 H 46.2671 -1.33155 -3.72942 0
M  V30 501 H 47.4411 -3.89466 -2.46278 0
M  V30 502 H 45.7561 -3.43231 -2.35758 0
M  V30 503 H 48.3531 -2.22381 -4.86262 0
M  V30 504 H 48.6961 -0.687607 -4.10582 0
M  V30 505 H 49.2291 -2.1931 -3.31885 0
M  V30 506 H 45.9681 -5.07273 -4.15156 0
M  V30 507 H 45.4881 -3.51394 -4.86089 0
M  V30 508 H 47.1671 -4.08804 -5.01486 0
M  V30 509 N 47.2992 1.18797 -1.03562 0
M  V30 510 C 48.2462 2.22253 -0.622259 0
M  V30 511 C 49.2162 1.61987 0.36736 0
M  V30 512 O 50.4012 1.88986 0.262492 0
M  V30 513 C 47.5412 3.45097 0.0138462 0
M  V30 514 C 46.6542 4.19722 -1.02263 0
M  V30 515 C 45.7892 5.30009 -0.355573 0
M  V30 516 C 44.8282 5.96399 -1.37749 0
M  V30 517 N 43.9652 6.98234 -0.735766 0
M  V30 518 H 48.8052 2.56968 -1.50903 0
M  V30 519 H 46.3422 1.26245 -0.755017 0
M  V30 520 H 48.3002 4.15279 0.399948 0
M  V30 521 H 46.9302 3.11018 0.864158 0
M  V30 522 H 45.9822 3.48418 -1.52673 0
M  V30 523 H 47.2942 4.65227 -1.79903 0
M  V30 524 H 46.4482 6.0664 0.0850095 0
M  V30 525 H 45.1872 4.85592 0.452967 0
M  V30 526 H 44.1922 5.18512 -1.82826 0
M  V30 527 H 45.4172 6.42899 -2.18764 0
M  V30 528 H 43.3632 6.55979 0.0525597 0
M  V30 529 H 43.2802 7.41965 -1.44995 0
M  V30 530 H 44.5482 7.78845 -0.31941 0
M  V30 531 N 48.7773 0.814389 1.34928 0
M  V30 532 C 49.7403 0.235759 2.27984 0
M  V30 533 C 50.7403 -0.581412 1.49921 0
M  V30 534 O 51.9303 -0.398758 1.69575 0
M  V30 535 C 49.0623 -0.670433 3.34242 0
M  V30 536 H 50.2553 1.05659 2.80671 0
M  V30 537 H 47.8083 0.585614 1.44915 0
M  V30 538 H 48.5433 -1.51466 2.86755 0
M  V30 539 H 48.3283 -0.0860822 3.92005 0
M  V30 540 H 49.8183 -1.06935 4.03676 0
M  V30 541 N 50.2554 -1.46986 0.568584 0
M  V30 542 C 51.1854 -2.32946 -0.160753 0
M  V30 543 C 52.1664 -1.44487 -0.897631 0
M  V30 544 O 53.3514 -1.73327 -0.875867 0
M  V30 545 C 50.4814 -3.26494 -1.18403 0
M  V30 546 C 49.4354 -4.24282 -0.562895 0
M  V30 547 C 48.7614 -5.07236 -1.69163 0
M  V30 548 C 50.0614 -5.19989 0.490761 0
M  V30 549 H 51.7554 -2.94175 0.556916 0
M  V30 550 H 49.3014 -1.4146 0.26927 0
M  V30 551 H 51.2544 -3.85477 -1.70251 0
M  V30 552 H 49.9784 -2.63343 -1.93179 0
M  V30 553 H 48.6374 -3.66541 -0.0656164 0
M  V30 554 H 48.2854 -4.4048 -2.42871 0
M  V30 555 H 47.9854 -5.7345 -1.28174 0
M  V30 556 H 49.5094 -5.6908 -2.21314 0
M  V30 557 H 50.9234 -5.73271 0.0579047 0
M  V30 558 H 49.3204 -5.94469 0.820165 0
M  V30 559 H 50.3904 -4.64777 1.3824 0
M  V30 560 N 51.7335 -0.305618 -1.54608 0
M  V30 561 C 52.6805 0.568421 -2.23691 0
M  V30 562 C 53.6505 1.12592 -1.22116 0
M  V30 563 O 54.8355 1.16959 -1.50749 0
M  V30 564 C 51.9755 1.7322 -2.98477 0
M  V30 565 C 51.0885 1.20566 -4.14835 0
M  V30 566 C 50.2235 2.33368 -4.77193 0
M  V30 567 C 49.2625 1.7787 -5.85686 0
M  V30 568 N 48.3995 2.84263 -6.4198 0
M  V30 569 H 53.2395 -0.0272867 -2.97988 0
M  V30 570 H 50.7765 -0.0252363 -1.47078 0
M  V30 571 H 52.7345 2.41675 -3.40072 0
M  V30 572 H 51.3645 2.29947 -2.26548 0
M  V30 573 H 50.4165 0.413223 -3.78149 0
M  V30 574 H 51.7285 0.759417 -4.92985 0
M  V30 575 H 50.8825 3.09761 -5.21664 0
M  V30 576 H 49.6215 2.8132 -3.98385 0
M  V30 577 H 48.6265 0.99968 -5.40635 0
M  V30 578 H 49.8515 1.30816 -6.66381 0
M  V30 579 H 47.7975 3.31541 -5.66053 0
M  V30 580 H 47.7145 2.44149 -7.15491 0
M  V30 581 H 48.9825 3.6054 -6.91109 0
M  V30 582 N 53.2116 1.57565 -0.0334293 0
M  V30 583 C 54.4606 1.91155 0.643639 0
M  V30 584 C 54.7736 0.91192 1.73042 0
M  V30 585 O 55.9796 1.13923 2.46442 0
M  V30 586 C 54.4356 3.39443 1.1961 0
M  V30 587 C 54.0436 4.47774 0.142381 0
M  V30 588 C 55.7876 3.82094 1.84944 0
M  V30 589 C 53.6946 5.87162 0.706727 0
M  V30 590 H 52.6246 0.713368 0.244176 0
M  V30 591 H 55.2756 1.8323 -0.0994323 0
M  V30 592 H 53.6576 3.42313 1.99092 0
M  V30 593 H 54.8316 4.56469 -0.630296 0
M  V30 594 H 53.1466 4.14352 -0.412446 0
M  V30 595 H 55.7436 4.83591 2.2813 0
M  V30 596 H 56.0866 3.17386 2.69392 0
M  V30 597 H 56.6196 3.81665 1.12145 0
M  V30 598 H 53.3586 6.55424 -0.0997178 0
M  V30 599 H 52.8786 5.82064 1.44779 0
M  V30 600 H 54.5576 6.35866 1.19514 0
M  V30 601 N 54.6897 -0.239769 1.55765 0
M  V30 602 C 55.9367 -0.966801 1.7793 0
M  V30 603 C 56.2647 -1.85046 0.599015 0
M  V30 604 O 55.5197 -1.91197 -0.417395 0
M  V30 605 C 55.8187 -1.852 3.05672 0
M  V30 606 C 55.4847 -1.1231 4.36689 0
M  V30 607 C 54.1467 -0.921689 4.72291 0
M  V30 608 C 56.4987 -0.607019 5.17653 0
M  V30 609 C 53.8267 -0.191996 5.86386 0
M  V30 610 C 56.1787 0.109241 6.32506 0
M  V30 611 C 54.8427 0.322073 6.66723 0
M  V30 612 H 54.1127 -0.353778 0.651093 0
M  V30 613 H 56.7597 -0.23634 1.90036 0
M  V30 614 H 55.0647 -2.64975 2.8861 0
M  V30 615 H 56.7617 -2.41635 3.20021 0
M  V30 616 H 53.3517 -1.29004 4.08725 0
M  V30 617 H 57.5357 -0.750153 4.90598 0
M  V30 618 H 52.7917 -0.0166949 6.11398 0
M  V30 619 H 56.9657 0.516737 6.9448 0
M  V30 620 H 54.5927 0.88944 7.54979 0
M  V30 621 N 56.1678 -1.49265 -0.50573 0
M  V30 622 C 57.0998 -1.617 -1.62437 0
M  V30 623 C 58.1128 -0.499924 -1.54934 0
M  V30 624 O 59.3018 -0.771785 -1.60953 0
M  V30 625 C 56.4018 -1.5533 -3.01207 0
M  V30 626 C 55.5748 -2.8249 -3.33943 0
M  V30 627 C 54.6338 -2.69238 -4.52103 0
M  V30 628 O 53.6598 -3.43167 -4.5412 0
M  V30 629 N 54.8618 -1.80468 -5.51735 0
M  V30 630 H 57.6268 -2.58177 -1.52199 0
M  V30 631 H 55.1878 -1.46294 -0.693511 0
M  V30 632 H 57.1798 -1.44125 -3.78167 0
M  V30 633 H 55.7498 -0.667297 -3.05395 0
M  V30 634 H 54.9698 -3.08081 -2.45926 0
M  V30 635 H 56.2578 -3.66802 -3.5261 0
M  V30 636 H 55.6558 -1.19653 -5.52901 0
M  V30 637 H 54.2128 -1.75188 -6.27816 0
M  V30 638 N 57.6459 0.756429 -1.3826 0
M  V30 639 C 58.5559 1.9009 -1.37488 0
M  V30 640 C 59.5719 1.71855 -0.272366 0
M  V30 641 O 60.7479 1.94827 -0.510318 0
M  V30 642 C 57.8129 3.25421 -1.19592 0
M  V30 643 C 56.8739 3.56202 -2.39622 0
M  V30 644 C 56.1069 4.85075 -2.2257 0
M  V30 645 O 56.3299 5.57246 -1.21793 0
M  V30 646 O 55.2639 5.15269 -3.11098 0
M  V30 647 H 59.0899 1.93695 -2.33914 0
M  V30 648 H 56.6749 0.901313 -1.1915 0
M  V30 649 H 58.5569 4.06337 -1.11661 0
M  V30 650 H 57.2319 3.22634 -0.262486 0
M  V30 651 H 56.1389 2.75458 -2.53128 0
M  V30 652 H 57.4719 3.63747 -3.31586 0
M  V30 653 N 59.124 1.23083 0.984299 0
M  V30 654 C 60.071 1.00854 2.07598 0
M  V30 655 C 61.041 -0.0726709 1.65941 0
M  V30 656 O 62.226 0.0786535 1.90638 0
M  V30 657 C 59.366 0.601645 3.39815 0
M  V30 658 C 58.479 1.75456 3.94765 0
M  V30 659 C 57.614 1.29482 5.15177 0
M  V30 660 C 56.653 2.41873 5.62284 0
M  V30 661 N 55.79 1.96885 6.73929 0
M  V30 662 H 60.63 1.943 2.25946 0
M  V30 663 H 58.167 0.968001 1.10762 0
M  V30 664 H 60.125 0.346854 4.15756 0
M  V30 665 H 58.755 -0.295803 3.21442 0
M  V30 666 H 57.807 2.12346 3.15616 0
M  V30 667 H 59.119 2.59965 4.25699 0
M  V30 668 H 58.273 0.997923 5.98437 0
M  V30 669 H 57.012 0.420046 4.85888 0
M  V30 670 H 56.017 2.72342 4.77608 0
M  V30 671 H 57.242 3.29881 5.93595 0
M  V30 672 H 55.188 1.11782 6.46406 0
M  V30 673 H 55.105 2.74956 7.04227 0
M  V30 674 H 56.373 1.70289 7.60672 0
M  V30 675 N 60.6021 -1.18246 1.0419 0
M  V30 676 C 61.5521 -2.19843 0.604392 0
M  V30 677 C 62.5361 -1.56962 -0.353814 0
M  V30 678 O 63.7281 -1.76156 -0.17267 0
M  V30 679 C 60.8571 -3.43287 -0.0298975 0
M  V30 680 C 59.9431 -4.13288 0.951531 0
M  V30 681 N 60.3341 -4.59271 2.11906 0
M  V30 682 C 58.6321 -4.39165 0.7778 0
M  V30 683 C 59.3331 -5.13173 2.73912 0
M  V30 684 N 58.3091 -5.04763 2.01779 0
M  V30 685 H 62.1111 -2.53089 1.4941 0
M  V30 686 H 59.6251 -1.34465 0.910658 0
M  V30 687 H 61.6221 -4.15334 -0.361037 0
M  V30 688 H 60.2821 -3.11537 -0.915127 0
M  V30 689 H 61.2931 -4.5368 2.49789 0
M  V30 690 H 57.9701 -4.17461 -0.0572331 0
M  V30 691 H 59.3601 -5.58947 3.72864 0
M  V30 692 N 62.0802 -0.821533 -1.34494 0
M  V30 693 C 63.3262 -0.409552 -1.98622 0
M  V30 694 C 63.6592 1.0244 -1.64984 0
M  V30 695 O 62.9342 1.71325 -0.920758 0
M  V30 696 C 63.2172 -0.610458 -3.54888 0
M  V30 697 C 63.0702 -2.09043 -3.98273 0
M  V30 698 C 64.3892 -0.0455379 -4.40076 0
M  V30 699 H 61.5082 -0.15028 -0.721516 0
M  V30 700 H 64.1502 -1.03384 -1.59411 0
M  V30 701 H 62.3002 -0.079044 -3.8842 0
M  V30 702 H 63.9722 -2.68537 -3.75081 0
M  V30 703 H 62.2152 -2.58139 -3.48635 0
M  V30 704 H 62.8862 -2.18182 -5.07051 0
M  V30 705 H 65.3622 -0.499557 -4.1309 0
M  V30 706 H 64.2382 -0.215922 -5.48475 0
M  V30 707 H 64.4992 1.04939 -4.29465 0
M  V30 708 N 63.5583 1.46682 -0.576371 0
M  V30 709 C 64.5063 2.31953 0.17335 0
M  V30 710 C 65.5003 1.44098 0.89062 0
M  V30 711 O 66.7063 1.60759 0.809728 0
M  V30 712 H 63.0813 0.748273 0.0747727 0
M  V30 713 H 65.0523 2.93007 -0.564738 0
M  V30 714 C 63.8013 3.27142 1.17786 0
M  V30 715 H 63.1243 3.94719 0.635361 0
M  V30 716 H 64.5643 3.896 1.67296 0
M  V30 717 C 63.0233 2.52036 2.23561 0
M  V30 718 O 63.5533 2.27877 3.3081 0
M  V30 719 N 61.7593 2.12709 1.97998 0
M  V30 720 H 61.3063 2.32557 1.10792 0
M  V30 721 H 61.2643 1.62776 2.68982 0
M  V30 722 N 65.0364 0.313813 1.54444 0
M  V30 723 C 65.9664 -0.549454 2.26943 0
M  V30 724 C 66.9474 -1.12741 1.27372 0
M  V30 725 O 68.1324 -1.15436 1.56167 0
M  V30 726 C 65.2624 -1.71523 3.01989 0
M  V30 727 C 64.2164 -1.26703 4.08816 0
M  V30 728 C 63.5424 -2.51898 4.71647 0
M  V30 729 C 64.8424 -0.388962 5.2085 0
M  V30 730 H 66.5364 0.0552661 2.99349 0
M  V30 731 H 64.0824 0.0280207 1.43973 0
M  V30 732 H 66.0354 -2.32535 3.51433 0
M  V30 733 H 64.7594 -2.34639 2.27183 0
M  V30 734 H 63.4184 -0.679896 3.6024 0
M  V30 735 H 63.0664 -3.13356 3.93468 0
M  V30 736 H 62.7664 -2.22605 5.43802 0
M  V30 737 H 64.2904 -3.1369 5.23861 0
M  V30 738 H 65.7044 -0.905107 5.6611 0
M  V30 739 H 64.1014 -0.18924 5.99802 0
M  V30 740 H 65.1714 0.582699 4.81386 0
M  V30 741 N 66.5145 -1.57545 0.0417849 0
M  V30 742 C 67.4445 -2.14009 -0.933929 0
M  V30 743 C 68.4255 -1.05938 -1.33083 0
M  V30 744 O 69.6105 -1.33833 -1.40721 0
M  V30 745 C 66.7405 -2.67747 -2.21199 0
M  V30 746 C 65.6945 -3.80718 -1.95544 0
M  V30 747 C 65.0205 -4.20935 -3.29724 0
M  V30 748 C 66.3205 -5.06258 -1.28452 0
M  V30 749 H 68.0145 -2.95788 -0.463645 0
M  V30 750 H 65.5605 -1.42285 -0.221573 0
M  V30 751 H 67.5135 -3.05886 -2.89848 0
M  V30 752 H 66.2375 -1.83147 -2.70416 0
M  V30 753 H 64.8965 -3.43037 -1.2931 0
M  V30 754 H 64.5445 -3.33298 -3.76724 0
M  V30 755 H 64.2445 -4.9707 -3.13361 0
M  V30 756 H 65.7685 -4.61666 -3.9962 0
M  V30 757 H 67.1825 -5.41903 -1.8712 0
M  V30 758 H 65.5795 -5.87475 -1.22445 0
M  V30 759 H 66.6495 -4.84207 -0.259219 0
M  V30 760 N 67.9926 0.231505 -1.5589 0
M  V30 761 C 68.9426 1.29007 -1.87993 0
M  V30 762 C 69.9266 1.42764 -0.742102 0
M  V30 763 O 71.1186 1.45747 -1.00433 0
M  V30 764 C 68.2476 2.6425 -2.1915 0
M  V30 765 C 67.3336 2.54435 -3.39299 0
M  V30 766 N 67.7246 2.14262 -4.58176 0
M  V30 767 C 66.0226 2.85416 -3.42715 0
M  V30 768 C 66.7236 2.15455 -5.40328 0
M  V30 769 N 65.6996 2.55558 -4.79783 0
M  V30 770 H 69.5016 0.970213 -2.77424 0
M  V30 771 H 67.0156 0.440097 -1.56323 0
M  V30 772 H 69.0126 3.40665 -2.40319 0
M  V30 773 H 67.6726 2.9709 -1.31025 0
M  V30 774 H 68.6836 1.85554 -4.83518 0
M  V30 775 H 65.3606 3.22693 -2.64906 0
M  V30 776 H 66.7506 1.86605 -6.45467 0
M  V30 777 N 69.4707 1.49531 0.497807 0
M  V30 778 C 70.7197 1.58426 1.24837 0
M  V30 779 C 71.0327 0.277643 1.93619 0
M  V30 780 O 72.2387 0.24517 2.70391 0
M  V30 781 C 70.6947 2.79538 2.26686 0
M  V30 782 C 70.3027 4.16971 1.63828 0
M  V30 783 C 72.0467 2.97764 3.0255 0
M  V30 784 C 69.9537 5.29301 2.63807 0
M  V30 785 H 68.8837 0.58989 0.469623 0
M  V30 786 H 71.5347 1.75923 0.521857 0
M  V30 787 H 69.9167 2.55542 3.02514 0
M  V30 788 H 71.0907 4.51116 0.939711 0
M  V30 789 H 69.4057 4.04129 1.00342 0
M  V30 790 H 72.0027 3.78856 3.77323 0
M  V30 791 H 72.3457 2.08448 3.60354 0
M  V30 792 H 72.8787 3.21815 2.33838 0
M  V30 793 H 69.6177 6.20687 2.10779 0
M  V30 794 H 69.1377 4.99606 3.31894 0
M  V30 795 H 70.8167 5.58768 3.2617 0
M  V30 796 N 70.9488 -0.749086 1.3866 0
M  V30 797 C 71.8588 -1.89358 1.38494 0
M  V30 798 C 72.8748 -1.71708 0.281476 0
M  V30 799 O 74.0508 -1.94554 0.520643 0
M  V30 800 C 71.1158 -3.24782 1.21316 0
M  V30 801 C 70.1768 -3.54926 2.41508 0
M  V30 802 C 69.4098 -4.83888 2.2514 0
M  V30 803 O 69.6328 -5.56592 1.24746 0
M  V30 804 O 68.5668 -5.13612 3.13826 0
M  V30 805 H 72.3928 -1.92452 2.34938 0
M  V30 806 H 69.9778 -0.894981 1.19626 0
M  V30 807 H 71.8598 -4.05739 1.13814 0
M  V30 808 H 70.5348 -3.2249 0.279592 0
M  V30 809 H 69.4418 -2.74112 2.54585 0
M  V30 810 H 70.7748 -3.61983 3.3351 0
M  V30 811 N 72.4269 -1.23603 -0.977757 0
M  V30 812 C 73.6519 -1.09735 -1.75991 0
M  V30 813 C 74.0769 0.346858 -1.84874 0
M  V30 814 O 73.4349 1.25093 -1.3123 0
M  V30 815 C 73.4829 -1.73051 -3.16363 0
M  V30 816 O 72.5869 -0.994452 -4.0023 0
M  V30 817 H 71.9279 -0.384476 -0.541364 0
M  V30 818 H 74.4579 -1.6371 -1.2272 0
M  V30 819 H 74.4679 -1.78398 -3.66931 0
M  V30 820 H 73.1429 -2.78137 -3.09213 0
M  V30 821 H 71.7199 -1.01812 -3.58732 0
M  V30 822 N 73.905 1.17692 -1.04816 0
M  V30 823 C 75.321 1.39863 -0.768794 0
M  V30 824 C 75.521 1.91118 0.638451 0
M  V30 825 O 74.577 2.10036 1.40146 0
M  V30 826 C 75.89 2.39274 -1.82122 0
M  V30 827 C 77.438 2.52987 -1.843 0
M  V30 828 C 77.913 3.55669 -2.88555 0
M  V30 829 N 79.404 3.63183 -2.87493 0
M  V30 830 C 80.139 4.42381 -3.64811 0
M  V30 831 N 79.635 5.25125 -4.51903 0
M  V30 832 N 81.428 4.37217 -3.53267 0
M  V30 833 H 73.579 0.82752 -1.95617 0
M  V30 834 H 75.842 0.426123 -0.846831 0
M  V30 835 H 75.548 2.08678 -2.83102 0
M  V30 836 H 75.422 3.38725 -1.65967 0
M  V30 837 H 77.809 2.82896 -0.839869 0
M  V30 838 H 77.89 1.53623 -2.04532 0
M  V30 839 H 77.534 3.26499 -3.89051 0
M  V30 840 H 77.464 4.54728 -2.65575 0
M  V30 841 H 79.955 3.04103 -2.24343 0
M  V30 842 H 80.268 5.82728 -5.07591 0
M  V30 843 H 78.613 5.24519 -4.55966 0
M  V30 844 H 81.804 3.71626 -2.84625 0
M  V30 845 H 81.977 4.98696 -4.13771 0
M  V30 846 N 75.3831 0.828654 1.34056 0
M  V30 847 C 76.3301 0.252567 2.29414 0
M  V30 848 C 77.3001 -0.62588 1.53857 0
M  V30 849 O 78.4851 -0.566312 1.82202 0
M  V30 850 C 75.6251 -0.574831 3.40279 0
M  V30 851 C 74.7381 0.326499 4.30764 0
M  V30 852 C 73.8731 -0.511016 5.28736 0
M  V30 853 C 72.9121 0.389342 6.1086 0
M  V30 854 N 72.0491 -0.409439 7.00905 0
M  V30 855 H 76.8891 1.07108 2.78086 0
M  V30 856 H 74.4261 0.539677 1.36843 0
M  V30 857 H 76.3841 -1.06992 4.03248 0
M  V30 858 H 75.0141 -1.35841 2.92826 0
M  V30 859 H 74.0661 0.939837 3.68607 0
M  V30 860 H 75.3781 1.01857 4.88289 0
M  V30 861 H 74.5321 -1.07035 5.97184 0
M  V30 862 H 73.2711 -1.23657 4.71763 0
M  V30 863 H 72.2761 0.960769 5.4134 0
M  V30 864 H 73.5011 1.1131 6.69916 0
M  V30 865 H 71.4471 -1.11856 6.46393 0
M  V30 866 H 71.3641 0.224126 7.55668 0
M  V30 867 H 72.6321 -0.951336 7.73673 0
M  V30 868 N 76.8612 -1.46375 0.584142 0
M  V30 869 C 78.0862 -2.07268 0.0740405 0
M  V30 870 C 78.5112 -1.42979 -1.22223 0
M  V30 871 O 77.8692 -0.514092 -1.73859 0
M  V30 872 C 77.9172 -3.60518 -0.0767769 0
M  V30 873 O 77.0212 -3.96533 -1.13292 0
M  V30 874 H 76.3622 -0.660961 0.0634524 0
M  V30 875 H 78.8922 -1.87991 0.807492 0
M  V30 876 H 78.9022 -4.07021 -0.282489 0
M  V30 877 H 77.5772 -4.06702 0.86986 0
M  V30 878 H 76.1542 -3.61738 -0.905553 0
M  V30 879 N 78.3393 -0.321999 -1.54275 0
M  V30 880 C 79.2863 0.544664 -2.24281 0
M  V30 881 C 80.2563 1.1129 -1.23303 0
M  V30 882 O 81.4413 1.15354 -1.51981 0
M  V30 883 C 78.5813 1.70045 -3.00298 0
M  V30 884 C 77.6943 1.16159 -4.1609 0
M  V30 885 C 76.8293 2.28293 -4.79641 0
M  V30 886 C 75.8683 1.71648 -5.8754 0
M  V30 887 N 75.0053 2.77438 -6.44959 0
M  V30 888 H 79.8453 -0.0588907 -2.97942 0
M  V30 889 H 77.3823 -0.0408345 -1.47043 0
M  V30 890 H 79.3403 2.38054 -3.42616 0
M  V30 891 H 77.9703 2.27531 -2.28975 0
M  V30 892 H 77.0223 0.373092 -3.78566 0
M  V30 893 H 78.3343 0.707087 -4.93763 0
M  V30 894 H 77.4883 3.0421 -5.2492 0
M  V30 895 H 76.2273 2.77079 -4.01346 0
M  V30 896 H 75.2323 0.942282 -5.41665 0
M  V30 897 H 76.4573 1.23741 -6.67731 0
M  V30 898 H 74.4033 3.25519 -5.69538 0
M  V30 899 H 74.3203 2.36547 -7.1804 0
M  V30 900 H 75.5883 3.53189 -6.94894 0
M  V30 901 N 79.8174 1.5752 -0.0501392 0
M  V30 902 C 81.2334 1.56631 0.306402 0
M  V30 903 C 81.4334 1.0577 1.71508 0
M  V30 904 O 80.4894 0.713837 2.422 0
M  V30 905 C 81.8024 3.00393 0.135811 0
M  V30 906 C 83.3504 3.12315 0.206993 0
M  V30 907 C 83.8254 4.57954 0.064944 0
M  V30 908 N 85.3164 4.63041 0.121254 0
M  V30 909 C 86.0514 5.73389 0.0354381 0
M  V30 910 N 85.5474 6.92724 -0.102666 0
M  V30 911 N 87.3404 5.62026 0.090946 0
M  V30 912 H 79.4914 1.88903 -0.971046 0
M  V30 913 H 81.7544 0.869876 -0.376855 0
M  V30 914 H 81.4604 3.41635 -0.835384 0
M  V30 915 H 81.3344 3.66373 0.897275 0
M  V30 916 H 83.7214 2.70973 1.16866 0
M  V30 917 H 83.8024 2.49016 -0.585208 0
M  V30 918 H 83.4464 4.99981 -0.893394 0
M  V30 919 H 83.3764 5.19258 0.876277 0
M  V30 920 H 85.8674 3.77216 0.227284 0
M  V30 921 H 86.1804 7.72633 -0.160882 0
M  V30 922 H 84.5254 6.94864 -0.137737 0
M  V30 923 H 87.7164 4.67684 0.197388 0
M  V30 924 H 87.8894 6.47997 0.0206089 0
M  V30 925 N 81.2955 -0.223234 1.56011 0
M  V30 926 C 82.7115 -0.572856 1.48965 0
M  V30 927 C 82.9115 -1.87225 0.74492 0
M  V30 928 O 81.9675 -2.50899 0.283896 0
M  V30 929 C 83.2805 -0.653646 2.9351 0
M  V30 930 C 84.8285 -0.744386 3.0402 0
M  V30 931 C 85.3035 -0.856535 4.49919 0
M  V30 932 N 86.7945 -0.9208 4.53955 0
M  V30 933 C 87.5295 -1.02726 5.64123 0
M  V30 934 N 87.0255 -1.09777 6.84047 0
M  V30 935 N 88.8185 -1.06226 5.51971 0
M  V30 936 H 80.9695 0.629462 2.02858 0
M  V30 937 H 83.2325 0.220621 0.921971 0
M  V30 938 H 82.9385 0.231518 3.50937 0
M  V30 939 H 82.8125 -1.51781 3.45315 0
M  V30 940 H 85.1995 -1.61999 2.46658 0
M  V30 941 H 85.2805 0.14541 2.55386 0
M  V30 942 H 84.9245 0.0146069 5.07898 0
M  V30 943 H 84.8545 -1.76172 4.96257 0
M  V30 944 H 87.3455 -0.876694 3.6759 0
M  V30 945 H 87.6585 -1.17872 7.63758 0
M  V30 946 H 86.0035 -1.06693 6.86762 0
M  V30 947 H 89.1945 -1.00382 4.5721 0
M  V30 948 H 89.3675 -1.14177 6.37862 0
M  V30 949 N 82.7736 -1.49793 -0.48987 0
M  V30 950 C 83.7216 -1.67783 -1.61095 0
M  V30 951 C 84.7156 -0.543683 -1.60438 0
M  V30 952 O 85.9216 -0.723647 -1.64813 0
M  V30 953 H 82.2966 -0.529255 -0.534222 0
M  V30 954 H 84.2676 -2.61861 -1.43078 0
M  V30 955 C 83.0166 -1.77191 -2.99164 0
M  V30 956 H 82.3396 -2.63841 -3.0038 0
M  V30 957 H 83.7796 -1.93809 -3.77113 0
M  V30 958 C 82.2386 -0.519203 -3.32875 0
M  V30 959 O 82.7686 0.350124 -4.00171 0
M  V30 960 N 80.9746 -0.378816 -2.8812 0
M  V30 961 H 80.5216 -1.08725 -2.33531 0
M  V30 962 H 80.4796 0.458239 -3.11043 0
M  V30 963 N 84.2517 0.741722 -1.39055 0
M  V30 964 C 85.4767 1.53607 -1.39354 0
M  V30 965 C 85.9017 1.88096 0.0116905 0
M  V30 966 O 85.2597 1.5143 0.996924 0
M  V30 967 C 85.3077 2.80441 -2.26682 0
M  V30 968 O 84.4117 3.76088 -1.69208 0
M  V30 969 H 83.7527 0.464142 -0.474835 0
M  V30 970 H 86.2827 0.915665 -1.82967 0
M  V30 971 H 86.2927 3.29246 -2.40959 0
M  V30 972 H 84.9677 2.5467 -3.2881 0
M  V30 973 H 83.5447 3.34833 -1.64138 0
M  V30 974 N 85.7298 1.2412 0.971189 0
M  V30 975 C 86.6398 1.04747 2.09917 0
M  V30 976 C 87.6558 -0.0107162 1.73997 0
M  V30 977 O 88.8318 0.186714 2.00533 0
M  V30 978 C 85.8968 0.650828 3.40537 0
M  V30 979 C 84.9578 1.7851 3.90426 0
M  V30 980 C 84.1908 1.40729 5.14812 0
M  V30 981 O 84.4138 0.29557 5.69634 0
M  V30 982 O 83.3478 2.23168 5.58999 0
M  V30 983 H 87.1738 1.99304 2.29154 0
M  V30 984 H 84.7588 1.02908 1.08307 0
M  V30 985 H 86.6408 0.440992 4.19086 0
M  V30 986 H 85.3158 -0.265649 3.22608 0
M  V30 987 H 84.2228 2.04966 3.12953 0
M  V30 988 H 85.5558 2.68023 4.12825 0
M  V30 989 N 87.2079 -1.17134 1.05439 0
M  V30 990 C 88.4549 -1.87456 0.765942 0
M  V30 991 C 88.7829 -1.81189 -0.707153 0
M  V30 992 O 88.0379 -1.21633 -1.5331 0
M  V30 993 C 88.3369 -3.36833 1.19491 0
M  V30 994 C 88.0029 -3.63301 2.67063 0
M  V30 995 C 86.6649 -3.70234 3.07376 0
M  V30 996 C 89.0169 -3.74575 3.62413 0
M  V30 997 C 86.3449 -3.85933 4.41896 0
M  V30 998 C 88.6969 -3.91793 4.9667 0
M  V30 999 C 87.3609 -3.96966 5.36633 0
M  V30 1000 H 86.6309 -0.685948 0.280278 0
M  V30 1001 H 89.2779 -1.38556 1.32192 0
M  V30 1002 H 87.5829 -3.87807 0.557969 0
M  V30 1003 H 89.2799 -3.89611 0.948893 0
M  V30 1004 H 85.8699 -3.58532 2.34846 0
M  V30 1005 H 90.0539 -3.68537 3.32406 0
M  V30 1006 H 85.3099 -3.88187 4.72357 0
M  V30 1007 H 89.4839 -3.99458 5.70444 0
M  V30 1008 H 87.1109 -4.08883 6.40874 0
M  V30 1009 N 88.686 -0.835752 -1.33615 0
M  V30 1010 C 89.596 -0.269088 -2.33052 0
M  V30 1011 C 90.612 0.603251 -1.63208 0
M  V30 1012 O 91.788 0.508112 -1.94885 0
M  V30 1013 C 88.853 0.549091 -3.42324 0
M  V30 1014 C 87.914 -0.347156 -4.27894 0
M  V30 1015 C 87.147 0.43207 -5.31948 0
M  V30 1016 O 87.37 1.66409 -5.45586 0
M  V30 1017 O 86.304 -0.192298 -6.01593 0
M  V30 1018 H 90.13 -1.09243 -2.83372 0
M  V30 1019 H 87.715 -0.598198 -1.36901 0
M  V30 1020 H 89.597 1.01414 -4.09015 0
M  V30 1021 H 88.272 1.34955 -2.94226 0
M  V30 1022 H 87.179 -0.859979 -3.64081 0
M  V30 1023 H 88.512 -1.1123 -4.79467 0
M  V30 1024 N 90.1641 1.46063 -0.591896 0
M  V30 1025 C 91.4131 2.01547 -0.0786637 0
M  V30 1026 C 91.7261 1.46796 1.29268 0
M  V30 1027 O 92.9321 1.94157 1.89777 0
M  V30 1028 C 91.3881 3.59787 -0.0900024 0
M  V30 1029 C 90.9961 4.23534 -1.46023 0
M  V30 1030 C 92.7401 4.22895 0.368806 0
M  V30 1031 C 90.6471 5.73881 -1.4288 0
M  V30 1032 H 89.5771 0.753564 -0.0256388 0
M  V30 1033 H 92.2281 1.677 -0.744905 0
M  V30 1034 H 90.6101 3.90752 0.642586 0
M  V30 1035 H 91.7841 4.04167 -2.21328 0
M  V30 1036 H 90.0991 3.72558 -1.85982 0
M  V30 1037 H 92.6961 5.33116 0.411258 0
M  V30 1038 H 93.0391 3.9247 1.38827 0
M  V30 1039 H 93.5721 3.9659 -0.31001 0
M  V30 1040 H 90.3111 6.0898 -2.42536 0
M  V30 1041 H 89.8311 5.95486 -0.718095 0
M  V30 1042 H 91.5101 6.36776 -1.14565 0
M  V30 1043 N 91.6422 0.330177 1.54103 0
M  V30 1044 C 92.8892 -0.270405 2.00686 0
M  V30 1045 C 93.2172 -1.51621 1.21825 0
M  V30 1046 O 92.4722 -1.93536 0.29025 0
M  V30 1047 C 92.7712 -0.643134 3.51566 0
M  V30 1048 C 92.4372 0.504251 4.48072 0
M  V30 1049 C 91.0992 0.819163 4.74176 0
M  V30 1050 C 93.4512 1.27465 5.05373 0
M  V30 1051 C 90.7792 1.90708 5.5484 0
M  V30 1052 C 93.1312 2.35271 5.87223 0
M  V30 1053 C 91.7952 2.67336 6.11627 0
M  V30 1054 H 91.0652 -0.0989482 0.734364 0
M  V30 1055 H 93.7122 0.455324 1.86008 0
M  V30 1056 H 92.0172 -1.44938 3.64006 0
M  V30 1057 H 93.7142 -1.11949 3.85056 0
M  V30 1058 H 90.3042 0.248733 4.27878 0
M  V30 1059 H 94.4882 1.04462 4.85182 0
M  V30 1060 H 89.7442 2.15991 5.71977 0
M  V30 1061 H 93.9182 2.95405 6.30641 0
M  V30 1062 H 91.5452 3.51763 6.73919 0
M  V30 1063 N 93.1203 -1.57491 0.0584922 0
M  V30 1064 C 94.3663 -1.93264 -0.614558 0
M  V30 1065 C 94.6993 -0.937717 -1.7006 0
M  V30 1066 O 93.9743 0.0351652 -1.94468 0
M  V30 1067 C 94.2573 -3.3938 -1.20386 0
M  V30 1068 C 94.1103 -4.49625 -0.125375 0
M  V30 1069 C 95.4293 -3.86039 -2.11334 0
M  V30 1070 H 92.5483 -0.702791 -0.221933 0
M  V30 1071 H 95.1903 -1.8961 0.12175 0
M  V30 1072 H 93.3403 -3.42626 -1.83139 0
M  V30 1073 H 95.0123 -4.58506 0.506971 0
M  V30 1074 H 93.2553 -4.30354 0.545672 0
M  V30 1075 H 93.9263 -5.48967 -0.577861 0
M  V30 1076 H 96.4023 -3.84716 -1.58534 0
M  V30 1077 H 95.2783 -4.88914 -2.49507 0
M  V30 1078 H 95.5393 -3.23215 -3.01636 0
M  V30 1079 N 94.5984 0.214957 -1.56127 0
M  V30 1080 C 95.8754 0.963093 -1.70247 0
M  V30 1081 C 96.2554 2.02166 -0.60764 0
M  V30 1082 O 95.6034 2.25244 0.384385 0
M  V30 1083 C 95.8134 1.56756 -3.11815 0
M  V30 1084 C 97.1614 2.0573 -3.7143 0
M  V30 1085 O 98.1854 1.66637 -3.14818 0
M  V30 1086 O 97.0444 2.77603 -4.70743 0
M  V30 1087 H 94.1384 0.450321 -0.693643 0
M  V30 1088 H 96.6844 0.206219 -1.68442 0
M  V30 1089 H 95.4564 0.803533 -3.82961 0
M  V30 1090 H 95.0794 2.3898 -3.17765 0
M  V30 1091 N 96.0765 1.50051 0.48192 0
M  V30 1092 C 97.3165 1.62128 1.24474 0
M  V30 1093 C 97.6805 0.309742 1.89485 0
M  V30 1094 O 98.8815 0.305854 2.67054 0
M  V30 1095 C 97.1525 2.76151 2.26882 0
M  V30 1096 S 98.7115 3.08297 3.12247 0
M  V30 1097 H 95.5295 0.571661 0.422759 0
M  V30 1098 H 98.1315 1.87791 0.54359 0
M  V30 1099 H 96.8355 3.69942 1.77683 0
M  V30 1100 H 96.3665 2.52541 3.0164 0
M  V30 1101 H 98.3815 2.51287 4.27866 0
M  V30 1102 N 97.5546 -0.734337 1.39446 0
M  V30 1103 C 98.8316 -1.48579 1.27215 0
M  V30 1104 C 99.2116 -2.1077 -0.117968 0
M  V30 1105 O 98.5596 -1.98646 -1.12924 0
M  V30 1106 C 98.7696 -2.53667 2.39696 0
M  V30 1107 C 100.118 -3.20031 2.79044 0
M  V30 1108 O 101.142 -2.6398 2.39151 0
M  V30 1109 O 100.001 -4.21455 3.47905 0
M  V30 1110 H 97.0946 -0.659816 0.49857 0
M  V30 1111 H 99.6406 -0.768106 1.51322 0
M  V30 1112 H 98.4126 -2.06096 3.32626 0
M  V30 1113 H 98.0356 -3.32994 2.17258 0
M  V30 1114 N 99.0327 -1.24633 -0.964593 0
M  V30 1115 C 100.282 -1.08188 -1.7023 0
M  V30 1116 C 100.595 0.37873 -1.91898 0
M  V30 1117 O 101.801 0.663427 -2.6327 0
M  V30 1118 C 100.257 -1.88773 -3.06419 0
M  V30 1119 C 99.8647 -3.39263 -2.92582 0
M  V30 1120 C 101.609 -1.80867 -3.84041 0
M  V30 1121 C 99.5157 -4.1218 -4.24101 0
M  V30 1122 H 98.4457 -0.401245 -0.638372 0
M  V30 1123 H 101.097 -1.48742 -1.07462 0
M  V30 1124 H 99.4787 -1.41035 -3.70034 0
M  V30 1125 H 100.653 -3.94603 -2.37961 0
M  V30 1126 H 98.9677 -3.48154 -2.28424 0
M  V30 1127 H 101.565 -2.32646 -4.81435 0
M  V30 1128 H 101.908 -0.774543 -4.09031 0
M  V30 1129 H 102.441 -2.26301 -3.27159 0
M  V30 1130 H 99.1797 -5.15965 -4.04303 0
M  V30 1131 H 98.6997 -3.61626 -4.78526 0
M  V30 1132 H 100.379 -4.19349 -4.92702 0
M  V30 1133 N 100.511 1.16574 -1.06058 0
M  V30 1134 C 101.459 2.22941 -0.663343 0
M  V30 1135 C 102.453 1.66358 0.319593 0
M  V30 1136 O 103.659 1.7905 0.184713 0
M  V30 1137 H 100.034 0.725907 -0.196376 0
M  V30 1138 H 102.005 2.53736 -1.57037 0
M  V30 1139 C 100.754 3.47642 -0.0632808 0
M  V30 1140 H 100.077 3.91493 -0.810733 0
M  V30 1141 H 101.517 4.2363 0.177177 0
M  V30 1142 C 99.9758 3.1509 1.19248 0
M  V30 1143 O 100.506 3.30673 2.28075 0
M  V30 1144 N 98.7118 2.6924 1.09353 0
M  V30 1145 H 98.2588 2.5676 0.207912 0
M  V30 1146 H 98.2168 2.47833 1.93458 0
M  V30 1147 N 101.989 0.842826 1.3317 0
M  V30 1148 C 103.405 0.531128 1.50503 0
M  V30 1149 C 103.605 -0.940734 1.78192 0
M  V30 1150 O 102.661 -1.72436 1.84451 0
M  V30 1151 C 103.974 1.40789 2.65705 0
M  V30 1152 C 105.522 1.40708 2.79589 0
M  V30 1153 C 105.997 2.26878 3.97857 0
M  V30 1154 N 107.488 2.24609 4.05099 0
M  V30 1155 C 108.223 2.88019 4.95815 0
M  V30 1156 N 107.719 3.60496 5.9162 0
M  V30 1157 N 109.512 2.77469 4.88843 0
M  V30 1158 H 101.663 1.79557 1.1346 0
M  V30 1159 H 103.926 0.766267 0.558156 0
M  V30 1160 H 103.632 2.454 2.51936 0
M  V30 1161 H 103.506 1.08677 3.61205 0
M  V30 1162 H 105.893 0.368668 2.92788 0
M  V30 1163 H 105.974 1.76829 1.84838 0
M  V30 1164 H 105.618 3.3078 3.85418 0
M  V30 1165 H 105.548 1.88096 4.91861 0
M  V30 1166 H 108.039 1.71906 3.36536 0
M  V30 1167 H 108.352 4.06076 6.57512 0
M  V30 1168 H 106.697 3.64604 5.91683 0
M  V30 1169 H 109.888 2.20406 4.12963 0
M  V30 1170 H 110.061 3.2717 5.59342 0
M  V30 1171 N 103.467 -1.45747 0.599634 0
M  V30 1172 C 104.377 -2.34262 -0.125888 0
M  V30 1173 C 105.393 -1.50768 -0.868625 0
M  V30 1174 O 106.569 -1.83592 -0.828003 0
M  V30 1175 C 103.634 -3.28252 -1.11587 0
M  V30 1176 C 102.695 -4.27651 -0.375956 0
M  V30 1177 C 101.928 -5.1715 -1.31877 0
M  V30 1178 O 102.151 -5.09916 -2.55621 0
M  V30 1179 O 101.085 -5.96286 -0.820157 0
M  V30 1180 H 104.911 -2.97688 0.601315 0
M  V30 1181 H 102.496 -1.44999 0.359934 0
M  V30 1182 H 104.378 -3.86191 -1.68626 0
M  V30 1183 H 103.053 -2.67401 -1.82424 0
M  V30 1184 H 101.96 -3.7335 0.236698 0
M  V30 1185 H 103.293 -4.91334 0.29177 0
M  V30 1186 N 104.945 -0.338344 -1.53925 0
M  V30 1187 C 105.877 0.555117 -2.22376 0
M  V30 1188 C 106.89 1.06812 -1.22862 0
M  V30 1189 O 108.079 0.979163 -1.49247 0
M  V30 1190 C 105.179 1.77609 -2.88631 0
M  V30 1191 C 104.352 1.39927 -4.14414 0
M  V30 1192 C 103.411 2.47936 -4.64127 0
M  V30 1193 O 102.437 2.11461 -5.28463 0
M  V30 1194 N 103.639 3.79107 -4.39612 0
M  V30 1195 H 106.404 -0.0310778 -2.99684 0
M  V30 1196 H 103.965 -0.162226 -1.61085 0
M  V30 1197 H 105.957 2.49287 -3.18807 0
M  V30 1198 H 104.527 2.26978 -2.14941 0
M  V30 1199 H 103.747 0.513481 -3.90841 0
M  V30 1200 H 105.035 1.12341 -4.96243 0
M  V30 1201 H 104.433 4.11531 -3.88148 0
M  V30 1202 H 102.99 4.4697 -4.74406 0
M  V30 1203 N 106.423 1.57458 -0.0668435 0
M  V30 1204 C 107.353 2.15468 0.899764 0
M  V30 1205 C 108.334 1.08042 1.31381 0
M  V30 1206 O 109.519 1.36054 1.38574 0
M  V30 1207 C 106.649 2.71232 2.16911 0
M  V30 1208 C 105.603 3.83781 1.89463 0
M  V30 1209 C 104.929 4.26127 3.22986 0
M  V30 1210 C 106.229 5.08238 1.20381 0
M  V30 1211 H 107.923 2.96488 0.416529 0
M  V30 1212 H 105.469 1.4262 0.198908 0
M  V30 1213 H 107.422 3.10458 2.84945 0
M  V30 1214 H 106.146 1.87426 2.67468 0
M  V30 1215 H 104.805 3.45051 1.23836 0
M  V30 1216 H 104.453 3.39249 3.71374 0
M  V30 1217 H 104.153 5.01993 3.05413 0
M  V30 1218 H 105.677 4.67966 3.92225 0
M  V30 1219 H 107.091 5.44811 1.78475 0
M  V30 1220 H 105.488 5.89349 1.13083 0
M  V30 1221 H 106.558 4.84558 0.182153 0
M  V30 1222 N 107.901 -0.206675 1.56239 0
M  V30 1223 C 108.849 -1.27571 1.94495 0
M  V30 1224 C 109.843 -1.47737 0.828862 0
M  V30 1225 O 111.049 -1.48735 1.0138 0
M  V30 1226 H 107.424 -0.428029 0.6183 0
M  V30 1227 H 109.395 -0.925961 2.8367 0
M  V30 1228 C 108.144 -2.61568 2.29079 0
M  V30 1229 H 107.467 -2.46863 3.14482 0
M  V30 1230 H 108.907 -3.35144 2.5972 0
M  V30 1231 C 107.366 -3.17695 1.12123 0
M  V30 1232 O 107.896 -3.99801 0.390153 0
M  V30 1233 N 106.102 -2.76276 0.901097 0
M  V30 1234 H 105.649 -2.09613 1.49733 0
M  V30 1235 H 105.607 -3.1417 0.120319 0
M  V30 1236 N 109.379 -1.50304 -0.473955 0
M  V30 1237 C 110.656 -1.51667 -1.23518 0
M  V30 1238 C 111.036 -0.259701 -2.09496 0
M  V30 1239 O 110.384 0.756986 -2.15597 0
M  V30 1240 C 110.594 -2.81082 -2.06868 0
M  V30 1241 C 111.942 -3.31631 -2.65153 0
M  V30 1242 O 112.966 -2.82384 -2.17113 0
M  V30 1243 O 111.825 -4.17471 -3.52675 0
M  V30 1244 H 108.919 -0.60822 -0.560355 0
M  V30 1245 H 111.465 -1.62592 -0.486011 0
M  V30 1246 H 110.237 -3.64041 -1.4349 0
M  V30 1247 H 109.86 -2.73146 -2.88924 0
M  V30 1248 N 110.857 0.726932 -1.39834 0
M  V30 1249 C 112.106 1.48214 -1.36805 0
M  V30 1250 C 112.419 1.95576 0.0305291 0
M  V30 1251 O 113.625 2.7088 0.183417 0
M  V30 1252 C 112.081 2.67854 -2.40379 0
M  V30 1253 C 111.689 2.27408 -3.85992 0
M  V30 1254 C 113.433 3.45641 -2.46439 0
M  V30 1255 C 111.34 3.43819 -4.81189 0
M  V30 1256 H 110.27 0.556606 -0.508631 0
M  V30 1257 H 112.921 0.792216 -1.65518 0
M  V30 1258 H 111.303 3.3896 -2.04749 0
M  V30 1259 H 112.477 1.63795 -4.30706 0
M  V30 1260 H 110.792 1.62692 -3.83302 0
M  V30 1261 H 113.389 4.32244 -3.14753 0
M  V30 1262 H 113.732 3.88669 -1.49139 0
M  V30 1263 H 114.265 2.8157 -2.81004 0
M  V30 1264 H 111.004 3.05834 -5.79781 0
M  V30 1265 H 110.524 4.06385 -4.41148 0
M  V30 1266 H 112.203 4.10043 -5.00474 0
M  V30 1267 N 112.336 1.25143 0.95797 0
M  V30 1268 C 113.583 1.09692 1.70217 0
M  V30 1269 C 113.911 -0.362654 1.91089 0
M  V30 1270 O 113.166 -1.28386 1.47701 0
M  V30 1271 C 113.465 1.79272 3.09187 0
M  V30 1272 C 113.131 3.29196 3.08125 0
M  V30 1273 C 111.793 3.70096 3.07543 0
M  V30 1274 C 114.145 4.24995 3.0171 0
M  V30 1275 C 111.473 5.05213 2.9829 0
M  V30 1276 C 113.825 5.60132 2.93999 0
M  V30 1277 C 112.489 6.00365 2.9175 0
M  V30 1278 H 111.759 0.401393 0.622868 0
M  V30 1279 H 114.406 1.55372 1.11945 0
M  V30 1280 H 112.711 1.26014 3.70982 0
M  V30 1281 H 114.408 1.64773 3.65583 0
M  V30 1282 H 110.998 2.96651 3.09348 0
M  V30 1283 H 115.182 3.9439 3.01281 0
M  V30 1284 H 110.438 5.35569 2.94916 0
M  V30 1285 H 114.612 6.3406 2.87996 0
M  V30 1286 H 112.239 7.05023 2.84336 0
M  V30 1287 N 113.814 -1.1601 1.06675 0
M  V30 1288 C 114.764 -2.18512 0.650888 0
M  V30 1289 C 115.748 -1.57677 -0.320441 0
M  V30 1290 O 116.94 -1.76482 -0.135266 0
M  V30 1291 C 114.069 -3.43273 0.0429255 0
M  V30 1292 C 113.155 -4.11176 1.03898 0
M  V30 1293 N 113.546 -4.54672 2.216 0
M  V30 1294 C 111.844 -4.37417 0.870779 0
M  V30 1295 C 112.545 -5.07248 2.84736 0
M  V30 1296 N 111.521 -5.0037 2.12441 0
M  V30 1297 H 115.323 -2.49863 1.54745 0
M  V30 1298 H 112.837 -1.32503 0.938975 0
M  V30 1299 H 114.834 -4.16006 -0.272857 0
M  V30 1300 H 113.494 -3.13408 -0.84884 0
M  V30 1301 H 114.505 -4.4828 2.59356 0
M  V30 1302 H 111.182 -4.17488 0.0313293 0
M  V30 1303 H 112.572 -5.50912 3.84636 0
M  V30 1304 N 115.292 -0.849877 -1.32721 0
M  V30 1305 C 116.222 -0.306308 -2.31482 0
M  V30 1306 C 117.203 0.591952 -1.59468 0
M  V30 1307 O 118.388 0.513199 -1.87296 0
M  V30 1308 C 115.518 0.510204 -3.43532 0
M  V30 1309 C 114.472 -0.293209 -4.26994 0
M  V30 1310 C 113.798 0.647743 -5.30762 0
M  V30 1311 C 115.098 -1.51634 -4.99804 0
M  V30 1312 H 116.792 -1.13153 -2.77195 0
M  V30 1313 H 114.338 -0.545553 -1.33266 0
M  V30 1314 H 116.291 0.900856 -4.11658 0
M  V30 1315 H 115.015 1.36874 -2.96535 0
M  V30 1316 H 113.674 -0.665555 -3.60508 0
M  V30 1317 H 113.322 1.50299 -4.8002 0
M  V30 1318 H 113.022 0.11422 -5.87489 0
M  V30 1319 H 114.546 1.03567 -6.01753 0
M  V30 1320 H 115.96 -1.19824 -5.60638 0
M  V30 1321 H 114.357 -1.98745 -5.66234 0
M  V30 1322 H 115.427 -2.28018 -4.27943 0
M  V30 1323 N 116.77 1.45427 -0.607355 0
M  V30 1324 C 117.7 2.3329 0.0989352 0
M  V30 1325 C 118.681 1.46816 0.859007 0
M  V30 1326 O 119.866 1.75588 0.829604 0
M  V30 1327 C 116.996 3.29518 1.09705 0
M  V30 1328 C 115.95 4.25626 0.450206 0
M  V30 1329 C 115.276 5.11542 1.55655 0
M  V30 1330 C 116.576 5.18505 -0.628455 0
M  V30 1331 H 118.27 2.92595 -0.634716 0
M  V30 1332 H 115.816 1.40696 -0.306681 0
M  V30 1333 H 117.769 3.89855 1.59971 0
M  V30 1334 H 116.493 2.68372 1.86129 0
M  V30 1335 H 115.152 3.66586 -0.0315886 0
M  V30 1336 H 114.8 4.46765 2.31107 0
M  V30 1337 H 114.5 5.76647 1.12925 0
M  V30 1338 H 116.024 5.74748 2.06148 0
M  V30 1339 H 117.438 5.72916 -0.209877 0
M  V30 1340 H 115.835 5.92085 -0.977489 0
M  V30 1341 H 116.905 4.60948 -1.50514 0
M  V30 1342 N 118.248 0.346503 1.53744 0
M  V30 1343 C 119.195 -0.508914 2.25119 0
M  V30 1344 C 120.165 -1.09315 1.25058 0
M  V30 1345 O 121.35 -1.12921 1.53797 0
M  V30 1346 C 118.49 -1.65246 3.02965 0
M  V30 1347 C 117.603 -1.09525 4.17886 0
M  V30 1348 C 116.738 -2.20634 4.83212 0
M  V30 1349 C 115.777 -1.62279 5.90196 0
M  V30 1350 N 114.914 -2.67143 6.49291 0
M  V30 1351 H 119.754 0.106283 2.9781 0
M  V30 1352 H 117.291 0.0642227 1.4696 0
M  V30 1353 H 119.249 -2.32574 3.4636 0
M  V30 1354 H 117.879 -2.2386 2.32565 0
M  V30 1355 H 116.931 -0.312818 3.79112 0
M  V30 1356 H 118.243 -0.628444 4.94825 0
M  V30 1357 H 117.397 -2.95821 5.29693 0
M  V30 1358 H 116.136 -2.70659 4.05703 0
M  V30 1359 H 115.141 -0.855989 5.43096 0
M  V30 1360 H 116.366 -1.13102 6.69615 0
M  V30 1361 H 114.312 -3.16417 5.74645 0
M  V30 1362 H 114.229 -2.25093 7.21713 0
M  V30 1363 H 115.497 -3.4209 7.00425 0
M  V30 1364 N 119.726 -1.57421 0.075193 0
M  V30 1365 C 120.951 -1.98364 -0.605515 0
M  V30 1366 C 121.376 -0.953383 -1.62149 0
M  V30 1367 O 120.734 0.0806053 -1.81121 0
M  V30 1368 C 120.782 -3.38332 -1.24756 0
M  V30 1369 O 119.886 -3.37959 -2.36342 0
M  V30 1370 H 119.227 -0.645553 -0.155428 0
M  V30 1371 H 121.757 -2.04044 0.150714 0
M  V30 1372 H 121.767 -3.75591 -1.5936 0
M  V30 1373 H 120.442 -4.12846 -0.503129 0
M  V30 1374 H 119.019 -3.12474 -2.03506 0
M  V30 1375 N 121.204 0.198386 -1.56346 0
M  V30 1376 C 122.154 1.2499 -1.90687 0
M  V30 1377 C 123.138 1.41158 -0.772217 0
M  V30 1378 O 124.33 1.43584 -1.03502 0
M  V30 1379 C 121.459 2.59542 -2.24706 0
M  V30 1380 C 120.545 2.47181 -3.44619 0
M  V30 1381 N 120.936 2.04495 -4.62618 0
M  V30 1382 C 119.234 2.78082 -3.48692 0
M  V30 1383 C 119.935 2.03945 -5.44776 0
M  V30 1384 N 118.911 2.45323 -4.85095 0
M  V30 1385 H 122.713 0.911149 -2.7942 0
M  V30 1386 H 120.227 0.40684 -1.57221 0
M  V30 1387 H 122.224 3.3549 -2.47491 0
M  V30 1388 H 120.884 2.94244 -1.37298 0
M  V30 1389 H 121.895 1.75256 -4.87345 0
M  V30 1390 H 118.572 3.17002 -2.71691 0
M  V30 1391 H 119.962 1.72872 -6.4928 0
M  V30 1392 N 122.682 1.50554 0.465978 0
M  V30 1393 C 123.91 1.65563 1.24083 0
M  V30 1394 C 124.325 0.341051 1.85694 0
M  V30 1395 O 123.682 -0.677543 1.69457 0
M  V30 1396 C 123.733 2.75051 2.34583 0
M  V30 1397 O 123.454 4.01413 1.75497 0
M  V30 1398 C 124.955 3.01078 3.25372 0
M  V30 1399 H 122.175 0.55638 0.375077 0
M  V30 1400 H 124.719 1.96807 0.555624 0
M  V30 1401 H 122.874 2.46486 2.9887 0
M  V30 1402 H 123.288 4.62002 2.48303 0
M  V30 1403 H 124.762 3.81339 3.99105 0
M  V30 1404 H 125.239 2.12349 3.84453 0
M  V30 1405 H 125.845 3.31194 2.66816 0
M  V30 1406 N 124.16 -0.719506 1.40217 0
M  V30 1407 C 125.108 -1.85493 1.40339 0
M  V30 1408 C 126.102 -1.66995 0.284415 0
M  V30 1409 O 127.308 -1.74148 0.455252 0
M  V30 1410 H 123.683 -0.610857 0.438586 0
M  V30 1411 H 125.654 -1.82506 2.36081 0
M  V30 1412 C 124.403 -3.23321 1.27901 0
M  V30 1413 H 123.726 -3.38159 2.1328 0
M  V30 1414 H 125.166 -4.02914 1.32045 0
M  V30 1415 C 123.625 -3.36898 -0.0111355 0
M  V30 1416 O 124.155 -3.89674 -0.975538 0
M  V30 1417 N 122.361 -2.90492 -0.0793393 0
M  V30 1418 H 121.908 -2.47731 0.706183 0
M  V30 1419 H 121.866 -2.99955 -0.942038 0
M  V30 1420 N 125.638 -1.25649 -0.95132 0
M  V30 1421 C 126.884 -1.10757 -1.69884 0
M  V30 1422 C 127.217 0.350061 -1.91019 0
M  V30 1423 O 126.492 1.25783 -1.48354 0
M  V30 1424 C 126.775 -1.86606 -3.07978 0
M  V30 1425 C 126.628 -3.40217 -2.94232 0
M  V30 1426 C 127.947 -1.65182 -4.07925 0
M  V30 1427 H 125.066 -0.40374 -0.616574 0
M  V30 1428 H 127.708 -1.54521 -1.10558 0
M  V30 1429 H 125.858 -1.49409 -3.58621 0
M  V30 1430 H 127.53 -3.87108 -2.50889 0
M  V30 1431 H 125.773 -3.67759 -2.30078 0
M  V30 1432 H 126.444 -3.88505 -3.92133 0
M  V30 1433 H 128.92 -1.9757 -3.66204 0
M  V30 1434 H 127.796 -2.20683 -5.02583 0
M  V30 1435 H 128.057 -0.593933 -4.38092 0
M  V30 1436 N 127.117 1.15442 -1.07289 0
M  V30 1437 C 128.047 2.22312 -0.714107 0
M  V30 1438 C 129.028 1.67467 0.298155 0
M  V30 1439 O 130.213 1.93445 0.171048 0
M  V30 1440 C 127.343 3.47124 -0.110448 0
M  V30 1441 C 126.297 4.14926 -1.04979 0
M  V30 1442 C 125.623 5.33807 -0.308924 0
M  V30 1443 C 126.923 4.64762 -2.38314 0
M  V30 1444 H 128.617 2.5258 -1.6076 0
M  V30 1445 H 126.163 1.21404 -0.77441 0
M  V30 1446 H 128.116 4.21124 0.152482 0
M  V30 1447 H 126.84 3.16187 0.81812 0
M  V30 1448 H 125.499 3.42866 -1.29764 0
M  V30 1449 H 125.147 4.99126 0.623084 0
M  V30 1450 H 124.847 5.80113 -0.935036 0
M  V30 1451 H 126.371 6.10576 -0.0537771 0
M  V30 1452 H 127.785 5.30292 -2.1786 0
M  V30 1453 H 126.182 5.21728 -2.96514 0
M  V30 1454 H 127.252 3.80434 -3.00663 0
M  V30 1455 N 128.595 0.856903 1.32268 0
M  V30 1456 C 129.82 0.474569 2.01897 0
M  V30 1457 C 130.245 -0.921766 1.63967 0
M  V30 1458 O 129.603 -1.60589 0.84148 0
M  V30 1459 C 129.651 0.623799 3.55164 0
M  V30 1460 O 128.755 -0.342459 4.10976 0
M  V30 1461 H 128.096 0.190422 0.63611 0
M  V30 1462 H 130.626 1.15672 1.68764 0
M  V30 1463 H 130.636 0.512169 4.04773 0
M  V30 1464 H 129.311 1.64202 3.82113 0
M  V30 1465 H 127.888 -0.18688 3.72431 0
M  V30 1466 N 130.073 -1.45103 0.615059 0
M  V30 1467 C 131.319 -2.02483 0.113347 0
M  V30 1468 C 131.652 -1.48146 -1.25564 0
M  V30 1469 O 130.927 -0.659104 -1.82992 0
M  V30 1470 C 131.21 -3.60005 0.0825278 0
M  V30 1471 C 131.063 -4.2466 1.48271 0
M  V30 1472 C 132.382 -4.35972 -0.601401 0
M  V30 1473 H 129.501 -0.735764 0.0426632 0
M  V30 1474 H 132.143 -1.72868 0.788461 0
M  V30 1475 H 130.293 -3.85367 -0.492378 0
M  V30 1476 H 131.965 -4.10458 2.10527 0
M  V30 1477 H 130.208 -3.82772 2.04127 0
M  V30 1478 H 130.879 -5.336 1.41332 0
M  V30 1479 H 133.355 -4.15947 -0.112666 0
M  V30 1480 H 132.231 -5.45697 -0.592097 0
M  V30 1481 H 132.492 -4.09391 -1.66887 0
M  V30 1482 N 131.551 -0.354651 -1.53558 0
M  V30 1483 C 132.499 0.512195 -2.26891 0
M  V30 1484 C 133.493 1.09263 -1.29452 0
M  V30 1485 O 134.699 1.03709 -1.47121 0
M  V30 1486 H 131.074 0.183878 -0.729173 0
M  V30 1487 H 133.045 -0.128202 -2.98124 0
M  V30 1488 C 131.794 1.64563 -3.06291 0
M  V30 1489 H 131.117 1.20829 -3.81104 0
M  V30 1490 H 132.557 2.22711 -3.60799 0
M  V30 1491 C 131.016 2.58158 -2.16462 0
M  V30 1492 O 131.546 3.60695 -1.76811 0
M  V30 1493 N 129.752 2.27096 -1.81317 0
M  V30 1494 H 129.299 1.43751 -2.1376 0
M  V30 1495 H 129.257 2.89975 -1.21498 0
M  V30 1496 N 133.029 1.57378 -0.0835403 0
M  V30 1497 C 133.959 2.1641 0.87686 0
M  V30 1498 C 134.94 1.09429 1.30228 0
M  V30 1499 O 136.125 1.37516 1.37124 0
M  V30 1500 C 133.255 2.73517 2.14022 0
M  V30 1501 C 132.209 3.85769 1.85381 0
M  V30 1502 C 131.535 4.29529 3.18448 0
M  V30 1503 C 132.835 5.09486 1.14984 0
M  V30 1504 H 134.529 2.96914 0.385059 0
M  V30 1505 H 132.075 1.42823 0.18377 0
M  V30 1506 H 134.028 3.13463 2.81636 0
M  V30 1507 H 132.752 1.90252 2.65465 0
M  V30 1508 H 131.411 3.46345 1.20169 0
M  V30 1509 H 131.059 3.43169 3.67755 0
M  V30 1510 H 130.759 5.05204 3.00071 0
M  V30 1511 H 132.283 4.72099 3.8724 0
M  V30 1512 H 133.697 5.46674 1.72687 0
M  V30 1513 H 132.094 5.90515 1.06826 0
M  V30 1514 H 133.164 4.84724 0.130749 0
M  V30 1515 N 134.507 -0.190092 1.56449 0
M  V30 1516 C 135.918 -0.754312 1.70784 0
M  V30 1517 C 136.269 -1.83631 0.690951 0
M  V30 1518 O 135.394 -2.15868 -0.151604 0
M  V30 1519 C 135.989 -1.37503 3.09642 0
M  V30 1520 C 134.548 -1.88628 3.25725 0
M  V30 1521 C 133.695 -0.758098 2.66736 0
M  V30 1522 H 136.646 0.0350524 1.58661 0
M  V30 1523 H 136.667 -2.2445 3.0725 0
M  V30 1524 H 136.179 -0.587302 3.83631 0
M  V30 1525 H 134.28 -2.70103 2.56661 0
M  V30 1526 H 134.393 -2.04462 4.3328 0
M  V30 1527 H 132.757 -1.17369 2.26046 0
M  V30 1528 H 133.54 0.0174705 3.43296 0
M  V30 1529 N 135.985 -1.50799 -0.457987 0
M  V30 1530 C 137.262 -1.52968 -1.21902 0
M  V30 1531 C 137.642 -0.281906 -2.09209 0
M  V30 1532 O 136.99 0.734076 -2.16388 0
M  V30 1533 C 137.2 -2.8326 -2.03875 0
M  V30 1534 C 138.548 -3.34425 -2.6162 0
M  V30 1535 O 139.572 -2.8467 -2.14106 0
M  V30 1536 O 138.431 -4.21188 -3.48228 0
M  V30 1537 H 135.525 -0.614129 -0.553873 0
M  V30 1538 H 138.071 -1.63098 -0.468739 0
M  V30 1539 H 136.843 -3.65543 -1.39621 0
M  V30 1540 H 136.466 -2.76195 -2.8601 0
M  V30 1541 N 137.463 0.71206 -1.40597 0
M  V30 1542 C 138.411 1.84746 -1.41321 0
M  V30 1543 C 139.405 1.66842 -0.293268 0
M  V30 1544 O 140.611 1.73904 -0.464481 0
M  V30 1545 H 136.986 0.608522 -0.441819 0
M  V30 1546 H 138.957 1.81252 -2.37045 0
M  V30 1547 C 137.706 3.22638 -1.29614 0
M  V30 1548 H 137.029 3.37023 -2.15071 0
M  V30 1549 H 138.469 4.02209 -1.3418 0
M  V30 1550 C 136.928 3.36899 -0.00673121 0
M  V30 1551 O 137.458 3.90186 0.954859 0
M  V30 1552 N 135.664 2.9053 0.0639327 0
M  V30 1553 H 135.211 2.47353 -0.719311 0
M  V30 1554 H 135.169 3.0045 0.926118 0
M  V30 1555 N 138.941 1.26152 0.944643 0
M  V30 1556 C 140.188 1.11492 1.69044 0
M  V30 1557 C 140.516 -0.342366 1.91463 0
M  V30 1558 O 139.771 -1.26812 1.49054 0
M  V30 1559 C 140.07 1.82541 3.07268 0
M  V30 1560 C 139.736 3.32445 3.04616 0
M  V30 1561 C 138.398 3.73337 3.036 0
M  V30 1562 C 140.75 4.28171 2.97185 0
M  V30 1563 C 138.078 5.08348 2.92915 0
M  V30 1564 C 140.43 5.63218 2.88041 0
M  V30 1565 C 139.094 6.03426 2.85366 0
M  V30 1566 H 138.364 0.407977 0.618576 0
M  V30 1567 H 141.011 1.56551 1.10291 0
M  V30 1568 H 139.316 1.29941 3.69625 0
M  V30 1569 H 141.013 1.68642 3.63815 0
M  V30 1570 H 137.603 2.99915 3.06185 0
M  V30 1571 H 141.787 3.97563 2.97081 0
M  V30 1572 H 137.043 5.38667 2.89219 0
M  V30 1573 H 141.217 6.37078 2.81254 0
M  V30 1574 H 138.844 7.07999 2.76842 0
M  V30 1575 N 140.419 -1.14872 1.07899 0
M  V30 1576 C 141.647 -1.89661 0.82683 0
M  V30 1577 C 142.062 -1.78312 -0.620519 0
M  V30 1578 O 141.419 -1.13888 -1.42604 0
M  V30 1579 C 141.47 -3.39817 1.23316 0
M  V30 1580 O 141.191 -3.50845 2.62372 0
M  V30 1581 C 142.692 -4.31615 1.0111 0
M  V30 1582 H 139.912 -0.60092 0.298557 0
M  V30 1583 H 142.456 -1.4551 1.43691 0
M  V30 1584 H 140.611 -3.8161 0.667286 0
M  V30 1585 H 141.025 -4.44076 2.79101 0
M  V30 1586 H 142.499 -5.35367 1.34486 0
M  V30 1587 H 142.976 -4.39169 -0.0522168 0
M  V30 1588 H 143.582 -3.95572 1.56215 0
M  V30 1589 N 141.898 -0.863906 -1.31812 0
M  V30 1590 C 142.828 -0.330843 -2.31144 0
M  V30 1591 C 143.809 0.575005 -1.60087 0
M  V30 1592 O 144.994 0.493304 -1.8783 0
M  V30 1593 C 142.124 0.47374 -3.44054 0
M  V30 1594 C 141.078 -0.338481 -4.26659 0
M  V30 1595 C 140.404 0.591412 -5.31419 0
M  V30 1596 C 141.704 -1.56926 -4.98168 0
M  V30 1597 H 143.398 -1.16086 -2.75979 0
M  V30 1598 H 140.944 -0.559657 -1.32679 0
M  V30 1599 H 142.897 0.857143 -4.12591 0
M  V30 1600 H 141.621 1.33721 -2.9797 0
M  V30 1601 H 140.28 -0.703754 -3.59782 0
M  V30 1602 H 139.928 1.45199 -4.81587 0
M  V30 1603 H 139.628 0.0519022 -5.87577 0
M  V30 1604 H 141.152 0.97179 -6.02817 0
M  V30 1605 H 142.566 -1.25764 -5.59336 0
M  V30 1606 H 140.963 -2.04739 -5.64094 0
M  V30 1607 H 142.033 -2.32544 -4.25501 0
M  V30 1608 N 143.376 1.44774 -0.622745 0
M  V30 1609 C 144.323 2.30635 0.0871679 0
M  V30 1610 C 145.293 1.42994 0.845097 0
M  V30 1611 O 146.478 1.71907 0.827812 0
M  V30 1612 C 143.618 3.28144 1.06844 0
M  V30 1613 C 142.731 4.30888 0.309809 0
M  V30 1614 C 141.866 5.15494 1.28215 0
M  V30 1615 C 140.905 6.09953 0.512198 0
M  V30 1616 N 140.042 6.87287 1.43458 0
M  V30 1617 H 144.882 2.90803 -0.650974 0
M  V30 1618 H 142.419 1.43286 -0.33281 0
M  V30 1619 H 144.377 3.83157 1.65066 0
M  V30 1620 H 143.007 2.69695 1.77382 0
M  V30 1621 H 142.059 3.78414 -0.388181 0
M  V30 1622 H 143.371 4.97955 -0.290254 0
M  V30 1623 H 142.525 5.74983 1.93596 0
M  V30 1624 H 141.264 4.48481 1.91614 0
M  V30 1625 H 140.269 5.49581 -0.155151 0
M  V30 1626 H 141.494 6.78999 -0.116958 0
M  V30 1627 H 139.44 6.2295 2.05594 0
M  V30 1628 H 139.357 7.50763 0.888335 0
M  V30 1629 H 140.625 7.51306 2.07749 0
M  V30 1630 N 144.854 0.36279 1.53368 0
M  V30 1631 C 145.764 -0.492994 2.29362 0
M  V30 1632 C 146.78 -1.09507 1.35219 0
M  V30 1633 O 147.956 -1.10662 1.68273 0
M  V30 1634 C 145.021 -1.61855 3.066 0
M  V30 1635 C 144.082 -1.04429 4.16405 0
M  V30 1636 C 143.315 -2.11621 4.89951 0
M  V30 1637 O 143.538 -3.32684 4.63333 0
M  V30 1638 O 142.472 -1.74835 5.75948 0
M  V30 1639 H 146.298 0.125331 3.03441 0
M  V30 1640 H 143.883 0.127253 1.48857 0
M  V30 1641 H 145.765 -2.27302 3.54841 0
M  V30 1642 H 144.44 -2.22233 2.3536 0
M  V30 1643 H 143.347 -0.353819 3.72423 0
M  V30 1644 H 144.68 -0.485113 4.89804 0
M  V30 1645 N 146.332 -1.57332 0.0918853 0
M  V30 1646 C 147.609 -1.85691 -0.614668 0
M  V30 1647 C 147.989 -0.988146 -1.86545 0
M  V30 1648 O 147.337 -0.0597055 -2.28422 0
M  V30 1649 C 147.547 -3.36294 -0.933126 0
M  V30 1650 C 148.895 -4.04275 -1.29796 0
M  V30 1651 O 149.919 -3.41157 -1.02424 0
M  V30 1652 O 148.778 -5.1564 -1.81047 0
M  V30 1653 H 145.872 -0.767802 -0.307261 0
M  V30 1654 H 148.418 -1.69244 0.12434 0
M  V30 1655 H 147.19 -3.91273 -0.0456404 0
M  V30 1656 H 146.813 -3.58076 -1.72822 0
M  V30 1657 N 147.81 0.181792 -1.56548 0
M  V30 1658 C 149.058 0.89832 -1.81038 0
M  V30 1659 C 149.379 1.83232 -0.667164 0
M  V30 1660 O 148.649 1.93372 0.313673 0
M  V30 1661 H 147.229 0.33471 -0.667816 0
M  V30 1662 H 149.891 0.184116 -1.94028 0
M  V30 1663 H 148.987 1.4815 -2.74696 0
M  V30 1664 N 149.288 1.51039 0.449983 0
M  V30 1665 C 150.221 1.66105 1.56474 0
M  V30 1666 C 151.199 0.508776 1.54435 0
M  V30 1667 O 152.383 0.731005 1.73749 0
M  V30 1668 C 149.51 1.66304 2.9506 0
M  V30 1669 C 148.556 2.87346 3.15174 0
M  V30 1670 S 149.389 4.4835 2.92818 0
M  V30 1671 C 150.545 4.51274 4.33708 0
M  V30 1672 H 150.778 2.60397 1.43459 0
M  V30 1673 H 148.311 1.40565 0.638805 0
M  V30 1674 H 150.269 1.67103 3.74949 0
M  V30 1675 H 148.93 0.732108 3.05449 0
M  V30 1676 H 148.123 2.83849 4.16468 0
M  V30 1677 H 147.725 2.84223 2.43091 0
M  V30 1678 H 150.017 4.26136 5.26701 0
M  V30 1679 H 150.96 5.53017 4.42242 0
M  V30 1680 H 151.368 3.80738 4.16772 0
M  V30 1681 N 150.766 -0.704594 1.40972 0
M  V30 1682 C 151.676 -1.84856 1.44448 0
M  V30 1683 C 152.692 -1.70726 0.335961 0
M  V30 1684 O 153.868 -1.92799 0.582276 0
M  V30 1685 C 150.933 -3.20758 1.31587 0
M  V30 1686 C 149.994 -3.47063 2.52677 0
M  V30 1687 C 149.227 -4.76481 2.4042 0
M  V30 1688 O 149.45 -5.52341 1.42391 0
M  V30 1689 O 148.384 -5.03367 3.30007 0
M  V30 1690 H 152.21 -1.8488 2.40942 0
M  V30 1691 H 149.795 -0.85647 1.22413 0
M  V30 1692 H 151.677 -4.01913 1.26665 0
M  V30 1693 H 150.352 -3.21438 0.382049 0
M  V30 1694 H 149.259 -2.65873 2.63177 0
M  V30 1695 H 150.592 -3.5119 3.44858 0
M  V30 1696 N 152.244 -1.26651 -0.937939 0
M  V30 1697 C 153.472 -1.15173 -1.7188 0
M  V30 1698 C 153.887 0.292668 -1.86518 0
M  V30 1699 O 153.244 1.20014 -1.37488 0
M  V30 1700 C 153.295 -1.81925 -3.12387 0
M  V30 1701 O 153.016 -3.2072 -2.98446 0
M  V30 1702 C 154.517 -1.76442 -4.06673 0
M  V30 1703 H 151.737 -0.400911 -0.538063 0
M  V30 1704 H 154.281 -1.67332 -1.1756 0
M  V30 1705 H 152.436 -1.33696 -3.63599 0
M  V30 1706 H 152.85 -3.53802 -3.872 0
M  V30 1707 H 154.324 -2.27781 -5.02812 0
M  V30 1708 H 154.801 -0.731608 -4.33064 0
M  V30 1709 H 155.407 -2.24238 -3.61382 0
M  V30 1710 N 153.722 1.14298 -1.08507 0
M  V30 1711 C 154.968 1.85633 -0.816581 0
M  V30 1712 C 155.301 1.82784 0.656021 0
M  V30 1713 O 154.576 1.25926 1.48233 0
M  V30 1714 C 154.859 3.34223 -1.34041 0
M  V30 1715 C 154.712 3.45639 -2.87843 0
M  V30 1716 C 156.031 4.29356 -0.9665 0
M  V30 1717 H 153.15 0.67402 -0.298104 0
M  V30 1718 H 155.792 1.34214 -1.34487 0
M  V30 1719 H 153.942 3.78144 -0.89104 0
M  V30 1720 H 155.614 3.10498 -3.41158 0
M  V30 1721 H 153.857 2.86817 -3.25451 0
M  V30 1722 H 154.528 4.50089 -3.19569 0
M  V30 1723 H 157.004 3.93457 -1.35391 0
M  V30 1724 H 155.88 5.3178 -1.3602 0
M  V30 1725 H 156.141 4.41919 0.126362 0
M  V30 1726 N 155.201 0.870884 1.31352 0
M  V30 1727 C 156.612 0.534714 1.78879 0
M  V30 1728 C 156.963 -0.948423 1.71754 0
M  V30 1729 O 156.088 -1.74055 1.28584 0
M  V30 1730 C 156.683 0.963839 3.24801 0
M  V30 1731 C 155.242 0.679311 3.70219 0
M  V30 1732 C 154.389 1.15465 2.52117 0
M  V30 1733 H 157.34 1.05651 1.18421 0
M  V30 1734 H 157.361 0.286892 3.79417 0
M  V30 1735 H 156.873 2.04332 3.29955 0
M  V30 1736 H 154.974 -0.388769 3.70566 0
M  V30 1737 H 155.087 1.25698 4.62317 0
M  V30 1738 H 153.451 0.574383 2.48139 0
M  V30 1739 H 154.234 2.24157 2.60016 0
M  V30 1740 N 156.679 -1.44442 0.630414 0
M  V30 1741 C 157.925 -2.02894 0.143332 0
M  V30 1742 C 158.28 -1.48697 -1.22094 0
M  V30 1743 O 157.573 -0.661171 -1.79831 0
M  V30 1744 C 157.767 -3.57332 0.0697835 0
M  V30 1745 C 157.596 -4.26512 1.42539 0
M  V30 1746 C 156.366 -4.63516 2.01198 0
M  V30 1747 C 158.564 -4.57004 2.35907 0
M  V30 1748 N 156.546 -5.17661 3.30001 0
M  V30 1749 C 157.917 -5.12223 3.49324 0
M  V30 1750 C 159.972 -4.38955 2.34995 0
M  V30 1751 C 158.675 -5.51295 4.62024 0
M  V30 1752 C 160.701 -4.79075 3.46758 0
M  V30 1753 C 160.063 -5.34407 4.58899 0
M  V30 1754 H 156.162 -0.776041 0.0963523 0
M  V30 1755 H 158.746 -1.75945 0.833752 0
M  V30 1756 H 156.917 -3.83894 -0.589915 0
M  V30 1757 H 158.649 -4.02451 -0.42606 0
M  V30 1758 H 155.404 -4.47811 1.54151 0
M  V30 1759 H 155.828 -5.4921 3.95851 0
M  V30 1760 H 160.47 -3.95469 1.49545 0
M  V30 1761 H 158.188 -5.93736 5.48182 0
M  V30 1762 H 161.774 -4.66824 3.47227 0
M  V30 1763 H 160.654 -5.64878 5.4395 0
M  V30 1764 N 158.157 -0.370918 -1.53173 0
M  V30 1765 C 159.404 0.217102 -2.01333 0
M  V30 1766 C 159.732 1.48338 -1.25802 0
M  V30 1767 O 158.987 1.92698 -0.34146 0
M  V30 1768 C 159.286 0.549696 -3.53147 0
M  V30 1769 C 158.952 -0.622872 -4.46577 0
M  V30 1770 C 157.614 -0.944595 -4.71838 0
M  V30 1771 C 159.966 -1.40819 -5.01816 0
M  V30 1772 C 157.294 -2.05351 -5.49589 0
M  V30 1773 C 159.646 -2.50757 -5.80778 0
M  V30 1774 C 158.31 -2.83458 -6.04324 0
M  V30 1775 H 157.58 0.0794431 -0.736729 0
M  V30 1776 H 160.227 -0.504481 -1.84736 0
M  V30 1777 H 158.532 1.35237 -3.6772 0
M  V30 1778 H 160.229 1.017 -3.87889 0
M  V30 1779 H 156.819 -0.36209 -4.27068 0
M  V30 1780 H 161.003 -1.17289 -4.82242 0
M  V30 1781 H 156.259 -2.3108 -5.6605 0
M  V30 1782 H 160.433 -3.12022 -6.22588 0
M  V30 1783 H 158.06 -3.69508 -6.64355 0
M  V30 1784 N 159.635 1.57281 -0.100228 0
M  V30 1785 C 161.046 1.81725 0.428107 0
M  V30 1786 C 161.397 1.01619 1.67833 0
M  V30 1787 O 160.522 0.247098 2.14985 0
M  V30 1788 C 161.117 3.29617 0.78347 0
M  V30 1789 C 159.676 3.54808 1.25653 0
M  V30 1790 C 158.823 2.76118 0.255752 0
M  V30 1791 H 161.774 1.55324 -0.325608 0
M  V30 1792 H 161.795 3.4322 1.64256 0
M  V30 1793 H 161.307 3.87893 -0.12665 0
M  V30 1794 H 159.408 3.01868 2.18418 0
M  V30 1795 H 159.521 4.63443 1.21482 0
M  V30 1796 H 157.885 2.43745 0.738956 0
M  V30 1797 H 158.668 3.37145 -0.647136 0
M  V30 1798 N 161.113 -0.173488 1.56642 0
M  V30 1799 C 162.06 -1.21482 1.96242 0
M  V30 1800 C 163.03 -1.44104 0.826027 0
M  V30 1801 O 164.215 -1.5688 1.08597 0
M  V30 1802 C 161.355 -2.54964 2.32567 0
M  V30 1803 C 160.468 -2.39739 3.59373 0
M  V30 1804 C 159.603 -3.66072 3.84921 0
M  V30 1805 C 158.642 -3.45771 5.05083 0
M  V30 1806 N 157.779 -4.64169 5.26775 0
M  V30 1807 H 162.619 -0.870123 2.85014 0
M  V30 1808 H 160.156 -0.418245 1.41029 0
M  V30 1809 H 162.114 -3.32758 2.5165 0
M  V30 1810 H 160.744 -2.87433 1.46908 0
M  V30 1811 H 159.796 -1.53131 3.48217 0
M  V30 1812 H 161.108 -2.20683 4.47326 0
M  V30 1813 H 160.262 -4.52303 4.0436 0
M  V30 1814 H 159.001 -3.88105 2.9534 0
M  V30 1815 H 158.006 -2.57927 4.85545 0
M  V30 1816 H 159.231 -3.25163 5.96193 0
M  V30 1817 H 157.177 -4.86425 4.40144 0
M  V30 1818 H 157.094 -4.48019 6.08946 0
M  V30 1819 H 158.362 -5.51689 5.5069 0
M  V30 1820 N 162.591 -1.51276 -0.441967 0
M  V30 1821 C 163.538 -1.72256 -1.53612 0
M  V30 1822 C 164.508 -0.564164 -1.56225 0
M  V30 1823 O 165.693 -0.798074 -1.73307 0
M  V30 1824 C 162.833 -1.84932 -2.91366 0
M  V30 1825 C 161.946 -3.12459 -2.98317 0
M  V30 1826 C 161.081 -3.15758 -4.27166 0
M  V30 1827 C 160.12 -4.37619 -4.27967 0
M  V30 1828 N 159.257 -4.38493 -5.48333 0
M  V30 1829 H 164.097 -2.65654 -1.35026 0
M  V30 1830 H 161.634 -1.31662 -0.656009 0
M  V30 1831 H 163.592 -1.90263 -3.7129 0
M  V30 1832 H 162.222 -0.949461 -3.08521 0
M  V30 1833 H 161.274 -3.1646 -2.11086 0
M  V30 1834 H 162.586 -4.02382 -2.94771 0
M  V30 1835 H 161.74 -3.19979 -5.15459 0
M  V30 1836 H 160.479 -2.23715 -4.33362 0
M  V30 1837 H 159.484 -4.33579 -3.38067 0
M  V30 1838 H 160.709 -5.30921 -4.23438 0
M  V30 1839 H 158.655 -3.49318 -5.55259 0
M  V30 1840 H 158.572 -5.22219 -5.46647 0
M  V30 1841 H 159.84 -4.469 -6.38671 0
M  V30 1842 N 164.069 0.697108 -1.41344 0
M  V30 1843 C 165.318 1.45279 -1.39918 0
M  V30 1844 C 165.631 1.95597 -0.0109624 0
M  V30 1845 O 166.837 2.71208 0.125919 0
M  V30 1846 C 165.293 2.62695 -2.46007 0
M  V30 1847 C 164.901 2.19169 -3.90729 0
M  V30 1848 C 166.645 3.40336 -2.53715 0
M  V30 1849 C 164.552 3.33535 -4.88373 0
M  V30 1850 H 163.482 0.545692 -0.520323 0
M  V30 1851 H 166.133 0.756929 -1.67161 0
M  V30 1852 H 164.515 3.34541 -2.11892 0
M  V30 1853 H 165.689 1.54623 -4.34083 0
M  V30 1854 H 164.004 1.54525 -3.86666 0
M  V30 1855 H 166.601 4.2547 -3.2385 0
M  V30 1856 H 166.944 3.85418 -1.5735 0
M  V30 1857 H 167.477 2.75546 -2.86913 0
M  V30 1858 H 164.216 2.93468 -5.86137 0
M  V30 1859 H 163.736 3.96936 -4.49668 0
M  V30 1860 H 165.415 3.99335 -5.09059 0
M  V30 1861 N 165.547 1.27147 0.931209 0
M  V30 1862 C 166.772 1.16191 1.71797 0
M  V30 1863 C 167.197 -0.278004 1.86034 0
M  V30 1864 O 166.555 -1.20137 1.35782 0
M  V30 1865 C 166.603 1.84673 3.09723 0
M  V30 1866 O 165.707 1.14231 3.96264 0
M  V30 1867 H 165.048 0.404303 0.526721 0
M  V30 1868 H 167.578 1.68152 1.1656 0
M  V30 1869 H 167.588 1.91893 3.60057 0
M  V30 1870 H 166.263 2.89421 2.98677 0
M  V30 1871 H 164.84 1.15056 3.54706 0
M  V30 1872 N 167.025 -1.13721 1.09112 0
M  V30 1873 C 168.302 -1.81155 0.737706 0
M  V30 1874 C 168.682 -1.96253 -0.777683 0
M  V30 1875 O 168.03 -1.52807 -1.69889 0
M  V30 1876 C 168.24 -3.16392 1.47299 0
M  V30 1877 C 169.588 -3.91787 1.63671 0
M  V30 1878 O 170.612 -3.26005 1.43524 0
M  V30 1879 O 169.471 -5.0977 1.96969 0
M  V30 1880 H 166.565 -0.783518 0.26463 0
M  V30 1881 H 169.111 -1.20676 1.19312 0
M  V30 1882 H 167.883 -3.0061 2.50498 0
M  V30 1883 H 167.506 -3.8457 1.00953 0
M  V30 1884 N 168.503 -0.877838 -1.30888 0
M  V30 1885 C 169.433 -0.35534 -2.3078 0
M  V30 1886 C 170.414 0.557994 -1.60687 0
M  V30 1887 O 171.599 0.473355 -1.88343 0
M  V30 1888 C 168.729 0.437221 -3.44537 0
M  V30 1889 C 167.683 -0.383715 -4.26276 0
M  V30 1890 C 167.009 0.535014 -5.32017 0
M  V30 1891 C 168.309 -1.62201 -4.96476 0
M  V30 1892 H 170.003 -1.19007 -2.74732 0
M  V30 1893 H 167.549 -0.573698 -1.32078 0
M  V30 1894 H 169.502 0.813334 -4.13477 0
M  V30 1895 H 168.226 1.30553 -2.99372 0
M  V30 1896 H 166.885 -0.741874 -3.59015 0
M  V30 1897 H 166.533 1.40083 -4.831 0
M  V30 1898 H 166.233 -0.0104211 -5.87599 0
M  V30 1899 H 167.757 0.907799 -6.03814 0
M  V30 1900 H 169.171 -1.31689 -5.5797 0
M  V30 1901 H 167.568 -2.10711 -5.61891 0
M  V30 1902 H 168.638 -2.37044 -4.23011 0
M  V30 1903 N 169.982 1.44106 -0.638065 0
M  V30 1904 C 171.259 1.95453 -0.0759321 0
M  V30 1905 C 171.639 1.57984 1.40015 0
M  V30 1906 O 170.987 0.857361 2.11806 0
M  V30 1907 C 171.197 3.47655 -0.306132 0
M  V30 1908 C 172.545 4.24114 -0.203008 0
M  V30 1909 O 173.569 3.55405 -0.237871 0
M  V30 1910 O 172.428 5.46381 -0.113827 0
M  V30 1911 H 169.522 0.826797 0.0183332 0
M  V30 1912 H 172.068 1.54122 -0.710251 0
M  V30 1913 H 170.84 3.68 -1.3301 0
M  V30 1914 H 170.463 3.95949 0.361991 0
M  V30 1915 N 171.46 0.379036 1.52974 0
M  V30 1916 C 172.41 -0.477772 2.22938 0
M  V30 1917 C 173.394 -1.03792 1.22948 0
M  V30 1918 O 174.586 -0.965725 1.48333 0
M  V30 1919 C 171.715 -1.60994 3.03209 0
M  V30 1920 C 170.801 -1.06203 4.10587 0
M  V30 1921 N 171.192 -0.238214 5.05239 0
M  V30 1922 C 169.49 -1.33554 4.25534 0
M  V30 1923 C 170.191 0.0633235 5.81666 0
M  V30 1924 N 169.167 -0.537901 5.40932 0
M  V30 1925 H 172.969 0.158295 2.93473 0
M  V30 1926 H 170.483 0.187778 1.61311 0
M  V30 1927 H 172.48 -2.23607 3.5186 0
M  V30 1928 H 171.14 -2.24893 2.34207 0
M  V30 1929 H 172.151 0.123695 5.17752 0
M  V30 1930 H 168.828 -1.97632 3.6776 0
M  V30 1931 H 170.218 0.730161 6.67921 0
M  V30 1932 N 172.938 -1.57226 0.108567 0
M  V30 1933 C 174.178 -1.96717 -0.555155 0
M  V30 1934 C 174.542 -0.990003 -1.64508 0
M  V30 1935 O 175.743 -1.2739 -2.36696 0
M  V30 1936 C 174.014 -3.40575 -1.08367 0
M  V30 1937 S 175.573 -4.02072 -1.75737 0
M  V30 1938 H 172.391 -0.687638 -0.180762 0
M  V30 1939 H 174.993 -1.94563 0.191172 0
M  V30 1940 H 173.697 -4.0945 -0.279092 0
M  V30 1941 H 173.228 -3.46356 -1.86551 0
M  V30 1942 H 175.243 -3.91977 -3.04251 0
M  V30 1943 N 174.416 0.165178 -1.56732 0
M  V30 1944 C 175.379 1.18822 -1.95995 0
M  V30 1945 C 176.379 1.3685 -0.84431 0
M  V30 1946 O 177.569 1.34152 -1.11126 0
M  V30 1947 C 174.701 2.5521 -2.26011 0
M  V30 1948 H 175.894 0.851825 -2.87548 0
M  V30 1949 H 173.447 0.407857 -1.50885 0
M  V30 1950 H 174.182 2.93852 -1.37191 0
M  V30 1951 H 173.967 2.43489 -3.07336 0
M  V30 1952 H 175.457 3.28927 -2.57288 0
M  V30 1953 N 175.894 1.51508 0.433938 0
M  V30 1954 C 176.842 1.73646 1.54757 0
M  V30 1955 C 177.836 0.602854 1.5831 0
M  V30 1956 O 179.042 0.784318 1.62014 0
M  V30 1957 H 175.417 0.548718 0.51421 0
M  V30 1958 H 177.388 2.66991 1.33261 0
M  V30 1959 C 176.137 1.88172 2.92381 0
M  V30 1960 H 175.46 2.74808 2.90381 0
M  V30 1961 H 176.9 2.07672 3.6966 0
M  V30 1962 C 175.359 0.64239 3.30719 0
M  V30 1963 O 175.889 -0.201362 4.01195 0
M  V30 1964 N 174.095 0.485489 2.86516 0
M  V30 1965 H 173.642 1.17318 2.29334 0
M  V30 1966 H 173.6 -0.342482 3.12529 0
M  V30 1967 N 177.372 -0.689602 1.41712 0
M  V30 1968 C 178.788 -1.00093 1.24312 0
M  V30 1969 C 178.988 -2.01036 0.136729 0
M  V30 1970 O 178.044 -2.47562 -0.496918 0
M  V30 1971 C 179.357 -1.51985 2.59463 0
M  V30 1972 C 180.905 -1.63838 2.66695 0
M  V30 1973 C 181.38 -2.1913 4.02177 0
M  V30 1974 N 182.871 -2.26483 4.04054 0
M  V30 1975 C 183.606 -2.70306 5.0569 0
M  V30 1976 N 183.102 -3.13691 6.17713 0
M  V30 1977 N 184.895 -2.69923 4.9305 0
M  V30 1978 H 177.046 -0.0210029 2.1239 0
M  V30 1979 H 179.309 -0.0718733 0.945272 0
M  V30 1980 H 179.015 -0.85269 3.41207 0
M  V30 1981 H 178.889 -2.50103 2.82362 0
M  V30 1982 H 181.276 -2.29664 1.85306 0
M  V30 1983 H 181.357 -0.642492 2.476 0
M  V30 1984 H 181.001 -1.53918 4.84016 0
M  V30 1985 H 180.931 -3.19482 4.18615 0
M  V30 1986 H 183.422 -1.95874 3.23174 0
M  V30 1987 H 183.735 -3.45773 6.9113 0
M  V30 1988 H 182.08 -3.11585 6.21241 0
M  V30 1989 H 185.271 -2.35382 4.04614 0
M  V30 1990 H 185.444 -3.03758 5.72394 0
M  V30 1991 N 178.85 -1.27639 -0.924453 0
M  V30 1992 C 180.096 -1.14336 -1.67497 0
M  V30 1993 C 180.429 0.309465 -1.91718 0
M  V30 1994 O 179.704 1.22608 -1.50989 0
M  V30 1995 C 179.987 -1.93096 -3.0395 0
M  V30 1996 C 179.84 -3.46381 -2.8695 0
M  V30 1997 C 181.159 -1.73798 -4.0433 0
M  V30 1998 H 178.278 -0.416728 -0.607871 0
M  V30 1999 H 180.92 -1.56832 -1.07256 0
M  V30 2000 H 179.07 -1.56982 -3.55372 0
M  V30 2001 H 180.742 -3.92343 -2.42621 0
M  V30 2002 H 178.985 -3.72557 -2.22225 0
M  V30 2003 H 179.656 -3.96735 -3.83804 0
M  V30 2004 H 182.132 -2.05293 -3.61931 0
M  V30 2005 H 181.008 -2.31294 -4.97789 0
M  V30 2006 H 181.269 -0.686725 -4.36734 0
M  V30 2007 N 180.328 1.1314 -1.09713 0
M  V30 2008 C 181.258 2.20748 -0.761102 0
M  V30 2009 C 182.239 1.68061 0.262566 0
M  V30 2010 O 183.424 1.93765 0.129977 0
M  V30 2011 C 180.554 3.46812 -0.184054 0
M  V30 2012 C 179.508 4.12606 -1.13757 0
M  V30 2013 C 178.834 5.33031 -0.422083 0
M  V30 2014 C 180.134 4.59603 -2.48118 0
M  V30 2015 H 181.828 2.49113 -1.66082 0
M  V30 2016 H 179.374 1.19734 -0.799987 0
M  V30 2017 H 181.327 4.21353 0.0631215 0
M  V30 2018 H 180.051 3.17851 0.750868 0
M  V30 2019 H 178.71 3.40036 -1.37007 0
M  V30 2020 H 178.358 5.00335 0.517072 0
M  V30 2021 H 178.058 5.77999 -1.05788 0
M  V30 2022 H 179.582 6.10325 -0.183277 0
M  V30 2023 H 180.996 5.25552 -2.29059 0
M  V30 2024 H 179.393 5.15321 -3.07514 0
M  V30 2025 H 180.463 3.73971 -3.08665 0
M  V30 2026 N 181.806 0.884767 1.30421 0
M  V30 2027 C 182.739 0.295999 2.26272 0
M  V30 2028 C 183.717 -0.58332 1.51777 0
M  V30 2029 O 184.901 -0.53346 1.80794 0
M  V30 2030 C 182.028 -0.57944 3.33707 0
M  V30 2031 C 181.074 0.230525 4.25877 0
M  V30 2032 S 181.907 1.61867 5.1045 0
M  V30 2033 C 183.063 0.749756 6.21393 0
M  V30 2034 H 183.296 1.10848 2.75862 0
M  V30 2035 H 180.829 0.684178 1.38414 0
M  V30 2036 H 182.787 -1.07879 3.96071 0
M  V30 2037 H 181.448 -1.36601 2.82841 0
M  V30 2038 H 180.641 -0.437542 5.02097 0
M  V30 2039 H 180.243 0.662493 3.68086 0
M  V30 2040 H 182.535 -0.0333547 6.77492 0
M  V30 2041 H 183.478 1.48356 6.92384 0
M  V30 2042 H 183.886 0.310751 5.63644 0
M  V30 2043 N 183.284 -1.43765 0.645699 0
M  V30 2044 C 184.514 -2.05953 0.163318 0
M  V30 2045 C 184.922 -1.48432 -1.17322 0
M  V30 2046 O 184.265 -0.607295 -1.73371 0
M  V30 2047 C 184.327 -3.59499 -0.0103065 0
M  V30 2048 C 183.991 -4.39563 1.25035 0
M  V30 2049 C 184.988 -4.72108 2.17739 0
M  V30 2050 C 182.673 -4.79697 1.48983 0
M  V30 2051 C 184.667 -5.43688 3.3269 0
M  V30 2052 C 182.354 -5.51023 2.64229 0
M  V30 2053 C 183.352 -5.8294 3.55908 0
M  V30 2054 O 183.04 -6.5281 4.69142 0
M  V30 2055 H 182.772 -0.670798 0.0836986 0
M  V30 2056 H 185.326 -1.85384 0.884407 0
M  V30 2057 H 183.556 -3.78613 -0.78669 0
M  V30 2058 H 185.245 -4.03408 -0.449087 0
M  V30 2059 H 186.011 -4.41627 2.00476 0
M  V30 2060 H 181.89 -4.54266 0.785078 0
M  V30 2061 H 185.434 -5.68517 4.04269 0
M  V30 2062 H 181.331 -5.8092 2.81429 0
M  V30 2063 H 182.099 -6.71288 4.6831 0
M  V30 2064 N 184.763 -0.387143 -1.52771 0
M  V30 2065 C 186.011 0.195349 -2.01154 0
M  V30 2066 C 186.332 1.475 -1.27549 0
M  V30 2067 O 185.602 1.91878 -0.394924 0
M  V30 2068 H 184.182 0.075178 -0.743207 0
M  V30 2069 H 186.844 -0.518337 -1.87881 0
M  V30 2070 H 185.94 0.407096 -3.09434 0
M  V30 2071 N 186.241 1.57166 -0.116904 0
M  V30 2072 C 187.466 1.999 0.55271 0
M  V30 2073 C 187.891 0.996039 1.59564 0
M  V30 2074 O 187.249 -0.032556 1.81271 0
M  V30 2075 C 187.297 3.4152 1.15742 0
M  V30 2076 O 186.401 3.44106 2.27299 0
M  V30 2077 H 185.742 0.649447 0.138258 0
M  V30 2078 H 188.272 2.03573 -0.204759 0
M  V30 2079 H 188.282 3.79684 1.49346 0
M  V30 2080 H 186.957 4.14034 0.393493 0
M  V30 2081 H 185.534 3.17759 1.9515 0
M  V30 2082 N 187.719 -0.156864 1.56817 0
M  V30 2083 C 188.629 -1.2136 2.00771 0
M  V30 2084 C 189.645 -1.47598 0.921459 0
M  V30 2085 O 190.821 -1.59462 1.2302 0
M  V30 2086 C 187.886 -2.52943 2.37109 0
M  V30 2087 C 186.947 -2.34439 3.59634 0
M  V30 2088 C 186.18 -3.59748 3.94229 0
M  V30 2089 O 186.403 -4.65526 3.29609 0
M  V30 2090 O 185.337 -3.52998 4.8752 0
M  V30 2091 H 189.163 -0.870468 2.90958 0
M  V30 2092 H 186.748 -0.36484 1.44877 0
M  V30 2093 H 188.63 -3.30538 2.61386 0
M  V30 2094 H 187.305 -2.86806 1.5008 0
M  V30 2095 H 186.212 -1.54828 3.40557 0
M  V30 2096 H 187.545 -2.05496 4.4725 0
M  V30 2097 N 189.197 -1.51736 -0.425897 0
M  V30 2098 C 190.127 -1.76827 -1.52494 0
M  V30 2099 C 191.108 -0.618524 -1.58456 0
M  V30 2100 O 192.293 -0.862416 -1.74 0
M  V30 2101 C 189.423 -1.90374 -2.90474 0
M  V30 2102 C 188.377 -3.0588 -2.99369 0
M  V30 2103 C 187.703 -3.04625 -4.3944 0
M  V30 2104 C 189.003 -4.45644 -2.72394 0
M  V30 2105 H 190.697 -2.68855 -1.31748 0
M  V30 2106 H 188.243 -1.29372 -0.632362 0
M  V30 2107 H 190.196 -2.0651 -3.6733 0
M  V30 2108 H 188.92 -0.95004 -3.12477 0
M  V30 2109 H 187.579 -2.89467 -2.24954 0
M  V30 2110 H 187.227 -2.0701 -4.58428 0
M  V30 2111 H 186.927 -3.82195 -4.46319 0
M  V30 2112 H 188.451 -3.22869 -5.18255 0
M  V30 2113 H 189.865 -4.62348 -3.38979 0
M  V30 2114 H 188.262 -5.25006 -2.9067 0
M  V30 2115 H 189.332 -4.54893 -1.67929 0
M  V30 2116 N 190.675 0.682077 -1.42076 0
M  V30 2117 C 191.952 1.43755 -1.32642 0
M  V30 2118 C 192.332 2.11063 0.0396611 0
M  V30 2119 O 191.68 2.02701 1.05474 0
M  V30 2120 C 191.89 2.44596 -2.48946 0
M  V30 2121 C 193.238 3.09454 -2.9073 0
M  V30 2122 O 194.262 2.54922 -2.48783 0
M  V30 2123 O 193.121 4.08253 -3.63307 0
M  V30 2124 H 190.215 0.640857 -0.522715 0
M  V30 2125 H 192.761 0.711415 -1.54068 0
M  V30 2126 H 191.533 1.93609 -3.40046 0
M  V30 2127 H 191.156 3.24701 -2.29467 0
M  V30 2128 N 192.153 1.28127 0.917671 0
M  V30 2129 C 193.116 1.11744 2.00115 0
M  V30 2130 C 194.116 0.0583052 1.60694 0
M  V30 2131 O 195.306 0.303755 1.71531 0
M  V30 2132 C 192.438 0.704862 3.33533 0
M  V30 2133 H 193.631 2.07966 2.16079 0
M  V30 2134 H 191.184 1.11058 1.09981 0
M  V30 2135 H 191.919 -0.258299 3.2327 0
M  V30 2136 H 191.704 1.4699 3.63505 0
M  V30 2137 H 193.194 0.612768 4.1308 0
M  V30 2138 N 193.631 -1.12557 1.10312 0
M  V30 2139 C 194.908 -1.80363 0.756878 0
M  V30 2140 C 195.288 -1.97067 -0.756824 0
M  V30 2141 O 194.636 -1.54601 -1.68259 0
M  V30 2142 C 194.846 -3.14812 1.50647 0
M  V30 2143 C 196.194 -3.90029 1.67817 0
M  V30 2144 O 197.218 -3.24464 1.46974 0
M  V30 2145 O 196.077 -5.07652 2.02365 0
M  V30 2146 H 193.171 -0.780667 0.272926 0
M  V30 2147 H 195.717 -1.19404 1.20586 0
M  V30 2148 H 194.489 -2.97936 2.53672 0
M  V30 2149 H 194.112 -3.83478 1.05026 0
M  V30 2150 N 195.109 -0.891671 -1.2995 0
M  V30 2151 C 196.059 -0.334811 -2.25528 0
M  V30 2152 C 197.043 0.540553 -1.51548 0
M  V30 2153 O 198.235 0.383882 -1.72787 0
M  V30 2154 C 195.364 0.44374 -3.4042 0
M  V30 2155 C 194.45 -0.44609 -4.21747 0
M  V30 2156 N 194.841 -1.54963 -4.81477 0
M  V30 2157 C 193.139 -0.242415 -4.45341 0
M  V30 2158 C 193.84 -2.10015 -5.42465 0
M  V30 2159 N 192.816 -1.39423 -5.25416 0
M  V30 2160 H 196.618 -1.17792 -2.69262 0
M  V30 2161 H 194.132 -0.741822 -1.44467 0
M  V30 2162 H 196.129 0.859362 -4.07947 0
M  V30 2163 H 194.789 1.28421 -2.98225 0
M  V30 2164 H 195.8 -1.93244 -4.80497 0
M  V30 2165 H 192.477 0.560342 -4.13723 0
M  V30 2166 H 193.867 -3.02724 -5.9984 0
M  V30 2167 N 196.587 1.43421 -0.653314 0
M  V30 2168 C 197.998 1.85065 -0.246537 0
M  V30 2169 C 198.349 1.54688 1.2069 0
M  V30 2170 O 197.474 0.995896 1.92122 0
M  V30 2171 C 198.069 3.35922 -0.440666 0
M  V30 2172 C 196.628 3.76297 -0.0882064 0
M  V30 2173 C 195.775 2.67147 -0.743484 0
M  V30 2174 H 198.726 1.33572 -0.856979 0
M  V30 2175 H 198.747 3.79204 0.313798 0
M  V30 2176 H 198.259 3.58 -1.49858 0
M  V30 2177 H 196.36 3.5983 0.96711 0
M  V30 2178 H 196.473 4.76338 -0.513738 0
M  V30 2179 H 194.837 2.54086 -0.176712 0
M  V30 2180 H 195.62 2.92053 -1.80443 0
M  V30 2181 N 198.065 0.39524 1.52563 0
M  V30 2182 C 199.313 -0.184678 2.01254 0
M  V30 2183 C 199.634 -1.46822 1.28329 0
M  V30 2184 O 198.904 -1.91666 0.405094 0
M  V30 2185 H 197.484 -0.0712355 0.743596 0
M  V30 2186 H 200.146 0.528293 1.87603 0
M  V30 2187 H 199.242 -0.390681 3.09645 0
M  V30 2188 N 199.544 -1.57102 0.125237 0
M  V30 2189 C 200.791 -1.95407 -0.531248 0
M  V30 2190 C 201.119 -1.0089 -1.66287 0
M  V30 2191 O 200.374 -0.0339431 -1.95671 0
M  V30 2192 C 200.673 -3.40096 -1.09862 0
M  V30 2193 C 200.339 -4.50815 -0.0876989 0
M  V30 2194 C 199.001 -4.80824 0.19026 0
M  V30 2195 C 201.353 -5.17724 0.600902 0
M  V30 2196 C 198.681 -5.75058 1.163 0
M  V30 2197 C 201.033 -6.13005 1.56231 0
M  V30 2198 C 199.697 -6.41403 1.8482 0
M  V30 2199 H 198.967 -0.715046 -0.194397 0
M  V30 2200 H 201.614 -1.90373 0.207463 0
M  V30 2201 H 199.919 -3.41855 -1.91422 0
M  V30 2202 H 201.616 -3.6705 -1.61478 0
M  V30 2203 H 198.206 -4.27444 -0.314528 0
M  V30 2204 H 202.39 -4.94691 0.399333 0
M  V30 2205 H 197.646 -5.95362 1.39117 0
M  V30 2206 H 201.82 -6.63934 2.10153 0
M  V30 2207 H 199.447 -7.14229 2.60349 0
M  V30 2208 N 201.022 0.148545 -1.56898 0
M  V30 2209 C 201.969 1.18345 -1.98149 0
M  V30 2210 C 202.939 1.42772 -0.848848 0
M  V30 2211 O 204.124 1.55132 -1.11079 0
M  V30 2212 C 201.264 2.51231 -2.36594 0
M  V30 2213 C 200.377 2.33991 -3.63142 0
M  V30 2214 C 199.512 3.59902 -3.90697 0
M  V30 2215 C 198.551 3.37692 -5.1052 0
M  V30 2216 N 197.688 4.5573 -5.34092 0
M  V30 2217 H 202.528 0.82467 -2.86362 0
M  V30 2218 H 200.065 0.395756 -1.41676 0
M  V30 2219 H 202.023 3.28713 -2.56912 0
M  V30 2220 H 200.653 2.85059 -1.51463 0
M  V30 2221 H 199.705 1.47572 -3.50609 0
M  V30 2222 H 201.017 2.13539 -4.5078 0
M  V30 2223 H 200.171 4.45813 -4.11505 0
M  V30 2224 H 198.91 3.83357 -3.01477 0
M  V30 2225 H 197.915 2.5017 -4.89587 0
M  V30 2226 H 199.14 3.15637 -6.0129 0
M  V30 2227 H 197.086 4.79361 -4.47827 0
M  V30 2228 H 197.003 4.38274 -6.15996 0
M  V30 2229 H 198.271 5.42858 -5.59397 0
M  V30 2230 N 202.5 1.5196 0.417844 0
M  V30 2231 C 203.777 1.56146 1.17803 0
M  V30 2232 C 204.157 0.337275 2.08388 0
M  V30 2233 O 203.505 -0.676447 2.18258 0
M  V30 2234 C 203.715 2.88566 1.96293 0
M  V30 2235 C 205.063 3.41244 2.52662 0
M  V30 2236 O 206.087 2.90247 2.06483 0
M  V30 2237 O 204.946 4.30273 3.36938 0
M  V30 2238 H 202.04 0.628598 0.537395 0
M  V30 2239 H 204.586 1.64283 0.425331 0
M  V30 2240 H 203.358 3.69116 1.2988 0
M  V30 2241 H 202.981 2.83681 2.78587 0
M  V30 2242 N 203.978 -0.674533 1.42435 0
M  V30 2243 C 204.926 -1.80934 1.46169 0
M  V30 2244 C 205.92 -1.66006 0.3374 0
M  V30 2245 O 207.126 -1.72611 0.510425 0
M  V30 2246 H 203.501 -0.596594 0.457798 0
M  V30 2247 H 205.472 -1.74903 2.41767 0
M  V30 2248 C 204.221 -3.19088 1.38123 0
M  V30 2249 H 203.544 -3.31203 2.23931 0
M  V30 2250 H 204.984 -3.9851 1.44797 0
M  V30 2251 C 203.443 -3.36763 0.0960517 0
M  V30 2252 O 203.973 -3.92581 -0.851073 0
M  V30 2253 N 202.179 -2.90597 0.0131186 0
M  V30 2254 H 201.726 -2.45359 0.784639 0
M  V30 2255 H 201.684 -3.028 -0.846133 0
M  V30 2256 N 205.456 -1.28612 -0.910864 0
M  V30 2257 C 206.702 -1.16106 -1.66274 0
M  V30 2258 C 207.035 0.289113 -1.92036 0
M  V30 2259 O 206.31 1.21 -1.52281 0
M  V30 2260 C 206.593 -1.96309 -3.01885 0
M  V30 2261 C 206.446 -3.49405 -2.8326 0
M  V30 2262 C 207.765 -1.78076 -4.02463 0
M  V30 2263 H 204.884 -0.423152 -0.603417 0
M  V30 2264 H 207.526 -1.57961 -1.05586 0
M  V30 2265 H 205.676 -1.60742 -3.53687 0
M  V30 2266 H 207.348 -3.94894 -2.38446 0
M  V30 2267 H 205.591 -3.74893 -2.18261 0
M  V30 2268 H 206.262 -4.00784 -3.79574 0
M  V30 2269 H 208.738 -2.0912 -3.59733 0
M  V30 2270 H 207.614 -2.36561 -4.95308 0
M  V30 2271 H 207.875 -0.733008 -4.35981 0
M  V30 2272 N 206.934 1.1197 -1.10907 0
M  V30 2273 C 208.164 1.8713 -0.875553 0
M  V30 2274 C 208.572 1.8016 0.577843 0
M  V30 2275 O 207.915 1.17699 1.41042 0
M  V30 2276 C 207.977 3.37005 -1.2517 0
M  V30 2277 C 207.641 3.67748 -2.71313 0
M  V30 2278 C 208.638 3.65698 -3.69542 0
M  V30 2279 C 206.323 3.96928 -3.07821 0
M  V30 2280 C 208.317 3.92395 -5.023 0
M  V30 2281 C 206.004 4.23284 -4.40765 0
M  V30 2282 C 207.002 4.21005 -5.37814 0
M  V30 2283 O 206.69 4.46704 -6.68364 0
M  V30 2284 H 206.422 0.598786 -0.313737 0
M  V30 2285 H 208.976 1.42568 -1.47863 0
M  V30 2286 H 207.206 3.82146 -0.591741 0
M  V30 2287 H 208.895 3.93519 -0.994877 0
M  V30 2288 H 209.661 3.43211 -3.42682 0
M  V30 2289 H 205.54 3.97841 -2.32902 0
M  V30 2290 H 209.084 3.90531 -5.78041 0
M  V30 2291 H 204.981 4.45246 -4.67361 0
M  V30 2292 H 205.749 4.64299 -6.74069 0
M  V30 2293 N 208.412 0.89855 1.29475 0
M  V30 2294 C 209.828 0.594483 1.48115 0
M  V30 2295 C 210.028 -0.86431 1.82022 0
M  V30 2296 O 209.084 -1.64457 1.91599 0
M  V30 2297 C 210.397 1.51932 2.59494 0
M  V30 2298 C 211.945 1.5244 2.7337 0
M  V30 2299 C 212.42 2.43548 3.87877 0
M  V30 2300 N 213.911 2.41589 3.95208 0
M  V30 2301 C 214.646 3.08789 4.83153 0
M  V30 2302 N 214.142 3.85265 5.75798 0
M  V30 2303 N 215.935 2.97952 4.76635 0
M  V30 2304 H 208.086 1.84207 1.05742 0
M  V30 2305 H 210.349 0.789251 0.525154 0
M  V30 2306 H 210.055 2.55865 2.41301 0
M  V30 2307 H 209.929 1.23899 3.56271 0
M  V30 2308 H 212.316 0.492518 2.90961 0
M  V30 2309 H 212.397 1.8451 1.77172 0
M  V30 2310 H 212.041 3.46829 3.71041 0
M  V30 2311 H 211.971 2.08788 4.83441 0
M  V30 2312 H 214.462 1.86025 3.28943 0
M  V30 2313 H 214.775 4.33598 6.39697 0
M  V30 2314 H 213.12 3.89371 5.75687 0
M  V30 2315 H 216.311 2.37723 4.03244 0
M  V30 2316 H 216.484 3.50599 5.44962 0
M  V30 2317 N 209.89 -1.43072 0.660911 0
M  V30 2318 C 210.837 -2.30785 -0.0259884 0
M  V30 2319 C 211.807 -1.45184 -0.806888 0
M  V30 2320 O 212.992 -1.74041 -0.781943 0
M  V30 2321 C 210.132 -3.30861 -0.981067 0
M  V30 2322 C 209.245 -4.31558 -0.195458 0
M  V30 2323 C 208.38 -5.18712 -1.14503 0
M  V30 2324 C 207.419 -6.11097 -0.350299 0
M  V30 2325 N 206.556 -6.90849 -1.25186 0
M  V30 2326 H 211.396 -2.88975 0.727846 0
M  V30 2327 H 208.933 -1.42353 0.370682 0
M  V30 2328 H 210.891 -3.87399 -1.54849 0
M  V30 2329 H 209.521 -2.74304 -1.70169 0
M  V30 2330 H 208.573 -3.77252 0.488374 0
M  V30 2331 H 209.885 -4.9701 0.422176 0
M  V30 2332 H 209.039 -5.79914 -1.78284 0
M  V30 2333 H 207.778 -4.53404 -1.79656 0
M  V30 2334 H 206.783 -5.48976 0.300808 0
M  V30 2335 H 208.008 -6.7845 0.296941 0
M  V30 2336 H 205.954 -6.28182 -1.89005 0
M  V30 2337 H 205.871 -7.52854 -0.688971 0
M  V30 2338 H 207.139 -7.5655 -1.87757 0
M  V30 2339 N 211.368 -0.403325 -1.52352 0
M  V30 2340 C 212.784 -0.0539281 -1.59509 0
M  V30 2341 C 212.984 1.43307 -1.41652 0
M  V30 2342 O 212.04 2.19924 -1.24056 0
M  V30 2343 C 213.353 -0.543654 -2.95745 0
M  V30 2344 C 214.901 -0.501125 -3.08962 0
M  V30 2345 C 215.376 -0.967267 -4.47669 0
M  V30 2346 N 216.867 -0.923849 -4.53893 0
M  V30 2347 C 217.602 -1.25578 -5.5948 0
M  V30 2348 N 217.098 -1.65889 -6.72646 0
M  V30 2349 N 218.891 -1.17613 -5.49658 0
M  V30 2350 H 211.042 -1.37123 -1.62206 0
M  V30 2351 H 213.305 -0.56294 -0.76276 0
M  V30 2352 H 213.011 -1.58275 -3.14073 0
M  V30 2353 H 212.885 0.0498042 -3.77167 0
M  V30 2354 H 215.272 0.528909 -2.90321 0
M  V30 2355 H 215.353 -1.13056 -2.2946 0
M  V30 2356 H 214.997 -1.9956 -4.67053 0
M  V30 2357 H 214.927 -0.314698 -5.25659 0
M  V30 2358 H 217.418 -0.627403 -3.72655 0
M  V30 2359 H 217.731 -1.89543 -7.49195 0
M  V30 2360 H 216.076 -1.69787 -6.73942 0
M  V30 2361 H 219.267 -0.860115 -4.6013 0
M  V30 2362 H 219.44 -1.43812 -6.3184 0
M  V30 2363 N 212.846 1.57033 -0.133567 0
M  V30 2364 C 214.262 1.58035 0.222944 0
M  V30 2365 C 214.462 1.14713 1.6566 0
M  V30 2366 O 213.518 0.841218 2.38075 0
M  V30 2367 C 214.831 3.00691 -0.0236116 0
M  V30 2368 C 216.379 3.12973 0.0411512 0
M  V30 2369 C 216.854 4.57654 -0.177899 0
M  V30 2370 N 218.345 4.63033 -0.124365 0
M  V30 2371 C 219.08 5.72771 -0.268553 0
M  V30 2372 N 218.576 6.91206 -0.46972 0
M  V30 2373 N 220.369 5.61718 -0.2071 0
M  V30 2374 H 212.52 1.8349 -1.06981 0
M  V30 2375 H 214.783 0.848677 -0.422436 0
M  V30 2376 H 214.489 3.36726 -1.0153 0
M  V30 2377 H 214.363 3.70614 0.701808 0
M  V30 2378 H 216.75 2.76787 1.02338 0
M  V30 2379 H 216.831 2.45564 -0.716383 0
M  V30 2380 H 216.475 4.94542 -1.15717 0
M  V30 2381 H 216.405 5.23173 0.599797 0
M  V30 2382 H 218.896 3.7789 0.027011 0
M  V30 2383 H 219.209 7.70693 -0.570212 0
M  V30 2384 H 217.554 6.93156 -0.505876 0
M  V30 2385 H 220.745 4.68072 -0.0507986 0
M  V30 2386 H 220.918 6.47195 -0.322909 0
M  V30 2387 N 214.325 -0.140222 1.56975 0
M  V30 2388 C 215.272 -1.17292 1.98774 0
M  V30 2389 C 216.242 -1.4232 0.856408 0
M  V30 2390 O 217.427 -1.54541 1.119 0
M  V30 2391 C 214.567 -2.49973 2.37923 0
M  V30 2392 C 213.68 -2.32062 3.64378 0
M  V30 2393 C 212.815 -3.57825 3.926 0
M  V30 2394 C 211.854 -3.3498 5.12303 0
M  V30 2395 N 210.991 -4.52891 5.36502 0
M  V30 2396 H 215.831 -0.809472 2.86795 0
M  V30 2397 H 213.368 -0.388237 1.41884 0
M  V30 2398 H 215.326 -3.27346 2.58652 0
M  V30 2399 H 213.956 -2.84252 1.52972 0
M  V30 2400 H 213.008 -1.45711 3.51387 0
M  V30 2401 H 214.32 -2.11145 4.51906 0
M  V30 2402 H 213.474 -4.43624 4.13863 0
M  V30 2403 H 212.213 -3.81753 3.03506 0
M  V30 2404 H 211.218 -2.4757 4.90906 0
M  V30 2405 H 212.443 -3.12444 6.02956 0
M  V30 2406 H 210.389 -4.76979 4.50363 0
M  V30 2407 H 210.306 -4.35001 6.18312 0
M  V30 2408 H 211.574 -5.39884 5.62268 0
M  V30 2409 N 215.803 -1.52179 -0.40978 0
M  V30 2410 C 217.033 -1.69807 -1.17682 0
M  V30 2411 C 217.441 -0.406908 -1.84773 0
M  V30 2412 O 216.784 0.626863 -1.72673 0
M  V30 2413 C 216.846 -2.77712 -2.2829 0
M  V30 2414 C 216.51 -4.19481 -1.81341 0
M  V30 2415 C 217.507 -5.03345 -1.30154 0
M  V30 2416 C 215.192 -4.65713 -1.88194 0
M  V30 2417 C 217.186 -6.31511 -0.864416 0
M  V30 2418 C 214.873 -5.93869 -1.44093 0
M  V30 2419 C 215.871 -6.76597 -0.933023 0
M  V30 2420 O 215.559 -8.02354 -0.49838 0
M  V30 2421 H 215.291 -0.572372 -0.359675 0
M  V30 2422 H 217.845 -1.99511 -0.488311 0
M  V30 2423 H 216.075 -2.43383 -3.00502 0
M  V30 2424 H 217.764 -2.83946 -2.90051 0
M  V30 2425 H 218.53 -4.68819 -1.24232 0
M  V30 2426 H 214.409 -4.01424 -2.26671 0
M  V30 2427 H 217.953 -6.96033 -0.467286 0
M  V30 2428 H 213.85 -6.27903 -1.49694 0
M  V30 2429 H 214.618 -8.16135 -0.621747 0
M  V30 2430 N 217.281 0.66697 -1.42791 0
M  V30 2431 C 218.528 1.42699 -1.43678 0
M  V30 2432 C 218.856 1.94419 -0.0560425 0
M  V30 2433 O 218.111 1.7182 0.936831 0
M  V30 2434 C 218.41 2.6349 -2.4147 0
M  V30 2435 C 218.076 2.30267 -3.8767 0
M  V30 2436 C 216.738 2.20918 -4.27491 0
M  V30 2437 C 219.09 2.03435 -4.79858 0
M  V30 2438 C 216.418 1.82873 -5.57471 0
M  V30 2439 C 218.77 1.66892 -6.10188 0
M  V30 2440 C 217.434 1.56058 -6.49001 0
M  V30 2441 H 216.704 0.522171 -0.525755 0
M  V30 2442 H 219.351 0.759785 -1.75783 0
M  V30 2443 H 217.656 3.35279 -2.0272 0
M  V30 2444 H 219.353 3.21684 -2.39417 0
M  V30 2445 H 215.943 2.38449 -3.56146 0
M  V30 2446 H 220.127 2.09586 -4.49875 0
M  V30 2447 H 215.383 1.7306 -5.86396 0
M  V30 2448 H 219.557 1.45157 -6.81104 0
M  V30 2449 H 217.184 1.26348 -7.49627 0
M  V30 2450 N 218.759 1.29093 0.90403 0
M  V30 2451 C 219.722 1.1386 1.98919 0
M  V30 2452 C 220.722 0.0753457 1.60623 0
M  V30 2453 O 221.912 0.321931 1.71199 0
M  V30 2454 C 219.044 0.740198 3.32767 0
M  V30 2455 H 220.237 2.10246 2.13861 0
M  V30 2456 H 217.79 1.12218 1.08797 0
M  V30 2457 H 218.525 -0.223997 3.23525 0
M  V30 2458 H 218.31 1.50838 3.61926 0
M  V30 2459 H 219.8 0.656546 4.12407 0
M  V30 2460 N 220.237 -1.11381 1.11499 0
M  V30 2461 C 221.514 -1.7955 0.775965 0
M  V30 2462 C 221.894 -1.97859 -0.73588 0
M  V30 2463 O 221.242 -1.56376 -1.66609 0
M  V30 2464 C 221.452 -3.13196 1.53977 0
M  V30 2465 C 222.8 -3.88227 1.71944 0
M  V30 2466 O 223.824 -3.22887 1.50407 0
M  V30 2467 O 222.683 -5.05477 2.07738 0
M  V30 2468 H 219.777 -0.777728 0.28119 0
M  V30 2469 H 222.323 -1.18118 1.21845 0
M  V30 2470 H 221.095 -2.95229 2.56818 0
M  V30 2471 H 220.718 -3.82342 1.09088 0
M  V30 2472 N 221.715 -0.905404 -1.28997 0
M  V30 2473 C 222.645 -0.404212 -2.29975 0
M  V30 2474 C 223.626 0.523784 -1.61835 0
M  V30 2475 O 224.811 0.433298 -1.89304 0
M  V30 2476 C 221.941 0.364042 -3.45387 0
M  V30 2477 C 220.895 -0.474048 -4.25367 0
M  V30 2478 C 220.221 0.422045 -5.33032 0
M  V30 2479 C 221.521 -1.72696 -4.92923 0
M  V30 2480 H 223.215 -1.24807 -2.72146 0
M  V30 2481 H 220.761 -0.601585 -1.30832 0
M  V30 2482 H 222.714 0.725447 -4.15109 0
M  V30 2483 H 221.438 1.24174 -3.02074 0
M  V30 2484 H 220.097 -0.81786 -3.57361 0
M  V30 2485 H 219.745 1.29804 -4.85963 0
M  V30 2486 H 219.445 -0.135057 -5.87445 0
M  V30 2487 H 220.969 0.779517 -6.05604 0
M  V30 2488 H 222.383 -1.43495 -5.55051 0
M  V30 2489 H 220.78 -2.22582 -5.57295 0
M  V30 2490 H 221.85 -2.45964 -4.17887 0
M  V30 2491 N 223.193 1.4272 -0.668489 0
M  V30 2492 C 224.156 2.292 0.00448567 0
M  V30 2493 C 225.156 1.43001 0.735339 0
M  V30 2494 O 226.346 1.64461 0.57429 0
M  V30 2495 C 223.478 3.25375 1.01705 0
M  V30 2496 H 224.671 2.90199 -0.756608 0
M  V30 2497 H 222.224 1.50254 -0.430506 0
M  V30 2498 H 222.959 2.69301 1.80686 0
M  V30 2499 H 222.744 3.88944 0.496463 0
M  V30 2500 H 224.234 3.90245 1.48655 0
M  V30 2501 N 224.671 0.411399 1.52136 0
M  V30 2502 C 225.604 -0.457614 2.23565 0
M  V30 2503 C 226.582 -1.04613 1.24478 0
M  V30 2504 O 227.766 -1.09356 1.53536 0
M  V30 2505 C 224.893 -1.6354 2.96602 0
M  V30 2506 C 223.939 -1.17005 4.10137 0
M  V30 2507 S 224.772 -0.13333 5.35334 0
M  V30 2508 C 225.928 -1.31638 6.119 0
M  V30 2509 H 226.161 0.148883 2.96927 0
M  V30 2510 H 223.694 0.195713 1.53155 0
M  V30 2511 H 225.652 -2.31074 3.39286 0
M  V30 2512 H 224.313 -2.21324 2.22878 0
M  V30 2513 H 223.506 -2.05005 4.60422 0
M  V30 2514 H 223.108 -0.573319 3.6958 0
M  V30 2515 H 225.4 -2.23957 6.39413 0
M  V30 2516 H 226.343 -0.854014 7.02931 0
M  V30 2517 H 226.751 -1.54321 5.42997 0
M  V30 2518 N 226.149 -1.5696 0.141893 0
M  V30 2519 C 227.097 -2.17784 -0.816874 0
M  V30 2520 C 228.091 -1.1334 -1.25899 0
M  V30 2521 O 229.297 -1.316 -1.22806 0
M  V30 2522 H 225.672 -0.697278 -0.281615 0
M  V30 2523 H 227.643 -2.97087 -0.279621 0
M  V30 2524 C 226.392 -2.80983 -2.04802 0
M  V30 2525 H 225.715 -3.61062 -1.7168 0
M  V30 2526 H 227.155 -3.2705 -2.69841 0
M  V30 2527 C 225.614 -1.79228 -2.8527 0
M  V30 2528 O 226.144 -1.25962 -3.8144 0
M  V30 2529 N 224.35 -1.48647 -2.49704 0
M  V30 2530 H 223.897 -1.92155 -1.71564 0
M  V30 2531 H 223.855 -0.808115 -3.03837 0
M  V30 2532 N 227.627 0.131896 -1.57047 0
M  V30 2533 C 228.857 0.855219 -1.88068 0
M  V30 2534 C 229.265 1.74557 -0.729817 0
M  V30 2535 O 228.608 1.81083 0.308962 0
M  V30 2536 C 228.67 1.75119 -3.13964 0
M  V30 2537 C 228.334 1.03646 -4.45091 0
M  V30 2538 C 229.331 0.383276 -5.18485 0
M  V30 2539 C 227.016 1.02148 -4.91804 0
M  V30 2540 C 229.01 -0.275347 -6.36805 0
M  V30 2541 C 226.697 0.359047 -6.10044 0
M  V30 2542 C 227.695 -0.288222 -6.82392 0
M  V30 2543 O 227.383 -0.94011 -7.98384 0
M  V30 2544 H 227.115 0.251864 -0.627328 0
M  V30 2545 H 229.669 0.124782 -2.05021 0
M  V30 2546 H 227.899 2.52295 -2.9306 0
M  V30 2547 H 229.588 2.3478 -3.31109 0
M  V30 2548 H 230.354 0.386562 -4.83457 0
M  V30 2549 H 226.233 1.5147 -4.35405 0
M  V30 2550 H 229.777 -0.781148 -6.93213 0
M  V30 2551 H 225.674 0.35348 -6.44531 0
M  V30 2552 H 226.442 -0.84329 -8.14144 0
M  V30 2553 N 229.106 1.52395 0.401703 0
M  V30 2554 C 230.053 1.76268 1.48991 0
M  V30 2555 C 231.023 0.605386 1.54675 0
M  V30 2556 O 232.208 0.843742 1.7113 0
M  V30 2557 C 229.348 1.92592 2.86361 0
M  V30 2558 C 228.461 3.20259 2.89928 0
M  V30 2559 C 227.596 3.26972 4.18644 0
M  V30 2560 C 226.635 4.48812 4.16214 0
M  V30 2561 N 225.772 4.52877 5.36514 0
M  V30 2562 H 230.612 2.6914 1.27935 0
M  V30 2563 H 228.149 1.33355 0.620871 0
M  V30 2564 H 230.107 2.0004 3.66115 0
M  V30 2565 H 228.737 1.03093 3.05895 0
M  V30 2566 H 227.789 3.21945 2.02621 0
M  V30 2567 H 229.101 4.10056 2.83999 0
M  V30 2568 H 228.255 3.33533 5.06794 0
M  V30 2569 H 226.994 2.35126 4.27278 0
M  V30 2570 H 225.999 4.4239 3.26453 0
M  V30 2571 H 227.224 5.41961 4.09213 0
M  V30 2572 H 225.17 3.63917 5.45802 0
M  V30 2573 H 225.087 5.36529 5.32609 0
M  V30 2574 H 226.355 4.63676 6.26597 0
M  V30 2575 N 230.584 -0.659388 1.43143 0
M  V30 2576 C 231.534 -1.7655 1.44271 0
M  V30 2577 C 232.518 -1.57847 0.311961 0
M  V30 2578 O 233.71 -1.68064 0.555306 0
M  V30 2579 C 230.839 -3.15104 1.36251 0
M  V30 2580 C 229.925 -3.39377 2.54331 0
M  V30 2581 N 230.316 -3.34153 3.79704 0
M  V30 2582 C 228.614 -3.70072 2.48922 0
M  V30 2583 C 229.315 -3.58337 4.58225 0
M  V30 2584 N 228.291 -3.79851 3.88863 0
M  V30 2585 H 232.093 -1.70928 2.39083 0
M  V30 2586 H 229.607 -0.860823 1.37708 0
M  V30 2587 H 231.604 -3.94389 1.35141 0
M  V30 2588 H 230.264 -3.21913 0.424531 0
M  V30 2589 H 231.275 -3.13704 4.1208 0
M  V30 2590 H 227.952 -3.84034 1.63781 0
M  V30 2591 H 229.342 -3.60129 5.67236 0
M  V30 2592 N 232.062 -1.29571 -0.897171 0
M  V30 2593 C 233.31 -1.17456 -1.64464 0
M  V30 2594 C 233.631 0.273698 -1.9307 0
M  V30 2595 O 232.901 1.18684 -1.55855 0
M  V30 2596 H 231.481 -0.431706 -0.609622 0
M  V30 2597 H 234.143 -1.62531 -1.07562 0
M  V30 2598 H 233.239 -1.72648 -2.59998 0
M  V30 2599 N 233.54 1.10788 -1.12088 0
M  V30 2600 C 234.817 1.79136 -0.785476 0
M  V30 2601 C 235.197 1.98246 0.725377 0
M  V30 2602 O 234.545 1.57258 1.65778 0
M  V30 2603 C 234.755 3.12375 -1.55636 0
M  V30 2604 C 236.103 3.8731 -1.74001 0
M  V30 2605 O 237.127 3.22085 -1.52117 0
M  V30 2606 O 235.986 5.04369 -2.10415 0
M  V30 2607 H 233.08 0.776226 -0.285311 0
M  V30 2608 H 235.626 1.1747 -1.2247 0
M  V30 2609 H 234.398 2.93863 -2.5838 0
M  V30 2610 H 234.021 3.81758 -1.11114 0
M  V30 2611 N 235.018 0.912232 1.28515 0
M  V30 2612 C 236.429 0.591352 1.77087 0
M  V30 2613 C 236.78 -0.8933 1.74684 0
M  V30 2614 O 235.905 -1.69876 1.34056 0
M  V30 2615 C 236.5 1.06668 3.2157 0
M  V30 2616 C 235.059 0.79675 3.67871 0
M  V30 2617 C 234.206 1.23427 2.48316 0
M  V30 2618 H 237.157 1.09365 1.15 0
M  V30 2619 H 237.178 0.407455 3.78312 0
M  V30 2620 H 236.69 2.14726 3.23287 0
M  V30 2621 H 234.791 -0.270679 3.71616 0
M  V30 2622 H 234.904 1.40343 4.58084 0
M  V30 2623 H 233.268 0.653036 2.46186 0
M  V30 2624 H 234.051 2.32316 2.52753 0
M  V30 2625 N 236.496 -1.42363 0.676048 0
M  V30 2626 C 237.745 -2.00745 0.196037 0
M  V30 2627 C 238.058 -1.54083 -1.20489 0
M  V30 2628 O 239.264 -2.04891 -1.78134 0
M  V30 2629 C 237.72 -3.58651 0.299616 0
M  V30 2630 C 237.328 -4.143 1.70468 0
M  V30 2631 C 239.072 -4.24326 -0.121619 0
M  V30 2632 C 236.979 -5.64574 1.76096 0
M  V30 2633 H 235.909 -0.750787 0.0695301 0
M  V30 2634 H 238.56 -1.63072 0.841412 0
M  V30 2635 H 236.942 -3.93833 -0.413673 0
M  V30 2636 H 238.116 -3.90575 2.44515 0
M  V30 2637 H 236.431 -3.61081 2.07387 0
M  V30 2638 H 239.028 -5.34607 -0.0997362 0
M  V30 2639 H 239.371 -3.99897 -1.15708 0
M  V30 2640 H 239.904 -3.94108 0.540706 0
M  V30 2641 H 236.643 -5.93804 2.77628 0
M  V30 2642 H 236.163 -5.90286 1.06406 0
M  V30 2643 H 237.842 -6.29013 1.51496 0
M  V30 2644 N 237.974 -0.419461 -1.51915 0
M  V30 2645 C 239.385 0.0477853 -1.86639 0
M  V30 2646 C 239.736 1.43531 -1.33766 0
M  V30 2647 O 238.861 2.05401 -0.68113 0
M  V30 2648 C 239.456 0.0934885 -3.38671 0
M  V30 2649 C 238.015 0.505097 -3.72996 0
M  V30 2650 C 237.162 -0.313792 -2.75519 0
M  V30 2651 H 240.113 -0.636088 -1.45395 0
M  V30 2652 H 240.134 0.906667 -3.6954 0
M  V30 2653 H 239.646 -0.916501 -3.77123 0
M  V30 2654 H 237.747 1.52135 -3.40126 0
M  V30 2655 H 237.86 0.242309 -4.78487 0
M  V30 2656 H 236.224 0.225363 -2.53701 0
M  V30 2657 H 237.007 -1.32232 -3.16812 0
M  V30 2658 N 239.452 1.56882 -0.150215 0
M  V30 2659 C 240.399 2.16922 0.788244 0
M  V30 2660 C 241.369 1.10303 1.24187 0
M  V30 2661 O 242.554 1.38359 1.31383 0
M  V30 2662 C 239.694 2.79754 2.02068 0
M  V30 2663 C 238.807 4.00775 1.61257 0
M  V30 2664 C 237.942 4.51595 2.79705 0
M  V30 2665 C 236.981 5.65074 2.35282 0
M  V30 2666 N 236.118 6.10499 3.4675 0
M  V30 2667 H 240.958 2.96779 0.269444 0
M  V30 2668 H 238.495 1.46599 0.12128 0
M  V30 2669 H 240.453 3.14329 2.74323 0
M  V30 2670 H 239.083 2.02536 2.51354 0
M  V30 2671 H 238.135 3.72158 0.787553 0
M  V30 2672 H 239.447 4.82978 1.24633 0
M  V30 2673 H 238.601 4.88242 3.60145 0
M  V30 2674 H 237.34 3.68406 3.19576 0
M  V30 2675 H 236.345 5.28 1.53283 0
M  V30 2676 H 237.57 6.50052 1.96493 0
M  V30 2677 H 235.516 5.30243 3.86236 0
M  V30 2678 H 235.433 6.87637 3.14152 0
M  V30 2679 H 236.701 6.51791 4.27537 0
M  V30 2680 N 240.93 -0.123565 1.57115 0
M  V30 2681 C 242.176 -0.833386 1.84885 0
M  V30 2682 C 242.509 -1.79742 0.735292 0
M  V30 2683 O 241.784 -1.92764 -0.25925 0
M  V30 2684 C 242.067 -1.5873 3.23228 0
M  V30 2685 C 241.92 -0.643183 4.45178 0
M  V30 2686 C 243.239 -2.54453 3.59085 0
M  V30 2687 H 240.358 -0.301518 0.6725 0
M  V30 2688 H 243 -0.097778 1.89748 0
M  V30 2689 H 241.15 -2.21438 3.19214 0
M  V30 2690 H 242.822 -0.0253015 4.61293 0
M  V30 2691 H 241.065 0.0456139 4.33776 0
M  V30 2692 H 241.736 -1.20724 5.38637 0
M  V30 2693 H 244.212 -2.01853 3.63861 0
M  V30 2694 H 243.088 -3.04238 4.5687 0
M  V30 2695 H 243.349 -3.36906 2.86264 0
M  V30 2696 N 242.408 -1.52605 -0.393616 0
M  V30 2697 C 243.318 -1.79971 -1.50492 0
M  V30 2698 C 244.334 -0.686181 -1.59899 0
M  V30 2699 O 245.51 -0.973274 -1.76322 0
M  V30 2700 C 242.575 -1.95867 -2.86072 0
M  V30 2701 C 241.636 -3.19781 -2.86424 0
M  V30 2702 C 240.869 -3.34909 -4.15538 0
M  V30 2703 O 241.092 -2.54948 -5.10253 0
M  V30 2704 O 240.026 -4.28141 -4.23059 0
M  V30 2705 H 243.852 -2.74328 -1.30299 0
M  V30 2706 H 241.437 -1.3764 -0.581005 0
M  V30 2707 H 243.319 -2.08056 -3.66457 0
M  V30 2708 H 241.994 -1.04699 -3.063 0
M  V30 2709 H 240.901 -3.13038 -2.04837 0
M  V30 2710 H 242.234 -4.1078 -2.71147 0
M  V30 2711 N 243.887 0.651787 -1.4349 0
M  V30 2712 C 245.134 1.41167 -1.45183 0
M  V30 2713 C 245.462 1.94349 -0.0766601 0
M  V30 2714 O 244.717 1.72804 0.918555 0
M  V30 2715 C 245.016 2.60914 -2.44251 0
M  V30 2716 C 244.682 2.26142 -3.9009 0
M  V30 2717 C 243.344 2.16371 -4.2981 0
M  V30 2718 C 245.696 1.98334 -4.81989 0
M  V30 2719 C 243.024 1.7695 -5.5938 0
M  V30 2720 C 245.376 1.6041 -6.11924 0
M  V30 2721 C 244.04 1.49166 -6.5062 0
M  V30 2722 H 243.31 0.516566 -0.531263 0
M  V30 2723 H 245.957 0.741099 -1.76579 0
M  V30 2724 H 244.262 3.3311 -2.06265 0
M  V30 2725 H 245.959 3.19127 -2.42815 0
M  V30 2726 H 242.549 2.34658 -3.58655 0
M  V30 2727 H 246.733 2.04803 -4.52072 0
M  V30 2728 H 241.989 1.66831 -5.88198 0
M  V30 2729 H 246.163 1.37925 -6.82605 0
M  V30 2730 H 243.79 1.1839 -7.50925 0
M  V30 2731 N 245.365 1.30045 0.890287 0
M  V30 2732 C 246.593 1.21472 1.67487 0
M  V30 2733 C 247.008 -0.223241 1.87476 0
M  V30 2734 O 246.365 -1.14828 1.41847 0
M  V30 2735 C 246.416 1.93394 3.05419 0
M  V30 2736 O 246.137 3.31576 2.86337 0
M  V30 2737 C 247.638 1.91414 3.99844 0
M  V30 2738 H 244.858 0.420604 0.522813 0
M  V30 2739 H 247.402 1.7158 1.11268 0
M  V30 2740 H 245.557 1.47099 3.58386 0
M  V30 2741 H 245.971 3.67929 3.73802 0
M  V30 2742 H 247.445 2.46285 4.94012 0
M  V30 2743 H 247.922 0.891833 4.3005 0
M  V30 2744 H 248.528 2.37496 3.52811 0
M  V30 2745 N 246.843 -1.10192 1.12674 0
M  V30 2746 C 247.753 -2.20172 0.810026 0
M  V30 2747 C 248.769 -1.72821 -0.202188 0
M  V30 2748 O 249.945 -2.01369 -0.0351691 0
M  V30 2749 C 247.01 -3.45631 0.272007 0
M  V30 2750 C 246.071 -4.07704 1.34447 0
M  V30 2751 C 245.304 -5.27175 0.832029 0
M  V30 2752 O 245.527 -5.69425 -0.333284 0
M  V30 2753 O 244.461 -5.80168 1.60277 0
M  V30 2754 H 248.287 -2.49701 1.72867 0
M  V30 2755 H 245.872 -1.18977 0.903597 0
M  V30 2756 H 247.754 -4.21394 -0.0230219 0
M  V30 2757 H 246.429 -3.17723 -0.619164 0
M  V30 2758 H 245.336 -3.33614 1.6927 0
M  V30 2759 H 246.669 -4.3982 2.2095 0
M  V30 2760 N 248.321 -0.919034 -1.28029 0
M  V30 2761 C 249.231 -0.416756 -2.30869 0
M  V30 2762 C 250.247 0.498235 -1.66714 0
M  V30 2763 O 251.423 0.383144 -1.97722 0
M  V30 2764 C 248.488 0.330274 -3.45123 0
M  V30 2765 C 247.549 -0.618578 -4.2482 0
M  V30 2766 C 246.782 0.0928959 -5.33619 0
M  V30 2767 O 247.005 1.31375 -5.55065 0
M  V30 2768 O 245.939 -0.574499 -5.99152 0
M  V30 2769 H 249.765 -1.27043 -2.75851 0
M  V30 2770 H 247.35 -0.684052 -1.3282 0
M  V30 2771 H 249.232 0.751972 -4.14636 0
M  V30 2772 H 247.907 1.1597 -3.02213 0
M  V30 2773 H 246.814 -1.08978 -3.57875 0
M  V30 2774 H 248.147 -1.41497 -4.71423 0
M  V30 2775 N 249.799 1.42003 -0.683588 0
M  V30 2776 C 250.709 2.34597 -0.0109075 0
M  V30 2777 C 251.725 1.55576 0.779245 0
M  V30 2778 O 252.901 1.88107 0.719555 0
M  V30 2779 C 249.966 3.34199 0.922588 0
M  V30 2780 C 249.027 4.29115 0.125984 0
M  V30 2781 C 248.26 5.23959 1.01502 0
M  V30 2782 O 248.483 5.23952 2.25456 0
M  V30 2783 O 247.417 6.00053 0.47111 0
M  V30 2784 H 251.243 2.93675 -0.773853 0
M  V30 2785 H 248.828 1.42654 -0.443861 0
M  V30 2786 H 250.71 3.95365 1.45823 0
M  V30 2787 H 249.385 2.77582 1.66523 0
M  V30 2788 H 248.292 3.71335 -0.453969 0
M  V30 2789 H 249.625 4.88798 -0.577736 0
M  V30 2790 N 251.277 0.427512 1.51691 0
M  V30 2791 C 252.526 -0.143679 2.01188 0
M  V30 2792 C 252.839 -1.44642 1.31674 0
M  V30 2793 O 254.045 -2.09997 1.72086 0
M  V30 2794 C 252.501 -0.306602 3.58592 0
M  V30 2795 C 252.109 0.985125 4.37035 0
M  V30 2796 C 253.853 -0.832091 4.16265 0
M  V30 2797 C 251.76 0.788382 5.86122 0
M  V30 2798 H 250.69 -0.0574701 0.751807 0
M  V30 2799 H 253.341 0.555772 1.74881 0
M  V30 2800 H 251.723 -1.06882 3.81303 0
M  V30 2801 H 252.897 1.75492 4.26074 0
M  V30 2802 H 251.212 1.4384 3.90767 0
M  V30 2803 H 253.809 -0.995617 5.25349 0
M  V30 2804 H 254.152 -1.81186 3.74803 0
M  V30 2805 H 254.685 -0.128444 3.97593 0
M  V30 2806 H 251.424 1.74025 6.31978 0
M  V30 2807 H 250.944 0.0582143 5.99772 0
M  V30 2808 H 252.623 0.437722 6.45518 0
M  V30 2809 N 252.755 -1.56801 0.158532 0
M  V30 2810 C 253.702 -2.17337 -0.776729 0
M  V30 2811 C 254.672 -1.1096 -1.23601 0
M  V30 2812 O 255.857 -1.39054 -1.30647 0
M  V30 2813 C 252.997 -2.80822 -2.00582 0
M  V30 2814 C 252.11 -4.01624 -1.59129 0
M  V30 2815 C 251.245 -4.53072 -2.77306 0
M  V30 2816 C 250.284 -5.66314 -2.32282 0
M  V30 2817 N 249.421 -6.12329 -3.43508 0
M  V30 2818 H 254.261 -2.96918 -0.253701 0
M  V30 2819 H 251.798 -1.46661 -0.113504 0
M  V30 2820 H 253.756 -3.15779 -2.72652 0
M  V30 2821 H 252.386 -2.03866 -2.50277 0
M  V30 2822 H 251.438 -3.72571 -0.767806 0
M  V30 2823 H 252.75 -4.83633 -1.2207 0
M  V30 2824 H 251.904 -4.90145 -3.57551 0
M  V30 2825 H 250.643 -3.70095 -3.17617 0
M  V30 2826 H 249.648 -5.28806 -1.5048 0
M  V30 2827 H 250.873 -6.51085 -1.93043 0
M  V30 2828 H 248.819 -5.32284 -3.83418 0
M  V30 2829 H 248.736 -6.89293 -3.105 0
M  V30 2830 H 250.004 -6.5405 -4.24075 0
M  V30 2831 N 254.233 0.115231 -1.57178 0
M  V30 2832 C 255.461 0.836437 -1.89239 0
M  V30 2833 C 255.876 1.73256 -0.750175 0
M  V30 2834 O 255.233 1.80357 0.278832 0
M  V30 2835 C 255.284 1.66671 -3.20785 0
M  V30 2836 O 255.005 0.806652 -4.3061 0
M  V30 2837 C 256.506 2.49274 -3.66575 0
M  V30 2838 H 253.726 0.240253 -0.626514 0
M  V30 2839 H 256.27 0.0984932 -2.04263 0
M  V30 2840 H 254.425 2.35737 -3.0742 0
M  V30 2841 H 254.839 1.37969 -5.06028 0
M  V30 2842 H 256.313 3.03055 -4.6137 0
M  V30 2843 H 256.79 3.26807 -2.93417 0
M  V30 2844 H 257.396 1.85443 -3.82741 0
M  V30 2845 N 255.711 1.52812 0.385517 0
M  V30 2846 C 256.957 1.69225 1.12847 0
M  V30 2847 C 257.312 0.42864 1.87564 0
M  V30 2848 O 256.605 -0.57779 1.8268 0
M  V30 2849 C 256.799 2.86856 2.13187 0
M  V30 2850 C 256.628 4.24535 1.48325 0
M  V30 2851 C 255.398 4.89701 1.24585 0
M  V30 2852 C 257.596 5.05794 0.931501 0
M  V30 2853 N 255.578 6.11353 0.558644 0
M  V30 2854 C 256.949 6.1888 0.372552 0
M  V30 2855 C 259.004 4.90963 0.828248 0
M  V30 2856 C 257.707 7.18757 -0.279556 0
M  V30 2857 C 259.733 5.91095 0.189956 0
M  V30 2858 C 259.095 7.03489 -0.358207 0
M  V30 2859 H 255.194 0.67268 0.39878 0
M  V30 2860 H 257.778 1.9017 0.417528 0
M  V30 2861 H 255.949 2.67484 2.81614 0
M  V30 2862 H 257.681 2.92188 2.80014 0
M  V30 2863 H 254.436 4.48485 1.52178 0
M  V30 2864 H 254.86 6.76606 0.230983 0
M  V30 2865 H 259.502 4.04274 1.23784 0
M  V30 2866 H 257.22 8.05052 -0.701152 0
M  V30 2867 H 260.806 5.81694 0.111264 0
M  V30 2868 H 259.686 7.79642 -0.844314 0
M  V30 2869 N 257.189 -0.644168 1.43834 0
M  V30 2870 C 258.437 -1.40117 1.45642 0
M  V30 2871 C 258.758 -1.94814 0.0852413 0
M  V30 2872 O 258.028 -1.74988 -0.880688 0
M  V30 2873 H 256.608 -0.52005 0.536243 0
M  V30 2874 H 259.27 -0.7591 1.7951 0
M  V30 2875 H 258.366 -2.23902 2.17427 0
M  V30 2876 N 258.668 -1.30515 -0.883378 0
M  V30 2877 C 259.896 -1.22359 -1.66841 0
M  V30 2878 C 260.311 0.213296 -1.87591 0
M  V30 2879 O 259.668 1.14075 -1.42454 0
M  V30 2880 C 259.719 -1.95011 -3.04389 0
M  V30 2881 O 259.44 -3.3309 -2.84575 0
M  V30 2882 C 260.941 -1.93532 -3.98824 0
M  V30 2883 H 258.161 -0.423371 -0.520575 0
M  V30 2884 H 260.705 -1.72167 -1.10357 0
M  V30 2885 H 258.86 -1.48997 -3.57601 0
M  V30 2886 H 259.274 -3.69907 -3.71846 0
M  V30 2887 H 260.748 -2.48902 -4.92699 0
M  V30 2888 H 261.225 -0.914627 -4.29571 0
M  V30 2889 H 261.831 -2.39364 -3.51547 0
M  V30 2890 N 260.146 1.09593 -1.13257 0
M  V30 2891 C 261.392 1.82003 -0.89458 0
M  V30 2892 C 261.725 1.85402 0.577906 0
M  V30 2893 O 261 1.32099 1.42759 0
M  V30 2894 C 261.283 3.28237 -1.48096 0
M  V30 2895 C 261.136 3.3312 -3.02244 0
M  V30 2896 C 262.455 4.24871 -1.14774 0
M  V30 2897 H 259.574 0.66077 -0.326424 0
M  V30 2898 H 262.216 1.28389 -1.40058 0
M  V30 2899 H 260.366 3.74024 -1.05062 0
M  V30 2900 H 262.038 2.95748 -3.54021 0
M  V30 2901 H 260.281 2.72756 -3.37323 0
M  V30 2902 H 260.952 4.3613 -3.38371 0
M  V30 2903 H 263.428 3.87361 -1.51957 0
M  V30 2904 H 262.304 5.25532 -1.58452 0
M  V30 2905 H 262.565 4.42058 -0.0611849 0
M  V30 2906 N 261.624 0.925811 1.2754 0
M  V30 2907 C 262.871 0.565255 1.94451 0
M  V30 2908 C 263.199 -0.89316 1.7278 0
M  V30 2909 O 262.454 -1.65213 1.04895 0
M  V30 2910 C 262.753 0.835296 3.47502 0
M  V30 2911 C 262.419 2.27515 3.89291 0
M  V30 2912 C 261.081 2.66879 4.00411 0
M  V30 2913 C 263.433 3.21158 4.10496 0
M  V30 2914 C 260.761 3.99014 4.30122 0
M  V30 2915 C 263.113 4.52871 4.4169 0
M  V30 2916 C 261.777 4.92072 4.51023 0
M  V30 2917 H 261.047 0.206841 0.711546 0
M  V30 2918 H 263.694 1.16942 1.51647 0
M  V30 2919 H 261.999 0.148442 3.91519 0
M  V30 2920 H 263.696 0.535322 3.97411 0
M  V30 2921 H 260.286 1.95976 3.81171 0
M  V30 2922 H 264.47 2.9195 4.01346 0
M  V30 2923 H 259.726 4.2907 4.35556 0
M  V30 2924 H 263.9 5.25436 4.57045 0
M  V30 2925 H 261.527 5.9449 4.738 0
M  V30 2926 N 263.102 -1.41638 0.69111 0
M  V30 2927 C 264.034 -2.29194 -0.0161523 0
M  V30 2928 C 265.047 -1.44549 -0.748955 0
M  V30 2929 O 266.236 -1.681 -0.6004 0
M  V30 2930 C 263.336 -3.22325 -1.0469 0
M  V30 2931 C 262.509 -4.35706 -0.384621 0
M  V30 2932 C 261.568 -5.09443 -1.31737 0
M  V30 2933 O 260.594 -5.63386 -0.811451 0
M  V30 2934 N 261.796 -5.16487 -2.64993 0
M  V30 2935 H 264.561 -2.90534 0.735523 0
M  V30 2936 H 262.122 -1.52742 0.53679 0
M  V30 2937 H 264.114 -3.68522 -1.67252 0
M  V30 2938 H 262.684 -2.62323 -1.70015 0
M  V30 2939 H 261.904 -3.91948 0.420804 0
M  V30 2940 H 263.192 -5.08743 0.0760765 0
M  V30 2941 H 262.59 -4.741 -3.08619 0
M  V30 2942 H 261.147 -5.66276 -3.22761 0
M  V30 2943 N 264.58 -0.43555 -1.51462 0
M  V30 2944 C 265.49 0.383001 -2.31453 0
M  V30 2945 C 266.506 1.02931 -1.4029 0
M  V30 2946 O 267.682 1.02507 -1.73362 0
M  V30 2947 C 264.747 1.47043 -3.13973 0
M  V30 2948 C 263.808 0.844433 -4.20913 0
M  V30 2949 C 263.041 1.88004 -4.9949 0
M  V30 2950 O 263.264 3.10199 -4.78678 0
M  V30 2951 O 262.198 1.47157 -5.83634 0
M  V30 2952 H 266.024 -0.269964 -3.02498 0
M  V30 2953 H 263.609 -0.19813 -1.4808 0
M  V30 2954 H 265.491 2.10113 -3.65281 0
M  V30 2955 H 264.166 2.10751 -2.45695 0
M  V30 2956 H 263.073 0.175729 -3.73687 0
M  V30 2957 H 264.406 0.250869 -4.9156 0
M  V30 2958 N 266.058 1.56714 -0.166846 0
M  V30 2959 C 266.988 2.20754 0.760913 0
M  V30 2960 C 267.969 1.16178 1.24244 0
M  V30 2961 O 269.154 1.44592 1.29641 0
M  V30 2962 C 266.284 2.84478 1.99223 0
M  V30 2963 C 265.238 3.95053 1.64672 0
M  V30 2964 C 264.564 4.45805 2.95232 0
M  V30 2965 C 265.864 5.14865 0.878155 0
M  V30 2966 H 267.558 2.98537 0.22713 0
M  V30 2967 H 265.104 1.43596 0.107805 0
M  V30 2968 H 267.057 3.27951 2.64624 0
M  V30 2969 H 265.781 2.04056 2.55007 0
M  V30 2970 H 264.44 3.52228 1.01641 0
M  V30 2971 H 264.088 3.62181 3.49047 0
M  V30 2972 H 263.788 5.204 2.7287 0
M  V30 2973 H 265.312 4.91962 3.6167 0
M  V30 2974 H 266.726 5.55059 1.43466 0
M  V30 2975 H 265.123 5.95348 0.753738 0
M  V30 2976 H 266.193 4.84735 -0.126377 0
M  V30 2977 N 267.536 -0.106894 1.57237 0
M  V30 2978 C 268.484 -1.14944 2.02215 0
M  V30 2979 C 269.478 -1.42167 0.92114 0
M  V30 2980 O 270.684 -1.41987 1.10634 0
M  V30 2981 H 267.059 -0.387841 0.64427 0
M  V30 2982 H 269.03 -0.743683 2.88984 0
M  V30 2983 C 267.779 -2.4647 2.4525 0
M  V30 2984 H 267.102 -2.26363 3.29545 0
M  V30 2985 H 268.542 -3.17948 2.80508 0
M  V30 2986 C 267.001 -3.09921 1.321 0
M  V30 2987 O 267.531 -3.9651 0.643622 0
M  V30 2988 N 265.737 -2.69986 1.07497 0
M  V30 2989 H 265.284 -1.99667 1.62761 0
M  V30 2990 H 265.242 -3.12769 0.319876 0
M  V30 2991 N 269.014 -1.53014 -0.377408 0
M  V30 2992 C 269.961 -1.78616 -1.46168 0
M  V30 2993 C 270.931 -0.629917 -1.53692 0
M  V30 2994 O 272.116 -0.870861 -1.69766 0
M  V30 2995 C 269.256 -1.97123 -2.8326 0
M  V30 2996 C 268.369 -3.24831 -2.84796 0
M  V30 2997 C 267.504 -3.33591 -4.13389 0
M  V30 2998 C 266.543 -4.55377 -4.09021 0
M  V30 2999 N 265.68 -4.61355 -5.29241 0
M  V30 3000 H 270.52 -2.71142 -1.23637 0
M  V30 3001 H 268.057 -1.34326 -0.599577 0
M  V30 3002 H 270.015 -2.05839 -3.62886 0
M  V30 3003 H 268.645 -1.07946 -3.04216 0
M  V30 3004 H 267.697 -3.25128 -1.97474 0
M  V30 3005 H 269.009 -4.14523 -2.77439 0
M  V30 3006 H 268.163 -3.41554 -5.01424 0
M  V30 3007 H 266.902 -2.41894 -4.23484 0
M  V30 3008 H 265.907 -4.47527 -3.19373 0
M  V30 3009 H 267.132 -5.48402 -4.00539 0
M  V30 3010 H 265.078 -3.72554 -5.39944 0
M  V30 3011 H 264.995 -5.44935 -5.24006 0
M  V30 3012 H 266.263 -4.73586 -6.19141 0
M  V30 3013 N 270.492 0.636531 -1.44174 0
M  V30 3014 C 271.422 1.76003 -1.53444 0
M  V30 3015 C 272.403 1.65619 -0.387841 0
M  V30 3016 O 273.588 1.84461 -0.607257 0
M  V30 3017 C 270.718 3.14511 -1.4731 0
M  V30 3018 C 269.672 3.39677 -2.60391 0
M  V30 3019 C 268.998 4.78159 -2.39308 0
M  V30 3020 C 270.298 3.32772 -4.02567 0
M  V30 3021 H 271.992 1.68501 -2.47483 0
M  V30 3022 H 269.538 0.809237 -1.19111 0
M  V30 3023 H 271.491 3.92878 -1.52397 0
M  V30 3024 H 270.215 3.22783 -0.49785 0
M  V30 3025 H 268.874 2.63688 -2.54684 0
M  V30 3026 H 268.522 4.83128 -1.39988 0
M  V30 3027 H 268.222 4.95956 -3.15122 0
M  V30 3028 H 269.746 5.58762 -2.46205 0
M  V30 3029 H 271.16 4.01051 -4.09672 0
M  V30 3030 H 269.557 3.62104 -4.7854 0
M  V30 3031 H 270.627 2.30669 -4.2652 0
M  V30 3032 N 271.97 1.30982 0.876444 0
M  V30 3033 C 273.2 1.23063 1.65949 0
M  V30 3034 C 273.608 -0.207537 1.88058 0
M  V30 3035 O 272.951 -1.14781 1.43426 0
M  V30 3036 C 273.013 1.89768 3.05333 0
M  V30 3037 C 272.677 3.39106 3.0636 0
M  V30 3038 C 273.674 4.3496 2.84791 0
M  V30 3039 C 271.359 3.80693 3.27686 0
M  V30 3040 C 273.353 5.70375 2.84519 0
M  V30 3041 C 271.04 5.16223 3.27043 0
M  V30 3042 C 272.038 6.10875 3.05485 0
M  V30 3043 O 271.726 7.43928 3.04674 0
M  V30 3044 H 271.458 0.426685 0.524324 0
M  V30 3045 H 274.012 1.7329 1.10271 0
M  V30 3046 H 272.242 1.34082 3.6271 0
M  V30 3047 H 273.931 1.75853 3.65829 0
M  V30 3048 H 274.697 4.0416 2.68103 0
M  V30 3049 H 270.576 3.07457 3.43499 0
M  V30 3050 H 274.12 6.44228 2.67611 0
M  V30 3051 H 270.017 5.4666 3.43269 0
M  V30 3052 H 270.785 7.53022 3.2078 0
M  V30 3053 N 273.449 -1.08991 1.13837 0
M  V30 3054 C 274.86 -1.62746 0.914917 0
M  V30 3055 C 275.211 -1.88403 -0.547594 0
M  V30 3056 O 274.336 -1.63706 -1.41525 0
M  V30 3057 C 274.931 -2.95662 1.65437 0
M  V30 3058 C 273.49 -3.46225 1.47666 0
M  V30 3059 C 272.637 -2.20562 1.6807 0
M  V30 3060 H 275.588 -0.922946 1.29102 0
M  V30 3061 H 275.609 -3.63825 1.11407 0
M  V30 3062 H 275.121 -2.76956 2.71877 0
M  V30 3063 H 273.222 -3.70046 0.435478 0
M  V30 3064 H 273.335 -4.23368 2.24268 0
M  V30 3065 H 271.699 -2.29439 1.10589 0
M  V30 3066 H 272.482 -2.0437 2.7584 0
M  V30 3067 N 274.927 -0.932562 -1.27047 0
M  V30 3068 C 276.155 -0.592031 -1.98249 0
M  V30 3069 C 276.57 0.831062 -1.69525 0
M  V30 3070 O 275.927 1.55299 -0.958561 0
M  V30 3071 C 275.978 -0.814279 -3.5221 0
M  V30 3072 O 275.699 -2.18139 -3.7993 0
M  V30 3073 C 277.2 -0.483121 -4.4066 0
M  V30 3074 H 274.42 -0.223896 -0.632544 0
M  V30 3075 H 276.964 -1.25091 -1.61779 0
M  V30 3076 H 275.119 -0.20213 -3.86872 0
M  V30 3077 H 275.533 -2.235 -4.74498 0
M  V30 3078 H 277.007 -0.689298 -5.47679 0
M  V30 3079 H 277.484 0.581546 -4.35333 0
M  V30 3080 H 278.09 -1.07362 -4.11526 0
M  V30 3081 N 276.405 1.4127 -0.698611 0
M  V30 3082 C 277.355 2.27997 -0.0119836 0
M  V30 3083 C 278.339 1.42363 0.749765 0
M  V30 3084 O 279.531 1.65607 0.624758 0
M  V30 3085 C 276.66 3.30702 0.921458 0
M  V30 3086 C 275.746 4.23814 0.155796 0
M  V30 3087 N 276.137 4.98572 -0.852015 0
M  V30 3088 C 274.435 4.44284 0.390836 0
M  V30 3089 C 275.136 5.66744 -1.3106 0
M  V30 3090 N 274.112 5.39867 -0.635944 0
M  V30 3091 H 277.914 2.83232 -0.784649 0
M  V30 3092 H 275.428 1.53518 -0.529711 0
M  V30 3093 H 277.425 3.91661 1.42854 0
M  V30 3094 H 276.085 2.77028 1.69369 0
M  V30 3095 H 277.096 5.03024 -1.23235 0
M  V30 3096 H 273.773 4.01614 1.14071 0
M  V30 3097 H 275.163 6.36672 -2.14707 0
M  V30 3098 N 277.883 0.443576 1.51229 0
M  V30 3099 C 278.846 -0.353132 2.26463 0
M  V30 3100 C 279.846 -0.944338 1.3015 0
M  V30 3101 O 281.036 -0.817813 1.5381 0
M  V30 3102 C 278.168 -1.50023 3.06114 0
M  V30 3103 H 279.361 0.3063 2.98332 0
M  V30 3104 H 276.914 0.196902 1.55055 0
M  V30 3105 H 277.649 -2.19553 2.38677 0
M  V30 3106 H 277.434 -1.08241 3.76864 0
M  V30 3107 H 278.924 -2.06296 3.63087 0
M  V30 3108 N 279.361 -1.56624 0.175154 0
M  V30 3109 C 280.601 -1.98894 -0.471221 0
M  V30 3110 C 280.965 -1.05889 -1.60161 0
M  V30 3111 O 282.166 -1.37315 -2.3108 0
M  V30 3112 C 280.437 -3.44865 -0.938241 0
M  V30 3113 S 281.996 -4.09164 -1.58526 0
M  V30 3114 H 278.814 -0.694686 -0.151434 0
M  V30 3115 H 281.416 -1.93577 0.27352 0
M  V30 3116 H 280.12 -4.10265 -0.10518 0
M  V30 3117 H 279.651 -3.53956 -1.71693 0
M  V30 3118 H 281.666 -4.04528 -2.87352 0
M  V30 3119 N 280.839 0.0985539 -1.57292 0
M  V30 3120 C 282.255 0.45267 -1.53046 0
M  V30 3121 C 282.455 1.80713 -0.891342 0
M  V30 3122 O 281.511 2.4785 -0.482375 0
M  V30 3123 C 282.824 0.418341 -2.97776 0
M  V30 3124 C 284.372 0.500443 -3.08973 0
M  V30 3125 C 284.847 0.496297 -4.55303 0
M  V30 3126 N 286.338 0.557151 -4.59837 0
M  V30 3127 C 287.073 0.575726 -5.70502 0
M  V30 3128 N 286.569 0.550714 -6.90608 0
M  V30 3129 N 288.362 0.620277 -5.58667 0
M  V30 3130 H 280.513 -0.788673 -1.97215 0
M  V30 3131 H 282.776 -0.293188 -0.901524 0
M  V30 3132 H 282.482 -0.509659 -3.47988 0
M  V30 3133 H 282.356 1.2386 -3.56284 0
M  V30 3134 H 284.743 1.41886 -2.58751 0
M  V30 3135 H 284.824 -0.347894 -2.53423 0
M  V30 3136 H 284.468 -0.418162 -5.06176 0
M  V30 3137 H 284.398 1.3618 -5.08687 0
M  V30 3138 H 286.889 0.581816 -3.73394 0
M  V30 3139 H 287.202 0.568075 -7.70709 0
M  V30 3140 H 285.547 0.517816 -6.93068 0
M  V30 3141 H 288.738 0.637322 -4.63741 0
M  V30 3142 H 288.911 0.631283 -6.44918 0
M  V30 3143 N 282.317 1.53212 0.369288 0
M  V30 3144 C 283.227 1.82342 1.47609 0
M  V30 3145 C 284.243 0.711532 1.58787 0
M  V30 3146 O 285.419 1.0012 1.74751 0
M  V30 3147 C 282.484 2.00393 2.8292 0
M  V30 3148 C 281.545 3.24297 2.81301 0
M  V30 3149 C 280.778 3.41478 4.10157 0
M  V30 3150 O 281.001 2.63033 5.06132 0
M  V30 3151 O 279.935 4.34817 4.16194 0
M  V30 3152 H 283.761 2.76366 1.25918 0
M  V30 3153 H 281.346 1.38547 0.559034 0
M  V30 3154 H 283.228 2.13859 3.63101 0
M  V30 3155 H 281.903 1.09559 3.04596 0
M  V30 3156 H 280.81 3.16257 1.99831 0
M  V30 3157 H 282.143 4.15041 2.64578 0
M  V30 3158 N 283.795 -0.628877 1.44509 0
M  V30 3159 C 285.025 -1.41349 1.50678 0
M  V30 3160 C 285.433 -1.88745 0.131075 0
M  V30 3161 O 284.776 -1.61592 -0.87371 0
M  V30 3162 C 284.838 -2.66608 2.41165 0
M  V30 3163 C 284.502 -2.40993 3.88293 0
M  V30 3164 C 285.499 -2.0268 4.78766 0
M  V30 3165 C 283.184 -2.54563 4.33016 0
M  V30 3166 C 285.178 -1.78269 6.11963 0
M  V30 3167 C 282.865 -2.29766 5.6626 0
M  V30 3168 C 283.863 -1.91678 6.55552 0
M  V30 3169 O 283.551 -1.67158 7.86329 0
M  V30 3170 H 283.283 -0.439851 0.51333 0
M  V30 3171 H 285.837 -0.776084 1.90174 0
M  V30 3172 H 284.067 -3.32994 1.96601 0
M  V30 3173 H 285.756 -3.28615 2.38259 0
M  V30 3174 H 286.522 -1.91751 4.45485 0
M  V30 3175 H 282.401 -2.83179 3.63773 0
M  V30 3176 H 285.945 -1.48465 6.81619 0
M  V30 3177 H 281.842 -2.40306 5.99102 0
M  V30 3178 H 282.61 -1.81386 7.98149 0
M  V30 3179 N 285.273 -1.31445 -0.869486 0
M  V30 3180 C 286.203 -1.21727 -1.99261 0
M  V30 3181 C 287.184 -0.104359 -1.6978 0
M  V30 3182 O 288.369 -0.289038 -1.92037 0
M  V30 3183 C 285.499 -0.924317 -3.34774 0
M  V30 3184 C 284.453 -1.99685 -3.78563 0
M  V30 3185 C 283.779 -1.55658 -5.11541 0
M  V30 3186 C 285.079 -3.41003 -3.95619 0
M  V30 3187 H 286.773 -2.1569 -2.07649 0
M  V30 3188 H 284.319 -1.03839 -0.997675 0
M  V30 3189 H 286.272 -0.842934 -4.12883 0
M  V30 3190 H 284.996 0.0509793 -3.2656 0
M  V30 3191 H 283.655 -2.06813 -3.02694 0
M  V30 3192 H 283.303 -0.569132 -4.9977 0
M  V30 3193 H 283.003 -2.27409 -5.41811 0
M  V30 3194 H 284.527 -1.48928 -5.92159 0
M  V30 3195 H 285.941 -3.36547 -4.64122 0
M  V30 3196 H 284.338 -4.10975 -4.37286 0
M  V30 3197 H 285.408 -3.81754 -2.98985 0
M  V30 3198 N 286.751 1.08385 -1.14413 0
M  V30 3199 C 287.698 2.15311 -0.831265 0
M  V30 3200 C 288.668 1.64751 0.211292 0
M  V30 3201 O 289.853 1.90627 0.0811674 0
M  V30 3202 C 286.993 3.43658 -0.315143 0
M  V30 3203 C 286.106 4.08064 -1.41802 0
M  V30 3204 C 285.241 5.24207 -0.859126 0
M  V30 3205 C 284.28 5.80554 -1.93967 0
M  V30 3206 N 283.417 6.88042 -1.39793 0
M  V30 3207 H 288.257 2.41415 -1.74708 0
M  V30 3208 H 285.794 1.18474 -0.871909 0
M  V30 3209 H 287.752 4.172 0.00230884 0
M  V30 3210 H 286.382 3.17839 0.56378 0
M  V30 3211 H 285.434 3.3228 -1.85187 0
M  V30 3212 H 286.746 4.45962 -2.23427 0
M  V30 3213 H 285.9 6.04689 -0.49359 0
M  V30 3214 H 284.639 4.87699 -0.011932 0
M  V30 3215 H 283.644 4.98725 -2.31415 0
M  V30 3216 H 284.869 6.19121 -2.79046 0
M  V30 3217 H 282.815 6.53493 -0.572919 0
M  V30 3218 H 282.732 7.24767 -2.15054 0
M  V30 3219 H 284 7.72255 -1.0603 0
M  V30 3220 N 288.23 0.939286 1.26551 0
M  V30 3221 C 289.178 0.43815 2.28436 0
M  V30 3222 C 290.172 -0.483587 1.62351 0
M  V30 3223 O 291.378 -0.362009 1.76322 0
M  V30 3224 H 287.753 0.123149 0.741848 0
M  V30 3225 H 289.724 1.31002 2.68106 0
M  V30 3226 C 288.473 -0.283052 3.46546 0
M  V30 3227 H 287.796 0.417043 3.97619 0
M  V30 3228 H 289.236 -0.597948 4.19763 0
M  V30 3229 C 287.695 -1.50018 3.01656 0
M  V30 3230 O 288.225 -2.59855 3.0633 0
M  V30 3231 N 286.431 -1.35608 2.57019 0
M  V30 3232 H 285.978 -0.46244 2.53415 0
M  V30 3233 H 285.936 -2.17165 2.27347 0
M  V30 3234 N 289.708 -1.40897 0.706093 0
M  V30 3235 C 290.638 -2.33418 0.0620085 0
M  V30 3236 C 291.619 -1.52385 -0.755827 0
M  V30 3237 O 292.804 -1.80886 -0.706674 0
M  V30 3238 C 289.934 -3.36293 -0.867445 0
M  V30 3239 C 288.888 -4.27716 -0.155932 0
M  V30 3240 C 288.214 -5.2105 -1.20046 0
M  V30 3241 C 289.514 -5.12944 0.984149 0
M  V30 3242 H 291.208 -2.87527 0.83477 0
M  V30 3243 H 288.754 -1.38249 0.402875 0
M  V30 3244 H 290.707 -3.99949 -1.32735 0
M  V30 3245 H 289.431 -2.80556 -1.67199 0
M  V30 3246 H 288.09 -3.65498 0.284047 0
M  V30 3247 H 287.738 -4.61624 -1.99781 0
M  V30 3248 H 287.438 -5.83056 -0.729328 0
M  V30 3249 H 288.962 -5.87584 -1.66066 0
M  V30 3250 H 290.376 -5.70109 0.604048 0
M  V30 3251 H 288.773 -5.83945 1.38304 0
M  V30 3252 H 289.843 -4.49485 1.81911 0
M  V30 3253 N 291.186 -0.45159 -1.50991 0
M  V30 3254 C 292.597 0.00818571 -1.86698 0
M  V30 3255 C 292.948 1.40661 -1.3678 0
M  V30 3256 O 292.073 2.0391 -0.724546 0
M  V30 3257 C 292.668 0.0216303 -3.38793 0
M  V30 3258 C 291.227 0.425865 -3.73983 0
M  V30 3259 C 290.374 -0.372163 -2.74791 0
M  V30 3260 H 293.325 -0.666785 -1.44013 0
M  V30 3261 H 293.346 0.828078 -3.7138 0
M  V30 3262 H 292.858 -0.996288 -3.75094 0
M  V30 3263 H 290.959 1.44886 -3.43277 0
M  V30 3264 H 291.072 0.140761 -4.78893 0
M  V30 3265 H 289.436 0.171498 -2.54122 0
M  V30 3266 H 290.219 -1.38922 -3.13935 0
M  V30 3267 N 292.664 1.56529 -0.183458 0
M  V30 3268 C 293.594 2.21549 0.737456 0
M  V30 3269 C 294.575 1.17489 1.23005 0
M  V30 3270 O 295.76 1.45959 1.281 0
M  V30 3271 C 292.89 2.86575 1.96194 0
M  V30 3272 C 291.844 3.96778 1.60473 0
M  V30 3273 C 291.17 4.48911 2.90487 0
M  V30 3274 C 292.47 5.15767 0.823497 0
M  V30 3275 H 294.164 2.98761 0.195453 0
M  V30 3276 H 291.71 1.43702 0.0925686 0
M  V30 3277 H 293.663 3.30739 2.61131 0
M  V30 3278 H 292.387 2.06749 2.52828 0
M  V30 3279 H 291.046 3.53286 0.978997 0
M  V30 3280 H 290.694 3.65862 3.45186 0
M  V30 3281 H 290.394 5.23265 2.67335 0
M  V30 3282 H 291.918 4.95771 3.56432 0
M  V30 3283 H 293.332 5.56549 1.37571 0
M  V30 3284 H 291.729 5.96114 0.690551 0
M  V30 3285 H 292.799 4.84574 -0.177782 0
M  V30 3286 N 294.142 -0.090211 1.57342 0
M  V30 3287 C 295.072 -1.10976 2.05443 0
M  V30 3288 C 296.053 -1.41482 0.944284 0
M  V30 3289 O 297.238 -1.51428 1.21586 0
M  V30 3290 C 294.368 -2.42831 2.48295 0
M  V30 3291 C 293.322 -2.26721 3.63018 0
M  V30 3292 C 292.648 -3.63796 3.91863 0
M  V30 3293 C 293.948 -1.7037 4.93732 0
M  V30 3294 H 295.642 -0.709564 2.9087 0
M  V30 3295 H 293.188 -0.339874 1.39932 0
M  V30 3296 H 295.141 -3.14431 2.80555 0
M  V30 3297 H 293.865 -2.84795 1.59873 0
M  V30 3298 H 292.524 -1.57565 3.31012 0
M  V30 3299 H 292.172 -4.03297 3.00601 0
M  V30 3300 H 291.872 -3.53861 4.69101 0
M  V30 3301 H 293.396 -4.36855 4.26603 0
M  V30 3302 H 294.81 -2.31816 5.24342 0
M  V30 3303 H 293.207 -1.71181 5.75167 0
M  V30 3304 H 294.277 -0.663542 4.80339 0
M  V30 3305 N 295.62 -1.53406 -0.361157 0
M  V30 3306 C 296.845 -1.74024 -1.12829 0
M  V30 3307 C 297.27 -0.470069 -1.82132 0
M  V30 3308 O 296.628 0.57619 -1.719 0
M  V30 3309 C 296.676 -2.90903 -2.13091 0
M  V30 3310 O 295.78 -2.59821 -3.20261 0
M  V30 3311 H 295.121 -0.577804 -0.327168 0
M  V30 3312 H 297.651 -2.00307 -0.41693 0
M  V30 3313 H 297.661 -3.17194 -2.56616 0
M  V30 3314 H 296.336 -3.83034 -1.62042 0
M  V30 3315 H 294.913 -2.44362 -2.81677 0
M  V30 3316 N 297.098 0.621204 -1.44841 0
M  V30 3317 C 298.045 1.73267 -1.5247 0
M  V30 3318 C 299.015 1.6189 -0.371611 0
M  V30 3319 O 300.2 1.81668 -0.58321 0
M  V30 3320 C 297.34 3.11545 -1.48438 0
M  V30 3321 C 296.453 3.33827 -2.74196 0
M  V30 3322 C 295.588 4.62133 -2.61929 0
M  V30 3323 C 294.627 4.77627 -3.82804 0
M  V30 3324 N 293.764 5.97219 -3.69153 0
M  V30 3325 H 298.604 1.66082 -2.47428 0
M  V30 3326 H 296.141 0.810026 -1.22788 0
M  V30 3327 H 298.099 3.91528 -1.4409 0
M  V30 3328 H 296.729 3.1772 -0.570402 0
M  V30 3329 H 295.781 2.47715 -2.88689 0
M  V30 3330 H 297.093 3.41153 -3.6389 0
M  V30 3331 H 296.247 5.50291 -2.5547 0
M  V30 3332 H 294.986 4.57182 -1.69811 0
M  V30 3333 H 293.991 3.87896 -3.89637 0
M  V30 3334 H 295.216 4.84385 -4.75971 0
M  V30 3335 H 293.162 5.93339 -2.79794 0
M  V30 3336 H 293.079 6.05644 -4.52472 0
M  V30 3337 H 294.347 6.87912 -3.66603 0
M  V30 3338 N 298.576 1.31904 0.862503 0
M  V30 3339 C 299.806 1.24817 1.64634 0
M  V30 3340 C 300.214 -0.187579 1.88268 0
M  V30 3341 O 299.557 -1.13253 1.44635 0
M  V30 3342 C 299.619 1.92996 3.03303 0
M  V30 3343 C 299.283 3.42336 3.02746 0
M  V30 3344 C 300.28 4.37956 2.80162 0
M  V30 3345 C 297.965 3.84147 3.2363 0
M  V30 3346 C 299.959 5.73361 2.78453 0
M  V30 3347 C 297.646 5.19663 3.21549 0
M  V30 3348 C 298.644 6.14081 2.98988 0
M  V30 3349 O 298.332 7.47118 2.96766 0
M  V30 3350 H 298.064 0.432222 0.519769 0
M  V30 3351 H 300.618 1.7445 1.08427 0
M  V30 3352 H 298.848 1.37922 3.61268 0
M  V30 3353 H 300.537 1.79723 3.63943 0
M  V30 3354 H 301.303 4.06981 2.63802 0
M  V30 3355 H 297.182 3.11083 3.40218 0
M  V30 3356 H 300.726 6.4703 2.60763 0
M  V30 3357 H 296.623 5.5027 3.37451 0
M  V30 3358 H 297.391 7.56382 3.12775 0
M  V30 3359 N 300.054 -1.07777 1.14986 0
M  V30 3360 C 301.294 -1.81888 0.932527 0
M  V30 3361 C 301.658 -1.84509 -0.531064 0
M  V30 3362 O 302.859 -2.54448 -0.866577 0
M  V30 3363 C 301.13 -3.23244 1.52473 0
M  V30 3364 S 302.689 -4.14154 1.44989 0
M  V30 3365 H 299.507 -0.626752 0.335712 0
M  V30 3366 H 302.109 -1.29503 1.46455 0
M  V30 3367 H 300.813 -3.18922 2.58296 0
M  V30 3368 H 300.344 -3.80704 0.991381 0
M  V30 3369 H 302.359 -4.94247 0.439799 0
M  V30 3370 N 301.532 -0.945985 -1.26051 0
M  V30 3371 C 302.78 -0.594941 -1.93145 0
M  V30 3372 C 303.101 0.86953 -1.7454 0
M  V30 3373 O 302.371 1.61838 -1.10387 0
M  V30 3374 H 300.951 -0.217044 -0.714773 0
M  V30 3375 H 303.613 -1.20235 -1.53393 0
M  V30 3376 H 302.709 -0.816835 -3.01221 0
M  V30 3377 N 303.011 1.40521 -0.713556 0
M  V30 3378 C 304.241 2.0494 -0.261395 0
M  V30 3379 C 304.649 1.53861 1.10107 0
M  V30 3380 O 303.992 0.689321 1.70276 0
M  V30 3381 C 304.054 3.59138 -0.161227 0
M  V30 3382 C 303.718 4.33096 -1.45865 0
M  V30 3383 C 304.715 4.61182 -2.40016 0
M  V30 3384 C 302.4 4.72043 -1.71701 0
M  V30 3385 C 304.394 5.27196 -3.58251 0
M  V30 3386 C 302.081 5.37789 -2.90218 0
M  V30 3387 C 303.079 5.65295 -3.83315 0
M  V30 3388 O 302.767 6.29683 -4.99754 0
M  V30 3389 H 302.499 0.666041 -0.115608 0
M  V30 3390 H 305.053 1.80954 -0.971849 0
M  V30 3391 H 303.283 3.81936 0.605153 0
M  V30 3392 H 304.972 4.05091 0.256105 0
M  V30 3393 H 305.738 4.31559 -2.21318 0
M  V30 3394 H 301.617 4.50003 -1.00092 0
M  V30 3395 H 305.161 5.48582 -4.30934 0
M  V30 3396 H 301.058 5.66831 -3.08825 0
M  V30 3397 H 301.826 6.4818 -4.99805 0
M  V30 3398 N 304.489 0.459591 1.5075 0
M  V30 3399 C 305.905 0.113092 1.59199 0
M  V30 3400 C 306.105 -1.37951 1.46874 0
M  V30 3401 O 305.161 -2.15168 1.32132 0
M  V30 3402 C 306.474 0.653043 2.93523 0
M  V30 3403 C 308.022 0.615449 3.0689 0
M  V30 3404 C 308.497 1.13275 4.43771 0
M  V30 3405 N 309.988 1.09167 4.50152 0
M  V30 3406 C 310.723 1.46256 5.54434 0
M  V30 3407 N 310.219 1.90739 6.66026 0
M  V30 3408 N 312.012 1.37932 5.44914 0
M  V30 3409 H 304.163 1.43049 1.57005 0
M  V30 3410 H 306.426 0.590861 0.741341 0
M  V30 3411 H 306.132 1.69822 3.07983 0
M  V30 3412 H 306.006 0.0902132 3.77092 0
M  V30 3413 H 308.393 -0.420793 2.92084 0
M  V30 3414 H 308.474 1.21495 2.25106 0
M  V30 3415 H 308.118 2.16757 4.59324 0
M  V30 3416 H 308.048 0.509576 5.24129 0
M  V30 3417 H 310.539 0.76528 3.7007 0
M  V30 3418 H 310.852 2.17218 7.41644 0
M  V30 3419 H 309.197 1.94683 6.67176 0
M  V30 3420 H 312.388 1.0303 4.56621 0
M  V30 3421 H 312.561 1.67164 6.26067 0
M  V30 3422 N 305.967 -1.56429 0.191757 0
M  V30 3423 C 306.877 -2.22541 -0.742481 0
M  V30 3424 C 307.893 -1.22342 -1.23727 0
M  V30 3425 O 309.069 -1.55069 -1.28513 0
M  V30 3426 C 306.134 -2.8692 -1.94623 0
M  V30 3427 C 305.195 -4.02378 -1.49633 0
M  V30 3428 C 304.428 -4.63678 -2.6427 0
M  V30 3429 O 304.651 -4.23895 -3.81666 0
M  V30 3430 O 303.585 -5.53202 -2.37174 0
M  V30 3431 H 307.411 -3.02977 -0.209462 0
M  V30 3432 H 304.996 -1.49353 -0.0373832 0
M  V30 3433 H 306.878 -3.27663 -2.64982 0
M  V30 3434 H 305.553 -2.09466 -2.46791 0
M  V30 3435 H 304.46 -3.66265 -0.761636 0
M  V30 3436 H 305.793 -4.81487 -1.02134 0
M  V30 3437 N 307.445 0.0818655 -1.57387 0
M  V30 3438 C 308.722 0.815343 -1.77796 0
M  V30 3439 C 309.102 1.96289 -0.77679 0
M  V30 3440 O 308.45 2.27691 0.192106 0
M  V30 3441 C 308.66 1.29765 -3.23978 0
M  V30 3442 C 310.008 1.7351 -3.8753 0
M  V30 3443 O 311.032 1.39356 -3.27808 0
M  V30 3444 O 309.891 2.36708 -4.92576 0
M  V30 3445 H 306.985 0.389914 -0.729312 0
M  V30 3446 H 309.531 0.0627213 -1.69584 0
M  V30 3447 H 308.303 0.47608 -3.88393 0
M  V30 3448 H 307.926 2.11189 -3.36875 0
M  V30 3449 N 308.923 1.53595 0.353017 0
M  V30 3450 C 309.871 1.81605 1.45335 0
M  V30 3451 C 310.865 0.685923 1.54892 0
M  V30 3452 O 312.071 0.869095 1.57628 0
M  V30 3453 H 308.446 0.575204 0.484401 0
M  V30 3454 H 310.417 2.73679 1.18921 0
M  V30 3455 C 309.166 2.03406 2.81995 0
M  V30 3456 H 308.489 2.89814 2.75405 0
M  V30 3457 H 309.929 2.26975 3.58132 0
M  V30 3458 C 308.388 0.816794 3.26849 0
M  V30 3459 O 308.918 0.0115856 4.01698 0
M  V30 3460 N 307.124 0.636682 2.8354 0
M  V30 3461 H 306.671 1.2931 2.22793 0
M  V30 3462 H 306.629 -0.176336 3.13905 0
M  V30 3463 N 310.401 -0.613514 1.45168 0
M  V30 3464 C 311.65 -1.36874 1.4815 0
M  V30 3465 C 311.963 -1.952 0.124982 0
M  V30 3466 O 313.169 -2.71481 0.0324176 0
M  V30 3467 C 311.625 -2.47905 2.60904 0
M  V30 3468 C 311.233 -1.96016 4.02842 0
M  V30 3469 C 312.977 -3.24965 2.73126 0
M  V30 3470 C 310.884 -3.04494 5.06988 0
M  V30 3471 H 309.814 -0.514428 0.551253 0
M  V30 3472 H 312.465 -0.658182 1.7129 0
M  V30 3473 H 310.847 -3.21618 2.31037 0
M  V30 3474 H 312.021 -1.29051 4.4236 0
M  V30 3475 H 310.336 -1.31719 3.95018 0
M  V30 3476 H 312.933 -4.05865 3.48106 0
M  V30 3477 H 313.276 -3.75588 1.79553 0
M  V30 3478 H 313.809 -2.5835 3.0249 0
M  V30 3479 H 310.548 -2.58795 6.0225 0
M  V30 3480 H 310.068 -3.70044 4.72046 0
M  V30 3481 H 311.747 -3.68976 5.31475 0
M  V30 3482 N 311.879 -1.3236 -0.855495 0
M  V30 3483 C 313.29 -1.2056 -1.42556 0
M  V30 3484 C 313.641 0.182209 -1.95352 0
M  V30 3485 O 312.766 1.08088 -1.87472 0
M  V30 3486 C 313.361 -2.1826 -2.59129 0
M  V30 3487 C 311.92 -2.10351 -3.12137 0
M  V30 3488 C 311.067 -2.06674 -1.84882 0
M  V30 3489 H 314.018 -1.442 -0.662727 0
M  V30 3490 H 314.039 -1.78064 -3.36264 0
M  V30 3491 H 313.551 -3.19257 -2.20673 0
M  V30 3492 H 311.652 -1.12599 -3.55179 0
M  V30 3493 H 311.765 -3.00135 -3.73438 0
M  V30 3494 H 310.129 -1.51901 -2.04446 0
M  V30 3495 H 310.912 -3.09451 -1.48643 0
M  V30 3496 N 313.357 1.07166 -1.15556 0
M  V30 3497 C 314.289 2.14341 -0.811815 0
M  V30 3498 C 315.302 1.61835 0.177015 0
M  V30 3499 O 316.491 1.78439 -0.0464996 0
M  V30 3500 C 313.591 3.38387 -0.186481 0
M  V30 3501 C 312.764 4.20238 -1.21321 0
M  V30 3502 C 311.823 5.2266 -0.609302 0
M  V30 3503 O 310.849 5.54719 -1.27576 0
M  V30 3504 N 312.051 5.77306 0.608099 0
M  V30 3505 H 314.816 2.44431 -1.73417 0
M  V30 3506 H 312.377 1.23089 -1.0517 0
M  V30 3507 H 314.369 4.04044 0.230339 0
M  V30 3508 H 312.939 3.05994 0.639249 0
M  V30 3509 H 312.159 3.50369 -1.80652 0
M  V30 3510 H 313.447 4.71736 -1.90638 0
M  V30 3511 H 312.845 5.53513 1.1679 0
M  V30 3512 H 311.402 6.44583 0.96725 0
M  V30 3513 N 314.835 0.952656 1.25548 0
M  V30 3514 C 315.765 0.489287 2.28316 0
M  V30 3515 C 316.746 -0.463359 1.63667 0
M  V30 3516 O 317.931 -0.36274 1.90782 0
M  V30 3517 C 315.061 -0.235603 3.465 0
M  V30 3518 C 314.015 0.631593 4.23314 0
M  V30 3519 C 313.341 -0.223923 5.34231 0
M  V30 3520 C 314.641 1.90871 4.86174 0
M  V30 3521 H 316.335 1.34822 2.67326 0
M  V30 3522 H 313.881 0.649728 1.28509 0
M  V30 3523 H 315.834 -0.570882 4.17515 0
M  V30 3524 H 314.558 -1.12877 3.06474 0
M  V30 3525 H 313.217 0.949929 3.54079 0
M  V30 3526 H 312.865 -1.11678 4.90446 0
M  V30 3527 H 312.565 0.35299 5.86539 0
M  V30 3528 H 314.089 -0.554214 6.0808 0
M  V30 3529 H 315.503 1.63997 5.49343 0
M  V30 3530 H 313.9 2.43112 5.4865 0
M  V30 3531 H 314.97 2.61304 4.08471 0
M  V30 3532 N 316.313 -1.40141 0.720998 0
M  V30 3533 C 317.223 -2.34486 0.0731031 0
M  V30 3534 C 318.239 -1.57587 -0.737723 0
M  V30 3535 O 319.415 -1.89949 -0.669429 0
M  V30 3536 C 316.48 -3.36528 -0.833656 0
M  V30 3537 C 315.541 -4.29298 -0.0121673 0
M  V30 3538 C 314.774 -5.26466 -0.875742 0
M  V30 3539 O 314.997 -5.29745 -2.11485 0
M  V30 3540 O 313.931 -6.01092 -0.31185 0
M  V30 3541 H 317.757 -2.9152 0.851444 0
M  V30 3542 H 315.342 -1.41427 0.481527 0
M  V30 3543 H 317.224 -3.99093 -1.35289 0
M  V30 3544 H 315.899 -2.81899 -1.59105 0
M  V30 3545 H 314.806 -3.70001 0.552262 0
M  V30 3546 H 316.139 -4.87094 0.707129 0
M  V30 3547 N 317.792 -0.46758 -1.50504 0
M  V30 3548 C 319.069 0.15003 -1.95024 0
M  V30 3549 C 319.449 1.57304 -1.40779 0
M  V30 3550 O 318.797 2.20281 -0.607319 0
M  V30 3551 C 319.007 0.0969324 -3.48865 0
M  V30 3552 C 320.355 0.287565 -4.23625 0
M  V30 3553 O 321.379 0.173678 -3.55776 0
M  V30 3554 O 320.238 0.517186 -5.44047 0
M  V30 3555 H 317.332 0.113582 -0.819163 0
M  V30 3556 H 319.878 -0.52773 -1.61286 0
M  V30 3557 H 318.65 -0.896732 -3.80886 0
M  V30 3558 H 318.273 0.816303 -3.8913 0
M  V30 3559 N 319.27 1.56325 -0.20005 0
M  V30 3560 C 320.516 1.98012 0.438059 0
M  V30 3561 C 320.849 1.08702 1.60927 0
M  V30 3562 O 320.124 0.140064 1.93995 0
M  V30 3563 C 320.407 3.48841 0.893419 0
M  V30 3564 C 320.26 4.48928 -0.279947 0
M  V30 3565 C 321.579 4.03498 1.75719 0
M  V30 3566 H 318.698 0.719918 0.157757 0
M  V30 3567 H 321.34 1.87743 -0.291968 0
M  V30 3568 H 319.49 3.57723 1.51547 0
M  V30 3569 H 321.162 4.52079 -0.91772 0
M  V30 3570 H 319.405 4.23694 -0.930919 0
M  V30 3571 H 320.076 5.5194 0.0812601 0
M  V30 3572 H 322.552 3.97427 1.23253 0
M  V30 3573 H 321.428 5.09393 2.04476 0
M  V30 3574 H 321.689 3.4906 2.71311 0
M  V30 3575 N 320.748 -0.0735177 1.57428 0
M  V30 3576 C 321.973 -0.789787 1.91774 0
M  V30 3577 C 322.398 -1.70413 0.796306 0
M  V30 3578 O 321.756 -1.79555 -0.250961 0
M  V30 3579 C 321.804 -1.5609 3.25067 0
M  V30 3580 O 320.908 -2.67144 3.14178 0
M  V30 3581 H 320.249 -0.215582 0.628029 0
M  V30 3582 H 322.779 -0.0422781 2.04556 0
M  V30 3583 H 322.789 -1.94052 3.58898 0
M  V30 3584 H 321.464 -0.890015 4.06265 0
M  V30 3585 H 320.041 -2.32052 2.91901 0
M  V30 3586 N 322.226 -1.5378 -0.344866 0
M  V30 3587 C 323.174 -1.82373 -1.4437 0
M  V30 3588 C 324.168 -0.694128 -1.54526 0
M  V30 3589 O 325.374 -0.877442 -1.57165 0
M  V30 3590 H 321.749 -0.577765 -0.481344 0
M  V30 3591 H 323.72 -2.74306 -1.17468 0
M  V30 3592 C 322.469 -2.04898 -2.80913 0
M  V30 3593 H 321.792 -2.9127 -2.73865 0
M  V30 3594 H 323.232 -2.28871 -3.56923 0
M  V30 3595 C 321.691 -0.834116 -3.26411 0
M  V30 3596 O 322.221 -0.0328885 -4.01687 0
M  V30 3597 N 320.427 -0.65171 -2.83198 0
M  V30 3598 H 319.974 -1.30489 -2.22104 0
M  V30 3599 H 319.932 0.159686 -3.13994 0
M  V30 3600 N 323.704 0.605807 -1.45491 0
M  V30 3601 C 324.951 1.36476 -1.49601 0
M  V30 3602 C 325.279 1.94007 -0.138452 0
M  V30 3603 O 324.534 1.75638 0.863114 0
M  V30 3604 C 324.833 2.53012 -2.52428 0
M  V30 3605 C 324.499 2.13617 -3.97087 0
M  V30 3606 C 323.161 2.02587 -4.36477 0
M  V30 3607 C 325.513 1.82899 -4.88055 0
M  V30 3608 C 322.841 1.59064 -5.64726 0
M  V30 3609 C 325.193 1.40861 -6.16718 0
M  V30 3610 C 323.857 1.28391 -6.55036 0
M  V30 3611 H 323.127 0.499402 -0.547429 0
M  V30 3612 H 325.774 0.684546 -1.78847 0
M  V30 3613 H 324.079 3.26379 -2.16758 0
M  V30 3614 H 325.776 3.1124 -2.52845 0
M  V30 3615 H 322.366 2.23129 -3.65939 0
M  V30 3616 H 326.55 1.90317 -4.58359 0
M  V30 3617 H 321.806 1.48034 -5.93208 0
M  V30 3618 H 325.98 1.16138 -6.86648 0
M  V30 3619 H 323.607 0.944403 -7.54311 0
M  V30 3620 N 325.182 1.32811 0.848464 0
M  V30 3621 C 326.112 1.24882 1.97299 0
M  V30 3622 C 327.093 0.131357 1.69592 0
M  V30 3623 O 328.278 0.319553 1.91553 0
M  V30 3624 C 325.408 0.97746 3.33261 0
M  V30 3625 C 324.362 2.05682 3.75338 0
M  V30 3626 C 323.688 1.63777 5.09 0
M  V30 3627 C 324.988 3.47254 3.90144 0
M  V30 3628 H 326.682 2.18966 2.04191 0
M  V30 3629 H 324.228 1.05413 0.981029 0
M  V30 3630 H 326.181 0.908513 4.1149 0
M  V30 3631 H 324.905 0.000980011 3.266 0
M  V30 3632 H 323.564 2.11603 2.99366 0
M  V30 3633 H 323.212 0.648569 4.98801 0
M  V30 3634 H 322.912 2.36 5.38124 0
M  V30 3635 H 324.436 1.5833 5.89715 0
M  V30 3636 H 325.85 3.43888 4.58709 0
M  V30 3637 H 324.247 4.1788 4.30693 0
M  V30 3638 H 325.317 3.86462 2.92874 0
M  V30 3639 N 326.66 -1.06551 1.16123 0
M  V30 3640 C 327.607 -2.13961 0.865414 0
M  V30 3641 C 328.577 -1.65066 -0.185055 0
M  V30 3642 O 329.762 -1.90732 -0.05083 0
M  V30 3643 C 326.902 -3.43113 0.369776 0
M  V30 3644 C 326.015 -4.05756 1.48276 0
M  V30 3645 C 325.15 -5.22773 0.942414 0
M  V30 3646 C 324.189 -5.77395 2.03179 0
M  V30 3647 N 323.326 -6.85731 1.50721 0
M  V30 3648 H 328.166 -2.38605 1.78527 0
M  V30 3649 H 325.703 -1.17072 0.890646 0
M  V30 3650 H 327.661 -4.17151 0.0640643 0
M  V30 3651 H 326.291 -3.18695 -0.513143 0
M  V30 3652 H 325.343 -3.29292 1.9045 0
M  V30 3653 H 326.655 -4.42351 2.30493 0
M  V30 3654 H 325.809 -6.03827 0.589729 0
M  V30 3655 H 324.548 -4.87618 0.0895191 0
M  V30 3656 H 323.553 -4.94981 2.3932 0
M  V30 3657 H 324.778 -6.14603 2.8886 0
M  V30 3658 H 322.724 -6.52499 0.676811 0
M  V30 3659 H 322.641 -7.21254 2.26557 0
M  V30 3660 H 323.909 -7.7047 1.18303 0
M  V30 3661 N 328.138 -0.959301 -1.25041 0
M  V30 3662 C 329.048 -0.489994 -2.29426 0
M  V30 3663 C 330.064 0.444944 -1.68215 0
M  V30 3664 O 331.24 0.320046 -1.98841 0
M  V30 3665 C 328.305 0.220309 -3.45999 0
M  V30 3666 C 327.366 -0.753418 -4.22637 0
M  V30 3667 C 326.599 -0.076918 -5.33645 0
M  V30 3668 O 326.822 1.13649 -5.58963 0
M  V30 3669 O 325.756 -0.764824 -5.97021 0
M  V30 3670 H 329.582 -1.35755 -2.71669 0
M  V30 3671 H 327.167 -0.725961 -1.30576 0
M  V30 3672 H 329.049 0.619677 -4.16819 0
M  V30 3673 H 327.724 1.06296 -3.0575 0
M  V30 3674 H 326.631 -1.20308 -3.54227 0
M  V30 3675 H 327.964 -1.56423 -4.66683 0
M  V30 3676 N 329.616 1.39756 -0.72842 0
M  V30 3677 C 331.032 1.5442 -0.403308 0
M  V30 3678 C 331.232 1.69694 1.08656 0
M  V30 3679 O 330.288 1.69373 1.87267 0
M  V30 3680 C 331.601 2.76555 -1.18058 0
M  V30 3681 C 333.149 2.90384 -1.16815 0
M  V30 3682 C 333.624 4.15449 -1.92785 0
M  V30 3683 N 335.115 4.22475 -1.89918 0
M  V30 3684 C 335.85 5.1818 -2.45514 0
M  V30 3685 N 335.346 6.19714 -3.09719 0
M  V30 3686 N 337.139 5.1035 -2.35584 0
M  V30 3687 H 329.29 1.28089 -1.69431 0
M  V30 3688 H 331.553 0.620327 -0.716867 0
M  V30 3689 H 331.259 2.7159 -2.23455 0
M  V30 3690 H 331.133 3.69033 -0.780662 0
M  V30 3691 H 333.52 2.94846 -0.12234 0
M  V30 3692 H 333.601 1.98988 -1.6074 0
M  V30 3693 H 333.245 4.11749 -2.97364 0
M  V30 3694 H 333.175 5.05877 -1.46272 0
M  V30 3695 H 335.666 3.49743 -1.43138 0
M  V30 3696 H 335.979 6.8919 -3.49625 0
M  V30 3697 H 334.324 6.20121 -3.13807 0
M  V30 3698 H 337.515 4.2996 -1.85072 0
M  V30 3699 H 337.688 5.84761 -2.79211 0
M  V30 3700 N 331.094 0.475555 1.50254 0
M  V30 3701 C 332.322 -0.0754493 2.06762 0
M  V30 3702 C 332.737 -1.33111 1.33891 0
M  V30 3703 O 332.094 -1.77846 0.40952 0
M  V30 3704 C 332.145 -0.359008 3.59713 0
M  V30 3705 O 331.866 0.846851 4.29837 0
M  V30 3706 C 333.367 -0.956484 4.32858 0
M  V30 3707 H 330.587 0.00907525 0.670939 0
M  V30 3708 H 333.131 0.665618 1.93364 0
M  V30 3709 H 331.286 -1.05001 3.72899 0
M  V30 3710 H 331.7 0.594162 5.21124 0
M  V30 3711 H 333.174 -1.10463 5.40834 0
M  V30 3712 H 333.651 -1.94775 3.93649 0
M  V30 3713 H 334.257 -0.303723 4.24214 0
M  V30 3714 N 332.573 -1.56217 0.208337 0
M  V30 3715 C 333.821 -1.97558 -0.426076 0
M  V30 3716 C 334.142 -1.09683 -1.61229 0
M  V30 3717 O 333.412 -0.170956 -1.95153 0
M  V30 3718 H 331.992 -0.729575 -0.160405 0
M  V30 3719 H 334.654 -1.92606 0.298155 0
M  V30 3720 H 333.75 -3.02672 -0.761312 0
M  V30 3721 N 334.051 0.0651679 -1.57465 0
M  V30 3722 C 335.298 0.763063 -1.87573 0
M  V30 3723 C 335.626 1.77242 -0.800961 0
M  V30 3724 O 334.881 1.94651 0.202316 0
M  V30 3725 C 335.18 1.50081 -3.24362 0
M  V30 3726 C 334.846 0.630816 -4.46466 0
M  V30 3727 C 333.508 0.391082 -4.79608 0
M  V30 3728 C 335.86 0.0279465 -5.21193 0
M  V30 3729 C 333.188 -0.460894 -5.84887 0
M  V30 3730 C 335.54 -0.811522 -6.27373 0
M  V30 3731 C 334.204 -1.06106 -6.59013 0
M  V30 3732 H 333.474 0.279224 -0.686378 0
M  V30 3733 H 336.121 0.0236726 -1.91485 0
M  V30 3734 H 334.426 2.31258 -3.16271 0
M  V30 3735 H 336.123 2.04571 -3.44894 0
M  V30 3736 H 332.713 0.8278 -4.2053 0
M  V30 3737 H 336.897 0.200262 -4.95896 0
M  V30 3738 H 332.153 -0.662907 -6.07796 0
M  V30 3739 H 336.327 -1.28537 -6.84435 0
M  V30 3740 H 333.954 -1.723 -7.40417 0
M  V30 3741 N 335.529 1.53961 0.336706 0
M  V30 3742 C 336.754 1.75797 1.10046 0
M  V30 3743 C 337.179 0.498985 1.81361 0
M  V30 3744 O 336.537 -0.548769 1.72795 0
M  V30 3745 C 336.585 2.94257 2.08436 0
M  V30 3746 O 335.689 2.64883 3.16087 0
M  V30 3747 H 335.03 0.582936 0.317934 0
M  V30 3748 H 337.56 2.00945 0.38501 0
M  V30 3749 H 337.57 3.21237 2.51537 0
M  V30 3750 H 336.245 3.85564 1.55927 0
M  V30 3751 H 334.822 2.48812 2.77753 0
M  V30 3752 N 337.007 -0.598083 1.45811 0
M  V30 3753 C 338.256 -1.35295 1.49594 0
M  V30 3754 C 338.569 -1.95057 0.145679 0
M  V30 3755 O 339.775 -2.71431 0.0612099 0
M  V30 3756 C 338.231 -2.45124 2.63519 0
M  V30 3757 C 337.839 -1.91732 4.04899 0
M  V30 3758 C 339.583 -3.2205 2.76558 0
M  V30 3759 C 337.49 -2.991 5.1019 0
M  V30 3760 H 336.42 -0.508552 0.556679 0
M  V30 3761 H 339.071 -0.639977 1.71978 0
M  V30 3762 H 337.453 -3.19149 2.34435 0
M  V30 3763 H 338.627 -1.24352 4.43704 0
M  V30 3764 H 336.942 -1.27522 3.96393 0
M  V30 3765 H 339.539 -4.0215 3.52391 0
M  V30 3766 H 339.882 -3.73663 1.83526 0
M  V30 3767 H 340.415 -2.55127 3.05213 0
M  V30 3768 H 337.154 -2.52393 6.04961 0
M  V30 3769 H 336.674 -3.65017 4.75944 0
M  V30 3770 H 338.353 -3.63318 5.35359 0
M  V30 3771 N 338.485 -1.33259 -0.841409 0
M  V30 3772 C 339.901 -1.12538 -1.13169 0
M  V30 3773 C 340.101 0.0854037 -2.01319 0
M  V30 3774 O 339.157 0.766417 -2.40587 0
M  V30 3775 C 340.47 -2.41156 -1.79623 0
M  V30 3776 C 342.018 -2.47038 -1.922 0
M  V30 3777 C 342.493 -3.7561 -2.6207 0
M  V30 3778 N 343.984 -3.76667 -2.69585 0
M  V30 3779 C 344.719 -4.72861 -3.2433 0
M  V30 3780 N 344.215 -5.79428 -3.79783 0
M  V30 3781 N 346.008 -4.6034 -3.22558 0
M  V30 3782 H 338.159 -2.10868 -0.254676 0
M  V30 3783 H 340.422 -0.931615 -0.175493 0
M  V30 3784 H 340.128 -3.29747 -1.22311 0
M  V30 3785 H 340.002 -2.53114 -2.79666 0
M  V30 3786 H 342.389 -1.58898 -2.48667 0
M  V30 3787 H 342.47 -2.39022 -0.911148 0
M  V30 3788 H 342.114 -4.64131 -2.06263 0
M  V30 3789 H 342.044 -3.80902 -3.63622 0
M  V30 3790 H 344.535 -2.99648 -2.30259 0
M  V30 3791 H 344.848 -6.48867 -4.19752 0
M  V30 3792 H 343.193 -5.83166 -3.78078 0
M  V30 3793 H 346.384 -3.76244 -2.78492 0
M  V30 3794 H 346.557 -5.35478 -3.64921 0
M  V30 3795 N 339.963 1.05934 -1.16686 0
M  V30 3796 C 341.374 1.60263 -0.957745 0
M  V30 3797 C 341.725 1.89789 0.49745 0
M  V30 3798 O 340.85 1.67401 1.37135 0
M  V30 3799 C 341.445 2.91172 -1.73218 0
M  V30 3800 C 340.004 3.42188 -1.56794 0
M  V30 3801 C 339.151 2.16028 -1.73859 0
M  V30 3802 H 342.102 0.888392 -1.31504 0
M  V30 3803 H 342.123 3.60744 -1.21014 0
M  V30 3804 H 341.635 2.6965 -2.79124 0
M  V30 3805 H 339.736 3.68762 -0.533437 0
M  V30 3806 H 339.849 4.17273 -2.35414 0
M  V30 3807 H 338.213 2.26426 -1.16633 0
M  V30 3808 H 338.996 1.96985 -2.81161 0
M  V30 3809 N 341.441 0.965919 1.2453 0
M  V30 3810 C 342.687 0.62776 1.92839 0
M  V30 3811 C 343.02 -0.834694 1.75347 0
M  V30 3812 O 342.295 -1.60031 1.10546 0
M  V30 3813 C 342.578 1.00109 3.45905 0
M  V30 3814 C 342.431 2.52011 3.72573 0
M  V30 3815 C 343.75 0.53435 4.36844 0
M  V30 3816 H 340.869 0.229537 0.700344 0
M  V30 3817 H 343.511 1.2046 1.46933 0
M  V30 3818 H 341.661 0.510238 3.85135 0
M  V30 3819 H 343.333 3.08559 3.42912 0
M  V30 3820 H 341.576 2.95287 3.17786 0
M  V30 3821 H 342.247 2.73183 4.79661 0
M  V30 3822 H 344.723 0.955565 4.04979 0
M  V30 3823 H 343.599 0.824152 5.42678 0
M  V30 3824 H 343.86 -0.565589 4.38467 0
M  V30 3825 N 342.919 -1.39368 0.735821 0
M  V30 3826 C 343.882 -2.2896 0.104874 0
M  V30 3827 C 344.882 -1.46347 -0.666274 0
M  V30 3828 O 346.072 -1.67014 -0.49517 0
M  V30 3829 C 343.204 -3.29857 -0.860656 0
M  V30 3830 H 344.397 -2.86259 0.894205 0
M  V30 3831 H 341.95 -1.48029 0.501704 0
M  V30 3832 H 342.685 -2.77615 -1.67631 0
M  V30 3833 H 342.47 -3.9087 -0.310327 0
M  V30 3834 H 343.96 -3.96893 -1.29867 0
M  V30 3835 N 344.397 -0.483516 -1.5 0
M  V30 3836 C 345.645 0.067027 -2.01989 0
M  V30 3837 C 345.966 1.3909 -1.36671 0
M  V30 3838 O 345.236 1.88978 -0.516152 0
M  V30 3839 H 343.816 0.0277606 -0.746484 0
M  V30 3840 H 346.478 -0.636773 -1.84204 0
M  V30 3841 H 345.574 0.209484 -3.11396 0
M  V30 3842 N 345.875 1.56104 -0.216619 0
M  V30 3843 C 347.105 2.02269 0.420802 0
M  V30 3844 C 347.513 1.09575 1.5424 0
M  V30 3845 O 346.856 0.0967308 1.83445 0
M  V30 3846 C 346.918 3.44784 1.01806 0
M  V30 3847 C 346.582 4.56988 0.0325154 0
M  V30 3848 C 347.579 5.14225 -0.766055 0
M  V30 3849 C 345.264 5.02228 -0.0848092 0
M  V30 3850 C 347.258 6.15169 -1.6687 0
M  V30 3851 C 344.945 6.03011 -0.990994 0
M  V30 3852 C 345.943 6.59357 -1.78149 0
M  V30 3853 O 345.631 7.58179 -2.67245 0
M  V30 3854 H 345.363 0.667353 0.107776 0
M  V30 3855 H 347.917 2.02747 -0.329034 0
M  V30 3856 H 346.147 3.41359 1.81689 0
M  V30 3857 H 347.836 3.74626 1.56237 0
M  V30 3858 H 348.602 4.80126 -0.685836 0
M  V30 3859 H 344.481 4.58054 0.520349 0
M  V30 3860 H 348.025 6.59076 -2.28615 0
M  V30 3861 H 343.922 6.36532 -1.07225 0
M  V30 3862 H 344.69 7.75682 -2.61265 0
M  V30 3863 N 347.353 -0.0568162 1.57498 0
M  V30 3864 C 348.283 -1.06593 2.0775 0
M  V30 3865 C 349.264 -1.39448 0.974082 0
M  V30 3866 O 350.449 -1.48815 1.24771 0
M  V30 3867 C 347.579 -2.37509 2.5339 0
M  V30 3868 C 346.533 -2.1897 3.67745 0
M  V30 3869 C 345.859 -3.55402 3.99492 0
M  V30 3870 C 347.159 -1.59859 4.97235 0
M  V30 3871 H 348.853 -0.647706 2.9231 0
M  V30 3872 H 346.399 -0.310116 1.40621 0
M  V30 3873 H 348.352 -3.08409 2.87162 0
M  V30 3874 H 347.076 -2.8134 1.65878 0
M  V30 3875 H 345.735 -1.50508 3.3428 0
M  V30 3876 H 345.383 -3.9683 3.09088 0
M  V30 3877 H 345.083 -3.43831 4.76502 0
M  V30 3878 H 346.607 -4.27708 4.35773 0
M  V30 3879 H 348.021 -2.20642 5.29141 0
M  V30 3880 H 346.418 -1.58942 5.78669 0
M  V30 3881 H 347.488 -0.561506 4.81638 0
M  V30 3882 N 348.832 -1.54138 -0.328536 0
M  V30 3883 C 350.057 -1.76378 -1.09112 0
M  V30 3884 C 350.482 -0.508596 -1.81094 0
M  V30 3885 O 349.84 0.539598 -1.73084 0
M  V30 3886 C 349.888 -2.95358 -2.06872 0
M  V30 3887 O 348.992 -2.66556 -3.14677 0
M  V30 3888 H 348.333 -0.584614 -0.314838 0
M  V30 3889 H 350.863 -2.01146 -0.374348 0
M  V30 3890 H 350.873 -3.22566 -2.4983 0
M  V30 3891 H 349.548 -3.86385 -1.5388 0
M  V30 3892 H 348.125 -2.50282 -2.7643 0
M  V30 3893 N 350.31 0.590341 -1.46126 0
M  V30 3894 C 351.721 1.17243 -1.45296 0
M  V30 3895 C 352.072 1.95281 -0.189723 0
M  V30 3896 O 351.197 2.04502 0.707674 0
M  V30 3897 C 351.792 2.13284 -2.6324 0
M  V30 3898 C 350.351 2.66832 -2.65476 0
M  V30 3899 C 349.498 1.42557 -2.3785 0
M  V30 3900 H 352.449 0.378692 -1.54116 0
M  V30 3901 H 352.47 2.96619 -2.38323 0
M  V30 3902 H 351.982 1.56459 -3.55165 0
M  V30 3903 H 350.083 3.27548 -1.77603 0
M  V30 3904 H 350.196 3.10088 -3.65215 0
M  V30 3905 H 348.56 1.72107 -1.87753 0
M  V30 3906 H 349.343 0.875741 -3.31942 0
M  V30 3907 N 351.788 1.33704 0.83433 0
M  V30 3908 C 353.204 1.13137 1.12571 0
M  V30 3909 C 353.404 -0.0747261 2.01361 0
M  V30 3910 O 352.46 -0.753647 2.4099 0
M  V30 3911 C 353.773 2.42105 1.78342 0
M  V30 3912 C 355.321 2.48054 1.90888 0
M  V30 3913 C 355.796 3.76995 2.60075 0
M  V30 3914 N 357.287 3.78092 2.67584 0
M  V30 3915 C 358.022 4.74574 3.21818 0
M  V30 3916 N 357.518 5.81434 3.76705 0
M  V30 3917 N 359.311 4.62044 3.20112 0
M  V30 3918 H 351.462 2.11 0.243489 0
M  V30 3919 H 353.725 0.932532 0.17055 0
M  V30 3920 H 353.431 3.30391 1.20561 0
M  V30 3921 H 353.305 2.54594 2.7832 0
M  V30 3922 H 355.692 1.60215 2.47821 0
M  V30 3923 H 355.773 2.39502 0.898459 0
M  V30 3924 H 355.417 4.65219 2.03799 0
M  V30 3925 H 355.347 3.82825 3.61597 0
M  V30 3926 H 357.838 3.00865 2.28667 0
M  V30 3927 H 358.151 6.51084 4.16305 0
M  V30 3928 H 356.496 5.85163 3.7498 0
M  V30 3929 H 359.687 3.77716 2.76493 0
M  V30 3930 H 359.86 5.37406 3.62076 0
M  V30 3931 N 353.266 -1.05314 1.17247 0
M  V30 3932 C 354.543 -1.75184 0.87005 0
M  V30 3933 C 354.923 -2.01481 -0.629965 0
M  V30 3934 O 354.271 -1.64988 -1.58086 0
M  V30 3935 C 354.481 -3.04594 1.70363 0
M  V30 3936 C 355.829 -3.78567 1.92281 0
M  V30 3937 O 356.853 -3.14461 1.67311 0
M  V30 3938 O 355.712 -4.93755 2.3424 0
M  V30 3939 H 352.806 -0.761729 0.322021 0
M  V30 3940 H 355.352 -1.11493 1.27935 0
M  V30 3941 H 354.124 -2.81201 2.72106 0
M  V30 3942 H 353.747 -3.76022 1.29202 0
M  V30 3943 N 354.744 -0.972509 -1.24016 0
M  V30 3944 C 355.991 -0.637034 -1.92219 0
M  V30 3945 C 356.319 0.828418 -1.75976 0
M  V30 3946 O 355.574 1.61206 -1.10955 0
M  V30 3947 C 355.873 -0.963694 -3.44162 0
M  V30 3948 C 355.539 -2.41807 -3.80579 0
M  V30 3949 C 354.201 -2.81556 -3.9023 0
M  V30 3950 C 356.553 -3.36172 -3.98293 0
M  V30 3951 C 353.881 -4.14702 -4.15017 0
M  V30 3952 C 356.233 -4.68952 -4.24578 0
M  V30 3953 C 354.897 -5.08472 -4.32449 0
M  V30 3954 H 354.167 -0.233107 -0.703379 0
M  V30 3955 H 356.814 -1.2249 -1.47202 0
M  V30 3956 H 355.119 -0.29365 -3.90698 0
M  V30 3957 H 356.816 -0.682449 -3.9515 0
M  V30 3958 H 353.406 -2.09988 -3.73635 0
M  V30 3959 H 357.59 -3.06644 -3.90234 0
M  V30 3960 H 352.846 -4.4494 -4.19331 0
M  V30 3961 H 357.02 -5.42037 -4.37229 0
M  V30 3962 H 354.647 -6.11665 -4.51409 0
M  V30 3963 N 356.222 1.38976 -0.743202 0
M  V30 3964 C 357.152 2.33171 -0.123873 0
M  V30 3965 C 358.133 1.54336 0.71516 0
M  V30 3966 O 359.318 1.82696 0.658467 0
M  V30 3967 C 356.448 3.38474 0.777978 0
M  V30 3968 C 355.402 4.27979 0.0424758 0
M  V30 3969 C 354.728 5.2405 1.06189 0
M  V30 3970 C 356.028 5.10155 -1.1198 0
M  V30 3971 H 357.722 2.85213 -0.910709 0
M  V30 3972 H 355.268 1.37133 -0.439388 0
M  V30 3973 H 357.221 4.03328 1.22084 0
M  V30 3974 H 355.945 2.84891 1.59702 0
M  V30 3975 H 354.604 3.64616 -0.380853 0
M  V30 3976 H 354.252 4.66758 1.87472 0
M  V30 3977 H 353.952 5.84785 0.574485 0
M  V30 3978 H 355.476 5.9178 1.50428 0
M  V30 3979 H 356.89 5.68307 -0.75499 0
M  V30 3980 H 355.287 5.80073 -1.53738 0
M  V30 3981 H 356.357 4.44504 -1.93764 0
M  V30 3982 N 357.7 0.491464 1.49741 0
M  V30 3983 C 358.925 -0.0557177 2.07325 0
M  V30 3984 C 359.35 -1.30925 1.35056 0
M  V30 3985 O 358.708 -1.76733 0.404365 0
M  V30 3986 C 358.756 -0.302074 3.59333 0
M  V30 3987 O 357.86 -1.37868 3.88672 0
M  V30 3988 H 357.201 0.0219956 0.663636 0
M  V30 3989 H 359.731 0.688352 1.92673 0
M  V30 3990 H 359.741 -0.536464 4.04458 0
M  V30 3991 H 358.416 0.61383 4.11345 0
M  V30 3992 H 356.993 -1.12999 3.55367 0
M  V30 3993 N 359.178 -1.55987 0.224894 0
M  V30 3994 C 360.426 -1.97998 -0.405099 0
M  V30 3995 C 360.747 -1.11387 -1.60056 0
M  V30 3996 O 360.017 -0.191645 -1.9496 0
M  V30 3997 H 358.597 -0.731235 -0.152658 0
M  V30 3998 H 361.259 -1.92279 0.318567 0
M  V30 3999 H 360.355 -3.03463 -0.729167 0
M  V30 4000 N 360.656 0.0484629 -1.57525 0
M  V30 4001 C 361.586 1.0549 -2.08313 0
M  V30 4002 C 362.567 1.38929 -0.981463 0
M  V30 4003 O 363.752 1.48151 -1.25558 0
M  V30 4004 C 360.882 2.36162 -2.54646 0
M  V30 4005 C 359.836 2.17016 -3.68901 0
M  V30 4006 C 359.162 3.53278 -4.01371 0
M  V30 4007 C 360.462 1.57219 -4.98076 0
M  V30 4008 H 362.156 0.632195 -2.92649 0
M  V30 4009 H 359.702 0.302654 -1.40784 0
M  V30 4010 H 361.655 3.06882 -2.88793 0
M  V30 4011 H 360.379 2.80456 -1.67368 0
M  V30 4012 H 359.038 1.48733 -3.35073 0
M  V30 4013 H 358.686 3.95185 -3.11188 0
M  V30 4014 H 358.386 3.41299 -4.78318 0
M  V30 4015 H 359.91 4.25391 -4.38035 0
M  V30 4016 H 361.324 2.17832 -5.30304 0
M  V30 4017 H 359.721 1.55871 -5.79503 0
M  V30 4018 H 360.791 0.535956 -4.81929 0
M  V30 4019 N 362.134 1.5431 0.320358 0
M  V30 4020 C 363.097 1.83195 1.3774 0
M  V30 4021 C 364.097 0.703906 1.44575 0
M  V30 4022 O 365.287 0.972214 1.44546 0
M  V30 4023 C 362.419 1.99487 2.76438 0
M  V30 4024 H 363.612 2.77642 1.1338 0
M  V30 4025 H 361.165 1.46076 0.556012 0
M  V30 4026 H 361.9 1.07262 3.06048 0
M  V30 4027 H 361.685 2.81575 2.7287 0
M  V30 4028 H 363.175 2.23271 3.52902 0
M  V30 4029 N 363.613 -0.582584 1.46437 0
M  V30 4030 C 364.86 -1.34079 1.51753 0
M  V30 4031 C 365.188 -1.93762 0.169299 0
M  V30 4032 O 364.443 -1.76989 -0.835062 0
M  V30 4033 C 364.742 -2.48964 2.56421 0
M  V30 4034 C 364.408 -2.07273 4.00436 0
M  V30 4035 C 363.07 -1.95618 4.39644 0
M  V30 4036 C 365.422 -1.75111 4.90903 0
M  V30 4037 C 362.75 -1.5006 5.67185 0
M  V30 4038 C 365.102 -1.31032 6.18881 0
M  V30 4039 C 363.766 -1.17954 6.56996 0
M  V30 4040 H 363.036 -0.49063 0.555304 0
M  V30 4041 H 365.683 -0.656007 1.79913 0
M  V30 4042 H 363.988 -3.22889 2.21923 0
M  V30 4043 H 365.685 -3.07178 2.57765 0
M  V30 4044 H 362.275 -2.17279 3.69443 0
M  V30 4045 H 366.459 -1.83001 4.61329 0
M  V30 4046 H 361.715 -1.38577 5.95488 0
M  V30 4047 H 365.889 -1.052 6.88408 0
M  V30 4048 H 363.516 -0.824279 7.55718 0
M  V30 4049 N 365.091 -1.34144 -0.827227 0
M  V30 4050 C 366.507 -1.13732 -1.11969 0
M  V30 4051 C 366.707 0.0640463 -2.01398 0
M  V30 4052 O 365.763 0.740856 -2.41387 0
M  V30 4053 C 367.076 -2.43047 -1.77055 0
M  V30 4054 C 368.624 -2.49063 -1.89569 0
M  V30 4055 C 369.099 -3.78369 -2.58072 0
M  V30 4056 N 370.59 -3.79505 -2.65575 0
M  V30 4057 C 371.325 -4.76274 -3.19297 0
M  V30 4058 N 370.821 -5.83424 -3.73616 0
M  V30 4059 N 372.614 -4.63735 -3.17658 0
M  V30 4060 H 364.765 -2.11126 -0.232296 0
M  V30 4061 H 367.028 -0.933424 -0.165602 0
M  V30 4062 H 366.734 -3.31025 -1.18807 0
M  V30 4063 H 366.608 -2.56066 -2.76966 0
M  V30 4064 H 368.995 -1.61527 -2.46968 0
M  V30 4065 H 369.076 -2.39975 -0.885745 0
M  V30 4066 H 368.72 -4.66293 -2.01329 0
M  V30 4067 H 368.65 -3.84737 -3.59562 0
M  V30 4068 H 371.141 -3.02074 -2.27068 0
M  V30 4069 H 371.454 -6.53282 -4.12846 0
M  V30 4070 H 369.799 -5.87143 -3.71871 0
M  V30 4071 H 372.99 -3.79177 -2.74486 0
M  V30 4072 H 373.163 -5.39318 -3.59221 0
M  V30 4073 N 366.569 1.04691 -1.17803 0
M  V30 4074 C 367.815 1.78045 -0.970969 0
M  V30 4075 C 368.148 1.87686 0.498751 0
M  V30 4076 O 367.423 1.38035 1.37027 0
M  V30 4077 C 367.706 3.2166 -1.61884 0
M  V30 4078 C 367.559 3.20001 -3.161 0
M  V30 4079 C 368.878 4.1962 -1.3269 0
M  V30 4080 H 365.997 0.64633 -0.354155 0
M  V30 4081 H 368.639 1.22333 -1.45378 0
M  V30 4082 H 366.789 3.69232 -1.20831 0
M  V30 4083 H 368.461 2.80467 -3.66246 0
M  V30 4084 H 366.704 2.58203 -3.48588 0
M  V30 4085 H 367.375 4.21386 -3.56564 0
M  V30 4086 H 369.851 3.80567 -1.68249 0
M  V30 4087 H 368.727 5.18339 -1.80599 0
M  V30 4088 H 368.988 4.414 -0.248622 0
M  V30 4089 N 368.047 0.979072 1.23499 0
M  V30 4090 C 369.294 0.647219 1.91878 0
M  V30 4091 C 369.622 -0.819074 1.76413 0
M  V30 4092 O 368.877 -1.60616 1.11808 0
M  V30 4093 C 369.176 0.981932 3.43646 0
M  V30 4094 C 368.842 2.43822 3.79291 0
M  V30 4095 C 367.504 2.83622 3.88731 0
M  V30 4096 C 369.856 3.3828 3.96505 0
M  V30 4097 C 367.184 4.16897 4.12812 0
M  V30 4098 C 369.536 4.71197 4.22085 0
M  V30 4099 C 368.2 5.10758 4.29747 0
M  V30 4100 H 367.47 0.236834 0.702133 0
M  V30 4101 H 370.117 1.23268 1.46551 0
M  V30 4102 H 368.422 0.314365 3.90537 0
M  V30 4103 H 370.119 0.703395 3.94783 0
M  V30 4104 H 366.709 2.11966 3.72516 0
M  V30 4105 H 370.893 3.0871 3.88603 0
M  V30 4106 H 366.149 4.47157 4.16966 0
M  V30 4107 H 370.323 5.44348 4.34348 0
M  V30 4108 H 367.95 6.1405 4.48159 0
M  V30 4109 N 369.525 -1.3858 0.750561 0
M  V30 4110 C 370.475 -2.27795 0.0965949 0
M  V30 4111 C 371.459 -1.45048 -0.696411 0
M  V30 4112 O 372.651 -1.67812 -0.562863 0
M  V30 4113 C 369.78 -3.33894 -0.798085 0
M  V30 4114 C 368.866 -4.241 0.0016067 0
M  V30 4115 N 369.257 -4.95067 1.03647 0
M  V30 4116 C 367.555 -4.45429 -0.225674 0
M  V30 4117 C 368.256 -5.61489 1.52004 0
M  V30 4118 N 367.232 -5.37135 0.835874 0
M  V30 4119 H 371.034 -2.80125 0.889228 0
M  V30 4120 H 368.548 -1.51446 0.586323 0
M  V30 4121 H 370.545 -3.96693 -1.28219 0
M  V30 4122 H 369.205 -2.83123 -1.5897 0
M  V30 4123 H 370.216 -4.98104 1.41819 0
M  V30 4124 H 366.893 -4.05571 -0.990872 0
M  V30 4125 H 368.283 -6.28264 2.38188 0
M  V30 4126 N 371.003 -0.499398 -1.49478 0
M  V30 4127 C 372.243 0.0440751 -2.04352 0
M  V30 4128 C 372.607 1.34423 -1.37093 0
M  V30 4129 O 373.808 1.97184 -1.82679 0
M  V30 4130 C 372.079 0.194918 -3.56868 0
M  V30 4131 S 373.638 0.69287 -4.33295 0
M  V30 4132 H 370.456 0.00253458 -0.710995 0
M  V30 4133 H 373.058 -0.673 -1.83551 0
M  V30 4134 H 371.762 -0.756672 -4.03364 0
M  V30 4135 H 371.293 0.93728 -3.82071 0
M  V30 4136 H 373.308 1.96226 -4.55752 0
M  V30 4137 N 372.481 1.55866 -0.233164 0
M  V30 4138 C 373.709 2.02998 0.399905 0
M  V30 4139 C 374.124 1.11274 1.52524 0
M  V30 4140 O 373.481 0.124528 1.82075 0
M  V30 4141 C 373.532 3.4958 0.920639 0
M  V30 4142 O 373.253 4.37808 -0.159834 0
M  V30 4143 C 374.754 4.12411 1.62578 0
M  V30 4144 H 371.974 0.664006 0.0966281 0
M  V30 4145 H 374.518 2.0143 -0.353013 0
M  V30 4146 H 372.673 3.51727 1.62379 0
M  V30 4147 H 373.087 5.23981 0.23337 0
M  V30 4148 H 374.561 5.16711 1.94201 0
M  V30 4149 H 375.038 3.5809 2.54299 0
M  V30 4150 H 375.644 4.14148 0.967553 0
M  V30 4151 N 373.959 -0.0401083 1.57549 0
M  V30 4152 C 374.891 -1.07149 2.02612 0
M  V30 4153 C 375.904 -1.33126 0.937085 0
M  V30 4154 O 377.093 -1.30808 1.21456 0
M  V30 4155 C 374.193 -2.41561 2.37701 0
M  V30 4156 C 373.366 -2.35096 3.68848 0
M  V30 4157 C 372.425 -3.51867 3.91249 0
M  V30 4158 O 371.451 -3.3186 4.62447 0
M  V30 4159 N 372.653 -4.73351 3.36035 0
M  V30 4160 H 375.418 -0.687485 2.91708 0
M  V30 4161 H 372.979 -0.228248 1.60283 0
M  V30 4162 H 374.971 -3.18379 2.49833 0
M  V30 4163 H 373.541 -2.71846 1.54332 0
M  V30 4164 H 372.761 -1.4345 3.67173 0
M  V30 4165 H 374.049 -2.27908 4.54901 0
M  V30 4166 H 373.447 -4.92507 2.78304 0
M  V30 4167 H 372.004 -5.47572 3.53565 0
M  V30 4168 N 375.437 -1.54477 -0.31217 0
M  V30 4169 C 376.667 -1.76948 -1.06645 0
M  V30 4170 C 377.075 -0.523593 -1.81811 0
M  V30 4171 O 376.418 0.51578 -1.76311 0
M  V30 4172 C 376.48 -2.91668 -2.10166 0
M  V30 4173 C 376.144 -4.30165 -1.54296 0
M  V30 4174 C 377.141 -5.10603 -0.978793 0
M  V30 4175 C 374.826 -4.76738 -1.58196 0
M  V30 4176 C 376.82 -6.3573 -0.461048 0
M  V30 4177 C 374.507 -6.01831 -1.06034 0
M  V30 4178 C 375.505 -6.81161 -0.500844 0
M  V30 4179 O 375.193 -8.03899 0.0128958 0
M  V30 4180 H 374.925 -0.594088 -0.322546 0
M  V30 4181 H 377.479 -2.02213 -0.360441 0
M  V30 4182 H 375.709 -2.62001 -2.84416 0
M  V30 4183 H 377.398 -3.01817 -2.71406 0
M  V30 4184 H 378.164 -4.75771 -0.941651 0
M  V30 4185 H 374.043 -4.15027 -2.00683 0
M  V30 4186 H 377.587 -6.97596 -0.0236894 0
M  V30 4187 H 373.484 -6.36152 -1.09459 0
M  V30 4188 H 374.252 -8.18437 -0.101457 0
M  V30 4189 N 376.915 0.57481 -1.46744 0
M  V30 4190 C 378.161 1.3347 -1.52688 0
M  V30 4191 C 378.494 1.93353 -0.181229 0
M  V30 4192 O 377.769 1.76912 0.808237 0
M  V30 4193 C 378.052 2.45811 -2.63152 0
M  V30 4194 C 377.905 1.90912 -4.07275 0
M  V30 4195 C 379.224 3.47822 -2.69644 0
M  V30 4196 H 376.343 0.483935 -0.555856 0
M  V30 4197 H 378.985 0.644968 -1.78718 0
M  V30 4198 H 377.135 3.04646 -2.41088 0
M  V30 4199 H 378.807 1.36473 -4.4065 0
M  V30 4200 H 377.05 1.21691 -4.16382 0
M  V30 4201 H 377.721 2.72042 -4.80309 0
M  V30 4202 H 380.197 2.9888 -2.895 0
M  V30 4203 H 379.073 4.23876 -3.48742 0
M  V30 4204 H 379.334 4.05555 -1.76005 0
M  V30 4205 N 378.394 1.34581 0.820102 0
M  V30 4206 C 379.81 1.14325 1.11364 0
M  V30 4207 C 380.01 -0.0533648 2.01429 0
M  V30 4208 O 379.066 -0.728044 2.41776 0
M  V30 4209 C 380.379 2.43983 1.75764 0
M  V30 4210 C 381.927 2.50065 1.88246 0
M  V30 4211 C 382.402 3.79732 2.56061 0
M  V30 4212 N 383.893 3.80908 2.63558 0
M  V30 4213 C 384.628 4.77961 3.16766 0
M  V30 4214 N 384.124 5.85397 3.70517 0
M  V30 4215 N 385.917 4.65413 3.15194 0
M  V30 4216 H 378.068 2.11246 0.221096 0
M  V30 4217 H 380.331 0.934289 0.160649 0
M  V30 4218 H 380.037 3.31651 1.1705 0
M  V30 4219 H 379.911 2.57531 2.75604 0
M  V30 4220 H 382.298 1.62834 2.46108 0
M  V30 4221 H 382.379 2.40442 0.873006 0
M  V30 4222 H 382.023 4.67354 1.98853 0
M  V30 4223 H 381.953 3.86639 3.57516 0
M  V30 4224 H 384.444 3.03274 2.25463 0
M  V30 4225 H 384.757 6.55463 4.09376 0
M  V30 4226 H 383.102 5.89107 3.68752 0
M  V30 4227 H 386.293 3.80627 2.72471 0
M  V30 4228 H 386.466 5.41216 3.56356 0
M  V30 4229 N 379.872 -1.04064 1.18357 0
M  V30 4230 C 380.822 -2.10393 0.878561 0
M  V30 4231 C 381.806 -1.60183 -0.151713 0
M  V30 4232 O 382.998 -1.76923 0.0523303 0
M  V30 4233 C 380.127 -3.4089 0.406096 0
M  V30 4234 C 379.213 -3.97866 1.46844 0
M  V30 4235 N 379.604 -4.28657 2.68489 0
M  V30 4236 C 377.902 -4.2574 1.32896 0
M  V30 4237 C 378.603 -4.74253 3.36836 0
M  V30 4238 N 377.579 -4.75068 2.64219 0
M  V30 4239 H 381.381 -2.32076 1.80327 0
M  V30 4240 H 378.895 -1.21818 1.07397 0
M  V30 4241 H 380.892 -4.16557 0.169088 0
M  V30 4242 H 379.552 -3.20633 -0.512275 0
M  V30 4243 H 380.563 -4.18304 3.05356 0
M  V30 4244 H 377.24 -4.1481 0.473134 0
M  V30 4245 H 378.63 -5.07096 4.40798 0
M  V30 4246 N 381.35 -0.985608 -1.22978 0
M  V30 4247 C 382.575 -0.675254 -1.961 0
M  V30 4248 C 383 0.752154 -1.72407 0
M  V30 4249 O 382.358 1.5131 -0.998751 0
M  V30 4250 C 382.406 -0.977899 -3.47087 0
M  V30 4251 O 381.51 -0.072685 -4.12336 0
M  V30 4252 H 380.851 -0.253443 -0.613728 0
M  V30 4253 H 383.381 -1.32061 -1.56272 0
M  V30 4254 H 383.391 -0.916739 -3.97567 0
M  V30 4255 H 382.066 -2.01807 -3.63657 0
M  V30 4256 H 380.643 -0.188703 -3.72422 0
M  V30 4257 N 382.828 1.3818 -0.7579 0
M  V30 4258 C 384.053 2.04827 -0.325679 0
M  V30 4259 C 384.478 1.56788 1.03919 0
M  V30 4260 O 383.836 0.721811 1.66312 0
M  V30 4261 C 383.884 3.58774 -0.362447 0
M  V30 4262 O 382.988 4.07372 0.642033 0
M  V30 4263 H 382.329 0.64833 -0.143402 0
M  V30 4264 H 384.859 1.7677 -1.03023 0
M  V30 4265 H 384.869 4.07434 -0.214844 0
M  V30 4266 H 383.544 3.93096 -1.35824 0
M  V30 4267 H 382.121 3.70068 0.458688 0
M  V30 4268 N 384.306 0.507319 1.49211 0
M  V30 4269 C 385.583 -0.0982702 1.95353 0
M  V30 4270 C 385.963 -1.53516 1.449 0
M  V30 4271 O 385.311 -2.18594 0.66551 0
M  V30 4272 C 385.521 -0.00440283 3.49 0
M  V30 4273 C 386.869 -0.175147 4.24239 0
M  V30 4274 O 387.893 -0.0792891 3.56112 0
M  V30 4275 O 386.752 -0.37276 5.45227 0
M  V30 4276 H 383.846 -0.0918236 0.821887 0
M  V30 4277 H 386.392 0.570307 1.5983 0
M  V30 4278 H 385.164 0.997402 3.78375 0
M  V30 4279 H 384.787 -0.712845 3.91158 0
M  V30 4280 N 385.784 -1.5574 0.241426 0
M  V30 4281 C 387.195 -1.84842 -0.262755 0
M  V30 4282 C 387.546 -1.16317 -1.58003 0
M  V30 4283 O 386.671 -0.439653 -2.11887 0
M  V30 4284 C 387.266 -3.35332 -0.483523 0
M  V30 4285 C 385.825 -3.6468 -0.931977 0
M  V30 4286 C 384.972 -2.77299 -0.0061151 0
M  V30 4287 H 387.923 -1.51761 0.464129 0
M  V30 4288 H 387.944 -3.56615 -1.32688 0
M  V30 4289 H 387.456 -3.85178 0.47537 0
M  V30 4290 H 385.557 -3.20307 -1.90353 0
M  V30 4291 H 385.67 -4.72498 -0.792628 0
M  V30 4292 H 384.034 -2.49408 -0.516503 0
M  V30 4293 H 384.817 -3.2995 0.948052 0
M  V30 4294 N 387.262 0.0317525 -1.57568 0
M  V30 4295 C 388.509 0.723104 -1.89149 0
M  V30 4296 C 388.837 1.75504 -0.838377 0
M  V30 4297 O 388.092 1.95037 0.160982 0
M  V30 4298 C 388.391 1.43167 -3.27472 0
M  V30 4299 C 388.057 0.535972 -4.47703 0
M  V30 4300 C 386.719 0.289262 -4.8033 0
M  V30 4301 C 389.071 -0.0826125 -5.21135 0
M  V30 4302 C 386.399 -0.584853 -5.83778 0
M  V30 4303 C 388.751 -0.944414 -6.25511 0
M  V30 4304 C 387.415 -1.20061 -6.56614 0
M  V30 4305 H 386.685 0.264602 -0.692146 0
M  V30 4306 H 389.332 -0.0169496 -1.91492 0
M  V30 4307 H 387.637 2.24497 -3.21105 0
M  V30 4308 H 389.334 1.97209 -3.49155 0
M  V30 4309 H 385.924 0.738414 -4.22191 0
M  V30 4310 H 390.108 0.0950302 -4.96209 0
M  V30 4311 H 385.364 -0.79168 -6.06253 0
M  V30 4312 H 389.538 -1.43026 -6.81554 0
M  V30 4313 H 387.165 -1.87967 -7.36595 0
M  V30 4314 N 388.74 1.54641 0.303973 0
M  V30 4315 C 389.97 1.77511 1.05705 0
M  V30 4316 C 390.378 0.533228 1.81531 0
M  V30 4317 O 389.721 -0.506423 1.76582 0
M  V30 4318 C 389.783 2.92779 2.08617 0
M  V30 4319 C 389.447 4.30977 1.52013 0
M  V30 4320 C 390.444 5.11115 0.9517 0
M  V30 4321 C 388.129 4.77571 1.55665 0
M  V30 4322 C 390.123 6.35966 0.427327 0
M  V30 4323 C 387.81 6.02384 1.02841 0
M  V30 4324 C 388.808 6.81417 0.464713 0
M  V30 4325 O 388.496 8.03881 -0.0555283 0
M  V30 4326 H 388.228 0.59579 0.319391 0
M  V30 4327 H 390.782 2.02401 0.349712 0
M  V30 4328 H 389.012 2.63506 2.83022 0
M  V30 4329 H 390.701 3.03252 2.69802 0
M  V30 4330 H 391.467 4.76264 0.916407 0
M  V30 4331 H 387.346 4.16085 1.9848 0
M  V30 4332 H 390.89 6.97599 -0.0133062 0
M  V30 4333 H 386.787 6.36723 1.06084 0
M  V30 4334 H 387.555 8.18479 0.0580522 0
M  V30 4335 N 390.218 -0.567019 1.47046 0
M  V30 4336 C 391.446 -1.35027 1.56765 0
M  V30 4337 C 391.861 -1.8758 0.214316 0
M  V30 4338 O 391.218 -1.64471 -0.790919 0
M  V30 4339 C 391.269 -2.52698 2.58507 0
M  V30 4340 O 390.99 -2.0232 3.88585 0
M  V30 4341 C 392.491 -3.45043 2.78316 0
M  V30 4342 H 389.711 -0.41195 0.529658 0
M  V30 4343 H 392.255 -0.687832 1.92585 0
M  V30 4344 H 390.41 -3.149 2.25648 0
M  V30 4345 H 390.824 -2.79068 4.44096 0
M  V30 4346 H 392.298 -4.2405 3.53391 0
M  V30 4347 H 392.775 -3.97971 1.85784 0
M  V30 4348 H 393.381 -2.88665 3.12334 0
M  V30 4349 N 391.696 -1.35014 -0.812953 0
M  V30 4350 C 393.107 -1.25035 -1.38648 0
M  V30 4351 C 393.458 0.119967 -1.95833 0
M  V30 4352 O 392.583 1.02069 -1.90816 0
M  V30 4353 C 393.178 -2.26394 -2.52054 0
M  V30 4354 C 391.737 -2.20175 -3.05287 0
M  V30 4355 C 390.884 -2.12451 -1.78213 0
M  V30 4356 H 393.835 -1.46235 -0.616516 0
M  V30 4357 H 393.856 -1.88672 -3.30429 0
M  V30 4358 H 393.368 -3.26116 -2.10404 0
M  V30 4359 H 391.469 -1.23841 -3.51417 0
M  V30 4360 H 391.582 -3.11863 -3.63701 0
M  V30 4361 H 389.946 -1.58328 -1.9951 0
M  V30 4362 H 390.729 -3.14024 -1.38723 0
M  V30 4363 N 393.175 1.03435 -1.18907 0
M  V30 4364 C 394.085 2.15075 -0.937015 0
M  V30 4365 C 395.101 1.73706 0.101085 0
M  V30 4366 O 396.277 2.01232 -0.0822948 0
M  V30 4367 C 393.342 3.43458 -0.473057 0
M  V30 4368 C 392.403 3.99172 -1.57989 0
M  V30 4369 C 391.636 5.21427 -1.13797 0
M  V30 4370 O 391.859 5.704 0.000725941 0
M  V30 4371 O 390.793 5.69837 -1.9383 0
M  V30 4372 H 394.619 2.39198 -1.87131 0
M  V30 4373 H 392.204 1.13506 -0.971427 0
M  V30 4374 H 394.086 4.20811 -0.222702 0
M  V30 4375 H 392.761 3.20793 0.432869 0
M  V30 4376 H 391.668 3.23178 -1.88433 0
M  V30 4377 H 393.001 4.2619 -2.46217 0
M  V30 4378 N 394.653 0.992116 1.22453 0
M  V30 4379 C 396.064 0.702776 1.72968 0
M  V30 4380 C 396.415 -0.780399 1.80012 0
M  V30 4381 O 395.54 -1.61007 1.44589 0
M  V30 4382 C 396.135 1.26903 3.14135 0
M  V30 4383 C 394.694 1.02909 3.62059 0
M  V30 4384 C 393.841 1.38969 2.39964 0
M  V30 4385 H 396.792 1.16457 1.07812 0
M  V30 4386 H 396.813 0.647223 3.74955 0
M  V30 4387 H 396.325 2.34851 3.08977 0
M  V30 4388 H 394.426 -0.0337979 3.72585 0
M  V30 4389 H 394.539 1.69191 4.48231 0
M  V30 4390 H 392.903 0.808279 2.41535 0
M  V30 4391 H 393.686 2.4792 2.37467 0
M  V30 4392 N 396.131 -1.37776 0.765217 0
M  V30 4393 C 397.408 -1.93975 0.251596 0
M  V30 4394 C 397.788 -1.69949 -1.25222 0
M  V30 4395 O 397.136 -1.04457 -2.03226 0
M  V30 4396 C 397.346 -3.43487 0.617895 0
M  V30 4397 C 398.694 -4.20564 0.584029 0
M  V30 4398 O 399.718 -3.5182 0.556888 0
M  V30 4399 O 398.577 -5.43138 0.605291 0
M  V30 4400 H 395.671 -0.82509 0.0561806 0
M  V30 4401 H 398.217 -1.47101 0.846128 0
M  V30 4402 H 396.989 -3.5453 1.65602 0
M  V30 4403 H 396.612 -3.976 -0.00403411 0
M  V30 4404 N 397.609 -0.515225 -1.4894 0
M  V30 4405 C 398.837 0.0206034 -2.0689 0
M  V30 4406 C 399.252 1.29514 -1.37374 0
M  V30 4407 O 398.609 1.76698 -0.456529 0
M  V30 4408 C 398.66 0.26351 -3.60538 0
M  V30 4409 O 398.381 -0.960517 -4.27441 0
M  V30 4410 C 399.882 0.841383 -4.35242 0
M  V30 4411 H 397.102 -0.0268608 -0.670462 0
M  V30 4412 H 399.646 -0.716651 -1.91532 0
M  V30 4413 H 397.801 0.950777 -3.75552 0
M  V30 4414 H 398.215 -0.73212 -5.19365 0
M  V30 4415 H 399.689 0.96085 -5.43573 0
M  V30 4416 H 400.166 1.8427 -3.98674 0
M  V30 4417 H 400.772 0.191143 -4.2487 0
M  V30 4418 N 399.087 1.5561 -0.249682 0
M  V30 4419 C 400.327 2.00916 0.37579 0
M  V30 4420 C 400.691 1.13409 1.54927 0
M  V30 4421 O 401.892 1.48183 2.24266 0
M  V30 4422 C 400.163 3.48949 0.772633 0
M  V30 4423 S 401.722 4.16261 1.38824 0
M  V30 4424 H 398.54 0.70112 0.118117 0
M  V30 4425 H 401.142 1.92052 -0.365567 0
M  V30 4426 H 399.846 4.103 -0.090683 0
M  V30 4427 H 399.377 3.61745 1.5461 0
M  V30 4428 H 401.392 4.17778 2.67724 0
M  V30 4429 N 400.565 -0.0233959 1.57583 0
M  V30 4430 C 401.515 -1.03023 2.03397 0
M  V30 4431 C 402.499 -1.31701 0.924315 0
M  V30 4432 O 403.691 -1.31191 1.18819 0
M  V30 4433 C 400.82 -2.32961 2.52159 0
M  V30 4434 C 399.906 -2.07349 3.69956 0
M  V30 4435 N 400.297 -1.51814 4.82479 0
M  V30 4436 C 398.595 -2.37606 3.77438 0
M  V30 4437 C 399.296 -1.42136 5.64068 0
M  V30 4438 N 398.272 -1.89891 5.09355 0
M  V30 4439 H 402.074 -0.594962 2.87815 0
M  V30 4440 H 399.588 -0.229586 1.60769 0
M  V30 4441 H 401.585 -3.05906 2.83244 0
M  V30 4442 H 400.245 -2.77162 1.69149 0
M  V30 4443 H 401.256 -1.20008 5.03804 0
M  V30 4444 H 397.933 -2.84842 3.05239 0
M  V30 4445 H 399.323 -0.996405 6.64471 0
M  V30 4446 N 402.043 -1.548 -0.295768 0
M  V30 4447 C 402.953 -1.89177 -1.38742 0
M  V30 4448 C 403.969 -0.786481 -1.55211 0
M  V30 4449 O 405.145 -1.08344 -1.69775 0
M  V30 4450 C 402.21 -2.13663 -2.73036 0
M  V30 4451 C 401.271 -3.37349 -2.65508 0
M  V30 4452 C 400.504 -3.60658 -3.93398 0
M  V30 4453 O 400.727 -2.86882 -4.93006 0
M  V30 4454 O 399.661 -4.54179 -3.94975 0
M  V30 4455 H 403.487 -2.82059 -1.12589 0
M  V30 4456 H 401.072 -1.41056 -0.492295 0
M  V30 4457 H 402.954 -2.3094 -3.52484 0
M  V30 4458 H 401.629 -1.23967 -2.99022 0
M  V30 4459 H 400.536 -3.25431 -1.84514 0
M  V30 4460 H 401.869 -4.27192 -2.44474 0
M  V30 4461 N 403.521 0.559213 -1.47345 0
M  V30 4462 C 404.451 1.67622 -1.62558 0
M  V30 4463 C 405.432 1.63331 -0.475087 0
M  V30 4464 O 406.617 1.80983 -0.704182 0
M  V30 4465 C 403.747 3.0626 -1.63774 0
M  V30 4466 C 402.701 3.25397 -2.7803 0
M  V30 4467 C 402.027 4.64801 -2.64318 0
M  V30 4468 C 403.327 3.10965 -4.19641 0
M  V30 4469 H 405.021 1.55146 -2.56067 0
M  V30 4470 H 402.567 0.744961 -1.23233 0
M  V30 4471 H 404.52 3.84247 -1.73008 0
M  V30 4472 H 403.244 3.1969 -0.66825 0
M  V30 4473 H 401.903 2.49817 -2.68304 0
M  V30 4474 H 401.551 4.75028 -1.65401 0
M  V30 4475 H 401.251 4.78555 -3.40968 0
M  V30 4476 H 402.775 5.44926 -2.75478 0
M  V30 4477 H 404.189 3.78772 -4.30354 0
M  V30 4478 H 402.586 3.36229 -4.97062 0
M  V30 4479 H 403.656 2.07736 -4.38148 0
M  V30 4480 N 404.999 1.35443 0.805782 0
M  V30 4481 C 405.929 1.31095 1.93226 0
M  V30 4482 C 406.91 0.185244 1.69088 0
M  V30 4483 O 408.095 0.380332 1.90439 0
M  V30 4484 C 405.225 1.08299 3.29983 0
M  V30 4485 C 404.179 2.17519 3.68605 0
M  V30 4486 C 403.505 1.79887 5.03532 0
M  V30 4487 C 404.805 3.5949 3.78898 0
M  V30 4488 H 406.499 2.25352 1.97122 0
M  V30 4489 H 404.045 1.0848 0.946996 0
M  V30 4490 H 405.998 1.03897 4.08391 0
M  V30 4491 H 404.722 0.104885 3.26432 0
M  V30 4492 H 403.381 2.2102 2.92482 0
M  V30 4493 H 403.029 0.80693 4.96485 0
M  V30 4494 H 402.729 2.53001 5.30344 0
M  V30 4495 H 404.253 1.77011 5.84379 0
M  V30 4496 H 405.667 3.58307 4.47536 0
M  V30 4497 H 404.064 4.31371 4.1718 0
M  V30 4498 H 405.134 3.95584 2.80431 0
M  V30 4499 N 406.477 -1.02803 1.19454 0
M  V30 4500 C 407.725 -1.75869 0.995722 0
M  V30 4501 C 408.046 -1.89138 -0.474543 0
M  V30 4502 O 407.316 -1.42558 -1.34366 0
M  V30 4503 H 405.896 -0.651511 0.365435 0
M  V30 4504 H 408.558 -1.24004 1.50363 0
M  V30 4505 H 407.654 -2.76661 1.44447 0
M  V30 4506 N 407.956 -0.998596 -1.21925 0
M  V30 4507 C 408.906 -0.524743 -2.21879 0
M  V30 4508 C 409.89 0.41017 -1.55584 0
M  V30 4509 O 411.082 0.236063 -1.75419 0
M  V30 4510 C 408.211 0.153636 -3.42956 0
M  V30 4511 C 407.297 -0.801918 -4.16449 0
M  V30 4512 N 407.688 -1.95211 -4.66611 0
M  V30 4513 C 405.986 -0.618972 -4.41684 0
M  V30 4514 C 406.687 -2.55234 -5.22715 0
M  V30 4515 N 405.663 -1.83451 -5.1171 0
M  V30 4516 H 409.465 -1.40189 -2.58311 0
M  V30 4517 H 406.979 -0.86159 -1.3766 0
M  V30 4518 H 408.976 0.510534 -4.13762 0
M  V30 4519 H 407.636 1.02684 -3.08036 0
M  V30 4520 H 408.647 -2.33271 -4.62391 0
M  V30 4521 H 405.324 0.207694 -4.16983 0
M  V30 4522 H 406.714 -3.52471 -5.72026 0
M  V30 4523 N 409.434 1.37368 -0.772513 0
M  V30 4524 C 410.68 1.99969 -0.337681 0
M  V30 4525 C 411.013 1.61184 1.08321 0
M  V30 4526 O 410.288 0.858395 1.74533 0
M  V30 4527 C 410.571 3.56858 -0.482121 0
M  V30 4528 C 410.424 4.0555 -1.94549 0
M  V30 4529 C 411.743 4.39955 0.113143 0
M  V30 4530 H 408.862 0.726464 -0.124171 0
M  V30 4531 H 411.504 1.63034 -0.975699 0
M  V30 4532 H 409.654 3.88452 0.0610361 0
M  V30 4533 H 411.326 3.84518 -2.54841 0
M  V30 4534 H 409.569 3.57715 -2.45403 0
M  V30 4535 H 410.24 5.14587 -1.9976 0
M  V30 4536 H 412.716 4.14623 -0.35031 0
M  V30 4537 H 411.592 5.48897 -0.0180514 0
M  V30 4538 H 411.853 4.25403 1.20354 0
M  V30 4539 N 410.912 0.523116 1.48665 0
M  V30 4540 C 412.323 0.0808997 1.86525 0
M  V30 4541 C 412.674 -1.33975 1.43336 0
M  V30 4542 O 411.799 -2.00221 0.821009 0
M  V30 4543 C 412.394 0.140037 3.3851 0
M  V30 4544 C 410.953 -0.246948 3.75589 0
M  V30 4545 C 410.1 0.502845 2.72703 0
M  V30 4546 H 413.051 0.734736 1.40667 0
M  V30 4547 H 413.072 -0.649945 3.74908 0
M  V30 4548 H 412.584 1.17412 3.69914 0
M  V30 4549 H 410.685 -1.28343 3.49798 0
M  V30 4550 H 410.798 0.0878859 4.79019 0
M  V30 4551 H 409.162 -0.0500581 2.54651 0
M  V30 4552 H 409.945 1.53743 3.0695 0
M  V30 4553 N 412.39 -1.55475 0.257931 0
M  V30 4554 C 413.32 -2.24815 -0.630912 0
M  V30 4555 C 414.301 -1.23224 -1.17259 0
M  V30 4556 O 415.486 -1.51904 -1.20991 0
M  V30 4557 C 412.616 -2.95609 -1.82298 0
M  V30 4558 C 411.57 -4.03982 -1.41359 0
M  V30 4559 C 410.896 -4.6226 -2.68738 0
M  V30 4560 C 412.196 -5.19109 -0.57648 0
M  V30 4561 H 413.89 -2.99354 -0.0526878 0
M  V30 4562 H 411.436 -1.4398 -0.023901 0
M  V30 4563 H 413.389 -3.42822 -2.45054 0
M  V30 4564 H 412.113 -2.18577 -2.42676 0
M  V30 4565 H 410.772 -3.57555 -0.809324 0
M  V30 4566 H 410.42 -3.81915 -3.27338 0
M  V30 4567 H 410.12 -5.35424 -2.42065 0
M  V30 4568 H 411.644 -5.12212 -3.32372 0
M  V30 4569 H 413.058 -5.62479 -1.10861 0
M  V30 4570 H 411.455 -5.98729 -0.405351 0
M  V30 4571 H 412.525 -4.83174 0.408776 0
M  V30 4572 N 413.868 0.0150385 -1.57593 0
M  V30 4573 C 414.798 1.01047 -2.10503 0
M  V30 4574 C 415.779 1.36816 -1.01071 0
M  V30 4575 O 416.964 1.45455 -1.28672 0
M  V30 4576 C 414.094 2.30708 -2.59598 0
M  V30 4577 C 413.048 2.09142 -3.73421 0
M  V30 4578 C 412.374 3.44685 -4.08774 0
M  V30 4579 C 413.674 1.46619 -5.01298 0
M  V30 4580 H 415.368 0.569978 -2.93925 0
M  V30 4581 H 412.914 0.272724 -1.41394 0
M  V30 4582 H 414.867 3.00687 -2.95238 0
M  V30 4583 H 413.591 2.76843 -1.73279 0
M  V30 4584 H 412.25 1.41592 -3.38153 0
M  V30 4585 H 411.898 3.88495 -3.195 0
M  V30 4586 H 411.598 3.31077 -4.8545 0
M  V30 4587 H 413.122 4.16004 -4.4696 0
M  V30 4588 H 414.536 2.06535 -5.34805 0
M  V30 4589 H 412.933 1.43544 -5.82679 0
M  V30 4590 H 414.003 0.433611 -4.82957 0
M  V30 4591 N 415.346 1.54954 0.287554 0
M  V30 4592 C 416.309 1.86076 1.33823 0
M  V30 4593 C 417.309 0.734414 1.43049 0
M  V30 4594 O 418.499 1.00266 1.42452 0
M  V30 4595 C 415.631 2.05305 2.72144 0
M  V30 4596 H 416.824 2.79984 1.07465 0
M  V30 4597 H 414.377 1.47223 0.524902 0
M  V30 4598 H 415.112 1.1373 3.03704 0
M  V30 4599 H 414.897 2.873 2.66836 0
M  V30 4600 H 416.387 2.30706 3.48087 0
M  V30 4601 N 416.824 -0.551391 1.4764 0
M  V30 4602 C 417.734 -1.68525 1.63207 0
M  V30 4603 C 418.75 -1.6621 0.514815 0
M  V30 4604 O 419.926 -1.85551 0.783113 0
M  V30 4605 C 416.991 -3.05025 1.64805 0
M  V30 4606 C 416.052 -3.18362 2.88 0
M  V30 4607 C 415.285 -4.4835 2.89513 0
M  V30 4608 O 415.508 -5.34163 2.00065 0
M  V30 4609 O 414.442 -4.65602 3.81443 0
M  V30 4610 H 418.268 -1.58333 2.59161 0
M  V30 4611 H 415.853 -0.722063 1.30792 0
M  V30 4612 H 417.735 -3.86245 1.68502 0
M  V30 4613 H 416.41 -3.15587 0.720197 0
M  V30 4614 H 415.317 -2.36518 2.89845 0
M  V30 4615 H 416.65 -3.12707 3.80099 0
M  V30 4616 N 418.302 -1.35869 -0.798587 0
M  V30 4617 C 419.713 -1.26498 -1.37314 0
M  V30 4618 C 420.064 0.0991899 -1.95949 0
M  V30 4619 O 419.189 1.0004 -1.91888 0
M  V30 4620 C 419.784 -2.29054 -2.49639 0
M  V30 4621 C 418.343 -2.234 -3.02935 0
M  V30 4622 C 417.49 -2.14329 -1.75949 0
M  V30 4623 H 420.441 -1.46881 -0.600971 0
M  V30 4624 H 420.462 -1.92166 -3.28409 0
M  V30 4625 H 419.974 -3.2833 -2.06933 0
M  V30 4626 H 418.075 -1.27562 -3.50084 0
M  V30 4627 H 418.188 -3.15703 -3.60372 0
M  V30 4628 H 416.552 -1.60435 -1.9782 0
M  V30 4629 H 417.335 -3.15477 -1.35384 0
M  V30 4630 N 419.78 1.02168 -1.19998 0
M  V30 4631 C 421.005 1.79833 -1.03319 0
M  V30 4632 C 421.43 1.83504 0.413281 0
M  V30 4633 O 420.788 1.26635 1.29743 0
M  V30 4634 C 420.836 3.22396 -1.61533 0
M  V30 4635 O 419.94 4.03555 -0.849519 0
M  V30 4636 H 419.281 0.554872 -0.364709 0
M  V30 4637 H 421.811 1.28542 -1.59179 0
M  V30 4638 H 421.821 3.73124 -1.65054 0
M  V30 4639 H 420.496 3.19039 -2.66809 0
M  V30 4640 H 419.073 3.62169 -0.888129 0
M  V30 4641 N 421.258 1.00505 1.21394 0
M  V30 4642 C 422.505 0.687774 1.90462 0
M  V30 4643 C 422.833 -0.78147 1.7811 0
M  V30 4644 O 422.088 -1.58208 1.1519 0
M  V30 4645 C 422.387 1.0546 3.41486 0
M  V30 4646 C 422.053 2.51812 3.74034 0
M  V30 4647 C 420.715 2.91804 3.82628 0
M  V30 4648 C 423.067 3.46614 3.8924 0
M  V30 4649 C 420.395 4.2556 4.03876 0
M  V30 4650 C 422.747 4.80044 4.11995 0
M  V30 4651 C 421.411 5.19759 4.18816 0
M  V30 4652 H 420.681 0.251674 0.696951 0
M  V30 4653 H 423.328 1.26349 1.43903 0
M  V30 4654 H 421.633 0.397133 3.89782 0
M  V30 4655 H 423.33 0.786976 3.93202 0
M  V30 4656 H 419.92 2.1982 3.67936 0
M  V30 4657 H 424.104 3.16883 3.81967 0
M  V30 4658 H 419.36 4.55901 4.07387 0
M  V30 4659 H 423.534 5.53439 4.22704 0
M  V30 4660 H 421.161 6.23418 4.35033 0
M  V30 4661 N 422.737 -1.36956 0.779787 0
M  V30 4662 C 423.7 -2.2851 0.177662 0
M  V30 4663 C 424.7 -1.48393 -0.619377 0
M  V30 4664 O 425.89 -1.68505 -0.441785 0
M  V30 4665 C 423.022 -3.32428 -0.755279 0
M  V30 4666 H 424.215 -2.83269 0.984823 0
M  V30 4667 H 421.768 -1.46358 0.548544 0
M  V30 4668 H 422.503 -2.82808 -1.58714 0
M  V30 4669 H 422.288 -3.91659 -0.185817 0
M  V30 4670 H 423.778 -4.00824 -1.17174 0
M  V30 4671 N 424.215 -0.530993 -1.48385 0
M  V30 4672 C 425.147 0.268353 -2.27624 0
M  V30 4673 C 426.16 0.903525 -1.35426 0
M  V30 4674 O 427.349 0.781796 -1.60469 0
M  V30 4675 C 424.449 1.39535 -3.08842 0
M  V30 4676 C 423.622 0.861913 -4.28824 0
M  V30 4677 C 422.681 1.87016 -4.91845 0
M  V30 4678 O 421.707 1.4267 -5.5103 0
M  V30 4679 N 422.909 3.20238 -4.84178 0
M  V30 4680 H 425.674 -0.41123 -2.96865 0
M  V30 4681 H 423.235 -0.365387 -1.57723 0
M  V30 4682 H 425.227 2.06803 -3.47871 0
M  V30 4683 H 423.797 1.97859 -2.42014 0
M  V30 4684 H 423.017 0.0132126 -3.94198 0
M  V30 4685 H 424.305 0.484415 -5.06489 0
M  V30 4686 H 423.703 3.58932 -4.37246 0
M  V30 4687 H 422.26 3.83136 -5.27305 0
M  V30 4688 N 425.693 1.55336 -0.266172 0
M  V30 4689 C 426.94 1.99397 0.353158 0
M  V30 4690 C 427.268 1.15451 1.56529 0
M  V30 4691 O 426.523 0.209974 1.9457 0
M  V30 4692 C 426.822 3.48606 0.787957 0
M  V30 4693 C 426.488 4.49773 -0.318541 0
M  V30 4694 C 425.15 4.77158 -0.62239 0
M  V30 4695 C 427.502 5.10212 -1.06459 0
M  V30 4696 C 424.83 5.62251 -1.67602 0
M  V30 4697 C 427.182 5.96449 -2.10788 0
M  V30 4698 C 425.846 6.22158 -2.41817 0
M  V30 4699 H 425.116 0.729644 0.12923 0
M  V30 4700 H 427.763 1.87732 -0.37802 0
M  V30 4701 H 426.068 3.57701 1.59866 0
M  V30 4702 H 427.765 3.80098 1.27775 0
M  V30 4703 H 424.355 4.2854 -0.0715925 0
M  V30 4704 H 428.539 4.89086 -0.843098 0
M  V30 4705 H 423.795 5.80419 -1.92155 0
M  V30 4706 H 427.969 6.42317 -2.69076 0
M  V30 4707 H 425.596 6.87888 -3.23596 0
M  V30 4708 N 427.171 -0.0066808 1.57599 0
M  V30 4709 C 428.396 -0.707738 1.94951 0
M  V30 4710 C 428.821 -1.66882 0.867868 0
M  V30 4711 O 428.179 -1.80457 -0.17458 0
M  V30 4712 C 428.227 -1.42162 3.31394 0
M  V30 4713 O 427.331 -2.53578 3.25226 0
M  V30 4714 H 426.672 -0.188752 0.636607 0
M  V30 4715 H 429.202 0.0445193 2.04552 0
M  V30 4716 H 429.212 -1.78655 3.66806 0
M  V30 4717 H 427.887 -0.716903 4.09675 0
M  V30 4718 H 426.464 -2.19463 3.01481 0
M  V30 4719 N 428.649 -1.55105 -0.279332 0
M  V30 4720 C 429.581 -1.83952 -1.36727 0
M  V30 4721 C 430.594 -0.723642 -1.45833 0
M  V30 4722 O 431.783 -1.00141 -1.47763 0
M  V30 4723 C 428.883 -1.98183 -2.74912 0
M  V30 4724 C 428.056 -3.28787 -2.88475 0
M  V30 4725 C 427.115 -3.33162 -4.07295 0
M  V30 4726 O 426.141 -4.06576 -3.98353 0
M  V30 4727 N 427.343 -2.60109 -5.18964 0
M  V30 4728 H 430.108 -2.77853 -1.12328 0
M  V30 4729 H 427.669 -1.54945 -0.469442 0
M  V30 4730 H 429.661 -1.98488 -3.52682 0
M  V30 4731 H 428.231 -1.11177 -2.92162 0
M  V30 4732 H 427.451 -3.41075 -1.97641 0
M  V30 4733 H 428.739 -4.14933 -2.94463 0
M  V30 4734 H 428.137 -2.00136 -5.29115 0
M  V30 4735 H 426.694 -2.66143 -5.94988 0
M  V30 4736 N 430.127 0.543554 -1.4793 0
M  V30 4737 C 431.037 1.67657 -1.64098 0
M  V30 4738 C 432.053 1.65934 -0.523622 0
M  V30 4739 O 433.229 1.85133 -0.792943 0
M  V30 4740 C 430.294 3.04146 -1.66421 0
M  V30 4741 C 429.355 3.16831 -2.89684 0
M  V30 4742 C 428.588 4.46809 -2.91886 0
M  V30 4743 O 428.811 5.33095 -2.02895 0
M  V30 4744 O 427.745 4.63573 -3.83906 0
M  V30 4745 H 431.571 1.56957 -2.59997 0
M  V30 4746 H 429.156 0.715116 -1.31173 0
M  V30 4747 H 431.038 3.85346 -1.70548 0
M  V30 4748 H 429.713 3.152 -0.736923 0
M  V30 4749 H 428.62 2.34977 -2.91095 0
M  V30 4750 H 429.953 3.10687 -3.81752 0
M  V30 4751 N 431.605 1.3629 0.791371 0
M  V30 4752 C 432.854 1.29742 1.54434 0
M  V30 4753 C 433.167 -0.121729 1.95221 0
M  V30 4754 O 434.373 -0.309579 2.69729 0
M  V30 4755 C 432.829 2.27623 2.78776 0
M  V30 4756 C 432.437 3.74963 2.45166 0
M  V30 4757 C 434.181 2.30047 3.56761 0
M  V30 4758 C 432.088 4.64626 3.65891 0
M  V30 4759 H 431.018 0.482113 0.579727 0
M  V30 4760 H 433.669 1.61642 0.868565 0
M  V30 4761 H 432.051 1.88714 3.48142 0
M  V30 4762 H 433.225 4.22596 1.83709 0
M  V30 4763 H 431.54 3.75295 1.80396 0
M  V30 4764 H 434.137 2.94247 4.46456 0
M  V30 4765 H 434.48 1.30846 3.95203 0
M  V30 4766 H 435.013 2.67563 2.94372 0
M  V30 4767 H 431.752 5.64883 3.32547 0
M  V30 4768 H 431.272 4.2171 4.26521 0
M  V30 4769 H 432.951 4.80801 4.32943 0
M  V30 4770 N 433.083 -1.0153 1.20538 0
M  V30 4771 C 434.331 -1.74803 1.01432 0
M  V30 4772 C 434.652 -1.8963 -0.454456 0
M  V30 4773 O 433.922 -1.43975 -1.32846 0
M  V30 4774 H 432.502 -0.647598 0.372324 0
M  V30 4775 H 435.164 -1.22402 1.5167 0
M  V30 4776 H 434.26 -2.75114 1.47373 0
M  V30 4777 N 434.561 -1.01147 -1.20859 0
M  V30 4778 C 435.491 -0.597663 -2.25722 0
M  V30 4779 C 436.472 0.384744 -1.65692 0
M  V30 4780 O 437.657 0.271303 -1.92296 0
M  V30 4781 C 434.787 0.0700149 -3.47229 0
M  V30 4782 C 433.741 -0.832843 -4.19819 0
M  V30 4783 C 433.067 -0.0312202 -5.34691 0
M  V30 4784 C 434.367 -2.1385 -4.76514 0
M  V30 4785 H 436.061 -1.47423 -2.60589 0
M  V30 4786 H 433.607 -0.710301 -1.25263 0
M  V30 4787 H 435.56 0.37103 -4.19763 0
M  V30 4788 H 434.284 0.981259 -3.11511 0
M  V30 4789 H 432.943 -1.11778 -3.49144 0
M  V30 4790 H 432.591 0.881515 -4.95215 0
M  V30 4791 H 432.291 -0.632434 -5.84187 0
M  V30 4792 H 433.815 0.26346 -6.10031 0
M  V30 4793 H 435.229 -1.9002 -5.40893 0
M  V30 4794 H 433.626 -2.69012 -5.36426 0
M  V30 4795 H 434.696 -2.80495 -3.95538 0
M  V30 4796 N 436.039 1.36541 -0.78704 0
M  V30 4797 C 437.002 2.28413 -0.189778 0
M  V30 4798 C 438.002 1.48719 0.611499 0
M  V30 4799 O 439.192 1.68737 0.432842 0
M  V30 4800 C 436.324 3.32824 0.737638 0
M  V30 4801 H 437.517 2.82743 -0.999831 0
M  V30 4802 H 435.07 1.46065 -0.556298 0
M  V30 4803 H 435.805 2.83646 1.57212 0
M  V30 4804 H 435.59 3.91752 0.165044 0
M  V30 4805 H 437.08 4.0144 1.15047 0
M  V30 4806 N 437.518 0.538854 1.48102 0
M  V30 4807 C 438.743 0.0102694 2.07397 0
M  V30 4808 C 439.168 -1.26562 1.39153 0
M  V30 4809 O 438.526 -1.75357 0.460387 0
M  V30 4810 C 438.574 -0.187602 3.60112 0
M  V30 4811 O 437.678 -1.25432 3.92862 0
M  V30 4812 H 437.019 0.0430975 0.6626 0
M  V30 4813 H 439.549 0.749301 1.90385 0
M  V30 4814 H 439.559 -0.407517 4.0596 0
M  V30 4815 H 438.234 0.744386 4.09184 0
M  V30 4816 H 436.811 -1.01636 3.58782 0
M  V30 4817 N 438.996 -1.55193 0.274407 0
M  V30 4818 C 439.926 -2.25471 -0.607032 0
M  V30 4819 C 440.907 -1.24461 -1.15946 0
M  V30 4820 O 442.092 -1.53179 -1.19373 0
M  V30 4821 C 439.222 -2.97526 -1.79153 0
M  V30 4822 C 438.176 -4.05459 -1.37067 0
M  V30 4823 C 437.502 -4.65084 -2.6382 0
M  V30 4824 C 438.802 -5.19691 -0.521389 0
M  V30 4825 H 440.496 -2.99393 -0.0209343 0
M  V30 4826 H 438.042 -1.43997 -0.00862866 0
M  V30 4827 H 439.995 -3.45402 -2.41404 0
M  V30 4828 H 438.719 -2.21138 -2.40344 0
M  V30 4829 H 437.378 -3.58393 -0.771355 0
M  V30 4830 H 437.026 -3.85365 -3.23268 0
M  V30 4831 H 436.726 -5.37961 -2.36372 0
M  V30 4832 H 438.25 -5.15708 -3.26921 0
M  V30 4833 H 439.664 -5.63623 -1.04889 0
M  V30 4834 H 438.061 -5.99126 -0.341825 0
M  V30 4835 H 439.131 -4.82713 0.46 0
M  V30 4836 N 440.474 -0.00167713 -1.576 0
M  V30 4837 C 441.722 0.681471 -1.90264 0
M  V30 4838 C 442.043 1.7422 -0.875924 0
M  V30 4839 O 441.313 1.95709 0.0864412 0
M  V30 4840 H 439.893 0.254696 -0.702239 0
M  V30 4841 H 442.555 -0.0429996 -1.94853 0
M  V30 4842 H 441.651 1.15166 -2.90075 0
M  V30 4843 N 441.952 1.55251 0.271103 0
M  V30 4844 C 442.915 1.87484 1.31842 0
M  V30 4845 C 443.915 0.749545 1.42262 0
M  V30 4846 O 445.105 1.01771 1.4138 0
M  V30 4847 C 442.237 2.0818 2.69951 0
M  V30 4848 H 443.43 2.81108 1.0449 0
M  V30 4849 H 440.983 1.47771 0.509258 0
M  V30 4850 H 441.718 1.16944 3.02481 0
M  V30 4851 H 441.503 2.90114 2.63774 0
M  V30 4852 H 442.993 2.34385 3.4562 0
M  V30 4853 N 443.43 -0.535701 1.48216 0
M  V30 4854 C 444.655 -1.32149 1.59848 0
M  V30 4855 C 445.08 -1.86338 0.256842 0
M  V30 4856 O 444.438 -1.64107 -0.770632 0
M  V30 4857 C 444.486 -2.45224 2.64381 0
M  V30 4858 O 443.59 -3.48093 2.21144 0
M  V30 4859 H 442.931 -0.391634 0.536208 0
M  V30 4860 H 445.461 -0.645202 1.94161 0
M  V30 4861 H 445.471 -2.91491 2.85476 0
M  V30 4862 H 444.146 -2.05143 3.61786 0
M  V30 4863 H 442.723 -3.07984 2.10239 0
M  V30 4864 N 444.908 -1.36708 -0.784132 0
M  V30 4865 C 445.818 -1.3363 -1.92822 0
M  V30 4866 C 446.834 -0.237686 -1.72369 0
M  V30 4867 O 448.01 -0.470962 -1.95816 0
M  V30 4868 C 445.075 -1.13011 -3.27764 0
M  V30 4869 C 444.136 -2.32397 -3.60957 0
M  V30 4870 C 443.369 -2.12752 -4.89461 0
M  V30 4871 O 443.592 -1.10541 -5.59586 0
M  V30 4872 O 442.526 -3.00653 -5.21432 0
M  V30 4873 H 446.352 -2.29964 -1.98369 0
M  V30 4874 H 443.937 -1.1731 -0.925136 0
M  V30 4875 H 445.819 -1.03451 -4.08504 0
M  V30 4876 H 444.494 -0.19743 -3.23097 0
M  V30 4877 H 443.401 -2.47527 -2.80502 0
M  V30 4878 H 444.734 -3.2419 -3.70354 0
M  V30 4879 N 446.386 1.0089 -1.21074 0
M  V30 4880 C 447.296 2.13039 -0.982425 0
M  V30 4881 C 448.312 1.73881 0.0642161 0
M  V30 4882 O 449.488 2.01012 -0.12496 0
M  V30 4883 C 446.553 3.42377 -0.545803 0
M  V30 4884 C 445.614 3.95731 -1.6642 0
M  V30 4885 C 444.847 5.18896 -1.24832 0
M  V30 4886 O 445.07 5.70273 -0.120265 0
M  V30 4887 O 444.004 5.65597 -2.05873 0
M  V30 4888 H 447.83 2.35175 -1.92163 0
M  V30 4889 H 445.415 1.1142 -0.995285 0
M  V30 4890 H 447.297 4.20244 -0.311912 0
M  V30 4891 H 445.972 3.21639 0.364727 0
M  V30 4892 H 444.879 3.19108 -1.95246 0
M  V30 4893 H 446.212 4.20872 -2.55201 0
M  V30 4894 N 447.864 1.01787 1.20321 0
M  V30 4895 C 448.827 0.593972 2.2137 0
M  V30 4896 C 449.827 -0.336553 1.57239 0
M  V30 4897 O 451.017 -0.125069 1.7375 0
M  V30 4898 C 448.149 -0.132433 3.40643 0
M  V30 4899 H 449.342 1.48791 2.60387 0
M  V30 4900 H 446.895 0.807803 1.33807 0
M  V30 4901 H 447.63 -1.04123 3.0713 0
M  V30 4902 H 447.415 0.53605 3.88418 0
M  V30 4903 H 448.905 -0.416314 4.1552 0
M  V30 4904 N 449.342 -1.36122 0.79427 0
M  V30 4905 C 450.588 -1.99406 0.369452 0
M  V30 4906 C 450.921 -1.62886 -1.05743 0
M  V30 4907 O 450.196 -0.886053 -1.73145 0
M  V30 4908 C 450.479 -3.56046 0.538833 0
M  V30 4909 C 450.332 -4.02404 2.00976 0
M  V30 4910 C 451.651 -4.40079 -0.0431359 0
M  V30 4911 H 448.77 -0.724397 0.135712 0
M  V30 4912 H 451.412 -1.61461 1.00151 0
M  V30 4913 H 449.562 -3.885 0.000771004 0
M  V30 4914 H 451.234 -3.80415 2.60926 0
M  V30 4915 H 449.477 -3.53765 2.51063 0
M  V30 4916 H 450.148 -5.11344 2.07922 0
M  V30 4917 H 452.624 -4.14013 0.416228 0
M  V30 4918 H 451.5 -5.48799 0.105374 0
M  V30 4919 H 451.761 -4.27264 -1.13571 0
M  V30 4920 N 450.82 -0.546701 -1.47814 0
M  V30 4921 C 451.752 0.244196 -2.27895 0
M  V30 4922 C 452.765 0.88911 -1.36377 0
M  V30 4923 O 453.954 0.764733 -1.61289 0
M  V30 4924 C 451.054 1.36252 -3.10304 0
M  V30 4925 C 450.227 0.816382 -4.29714 0
M  V30 4926 C 449.286 1.81789 -4.93801 0
M  V30 4927 O 448.312 1.36818 -5.52512 0
M  V30 4928 N 449.514 3.15085 -4.87547 0
M  V30 4929 H 452.279 -0.442694 -2.96412 0
M  V30 4930 H 449.84 -0.382095 -1.57327 0
M  V30 4931 H 451.832 2.03102 -3.50045 0
M  V30 4932 H 450.402 1.95281 -2.44099 0
M  V30 4933 H 449.622 -0.0285981 -3.9419 0
M  V30 4934 H 450.91 0.430668 -5.06974 0
M  V30 4935 H 450.308 3.54275 -4.41028 0
M  V30 4936 H 448.865 3.77522 -5.31339 0
M  V30 4937 N 452.299 1.55045 -0.282633 0
M  V30 4938 C 453.246 2.22822 0.601566 0
M  V30 4939 C 454.216 1.20431 1.14392 0
M  V30 4940 O 455.401 1.48996 1.19184 0
M  V30 4941 C 452.541 2.95873 1.77632 0
M  V30 4942 C 451.654 4.12999 1.26711 0
M  V30 4943 C 450.789 4.73676 2.40426 0
M  V30 4944 C 449.828 5.82981 1.86545 0
M  V30 4945 N 448.965 6.3769 2.93762 0
M  V30 4946 H 453.805 2.97995 0.0169528 0
M  V30 4947 H 451.342 1.471 -0.00339964 0
M  V30 4948 H 453.3 3.36447 2.46697 0
M  V30 4949 H 451.93 2.2311 2.33285 0
M  V30 4950 H 450.982 3.77494 0.469314 0
M  V30 4951 H 452.294 4.91803 0.832518 0
M  V30 4952 H 451.448 5.17008 3.17471 0
M  V30 4953 H 450.187 3.94164 2.87203 0
M  V30 4954 H 449.192 5.39092 1.07983 0
M  V30 4955 H 450.417 6.64366 1.40694 0
M  V30 4956 H 448.363 5.61069 3.39908 0
M  V30 4957 H 448.28 7.11788 2.54744 0
M  V30 4958 H 449.548 6.8568 3.7076 0
M  V30 4959 N 453.777 0.010035 1.57597 0
M  V30 4960 C 454.707 -0.976857 2.12084 0
M  V30 4961 C 455.688 -1.35191 1.03235 0
M  V30 4962 O 456.873 -1.43389 1.3097 0
M  V30 4963 C 454.003 -2.26548 2.63236 0
M  V30 4964 C 452.957 -2.03175 3.76701 0
M  V30 4965 C 452.283 -3.38138 4.14206 0
M  V30 4966 C 453.583 -1.38625 5.03568 0
M  V30 4967 H 455.277 -0.523145 2.94794 0
M  V30 4968 H 452.823 -0.250195 1.4181 0
M  V30 4969 H 454.776 -2.95952 2.99984 0
M  V30 4970 H 453.5 -2.74051 1.77661 0
M  V30 4971 H 452.159 -1.36195 3.40362 0
M  V30 4972 H 451.807 -3.83363 3.25641 0
M  V30 4973 H 451.507 -3.23312 4.90656 0
M  V30 4974 H 453.031 -4.08841 4.53521 0
M  V30 4975 H 454.445 -1.98 5.38023 0
M  V30 4976 H 452.842 -1.34256 5.84889 0
M  V30 4977 H 453.912 -0.356722 4.83586 0
M  V30 4978 N 455.255 -1.55392 -0.262866 0
M  V30 4979 C 456.218 -1.88181 -1.30846 0
M  V30 4980 C 457.218 -0.757079 -1.41862 0
M  V30 4981 O 458.408 -1.02519 -1.40838 0
M  V30 4982 C 455.54 -2.09609 -2.68844 0
M  V30 4983 H 456.733 -2.81659 -1.02997 0
M  V30 4984 H 454.286 -1.48039 -0.501414 0
M  V30 4985 H 455.021 -1.18547 -3.01856 0
M  V30 4986 H 454.806 -2.91508 -2.62231 0
M  V30 4987 H 456.296 -2.36215 -3.44372 0
M  V30 4988 N 456.733 0.527833 -1.48498 0
M  V30 4989 C 457.961 1.30823 -1.6029 0
M  V30 4990 C 458.376 1.86945 -0.263974 0
M  V30 4991 O 457.733 1.6651 0.747034 0
M  V30 4992 C 457.784 2.45756 -2.65116 0
M  V30 4993 O 457.505 1.91946 -3.93813 0
M  V30 4994 C 459.006 3.37543 -2.87367 0
M  V30 4995 H 456.226 0.397763 -0.540394 0
M  V30 4996 H 458.77 0.636529 -1.94341 0
M  V30 4997 H 456.925 3.08806 -2.33917 0
M  V30 4998 H 457.339 2.67195 -4.51339 0
M  V30 4999 H 458.813 4.14532 -3.6451 0
M  V30 5000 H 459.29 3.92905 -1.9627 0
M  V30 5001 H 459.896 2.80283 -3.19878 0
M  V30 5002 N 458.211 1.37122 0.776871 0
M  V30 5003 C 459.451 1.33441 1.54831 0
M  V30 5004 C 459.815 -0.0818963 1.91825 0
M  V30 5005 O 461.016 -0.24338 2.67696 0
M  V30 5006 C 459.287 2.24267 2.78279 0
M  V30 5007 S 460.846 2.38389 3.68397 0
M  V30 5008 H 457.664 0.473791 0.530135 0
M  V30 5009 H 460.266 1.7282 0.913968 0
M  V30 5010 H 458.97 3.261 2.49173 0
M  V30 5011 H 458.501 1.85953 3.46677 0
M  V30 5012 H 460.516 1.59068 4.70013 0
M  V30 5013 N 459.689 -1.00246 1.21608 0
M  V30 5014 C 460.919 -1.77373 1.05935 0
M  V30 5015 C 461.327 -1.85059 -0.393686 0
M  V30 5016 O 460.67 -1.31289 -1.28487 0
M  V30 5017 C 460.732 -3.22705 1.58435 0
M  V30 5018 C 460.396 -3.38591 3.06929 0
M  V30 5019 C 461.393 -3.2667 4.04454 0
M  V30 5020 C 459.078 -3.6395 3.46187 0
M  V30 5021 C 461.072 -3.39877 5.39224 0
M  V30 5022 C 458.759 -3.768 4.81108 0
M  V30 5023 C 459.757 -3.6477 5.77436 0
M  V30 5024 O 459.445 -3.77206 7.09909 0
M  V30 5025 H 459.177 -0.56419 0.372378 0
M  V30 5026 H 461.731 -1.26971 1.61454 0
M  V30 5027 H 459.961 -3.74255 0.973147 0
M  V30 5028 H 461.65 -3.81515 1.38568 0
M  V30 5029 H 462.416 -3.06999 3.75468 0
M  V30 5030 H 458.295 -3.72395 2.71741 0
M  V30 5031 H 461.839 -3.30404 6.14393 0
M  V30 5032 H 457.736 -3.95975 5.09779 0
M  V30 5033 H 458.504 -3.94138 7.17355 0
M  V30 5034 N 461.167 -1.02423 -1.1978 0
M  V30 5035 C 462.414 -0.717988 -1.89344 0
M  V30 5036 C 462.742 0.753036 -1.79331 0
M  V30 5037 O 461.997 1.56355 -1.17692 0
M  V30 5038 C 462.296 -1.1088 -3.39765 0
M  V30 5039 C 461.962 -2.57731 -3.6998 0
M  V30 5040 C 460.624 -2.97854 -3.77937 0
M  V30 5041 C 462.976 -3.52763 -3.83677 0
M  V30 5042 C 460.304 -4.31931 -3.97054 0
M  V30 5043 C 462.656 -4.86538 -4.04306 0
M  V30 5044 C 461.32 -5.26356 -4.10494 0
M  V30 5045 H 460.59 -0.26273 -0.692859 0
M  V30 5046 H 463.237 -1.28623 -1.41875 0
M  V30 5047 H 461.542 -0.459094 -3.89101 0
M  V30 5048 H 463.239 -0.849432 -3.919 0
M  V30 5049 H 459.829 -2.25646 -3.64393 0
M  V30 5050 H 464.013 -3.2292 -3.76877 0
M  V30 5051 H 459.269 -4.62324 -4.00083 0
M  V30 5052 H 463.443 -5.60093 -4.13846 0
M  V30 5053 H 461.07 -6.3026 -4.2506 0
M  V30 5054 N 462.645 1.35699 -0.801477 0
M  V30 5055 C 463.892 1.98913 -0.379459 0
M  V30 5056 C 464.22 1.63592 1.05204 0
M  V30 5057 O 463.475 0.888563 1.74365 0
M  V30 5058 C 463.774 3.53828 -0.504041 0
M  V30 5059 C 463.44 4.09002 -1.8981 0
M  V30 5060 C 462.102 4.23783 -2.27951 0
M  V30 5061 C 464.454 4.38939 -2.81038 0
M  V30 5062 C 461.782 4.65816 -3.56696 0
M  V30 5063 C 464.134 4.82409 -4.09224 0
M  V30 5064 C 462.798 4.95395 -4.4737 0
M  V30 5065 H 462.068 0.727874 -0.138854 0
M  V30 5066 H 464.715 1.61994 -1.02128 0
M  V30 5067 H 463.02 3.91175 0.221242 0
M  V30 5068 H 464.717 4.00687 -0.158361 0
M  V30 5069 H 461.307 3.97946 -1.59176 0
M  V30 5070 H 465.491 4.27077 -2.52821 0
M  V30 5071 H 460.747 4.74059 -3.86106 0
M  V30 5072 H 464.921 5.04535 -4.80018 0
M  V30 5073 H 462.548 5.27724 -5.47185 0
M  V30 5074 N 464.123 0.554532 1.47522 0
M  V30 5075 C 465.351 0.034257 2.06872 0
M  V30 5076 C 465.766 -1.25826 1.40759 0
M  V30 5077 O 465.123 -1.75425 0.503217 0
M  V30 5078 C 465.174 -0.167827 3.6111 0
M  V30 5079 O 464.895 1.07351 4.24744 0
M  V30 5080 C 466.396 -0.72569 4.3732 0
M  V30 5081 H 463.616 0.0446275 0.669514 0
M  V30 5082 H 466.16 0.767181 1.89564 0
M  V30 5083 H 464.315 -0.850872 3.7794 0
M  V30 5084 H 464.729 0.869563 5.17242 0
M  V30 5085 H 466.203 -0.816394 5.45929 0
M  V30 5086 H 466.68 -1.73635 4.0342 0
M  V30 5087 H 467.286 -0.0784292 4.25228 0
M  V30 5088 N 465.601 -1.54893 0.290851 0
M  V30 5089 C 466.847 -2.0023 -0.321867 0
M  V30 5090 C 467.18 -1.179 -1.54316 0
M  V30 5091 O 466.455 -0.25293 -1.92848 0
M  V30 5092 C 466.738 -3.53456 -0.688515 0
M  V30 5093 C 466.591 -4.46532 0.541209 0
M  V30 5094 C 467.91 -4.13057 -1.51895 0
M  V30 5095 H 465.029 -0.727891 -0.115515 0
M  V30 5096 H 467.671 -1.85722 0.400931 0
M  V30 5097 H 465.821 -3.6595 -1.30433 0
M  V30 5098 H 467.493 -4.4596 1.17973 0
M  V30 5099 H 465.736 -4.17545 1.17636 0
M  V30 5100 H 466.407 -5.51475 0.240675 0
M  V30 5101 H 468.883 -4.03937 -0.99872 0
M  V30 5102 H 467.759 -5.20448 -1.74429 0
M  V30 5103 H 468.02 -3.64284 -2.50498 0
M  V30 5104 N 467.08 -0.0183926 -1.57589 0
M  V30 5105 C 467.99 0.982943 -2.13015 0
M  V30 5106 C 469.006 1.36443 -1.07979 0
M  V30 5107 O 470.182 1.44802 -1.3998 0
M  V30 5108 C 467.247 2.25024 -2.63752 0
M  V30 5109 C 466.308 1.93018 -3.83461 0
M  V30 5110 C 465.541 3.13706 -4.31769 0
M  V30 5111 O 465.764 4.2601 -3.79305 0
M  V30 5112 O 464.698 2.96629 -5.23732 0
M  V30 5113 H 468.524 0.541709 -2.9883 0
M  V30 5114 H 466.109 0.201565 -1.48034 0
M  V30 5115 H 467.991 2.99441 -2.96502 0
M  V30 5116 H 466.666 2.68349 -1.81026 0
M  V30 5117 H 465.573 1.16019 -3.55655 0
M  V30 5118 H 466.906 1.54516 -4.67317 0
M  V30 5119 N 468.558 1.5553 0.254621 0
M  V30 5120 C 469.805 1.77 0.983736 0
M  V30 5121 C 470.133 0.58133 1.85609 0
M  V30 5122 O 469.388 -0.435621 1.9079 0
M  V30 5123 C 469.687 3.03891 1.88109 0
M  V30 5124 C 469.353 4.35597 1.16472 0
M  V30 5125 C 468.015 4.7139 0.966714 0
M  V30 5126 C 470.367 5.1705 0.656387 0
M  V30 5127 C 467.695 5.86176 0.247942 0
M  V30 5128 C 470.047 6.32581 -0.0488807 0
M  V30 5129 C 468.711 6.67 -0.258438 0
M  V30 5130 H 467.981 0.647688 0.359974 0
M  V30 5131 H 470.628 1.89802 0.254463 0
M  V30 5132 H 468.933 2.86068 2.67717 0
M  V30 5133 H 470.63 3.17701 2.44677 0
M  V30 5134 H 467.22 4.07475 1.32899 0
M  V30 5135 H 471.404 4.8986 0.796933 0
M  V30 5136 H 466.66 6.11354 0.075035 0
M  V30 5137 H 470.834 6.94942 -0.450444 0
M  V30 5138 H 468.461 7.55793 -0.817358 0
M  V30 5139 N 470.036 -0.519951 1.48776 0
M  V30 5140 C 471.284 -1.2727 1.56993 0
M  V30 5141 C 471.605 -1.9339 0.25004 0
M  V30 5142 O 470.875 -1.81822 -0.729216 0
M  V30 5143 H 469.455 -0.472732 0.578389 0
M  V30 5144 H 472.117 -0.604234 1.85297 0
M  V30 5145 H 471.213 -2.04669 2.3562 0
M  V30 5146 N 471.514 -1.37532 -0.769588 0
M  V30 5147 C 472.444 -1.36172 -1.89682 0
M  V30 5148 C 473.425 -0.23001 -1.68538 0
M  V30 5149 O 474.61 -0.43069 -1.89364 0
M  V30 5150 C 471.74 -1.1701 -3.26995 0
M  V30 5151 C 470.694 -2.27216 -3.62708 0
M  V30 5152 C 470.02 -1.93174 -4.98586 0
M  V30 5153 C 471.32 -3.6941 -3.69234 0
M  V30 5154 H 473.014 -2.30499 -1.91078 0
M  V30 5155 H 470.56 -1.10953 -0.917902 0
M  V30 5156 H 472.513 -1.14688 -4.05493 0
M  V30 5157 H 471.237 -0.191395 -3.26039 0
M  V30 5158 H 469.896 -2.28697 -2.86519 0
M  V30 5159 H 469.544 -0.938281 -4.94171 0
M  V30 5160 H 469.244 -2.66973 -5.23449 0
M  V30 5161 H 470.768 -1.92443 -5.79481 0
M  V30 5162 H 472.182 -3.70047 -4.37879 0
M  V30 5163 H 470.579 -4.4228 -4.05597 0
M  V30 5164 H 471.649 -4.0288 -2.69844 0
M  V30 5165 N 472.992 0.995999 -1.22138 0
M  V30 5166 C 474.232 1.75032 -1.05561 0
M  V30 5167 C 474.596 1.87729 0.402698 0
M  V30 5168 O 475.797 2.59813 0.689234 0
M  V30 5169 C 474.068 3.11973 -1.74379 0
M  V30 5170 S 475.627 4.03182 -1.73175 0
M  V30 5171 H 472.445 0.602137 -0.37809 0
M  V30 5172 H 475.047 1.19107 -1.55028 0
M  V30 5173 H 473.751 3.00371 -2.79652 0
M  V30 5174 H 473.282 3.7297 -1.25128 0
M  V30 5175 H 475.297 4.90043 -0.77923 0
M  V30 5176 N 474.47 1.03057 1.19235 0
M  V30 5177 C 475.417 0.612832 2.22515 0
M  V30 5178 C 476.387 -0.374224 1.61829 0
M  V30 5179 O 477.572 -0.270501 1.88873 0
M  V30 5180 C 474.712 -0.028475 3.45088 0
M  V30 5181 C 473.825 1.00483 4.20151 0
M  V30 5182 C 472.96 0.333102 5.30155 0
M  V30 5183 C 471.999 1.3522 5.96977 0
M  V30 5184 N 471.136 0.70616 6.9854 0
M  V30 5185 H 475.976 1.49812 2.57605 0
M  V30 5186 H 473.513 0.749658 1.26564 0
M  V30 5187 H 475.471 -0.417548 4.15105 0
M  V30 5188 H 474.101 -0.877334 3.10649 0
M  V30 5189 H 473.153 1.51194 3.49062 0
M  V30 5190 H 474.465 1.77929 4.65986 0
M  V30 5191 H 473.619 -0.110725 6.06599 0
M  V30 5192 H 472.358 -0.473547 4.85396 0
M  V30 5193 H 471.363 1.80627 5.19282 0
M  V30 5194 H 472.588 2.16037 6.4382 0
M  V30 5195 H 470.534 -0.0803667 6.55951 0
M  V30 5196 H 470.451 1.41848 7.42573 0
M  V30 5197 H 471.719 0.286391 7.78974 0
M  V30 5198 N 475.948 -1.35272 0.808662 0
M  V30 5199 C 476.88 -2.28507 0.178149 0
M  V30 5200 C 477.893 -1.50377 -0.623754 0
M  V30 5201 O 479.082 -1.72583 -0.455774 0
M  V30 5202 C 476.182 -3.30038 -0.769959 0
M  V30 5203 C 475.355 -4.37398 -0.0139749 0
M  V30 5204 C 474.414 -5.18775 -0.880875 0
M  V30 5205 O 473.44 -5.68236 -0.331059 0
M  V30 5206 N 474.642 -5.37087 -2.20267 0
M  V30 5207 H 477.407 -2.83255 0.979106 0
M  V30 5208 H 474.968 -1.47643 0.664308 0
M  V30 5209 H 476.96 -3.81371 -1.35418 0
M  V30 5210 H 475.53 -2.75789 -1.47171 0
M  V30 5211 H 474.75 -3.86971 0.751468 0
M  V30 5212 H 476.038 -5.06268 0.506965 0
M  V30 5213 H 475.436 -4.9855 -2.67328 0
M  V30 5214 H 473.993 -5.91593 -2.73608 0
M  V30 5215 N 477.426 -0.562348 -1.47226 0
M  V30 5216 C 478.703 0.0256985 -1.95583 0
M  V30 5217 C 479.083 1.48032 -1.50498 0
M  V30 5218 O 478.431 2.15973 -0.746181 0
M  V30 5219 C 478.641 -0.125129 -3.48776 0
M  V30 5220 C 479.989 0.0175728 -4.24596 0
M  V30 5221 O 481.013 -0.0529341 -3.56161 0
M  V30 5222 O 479.872 0.170145 -5.46235 0
M  V30 5223 H 476.966 0.0612565 -0.824728 0
M  V30 5224 H 479.512 -0.629233 -1.57603 0
M  V30 5225 H 478.284 -1.13715 -3.74412 0
M  V30 5226 H 477.907 0.567178 -3.93534 0
M  V30 5227 N 478.904 1.54736 -0.299062 0
M  V30 5228 C 480.152 1.99706 0.31017 0
M  V30 5229 C 480.473 1.18896 1.54559 0
M  V30 5230 O 479.743 0.284445 1.93824 0
M  V30 5231 H 478.323 0.737686 0.117596 0
M  V30 5232 H 480.985 1.9054 -0.409943 0
M  V30 5233 H 480.081 3.06596 0.58355 0
M  V30 5234 N 480.382 0.0267497 1.57577 0
M  V30 5235 C 481.314 -0.984594 2.06974 0
M  V30 5236 C 482.327 -1.29032 0.992705 0
M  V30 5237 O 483.516 -1.25539 1.26895 0
M  V30 5238 C 480.616 -2.31262 2.47732 0
M  V30 5239 C 479.789 -2.1924 3.78487 0
M  V30 5240 C 478.848 -3.34956 4.05821 0
M  V30 5241 O 477.874 -3.11948 4.76106 0
M  V30 5242 N 479.076 -4.58672 3.55809 0
M  V30 5243 H 481.841 -0.563143 2.94362 0
M  V30 5244 H 479.402 -0.160061 1.61107 0
M  V30 5245 H 481.394 -3.07496 2.63112 0
M  V30 5246 H 479.964 -2.65056 1.65723 0
M  V30 5247 H 479.184 -1.27747 3.72927 0
M  V30 5248 H 480.472 -2.08409 4.64158 0
M  V30 5249 H 479.87 -4.8026 2.98942 0
M  V30 5250 H 478.427 -5.32083 3.76472 0
M  V30 5251 N 481.861 -1.55662 -0.24637 0
M  V30 5252 C 482.791 -1.93377 -1.30873 0
M  V30 5253 C 483.772 -0.798773 -1.50179 0
M  V30 5254 O 484.957 -1.0591 -1.62778 0
M  V30 5255 C 482.087 -2.22893 -2.66338 0
M  V30 5256 C 481.041 -3.38649 -2.61727 0
M  V30 5257 C 480.367 -3.53708 -4.00992 0
M  V30 5258 C 481.667 -4.74323 -2.18666 0
M  V30 5259 H 483.361 -2.82363 -0.995552 0
M  V30 5260 H 480.907 -1.35854 -0.477464 0
M  V30 5261 H 482.86 -2.47866 -3.40794 0
M  V30 5262 H 481.584 -1.30733 -2.99293 0
M  V30 5263 H 480.243 -3.13685 -1.89729 0
M  V30 5264 H 479.891 -2.58967 -4.31214 0
M  V30 5265 H 479.591 -4.31551 -3.98795 0
M  V30 5266 H 481.115 -3.81003 -4.77147 0
M  V30 5267 H 482.529 -4.98665 -2.82854 0
M  V30 5268 H 480.926 -5.55273 -2.27579 0
M  V30 5269 H 481.996 -4.71349 -1.13834 0
M  V30 5270 N 483.339 0.512053 -1.4905 0
M  V30 5271 C 484.755 0.84224 -1.35567 0
M  V30 5272 C 484.955 1.97878 -0.380319 0
M  V30 5273 O 484.011 2.51769 0.19201 0
M  V30 5274 C 485.324 1.19286 -2.76028 0
M  V30 5275 C 486.872 1.30171 -2.84648 0
M  V30 5276 C 487.347 1.68568 -4.25851 0
M  V30 5277 N 488.838 1.75638 -4.28609 0
M  V30 5278 C 489.573 2.06769 -5.34821 0
M  V30 5279 N 489.069 2.36201 -6.51292 0
M  V30 5280 N 490.862 2.07927 -5.22229 0
M  V30 5281 H 483.013 -0.237574 -2.11067 0
M  V30 5282 H 485.276 -0.0436747 -0.946993 0
M  V30 5283 H 484.982 0.431199 -3.49047 0
M  V30 5284 H 484.856 2.13889 -3.10695 0
M  V30 5285 H 487.243 2.05411 -2.11873 0
M  V30 5286 H 487.324 0.336457 -2.53578 0
M  V30 5287 H 486.968 0.938824 -4.99148 0
M  V30 5288 H 486.898 2.66174 -4.54377 0
M  V30 5289 H 489.389 1.55097 -3.44606 0
M  V30 5290 H 489.702 2.59112 -7.28066 0
M  V30 5291 H 488.047 2.33681 -6.54536 0
M  V30 5292 H 491.238 1.84403 -4.30248 0
M  V30 5293 H 491.411 2.31856 -6.05101 0
M  V30 5294 N 484.817 1.37938 0.762283 0
M  V30 5295 C 486.063 1.33866 1.52341 0
M  V30 5296 C 486.396 -0.0738961 1.94059 0
M  V30 5297 O 485.671 -1.03326 1.64785 0
M  V30 5298 C 485.954 2.28644 2.78197 0
M  V30 5299 C 485.807 3.78722 2.42672 0
M  V30 5300 C 487.126 2.21702 3.80179 0
M  V30 5301 H 484.245 0.487593 0.55265 0
M  V30 5302 H 486.887 1.68717 0.873767 0
M  V30 5303 H 485.037 1.99055 3.33631 0
M  V30 5304 H 486.709 4.18948 1.93081 0
M  V30 5305 H 484.952 3.96827 1.75244 0
M  V30 5306 H 485.623 4.40486 3.3268 0
M  V30 5307 H 488.099 2.47805 3.34263 0
M  V30 5308 H 486.975 2.90143 4.65949 0
M  V30 5309 H 487.236 1.21301 4.25133 0
M  V30 5310 N 486.295 -0.989507 1.22664 0
M  V30 5311 C 487.542 -1.72953 1.05325 0
M  V30 5312 C 487.87 -1.90104 -0.411168 0
M  V30 5313 O 487.125 -1.44386 -1.32103 0
M  V30 5314 C 487.424 -3.13649 1.71345 0
M  V30 5315 C 487.09 -3.16403 3.21248 0
M  V30 5316 C 485.752 -3.16862 3.62149 0
M  V30 5317 C 488.104 -3.12428 4.17179 0
M  V30 5318 C 485.432 -3.11051 4.97458 0
M  V30 5319 C 487.784 -3.08159 5.52468 0
M  V30 5320 C 486.448 -3.06935 5.92746 0
M  V30 5321 H 485.718 -0.632881 0.385412 0
M  V30 5322 H 488.365 -1.15863 1.52473 0
M  V30 5323 H 486.67 -3.74069 1.16532 0
M  V30 5324 H 488.367 -3.69658 1.55416 0
M  V30 5325 H 484.957 -3.16798 2.88682 0
M  V30 5326 H 489.141 -3.11221 3.86595 0
M  V30 5327 H 484.397 -3.0845 5.27891 0
M  V30 5328 H 488.571 -3.04039 6.26525 0
M  V30 5329 H 486.198 -3.02186 6.97558 0
M  V30 5330 N 487.773 -1.03688 -1.18687 0
M  V30 5331 C 489.021 -0.736572 -1.88199 0
M  V30 5332 C 489.342 0.737665 -1.80509 0
M  V30 5333 O 488.612 1.53204 -1.22088 0
M  V30 5334 H 487.192 -0.269466 -0.696704 0
M  V30 5335 H 489.854 -1.31282 -1.44052 0
M  V30 5336 H 488.95 -1.03802 -2.94332 0
M  V30 5337 N 489.251 1.34841 -0.815825 0
M  V30 5338 C 490.214 2.27959 -0.238185 0
M  V30 5339 C 491.214 1.49983 0.579816 0
M  V30 5340 O 492.404 1.69617 0.396953 0
M  V30 5341 C 489.536 3.34314 0.666876 0
M  V30 5342 H 490.729 2.80558 -1.05958 0
M  V30 5343 H 488.282 1.44852 -0.587156 0
M  V30 5344 H 489.017 2.86916 1.5116 0
M  V30 5345 H 488.802 3.92014 0.0819106 0
M  V30 5346 H 490.292 4.0379 1.06506 0
M  V30 5347 N 490.729 0.570148 1.46925 0
M  V30 5348 C 491.977 0.0508523 2.02036 0
M  V30 5349 C 492.298 -1.30885 1.44548 0
M  V30 5350 O 491.568 -1.85647 0.625453 0
M  V30 5351 H 490.148 0.0158088 0.746833 0
M  V30 5352 H 492.81 0.743086 1.80178 0
M  V30 5353 H 491.906 -0.027575 3.12088 0
M  V30 5354 N 492.207 -1.54576 0.307264 0
M  V30 5355 C 493.137 -2.26708 -0.55907 0
M  V30 5356 C 494.118 -1.26893 -1.1328 0
M  V30 5357 O 495.303 -1.55677 -1.16097 0
M  V30 5358 C 492.433 -3.01259 -1.72801 0
M  V30 5359 C 491.387 -4.08275 -1.28435 0
M  V30 5360 C 490.713 -4.70575 -2.53895 0
M  V30 5361 C 492.013 -5.2068 -0.411038 0
M  V30 5362 H 493.707 -2.9937 0.042576 0
M  V30 5363 H 491.253 -1.43983 0.0219173 0
M  V30 5364 H 493.206 -3.50444 -2.34023 0
M  V30 5365 H 491.93 -2.26187 -2.356 0
M  V30 5366 H 490.589 -3.59949 -0.695161 0
M  V30 5367 H 490.237 -3.92136 -3.15021 0
M  V30 5368 H 489.937 -5.42854 -2.24908 0
M  V30 5369 H 491.461 -5.22527 -3.15908 0
M  V30 5370 H 492.875 -5.65721 -0.929097 0
M  V30 5371 H 491.272 -5.99716 -0.214664 0
M  V30 5372 H 492.342 -4.81629 0.562287 0
M  V30 5373 N 493.685 -0.035106 -1.57561 0
M  V30 5374 C 494.615 0.942993 -2.13612 0
M  V30 5375 C 495.596 1.33531 -1.05373 0
M  V30 5376 O 496.781 1.41287 -1.33235 0
M  V30 5377 C 493.911 2.22332 -2.66807 0
M  V30 5378 C 492.865 1.97156 -3.79886 0
M  V30 5379 C 492.191 3.31506 -4.19533 0
M  V30 5380 C 493.491 1.30596 -5.05709 0
M  V30 5381 H 495.185 0.476179 -2.95589 0
M  V30 5382 H 492.731 0.227602 -1.4219 0
M  V30 5383 H 494.684 2.91142 -3.04654 0
M  V30 5384 H 493.408 2.7119 -1.81999 0
M  V30 5385 H 492.067 1.30763 -3.42486 0
M  V30 5386 H 491.715 3.78134 -3.31698 0
M  V30 5387 H 491.415 3.15465 -4.95738 0
M  V30 5388 H 492.939 4.01574 -4.59968 0
M  V30 5389 H 494.353 1.89416 -5.41105 0
M  V30 5390 H 492.75 1.24934 -5.86951 0
M  V30 5391 H 493.82 0.279742 -4.84092 0
M  V30 5392 N 495.163 1.55791 0.238111 0
M  V30 5393 C 496.388 1.8244 0.986432 0
M  V30 5394 C 496.813 0.613314 1.7782 0
M  V30 5395 O 496.171 -0.437767 1.75935 0
M  V30 5396 C 496.219 3.06917 1.893 0
M  V30 5397 O 495.323 2.84449 2.98601 0
M  V30 5398 H 494.664 0.601975 0.280218 0
M  V30 5399 H 497.194 2.02987 0.256437 0
M  V30 5400 H 497.204 3.36583 2.30598 0
M  V30 5401 H 495.879 3.947 1.31091 0
M  V30 5402 H 494.456 2.65972 2.61368 0
M  V30 5403 N 496.642 -0.504142 1.49319 0
M  V30 5404 C 497.867 -1.28729 1.62615 0
M  V30 5405 C 498.292 -1.85752 0.296309 0
M  V30 5406 O 497.65 -1.65704 -0.735649 0
M  V30 5407 C 497.698 -2.39561 2.69524 0
M  V30 5408 O 496.802 -3.43324 2.28478 0
M  V30 5409 H 496.143 -0.380172 0.544395 0
M  V30 5410 H 498.673 -0.603872 1.95485 0
M  V30 5411 H 498.683 -2.8537 2.91595 0
M  V30 5412 H 497.358 -1.97423 3.66056 0
M  V30 5413 H 495.935 -3.03455 2.16725 0
M  V30 5414 N 498.12 -1.38341 -0.754957 0
M  V30 5415 C 499.369 -1.33791 -1.5094 0
M  V30 5416 C 499.682 0.0699267 -1.95475 0
M  V30 5417 O 500.888 0.237956 -2.70455 0
M  V30 5418 C 499.344 -2.34934 -2.72643 0
M  V30 5419 C 498.952 -3.81332 -2.35138 0
M  V30 5420 C 500.696 -2.39425 -3.50536 0
M  V30 5421 C 498.603 -4.74164 -3.53444 0
M  V30 5422 H 497.533 -0.497314 -0.566741 0
M  V30 5423 H 500.184 -1.63888 -0.825403 0
M  V30 5424 H 498.566 -1.97878 -3.43017 0
M  V30 5425 H 499.74 -4.27319 -1.7244 0
M  V30 5426 H 498.055 -3.79946 -1.70382 0
M  V30 5427 H 500.652 -3.0598 -4.38498 0
M  V30 5428 H 500.995 -1.41278 -3.91594 0
M  V30 5429 H 501.528 -2.75274 -2.87174 0
M  V30 5430 H 498.267 -5.73501 -3.17453 0
M  V30 5431 H 497.787 -4.3287 -4.15191 0
M  V30 5432 H 499.466 -4.92111 -4.20043 0
M  V30 5433 N 499.598 0.982988 -1.23187 0
M  V30 5434 C 500.823 1.76455 -1.08988 0
M  V30 5435 C 501.248 1.84726 0.354691 0
M  V30 5436 O 500.606 1.30699 1.25649 0
M  V30 5437 C 500.654 3.17094 -1.71708 0
M  V30 5438 O 499.758 4.00648 -0.977477 0
M  V30 5439 H 499.099 0.542988 -0.382177 0
M  V30 5440 H 501.629 1.23413 -1.63188 0
M  V30 5441 H 501.639 3.67684 -1.76841 0
M  V30 5442 H 500.314 3.10389 -2.76823 0
M  V30 5443 H 498.891 3.59161 -1.0029 0
M  V30 5444 N 501.076 1.04316 1.18135 0
M  V30 5445 C 501.986 0.646876 2.25505 0
M  V30 5446 C 503.002 -0.328008 1.7088 0
M  V30 5447 O 504.178 -0.182309 2.00573 0
M  V30 5448 C 501.243 0.0185664 3.46695 0
M  V30 5449 C 500.304 1.04277 4.16443 0
M  V30 5450 C 499.537 0.444352 5.31847 0
M  V30 5451 O 499.76 -0.748735 5.65465 0
M  V30 5452 O 498.694 1.17428 5.90334 0
M  V30 5453 H 502.52 1.54147 2.61672 0
M  V30 5454 H 500.105 0.814188 1.25265 0
M  V30 5455 H 501.987 -0.331068 4.20097 0
M  V30 5456 H 500.662 -0.849814 3.12346 0
M  V30 5457 H 499.569 1.44425 3.45098 0
M  V30 5458 H 500.902 1.882 4.54798 0
M  V30 5459 N 502.554 -1.34406 0.822964 0
M  V30 5460 C 503.484 -2.32052 0.259608 0
M  V30 5461 C 504.465 -1.58243 -0.623961 0
M  V30 5462 O 505.65 -1.86224 -0.55083 0
M  V30 5463 C 502.78 -3.42434 -0.579314 0
M  V30 5464 C 501.734 -4.27499 0.20712 0
M  V30 5465 C 501.06 -5.29349 -0.754547 0
M  V30 5466 C 502.36 -5.02758 1.41533 0
M  V30 5467 H 504.054 -2.79418 1.07545 0
M  V30 5468 H 501.6 -1.34338 0.518593 0
M  V30 5469 H 503.553 -4.0976 -0.983612 0
M  V30 5470 H 502.277 -2.93717 -1.4282 0
M  V30 5471 H 500.936 -3.61776 0.592787 0
M  V30 5472 H 500.584 -4.76895 -1.59939 0
M  V30 5473 H 500.284 -5.8714 -0.232561 0
M  V30 5474 H 501.808 -5.99544 -1.1567 0
M  V30 5475 H 503.222 -5.62938 1.08504 0
M  V30 5476 H 501.619 -5.70123 1.87296 0
M  V30 5477 H 502.689 -4.32451 2.1935 0
M  V30 5478 N 504.032 -0.577932 -1.46621 0
M  V30 5479 C 504.979 0.158048 -2.30258 0
M  V30 5480 C 505.949 0.888669 -1.40328 0
M  V30 5481 O 507.134 0.880283 -1.6928 0
M  V30 5482 C 504.274 1.16884 -3.24703 0
M  V30 5483 C 503.387 0.442163 -4.29731 0
M  V30 5484 C 502.522 1.44007 -5.11308 0
M  V30 5485 C 501.561 0.69952 -6.0809 0
M  V30 5486 N 500.698 1.64525 -6.82551 0
M  V30 5487 H 505.538 -0.561242 -2.92667 0
M  V30 5488 H 503.075 -0.288591 -1.44241 0
M  V30 5489 H 505.033 1.7677 -3.779 0
M  V30 5490 H 503.663 1.85591 -2.64113 0
M  V30 5491 H 502.715 -0.271632 -3.79429 0
M  V30 5492 H 504.027 -0.136992 -4.98612 0
M  V30 5493 H 503.181 2.11186 -5.68758 0
M  V30 5494 H 501.92 2.05315 -4.42377 0
M  V30 5495 H 500.925 0.0139217 -5.49798 0
M  V30 5496 H 502.15 0.091894 -6.79038 0
M  V30 5497 H 500.096 2.24653 -6.16334 0
M  V30 5498 H 500.013 1.11878 -7.47676 0
M  V30 5499 H 501.281 2.30754 -7.44562 0
M  V30 5500 N 505.51 1.54411 -0.315457 0
M  V30 5501 C 506.46 2.20772 0.569549 0
M  V30 5502 C 507.444 1.18551 1.08787 0
M  V30 5503 O 508.636 1.44213 1.02624 0
M  V30 5504 C 505.765 2.96293 1.73394 0
M  V30 5505 C 504.851 4.05844 1.2309 0
M  V30 5506 N 505.242 5.03822 0.446927 0
M  V30 5507 C 503.54 4.19648 1.51035 0
M  V30 5508 C 504.241 5.8143 0.17725 0
M  V30 5509 N 503.217 5.38245 0.761118 0
M  V30 5510 H 507.019 2.93877 -0.0368076 0
M  V30 5511 H 504.533 1.61949 -0.120915 0
M  V30 5512 H 506.53 3.42313 2.37965 0
M  V30 5513 H 505.19 2.24708 2.34386 0
M  V30 5514 H 506.201 5.17821 0.0905027 0
M  V30 5515 H 502.878 3.59274 2.1267 0
M  V30 5516 H 504.268 6.70369 -0.45335 0
M  V30 5517 N 506.988 0.0434614 1.5754 0
M  V30 5518 C 507.951 -0.918696 2.09982 0
M  V30 5519 C 508.951 -1.24488 1.01781 0
M  V30 5520 O 510.141 -1.18284 1.27885 0
M  V30 5521 C 507.273 -2.23093 2.57764 0
M  V30 5522 H 508.466 -0.464229 2.96285 0
M  V30 5523 H 506.019 -0.204818 1.54952 0
M  V30 5524 H 506.754 -2.73137 1.74832 0
M  V30 5525 H 506.539 -2.00724 3.36827 0
M  V30 5526 H 508.029 -2.92028 2.98512 0
M  V30 5527 N 508.466 -1.55915 -0.229846 0
M  V30 5528 C 509.396 -1.94754 -1.28815 0
M  V30 5529 C 510.377 -0.814657 -1.49323 0
M  V30 5530 O 511.562 -1.07631 -1.61645 0
M  V30 5531 C 508.692 -2.25705 -2.63959 0
M  V30 5532 C 507.646 -3.41406 -2.5812 0
M  V30 5533 C 506.972 -3.57941 -3.97218 0
M  V30 5534 C 508.272 -4.76616 -2.13623 0
M  V30 5535 H 509.966 -2.83404 -0.965547 0
M  V30 5536 H 507.512 -1.36353 -0.463028 0
M  V30 5537 H 509.465 -2.51467 -3.38146 0
M  V30 5538 H 508.189 -1.339 -2.9789 0
M  V30 5539 H 506.848 -3.1568 -1.86391 0
M  V30 5540 H 506.496 -2.63526 -4.28443 0
M  V30 5541 H 506.196 -4.35757 -3.94195 0
M  V30 5542 H 507.72 -3.86042 -4.73079 0
M  V30 5543 H 509.134 -5.01637 -2.77549 0
M  V30 5544 H 507.531 -5.57655 -2.21677 0
M  V30 5545 H 508.601 -4.7253 -1.08829 0
M  V30 5546 N 509.944 0.496216 -1.49584 0
M  V30 5547 C 511.169 1.27865 -1.63295 0
M  V30 5548 C 511.594 1.85592 -0.306156 0
M  V30 5549 O 510.952 1.66092 0.726851 0
M  V30 5550 C 511 2.38128 -2.7079 0
M  V30 5551 O 510.104 3.42108 -2.30296 0
M  V30 5552 H 509.445 0.377279 -0.546403 0
M  V30 5553 H 511.975 0.593497 -1.95803 0
M  V30 5554 H 511.985 2.8382 -2.93104 0
M  V30 5555 H 510.66 1.95479 -3.67098 0
M  V30 5556 H 509.237 3.02301 -2.18331 0
M  V30 5557 N 511.423 1.38739 0.74761 0
M  V30 5558 C 512.671 1.35007 1.50391 0
M  V30 5559 C 512.992 -0.0574274 1.94915 0
M  V30 5560 O 512.262 -1.00628 1.6808 0
M  V30 5561 H 510.842 0.496784 0.557866 0
M  V30 5562 H 513.504 1.73479 0.888319 0
M  V30 5563 H 512.6 2.00474 2.392 0
M  V30 5564 N 512.901 -0.976442 1.23707 0
M  V30 5565 C 513.851 -2.0544 0.988851 0
M  V30 5566 C 514.835 -1.60762 -0.0665901 0
M  V30 5567 O 516.027 -1.76396 0.14604 0
M  V30 5568 C 513.156 -3.38258 0.586223 0
M  V30 5569 C 512.242 -3.89523 1.67728 0
M  V30 5570 N 512.633 -4.13823 2.90834 0
M  V30 5571 C 510.931 -4.18097 1.55277 0
M  V30 5572 C 511.632 -4.55731 3.61502 0
M  V30 5573 N 510.608 -4.60394 2.8903 0
M  V30 5574 H 514.41 -2.22191 1.92376 0
M  V30 5575 H 511.924 -1.15954 1.13704 0
M  V30 5576 H 513.921 -4.15075 0.389658 0
M  V30 5577 H 512.581 -3.22898 -0.341594 0
M  V30 5578 H 513.592 -4.01529 3.271 0
M  V30 5579 H 510.269 -4.11719 0.692351 0
M  V30 5580 H 511.659 -4.83018 4.67059 0
M  V30 5581 N 514.379 -1.04941 -1.1758 0
M  V30 5582 C 515.342 -0.652456 -2.19717 0
M  V30 5583 C 516.342 0.294745 -1.58076 0
M  V30 5584 O 517.532 0.0789579 -1.74021 0
M  V30 5585 C 514.664 0.0420712 -3.40874 0
M  V30 5586 H 515.857 -1.55642 -2.5635 0
M  V30 5587 H 513.41 -0.842995 -1.31618 0
M  V30 5588 H 514.145 0.95943 -3.09783 0
M  V30 5589 H 513.93 -0.638844 -3.86861 0
M  V30 5590 H 515.42 0.306 -4.16477 0
M  V30 5591 N 515.857 1.33968 -0.830081 0
M  V30 5592 C 516.804 2.29387 -0.255008 0
M  V30 5593 C 517.774 1.53923 0.624243 0
M  V30 5594 O 518.959 1.82262 0.564372 0
M  V30 5595 C 516.099 3.4034 0.571209 0
M  V30 5596 C 515.212 4.30729 -0.331083 0
M  V30 5597 C 514.347 5.2879 0.505389 0
M  V30 5598 C 513.386 6.10819 -0.395843 0
M  V30 5599 N 512.523 7.00948 0.401979 0
M  V30 5600 H 517.363 2.77972 -1.07404 0
M  V30 5601 H 514.9 1.36785 -0.541133 0
M  V30 5602 H 516.858 4.03361 1.06562 0
M  V30 5603 H 515.488 2.9297 1.35529 0
M  V30 5604 H 514.54 3.68507 -0.943759 0
M  V30 5605 H 515.852 4.88181 -1.02377 0
M  V30 5606 H 515.006 5.97297 1.06399 0
M  V30 5607 H 513.745 4.71894 1.23155 0
M  V30 5608 H 512.75 5.41238 -0.966529 0
M  V30 5609 H 513.975 6.69797 -1.12023 0
M  V30 5610 H 511.921 6.46512 1.11168 0
M  V30 5611 H 511.838 7.55643 -0.232167 0
M  V30 5612 H 513.106 7.73774 0.943102 0
M  V30 5613 N 517.335 0.585699 1.46312 0
M  V30 5614 C 518.581 0.0725284 2.0267 0
M  V30 5615 C 518.914 -1.28523 1.45586 0
M  V30 5616 O 518.189 -1.84283 0.622101 0
M  V30 5617 C 518.472 0.0099788 3.60099 0
M  V30 5618 C 518.325 1.39685 4.27561 0
M  V30 5619 C 519.644 -0.689117 4.34671 0
M  V30 5620 H 516.763 0.0278307 0.736474 0
M  V30 5621 H 519.405 0.753472 1.74421 0
M  V30 5622 H 517.555 -0.56992 3.84297 0
M  V30 5623 H 519.227 2.02215 4.14617 0
M  V30 5624 H 517.47 1.96374 3.86807 0
M  V30 5625 H 518.141 1.30553 5.36339 0
M  V30 5626 H 520.617 -0.196446 4.15636 0
M  V30 5627 H 519.493 -0.701921 5.44393 0
M  V30 5628 H 519.754 -1.75101 4.05946 0
M  V30 5629 N 518.813 -1.54241 0.323641 0
M  V30 5630 C 519.76 -2.24339 -0.542277 0
M  V30 5631 C 520.73 -1.23421 -1.11159 0
M  V30 5632 O 521.915 -1.52104 -1.15192 0
M  V30 5633 C 519.055 -3.00479 -1.69725 0
M  V30 5634 C 518.168 -4.16214 -1.15716 0
M  V30 5635 C 517.303 -4.79884 -2.27783 0
M  V30 5636 C 516.342 -5.87722 -1.71023 0
M  V30 5637 N 515.479 -6.45254 -2.76752 0
M  V30 5638 H 520.319 -2.97935 0.0620613 0
M  V30 5639 H 517.856 -1.47039 0.0423993 0
M  V30 5640 H 519.814 -3.42869 -2.3769 0
M  V30 5641 H 518.444 -2.29217 -2.27288 0
M  V30 5642 H 517.496 -3.78605 -0.369063 0
M  V30 5643 H 518.808 -4.93838 -0.701832 0
M  V30 5644 H 517.962 -5.25243 -3.03651 0
M  V30 5645 H 516.701 -4.01641 -2.76652 0
M  V30 5646 H 515.706 -5.41765 -0.936518 0
M  V30 5647 H 516.931 -6.67863 -1.2303 0
M  V30 5648 H 514.877 -5.69884 -3.24912 0
M  V30 5649 H 514.794 -7.18292 -2.35782 0
M  V30 5650 H 516.062 -6.95269 -3.5245 0
M  V30 5651 N 520.291 -0.0518155 -1.57515 0
M  V30 5652 C 521.702 0.483787 -1.80323 0
M  V30 5653 C 522.053 1.70879 -0.964099 0
M  V30 5654 O 521.178 2.15643 -0.180872 0
M  V30 5655 C 521.773 0.884459 -3.27052 0
M  V30 5656 C 520.332 1.36504 -3.50776 0
M  V30 5657 C 519.479 0.340539 -2.75201 0
M  V30 5658 H 522.43 -0.277691 -1.56252 0
M  V30 5659 H 522.451 1.74733 -3.38007 0
M  V30 5660 H 521.963 -0.00731093 -3.88099 0
M  V30 5661 H 520.064 2.27598 -2.95009 0
M  V30 5662 H 520.177 1.35675 -4.59488 0
M  V30 5663 H 518.541 0.81356 -2.41357 0
M  V30 5664 H 519.324 -0.543156 -3.38976 0
M  V30 5665 N 521.769 1.56035 0.221574 0
M  V30 5666 C 523.016 1.79047 0.94597 0
M  V30 5667 C 523.344 0.62057 1.84334 0
M  V30 5668 O 522.599 -0.395053 1.91671 0
M  V30 5669 C 522.898 3.07813 1.8162 0
M  V30 5670 C 522.564 4.3797 1.07206 0
M  V30 5671 C 521.226 4.73334 0.866508 0
M  V30 5672 C 523.578 5.18326 0.546565 0
M  V30 5673 C 520.906 5.8657 0.123549 0
M  V30 5674 C 523.258 6.32335 -0.18305 0
M  V30 5675 C 521.922 6.66301 -0.399861 0
M  V30 5676 H 521.192 0.655178 0.346155 0
M  V30 5677 H 523.839 1.90299 0.214146 0
M  V30 5678 H 522.144 2.91682 2.61589 0
M  V30 5679 H 523.841 3.2282 2.37884 0
M  V30 5680 H 520.431 4.10202 1.24226 0
M  V30 5681 H 524.615 4.9144 0.692847 0
M  V30 5682 H 519.871 6.11376 -0.0546591 0
M  V30 5683 H 524.045 6.9383 -0.59775 0
M  V30 5684 H 521.672 7.53889 -0.977489 0
M  V30 5685 N 523.247 -0.488276 1.49845 0
M  V30 5686 C 524.524 -1.24959 1.50481 0
M  V30 5687 C 524.904 -2.09735 0.239698 0
M  V30 5688 O 524.252 -2.14865 -0.777524 0
M  V30 5689 C 524.462 -2.0954 2.79095 0
M  V30 5690 C 525.81 -2.68305 3.29086 0
M  V30 5691 O 526.834 -2.19797 2.80299 0
M  V30 5692 O 525.693 -3.56643 4.14087 0
M  V30 5693 H 522.787 -0.566133 0.602845 0
M  V30 5694 H 525.333 -0.501504 1.6212 0
M  V30 5695 H 524.105 -1.46958 3.62656 0
M  V30 5696 H 523.728 -2.91517 2.70377 0
M  V30 5697 N 524.725 -1.39134 -0.740242 0
M  V30 5698 C 526.136 -1.32208 -1.31825 0
M  V30 5699 C 526.487 0.0159919 -1.96193 0
M  V30 5700 O 525.612 0.918111 -1.95958 0
M  V30 5701 C 526.207 -2.39436 -2.39699 0
M  V30 5702 C 524.766 -2.36048 -2.93187 0
M  V30 5703 C 523.913 -2.21599 -1.66701 0
M  V30 5704 H 526.864 -1.49298 -0.538133 0
M  V30 5705 H 526.885 -2.05922 -3.19963 0
M  V30 5706 H 526.397 -3.36811 -1.92821 0
M  V30 5707 H 524.498 -1.42295 -3.44359 0
M  V30 5708 H 524.611 -3.30704 -3.46658 0
M  V30 5709 H 522.975 -1.68681 -1.90837 0
M  V30 5710 H 523.758 -3.20936 -1.21882 0
M  V30 5711 N 526.204 0.969867 -1.24223 0
M  V30 5712 C 527.151 2.06407 -1.0327 0
M  V30 5713 C 528.121 1.66014 0.0533 0
M  V30 5714 O 529.306 1.90533 -0.100896 0
M  V30 5715 C 526.446 3.3909 -0.641262 0
M  V30 5716 C 525.559 3.9269 -1.80051 0
M  V30 5717 C 524.694 5.13631 -1.35486 0
M  V30 5718 C 523.733 5.59423 -2.48419 0
M  V30 5719 N 522.87 6.71586 -2.04737 0
M  V30 5720 H 527.71 2.23663 -1.96923 0
M  V30 5721 H 525.247 1.09624 -0.980862 0
M  V30 5722 H 527.205 4.15323 -0.395351 0
M  V30 5723 H 525.835 3.21765 0.258269 0
M  V30 5724 H 524.887 3.13116 -2.16014 0
M  V30 5725 H 526.199 4.22636 -2.64916 0
M  V30 5726 H 525.353 5.97231 -1.0677 0
M  V30 5727 H 524.092 4.85364 -0.476722 0
M  V30 5728 H 523.097 4.74398 -2.77897 0
M  V30 5729 H 524.322 5.89705 -3.36786 0
M  V30 5730 H 522.268 6.45058 -1.19318 0
M  V30 5731 H 522.185 7.0097 -2.83156 0
M  V30 5732 H 523.453 7.58633 -1.79154 0
M  V30 5733 N 527.682 1.05563 1.17022 0
M  V30 5734 C 528.931 0.763036 1.8671 0
M  V30 5735 C 529.244 -0.712857 1.82147 0
M  V30 5736 O 530.45 -1.11955 2.47343 0
M  V30 5737 C 528.906 1.31474 3.35026 0
M  V30 5738 C 528.514 2.82034 3.48081 0
M  V30 5739 C 530.258 1.09935 4.10018 0
M  V30 5740 C 528.165 3.30486 4.90442 0
M  V30 5741 H 527.095 0.281747 0.699382 0
M  V30 5742 H 529.746 1.2734 1.32124 0
M  V30 5743 H 528.128 0.732171 3.89173 0
M  V30 5744 H 529.302 3.46178 3.04133 0
M  V30 5745 H 527.617 3.02156 2.86515 0
M  V30 5746 H 530.214 1.43632 5.15048 0
M  V30 5747 H 530.557 0.0373072 4.16283 0
M  V30 5748 H 531.09 1.64732 3.62089 0
M  V30 5749 H 527.829 4.36137 4.89352 0
M  V30 5750 H 527.349 2.71086 5.35044 0
M  V30 5751 H 529.028 3.25382 5.59227 0
M  V30 5752 N 529.16 -1.33526 0.837174 0
M  V30 5753 C 530.388 -2.02047 0.445494 0
M  V30 5754 C 530.803 -1.62995 -0.952788 0
M  V30 5755 O 530.16 -0.842447 -1.61892 0
M  V30 5756 C 530.211 -3.57221 0.554577 0
M  V30 5757 O 529.932 -3.94863 1.89776 0
M  V30 5758 C 531.433 -4.43012 0.159634 0
M  V30 5759 H 528.653 -0.647221 0.177048 0
M  V30 5760 H 531.197 -1.70492 1.12928 0
M  V30 5761 H 529.352 -3.87315 -0.0812781 0
M  V30 5762 H 529.766 -4.89569 1.88208 0
M  V30 5763 H 531.24 -5.51253 0.28701 0
M  V30 5764 H 531.717 -4.29916 -0.898289 0
M  V30 5765 H 532.323 -4.18274 0.769855 0
M  V30 5766 N 530.638 -0.59345 -1.46 0
M  V30 5767 C 531.878 -0.0859747 -2.04219 0
M  V30 5768 C 532.242 1.25432 -1.45364 0
M  V30 5769 O 533.443 1.85168 -1.9485 0
M  V30 5770 C 531.714 -0.0324314 -3.57385 0
M  V30 5771 S 533.273 0.415908 -4.36824 0
M  V30 5772 H 530.091 -0.0426872 -0.709717 0
M  V30 5773 H 532.693 -0.788369 -1.78899 0
M  V30 5774 H 531.397 -1.01166 -3.97735 0
M  V30 5775 H 530.928 0.6924 -3.87259 0
M  V30 5776 H 532.943 1.66844 -4.67309 0
M  V30 5777 N 532.116 1.54067 -0.331816 0
M  V30 5778 C 533.063 2.24623 0.530372 0
M  V30 5779 C 534.033 1.24009 1.10503 0
M  V30 5780 O 535.218 1.52712 1.14384 0
M  V30 5781 C 532.358 3.01374 1.68129 0
M  V30 5782 C 531.471 4.16821 1.13507 0
M  V30 5783 C 530.606 4.81085 2.25234 0
M  V30 5784 C 529.645 5.88621 1.67903 0
M  V30 5785 N 528.782 6.46713 2.73326 0
M  V30 5786 H 533.622 2.97898 -0.0778607 0
M  V30 5787 H 531.159 1.47014 -0.0501965 0
M  V30 5788 H 533.117 3.44125 2.35868 0
M  V30 5789 H 531.747 2.30419 2.26069 0
M  V30 5790 H 530.799 3.78796 0.348979 0
M  V30 5791 H 532.111 4.94203 0.675633 0
M  V30 5792 H 531.265 5.26846 3.00862 0
M  V30 5793 H 530.004 4.03102 2.74518 0
M  V30 5794 H 529.009 5.42254 0.907773 0
M  V30 5795 H 530.234 6.68506 1.19487 0
M  V30 5796 H 528.18 5.71599 3.21886 0
M  V30 5797 H 528.097 7.19532 2.3197 0
M  V30 5798 H 529.365 6.97129 3.48758 0
M  V30 5799 N 533.594 0.0601682 1.57485 0
M  V30 5800 C 534.526 -0.94047 2.09016 0
M  V30 5801 C 535.539 -1.26897 1.01985 0
M  V30 5802 O 536.728 -1.22819 1.29529 0
M  V30 5803 C 533.828 -2.25955 2.52582 0
M  V30 5804 C 533.001 -2.11163 3.83052 0
M  V30 5805 C 532.06 -3.26273 4.12835 0
M  V30 5806 O 531.086 -3.01779 4.82616 0
M  V30 5807 N 532.288 -4.51022 3.65458 0
M  V30 5808 H 535.053 -0.500578 2.9549 0
M  V30 5809 H 532.614 -0.125852 1.6141 0
M  V30 5810 H 534.606 -3.01846 2.69575 0
M  V30 5811 H 533.176 -2.61481 1.71308 0
M  V30 5812 H 532.396 -1.19808 3.75552 0
M  V30 5813 H 533.684 -1.98517 4.68475 0
M  V30 5814 H 533.082 -4.73811 3.09062 0
M  V30 5815 H 531.639 -5.23978 3.87673 0
M  V30 5816 N 535.072 -1.5615 -0.213296 0
M  V30 5817 C 535.982 -1.96265 -1.28519 0
M  V30 5818 C 536.998 -0.86765 -1.50824 0
M  V30 5819 O 538.174 -1.17191 -1.63793 0
M  V30 5820 C 535.239 -2.27836 -2.61327 0
M  V30 5821 C 534.3 -3.50949 -2.47252 0
M  V30 5822 C 533.533 -3.81004 -3.73727 0
M  V30 5823 O 533.756 -3.12612 -4.77106 0
M  V30 5824 O 532.69 -4.74477 -3.70344 0
M  V30 5825 H 536.516 -2.87631 -0.974795 0
M  V30 5826 H 534.101 -1.43467 -0.416832 0
M  V30 5827 H 535.983 -2.49299 -3.39747 0
M  V30 5828 H 534.658 -1.39643 -2.9203 0
M  V30 5829 H 533.565 -3.34754 -1.67004 0
M  V30 5830 H 534.898 -4.39551 -2.21486 0
M  V30 5831 N 536.55 0.480323 -1.50102 0
M  V30 5832 C 537.79 1.24301 -1.62261 0
M  V30 5833 C 538.154 1.89452 -0.311758 0
M  V30 5834 O 539.355 2.67022 -0.308696 0
M  V30 5835 C 537.626 2.26588 -2.76392 0
M  V30 5836 S 539.185 3.11919 -3.08629 0
M  V30 5837 H 536.003 0.42215 -0.57211 0
M  V30 5838 H 538.605 0.541591 -1.87848 0
M  V30 5839 H 537.309 1.7729 -3.70131 0
M  V30 5840 H 536.84 3.01371 -2.52862 0
M  V30 5841 H 538.855 4.27598 -2.51742 0
M  V30 5842 N 538.028 1.39524 0.732853 0
M  V30 5843 C 538.958 1.41153 1.86005 0
M  V30 5844 C 539.939 0.274614 1.67869 0
M  V30 5845 O 541.124 0.480745 1.88155 0
M  V30 5846 C 538.254 1.25638 3.23778 0
M  V30 5847 C 537.208 2.36752 3.56556 0
M  V30 5848 C 536.534 2.06326 4.93289 0
M  V30 5849 C 537.834 3.79069 3.5931 0
M  V30 5850 H 539.528 2.35484 1.84899 0
M  V30 5851 H 537.074 1.13348 0.888162 0
M  V30 5852 H 539.027 1.25398 4.0231 0
M  V30 5853 H 537.751 0.277772 3.25417 0
M  V30 5854 H 536.41 2.36213 2.80355 0
M  V30 5855 H 536.058 1.06897 4.9151 0
M  V30 5856 H 535.758 2.80757 5.16187 0
M  V30 5857 H 537.282 2.07739 5.74175 0
M  V30 5858 H 538.696 3.81526 4.27914 0
M  V30 5859 H 537.093 4.52878 3.93728 0
M  V30 5860 H 538.163 4.09893 2.59068 0
M  V30 5861 N 539.506 -0.963266 1.24736 0
M  V30 5862 C 540.755 -1.70115 1.08369 0
M  V30 5863 C 541.068 -1.91939 -0.376688 0
M  V30 5864 O 542.274 -2.6334 -0.660624 0
M  V30 5865 C 540.73 -3.06218 1.89099 0
M  V30 5866 C 540.338 -2.92221 3.39574 0
M  V30 5867 C 542.082 -3.83848 1.81275 0
M  V30 5868 C 539.989 -4.23662 4.12631 0
M  V30 5869 H 538.919 -0.637944 0.401924 0
M  V30 5870 H 541.57 -1.07304 1.48856 0
M  V30 5871 H 539.952 -3.69884 1.41429 0
M  V30 5872 H 541.126 -2.37541 3.94856 0
M  V30 5873 H 539.441 -2.28054 3.48397 0
M  V30 5874 H 542.038 -4.81188 2.33158 0
M  V30 5875 H 542.381 -4.08949 0.778895 0
M  V30 5876 H 542.914 -3.26918 2.26649 0
M  V30 5877 H 539.653 -4.03753 5.16395 0
M  V30 5878 H 539.173 -4.78141 3.62135 0
M  V30 5879 H 540.852 -4.92256 4.19873 0
M  V30 5880 N 540.985 -1.06182 -1.16461 0
M  V30 5881 C 542.213 -0.798583 -1.90867 0
M  V30 5882 C 542.628 0.646921 -1.77371 0
M  V30 5883 O 541.985 1.44279 -1.11758 0
M  V30 5884 C 542.036 -1.18258 -3.4161 0
M  V30 5885 O 541.757 -2.57135 -3.54701 0
M  V30 5886 C 543.258 -0.946917 -4.33069 0
M  V30 5887 H 540.478 -0.289603 -0.605286 0
M  V30 5888 H 543.022 -1.41515 -1.47627 0
M  V30 5889 H 541.177 -0.610562 -3.82558 0
M  V30 5890 H 541.591 -2.72477 -4.4817 0
M  V30 5891 H 543.065 -1.26523 -5.37304 0
M  V30 5892 H 543.542 0.117406 -4.39043 0
M  V30 5893 H 544.148 -1.50326 -3.97847 0
M  V30 5894 N 542.463 1.3308 -0.844243 0
M  V30 5895 C 543.691 2.01808 -0.456203 0
M  V30 5896 C 544.106 1.63498 0.944131 0
M  V30 5897 O 543.463 0.85102 1.61443 0
M  V30 5898 C 543.514 3.56922 -0.573513 0
M  V30 5899 O 543.235 3.93851 -1.91868 0
M  V30 5900 C 544.736 4.42922 -0.183125 0
M  V30 5901 H 541.956 0.646273 -0.180477 0
M  V30 5902 H 544.5 1.69891 -1.1383 0
M  V30 5903 H 542.655 3.87352 0.0607367 0
M  V30 5904 H 543.069 4.88564 -1.90802 0
M  V30 5905 H 544.543 5.51093 -0.316241 0
M  V30 5906 H 545.02 4.30386 0.875477 0
M  V30 5907 H 545.626 4.1786 -0.792027 0
M  V30 5908 N 543.941 0.601185 1.45683 0
M  V30 5909 C 545.188 0.0938811 2.02282 0
M  V30 5910 C 545.516 -1.27315 1.47041 0
M  V30 5911 O 544.771 -1.85193 0.632623 0
M  V30 5912 C 545.07 -0.00222425 3.574 0
M  V30 5913 C 544.736 1.29963 4.31764 0
M  V30 5914 C 543.398 1.65625 4.51798 0
M  V30 5915 C 545.75 2.1603 4.74321 0
M  V30 5916 C 543.078 2.87119 5.11644 0
M  V30 5917 C 545.43 3.36766 5.3551 0
M  V30 5918 C 544.094 3.72689 5.53768 0
M  V30 5919 H 543.364 0.0343535 0.740203 0
M  V30 5920 H 546.011 0.781522 1.74827 0
M  V30 5921 H 544.316 -0.773096 3.84097 0
M  V30 5922 H 546.013 -0.410794 3.9889 0
M  V30 5923 H 542.603 1.01204 4.1648 0
M  V30 5924 H 546.787 1.89778 4.58582 0
M  V30 5925 H 542.043 3.15065 5.2397 0
M  V30 5926 H 546.217 4.03713 5.67441 0
M  V30 5927 H 543.844 4.66918 5.99909 0
M  V30 5928 N 545.419 -1.53889 0.339982 0
M  V30 5929 C 546.351 -2.22435 -0.55275 0
M  V30 5930 C 547.364 -1.22975 -1.06681 0
M  V30 5931 O 548.553 -1.49351 -0.977575 0
M  V30 5932 C 545.653 -2.8882 -1.77302 0
M  V30 5933 C 544.826 -4.14563 -1.39486 0
M  V30 5934 C 543.885 -4.64391 -2.47442 0
M  V30 5935 O 542.911 -5.28687 -2.10899 0
M  V30 5936 N 544.113 -4.40015 -3.78639 0
M  V30 5937 H 546.878 -2.9968 0.0342669 0
M  V30 5938 H 544.439 -1.61068 0.16394 0
M  V30 5939 H 546.431 -3.19072 -2.48948 0
M  V30 5940 H 545.001 -2.15182 -2.26749 0
M  V30 5941 H 544.221 -3.90896 -0.509321 0
M  V30 5942 H 545.509 -4.96362 -1.11813 0
M  V30 5943 H 544.907 -3.88586 -4.11118 0
M  V30 5944 H 543.464 -4.74881 -4.46465 0
M  V30 5945 N 546.897 -0.0685191 -1.57451 0
M  V30 5946 C 548.174 0.642167 -1.84758 0
M  V30 5947 C 548.554 1.87991 -0.960344 0
M  V30 5948 O 547.902 2.28485 -0.0257894 0
M  V30 5949 C 548.112 0.982946 -3.34872 0
M  V30 5950 C 549.46 1.35784 -4.02303 0
M  V30 5951 O 550.484 1.07477 -3.39598 0
M  V30 5952 O 549.343 1.88681 -5.12895 0
M  V30 5953 H 546.437 0.318625 -0.763156 0
M  V30 5954 H 548.983 -0.0992015 -1.6941 0
M  V30 5955 H 547.755 0.10372 -3.91163 0
M  V30 5956 H 547.378 1.78119 -3.55471 0
M  V30 5957 N 548.375 1.56261 0.205012 0
M  V30 5958 C 549.621 1.80306 0.9283 0
M  V30 5959 C 549.954 0.640932 1.83319 0
M  V30 5960 O 549.229 -0.359032 1.91158 0
M  V30 5961 C 549.512 3.14547 1.75306 0
M  V30 5962 C 549.365 4.41236 0.873562 0
M  V30 5963 C 550.684 3.45382 2.72762 0
M  V30 5964 H 547.803 0.655929 0.336044 0
M  V30 5965 H 550.445 1.88984 0.196211 0
M  V30 5966 H 548.595 3.0728 2.37721 0
M  V30 5967 H 550.267 4.60539 0.264887 0
M  V30 5968 H 548.51 4.33427 0.179773 0
M  V30 5969 H 549.181 5.31639 1.48541 0
M  V30 5970 H 551.657 3.52884 2.20481 0
M  V30 5971 H 550.533 4.40449 3.2756 0
M  V30 5972 H 550.794 2.68377 3.51321 0
M  V30 5973 N 549.853 -0.472356 1.50355 0
M  V30 5974 C 551.083 -1.24603 1.64796 0
M  V30 5975 C 551.491 -1.86297 0.330156 0
M  V30 5976 O 550.834 -1.69934 -0.697728 0
M  V30 5977 C 550.896 -2.39578 2.68035 0
M  V30 5978 C 550.56 -1.98531 4.11624 0
M  V30 5979 C 551.557 -1.50856 4.97532 0
M  V30 5980 C 549.242 -2.0729 4.57532 0
M  V30 5981 C 551.236 -1.12481 6.27397 0
M  V30 5982 C 548.923 -1.68527 5.87403 0
M  V30 5983 C 549.921 -1.212 6.7216 0
M  V30 5984 O 549.609 -0.829728 7.99607 0
M  V30 5985 H 549.341 -0.383035 0.55701 0
M  V30 5986 H 551.895 -0.570392 1.97321 0
M  V30 5987 H 550.125 -3.10309 2.30749 0
M  V30 5988 H 551.814 -3.01544 2.71709 0
M  V30 5989 H 552.58 -1.43511 4.63281 0
M  V30 5990 H 548.459 -2.43076 3.91708 0
M  V30 5991 H 552.003 -0.754698 6.93506 0
M  V30 5992 H 547.9 -1.7553 6.21176 0
M  V30 5993 H 548.668 -0.958689 8.12866 0
M  V30 5994 N 551.331 -1.39911 -0.725443 0
M  V30 5995 C 552.578 -1.37654 -1.48518 0
M  V30 5996 C 552.906 0.0243982 -1.94485 0
M  V30 5997 O 552.161 1.00708 -1.67799 0
M  V30 5998 C 552.46 -2.30368 -2.7325 0
M  V30 5999 C 552.126 -3.77817 -2.461 0
M  V30 6000 C 550.788 -4.17991 -2.38405 0
M  V30 6001 C 553.14 -4.71036 -2.23103 0
M  V30 6002 C 550.468 -5.49433 -2.05768 0
M  V30 6003 C 552.82 -6.02766 -1.9198 0
M  V30 6004 C 551.484 -6.41993 -1.82761 0
M  V30 6005 H 550.754 -0.503713 -0.543465 0
M  V30 6006 H 553.401 -1.7249 -0.831822 0
M  V30 6007 H 551.706 -1.88683 -3.43375 0
M  V30 6008 H 553.403 -2.2591 -3.31309 0
M  V30 6009 H 549.993 -3.45982 -2.52972 0
M  V30 6010 H 554.177 -4.40823 -2.2801 0
M  V30 6011 H 549.433 -5.78738 -1.9716 0
M  V30 6012 H 553.607 -6.74519 -1.73197 0
M  V30 6013 H 551.234 -7.43761 -1.57237 0
M  V30 6014 N 552.809 0.956637 -1.25245 0
M  V30 6015 C 554.055 1.70352 -1.10036 0
M  V30 6016 C 554.388 1.90869 0.358156 0
M  V30 6017 O 553.663 1.47819 1.26411 0
M  V30 6018 C 553.946 3.08766 -1.85298 0
M  V30 6019 C 553.799 2.95672 -3.38966 0
M  V30 6020 C 555.118 4.08622 -1.63451 0
M  V30 6021 H 552.237 0.618279 -0.401123 0
M  V30 6022 H 554.879 1.11212 -1.54051 0
M  V30 6023 H 553.029 3.59252 -1.47887 0
M  V30 6024 H 554.701 2.52527 -3.86041 0
M  V30 6025 H 552.944 2.31634 -3.6678 0
M  V30 6026 H 553.615 3.93776 -3.86839 0
M  V30 6027 H 556.091 3.67038 -1.96015 0
M  V30 6028 H 554.967 5.03514 -2.18551 0
M  V30 6029 H 555.228 4.3834 -0.575357 0
M  V30 6030 N 554.287 1.06798 1.15896 0
M  V30 6031 C 555.512 0.808739 1.90982 0
M  V30 6032 C 555.937 -0.6316 1.77179 0
M  V30 6033 O 555.295 -1.4407 1.10061 0
M  V30 6034 C 555.343 1.21468 3.39526 0
M  V30 6035 O 554.447 0.356562 4.10856 0
M  V30 6036 H 553.788 0.29512 0.594811 0
M  V30 6037 H 556.318 1.42513 1.46804 0
M  V30 6038 H 556.328 1.18844 3.90308 0
M  V30 6039 H 555.003 2.26379 3.48891 0
M  V30 6040 H 553.58 0.444808 3.70238 0
M  V30 6041 N 555.766 -1.3263 0.851289 0
M  V30 6042 C 556.676 -2.32722 0.296268 0
M  V30 6043 C 557.692 -1.63901 -0.584162 0
M  V30 6044 O 558.868 -1.95465 -0.485334 0
M  V30 6045 C 555.933 -3.42942 -0.509103 0
M  V30 6046 C 554.994 -4.2746 0.397069 0
M  V30 6047 C 554.227 -5.32416 -0.36996 0
M  V30 6048 O 554.45 -5.47491 -1.6003 0
M  V30 6049 O 553.384 -6.01327 0.262493 0
M  V30 6050 H 557.21 -2.82078 1.12543 0
M  V30 6051 H 554.795 -1.36194 0.614135 0
M  V30 6052 H 556.677 -4.1017 -0.96634 0
M  V30 6053 H 555.352 -2.95781 -1.31512 0
M  V30 6054 H 554.259 -3.63053 0.902411 0
M  V30 6055 H 555.592 -4.78136 1.16818 0
M  V30 6056 N 557.244 -0.608902 -1.45362 0
M  V30 6057 C 558.469 -0.10921 -2.07112 0
M  V30 6058 C 558.894 1.19779 -1.45033 0
M  V30 6059 O 558.252 1.72961 -0.543527 0
M  V30 6060 C 558.3 0.0155745 -3.60597 0
M  V30 6061 O 557.404 1.06546 -3.98399 0
M  V30 6062 H 556.745 -0.0746619 -0.659789 0
M  V30 6063 H 559.275 -0.839283 -1.86594 0
M  V30 6064 H 559.285 0.213364 -4.07442 0
M  V30 6065 H 557.96 -0.938765 -4.05167 0
M  V30 6066 H 556.537 0.844024 -3.63223 0
M  V30 6067 N 558.722 1.53707 -0.348139 0
M  V30 6068 C 559.969 2.00988 0.246966 0
M  V30 6069 C 560.297 1.23586 1.50189 0
M  V30 6070 O 559.552 0.312817 1.93184 0
M  V30 6071 C 559.851 3.52292 0.602061 0
M  V30 6072 C 559.517 4.47453 -0.556509 0
M  V30 6073 C 558.179 4.73188 -0.874446 0
M  V30 6074 C 560.531 5.03851 -1.33354 0
M  V30 6075 C 557.859 5.52577 -1.9717 0
M  V30 6076 C 560.211 5.84437 -2.42108 0
M  V30 6077 C 558.875 6.08465 -2.74456 0
M  V30 6078 H 558.145 0.735469 0.0903712 0
M  V30 6079 H 560.792 1.85464 -0.477001 0
M  V30 6080 H 559.097 3.65672 1.40681 0
M  V30 6081 H 560.794 3.86337 1.07447 0
M  V30 6082 H 557.384 4.27558 -0.298652 0
M  V30 6083 H 561.568 4.8393 -1.10117 0
M  V30 6084 H 556.824 5.69418 -2.22651 0
M  V30 6085 H 560.998 6.27151 -3.02745 0
M  V30 6086 H 558.625 6.69768 -3.59604 0
M  V30 6087 N 560.2 0.0768682 1.57412 0
M  V30 6088 C 561.11 -0.903207 2.16516 0
M  V30 6089 C 562.126 -1.32341 1.12968 0
M  V30 6090 O 563.302 -1.39507 1.45258 0
M  V30 6091 C 560.367 -2.1508 2.71922 0
M  V30 6092 C 559.428 -1.78653 3.90361 0
M  V30 6093 C 558.661 -2.97465 4.43114 0
M  V30 6094 O 558.884 -4.11638 3.94854 0
M  V30 6095 O 557.818 -2.76987 5.3438 0
M  V30 6096 H 561.644 -0.430427 3.00634 0
M  V30 6097 H 559.229 -0.146485 1.4868 0
M  V30 6098 H 561.111 -2.8823 3.07411 0
M  V30 6099 H 559.786 -2.61446 1.9086 0
M  V30 6100 H 558.693 -1.0274 3.59716 0
M  V30 6101 H 560.026 -1.37066 4.7273 0
M  V30 6102 N 561.678 -1.56367 -0.196722 0
M  V30 6103 C 562.955 -1.71359 -0.943159 0
M  V30 6104 C 563.335 -0.631192 -2.01443 0
M  V30 6105 O 562.683 0.358071 -2.25677 0
M  V30 6106 C 562.893 -3.13623 -1.53106 0
M  V30 6107 C 564.241 -3.73806 -2.01381 0
M  V30 6108 O 565.265 -3.16742 -1.62951 0
M  V30 6109 O 564.124 -4.73951 -2.7209 0
M  V30 6110 H 561.218 -0.698851 -0.442195 0
M  V30 6111 H 563.764 -1.68672 -0.186547 0
M  V30 6112 H 562.536 -3.83873 -0.758785 0
M  V30 6113 H 562.159 -3.20532 -2.35255 0
M  V30 6114 N 563.156 0.464375 -1.50603 0
M  V30 6115 C 564.119 1.54393 -1.69397 0
M  V30 6116 C 565.119 1.50566 -0.564504 0
M  V30 6117 O 566.309 1.53066 -0.831645 0
M  V30 6118 C 563.441 2.9401 -1.72543 0
M  V30 6119 H 564.634 1.39044 -2.65719 0
M  V30 6120 H 562.187 0.69122 -1.40185 0
M  V30 6121 H 562.922 3.14795 -0.77938 0
M  V30 6122 H 562.707 2.98195 -2.54602 0
M  V30 6123 H 564.197 3.72375 -1.89015 0
M  V30 6124 N 564.634 1.40294 0.718013 0
M  V30 6125 C 565.581 1.40367 1.8321 0
M  V30 6126 C 566.551 0.260952 1.64037 0
M  V30 6127 O 567.736 0.458648 1.85205 0
M  V30 6128 C 564.876 1.26965 3.20895 0
M  V30 6129 C 563.989 2.50922 3.51656 0
M  V30 6130 C 563.124 2.29981 4.78834 0
M  V30 6131 C 562.163 3.49527 5.02491 0
M  V30 6132 N 561.3 3.27796 6.20882 0
M  V30 6133 H 566.14 2.35593 1.82482 0
M  V30 6134 H 563.677 1.17012 0.891444 0
M  V30 6135 H 565.635 1.17202 4.00399 0
M  V30 6136 H 564.265 0.353591 3.20858 0
M  V30 6137 H 563.317 2.71223 2.66725 0
M  V30 6138 H 564.629 3.39913 3.65048 0
M  V30 6139 H 563.783 2.17558 5.66351 0
M  V30 6140 H 562.522 1.38411 4.67647 0
M  V30 6141 H 561.527 3.6243 4.1343 0
M  V30 6142 H 562.752 4.42021 5.15553 0
M  V30 6143 H 560.698 2.38906 6.1095 0
M  V30 6144 H 560.615 4.10351 6.34939 0
M  V30 6145 H 561.883 3.19101 7.11193 0
M  V30 6146 N 566.112 -0.949982 1.2575 0
M  V30 6147 C 567.022 -2.08109 1.08295 0
M  V30 6148 C 568.038 -1.7399 0.0188181 0
M  V30 6149 O 569.214 -2.00187 0.220724 0
M  V30 6150 C 566.279 -3.39383 0.708534 0
M  V30 6151 C 565.34 -3.8734 1.85111 0
M  V30 6152 C 564.573 -5.12349 1.49447 0
M  V30 6153 O 564.796 -5.6905 0.392212 0
M  V30 6154 O 563.73 -5.5513 2.32624 0
M  V30 6155 H 567.556 -2.25738 2.03165 0
M  V30 6156 H 565.141 -1.06545 1.04731 0
M  V30 6157 H 567.023 -4.18277 0.512061 0
M  V30 6158 H 565.698 -3.23013 -0.210854 0
M  V30 6159 H 564.605 -3.09429 2.10248 0
M  V30 6160 H 565.938 -4.08216 2.74991 0
M  V30 6161 N 567.59 -1.07411 -1.15328 0
M  V30 6162 C 568.537 -0.694995 -2.20087 0
M  V30 6163 C 569.507 0.313904 -1.63107 0
M  V30 6164 O 570.692 0.200216 -1.89747 0
M  V30 6165 C 567.832 -0.0996218 -3.44956 0
M  V30 6166 C 566.945 -1.16007 -4.16133 0
M  V30 6167 C 566.08 -0.529636 -5.28553 0
M  V30 6168 C 565.119 -1.57283 -5.91548 0
M  V30 6169 N 564.256 -0.964932 -6.95438 0
M  V30 6170 H 569.096 -1.5927 -2.51867 0
M  V30 6171 H 566.633 -0.796115 -1.23695 0
M  V30 6172 H 568.591 0.263197 -4.16369 0
M  V30 6173 H 567.221 0.761435 -3.13691 0
M  V30 6174 H 566.273 -1.64045 -3.4321 0
M  V30 6175 H 567.585 -1.95101 -4.59061 0
M  V30 6176 H 566.739 -0.114487 -6.06592 0
M  V30 6177 H 565.478 0.29307 -4.86819 0
M  V30 6178 H 564.483 -1.99775 -5.12221 0
M  V30 6179 H 565.708 -2.39783 -6.35359 0
M  V30 6180 H 563.654 -0.16314 -6.55797 0
M  V30 6181 H 563.571 -1.69311 -7.36797 0
M  V30 6182 H 564.839 -0.575305 -7.77374 0
M  V30 6183 N 569.068 1.32177 -0.85831 0
M  V30 6184 C 570.001 2.26823 -0.25035 0
M  V30 6185 C 570.979 1.50571 0.61378 0
M  V30 6186 O 572.163 1.79682 0.569777 0
M  V30 6187 C 569.29 3.32472 0.646556 0
M  V30 6188 C 568.336 4.26255 -0.144675 0
M  V30 6189 S 569.169 5.13608 -1.5155 0
M  V30 6190 C 570.325 6.22778 -0.624408 0
M  V30 6191 H 570.558 2.7804 -1.05267 0
M  V30 6192 H 568.091 1.39764 -0.656152 0
M  V30 6193 H 570.049 3.93817 1.15837 0
M  V30 6194 H 568.71 2.80031 1.42272 0
M  V30 6195 H 567.903 5.01114 0.538613 0
M  V30 6196 H 567.505 3.69346 -0.588198 0
M  V30 6197 H 569.797 6.77287 0.169846 0
M  V30 6198 H 570.74 6.95233 -1.34376 0
M  V30 6199 H 571.148 5.64156 -0.197128 0
M  V30 6200 N 570.547 0.616602 1.45037 0
M  V30 6201 C 571.963 0.280994 1.57107 0
M  V30 6202 C 572.163 -1.21627 1.60653 0
M  V30 6203 O 571.219 -1.9997 1.54169 0
M  V30 6204 C 572.532 0.960116 2.8496 0
M  V30 6205 C 574.08 0.936884 2.98649 0
M  V30 6206 C 574.555 1.59619 4.29285 0
M  V30 6207 N 576.046 1.5621 4.36065 0
M  V30 6208 C 576.781 2.04131 5.35834 0
M  V30 6209 N 576.277 2.60177 6.4209 0
M  V30 6210 N 578.07 1.94845 5.27249 0
M  V30 6211 H 570.221 1.58867 1.40979 0
M  V30 6212 H 572.484 0.666024 0.674623 0
M  V30 6213 H 572.19 2.01473 2.88273 0
M  V30 6214 H 572.064 0.488921 3.74018 0
M  V30 6215 H 574.451 -0.109209 2.94898 0
M  V30 6216 H 574.532 1.44643 2.10979 0
M  V30 6217 H 574.176 2.64166 4.33796 0
M  V30 6218 H 574.106 1.06159 5.15789 0
M  V30 6219 H 576.597 1.15276 3.59889 0
M  V30 6220 H 576.91 2.94513 7.1448 0
M  V30 6221 H 575.255 2.64221 6.42816 0
M  V30 6222 H 578.446 1.50792 4.43147 0
M  V30 6223 H 578.619 2.32504 6.04852 0
M  V30 6224 N 572.025 -1.5352 0.356285 0
M  V30 6225 C 572.935 -2.29151 -0.502712 0
M  V30 6226 C 573.951 -1.34753 -1.1008 0
M  V30 6227 O 575.127 -1.67803 -1.11374 0
M  V30 6228 C 572.192 -3.05911 -1.63154 0
M  V30 6229 C 571.253 -4.15958 -1.06194 0
M  V30 6230 C 570.486 -4.8905 -2.13696 0
M  V30 6231 O 570.709 -4.61919 -3.34645 0
M  V30 6232 O 569.643 -5.75202 -1.77275 0
M  V30 6233 H 573.469 -3.03492 0.112466 0
M  V30 6234 H 571.054 -1.4891 0.120942 0
M  V30 6235 H 572.936 -3.53874 -2.28804 0
M  V30 6236 H 571.611 -2.34415 -2.23229 0
M  V30 6237 H 570.518 -3.7227 -0.369603 0
M  V30 6238 H 571.851 -4.89593 -0.505872 0
M  V30 6239 N 573.503 -0.0852151 -1.57369 0
M  V30 6240 C 574.75 0.580806 -1.93992 0
M  V30 6241 C 575.078 1.68801 -0.966252 0
M  V30 6242 O 574.333 1.95694 0.0158649 0
M  V30 6243 C 574.632 1.18482 -3.3719 0
M  V30 6244 C 574.298 0.2024 -4.50446 0
M  V30 6245 C 572.96 -0.0678318 -4.81152 0
M  V30 6246 C 575.312 -0.46895 -5.19086 0
M  V30 6247 C 572.64 -1.01627 -5.77831 0
M  V30 6248 C 574.992 -1.4058 -6.16782 0
M  V30 6249 C 573.656 -1.68436 -6.45899 0
M  V30 6250 H 572.926 0.212532 -0.709867 0
M  V30 6251 H 575.573 -0.158947 -1.90839 0
M  V30 6252 H 573.878 2.0006 -3.36873 0
M  V30 6253 H 575.575 1.70767 -3.62822 0
M  V30 6254 H 572.165 0.423208 -4.26505 0
M  V30 6255 H 576.349 -0.273307 -4.95547 0
M  V30 6256 H 571.605 -1.2392 -5.9871 0
M  V30 6257 H 575.779 -1.93188 -6.69068 0
M  V30 6258 H 573.406 -2.42088 -7.20623 0
M  V30 6259 N 574.981 1.5647 0.188427 0
M  V30 6260 C 576.209 1.85131 0.923803 0
M  V30 6261 C 576.624 0.668537 1.76567 0
M  V30 6262 O 575.981 -0.362662 1.7886 0
M  V30 6263 C 576.032 3.12661 1.81453 0
M  V30 6264 O 575.753 4.26378 1.00665 0
M  V30 6265 C 577.254 3.54548 2.66103 0
M  V30 6266 H 574.474 0.614624 0.269218 0
M  V30 6267 H 577.018 2.03581 0.193671 0
M  V30 6268 H 575.173 2.96088 2.49821 0
M  V30 6269 H 575.587 4.99041 1.61425 0
M  V30 6270 H 577.061 4.4673 3.24247 0
M  V30 6271 H 577.538 2.77853 3.40139 0
M  V30 6272 H 578.144 3.73674 2.03096 0
M  V30 6273 N 576.459 -0.456382 1.50847 0
M  V30 6274 C 577.406 -1.55249 1.70782 0
M  V30 6275 C 578.376 -1.56757 0.549231 0
M  V30 6276 O 579.561 -1.74061 0.7815 0
M  V30 6277 C 576.701 -2.93118 1.82143 0
M  V30 6278 C 575.814 -3.01285 3.09598 0
M  V30 6279 C 574.949 -4.30159 3.11667 0
M  V30 6280 C 573.988 -4.32124 4.33515 0
M  V30 6281 N 573.125 -5.52492 4.3324 0
M  V30 6282 H 577.965 -1.37555 2.64353 0
M  V30 6283 H 575.502 -0.668543 1.3103 0
M  V30 6284 H 577.46 -3.73088 1.86711 0
M  V30 6285 H 576.09 -3.09413 0.919978 0
M  V30 6286 H 575.142 -2.14096 3.14431 0
M  V30 6287 H 576.454 -2.98597 3.99551 0
M  V30 6288 H 575.608 -5.18489 3.15046 0
M  V30 6289 H 574.347 -4.35477 2.1957 0
M  V30 6290 H 573.352 -3.42189 4.30333 0
M  V30 6291 H 574.577 -4.28485 5.26856 0
M  V30 6292 H 572.523 -5.58567 3.44004 0
M  V30 6293 H 572.44 -5.51605 5.16979 0
M  V30 6294 H 573.708 -6.42906 4.40786 0
M  V30 6295 N 577.937 -1.40673 -0.710563 0
M  V30 6296 C 579.165 -1.42547 -1.4996 0
M  V30 6297 C 579.58 -0.0265485 -1.88781 0
M  V30 6298 O 578.937 0.950694 -1.55782 0
M  V30 6299 C 578.988 -2.32071 -2.77173 0
M  V30 6300 O 578.709 -3.66518 -2.39992 0
M  V30 6301 C 580.21 -2.42591 -3.71032 0
M  V30 6302 H 577.43 -0.486025 -0.462623 0
M  V30 6303 H 579.974 -1.84783 -0.876102 0
M  V30 6304 H 578.129 -1.93184 -3.35795 0
M  V30 6305 H 578.543 -4.14115 -3.21884 0
M  V30 6306 H 580.017 -3.09429 -4.57119 0
M  V30 6307 H 580.494 -1.4525 -4.14486 0
M  V30 6308 H 581.1 -2.82051 -3.18319 0
M  V30 6309 N 579.415 0.9433 -1.26252 0
M  V30 6310 C 580.664 1.68369 -1.11062 0
M  V30 6311 C 580.977 1.92514 0.346104 0
M  V30 6312 O 582.183 2.64358 0.618646 0
M  V30 6313 C 580.639 3.03171 -1.93946 0
M  V30 6314 C 580.247 2.86782 -3.4418 0
M  V30 6315 C 581.991 3.80916 -1.87359 0
M  V30 6316 C 579.898 4.17044 -4.19319 0
M  V30 6317 H 578.828 0.631469 -0.412023 0
M  V30 6318 H 581.479 1.04922 -1.50544 0
M  V30 6319 H 579.861 3.67587 -1.47296 0
M  V30 6320 H 581.035 2.31229 -3.98585 0
M  V30 6321 H 579.35 2.22482 -3.51981 0
M  V30 6322 H 581.947 4.77417 -2.40784 0
M  V30 6323 H 582.29 4.07658 -0.843857 0
M  V30 6324 H 582.823 3.2327 -2.31821 0
M  V30 6325 H 579.562 3.95487 -5.22753 0
M  V30 6326 H 579.082 4.72319 -3.69696 0
M  V30 6327 H 580.761 4.85513 -4.27651 0
M  V30 6328 N 580.893 1.08022 1.14757 0
M  V30 6329 C 581.84 0.706657 2.19716 0
M  V30 6330 C 582.81 -0.30525 1.63271 0
M  V30 6331 O 583.995 -0.19015 1.8985 0
M  V30 6332 C 581.135 0.117914 3.44898 0
M  V30 6333 C 580.248 1.18212 4.15512 0
M  V30 6334 C 579.383 0.557659 5.28265 0
M  V30 6335 C 578.422 1.60418 5.90705 0
M  V30 6336 N 577.559 1.0018 6.94916 0
M  V30 6337 H 582.399 1.60603 2.51019 0
M  V30 6338 H 579.936 0.802664 1.23271 0
M  V30 6339 H 581.894 -0.241112 4.16503 0
M  V30 6340 H 580.524 -0.744788 3.1409 0
M  V30 6341 H 579.576 1.65863 3.42335 0
M  V30 6342 H 580.888 1.97533 4.5802 0
M  V30 6343 H 580.042 0.146654 6.06523 0
M  V30 6344 H 578.781 -0.267249 4.86967 0
M  V30 6345 H 577.786 2.02489 5.11154 0
M  V30 6346 H 579.011 2.43149 6.34078 0
M  V30 6347 H 576.957 0.197917 6.55701 0
M  V30 6348 H 576.874 1.73216 7.35889 0
M  V30 6349 H 578.142 0.616523 7.77058 0
M  V30 6350 N 582.371 -1.3172 0.865308 0
M  V30 6351 C 583.787 -1.4958 0.556596 0
M  V30 6352 C 583.987 -1.79763 -0.910353 0
M  V30 6353 O 583.043 -1.87351 -1.6928 0
M  V30 6354 C 584.356 -2.63277 1.45279 0
M  V30 6355 C 585.904 -2.77161 1.45433 0
M  V30 6356 C 586.379 -3.93949 2.33598 0
M  V30 6357 N 587.87 -4.01228 2.31453 0
M  V30 6358 C 588.605 -4.90855 2.96393 0
M  V30 6359 N 588.101 -5.85416 3.70486 0
M  V30 6360 N 589.894 -4.84063 2.85726 0
M  V30 6361 H 582.045 -1.10396 1.81456 0
M  V30 6362 H 584.308 -0.54507 0.775631 0
M  V30 6363 H 584.014 -2.47734 2.49641 0
M  V30 6364 H 583.888 -3.59309 1.14792 0
M  V30 6365 H 586.275 -2.9212 0.41831 0
M  V30 6366 H 586.356 -1.8181 1.79941 0
M  V30 6367 H 586 -3.79748 3.37274 0
M  V30 6368 H 585.93 -4.88598 1.96417 0
M  V30 6369 H 588.421 -3.3357 1.77593 0
M  V30 6370 H 588.734 -6.50525 4.17178 0
M  V30 6371 H 587.079 -5.85409 3.74594 0
M  V30 6372 H 590.27 -4.09163 2.27384 0
M  V30 6373 H 590.443 -5.53708 3.36617 0
M  V30 6374 N 583.85 -0.624285 -1.44708 0
M  V30 6375 C 585.26 -0.2092 -1.85524 0
M  V30 6376 C 585.611 1.23783 -1.52225 0
M  V30 6377 O 584.736 1.94089 -0.956986 0
M  V30 6378 C 585.332 -0.372897 -3.36742 0
M  V30 6379 C 583.891 -0.012374 -3.76398 0
M  V30 6380 C 583.038 -0.68951 -2.68591 0
M  V30 6381 H 585.989 -0.829894 -1.35272 0
M  V30 6382 H 586.01 0.390134 -3.78495 0
M  V30 6383 H 585.522 -1.42615 -3.60947 0
M  V30 6384 H 583.623 1.03941 -3.57809 0
M  V30 6385 H 583.736 -0.417663 -4.77276 0
M  V30 6386 H 582.1 -0.125484 -2.54391 0
M  V30 6387 H 582.883 -1.74522 -2.9563 0
M  V30 6388 N 585.328 1.53329 -0.364422 0
M  V30 6389 C 586.575 2.01239 0.225634 0
M  V30 6390 C 586.903 1.25172 1.48869 0
M  V30 6391 O 586.158 0.333289 1.92841 0
M  V30 6392 C 586.457 3.52911 0.564661 0
M  V30 6393 C 586.123 4.46837 -0.603936 0
M  V30 6394 C 584.785 4.72234 -0.924585 0
M  V30 6395 C 587.137 5.02409 -1.38691 0
M  V30 6396 C 584.465 5.50454 -2.0302 0
M  V30 6397 C 586.817 5.81836 -2.48293 0
M  V30 6398 C 585.481 6.0552 -2.80894 0
M  V30 6399 H 584.751 0.736386 0.0825654 0
M  V30 6400 H 587.398 1.84948 -0.496645 0
M  V30 6401 H 585.703 3.67144 1.36794 0
M  V30 6402 H 587.4 3.87455 1.03344 0
M  V30 6403 H 583.99 4.27217 -0.343983 0
M  V30 6404 H 588.174 4.82735 -1.15243 0
M  V30 6405 H 583.43 5.67024 -2.28678 0
M  V30 6406 H 587.604 6.23905 -3.0938 0
M  V30 6407 H 585.231 6.65916 -3.66688 0
M  V30 6408 N 586.806 0.0935595 1.57322 0
M  V30 6409 C 588.054 -0.569383 1.93913 0
M  V30 6410 C 588.375 -1.68817 0.976009 0
M  V30 6411 O 587.645 -1.9588 0.0278099 0
M  V30 6412 H 586.225 -0.21332 0.715894 0
M  V30 6413 H 588.887 0.156531 1.9427 0
M  V30 6414 H 587.983 -0.980577 2.96296 0
M  V30 6415 N 588.284 -1.56567 -0.180126 0
M  V30 6416 C 589.53 -1.81761 -0.899497 0
M  V30 6417 C 589.863 -0.670015 -1.82276 0
M  V30 6418 O 589.138 0.328575 -1.91705 0
M  V30 6419 C 589.421 -3.17296 -1.7028 0
M  V30 6420 C 589.274 -4.4257 -0.803255 0
M  V30 6421 C 590.593 -3.49678 -2.67233 0
M  V30 6422 H 587.712 -0.661192 -0.325567 0
M  V30 6423 H 590.354 -1.89272 -0.16612 0
M  V30 6424 H 588.504 -3.11023 -2.32802 0
M  V30 6425 H 590.176 -4.60902 -0.191585 0
M  V30 6426 H 588.419 -4.33658 -0.110796 0
M  V30 6427 H 589.09 -5.33935 -1.40064 0
M  V30 6428 H 591.566 -3.56347 -2.14839 0
M  V30 6429 H 590.442 -4.45605 -3.20511 0
M  V30 6430 H 590.703 -2.73932 -3.47007 0
M  V30 6431 N 589.762 0.448376 -1.51087 0
M  V30 6432 C 590.709 1.54341 -1.71603 0
M  V30 6433 C 591.679 1.56463 -0.557536 0
M  V30 6434 O 592.864 1.73644 -0.79072 0
M  V30 6435 C 590.004 2.92148 -1.83695 0
M  V30 6436 C 589.117 2.99639 -3.11192 0
M  V30 6437 C 588.252 4.285 -3.13944 0
M  V30 6438 C 587.291 4.29819 -4.35801 0
M  V30 6439 N 586.428 5.50186 -4.36164 0
M  V30 6440 H 591.268 1.36151 -2.65079 0
M  V30 6441 H 588.805 0.661585 -1.31383 0
M  V30 6442 H 590.763 3.72093 -1.88687 0
M  V30 6443 H 589.393 3.0892 -0.936374 0
M  V30 6444 H 588.445 2.12425 -3.15562 0
M  V30 6445 H 589.757 2.96474 -4.01129 0
M  V30 6446 H 588.911 5.16811 -3.17791 0
M  V30 6447 H 587.65 4.34307 -2.21876 0
M  V30 6448 H 586.655 3.39902 -4.32142 0
M  V30 6449 H 587.88 4.25685 -5.29121 0
M  V30 6450 H 585.826 5.56735 -3.46961 0
M  V30 6451 H 585.743 5.48856 -5.19897 0
M  V30 6452 H 587.011 6.40559 -4.44189 0
M  V30 6453 N 591.24 1.41047 0.703093 0
M  V30 6454 C 592.47 1.43133 1.48985 0
M  V30 6455 C 592.878 0.0328537 1.89171 0
M  V30 6456 O 592.221 -0.956469 1.56835 0
M  V30 6457 C 592.283 2.26991 2.78775 0
M  V30 6458 C 591.947 3.7525 2.60837 0
M  V30 6459 C 592.944 4.67591 2.27276 0
M  V30 6460 C 590.629 4.19208 2.76712 0
M  V30 6461 C 592.623 6.01877 2.09817 0
M  V30 6462 C 590.31 5.53561 2.5887 0
M  V30 6463 C 591.308 6.4471 2.25472 0
M  V30 6464 O 590.996 7.76584 2.07778 0
M  V30 6465 H 590.728 0.489788 0.465922 0
M  V30 6466 H 593.282 1.85886 0.873822 0
M  V30 6467 H 591.512 1.79038 3.42757 0
M  V30 6468 H 593.201 2.20867 3.40547 0
M  V30 6469 H 593.967 4.34923 2.14633 0
M  V30 6470 H 589.846 3.48572 3.01693 0
M  V30 6471 H 593.39 6.72986 1.83671 0
M  V30 6472 H 589.287 5.85811 2.71102 0
M  V30 6473 H 590.055 7.87649 2.22601 0
M  V30 6474 N 592.718 -0.936591 1.26751 0
M  V30 6475 C 593.666 -2.0573 1.08527 0
M  V30 6476 C 594.66 -1.69397 0.0108784 0
M  V30 6477 O 595.866 -1.79215 0.167915 0
M  V30 6478 H 592.241 -0.673691 0.334133 0
M  V30 6479 H 594.212 -2.1825 2.03493 0
M  V30 6480 C 592.961 -3.39738 0.739845 0
M  V30 6481 H 592.284 -3.68174 1.55845 0
M  V30 6482 H 593.724 -4.18955 0.652149 0
M  V30 6483 C 592.183 -3.32292 -0.555288 0
M  V30 6484 O 592.713 -3.68794 -1.59229 0
M  V30 6485 N 590.919 -2.85394 -0.54762 0
M  V30 6486 H 590.466 -2.55886 0.296667 0
M  V30 6487 H 590.424 -2.80795 -1.41427 0
M  V30 6488 N 594.196 -1.08629 -1.14182 0
M  V30 6489 C 595.607 -0.838003 -1.66836 0
M  V30 6490 C 595.958 0.634885 -1.85644 0
M  V30 6491 O 595.083 1.49008 -1.56926 0
M  V30 6492 C 595.678 -1.51465 -3.03058 0
M  V30 6493 C 594.237 -1.31355 -3.52736 0
M  V30 6494 C 593.384 -1.57599 -2.28162 0
M  V30 6495 H 596.335 -1.24656 -0.982165 0
M  V30 6496 H 596.356 -0.943134 -3.68626 0
M  V30 6497 H 595.868 -2.58661 -2.89337 0
M  V30 6498 H 593.969 -0.262384 -3.71675 0
M  V30 6499 H 594.082 -2.04275 -4.33369 0
M  V30 6500 H 592.446 -0.997659 -2.34348 0
M  V30 6501 H 593.229 -2.66006 -2.17015 0
M  V30 6502 N 595.674 1.31259 -0.872281 0
M  V30 6503 C 596.904 2.00504 -0.498183 0
M  V30 6504 C 597.312 1.65632 0.914479 0
M  V30 6505 O 596.655 0.882849 1.61095 0
M  V30 6506 C 596.717 3.5482 -0.578194 0
M  V30 6507 C 596.381 4.13172 -1.95289 0
M  V30 6508 C 597.378 4.30107 -2.92069 0
M  V30 6509 C 595.063 4.48846 -2.25483 0
M  V30 6510 C 597.057 4.81908 -4.17185 0
M  V30 6511 C 594.744 5.00349 -3.50847 0
M  V30 6512 C 595.742 5.16831 -4.46514 0
M  V30 6513 O 595.43 5.67228 -5.69656 0
M  V30 6514 H 595.162 0.648055 -0.192354 0
M  V30 6515 H 597.716 1.6841 -1.17589 0
M  V30 6516 H 595.946 3.86383 0.156438 0
M  V30 6517 H 597.635 4.05318 -0.217192 0
M  V30 6518 H 598.401 4.02862 -2.7005 0
M  V30 6519 H 594.28 4.35292 -1.51795 0
M  V30 6520 H 597.824 4.94688 -4.91863 0
M  V30 6521 H 593.721 5.27028 -3.72708 0
M  V30 6522 H 594.489 5.85592 -5.7186 0
M  V30 6523 N 597.152 0.631951 1.44375 0
M  V30 6524 C 598.38 0.143867 2.06399 0
M  V30 6525 C 598.795 -1.18188 1.47231 0
M  V30 6526 O 598.152 -1.72511 0.595498 0
M  V30 6527 C 598.203 0.0238253 3.61492 0
M  V30 6528 O 597.924 1.29715 4.18456 0
M  V30 6529 C 599.425 -0.492856 4.40552 0
M  V30 6530 H 596.645 0.0800542 0.666207 0
M  V30 6531 H 599.189 0.866586 1.85231 0
M  V30 6532 H 597.344 -0.649338 3.81919 0
M  V30 6533 H 597.758 1.14252 5.11905 0
M  V30 6534 H 599.232 -0.525861 5.49489 0
M  V30 6535 H 599.709 -1.52006 4.12057 0
M  V30 6536 H 600.315 0.147085 4.25046 0
M  V30 6537 N 598.631 -1.53133 0.372548 0
M  V30 6538 C 600.047 -1.59585 0.02178 0
M  V30 6539 C 600.247 -1.38736 -1.46132 0
M  V30 6540 O 599.303 -1.19599 -2.22379 0
M  V30 6541 C 600.616 -2.9678 0.483959 0
M  V30 6542 C 602.164 -3.09909 0.438775 0
M  V30 6543 C 602.639 -4.49527 0.876876 0
M  V30 6544 N 604.13 -4.55663 0.832214 0
M  V30 6545 C 604.865 -5.61896 1.14281 0
M  V30 6546 N 604.361 -6.75852 1.52303 0
M  V30 6547 N 606.154 -5.51916 1.06515 0
M  V30 6548 H 598.305 -1.64936 1.33827 0
M  V30 6549 H 600.568 -0.773947 0.547458 0
M  V30 6550 H 600.274 -3.17198 1.51915 0
M  V30 6551 H 600.148 -3.7699 -0.125784 0
M  V30 6552 H 602.535 -2.89197 -0.587294 0
M  V30 6553 H 602.616 -2.31691 1.0841 0
M  V30 6554 H 602.26 -4.70979 1.90109 0
M  V30 6555 H 602.19 -5.26186 0.208727 0
M  V30 6556 H 604.681 -3.73844 0.552195 0
M  V30 6557 H 604.994 -7.52862 1.7441 0
M  V30 6558 H 603.339 -6.77226 1.56175 0
M  V30 6559 H 606.53 -4.6177 0.767235 0
M  V30 6560 H 606.703 -6.34609 1.31053 0
M  V30 6561 N 600.109 -0.101901 -1.5727 0
M  V30 6562 C 601.334 0.571759 -1.99363 0
M  V30 6563 C 601.759 1.60507 -0.980768 0
M  V30 6564 O 601.117 1.81231 0.0498517 0
M  V30 6565 C 601.165 1.18996 -3.404 0
M  V30 6566 O 600.269 2.30572 -3.41922 0
M  V30 6567 H 599.61 0.144449 -0.648098 0
M  V30 6568 H 602.14 -0.185325 -2.03759 0
M  V30 6569 H 602.15 1.52962 -3.78241 0
M  V30 6570 H 600.825 0.432984 -4.1364 0
M  V30 6571 H 599.402 1.98173 -3.15883 0
M  V30 6572 N 601.587 1.56661 0.17182 0
M  V30 6573 C 602.836 1.81158 0.886831 0
M  V30 6574 C 603.149 0.679072 1.83434 0
M  V30 6575 O 604.355 0.808964 2.59168 0
M  V30 6576 C 602.811 3.20999 1.6275 0
M  V30 6577 C 602.419 4.42117 0.723652 0
M  V30 6578 C 604.163 3.5479 2.33076 0
M  V30 6579 C 602.07 5.7298 1.46452 0
M  V30 6580 H 601 0.675543 0.334899 0
M  V30 6581 H 603.651 1.82967 0.139765 0
M  V30 6582 H 602.033 3.13506 2.4193 0
M  V30 6583 H 603.207 4.60789 -0.0311485 0
M  V30 6584 H 601.522 4.16197 0.130063 0
M  V30 6585 H 604.119 4.49806 2.89099 0
M  V30 6586 H 604.462 2.79646 3.08389 0
M  V30 6587 H 604.995 3.63834 1.6084 0
M  V30 6588 H 601.734 6.51152 0.753729 0
M  V30 6589 H 601.254 5.58285 2.19266 0
M  V30 6590 H 602.933 6.14916 2.01214 0
M  V30 6591 N 603.065 -0.440357 1.51323 0
M  V30 6592 C 603.997 -1.55254 1.68609 0
M  V30 6593 C 605.01 -1.52614 0.566812 0
M  V30 6594 O 606.199 -1.57445 0.841032 0
M  V30 6595 C 603.299 -2.94169 1.68279 0
M  V30 6596 C 602.472 -3.21346 2.96742 0
M  V30 6597 C 601.531 -4.3997 2.8864 0
M  V30 6598 O 600.557 -4.38771 3.62586 0
M  V30 6599 N 601.759 -5.43367 2.04285 0
M  V30 6600 H 604.524 -1.40831 2.6455 0
M  V30 6601 H 602.085 -0.629251 1.49171 0
M  V30 6602 H 604.077 -3.71543 1.60431 0
M  V30 6603 H 602.647 -3.02205 0.799441 0
M  V30 6604 H 601.867 -2.32299 3.18482 0
M  V30 6605 H 603.155 -3.3633 3.81785 0
M  V30 6606 H 602.553 -5.47176 1.43578 0
M  V30 6607 H 601.11 -6.19605 2.02318 0
M  V30 6608 N 604.543 -1.41418 -0.695603 0
M  V30 6609 C 605.792 -1.40073 -1.4513 0
M  V30 6610 C 606.105 -0.0130439 -1.95596 0
M  V30 6611 O 607.311 0.123032 -2.71221 0
M  V30 6612 C 605.767 -2.46286 -2.62433 0
M  V30 6613 C 605.375 -3.90962 -2.18753 0
M  V30 6614 C 607.119 -2.54077 -3.40066 0
M  V30 6615 C 605.026 -4.88728 -3.33015 0
M  V30 6616 H 603.956 -0.520903 -0.545138 0
M  V30 6617 H 606.607 -1.67242 -0.75515 0
M  V30 6618 H 604.989 -2.12248 -3.34315 0
M  V30 6619 H 606.163 -4.34248 -1.54161 0
M  V30 6620 H 604.478 -3.86831 -1.54114 0
M  V30 6621 H 607.075 -3.24303 -4.25125 0
M  V30 6622 H 607.418 -1.5776 -3.8525 0
M  V30 6623 H 607.951 -2.87206 -2.75241 0
M  V30 6624 H 604.69 -5.86449 -2.92844 0
M  V30 6625 H 604.21 -4.50091 -3.96457 0
M  V30 6626 H 605.889 -5.09483 -3.98793 0
M  V30 6627 N 606.021 0.929856 -1.27246 0
M  V30 6628 C 606.951 2.04722 -1.12299 0
M  V30 6629 C 607.932 1.70082 -0.0250464 0
M  V30 6630 O 609.117 1.93176 -0.199141 0
M  V30 6631 C 606.247 3.38721 -0.767145 0
M  V30 6632 C 605.201 3.87466 -1.81808 0
M  V30 6633 C 604.527 5.18246 -1.31626 0
M  V30 6634 C 605.827 4.11095 -3.22177 0
M  V30 6635 H 607.521 2.17485 -2.05769 0
M  V30 6636 H 605.067 1.04503 -0.990715 0
M  V30 6637 H 607.02 4.16366 -0.649413 0
M  V30 6638 H 605.744 3.25967 0.203259 0
M  V30 6639 H 604.403 3.12012 -1.92468 0
M  V30 6640 H 604.051 5.01881 -0.335378 0
M  V30 6641 H 603.751 5.51829 -2.01887 0
M  V30 6642 H 605.275 5.98462 -1.21143 0
M  V30 6643 H 606.689 4.79316 -3.1453 0
M  V30 6644 H 605.086 4.55982 -3.90129 0
M  V30 6645 H 606.156 3.16468 -3.67391 0
M  V30 6646 N 607.499 1.09233 1.13605 0
M  V30 6647 C 608.446 0.729921 2.18954 0
M  V30 6648 C 609.416 -0.287916 1.63586 0
M  V30 6649 O 610.601 -0.170003 1.90041 0
M  V30 6650 C 607.741 0.154489 3.44754 0
M  V30 6651 C 606.854 1.22613 4.14234 0
M  V30 6652 C 605.989 0.613657 5.27644 0
M  V30 6653 C 605.028 1.66674 5.8897 0
M  V30 6654 N 604.165 1.07545 6.93814 0
M  V30 6655 H 609.005 1.63257 2.49302 0
M  V30 6656 H 606.542 0.815693 1.22413 0
M  V30 6657 H 608.5 -0.196923 4.16735 0
M  V30 6658 H 607.13 -0.711433 3.14863 0
M  V30 6659 H 606.182 1.69485 3.40557 0
M  V30 6660 H 607.494 2.0238 4.55899 0
M  V30 6661 H 606.648 0.210976 6.06333 0
M  V30 6662 H 605.387 -0.215584 4.87223 0
M  V30 6663 H 604.392 2.07899 5.08978 0
M  V30 6664 H 605.617 2.49861 6.31464 0
M  V30 6665 H 603.563 0.267451 6.55455 0
M  V30 6666 H 603.48 1.81011 7.3401 0
M  V30 6667 H 604.748 0.698906 7.7636 0
M  V30 6668 N 608.977 -1.30795 0.87923 0
M  V30 6669 C 610.254 -1.91145 0.415086 0
M  V30 6670 C 610.634 -1.7995 -1.10368 0
M  V30 6671 O 609.982 -1.21305 -1.93642 0
M  V30 6672 C 610.192 -3.37014 0.906778 0
M  V30 6673 C 611.54 -4.14101 0.938358 0
M  V30 6674 O 612.564 -3.45834 0.853053 0
M  V30 6675 O 611.423 -5.36054 1.06342 0
M  V30 6676 H 608.517 -0.81736 0.125905 0
M  V30 6677 H 611.063 -1.39401 0.967753 0
M  V30 6678 H 609.835 -3.3922 1.95053 0
M  V30 6679 H 609.458 -3.96204 0.332948 0
M  V30 6680 N 610.455 -0.639598 -1.44038 0
M  V30 6681 C 611.683 -0.154811 -2.0632 0
M  V30 6682 C 612.098 1.17406 -1.47856 0
M  V30 6683 O 611.455 1.72193 -0.604638 0
M  V30 6684 C 611.506 -0.0429958 -3.61474 0
M  V30 6685 O 611.227 -1.31932 -4.17763 0
M  V30 6686 C 612.728 0.469486 -4.40807 0
M  V30 6687 H 609.948 -0.0835862 -0.665773 0
M  V30 6688 H 612.492 -0.876397 -1.84769 0
M  V30 6689 H 610.647 0.629075 -3.82258 0
M  V30 6690 H 611.061 -1.16965 -5.11292 0
M  V30 6691 H 612.535 0.496712 -5.49761 0
M  V30 6692 H 613.012 1.49819 -4.12857 0
M  V30 6693 H 613.618 -0.169624 -4.24962 0
M  V30 6694 N 611.933 1.52934 -0.380664 0
M  V30 6695 C 612.88 2.26197 0.458641 0
M  V30 6696 C 613.85 1.27462 1.06502 0
M  V30 6697 O 615.035 1.56274 1.09467 0
M  V30 6698 C 612.175 3.06571 1.58456 0
M  V30 6699 C 611.288 4.20222 1.00189 0
M  V30 6700 C 610.423 4.88007 2.09815 0
M  V30 6701 C 609.462 5.93665 1.49092 0
M  V30 6702 N 608.599 6.55081 2.52613 0
M  V30 6703 H 613.439 2.975 -0.172595 0
M  V30 6704 H 610.976 1.4678 -0.0969426 0
M  V30 6705 H 612.934 3.51455 2.24801 0
M  V30 6706 H 611.564 2.37494 2.18624 0
M  V30 6707 H 610.616 3.79714 0.228292 0
M  V30 6708 H 611.928 4.96102 0.518064 0
M  V30 6709 H 611.082 5.36151 2.83948 0
M  V30 6710 H 609.821 4.11632 2.61555 0
M  V30 6711 H 608.826 5.44868 0.7348 0
M  V30 6712 H 610.051 6.71969 0.981582 0
M  V30 6713 H 607.997 5.8155 3.03538 0
M  V30 6714 H 607.914 7.26548 2.08961 0
M  V30 6715 H 609.182 7.07871 3.26402 0
M  V30 6716 N 613.412 0.11024 1.57214 0
M  V30 6717 C 614.637 -0.561179 1.99664 0
M  V30 6718 C 615.062 -1.59985 0.989266 0
M  V30 6719 O 614.42 -1.81255 -0.0402399 0
M  V30 6720 C 614.468 -1.17189 3.41027 0
M  V30 6721 O 613.572 -2.28755 3.4314 0
M  V30 6722 H 612.913 -0.14101 0.648855 0
M  V30 6723 H 615.443 0.196128 2.03658 0
M  V30 6724 H 615.453 -1.50954 3.79047 0
M  V30 6725 H 614.128 -0.411041 4.13864 0
M  V30 6726 H 612.705 -1.96495 3.16929 0
M  V30 6727 N 614.89 -1.56749 -0.16351 0
M  V30 6728 C 616.139 -1.81626 -0.877211 0
M  V30 6729 C 616.452 -0.688791 -1.83071 0
M  V30 6730 O 617.658 -0.822697 -2.58735 0
M  V30 6731 C 616.114 -3.21858 -1.61045 0
M  V30 6732 C 615.722 -4.42494 -0.700195 0
M  V30 6733 C 617.466 -3.56021 -2.31192 0
M  V30 6734 C 615.373 -5.73748 -1.43412 0
M  V30 6735 H 614.303 -0.67731 -0.331312 0
M  V30 6736 H 616.954 -1.83039 -0.13006 0
M  V30 6737 H 615.336 -3.14784 -2.40264 0
M  V30 6738 H 616.51 -4.60766 0.0555849 0
M  V30 6739 H 614.825 -4.1626 -0.10799 0
M  V30 6740 H 617.422 -4.51333 -2.8671 0
M  V30 6741 H 617.765 -2.81277 -3.06902 0
M  V30 6742 H 618.298 -3.64682 -1.58909 0
M  V30 6743 H 615.037 -6.51543 -0.719186 0
M  V30 6744 H 614.557 -5.5944 -2.16302 0
M  V30 6745 H 616.236 -6.15975 -1.9795 0
M  V30 6746 N 616.368 0.432326 -1.51554 0
M  V30 6747 C 617.596 1.20364 -1.68286 0
M  V30 6748 C 618.011 1.84888 -0.38233 0
M  V30 6749 O 617.368 1.70924 0.639627 0
M  V30 6750 C 617.419 2.28398 -2.80208 0
M  V30 6751 O 617.14 1.66512 -4.05223 0
M  V30 6752 C 618.641 3.18584 -3.08251 0
M  V30 6753 H 615.861 0.36259 -0.564596 0
M  V30 6754 H 618.405 0.511647 -1.97996 0
M  V30 6755 H 616.56 2.93305 -2.53083 0
M  V30 6756 H 616.974 2.37951 -4.67418 0
M  V30 6757 H 618.448 3.90511 -3.90135 0
M  V30 6758 H 618.925 3.79628 -2.2086 0
M  V30 6759 H 619.531 2.59372 -3.37055 0
M  V30 6760 N 617.846 1.41785 0.688094 0
M  V30 6761 C 619.071 1.45117 1.48175 0
M  V30 6762 C 619.496 0.060129 1.88004 0
M  V30 6763 O 618.854 -0.938385 1.55126 0
M  V30 6764 C 618.902 2.37224 2.71583 0
M  V30 6765 O 618.006 1.83443 3.69354 0
M  V30 6766 H 617.347 0.492208 0.445676 0
M  V30 6767 H 619.877 1.86329 0.845145 0
M  V30 6768 H 619.887 2.53353 3.19806 0
M  V30 6769 H 618.562 3.38293 2.41931 0
M  V30 6770 H 617.139 1.76802 3.28322 0
M  V30 6771 N 619.324 -0.923095 1.27737 0
M  V30 6772 C 620.287 -2.00587 1.10894 0
M  V30 6773 C 621.287 -1.60718 0.0514927 0
M  V30 6774 O 622.477 -1.71658 0.296481 0
M  V30 6775 C 619.609 -3.33829 0.690717 0
M  V30 6776 H 620.802 -2.16959 2.07048 0
M  V30 6777 H 618.355 -1.10451 1.1059 0
M  V30 6778 H 619.09 -3.23157 -0.272 0
M  V30 6779 H 618.875 -3.64125 1.45448 0
M  V30 6780 H 620.365 -4.13336 0.595252 0
M  V30 6781 N 620.802 -1.09834 -1.13024 0
M  V30 6782 C 621.735 -0.685453 -2.17662 0
M  V30 6783 C 622.713 0.310142 -1.59615 0
M  V30 6784 O 623.897 0.21052 -1.87321 0
M  V30 6785 C 621.024 -0.0104476 -3.38698 0
M  V30 6786 C 620.07 -0.968522 -4.15358 0
M  V30 6787 S 620.903 -2.48272 -4.74469 0
M  V30 6788 C 622.059 -1.82025 -5.98847 0
M  V30 6789 H 622.292 -1.57187 -2.52348 0
M  V30 6790 H 619.825 -0.914728 -1.24387 0
M  V30 6791 H 621.783 0.372694 -4.08805 0
M  V30 6792 H 620.444 0.852673 -3.02305 0
M  V30 6793 H 619.637 -0.443373 -5.02046 0
M  V30 6794 H 619.239 -1.29327 -3.50928 0
M  V30 6795 H 621.531 -1.14678 -6.67724 0
M  V30 6796 H 622.474 -2.66645 -6.55977 0
M  V30 6797 H 622.882 -1.2874 -5.49624 0
M  V30 6798 N 622.28 1.30327 -0.886154 0
M  V30 6799 C 623.228 2.30052 -0.343317 0
M  V30 6800 C 624.222 1.60212 0.550305 0
M  V30 6801 O 625.428 1.74674 0.434609 0
M  V30 6802 H 621.803 0.746306 -0.0923681 0
M  V30 6803 H 623.774 2.73294 -1.19804 0
M  V30 6804 C 622.523 3.45079 0.426107 0
M  V30 6805 H 621.846 3.99003 -0.25227 0
M  V30 6806 H 623.286 4.16931 0.771009 0
M  V30 6807 C 621.745 2.95195 1.62363 0
M  V30 6808 O 622.275 2.95323 2.723 0
M  V30 6809 N 620.481 2.51192 1.4612 0
M  V30 6810 H 620.028 2.51286 0.566832 0
M  V30 6811 H 619.986 2.18173 2.2638 0
M  V30 6812 N 623.758 0.647228 1.43697 0
M  V30 6813 C 624.668 -0.0487997 2.34549 0
M  V30 6814 C 625.684 -0.818586 1.53542 0
M  V30 6815 O 626.86 -0.767195 1.86215 0
M  V30 6816 C 623.925 -1.00734 3.31743 0
M  V30 6817 C 622.986 -0.23515 4.28655 0
M  V30 6818 C 622.219 -1.14803 5.21206 0
M  V30 6819 O 622.442 -2.38717 5.18045 0
M  V30 6820 O 621.376 -0.623667 5.9866 0
M  V30 6821 H 625.202 0.698863 2.9555 0
M  V30 6822 H 622.787 0.407412 1.43738 0
M  V30 6823 H 624.669 -1.55837 3.91526 0
M  V30 6824 H 623.344 -1.73534 2.73254 0
M  V30 6825 H 622.251 0.359319 3.7237 0
M  V30 6826 H 623.584 0.453152 4.9011 0
M  V30 6827 N 625.236 -1.5273 0.388769 0
M  V30 6828 C 626.166 -2.29353 -0.438111 0
M  V30 6829 C 627.147 -1.32719 -1.06394 0
M  V30 6830 O 628.332 -1.61612 -1.07681 0
M  V30 6831 C 625.462 -3.09995 -1.56589 0
M  V30 6832 C 624.416 -4.14509 -1.06613 0
M  V30 6833 C 623.742 -4.83372 -2.28594 0
M  V30 6834 C 625.042 -5.22127 -0.134459 0
M  V30 6835 H 626.736 -2.98723 0.201206 0
M  V30 6836 H 624.282 -1.43665 0.0982089 0
M  V30 6837 H 626.235 -3.62357 -2.15118 0
M  V30 6838 H 624.959 -2.38357 -2.23279 0
M  V30 6839 H 623.618 -3.63128 -0.503383 0
M  V30 6840 H 623.266 -4.08283 -2.93792 0
M  V30 6841 H 622.966 -5.54012 -1.95817 0
M  V30 6842 H 624.49 -5.38538 -2.87766 0
M  V30 6843 H 625.904 -5.69851 -0.627914 0
M  V30 6844 H 624.301 -6.00011 0.103534 0
M  V30 6845 H 625.371 -4.77971 0.816798 0
M  V30 6846 N 626.714 -0.118576 -1.57153 0
M  V30 6847 C 627.646 0.862247 -2.12363 0
M  V30 6848 C 628.659 1.23025 -1.06625 0
M  V30 6849 O 629.848 1.17927 -1.33998 0
M  V30 6850 C 626.948 2.16425 -2.60794 0
M  V30 6851 C 626.121 1.96801 -3.90626 0
M  V30 6852 C 625.18 3.10726 -4.2466 0
M  V30 6853 O 624.206 2.83659 -4.93484 0
M  V30 6854 N 625.408 4.37147 -3.81946 0
M  V30 6855 H 628.173 0.390564 -2.97144 0
M  V30 6856 H 625.734 0.0658591 -1.61766 0
M  V30 6857 H 627.726 2.91633 -2.80593 0
M  V30 6858 H 626.296 2.54943 -1.80895 0
M  V30 6859 H 625.516 1.05787 -3.7974 0
M  V30 6860 H 626.804 1.80993 -4.7552 0
M  V30 6861 H 626.202 4.62014 -3.26435 0
M  V30 6862 H 624.759 5.09229 -4.06853 0
M  V30 6863 N 628.193 1.56834 0.155195 0
M  V30 6864 C 629.143 1.94061 1.19684 0
M  V30 6865 C 630.127 0.810851 1.38975 0
M  V30 6866 O 631.319 1.07422 1.40675 0
M  V30 6867 C 628.448 2.31778 2.53247 0
M  V30 6868 C 627.534 3.51305 2.37583 0
M  V30 6869 N 627.925 4.68081 1.9166 0
M  V30 6870 C 626.223 3.56228 2.6836 0
M  V30 6871 C 626.924 5.50193 1.88845 0
M  V30 6872 N 625.9 4.91676 2.31852 0
M  V30 6873 H 629.702 2.81826 0.833747 0
M  V30 6874 H 627.216 1.58284 0.363328 0
M  V30 6875 H 629.213 2.56649 3.28538 0
M  V30 6876 H 627.873 1.4536 2.90346 0
M  V30 6877 H 628.884 4.91993 1.6175 0
M  V30 6878 H 625.561 2.8033 3.09389 0
M  V30 6879 H 626.951 6.53801 1.54901 0
M  V30 6880 N 629.671 -0.424282 1.51781 0
M  V30 6881 C 630.948 -1.18464 1.55646 0
M  V30 6882 C 631.328 -2.08529 0.328438 0
M  V30 6883 O 630.676 -2.17969 -0.685693 0
M  V30 6884 C 630.886 -1.97514 2.87731 0
M  V30 6885 C 632.234 -2.54106 3.40169 0
M  V30 6886 O 633.258 -2.07711 2.89369 0
M  V30 6887 O 632.117 -3.38759 4.28841 0
M  V30 6888 H 629.211 -0.540055 0.626314 0
M  V30 6889 H 631.757 -0.432291 1.64102 0
M  V30 6890 H 630.529 -1.31444 3.68562 0
M  V30 6891 H 630.152 -2.79787 2.82498 0
M  V30 6892 N 631.149 -1.42148 -0.680565 0
M  V30 6893 C 632.079 -1.4796 -1.80638 0
M  V30 6894 C 633.06 -0.336728 -1.66734 0
M  V30 6895 O 634.245 -0.550247 -1.86242 0
M  V30 6896 C 631.375 -1.37569 -3.18892 0
M  V30 6897 C 630.329 -2.49823 -3.47524 0
M  V30 6898 C 629.655 -2.24491 -4.85291 0
M  V30 6899 C 630.955 -3.92144 -3.44994 0
M  V30 6900 H 632.649 -2.42184 -1.76032 0
M  V30 6901 H 630.195 -1.16566 -0.845481 0
M  V30 6902 H 632.148 -1.40243 -3.97379 0
M  V30 6903 H 630.872 -0.398357 -3.24162 0
M  V30 6904 H 629.531 -2.46455 -2.71395 0
M  V30 6905 H 629.179 -1.25066 -4.87204 0
M  V30 6906 H 628.879 -2.99722 -5.05411 0
M  V30 6907 H 630.403 -2.28906 -5.66069 0
M  V30 6908 H 631.817 -3.97145 -4.13459 0
M  V30 6909 H 630.214 -4.67179 -3.76648 0
M  V30 6910 H 631.284 -4.19225 -2.43676 0
M  V30 6911 N 632.627 0.916307 -1.28225 0
M  V30 6912 C 633.904 1.64429 -1.05936 0
M  V30 6913 C 634.284 2.07234 0.402139 0
M  V30 6914 O 633.632 1.81535 1.3877 0
M  V30 6915 C 633.842 2.83773 -2.03159 0
M  V30 6916 C 635.19 3.54852 -2.33164 0
M  V30 6917 O 636.214 2.93918 -2.01223 0
M  V30 6918 O 635.073 4.64663 -2.87664 0
M  V30 6919 H 632.167 0.721221 -0.404683 0
M  V30 6920 H 634.713 0.965838 -1.39534 0
M  V30 6921 H 633.485 2.49217 -3.01673 0
M  V30 6922 H 633.108 3.59333 -1.70192 0
M  V30 6923 N 634.105 1.10431 1.1244 0
M  V30 6924 C 635.351 0.847972 1.84221 0
M  V30 6925 C 635.684 -0.624903 1.83871 0
M  V30 6926 O 634.959 -1.46074 1.28423 0
M  V30 6927 C 635.242 1.39695 3.319 0
M  V30 6928 C 635.095 2.93668 3.40704 0
M  V30 6929 C 636.414 1.03924 4.27654 0
M  V30 6930 H 633.533 0.309502 0.668863 0
M  V30 6931 H 636.175 1.36745 1.31912 0
M  V30 6932 H 634.325 0.955095 3.76577 0
M  V30 6933 H 635.997 3.46379 3.04662 0
M  V30 6934 H 634.24 3.30272 2.81252 0
M  V30 6935 H 634.911 3.27162 4.446 0
M  V30 6936 H 637.387 1.42049 3.91102 0
M  V30 6937 H 636.263 1.45027 5.29394 0
M  V30 6938 H 636.524 -0.051336 4.4207 0
M  V30 6939 N 635.583 -1.29855 0.893053 0
M  V30 6940 C 636.829 -1.96116 0.516349 0
M  V30 6941 C 637.162 -1.70281 -0.933695 0
M  V30 6942 O 636.437 -1.01205 -1.66096 0
M  V30 6943 C 636.72 -3.51068 0.801455 0
M  V30 6944 C 636.573 -3.86387 2.30272 0
M  V30 6945 C 637.892 -4.39186 0.283423 0
M  V30 6946 H 635.011 -0.712335 0.189072 0
M  V30 6947 H 637.653 -1.53587 1.11852 0
M  V30 6948 H 635.803 -3.87424 0.288949 0
M  V30 6949 H 637.475 -3.60012 2.88425 0
M  V30 6950 H 635.718 -3.34167 2.76613 0
M  V30 6951 H 636.389 -4.94512 2.45279 0
M  V30 6952 H 638.865 -4.09785 0.722187 0
M  V30 6953 H 637.741 -5.46505 0.512169 0
M  V30 6954 H 638.002 -4.34511 -0.815643 0
M  V30 6955 N 637.061 -0.65484 -1.43351 0
M  V30 6956 C 638.286 -0.175046 -2.0666 0
M  V30 6957 C 638.711 1.15104 -1.4877 0
M  V30 6958 O 638.069 1.71144 -0.598279 0
M  V30 6959 C 638.117 -0.0991544 -3.60464 0
M  V30 6960 O 637.221 0.938169 -4.01587 0
M  V30 6961 H 636.562 -0.0956148 -0.65708 0
M  V30 6962 H 639.092 -0.898222 -1.83829 0
M  V30 6963 H 639.102 0.083632 -4.07914 0
M  V30 6964 H 637.777 -1.06719 -4.01975 0
M  V30 6965 H 636.354 0.72804 -3.65724 0
M  V30 6966 N 638.539 1.52521 -0.396863 0
M  V30 6967 C 639.816 1.94112 0.240842 0
M  V30 6968 C 640.196 1.33288 1.637 0
M  V30 6969 O 639.544 0.503901 2.22875 0
M  V30 6970 C 639.754 3.48033 0.259567 0
M  V30 6971 C 641.102 4.21822 0.484866 0
M  V30 6972 O 642.126 3.54579 0.339453 0
M  V30 6973 O 640.985 5.41042 0.770412 0
M  V30 6974 H 638.079 0.812973 0.151671 0
M  V30 6975 H 640.625 1.63572 -0.451918 0
M  V30 6976 H 639.397 3.84655 -0.718078 0
M  V30 6977 H 639.02 3.84899 0.996937 0
M  V30 6978 N 640.017 0.126909 1.57088 0
M  V30 6979 C 640.98 -0.806097 2.14557 0
M  V30 6980 C 641.98 -1.18918 1.08236 0
M  V30 6981 O 643.17 -1.11339 1.33975 0
M  V30 6982 C 640.302 -2.09116 2.69227 0
M  V30 6983 H 641.495 -0.306522 2.98329 0
M  V30 6984 H 639.048 -0.122393 1.5582 0
M  V30 6985 H 639.783 -2.63486 1.89065 0
M  V30 6986 H 639.568 -1.82588 3.46993 0
M  V30 6987 H 641.058 -2.75794 3.13572 0
M  V30 6988 N 641.495 -1.56914 -0.146875 0
M  V30 6989 C 642.425 -2.01308 -1.1831 0
M  V30 6990 C 643.406 -0.892664 -1.44795 0
M  V30 6991 O 644.591 -1.16048 -1.55713 0
M  V30 6992 C 641.721 -2.3938 -2.51624 0
M  V30 6993 C 640.675 -3.54608 -2.3966 0
M  V30 6994 C 640.001 -3.78493 -3.77686 0
M  V30 6995 C 641.301 -4.87269 -1.88058 0
M  V30 6996 H 642.995 -2.88123 -0.813964 0
M  V30 6997 H 640.541 -1.38615 -0.3901 0
M  V30 6998 H 642.494 -2.69037 -3.24341 0
M  V30 6999 H 641.218 -1.49502 -2.90373 0
M  V30 7000 H 639.877 -3.25116 -1.69396 0
M  V30 7001 H 639.525 -2.85866 -4.13871 0
M  V30 7002 H 639.225 -4.56039 -3.70543 0
M  V30 7003 H 640.749 -4.10576 -4.51951 0
M  V30 7004 H 642.163 -5.15644 -2.50568 0
M  V30 7005 H 640.56 -5.68622 -1.91805 0
M  V30 7006 H 641.63 -4.77634 -0.836277 0
M  V30 7007 N 642.974 0.416227 -1.52004 0
M  V30 7008 C 643.937 1.48926 -1.74223 0
M  V30 7009 C 644.937 1.48693 -0.612119 0
M  V30 7010 O 646.127 1.50343 -0.879921 0
M  V30 7011 C 643.259 2.88372 -1.81809 0
M  V30 7012 H 644.452 1.3052 -2.70008 0
M  V30 7013 H 642.005 0.646271 -1.42313 0
M  V30 7014 H 642.74 3.12157 -0.879135 0
M  V30 7015 H 642.525 2.89944 -2.6396 0
M  V30 7016 H 644.015 3.66173 -2.00766 0
M  V30 7017 N 644.452 1.42507 0.673017 0
M  V30 7018 C 645.399 1.46124 1.78651 0
M  V30 7019 C 646.369 0.313007 1.63124 0
M  V30 7020 O 647.554 0.517337 1.83653 0
M  V30 7021 C 644.694 1.3711 3.16694 0
M  V30 7022 C 643.807 2.61983 3.43495 0
M  V30 7023 C 642.942 2.45098 4.71275 0
M  V30 7024 C 641.981 3.65336 4.91117 0
M  V30 7025 N 641.118 3.47383 6.10139 0
M  V30 7026 H 645.958 2.4128 1.74895 0
M  V30 7027 H 643.495 1.19788 0.853766 0
M  V30 7028 H 645.453 1.29881 3.96468 0
M  V30 7029 H 644.083 0.45549 3.1957 0
M  V30 7030 H 643.135 2.79571 2.57961 0
M  V30 7031 H 644.447 3.51355 3.5405 0
M  V30 7032 H 643.601 2.35466 5.59143 0
M  V30 7033 H 642.34 1.53219 4.63007 0
M  V30 7034 H 641.345 3.754 4.0169 0
M  V30 7035 H 642.57 4.58199 5.01229 0
M  V30 7036 H 640.516 2.58222 6.0304 0
M  V30 7037 H 640.433 4.30344 6.21563 0
M  V30 7038 H 641.701 3.41565 7.00681 0
M  V30 7039 N 645.93 -0.909495 1.28709 0
M  V30 7040 C 647.176 -1.66151 1.16283 0
M  V30 7041 C 647.509 -1.92067 -0.287069 0
M  V30 7042 O 646.784 -1.52409 -1.20837 0
M  V30 7043 C 647.067 -3.01676 1.9663 0
M  V30 7044 C 646.92 -2.82888 3.49707 0
M  V30 7045 C 648.239 -4.02274 1.78504 0
M  V30 7046 H 645.358 -0.602966 0.423793 0
M  V30 7047 H 648 -1.05418 1.58073 0
M  V30 7048 H 646.15 -3.53515 1.61119 0
M  V30 7049 H 647.822 -2.38026 3.95147 0
M  V30 7050 H 646.065 -2.17862 3.75125 0
M  V30 7051 H 646.736 -3.79147 4.01187 0
M  V30 7052 H 649.212 -3.59511 2.09503 0
M  V30 7053 H 648.088 -4.95056 2.37088 0
M  V30 7054 H 648.349 -4.35903 0.737647 0
M  V30 7055 N 647.408 -1.11026 -1.11852 0
M  V30 7056 C 648.633 -0.879064 -1.87849 0
M  V30 7057 C 649.058 0.565406 -1.79401 0
M  V30 7058 O 648.416 1.39886 -1.15333 0
M  V30 7059 C 648.464 -1.33985 -3.34784 0
M  V30 7060 O 647.568 -0.508803 -4.09249 0
M  V30 7061 H 646.909 -0.316992 -0.583448 0
M  V30 7062 H 649.439 -1.47863 -1.41413 0
M  V30 7063 H 649.449 -1.33248 -3.85628 0
M  V30 7064 H 648.124 -2.39172 -3.40249 0
M  V30 7065 H 646.701 -0.581913 -3.68332 0
M  V30 7066 N 648.886 1.2938 -0.899927 0
M  V30 7067 C 650.302 1.48052 -0.596059 0
M  V30 7068 C 650.502 1.82114 0.862372 0
M  V30 7069 O 649.558 1.91774 1.64253 0
M  V30 7070 C 650.871 2.59332 -1.52208 0
M  V30 7071 C 652.419 2.73208 -1.5273 0
M  V30 7072 C 652.894 3.87617 -2.43961 0
M  V30 7073 N 654.385 3.9495 -2.42009 0
M  V30 7074 C 655.12 4.82824 -3.09303 0
M  V30 7075 N 654.616 5.75387 -3.85877 0
M  V30 7076 N 656.409 4.76317 -2.98459 0
M  V30 7077 H 648.56 1.05546 -1.8432 0
M  V30 7078 H 650.823 0.524314 -0.78981 0
M  V30 7079 H 650.529 2.41029 -2.56121 0
M  V30 7080 H 650.403 3.56139 -1.24278 0
M  V30 7081 H 652.79 2.90908 -0.495614 0
M  V30 7082 H 652.871 1.76975 -1.84698 0
M  V30 7083 H 652.515 3.70672 -3.47224 0
M  V30 7084 H 652.445 4.83218 -2.09303 0
M  V30 7085 H 654.936 3.28744 -1.86375 0
M  V30 7086 H 655.249 6.39235 -4.34279 0
M  V30 7087 H 653.594 5.75272 -3.89984 0
M  V30 7088 H 656.785 4.0299 -2.38152 0
M  V30 7089 H 656.958 5.44589 -3.51179 0
M  V30 7090 N 650.364 0.662433 1.43002 0
M  V30 7091 C 651.311 -0.0235324 2.30788 0
M  V30 7092 C 652.281 -0.805342 1.4527 0
M  V30 7093 O 653.466 -0.78009 1.74124 0
M  V30 7094 C 650.606 -0.977545 3.30965 0
M  V30 7095 C 649.719 -0.190865 4.31578 0
M  V30 7096 C 648.854 -1.13951 5.18834 0
M  V30 7097 C 647.893 -0.343796 6.11134 0
M  V30 7098 N 647.03 -1.2445 6.90982 0
M  V30 7099 H 651.87 0.730921 2.88897 0
M  V30 7100 H 649.407 0.372197 1.42313 0
M  V30 7101 H 651.365 -1.54437 3.87563 0
M  V30 7102 H 649.995 -1.69877 2.74484 0
M  V30 7103 H 649.047 0.492388 3.772 0
M  V30 7104 H 650.359 0.427464 4.96965 0
M  V30 7105 H 649.513 -1.77666 5.80103 0
M  V30 7106 H 648.252 -1.79174 4.53595 0
M  V30 7107 H 647.257 0.30665 5.48944 0
M  V30 7108 H 648.482 0.304161 6.78419 0
M  V30 7109 H 646.428 -1.88336 6.28383 0
M  V30 7110 H 646.345 -0.680959 7.52927 0
M  V30 7111 H 647.613 -1.86952 7.56749 0
M  V30 7112 N 651.842 -1.52309 0.404946 0
M  V30 7113 C 653.253 -1.86585 -0.0655926 0
M  V30 7114 C 653.604 -1.3239 -1.44801 0
M  V30 7115 O 652.729 -0.6615 -2.06042 0
M  V30 7116 C 653.324 -3.38566 -0.125801 0
M  V30 7117 C 651.883 -3.72497 -0.540666 0
M  V30 7118 C 651.03 -2.75806 0.287487 0
M  V30 7119 H 653.981 -1.45995 0.622185 0
M  V30 7120 H 654.002 -3.68658 -0.941888 0
M  V30 7121 H 653.514 -3.77981 0.880473 0
M  V30 7122 H 651.615 -3.38659 -1.55373 0
M  V30 7123 H 651.728 -4.78234 -0.287956 0
M  V30 7124 H 650.092 -2.53474 -0.249561 0
M  V30 7125 H 650.875 -3.18059 1.29203 0
M  V30 7126 N 653.32 -0.135238 -1.57019 0
M  V30 7127 C 654.545 0.529343 -2.00531 0
M  V30 7128 C 654.97 1.58391 -1.01459 0
M  V30 7129 O 654.328 1.81296 0.0113986 0
M  V30 7130 C 654.376 1.11748 -3.42848 0
M  V30 7131 O 653.48 2.23267 -3.46736 0
M  V30 7132 H 652.821 0.130669 -0.651016 0
M  V30 7133 H 655.351 -0.228503 -2.0332 0
M  V30 7134 H 655.361 1.44905 -3.81401 0
M  V30 7135 H 654.036 0.345147 -4.14465 0
M  V30 7136 H 652.613 1.91428 -3.20015 0
M  V30 7137 N 654.798 1.5699 0.138552 0
M  V30 7138 C 656.047 1.82998 0.848205 0
M  V30 7139 C 656.36 0.717829 1.81952 0
M  V30 7140 O 657.566 0.863756 2.57394 0
M  V30 7141 C 656.022 3.24379 1.55904 0
M  V30 7142 C 655.63 4.43552 0.62971 0
M  V30 7143 C 657.374 3.59654 2.25498 0
M  V30 7144 C 655.281 5.75957 1.34266 0
M  V30 7145 H 654.211 0.682495 0.320495 0
M  V30 7146 H 656.862 1.83222 0.100924 0
M  V30 7147 H 655.244 3.18567 2.35226 0
M  V30 7148 H 656.418 4.6062 -0.128882 0
M  V30 7149 H 654.733 4.16379 0.0417526 0
M  V30 7150 H 657.33 4.55837 2.79493 0
M  V30 7151 H 657.673 2.86124 3.02388 0
M  V30 7152 H 658.206 3.67164 1.53087 0
M  V30 7153 H 654.945 6.52604 0.615441 0
M  V30 7154 H 654.465 5.62811 2.07375 0
M  V30 7155 H 656.144 6.19046 1.88126 0
M  V30 7156 O 656.315 -0.283142 1.58999 0
M  V30 7157 H 657.006 -0.92904 1.69966 0
M  V30 END ATOM
M  V30 BEGIN BOND
M  V30 END BOND
M  V30 END CTAB
M  END
$$$$
