drugbank_target|P17813 Endoglin (DB06322)
 OpenBabel12092120333D

  0  0  0     0  0            999 V3000
M  V30 BEGIN CTAB
M  V30 COUNTS 9947 10058 0 0 0
M  V30 BEGIN ATOM
M  V30 1 H -0.908 1.98254 -0.117106 0
M  V30 2 N 0 1.576 0 0
M  V30 3 C 0.933 2.03868 1.02534 0
M  V30 4 C 1.911 0.928543 1.3348 0
M  V30 5 O 3.095 1.19667 1.45644 0
M  V30 6 C 0.222 2.43627 2.35294 0
M  V30 7 C -0.732 3.65373 2.2001 0
M  V30 8 S 0.101 5.13292 1.52614 0
M  V30 9 C 1.257 5.56322 2.86805 0
M  V30 10 H 1.49 2.90518 0.631377 0
M  V30 11 H -0.977 1.52953 0.210867 0
M  V30 12 H 0.981 2.67203 3.11629 0
M  V30 13 H -0.358 1.57376 2.7183 0
M  V30 14 H -1.165 3.90944 3.18086 0
M  V30 15 H -1.563 3.418 1.51819 0
M  V30 16 H 0.729 5.58782 3.83104 0
M  V30 17 H 1.672 6.56266 2.65933 0
M  V30 18 H 2.08 4.83886 2.90714 0
M  V30 19 N 1.4781 -0.272755 1.55222 0
M  V30 20 C 2.7551 -1.02562 1.66555 0
M  V30 21 C 3.1351 -2.04282 0.532189 0
M  V30 22 O 2.4831 -2.23662 -0.467717 0
M  V30 23 C 2.6931 -1.6822 3.05782 0
M  V30 24 C 4.0411 -2.19373 3.63539 0
M  V30 25 O 5.0651 -1.78206 3.08417 0
M  V30 26 O 3.9241 -2.94883 4.60115 0
M  V30 27 H 1.0181 -0.475755 0.676451 0
M  V30 28 H 3.5641 -0.268593 1.67561 0
M  V30 29 H 2.3361 -0.945112 3.79715 0
M  V30 30 H 1.9591 -2.50609 3.08676 0
M  V30 31 N 2.9562 -1.48159 -0.537278 0
M  V30 32 C 4.3722 -1.34118 -0.865129 0
M  V30 33 C 4.5722 -0.346678 -1.98495 0
M  V30 34 O 3.6282 0.234715 -2.51407 0
M  V30 35 C 4.9412 -2.73963 -1.23954 0
M  V30 36 C 6.4892 -2.82397 -1.34984 0
M  V30 37 C 6.9642 -4.22928 -1.75772 0
M  V30 38 N 8.4552 -4.25566 -1.82887 0
M  V30 39 C 9.1902 -5.31235 -2.15817 0
M  V30 40 N 8.6862 -6.47189 -2.47222 0
M  V30 41 N 10.4792 -5.18624 -2.16761 0
M  V30 42 H 2.6302 -2.1144 0.201715 0
M  V30 43 H 4.8932 -0.947598 0.0275949 0
M  V30 44 H 4.5992 -3.48264 -0.490381 0
M  V30 45 H 4.4732 -3.0702 -2.19132 0
M  V30 46 H 6.8602 -2.08356 -2.08978 0
M  V30 47 H 6.9412 -2.5297 -0.379448 0
M  V30 48 H 6.5852 -4.97482 -1.02341 0
M  V30 49 H 6.5152 -4.49794 -2.73848 0
M  V30 50 H 9.0062 -3.41924 -1.60924 0
M  V30 51 H 9.3192 -7.23564 -2.71433 0
M  V30 52 H 7.6642 -6.50476 -2.44757 0
M  V30 53 H 10.8552 -4.27056 -1.91679 0
M  V30 54 H 11.0282 -6.01078 -2.42093 0
M  V30 55 N 4.4343 0.785586 -1.36625 0
M  V30 56 C 5.6823 1.54057 -1.30808 0
M  V30 57 C 6.0033 1.94683 0.111157 0
M  V30 58 O 5.2733 1.65241 1.05224 0
M  V30 59 H 3.8533 0.571354 -0.481211 0
M  V30 60 H 6.5153 0.935821 -1.70963 0
M  V30 61 H 5.6113 2.44637 -1.93801 0
M  V30 62 N 5.9124 1.20967 1.01018 0
M  V30 63 C 7.1404 1.04956 1.78303 0
M  V30 64 C 7.5554 -0.400915 1.84494 0
M  V30 65 O 6.9124 -1.27826 1.30257 0
M  V30 66 C 6.9634 1.63403 3.22462 0
M  V30 67 O 6.6844 3.02775 3.16637 0
M  V30 68 C 8.1854 1.52432 4.16268 0
M  V30 69 H 5.4054 0.368858 0.560522 0
M  V30 70 H 7.9494 1.60193 1.27116 0
M  V30 71 H 6.1044 1.1227 3.70775 0
M  V30 72 H 6.5184 3.30626 4.07169 0
M  V30 73 H 7.9924 1.98078 5.15237 0
M  V30 74 H 8.4694 0.477875 4.36592 0
M  V30 75 H 9.0754 2.02787 3.73841 0
M  V30 76 N 7.3905 -1.2043 1.01659 0
M  V30 77 C 8.3205 -2.25466 0.607226 0
M  V30 78 C 9.3015 -1.65853 -0.377716 0
M  V30 79 O 10.4865 -1.92409 -0.263149 0
M  V30 80 C 7.6165 -3.47256 -0.0552949 0
M  V30 81 C 6.5705 -4.19462 0.850632 0
M  V30 82 C 5.8965 -5.34673 0.0538859 0
M  V30 83 C 7.1965 -4.75603 2.15868 0
M  V30 84 H 8.8905 -2.59962 1.48526 0
M  V30 85 H 6.4365 -1.2496 0.715605 0
M  V30 86 H 8.3895 -4.19917 -0.353233 0
M  V30 87 H 7.1135 -3.11924 -0.968045 0
M  V30 88 H 5.7725 -3.48667 1.13257 0
M  V30 89 H 5.4205 -4.95585 -0.860514 0
M  V30 90 H 5.1205 -5.83913 0.657192 0
M  V30 91 H 6.6445 -6.10138 -0.237598 0
M  V30 92 H 8.0585 -5.40083 1.92311 0
M  V30 93 H 6.4555 -5.3528 2.71284 0
M  V30 94 H 7.5255 -3.94346 2.82169 0
M  V30 95 N 8.8686 -0.792821 -1.36206 0
M  V30 96 C 10.2796 -0.429513 -1.81692 0
M  V30 97 C 10.6306 1.04695 -1.65932 0
M  V30 98 O 9.7556 1.81256 -1.18218 0
M  V30 99 C 10.3506 -0.772831 -3.29868 0
M  V30 100 C 8.9096 -0.462307 -3.7355 0
M  V30 101 C 8.0566 -1.00569 -2.5842 0
M  V30 102 H 11.0076 -0.985672 -1.24379 0
M  V30 103 H 11.0286 -0.0651928 -3.80444 0
M  V30 104 H 10.5406 -1.84747 -3.41307 0
M  V30 105 H 8.6416 0.604158 -3.67669 0
M  V30 106 H 8.7546 -0.985299 -4.68859 0
M  V30 107 H 7.1186 -0.428734 -2.51066 0
M  V30 108 H 7.9016 -2.08616 -2.72643 0
M  V30 109 N 10.3467 1.47872 -0.545128 0
M  V30 110 C 11.2767 2.32661 0.197793 0
M  V30 111 C 12.2577 1.43041 0.920504 0
M  V30 112 O 13.4427 1.71912 0.90333 0
M  V30 113 C 10.5727 3.24569 1.23582 0
M  V30 114 C 9.5267 4.23333 0.630323 0
M  V30 115 C 8.8527 5.0448 1.77211 0
M  V30 116 C 10.1527 5.20704 -0.407974 0
M  V30 117 H 11.8467 2.95024 -0.510045 0
M  V30 118 H 9.3927 1.4187 -0.246731 0
M  V30 119 H 11.3457 3.8272 1.76362 0
M  V30 120 H 10.0697 2.60236 1.97344 0
M  V30 121 H 8.7287 3.6639 0.123922 0
M  V30 122 H 8.3767 4.36561 2.49847 0
M  V30 123 H 8.0767 5.71339 1.37281 0
M  V30 124 H 9.6007 5.65487 2.3034 0
M  V30 125 H 11.0147 5.7329 0.033305 0
M  V30 126 H 9.4117 5.95699 -0.725486 0
M  V30 127 H 10.4817 4.66917 -1.30828 0
M  V30 128 N 11.8248 0.280983 1.55075 0
M  V30 129 C 12.7878 -0.590896 2.21452 0
M  V30 130 C 13.7878 -1.07682 1.19421 0
M  V30 131 O 14.9778 -0.97605 1.44288 0
M  V30 132 C 12.1098 -1.81587 2.88511 0
M  V30 133 H 13.3028 -0.0112554 2.99898 0
M  V30 134 H 10.8558 0.0316438 1.56268 0
M  V30 135 H 11.5908 -2.43587 2.14093 0
M  V30 136 H 11.3758 -1.4753 3.63287 0
M  V30 137 H 12.8658 -2.43575 3.39206 0
M  V30 138 N 13.3029 -1.57598 0.00835791 0
M  V30 139 C 14.5489 -1.91211 -0.675732 0
M  V30 140 C 14.8819 -0.883139 -1.72958 0
M  V30 141 O 14.1569 0.097016 -1.94258 0
M  V30 142 C 14.4399 -3.35379 -1.31123 0
M  V30 143 C 14.2929 -4.48999 -0.268356 0
M  V30 144 C 15.6119 -3.7912 -2.23508 0
M  V30 145 H 12.7309 -0.695374 -0.244179 0
M  V30 146 H 15.3729 -1.89901 0.0613655 0
M  V30 147 H 13.5229 -3.36626 -1.93946 0
M  V30 148 H 15.1949 -4.59887 0.360844 0
M  V30 149 H 13.4379 -4.31873 0.408482 0
M  V30 150 H 14.1089 -5.46851 -0.752218 0
M  V30 151 H 16.5849 -3.79477 -1.70693 0
M  V30 152 H 15.4609 -4.80729 -2.64936 0
M  V30 153 H 15.7219 -3.13455 -3.11766 0
M  V30 154 N 14.781 0.264519 -1.55364 0
M  V30 155 C 15.744 1.31046 -1.88042 0
M  V30 156 C 16.744 1.41943 -0.755569 0
M  V30 157 O 17.934 1.40947 -1.02369 0
M  V30 158 C 15.066 2.69067 -2.09323 0
M  V30 159 H 16.259 1.03297 -2.81549 0
M  V30 160 H 13.812 0.502989 -1.47986 0
M  V30 161 H 14.547 3.01982 -1.18226 0
M  V30 162 H 14.332 2.62542 -2.91229 0
M  V30 163 H 15.822 3.44623 -2.35848 0
M  V30 164 N 16.2591 1.48442 0.529413 0
M  V30 165 C 17.1891 1.65902 1.64313 0
M  V30 166 C 18.1701 0.507897 1.6234 0
M  V30 167 O 19.3551 0.740503 1.79528 0
M  V30 168 C 16.4851 1.69911 3.02898 0
M  V30 169 C 15.4391 2.8453 3.19729 0
M  V30 170 C 14.7651 2.73629 4.59381 0
M  V30 171 C 16.0651 4.25821 3.02447 0
M  V30 172 H 17.7591 2.5914 1.49955 0
M  V30 173 H 15.3051 1.24709 0.719982 0
M  V30 174 H 17.2581 1.80715 3.80684 0
M  V30 175 H 15.9821 0.732524 3.18279 0
M  V30 176 H 14.6411 2.73283 2.44361 0
M  V30 177 H 14.2891 1.74938 4.71599 0
M  V30 178 H 13.9891 3.50541 4.71588 0
M  V30 179 H 15.5131 2.86401 5.39265 0
M  V30 180 H 16.9271 4.37898 3.70024 0
M  V30 181 H 15.3241 5.03735 3.26146 0
M  V30 182 H 16.3941 4.42244 1.98867 0
M  V30 183 N 17.7372 -0.778329 1.37039 0
M  V30 184 C 18.6672 -1.90546 1.34962 0
M  V30 185 C 19.6482 -1.68681 0.219274 0
M  V30 186 O 20.8332 -1.89634 0.418624 0
M  V30 187 C 17.9632 -3.27734 1.14925 0
M  V30 188 C 16.9172 -3.64147 2.24902 0
M  V30 189 C 16.2432 -4.99806 1.89996 0
M  V30 190 C 17.5432 -3.71579 3.67051 0
M  V30 191 H 19.2372 -1.92541 2.29277 0
M  V30 192 H 16.7832 -0.924948 1.10366 0
M  V30 193 H 18.7362 -4.06215 1.12104 0
M  V30 194 H 17.4602 -3.26154 0.170631 0
M  V30 195 H 16.1192 -2.8797 2.26868 0
M  V30 196 H 15.7672 -4.94759 0.906796 0
M  V30 197 H 15.4672 -5.25139 2.63634 0
M  V30 198 H 16.9912 -5.80694 1.88749 0
M  V30 199 H 18.4052 -4.40227 3.67251 0
M  V30 200 H 16.8022 -4.08405 4.39688 0
M  V30 201 H 17.8722 -2.72404 4.01154 0
M  V30 202 N 19.2153 -1.21501 -1.00376 0
M  V30 203 C 20.1453 -0.999478 -2.11028 0
M  V30 204 C 21.1263 0.0759671 -1.6993 0
M  V30 205 O 22.3113 -0.0841106 -1.94018 0
M  V30 206 C 19.4413 -0.564709 -3.42678 0
M  V30 207 C 18.3953 -1.58486 -3.97576 0
M  V30 208 C 17.7213 -1.00628 -5.25146 0
M  V30 209 C 19.0213 -2.97204 -4.29496 0
M  V30 210 H 20.7153 -1.92495 -2.29317 0
M  V30 211 H 18.2613 -0.92693 -1.102 0
M  V30 212 H 20.2143 -0.401091 -4.19487 0
M  V30 213 H 18.9383 0.396411 -3.24185 0
M  V30 214 H 17.5973 -1.73606 -3.22888 0
M  V30 215 H 17.2453 -0.0368439 -5.02987 0
M  V30 216 H 16.9453 -1.68771 -5.62841 0
M  V30 217 H 18.4693 -0.854015 -6.04598 0
M  V30 218 H 19.8833 -2.8552 -4.97143 0
M  V30 219 H 18.2803 -3.62372 -4.78338 0
M  V30 220 H 19.3503 -3.47956 -3.3772 0
M  V30 221 N 20.6934 1.19889 -1.02296 0
M  V30 222 C 21.6564 2.21116 -0.603351 0
M  V30 223 C 22.6564 1.5738 0.329884 0
M  V30 224 O 23.8464 1.73802 0.117702 0
M  V30 225 C 20.9784 3.40696 0.117992 0
M  V30 226 H 22.1714 2.59754 -1.49893 0
M  V30 227 H 19.7244 1.33463 -0.813468 0
M  V30 228 H 20.4594 3.07569 1.0282 0
M  V30 229 H 20.2444 3.88188 -0.552511 0
M  V30 230 H 21.7344 4.15692 0.398696 0
M  V30 231 N 22.1715 0.800033 1.35784 0
M  V30 232 C 23.3965 0.388511 2.03729 0
M  V30 233 C 23.8215 -0.990481 1.5991 0
M  V30 234 O 23.1795 -1.64013 0.772612 0
M  V30 235 C 23.2275 0.4726 3.5749 0
M  V30 236 O 22.3315 -0.51646 4.09153 0
M  V30 237 H 21.6725 0.163271 0.643614 0
M  V30 238 H 24.2025 1.0841 1.73518 0
M  V30 239 H 24.2125 0.34003 4.06581 0
M  V30 240 H 22.8875 1.47848 3.88734 0
M  V30 241 H 21.4645 -0.344673 3.71304 0
M  V30 242 N 23.6496 -1.47581 0.552962 0
M  V30 243 C 24.8896 -2.04379 0.0296245 0
M  V30 244 C 25.2536 -1.4185 -1.29393 0
M  V30 245 O 26.4546 -1.89669 -1.90471 0
M  V30 246 C 24.7256 -3.57339 -0.0661371 0
M  V30 247 S 26.2846 -4.35511 -0.536213 0
M  V30 248 H 23.1026 -0.710625 0.0230991 0
M  V30 249 H 25.7046 -1.81005 0.738734 0
M  V30 250 H 24.4086 -4.00374 0.901596 0
M  V30 251 H 23.9396 -3.85202 -0.798931 0
M  V30 252 H 25.9546 -4.6253 -1.79668 0
M  V30 253 N 25.1277 -0.289203 -1.54924 0
M  V30 254 C 26.3527 0.329299 -2.04769 0
M  V30 255 C 26.7777 1.4763 -1.16564 0
M  V30 256 O 26.1357 1.80527 -0.167186 0
M  V30 257 C 26.1837 0.774438 -3.52186 0
M  V30 258 O 25.2877 1.88038 -3.67036 0
M  V30 259 H 24.6287 0.0659259 -0.660719 0
M  V30 260 H 27.1587 -0.42761 -2.00082 0
M  V30 261 H 27.1687 1.06642 -3.93816 0
M  V30 262 H 25.8437 -0.0646707 -4.1585 0
M  V30 263 H 24.4207 1.58985 -3.3731 0
M  V30 264 N 26.6058 1.57591 -0.0167156 0
M  V30 265 C 27.5358 2.12496 0.967858 0
M  V30 266 C 28.5168 1.03807 1.34752 0
M  V30 267 O 29.7018 1.31577 1.42833 0
M  V30 268 C 26.8318 2.64194 2.25431 0
M  V30 269 C 25.7858 3.77559 2.01576 0
M  V30 270 C 25.1118 4.15636 3.36379 0
M  V30 271 C 26.4118 5.04151 1.36489 0
M  V30 272 H 28.1058 2.95013 0.510643 0
M  V30 273 H 25.6518 1.41915 0.244181 0
M  V30 274 H 27.6048 3.01236 2.94678 0
M  V30 275 H 26.3288 1.78821 2.73296 0
M  V30 276 H 24.9878 3.40937 1.34751 0
M  V30 277 H 24.6358 3.27263 3.81979 0
M  V30 278 H 24.3358 4.92022 3.21229 0
M  V30 279 H 25.8598 4.5525 4.06915 0
M  V30 280 H 27.2738 5.38857 1.95718 0
M  V30 281 H 25.6708 5.85453 1.31776 0
M  V30 282 H 26.7408 4.83733 0.336219 0
M  V30 283 N 28.0839 -0.256276 1.55502 0
M  V30 284 C 29.3089 -1.00766 1.81276 0
M  V30 285 C 29.7339 -1.78524 0.59252 0
M  V30 286 O 29.0919 -1.75413 -0.45827 0
M  V30 287 C 29.1399 -1.92869 3.04687 0
M  V30 288 O 28.2439 -3.019 2.80945 0
M  V30 289 H 27.5849 -0.287224 0.598664 0
M  V30 290 H 30.1149 -0.280109 2.02674 0
M  V30 291 H 30.1249 -2.34511 3.33869 0
M  V30 292 H 28.7999 -1.35689 3.93143 0
M  V30 293 H 27.3769 -2.64454 2.62904 0
M  V30 294 N 29.562 -1.4872 -0.521534 0
M  V30 295 C 30.973 -1.50607 -1.10337 0
M  V30 296 C 31.324 -0.280612 -1.94183 0
M  V30 297 O 30.449 0.611507 -2.0758 0
M  V30 298 C 31.044 -2.72903 -2.00772 0
M  V30 299 C 29.603 -2.77634 -2.54158 0
M  V30 300 C 28.75 -2.44241 -1.31307 0
M  V30 301 H 31.701 -1.55714 -0.306388 0
M  V30 302 H 31.722 -2.519 -2.85178 0
M  V30 303 H 31.234 -3.62077 -1.39721 0
M  V30 304 H 29.335 -1.92689 -3.18907 0
M  V30 305 H 29.448 -3.79283 -2.92714 0
M  V30 306 H 27.812 -1.95577 -1.63161 0
M  V30 307 H 28.595 -3.35666 -0.719943 0
M  V30 308 N 31.0401 0.771051 -1.3745 0
M  V30 309 C 32.2681 1.56015 -1.35893 0
M  V30 310 C 32.6831 1.88718 0.0555523 0
M  V30 311 O 32.0401 1.51502 1.01752 0
M  V30 312 C 32.0911 2.87001 -2.19801 0
M  V30 313 O 31.8121 2.557 -3.55738 0
M  V30 314 C 33.3131 3.81228 -2.26231 0
M  V30 315 H 30.5331 0.483317 -0.465453 0
M  V30 316 H 33.0771 0.955611 -1.80799 0
M  V30 317 H 31.2321 3.43877 -1.78402 0
M  V30 318 H 31.6461 3.39584 -3.99729 0
M  V30 319 H 33.1201 4.70139 -2.89263 0
M  V30 320 H 33.5971 4.20409 -1.27093 0
M  V30 321 H 34.2031 3.30281 -2.67945 0
M  V30 322 N 32.5182 1.22032 0.997298 0
M  V30 323 C 33.7432 1.06921 1.77715 0
M  V30 324 C 34.1682 -0.376226 1.84299 0
M  V30 325 O 33.5262 -1.27165 1.29223 0
M  V30 326 C 33.5742 1.67996 3.19076 0
M  V30 327 O 32.6782 0.930653 4.01762 0
M  V30 328 H 32.0192 0.375814 0.547412 0
M  V30 329 H 34.5492 1.61737 1.25309 0
M  V30 330 H 34.5592 1.72538 3.69723 0
M  V30 331 H 33.2342 2.73182 3.13599 0
M  V30 332 H 31.8112 0.960917 3.60307 0
M  V30 333 N 33.9963 -1.19345 1.0293 0
M  V30 334 C 34.9263 -2.2481 0.631105 0
M  V30 335 C 35.9073 -1.66245 -0.360104 0
M  V30 336 O 37.0923 -1.92677 -0.242726 0
M  V30 337 C 34.2223 -3.47295 -0.0184607 0
M  V30 338 C 33.1763 -4.18536 0.895073 0
M  V30 339 C 32.5023 -5.34586 0.110592 0
M  V30 340 C 33.8023 -4.73287 2.209 0
M  V30 341 H 35.4963 -2.58372 1.51275 0
M  V30 342 H 33.0423 -1.24194 0.728818 0
M  V30 343 H 34.9953 -4.20268 -0.308675 0
M  V30 344 H 33.7193 -3.12933 -0.934907 0
M  V30 345 H 32.3783 -3.47446 1.16949 0
M  V30 346 H 32.0263 -4.96469 -0.807902 0
M  V30 347 H 31.7263 -5.83183 0.719087 0
M  V30 348 H 33.2503 -6.10355 -0.172871 0
M  V30 349 H 34.6643 -5.38013 1.98028 0
M  V30 350 H 33.0613 -5.32373 2.76946 0
M  V30 351 H 34.1313 -3.91331 2.86336 0
M  V30 352 N 35.4744 -0.807222 -1.35358 0
M  V30 353 C 36.4374 -0.223665 -2.28106 0
M  V30 354 C 37.4374 0.589354 -1.4961 0
M  V30 355 O 38.6274 0.407745 -1.69361 0
M  V30 356 C 35.7594 0.688149 -3.33882 0
M  V30 357 H 36.9524 -1.04169 -2.81227 0
M  V30 358 H 34.5054 -0.577921 -1.45223 0
M  V30 359 H 35.2404 1.52984 -2.85948 0
M  V30 360 H 35.0254 0.10687 -3.91954 0
M  V30 361 H 36.5154 1.09075 -4.03104 0
M  V30 362 N 36.9525 1.47285 -0.560781 0
M  V30 363 C 37.8625 2.33846 0.187954 0
M  V30 364 C 38.8785 1.48412 0.908293 0
M  V30 365 O 40.0545 1.81332 0.876388 0
M  V30 366 C 37.1195 3.25178 1.2025 0
M  V30 367 C 36.1805 4.26504 0.489208 0
M  V30 368 C 35.4135 5.13472 1.45542 0
M  V30 369 O 35.6365 5.02959 2.6905 0
M  V30 370 O 34.5705 5.93902 0.977963 0
M  V30 371 H 38.3965 2.99177 -0.522177 0
M  V30 372 H 35.9815 1.45903 -0.321364 0
M  V30 373 H 37.8635 3.81584 1.78805 0
M  V30 374 H 36.5385 2.6247 1.89449 0
M  V30 375 H 35.4455 3.73847 -0.137627 0
M  V30 376 H 36.7785 4.91935 -0.161399 0
M  V30 377 N 38.4306 0.297415 1.54768 0
M  V30 378 C 39.6586 -0.315623 2.04478 0
M  V30 379 C 40.0736 -1.47792 1.17486 0
M  V30 380 O 39.4306 -1.81404 0.19971 0
M  V30 381 C 39.4816 -0.7753 3.53088 0
M  V30 382 O 39.2026 0.340732 4.36773 0
M  V30 383 C 40.7036 -1.45386 4.18781 0
M  V30 384 H 37.9236 -0.0690887 0.667434 0
M  V30 385 H 40.4676 0.436003 1.99798 0
M  V30 386 H 38.6226 -1.47696 3.58141 0
M  V30 387 H 39.0366 -0.0165035 5.24497 0
M  V30 388 H 40.5106 -1.72669 5.24299 0
M  V30 389 H 40.9876 -2.39275 3.68299 0
M  V30 390 H 41.5936 -0.795475 4.17795 0
M  V30 391 N 39.9087 -1.5758 0.0250728 0
M  V30 392 C 41.1547 -1.91917 -0.655413 0
M  V30 393 C 41.4877 -0.901433 -1.72011 0
M  V30 394 O 40.7627 0.0764069 -1.9435 0
M  V30 395 C 41.0457 -3.36751 -1.27558 0
M  V30 396 C 40.8987 -4.49258 -0.220719 0
M  V30 397 C 42.2177 -3.81469 -2.19475 0
M  V30 398 H 39.3367 -0.697925 -0.23679 0
M  V30 399 H 41.9787 -1.89825 0.0815036 0
M  V30 400 H 40.1287 -3.38664 -1.90365 0
M  V30 401 H 41.8007 -4.59478 0.409601 0
M  V30 402 H 40.0437 -4.31415 0.454264 0
M  V30 403 H 40.7147 -5.47618 -0.694175 0
M  V30 404 H 43.1907 -3.81266 -1.66659 0
M  V30 405 H 42.0667 -4.83512 -2.59822 0
M  V30 406 H 42.3277 -3.16744 -3.08424 0
M  V30 407 N 41.3868 0.248026 -1.55636 0
M  V30 408 C 42.3368 1.30994 -1.86614 0
M  V30 409 C 43.3208 1.43543 -0.726918 0
M  V30 410 O 44.5128 1.46804 -0.988818 0
M  V30 411 C 41.6418 2.6656 -2.16335 0
M  V30 412 C 40.7278 2.58019 -3.36581 0
M  V30 413 N 41.1188 2.1911 -4.55878 0
M  V30 414 C 39.4168 2.89035 -3.39669 0
M  V30 415 C 40.1178 2.21174 -5.38012 0
M  V30 416 N 39.0938 2.60632 -4.77045 0
M  V30 417 H 42.8958 0.999583 -2.76379 0
M  V30 418 H 40.4098 0.456652 -1.55848 0
M  V30 419 H 42.4068 3.43194 -2.36692 0
M  V30 420 H 41.0668 2.98463 -1.27867 0
M  V30 421 H 42.0778 1.90672 -4.81523 0
M  V30 422 H 38.7548 3.25485 -2.61469 0
M  V30 423 H 40.1448 1.9344 -6.43452 0
M  V30 424 N 42.8649 1.48995 0.513639 0
M  V30 425 C 44.1049 1.59452 1.27885 0
M  V30 426 C 44.4689 0.269479 1.90099 0
M  V30 427 O 45.6699 0.249139 2.67643 0
M  V30 428 C 43.9409 2.71277 2.32688 0
M  V30 429 S 45.4999 3.01604 3.18717 0
M  V30 430 H 42.3179 0.562565 0.434789 0
M  V30 431 H 44.9199 1.86595 0.583301 0
M  V30 432 H 43.6239 3.66089 1.8549 0
M  V30 433 H 43.1549 2.46086 3.06929 0
M  V30 434 H 45.1699 2.42155 4.331 0
M  V30 435 N 44.343 -0.763751 1.37857 0
M  V30 436 C 45.62 -1.51244 1.24035 0
M  V30 437 C 46 -2.10472 -0.162649 0
M  V30 438 O 45.348 -1.96206 -1.17112 0
M  V30 439 C 45.558 -2.58694 2.34261 0
M  V30 440 C 46.906 -3.25878 2.72193 0
M  V30 441 O 47.93 -2.68993 2.33497 0
M  V30 442 O 46.789 -4.2874 3.38887 0
M  V30 443 H 43.883 -0.670243 0.484462 0
M  V30 444 H 46.429 -0.800031 1.49658 0
M  V30 445 H 45.201 -2.13105 3.2818 0
M  V30 446 H 44.824 -3.37527 2.10146 0
M  V30 447 N 45.8211 -1.22559 -0.990812 0
M  V30 448 C 46.7511 -1.0218 -2.09956 0
M  V30 449 C 47.7321 0.0579394 -1.70001 0
M  V30 450 O 48.9171 -0.104684 -1.93918 0
M  V30 451 C 46.0471 -0.601023 -3.4206 0
M  V30 452 C 45.0011 -1.62694 -3.95872 0
M  V30 453 C 44.3271 -1.06193 -5.24049 0
M  V30 454 C 45.6271 -3.01743 -4.2632 0
M  V30 455 H 47.3211 -1.94916 -2.27262 0
M  V30 456 H 44.8671 -0.938566 -1.09211 0
M  V30 457 H 46.8201 -0.445561 -4.19038 0
M  V30 458 H 45.5441 0.362005 -3.24588 0
M  V30 459 H 44.2031 -1.77021 -3.21028 0
M  V30 460 H 43.8511 -0.0901903 -5.02919 0
M  V30 461 H 43.5511 -1.74732 -5.61019 0
M  V30 462 H 45.0751 -0.918092 -6.03658 0
M  V30 463 H 46.4891 -2.90777 -4.94087 0
M  V30 464 H 44.8861 -3.67425 -4.74467 0
M  V30 465 H 45.9561 -3.51518 -3.34011 0
M  V30 466 N 47.2992 1.18797 -1.03562 0
M  V30 467 C 48.2312 2.21731 -0.580337 0
M  V30 468 C 49.2442 1.59051 0.347349 0
M  V30 469 O 50.4332 1.77929 0.142669 0
M  V30 470 C 47.5332 3.38459 0.172805 0
M  V30 471 C 46.7062 4.3072 -0.761496 0
M  V30 472 C 45.7652 5.26174 -0.0525547 0
M  V30 473 O 44.7912 5.65108 -0.681333 0
M  V30 474 N 45.9932 5.67624 1.21586 0
M  V30 475 H 48.7582 2.61417 -1.46565 0
M  V30 476 H 46.3192 1.33531 -0.915476 0
M  V30 477 H 48.3112 3.99335 0.656793 0
M  V30 478 H 46.8812 2.97507 0.959602 0
M  V30 479 H 46.1012 3.67525 -1.42544 0
M  V30 480 H 47.3892 4.89267 -1.39626 0
M  V30 481 H 46.7872 5.38038 1.74732 0
M  V30 482 H 45.3442 6.30721 1.64421 0
M  V30 483 N 48.7773 0.814389 1.34928 0
M  V30 484 C 50.1883 0.458364 1.80986 0
M  V30 485 C 50.5393 -1.02042 1.67577 0
M  V30 486 O 49.6643 -1.79352 1.21086 0
M  V30 487 C 50.2593 0.825212 3.28597 0
M  V30 488 C 48.8183 0.521677 3.72767 0
M  V30 489 C 47.9653 1.04668 2.56788 0
M  V30 490 H 50.9163 1.00533 1.22795 0
M  V30 491 H 50.9373 0.12571 3.80292 0
M  V30 492 H 50.4493 1.90154 3.38324 0
M  V30 493 H 48.5503 -0.545589 3.68584 0
M  V30 494 H 48.6633 1.05977 4.67232 0
M  V30 495 H 47.0273 0.468622 2.50352 0
M  V30 496 H 47.8103 2.12927 2.6929 0
M  V30 497 N 50.2554 -1.46986 0.568584 0
M  V30 498 C 51.5014 -2.02741 0.0488709 0
M  V30 499 C 51.8344 -1.44077 -1.30214 0
M  V30 500 O 51.1094 -0.600552 -1.84996 0
M  V30 501 C 51.3924 -3.60086 -0.032047 0
M  V30 502 C 51.2454 -4.29162 1.34686 0
M  V30 503 C 52.5644 -4.33838 -0.739798 0
M  V30 504 H 49.6834 -0.736749 0.0192338 0
M  V30 505 H 52.3254 -1.75289 0.733065 0
M  V30 506 H 50.4754 -3.83606 -0.61473 0
M  V30 507 H 52.1474 -4.16948 1.97362 0
M  V30 508 H 50.3904 -3.89073 1.91846 0
M  V30 509 H 51.0614 -5.37826 1.24285 0
M  V30 510 H 53.5374 -4.15378 -0.244939 0
M  V30 511 H 52.4134 -5.43537 -0.765406 0
M  V30 512 H 52.6744 -4.03875 -1.79827 0
M  V30 513 N 51.7335 -0.305618 -1.54608 0
M  V30 514 C 52.9815 0.301701 -1.99835 0
M  V30 515 C 53.3025 1.54054 -1.19551 0
M  V30 516 O 52.5725 1.93702 -0.292658 0
M  V30 517 H 51.1525 0.114468 -0.738178 0
M  V30 518 H 53.8145 -0.418016 -1.90364 0
M  V30 519 H 52.9105 0.570548 -3.06841 0
M  V30 520 N 53.2116 1.57565 -0.0334293 0
M  V30 521 C 54.6226 1.79746 0.504798 0
M  V30 522 C 54.9736 0.944091 1.71992 0
M  V30 523 O 54.0986 0.155694 2.15839 0
M  V30 524 C 54.6936 3.25997 0.922567 0
M  V30 525 C 53.2526 3.49159 1.40588 0
M  V30 526 C 52.3996 2.74785 0.372633 0
M  V30 527 H 55.3506 1.56565 -0.259436 0
M  V30 528 H 55.3716 3.35945 1.78666 0
M  V30 529 H 54.8836 3.88081 0.0379825 0
M  V30 530 H 52.9846 2.92332 2.31025 0
M  V30 531 H 53.0976 4.57873 1.41028 0
M  V30 532 H 51.4616 2.40391 0.841672 0
M  V30 533 H 52.2446 3.39587 -0.503559 0
M  V30 534 N 54.6897 -0.239769 1.55765 0
M  V30 535 C 55.5997 -1.31831 1.94056 0
M  V30 536 C 56.6157 -1.52275 0.841925 0
M  V30 537 O 57.7917 -1.65759 1.14394 0
M  V30 538 C 54.8567 -2.65156 2.23368 0
M  V30 539 C 53.9177 -2.53173 3.46701 0
M  V30 540 C 53.1507 -3.8014 3.74606 0
M  V30 541 O 53.3737 -4.82343 3.04469 0
M  V30 542 O 52.3077 -3.78344 4.68123 0
M  V30 543 H 56.1337 -1.02347 2.85935 0
M  V30 544 H 53.7187 -0.441123 1.42739 0
M  V30 545 H 55.6007 -3.43929 2.43497 0
M  V30 546 H 54.2757 -2.94358 1.34666 0
M  V30 547 H 53.1827 -1.72662 3.31871 0
M  V30 548 H 54.5157 -2.28915 4.35728 0
M  V30 549 N 56.1678 -1.49265 -0.50573 0
M  V30 550 C 57.5838 -1.35923 -0.836486 0
M  V30 551 C 57.7838 -0.388704 -1.97715 0
M  V30 552 O 56.8398 0.181336 -2.51848 0
M  V30 553 C 58.1528 -2.76531 -1.18115 0
M  V30 554 C 59.7008 -2.85197 -1.28964 0
M  V30 555 C 60.1758 -4.26561 -1.66761 0
M  V30 556 N 61.6668 -4.2935 -1.73819 0
M  V30 557 C 62.4018 -5.35693 -2.045 0
M  V30 558 N 61.8978 -6.52287 -2.33438 0
M  V30 559 N 63.6908 -5.23105 -2.05711 0
M  V30 560 H 55.8418 -2.10965 0.246519 0
M  V30 561 H 58.1048 -0.9468 0.0476887 0
M  V30 562 H 57.8108 -3.49226 -0.416398 0
M  V30 563 H 57.6848 -3.11599 -2.1257 0
M  V30 564 H 60.0718 -2.12742 -2.04511 0
M  V30 565 H 60.1528 -2.53718 -0.325704 0
M  V30 566 H 59.7968 -4.99541 -0.917656 0
M  V30 567 H 59.7268 -4.55502 -2.64246 0
M  V30 568 H 62.2178 -3.4526 -1.53635 0
M  V30 569 H 62.5308 -7.29158 -2.56024 0
M  V30 570 H 60.8758 -6.55521 -2.30905 0
M  V30 571 H 64.0668 -4.31026 -1.82577 0
M  V30 572 H 64.2398 -6.06078 -2.29289 0
M  V30 573 N 57.6459 0.756429 -1.3826 0
M  V30 574 C 58.8939 1.51248 -1.34047 0
M  V30 575 C 59.2149 1.94875 0.0698372 0
M  V30 576 O 58.4849 1.67436 1.01696 0
M  V30 577 H 57.0649 0.561018 -0.493222 0
M  V30 578 H 59.7269 0.899347 -1.7291 0
M  V30 579 H 58.8229 2.40472 -1.98947 0
M  V30 580 N 59.124 1.23083 0.984299 0
M  V30 581 C 60.034 1.02515 2.11016 0
M  V30 582 C 61.05 -0.0291702 1.73976 0
M  V30 583 O 62.226 0.165434 2.00719 0
M  V30 584 C 59.291 0.614673 3.41208 0
M  V30 585 C 58.352 1.74359 3.92297 0
M  V30 586 C 57.585 1.35261 5.16275 0
M  V30 587 O 57.808 0.235136 5.69915 0
M  V30 588 O 56.742 2.17227 5.61334 0
M  V30 589 H 60.568 1.96862 2.31255 0
M  V30 590 H 58.153 1.01753 1.09392 0
M  V30 591 H 60.035 0.396518 4.1953 0
M  V30 592 H 58.71 -0.299851 3.22308 0
M  V30 593 H 57.617 2.01635 3.1511 0
M  V30 594 H 58.95 2.63629 4.15645 0
M  V30 595 N 60.6021 -1.18246 1.0419 0
M  V30 596 C 61.8481 -1.88536 0.747122 0
M  V30 597 C 62.1811 -1.80223 -0.723409 0
M  V30 598 O 61.4561 -1.20337 -1.52804 0
M  V30 599 C 61.7391 -3.38968 1.21544 0
M  V30 600 C 61.5921 -3.56084 2.74816 0
M  V30 601 C 62.9111 -4.32648 0.806482 0
M  V30 602 H 60.0301 -0.684619 0.272883 0
M  V30 603 H 62.6721 -1.39113 1.29413 0
M  V30 604 H 60.8221 -3.8119 0.750081 0
M  V30 605 H 62.4941 -3.22946 3.29399 0
M  V30 606 H 60.7371 -2.98699 3.14582 0
M  V30 607 H 61.4081 -4.61639 3.02644 0
M  V30 608 H 63.8841 -3.98211 1.20695 0
M  V30 609 H 62.7601 -5.36462 1.1619 0
M  V30 610 H 63.0211 -4.41146 -0.29029 0
M  V30 611 N 62.0802 -0.821533 -1.34494 0
M  V30 612 C 63.3082 -0.421884 -2.02553 0
M  V30 613 C 63.7232 0.971745 -1.61872 0
M  V30 614 O 63.0802 1.62864 -0.823496 0
M  V30 615 C 63.1312 -0.51285 -3.57844 0
M  V30 616 O 62.8522 -1.85155 -3.97051 0
M  V30 617 C 64.3532 -0.107921 -4.43169 0
M  V30 618 H 61.5732 -0.169482 -0.649243 0
M  V30 619 H 64.1172 -1.1093 -1.71798 0
M  V30 620 H 62.2722 0.126474 -3.87193 0
M  V30 621 H 62.6862 -1.82482 -4.91732 0
M  V30 622 H 64.1602 -0.222657 -5.51551 0
M  V30 623 H 64.6372 0.948401 -4.28838 0
M  V30 624 H 65.2432 -0.720989 -4.19144 0
M  V30 625 N 63.5583 1.46682 -0.576371 0
M  V30 626 C 64.7883 2.06498 -0.0648694 0
M  V30 627 C 65.1963 1.42665 1.24271 0
M  V30 628 O 64.5393 0.523886 1.76071 0
M  V30 629 C 64.6013 3.5904 0.181816 0
M  V30 630 C 64.2653 4.45028 -1.0392 0
M  V30 631 C 65.2623 4.81959 -1.94966 0
M  V30 632 C 62.9473 4.86259 -1.25927 0
M  V30 633 C 64.9413 5.58942 -3.06371 0
M  V30 634 C 62.6283 5.63002 -2.37638 0
M  V30 635 C 63.6263 5.99257 -3.2769 0
M  V30 636 O 63.3143 6.7445 -4.37461 0
M  V30 637 H 63.0463 0.674028 -0.0515987 0
M  V30 638 H 65.6003 1.89393 -0.794951 0
M  V30 639 H 63.8303 3.74429 0.966436 0
M  V30 640 H 65.5193 4.00806 0.641047 0
M  V30 641 H 66.2853 4.50689 -1.79177 0
M  V30 642 H 62.1643 4.57494 -0.567448 0
M  V30 643 H 65.7083 5.87158 -3.76684 0
M  V30 644 H 61.6053 5.93686 -2.53392 0
M  V30 645 H 62.3733 6.92867 -4.35749 0
M  V30 646 N 65.0364 0.313813 1.54444 0
M  V30 647 C 66.2644 -0.293918 2.04802 0
M  V30 648 C 66.6794 -1.46537 1.19047 0
M  V30 649 O 66.0364 -1.81182 0.218939 0
M  V30 650 C 66.0874 -0.737806 3.53891 0
M  V30 651 O 65.8084 0.387038 4.36387 0
M  V30 652 C 67.3094 -1.40936 4.203 0
M  V30 653 H 64.5294 -0.0620057 0.668129 0
M  V30 654 H 67.0734 0.457169 1.99324 0
M  V30 655 H 65.2284 -1.43889 3.59687 0
M  V30 656 H 65.6424 0.0391274 5.24485 0
M  V30 657 H 67.1164 -1.67099 5.26101 0
M  V30 658 H 67.5934 -2.35355 3.70816 0
M  V30 659 H 68.1994 -0.751117 4.18615 0
M  V30 660 N 66.5145 -1.57545 0.0417849 0
M  V30 661 C 67.7425 -1.96624 -0.643928 0
M  V30 662 C 68.1575 -0.918897 -1.64929 0
M  V30 663 O 67.5145 0.0979323 -1.82237 0
M  V30 664 C 67.5655 -3.35781 -1.33914 0
M  V30 665 O 67.2865 -4.365 -0.374048 0
M  V30 666 C 68.7875 -3.89566 -2.1155 0
M  V30 667 H 66.0075 -0.647316 -0.176702 0
M  V30 668 H 68.5515 -2.04229 0.105304 0
M  V30 669 H 66.7065 -3.29357 -2.03968 0
M  V30 670 H 67.1205 -5.17248 -0.869179 0
M  V30 671 H 68.5945 -4.89242 -2.55628 0
M  V30 672 H 69.0715 -3.24488 -2.9598 0
M  V30 673 H 69.6775 -3.99298 -1.46427 0
M  V30 674 N 67.9926 0.231505 -1.5589 0
M  V30 675 C 69.2176 0.978689 -1.82856 0
M  V30 676 C 69.6426 1.77559 -0.620846 0
M  V30 677 O 69.0006 1.76119 0.430305 0
M  V30 678 C 69.0486 1.87997 -3.07716 0
M  V30 679 O 68.1526 2.97393 -2.85712 0
M  V30 680 H 67.4936 0.277663 -0.603158 0
M  V30 681 H 70.0236 0.24783 -2.03093 0
M  V30 682 H 70.0336 2.2917 -3.37558 0
M  V30 683 H 68.7086 1.29417 -3.95252 0
M  V30 684 H 67.2856 2.60238 -2.67078 0
M  V30 685 N 69.4707 1.49531 0.497807 0
M  V30 686 C 70.4027 1.62559 1.61578 0
M  V30 687 C 71.4157 0.508134 1.54667 0
M  V30 688 O 72.6047 0.780309 1.60541 0
M  V30 689 C 69.7047 1.56925 3.00379 0
M  V30 690 C 68.8777 2.84257 3.3244 0
M  V30 691 C 67.9367 2.71632 4.50669 0
M  V30 692 O 66.9627 3.4557 4.52294 0
M  V30 693 N 68.1647 1.83391 5.5077 0
M  V30 694 H 70.9297 2.58981 1.50828 0
M  V30 695 H 68.4907 1.4666 0.685743 0
M  V30 696 H 70.4827 1.46129 3.77397 0
M  V30 697 H 69.0527 0.683483 3.05037 0
M  V30 698 H 68.2727 3.09381 2.44289 0
M  V30 699 H 69.5607 3.68666 3.5066 0
M  V30 700 H 68.9587 1.22583 5.52259 0
M  V30 701 H 67.5157 1.78515 6.26878 0
M  V30 702 N 70.9488 -0.749086 1.3866 0
M  V30 703 C 72.1948 -1.51056 1.35314 0
M  V30 704 C 72.5278 -1.94121 -0.0553751 0
M  V30 705 O 71.8028 -1.65763 -1.01749 0
M  V30 706 C 72.0858 -2.76003 2.31288 0
M  V30 707 C 71.9388 -2.39047 3.8102 0
M  V30 708 C 73.2578 -3.78046 2.2532 0
M  V30 709 H 70.3768 -0.547972 0.492844 0
M  V30 710 H 73.0188 -0.857628 1.69543 0
M  V30 711 H 71.1688 -3.31716 2.02229 0
M  V30 712 H 72.8408 -1.89074 4.20771 0
M  V30 713 H 71.0838 -1.71449 3.98482 0
M  V30 714 H 71.7548 -3.28462 4.4364 0
M  V30 715 H 74.2308 -3.31884 2.50983 0
M  V30 716 H 73.1068 -4.63159 2.94576 0
M  V30 717 H 73.3678 -4.23957 1.25352 0
M  V30 718 N 72.4269 -1.23603 -0.977757 0
M  V30 719 C 73.6519 -1.09735 -1.75991 0
M  V30 720 C 74.0769 0.346858 -1.84874 0
M  V30 721 O 73.4349 1.25093 -1.3123 0
M  V30 722 C 73.4829 -1.73051 -3.16363 0
M  V30 723 O 72.5869 -0.994452 -4.0023 0
M  V30 724 H 71.9279 -0.384476 -0.541364 0
M  V30 725 H 74.4579 -1.6371 -1.2272 0
M  V30 726 H 74.4679 -1.78398 -3.66931 0
M  V30 727 H 73.1429 -2.78137 -3.09213 0
M  V30 728 H 71.7199 -1.01812 -3.58732 0
M  V30 729 N 73.905 1.17692 -1.04816 0
M  V30 730 C 74.852 2.21581 -0.645797 0
M  V30 731 C 75.822 1.62367 0.350159 0
M  V30 732 O 77.007 1.89254 0.242433 0
M  V30 733 C 74.147 3.45092 -0.0227568 0
M  V30 734 C 73.26 4.18613 -1.06709 0
M  V30 735 C 72.395 5.29602 -0.411767 0
M  V30 736 C 71.434 5.94904 -1.44067 0
M  V30 737 N 70.571 6.97414 -0.809781 0
M  V30 738 H 75.411 2.55353 -1.5362 0
M  V30 739 H 72.948 1.25438 -0.768364 0
M  V30 740 H 74.906 4.15679 0.35588 0
M  V30 741 H 73.536 3.11917 0.831122 0
M  V30 742 H 72.588 3.46779 -1.5636 0
M  V30 743 H 73.9 4.63293 -1.84827 0
M  V30 744 H 73.054 6.06696 0.0206623 0
M  V30 745 H 71.793 4.86045 0.401438 0
M  V30 746 H 70.798 5.16544 -1.88316 0
M  V30 747 H 72.023 6.40542 -2.25571 0
M  V30 748 H 69.969 6.55998 -0.0170186 0
M  V30 749 H 69.886 7.40386 -1.52856 0
M  V30 750 H 71.154 7.78463 -0.401999 0
M  V30 751 N 75.3831 0.828654 1.34056 0
M  V30 752 C 76.6311 0.41863 1.97717 0
M  V30 753 C 76.9521 -1.02314 1.66002 0
M  V30 754 O 76.2221 -1.71119 0.953683 0
M  V30 755 H 74.8021 0.151809 0.731412 0
M  V30 756 H 77.4641 1.05936 1.63596 0
M  V30 757 H 76.5601 0.542318 3.07352 0
M  V30 758 N 76.8612 -1.46375 0.584142 0
M  V30 759 C 78.1012 -2.0427 0.0729695 0
M  V30 760 C 78.4652 -1.44563 -1.26355 0
M  V30 761 O 79.6662 -1.93667 -1.86405 0
M  V30 762 C 77.9372 -3.57399 0.00967464 0
M  V30 763 S 79.4962 -4.36551 -0.443714 0
M  V30 764 H 76.3142 -0.709975 0.0381673 0
M  V30 765 H 78.9162 -1.79398 0.776962 0
M  V30 766 H 77.6202 -3.98372 0.986319 0
M  V30 767 H 77.1512 -3.8681 -0.717044 0
M  V30 768 H 79.1662 -4.66237 -1.69816 0
M  V30 769 N 78.3393 -0.321999 -1.54275 0
M  V30 770 C 79.5853 0.281461 -2.00837 0
M  V30 771 C 79.9183 1.51909 -1.20985 0
M  V30 772 O 79.1933 1.923 -0.291733 0
M  V30 773 C 79.4763 0.617162 -3.54772 0
M  V30 774 C 79.3293 -0.631064 -4.45351 0
M  V30 775 C 80.6483 1.43542 -4.16033 0
M  V30 776 H 77.7673 0.100826 -0.730071 0
M  V30 777 H 80.4093 -0.438268 -1.84876 0
M  V30 778 H 78.5593 1.23034 -3.68504 0
M  V30 779 H 80.2313 -1.26934 -4.43492 0
M  V30 780 H 78.4743 -1.26025 -4.15091 0
M  V30 781 H 79.1453 -0.351735 -5.50878 0
M  V30 782 H 81.6213 0.917134 -4.05867 0
M  V30 783 H 80.4973 1.63907 -5.23856 0
M  V30 784 H 80.7583 2.43108 -3.69257 0
M  V30 785 N 79.8174 1.5752 -0.0501392 0
M  V30 786 C 80.7804 2.1037 0.909786 0
M  V30 787 C 81.7804 1.02308 1.24056 0
M  V30 788 O 82.9704 1.28385 1.17741 0
M  V30 789 C 80.1024 2.58708 2.21998 0
M  V30 790 H 81.2954 2.96479 0.451665 0
M  V30 791 H 78.8484 1.55038 0.198248 0
M  V30 792 H 79.5834 1.75989 2.72394 0
M  V30 793 H 79.3684 3.37675 1.99295 0
M  V30 794 H 80.8584 2.99747 2.9076 0
M  V30 795 N 81.2955 -0.223234 1.56011 0
M  V30 796 C 82.2275 -1.30006 1.88762 0
M  V30 797 C 83.2405 -1.43129 0.775746 0
M  V30 798 O 84.4295 -1.44057 1.05403 0
M  V30 799 C 81.5295 -2.67589 2.07965 0
M  V30 800 C 80.7025 -2.76434 3.38973 0
M  V30 801 C 79.7615 -3.95019 3.47629 0
M  V30 802 O 78.7875 -3.83436 4.20672 0
M  V30 803 N 79.9895 -5.09249 2.78649 0
M  V30 804 H 82.7545 -1.02238 2.81722 0
M  V30 805 H 80.3155 -0.413278 1.56536 0
M  V30 806 H 82.3075 -3.45297 2.11073 0
M  V30 807 H 80.8775 -2.87964 1.21638 0
M  V30 808 H 80.0975 -1.85216 3.47978 0
M  V30 809 H 81.3855 -2.79313 4.25278 0
M  V30 810 H 80.7835 -5.21556 2.19081 0
M  V30 811 H 79.3405 -5.85007 2.8742 0
M  V30 812 N 82.7736 -1.49793 -0.48987 0
M  V30 813 C 83.7366 -1.66752 -1.57246 0
M  V30 814 C 84.7366 -0.538867 -1.51502 0
M  V30 815 O 85.9266 -0.805545 -1.54456 0
M  V30 816 C 83.0586 -1.67528 -2.96896 0
M  V30 817 H 84.2516 -2.63321 -1.43534 0
M  V30 818 H 81.8046 -1.38992 -0.714914 0
M  V30 819 H 82.5396 -0.725837 -3.16073 0
M  V30 820 H 82.3246 -2.49504 -3.02473 0
M  V30 821 H 83.8146 -1.82667 -3.7553 0
M  V30 822 N 84.2517 0.741722 -1.39055 0
M  V30 823 C 85.6627 1.31966 -1.32068 0
M  V30 824 C 86.0137 1.96192 0.0180797 0
M  V30 825 O 85.1387 1.95861 0.920196 0
M  V30 826 C 85.7337 2.39954 -2.39181 0
M  V30 827 C 84.2927 2.93438 -2.35735 0
M  V30 828 C 83.4397 1.66936 -2.21422 0
M  V30 829 H 86.3907 0.539721 -1.4924 0
M  V30 830 H 86.4117 3.20182 -2.05581 0
M  V30 831 H 85.9237 1.9318 -3.36605 0
M  V30 832 H 84.0247 3.4451 -1.41929 0
M  V30 833 H 84.1377 3.4701 -3.30335 0
M  V30 834 H 82.5017 1.91016 -1.68478 0
M  V30 835 H 83.2847 1.22224 -3.20806 0
M  V30 836 N 85.7298 1.2412 0.971189 0
M  V30 837 C 86.6778 1.02812 2.08644 0
M  V30 838 C 87.6718 -0.0358403 1.69362 0
M  V30 839 O 88.8778 0.118429 1.7961 0
M  V30 840 H 85.2528 0.315428 0.682649 0
M  V30 841 H 87.2238 1.97397 2.23779 0
M  V30 842 C 85.9728 0.645874 3.41649 0
M  V30 843 H 85.2958 1.45632 3.72332 0
M  V30 844 H 86.7358 0.536366 4.20594 0
M  V30 845 C 85.1948 -0.646713 3.30635 0
M  V30 846 O 85.7248 -1.69338 3.64263 0
M  V30 847 N 83.9308 -0.626115 2.83775 0
M  V30 848 H 83.4778 0.225988 2.56607 0
M  V30 849 H 83.4358 -1.49117 2.76788 0
M  V30 850 N 87.2079 -1.17134 1.05439 0
M  V30 851 C 88.1709 -2.19439 0.661764 0
M  V30 852 C 89.1709 -1.58199 -0.288042 0
M  V30 853 O 90.3609 -1.74053 -0.0715803 0
M  V30 854 C 87.4929 -3.40889 -0.0276209 0
M  V30 855 H 88.6859 -2.55688 1.56728 0
M  V30 856 H 86.2389 -1.31259 0.848567 0
M  V30 857 H 86.9739 -3.10187 -0.94629 0
M  V30 858 H 86.7589 -3.86586 0.655238 0
M  V30 859 H 88.2489 -4.16603 -0.288342 0
M  V30 860 N 88.686 -0.835752 -1.33615 0
M  V30 861 C 89.935 -0.426289 -1.97144 0
M  V30 862 C 90.248 1.01912 -1.66953 0
M  V30 863 O 91.454 1.53311 -2.24072 0
M  V30 864 C 89.91 -0.711321 -3.52801 0
M  V30 865 C 89.518 -2.1712 -3.91871 0
M  V30 866 C 91.262 -0.368654 -4.22896 0
M  V30 867 C 89.169 -2.40044 -5.40493 0
M  V30 868 H 88.099 -0.15567 -0.737755 0
M  V30 869 H 90.75 -1.0239 -1.52278 0
M  V30 870 H 89.132 -0.0433766 -3.95976 0
M  V30 871 H 90.306 -2.87936 -3.59763 0
M  V30 872 H 88.621 -2.47654 -3.34749 0
M  V30 873 H 91.218 -0.517601 -5.32189 0
M  V30 874 H 91.561 0.688078 -4.10574 0
M  V30 875 H 92.094 -0.991702 -3.8524 0
M  V30 876 H 88.833 -3.44271 -5.57815 0
M  V30 877 H 88.353 -1.73785 -5.74072 0
M  V30 878 H 90.032 -2.23042 -6.0734 0
M  V30 879 N 90.1641 1.46063 -0.591896 0
M  V30 880 C 91.0941 2.33172 0.123673 0
M  V30 881 C 92.0751 1.45897 0.87453 0
M  V30 882 O 93.2601 1.74698 0.848181 0
M  V30 883 C 90.3901 3.28336 1.13194 0
M  V30 884 C 89.3441 4.25124 0.495324 0
M  V30 885 C 88.6701 5.09863 1.61071 0
M  V30 886 C 89.9701 5.19143 -0.573425 0
M  V30 887 H 91.6641 2.93252 -0.603646 0
M  V30 888 H 89.2101 1.41014 -0.291741 0
M  V30 889 H 91.1631 3.88137 1.64097 0
M  V30 890 H 89.8871 2.66383 1.88965 0
M  V30 891 H 88.5461 3.66599 0.00729452 0
M  V30 892 H 88.1941 4.44288 2.35832 0
M  V30 893 H 87.8941 5.75417 1.19035 0
M  V30 894 H 89.4181 5.72529 2.12233 0
M  V30 895 H 90.8321 5.73106 -0.1491 0
M  V30 896 H 89.2291 5.93089 -0.914636 0
M  V30 897 H 90.2991 4.62519 -1.45617 0
M  V30 898 N 91.6422 0.330177 1.54103 0
M  V30 899 C 92.5522 -0.541534 2.28264 0
M  V30 900 C 93.5682 -1.12351 1.32866 0
M  V30 901 O 94.7442 -1.14206 1.65888 0
M  V30 902 C 91.8092 -1.68322 3.03098 0
M  V30 903 C 90.8702 -1.13238 4.14096 0
M  V30 904 C 90.1032 -2.21966 4.85352 0
M  V30 905 O 90.3262 -3.42437 4.56172 0
M  V30 906 O 89.2602 -1.87013 5.7211 0
M  V30 907 H 93.0862 0.060938 3.03639 0
M  V30 908 H 90.6712 0.09565 1.49093 0
M  V30 909 H 92.5532 -2.34777 3.49939 0
M  V30 910 H 91.2282 -2.27176 2.30593 0
M  V30 911 H 90.1352 -0.432736 3.71589 0
M  V30 912 H 91.4682 -0.588898 4.88664 0
M  V30 913 N 93.1203 -1.57491 0.0584922 0
M  V30 914 C 94.3663 -1.93264 -0.614558 0
M  V30 915 C 94.6993 -0.937717 -1.7006 0
M  V30 916 O 93.9743 0.0351652 -1.94468 0
M  V30 917 C 94.2573 -3.3938 -1.20386 0
M  V30 918 C 94.1103 -4.49625 -0.125375 0
M  V30 919 C 95.4293 -3.86039 -2.11334 0
M  V30 920 H 92.5483 -0.702791 -0.221933 0
M  V30 921 H 95.1903 -1.8961 0.12175 0
M  V30 922 H 93.3403 -3.42626 -1.83139 0
M  V30 923 H 95.0123 -4.58506 0.506971 0
M  V30 924 H 93.2553 -4.30354 0.545672 0
M  V30 925 H 93.9263 -5.48967 -0.577861 0
M  V30 926 H 96.4023 -3.84716 -1.58534 0
M  V30 927 H 95.2783 -4.88914 -2.49507 0
M  V30 928 H 95.5393 -3.23215 -3.01636 0
M  V30 929 N 94.5984 0.214957 -1.56127 0
M  V30 930 C 95.5484 1.27006 -1.8935 0
M  V30 931 C 96.5324 1.41969 -0.757202 0
M  V30 932 O 97.7244 1.44673 -1.01973 0
M  V30 933 C 94.8534 2.61911 -2.2194 0
M  V30 934 C 93.9394 2.50822 -3.41978 0
M  V30 935 N 94.3304 2.09391 -4.60423 0
M  V30 936 C 92.6284 2.81765 -3.45723 0
M  V30 937 C 93.3294 2.09712 -5.42582 0
M  V30 938 N 92.3054 2.50454 -4.82466 0
M  V30 939 H 96.1074 0.940734 -2.78437 0
M  V30 940 H 93.6214 0.423492 -1.56781 0
M  V30 941 H 95.6184 3.38096 -2.43919 0
M  V30 942 H 94.2784 2.95684 -1.34169 0
M  V30 943 H 95.2894 1.80416 -4.85459 0
M  V30 944 H 91.9664 3.19865 -2.68314 0
M  V30 945 H 93.3564 1.79748 -6.4741 0
M  V30 946 N 96.0765 1.50051 0.48192 0
M  V30 947 C 97.3225 1.60736 1.2366 0
M  V30 948 C 97.6555 0.301786 1.91841 0
M  V30 949 O 96.9305 -0.696025 1.8162 0
M  V30 950 C 97.2135 2.78009 2.28874 0
M  V30 951 C 97.0665 4.18416 1.65069 0
M  V30 952 C 98.3855 2.90867 3.30279 0
M  V30 953 H 95.5045 0.585031 0.448228 0
M  V30 954 H 98.1465 1.82402 0.531946 0
M  V30 955 H 96.2965 2.59667 2.88973 0
M  V30 956 H 97.9685 4.48322 1.0865 0
M  V30 957 H 96.2115 4.23177 0.954148 0
M  V30 958 H 96.8825 4.96381 2.41474 0
M  V30 959 H 99.3585 3.07623 2.80191 0
M  V30 960 H 98.2345 3.74566 4.01238 0
M  V30 961 H 98.4955 2.01021 3.93755 0
M  V30 962 N 97.5546 -0.734337 1.39446 0
M  V30 963 C 98.4846 -1.86155 1.40955 0
M  V30 964 C 99.4656 -1.67898 0.272827 0
M  V30 965 O 100.651 -1.88207 0.478743 0
M  V30 966 C 97.7806 -3.23912 1.25294 0
M  V30 967 C 96.7346 -3.56808 2.36373 0
M  V30 968 C 96.0606 -4.93508 2.058 0
M  V30 969 C 97.3606 -3.59713 3.78687 0
M  V30 970 H 99.0546 -1.8515 2.35287 0
M  V30 971 H 96.6006 -0.889367 1.13253 0
M  V30 972 H 98.5536 -4.02443 1.2497 0
M  V30 973 H 97.2776 -3.25446 0.274308 0
M  V30 974 H 95.9366 -2.80606 2.35914 0
M  V30 975 H 95.5846 -4.91623 1.06374 0
M  V30 976 H 95.2846 -5.16486 2.80208 0
M  V30 977 H 96.8086 -5.74396 2.07128 0
M  V30 978 H 98.2226 -4.2832 3.81071 0
M  V30 979 H 96.6196 -3.94209 4.52459 0
M  V30 980 H 97.6896 -2.59504 4.09617 0
M  V30 981 N 99.0327 -1.24633 -0.964593 0
M  V30 982 C 100.28 -1.08788 -1.70796 0
M  V30 983 C 100.608 0.372783 -1.90894 0
M  V30 984 O 99.8627 1.29167 -1.47018 0
M  V30 985 C 100.162 -1.7763 -3.10133 0
M  V30 986 C 99.8277 -3.27557 -3.09866 0
M  V30 987 C 98.4897 -3.6846 -3.09501 0
M  V30 988 C 100.842 -4.23389 -3.03959 0
M  V30 989 C 98.1697 -5.03624 -3.00965 0
M  V30 990 C 100.522 -5.58565 -2.96965 0
M  V30 991 C 99.1857 -5.98809 -2.9493 0
M  V30 992 H 98.4557 -0.398084 -0.624988 0
M  V30 993 H 101.103 -1.54777 -1.12767 0
M  V30 994 H 99.4077 -1.24044 -3.71645 0
M  V30 995 H 101.105 -1.62832 -3.66451 0
M  V30 996 H 97.6947 -2.95006 -3.10917 0
M  V30 997 H 101.879 -3.92787 -3.03368 0
M  V30 998 H 97.1347 -5.33998 -2.97752 0
M  V30 999 H 101.309 -6.32523 -2.91354 0
M  V30 1000 H 98.9357 -7.03505 -2.88071 0
M  V30 1001 N 100.511 1.16574 -1.06058 0
M  V30 1002 C 101.441 2.23057 -0.690488 0
M  V30 1003 C 102.422 1.67141 0.315901 0
M  V30 1004 O 103.607 1.93253 0.191556 0
M  V30 1005 C 100.737 3.47222 -0.073625 0
M  V30 1006 C 99.6908 4.16016 -1.00573 0
M  V30 1007 C 99.0168 5.34104 -0.252289 0
M  V30 1008 C 100.317 4.67264 -2.33371 0
M  V30 1009 H 102.011 2.54271 -1.58072 0
M  V30 1010 H 99.5568 1.22218 -0.76149 0
M  V30 1011 H 101.51 4.20939 0.19714 0
M  V30 1012 H 100.234 3.15302 0.85161 0
M  V30 1013 H 98.8928 3.44223 -1.2612 0
M  V30 1014 H 98.5408 4.98437 0.675988 0
M  V30 1015 H 98.2408 5.81072 -0.873455 0
M  V30 1016 H 99.7648 6.10599 0.0109857 0
M  V30 1017 H 101.179 5.32573 -2.12223 0
M  V30 1018 H 99.5758 5.24843 -2.90963 0
M  V30 1019 H 100.646 3.83602 -2.96611 0
M  V30 1020 N 101.989 0.842826 1.3317 0
M  V30 1021 C 102.899 0.281444 2.32906 0
M  V30 1022 C 103.915 -0.594587 1.63526 0
M  V30 1023 O 105.091 -0.49777 1.95152 0
M  V30 1024 C 102.156 -0.530929 3.42611 0
M  V30 1025 C 101.217 0.369843 4.27704 0
M  V30 1026 C 100.45 -0.403853 5.3217 0
M  V30 1027 O 100.673 -1.63513 5.46461 0
M  V30 1028 O 99.6069 0.224199 6.01482 0
M  V30 1029 H 103.433 1.10744 2.82789 0
M  V30 1030 H 101.018 0.60545 1.36582 0
M  V30 1031 H 102.9 -0.992437 4.09547 0
M  V30 1032 H 101.575 -1.33392 2.94938 0
M  V30 1033 H 100.482 0.879275 3.6362 0
M  V30 1034 H 101.815 1.13771 4.78871 0
M  V30 1035 N 103.467 -1.45747 0.599634 0
M  V30 1036 C 104.714 -2.02292 0.0917284 0
M  V30 1037 C 105.042 -1.46906 -1.27472 0
M  V30 1038 O 104.297 -0.630652 -1.8526 0
M  V30 1039 C 104.596 -3.57399 -0.00602758 0
M  V30 1040 C 104.262 -4.31902 1.29503 0
M  V30 1041 C 102.924 -4.51974 1.65144 0
M  V30 1042 C 105.276 -4.74551 2.15525 0
M  V30 1043 C 102.604 -5.11949 2.86574 0
M  V30 1044 C 104.956 -5.35868 3.36196 0
M  V30 1045 C 103.62 -5.54165 3.72099 0
M  V30 1046 H 102.89 -0.740239 0.0335658 0
M  V30 1047 H 105.537 -1.7491 0.779661 0
M  V30 1048 H 103.842 -3.84014 -0.777183 0
M  V30 1049 H 105.539 -3.98846 -0.415038 0
M  V30 1050 H 102.129 -4.16588 1.00761 0
M  V30 1051 H 106.313 -4.58784 1.8929 0
M  V30 1052 H 101.569 -5.24305 3.14507 0
M  V30 1053 H 105.743 -5.6787 4.03109 0
M  V30 1054 H 103.37 -6.00406 4.6628 0
M  V30 1055 N 104.945 -0.338344 -1.53925 0
M  V30 1056 C 106.356 0.146651 -1.86123 0
M  V30 1057 C 106.707 1.5042 -1.2597 0
M  V30 1058 O 105.832 2.08723 -0.571294 0
M  V30 1059 C 106.427 0.272879 -3.37699 0
M  V30 1060 C 104.986 0.702103 -3.69794 0
M  V30 1061 C 104.133 -0.167304 -2.76795 0
M  V30 1062 H 107.084 -0.558123 -1.48562 0
M  V30 1063 H 107.105 1.10128 -3.64214 0
M  V30 1064 H 106.617 -0.715307 -3.81451 0
M  V30 1065 H 104.718 1.6995 -3.31584 0
M  V30 1066 H 104.831 0.495604 -4.7653 0
M  V30 1067 H 103.195 0.359527 -2.5215 0
M  V30 1068 H 103.978 -1.15253 -3.23375 0
M  V30 1069 N 106.423 1.57458 -0.0668435 0
M  V30 1070 C 107.651 1.97624 0.612565 0
M  V30 1071 C 108.066 0.94502 1.63447 0
M  V30 1072 O 107.423 -0.0689276 1.8237 0
M  V30 1073 C 107.474 3.37869 1.28555 0
M  V30 1074 O 107.195 4.3704 0.304557 0
M  V30 1075 C 108.696 3.92882 2.05325 0
M  V30 1076 H 105.916 0.650045 0.166381 0
M  V30 1077 H 108.46 2.04035 -0.137782 0
M  V30 1078 H 106.615 3.3256 1.98702 0
M  V30 1079 H 107.029 5.18565 0.786779 0
M  V30 1080 H 108.503 4.93247 2.47812 0
M  V30 1081 H 108.98 3.29156 2.9078 0
M  V30 1082 H 109.586 4.01577 1.40056 0
M  V30 1083 N 107.901 -0.206675 1.56239 0
M  V30 1084 C 109.149 -0.927007 1.79586 0
M  V30 1085 C 109.47 -1.8427 0.637929 0
M  V30 1086 O 108.74 -1.92849 -0.344398 0
M  V30 1087 H 107.32 -0.345292 0.662407 0
M  V30 1088 H 109.982 -0.21496 1.93711 0
M  V30 1089 H 109.078 -1.52501 2.72305 0
M  V30 1090 N 109.379 -1.50304 -0.473955 0
M  V30 1091 C 110.79 -1.54042 -1.0549 0
M  V30 1092 C 111.141 -0.342248 -1.93192 0
M  V30 1093 O 110.266 0.545157 -2.09421 0
M  V30 1094 C 110.861 -2.79152 -1.91989 0
M  V30 1095 C 109.42 -2.8558 -2.45196 0
M  V30 1096 C 108.567 -2.48295 -1.2347 0
M  V30 1097 H 111.518 -1.5661 -0.256693 0
M  V30 1098 H 111.539 -2.60845 -2.7702 0
M  V30 1099 H 111.051 -3.66339 -1.28131 0
M  V30 1100 H 109.152 -2.02738 -3.12615 0
M  V30 1101 H 109.265 -3.88403 -2.80499 0
M  V30 1102 H 107.629 -2.00669 -1.56856 0
M  V30 1103 H 108.412 -3.37787 -0.612789 0
M  V30 1104 N 110.857 0.726932 -1.39834 0
M  V30 1105 C 112.082 1.52121 -1.40976 0
M  V30 1106 C 112.507 1.88098 -0.00826029 0
M  V30 1107 O 111.865 1.52479 0.980807 0
M  V30 1108 C 111.913 2.78021 -2.29644 0
M  V30 1109 O 111.017 3.74272 -1.73188 0
M  V30 1110 H 110.358 0.45908 -0.479731 0
M  V30 1111 H 112.888 0.896207 -1.83927 0
M  V30 1112 H 112.898 3.26671 -2.44438 0
M  V30 1113 H 111.573 2.51169 -3.31492 0
M  V30 1114 H 110.15 3.33073 -1.6768 0
M  V30 1115 N 112.336 1.25143 0.95797 0
M  V30 1116 C 113.268 1.01023 2.05735 0
M  V30 1117 C 114.281 -0.0236902 1.62783 0
M  V30 1118 O 115.47 0.21448 1.77207 0
M  V30 1119 C 112.57 0.504595 3.35122 0
M  V30 1120 C 111.743 1.6039 4.06932 0
M  V30 1121 C 110.802 1.09922 5.14591 0
M  V30 1122 O 109.828 1.79293 5.40225 0
M  V30 1123 N 111.03 -0.0612545 5.80468 0
M  V30 1124 H 113.795 1.95683 2.26998 0
M  V30 1125 H 111.356 1.16303 1.12629 0
M  V30 1126 H 113.348 0.151516 4.04416 0
M  V30 1127 H 111.918 -0.347989 3.10657 0
M  V30 1128 H 111.138 2.12872 3.31782 0
M  V30 1129 H 112.426 2.34252 4.51667 0
M  V30 1130 H 111.824 -0.640985 5.62057 0
M  V30 1131 H 110.381 -0.355395 6.5083 0
M  V30 1132 N 113.814 -1.1601 1.06675 0
M  V30 1133 C 114.744 -2.22688 0.702307 0
M  V30 1134 C 115.725 -1.67306 -0.307032 0
M  V30 1135 O 116.91 -1.93352 -0.181305 0
M  V30 1136 C 114.04 -3.47178 0.092038 0
M  V30 1137 C 112.994 -4.15477 1.02777 0
M  V30 1138 C 112.32 -5.33963 0.28061 0
M  V30 1139 C 113.62 -4.66019 2.35846 0
M  V30 1140 H 115.314 -2.53429 1.59419 0
M  V30 1141 H 112.86 -1.21813 0.767961 0
M  V30 1142 H 114.813 -4.21037 -0.174814 0
M  V30 1143 H 113.537 -3.15749 -0.834877 0
M  V30 1144 H 112.196 -3.43549 1.27944 0
M  V30 1145 H 111.844 -4.98788 -0.649545 0
M  V30 1146 H 111.544 -5.806 0.904258 0
M  V30 1147 H 113.068 -6.10596 0.021396 0
M  V30 1148 H 114.482 -5.3144 2.15045 0
M  V30 1149 H 112.879 -5.23293 2.93743 0
M  V30 1150 H 113.949 -3.82023 2.98641 0
M  V30 1151 N 115.292 -0.849877 -1.32721 0
M  V30 1152 C 116.202 -0.293791 -2.32753 0
M  V30 1153 C 117.218 0.585906 -1.63839 0
M  V30 1154 O 118.394 0.487413 -1.95413 0
M  V30 1155 C 115.459 0.512752 -3.42887 0
M  V30 1156 C 114.52 -0.39252 -4.27502 0
M  V30 1157 C 113.753 0.375625 -5.32377 0
M  V30 1158 O 113.976 1.60613 -5.4732 0
M  V30 1159 O 112.91 -0.256094 -6.01355 0
M  V30 1160 H 116.736 -1.12242 -2.82197 0
M  V30 1161 H 114.321 -0.612685 -1.36259 0
M  V30 1162 H 116.203 0.970704 -4.10067 0
M  V30 1163 H 114.878 1.31826 -2.95641 0
M  V30 1164 H 113.785 -0.898547 -3.63149 0
M  V30 1165 H 115.118 -1.16309 -4.7826 0
M  V30 1166 N 116.77 1.45427 -0.607355 0
M  V30 1167 C 117.7 2.3329 0.0989352 0
M  V30 1168 C 118.681 1.46816 0.859007 0
M  V30 1169 O 119.866 1.75588 0.829604 0
M  V30 1170 C 116.996 3.29518 1.09705 0
M  V30 1171 C 115.95 4.25626 0.450206 0
M  V30 1172 C 115.276 5.11542 1.55655 0
M  V30 1173 C 116.576 5.18505 -0.628455 0
M  V30 1174 H 118.27 2.92595 -0.634716 0
M  V30 1175 H 115.816 1.40696 -0.306681 0
M  V30 1176 H 117.769 3.89855 1.59971 0
M  V30 1177 H 116.493 2.68372 1.86129 0
M  V30 1178 H 115.152 3.66586 -0.0315886 0
M  V30 1179 H 114.8 4.46765 2.31107 0
M  V30 1180 H 114.5 5.76647 1.12925 0
M  V30 1181 H 116.024 5.74748 2.06148 0
M  V30 1182 H 117.438 5.72916 -0.209877 0
M  V30 1183 H 115.835 5.92085 -0.977489 0
M  V30 1184 H 116.905 4.60948 -1.50514 0
M  V30 1185 N 118.248 0.346503 1.53744 0
M  V30 1186 C 119.476 -0.25041 2.05379 0
M  V30 1187 C 119.891 -1.43979 1.22129 0
M  V30 1188 O 119.248 -1.80677 0.257321 0
M  V30 1189 C 119.299 -0.662575 3.55376 0
M  V30 1190 O 119.02 0.479515 4.35468 0
M  V30 1191 C 120.521 -1.31989 4.23195 0
M  V30 1192 H 117.741 -0.0478198 0.669294 0
M  V30 1193 H 120.285 0.499346 1.9831 0
M  V30 1194 H 118.44 -1.36227 3.62658 0
M  V30 1195 H 118.854 0.15037 5.24284 0
M  V30 1196 H 120.328 -1.55902 5.29527 0
M  V30 1197 H 120.805 -2.27436 3.75725 0
M  V30 1198 H 121.411 -0.662154 4.20114 0
M  V30 1199 N 119.726 -1.57421 0.075193 0
M  V30 1200 C 120.656 -2.15942 -0.888324 0
M  V30 1201 C 121.637 -1.08737 -1.30806 0
M  V30 1202 O 122.822 -1.36787 -1.37851 0
M  V30 1203 C 119.952 -2.72379 -2.1547 0
M  V30 1204 C 118.906 -3.8478 -1.87425 0
M  V30 1205 C 118.232 -4.27834 -3.20721 0
M  V30 1206 C 119.532 -5.08869 -1.17684 0
M  V30 1207 H 121.226 -2.96705 -0.400799 0
M  V30 1208 H 118.772 -1.42723 -0.191342 0
M  V30 1209 H 120.725 -3.11965 -2.83295 0
M  V30 1210 H 119.449 -1.88841 -2.6647 0
M  V30 1211 H 118.108 -3.45703 -1.22004 0
M  V30 1212 H 117.756 -3.41214 -3.6957 0
M  V30 1213 H 117.456 -5.03605 -3.02746 0
M  V30 1214 H 118.98 -4.70039 -3.89738 0
M  V30 1215 H 120.394 -5.4575 -1.75584 0
M  V30 1216 H 118.791 -5.8994 -1.09956 0
M  V30 1217 H 119.861 -4.84648 -0.156453 0
M  V30 1218 N 121.204 0.198386 -1.56346 0
M  V30 1219 C 122.136 1.26987 -1.90806 0
M  V30 1220 C 123.149 1.41877 -0.798419 0
M  V30 1221 O 124.338 1.42362 -1.07682 0
M  V30 1222 C 121.438 2.64246 -2.12196 0
M  V30 1223 C 120.611 2.71007 -3.43328 0
M  V30 1224 C 119.67 3.89439 -3.5387 0
M  V30 1225 O 118.696 3.76695 -4.26719 0
M  V30 1226 N 119.898 5.04752 -2.86715 0
M  V30 1227 H 122.663 0.977433 -2.83313 0
M  V30 1228 H 120.224 0.388322 -1.57174 0
M  V30 1229 H 122.216 3.41896 -2.1654 0
M  V30 1230 H 120.786 2.85992 -1.26204 0
M  V30 1231 H 120.006 1.79657 -3.50881 0
M  V30 1232 H 121.294 2.72512 -4.29668 0
M  V30 1233 H 120.692 5.18004 -2.2735 0
M  V30 1234 H 119.249 5.8036 -2.96691 0
M  V30 1235 N 122.682 1.50554 0.465978 0
M  V30 1236 C 123.645 1.69233 1.54574 0
M  V30 1237 C 124.645 0.562901 1.50626 0
M  V30 1238 O 125.835 0.830016 1.53155 0
M  V30 1239 C 122.967 1.7223 2.94193 0
M  V30 1240 H 124.16 2.65571 1.39327 0
M  V30 1241 H 121.713 1.40111 0.692711 0
M  V30 1242 H 122.448 0.77603 3.14878 0
M  V30 1243 H 122.233 2.54285 2.98466 0
M  V30 1244 H 123.723 1.88618 3.72576 0
M  V30 1245 N 124.16 -0.719506 1.40217 0
M  V30 1246 C 125.385 -1.51371 1.4178 0
M  V30 1247 C 125.81 -1.88091 0.0182355 0
M  V30 1248 O 125.168 -1.52997 -0.972707 0
M  V30 1249 C 125.216 -2.768 2.31115 0
M  V30 1250 O 124.32 -3.73349 1.7517 0
M  V30 1251 H 123.661 -0.456529 0.482159 0
M  V30 1252 H 126.191 -0.88644 1.844 0
M  V30 1253 H 126.201 -3.25371 2.46167 0
M  V30 1254 H 124.876 -2.49407 3.3282 0
M  V30 1255 H 123.453 -3.32179 1.69444 0
M  V30 1256 N 125.638 -1.25649 -0.95132 0
M  V30 1257 C 126.585 -1.06323 -2.04851 0
M  V30 1258 C 127.555 0.0286491 -1.66075 0
M  V30 1259 O 128.74 -0.12917 -1.90362 0
M  V30 1260 C 125.88 -0.691529 -3.381 0
M  V30 1261 C 124.993 -1.85861 -3.89974 0
M  V30 1262 C 124.128 -1.43096 -5.11563 0
M  V30 1263 C 123.167 -2.56696 -5.55674 0
M  V30 1264 N 122.304 -2.14684 -6.68472 0
M  V30 1265 H 127.144 -2.00222 -2.20715 0
M  V30 1266 H 124.681 -0.997027 -1.08156 0
M  V30 1267 H 126.639 -0.456963 -4.1469 0
M  V30 1268 H 125.269 0.210474 -3.22113 0
M  V30 1269 H 124.321 -2.20639 -3.09875 0
M  V30 1270 H 125.633 -2.71161 -4.18657 0
M  V30 1271 H 124.787 -1.15624 -5.9558 0
M  V30 1272 H 123.526 -0.548722 -4.84603 0
M  V30 1273 H 122.531 -2.84909 -4.7022 0
M  V30 1274 H 123.756 -3.45503 -5.8464 0
M  V30 1275 H 121.702 -1.28881 -6.43215 0
M  V30 1276 H 121.619 -2.9353 -6.96689 0
M  V30 1277 H 122.887 -1.90397 -7.5589 0
M  V30 1278 N 127.117 1.15442 -1.07289 0
M  V30 1279 C 128.049 2.19773 -0.650585 0
M  V30 1280 C 129.062 1.60076 0.296572 0
M  V30 1281 O 130.251 1.78293 0.0859905 0
M  V30 1282 C 127.351 3.38838 0.0650398 0
M  V30 1283 C 126.524 4.2808 -0.898141 0
M  V30 1284 C 125.583 5.2574 -0.219926 0
M  V30 1285 O 124.609 5.62654 -0.860773 0
M  V30 1286 N 125.811 5.71205 1.03466 0
M  V30 1287 H 128.576 2.56622 -1.54808 0
M  V30 1288 H 126.137 1.30551 -0.957494 0
M  V30 1289 H 128.129 4.01222 0.529415 0
M  V30 1290 H 126.699 3.00409 0.864466 0
M  V30 1291 H 125.919 3.62804 -1.54165 0
M  V30 1292 H 127.207 4.84577 -1.5512 0
M  V30 1293 H 126.605 5.43325 1.57526 0
M  V30 1294 H 125.162 6.35633 1.44272 0
M  V30 1295 N 128.595 0.856903 1.32268 0
M  V30 1296 C 129.543 0.291987 2.3076 0
M  V30 1297 C 130.537 -0.585857 1.58947 0
M  V30 1298 O 131.743 -0.47341 1.73663 0
M  V30 1299 H 128.118 0.075721 0.748178 0
M  V30 1300 H 130.089 1.13687 2.75895 0
M  V30 1301 C 128.838 -0.502869 3.44044 0
M  V30 1302 H 128.161 0.163328 3.99466 0
M  V30 1303 H 129.601 -0.863691 4.1511 0
M  V30 1304 C 128.06 -1.68898 2.91505 0
M  V30 1305 O 128.59 -2.78811 2.89184 0
M  V30 1306 N 126.796 -1.51679 2.47875 0
M  V30 1307 H 126.343 -0.622666 2.49961 0
M  V30 1308 H 126.301 -2.31184 2.13076 0
M  V30 1309 N 130.073 -1.45103 0.615059 0
M  V30 1310 C 131.321 -2.01784 0.112955 0
M  V30 1311 C 131.642 -1.48504 -1.26378 0
M  V30 1312 O 130.912 -0.682245 -1.83636 0
M  V30 1313 H 129.492 -0.745993 0.0387668 0
M  V30 1314 H 132.154 -1.77808 0.798141 0
M  V30 1315 H 131.25 -3.12025 0.0684069 0
M  V30 1316 N 131.551 -0.354651 -1.53558 0
M  V30 1317 C 132.779 0.239515 -2.05509 0
M  V30 1318 C 133.194 1.4333 -1.2289 0
M  V30 1319 O 132.551 1.80538 -0.266899 0
M  V30 1320 C 132.602 0.643719 -3.55723 0
M  V30 1321 O 132.323 -0.502602 -4.35207 0
M  V30 1322 C 133.824 1.29743 -4.23889 0
M  V30 1323 H 131.044 0.0442697 -0.669538 0
M  V30 1324 H 133.588 -0.509856 -1.98042 0
M  V30 1325 H 131.743 1.34302 -3.63376 0
M  V30 1326 H 132.157 -0.178172 -5.24197 0
M  V30 1327 H 133.631 1.53091 -5.30346 0
M  V30 1328 H 134.108 2.25441 -3.76926 0
M  V30 1329 H 134.714 0.639865 -4.20459 0
M  V30 1330 N 133.029 1.57378 -0.0835403 0
M  V30 1331 C 134.275 1.95025 0.577664 0
M  V30 1332 C 134.63 0.964049 1.66505 0
M  V30 1333 O 133.923 -0.0118235 1.91596 0
M  V30 1334 C 134.117 3.37063 1.1884 0
M  V30 1335 C 133.946 4.49409 0.16171 0
M  V30 1336 C 132.716 5.04642 -0.257756 0
M  V30 1337 C 134.914 5.10722 -0.605634 0
M  V30 1338 N 132.896 6.00537 -1.27393 0
M  V30 1339 C 134.267 6.02225 -1.47395 0
M  V30 1340 C 136.322 4.93501 -0.660418 0
M  V30 1341 C 135.025 6.78355 -2.39221 0
M  V30 1342 C 137.051 5.70283 -1.56623 0
M  V30 1343 C 136.413 6.61444 -2.4222 0
M  V30 1344 H 132.512 0.760512 0.182058 0
M  V30 1345 H 135.096 1.94013 -0.163419 0
M  V30 1346 H 133.267 3.3879 1.89936 0
M  V30 1347 H 134.999 3.61917 1.81103 0
M  V30 1348 H 131.754 4.73428 0.127702 0
M  V30 1349 H 132.178 6.53184 -1.77987 0
M  V30 1350 H 136.82 4.22798 -0.0128221 0
M  V30 1351 H 134.538 7.48327 -3.05011 0
M  V30 1352 H 138.124 5.58976 -1.61361 0
M  V30 1353 H 137.004 7.1982 -3.11174 0
M  V30 1354 N 134.507 -0.190092 1.56449 0
M  V30 1355 C 135.918 -0.754312 1.70784 0
M  V30 1356 C 136.269 -1.83631 0.690951 0
M  V30 1357 O 135.394 -2.15868 -0.151604 0
M  V30 1358 C 135.989 -1.37503 3.09642 0
M  V30 1359 C 134.548 -1.88628 3.25725 0
M  V30 1360 C 133.695 -0.758098 2.66736 0
M  V30 1361 H 136.646 0.0350524 1.58661 0
M  V30 1362 H 136.667 -2.2445 3.0725 0
M  V30 1363 H 136.179 -0.587302 3.83631 0
M  V30 1364 H 134.28 -2.70103 2.56661 0
M  V30 1365 H 134.393 -2.04462 4.3328 0
M  V30 1366 H 132.757 -1.17369 2.26046 0
M  V30 1367 H 133.54 0.0174705 3.43296 0
M  V30 1368 N 135.985 -1.50799 -0.457987 0
M  V30 1369 C 137.401 -1.38515 -0.792819 0
M  V30 1370 C 137.601 -0.451409 -1.96379 0
M  V30 1371 O 136.657 0.10112 -2.52297 0
M  V30 1372 C 137.97 -2.80149 -1.09258 0
M  V30 1373 C 139.518 -2.89156 -1.19825 0
M  V30 1374 C 139.993 -4.31651 -1.53106 0
M  V30 1375 N 141.484 -4.34662 -1.60072 0
M  V30 1376 C 142.219 -5.41928 -1.87354 0
M  V30 1377 N 141.715 -6.59384 -2.12568 0
M  V30 1378 N 143.508 -5.29385 -1.88965 0
M  V30 1379 H 135.659 -2.10073 0.313511 0
M  V30 1380 H 137.922 -0.944803 0.0777862 0
M  V30 1381 H 137.628 -3.50374 -0.305084 0
M  V30 1382 H 137.502 -3.18204 -2.02549 0
M  V30 1383 H 139.889 -2.19141 -1.97639 0
M  V30 1384 H 139.97 -2.54626 -0.244821 0
M  V30 1385 H 139.614 -5.02208 -0.758266 0
M  V30 1386 H 139.544 -4.63678 -2.49621 0
M  V30 1387 H 142.035 -3.49973 -1.42573 0
M  V30 1388 H 142.348 -7.36934 -2.32696 0
M  V30 1389 H 140.693 -6.62535 -2.09933 0
M  V30 1390 H 143.884 -4.36616 -1.68772 0
M  V30 1391 H 144.057 -6.13066 -2.09891 0
M  V30 1392 N 137.463 0.71206 -1.40597 0
M  V30 1393 C 138.373 1.8562 -1.43466 0
M  V30 1394 C 139.389 1.70902 -0.326902 0
M  V30 1395 O 140.565 1.93105 -0.572043 0
M  V30 1396 C 137.63 3.21451 -1.29884 0
M  V30 1397 C 136.691 3.48398 -2.50833 0
M  V30 1398 C 135.924 4.77749 -2.3789 0
M  V30 1399 O 136.147 5.53089 -1.39459 0
M  V30 1400 O 135.081 5.05111 -3.27333 0
M  V30 1401 H 138.907 1.86155 -2.39958 0
M  V30 1402 H 136.492 0.86295 -1.21957 0
M  V30 1403 H 138.374 4.02579 -1.24531 0
M  V30 1404 H 137.049 3.21636 -0.364997 0
M  V30 1405 H 135.956 2.67265 -2.61763 0
M  V30 1406 H 137.289 3.53014 -3.4299 0
M  V30 1407 N 138.941 1.26152 0.944643 0
M  V30 1408 C 140.187 1.11657 1.69294 0
M  V30 1409 C 140.52 -0.339926 1.91202 0
M  V30 1410 O 139.795 -1.24994 1.49019 0
M  V30 1411 C 140.078 1.88236 3.06984 0
M  V30 1412 C 139.931 3.41772 2.92424 0
M  V30 1413 C 141.25 1.67343 4.07043 0
M  V30 1414 H 138.369 0.407004 0.614424 0
M  V30 1415 H 141.011 1.55106 1.09737 0
M  V30 1416 H 139.161 1.51308 3.57824 0
M  V30 1417 H 140.833 3.88433 2.48832 0
M  V30 1418 H 139.076 3.68974 2.28124 0
M  V30 1419 H 139.747 3.90579 3.90067 0
M  V30 1420 H 142.223 1.99509 3.65151 0
M  V30 1421 H 141.099 2.23346 5.01406 0
M  V30 1422 H 141.36 0.617158 4.37771 0
M  V30 1423 N 140.419 -1.14872 1.07899 0
M  V30 1424 C 141.349 -2.2193 0.725887 0
M  V30 1425 C 142.33 -1.67622 -0.28927 0
M  V30 1426 O 143.515 -1.93533 -0.160787 0
M  V30 1427 C 140.645 -3.47061 0.128856 0
M  V30 1428 C 139.599 -4.14363 1.07178 0
M  V30 1429 C 138.925 -5.33636 0.337229 0
M  V30 1430 C 140.225 -4.63492 2.40775 0
M  V30 1431 H 141.919 -2.51724 1.62097 0
M  V30 1432 H 139.465 -1.20991 0.780838 0
M  V30 1433 H 141.418 -4.21199 -0.130147 0
M  V30 1434 H 140.142 -3.16617 -0.80134 0
M  V30 1435 H 138.801 -3.42173 1.3158 0
M  V30 1436 H 138.449 -4.99449 -0.596606 0
M  V30 1437 H 138.149 -5.79609 0.965788 0
M  V30 1438 H 139.673 -6.10539 0.0861567 0
M  V30 1439 H 141.087 -5.2913 2.20669 0
M  V30 1440 H 139.484 -5.20148 2.99276 0
M  V30 1441 H 140.554 -3.78834 3.02676 0
M  V30 1442 N 141.898 -0.863906 -1.31812 0
M  V30 1443 C 142.828 -0.330843 -2.31144 0
M  V30 1444 C 143.809 0.575005 -1.60087 0
M  V30 1445 O 144.994 0.493304 -1.8783 0
M  V30 1446 C 142.124 0.47374 -3.44054 0
M  V30 1447 C 141.078 -0.338481 -4.26659 0
M  V30 1448 C 140.404 0.591412 -5.31419 0
M  V30 1449 C 141.704 -1.56926 -4.98168 0
M  V30 1450 H 143.398 -1.16086 -2.75979 0
M  V30 1451 H 140.944 -0.559657 -1.32679 0
M  V30 1452 H 142.897 0.857143 -4.12591 0
M  V30 1453 H 141.621 1.33721 -2.9797 0
M  V30 1454 H 140.28 -0.703754 -3.59782 0
M  V30 1455 H 139.928 1.45199 -4.81587 0
M  V30 1456 H 139.628 0.0519022 -5.87577 0
M  V30 1457 H 141.152 0.97179 -6.02817 0
M  V30 1458 H 142.566 -1.25764 -5.59336 0
M  V30 1459 H 140.963 -2.04739 -5.64094 0
M  V30 1460 H 142.033 -2.32544 -4.25501 0
M  V30 1461 N 143.376 1.44774 -0.622745 0
M  V30 1462 C 144.622 2.0242 -0.124083 0
M  V30 1463 C 144.955 1.4881 1.24777 0
M  V30 1464 O 144.23 0.668799 1.8264 0
M  V30 1465 C 144.513 3.59957 -0.101619 0
M  V30 1466 C 144.366 4.23867 -1.50521 0
M  V30 1467 C 145.685 4.36284 0.578272 0
M  V30 1468 H 142.804 0.735528 -0.0465645 0
M  V30 1469 H 145.446 1.72447 -0.797617 0
M  V30 1470 H 143.596 3.85623 0.471934 0
M  V30 1471 H 145.268 4.09336 -2.12701 0
M  V30 1472 H 143.511 3.81684 -2.06154 0
M  V30 1473 H 144.182 5.32843 -1.4416 0
M  V30 1474 H 146.658 4.16001 0.0906057 0
M  V30 1475 H 145.534 5.46004 0.563149 0
M  V30 1476 H 145.795 4.10271 1.64713 0
M  V30 1477 N 144.854 0.36279 1.53368 0
M  V30 1478 C 145.784 -0.476976 2.28576 0
M  V30 1479 C 146.765 -1.08631 1.30894 0
M  V30 1480 O 147.95 -1.10409 1.59761 0
M  V30 1481 C 145.08 -1.61828 3.07293 0
M  V30 1482 C 144.034 -1.13633 4.1264 0
M  V30 1483 C 143.36 -2.36766 4.79423 0
M  V30 1484 C 144.66 -0.223061 5.21823 0
M  V30 1485 H 146.354 0.150474 2.99022 0
M  V30 1486 H 143.9 0.0738103 1.43811 0
M  V30 1487 H 145.853 -2.21237 3.58653 0
M  V30 1488 H 144.577 -2.27292 2.34533 0
M  V30 1489 H 143.236 -0.564945 3.62221 0
M  V30 1490 H 142.884 -3.0068 4.03238 0
M  V30 1491 H 142.584 -2.05192 5.50609 0
M  V30 1492 H 144.108 -2.96865 5.33576 0
M  V30 1493 H 145.522 -0.724545 5.68703 0
M  V30 1494 H 143.919 0.001678 6.001 0
M  V30 1495 H 144.989 0.735553 4.79289 0
M  V30 1496 N 146.332 -1.57332 0.0918853 0
M  V30 1497 C 147.557 -1.98995 -0.584442 0
M  V30 1498 C 147.982 -0.970528 -1.61128 0
M  V30 1499 O 147.34 0.0613904 -1.81196 0
M  V30 1500 C 147.388 -3.39636 -1.21161 0
M  V30 1501 O 146.492 -3.40447 -2.32744 0
M  V30 1502 H 145.833 -0.647165 -0.148572 0
M  V30 1503 H 148.363 -2.03873 0.172347 0
M  V30 1504 H 148.373 -3.7726 -1.55367 0
M  V30 1505 H 147.048 -4.13356 -0.459313 0
M  V30 1506 H 145.625 -3.14614 -2.0018 0
M  V30 1507 N 147.81 0.181792 -1.56548 0
M  V30 1508 C 149.056 0.901431 -1.81665 0
M  V30 1509 C 149.389 1.82347 -0.668075 0
M  V30 1510 O 148.664 1.91669 0.330615 0
M  V30 1511 C 148.947 1.70618 -3.17115 0
M  V30 1512 C 148.8 0.807964 -4.42484 0
M  V30 1513 C 150.119 2.67605 -3.49393 0
M  V30 1514 H 147.238 0.32627 -0.660846 0
M  V30 1515 H 149.88 0.168134 -1.89255 0
M  V30 1516 H 148.03 2.33133 -3.10775 0
M  V30 1517 H 149.702 0.19649 -4.60881 0
M  V30 1518 H 147.945 0.115411 -4.33646 0
M  V30 1519 H 148.616 1.40632 -5.33785 0
M  V30 1520 H 151.092 2.15218 -3.56118 0
M  V30 1521 H 149.968 3.20985 -4.45264 0
M  V30 1522 H 150.229 3.47298 -2.73563 0
M  V30 1523 N 149.288 1.51039 0.449983 0
M  V30 1524 C 150.236 1.71995 1.5659 0
M  V30 1525 C 151.23 0.586029 1.5894 0
M  V30 1526 O 152.436 0.76709 1.62837 0
M  V30 1527 H 148.811 0.543233 0.520001 0
M  V30 1528 H 150.782 2.65562 1.36085 0
M  V30 1529 C 149.531 1.8506 2.9436 0
M  V30 1530 H 148.854 2.71712 2.93279 0
M  V30 1531 H 150.294 2.0374 3.71842 0
M  V30 1532 C 148.753 0.607277 3.31382 0
M  V30 1533 O 149.283 -0.243903 4.00959 0
M  V30 1534 N 147.489 0.455073 2.87015 0
M  V30 1535 H 147.036 1.14879 2.30566 0
M  V30 1536 H 146.994 -0.375611 3.12148 0
M  V30 1537 N 150.766 -0.704594 1.40972 0
M  V30 1538 C 151.991 -1.49858 1.43378 0
M  V30 1539 C 152.416 -1.88061 0.038184 0
M  V30 1540 O 151.774 -1.5402 -0.956425 0
M  V30 1541 C 151.822 -2.74333 2.34038 0
M  V30 1542 O 150.926 -3.7147 1.7912 0
M  V30 1543 H 150.267 -0.45139 0.486974 0
M  V30 1544 H 152.797 -0.866832 1.8533 0
M  V30 1545 H 152.807 -3.22741 2.49604 0
M  V30 1546 H 151.482 -2.45863 3.35446 0
M  V30 1547 H 150.059 -3.30363 1.72958 0
M  V30 1548 N 152.244 -1.26651 -0.937939 0
M  V30 1549 C 153.469 -1.15279 -1.72411 0
M  V30 1550 C 153.894 0.287866 -1.85884 0
M  V30 1551 O 153.252 1.20855 -1.35143 0
M  V30 1552 C 153.3 -1.83028 -3.10698 0
M  V30 1553 O 152.404 -1.12128 -3.96864 0
M  V30 1554 H 151.745 -0.401504 -0.528858 0
M  V30 1555 H 154.275 -1.67531 -1.1745 0
M  V30 1556 H 154.285 -1.89981 -3.6107 0
M  V30 1557 H 152.96 -2.87833 -3.00208 0
M  V30 1558 H 151.537 -1.13173 -3.55312 0
M  V30 1559 N 153.722 1.14298 -1.08507 0
M  V30 1560 C 154.968 1.85633 -0.816581 0
M  V30 1561 C 155.301 1.82784 0.656021 0
M  V30 1562 O 154.576 1.25926 1.48233 0
M  V30 1563 C 154.859 3.34223 -1.34041 0
M  V30 1564 C 154.712 3.45639 -2.87843 0
M  V30 1565 C 156.031 4.29356 -0.9665 0
M  V30 1566 H 153.15 0.67402 -0.298104 0
M  V30 1567 H 155.792 1.34214 -1.34487 0
M  V30 1568 H 153.942 3.78144 -0.89104 0
M  V30 1569 H 155.614 3.10498 -3.41158 0
M  V30 1570 H 153.857 2.86817 -3.25451 0
M  V30 1571 H 154.528 4.50089 -3.19569 0
M  V30 1572 H 157.004 3.93457 -1.35391 0
M  V30 1573 H 155.88 5.3178 -1.3602 0
M  V30 1574 H 156.141 4.41919 0.126362 0
M  V30 1575 N 155.201 0.870884 1.31352 0
M  V30 1576 C 156.448 0.482273 1.96673 0
M  V30 1577 C 156.776 -0.965638 1.68836 0
M  V30 1578 O 156.031 -1.69514 0.977937 0
M  V30 1579 C 156.33 0.687157 3.50732 0
M  V30 1580 C 155.996 2.108 3.9859 0
M  V30 1581 C 154.658 2.49656 4.1137 0
M  V30 1582 C 157.01 3.03459 4.23748 0
M  V30 1583 C 154.338 3.80412 4.46659 0
M  V30 1584 C 156.69 4.3373 4.60501 0
M  V30 1585 C 155.354 4.725 4.71487 0
M  V30 1586 H 154.624 0.176476 0.719679 0
M  V30 1587 H 157.271 1.10405 1.56471 0
M  V30 1588 H 155.576 -0.0177476 3.91796 0
M  V30 1589 H 157.273 0.366284 3.99324 0
M  V30 1590 H 153.863 1.79633 3.8914 0
M  V30 1591 H 158.047 2.74665 4.13368 0
M  V30 1592 H 153.303 4.1021 4.53362 0
M  V30 1593 H 157.477 5.05578 4.78919 0
M  V30 1594 H 155.104 5.73859 4.98588 0
M  V30 1595 N 156.679 -1.44442 0.630414 0
M  V30 1596 C 157.609 -2.33418 -0.0618083 0
M  V30 1597 C 158.59 -1.48165 -0.835541 0
M  V30 1598 O 159.775 -1.76886 -0.801564 0
M  V30 1599 C 156.905 -3.31222 -1.04449 0
M  V30 1600 C 155.859 -4.26288 -0.382436 0
M  V30 1601 C 155.185 -5.13954 -1.47497 0
M  V30 1602 C 156.485 -5.1744 0.710865 0
M  V30 1603 H 158.179 -2.91548 0.681184 0
M  V30 1604 H 155.725 -1.40191 0.329026 0
M  V30 1605 H 157.678 -3.92351 -1.53748 0
M  V30 1606 H 156.402 -2.71299 -1.81836 0
M  V30 1607 H 155.061 -3.6649 0.0899054 0
M  V30 1608 H 154.709 -4.50385 -2.2397 0
M  V30 1609 H 154.409 -5.7837 -1.03737 0
M  V30 1610 H 155.933 -5.77955 -1.96979 0
M  V30 1611 H 157.347 -5.72509 0.300996 0
M  V30 1612 H 155.744 -5.90455 1.07156 0
M  V30 1613 H 156.814 -4.58496 1.57829 0
M  V30 1614 N 158.157 -0.370918 -1.53173 0
M  V30 1615 C 159.107 0.489588 -2.22681 0
M  V30 1616 C 160.091 1.04442 -1.22395 0
M  V30 1617 O 161.283 0.973578 -1.47819 0
M  V30 1618 C 158.412 1.626 -3.02351 0
M  V30 1619 C 157.498 1.08379 -4.10018 0
M  V30 1620 N 157.889 0.265004 -5.05105 0
M  V30 1621 C 156.187 1.35809 -4.2482 0
M  V30 1622 C 156.888 -0.0324755 -5.81691 0
M  V30 1623 N 155.864 0.566581 -5.40639 0
M  V30 1624 H 159.666 -0.142729 -2.93553 0
M  V30 1625 H 157.18 -0.179221 -1.61408 0
M  V30 1626 H 159.177 2.2547 -3.50669 0
M  V30 1627 H 157.837 2.26132 -2.33011 0
M  V30 1628 H 158.848 -0.0962352 -5.17811 0
M  V30 1629 H 155.525 1.9958 -3.66707 0
M  V30 1630 H 156.915 -0.69473 -6.68299 0
M  V30 1631 N 159.635 1.57281 -0.100228 0
M  V30 1632 C 160.565 2.17328 0.853857 0
M  V30 1633 C 161.546 1.10804 1.2906 0
M  V30 1634 O 162.731 1.38963 1.35657 0
M  V30 1635 C 159.861 2.75772 2.11109 0
M  V30 1636 C 158.815 3.87713 1.81279 0
M  V30 1637 C 158.141 4.32882 3.13874 0
M  V30 1638 C 159.441 5.10677 1.09574 0
M  V30 1639 H 161.135 2.97305 0.353545 0
M  V30 1640 H 158.681 1.43009 0.168612 0
M  V30 1641 H 160.634 3.16433 2.78296 0
M  V30 1642 H 159.358 1.93057 2.63432 0
M  V30 1643 H 158.017 3.476 1.16489 0
M  V30 1644 H 157.665 3.47051 3.64095 0
M  V30 1645 H 157.365 5.08358 2.94696 0
M  V30 1646 H 158.889 4.7618 3.82211 0
M  V30 1647 H 160.303 5.48474 1.66879 0
M  V30 1648 H 158.7 5.91615 1.00557 0
M  V30 1649 H 159.77 4.84835 0.0793299 0
M  V30 1650 N 161.113 -0.173488 1.56642 0
M  V30 1651 C 162.045 -1.23935 1.92802 0
M  V30 1652 C 163.058 -1.40589 0.820889 0
M  V30 1653 O 164.247 -1.40631 1.09933 0
M  V30 1654 C 161.347 -2.60837 2.16373 0
M  V30 1655 C 160.52 -2.6551 3.47596 0
M  V30 1656 C 159.579 -3.8376 3.60021 0
M  V30 1657 O 158.605 -3.69859 4.32658 0
M  V30 1658 N 159.807 -5.00127 2.94709 0
M  V30 1659 H 162.572 -0.932236 2.84832 0
M  V30 1660 H 160.133 -0.363268 1.57772 0
M  V30 1661 H 162.125 -3.38407 2.21952 0
M  V30 1662 H 160.695 -2.83948 1.30738 0
M  V30 1663 H 159.915 -1.74052 3.53694 0
M  V30 1664 H 161.203 -2.65641 4.33949 0
M  V30 1665 H 160.601 -5.14322 2.35563 0
M  V30 1666 H 159.158 -5.75567 3.05886 0
M  V30 1667 N 162.591 -1.51276 -0.441967 0
M  V30 1668 C 163.554 -1.7167 -1.51862 0
M  V30 1669 C 164.554 -0.586793 -1.49711 0
M  V30 1670 O 165.744 -0.854276 -1.51815 0
M  V30 1671 C 162.876 -1.76889 -2.91416 0
M  V30 1672 H 164.069 -2.67754 -1.35084 0
M  V30 1673 H 161.622 -1.41196 -0.670333 0
M  V30 1674 H 162.357 -0.826026 -3.13604 0
M  V30 1675 H 162.142 -2.59001 -2.94382 0
M  V30 1676 H 163.632 -1.94522 -3.69528 0
M  V30 1677 N 164.069 0.697108 -1.41344 0
M  V30 1678 C 164.999 1.82353 -1.45841 0
M  V30 1679 C 165.98 1.67115 -0.317247 0
M  V30 1680 O 167.165 1.86871 -0.528474 0
M  V30 1681 C 164.295 3.20476 -1.33838 0
M  V30 1682 C 163.249 3.50415 -2.4575 0
M  V30 1683 C 162.575 4.87878 -2.18813 0
M  V30 1684 C 163.875 3.49546 -3.88091 0
M  V30 1685 H 165.569 1.78846 -2.40113 0
M  V30 1686 H 163.115 0.859028 -1.15571 0
M  V30 1687 H 165.068 3.98988 -1.35596 0
M  V30 1688 H 163.792 3.24604 -0.360498 0
M  V30 1689 H 162.451 2.74253 -2.43271 0
M  V30 1690 H 162.099 4.8863 -1.19371 0
M  V30 1691 H 161.799 5.08875 -2.93803 0
M  V30 1692 H 163.323 5.68702 -2.22284 0
M  V30 1693 H 164.737 4.18066 -3.92293 0
M  V30 1694 H 163.134 3.82075 -4.62751 0
M  V30 1695 H 164.204 2.48552 -4.16353 0
M  V30 1696 N 165.547 1.27147 0.931209 0
M  V30 1697 C 166.795 1.13055 1.6752 0
M  V30 1698 C 167.116 -0.324791 1.92276 0
M  V30 1699 O 166.386 -1.22775 1.52654 0
M  V30 1700 H 164.966 0.415391 0.620854 0
M  V30 1701 H 167.628 1.59623 1.11833 0
M  V30 1702 H 166.724 1.65694 2.64485 0
M  V30 1703 N 167.025 -1.13721 1.09112 0
M  V30 1704 C 168.274 -1.84275 0.82009 0
M  V30 1705 C 168.587 -1.84253 -0.656509 0
M  V30 1706 O 169.793 -2.50668 -1.04296 0
M  V30 1707 C 168.249 -3.30825 1.41714 0
M  V30 1708 C 167.857 -3.39244 2.92605 0
M  V30 1709 C 169.601 -4.06443 1.22492 0
M  V30 1710 C 167.508 -4.80047 3.45411 0
M  V30 1711 H 166.438 -0.690387 0.30312 0
M  V30 1712 H 169.089 -1.28146 1.31343 0
M  V30 1713 H 167.471 -3.86737 0.851498 0
M  V30 1714 H 168.645 -2.93344 3.55367 0
M  V30 1715 H 166.96 -2.77088 3.10823 0
M  V30 1716 H 169.557 -5.10387 1.59402 0
M  V30 1717 H 169.9 -4.15972 0.165299 0
M  V30 1718 H 170.433 -3.56852 1.75788 0
M  V30 1719 H 167.172 -4.75709 4.50978 0
M  V30 1720 H 166.692 -5.26455 2.87411 0
M  V30 1721 H 168.371 -5.48957 3.42425 0
M  V30 1722 N 168.503 -0.877838 -1.30888 0
M  V30 1723 C 169.914 -0.544193 -1.78593 0
M  V30 1724 C 170.265 0.939301 -1.72254 0
M  V30 1725 O 169.39 1.7337 -1.29505 0
M  V30 1726 C 169.985 -0.98105 -3.24285 0
M  V30 1727 C 168.544 -0.698935 -3.69854 0
M  V30 1728 C 167.691 -1.168 -2.51502 0
M  V30 1729 H 170.642 -1.06278 -1.17859 0
M  V30 1730 H 170.663 -0.307009 -3.79259 0
M  V30 1731 H 170.175 -2.06079 -3.28866 0
M  V30 1732 H 168.276 0.369112 -3.70767 0
M  V30 1733 H 168.389 -1.28148 -4.61644 0
M  V30 1734 H 166.753 -0.587535 -2.47831 0
M  V30 1735 H 167.536 -2.25533 -2.58824 0
M  V30 1736 N 169.982 1.44106 -0.638065 0
M  V30 1737 C 170.912 2.33448 0.0494287 0
M  V30 1738 C 171.893 1.48606 0.827672 0
M  V30 1739 O 173.078 1.77308 0.792173 0
M  V30 1740 C 170.208 3.31771 1.02691 0
M  V30 1741 C 169.162 4.26485 0.359823 0
M  V30 1742 C 168.488 5.14729 1.44769 0
M  V30 1743 C 169.788 5.17056 -0.738296 0
M  V30 1744 H 171.482 2.91183 -0.696636 0
M  V30 1745 H 169.028 1.40014 -0.336456 0
M  V30 1746 H 170.981 3.93161 1.51666 0
M  V30 1747 H 169.705 2.7226 1.80395 0
M  V30 1748 H 168.364 3.66437 -0.10934 0
M  V30 1749 H 168.012 4.51566 2.21578 0
M  V30 1750 H 167.712 5.78913 1.00668 0
M  V30 1751 H 169.236 5.78991 1.93911 0
M  V30 1752 H 170.65 5.72342 -0.331354 0
M  V30 1753 H 169.047 5.89879 -1.10286 0
M  V30 1754 H 170.117 4.57652 -1.60258 0
M  V30 1755 N 171.46 0.379036 1.52974 0
M  V30 1756 C 172.41 -0.477772 2.22938 0
M  V30 1757 C 173.394 -1.03792 1.22948 0
M  V30 1758 O 174.586 -0.965725 1.48333 0
M  V30 1759 C 171.715 -1.60994 3.03209 0
M  V30 1760 C 170.801 -1.06203 4.10587 0
M  V30 1761 N 171.192 -0.238214 5.05239 0
M  V30 1762 C 169.49 -1.33554 4.25534 0
M  V30 1763 C 170.191 0.0633235 5.81666 0
M  V30 1764 N 169.167 -0.537901 5.40932 0
M  V30 1765 H 172.969 0.158295 2.93473 0
M  V30 1766 H 170.483 0.187778 1.61311 0
M  V30 1767 H 172.48 -2.23607 3.5186 0
M  V30 1768 H 171.14 -2.24893 2.34207 0
M  V30 1769 H 172.151 0.123695 5.17752 0
M  V30 1770 H 168.828 -1.97632 3.6776 0
M  V30 1771 H 170.218 0.730161 6.67921 0
M  V30 1772 N 172.938 -1.57226 0.108567 0
M  V30 1773 C 173.868 -2.17778 -0.84232 0
M  V30 1774 C 174.849 -1.11487 -1.2847 0
M  V30 1775 O 176.034 -1.39681 -1.34918 0
M  V30 1776 C 173.164 -2.76888 -2.09644 0
M  V30 1777 C 172.118 -3.88669 -1.79221 0
M  V30 1778 C 171.444 -4.34541 -3.11574 0
M  V30 1779 C 172.744 -5.11251 -1.06864 0
M  V30 1780 H 174.438 -2.97489 -0.337774 0
M  V30 1781 H 171.984 -1.43097 -0.161025 0
M  V30 1782 H 173.937 -3.17904 -2.76614 0
M  V30 1783 H 172.661 -1.94451 -2.62405 0
M  V30 1784 H 171.32 -3.48213 -1.14644 0
M  V30 1785 H 170.968 -3.48977 -3.62249 0
M  V30 1786 H 170.668 -5.09914 -2.91996 0
M  V30 1787 H 172.192 -4.782 -3.7968 0
M  V30 1788 H 173.606 -5.49352 -1.63968 0
M  V30 1789 H 172.003 -5.9214 -0.974178 0
M  V30 1790 H 173.073 -4.8487 -0.0536168 0
M  V30 1791 N 174.416 0.165178 -1.56732 0
M  V30 1792 C 175.379 1.18822 -1.95995 0
M  V30 1793 C 176.379 1.3685 -0.84431 0
M  V30 1794 O 177.569 1.34152 -1.11126 0
M  V30 1795 C 174.701 2.5521 -2.26011 0
M  V30 1796 H 175.894 0.851825 -2.87548 0
M  V30 1797 H 173.447 0.407857 -1.50885 0
M  V30 1798 H 174.182 2.93852 -1.37191 0
M  V30 1799 H 173.967 2.43489 -3.07336 0
M  V30 1800 H 175.457 3.28927 -2.57288 0
M  V30 1801 N 175.894 1.51508 0.433938 0
M  V30 1802 C 177.124 1.67914 1.20369 0
M  V30 1803 C 177.532 0.377461 1.85397 0
M  V30 1804 O 176.875 -0.654255 1.71654 0
M  V30 1805 C 176.937 2.74045 2.32679 0
M  V30 1806 C 176.601 4.16543 1.87991 0
M  V30 1807 C 177.598 5.01211 1.38145 0
M  V30 1808 C 175.283 4.6266 1.95579 0
M  V30 1809 C 177.277 6.30056 0.964774 0
M  V30 1810 C 174.964 5.91501 1.53523 0
M  V30 1811 C 175.962 6.75027 1.04055 0
M  V30 1812 O 175.65 8.01459 0.625964 0
M  V30 1813 H 175.382 0.566578 0.368735 0
M  V30 1814 H 177.936 1.98709 0.51999 0
M  V30 1815 H 176.166 2.38572 3.04336 0
M  V30 1816 H 177.855 2.79295 2.94532 0
M  V30 1817 H 178.621 4.66783 1.31675 0
M  V30 1818 H 174.5 3.97767 2.33029 0
M  V30 1819 H 178.044 6.95202 0.57796 0
M  V30 1820 H 173.941 6.25442 1.59665 0
M  V30 1821 H 174.709 8.15043 0.751509 0
M  V30 1822 N 177.372 -0.689602 1.41712 0
M  V30 1823 C 178.32 -1.82475 1.44242 0
M  V30 1824 C 179.314 -1.66354 0.319774 0
M  V30 1825 O 180.52 -1.73143 0.492089 0
M  V30 1826 H 176.895 -0.601416 0.451445 0
M  V30 1827 H 178.866 -1.77458 2.39899 0
M  V30 1828 C 177.615 -3.20535 1.3473 0
M  V30 1829 H 176.938 -3.33559 2.20405 0
M  V30 1830 H 178.378 -4.00023 1.40562 0
M  V30 1831 C 176.837 -3.36846 0.0603281 0
M  V30 1832 O 177.367 -3.91656 -0.892663 0
M  V30 1833 N 175.573 -2.90595 -0.0177039 0
M  V30 1834 H 175.12 -2.46178 0.758572 0
M  V30 1835 H 175.078 -3.01886 -0.878201 0
M  V30 1836 N 178.85 -1.27639 -0.924453 0
M  V30 1837 C 180.075 -1.17101 -1.71179 0
M  V30 1838 C 180.5 0.268134 -1.86179 0
M  V30 1839 O 179.858 1.19415 -1.36418 0
M  V30 1840 C 179.906 -1.86313 -3.08739 0
M  V30 1841 O 179.01 -1.16331 -3.95652 0
M  V30 1842 H 178.351 -0.407091 -0.524569 0
M  V30 1843 H 180.881 -1.68767 -1.15666 0
M  V30 1844 H 180.891 -1.938 -3.59034 0
M  V30 1845 H 179.566 -2.91001 -2.97138 0
M  V30 1846 H 178.143 -1.16935 -3.54091 0
M  V30 1847 N 180.328 1.1314 -1.09713 0
M  V30 1848 C 181.553 1.88862 -0.857081 0
M  V30 1849 C 181.978 1.78729 0.586304 0
M  V30 1850 O 181.336 1.13692 1.41222 0
M  V30 1851 C 181.384 3.36325 -1.30069 0
M  V30 1852 O 180.488 4.09815 -0.461007 0
M  V30 1853 H 179.829 0.587108 -0.310162 0
M  V30 1854 H 182.359 1.43129 -1.46203 0
M  V30 1855 H 182.369 3.87157 -1.28738 0
M  V30 1856 H 181.044 3.43017 -2.35185 0
M  V30 1857 H 179.621 3.68986 -0.538888 0
M  V30 1858 N 181.806 0.884767 1.30421 0
M  V30 1859 C 182.736 0.367574 2.30589 0
M  V30 1860 C 183.717 -0.549464 1.60981 0
M  V30 1861 O 184.902 -0.46336 1.88591 0
M  V30 1862 C 182.032 -0.418944 3.44764 0
M  V30 1863 C 180.986 0.406316 4.26067 0
M  V30 1864 C 180.312 -0.506793 5.32293 0
M  V30 1865 C 181.612 1.64832 4.95608 0
M  V30 1866 H 183.306 1.20462 2.74097 0
M  V30 1867 H 180.852 0.580695 1.31772 0
M  V30 1868 H 182.805 -0.791395 4.13902 0
M  V30 1869 H 181.529 -1.28964 3.0006 0
M  V30 1870 H 180.188 0.760903 3.58617 0
M  V30 1871 H 179.836 -1.37519 4.83836 0
M  V30 1872 H 179.536 0.0415828 5.87585 0
M  V30 1873 H 181.06 -0.875764 6.04287 0
M  V30 1874 H 182.474 1.34646 5.57264 0
M  V30 1875 H 180.871 2.13688 5.60765 0
M  V30 1876 H 181.941 2.39284 4.21748 0
M  V30 1877 N 183.284 -1.43765 0.645699 0
M  V30 1878 C 184.53 -2.02197 0.156271 0
M  V30 1879 C 184.863 -1.50776 -1.22393 0
M  V30 1880 O 184.138 -0.697771 -1.81553 0
M  V30 1881 C 184.421 -3.59749 0.158872 0
M  V30 1882 C 184.274 -4.21419 1.57245 0
M  V30 1883 C 185.593 -4.37149 -0.50879 0
M  V30 1884 H 182.712 -0.734694 0.0582602 0
M  V30 1885 H 185.354 -1.71157 0.824951 0
M  V30 1886 H 183.504 -3.86325 -0.410525 0
M  V30 1887 H 185.176 -4.059 2.19186 0
M  V30 1888 H 183.419 -3.78356 2.122 0
M  V30 1889 H 184.09 -5.30482 1.52619 0
M  V30 1890 H 186.566 -4.16093 -0.024412 0
M  V30 1891 H 185.442 -5.4683 -0.476213 0
M  V30 1892 H 185.703 -4.12839 -1.58165 0
M  V30 1893 N 184.763 -0.387143 -1.52771 0
M  V30 1894 C 185.991 0.195869 -2.05971 0
M  V30 1895 C 186.406 1.40691 -1.25903 0
M  V30 1896 O 185.763 1.79931 -0.305134 0
M  V30 1897 C 185.814 0.56812 -3.57008 0
M  V30 1898 O 185.535 -0.594803 -4.34043 0
M  V30 1899 C 187.036 1.20723 -4.26545 0
M  V30 1900 H 184.256 0.0300578 -0.670326 0
M  V30 1901 H 186.8 -0.551749 -1.96916 0
M  V30 1902 H 184.955 1.26564 -3.66143 0
M  V30 1903 H 185.369 -0.289322 -5.23701 0
M  V30 1904 H 186.843 1.41807 -5.33474 0
M  V30 1905 H 187.32 2.17395 -3.81623 0
M  V30 1906 H 187.926 0.550535 -4.21722 0
M  V30 1907 N 186.241 1.57166 -0.116904 0
M  V30 1908 C 187.488 1.95123 0.541603 0
M  V30 1909 C 187.816 1.00006 1.6682 0
M  V30 1910 O 187.071 0.0235658 1.95686 0
M  V30 1911 C 187.37 3.39508 1.11664 0
M  V30 1912 C 187.036 4.50762 0.111606 0
M  V30 1913 C 185.698 4.80918 -0.164758 0
M  V30 1914 C 188.05 5.18036 -0.573438 0
M  V30 1915 C 185.378 5.75666 -1.13249 0
M  V30 1916 C 187.73 6.13824 -1.52978 0
M  V30 1917 C 186.394 6.42374 -1.81415 0
M  V30 1918 H 185.664 0.714005 0.198187 0
M  V30 1919 H 188.311 1.9048 -0.197365 0
M  V30 1920 H 186.616 3.40835 1.93232 0
M  V30 1921 H 188.313 3.66189 1.63422 0
M  V30 1922 H 184.903 4.27272 0.337192 0
M  V30 1923 H 189.087 4.94896 -0.373092 0
M  V30 1924 H 184.343 5.96092 -1.35958 0
M  V30 1925 H 188.517 6.65039 -2.06629 0
M  V30 1926 H 186.144 7.15599 -2.56557 0
M  V30 1927 N 187.719 -0.156864 1.56817 0
M  V30 1928 C 188.651 -1.21883 1.94106 0
M  V30 1929 C 189.664 -1.3971 0.835754 0
M  V30 1930 O 190.853 -1.39457 1.11418 0
M  V30 1931 C 187.953 -2.58527 2.19127 0
M  V30 1932 C 187.126 -2.61809 3.50393 0
M  V30 1933 C 186.185 -3.7992 3.64071 0
M  V30 1934 O 185.211 -3.65249 4.36557 0
M  V30 1935 N 186.413 -4.96973 2.99997 0
M  V30 1936 H 189.178 -0.901974 2.85805 0
M  V30 1937 H 186.739 -0.346513 1.58148 0
M  V30 1938 H 188.731 -3.36034 2.25529 0
M  V30 1939 H 187.301 -2.82545 1.33742 0
M  V30 1940 H 186.521 -1.7029 3.5552 0
M  V30 1941 H 187.809 -2.61024 4.36742 0
M  V30 1942 H 187.207 -5.11794 2.41004 0
M  V30 1943 H 185.764 -5.7229 3.11974 0
M  V30 1944 N 189.197 -1.51736 -0.425897 0
M  V30 1945 C 190.107 -1.76738 -1.54275 0
M  V30 1946 C 191.123 -0.65211 -1.61318 0
M  V30 1947 O 192.299 -0.935654 -1.78346 0
M  V30 1948 C 189.364 -1.89755 -2.90162 0
M  V30 1949 C 188.425 -3.13633 -2.93143 0
M  V30 1950 C 187.658 -3.2602 -4.22548 0
M  V30 1951 O 187.881 -2.44067 -5.15546 0
M  V30 1952 O 186.815 -4.19071 -4.32046 0
M  V30 1953 H 190.641 -2.71502 -1.36089 0
M  V30 1954 H 188.226 -1.36376 -0.610069 0
M  V30 1955 H 190.108 -2.00236 -3.70788 0
M  V30 1956 H 188.783 -0.981785 -3.08452 0
M  V30 1957 H 187.69 -3.08622 -2.11431 0
M  V30 1958 H 189.023 -4.04936 -2.798 0
M  V30 1959 N 190.675 0.682077 -1.42076 0
M  V30 1960 C 192.086 1.26246 -1.37546 0
M  V30 1961 C 192.437 1.96092 -0.0651481 0
M  V30 1962 O 191.562 1.99587 0.836297 0
M  V30 1963 C 192.157 2.29594 -2.49143 0
M  V30 1964 C 190.716 2.83175 -2.47969 0
M  V30 1965 C 189.863 1.57395 -2.28303 0
M  V30 1966 H 192.814 0.475937 -1.51395 0
M  V30 1967 H 192.835 3.11175 -2.18976 0
M  V30 1968 H 192.347 1.78729 -3.44496 0
M  V30 1969 H 190.448 3.3818 -1.56413 0
M  V30 1970 H 190.561 3.32687 -3.44755 0
M  V30 1971 H 188.925 1.83699 -1.76428 0
M  V30 1972 H 189.708 1.08507 -3.25701 0
M  V30 1973 N 192.153 1.28127 0.917671 0
M  V30 1974 C 193.564 1.13622 1.48145 0
M  V30 1975 C 193.915 -0.275207 1.9426 0
M  V30 1976 O 193.04 -1.1691 1.82102 0
M  V30 1977 C 193.635 2.05648 2.69248 0
M  V30 1978 C 192.194 1.95219 3.21818 0
M  V30 1979 C 191.341 1.97618 1.94532 0
M  V30 1980 H 194.292 1.40874 0.730772 0
M  V30 1981 H 194.313 1.61818 3.44377 0
M  V30 1982 H 193.825 3.08365 2.35653 0
M  V30 1983 H 191.926 0.955244 3.60147 0
M  V30 1984 H 192.039 2.81976 3.87333 0
M  V30 1985 H 190.403 1.41973 2.11461 0
M  V30 1986 H 191.186 3.02007 1.63238 0
M  V30 1987 N 193.631 -1.12557 1.10312 0
M  V30 1988 C 194.879 -1.83675 0.843091 0
M  V30 1989 C 195.2 -1.84435 -0.633131 0
M  V30 1990 O 194.47 -1.30657 -1.45964 0
M  V30 1991 H 193.05 -0.680138 0.308904 0
M  V30 1992 H 195.712 -1.36301 1.39313 0
M  V30 1993 H 194.808 -2.87908 1.2048 0
M  V30 1994 N 195.109 -0.891671 -1.2995 0
M  V30 1995 C 196.355 -0.514261 -1.96171 0
M  V30 1996 C 196.688 0.935506 -1.70182 0
M  V30 1997 O 195.963 1.66204 -1.01028 0
M  V30 1998 C 196.246 -0.797719 -3.51153 0
M  V30 1999 C 196.099 -2.2986 -3.86632 0
M  V30 2000 C 197.418 -0.278749 -4.39216 0
M  V30 2001 H 194.537 -0.188314 -0.712535 0
M  V30 2002 H 197.179 -1.11689 -1.53706 0
M  V30 2003 H 195.329 -0.284826 -3.87455 0
M  V30 2004 H 197.001 -2.88042 -3.60319 0
M  V30 2005 H 195.244 -2.76257 -3.34462 0
M  V30 2006 H 195.915 -2.44753 -4.94773 0
M  V30 2007 H 198.391 -0.717825 -4.09862 0
M  V30 2008 H 197.267 -0.506353 -5.46559 0
M  V30 2009 H 197.528 0.820266 -4.34424 0
M  V30 2010 N 196.587 1.43421 -0.653314 0
M  V30 2011 C 197.535 2.32546 0.0501531 0
M  V30 2012 C 198.529 1.48617 0.812985 0
M  V30 2013 O 199.735 1.64825 0.723375 0
M  V30 2014 H 196.11 0.751185 0.0350032 0
M  V30 2015 H 198.081 2.89602 -0.719261 0
M  V30 2016 C 196.83 3.32925 1.00279 0
M  V30 2017 H 196.153 3.97532 0.425236 0
M  V30 2018 H 197.593 3.9792 1.46409 0
M  V30 2019 C 196.052 2.63532 2.09886 0
M  V30 2020 O 196.582 2.45092 3.18265 0
M  V30 2021 N 194.788 2.22905 1.86445 0
M  V30 2022 H 194.335 2.38103 0.98309 0
M  V30 2023 H 194.293 1.76805 2.59976 0
M  V30 2024 N 198.065 0.39524 1.52563 0
M  V30 2025 C 199.293 -0.184943 2.06072 0
M  V30 2026 C 199.708 -1.40021 1.26647 0
M  V30 2027 O 199.065 -1.79767 0.314672 0
M  V30 2028 C 199.116 -0.549179 3.57304 0
M  V30 2029 O 198.837 0.617813 4.33722 0
M  V30 2030 C 200.338 -1.18459 4.2718 0
M  V30 2031 H 197.558 -0.0265025 0.670476 0
M  V30 2032 H 200.102 0.562184 1.96621 0
M  V30 2033 H 198.257 -1.2462 3.66809 0
M  V30 2034 H 198.671 0.317091 5.23541 0
M  V30 2035 H 200.145 -1.38976 5.34219 0
M  V30 2036 H 200.622 -2.15368 3.82771 0
M  V30 2037 H 201.228 -0.528163 4.22008 0
M  V30 2038 N 199.544 -1.57102 0.125237 0
M  V30 2039 C 200.772 -1.99761 -0.538797 0
M  V30 2040 C 201.187 -1.00503 -1.59827 0
M  V30 2041 O 200.544 0.00119474 -1.825 0
M  V30 2042 C 200.595 -3.42408 -1.15927 0
M  V30 2043 O 200.316 -4.37869 -0.142143 0
M  V30 2044 C 201.817 -4.00232 -1.90602 0
M  V30 2045 H 199.037 -0.655772 -0.14214 0
M  V30 2046 H 201.581 -2.03383 0.213413 0
M  V30 2047 H 199.736 -3.39706 -1.86223 0
M  V30 2048 H 200.15 -5.21128 -0.593775 0
M  V30 2049 H 201.624 -5.02105 -2.29335 0
M  V30 2050 H 202.101 -3.39721 -2.78363 0
M  V30 2051 H 202.707 -4.06499 -1.25055 0
M  V30 2052 N 201.022 0.148545 -1.56898 0
M  V30 2053 C 201.932 1.20293 -2.01412 0
M  V30 2054 C 202.948 1.47107 -0.929273 0
M  V30 2055 O 204.124 1.58807 -1.23863 0
M  V30 2056 C 201.189 2.51682 -2.38447 0
M  V30 2057 C 200.25 2.32529 -3.60872 0
M  V30 2058 C 199.483 3.57653 -3.96132 0
M  V30 2059 O 199.706 4.63771 -3.32073 0
M  V30 2060 O 198.64 3.50408 -4.89385 0
M  V30 2061 H 202.466 0.855025 -2.91416 0
M  V30 2062 H 200.051 0.357151 -1.45068 0
M  V30 2063 H 201.933 3.29147 -2.63135 0
M  V30 2064 H 200.608 2.86006 -1.51599 0
M  V30 2065 H 199.515 1.53019 -3.41373 0
M  V30 2066 H 200.848 2.03121 -4.48333 0
M  V30 2067 N 202.5 1.5196 0.417844 0
M  V30 2068 C 203.43 1.77634 1.51554 0
M  V30 2069 C 204.411 0.626918 1.58126 0
M  V30 2070 O 205.596 0.871632 1.7354 0
M  V30 2071 C 202.726 1.91911 2.8946 0
M  V30 2072 C 201.68 3.07463 2.97743 0
M  V30 2073 C 201.006 3.06951 4.37819 0
M  V30 2074 C 202.306 4.47082 2.70027 0
M  V30 2075 H 204 2.6955 1.3032 0
M  V30 2076 H 201.546 1.29706 0.625492 0
M  V30 2077 H 203.499 2.08455 3.6623 0
M  V30 2078 H 202.223 0.966598 3.11969 0
M  V30 2079 H 200.882 2.90656 2.23416 0
M  V30 2080 H 200.53 2.09438 4.57323 0
M  V30 2081 H 200.23 3.84556 4.44286 0
M  V30 2082 H 201.754 3.25613 5.16535 0
M  V30 2083 H 203.168 4.6414 3.36522 0
M  V30 2084 H 201.565 5.2654 2.87881 0
M  V30 2085 H 202.635 4.55777 1.65514 0
M  V30 2086 N 203.978 -0.674533 1.42435 0
M  V30 2087 C 205.389 -1.25514 1.38214 0
M  V30 2088 C 205.74 -1.96055 0.0755464 0
M  V30 2089 O 204.865 -2.00028 -0.8257 0
M  V30 2090 C 205.46 -2.28269 2.50357 0
M  V30 2091 C 204.019 -2.81856 2.49467 0
M  V30 2092 C 203.166 -1.56182 2.29134 0
M  V30 2093 H 206.117 -0.467902 1.51646 0
M  V30 2094 H 206.138 -3.10009 2.20624 0
M  V30 2095 H 205.65 -1.769 3.45439 0
M  V30 2096 H 203.751 -3.37346 1.58204 0
M  V30 2097 H 203.864 -3.30854 3.46515 0
M  V30 2098 H 202.228 -1.82761 1.774 0
M  V30 2099 H 203.011 -1.06778 3.26272 0
M  V30 2100 N 205.456 -1.28612 -0.910864 0
M  V30 2101 C 206.681 -1.1891 -1.69927 0
M  V30 2102 C 207.106 0.248372 -1.86453 0
M  V30 2103 O 206.464 1.17961 -1.37676 0
M  V30 2104 C 206.512 -1.89578 -3.06745 0
M  V30 2105 O 205.616 -1.20521 -3.94396 0
M  V30 2106 H 204.957 -0.412632 -0.520222 0
M  V30 2107 H 207.487 -1.69985 -1.1387 0
M  V30 2108 H 207.497 -1.97597 -3.56958 0
M  V30 2109 H 206.172 -2.94136 -2.94035 0
M  V30 2110 H 204.749 -1.20684 -3.52831 0
M  V30 2111 N 206.934 1.1197 -1.10907 0
M  V30 2112 C 208.181 1.83588 -0.854507 0
M  V30 2113 C 208.509 1.84357 0.6199 0
M  V30 2114 O 207.764 1.28809 1.47332 0
M  V30 2115 C 208.063 3.30749 -1.35425 0
M  V30 2116 C 207.729 3.50146 -2.84093 0
M  V30 2117 C 206.391 3.55148 -3.2469 0
M  V30 2118 C 208.743 3.56857 -3.79872 0
M  V30 2119 C 206.071 3.6441 -4.59806 0
M  V30 2120 C 208.423 3.6765 -5.14797 0
M  V30 2121 C 207.087 3.7091 -5.54961 0
M  V30 2122 H 206.357 0.671795 -0.312686 0
M  V30 2123 H 209.004 1.32091 -1.38652 0
M  V30 2124 H 207.309 3.84703 -0.742361 0
M  V30 2125 H 209.006 3.8464 -1.1337 0
M  V30 2126 H 205.596 3.46919 -2.51685 0
M  V30 2127 H 209.78 3.52258 -3.49611 0
M  V30 2128 H 205.036 3.65208 -4.9034 0
M  V30 2129 H 209.21 3.71786 -5.88853 0
M  V30 2130 H 206.837 3.7784 -6.59652 0
M  V30 2131 N 208.412 0.89855 1.29475 0
M  V30 2132 C 209.823 0.572537 1.77705 0
M  V30 2133 C 210.174 -0.911778 1.73727 0
M  V30 2134 O 209.299 -1.71288 1.32247 0
M  V30 2135 C 209.894 1.03252 3.22683 0
M  V30 2136 C 208.453 0.757687 3.68695 0
M  V30 2137 C 207.6 1.20787 2.49612 0
M  V30 2138 H 210.551 1.08139 1.16153 0
M  V30 2139 H 210.572 0.367307 3.78723 0
M  V30 2140 H 210.084 2.11285 3.25546 0
M  V30 2141 H 208.185 -0.310079 3.71308 0
M  V30 2142 H 208.298 1.35476 4.59547 0
M  V30 2143 H 206.662 0.626888 2.46865 0
M  V30 2144 H 207.445 2.29622 2.55203 0
M  V30 2145 N 209.89 -1.43072 0.660911 0
M  V30 2146 C 210.837 -2.30785 -0.0259884 0
M  V30 2147 C 211.807 -1.45184 -0.806888 0
M  V30 2148 O 212.992 -1.74041 -0.781943 0
M  V30 2149 C 210.132 -3.30861 -0.981067 0
M  V30 2150 C 209.245 -4.31558 -0.195458 0
M  V30 2151 C 208.38 -5.18712 -1.14503 0
M  V30 2152 C 207.419 -6.11097 -0.350299 0
M  V30 2153 N 206.556 -6.90849 -1.25186 0
M  V30 2154 H 211.396 -2.88975 0.727846 0
M  V30 2155 H 208.933 -1.42353 0.370682 0
M  V30 2156 H 210.891 -3.87399 -1.54849 0
M  V30 2157 H 209.521 -2.74304 -1.70169 0
M  V30 2158 H 208.573 -3.77252 0.488374 0
M  V30 2159 H 209.885 -4.9701 0.422176 0
M  V30 2160 H 209.039 -5.79914 -1.78284 0
M  V30 2161 H 207.778 -4.53404 -1.79656 0
M  V30 2162 H 206.783 -5.48976 0.300808 0
M  V30 2163 H 208.008 -6.7845 0.296941 0
M  V30 2164 H 205.954 -6.28182 -1.89005 0
M  V30 2165 H 205.871 -7.52854 -0.688971 0
M  V30 2166 H 207.139 -7.5655 -1.87757 0
M  V30 2167 N 211.368 -0.403325 -1.52352 0
M  V30 2168 C 212.596 0.174012 -2.06167 0
M  V30 2169 C 213.011 1.39347 -1.27388 0
M  V30 2170 O 212.368 1.79597 -0.324201 0
M  V30 2171 C 212.419 0.530223 -3.5759 0
M  V30 2172 O 212.14 -0.640806 -4.33388 0
M  V30 2173 C 213.641 1.16192 -4.27802 0
M  V30 2174 H 210.861 0.0229464 -0.670608 0
M  V30 2175 H 213.405 -0.572604 -1.9632 0
M  V30 2176 H 211.56 1.22673 -3.67464 0
M  V30 2177 H 211.974 -0.344851 -5.23365 0
M  V30 2178 H 213.448 1.36141 -5.34948 0
M  V30 2179 H 213.925 2.13335 -3.83907 0
M  V30 2180 H 214.531 0.505775 -4.22282 0
M  V30 2181 N 212.846 1.57033 -0.133567 0
M  V30 2182 C 213.778 2.13176 0.841944 0
M  V30 2183 C 214.791 1.07794 1.22001 0
M  V30 2184 O 215.98 1.35117 1.16643 0
M  V30 2185 C 213.08 2.62847 2.13926 0
M  V30 2186 C 212.253 3.92486 1.93064 0
M  V30 2187 C 211.312 4.27605 3.0666 0
M  V30 2188 O 210.338 4.96168 2.78937 0
M  V30 2189 N 211.54 3.861 4.33483 0
M  V30 2190 H 214.305 2.97503 0.362192 0
M  V30 2191 H 211.866 1.61821 0.05042 0
M  V30 2192 H 213.858 2.83363 2.88942 0
M  V30 2193 H 212.428 1.83319 2.53205 0
M  V30 2194 H 211.648 3.80732 1.02159 0
M  V30 2195 H 212.936 4.77225 1.76447 0
M  V30 2196 H 212.334 3.30828 4.58878 0
M  V30 2197 H 210.891 4.11694 5.05323 0
M  V30 2198 N 214.325 -0.140222 1.56975 0
M  V30 2199 C 215.574 -0.850152 1.82908 0
M  V30 2200 C 215.887 -1.82028 0.715892 0
M  V30 2201 O 217.093 -2.57485 0.861016 0
M  V30 2202 C 215.549 -1.5625 3.24213 0
M  V30 2203 C 215.157 -0.63443 4.43485 0
M  V30 2204 C 216.901 -2.25881 3.59413 0
M  V30 2205 C 214.808 -1.34879 5.75814 0
M  V30 2206 H 213.738 -0.321221 0.682153 0
M  V30 2207 H 216.389 -0.102874 1.83211 0
M  V30 2208 H 214.771 -2.35565 3.18316 0
M  V30 2209 H 215.945 0.12398 4.60633 0
M  V30 2210 H 214.26 -0.0461836 4.16374 0
M  V30 2211 H 216.857 -2.79978 4.5554 0
M  V30 2212 H 217.2 -3.02693 2.85802 0
M  V30 2213 H 217.733 -1.53477 3.67001 0
M  V30 2214 H 214.472 -0.622385 6.52539 0
M  V30 2215 H 213.992 -2.07974 5.6259 0
M  V30 2216 H 215.671 -1.88784 6.18845 0
M  V30 2217 N 215.803 -1.52179 -0.40978 0
M  V30 2218 C 216.733 -1.78435 -1.5061 0
M  V30 2219 C 217.714 -0.635295 -1.57791 0
M  V30 2220 O 218.899 -0.880823 -1.73076 0
M  V30 2221 C 216.029 -1.93444 -2.88439 0
M  V30 2222 C 214.983 -3.09038 -2.96108 0
M  V30 2223 C 214.309 -3.09268 -4.36185 0
M  V30 2224 C 215.609 -4.48508 -2.67652 0
M  V30 2225 H 217.303 -2.70237 -1.28889 0
M  V30 2226 H 214.849 -1.30036 -0.618605 0
M  V30 2227 H 216.802 -2.10394 -3.65119 0
M  V30 2228 H 215.526 -0.983129 -3.11452 0
M  V30 2229 H 214.185 -2.91837 -2.21872 0
M  V30 2230 H 213.833 -2.11861 -4.56206 0
M  V30 2231 H 213.533 -3.86907 -4.42241 0
M  V30 2232 H 215.057 -3.28348 -5.14801 0
M  V30 2233 H 216.471 -4.65918 -3.34056 0
M  V30 2234 H 214.868 -5.28059 -2.85085 0
M  V30 2235 H 215.938 -4.56649 -1.63095 0
M  V30 2236 N 217.281 0.66697 -1.42791 0
M  V30 2237 C 218.191 1.80962 -1.49299 0
M  V30 2238 C 219.207 1.69775 -0.381108 0
M  V30 2239 O 220.383 1.91188 -0.633188 0
M  V30 2240 C 217.448 3.17156 -1.40045 0
M  V30 2241 C 216.509 3.40242 -2.6179 0
M  V30 2242 C 215.742 4.69939 -2.52969 0
M  V30 2243 O 215.965 5.48372 -1.56985 0
M  V30 2244 O 214.899 4.94441 -3.43237 0
M  V30 2245 H 218.725 1.78427 -2.45759 0
M  V30 2246 H 216.31 0.823713 -1.24641 0
M  V30 2247 H 218.192 3.98413 -1.37276 0
M  V30 2248 H 216.867 3.20312 -0.467138 0
M  V30 2249 H 215.774 2.58802 -2.70134 0
M  V30 2250 H 217.107 3.41923 -3.54047 0
M  V30 2251 N 218.759 1.29093 0.90403 0
M  V30 2252 C 220.005 1.17996 1.65676 0
M  V30 2253 C 220.36 -0.266816 1.90541 0
M  V30 2254 O 219.653 -1.19 1.50165 0
M  V30 2255 C 219.847 1.92224 3.01305 0
M  V30 2256 C 219.676 3.43972 2.89678 0
M  V30 2257 C 218.446 4.1332 2.90679 0
M  V30 2258 C 220.644 4.39546 2.67028 0
M  V30 2259 N 218.626 5.51463 2.69743 0
M  V30 2260 C 219.997 5.65119 2.5503 0
M  V30 2261 C 222.052 4.29359 2.52101 0
M  V30 2262 C 220.755 6.81663 2.29626 0
M  V30 2263 C 222.781 5.4565 2.28079 0
M  V30 2264 C 222.143 6.70193 2.16843 0
M  V30 2265 H 218.242 0.486759 0.612037 0
M  V30 2266 H 220.826 1.62868 1.06688 0
M  V30 2267 H 218.997 1.49773 3.58361 0
M  V30 2268 H 220.729 1.73429 3.65656 0
M  V30 2269 H 217.484 3.64984 3.01801 0
M  V30 2270 H 217.908 6.24105 2.6234 0
M  V30 2271 H 222.55 3.33769 2.59534 0
M  V30 2272 H 220.268 7.77313 2.20932 0
M  V30 2273 H 223.854 5.39664 2.1738 0
M  V30 2274 H 222.734 7.58659 1.98511 0
M  V30 2275 N 220.237 -1.11381 1.11499 0
M  V30 2276 C 221.2 -2.15622 0.777153 0
M  V30 2277 C 222.2 -1.59504 -0.203779 0
M  V30 2278 O 223.39 -1.74188 0.020782 0
M  V30 2279 C 220.522 -3.40556 0.153116 0
M  V30 2280 H 221.715 -2.47021 1.70061 0
M  V30 2281 H 219.268 -1.26577 0.916952 0
M  V30 2282 H 220.003 -3.14767 -0.780536 0
M  V30 2283 H 219.788 -3.8257 0.859238 0
M  V30 2284 H 221.278 -4.17546 -0.0671044 0
M  V30 2285 N 221.715 -0.905404 -1.28997 0
M  V30 2286 C 222.678 -0.392253 -2.25819 0
M  V30 2287 C 223.678 0.476753 -1.5357 0
M  V30 2288 O 224.868 0.280994 -1.71919 0
M  V30 2289 C 222 0.438588 -3.38067 0
M  V30 2290 H 223.193 -1.24743 -2.72725 0
M  V30 2291 H 220.746 -0.684051 -1.40536 0
M  V30 2292 H 221.481 1.31352 -2.96508 0
M  V30 2293 H 221.266 -0.184167 -3.91667 0
M  V30 2294 H 222.756 0.78873 -4.10084 0
M  V30 2295 N 223.193 1.4272 -0.668489 0
M  V30 2296 C 224.103 2.34596 0.0139753 0
M  V30 2297 C 225.119 1.5474 0.795703 0
M  V30 2298 O 226.295 1.87334 0.739466 0
M  V30 2299 C 223.36 3.33202 0.957982 0
M  V30 2300 C 222.421 4.28957 0.17149 0
M  V30 2301 C 221.654 5.22853 1.07053 0
M  V30 2302 O 221.877 5.21531 2.31001 0
M  V30 2303 O 220.811 5.9952 0.534727 0
M  V30 2304 H 224.637 2.9448 -0.742661 0
M  V30 2305 H 222.222 1.43117 -0.428705 0
M  V30 2306 H 224.104 3.93796 1.50008 0
M  V30 2307 H 222.779 2.758 1.69458 0
M  V30 2308 H 221.686 3.71796 -0.414558 0
M  V30 2309 H 223.019 4.89383 -0.52586 0
M  V30 2310 N 224.671 0.411399 1.52136 0
M  V30 2311 C 226.087 0.0623865 1.59478 0
M  V30 2312 C 226.287 -1.42554 1.4241 0
M  V30 2313 O 225.343 -2.19263 1.2522 0
M  V30 2314 C 226.656 0.559331 2.95452 0
M  V30 2315 C 228.204 0.517503 3.08692 0
M  V30 2316 C 228.679 0.990994 4.4715 0
M  V30 2317 N 230.17 0.947908 4.53397 0
M  V30 2318 C 230.905 1.28544 5.58806 0
M  V30 2319 N 230.401 1.69454 6.71757 0
M  V30 2320 N 232.194 1.20526 5.49026 0
M  V30 2321 H 224.345 1.37982 1.61477 0
M  V30 2322 H 226.608 0.566977 0.759764 0
M  V30 2323 H 226.314 1.59938 3.1323 0
M  V30 2324 H 226.188 -0.0298014 3.77188 0
M  V30 2325 H 228.575 -0.513505 2.90598 0
M  V30 2326 H 228.656 1.14272 2.28857 0
M  V30 2327 H 228.3 2.02034 4.65988 0
M  V30 2328 H 228.23 0.34257 5.25485 0
M  V30 2329 H 230.721 0.647157 3.72317 0
M  V30 2330 H 231.034 1.93513 7.48179 0
M  V30 2331 H 229.379 1.73359 6.73032 0
M  V30 2332 H 232.57 0.884505 4.59667 0
M  V30 2333 H 232.743 1.47161 6.31069 0
M  V30 2334 N 226.149 -1.5696 0.141893 0
M  V30 2335 C 227.397 -1.95573 -0.509484 0
M  V30 2336 C 227.718 -1.02746 -1.65736 0
M  V30 2337 O 226.988 -0.0880311 -1.95702 0
M  V30 2338 H 225.568 -0.722115 -0.191205 0
M  V30 2339 H 228.23 -1.93697 0.216196 0
M  V30 2340 H 227.326 -2.99171 -0.889 0
M  V30 2341 N 227.627 0.131896 -1.57047 0
M  V30 2342 C 229.038 0.690407 -1.73465 0
M  V30 2343 C 229.389 1.8094 -0.758629 0
M  V30 2344 O 228.514 2.16282 0.0713813 0
M  V30 2345 C 229.109 1.25916 -3.14532 0
M  V30 2346 C 227.668 1.76409 -3.32501 0
M  V30 2347 C 226.815 0.658579 -2.69366 0
M  V30 2348 H 229.766 -0.0939144 -1.58422 0
M  V30 2349 H 229.787 2.12892 -3.15369 0
M  V30 2350 H 229.299 0.444515 -3.85546 0
M  V30 2351 H 227.4 2.60391 -2.66509 0
M  V30 2352 H 227.513 1.88241 -4.4057 0
M  V30 2353 H 225.877 1.08899 -2.30246 0
M  V30 2354 H 226.66 -0.14487 -3.42994 0
M  V30 2355 N 229.106 1.52395 0.401703 0
M  V30 2356 C 230.355 1.66044 1.14509 0
M  V30 2357 C 230.668 0.400216 1.91462 0
M  V30 2358 O 231.874 0.416632 2.68284 0
M  V30 2359 C 230.33 2.93388 2.0845 0
M  V30 2360 C 229.938 4.26545 1.36978 0
M  V30 2361 C 231.682 3.16402 2.83001 0
M  V30 2362 C 229.589 5.45007 2.29611 0
M  V30 2363 H 228.519 0.618562 0.431158 0
M  V30 2364 H 231.17 1.78886 0.40892 0
M  V30 2365 H 229.552 2.74263 2.8565 0
M  V30 2366 H 230.726 4.56179 0.650916 0
M  V30 2367 H 229.041 4.09692 0.74438 0
M  V30 2368 H 231.638 4.02085 3.52465 0
M  V30 2369 H 231.981 2.30943 3.46368 0
M  V30 2370 H 232.514 3.36034 2.12898 0
M  V30 2371 H 229.253 6.32835 1.70879 0
M  V30 2372 H 228.773 5.19702 2.9945 0
M  V30 2373 H 230.452 5.7838 2.89974 0
M  V30 2374 N 230.584 -0.659388 1.43143 0
M  V30 2375 C 231.812 -1.44723 1.47861 0
M  V30 2376 C 232.227 -1.88563 0.0945886 0
M  V30 2377 O 231.584 -1.59108 -0.893915 0
M  V30 2378 C 231.635 -2.68627 2.41913 0
M  V30 2379 O 231.356 -2.26623 3.74932 0
M  V30 2380 C 232.857 -3.62045 2.55809 0
M  V30 2381 H 230.077 -0.444801 0.502387 0
M  V30 2382 H 232.621 -0.808916 1.87821 0
M  V30 2383 H 230.776 -3.28613 2.05164 0
M  V30 2384 H 231.19 -3.06745 4.2545 0
M  V30 2385 H 232.664 -4.45666 3.25708 0
M  V30 2386 H 233.141 -4.08981 1.60099 0
M  V30 2387 H 233.747 -3.07944 2.93344 0
M  V30 2388 N 232.062 -1.29571 -0.897171 0
M  V30 2389 C 233.287 -1.20705 -1.68656 0
M  V30 2390 C 233.712 0.228582 -1.86706 0
M  V30 2391 O 233.07 1.16494 -1.3892 0
M  V30 2392 C 233.118 -1.9282 -3.04717 0
M  V30 2393 O 232.222 -1.24697 -3.93096 0
M  V30 2394 H 231.563 -0.418126 -0.515816 0
M  V30 2395 H 234.093 -1.71183 -1.12061 0
M  V30 2396 H 234.103 -2.01372 -3.54843 0
M  V30 2397 H 232.778 -2.97239 -2.90899 0
M  V30 2398 H 231.355 -1.2442 -3.51531 0
M  V30 2399 N 233.54 1.10788 -1.12088 0
M  V30 2400 C 234.503 2.15207 -0.788577 0
M  V30 2401 C 235.503 1.59609 0.195317 0
M  V30 2402 O 236.693 1.74174 -0.0300193 0
M  V30 2403 C 233.825 3.4047 -0.171174 0
M  V30 2404 H 235.018 2.46116 -1.71368 0
M  V30 2405 H 232.571 1.26089 -0.923652 0
M  V30 2406 H 233.306 3.15176 0.763832 0
M  V30 2407 H 233.091 3.82109 -0.879514 0
M  V30 2408 H 234.581 4.17576 0.04496 0
M  V30 2409 N 235.018 0.912232 1.28515 0
M  V30 2410 C 235.981 0.404223 2.25607 0
M  V30 2411 C 236.981 -0.468602 1.53821 0
M  V30 2412 O 238.171 -0.271873 1.72065 0
M  V30 2413 C 235.303 -0.420653 3.38295 0
M  V30 2414 H 236.496 1.26188 2.7206 0
M  V30 2415 H 234.049 0.691495 1.40171 0
M  V30 2416 H 234.784 -1.29777 2.97201 0
M  V30 2417 H 234.569 0.204935 3.91564 0
M  V30 2418 H 236.059 -0.766971 4.10496 0
M  V30 2419 N 236.496 -1.42363 0.676048 0
M  V30 2420 C 237.406 -2.346 -0.00153389 0
M  V30 2421 C 238.422 -1.5516 -0.787485 0
M  V30 2422 O 239.598 -1.87723 -0.729521 0
M  V30 2423 C 236.663 -3.33705 -0.940298 0
M  V30 2424 C 235.724 -4.29042 -0.148739 0
M  V30 2425 C 234.957 -5.23413 -1.04279 0
M  V30 2426 O 235.18 -5.22749 -2.28232 0
M  V30 2427 O 234.114 -5.99795 -0.502925 0
M  V30 2428 H 237.94 -2.94082 0.758268 0
M  V30 2429 H 235.525 -1.42888 0.436289 0
M  V30 2430 H 237.407 -3.94586 -1.47917 0
M  V30 2431 H 236.082 -2.76695 -1.67993 0
M  V30 2432 H 234.989 -3.71571 0.43427 0
M  V30 2433 H 236.322 -4.89097 0.551805 0
M  V30 2434 N 237.974 -0.419461 -1.51915 0
M  V30 2435 C 238.904 0.391813 -2.30189 0
M  V30 2436 C 239.885 1.03699 -1.34836 0
M  V30 2437 O 241.07 1.04403 -1.63748 0
M  V30 2438 C 238.2 1.50312 -3.13087 0
M  V30 2439 C 237.154 0.9824 -4.16573 0
M  V30 2440 C 236.48 2.18809 -4.8788 0
M  V30 2441 C 237.78 0.0292356 -5.22292 0
M  V30 2442 H 239.474 -0.26135 -2.98257 0
M  V30 2443 H 237.02 -0.127134 -1.43438 0
M  V30 2444 H 238.973 2.07773 -3.66617 0
M  V30 2445 H 237.697 2.18431 -2.42807 0
M  V30 2446 H 236.356 0.430119 -3.64068 0
M  V30 2447 H 236.004 2.85507 -4.14119 0
M  V30 2448 H 235.704 1.84615 -5.57845 0
M  V30 2449 H 237.228 2.76858 -5.44226 0
M  V30 2450 H 238.642 0.512976 -5.71 0
M  V30 2451 H 237.039 -0.2244 -5.9968 0
M  V30 2452 H 238.109 -0.912931 -4.76228 0
M  V30 2453 N 239.452 1.56882 -0.150215 0
M  V30 2454 C 240.4 2.18214 0.805313 0
M  V30 2455 C 241.394 1.14006 1.25296 0
M  V30 2456 O 242.6 1.3225 1.22107 0
M  V30 2457 H 238.975 0.698762 0.277913 0
M  V30 2458 H 240.946 2.97231 0.263862 0
M  V30 2459 C 239.695 2.82065 2.03309 0
M  V30 2460 H 239.018 3.61968 1.69763 0
M  V30 2461 H 240.458 3.28477 2.68103 0
M  V30 2462 C 238.917 1.80739 2.84315 0
M  V30 2463 O 239.447 1.27983 3.80767 0
M  V30 2464 N 237.653 1.4997 2.48913 0
M  V30 2465 H 237.2 1.93062 1.70542 0
M  V30 2466 H 237.158 0.824217 3.03404 0
M  V30 2467 N 240.93 -0.123565 1.57115 0
M  V30 2468 C 242.207 -0.862196 1.75572 0
M  V30 2469 C 242.587 -1.98279 0.724475 0
M  V30 2470 O 241.935 -2.27102 -0.252407 0
M  V30 2471 C 242.145 -1.38309 3.20424 0
M  V30 2472 C 243.493 -1.83724 3.82793 0
M  V30 2473 O 244.517 -1.47999 3.23998 0
M  V30 2474 O 243.376 -2.49685 4.86127 0
M  V30 2475 H 240.47 -0.409113 0.718718 0
M  V30 2476 H 243.016 -0.107661 1.69358 0
M  V30 2477 H 241.788 -0.578889 3.86994 0
M  V30 2478 H 241.411 -2.20046 3.31158 0
M  V30 2479 N 242.408 -1.52605 -0.393616 0
M  V30 2480 C 243.819 -1.59417 -0.971761 0
M  V30 2481 C 244.17 -0.444173 -1.91106 0
M  V30 2482 O 243.295 0.433382 -2.12016 0
M  V30 2483 C 243.89 -2.88936 -1.76921 0
M  V30 2484 C 242.449 -2.98175 -2.29714 0
M  V30 2485 C 241.596 -2.54491 -1.10135 0
M  V30 2486 H 244.547 -1.57751 -0.173317 0
M  V30 2487 H 244.568 -2.75163 -2.62804 0
M  V30 2488 H 244.08 -3.72616 -1.08532 0
M  V30 2489 H 242.181 -2.19024 -3.01429 0
M  V30 2490 H 242.294 -4.02726 -2.59517 0
M  V30 2491 H 240.658 -2.08702 -1.45999 0
M  V30 2492 H 241.441 -3.4056 -0.432874 0
M  V30 2493 N 243.887 0.651787 -1.4349 0
M  V30 2494 C 244.819 1.77725 -1.44729 0
M  V30 2495 C 245.832 1.59141 -0.343231 0
M  V30 2496 O 247.021 1.67835 -0.607751 0
M  V30 2497 C 244.121 3.15172 -1.24579 0
M  V30 2498 C 243.294 3.60402 -2.47849 0
M  V30 2499 C 242.353 4.76656 -2.22902 0
M  V30 2500 O 241.379 4.86022 -2.96263 0
M  V30 2501 N 242.581 5.66958 -1.24656 0
M  V30 2502 H 245.346 1.77141 -2.41746 0
M  V30 2503 H 242.907 0.835678 -1.38665 0
M  V30 2504 H 244.899 3.90634 -1.0577 0
M  V30 2505 H 243.469 3.1052 -0.360015 0
M  V30 2506 H 242.689 2.75369 -2.82073 0
M  V30 2507 H 243.977 3.87368 -3.29884 0
M  V30 2508 H 243.375 5.62065 -0.640265 0
M  V30 2509 H 241.932 6.42135 -1.1183 0
M  V30 2510 N 245.365 1.30045 0.890287 0
M  V30 2511 C 246.59 1.21598 1.68014 0
M  V30 2512 C 247.015 -0.218678 1.86825 0
M  V30 2513 O 246.373 -1.15756 1.39536 0
M  V30 2514 C 246.421 1.94434 3.03691 0
M  V30 2515 O 245.525 1.2678 3.92429 0
M  V30 2516 H 244.866 0.420856 0.513592 0
M  V30 2517 H 247.396 1.71775 1.11151 0
M  V30 2518 H 247.406 2.03251 3.5377 0
M  V30 2519 H 246.081 2.98777 2.89318 0
M  V30 2520 H 244.658 1.26282 3.50866 0
M  V30 2521 N 246.843 -1.10192 1.12674 0
M  V30 2522 C 248.092 -1.81573 0.8783 0
M  V30 2523 C 248.405 -1.86249 -0.597557 0
M  V30 2524 O 249.611 -2.5386 -0.962681 0
M  V30 2525 C 248.067 -3.26149 1.52167 0
M  V30 2526 C 247.675 -3.29763 3.03249 0
M  V30 2527 C 249.419 -4.0234 1.3536 0
M  V30 2528 C 247.326 -4.68815 3.60508 0
M  V30 2529 H 246.256 -0.680394 0.324931 0
M  V30 2530 H 248.907 -1.23902 1.35353 0
M  V30 2531 H 247.289 -3.83832 0.974104 0
M  V30 2532 H 248.463 -2.8189 3.6452 0
M  V30 2533 H 246.778 -2.67059 3.19481 0
M  V30 2534 H 249.375 -5.05058 1.75559 0
M  V30 2535 H 249.718 -4.15235 0.297554 0
M  V30 2536 H 250.251 -3.51079 1.87052 0
M  V30 2537 H 246.99 -4.61121 4.65884 0
M  V30 2538 H 246.51 -5.17045 3.04014 0
M  V30 2539 H 248.189 -5.37785 3.59717 0
M  V30 2540 N 248.321 -0.919034 -1.28029 0
M  V30 2541 C 249.251 -0.428581 -2.29533 0
M  V30 2542 C 250.232 0.50659 -1.62381 0
M  V30 2543 O 251.417 0.413195 -1.89753 0
M  V30 2544 C 248.547 0.327388 -3.45753 0
M  V30 2545 C 247.501 -0.519137 -4.2484 0
M  V30 2546 C 246.827 0.365486 -5.33449 0
M  V30 2547 C 248.127 -1.77914 -4.91064 0
M  V30 2548 H 249.821 -1.27687 -2.70807 0
M  V30 2549 H 247.367 -0.615428 -1.30186 0
M  V30 2550 H 249.32 0.681378 -4.15855 0
M  V30 2551 H 248.044 1.20963 -3.03374 0
M  V30 2552 H 246.703 -0.855717 -3.56473 0
M  V30 2553 H 246.351 1.24642 -4.87312 0
M  V30 2554 H 246.051 -0.197356 -5.87268 0
M  V30 2555 H 247.575 0.715241 -6.06396 0
M  V30 2556 H 248.989 -1.49374 -5.53498 0
M  V30 2557 H 247.386 -2.2848 -5.54903 0
M  V30 2558 H 248.456 -2.50382 -4.15255 0
M  V30 2559 N 249.799 1.42003 -0.683588 0
M  V30 2560 C 250.729 2.33487 -0.024866 0
M  V30 2561 C 251.71 1.51163 0.779975 0
M  V30 2562 O 252.895 1.79739 0.735362 0
M  V30 2563 C 250.025 3.3487 0.920836 0
M  V30 2564 C 248.979 4.27414 0.223958 0
M  V30 2565 C 248.305 5.19074 1.2832 0
M  V30 2566 C 249.605 5.14445 -0.90242 0
M  V30 2567 H 251.299 2.88819 -0.788921 0
M  V30 2568 H 248.845 1.38873 -0.38083 0
M  V30 2569 H 250.798 3.97787 1.39081 0
M  V30 2570 H 249.522 2.77861 1.71642 0
M  V30 2571 H 248.181 3.65904 -0.225864 0
M  V30 2572 H 247.829 4.58387 2.071 0
M  V30 2573 H 247.529 5.81822 0.821995 0
M  V30 2574 H 249.053 5.84867 1.75392 0
M  V30 2575 H 250.467 5.70998 -0.513272 0
M  V30 2576 H 248.864 5.86072 -1.28997 0
M  V30 2577 H 249.934 4.52322 -1.74737 0
M  V30 2578 N 251.277 0.427512 1.51691 0
M  V30 2579 C 252.693 0.0792977 1.59403 0
M  V30 2580 C 252.893 -1.41035 1.43914 0
M  V30 2581 O 251.949 -2.17922 1.27539 0
M  V30 2582 C 253.262 0.590636 2.94842 0
M  V30 2583 C 254.81 0.550215 3.08126 0
M  V30 2584 C 255.285 1.03836 4.46074 0
M  V30 2585 N 256.776 0.995943 4.52366 0
M  V30 2586 C 257.511 1.34463 5.57411 0
M  V30 2587 N 257.007 1.76569 6.69922 0
M  V30 2588 N 258.8 1.26343 5.47717 0
M  V30 2589 H 250.951 1.39687 1.60004 0
M  V30 2590 H 253.214 0.575003 0.753708 0
M  V30 2591 H 252.92 1.63251 3.11516 0
M  V30 2592 H 252.794 0.0102061 3.77199 0
M  V30 2593 H 255.181 -0.482654 2.91126 0
M  V30 2594 H 255.262 1.16693 2.27632 0
M  V30 2595 H 254.906 2.06965 4.63819 0
M  V30 2596 H 254.836 0.398286 5.25092 0
M  V30 2597 H 257.327 0.68661 3.7161 0
M  V30 2598 H 257.64 2.01438 7.46085 0
M  V30 2599 H 255.985 1.80488 6.71155 0
M  V30 2600 H 259.176 0.933209 4.58703 0
M  V30 2601 H 259.349 1.53846 6.29472 0
M  V30 2602 N 252.755 -1.56801 0.158532 0
M  V30 2603 C 253.685 -2.20347 -0.772609 0
M  V30 2604 C 254.666 -1.15518 -1.24859 0
M  V30 2605 O 255.851 -1.43902 -1.30406 0
M  V30 2606 C 252.981 -2.83417 -2.00729 0
M  V30 2607 C 251.935 -3.94174 -1.66765 0
M  V30 2608 C 251.261 -4.44233 -2.97592 0
M  V30 2609 C 252.561 -5.14392 -0.905447 0
M  V30 2610 H 254.255 -2.98413 -0.242959 0
M  V30 2611 H 251.801 -1.43537 -0.115419 0
M  V30 2612 H 253.754 -3.26543 -2.6636 0
M  V30 2613 H 252.478 -2.02701 -2.56086 0
M  V30 2614 H 251.137 -3.51684 -1.03508 0
M  V30 2615 H 250.785 -3.60325 -3.50963 0
M  V30 2616 H 250.485 -5.18945 -2.75626 0
M  V30 2617 H 252.009 -4.90037 -3.64274 0
M  V30 2618 H 253.423 -5.5429 -1.46408 0
M  V30 2619 H 251.82 -5.9494 -0.7853 0
M  V30 2620 H 252.89 -4.84795 0.100668 0
M  V30 2621 N 254.233 0.115231 -1.57178 0
M  V30 2622 C 255.481 0.820727 -1.84685 0
M  V30 2623 C 255.802 1.80237 -0.744279 0
M  V30 2624 O 255.072 1.94529 0.231375 0
M  V30 2625 H 253.652 0.306084 -0.681411 0
M  V30 2626 H 256.314 0.101656 -1.94635 0
M  V30 2627 H 255.41 1.36366 -2.80733 0
M  V30 2628 N 255.711 1.52812 0.385517 0
M  V30 2629 C 256.643 1.74096 1.49074 0
M  V30 2630 C 257.656 0.621462 1.50472 0
M  V30 2631 O 258.845 0.897245 1.54311 0
M  V30 2632 C 255.945 1.78774 2.87911 0
M  V30 2633 C 255.118 3.08134 3.10439 0
M  V30 2634 C 254.177 3.04313 4.29278 0
M  V30 2635 O 253.203 3.78168 4.25415 0
M  V30 2636 N 254.405 2.23741 5.35649 0
M  V30 2637 H 257.17 2.69455 1.31202 0
M  V30 2638 H 254.731 1.51343 0.575065 0
M  V30 2639 H 256.723 1.73721 3.65518 0
M  V30 2640 H 255.293 0.907869 2.99126 0
M  V30 2641 H 254.513 3.26649 2.20667 0
M  V30 2642 H 255.801 3.93662 3.22347 0
M  V30 2643 H 255.199 1.63211 5.41645 0
M  V30 2644 H 253.756 2.24524 6.11909 0
M  V30 2645 N 257.189 -0.644168 1.43834 0
M  V30 2646 C 258.152 -1.73857 1.49353 0
M  V30 2647 C 259.152 -1.56315 0.377112 0
M  V30 2648 O 260.342 -1.62048 0.639226 0
M  V30 2649 C 257.474 -3.12819 1.35488 0
M  V30 2650 H 258.667 -1.70342 2.46827 0
M  V30 2651 H 256.22 -0.856652 1.30733 0
M  V30 2652 H 256.955 -3.2194 0.390569 0
M  V30 2653 H 256.74 -3.26958 2.16428 0
M  V30 2654 H 258.23 -3.92606 1.42302 0
M  V30 2655 N 258.668 -1.30515 -0.883378 0
M  V30 2656 C 259.6 -1.12846 -1.99496 0
M  V30 2657 C 260.613 -0.0712571 -1.62644 0
M  V30 2658 O 261.802 -0.317432 -1.75655 0
M  V30 2659 C 258.902 -0.699123 -3.3161 0
M  V30 2660 C 258.075 -1.83842 -3.96889 0
M  V30 2661 C 257.134 -1.39737 -5.07307 0
M  V30 2662 O 256.16 -2.10485 -5.28852 0
M  V30 2663 N 257.362 -0.277279 -5.79837 0
M  V30 2664 H 260.127 -2.08585 -2.15203 0
M  V30 2665 H 257.688 -1.22672 -1.05656 0
M  V30 2666 H 259.68 -0.387044 -4.02845 0
M  V30 2667 H 258.25 0.166276 -3.12157 0
M  V30 2668 H 257.47 -2.31853 -3.18807 0
M  V30 2669 H 258.758 -2.60187 -4.37241 0
M  V30 2670 H 258.156 0.3122 -5.64838 0
M  V30 2671 H 256.713 -0.0246623 -6.51795 0
M  V30 2672 N 260.146 1.09593 -1.13257 0
M  V30 2673 C 261.394 1.81375 -0.891492 0
M  V30 2674 C 261.715 1.86049 0.584009 0
M  V30 2675 O 260.985 1.34481 1.42449 0
M  V30 2676 H 259.565 0.671708 -0.326828 0
M  V30 2677 H 262.227 1.3256 -1.42877 0
M  V30 2678 H 261.323 2.84612 -1.28071 0
M  V30 2679 N 261.624 0.925811 1.2754 0
M  V30 2680 C 262.849 0.580924 1.99098 0
M  V30 2681 C 263.274 -0.833555 1.68622 0
M  V30 2682 O 262.632 -1.55903 0.925422 0
M  V30 2683 C 262.68 0.811186 3.51358 0
M  V30 2684 O 261.784 -0.124129 4.12213 0
M  V30 2685 H 261.125 0.223873 0.625122 0
M  V30 2686 H 263.655 1.24455 1.62395 0
M  V30 2687 H 263.665 0.72601 4.01489 0
M  V30 2688 H 262.34 1.84227 3.72872 0
M  V30 2689 H 260.917 0.0108006 3.72898 0
M  V30 2690 N 263.102 -1.41638 0.69111 0
M  V30 2691 C 264.032 -2.3347 0.037248 0
M  V30 2692 C 265.013 -1.51575 -0.771947 0
M  V30 2693 O 266.198 -1.80126 -0.72582 0
M  V30 2694 C 263.328 -3.35354 -0.903064 0
M  V30 2695 C 262.282 -4.27526 -0.201288 0
M  V30 2696 C 261.608 -5.19747 -1.25565 0
M  V30 2697 C 262.908 -5.13959 0.929689 0
M  V30 2698 H 264.602 -2.88397 0.804227 0
M  V30 2699 H 262.148 -1.38669 0.388189 0
M  V30 2700 H 264.101 -3.98519 -1.36969 0
M  V30 2701 H 262.825 -2.78767 -1.70166 0
M  V30 2702 H 261.484 -3.65779 0.245265 0
M  V30 2703 H 261.132 -4.59479 -2.04666 0
M  V30 2704 H 260.832 -5.8225 -0.791128 0
M  V30 2705 H 262.356 -5.85789 -1.72288 0
M  V30 2706 H 263.77 -5.70718 0.543546 0
M  V30 2707 H 262.167 -5.85379 1.32103 0
M  V30 2708 H 263.237 -4.51389 1.77133 0
M  V30 2709 N 264.58 -0.43555 -1.51462 0
M  V30 2710 C 265.805 0.132627 -2.06976 0
M  V30 2711 C 266.23 1.35848 -1.30104 0
M  V30 2712 O 265.588 1.78112 -0.338493 0
M  V30 2713 C 265.636 0.43523 -3.57964 0
M  V30 2714 O 264.74 1.52198 -3.83288 0
M  V30 2715 H 264.081 0.00265 -0.663995 0
M  V30 2716 H 266.611 -0.616369 -1.95095 0
M  V30 2717 H 266.621 0.686206 -4.02188 0
M  V30 2718 H 265.296 -0.460739 -4.1334 0
M  V30 2719 H 263.873 1.2611 -3.50928 0
M  V30 2720 N 266.058 1.56714 -0.166846 0
M  V30 2721 C 267.305 1.96747 0.479252 0
M  V30 2722 C 267.633 1.05263 1.63554 0
M  V30 2723 O 266.888 0.0858098 1.95512 0
M  V30 2724 C 267.187 3.42889 1.00806 0
M  V30 2725 C 266.853 4.50889 -0.0318574 0
M  V30 2726 C 265.515 4.8015 -0.317675 0
M  V30 2727 C 267.867 5.15949 -0.737956 0
M  V30 2728 C 265.195 5.71772 -1.31506 0
M  V30 2729 C 267.547 6.08647 -1.72429 0
M  V30 2730 C 266.211 6.36277 -2.0176 0
M  V30 2731 H 265.481 0.719949 0.175371 0
M  V30 2732 H 268.128 1.89756 -0.257864 0
M  V30 2733 H 266.433 3.4681 1.82291 0
M  V30 2734 H 268.13 3.71203 1.51689 0
M  V30 2735 H 264.72 4.28128 0.201088 0
M  V30 2736 H 268.904 4.93458 -0.530351 0
M  V30 2737 H 264.16 5.91465 -1.54853 0
M  V30 2738 H 268.334 6.58129 -2.27682 0
M  V30 2739 H 265.961 7.07075 -2.79194 0
M  V30 2740 N 267.536 -0.106894 1.57237 0
M  V30 2741 C 268.776 -0.818277 1.87306 0
M  V30 2742 C 269.14 -1.76474 0.756371 0
M  V30 2743 O 270.341 -2.5186 0.939155 0
M  V30 2744 C 268.612 -1.53806 3.22612 0
M  V30 2745 S 270.171 -2.28935 3.74345 0
M  V30 2746 H 266.989 -0.272862 0.656557 0
M  V30 2747 H 269.591 -0.075988 1.95352 0
M  V30 2748 H 268.295 -0.834951 4.01817 0
M  V30 2749 H 267.826 -2.32049 3.17674 0
M  V30 2750 H 269.841 -3.54871 3.46815 0
M  V30 2751 N 269.014 -1.53014 -0.377408 0
M  V30 2752 C 269.947 -1.73382 -1.48371 0
M  V30 2753 C 270.925 -0.581879 -1.51832 0
M  V30 2754 O 272.109 -0.81307 -1.70063 0
M  V30 2755 C 269.236 -1.80192 -2.8679 0
M  V30 2756 C 268.282 -3.02056 -3.01105 0
M  V30 2757 S 269.115 -4.61811 -2.71093 0
M  V30 2758 C 270.271 -4.71453 -4.11683 0
M  V30 2759 H 270.504 -2.66946 -1.30872 0
M  V30 2760 H 268.037 -1.43453 -0.571012 0
M  V30 2761 H 269.995 -1.84802 -3.6655 0
M  V30 2762 H 268.656 -0.877008 -3.01608 0
M  V30 2763 H 267.849 -3.03396 -4.02451 0
M  V30 2764 H 267.451 -2.95498 -2.29253 0
M  V30 2765 H 269.743 -4.50781 -5.0577 0
M  V30 2766 H 270.686 -5.73487 -4.15353 0
M  V30 2767 H 271.094 -4.00189 -3.98132 0
M  V30 2768 N 270.492 0.636531 -1.44174 0
M  V30 2769 C 271.422 1.76003 -1.53444 0
M  V30 2770 C 272.403 1.65619 -0.387841 0
M  V30 2771 O 273.588 1.84461 -0.607257 0
M  V30 2772 C 270.718 3.14511 -1.4731 0
M  V30 2773 C 269.672 3.39677 -2.60391 0
M  V30 2774 C 268.998 4.78159 -2.39308 0
M  V30 2775 C 270.298 3.32772 -4.02567 0
M  V30 2776 H 271.992 1.68501 -2.47483 0
M  V30 2777 H 269.538 0.809237 -1.19111 0
M  V30 2778 H 271.491 3.92878 -1.52397 0
M  V30 2779 H 270.215 3.22783 -0.49785 0
M  V30 2780 H 268.874 2.63688 -2.54684 0
M  V30 2781 H 268.522 4.83128 -1.39988 0
M  V30 2782 H 268.222 4.95956 -3.15122 0
M  V30 2783 H 269.746 5.58762 -2.46205 0
M  V30 2784 H 271.16 4.01051 -4.09672 0
M  V30 2785 H 269.557 3.62104 -4.7854 0
M  V30 2786 H 270.627 2.30669 -4.2652 0
M  V30 2787 N 271.97 1.30982 0.876444 0
M  V30 2788 C 272.88 1.2003 2.01569 0
M  V30 2789 C 273.896 0.11838 1.73597 0
M  V30 2790 O 275.072 0.33495 1.98595 0
M  V30 2791 C 272.137 0.901637 3.34771 0
M  V30 2792 C 271.198 2.06979 3.76109 0
M  V30 2793 C 270.431 1.78529 5.02954 0
M  V30 2794 O 270.654 0.717296 5.65872 0
M  V30 2795 O 269.588 2.64019 5.40905 0
M  V30 2796 H 273.414 2.15753 2.13739 0
M  V30 2797 H 270.999 1.10658 1.00375 0
M  V30 2798 H 272.881 0.750645 4.1466 0
M  V30 2799 H 271.556 -0.0256141 3.2369 0
M  V30 2800 H 270.463 2.27616 2.96887 0
M  V30 2801 H 271.796 2.97907 3.91807 0
M  V30 2802 N 273.449 -1.08991 1.13837 0
M  V30 2803 C 274.412 -2.13925 0.822715 0
M  V30 2804 C 275.412 -1.599 -0.1699 0
M  V30 2805 O 276.602 -1.74104 0.0577251 0
M  V30 2806 C 273.734 -3.40155 0.225318 0
M  V30 2807 H 274.927 -2.43358 1.75262 0
M  V30 2808 H 272.48 -1.24603 0.943594 0
M  V30 2809 H 273.215 -3.16352 -0.713594 0
M  V30 2810 H 273 -3.80661 0.940193 0
M  V30 2811 H 274.49 -4.17594 0.0214784 0
M  V30 2812 N 274.927 -0.932562 -1.27047 0
M  V30 2813 C 276.152 -0.591474 -1.98787 0
M  V30 2814 C 276.577 0.824601 -1.69062 0
M  V30 2815 O 275.935 1.5541 -0.933677 0
M  V30 2816 C 275.983 -0.829808 -3.50922 0
M  V30 2817 O 275.087 0.102266 -4.12273 0
M  V30 2818 H 274.428 -0.227185 -0.623926 0
M  V30 2819 H 276.958 -1.25314 -1.61733 0
M  V30 2820 H 276.968 -0.747292 -4.01098 0
M  V30 2821 H 275.643 -1.86201 -3.7189 0
M  V30 2822 H 274.22 -0.0305761 -3.72887 0
M  V30 2823 N 276.405 1.4127 -0.698611 0
M  V30 2824 C 277.337 2.292 0.00399731 0
M  V30 2825 C 278.35 1.44944 0.741279 0
M  V30 2826 O 279.539 1.68416 0.591477 0
M  V30 2827 C 276.639 3.22875 1.02979 0
M  V30 2828 C 275.812 4.35904 0.36151 0
M  V30 2829 C 274.871 5.10134 1.29033 0
M  V30 2830 O 273.897 5.63809 0.781562 0
M  V30 2831 N 275.099 5.17885 2.6225 0
M  V30 2832 H 277.864 2.9014 -0.750921 0
M  V30 2833 H 275.425 1.52455 -0.544882 0
M  V30 2834 H 277.417 3.69404 1.65296 0
M  V30 2835 H 275.987 2.63221 1.68622 0
M  V30 2836 H 275.207 3.91719 -0.441584 0
M  V30 2837 H 276.495 5.08696 -0.103055 0
M  V30 2838 H 275.893 4.7573 3.061 0
M  V30 2839 H 274.45 5.6798 3.19754 0
M  V30 2840 N 277.883 0.443576 1.51229 0
M  V30 2841 C 279.16 -0.181038 1.9476 0
M  V30 2842 C 279.54 -1.59523 1.38259 0
M  V30 2843 O 278.888 -2.2122 0.572198 0
M  V30 2844 C 279.098 -0.152422 3.48667 0
M  V30 2845 C 280.446 -0.354923 4.23114 0
M  V30 2846 O 281.47 -0.230257 3.55455 0
M  V30 2847 O 280.329 -0.603674 5.43156 0
M  V30 2848 H 277.423 -0.1266 0.817252 0
M  V30 2849 H 279.969 0.502004 1.62105 0
M  V30 2850 H 278.741 0.836022 3.82265 0
M  V30 2851 H 278.364 -0.878107 3.87782 0
M  V30 2852 N 279.361 -1.56624 0.175154 0
M  V30 2853 C 280.294 -2.14 -0.792412 0
M  V30 2854 C 281.272 -1.07114 -1.22333 0
M  V30 2855 O 282.456 -1.35112 -1.31442 0
M  V30 2856 C 279.583 -2.68268 -2.0676 0
M  V30 2857 C 278.629 -3.87562 -1.7804 0
M  V30 2858 S 279.462 -5.27074 -0.946222 0
M  V30 2859 C 280.618 -5.8475 -2.23199 0
M  V30 2860 H 280.851 -2.95736 -0.304588 0
M  V30 2861 H 278.384 -1.54349 -0.0395705 0
M  V30 2862 H 280.342 -3.00182 -2.80002 0
M  V30 2863 H 279.003 -1.86612 -2.52656 0
M  V30 2864 H 278.196 -4.23874 -2.72666 0
M  V30 2865 H 277.798 -3.56555 -1.12891 0
M  V30 2866 H 280.09 -5.97898 -3.18629 0
M  V30 2867 H 281.033 -6.81756 -1.91349 0
M  V30 2868 H 281.441 -5.13198 -2.35134 0
M  V30 2869 N 280.839 0.0985539 -1.57292 0
M  V30 2870 C 282.087 0.801092 -1.85545 0
M  V30 2871 C 282.408 1.79438 -0.763353 0
M  V30 2872 O 281.678 1.94763 0.21073 0
M  V30 2873 H 280.258 0.29884 -0.684619 0
M  V30 2874 H 282.92 0.0810064 -1.94732 0
M  V30 2875 H 282.016 1.3338 -2.82163 0
M  V30 2876 N 282.317 1.53212 0.369288 0
M  V30 2877 C 283.733 1.42902 0.710712 0
M  V30 2878 C 283.933 0.565135 1.93413 0
M  V30 2879 O 282.989 0.0461484 2.52458 0
M  V30 2880 C 284.302 2.86042 0.927382 0
M  V30 2881 C 285.85 2.9565 1.02762 0
M  V30 2882 C 286.325 4.39843 1.27679 0
M  V30 2883 N 287.816 4.43256 1.34457 0
M  V30 2884 C 288.551 5.51929 1.55439 0
M  V30 2885 N 288.047 6.70655 1.73762 0
M  V30 2886 N 289.84 5.39502 1.57779 0
M  V30 2887 H 281.991 2.07888 -0.435457 0
M  V30 2888 H 284.254 0.938661 -0.132739 0
M  V30 2889 H 283.96 3.51557 0.100287 0
M  V30 2890 H 283.834 3.29472 1.83653 0
M  V30 2891 H 286.221 2.30291 1.84527 0
M  V30 2892 H 286.302 2.5562 0.0959504 0
M  V30 2893 H 285.946 5.05774 0.464175 0
M  V30 2894 H 285.876 4.77443 2.22162 0
M  V30 2895 H 288.367 3.5769 1.21926 0
M  V30 2896 H 288.68 7.49248 1.89335 0
M  V30 2897 H 287.025 6.73648 1.70948 0
M  V30 2898 H 290.216 4.45713 1.43029 0
M  V30 2899 H 290.389 6.2426 1.7379 0
M  V30 2900 N 283.795 -0.628877 1.44509 0
M  V30 2901 C 285.023 -1.41554 1.50897 0
M  V30 2902 C 285.438 -1.8832 0.134564 0
M  V30 2903 O 284.795 -1.60969 -0.859965 0
M  V30 2904 C 284.846 -2.63435 2.47556 0
M  V30 2905 O 284.567 -2.18619 3.79654 0
M  V30 2906 C 286.068 -3.56537 2.63431 0
M  V30 2907 H 283.288 -0.434044 0.511709 0
M  V30 2908 H 285.832 -0.768895 1.89495 0
M  V30 2909 H 283.987 -3.24187 2.12089 0
M  V30 2910 H 284.401 -2.97652 4.31861 0
M  V30 2911 H 285.875 -4.38657 3.35088 0
M  V30 2912 H 286.352 -4.05493 1.68738 0
M  V30 2913 H 286.958 -3.01653 2.9981 0
M  V30 2914 N 285.273 -1.31445 -0.869486 0
M  V30 2915 C 286.203 -1.21727 -1.99261 0
M  V30 2916 C 287.184 -0.104359 -1.6978 0
M  V30 2917 O 288.369 -0.289038 -1.92037 0
M  V30 2918 C 285.499 -0.924317 -3.34774 0
M  V30 2919 C 284.453 -1.99685 -3.78563 0
M  V30 2920 C 283.779 -1.55658 -5.11541 0
M  V30 2921 C 285.079 -3.41003 -3.95619 0
M  V30 2922 H 286.773 -2.1569 -2.07649 0
M  V30 2923 H 284.319 -1.03839 -0.997675 0
M  V30 2924 H 286.272 -0.842934 -4.12883 0
M  V30 2925 H 284.996 0.0509793 -3.2656 0
M  V30 2926 H 283.655 -2.06813 -3.02694 0
M  V30 2927 H 283.303 -0.569132 -4.9977 0
M  V30 2928 H 283.003 -2.27409 -5.41811 0
M  V30 2929 H 284.527 -1.48928 -5.92159 0
M  V30 2930 H 285.941 -3.36547 -4.64122 0
M  V30 2931 H 284.338 -4.10975 -4.37286 0
M  V30 2932 H 285.408 -3.81754 -2.98985 0
M  V30 2933 N 286.751 1.08385 -1.14413 0
M  V30 2934 C 287.661 2.18856 -0.844951 0
M  V30 2935 C 288.677 1.73121 0.174668 0
M  V30 2936 O 289.853 2.014 0.00312857 0
M  V30 2937 C 286.918 3.45155 -0.32696 0
M  V30 2938 C 285.979 4.05513 -1.40916 0
M  V30 2939 C 285.212 5.25784 -0.915793 0
M  V30 2940 O 285.435 5.69884 0.242651 0
M  V30 2941 O 284.369 5.77545 -1.69487 0
M  V30 2942 H 288.195 2.46919 -1.76818 0
M  V30 2943 H 285.78 1.17524 -0.922411 0
M  V30 2944 H 287.662 4.21377 -0.0440211 0
M  V30 2945 H 286.337 3.18668 0.568539 0
M  V30 2946 H 285.244 3.30879 -1.74556 0
M  V30 2947 H 286.577 4.3625 -2.27919 0
M  V30 2948 N 288.23 0.939286 1.26551 0
M  V30 2949 C 289.476 0.596234 1.94465 0
M  V30 2950 C 289.831 -0.855013 1.72358 0
M  V30 2951 O 289.124 -1.6034 1.04889 0
M  V30 2952 C 289.318 0.872106 3.46596 0
M  V30 2953 C 289.147 2.34862 3.83497 0
M  V30 2954 C 287.917 3.00344 4.06352 0
M  V30 2955 C 290.115 3.32697 3.92195 0
M  V30 2956 N 288.097 4.38027 4.30123 0
M  V30 2957 C 289.468 4.55631 4.20476 0
M  V30 2958 C 291.523 3.27747 3.74815 0
M  V30 2959 C 290.226 5.74233 4.33185 0
M  V30 2960 C 292.252 4.45672 3.88755 0
M  V30 2961 C 291.614 5.67388 4.17433 0
M  V30 2962 H 287.713 0.268515 0.734455 0
M  V30 2963 H 290.297 1.2083 1.5267 0
M  V30 2964 H 288.468 0.289102 3.87323 0
M  V30 2965 H 290.2 0.490513 4.01716 0
M  V30 2966 H 286.955 2.50969 4.01636 0
M  V30 2967 H 287.379 5.09288 4.46044 0
M  V30 2968 H 292.021 2.34703 3.51673 0
M  V30 2969 H 289.739 6.67731 4.55149 0
M  V30 2970 H 293.325 4.43372 3.76713 0
M  V30 2971 H 292.205 6.57115 4.27983 0
M  V30 2972 N 289.708 -1.40897 0.706093 0
M  V30 2973 C 291.124 -1.55042 0.37869 0
M  V30 2974 C 291.324 -1.67944 -1.11342 0
M  V30 2975 O 290.38 -1.66372 -1.89938 0
M  V30 2976 C 291.693 -2.78398 1.13643 0
M  V30 2977 C 293.241 -2.92206 1.12181 0
M  V30 2978 C 293.716 -4.18463 1.86152 0
M  V30 2979 N 295.207 -4.25443 1.83173 0
M  V30 2980 C 295.942 -5.2202 2.37239 0
M  V30 2981 N 295.438 -6.24563 2.99821 0
M  V30 2982 N 297.231 -5.14033 2.27435 0
M  V30 2983 H 289.382 -1.30769 1.67372 0
M  V30 2984 H 291.645 -0.631653 0.706907 0
M  V30 2985 H 291.351 -2.7511 2.19106 0
M  V30 2986 H 291.225 -3.70228 0.721853 0
M  V30 2987 H 293.612 -2.95004 0.0754171 0
M  V30 2988 H 293.693 -2.01521 1.57554 0
M  V30 2989 H 293.337 -4.16427 2.90776 0
M  V30 2990 H 293.267 -5.08141 1.38206 0
M  V30 2991 H 295.758 -3.51976 1.37556 0
M  V30 2992 H 296.071 -6.94665 3.38616 0
M  V30 2993 H 294.416 -6.25035 3.03902 0
M  V30 2994 H 297.607 -4.3285 1.78208 0
M  V30 2995 H 297.78 -5.89129 2.69873 0
M  V30 2996 N 291.186 -0.45159 -1.50991 0
M  V30 2997 C 292.597 0.00818571 -1.86698 0
M  V30 2998 C 292.948 1.40661 -1.3678 0
M  V30 2999 O 292.073 2.0391 -0.724546 0
M  V30 3000 C 292.668 0.0216303 -3.38793 0
M  V30 3001 C 291.227 0.425865 -3.73983 0
M  V30 3002 C 290.374 -0.372163 -2.74791 0
M  V30 3003 H 293.325 -0.666785 -1.44013 0
M  V30 3004 H 293.346 0.828078 -3.7138 0
M  V30 3005 H 292.858 -0.996288 -3.75094 0
M  V30 3006 H 290.959 1.44886 -3.43277 0
M  V30 3007 H 291.072 0.140761 -4.78893 0
M  V30 3008 H 289.436 0.171498 -2.54122 0
M  V30 3009 H 290.219 -1.38922 -3.13935 0
M  V30 3010 N 292.664 1.56529 -0.183458 0
M  V30 3011 C 294.08 1.58664 0.172554 0
M  V30 3012 C 294.28 1.19925 1.61926 0
M  V30 3013 O 293.336 0.916534 2.35278 0
M  V30 3014 C 294.649 3.00463 -0.119262 0
M  V30 3015 C 296.197 3.12945 -0.0584396 0
M  V30 3016 C 296.672 4.56857 -0.323408 0
M  V30 3017 N 298.163 4.62403 -0.271612 0
M  V30 3018 C 298.898 5.71626 -0.450639 0
M  V30 3019 N 298.394 6.89362 -0.689384 0
M  V30 3020 N 300.187 5.60775 -0.385701 0
M  V30 3021 H 292.338 1.79994 -1.12765 0
M  V30 3022 H 294.601 0.834808 -0.449222 0
M  V30 3023 H 294.307 3.33326 -1.12192 0
M  V30 3024 H 294.181 3.72659 0.583544 0
M  V30 3025 H 296.568 2.79902 0.934805 0
M  V30 3026 H 296.649 2.4316 -0.794144 0
M  V30 3027 H 296.293 4.9061 -1.31392 0
M  V30 3028 H 296.223 5.24816 0.43305 0
M  V30 3029 H 298.714 3.77785 -0.0932256 0
M  V30 3030 H 299.027 7.68489 -0.815113 0
M  V30 3031 H 297.372 6.91196 -0.726142 0
M  V30 3032 H 300.563 4.67674 -0.199687 0
M  V30 3033 H 300.736 6.4584 -0.528646 0
M  V30 3034 N 294.142 -0.090211 1.57342 0
M  V30 3035 C 295.37 -0.806224 1.90546 0
M  V30 3036 C 295.785 -1.72041 0.777644 0
M  V30 3037 O 295.142 -1.80778 -0.250103 0
M  V30 3038 C 295.193 -1.61546 3.23396 0
M  V30 3039 O 294.914 -0.738043 4.31839 0
M  V30 3040 C 296.415 -2.4341 3.70495 0
M  V30 3041 H 293.635 -0.230256 0.630257 0
M  V30 3042 H 296.179 -0.0659843 2.04394 0
M  V30 3043 H 294.334 -2.30816 3.11131 0
M  V30 3044 H 294.748 -1.29901 5.08159 0
M  V30 3045 H 296.222 -2.95676 4.66133 0
M  V30 3046 H 296.699 -3.22098 2.98579 0
M  V30 3047 H 297.305 -1.79331 3.85643 0
M  V30 3048 N 295.62 -1.53406 -0.361157 0
M  V30 3049 C 297.031 -1.61442 -0.937728 0
M  V30 3050 C 297.382 -0.48461 -1.90121 0
M  V30 3051 O 296.507 0.388312 -2.12888 0
M  V30 3052 C 297.102 -2.92624 -1.70753 0
M  V30 3053 C 295.661 -3.02981 -2.23337 0
M  V30 3054 C 294.808 -2.5677 -1.04712 0
M  V30 3055 H 297.759 -1.58083 -0.139816 0
M  V30 3056 H 297.78 -2.80675 -2.56908 0
M  V30 3057 H 297.292 -3.74834 -1.00604 0
M  V30 3058 H 295.393 -2.25368 -2.96715 0
M  V30 3059 H 295.506 -4.0814 -2.50916 0
M  V30 3060 H 293.87 -2.11752 -1.41539 0
M  V30 3061 H 294.653 -3.41402 -0.360539 0
M  V30 3062 N 297.098 0.621204 -1.44841 0
M  V30 3063 C 298.061 1.71459 -1.521 0
M  V30 3064 C 299.061 1.55696 -0.401933 0
M  V30 3065 O 300.251 1.61011 -0.664925 0
M  V30 3066 C 297.383 3.10624 -1.40447 0
M  V30 3067 H 298.576 1.66394 -2.49506 0
M  V30 3068 H 296.129 0.835745 -1.3208 0
M  V30 3069 H 296.864 3.21277 -0.441737 0
M  V30 3070 H 296.649 3.23473 -2.21602 0
M  V30 3071 H 298.139 3.90293 -1.4853 0
M  V30 3072 N 298.576 1.31904 0.862503 0
M  V30 3073 C 299.506 1.22782 1.98612 0
M  V30 3074 C 300.487 0.113362 1.69722 0
M  V30 3075 O 301.672 0.299218 1.91881 0
M  V30 3076 C 298.802 0.942058 3.34279 0
M  V30 3077 C 297.756 2.0169 3.77499 0
M  V30 3078 C 297.082 1.58369 5.10709 0
M  V30 3079 C 298.382 3.43096 3.93805 0
M  V30 3080 H 300.076 2.16788 2.06502 0
M  V30 3081 H 297.622 1.04366 0.992154 0
M  V30 3082 H 299.575 0.864818 4.1243 0
M  V30 3083 H 298.299 -0.0336603 3.26583 0
M  V30 3084 H 296.958 2.08416 3.01593 0
M  V30 3085 H 296.606 0.595628 4.99461 0
M  V30 3086 H 296.306 2.30279 5.40597 0
M  V30 3087 H 297.83 1.52067 5.91361 0
M  V30 3088 H 299.244 3.39003 4.62331 0
M  V30 3089 H 297.641 4.13288 4.35101 0
M  V30 3090 H 298.711 3.83334 2.96957 0
M  V30 3091 N 300.054 -1.07777 1.14986 0
M  V30 3092 C 301.3 -1.80557 0.923422 0
M  V30 3093 C 301.633 -1.86298 -0.548337 0
M  V30 3094 O 300.908 -1.34354 -1.40639 0
M  V30 3095 C 301.191 -3.25839 1.53299 0
M  V30 3096 C 301.044 -3.28269 3.07505 0
M  V30 3097 C 302.363 -4.22991 1.21518 0
M  V30 3098 H 299.482 -0.655493 0.336894 0
M  V30 3099 H 302.124 -1.26144 1.42083 0
M  V30 3100 H 300.274 -3.72306 1.10999 0
M  V30 3101 H 301.946 -2.90079 3.58681 0
M  V30 3102 H 300.189 -2.67355 3.4162 0
M  V30 3103 H 300.86 -4.30691 3.45266 0
M  V30 3104 H 303.336 -3.84894 1.581 0
M  V30 3105 H 302.212 -5.22945 1.66793 0
M  V30 3106 H 302.473 -4.41904 0.131505 0
M  V30 3107 N 301.532 -0.945985 -1.26051 0
M  V30 3108 C 302.948 -0.649045 -1.45807 0
M  V30 3109 C 303.148 0.796158 -1.85104 0
M  V30 3110 O 302.204 1.57233 -1.97571 0
M  V30 3111 C 303.517 -1.61458 -2.53677 0
M  V30 3112 C 305.065 -1.62481 -2.67524 0
M  V30 3113 C 305.54 -2.57776 -3.7857 0
M  V30 3114 N 307.031 -2.5609 -3.85969 0
M  V30 3115 C 307.766 -3.26508 -4.7136 0
M  V30 3116 N 307.262 -4.0637 -5.61102 0
M  V30 3117 N 309.055 -3.15437 -4.65248 0
M  V30 3118 H 301.206 -1.88005 -0.988328 0
M  V30 3119 H 303.469 -0.808198 -0.4955 0
M  V30 3120 H 303.175 -2.64644 -2.31638 0
M  V30 3121 H 303.049 -1.37036 -3.51427 0
M  V30 3122 H 305.436 -0.600167 -2.88933 0
M  V30 3123 H 305.517 -1.90958 -1.70202 0
M  V30 3124 H 305.161 -3.60361 -3.57913 0
M  V30 3125 H 305.091 -2.26587 -4.75359 0
M  V30 3126 H 307.582 -1.98105 -3.21812 0
M  V30 3127 H 307.895 -4.57042 -6.23164 0
M  V30 3128 H 306.24 -4.10469 -5.60839 0
M  V30 3129 H 309.431 -2.52525 -3.94143 0
M  V30 3130 H 309.604 -3.70584 -5.31575 0
M  V30 3131 N 303.011 1.40521 -0.713556 0
M  V30 3132 C 304.259 2.00527 -0.251692 0
M  V30 3133 C 304.58 1.56857 1.15848 0
M  V30 3134 O 303.85 0.807127 1.785 0
M  V30 3135 H 302.43 0.741551 -0.0900646 0
M  V30 3136 H 305.092 1.71887 -0.918733 0
M  V30 3137 H 304.188 3.10813 -0.283192 0
M  V30 3138 N 304.489 0.459591 1.5075 0
M  V30 3139 C 305.729 -0.09824 2.04164 0
M  V30 3140 C 306.093 -1.3801 1.33481 0
M  V30 3141 O 307.294 -2.01959 1.77387 0
M  V30 3142 C 305.565 -0.289467 3.56226 0
M  V30 3143 S 307.124 -0.807507 4.31306 0
M  V30 3144 H 303.942 -0.0213845 0.710678 0
M  V30 3145 H 306.544 0.624098 1.85271 0
M  V30 3146 H 305.248 0.649461 4.05229 0
M  V30 3147 H 304.779 -1.03825 3.79452 0
M  V30 3148 H 306.794 -2.0824 4.50389 0
M  V30 3149 N 305.967 -1.56429 0.191757 0
M  V30 3150 C 306.917 -2.15548 -0.743184 0
M  V30 3151 C 307.901 -1.09531 -1.17863 0
M  V30 3152 O 309.093 -1.35602 -1.13759 0
M  V30 3153 C 306.222 -2.81577 -1.96391 0
M  V30 3154 C 305.308 -3.9478 -1.54951 0
M  V30 3155 N 305.699 -4.98677 -0.845876 0
M  V30 3156 C 303.997 -4.06319 -1.83905 0
M  V30 3157 C 304.698 -5.78183 -0.638724 0
M  V30 3158 N 303.674 -5.30495 -1.18643 0
M  V30 3159 H 307.476 -2.9324 -0.196839 0
M  V30 3160 H 304.99 -1.62398 -0.0081603 0
M  V30 3161 H 306.987 -3.22321 -2.64415 0
M  V30 3162 H 305.647 -2.05371 -2.51501 0
M  V30 3163 H 306.658 -5.15464 -0.501704 0
M  V30 3164 H 303.335 -3.41238 -2.40548 0
M  V30 3165 H 304.725 -6.71851 -0.0807929 0
M  V30 3166 N 307.445 0.0818655 -1.57387 0
M  V30 3167 C 308.375 1.09885 -2.06028 0
M  V30 3168 C 309.356 1.4098 -0.951774 0
M  V30 3169 O 310.541 1.50781 -1.22387 0
M  V30 3170 C 307.671 2.4151 -2.4958 0
M  V30 3171 C 306.625 2.24792 -3.64215 0
M  V30 3172 C 305.951 3.61712 -3.93787 0
M  V30 3173 C 307.251 1.67749 -4.94629 0
M  V30 3174 H 308.945 0.694128 -2.91243 0
M  V30 3175 H 306.491 0.332448 -1.4011 0
M  V30 3176 H 308.444 3.12939 -2.82219 0
M  V30 3177 H 307.168 2.83943 -1.61381 0
M  V30 3178 H 305.827 1.55807 -3.31843 0
M  V30 3179 H 305.475 4.01697 -3.02735 0
M  V30 3180 H 305.175 3.51368 -4.70971 0
M  V30 3181 H 306.699 4.34587 -4.28913 0
M  V30 3182 H 308.113 2.29032 -5.25564 0
M  V30 3183 H 306.51 1.68128 -5.76067 0
M  V30 3184 H 307.58 0.638059 -4.80684 0
M  V30 3185 N 308.923 1.53595 0.353017 0
M  V30 3186 C 309.833 1.83897 1.45667 0
M  V30 3187 C 310.849 0.728334 1.58023 0
M  V30 3188 O 312.025 1.01968 1.73679 0
M  V30 3189 C 309.09 2.03383 2.80778 0
M  V30 3190 C 308.151 3.27262 2.77845 0
M  V30 3191 C 307.384 3.45809 4.06512 0
M  V30 3192 O 307.607 2.68387 5.03314 0
M  V30 3193 O 306.541 4.39207 4.11559 0
M  V30 3194 H 310.367 2.77686 1.2298 0
M  V30 3195 H 307.952 1.39132 0.544308 0
M  V30 3196 H 309.834 2.17698 3.60812 0
M  V30 3197 H 308.509 1.12783 3.03417 0
M  V30 3198 H 307.416 3.18359 1.96465 0
M  V30 3199 H 308.749 4.17824 2.60161 0
M  V30 3200 N 310.401 -0.613514 1.45168 0
M  V30 3201 C 311.649 -1.36997 1.48581 0
M  V30 3202 C 311.97 -1.94589 0.126545 0
M  V30 3203 O 311.24 -1.76816 -0.843372 0
M  V30 3204 H 309.82 -0.508558 0.547154 0
M  V30 3205 H 312.482 -0.720853 1.81079 0
M  V30 3206 H 311.578 -2.1924 2.22127 0
M  V30 3207 N 311.879 -1.3236 -0.855495 0
M  V30 3208 C 313.125 -1.23054 -1.612 0
M  V30 3209 C 313.458 0.207404 -1.93089 0
M  V30 3210 O 312.733 1.14432 -1.57275 0
M  V30 3211 C 313.016 -2.08937 -2.93287 0
M  V30 3212 C 312.869 -3.61105 -2.68185 0
M  V30 3213 C 314.188 -1.94986 -3.94549 0
M  V30 3214 H 311.307 -0.448364 -0.584926 0
M  V30 3215 H 313.949 -1.62297 -0.987917 0
M  V30 3216 H 312.099 -1.75599 -3.46551 0
M  V30 3217 H 313.771 -4.04652 -2.21483 0
M  V30 3218 H 312.014 -3.83813 -2.02164 0
M  V30 3219 H 312.685 -4.16522 -3.62234 0
M  V30 3220 H 315.161 -2.24189 -3.5054 0
M  V30 3221 H 314.037 -2.57356 -4.84829 0
M  V30 3222 H 314.298 -0.917263 -4.3248 0
M  V30 3223 N 313.357 1.07166 -1.15556 0
M  V30 3224 C 314.32 2.12589 -0.856644 0
M  V30 3225 C 315.32 1.6015 0.14444 0
M  V30 3226 O 316.51 1.7399 -0.0854163 0
M  V30 3227 C 313.642 3.39753 -0.279405 0
M  V30 3228 H 314.835 2.40539 -1.79112 0
M  V30 3229 H 312.388 1.23086 -0.963298 0
M  V30 3230 H 313.123 3.17447 0.663174 0
M  V30 3231 H 312.908 3.79117 -1.00063 0
M  V30 3232 H 314.398 4.17507 -0.0879113 0
M  V30 3233 N 314.835 0.952656 1.25548 0
M  V30 3234 C 316.083 0.605176 1.92826 0
M  V30 3235 C 316.404 -0.860261 1.74999 0
M  V30 3236 O 315.674 -1.6125 1.11244 0
M  V30 3237 H 314.254 0.220832 0.713612 0
M  V30 3238 H 316.916 1.21047 1.52754 0
M  V30 3239 H 316.012 0.832798 3.00784 0
M  V30 3240 N 316.313 -1.40141 0.720998 0
M  V30 3241 C 317.263 -2.27949 0.0482544 0
M  V30 3242 C 318.247 -1.43538 -0.727021 0
M  V30 3243 O 319.439 -1.6658 -0.598332 0
M  V30 3244 C 316.568 -3.32126 -0.868729 0
M  V30 3245 C 315.654 -4.24008 -0.0883515 0
M  V30 3246 N 316.045 -4.97154 0.931226 0
M  V30 3247 C 314.343 -4.4485 -0.320105 0
M  V30 3248 C 315.044 -5.64587 1.4006 0
M  V30 3249 N 314.02 -5.38787 0.721752 0
M  V30 3250 H 317.822 -2.81948 0.829609 0
M  V30 3251 H 315.336 -1.52656 0.554067 0
M  V30 3252 H 317.333 -3.93884 -1.36605 0
M  V30 3253 H 315.993 -2.79687 -1.6494 0
M  V30 3254 H 317.004 -5.01 1.31222 0
M  V30 3255 H 313.681 -4.03378 -1.07668 0
M  V30 3256 H 315.071 -6.33175 2.24808 0
M  V30 3257 N 317.792 -0.46758 -1.50504 0
M  V30 3258 C 318.739 0.328413 -2.28452 0
M  V30 3259 C 319.709 0.990313 -1.33349 0
M  V30 3260 O 320.894 1.00343 -1.62284 0
M  V30 3261 C 318.034 1.40648 -3.15138 0
M  V30 3262 C 317.147 0.759709 -4.25267 0
M  V30 3263 C 316.282 1.81537 -4.99217 0
M  V30 3264 C 315.321 1.14866 -6.01226 0
M  V30 3265 N 314.458 2.14702 -6.68467 0
M  V30 3266 H 319.298 -0.342603 -2.96024 0
M  V30 3267 H 316.835 -0.180801 -1.45985 0
M  V30 3268 H 318.793 2.04315 -3.63746 0
M  V30 3269 H 317.423 2.04671 -2.49619 0
M  V30 3270 H 316.475 0.0105671 -3.80399 0
M  V30 3271 H 317.787 0.233243 -4.98254 0
M  V30 3272 H 316.941 2.52793 -5.51526 0
M  V30 3273 H 315.68 2.37564 -4.25928 0
M  V30 3274 H 314.685 0.42171 -5.4818 0
M  V30 3275 H 315.91 0.595334 -6.76485 0
M  V30 3276 H 313.856 2.69752 -5.97972 0
M  V30 3277 H 313.773 1.6703 -7.37317 0
M  V30 3278 H 315.041 2.85348 -7.25394 0
M  V30 3279 N 319.27 1.56325 -0.20005 0
M  V30 3280 C 320.18 2.22931 0.730668 0
M  V30 3281 C 321.196 1.22997 1.23076 0
M  V30 3282 O 322.372 1.55748 1.27689 0
M  V30 3283 C 319.437 2.87948 1.93098 0
M  V30 3284 C 318.498 4.03166 1.47497 0
M  V30 3285 C 317.731 4.65073 2.61807 0
M  V30 3286 O 317.954 4.25913 3.79413 0
M  V30 3287 O 316.888 5.54452 2.34237 0
M  V30 3288 H 320.714 3.03084 0.193391 0
M  V30 3289 H 318.299 1.49371 0.0294621 0
M  V30 3290 H 320.181 3.29063 2.6324 0
M  V30 3291 H 318.856 2.10771 2.45677 0
M  V30 3292 H 317.763 3.66664 0.742201 0
M  V30 3293 H 319.096 4.82022 0.995796 0
M  V30 3294 N 320.748 -0.0735177 1.57428 0
M  V30 3295 C 321.711 -1.07192 2.02589 0
M  V30 3296 C 322.711 -1.31695 0.922661 0
M  V30 3297 O 323.901 -1.27445 1.18758 0
M  V30 3298 C 321.033 -2.41599 2.40506 0
M  V30 3299 H 322.226 -0.682727 2.92025 0
M  V30 3300 H 319.779 -0.319193 1.53006 0
M  V30 3301 H 320.514 -2.85354 1.5409 0
M  V30 3302 H 320.299 -2.25156 3.21009 0
M  V30 3303 H 321.789 -3.13367 2.76027 0
M  V30 3304 N 322.226 -1.5378 -0.344866 0
M  V30 3305 C 323.176 -1.78057 -1.42407 0
M  V30 3306 C 324.16 -0.635732 -1.47808 0
M  V30 3307 O 325.352 -0.89508 -1.527 0
M  V30 3308 C 322.481 -1.99242 -2.79566 0
M  V30 3309 C 321.567 -3.19787 -2.78562 0
M  V30 3310 N 321.958 -4.41284 -2.47189 0
M  V30 3311 C 320.256 -3.2093 -3.0971 0
M  V30 3312 C 320.957 -5.23128 -2.54385 0
M  V30 3313 N 319.933 -4.59813 -2.89953 0
M  V30 3314 H 323.735 -2.69588 -1.17046 0
M  V30 3315 H 321.249 -1.52687 -0.553217 0
M  V30 3316 H 323.246 -2.14768 -3.57324 0
M  V30 3317 H 321.906 -1.08953 -3.05875 0
M  V30 3318 H 322.917 -4.68657 -2.20411 0
M  V30 3319 H 319.594 -2.40603 -3.41199 0
M  V30 3320 H 320.984 -6.30096 -2.333 0
M  V30 3321 N 323.704 0.605807 -1.45491 0
M  V30 3322 C 324.953 1.36086 -1.48874 0
M  V30 3323 C 325.266 1.95131 -0.135333 0
M  V30 3324 O 326.472 2.7146 -0.0468144 0
M  V30 3325 C 324.928 2.46518 -2.62215 0
M  V30 3326 C 324.536 1.93877 -4.03876 0
M  V30 3327 C 326.28 3.23512 -2.74846 0
M  V30 3328 C 324.187 3.01801 -5.08596 0
M  V30 3329 H 323.117 0.511497 -0.553974 0
M  V30 3330 H 325.768 0.649089 -1.71636 0
M  V30 3331 H 324.15 3.20388 -2.32739 0
M  V30 3332 H 325.324 1.26704 -4.43038 0
M  V30 3333 H 323.639 1.29622 -3.95711 0
M  V30 3334 H 326.236 4.04013 -3.50253 0
M  V30 3335 H 326.579 3.74631 -1.81542 0
M  V30 3336 H 327.112 2.56742 -3.03856 0
M  V30 3337 H 323.851 2.55597 -6.03614 0
M  V30 3338 H 323.371 3.67535 -4.74002 0
M  V30 3339 H 325.05 3.66152 -5.33424 0
M  V30 3340 N 325.182 1.32811 0.848464 0
M  V30 3341 C 326.112 1.24882 1.97299 0
M  V30 3342 C 327.093 0.131357 1.69592 0
M  V30 3343 O 328.278 0.319553 1.91553 0
M  V30 3344 C 325.408 0.97746 3.33261 0
M  V30 3345 C 324.362 2.05682 3.75338 0
M  V30 3346 C 323.688 1.63777 5.09 0
M  V30 3347 C 324.988 3.47254 3.90144 0
M  V30 3348 H 326.682 2.18966 2.04191 0
M  V30 3349 H 324.228 1.05413 0.981029 0
M  V30 3350 H 326.181 0.908513 4.1149 0
M  V30 3351 H 324.905 0.000980011 3.266 0
M  V30 3352 H 323.564 2.11603 2.99366 0
M  V30 3353 H 323.212 0.648569 4.98801 0
M  V30 3354 H 322.912 2.36 5.38124 0
M  V30 3355 H 324.436 1.5833 5.89715 0
M  V30 3356 H 325.85 3.43888 4.58709 0
M  V30 3357 H 324.247 4.1788 4.30693 0
M  V30 3358 H 325.317 3.86462 2.92874 0
M  V30 3359 N 326.66 -1.06551 1.16123 0
M  V30 3360 C 328.076 -1.3142 0.905585 0
M  V30 3361 C 328.276 -1.96571 -0.442964 0
M  V30 3362 O 327.332 -2.23068 -1.18308 0
M  V30 3363 C 328.645 -2.19741 2.05267 0
M  V30 3364 C 330.193 -2.33165 2.08813 0
M  V30 3365 C 330.668 -3.24838 3.22868 0
M  V30 3366 N 332.159 -3.32421 3.22568 0
M  V30 3367 C 332.894 -4.0344 4.0746 0
M  V30 3368 N 332.39 -4.77003 5.02434 0
M  V30 3369 N 334.183 -3.99464 3.95456 0
M  V30 3370 H 326.334 -0.626548 2.02949 0
M  V30 3371 H 328.597 -0.338777 0.8854 0
M  V30 3372 H 328.303 -1.79142 3.02657 0
M  V30 3373 H 328.177 -3.20313 1.99198 0
M  V30 3374 H 330.564 -2.73013 1.12018 0
M  V30 3375 H 330.645 -1.3227 2.18948 0
M  V30 3376 H 330.289 -2.85708 4.19921 0
M  V30 3377 H 330.219 -4.25707 3.0997 0
M  V30 3378 H 332.71 -2.79994 2.53795 0
M  V30 3379 H 333.023 -5.28712 5.63634 0
M  V30 3380 H 331.368 -4.75992 5.06415 0
M  V30 3381 H 334.559 -3.4111 3.20564 0
M  V30 3382 H 334.732 -4.54544 4.61837 0
M  V30 3383 N 328.138 -0.959301 -1.25041 0
M  V30 3384 C 329.384 -0.617525 -1.9317 0
M  V30 3385 C 329.717 0.843981 -1.74902 0
M  V30 3386 O 328.992 1.60615 -1.09696 0
M  V30 3387 C 329.275 -0.982736 -3.46431 0
M  V30 3388 C 329.128 -2.50032 -3.73904 0
M  V30 3389 C 330.447 -0.511176 -4.37121 0
M  V30 3390 H 327.566 -0.22582 -0.701552 0
M  V30 3391 H 330.208 -1.19679 -1.4757 0
M  V30 3392 H 328.358 -0.489806 -3.854 0
M  V30 3393 H 330.03 -3.06737 -3.44544 0
M  V30 3394 H 328.273 -2.93598 -3.19348 0
M  V30 3395 H 328.944 -2.70635 -4.81103 0
M  V30 3396 H 331.42 -0.934075 -4.0548 0
M  V30 3397 H 330.296 -0.795361 -5.43107 0
M  V30 3398 H 330.557 0.588834 -4.38161 0
M  V30 3399 N 329.616 1.39756 -0.72842 0
M  V30 3400 C 330.546 2.33289 -0.0991354 0
M  V30 3401 C 331.527 1.53568 0.731489 0
M  V30 3402 O 332.712 1.81987 0.677807 0
M  V30 3403 C 329.842 3.3763 0.813834 0
M  V30 3404 C 328.796 4.2791 0.0878663 0
M  V30 3405 C 328.122 5.22894 1.11741 0
M  V30 3406 C 329.422 5.11314 -1.06563 0
M  V30 3407 H 331.116 2.86163 -0.880408 0
M  V30 3408 H 328.662 1.37591 -0.424819 0
M  V30 3409 H 330.615 4.0201 1.26355 0
M  V30 3410 H 329.339 2.83181 1.62715 0
M  V30 3411 H 327.998 3.65 -0.342159 0
M  V30 3412 H 327.646 4.64744 1.92412 0
M  V30 3413 H 327.346 5.84143 0.636477 0
M  V30 3414 H 328.87 5.90151 1.56697 0
M  V30 3415 H 330.284 5.69076 -0.694671 0
M  V30 3416 H 328.681 5.81671 -1.47577 0
M  V30 3417 H 329.751 4.46534 -1.89038 0
M  V30 3418 N 331.094 0.475555 1.50254 0
M  V30 3419 C 332.505 0.0215174 1.86688 0
M  V30 3420 C 332.856 -1.38467 1.39001 0
M  V30 3421 O 331.981 -2.02732 0.756894 0
M  V30 3422 C 332.576 0.0322715 3.38785 0
M  V30 3423 C 331.135 -0.366314 3.74613 0
M  V30 3424 C 330.282 0.415832 2.74164 0
M  V30 3425 H 333.233 0.689612 1.42934 0
M  V30 3426 H 333.254 -0.76889 3.7265 0
M  V30 3427 H 332.766 1.05584 3.73462 0
M  V30 3428 H 330.867 -1.39406 3.45538 0
M  V30 3429 H 330.98 -0.064555 4.79057 0
M  V30 3430 H 329.344 -0.131048 2.54363 0
M  V30 3431 H 330.127 1.43899 3.11686 0
M  V30 3432 N 332.573 -1.56217 0.208337 0
M  V30 3433 C 333.821 -1.97558 -0.426076 0
M  V30 3434 C 334.142 -1.09683 -1.61229 0
M  V30 3435 O 333.412 -0.170956 -1.95153 0
M  V30 3436 H 331.992 -0.729575 -0.160405 0
M  V30 3437 H 334.654 -1.92606 0.298155 0
M  V30 3438 H 333.75 -3.02672 -0.761312 0
M  V30 3439 N 334.051 0.0651679 -1.57465 0
M  V30 3440 C 335.001 1.0838 -2.00594 0
M  V30 3441 C 335.985 1.34106 -0.889071 0
M  V30 3442 O 337.177 1.34295 -1.15299 0
M  V30 3443 C 334.306 2.39565 -2.45894 0
M  V30 3444 C 333.392 2.17085 -3.64328 0
M  V30 3445 N 333.783 1.64553 -4.78285 0
M  V30 3446 C 332.081 2.4753 -3.71006 0
M  V30 3447 C 332.782 1.57042 -5.60101 0
M  V30 3448 N 331.758 2.03328 -5.04141 0
M  V30 3449 H 335.56 0.671062 -2.86136 0
M  V30 3450 H 333.074 0.27213 -1.60104 0
M  V30 3451 H 335.071 3.13308 -2.75034 0
M  V30 3452 H 333.731 2.81549 -1.61741 0
M  V30 3453 H 334.742 1.33323 -5.00445 0
M  V30 3454 H 331.419 2.92835 -2.9758 0
M  V30 3455 H 332.809 1.17223 -6.61595 0
M  V30 3456 N 335.529 1.53961 0.336706 0
M  V30 3457 C 336.754 1.75797 1.10046 0
M  V30 3458 C 337.179 0.498985 1.81361 0
M  V30 3459 O 336.537 -0.548769 1.72795 0
M  V30 3460 C 336.585 2.94257 2.08436 0
M  V30 3461 O 335.689 2.64883 3.16087 0
M  V30 3462 H 335.03 0.582936 0.317934 0
M  V30 3463 H 337.56 2.00945 0.38501 0
M  V30 3464 H 337.57 3.21237 2.51537 0
M  V30 3465 H 336.245 3.85564 1.55927 0
M  V30 3466 H 334.822 2.48812 2.77753 0
M  V30 3467 N 337.007 -0.598083 1.45811 0
M  V30 3468 C 337.97 -1.69018 1.54808 0
M  V30 3469 C 338.97 -1.55037 0.426652 0
M  V30 3470 O 340.16 -1.59932 0.690456 0
M  V30 3471 C 337.292 -3.0835 1.45371 0
M  V30 3472 H 338.485 -1.62403 2.52121 0
M  V30 3473 H 336.038 -0.814626 1.33392 0
M  V30 3474 H 336.773 -3.20534 0.492793 0
M  V30 3475 H 336.558 -3.19907 2.26721 0
M  V30 3476 H 338.048 -3.8788 1.54721 0
M  V30 3477 N 338.485 -1.33259 -0.841409 0
M  V30 3478 C 339.733 -1.24326 -1.59334 0
M  V30 3479 C 340.054 0.191564 -1.94057 0
M  V30 3480 O 339.324 1.11967 -1.60749 0
M  V30 3481 H 337.904 -0.457174 -0.590763 0
M  V30 3482 H 340.566 -1.66947 -1.00571 0
M  V30 3483 H 339.662 -1.8352 -2.52442 0
M  V30 3484 N 339.963 1.05934 -1.16686 0
M  V30 3485 C 341.374 1.60263 -0.957745 0
M  V30 3486 C 341.725 1.89789 0.49745 0
M  V30 3487 O 340.85 1.67401 1.37135 0
M  V30 3488 C 341.445 2.91172 -1.73218 0
M  V30 3489 C 340.004 3.42188 -1.56794 0
M  V30 3490 C 339.151 2.16028 -1.73859 0
M  V30 3491 H 342.102 0.888392 -1.31504 0
M  V30 3492 H 342.123 3.60744 -1.21014 0
M  V30 3493 H 341.635 2.6965 -2.79124 0
M  V30 3494 H 339.736 3.68762 -0.533437 0
M  V30 3495 H 339.849 4.17273 -2.35414 0
M  V30 3496 H 338.213 2.26426 -1.16633 0
M  V30 3497 H 338.996 1.96985 -2.81161 0
M  V30 3498 N 341.441 0.965919 1.2453 0
M  V30 3499 C 342.857 0.67216 1.44756 0
M  V30 3500 C 343.057 -0.766609 1.86347 0
M  V30 3501 O 342.113 -1.5407 2.00047 0
M  V30 3502 C 343.426 1.65473 2.51076 0
M  V30 3503 C 344.974 1.66716 2.64905 0
M  V30 3504 C 345.449 2.63766 3.74421 0
M  V30 3505 N 346.94 2.62198 3.81846 0
M  V30 3506 C 347.675 3.33966 4.66106 0
M  V30 3507 N 347.171 4.15245 5.54566 0
M  V30 3508 N 348.964 3.22799 4.60171 0
M  V30 3509 H 341.115 1.89553 0.958293 0
M  V30 3510 H 343.378 0.815979 0.482579 0
M  V30 3511 H 343.084 2.68296 2.27399 0
M  V30 3512 H 342.958 1.4261 3.49202 0
M  V30 3513 H 345.345 0.646057 2.87941 0
M  V30 3514 H 345.426 1.93642 1.67142 0
M  V30 3515 H 345.07 3.6601 3.52135 0
M  V30 3516 H 345 2.34121 4.71694 0
M  V30 3517 H 347.491 2.032 3.18619 0
M  V30 3518 H 347.804 4.66898 6.15814 0
M  V30 3519 H 346.149 4.1934 5.54237 0
M  V30 3520 H 349.34 2.58764 3.90075 0
M  V30 3521 H 349.513 3.78994 5.25612 0
M  V30 3522 N 342.919 -1.39368 0.735821 0
M  V30 3523 C 344.147 -2.04795 0.294393 0
M  V30 3524 C 344.562 -1.55478 -1.07107 0
M  V30 3525 O 343.919 -0.720038 -1.67695 0
M  V30 3526 C 343.97 -3.6035 0.288071 0
M  V30 3527 O 343.691 -4.07852 1.59963 0
M  V30 3528 C 345.192 -4.42976 -0.169422 0
M  V30 3529 H 342.412 -0.658571 0.128551 0
M  V30 3530 H 344.956 -1.78399 0.999701 0
M  V30 3531 H 343.111 -3.85645 -0.368355 0
M  V30 3532 H 343.525 -5.02181 1.51375 0
M  V30 3533 H 344.999 -5.51864 -0.122687 0
M  V30 3534 H 345.476 -4.22068 -1.21472 0
M  V30 3535 H 346.082 -4.22832 0.457469 0
M  V30 3536 N 344.397 -0.483516 -1.5 0
M  V30 3537 C 345.643 0.0672592 -2.02688 0
M  V30 3538 C 345.976 1.38247 -1.36387 0
M  V30 3539 O 345.251 1.88131 -0.493675 0
M  V30 3540 C 345.534 0.238109 -3.59312 0
M  V30 3541 C 345.387 -1.099 -4.36168 0
M  V30 3542 C 346.706 0.986916 -4.28892 0
M  V30 3543 H 343.825 0.0229696 -0.736642 0
M  V30 3544 H 346.467 -0.631527 -1.79197 0
M  V30 3545 H 344.617 0.8333 -3.79458 0
M  V30 3546 H 346.289 -1.73172 -4.27562 0
M  V30 3547 H 344.532 -1.69261 -3.99416 0
M  V30 3548 H 345.203 -0.932954 -5.44059 0
M  V30 3549 H 347.679 0.482302 -4.13295 0
M  V30 3550 H 346.555 1.07527 -5.38265 0
M  V30 3551 H 346.816 2.0265 -3.92919 0
M  V30 3552 N 345.875 1.56104 -0.216619 0
M  V30 3553 C 347.103 2.02563 0.421413 0
M  V30 3554 C 347.518 1.0965 1.53695 0
M  V30 3555 O 346.875 0.10521 1.82196 0
M  V30 3556 C 346.926 3.48584 0.957665 0
M  V30 3557 O 346.647 4.37953 -0.113389 0
M  V30 3558 C 348.148 4.10664 1.66943 0
M  V30 3559 H 345.368 0.662944 0.103665 0
M  V30 3560 H 347.912 2.01793 -0.331629 0
M  V30 3561 H 346.067 3.49985 1.661 0
M  V30 3562 H 346.481 5.23704 0.288932 0
M  V30 3563 H 347.955 5.14622 1.99671 0
M  V30 3564 H 348.432 3.55373 2.58083 0
M  V30 3565 H 349.038 4.13098 1.01142 0
M  V30 3566 N 347.353 -0.0568162 1.57498 0
M  V30 3567 C 348.599 -0.75422 1.88253 0
M  V30 3568 C 348.932 -1.76461 0.810865 0
M  V30 3569 O 348.207 -1.93691 -0.177259 0
M  V30 3570 C 348.49 -1.44878 3.2967 0
M  V30 3571 C 348.343 -0.453789 4.47505 0
M  V30 3572 C 349.662 -2.38994 3.69554 0
M  V30 3573 H 346.781 -0.272724 0.684683 0
M  V30 3574 H 349.423 -0.0172113 1.89992 0
M  V30 3575 H 347.573 -2.077 3.28318 0
M  V30 3576 H 349.245 0.170371 4.60985 0
M  V30 3577 H 347.488 0.229552 4.33192 0
M  V30 3578 H 348.159 -0.977699 5.43273 0
M  V30 3579 H 350.635 -1.86239 3.72095 0
M  V30 3580 H 349.511 -2.84587 4.69363 0
M  V30 3581 H 349.772 -3.24461 3.00296 0
M  V30 3582 N 348.832 -1.54138 -0.328536 0
M  V30 3583 C 349.779 -1.83176 -1.40411 0
M  V30 3584 C 350.749 -0.678494 -1.5161 0
M  V30 3585 O 351.934 -0.92443 -1.6691 0
M  V30 3586 C 349.074 -2.06035 -2.76846 0
M  V30 3587 C 348.187 -3.33727 -2.74318 0
M  V30 3588 C 347.322 -3.46574 -4.02567 0
M  V30 3589 C 346.361 -4.68159 -3.94327 0
M  V30 3590 N 345.498 -4.77959 -5.14296 0
M  V30 3591 H 350.338 -2.74938 -1.14948 0
M  V30 3592 H 347.875 -1.36166 -0.556538 0
M  V30 3593 H 349.833 -2.1728 -3.56153 0
M  V30 3594 H 348.463 -1.1757 -3.00628 0
M  V30 3595 H 347.515 -3.31246 -1.8703 0
M  V30 3596 H 348.827 -4.23139 -2.64111 0
M  V30 3597 H 347.981 -3.57333 -4.90304 0
M  V30 3598 H 346.72 -2.55245 -4.15574 0
M  V30 3599 H 345.725 -4.57461 -3.04974 0
M  V30 3600 H 346.95 -5.60868 -3.82889 0
M  V30 3601 H 344.896 -3.89544 -5.27818 0
M  V30 3602 H 344.813 -5.6133 -5.06404 0
M  V30 3603 H 346.081 -4.93044 -6.03761 0
M  V30 3604 N 350.31 0.590341 -1.46126 0
M  V30 3605 C 351.556 1.35082 -1.51264 0
M  V30 3606 C 351.889 1.93534 -0.160711 0
M  V30 3607 O 351.164 1.76045 0.826956 0
M  V30 3608 C 351.447 2.48588 -2.6053 0
M  V30 3609 C 351.3 1.95221 -4.05227 0
M  V30 3610 C 352.619 3.50662 -2.6594 0
M  V30 3611 H 349.738 0.489803 -0.550692 0
M  V30 3612 H 352.38 0.663887 -1.78024 0
M  V30 3613 H 350.53 3.07186 -2.37843 0
M  V30 3614 H 352.202 1.41139 -4.39178 0
M  V30 3615 H 350.445 1.26101 -4.15068 0
M  V30 3616 H 351.116 2.77121 -4.77397 0
M  V30 3617 H 353.592 3.01934 -2.86313 0
M  V30 3618 H 352.468 4.27551 -3.44226 0
M  V30 3619 H 352.729 4.07399 -1.71694 0
M  V30 3620 N 351.788 1.33704 0.83433 0
M  V30 3621 C 352.698 1.26382 1.97648 0
M  V30 3622 C 353.714 0.173548 1.73132 0
M  V30 3623 O 354.89 0.397962 1.97429 0
M  V30 3624 C 351.955 1.00769 3.31733 0
M  V30 3625 C 351.016 2.1884 3.69334 0
M  V30 3626 C 350.249 1.9444 4.9702 0
M  V30 3627 O 350.472 0.896961 5.63303 0
M  V30 3628 O 349.406 2.81093 5.32231 0
M  V30 3629 H 353.232 2.22444 2.06767 0
M  V30 3630 H 350.817 1.13795 0.968037 0
M  V30 3631 H 352.699 0.882186 4.12062 0
M  V30 3632 H 351.374 0.0773783 3.23608 0
M  V30 3633 H 350.281 2.36946 2.89495 0
M  V30 3634 H 351.614 3.10221 3.82131 0
M  V30 3635 N 353.266 -1.05314 1.17247 0
M  V30 3636 C 354.196 -2.1498 0.911362 0
M  V30 3637 C 355.177 -1.69471 -0.146169 0
M  V30 3638 O 356.362 -1.942 0.003812 0
M  V30 3639 C 353.492 -3.4472 0.422528 0
M  V30 3640 C 352.446 -4.03789 1.4191 0
M  V30 3641 C 351.772 -5.28858 0.788274 0
M  V30 3642 C 353.072 -4.41418 2.7919 0
M  V30 3643 H 354.766 -2.3708 1.82848 0
M  V30 3644 H 352.312 -1.13938 0.880569 0
M  V30 3645 H 354.265 -4.20787 0.227289 0
M  V30 3646 H 352.989 -3.22269 -0.530123 0
M  V30 3647 H 351.648 -3.2979 1.60106 0
M  V30 3648 H 351.296 -5.02709 -0.171173 0
M  V30 3649 H 350.996 -5.69338 1.45353 0
M  V30 3650 H 352.52 -6.07612 0.603282 0
M  V30 3651 H 353.934 -5.08524 2.64719 0
M  V30 3652 H 352.331 -4.92913 3.42282 0
M  V30 3653 H 353.401 -3.51819 3.33693 0
M  V30 3654 N 354.744 -0.972509 -1.24016 0
M  V30 3655 C 355.969 -0.654417 -1.96805 0
M  V30 3656 C 356.394 0.770398 -1.716 0
M  V30 3657 O 355.752 1.52361 -0.982647 0
M  V30 3658 C 355.8 -0.941031 -3.48105 0
M  V30 3659 O 354.904 -0.0289472 -4.1239 0
M  V30 3660 H 354.245 -0.24692 -0.616382 0
M  V30 3661 H 356.775 -1.30396 -1.57664 0
M  V30 3662 H 356.785 -0.87452 -3.98517 0
M  V30 3663 H 355.46 -1.97939 -3.65777 0
M  V30 3664 H 354.037 -0.149192 -3.72601 0
M  V30 3665 N 356.222 1.38976 -0.743202 0
M  V30 3666 C 357.462 2.02193 -0.29954 0
M  V30 3667 C 357.826 1.5771 1.09506 0
M  V30 3668 O 359.027 2.13184 1.63726 0
M  V30 3669 C 357.298 3.55077 -0.406822 0
M  V30 3670 S 358.857 4.38778 -0.0442109 0
M  V30 3671 H 355.675 0.701335 -0.116836 0
M  V30 3672 H 358.277 1.69651 -0.971529 0
M  V30 3673 H 356.981 3.84942 -1.42295 0
M  V30 3674 H 356.512 3.92383 0.282707 0
M  V30 3675 H 358.527 4.82222 1.16947 0
M  V30 3676 N 357.7 0.491464 1.49741 0
M  V30 3677 C 358.663 -0.280906 2.27472 0
M  V30 3678 C 359.663 -0.902454 1.33088 0
M  V30 3679 O 360.853 -0.768465 1.56334 0
M  V30 3680 C 357.985 -1.40209 3.10732 0
M  V30 3681 H 359.178 0.401056 2.97206 0
M  V30 3682 H 356.731 0.246131 1.5435 0
M  V30 3683 H 357.466 -2.11849 2.45541 0
M  V30 3684 H 357.251 -0.961969 3.80117 0
M  V30 3685 H 358.741 -1.9464 3.69466 0
M  V30 3686 N 359.178 -1.55987 0.224894 0
M  V30 3687 C 360.589 -1.84553 -0.282345 0
M  V30 3688 C 360.94 -1.14634 -1.59227 0
M  V30 3689 O 360.065 -0.417155 -2.12341 0
M  V30 3690 C 360.66 -3.348 -0.519062 0
M  V30 3691 C 359.219 -3.63671 -0.970604 0
M  V30 3692 C 358.366 -2.77277 -0.0355261 0
M  V30 3693 H 361.317 -1.52245 0.448006 0
M  V30 3694 H 361.338 -3.55187 -1.36463 0
M  V30 3695 H 360.85 -3.8566 0.43449 0
M  V30 3696 H 358.951 -3.1827 -1.9374 0
M  V30 3697 H 359.064 -4.71631 -0.842698 0
M  V30 3698 H 357.428 -2.48846 -0.542927 0
M  V30 3699 H 358.211 -3.30937 0.913003 0
M  V30 3700 N 360.656 0.0484629 -1.57525 0
M  V30 3701 C 361.904 0.741657 -1.88 0
M  V30 3702 C 362.225 1.76918 -0.820054 0
M  V30 3703 O 361.495 1.95335 0.148661 0
M  V30 3704 H 360.075 0.276908 -0.69378 0
M  V30 3705 H 362.737 0.019013 -1.94891 0
M  V30 3706 H 361.833 1.24336 -2.86264 0
M  V30 3707 N 362.134 1.5431 0.320358 0
M  V30 3708 C 363.411 1.63322 1.07635 0
M  V30 3709 C 363.791 0.46912 2.05821 0
M  V30 3710 O 363.139 -0.536274 2.22118 0
M  V30 3711 C 363.349 3.00465 1.77544 0
M  V30 3712 C 364.697 3.56621 2.30449 0
M  V30 3713 O 365.721 3.02791 1.87606 0
M  V30 3714 O 364.58 4.5083 3.08892 0
M  V30 3715 H 361.674 0.661502 0.496331 0
M  V30 3716 H 364.22 1.66656 0.319992 0
M  V30 3717 H 362.992 3.76629 1.06143 0
M  V30 3718 H 362.615 3.00824 2.59982 0
M  V30 3719 N 363.613 -0.582584 1.46437 0
M  V30 3720 C 364.543 -1.70187 1.59871 0
M  V30 3721 C 365.524 -1.64066 0.449042 0
M  V30 3722 O 366.709 -1.82081 0.6753 0
M  V30 3723 C 363.839 -3.08827 1.58881 0
M  V30 3724 C 362.793 -3.29779 2.72819 0
M  V30 3725 C 362.119 -4.68947 2.5689 0
M  V30 3726 C 363.419 -3.17601 4.1464 0
M  V30 3727 H 365.113 -1.592 2.53566 0
M  V30 3728 H 362.659 -0.764472 1.22032 0
M  V30 3729 H 364.612 -3.86951 1.66873 0
M  V30 3730 H 363.336 -3.20713 0.617306 0
M  V30 3731 H 361.995 -2.54054 2.64296 0
M  V30 3732 H 361.643 -4.77599 1.57823 0
M  V30 3733 H 361.343 -4.83919 3.33312 0
M  V30 3734 H 362.867 -5.4924 2.66773 0
M  V30 3735 H 364.281 -3.8557 4.24274 0
M  V30 3736 H 362.678 -3.44094 4.9165 0
M  V30 3737 H 363.748 -2.14681 4.34788 0
M  V30 3738 N 365.091 -1.34144 -0.827227 0
M  V30 3739 C 366.368 -1.16844 -1.56865 0
M  V30 3740 C 366.748 0.260654 -2.09485 0
M  V30 3741 O 366.096 1.26138 -1.9053 0
M  V30 3742 C 366.306 -2.21939 -2.6934 0
M  V30 3743 C 367.654 -2.56695 -3.3822 0
M  V30 3744 O 368.678 -2.20695 -2.79593 0
M  V30 3745 O 367.537 -3.18518 -4.44082 0
M  V30 3746 H 364.631 -0.452669 -0.692112 0
M  V30 3747 H 367.177 -1.45763 -0.868973 0
M  V30 3748 H 365.949 -3.17882 -2.28182 0
M  V30 3749 H 365.572 -1.94172 -3.46962 0
M  V30 3750 N 366.569 1.04691 -1.17803 0
M  V30 3751 C 367.532 2.10724 -0.901545 0
M  V30 3752 C 368.532 1.6042 0.110437 0
M  V30 3753 O 369.722 1.7377 -0.122303 0
M  V30 3754 C 366.854 3.39084 -0.351409 0
M  V30 3755 H 368.047 2.36686 -1.84174 0
M  V30 3756 H 365.6 1.21015 -0.98919 0
M  V30 3757 H 366.335 3.18782 0.59569 0
M  V30 3758 H 366.12 3.76909 -1.08083 0
M  V30 3759 H 367.61 4.17227 -0.176451 0
M  V30 3760 N 368.047 0.979072 1.23499 0
M  V30 3761 C 369.293 0.648178 1.92163 0
M  V30 3762 C 369.626 -0.816049 1.76222 0
M  V30 3763 O 368.901 -1.58849 1.12237 0
M  V30 3764 C 369.184 1.03773 3.44824 0
M  V30 3765 C 369.037 2.55948 3.69879 0
M  V30 3766 C 370.356 0.580653 4.36253 0
M  V30 3767 H 367.475 0.236952 0.69787 0
M  V30 3768 H 370.117 1.22012 1.45647 0
M  V30 3769 H 368.267 0.551058 3.84572 0
M  V30 3770 H 369.939 3.12179 3.3962 0
M  V30 3771 H 368.182 2.98641 3.14636 0
M  V30 3772 H 368.853 2.78255 4.76737 0
M  V30 3773 H 371.329 0.998465 4.03943 0
M  V30 3774 H 370.205 0.881663 5.41773 0
M  V30 3775 H 370.466 -0.519052 4.39042 0
M  V30 3776 N 369.525 -1.3858 0.750561 0
M  V30 3777 C 370.455 -2.33102 0.136237 0
M  V30 3778 C 371.436 -1.54713 -0.706965 0
M  V30 3779 O 372.621 -1.83043 -0.648769 0
M  V30 3780 C 369.751 -3.38882 -0.760017 0
M  V30 3781 C 368.705 -4.27995 -0.0197785 0
M  V30 3782 C 368.031 -5.24605 -1.03408 0
M  V30 3783 C 369.331 -5.09554 1.14684 0
M  V30 3784 H 371.025 -2.84726 0.925822 0
M  V30 3785 H 368.571 -1.36898 0.446654 0
M  V30 3786 H 370.524 -4.0397 -1.19943 0
M  V30 3787 H 369.248 -2.85734 -1.58189 0
M  V30 3788 H 367.907 -3.64409 0.400184 0
M  V30 3789 H 367.555 -4.67746 -1.84994 0
M  V30 3790 H 367.255 -5.85081 -0.543464 0
M  V30 3791 H 368.779 -5.9257 -1.47288 0
M  V30 3792 H 370.193 -5.67899 0.785118 0
M  V30 3793 H 368.59 -5.7925 1.56812 0
M  V30 3794 H 369.66 -4.4347 1.96118 0
M  V30 3795 N 371.003 -0.499398 -1.49478 0
M  V30 3796 C 372.252 0.0475259 -2.01644 0
M  V30 3797 C 372.565 1.38195 -1.38425 0
M  V30 3798 O 373.771 2.01547 -1.8191 0
M  V30 3799 C 372.227 0.135164 -3.59646 0
M  V30 3800 C 371.835 -1.19252 -4.31837 0
M  V30 3801 C 373.579 0.632538 -4.19761 0
M  V30 3802 C 371.486 -1.06713 -5.81693 0
M  V30 3803 H 370.416 0.0215349 -0.753692 0
M  V30 3804 H 373.067 -0.638577 -1.7203 0
M  V30 3805 H 371.449 0.885681 -3.85969 0
M  V30 3806 H 372.623 -1.9562 -4.17216 0
M  V30 3807 H 370.938 -1.62321 -3.83459 0
M  V30 3808 H 373.535 0.743833 -5.29501 0
M  V30 3809 H 373.878 1.63098 -3.83021 0
M  V30 3810 H 374.411 -0.0613987 -3.97753 0
M  V30 3811 H 371.15 -2.03979 -6.22955 0
M  V30 3812 H 370.67 -0.344307 -5.98811 0
M  V30 3813 H 372.349 -0.745208 -6.42694 0
M  V30 3814 N 372.481 1.55866 -0.233164 0
M  V30 3815 C 373.411 2.23783 0.666599 0
M  V30 3816 C 374.392 1.21343 1.19205 0
M  V30 3817 O 375.577 1.4996 1.23392 0
M  V30 3818 C 372.707 2.92671 1.86978 0
M  V30 3819 C 371.661 4.01682 1.47768 0
M  V30 3820 C 370.987 4.57926 2.76058 0
M  V30 3821 C 372.287 5.18126 0.658993 0
M  V30 3822 H 373.981 2.99232 0.100306 0
M  V30 3823 H 371.527 1.43924 0.046804 0
M  V30 3824 H 373.48 3.3888 2.50476 0
M  V30 3825 H 372.204 2.14688 2.46123 0
M  V30 3826 H 370.863 3.56222 0.866106 0
M  V30 3827 H 370.511 3.76659 3.33372 0
M  V30 3828 H 370.211 5.31505 2.50552 0
M  V30 3829 H 371.735 5.06859 3.40479 0
M  V30 3830 H 373.149 5.60644 1.19795 0
M  V30 3831 H 371.546 5.98009 0.500552 0
M  V30 3832 H 372.616 4.83763 -0.331856 0
M  V30 3833 N 373.959 -0.0401083 1.57549 0
M  V30 3834 C 374.891 -1.07149 2.02612 0
M  V30 3835 C 375.904 -1.33126 0.937085 0
M  V30 3836 O 377.093 -1.30808 1.21456 0
M  V30 3837 C 374.193 -2.41561 2.37701 0
M  V30 3838 C 373.366 -2.35096 3.68848 0
M  V30 3839 C 372.425 -3.51867 3.91249 0
M  V30 3840 O 371.451 -3.3186 4.62447 0
M  V30 3841 N 372.653 -4.73351 3.36035 0
M  V30 3842 H 375.418 -0.687485 2.91708 0
M  V30 3843 H 372.979 -0.228248 1.60283 0
M  V30 3844 H 374.971 -3.18379 2.49833 0
M  V30 3845 H 373.541 -2.71846 1.54332 0
M  V30 3846 H 372.761 -1.4345 3.67173 0
M  V30 3847 H 374.049 -2.27908 4.54901 0
M  V30 3848 H 373.447 -4.92507 2.78304 0
M  V30 3849 H 372.004 -5.47572 3.53565 0
M  V30 3850 N 375.437 -1.54477 -0.31217 0
M  V30 3851 C 376.685 -1.72884 -1.04668 0
M  V30 3852 C 377.006 -0.511477 -1.88173 0
M  V30 3853 O 376.276 0.474407 -1.90069 0
M  V30 3854 H 374.856 -0.637461 -0.389425 0
M  V30 3855 H 377.518 -1.91807 -0.345852 0
M  V30 3856 H 376.614 -2.61334 -1.70619 0
M  V30 3857 N 376.915 0.57481 -1.46744 0
M  V30 3858 C 378.326 1.15695 -1.46532 0
M  V30 3859 C 378.677 1.95068 -0.210425 0
M  V30 3860 O 377.802 2.05241 0.685944 0
M  V30 3861 C 378.397 2.1048 -2.65487 0
M  V30 3862 C 376.956 2.64002 -2.68291 0
M  V30 3863 C 376.103 1.40026 -2.39349 0
M  V30 3864 H 379.054 0.362325 -1.54509 0
M  V30 3865 H 379.075 2.94074 -2.41455 0
M  V30 3866 H 378.587 1.52683 -3.56805 0
M  V30 3867 H 376.688 3.25646 -1.81067 0
M  V30 3868 H 376.801 3.06197 -3.68483 0
M  V30 3869 H 375.165 1.70106 -1.89568 0
M  V30 3870 H 375.948 0.840485 -3.32852 0
M  V30 3871 N 378.394 1.34581 0.820102 0
M  V30 3872 C 379.805 1.24298 1.39309 0
M  V30 3873 C 380.156 -0.130351 1.95767 0
M  V30 3874 O 379.281 -1.0308 1.90272 0
M  V30 3875 C 379.876 2.25054 2.53251 0
M  V30 3876 C 378.435 2.18552 3.0645 0
M  V30 3877 C 377.582 2.11503 1.79337 0
M  V30 3878 H 380.533 1.45906 0.624262 0
M  V30 3879 H 380.554 1.86917 3.31425 0
M  V30 3880 H 380.066 3.24996 2.1213 0
M  V30 3881 H 378.167 1.21976 3.52069 0
M  V30 3882 H 378.28 3.0993 3.65349 0
M  V30 3883 H 376.644 1.57268 2.00347 0
M  V30 3884 H 377.427 3.13284 1.40386 0
M  V30 3885 N 379.872 -1.04064 1.18357 0
M  V30 3886 C 381.102 -1.80654 1.00238 0
M  V30 3887 C 381.51 -1.83713 -0.452362 0
M  V30 3888 O 380.853 -1.27135 -1.32599 0
M  V30 3889 C 380.915 -3.27582 1.48088 0
M  V30 3890 C 380.579 -3.48184 2.96002 0
M  V30 3891 C 381.576 -3.39372 3.93856 0
M  V30 3892 C 379.261 -3.7478 3.34433 0
M  V30 3893 C 381.255 -3.5686 5.28138 0
M  V30 3894 C 378.942 -3.91915 4.68877 0
M  V30 3895 C 379.94 -3.82956 5.65539 0
M  V30 3896 O 379.628 -3.996 6.97549 0
M  V30 3897 H 379.36 -0.575751 0.354241 0
M  V30 3898 H 381.914 -1.32044 1.57333 0
M  V30 3899 H 380.144 -3.77161 0.853588 0
M  V30 3900 H 381.833 -3.8573 1.2636 0
M  V30 3901 H 382.599 -3.18789 3.65511 0
M  V30 3902 H 378.478 -3.80852 2.59756 0
M  V30 3903 H 382.022 -3.49783 6.03571 0
M  V30 3904 H 377.919 -4.11992 4.96923 0
M  V30 3905 H 378.687 -4.1676 7.04452 0
M  V30 3906 N 381.35 -0.985608 -1.22978 0
M  V30 3907 C 382.596 -0.65836 -1.91816 0
M  V30 3908 C 382.929 0.806692 -1.76653 0
M  V30 3909 O 382.204 1.58252 -1.13078 0
M  V30 3910 C 382.487 -1.056 -3.44268 0
M  V30 3911 C 382.34 -2.57906 -3.68516 0
M  V30 3912 C 383.659 -0.603781 -4.35939 0
M  V30 3913 H 380.778 -0.24065 -0.696604 0
M  V30 3914 H 383.42 -1.22783 -1.44998 0
M  V30 3915 H 381.57 -0.571445 -3.84274 0
M  V30 3916 H 383.242 -3.13976 -3.3796 0
M  V30 3917 H 381.485 -3.00305 -3.13048 0
M  V30 3918 H 382.156 -2.80779 -4.75255 0
M  V30 3919 H 384.632 -1.01987 -4.03408 0
M  V30 3920 H 383.508 -0.910383 -5.41298 0
M  V30 3921 H 383.769 0.495761 -4.39312 0
M  V30 3922 N 382.828 1.3818 -0.7579 0
M  V30 3923 C 384.053 2.04827 -0.325679 0
M  V30 3924 C 384.478 1.56788 1.03919 0
M  V30 3925 O 383.836 0.721811 1.66312 0
M  V30 3926 C 383.884 3.58774 -0.362447 0
M  V30 3927 O 382.988 4.07372 0.642033 0
M  V30 3928 H 382.329 0.64833 -0.143402 0
M  V30 3929 H 384.859 1.7677 -1.03023 0
M  V30 3930 H 384.869 4.07434 -0.214844 0
M  V30 3931 H 383.544 3.93096 -1.35824 0
M  V30 3932 H 382.121 3.70068 0.458688 0
M  V30 3933 N 384.306 0.507319 1.49211 0
M  V30 3934 C 385.552 -0.0269732 2.03382 0
M  V30 3935 C 385.907 -1.34111 1.37957 0
M  V30 3936 O 385.2 -1.84733 0.508351 0
M  V30 3937 C 385.394 -0.229513 3.56662 0
M  V30 3938 C 385.223 1.06344 4.36945 0
M  V30 3939 C 383.993 1.617 4.78729 0
M  V30 3940 C 386.191 1.96833 4.75143 0
M  V30 3941 N 384.173 2.8552 5.43463 0
M  V30 3942 C 385.544 3.0523 5.39661 0
M  V30 3943 C 387.599 1.97434 4.57082 0
M  V30 3944 C 386.302 4.14265 5.88028 0
M  V30 3945 C 388.328 3.05448 5.06414 0
M  V30 3946 C 387.69 4.12564 5.70938 0
M  V30 3947 H 383.789 0.0310673 0.781383 0
M  V30 3948 H 386.373 0.683579 1.82305 0
M  V30 3949 H 384.544 -0.909127 3.7761 0
M  V30 3950 H 386.276 -0.761377 3.97473 0
M  V30 3951 H 383.031 1.16132 4.59141 0
M  V30 3952 H 383.455 3.48499 5.80412 0
M  V30 3953 H 388.097 1.15924 4.06597 0
M  V30 3954 H 385.815 4.96569 6.3753 0
M  V30 3955 H 389.401 3.06941 4.94246 0
M  V30 3956 H 388.281 4.94767 6.0842 0
M  V30 3957 N 385.784 -1.5574 0.241426 0
M  V30 3958 C 386.714 -2.24133 -0.654722 0
M  V30 3959 C 387.695 -1.21974 -1.1856 0
M  V30 3960 O 388.88 -1.50612 -1.22595 0
M  V30 3961 C 386.01 -2.93659 -1.85423 0
M  V30 3962 C 384.964 -4.0246 -1.45636 0
M  V30 3963 C 384.29 -4.59383 -2.73626 0
M  V30 3964 C 385.59 -5.18468 -0.631506 0
M  V30 3965 H 387.284 -2.99281 -0.0844353 0
M  V30 3966 H 384.83 -1.43947 -0.0391707 0
M  V30 3967 H 386.783 -3.40203 -2.48676 0
M  V30 3968 H 385.507 -2.15991 -2.44981 0
M  V30 3969 H 384.166 -3.56676 -0.847202 0
M  V30 3970 H 383.814 -3.78422 -3.3137 0
M  V30 3971 H 383.514 -5.32826 -2.4773 0
M  V30 3972 H 385.038 -5.08658 -3.37786 0
M  V30 3973 H 386.452 -5.61272 -1.1682 0
M  V30 3974 H 384.849 -5.98266 -0.468831 0
M  V30 3975 H 385.919 -4.8358 0.357506 0
M  V30 3976 N 387.262 0.0317525 -1.57568 0
M  V30 3977 C 388.511 0.722131 -1.8833 0
M  V30 3978 C 388.824 1.76664 -0.839587 0
M  V30 3979 O 390.03 2.50942 -1.03635 0
M  V30 3980 C 388.486 1.33544 -3.34207 0
M  V30 3981 C 388.094 0.327415 -4.46802 0
M  V30 3982 C 389.838 2.00585 -3.7412 0
M  V30 3983 C 387.745 0.948915 -5.83738 0
M  V30 3984 H 386.675 0.273466 -0.702661 0
M  V30 3985 H 389.326 -0.0235811 -1.83485 0
M  V30 3986 H 387.708 2.13077 -3.33788 0
M  V30 3987 H 388.882 -0.441006 -4.58685 0
M  V30 3988 H 387.197 -0.240758 -4.15703 0
M  V30 3989 H 389.794 2.47932 -4.73744 0
M  V30 3990 H 390.137 2.82285 -3.05975 0
M  V30 3991 H 390.67 1.27831 -3.76702 0
M  V30 3992 H 387.409 0.171387 -6.55276 0
M  V30 3993 H 386.929 1.68724 -5.7558 0
M  V30 3994 H 388.608 1.45705 -6.3038 0
M  V30 3995 N 388.74 1.54641 0.303973 0
M  V30 3996 C 390.017 1.64455 1.05896 0
M  V30 3997 C 390.397 0.490923 2.05312 0
M  V30 3998 O 389.745 -0.512685 2.22674 0
M  V30 3999 C 389.955 3.02331 1.74347 0
M  V30 4000 C 391.303 3.59045 2.26653 0
M  V30 4001 O 392.327 3.04764 1.84384 0
M  V30 4002 O 391.186 4.54081 3.04093 0
M  V30 4003 H 388.28 0.666729 0.489287 0
M  V30 4004 H 390.826 1.66986 0.302298 0
M  V30 4005 H 389.598 3.77734 1.02142 0
M  V30 4006 H 389.221 3.03565 2.56777 0
M  V30 4007 N 390.218 -0.567019 1.47046 0
M  V30 4008 C 391.181 -1.65696 1.58359 0
M  V30 4009 C 392.181 -1.54097 0.459441 0
M  V30 4010 O 393.371 -1.58432 0.724225 0
M  V30 4011 C 390.503 -3.05197 1.51879 0
M  V30 4012 H 391.696 -1.57019 2.5551 0
M  V30 4013 H 389.249 -0.786148 1.3509 0
M  V30 4014 H 389.984 -3.19417 0.560673 0
M  V30 4015 H 389.769 -3.15025 2.33455 0
M  V30 4016 H 391.259 -3.84511 1.62913 0
M  V30 4017 N 391.696 -1.35014 -0.812953 0
M  V30 4018 C 392.644 -1.27435 -1.94585 0
M  V30 4019 C 393.638 -0.170494 -1.6854 0
M  V30 4020 O 394.844 -0.336085 -1.76835 0
M  V30 4021 H 391.219 -0.396144 -0.639198 0
M  V30 4022 H 393.19 -2.23158 -1.98098 0
M  V30 4023 C 391.939 -1.05677 -3.31252 0
M  V30 4024 H 391.262 -1.89853 -3.51846 0
M  V30 4025 H 392.702 -1.04413 -4.10943 0
M  V30 4026 C 391.161 0.239615 -3.36047 0
M  V30 4027 O 391.691 1.23759 -3.8216 0
M  V30 4028 N 389.897 0.276186 -2.89285 0
M  V30 4029 H 389.444 -0.53653 -2.51951 0
M  V30 4030 H 389.402 1.14332 -2.92875 0
M  V30 4031 N 393.175 1.03435 -1.18907 0
M  V30 4032 C 394.125 2.09924 -0.889706 0
M  V30 4033 C 395.109 1.60261 0.143216 0
M  V30 4034 O 396.301 1.76892 -0.0617122 0
M  V30 4035 C 393.43 3.40669 -0.424168 0
M  V30 4036 C 392.516 3.97082 -1.48952 0
M  V30 4037 N 392.907 4.27227 -2.70759 0
M  V30 4038 C 391.205 4.25029 -1.35152 0
M  V30 4039 C 391.906 4.7246 -3.39347 0
M  V30 4040 N 390.882 4.7366 -2.66735 0
M  V30 4041 H 394.684 2.31116 -1.81555 0
M  V30 4042 H 392.198 1.21246 -1.08042 0
M  V30 4043 H 394.195 4.16461 -0.191176 0
M  V30 4044 H 392.855 3.20901 0.495263 0
M  V30 4045 H 393.866 4.16678 -3.0757 0
M  V30 4046 H 390.543 4.14554 -0.495126 0
M  V30 4047 H 391.933 5.04751 -4.43481 0
M  V30 4048 N 394.653 0.992116 1.22453 0
M  V30 4049 C 395.601 0.534644 2.26372 0
M  V30 4050 C 396.595 -0.414293 1.64256 0
M  V30 4051 O 397.801 -0.286899 1.77699 0
M  V30 4052 H 394.176 0.154502 0.735957 0
M  V30 4053 H 396.147 1.42256 2.62309 0
M  V30 4054 C 394.896 -0.135815 3.47435 0
M  V30 4055 H 394.219 0.585311 3.95492 0
M  V30 4056 H 395.659 -0.419374 4.21921 0
M  V30 4057 C 394.118 -1.37089 3.07747 0
M  V30 4058 O 394.648 -2.46629 3.17076 0
M  V30 4059 N 392.854 -1.24585 2.62539 0
M  V30 4060 H 392.401 -0.354542 2.55149 0
M  V30 4061 H 392.359 -2.07327 2.36353 0
M  V30 4062 N 396.131 -1.37776 0.765217 0
M  V30 4063 C 397.064 -2.28008 0.0935025 0
M  V30 4064 C 398.042 -1.45985 -0.716047 0
M  V30 4065 O 399.226 -1.75331 -0.692203 0
M  V30 4066 C 396.353 -3.27228 -0.874052 0
M  V30 4067 C 395.399 -4.26239 -0.149307 0
M  V30 4068 S 396.232 -5.22827 1.15809 0
M  V30 4069 C 397.388 -6.256 0.193906 0
M  V30 4070 H 397.621 -2.84631 0.858637 0
M  V30 4071 H 395.154 -1.43952 0.558313 0
M  V30 4072 H 397.112 -3.84902 -1.42691 0
M  V30 4073 H 395.773 -2.69565 -1.61225 0
M  V30 4074 H 394.966 -4.96213 -0.88254 0
M  V30 4075 H 394.568 -3.7252 0.332366 0
M  V30 4076 H 396.86 -6.74508 -0.636011 0
M  V30 4077 H 397.803 -7.02838 0.861638 0
M  V30 4078 H 398.211 -5.64173 -0.191975 0
M  V30 4079 N 397.609 -0.515225 -1.4894 0
M  V30 4080 C 398.541 0.292481 -2.27326 0
M  V30 4081 C 399.554 0.917838 -1.3446 0
M  V30 4082 O 400.743 0.798772 -1.5963 0
M  V30 4083 C 397.843 1.42803 -3.07344 0
M  V30 4084 C 397.016 0.907347 -4.27885 0
M  V30 4085 C 396.075 1.92222 -4.89834 0
M  V30 4086 O 395.101 1.48506 -5.49486 0
M  V30 4087 N 396.303 3.25355 -4.80754 0
M  V30 4088 H 399.068 -0.379721 -2.97285 0
M  V30 4089 H 396.629 -0.348638 -1.58102 0
M  V30 4090 H 398.621 2.10481 -3.45658 0
M  V30 4091 H 397.191 2.00414 -2.39902 0
M  V30 4092 H 396.411 0.0550218 -3.94162 0
M  V30 4093 H 397.699 0.538108 -5.05946 0
M  V30 4094 H 397.097 3.6355 -4.33414 0
M  V30 4095 H 395.654 3.88707 -5.23211 0
M  V30 4096 N 399.087 1.5561 -0.249682 0
M  V30 4097 C 400.336 1.98187 0.37479 0
M  V30 4098 C 400.649 1.14111 1.58865 0
M  V30 4099 O 401.855 1.46714 2.28445 0
M  V30 4100 C 400.311 3.52661 0.718192 0
M  V30 4101 C 399.919 4.45481 -0.474428 0
M  V30 4102 C 401.663 4.03888 1.3067 0
M  V30 4103 C 399.57 5.91303 -0.107026 0
M  V30 4104 H 398.5 0.740159 0.143808 0
M  V30 4105 H 401.151 1.80125 -0.350336 0
M  V30 4106 H 399.533 3.66429 1.50152 0
M  V30 4107 H 400.707 4.43473 -1.25172 0
M  V30 4108 H 399.022 4.04751 -0.978052 0
M  V30 4109 H 401.619 5.10358 1.59496 0
M  V30 4110 H 401.962 3.51401 2.23211 0
M  V30 4111 H 402.495 3.93457 0.586211 0
M  V30 4112 H 399.234 6.47833 -0.999642 0
M  V30 4113 H 398.754 5.9644 0.634013 0
M  V30 4114 H 400.433 6.46258 0.309807 0
M  V30 4115 N 400.565 -0.0233959 1.57583 0
M  V30 4116 C 401.811 -0.708611 1.90657 0
M  V30 4117 C 402.166 -1.7266 0.848895 0
M  V30 4118 O 401.459 -1.91075 -0.141749 0
M  V30 4119 C 401.653 -1.41428 3.28227 0
M  V30 4120 C 401.482 -0.466155 4.47277 0
M  V30 4121 C 400.252 -0.085117 5.05228 0
M  V30 4122 C 402.45 0.257836 5.13653 0
M  V30 4123 N 400.432 0.863672 6.07794 0
M  V30 4124 C 401.803 1.06209 6.10835 0
M  V30 4125 C 403.858 0.324174 4.96844 0
M  V30 4126 C 402.561 1.9266 6.93018 0
M  V30 4127 C 404.587 1.17583 5.79593 0
M  V30 4128 C 403.949 1.96799 6.7635 0
M  V30 4129 H 400.048 -0.233222 0.746412 0
M  V30 4130 H 402.632 0.0314512 1.94675 0
M  V30 4131 H 400.803 -2.12477 3.25128 0
M  V30 4132 H 402.535 -2.05233 3.488 0
M  V30 4133 H 399.29 -0.448516 4.71471 0
M  V30 4134 H 399.714 1.33274 6.63752 0
M  V30 4135 H 404.356 -0.273975 4.21911 0
M  V30 4136 H 402.074 2.53552 7.67292 0
M  V30 4137 H 405.66 1.23076 5.68633 0
M  V30 4138 H 404.54 2.61635 7.39268 0
M  V30 4139 N 402.043 -1.548 -0.295768 0
M  V30 4140 C 403.271 -1.78327 -1.04914 0
M  V30 4141 C 403.686 -0.545316 -1.80753 0
M  V30 4142 O 403.043 0.485013 -1.75937 0
M  V30 4143 C 403.094 -2.99418 -2.02561 0
M  V30 4144 O 402.815 -4.18431 -1.29798 0
M  V30 4145 C 404.316 -3.35375 -2.89895 0
M  V30 4146 H 401.536 -0.594618 -0.310918 0
M  V30 4147 H 404.08 -2.01763 -0.333454 0
M  V30 4148 H 402.235 -2.78175 -2.69624 0
M  V30 4149 H 402.649 -4.86736 -1.95419 0
M  V30 4150 H 404.123 -4.23332 -3.54251 0
M  V30 4151 H 404.6 -2.53761 -3.58472 0
M  V30 4152 H 405.206 -3.58796 -2.28355 0
M  V30 4153 N 403.521 0.559213 -1.47345 0
M  V30 4154 C 404.749 1.34194 -1.57479 0
M  V30 4155 C 405.164 1.87463 -0.224261 0
M  V30 4156 O 404.521 1.64888 0.782185 0
M  V30 4157 C 404.572 2.51324 -2.59843 0
M  V30 4158 O 404.293 2.00256 -3.89653 0
M  V30 4159 C 405.794 3.43563 -2.80142 0
M  V30 4160 H 403.014 0.409136 -0.531835 0
M  V30 4161 H 405.558 0.677609 -1.92947 0
M  V30 4162 H 403.713 3.13699 -2.27314 0
M  V30 4163 H 404.127 2.76708 -4.4557 0
M  V30 4164 H 405.601 4.2217 -3.55635 0
M  V30 4165 H 406.078 3.9698 -1.87892 0
M  V30 4166 H 406.684 2.87005 -3.1386 0
M  V30 4167 N 404.999 1.35443 0.805782 0
M  V30 4168 C 406.247 1.28507 1.55982 0
M  V30 4169 C 406.568 -0.140046 1.94496 0
M  V30 4170 O 405.838 -1.07666 1.63661 0
M  V30 4171 H 404.418 0.472676 0.578434 0
M  V30 4172 H 407.08 1.69555 0.961098 0
M  V30 4173 H 406.176 1.90148 2.47488 0
M  V30 4174 N 406.477 -1.02803 1.19454 0
M  V30 4175 C 407.387 -2.14575 0.948408 0
M  V30 4176 C 408.403 -1.73757 -0.091871 0
M  V30 4177 O 409.579 -2.01185 0.0929654 0
M  V30 4178 C 406.644 -3.43202 0.491265 0
M  V30 4179 C 405.705 -3.98328 1.60103 0
M  V30 4180 C 404.938 -5.20816 1.16561 0
M  V30 4181 O 405.161 -5.70392 0.0295238 0
M  V30 4182 O 404.095 -5.68801 1.96849 0
M  V30 4183 H 407.921 -2.38202 1.88397 0
M  V30 4184 H 405.506 -1.12989 0.977433 0
M  V30 4185 H 407.388 -4.20687 0.245015 0
M  V30 4186 H 406.063 -3.21018 -0.415851 0
M  V30 4187 H 404.97 -3.22174 1.90144 0
M  V30 4188 H 406.303 -4.24879 2.48473 0
M  V30 4189 N 407.956 -0.998596 -1.21925 0
M  V30 4190 C 409.186 -0.695276 -1.94549 0
M  V30 4191 C 409.594 0.745079 -1.73911 0
M  V30 4192 O 408.937 1.51507 -1.03881 0
M  V30 4193 C 408.999 -0.928485 -3.47303 0
M  V30 4194 C 408.663 -2.35443 -3.91683 0
M  V30 4195 C 409.66 -3.33428 -3.98901 0
M  V30 4196 C 407.345 -2.69038 -4.24174 0
M  V30 4197 C 409.339 -4.63079 -4.37992 0
M  V30 4198 C 407.026 -3.98906 -4.62944 0
M  V30 4199 C 408.024 -4.95738 -4.69822 0
M  V30 4200 O 407.712 -6.23285 -5.07711 0
M  V30 4201 H 407.444 -0.255902 -0.625692 0
M  V30 4202 H 409.998 -1.33767 -1.5587 0
M  V30 4203 H 408.228 -0.228917 -3.86022 0
M  V30 4204 H 409.917 -0.619539 -4.01144 0
M  V30 4205 H 410.683 -3.08807 -3.73983 0
M  V30 4206 H 406.562 -1.94367 -4.18022 0
M  V30 4207 H 410.106 -5.38658 -4.43275 0
M  V30 4208 H 406.003 -4.23314 -4.87314 0
M  V30 4209 H 406.771 -6.27306 -5.25766 0
M  V30 4210 N 409.434 1.37368 -0.772513 0
M  V30 4211 C 410.659 2.0447 -0.347386 0
M  V30 4212 C 411.084 1.57882 1.0225 0
M  V30 4213 O 410.442 0.73941 1.65537 0
M  V30 4214 C 410.49 3.58369 -0.400479 0
M  V30 4215 O 409.594 4.0803 0.598789 0
M  V30 4216 H 408.935 0.646773 -0.15027 0
M  V30 4217 H 411.465 1.75667 -1.04892 0
M  V30 4218 H 411.475 4.07183 -0.258045 0
M  V30 4219 H 410.15 3.91633 -1.39986 0
M  V30 4220 H 408.727 3.70534 0.419411 0
M  V30 4221 N 410.912 0.523116 1.48665 0
M  V30 4222 C 412.159 -0.0134763 2.02496 0
M  V30 4223 C 412.487 -1.3493 1.40086 0
M  V30 4224 O 411.742 -1.88286 0.533567 0
M  V30 4225 C 412.041 -0.191671 3.56886 0
M  V30 4226 C 411.707 1.06893 4.38046 0
M  V30 4227 C 410.369 1.41443 4.59943 0
M  V30 4228 C 412.721 1.90584 4.85106 0
M  V30 4229 C 410.049 2.59594 5.26144 0
M  V30 4230 C 412.401 3.07907 5.52609 0
M  V30 4231 C 411.065 3.42811 5.72745 0
M  V30 4232 H 410.335 -0.00493133 0.740984 0
M  V30 4233 H 412.982 0.687751 1.78724 0
M  V30 4234 H 411.287 -0.97561 3.79459 0
M  V30 4235 H 412.984 -0.621659 3.96152 0
M  V30 4236 H 409.574 0.789848 4.21259 0
M  V30 4237 H 413.758 1.65203 4.67997 0
M  V30 4238 H 409.014 2.86847 5.39934 0
M  V30 4239 H 413.188 3.73066 5.88043 0
M  V30 4240 H 410.815 4.34462 6.23816 0
M  V30 4241 N 412.39 -1.55475 0.257931 0
M  V30 4242 C 413.337 -2.21837 -0.636939 0
M  V30 4243 C 414.307 -1.18596 -1.16294 0
M  V30 4244 O 415.492 -1.47081 -1.21539 0
M  V30 4245 C 412.632 -2.9301 -1.82317 0
M  V30 4246 C 411.745 -4.10931 -1.33265 0
M  V30 4247 C 410.88 -4.69791 -2.47931 0
M  V30 4248 C 409.919 -5.7994 -1.95796 0
M  V30 4249 N 409.056 -6.32935 -3.0387 0
M  V30 4250 H 413.896 -2.9793 -0.0643591 0
M  V30 4251 H 411.433 -1.47086 -0.0200031 0
M  V30 4252 H 413.391 -3.3248 -2.52018 0
M  V30 4253 H 412.021 -2.1937 -2.36805 0
M  V30 4254 H 411.073 -3.76699 -0.52931 0
M  V30 4255 H 412.385 -4.90417 -0.910654 0
M  V30 4256 H 411.539 -5.11892 -3.25656 0
M  V30 4257 H 410.278 -3.89545 -2.93438 0
M  V30 4258 H 409.283 -5.37305 -1.16546 0
M  V30 4259 H 410.508 -6.62043 -1.51246 0
M  V30 4260 H 408.454 -5.55591 -3.48791 0
M  V30 4261 H 408.371 -7.07645 -2.66035 0
M  V30 4262 H 409.639 -6.79695 -3.81621 0
M  V30 4263 N 413.868 0.0150385 -1.57593 0
M  V30 4264 C 415.117 0.702115 -1.89085 0
M  V30 4265 C 415.43 1.75764 -0.858277 0
M  V30 4266 O 416.636 2.49829 -1.0629 0
M  V30 4267 C 415.092 1.29992 -3.35604 0
M  V30 4268 C 414.7 0.280007 -4.47124 0
M  V30 4269 C 416.444 1.96606 -3.76227 0
M  V30 4270 C 414.351 0.886949 -5.84711 0
M  V30 4271 H 413.281 0.265997 -0.705522 0
M  V30 4272 H 415.932 -0.0430408 -1.8345 0
M  V30 4273 H 414.314 2.09525 -3.36029 0
M  V30 4274 H 415.488 -0.489631 -4.58191 0
M  V30 4275 H 413.803 -0.284835 -4.15425 0
M  V30 4276 H 416.4 2.42893 -4.76347 0
M  V30 4277 H 416.743 2.79024 -3.08952 0
M  V30 4278 H 417.276 1.23828 -3.78036 0
M  V30 4279 H 414.015 0.101876 -6.55421 0
M  V30 4280 H 413.535 1.6261 -5.77337 0
M  V30 4281 H 415.214 1.39011 -6.3189 0
M  V30 4282 N 415.346 1.54954 0.287554 0
M  V30 4283 C 416.593 1.74873 1.02106 0
M  V30 4284 C 416.921 0.541829 1.86801 0
M  V30 4285 O 416.176 -0.475992 1.89823 0
M  V30 4286 C 416.475 2.99833 1.94512 0
M  V30 4287 C 416.141 4.33029 1.25686 0
M  V30 4288 C 414.803 4.69233 1.06649 0
M  V30 4289 C 417.155 5.15542 0.765913 0
M  V30 4290 C 414.483 5.85518 0.372222 0
M  V30 4291 C 416.835 6.32542 0.0853101 0
M  V30 4292 C 415.499 6.67398 -0.1169 0
M  V30 4293 H 414.769 0.639906 0.373632 0
M  V30 4294 H 417.416 1.89219 0.294665 0
M  V30 4295 H 415.721 2.80325 2.73725 0
M  V30 4296 H 417.418 3.1244 2.51361 0
M  V30 4297 H 414.008 4.04564 1.41512 0
M  V30 4298 H 418.192 4.88059 0.90066 0
M  V30 4299 H 413.448 6.11057 0.204695 0
M  V30 4300 H 417.622 6.95741 -0.302936 0
M  V30 4301 H 415.249 7.57357 -0.656859 0
M  V30 4302 N 416.824 -0.551391 1.4764 0
M  V30 4303 C 418.235 -1.13349 1.48354 0
M  V30 4304 C 418.586 -1.94709 0.241432 0
M  V30 4305 O 417.711 -2.06306 -0.653205 0
M  V30 4306 C 418.306 -2.0623 2.68802 0
M  V30 4307 C 416.865 -2.597 2.72457 0
M  V30 4308 C 416.012 -1.36201 2.41546 0
M  V30 4309 H 418.963 -0.337698 1.55065 0
M  V30 4310 H 418.984 -2.90196 2.46103 0
M  V30 4311 H 418.496 -1.46987 3.59188 0
M  V30 4312 H 416.597 -3.22724 1.86225 0
M  V30 4313 H 416.71 -3.00296 3.73308 0
M  V30 4314 H 415.074 -1.67068 1.9225 0
M  V30 4315 H 415.857 -0.787425 3.34147 0
M  V30 4316 N 418.302 -1.35869 -0.798587 0
M  V30 4317 C 419.212 -1.31578 -1.94228 0
M  V30 4318 C 420.228 -0.21939 -1.72611 0
M  V30 4319 O 421.404 -0.450167 -1.96305 0
M  V30 4320 C 418.469 -1.09528 -3.28944 0
M  V30 4321 C 417.53 -2.28556 -3.63402 0
M  V30 4322 C 416.763 -2.07549 -4.9169 0
M  V30 4323 O 416.986 -1.046 -5.60727 0
M  V30 4324 O 415.92 -2.95106 -5.24591 0
M  V30 4325 H 419.746 -2.27847 -2.00796 0
M  V30 4326 H 417.331 -1.16322 -0.937526 0
M  V30 4327 H 419.213 -0.991127 -4.09579 0
M  V30 4328 H 417.888 -0.16315 -3.23289 0
M  V30 4329 H 416.795 -2.44538 -2.83112 0
M  V30 4330 H 418.128 -3.20244 -3.73771 0
M  V30 4331 N 419.78 1.02168 -1.19998 0
M  V30 4332 C 420.727 2.10601 -0.944228 0
M  V30 4333 C 421.697 1.65639 0.123664 0
M  V30 4334 O 422.882 1.9079 -0.0199941 0
M  V30 4335 C 420.022 3.41504 -0.496865 0
M  V30 4336 C 419.135 3.99973 -1.63234 0
M  V30 4337 C 418.27 5.18915 -1.13579 0
M  V30 4338 C 417.309 5.69456 -2.24468 0
M  V30 4339 N 416.446 6.79665 -1.76068 0
M  V30 4340 H 421.286 2.31814 -1.8726 0
M  V30 4341 H 418.823 1.13686 -0.933483 0
M  V30 4342 H 420.781 4.16626 -0.218843 0
M  V30 4343 H 419.411 3.2038 0.394508 0
M  V30 4344 H 418.463 3.21997 -2.0254 0
M  V30 4345 H 419.775 4.33492 -2.46752 0
M  V30 4346 H 418.929 6.01222 -0.813429 0
M  V30 4347 H 417.668 4.8695 -0.270434 0
M  V30 4348 H 416.673 4.85757 -2.57526 0
M  V30 4349 H 417.898 6.03459 -3.11472 0
M  V30 4350 H 415.844 6.49538 -0.918516 0
M  V30 4351 H 415.761 7.12349 -2.5317 0
M  V30 4352 H 417.029 7.65549 -1.46817 0
M  V30 4353 N 421.258 1.00505 1.21394 0
M  V30 4354 C 422.206 0.558623 2.25792 0
M  V30 4355 C 423.2 -0.396848 1.64686 0
M  V30 4356 O 424.406 -0.268035 1.77993 0
M  V30 4357 H 420.781 0.1623 0.734277 0
M  V30 4358 H 422.752 1.4503 2.60785 0
M  V30 4359 C 421.501 -0.0989574 3.47559 0
M  V30 4360 H 420.824 0.627225 3.94849 0
M  V30 4361 H 422.264 -0.3746 4.22342 0
M  V30 4362 C 420.723 -1.33817 3.09184 0
M  V30 4363 O 421.253 -2.43252 3.19674 0
M  V30 4364 N 419.459 -1.21793 2.63846 0
M  V30 4365 H 419.006 -0.32746 2.5551 0
M  V30 4366 H 418.964 -2.04809 2.38539 0
M  V30 4367 N 422.737 -1.36956 0.779787 0
M  V30 4368 C 423.986 -1.98738 0.344405 0
M  V30 4369 C 424.299 -1.62596 -1.08728 0
M  V30 4370 O 425.505 -2.1754 -1.62445 0
M  V30 4371 C 423.961 -3.5544 0.564829 0
M  V30 4372 C 423.569 -4.00514 2.0073 0
M  V30 4373 C 425.313 -4.24059 0.193471 0
M  V30 4374 C 423.22 -5.49957 2.17489 0
M  V30 4375 H 422.15 -0.743561 0.12503 0
M  V30 4376 H 424.801 -1.56381 0.960057 0
M  V30 4377 H 423.183 -3.95817 -0.120397 0
M  V30 4378 H 424.357 -3.71362 2.72814 0
M  V30 4379 H 422.672 -3.44703 2.336 0
M  V30 4380 H 425.269 -5.33874 0.297097 0
M  V30 4381 H 425.612 -4.07378 -0.857263 0
M  V30 4382 H 426.145 -3.89012 0.831556 0
M  V30 4383 H 422.884 -5.71574 3.2091 0
M  V30 4384 H 422.404 -5.80767 1.49899 0
M  V30 4385 H 424.083 -6.16043 1.97738 0
M  V30 4386 N 424.215 -0.530993 -1.48385 0
M  V30 4387 C 425.631 -0.188919 -1.58478 0
M  V30 4388 C 425.831 1.30786 -1.53288 0
M  V30 4389 O 424.887 2.08619 -1.42248 0
M  V30 4390 C 426.2 -0.792343 -2.90073 0
M  V30 4391 C 427.748 -0.76117 -3.03604 0
M  V30 4392 C 428.223 -1.34319 -4.37861 0
M  V30 4393 N 429.714 -1.3052 -4.44431 0
M  V30 4394 C 430.449 -1.72543 -5.46824 0
M  V30 4395 N 429.945 -2.22299 -6.56167 0
M  V30 4396 N 431.738 -1.63773 -5.37712 0
M  V30 4397 H 423.889 -1.50377 -1.50002 0
M  V30 4398 H 426.152 -0.625559 -0.712306 0
M  V30 4399 H 425.858 -1.84323 -2.99529 0
M  V30 4400 H 425.732 -0.270026 -3.76232 0
M  V30 4401 H 428.119 0.280957 -2.93759 0
M  V30 4402 H 428.2 -1.32097 -2.19053 0
M  V30 4403 H 427.844 -2.38425 -4.4846 0
M  V30 4404 H 427.774 -0.759064 -5.21101 0
M  V30 4405 H 430.265 -0.940973 -3.65997 0
M  V30 4406 H 430.578 -2.52356 -7.30436 0
M  V30 4407 H 428.923 -2.26293 -6.57127 0
M  V30 4408 H 432.114 -1.24698 -4.51185 0
M  V30 4409 H 432.287 -1.96844 -6.17379 0
M  V30 4410 N 425.693 1.55336 -0.266172 0
M  V30 4411 C 426.941 1.99003 0.35246 0
M  V30 4412 C 427.262 1.15591 1.57047 0
M  V30 4413 O 426.532 0.243268 1.94384 0
M  V30 4414 H 425.112 0.735025 0.133217 0
M  V30 4415 H 427.774 1.91367 -0.369434 0
M  V30 4416 H 426.87 3.05289 0.648453 0
M  V30 4417 N 427.171 -0.0066808 1.57599 0
M  V30 4418 C 428.418 -0.69292 1.90276 0
M  V30 4419 C 428.746 -1.74148 0.866192 0
M  V30 4420 O 428.001 -1.95268 -0.129933 0
M  V30 4421 C 428.3 -1.37939 3.29708 0
M  V30 4422 C 427.966 -0.464679 4.48499 0
M  V30 4423 C 426.628 -0.212809 4.80729 0
M  V30 4424 C 428.98 0.16551 5.20937 0
M  V30 4425 C 426.308 0.677653 5.82773 0
M  V30 4426 C 428.66 1.04381 6.23929 0
M  V30 4427 C 427.324 1.30492 6.54621 0
M  V30 4428 H 426.594 -0.253558 0.696268 0
M  V30 4429 H 429.241 0.0474123 1.91441 0
M  V30 4430 H 427.546 -2.1936 3.24636 0
M  V30 4431 H 429.243 -1.9163 3.52249 0
M  V30 4432 H 425.833 -0.671153 4.23313 0
M  V30 4433 H 430.017 -0.0160756 4.96297 0
M  V30 4434 H 425.273 0.88803 6.04917 0
M  V30 4435 H 429.447 1.53851 6.79193 0
M  V30 4436 H 427.074 1.99662 7.33512 0
M  V30 4437 N 428.649 -1.55105 -0.279332 0
M  V30 4438 C 429.596 -1.8755 -1.34513 0
M  V30 4439 C 430.566 -0.726384 -1.49375 0
M  V30 4440 O 431.751 -0.977063 -1.63884 0
M  V30 4441 C 428.891 -2.14738 -2.70151 0
M  V30 4442 C 428.004 -3.42285 -2.63562 0
M  V30 4443 C 427.139 -3.59206 -3.91337 0
M  V30 4444 C 426.178 -4.80467 -3.79233 0
M  V30 4445 N 425.315 -4.94079 -4.98829 0
M  V30 4446 H 430.155 -2.78456 -1.06143 0
M  V30 4447 H 427.692 -1.37867 -0.512936 0
M  V30 4448 H 429.65 -2.28501 -3.49061 0
M  V30 4449 H 428.28 -1.27075 -2.96735 0
M  V30 4450 H 427.332 -3.37029 -1.76397 0
M  V30 4451 H 428.644 -4.31328 -2.50515 0
M  V30 4452 H 427.798 -3.72751 -4.78687 0
M  V30 4453 H 426.537 -2.68337 -4.07243 0
M  V30 4454 H 425.542 -4.66932 -2.90266 0
M  V30 4455 H 426.767 -5.72765 -3.64852 0
M  V30 4456 H 424.713 -4.06139 -5.15158 0
M  V30 4457 H 424.63 -5.77156 -4.8829 0
M  V30 4458 H 425.898 -5.12003 -5.8777 0
M  V30 4459 N 430.127 0.543554 -1.4793 0
M  V30 4460 C 431.057 1.65888 -1.64327 0
M  V30 4461 C 432.038 1.62818 -0.492383 0
M  V30 4462 O 433.223 1.80226 -0.723338 0
M  V30 4463 C 430.353 3.04506 -1.67013 0
M  V30 4464 C 429.307 3.2243 -2.81466 0
M  V30 4465 C 428.633 4.61972 -2.69233 0
M  V30 4466 C 429.933 3.06496 -4.22915 0
M  V30 4467 H 431.627 1.52421 -2.57698 0
M  V30 4468 H 429.173 0.731849 -1.24016 0
M  V30 4469 H 431.126 3.82391 -1.77074 0
M  V30 4470 H 429.85 3.18964 -0.70212 0
M  V30 4471 H 428.509 2.46957 -2.70938 0
M  V30 4472 H 428.157 4.73247 -1.7043 0
M  V30 4473 H 427.857 4.74911 -3.46025 0
M  V30 4474 H 429.381 5.41974 -2.81242 0
M  V30 4475 H 430.795 3.74186 -4.34348 0
M  V30 4476 H 429.192 3.30938 -5.006 0
M  V30 4477 H 430.262 2.03077 -4.40327 0
M  V30 4478 N 431.605 1.3629 0.791371 0
M  V30 4479 C 433.016 1.27225 1.36641 0
M  V30 4480 C 433.367 -0.0887968 1.95999 0
M  V30 4481 O 432.492 -0.990207 1.92416 0
M  V30 4482 C 433.087 2.30375 2.48421 0
M  V30 4483 C 431.646 2.25004 3.01746 0
M  V30 4484 C 430.793 2.15259 1.7481 0
M  V30 4485 H 433.744 1.47198 0.593173 0
M  V30 4486 H 433.765 1.93905 3.27385 0
M  V30 4487 H 433.277 3.29422 2.05189 0
M  V30 4488 H 431.378 1.29417 3.49403 0
M  V30 4489 H 431.491 3.1761 3.58693 0
M  V30 4490 H 429.855 1.61482 1.96966 0
M  V30 4491 H 430.638 3.16191 1.33709 0
M  V30 4492 N 433.083 -1.0153 1.20538 0
M  V30 4493 C 434.36 -1.72327 0.925343 0
M  V30 4494 C 434.74 -2.03383 -0.565547 0
M  V30 4495 O 434.088 -1.69934 -1.52757 0
M  V30 4496 C 434.298 -2.9902 1.79967 0
M  V30 4497 C 435.646 -3.72258 2.04228 0
M  V30 4498 O 436.67 -3.08979 1.77231 0
M  V30 4499 O 435.529 -4.86053 2.4983 0
M  V30 4500 H 432.623 -0.751099 0.346092 0
M  V30 4501 H 435.169 -1.07366 1.31417 0
M  V30 4502 H 433.941 -2.72402 2.80915 0
M  V30 4503 H 433.564 -3.71721 1.41099 0
M  V30 4504 N 434.561 -1.01147 -1.20859 0
M  V30 4505 C 435.789 -0.716911 -1.94082 0
M  V30 4506 C 436.204 0.721568 -1.74467 0
M  V30 4507 O 435.561 1.48889 -1.05539 0
M  V30 4508 C 435.612 -1.03662 -3.46318 0
M  V30 4509 O 435.333 -2.4186 -3.65288 0
M  V30 4510 C 436.834 -0.762386 -4.36695 0
M  V30 4511 H 434.054 -0.26367 -0.617024 0
M  V30 4512 H 436.598 -1.35127 -1.53496 0
M  V30 4513 H 434.753 -0.447757 -3.84804 0
M  V30 4514 H 435.167 -2.53224 -4.59323 0
M  V30 4515 H 436.641 -1.03621 -5.42187 0
M  V30 4516 H 437.118 0.303514 -4.3815 0
M  V30 4517 H 437.724 -1.33316 -4.03865 0
M  V30 4518 N 436.039 1.36541 -0.78704 0
M  V30 4519 C 437.45 1.81873 -0.421807 0
M  V30 4520 C 437.801 1.65487 1.05397 0
M  V30 4521 O 436.926 1.17448 1.81755 0
M  V30 4522 C 437.521 3.30192 -0.758841 0
M  V30 4523 C 436.08 3.73743 -0.446468 0
M  V30 4524 C 435.227 2.58844 -0.994728 0
M  V30 4525 H 438.178 1.24796 -0.98039 0
M  V30 4526 H 438.199 3.80468 -0.0490648 0
M  V30 4527 H 437.711 3.42087 -1.83299 0
M  V30 4528 H 435.812 3.6741 0.619739 0
M  V30 4529 H 435.925 4.69272 -0.965415 0
M  V30 4530 H 434.289 2.51245 -0.418087 0
M  V30 4531 H 435.072 2.73525 -2.07458 0
M  V30 4532 N 437.518 0.538854 1.48102 0
M  V30 4533 C 438.45 -0.256278 2.27763 0
M  V30 4534 C 439.463 -0.89633 1.35904 0
M  V30 4535 O 440.652 -0.773275 1.60881 0
M  V30 4536 C 437.752 -1.37896 3.09577 0
M  V30 4537 C 436.925 -0.839159 4.29275 0
M  V30 4538 C 435.984 -1.84405 4.9283 0
M  V30 4539 O 435.01 -1.39746 5.51779 0
M  V30 4540 N 436.212 -3.17666 4.85869 0
M  V30 4541 H 438.977 0.426968 2.96643 0
M  V30 4542 H 436.538 0.373747 1.57527 0
M  V30 4543 H 438.53 -2.04955 3.48963 0
M  V30 4544 H 437.1 -1.96572 2.4306 0
M  V30 4545 H 436.32 0.00769287 3.94199 0
M  V30 4546 H 437.608 -0.457548 5.06739 0
M  V30 4547 H 437.006 -3.56609 4.39143 0
M  V30 4548 H 435.563 -3.80334 5.29329 0
M  V30 4549 N 438.996 -1.55193 0.274407 0
M  V30 4550 C 440.244 -1.99187 -0.341902 0
M  V30 4551 C 440.565 -1.16422 -1.56431 0
M  V30 4552 O 439.835 -0.253573 -1.94252 0
M  V30 4553 H 438.415 -0.735721 -0.129317 0
M  V30 4554 H 441.077 -1.91168 0.379578 0
M  V30 4555 H 440.173 -3.05629 -0.632253 0
M  V30 4556 N 440.474 -0.00167713 -1.576 0
M  V30 4557 C 441.404 0.988091 -2.11563 0
M  V30 4558 C 442.385 1.35736 -1.02517 0
M  V30 4559 O 443.57 1.44082 -1.30208 0
M  V30 4560 C 440.7 2.27941 -2.62031 0
M  V30 4561 C 439.654 2.0517 -3.75619 0
M  V30 4562 C 438.98 3.4033 -4.12407 0
M  V30 4563 C 440.28 1.41294 -5.02825 0
M  V30 4564 H 441.974 0.538771 -2.94513 0
M  V30 4565 H 439.52 0.257712 -1.41675 0
M  V30 4566 H 441.473 2.97539 -2.9841 0
M  V30 4567 H 440.197 2.74989 -1.76205 0
M  V30 4568 H 438.856 1.37998 -3.39635 0
M  V30 4569 H 438.504 3.85085 -3.23603 0
M  V30 4570 H 438.204 3.25909 -4.88935 0
M  V30 4571 H 439.728 4.1124 -4.51347 0
M  V30 4572 H 441.142 2.00851 -5.36965 0
M  V30 4573 H 439.539 1.37356 -5.84169 0
M  V30 4574 H 440.609 0.382362 -4.8339 0
M  V30 4575 N 441.952 1.55251 0.271103 0
M  V30 4576 C 442.882 1.9127 1.33933 0
M  V30 4577 C 443.863 0.77478 1.5143 0
M  V30 4578 O 445.048 1.03307 1.64442 0
M  V30 4579 C 442.178 2.18627 2.69851 0
M  V30 4580 C 441.132 3.34442 2.67081 0
M  V30 4581 C 440.458 3.47284 4.06569 0
M  V30 4582 C 441.758 4.70784 2.26185 0
M  V30 4583 H 443.452 2.80744 1.04035 0
M  V30 4584 H 440.998 1.35077 0.499017 0
M  V30 4585 H 442.951 2.42413 3.44694 0
M  V30 4586 H 441.675 1.25955 3.01335 0
M  V30 4587 H 440.334 3.10627 1.94695 0
M  V30 4588 H 439.982 2.52074 4.35279 0
M  V30 4589 H 439.682 4.25152 4.0561 0
M  V30 4590 H 441.206 3.73363 4.83148 0
M  V30 4591 H 442.62 4.94102 2.90751 0
M  V30 4592 H 441.017 5.51582 2.36384 0
M  V30 4593 H 442.087 4.69478 1.21319 0
M  V30 4594 N 443.43 -0.535701 1.48216 0
M  V30 4595 C 444.678 -1.28928 1.55634 0
M  V30 4596 C 444.999 -1.93645 0.229514 0
M  V30 4597 O 444.269 -1.81038 -0.74846 0
M  V30 4598 H 442.849 -0.47884 0.573342 0
M  V30 4599 H 445.511 -0.623853 1.84646 0
M  V30 4600 H 444.607 -2.07157 2.33436 0
M  V30 4601 N 444.908 -1.36708 -0.784132 0
M  V30 4602 C 445.818 -1.3363 -1.92822 0
M  V30 4603 C 446.834 -0.237686 -1.72369 0
M  V30 4604 O 448.01 -0.470962 -1.95816 0
M  V30 4605 C 445.075 -1.13011 -3.27764 0
M  V30 4606 C 444.136 -2.32397 -3.60957 0
M  V30 4607 C 443.369 -2.12752 -4.89461 0
M  V30 4608 O 443.592 -1.10541 -5.59586 0
M  V30 4609 O 442.526 -3.00653 -5.21432 0
M  V30 4610 H 446.352 -2.29964 -1.98369 0
M  V30 4611 H 443.937 -1.1731 -0.925136 0
M  V30 4612 H 445.819 -1.03451 -4.08504 0
M  V30 4613 H 444.494 -0.19743 -3.23097 0
M  V30 4614 H 443.401 -2.47527 -2.80502 0
M  V30 4615 H 444.734 -3.2419 -3.70354 0
M  V30 4616 N 446.386 1.0089 -1.21074 0
M  V30 4617 C 447.349 2.0775 -0.968129 0
M  V30 4618 C 448.349 1.6069 0.0593445 0
M  V30 4619 O 449.539 1.73293 -0.177525 0
M  V30 4620 C 446.671 3.37794 -0.459108 0
M  V30 4621 H 447.864 2.30707 -1.9161 0
M  V30 4622 H 445.417 1.17807 -1.02719 0
M  V30 4623 H 446.152 3.20516 0.49397 0
M  V30 4624 H 445.937 3.7328 -1.20019 0
M  V30 4625 H 447.427 4.16454 -0.309099 0
M  V30 4626 N 447.864 1.01787 1.20321 0
M  V30 4627 C 449.28 0.732951 1.41774 0
M  V30 4628 C 449.48 -0.686883 1.89431 0
M  V30 4629 O 448.536 -1.45446 2.06402 0
M  V30 4630 C 449.849 1.75973 2.43832 0
M  V30 4631 C 451.397 1.77802 2.57596 0
M  V30 4632 C 451.872 2.7941 3.62897 0
M  V30 4633 N 453.363 2.78157 3.70382 0
M  V30 4634 C 454.098 3.53434 4.51521 0
M  V30 4635 N 453.594 4.38392 5.36455 0
M  V30 4636 N 455.387 3.42026 4.46066 0
M  V30 4637 H 447.538 1.93447 0.877035 0
M  V30 4638 H 449.801 0.835712 0.447536 0
M  V30 4639 H 449.507 2.77699 2.15815 0
M  V30 4640 H 449.381 1.57292 3.4284 0
M  V30 4641 H 451.768 0.767602 2.84942 0
M  V30 4642 H 451.849 2.00557 1.58779 0
M  V30 4643 H 451.493 3.80616 3.36295 0
M  V30 4644 H 451.423 2.53916 4.61339 0
M  V30 4645 H 453.914 2.16531 3.09714 0
M  V30 4646 H 454.227 4.92596 5.95457 0
M  V30 4647 H 452.572 4.4247 5.35953 0
M  V30 4648 H 455.763 2.75075 3.78749 0
M  V30 4649 H 455.936 4.00946 5.09064 0
M  V30 4650 N 449.342 -1.36122 0.79427 0
M  V30 4651 C 450.275 -2.27759 0.141845 0
M  V30 4652 C 451.253 -1.47471 -0.684921 0
M  V30 4653 O 452.437 -1.76759 -0.654857 0
M  V30 4654 C 449.564 -3.29008 -0.804446 0
M  V30 4655 C 448.61 -4.26459 -0.0588617 0
M  V30 4656 S 449.443 -5.20253 1.26873 0
M  V30 4657 C 450.599 -6.25048 0.326562 0
M  V30 4658 H 450.832 -2.82746 0.918818 0
M  V30 4659 H 448.365 -1.42736 0.588722 0
M  V30 4660 H 450.323 -3.87842 -1.34495 0
M  V30 4661 H 448.984 -2.72924 -1.5547 0
M  V30 4662 H 448.177 -4.97973 -0.777087 0
M  V30 4663 H 447.779 -3.71731 0.411309 0
M  V30 4664 H 450.071 -6.75705 -0.492795 0
M  V30 4665 H 451.014 -7.00852 1.01053 0
M  V30 4666 H 451.422 -5.64454 -0.0722627 0
M  V30 4667 N 450.82 -0.546701 -1.47814 0
M  V30 4668 C 451.75 0.195317 -2.32682 0
M  V30 4669 C 452.731 0.918981 -1.43139 0
M  V30 4670 O 453.916 0.901501 -1.72008 0
M  V30 4671 C 451.046 1.23237 -3.247 0
M  V30 4672 C 450 0.625818 -4.234 0
M  V30 4673 C 449.326 1.76674 -5.04669 0
M  V30 4674 C 450.626 -0.413515 -5.2066 0
M  V30 4675 H 452.32 -0.513184 -2.94969 0
M  V30 4676 H 449.866 -0.248241 -1.41844 0
M  V30 4677 H 451.819 1.75955 -3.82907 0
M  V30 4678 H 450.543 1.97067 -2.60446 0
M  V30 4679 H 449.202 0.120023 -3.66403 0
M  V30 4680 H 448.85 2.49383 -4.36826 0
M  V30 4681 H 448.55 1.36673 -5.71484 0
M  V30 4682 H 450.074 2.29738 -5.65732 0
M  V30 4683 H 451.488 0.0272042 -5.73294 0
M  V30 4684 H 449.885 -0.731825 -5.95621 0
M  V30 4685 H 450.955 -1.31325 -4.66778 0
M  V30 4686 N 452.299 1.55045 -0.282633 0
M  V30 4687 C 453.247 2.24254 0.617478 0
M  V30 4688 C 454.241 1.24215 1.15183 0
M  V30 4689 O 455.447 1.42123 1.10459 0
M  V30 4690 H 451.822 0.719801 0.217693 0
M  V30 4691 H 453.793 2.98398 0.0110076 0
M  V30 4692 C 452.542 2.98281 1.78672 0
M  V30 4693 H 451.865 3.75053 1.38475 0
M  V30 4694 H 453.305 3.50017 2.393 0
M  V30 4695 C 451.764 2.04184 2.67975 0
M  V30 4696 O 452.294 1.59792 3.6855 0
M  V30 4697 N 450.5 1.70526 2.35307 0
M  V30 4698 H 450.047 2.06821 1.53567 0
M  V30 4699 H 450.005 1.07839 2.95327 0
M  V30 4700 N 453.777 0.010035 1.57597 0
M  V30 4701 C 454.74 -0.963029 2.07986 0
M  V30 4702 C 455.74 -1.26619 0.991173 0
M  V30 4703 O 456.93 -1.2097 1.25347 0
M  V30 4704 C 454.062 -2.2851 2.52974 0
M  V30 4705 H 455.255 -0.526971 2.95234 0
M  V30 4706 H 452.808 -0.237639 1.54483 0
M  V30 4707 H 453.543 -2.76784 1.69 0
M  V30 4708 H 453.328 -2.07824 3.32493 0
M  V30 4709 H 454.818 -2.98294 2.9225 0
M  V30 4710 N 455.255 -1.55392 -0.262866 0
M  V30 4711 C 456.48 -1.80847 -1.01533 0
M  V30 4712 C 456.905 -0.584946 -1.78774 0
M  V30 4713 O 456.263 0.465701 -1.75217 0
M  V30 4714 C 456.311 -3.03866 -1.94159 0
M  V30 4715 O 455.415 -2.79662 -3.03089 0
M  V30 4716 H 454.756 -0.597441 -0.289759 0
M  V30 4717 H 457.286 -2.02553 -0.288698 0
M  V30 4718 H 457.296 -3.32872 -2.35924 0
M  V30 4719 H 455.971 -3.92564 -1.37354 0
M  V30 4720 H 454.548 -2.61781 -2.65566 0
M  V30 4721 N 456.733 0.527833 -1.48498 0
M  V30 4722 C 457.982 1.28003 -1.55878 0
M  V30 4723 C 458.295 1.9414 -0.238577 0
M  V30 4724 O 459.501 2.7083 -0.190643 0
M  V30 4725 C 457.957 2.32272 -2.74914 0
M  V30 4726 C 457.565 1.72196 -4.13585 0
M  V30 4727 C 459.309 3.08488 -2.91608 0
M  V30 4728 C 457.216 2.74417 -5.23879 0
M  V30 4729 H 456.146 0.481413 -0.580308 0
M  V30 4730 H 458.797 0.557195 -1.74836 0
M  V30 4731 H 457.179 3.07601 -2.49395 0
M  V30 4732 H 458.353 1.03041 -4.49132 0
M  V30 4733 H 456.668 1.08464 -4.02025 0
M  V30 4734 H 459.265 3.84879 -3.71177 0
M  V30 4735 H 459.608 3.64481 -2.01145 0
M  V30 4736 H 460.141 2.40274 -3.17038 0
M  V30 4737 H 456.88 2.23242 -6.16314 0
M  V30 4738 H 456.4 3.41893 -4.92818 0
M  V30 4739 H 458.079 3.37362 -5.52083 0
M  V30 4740 N 458.211 1.37122 0.776871 0
M  V30 4741 C 459.457 1.32243 1.53752 0
M  V30 4742 C 459.79 -0.0944745 1.9397 0
M  V30 4743 O 459.065 -1.05068 1.6368 0
M  V30 4744 C 459.348 2.25681 2.80607 0
M  V30 4745 C 459.201 3.76127 2.46676 0
M  V30 4746 C 460.52 2.17657 3.82509 0
M  V30 4747 H 457.639 0.481704 0.557791 0
M  V30 4748 H 460.281 1.6778 0.891612 0
M  V30 4749 H 458.431 1.95505 3.35723 0
M  V30 4750 H 460.103 4.16877 1.97513 0
M  V30 4751 H 458.346 3.94946 1.79443 0
M  V30 4752 H 459.017 4.36933 3.37333 0
M  V30 4753 H 461.493 2.44245 3.36873 0
M  V30 4754 H 460.369 2.85185 4.69 0
M  V30 4755 H 460.63 1.16785 4.26396 0
M  V30 4756 N 459.689 -1.00246 1.21608 0
M  V30 4757 C 460.652 -2.07233 0.979133 0
M  V30 4758 C 461.652 -1.6072 -0.0508219 0
M  V30 4759 O 462.842 -1.73196 0.186712 0
M  V30 4760 C 459.974 -3.37546 0.477016 0
M  V30 4761 H 461.167 -2.29687 1.92831 0
M  V30 4762 H 458.72 -1.17261 1.03342 0
M  V30 4763 H 459.455 -3.20773 -0.476966 0
M  V30 4764 H 459.24 -3.72638 1.21997 0
M  V30 4765 H 460.73 -4.16285 0.331181 0
M  V30 4766 N 461.167 -1.02423 -1.1978 0
M  V30 4767 C 462.392 -0.7373 -1.93852 0
M  V30 4768 C 462.817 0.696923 -1.74713 0
M  V30 4769 O 462.175 1.48056 -1.04638 0
M  V30 4770 C 462.223 -1.08783 -3.438 0
M  V30 4771 O 461.327 -0.20383 -4.11896 0
M  V30 4772 H 460.668 -0.27284 -0.605355 0
M  V30 4773 H 463.198 -1.36966 -1.51992 0
M  V30 4774 H 463.208 -1.04276 -3.9445 0
M  V30 4775 H 461.883 -2.13274 -3.57053 0
M  V30 4776 H 460.46 -0.307091 -3.71633 0
M  V30 4777 N 462.645 1.35699 -0.801477 0
M  V30 4778 C 463.892 1.98913 -0.379459 0
M  V30 4779 C 464.22 1.63592 1.05204 0
M  V30 4780 O 463.475 0.888563 1.74365 0
M  V30 4781 C 463.774 3.53828 -0.504041 0
M  V30 4782 C 463.44 4.09002 -1.8981 0
M  V30 4783 C 462.102 4.23783 -2.27951 0
M  V30 4784 C 464.454 4.38939 -2.81038 0
M  V30 4785 C 461.782 4.65816 -3.56696 0
M  V30 4786 C 464.134 4.82409 -4.09224 0
M  V30 4787 C 462.798 4.95395 -4.4737 0
M  V30 4788 H 462.068 0.727874 -0.138854 0
M  V30 4789 H 464.715 1.61994 -1.02128 0
M  V30 4790 H 463.02 3.91175 0.221242 0
M  V30 4791 H 464.717 4.00687 -0.158361 0
M  V30 4792 H 461.307 3.97946 -1.59176 0
M  V30 4793 H 465.491 4.27077 -2.52821 0
M  V30 4794 H 460.747 4.74059 -3.86106 0
M  V30 4795 H 464.921 5.04535 -4.80018 0
M  V30 4796 H 462.548 5.27724 -5.47185 0
M  V30 4797 N 464.123 0.554532 1.47522 0
M  V30 4798 C 465.369 0.0295227 2.02779 0
M  V30 4799 C 465.702 -1.31582 1.42828 0
M  V30 4800 O 464.977 -1.85561 0.582872 0
M  V30 4801 C 465.26 -0.0664057 3.60039 0
M  V30 4802 C 465.113 1.30585 4.30427 0
M  V30 4803 C 466.432 -0.781162 4.33112 0
M  V30 4804 H 463.551 0.0122027 0.736899 0
M  V30 4805 H 466.193 0.716305 1.7598 0
M  V30 4806 H 464.343 -0.651307 3.83002 0
M  V30 4807 H 466.015 1.93374 4.18813 0
M  V30 4808 H 464.258 1.88125 3.90886 0
M  V30 4809 H 464.929 1.19147 5.38988 0
M  V30 4810 H 467.405 -0.284565 4.15126 0
M  V30 4811 H 466.281 -0.817237 5.42782 0
M  V30 4812 H 466.542 -1.83672 4.0214 0
M  V30 4813 N 465.601 -1.54893 0.290851 0
M  V30 4814 C 466.511 -2.26812 -0.59945 0
M  V30 4815 C 467.527 -1.29963 -1.15696 0
M  V30 4816 O 468.703 -1.62928 -1.18391 0
M  V30 4817 C 465.768 -2.98716 -1.75982 0
M  V30 4818 C 464.829 -4.1108 -1.2374 0
M  V30 4819 C 464.062 -4.79546 -2.34246 0
M  V30 4820 O 464.285 -4.47309 -3.53936 0
M  V30 4821 O 463.219 -5.67165 -2.01512 0
M  V30 4822 H 467.045 -3.03696 -0.0163561 0
M  V30 4823 H 464.63 -1.49289 0.0576755 0
M  V30 4824 H 466.512 -3.43851 -2.43607 0
M  V30 4825 H 465.187 -2.24737 -2.3297 0
M  V30 4826 H 464.094 -3.70367 -0.527163 0
M  V30 4827 H 465.427 -4.87007 -0.71307 0
M  V30 4828 N 467.08 -0.0183926 -1.57589 0
M  V30 4829 C 468.01 0.965596 -2.12599 0
M  V30 4830 C 468.991 1.34641 -1.0395 0
M  V30 4831 O 470.176 1.42693 -1.31729 0
M  V30 4832 C 467.306 2.25149 -2.64434 0
M  V30 4833 C 466.26 2.01175 -3.77773 0
M  V30 4834 C 465.586 3.35937 -4.15994 0
M  V30 4835 C 466.886 1.35953 -5.04296 0
M  V30 4836 H 468.58 0.507504 -2.95067 0
M  V30 4837 H 466.126 0.242671 -1.41941 0
M  V30 4838 H 468.079 2.94357 -3.01549 0
M  V30 4839 H 466.803 2.73105 -1.79112 0
M  V30 4840 H 465.462 1.34388 -3.4108 0
M  V30 4841 H 465.11 3.81631 -3.27669 0
M  V30 4842 H 464.81 3.20705 -4.92364 0
M  V30 4843 H 466.334 4.0643 -4.55683 0
M  V30 4844 H 467.748 1.95144 -5.39065 0
M  V30 4845 H 466.145 1.31152 -5.85593 0
M  V30 4846 H 467.215 0.331071 -4.83768 0
M  V30 4847 N 468.558 1.5553 0.254621 0
M  V30 4848 C 469.969 1.67518 0.824286 0
M  V30 4849 C 470.32 0.614429 1.86331 0
M  V30 4850 O 469.445 -0.240736 2.15057 0
M  V30 4851 C 470.04 3.03692 1.50189 0
M  V30 4852 C 468.599 3.17646 2.01935 0
M  V30 4853 C 467.746 2.63373 0.867746 0
M  V30 4854 H 470.697 1.58671 0.0305843 0
M  V30 4855 H 470.718 2.97706 2.36962 0
M  V30 4856 H 470.23 3.80874 0.745431 0
M  V30 4857 H 468.331 2.45273 2.80485 0
M  V30 4858 H 468.444 4.24455 2.22204 0
M  V30 4859 H 466.808 2.20999 1.26616 0
M  V30 4860 H 467.591 3.43074 0.124498 0
M  V30 4861 N 470.036 -0.519951 1.48776 0
M  V30 4862 C 470.966 -1.63253 1.66945 0
M  V30 4863 C 471.947 -1.62014 0.518224 0
M  V30 4864 O 473.132 -1.79053 0.751919 0
M  V30 4865 C 470.262 -3.0181 1.71836 0
M  V30 4866 C 469.216 -3.17911 2.8656 0
M  V30 4867 C 468.542 -4.5763 2.76548 0
M  V30 4868 C 469.842 -2.99729 4.27738 0
M  V30 4869 H 471.536 -1.48302 2.6009 0
M  V30 4870 H 469.082 -0.712026 1.25165 0
M  V30 4871 H 471.035 -3.79525 1.83135 0
M  V30 4872 H 469.759 -3.17806 0.752775 0
M  V30 4873 H 468.418 -2.42616 2.74833 0
M  V30 4874 H 468.066 -4.70476 1.77937 0
M  V30 4875 H 467.766 -4.69346 3.53536 0
M  V30 4876 H 469.29 -5.37431 2.89828 0
M  V30 4877 H 470.704 -3.67228 4.40246 0
M  V30 4878 H 469.101 -3.22932 5.05801 0
M  V30 4879 H 470.171 -1.96047 4.43502 0
M  V30 4880 N 471.514 -1.37532 -0.769588 0
M  V30 4881 C 472.477 -1.33292 -1.86456 0
M  V30 4882 C 473.477 -0.236537 -1.59051 0
M  V30 4883 O 474.667 -0.492511 -1.67093 0
M  V30 4884 C 471.799 -1.07118 -3.23633 0
M  V30 4885 H 472.992 -2.30692 -1.91628 0
M  V30 4886 H 470.545 -1.22593 -0.969572 0
M  V30 4887 H 471.28 -0.102578 -3.24138 0
M  V30 4888 H 471.065 -1.86479 -3.44917 0
M  V30 4889 H 472.555 -1.06806 -4.03711 0
M  V30 4890 N 472.992 0.995999 -1.22138 0
M  V30 4891 C 474.217 1.77601 -1.0711 0
M  V30 4892 C 474.642 1.84339 0.374264 0
M  V30 4893 O 474 1.29359 1.27028 0
M  V30 4894 C 474.048 3.18897 -1.68336 0
M  V30 4895 O 473.152 4.01663 -0.934928 0
M  V30 4896 H 472.493 0.547011 -0.376397 0
M  V30 4897 H 475.023 1.25137 -1.6187 0
M  V30 4898 H 475.033 3.69539 -1.72931 0
M  V30 4899 H 473.708 3.13308 -2.73516 0
M  V30 4900 H 472.285 3.60204 -0.964751 0
M  V30 4901 N 474.47 1.03057 1.19235 0
M  V30 4902 C 475.719 0.72326 1.88287 0
M  V30 4903 C 476.032 -0.751333 1.80594 0
M  V30 4904 O 477.238 -1.17176 2.44912 0
M  V30 4905 C 475.694 1.24338 3.3774 0
M  V30 4906 C 475.302 2.74587 3.53986 0
M  V30 4907 C 477.046 1.01213 4.12257 0
M  V30 4908 C 474.953 3.20009 4.97341 0
M  V30 4909 H 473.883 0.266848 0.705201 0
M  V30 4910 H 476.534 1.24509 1.34795 0
M  V30 4911 H 474.916 0.649457 3.90638 0
M  V30 4912 H 476.09 3.39649 3.11408 0
M  V30 4913 H 474.405 2.9601 2.9286 0
M  V30 4914 H 477.002 1.32675 5.17978 0
M  V30 4915 H 477.345 -0.051001 4.16269 0
M  V30 4916 H 477.878 1.57014 3.65501 0
M  V30 4917 H 474.617 4.25659 4.98493 0
M  V30 4918 H 474.137 2.59676 5.40674 0
M  V30 4919 H 475.816 3.13447 5.66003 0
M  V30 4920 N 475.948 -1.35272 0.808662 0
M  V30 4921 C 477.194 -1.99003 0.390581 0
M  V30 4922 C 477.527 -1.63999 -1.0401 0
M  V30 4923 O 476.802 -0.904368 -1.72196 0
M  V30 4924 C 477.085 -3.55454 0.576566 0
M  V30 4925 C 476.938 -4.00249 2.05233 0
M  V30 4926 C 478.257 -4.401 0.00354277 0
M  V30 4927 H 475.376 -0.722917 0.143388 0
M  V30 4928 H 478.018 -1.6039 1.01858 0
M  V30 4929 H 476.168 -3.88477 0.0419766 0
M  V30 4930 H 477.84 -3.77626 2.64946 0
M  V30 4931 H 476.083 -3.51082 2.54801 0
M  V30 4932 H 476.754 -5.0911 2.13333 0
M  V30 4933 H 479.23 -4.13548 0.460117 0
M  V30 4934 H 478.106 -5.48656 0.163575 0
M  V30 4935 H 478.367 -4.28444 -1.09032 0
M  V30 4936 N 477.426 -0.562348 -1.47226 0
M  V30 4937 C 478.651 -0.0432632 -2.07355 0
M  V30 4938 C 479.076 1.24332 -1.41149 0
M  V30 4939 O 478.434 1.74603 -0.488226 0
M  V30 4940 C 478.482 0.130288 -3.60365 0
M  V30 4941 O 477.586 1.19166 -3.94808 0
M  V30 4942 H 476.927 -0.0536334 -0.66183 0
M  V30 4943 H 479.457 -0.779495 -1.89169 0
M  V30 4944 H 479.467 0.342881 -4.06557 0
M  V30 4945 H 478.142 -0.809389 -4.07948 0
M  V30 4946 H 476.719 0.959153 -3.60354 0
M  V30 4947 N 478.904 1.54736 -0.299062 0
M  V30 4948 C 479.834 2.26409 0.571085 0
M  V30 4949 C 480.815 1.2629 1.13951 0
M  V30 4950 O 482 1.55059 1.16921 0
M  V30 4951 C 479.13 3.00338 1.74396 0
M  V30 4952 C 478.084 4.07588 1.30599 0
M  V30 4953 C 477.41 4.69222 2.56387 0
M  V30 4954 C 478.71 5.20455 0.438645 0
M  V30 4955 H 480.404 2.99388 -0.0266991 0
M  V30 4956 H 477.95 1.43993 -0.0142812 0
M  V30 4957 H 479.903 3.49198 2.35878 0
M  V30 4958 H 478.627 2.24934 2.36796 0
M  V30 4959 H 477.286 3.59575 0.71424 0
M  V30 4960 H 476.934 3.9046 3.17097 0
M  V30 4961 H 476.634 5.41653 2.27784 0
M  V30 4962 H 478.158 5.20844 3.18675 0
M  V30 4963 H 479.572 5.65221 0.959085 0
M  V30 4964 H 477.969 5.99594 0.246466 0
M  V30 4965 H 479.039 4.8192 -0.536738 0
M  V30 4966 N 480.382 0.0267497 1.57577 0
M  V30 4967 C 481.332 -0.965003 2.06571 0
M  V30 4968 C 482.316 -1.28694 0.965746 0
M  V30 4969 O 483.508 -1.27345 1.22932 0
M  V30 4970 C 480.637 -2.24821 2.59443 0
M  V30 4971 C 479.723 -1.95474 3.76365 0
M  V30 4972 N 480.114 -1.36387 4.87065 0
M  V30 4973 C 478.412 -2.25478 3.84806 0
M  V30 4974 C 479.113 -1.24119 5.68304 0
M  V30 4975 N 478.089 -1.7359 5.15138 0
M  V30 4976 H 481.891 -0.503095 2.89562 0
M  V30 4977 H 479.405 -0.178322 1.61418 0
M  V30 4978 H 481.402 -2.9674 2.92833 0
M  V30 4979 H 480.062 -2.7164 1.77881 0
M  V30 4980 H 481.073 -1.03919 5.07367 0
M  V30 4981 H 477.75 -2.74987 3.14147 0
M  V30 4982 H 479.14 -0.784504 6.67304 0
M  V30 4983 N 481.861 -1.55662 -0.24637 0
M  V30 4984 C 482.824 -1.89558 -1.28842 0
M  V30 4985 C 483.824 -0.772082 -1.41052 0
M  V30 4986 O 485.014 -1.04007 -1.39743 0
M  V30 4987 C 482.146 -2.12449 -2.66605 0
M  V30 4988 H 483.339 -2.82735 -1.00004 0
M  V30 4989 H 480.892 -1.48562 -0.485684 0
M  V30 4990 H 481.627 -1.21742 -3.00582 0
M  V30 4991 H 481.412 -2.94273 -2.59125 0
M  V30 4992 H 482.902 -2.39854 -3.41847 0
M  V30 4993 N 483.339 0.512053 -1.4905 0
M  V30 4994 C 484.564 1.2959 -1.6193 0
M  V30 4995 C 484.989 1.85906 -0.286454 0
M  V30 4996 O 484.347 1.65312 0.744426 0
M  V30 4997 C 484.395 2.40987 -2.68249 0
M  V30 4998 O 483.499 3.44531 -2.26654 0
M  V30 4999 H 482.84 0.383053 -0.542371 0
M  V30 5000 H 485.37 0.614231 -1.95162 0
M  V30 5001 H 485.38 2.86913 -2.90078 0
M  V30 5002 H 484.055 1.99361 -3.65004 0
M  V30 5003 H 482.632 3.046 -2.15112 0
M  V30 5004 N 484.817 1.37938 0.762283 0
M  V30 5005 C 486.042 1.37059 1.55659 0
M  V30 5006 C 486.467 -0.0396123 1.88058 0
M  V30 5007 O 485.825 -1.01929 1.49934 0
M  V30 5008 C 485.873 2.22494 2.83776 0
M  V30 5009 O 484.977 1.63607 3.78559 0
M  V30 5010 H 484.318 0.467892 0.47114 0
M  V30 5011 H 486.848 1.81587 0.942725 0
M  V30 5012 H 486.858 2.36045 3.32786 0
M  V30 5013 H 485.533 3.24993 2.59524 0
M  V30 5014 H 484.11 1.5915 3.37233 0
M  V30 5015 N 486.295 -0.989507 1.22664 0
M  V30 5016 C 487.535 -1.7447 1.06488 0
M  V30 5017 C 487.899 -1.8794 -0.392737 0
M  V30 5018 O 489.1 -2.60175 -0.675446 0
M  V30 5019 C 487.371 -3.11043 1.76031 0
M  V30 5020 S 488.93 -4.02258 1.7531 0
M  V30 5021 H 485.748 -0.600123 0.381278 0
M  V30 5022 H 488.35 -1.18283 1.55658 0
M  V30 5023 H 487.054 -2.98884 2.81241 0
M  V30 5024 H 486.585 -3.72301 1.27105 0
M  V30 5025 H 488.6 -4.89623 0.805208 0
M  V30 5026 N 487.773 -1.03688 -1.18687 0
M  V30 5027 C 489.021 -0.736572 -1.88199 0
M  V30 5028 C 489.342 0.737665 -1.80509 0
M  V30 5029 O 488.612 1.53204 -1.22088 0
M  V30 5030 H 487.192 -0.269466 -0.696704 0
M  V30 5031 H 489.854 -1.31282 -1.44052 0
M  V30 5032 H 488.95 -1.03802 -2.94332 0
M  V30 5033 N 489.251 1.34841 -0.815825 0
M  V30 5034 C 490.499 1.98107 -0.399744 0
M  V30 5035 C 490.82 1.65019 1.03894 0
M  V30 5036 O 490.09 0.937311 1.72021 0
M  V30 5037 H 488.67 0.732827 -0.144823 0
M  V30 5038 H 491.332 1.64599 -1.0437 0
M  V30 5039 H 490.428 3.07856 -0.512965 0
M  V30 5040 N 490.729 0.570148 1.46925 0
M  V30 5041 C 492.145 0.23087 1.57921 0
M  V30 5042 C 492.345 -1.26676 1.56702 0
M  V30 5043 O 491.401 -2.04774 1.47729 0
M  V30 5044 C 492.714 0.868973 2.8787 0
M  V30 5045 C 494.262 0.841397 3.01479 0
M  V30 5046 C 494.737 1.45881 4.34146 0
M  V30 5047 N 496.228 1.42258 4.40814 0
M  V30 5048 C 496.963 1.8698 5.42057 0
M  V30 5049 N 496.459 2.39618 6.50042 0
M  V30 5050 N 498.252 1.77972 5.33181 0
M  V30 5051 H 490.403 1.54301 1.45962 0
M  V30 5052 H 492.666 0.644224 0.69547 0
M  V30 5053 H 492.372 1.922 2.94537 0
M  V30 5054 H 492.246 0.369682 3.75384 0
M  V30 5055 H 494.633 -0.202973 2.94401 0
M  V30 5056 H 494.714 1.37858 2.15474 0
M  V30 5057 H 494.358 2.50231 4.4198 0
M  V30 5058 H 494.288 0.896958 5.18905 0
M  V30 5059 H 496.779 1.03768 3.63374 0
M  V30 5060 H 497.092 2.71633 7.23488 0
M  V30 5061 H 495.437 2.43636 6.50897 0
M  V30 5062 H 498.628 1.36617 4.4772 0
M  V30 5063 H 498.801 2.13143 6.11943 0
M  V30 5064 N 492.207 -1.54576 0.307264 0
M  V30 5065 C 493.137 -2.26708 -0.55907 0
M  V30 5066 C 494.118 -1.26893 -1.1328 0
M  V30 5067 O 495.303 -1.55677 -1.16097 0
M  V30 5068 C 492.433 -3.01259 -1.72801 0
M  V30 5069 C 491.387 -4.08275 -1.28435 0
M  V30 5070 C 490.713 -4.70575 -2.53895 0
M  V30 5071 C 492.013 -5.2068 -0.411038 0
M  V30 5072 H 493.707 -2.9937 0.042576 0
M  V30 5073 H 491.253 -1.43983 0.0219173 0
M  V30 5074 H 493.206 -3.50444 -2.34023 0
M  V30 5075 H 491.93 -2.26187 -2.356 0
M  V30 5076 H 490.589 -3.59949 -0.695161 0
M  V30 5077 H 490.237 -3.92136 -3.15021 0
M  V30 5078 H 489.937 -5.42854 -2.24908 0
M  V30 5079 H 491.461 -5.22527 -3.15908 0
M  V30 5080 H 492.875 -5.65721 -0.929097 0
M  V30 5081 H 491.272 -5.99716 -0.214664 0
M  V30 5082 H 492.342 -4.81629 0.562287 0
M  V30 5083 N 493.685 -0.035106 -1.57561 0
M  V30 5084 C 494.617 0.973604 -2.07494 0
M  V30 5085 C 495.63 1.28504 -0.999534 0
M  V30 5086 O 496.819 1.24864 -1.27559 0
M  V30 5087 C 493.919 2.29945 -2.48955 0
M  V30 5088 C 493.092 2.1723 -3.79644 0
M  V30 5089 C 492.151 3.328 -4.07592 0
M  V30 5090 O 491.177 3.09418 -4.77754 0
M  V30 5091 N 492.379 4.56779 -3.58236 0
M  V30 5092 H 495.144 0.547525 -2.94656 0
M  V30 5093 H 492.705 0.151515 -1.61189 0
M  V30 5094 H 494.697 3.06097 -2.64739 0
M  V30 5095 H 493.267 2.64173 -1.67126 0
M  V30 5096 H 492.487 1.25768 -3.73599 0
M  V30 5097 H 493.775 2.05945 -4.65257 0
M  V30 5098 H 493.173 4.78668 -3.01485 0
M  V30 5099 H 491.73 5.30079 -3.79288 0
M  V30 5100 N 495.163 1.55791 0.238111 0
M  V30 5101 C 496.391 1.82098 0.982233 0
M  V30 5102 C 496.806 0.612025 1.78605 0
M  V30 5103 O 496.163 -0.419381 1.77616 0
M  V30 5104 C 496.214 3.0673 1.91309 0
M  V30 5105 O 495.935 4.2296 1.14179 0
M  V30 5106 C 497.436 3.45903 2.77248 0
M  V30 5107 H 494.656 0.605748 0.288635 0
M  V30 5108 H 497.2 2.02862 0.258341 0
M  V30 5109 H 495.355 2.87991 2.59114 0
M  V30 5110 H 495.769 4.93653 1.7722 0
M  V30 5111 H 497.243 4.36189 3.38295 0
M  V30 5112 H 497.72 2.66891 3.48806 0
M  V30 5113 H 498.326 3.67024 2.14881 0
M  V30 5114 N 496.642 -0.504142 1.49319 0
M  V30 5115 C 497.867 -1.28729 1.62615 0
M  V30 5116 C 498.292 -1.85752 0.296309 0
M  V30 5117 O 497.65 -1.65704 -0.735649 0
M  V30 5118 C 497.698 -2.39561 2.69524 0
M  V30 5119 O 496.802 -3.43324 2.28478 0
M  V30 5120 H 496.143 -0.380172 0.544395 0
M  V30 5121 H 498.673 -0.603872 1.95485 0
M  V30 5122 H 498.683 -2.8537 2.91595 0
M  V30 5123 H 497.358 -1.97423 3.66056 0
M  V30 5124 H 495.935 -3.03455 2.16725 0
M  V30 5125 N 498.12 -1.38341 -0.754957 0
M  V30 5126 C 499.531 -1.30803 -1.3322 0
M  V30 5127 C 499.882 0.0368 -1.96165 0
M  V30 5128 O 499.007 0.938844 -1.94974 0
M  V30 5129 C 499.602 -2.3688 -2.42225 0
M  V30 5130 C 498.161 -2.32925 -2.95674 0
M  V30 5131 C 497.308 -2.19819 -1.69042 0
M  V30 5132 H 500.259 -1.48719 -0.553937 0
M  V30 5133 H 500.28 -2.02517 -3.22129 0
M  V30 5134 H 499.792 -3.34747 -1.96383 0
M  V30 5135 H 497.893 -1.38635 -3.45848 0
M  V30 5136 H 498.006 -3.27008 -3.50146 0
M  V30 5137 H 496.37 -1.66648 -1.92615 0
M  V30 5138 H 497.153 -3.19625 -1.25279 0
M  V30 5139 N 499.598 0.982988 -1.23187 0
M  V30 5140 C 500.561 2.05649 -1.01198 0
M  V30 5141 C 501.561 1.6078 0.0252464 0
M  V30 5142 O 502.751 1.72878 -0.214243 0
M  V30 5143 C 499.883 3.36744 -0.530656 0
M  V30 5144 H 501.076 2.2659 -1.96461 0
M  V30 5145 H 498.629 1.15602 -1.05195 0
M  V30 5146 H 499.364 3.21492 0.425873 0
M  V30 5147 H 499.149 3.7065 -1.2791 0
M  V30 5148 H 500.639 4.15705 -0.397366 0
M  V30 5149 N 501.076 1.04316 1.18135 0
M  V30 5150 C 502.487 0.775505 1.69832 0
M  V30 5151 C 502.838 -0.703348 1.8316 0
M  V30 5152 O 501.963 -1.54729 1.51287 0
M  V30 5153 C 502.558 1.40112 3.0847 0
M  V30 5154 C 501.117 1.18172 3.57368 0
M  V30 5155 C 500.264 1.49022 2.33854 0
M  V30 5156 H 503.215 1.20925 1.02775 0
M  V30 5157 H 503.236 0.805672 3.71873 0
M  V30 5158 H 502.748 2.47744 2.98738 0
M  V30 5159 H 500.849 0.124258 3.72393 0
M  V30 5160 H 500.962 1.8805 4.40652 0
M  V30 5161 H 499.326 0.909995 2.37889 0
M  V30 5162 H 500.109 2.57768 2.26738 0
M  V30 5163 N 502.554 -1.34406 0.822964 0
M  V30 5164 C 503.803 -1.97542 0.407458 0
M  V30 5165 C 504.116 -1.65973 -1.035 0
M  V30 5166 O 505.322 -2.22598 -1.55442 0
M  V30 5167 C 503.778 -3.53463 0.677623 0
M  V30 5168 C 503.386 -3.93925 2.1337 0
M  V30 5169 C 505.13 -4.23229 0.328284 0
M  V30 5170 C 503.037 -5.42759 2.34876 0
M  V30 5171 H 501.967 -0.739207 0.148623 0
M  V30 5172 H 504.618 -1.53248 1.00932 0
M  V30 5173 H 503 -3.96 0.00558965 0
M  V30 5174 H 504.174 -3.62494 2.8449 0
M  V30 5175 H 502.489 -3.37097 2.44448 0
M  V30 5176 H 505.086 -5.32659 0.466794 0
M  V30 5177 H 505.429 -4.09899 -0.727224 0
M  V30 5178 H 505.962 -3.86169 0.954896 0
M  V30 5179 H 502.701 -5.61075 3.38932 0
M  V30 5180 H 502.221 -5.75704 1.68299 0
M  V30 5181 H 503.9 -6.0944 2.17236 0
M  V30 5182 N 504.032 -0.577932 -1.46621 0
M  V30 5183 C 504.964 0.195801 -2.28362 0
M  V30 5184 C 505.977 0.859983 -1.38232 0
M  V30 5185 O 507.166 0.730349 -1.62875 0
M  V30 5186 C 504.266 1.29639 -3.13124 0
M  V30 5187 C 503.439 0.725049 -4.31349 0
M  V30 5188 C 502.498 1.71274 -4.97546 0
M  V30 5189 O 501.524 1.25067 -5.5529 0
M  V30 5190 N 502.726 3.04672 -4.94121 0
M  V30 5191 H 505.491 -0.505468 -2.95407 0
M  V30 5192 H 503.052 -0.415381 -1.56481 0
M  V30 5193 H 505.044 1.95631 -3.54275 0
M  V30 5194 H 503.614 1.90059 -2.48186 0
M  V30 5195 H 502.834 -0.112205 -3.9404 0
M  V30 5196 H 504.122 0.323034 -5.07774 0
M  V30 5197 H 503.52 3.4484 -4.48444 0
M  V30 5198 H 502.077 3.66166 -5.39227 0
M  V30 5199 N 505.51 1.54411 -0.315457 0
M  V30 5200 C 506.738 2.04833 0.291738 0
M  V30 5201 C 507.153 1.19203 1.46411 0
M  V30 5202 O 506.51 0.220867 1.81159 0
M  V30 5203 C 506.561 3.53969 0.73404 0
M  V30 5204 O 506.282 4.36346 -0.391682 0
M  V30 5205 C 507.783 4.2045 1.40489 0
M  V30 5206 H 505.003 0.668195 0.0612947 0
M  V30 5207 H 507.547 1.99276 -0.45929 0
M  V30 5208 H 505.702 3.5984 1.43506 0
M  V30 5209 H 506.116 5.24481 -0.0447088 0
M  V30 5210 H 507.59 5.26278 1.66539 0
M  V30 5211 H 508.067 3.71067 2.3496 0
M  V30 5212 H 508.673 4.18694 0.746662 0
M  V30 5213 N 506.988 0.0434614 1.5754 0
M  V30 5214 C 508.216 -0.641835 1.96693 0
M  V30 5215 C 508.631 -1.64832 0.920652 0
M  V30 5216 O 507.988 -1.82247 -0.095993 0
M  V30 5217 C 508.039 -1.33557 3.35924 0
M  V30 5218 O 507.76 -0.369403 4.3654 0
M  V30 5219 C 509.261 -2.11135 3.89791 0
M  V30 5220 H 506.481 -0.176013 0.647503 0
M  V30 5221 H 509.025 0.107478 2.04217 0
M  V30 5222 H 507.18 -2.03617 3.29574 0
M  V30 5223 H 507.594 -0.863674 5.1734 0
M  V30 5224 H 509.068 -2.55107 4.89514 0
M  V30 5225 H 509.545 -2.95634 3.24803 0
M  V30 5226 H 510.151 -1.46002 3.99454 0
M  V30 5227 N 508.466 -1.55915 -0.229846 0
M  V30 5228 C 509.877 -1.68809 -0.797531 0
M  V30 5229 C 510.228 -0.643995 -1.8533 0
M  V30 5230 O 509.353 0.206492 -2.15413 0
M  V30 5231 C 509.948 -3.06043 -1.45338 0
M  V30 5232 C 508.507 -3.20819 -1.96856 0
M  V30 5233 C 507.654 -2.6472 -0.825736 0
M  V30 5234 H 510.605 -1.58699 -0.00533733 0
M  V30 5235 H 510.626 -3.01438 -2.32196 0
M  V30 5236 H 510.138 -3.82012 -0.684743 0
M  V30 5237 H 508.239 -2.49704 -2.76548 0
M  V30 5238 H 508.352 -4.27937 -2.15423 0
M  V30 5239 H 506.716 -2.22985 -1.23084 0
M  V30 5240 H 507.499 -3.43229 -0.0699019 0
M  V30 5241 N 509.944 0.496216 -1.49584 0
M  V30 5242 C 511.355 1.07765 -1.52459 0
M  V30 5243 C 511.706 1.93679 -0.31353 0
M  V30 5244 O 510.831 2.08588 0.576186 0
M  V30 5245 C 511.426 1.96111 -2.76271 0
M  V30 5246 C 509.985 2.49409 -2.81908 0
M  V30 5247 C 509.132 1.27142 -2.46435 0
M  V30 5248 H 512.083 0.279914 -1.56212 0
M  V30 5249 H 512.104 2.80862 -2.56704 0
M  V30 5250 H 511.616 1.33555 -3.64396 0
M  V30 5251 H 509.717 3.1559 -1.98074 0
M  V30 5252 H 509.83 2.86234 -3.84196 0
M  V30 5253 H 508.194 1.59818 -1.98319 0
M  V30 5254 H 508.977 0.662866 -3.3684 0
M  V30 5255 N 511.423 1.38739 0.74761 0
M  V30 5256 C 512.37 1.36449 1.86146 0
M  V30 5257 C 513.34 0.226098 1.64554 0
M  V30 5258 O 514.525 0.41926 1.86137 0
M  V30 5259 C 511.665 1.2013 3.23516 0
M  V30 5260 C 510.778 2.43407 3.56899 0
M  V30 5261 C 509.913 2.19773 4.83605 0
M  V30 5262 C 508.952 3.3879 5.09792 0
M  V30 5263 N 508.089 3.14553 6.27695 0
M  V30 5264 H 512.929 2.3167 1.87438 0
M  V30 5265 H 510.466 1.15094 0.916063 0
M  V30 5266 H 512.424 1.08683 4.02795 0
M  V30 5267 H 511.054 0.285453 3.21535 0
M  V30 5268 H 510.106 2.65504 2.72418 0
M  V30 5269 H 511.418 3.32094 3.72176 0
M  V30 5270 H 510.572 2.05496 5.70838 0
M  V30 5271 H 509.311 1.28461 4.70478 0
M  V30 5272 H 508.316 3.53579 4.21025 0
M  V30 5273 H 509.541 4.30986 5.24812 0
M  V30 5274 H 507.487 2.25893 6.1588 0
M  V30 5275 H 507.404 3.96791 6.435 0
M  V30 5276 H 508.672 3.03943 7.17801 0
M  V30 5277 N 512.901 -0.976442 1.23707 0
M  V30 5278 C 514.178 -1.69296 0.979699 0
M  V30 5279 C 514.558 -2.0508 -0.500555 0
M  V30 5280 O 513.906 -1.74708 -1.47273 0
M  V30 5281 C 514.116 -2.93143 1.89389 0
M  V30 5282 C 515.464 -3.65572 2.15968 0
M  V30 5283 O 516.488 -3.03184 1.86971 0
M  V30 5284 O 515.347 -4.77859 2.65167 0
M  V30 5285 H 512.441 -0.739708 0.369812 0
M  V30 5286 H 514.987 -1.03131 1.34767 0
M  V30 5287 H 513.759 -2.63327 2.89439 0
M  V30 5288 H 513.382 -3.67044 1.52854 0
M  V30 5289 N 514.379 -1.04941 -1.1758 0
M  V30 5290 C 515.607 -0.778294 -1.91703 0
M  V30 5291 C 516.022 0.665697 -1.76675 0
M  V30 5292 O 515.379 1.45456 -1.10222 0
M  V30 5293 C 515.43 -1.14628 -3.42845 0
M  V30 5294 O 515.151 -2.53359 -3.57409 0
M  V30 5295 C 516.652 -0.900931 -4.34049 0
M  V30 5296 H 513.872 -0.283167 -0.608323 0
M  V30 5297 H 516.416 -1.39942 -1.49119 0
M  V30 5298 H 514.571 -0.569953 -3.83184 0
M  V30 5299 H 514.985 -2.67709 -4.51035 0
M  V30 5300 H 516.459 -1.20817 -5.38616 0
M  V30 5301 H 516.936 0.163966 -4.38894 0
M  V30 5302 H 517.542 -1.46097 -3.99419 0
M  V30 5303 N 515.857 1.33968 -0.830081 0
M  V30 5304 C 517.097 1.99879 -0.427521 0
M  V30 5305 C 517.461 1.64355 0.992546 0
M  V30 5306 O 518.662 2.23164 1.49837 0
M  V30 5307 C 516.933 3.51771 -0.631815 0
M  V30 5308 S 518.492 4.37608 -0.323168 0
M  V30 5309 H 515.31 0.692485 -0.161202 0
M  V30 5310 H 517.912 1.63129 -1.07745 0
M  V30 5311 H 516.616 3.75113 -1.66488 0
M  V30 5312 H 516.147 3.93386 0.0325936 0
M  V30 5313 H 518.162 4.88683 0.860432 0
M  V30 5314 N 517.335 0.585699 1.46312 0
M  V30 5315 C 518.56 0.0762461 2.0726 0
M  V30 5316 C 518.985 -1.22071 1.43109 0
M  V30 5317 O 518.343 -1.73804 0.515942 0
M  V30 5318 C 518.391 -0.0729404 3.60526 0
M  V30 5319 O 517.495 -1.1287 3.96654 0
M  V30 5320 H 516.836 0.0641558 0.660893 0
M  V30 5321 H 519.366 0.809492 1.87905 0
M  V30 5322 H 519.376 -0.278158 4.07051 0
M  V30 5323 H 518.051 0.874188 4.06609 0
M  V30 5324 H 516.628 -0.901703 3.61834 0
M  V30 5325 N 518.813 -1.54241 0.323641 0
M  V30 5326 C 520.224 -1.85975 -0.164405 0
M  V30 5327 C 520.575 -1.24529 -1.51615 0
M  V30 5328 O 519.7 -0.551351 -2.09258 0
M  V30 5329 C 520.295 -3.37424 -0.305091 0
M  V30 5330 C 518.854 -3.69107 -0.737358 0
M  V30 5331 C 518.001 -2.76942 0.140884 0
M  V30 5332 H 520.952 -1.49088 0.543922 0
M  V30 5333 H 520.973 -3.63147 -1.13598 0
M  V30 5334 H 520.485 -3.82116 0.678876 0
M  V30 5335 H 518.586 -3.29947 -1.73107 0
M  V30 5336 H 518.699 -4.76035 -0.541053 0
M  V30 5337 H 517.063 -2.51795 -0.383572 0
M  V30 5338 H 517.846 -3.24461 1.12162 0
M  V30 5339 N 520.291 -0.0518155 -1.57515 0
M  V30 5340 C 521.201 0.937539 -2.15052 0
M  V30 5341 C 522.217 1.34121 -1.10849 0
M  V30 5342 O 523.393 1.418 -1.4302 0
M  V30 5343 C 520.458 2.19379 -2.68466 0
M  V30 5344 C 519.519 1.84841 -3.87469 0
M  V30 5345 C 518.752 3.04477 -4.38326 0
M  V30 5346 O 518.975 4.17868 -3.88256 0
M  V30 5347 O 517.909 2.85453 -5.29906 0
M  V30 5348 H 521.735 0.478201 -2.99912 0
M  V30 5349 H 519.32 0.17012 -1.48428 0
M  V30 5350 H 521.202 2.93084 -3.02787 0
M  V30 5351 H 519.877 2.64449 -1.86677 0
M  V30 5352 H 518.784 1.08449 -3.58036 0
M  V30 5353 H 520.117 1.44569 -4.7049 0
M  V30 5354 N 521.769 1.56035 0.221574 0
M  V30 5355 C 522.699 1.95434 1.2778 0
M  V30 5356 C 523.68 0.822564 1.48889 0
M  V30 5357 O 524.865 1.08486 1.61072 0
M  V30 5358 C 521.995 2.27102 2.62759 0
M  V30 5359 C 520.949 3.4277 2.56306 0
M  V30 5360 C 520.275 3.60043 3.95314 0
M  V30 5361 C 521.575 4.77742 2.11093 0
M  V30 5362 H 523.269 2.83912 0.950504 0
M  V30 5363 H 520.815 1.36596 0.455791 0
M  V30 5364 H 522.768 2.53256 3.36807 0
M  V30 5365 H 521.492 1.35478 2.97176 0
M  V30 5366 H 520.151 3.16664 1.84715 0
M  V30 5367 H 519.799 2.65794 4.27039 0
M  V30 5368 H 519.499 4.37841 3.91879 0
M  V30 5369 H 521.023 3.88545 4.71025 0
M  V30 5370 H 522.437 5.03102 2.74885 0
M  V30 5371 H 520.834 5.58823 2.18716 0
M  V30 5372 H 521.904 4.731 1.06321 0
M  V30 5373 N 523.247 -0.488276 1.49845 0
M  V30 5374 C 524.177 -1.59675 1.70371 0
M  V30 5375 C 525.158 -1.60878 0.552473 0
M  V30 5376 O 526.343 -1.77417 0.78973 0
M  V30 5377 C 523.473 -2.98098 1.782 0
M  V30 5378 C 522.427 -3.11761 2.93239 0
M  V30 5379 C 521.753 -4.51661 2.86193 0
M  V30 5380 C 523.053 -2.90589 4.33999 0
M  V30 5381 H 524.747 -1.42752 2.63177 0
M  V30 5382 H 522.293 -0.685317 1.26647 0
M  V30 5383 H 524.246 -3.75555 1.91144 0
M  V30 5384 H 522.97 -3.16138 0.820018 0
M  V30 5385 H 521.629 -2.36732 2.79917 0
M  V30 5386 H 521.277 -4.66595 1.87877 0
M  V30 5387 H 520.977 -4.61742 3.63412 0
M  V30 5388 H 522.501 -5.31162 3.01163 0
M  V30 5389 H 523.915 -3.57807 4.47936 0
M  V30 5390 H 522.312 -3.1213 5.12538 0
M  V30 5391 H 523.382 -1.86595 4.4756 0
M  V30 5392 N 524.725 -1.39134 -0.740242 0
M  V30 5393 C 525.658 -1.3182 -1.86276 0
M  V30 5394 C 526.636 -0.192794 -1.61453 0
M  V30 5395 O 527.82 -0.372365 -1.84786 0
M  V30 5396 C 524.947 -1.04564 -3.22155 0
M  V30 5397 C 523.993 -2.19224 -3.65846 0
M  V30 5398 S 524.826 -3.81466 -3.75824 0
M  V30 5399 C 525.982 -3.56425 -5.14502 0
M  V30 5400 H 526.215 -2.26822 -1.92195 0
M  V30 5401 H 523.748 -1.25127 -0.904576 0
M  V30 5402 H 525.706 -0.895228 -4.00619 0
M  V30 5403 H 524.367 -0.112578 -3.13898 0
M  V30 5404 H 523.56 -1.95732 -4.6444 0
M  V30 5405 H 523.162 -2.30441 -2.94572 0
M  V30 5406 H 525.454 -3.13366 -6.00673 0
M  V30 5407 H 526.397 -4.54462 -5.43019 0
M  V30 5408 H 526.805 -2.90641 -4.8393 0
M  V30 5409 N 526.204 0.969867 -1.24223 0
M  V30 5410 C 527.429 1.75289 -1.10853 0
M  V30 5411 C 527.854 1.85091 0.335079 0
M  V30 5412 O 527.212 1.32024 1.24255 0
M  V30 5413 C 527.26 3.15255 -1.75062 0
M  V30 5414 O 526.364 3.99589 -1.01992 0
M  V30 5415 H 525.705 0.538904 -0.387915 0
M  V30 5416 H 528.235 1.21675 -1.64488 0
M  V30 5417 H 528.245 3.65787 -1.80731 0
M  V30 5418 H 526.92 3.07436 -2.801 0
M  V30 5419 H 525.497 3.58077 -1.04094 0
M  V30 5420 N 527.682 1.05563 1.17022 0
M  V30 5421 C 528.612 0.681026 2.23348 0
M  V30 5422 C 529.593 -0.322983 1.67005 0
M  V30 5423 O 530.778 -0.199746 1.9317 0
M  V30 5424 C 527.908 0.0589053 3.4725 0
M  V30 5425 C 526.862 0.988082 4.16438 0
M  V30 5426 C 526.188 0.229646 5.34207 0
M  V30 5427 C 527.488 2.31388 4.68249 0
M  V30 5428 H 529.182 1.56993 2.54938 0
M  V30 5429 H 526.728 0.756302 1.2254 0
M  V30 5430 H 528.681 -0.214982 4.20851 0
M  V30 5431 H 527.405 -0.864968 3.14938 0
M  V30 5432 H 526.064 1.24659 3.44754 0
M  V30 5433 H 525.712 -0.697111 4.98146 0
M  V30 5434 H 525.412 0.848815 5.81437 0
M  V30 5435 H 526.936 -0.0368694 6.10589 0
M  V30 5436 H 528.35 2.09964 5.33468 0
M  V30 5437 H 526.747 2.88736 5.26072 0
M  V30 5438 H 527.817 2.94982 3.84855 0
M  V30 5439 N 529.16 -1.33526 0.837174 0
M  V30 5440 C 530.409 -1.97098 0.428387 0
M  V30 5441 C 530.722 -1.67062 -1.01734 0
M  V30 5442 O 531.928 -2.24235 -1.53072 0
M  V30 5443 C 530.384 -3.52725 0.715075 0
M  V30 5444 C 529.992 -3.9164 2.17537 0
M  V30 5445 C 531.736 -4.22857 0.373154 0
M  V30 5446 C 529.643 -5.40237 2.40619 0
M  V30 5447 H 528.573 -0.737589 0.156455 0
M  V30 5448 H 531.224 -1.52169 1.02552 0
M  V30 5449 H 529.606 -3.95971 0.0475904 0
M  V30 5450 H 530.78 -3.59456 2.88319 0
M  V30 5451 H 529.095 -3.34485 2.4801 0
M  V30 5452 H 531.692 -5.32133 0.523264 0
M  V30 5453 H 532.035 -4.10647 -0.683708 0
M  V30 5454 H 532.568 -3.85135 0.995801 0
M  V30 5455 H 529.307 -5.57449 3.44864 0
M  V30 5456 H 528.827 -5.73887 1.74396 0
M  V30 5457 H 530.506 -6.07102 2.23688 0
M  V30 5458 N 530.638 -0.59345 -1.46 0
M  V30 5459 C 531.57 0.171569 -2.28557 0
M  V30 5460 C 532.583 0.845273 -1.39137 0
M  V30 5461 O 533.772 0.713033 -1.6364 0
M  V30 5462 C 530.872 1.26311 -3.14482 0
M  V30 5463 C 530.045 0.679258 -4.32094 0
M  V30 5464 C 529.104 1.65987 -4.99334 0
M  V30 5465 O 528.13 1.19171 -5.56585 0
M  V30 5466 N 529.332 2.99414 -4.97324 0
M  V30 5467 H 532.097 -0.536771 -2.94854 0
M  V30 5468 H 529.658 -0.431954 -1.56031 0
M  V30 5469 H 531.65 1.91863 -3.5633 0
M  V30 5470 H 530.22 1.87416 -2.50188 0
M  V30 5471 H 529.44 -0.153992 -3.93899 0
M  V30 5472 H 530.728 0.26916 -5.08088 0
M  V30 5473 H 530.126 3.40064 -4.52076 0
M  V30 5474 H 528.683 3.60426 -5.4308 0
M  V30 5475 N 532.116 1.54067 -0.331816 0
M  V30 5476 C 533.344 2.05131 0.269996 0
M  V30 5477 C 533.759 1.20749 1.45138 0
M  V30 5478 O 533.116 0.240069 1.80914 0
M  V30 5479 C 533.167 3.54728 0.696456 0
M  V30 5480 O 532.888 4.35906 -0.43794 0
M  V30 5481 C 534.389 4.21916 1.36021 0
M  V30 5482 H 531.609 0.668807 0.0542042 0
M  V30 5483 H 534.153 1.98777 -0.4804 0
M  V30 5484 H 532.308 3.61342 1.39681 0
M  V30 5485 H 532.722 5.24404 -0.100334 0
M  V30 5486 H 534.196 5.28015 1.60947 0
M  V30 5487 H 534.673 3.73538 2.31011 0
M  V30 5488 H 535.279 4.19463 0.702212 0
M  V30 5489 N 533.594 0.0601682 1.57485 0
M  V30 5490 C 534.541 -0.91112 2.12055 0
M  V30 5491 C 535.511 -1.30298 1.03013 0
M  V30 5492 O 536.696 -1.39087 1.30612 0
M  V30 5493 C 533.836 -2.1775 2.67729 0
M  V30 5494 C 532.949 -1.83933 3.90887 0
M  V30 5495 C 532.084 -3.05096 4.34845 0
M  V30 5496 C 531.123 -2.67241 5.5068 0
M  V30 5497 N 530.26 -3.81127 5.8965 0
M  V30 5498 H 535.1 -0.43888 2.9475 0
M  V30 5499 H 532.637 -0.204995 1.45665 0
M  V30 5500 H 534.595 -2.91866 2.98111 0
M  V30 5501 H 533.225 -2.62535 1.87816 0
M  V30 5502 H 532.277 -0.999287 3.6704 0
M  V30 5503 H 533.589 -1.52074 4.75052 0
M  V30 5504 H 532.743 -3.87502 4.66827 0
M  V30 5505 H 531.482 -3.40139 3.49509 0
M  V30 5506 H 530.487 -1.83254 5.18361 0
M  V30 5507 H 531.712 -2.3338 6.37738 0
M  V30 5508 H 529.658 -4.15954 5.07266 0
M  V30 5509 H 529.575 -3.52997 6.68528 0
M  V30 5510 H 530.843 -4.64145 6.2625 0
M  V30 5511 N 535.072 -1.5615 -0.213296 0
M  V30 5512 C 536.312 -1.81325 -0.943435 0
M  V30 5513 C 536.676 -0.634934 -1.81198 0
M  V30 5514 O 537.877 -0.766166 -2.5765 0
M  V30 5515 C 536.148 -3.11437 -1.75334 0
M  V30 5516 S 537.707 -3.57955 -2.53799 0
M  V30 5517 H 534.525 -0.636538 -0.316766 0
M  V30 5518 H 537.127 -1.94387 -0.208313 0
M  V30 5519 H 535.831 -3.95228 -1.10556 0
M  V30 5520 H 535.362 -3.01204 -2.53061 0
M  V30 5521 H 537.377 -3.21947 -3.77577 0
M  V30 5522 N 536.55 0.480323 -1.50102 0
M  V30 5523 C 537.513 1.56181 -1.6775 0
M  V30 5524 C 538.513 1.51156 -0.548503 0
M  V30 5525 O 539.703 1.5394 -0.815363 0
M  V30 5526 C 536.835 2.95823 -1.69415 0
M  V30 5527 H 538.028 1.41855 -2.6423 0
M  V30 5528 H 535.581 0.70605 -1.39444 0
M  V30 5529 H 536.316 3.15604 -0.745948 0
M  V30 5530 H 536.101 3.00878 -2.51425 0
M  V30 5531 H 537.591 3.74359 -1.85054 0
M  V30 5532 N 538.028 1.39524 0.732853 0
M  V30 5533 C 539.305 1.27373 1.48444 0
M  V30 5534 C 539.685 -0.115725 2.10783 0
M  V30 5535 O 539.033 -1.12713 1.98766 0
M  V30 5536 C 539.243 2.39966 2.53412 0
M  V30 5537 C 540.591 2.79384 3.19733 0
M  V30 5538 O 541.615 2.39431 2.63725 0
M  V30 5539 O 540.474 3.48353 4.21085 0
M  V30 5540 H 537.568 0.499272 0.659285 0
M  V30 5541 H 540.114 1.51403 0.766496 0
M  V30 5542 H 538.886 3.32845 2.05742 0
M  V30 5543 H 538.509 2.17612 3.32762 0
M  V30 5544 N 539.506 -0.963266 1.24736 0
M  V30 5545 C 540.783 -1.68248 0.9976 0
M  V30 5546 C 541.163 -2.05599 -0.478776 0
M  V30 5547 O 540.511 -1.7626 -1.45412 0
M  V30 5548 C 540.721 -2.91118 1.92487 0
M  V30 5549 C 542.069 -3.63261 2.19833 0
M  V30 5550 O 543.093 -3.01184 1.90176 0
M  V30 5551 O 541.952 -4.75019 2.7022 0
M  V30 5552 H 539.046 -0.735744 0.377637 0
M  V30 5553 H 541.592 -1.01696 1.35853 0
M  V30 5554 H 540.364 -2.60242 2.92215 0
M  V30 5555 H 539.987 -3.65402 1.56738 0
M  V30 5556 N 540.985 -1.06182 -1.16461 0
M  V30 5557 C 541.948 -0.675723 -2.19013 0
M  V30 5558 C 542.948 0.277963 -1.58379 0
M  V30 5559 O 544.138 0.0604962 -1.74095 0
M  V30 5560 C 541.27 0.00591459 -3.40899 0
M  V30 5561 H 542.463 -1.58353 -2.54685 0
M  V30 5562 H 540.016 -0.856908 -1.30716 0
M  V30 5563 H 540.751 0.92652 -3.10783 0
M  V30 5564 H 540.536 -0.67984 -3.86161 0
M  V30 5565 H 542.026 0.26181 -4.16778 0
M  V30 5566 N 542.463 1.3308 -0.844243 0
M  V30 5567 C 543.396 2.27075 -0.226279 0
M  V30 5568 C 544.374 1.49911 0.629716 0
M  V30 5569 O 545.558 1.79068 0.588803 0
M  V30 5570 C 542.685 3.31767 0.681782 0
M  V30 5571 C 541.731 4.26384 -0.0994565 0
M  V30 5572 S 542.564 5.15186 -1.46094 0
M  V30 5573 C 543.72 6.23405 -0.558319 0
M  V30 5574 H 543.953 2.79141 -1.02312 0
M  V30 5575 H 541.486 1.40452 -0.641292 0
M  V30 5576 H 543.444 3.92566 1.20008 0
M  V30 5577 H 542.105 2.78507 1.45234 0
M  V30 5578 H 541.298 5.00514 0.591733 0
M  V30 5579 H 540.9 3.69949 -0.548991 0
M  V30 5580 H 543.192 6.77069 0.241672 0
M  V30 5581 H 544.135 6.96619 -1.26995 0
M  V30 5582 H 544.543 5.64333 -0.13728 0
M  V30 5583 N 543.941 0.601185 1.45683 0
M  V30 5584 C 545.169 0.100054 2.06658 0
M  V30 5585 C 545.584 -1.21285 1.44691 0
M  V30 5586 O 544.941 -1.73735 0.558772 0
M  V30 5587 C 544.992 -0.0528579 3.61461 0
M  V30 5588 O 544.713 1.20809 4.21114 0
M  V30 5589 C 546.214 -0.586193 4.39407 0
M  V30 5590 H 543.434 0.065905 0.667756 0
M  V30 5591 H 545.978 0.827101 1.87028 0
M  V30 5592 H 544.133 -0.730203 3.80456 0
M  V30 5593 H 544.547 1.03368 5.14213 0
M  V30 5594 H 546.021 -0.642297 5.4825 0
M  V30 5595 H 546.498 -1.60713 4.0874 0
M  V30 5596 H 547.104 0.0568935 4.25262 0
M  V30 5597 N 545.419 -1.53889 0.339982 0
M  V30 5598 C 546.349 -2.27843 -0.510856 0
M  V30 5599 C 547.33 -1.29267 -1.10563 0
M  V30 5600 O 548.515 -1.58104 -1.12768 0
M  V30 5601 C 545.645 -3.04857 -1.66372 0
M  V30 5602 C 544.599 -4.10907 -1.19746 0
M  V30 5603 C 543.925 -4.75855 -2.43857 0
M  V30 5604 C 545.225 -5.21435 -0.300501 0
M  V30 5605 H 546.919 -2.99212 0.106067 0
M  V30 5606 H 544.465 -1.43904 0.0524533 0
M  V30 5607 H 546.418 -3.5533 -2.26537 0
M  V30 5608 H 545.142 -2.31133 -2.30749 0
M  V30 5609 H 543.801 -3.61342 -0.618654 0
M  V30 5610 H 543.449 -3.9873 -3.06633 0
M  V30 5611 H 543.149 -5.47502 -2.13343 0
M  V30 5612 H 544.673 -5.2911 -3.04754 0
M  V30 5613 H 546.087 -5.67565 -0.80889 0
M  V30 5614 H 544.484 -6.00036 -0.0874076 0
M  V30 5615 H 545.554 -4.80328 0.664321 0
M  V30 5616 N 546.897 -0.0685191 -1.57451 0
M  V30 5617 C 548.143 0.602239 -1.93652 0
M  V30 5618 C 548.476 1.6946 -0.948526 0
M  V30 5619 O 547.751 1.94487 0.022782 0
M  V30 5620 C 548.034 1.18223 -3.4014 0
M  V30 5621 C 547.887 0.0967431 -4.49696 0
M  V30 5622 C 549.206 2.08872 -3.87377 0
M  V30 5623 H 546.325 0.217453 -0.70419 0
M  V30 5624 H 548.967 -0.133821 -1.89528 0
M  V30 5625 H 547.117 1.80953 -3.43785 0
M  V30 5626 H 548.789 -0.536155 -4.58174 0
M  V30 5627 H 547.032 -0.573063 -4.29998 0
M  V30 5628 H 547.703 0.542894 -5.49324 0
M  V30 5629 H 550.179 1.56081 -3.85717 0
M  V30 5630 H 549.055 2.46389 -4.90493 0
M  V30 5631 H 549.316 2.99572 -3.25129 0
M  V30 5632 N 548.375 1.56261 0.205012 0
M  V30 5633 C 549.305 1.96779 1.257 0
M  V30 5634 C 550.286 0.838309 1.48008 0
M  V30 5635 O 551.471 1.10189 1.59913 0
M  V30 5636 C 548.601 2.29876 2.60335 0
M  V30 5637 C 547.555 3.45469 2.52656 0
M  V30 5638 C 546.881 3.64215 3.91473 0
M  V30 5639 C 548.181 4.79954 2.06014 0
M  V30 5640 H 549.875 2.84904 0.920338 0
M  V30 5641 H 547.421 1.37072 0.441277 0
M  V30 5642 H 549.374 2.56814 3.34102 0
M  V30 5643 H 548.098 1.38622 2.95722 0
M  V30 5644 H 546.757 3.18605 1.81345 0
M  V30 5645 H 546.405 2.70309 4.24196 0
M  V30 5646 H 546.105 4.41973 3.87213 0
M  V30 5647 H 547.629 3.93519 4.66878 0
M  V30 5648 H 549.043 5.05989 2.69533 0
M  V30 5649 H 547.44 5.61111 2.12777 0
M  V30 5650 H 548.51 4.74201 1.01297 0
M  V30 5651 N 549.853 -0.472356 1.50355 0
M  V30 5652 C 550.8 -1.57051 1.69126 0
M  V30 5653 C 551.77 -1.5733 0.532574 0
M  V30 5654 O 552.955 -1.7488 0.762994 0
M  V30 5655 C 550.095 -2.95033 1.79024 0
M  V30 5656 C 549.208 -3.04552 3.06386 0
M  V30 5657 C 548.343 -4.33441 3.07087 0
M  V30 5658 C 547.382 -4.36697 4.28908 0
M  V30 5659 N 546.519 -5.57056 4.27356 0
M  V30 5660 H 551.359 -1.40351 2.62879 0
M  V30 5661 H 548.896 -0.682403 1.30314 0
M  V30 5662 H 550.854 -3.75048 1.82744 0
M  V30 5663 H 549.484 -3.10371 0.887109 0
M  V30 5664 H 548.536 -2.17419 3.12143 0
M  V30 5665 H 549.848 -3.02818 3.96362 0
M  V30 5666 H 549.002 -5.21801 3.09529 0
M  V30 5667 H 547.741 -4.37782 2.14939 0
M  V30 5668 H 546.746 -3.46734 4.2668 0
M  V30 5669 H 547.971 -4.34049 5.22282 0
M  V30 5670 H 545.917 -5.62184 3.3806 0
M  V30 5671 H 545.834 -5.57058 5.111 0
M  V30 5672 H 547.102 -6.47545 4.33942 0
M  V30 5673 N 551.331 -1.39911 -0.725443 0
M  V30 5674 C 552.278 -1.39393 -1.83952 0
M  V30 5675 C 553.248 -0.252249 -1.64173 0
M  V30 5676 O 554.433 -0.44882 -1.85446 0
M  V30 5677 C 551.573 -1.25262 -3.21564 0
M  V30 5678 C 550.686 -2.49054 -3.52982 0
M  V30 5679 C 549.821 -2.27439 -4.80047 0
M  V30 5680 C 548.86 -3.46857 -5.04338 0
M  V30 5681 N 547.997 -3.24499 -6.22611 0
M  V30 5682 H 552.837 -2.34622 -1.83729 0
M  V30 5683 H 550.374 -1.16537 -0.897636 0
M  V30 5684 H 552.332 -1.15077 -4.01015 0
M  V30 5685 H 550.962 -0.33657 -3.21041 0
M  V30 5686 H 550.014 -2.69805 -2.6816 0
M  V30 5687 H 551.326 -3.37973 -3.66846 0
M  V30 5688 H 550.48 -2.14551 -5.67497 0
M  V30 5689 H 549.219 -1.35929 -4.68374 0
M  V30 5690 H 548.224 -3.60232 -4.15346 0
M  V30 5691 H 549.449 -4.3928 -5.17889 0
M  V30 5692 H 547.395 -2.35663 -6.12208 0
M  V30 5693 H 547.312 -4.06978 -6.37106 0
M  V30 5694 H 548.58 -3.15325 -7.12875 0
M  V30 5695 N 552.809 0.956637 -1.25245 0
M  V30 5696 C 553.719 2.0868 -1.0719 0
M  V30 5697 C 554.735 1.73997 -0.00959074 0
M  V30 5698 O 555.911 2.00301 -0.210104 0
M  V30 5699 C 552.976 3.39754 -0.690526 0
M  V30 5700 C 552.037 3.88316 -1.83055 0
M  V30 5701 C 551.27 5.13134 -1.46728 0
M  V30 5702 O 551.493 5.6925 -0.362029 0
M  V30 5703 O 550.427 5.56356 -2.29677 0
M  V30 5704 H 554.253 2.26813 -2.01965 0
M  V30 5705 H 551.838 1.07098 -1.04165 0
M  V30 5706 H 553.72 4.18543 -0.489871 0
M  V30 5707 H 552.395 3.22896 0.227981 0
M  V30 5708 H 551.302 3.1054 -2.08604 0
M  V30 5709 H 552.635 4.09669 -2.72822 0
M  V30 5710 N 554.287 1.06798 1.15896 0
M  V30 5711 C 555.217 0.704677 2.22613 0
M  V30 5712 C 556.198 -0.305252 1.67339 0
M  V30 5713 O 557.383 -0.179247 1.93371 0
M  V30 5714 C 554.513 0.0957325 3.47168 0
M  V30 5715 C 553.467 1.0322 4.15367 0
M  V30 5716 C 552.793 0.286293 5.33933 0
M  V30 5717 C 554.093 2.36341 4.65768 0
M  V30 5718 H 555.787 1.59688 2.53259 0
M  V30 5719 H 553.333 0.769257 1.21731 0
M  V30 5720 H 555.286 -0.170333 4.21056 0
M  V30 5721 H 554.01 -0.831516 3.15838 0
M  V30 5722 H 552.669 1.28309 3.43413 0
M  V30 5723 H 552.317 -0.644237 4.98857 0
M  V30 5724 H 552.017 0.910436 5.80504 0
M  V30 5725 H 553.541 0.0278938 6.10594 0
M  V30 5726 H 554.955 2.1561 5.31211 0
M  V30 5727 H 553.352 2.94299 5.2298 0
M  V30 5728 H 554.422 2.99047 3.81705 0
M  V30 5729 N 555.766 -1.3263 0.851289 0
M  V30 5730 C 557.012 -1.9766 0.453694 0
M  V30 5731 C 557.345 -1.67225 -0.987396 0
M  V30 5732 O 556.62 -0.958693 -1.69232 0
M  V30 5733 C 556.903 -3.5344 0.68936 0
M  V30 5734 C 556.756 -3.93517 2.17862 0
M  V30 5735 C 558.075 -4.39866 0.143555 0
M  V30 5736 H 555.194 -0.717989 0.166314 0
M  V30 5737 H 557.836 -1.57068 1.06909 0
M  V30 5738 H 555.986 -3.88147 0.165546 0
M  V30 5739 H 557.658 -3.69006 2.76826 0
M  V30 5740 H 555.901 -3.42798 2.65841 0
M  V30 5741 H 556.572 -5.02065 2.29422 0
M  V30 5742 H 559.048 -4.11875 0.591451 0
M  V30 5743 H 557.924 -5.47858 0.338043 0
M  V30 5744 H 558.185 -4.31696 -0.953466 0
M  V30 5745 N 557.244 -0.608902 -1.45362 0
M  V30 5746 C 558.207 0.0992563 -2.28985 0
M  V30 5747 C 559.207 0.793841 -1.39838 0
M  V30 5748 O 560.397 0.641804 -1.61946 0
M  V30 5749 C 557.529 1.15073 -3.20891 0
M  V30 5750 H 558.722 -0.635964 -2.93079 0
M  V30 5751 H 556.275 -0.368007 -1.51906 0
M  V30 5752 H 557.01 1.91667 -2.616 0
M  V30 5753 H 556.795 0.656867 -3.86559 0
M  V30 5754 H 558.285 1.64665 -3.83765 0
M  V30 5755 N 558.722 1.53707 -0.348139 0
M  V30 5756 C 559.672 2.2193 0.522592 0
M  V30 5757 C 560.656 1.20831 1.06248 0
M  V30 5758 O 561.848 1.46357 0.995415 0
M  V30 5759 C 558.977 2.99904 1.6707 0
M  V30 5760 C 558.063 4.08364 1.14454 0
M  V30 5761 N 558.454 5.04656 0.339958 0
M  V30 5762 C 556.752 4.22757 1.421 0
M  V30 5763 C 557.453 5.81675 0.0538806 0
M  V30 5764 N 556.429 5.39739 0.646776 0
M  V30 5765 H 560.231 2.93733 -0.099135 0
M  V30 5766 H 557.745 1.61656 -0.15524 0
M  V30 5767 H 559.742 3.47284 2.30651 0
M  V30 5768 H 558.402 2.29629 2.29566 0
M  V30 5769 H 559.413 5.17896 -0.0193552 0
M  V30 5770 H 556.09 3.63704 2.05002 0
M  V30 5771 H 557.48 6.69256 -0.595443 0
M  V30 5772 N 560.2 0.0768682 1.57412 0
M  V30 5773 C 561.13 -0.886026 2.16037 0
M  V30 5774 C 562.111 -1.30691 1.08876 0
M  V30 5775 O 563.296 -1.37705 1.36934 0
M  V30 5776 C 560.426 -2.1518 2.72608 0
M  V30 5777 C 559.38 -1.87015 3.8498 0
M  V30 5778 C 558.706 -3.20266 4.28175 0
M  V30 5779 C 560.006 -1.17143 5.08994 0
M  V30 5780 H 561.7 -0.397642 2.96748 0
M  V30 5781 H 559.246 -0.189823 1.42743 0
M  V30 5782 H 561.199 -2.82962 3.12266 0
M  V30 5783 H 559.923 -2.66269 1.89125 0
M  V30 5784 H 558.582 -1.21636 3.45833 0
M  V30 5785 H 558.23 -3.69207 3.41607 0
M  V30 5786 H 557.93 -3.0221 5.03927 0
M  V30 5787 H 559.454 -3.89237 4.70454 0
M  V30 5788 H 560.868 -1.75003 5.45937 0
M  V30 5789 H 559.265 -1.09328 5.90057 0
M  V30 5790 H 560.335 -0.151295 4.84664 0
M  V30 5791 N 561.678 -1.56367 -0.196722 0
M  V30 5792 C 562.625 -1.94417 -1.24382 0
M  V30 5793 C 563.595 -0.804543 -1.45315 0
M  V30 5794 O 564.78 -1.06256 -1.58475 0
M  V30 5795 C 561.92 -2.28757 -2.58388 0
M  V30 5796 C 561.033 -3.55775 -2.45047 0
M  V30 5797 C 560.168 -3.79445 -3.71746 0
M  V30 5798 C 559.207 -4.99894 -3.53231 0
M  V30 5799 N 558.344 -5.19826 -4.71938 0
M  V30 5800 H 563.184 -2.83691 -0.912338 0
M  V30 5801 H 560.721 -1.40392 -0.439135 0
M  V30 5802 H 562.679 -2.46682 -3.36457 0
M  V30 5803 H 561.309 -1.42625 -2.89582 0
M  V30 5804 H 560.361 -3.45905 -1.58284 0
M  V30 5805 H 561.673 -4.44 -2.27299 0
M  V30 5806 H 560.827 -3.97601 -4.58256 0
M  V30 5807 H 559.566 -2.89546 -3.92446 0
M  V30 5808 H 558.571 -4.81662 -2.65107 0
M  V30 5809 H 559.796 -5.913 -3.33978 0
M  V30 5810 H 557.742 -4.32875 -4.92905 0
M  V30 5811 H 557.659 -6.02228 -4.57009 0
M  V30 5812 H 558.927 -5.42439 -5.59803 0
M  V30 5813 N 563.156 0.464375 -1.50603 0
M  V30 5814 C 564.396 1.22573 -1.6357 0
M  V30 5815 C 564.76 1.89111 -0.331834 0
M  V30 5816 O 565.961 2.66679 -0.336999 0
M  V30 5817 C 564.232 2.23643 -2.7878 0
M  V30 5818 S 565.791 3.08628 -3.1192 0
M  V30 5819 H 562.609 0.416058 -0.576556 0
M  V30 5820 H 565.211 0.521637 -1.88412 0
M  V30 5821 H 563.915 1.73354 -3.7199 0
M  V30 5822 H 563.446 2.98672 -2.56044 0
M  V30 5823 H 565.461 4.24904 -2.56264 0
M  V30 5824 N 564.634 1.40294 0.718013 0
M  V30 5825 C 565.862 1.4175 1.50714 0
M  V30 5826 C 566.277 0.0165366 1.88793 0
M  V30 5827 O 565.634 -0.958942 1.55276 0
M  V30 5828 C 565.685 2.30598 2.784 0
M  V30 5829 O 565.406 3.6524 2.41932 0
M  V30 5830 C 566.907 2.4062 3.72313 0
M  V30 5831 H 564.127 0.483565 0.465194 0
M  V30 5832 H 566.671 1.84316 0.885889 0
M  V30 5833 H 564.826 1.91401 3.36815 0
M  V30 5834 H 565.24 4.12402 3.24076 0
M  V30 5835 H 566.714 3.07001 4.58753 0
M  V30 5836 H 567.191 1.4305 4.15251 0
M  V30 5837 H 567.797 2.80359 3.19811 0
M  V30 5838 N 566.112 -0.949982 1.2575 0
M  V30 5839 C 567.361 -1.68956 1.10168 0
M  V30 5840 C 567.674 -1.92327 -0.356309 0
M  V30 5841 O 568.88 -2.64026 -0.632657 0
M  V30 5842 C 567.336 -3.04196 1.92336 0
M  V30 5843 C 566.944 -2.88603 3.42655 0
M  V30 5844 C 568.688 -3.81904 1.85336 0
M  V30 5845 C 566.595 -4.19262 4.17101 0
M  V30 5846 H 565.525 -0.633645 0.408668 0
M  V30 5847 H 568.176 -1.05719 1.49986 0
M  V30 5848 H 566.558 -3.68363 1.45344 0
M  V30 5849 H 567.732 -2.3334 3.97353 0
M  V30 5850 H 566.047 -2.24345 3.50796 0
M  V30 5851 H 568.644 -4.78688 2.38248 0
M  V30 5852 H 568.987 -4.08099 0.822226 0
M  V30 5853 H 569.52 -3.24495 2.30104 0
M  V30 5854 H 566.259 -3.98254 5.20648 0
M  V30 5855 H 565.779 -4.74273 3.67186 0
M  V30 5856 H 567.458 -4.87775 4.25071 0
M  V30 5857 N 567.59 -1.07411 -1.15328 0
M  V30 5858 C 568.818 -0.818782 -1.90009 0
M  V30 5859 C 569.233 0.628072 -1.78047 0
M  V30 5860 O 568.59 1.43085 -1.13282 0
M  V30 5861 C 568.641 -1.21874 -3.40337 0
M  V30 5862 O 568.362 -2.60883 -3.51954 0
M  V30 5863 C 569.863 -0.992796 -4.3204 0
M  V30 5864 H 567.083 -0.296007 -0.60218 0
M  V30 5865 H 569.627 -1.43073 -1.46117 0
M  V30 5866 H 567.782 -0.651103 -3.81889 0
M  V30 5867 H 568.196 -2.77216 -4.45255 0
M  V30 5868 H 569.67 -1.32215 -5.35932 0
M  V30 5869 H 570.147 0.0708331 -4.39143 0
M  V30 5870 H 570.753 -1.54537 -3.9623 0
M  V30 5871 N 569.068 1.32177 -0.85831 0
M  V30 5872 C 570.316 1.96735 -0.462568 0
M  V30 5873 C 570.637 1.6824 0.985911 0
M  V30 5874 O 569.907 0.991564 1.68952 0
M  V30 5875 H 568.487 0.727849 -0.168064 0
M  V30 5876 H 571.149 1.61195 -1.09554 0
M  V30 5877 H 570.245 3.06068 -0.610647 0
M  V30 5878 N 570.547 0.616602 1.45037 0
M  V30 5879 C 571.477 -0.0840787 2.33349 0
M  V30 5880 C 572.458 -0.849641 1.4736 0
M  V30 5881 O 573.643 -0.818407 1.76113 0
M  V30 5882 C 570.773 -1.07604 3.3021 0
M  V30 5883 C 569.727 -0.423096 4.25904 0
M  V30 5884 C 569.053 -1.52394 5.12523 0
M  V30 5885 C 570.353 0.661457 5.18095 0
M  V30 5886 H 572.047 0.653333 2.92185 0
M  V30 5887 H 569.593 0.315634 1.40498 0
M  V30 5888 H 571.546 -1.57485 3.90866 0
M  V30 5889 H 570.27 -1.84416 2.69552 0
M  V30 5890 H 568.929 0.05493 3.66559 0
M  V30 5891 H 568.577 -2.28257 4.48227 0
M  V30 5892 H 568.277 -1.09251 5.77354 0
M  V30 5893 H 569.801 -2.02485 5.76049 0
M  V30 5894 H 571.215 0.246353 5.7277 0
M  V30 5895 H 569.612 1.01517 5.91451 0
M  V30 5896 H 570.682 1.53446 4.59981 0
M  V30 5897 N 572.025 -1.5352 0.356285 0
M  V30 5898 C 573.253 -2.05534 -0.237328 0
M  V30 5899 C 573.668 -1.23043 -1.43199 0
M  V30 5900 O 573.025 -0.268821 -1.80509 0
M  V30 5901 C 573.076 -3.55791 -0.639933 0
M  V30 5902 O 572.797 -4.35154 0.507233 0
M  V30 5903 C 574.298 -4.24027 -1.29292 0
M  V30 5904 H 571.518 -0.669585 -0.0435572 0
M  V30 5905 H 574.062 -1.97988 0.511963 0
M  V30 5906 H 572.217 -3.63518 -1.33915 0
M  V30 5907 H 572.631 -5.24178 0.18375 0
M  V30 5908 H 574.105 -5.30509 -1.52527 0
M  V30 5909 H 574.582 -3.77166 -2.25039 0
M  V30 5910 H 575.188 -4.20527 -0.63539 0
M  V30 5911 N 573.503 -0.0852151 -1.57369 0
M  V30 5912 C 574.75 0.580806 -1.93992 0
M  V30 5913 C 575.078 1.68801 -0.966252 0
M  V30 5914 O 574.333 1.95694 0.0158649 0
M  V30 5915 C 574.632 1.18482 -3.3719 0
M  V30 5916 C 574.298 0.2024 -4.50446 0
M  V30 5917 C 572.96 -0.0678318 -4.81152 0
M  V30 5918 C 575.312 -0.46895 -5.19086 0
M  V30 5919 C 572.64 -1.01627 -5.77831 0
M  V30 5920 C 574.992 -1.4058 -6.16782 0
M  V30 5921 C 573.656 -1.68436 -6.45899 0
M  V30 5922 H 572.926 0.212532 -0.709867 0
M  V30 5923 H 575.573 -0.158947 -1.90839 0
M  V30 5924 H 573.878 2.0006 -3.36873 0
M  V30 5925 H 575.575 1.70767 -3.62822 0
M  V30 5926 H 572.165 0.423208 -4.26505 0
M  V30 5927 H 576.349 -0.273307 -4.95547 0
M  V30 5928 H 571.605 -1.2392 -5.9871 0
M  V30 5929 H 575.779 -1.93188 -6.69068 0
M  V30 5930 H 573.406 -2.42088 -7.20623 0
M  V30 5931 N 574.981 1.5647 0.188427 0
M  V30 5932 C 576.227 1.82181 0.904534 0
M  V30 5933 C 576.582 0.663258 1.80606 0
M  V30 5934 O 575.875 -0.341231 1.88537 0
M  V30 5935 C 576.069 3.11596 1.7505 0
M  V30 5936 C 575.898 4.39928 0.932372 0
M  V30 5937 C 574.668 5.01554 0.61417 0
M  V30 5938 C 576.866 5.13527 0.281936 0
M  V30 5939 N 574.848 6.13499 -0.221896 0
M  V30 5940 C 576.219 6.18603 -0.416037 0
M  V30 5941 C 578.274 4.97505 0.198345 0
M  V30 5942 C 576.977 7.09394 -1.18965 0
M  V30 5943 C 579.003 5.88725 -0.561887 0
M  V30 5944 C 578.365 6.93251 -1.24828 0
M  V30 5945 H 574.464 0.717858 0.310168 0
M  V30 5946 H 577.048 1.93932 0.172757 0
M  V30 5947 H 575.219 3.01068 2.45383 0
M  V30 5948 H 576.951 3.25369 2.4066 0
M  V30 5949 H 573.706 4.64174 0.940187 0
M  V30 5950 H 574.13 6.74065 -0.629735 0
M  V30 5951 H 578.772 4.16716 0.714665 0
M  V30 5952 H 576.49 7.8964 -1.71737 0
M  V30 5953 H 580.076 5.78401 -0.628009 0
M  V30 5954 H 578.956 7.62618 -1.82712 0
M  V30 5955 N 576.459 -0.456382 1.50847 0
M  V30 5956 C 577.736 -1.21739 1.53098 0
M  V30 5957 C 578.116 -2.09179 0.284132 0
M  V30 5958 O 577.464 -2.16466 -0.731773 0
M  V30 5959 C 577.674 -2.03573 2.83477 0
M  V30 5960 C 579.022 -2.61264 3.34703 0
M  V30 5961 O 580.046 -2.13802 2.84898 0
M  V30 5962 O 578.905 -3.47779 4.21559 0
M  V30 5963 H 575.999 -0.553219 0.614718 0
M  V30 5964 H 578.545 -0.467003 1.63148 0
M  V30 5965 H 577.317 -1.39232 3.65691 0
M  V30 5966 H 576.94 -2.85716 2.76499 0
M  V30 5967 N 577.937 -1.40673 -0.710563 0
M  V30 5968 C 579.348 -1.34975 -1.28991 0
M  V30 5969 C 579.699 -0.0256272 -1.96183 0
M  V30 5970 O 578.824 0.876339 -1.97862 0
M  V30 5971 C 579.419 -2.44467 -2.34567 0
M  V30 5972 C 577.978 -2.42213 -2.88114 0
M  V30 5973 C 577.125 -2.25085 -1.61963 0
M  V30 5974 H 580.076 -1.50406 -0.506343 0
M  V30 5975 H 580.097 -2.12663 -3.15523 0
M  V30 5976 H 579.609 -3.40825 -1.85634 0
M  V30 5977 H 577.71 -1.49568 -3.41263 0
M  V30 5978 H 577.823 -3.37983 -3.39565 0
M  V30 5979 H 576.187 -1.72691 -1.87216 0
M  V30 5980 H 576.97 -3.23449 -1.15047 0
M  V30 5981 N 579.415 0.9433 -1.26252 0
M  V30 5982 C 580.64 1.72898 -1.14547 0
M  V30 5983 C 581.065 1.85761 0.295743 0
M  V30 5984 O 580.423 1.3463 1.21427 0
M  V30 5985 C 580.471 3.11471 -1.8171 0
M  V30 5986 O 579.575 3.97336 -1.10445 0
M  V30 5987 H 578.916 0.530555 -0.399259 0
M  V30 5988 H 581.446 1.18159 -1.67032 0
M  V30 5989 H 581.456 3.61872 -1.88449 0
M  V30 5990 H 580.131 3.01425 -2.86558 0
M  V30 5991 H 578.708 3.55788 -1.11666 0
M  V30 5992 N 580.893 1.08022 1.14757 0
M  V30 5993 C 582.133 0.816959 1.87364 0
M  V30 5994 C 582.497 -0.645407 1.80827 0
M  V30 5995 O 583.698 -1.024 2.48531 0
M  V30 5996 C 581.969 1.31961 3.32146 0
M  V30 5997 S 583.528 1.18806 4.2241 0
M  V30 5998 H 580.346 0.295862 0.646519 0
M  V30 5999 H 582.948 1.3807 1.38408 0
M  V30 6000 H 581.652 2.37847 3.3445 0
M  V30 6001 H 581.183 0.751371 3.86158 0
M  V30 6002 H 583.198 0.129865 4.9603 0
M  V30 6003 N 582.371 -1.3172 0.865308 0
M  V30 6004 C 583.281 -2.32394 0.320935 0
M  V30 6005 C 584.297 -1.64511 -0.566746 0
M  V30 6006 O 585.473 -1.95969 -0.464575 0
M  V30 6007 C 582.538 -3.43462 -0.472701 0
M  V30 6008 C 581.599 -4.27015 0.442385 0
M  V30 6009 C 580.832 -5.32779 -0.313469 0
M  V30 6010 O 581.055 -5.49158 -1.54214 0
M  V30 6011 O 579.989 -6.01015 0.326257 0
M  V30 6012 H 583.815 -2.80868 1.15528 0
M  V30 6013 H 581.4 -1.35535 0.628545 0
M  V30 6014 H 583.282 -4.11172 -0.922781 0
M  V30 6015 H 581.957 -2.97159 -1.28367 0
M  V30 6016 H 580.864 -3.62075 0.940866 0
M  V30 6017 H 582.197 -4.76871 1.21882 0
M  V30 6018 N 583.85 -0.624285 -1.44708 0
M  V30 6019 C 584.812 0.0749638 -2.29077 0
M  V30 6020 C 585.812 0.778965 -1.40673 0
M  V30 6021 O 587.003 0.624591 -1.62618 0
M  V30 6022 C 584.135 1.11663 -3.22094 0
M  V30 6023 H 585.327 -0.667013 -2.92388 0
M  V30 6024 H 582.88 -0.384098 -1.51507 0
M  V30 6025 H 583.615 1.88881 -2.63618 0
M  V30 6026 H 583.401 0.61583 -3.87234 0
M  V30 6027 H 584.891 1.60585 -3.8549 0
M  V30 6028 N 585.328 1.53329 -0.364422 0
M  V30 6029 C 586.238 2.29414 0.490552 0
M  V30 6030 C 587.254 1.35335 1.09363 0
M  V30 6031 O 588.43 1.68391 1.10483 0
M  V30 6032 C 585.495 3.06772 1.61529 0
M  V30 6033 C 584.556 4.16516 1.03986 0
M  V30 6034 C 583.789 4.90176 2.111 0
M  V30 6035 O 584.012 4.63687 3.32191 0
M  V30 6036 O 582.946 5.76134 1.74222 0
M  V30 6037 H 586.772 3.03428 -0.12856 0
M  V30 6038 H 584.357 1.48843 -0.128837 0
M  V30 6039 H 586.239 3.55082 2.26924 0
M  V30 6040 H 584.914 2.35596 2.21983 0
M  V30 6041 H 583.821 3.7246 0.349856 0
M  V30 6042 H 585.154 4.89855 0.4799 0
M  V30 6043 N 586.806 0.0935595 1.57322 0
M  V30 6044 C 588.083 -0.612692 1.85756 0
M  V30 6045 C 588.463 -1.86439 0.99013 0
M  V30 6046 O 587.811 -2.28416 0.0621362 0
M  V30 6047 C 588.021 -0.929547 3.36393 0
M  V30 6048 C 589.369 -1.29366 4.04413 0
M  V30 6049 O 590.393 -1.02061 3.41265 0
M  V30 6050 O 589.252 -1.80498 5.15832 0
M  V30 6051 H 586.346 -0.306444 0.768128 0
M  V30 6052 H 588.892 0.126141 1.69231 0
M  V30 6053 H 587.664 -0.0414766 3.91278 0
M  V30 6054 H 587.287 -1.72441 3.5826 0
M  V30 6055 N 588.284 -1.56567 -0.180126 0
M  V30 6056 C 589.7 -1.50488 -0.531559 0
M  V30 6057 C 589.9 -0.796267 -1.851 0
M  V30 6058 O 588.956 -0.352978 -2.50021 0
M  V30 6059 C 590.269 -2.95201 -0.572456 0
M  V30 6060 C 591.817 -3.05957 -0.660264 0
M  V30 6061 C 592.292 -4.5211 -0.732135 0
M  V30 6062 N 593.783 -4.56322 -0.795262 0
M  V30 6063 C 594.518 -5.66742 -0.871296 0
M  V30 6064 N 594.014 -6.86815 -0.908708 0
M  V30 6065 N 595.807 -5.54691 -0.909639 0
M  V30 6066 H 587.958 -2.01045 0.685165 0
M  V30 6067 H 590.221 -0.915536 0.245962 0
M  V30 6068 H 589.927 -3.50165 0.328208 0
M  V30 6069 H 589.801 -3.49369 -1.422 0
M  V30 6070 H 592.188 -2.51032 -1.55136 0
M  V30 6071 H 592.269 -2.54888 0.215783 0
M  V30 6072 H 591.913 -5.07664 0.154664 0
M  V30 6073 H 591.843 -5.00926 -1.6242 0
M  V30 6074 H 594.334 -3.69868 -0.77499 0
M  V30 6075 H 594.647 -7.66718 -0.967654 0
M  V30 6076 H 592.992 -6.89443 -0.877132 0
M  V30 6077 H 596.183 -4.59804 -0.877353 0
M  V30 6078 H 596.356 -6.40768 -0.965434 0
M  V30 6079 N 589.762 0.448376 -1.51087 0
M  V30 6080 C 591.01 1.19635 -1.62886 0
M  V30 6081 C 591.331 1.91977 -0.342024 0
M  V30 6082 O 590.601 1.85094 0.641636 0
M  V30 6083 H 589.181 0.444598 -0.600285 0
M  V30 6084 H 591.843 0.515138 -1.87969 0
M  V30 6085 H 590.939 1.93194 -2.45117 0
M  V30 6086 N 591.24 1.41047 0.703093 0
M  V30 6087 C 592.517 1.30493 1.45708 0
M  V30 6088 C 592.897 -0.0709892 2.10981 0
M  V30 6089 O 592.245 -1.08471 2.01113 0
M  V30 6090 C 592.455 2.45287 2.48265 0
M  V30 6091 C 593.803 2.86104 3.13735 0
M  V30 6092 O 594.827 2.44971 2.58587 0
M  V30 6093 O 593.686 3.57206 4.13601 0
M  V30 6094 H 590.78 0.513144 0.648546 0
M  V30 6095 H 593.326 1.52995 0.734208 0
M  V30 6096 H 592.098 3.37135 1.98635 0
M  V30 6097 H 591.721 2.24622 3.28071 0
M  V30 6098 N 592.718 -0.936591 1.26751 0
M  V30 6099 C 593.665 -2.03597 1.08706 0
M  V30 6100 C 594.635 -1.66097 -0.00926542 0
M  V30 6101 O 595.82 -1.90199 0.151377 0
M  V30 6102 C 592.96 -3.3727 0.73094 0
M  V30 6103 C 592.073 -3.87778 1.90399 0
M  V30 6104 C 591.208 -5.09859 1.49056 0
M  V30 6105 C 590.247 -5.5264 2.63164 0
M  V30 6106 N 589.384 -6.65921 2.22471 0
M  V30 6107 H 594.224 -2.18364 2.02784 0
M  V30 6108 H 591.761 -1.06985 1.00958 0
M  V30 6109 H 593.719 -4.14128 0.505328 0
M  V30 6110 H 592.349 -3.22337 -0.172868 0
M  V30 6111 H 591.401 -3.07279 2.2424 0
M  V30 6112 H 592.713 -4.15464 2.76028 0
M  V30 6113 H 591.867 -5.9419 1.22567 0
M  V30 6114 H 590.606 -4.8393 0.60524 0
M  V30 6115 H 589.611 -4.66863 2.90377 0
M  V30 6116 H 590.836 -5.80568 3.52303 0
M  V30 6117 H 588.782 -6.41667 1.36379 0
M  V30 6118 H 588.699 -6.93216 3.01641 0
M  V30 6119 H 589.967 -7.53616 1.99205 0
M  V30 6120 N 594.196 -1.08629 -1.14182 0
M  V30 6121 C 595.443 -0.817345 -1.85272 0
M  V30 6122 C 595.771 0.656917 -1.83071 0
M  V30 6123 O 595.026 1.49897 -1.25815 0
M  V30 6124 C 595.325 -1.28734 -3.3341 0
M  V30 6125 C 594.991 -2.76981 -3.55798 0
M  V30 6126 C 593.653 -3.17469 -3.61617 0
M  V30 6127 C 596.005 -3.72605 -3.64438 0
M  V30 6128 C 593.333 -4.52371 -3.736 0
M  V30 6129 C 595.685 -5.07286 -3.77947 0
M  V30 6130 C 594.349 -5.47376 -3.82016 0
M  V30 6131 H 593.619 -0.299088 -0.677958 0
M  V30 6132 H 596.266 -1.35962 -1.34857 0
M  V30 6133 H 594.571 -0.664702 -3.8612 0
M  V30 6134 H 596.268 -1.05598 -3.86846 0
M  V30 6135 H 592.858 -2.44644 -3.51919 0
M  V30 6136 H 597.042 -3.42443 -3.5923 0
M  V30 6137 H 592.298 -4.82882 -3.75013 0
M  V30 6138 H 596.472 -5.81243 -3.83575 0
M  V30 6139 H 594.099 -6.51906 -3.91054 0
M  V30 6140 N 595.674 1.31259 -0.872281 0
M  V30 6141 C 596.92 1.96913 -0.485083 0
M  V30 6142 C 597.253 1.68774 0.960667 0
M  V30 6143 O 596.528 0.985495 1.67685 0
M  V30 6144 C 596.811 3.52299 -0.745502 0
M  V30 6145 C 596.664 3.90002 -2.24095 0
M  V30 6146 C 597.983 4.39582 -0.213516 0
M  V30 6147 H 595.102 0.715252 -0.177716 0
M  V30 6148 H 597.744 1.55347 -1.09395 0
M  V30 6149 H 595.894 3.87835 -0.227276 0
M  V30 6150 H 597.566 3.64555 -2.82661 0
M  V30 6151 H 595.809 3.38526 -2.71261 0
M  V30 6152 H 596.48 4.98352 -2.37381 0
M  V30 6153 H 598.956 4.10882 -0.656902 0
M  V30 6154 H 597.832 5.47251 -0.42516 0
M  V30 6155 H 598.093 4.33158 0.884666 0
M  V30 6156 N 597.152 0.631951 1.44375 0
M  V30 6157 C 598.082 -0.0593243 2.33425 0
M  V30 6158 C 599.063 -0.833964 1.48253 0
M  V30 6159 O 600.248 -0.799682 1.76971 0
M  V30 6160 C 597.378 -1.04096 3.31333 0
M  V30 6161 C 596.332 -0.377899 4.26328 0
M  V30 6162 C 595.658 -1.4695 5.14111 0
M  V30 6163 C 596.958 0.716371 5.17364 0
M  V30 6164 H 598.652 0.684287 2.91475 0
M  V30 6165 H 596.198 0.330518 1.40156 0
M  V30 6166 H 598.151 -1.53331 3.92514 0
M  V30 6167 H 596.875 -1.81547 2.71493 0
M  V30 6168 H 595.534 0.0938054 3.6648 0
M  V30 6169 H 595.182 -2.2349 4.50623 0
M  V30 6170 H 594.882 -1.03121 5.78481 0
M  V30 6171 H 596.406 -1.96363 5.78164 0
M  V30 6172 H 597.82 0.307089 5.72477 0
M  V30 6173 H 596.217 1.07784 5.90341 0
M  V30 6174 H 597.287 1.58316 4.58327 0
M  V30 6175 N 598.631 -1.53133 0.372548 0
M  V30 6176 C 600.047 -1.59585 0.02178 0
M  V30 6177 C 600.247 -1.38736 -1.46132 0
M  V30 6178 O 599.303 -1.19599 -2.22379 0
M  V30 6179 C 600.616 -2.9678 0.483959 0
M  V30 6180 C 602.164 -3.09909 0.438775 0
M  V30 6181 C 602.639 -4.49527 0.876876 0
M  V30 6182 N 604.13 -4.55663 0.832214 0
M  V30 6183 C 604.865 -5.61896 1.14281 0
M  V30 6184 N 604.361 -6.75852 1.52303 0
M  V30 6185 N 606.154 -5.51916 1.06515 0
M  V30 6186 H 598.305 -1.64936 1.33827 0
M  V30 6187 H 600.568 -0.773947 0.547458 0
M  V30 6188 H 600.274 -3.17198 1.51915 0
M  V30 6189 H 600.148 -3.7699 -0.125784 0
M  V30 6190 H 602.535 -2.89197 -0.587294 0
M  V30 6191 H 602.616 -2.31691 1.0841 0
M  V30 6192 H 602.26 -4.70979 1.90109 0
M  V30 6193 H 602.19 -5.26186 0.208727 0
M  V30 6194 H 604.681 -3.73844 0.552195 0
M  V30 6195 H 604.994 -7.52862 1.7441 0
M  V30 6196 H 603.339 -6.77226 1.56175 0
M  V30 6197 H 606.53 -4.6177 0.767235 0
M  V30 6198 H 606.703 -6.34609 1.31053 0
M  V30 6199 N 600.109 -0.101901 -1.5727 0
M  V30 6200 C 601.334 0.571759 -1.99363 0
M  V30 6201 C 601.759 1.60507 -0.980768 0
M  V30 6202 O 601.117 1.81231 0.0498517 0
M  V30 6203 C 601.165 1.18996 -3.404 0
M  V30 6204 O 600.269 2.30572 -3.41922 0
M  V30 6205 H 599.61 0.144449 -0.648098 0
M  V30 6206 H 602.14 -0.185325 -2.03759 0
M  V30 6207 H 602.15 1.52962 -3.78241 0
M  V30 6208 H 600.825 0.432984 -4.1364 0
M  V30 6209 H 599.402 1.98173 -3.15883 0
M  V30 6210 N 601.587 1.56661 0.17182 0
M  V30 6211 C 602.55 1.9549 1.19651 0
M  V30 6212 C 603.55 0.838501 1.37207 0
M  V30 6213 O 604.74 1.10556 1.34622 0
M  V30 6214 C 601.872 2.24927 2.56166 0
M  V30 6215 H 603.065 2.87184 0.864007 0
M  V30 6216 H 600.618 1.50711 0.41425 0
M  V30 6217 H 601.353 1.35944 2.94431 0
M  V30 6218 H 601.138 3.06301 2.4479 0
M  V30 6219 H 602.628 2.55891 3.30014 0
M  V30 6220 N 603.065 -0.440357 1.51323 0
M  V30 6221 C 604.295 -1.21079 1.67402 0
M  V30 6222 C 604.703 -1.85555 0.369599 0
M  V30 6223 O 604.046 -1.71375 -0.661525 0
M  V30 6224 C 604.108 -2.33839 2.73056 0
M  V30 6225 C 603.772 -1.89755 4.15743 0
M  V30 6226 C 604.769 -1.40268 5.0062 0
M  V30 6227 C 602.454 -1.97539 4.61826 0
M  V30 6228 C 604.448 -0.991474 6.29642 0
M  V30 6229 C 602.135 -1.56029 5.90845 0
M  V30 6230 C 603.133 -1.06915 6.7458 0
M  V30 6231 O 602.821 -0.659933 8.01187 0
M  V30 6232 H 602.553 -0.371133 0.56501 0
M  V30 6233 H 605.107 -0.528409 1.98487 0
M  V30 6234 H 603.337 -3.05345 2.37279 0
M  V30 6235 H 605.026 -2.95713 2.78044 0
M  V30 6236 H 605.792 -1.33652 4.66221 0
M  V30 6237 H 601.671 -2.34713 3.96776 0
M  V30 6238 H 605.215 -0.607425 6.9495 0
M  V30 6239 H 601.112 -1.62315 6.24759 0
M  V30 6240 H 601.88 -0.786052 8.14717 0
M  V30 6241 N 604.543 -1.41418 -0.695603 0
M  V30 6242 C 605.768 -1.44329 -1.48942 0
M  V30 6243 C 606.193 -0.0501579 -1.88033 0
M  V30 6244 O 605.551 0.946598 -1.54626 0
M  V30 6245 C 605.599 -2.3578 -2.72837 0
M  V30 6246 O 604.703 -1.81482 -3.70322 0
M  V30 6247 H 604.044 -0.489838 -0.44828 0
M  V30 6248 H 606.574 -1.85878 -0.855014 0
M  V30 6249 H 606.584 -2.51654 -3.21145 0
M  V30 6250 H 605.259 -3.37005 -2.43722 0
M  V30 6251 H 603.836 -1.75058 -3.29255 0
M  V30 6252 N 606.021 0.929856 -1.27246 0
M  V30 6253 C 607.246 1.71674 -1.16374 0
M  V30 6254 C 607.671 1.86064 0.276024 0
M  V30 6255 O 607.029 1.3591 1.19992 0
M  V30 6256 C 607.077 3.09526 -1.85003 0
M  V30 6257 O 606.181 3.96142 -1.14653 0
M  V30 6258 H 605.522 0.52629 -0.404863 0
M  V30 6259 H 608.052 1.16381 -1.68276 0
M  V30 6260 H 608.062 3.59852 -1.92276 0
M  V30 6261 H 606.737 2.98369 -2.89739 0
M  V30 6262 H 605.314 3.54584 -1.15433 0
M  V30 6263 N 607.499 1.09233 1.13605 0
M  V30 6264 C 608.739 0.836786 1.86487 0
M  V30 6265 C 609.103 -0.626191 1.81502 0
M  V30 6266 O 610.304 -0.99758 2.49603 0
M  V30 6267 C 608.575 1.35476 3.30728 0
M  V30 6268 S 610.134 1.2328 4.21126 0
M  V30 6269 H 606.952 0.302702 0.643345 0
M  V30 6270 H 609.554 1.3953 1.36936 0
M  V30 6271 H 608.258 2.41381 3.31909 0
M  V30 6272 H 607.789 0.792286 3.85339 0
M  V30 6273 H 609.804 0.182468 4.95864 0
M  V30 6274 N 608.977 -1.30795 0.87923 0
M  V30 6275 C 610.225 -1.95974 0.493809 0
M  V30 6276 C 610.546 -1.69787 -0.959021 0
M  V30 6277 O 609.816 -1.01832 -1.67353 0
M  V30 6278 H 608.396 -0.725083 0.179622 0
M  V30 6279 H 611.058 -1.59432 1.12105 0
M  V30 6280 H 610.154 -3.05058 0.659263 0
M  V30 6281 N 610.455 -0.639598 -1.44038 0
M  V30 6282 C 611.388 0.109736 -2.27936 0
M  V30 6283 C 612.366 0.843095 -1.39035 0
M  V30 6284 O 613.55 0.845456 -1.68476 0
M  V30 6285 C 610.677 1.16173 -3.18153 0
M  V30 6286 C 609.723 0.527954 -4.2322 0
M  V30 6287 S 610.556 -0.688318 -5.31058 0
M  V30 6288 C 611.712 0.363481 -6.24844 0
M  V30 6289 H 611.945 -0.601986 -2.91142 0
M  V30 6290 H 609.478 -0.42802 -1.48349 0
M  V30 6291 H 611.436 1.76372 -3.7068 0
M  V30 6292 H 610.097 1.84569 -2.54151 0
M  V30 6293 H 609.29 1.32054 -4.86393 0
M  V30 6294 H 608.892 0.000396444 -3.74 0
M  V30 6295 H 611.184 1.23362 -6.66174 0
M  V30 6296 H 612.127 -0.23288 -7.07717 0
M  V30 6297 H 612.535 0.693179 -5.60228 0
M  V30 6298 N 611.933 1.52934 -0.380664 0
M  V30 6299 C 612.865 2.23822 0.493581 0
M  V30 6300 C 613.878 1.25761 1.03383 0
M  V30 6301 O 615.067 1.5189 0.937633 0
M  V30 6302 C 612.167 2.9342 1.69582 0
M  V30 6303 C 611.34 4.18115 1.28445 0
M  V30 6304 C 610.399 4.70788 2.35042 0
M  V30 6305 O 609.425 5.34093 1.96807 0
M  V30 6306 N 610.627 4.49899 3.66839 0
M  V30 6307 H 613.392 2.99484 -0.11371 0
M  V30 6308 H 610.953 1.60577 -0.206587 0
M  V30 6309 H 612.945 3.2556 2.40401 0
M  V30 6310 H 611.515 2.21119 2.20965 0
M  V30 6311 H 610.735 3.92109 0.405503 0
M  V30 6312 H 612.023 4.99152 0.986132 0
M  V30 6313 H 611.421 3.99349 4.0067 0
M  V30 6314 H 609.978 4.86551 4.33718 0
M  V30 6315 N 613.412 0.11024 1.57214 0
M  V30 6316 C 614.658 -0.550684 1.9518 0
M  V30 6317 C 614.991 -1.66885 0.993122 0
M  V30 6318 O 614.266 -1.94479 0.0287907 0
M  V30 6319 C 614.549 -1.09163 3.43155 0
M  V30 6320 C 614.402 0.0225198 4.49794 0
M  V30 6321 C 615.721 -1.98527 3.92778 0
M  V30 6322 H 612.84 -0.198706 0.709708 0
M  V30 6323 H 615.482 0.184024 1.89107 0
M  V30 6324 H 613.632 -1.71775 3.48462 0
M  V30 6325 H 615.304 0.657443 4.56591 0
M  V30 6326 H 613.547 0.686868 4.28328 0
M  V30 6327 H 614.218 -0.39706 5.5057 0
M  V30 6328 H 616.694 -1.458 3.8972 0
M  V30 6329 H 615.57 -2.33298 4.96853 0
M  V30 6330 H 615.831 -2.90846 3.32958 0
M  V30 6331 N 614.89 -1.56749 -0.16351 0
M  V30 6332 C 616.115 -1.86938 -0.898264 0
M  V30 6333 C 616.54 -0.697456 -1.74692 0
M  V30 6334 O 615.898 0.353327 -1.77824 0
M  V30 6335 C 615.946 -3.15599 -1.74441 0
M  V30 6336 O 615.05 -2.98371 -2.8469 0
M  V30 6337 H 614.391 -0.614659 -0.251178 0
M  V30 6338 H 616.921 -2.03979 -0.159298 0
M  V30 6339 H 616.931 -3.47202 -2.14277 0
M  V30 6340 H 615.606 -4.00505 -1.1211 0
M  V30 6341 H 614.183 -2.7814 -2.4838 0
M  V30 6342 N 616.368 0.432326 -1.51554 0
M  V30 6343 C 617.331 1.50765 -1.72634 0
M  V30 6344 C 618.331 1.49334 -0.596314 0
M  V30 6345 O 619.521 1.51268 -0.863925 0
M  V30 6346 C 616.653 2.90284 -1.7874 0
M  V30 6347 H 617.846 1.33377 -2.68609 0
M  V30 6348 H 615.399 0.661329 -1.4162 0
M  V30 6349 H 616.134 3.13071 -0.845977 0
M  V30 6350 H 615.919 2.92727 -2.6087 0
M  V30 6351 H 617.409 3.68282 -1.96871 0
M  V30 6352 N 617.846 1.41785 0.688094 0
M  V30 6353 C 619.071 1.45117 1.48175 0
M  V30 6354 C 619.496 0.060129 1.88004 0
M  V30 6355 O 618.854 -0.938385 1.55126 0
M  V30 6356 C 618.902 2.37224 2.71583 0
M  V30 6357 O 618.006 1.83443 3.69354 0
M  V30 6358 H 617.347 0.492208 0.445676 0
M  V30 6359 H 619.877 1.86329 0.845145 0
M  V30 6360 H 619.887 2.53353 3.19806 0
M  V30 6361 H 618.562 3.38293 2.41931 0
M  V30 6362 H 617.139 1.76802 3.28322 0
M  V30 6363 N 619.324 -0.923095 1.27737 0
M  V30 6364 C 620.257 -2.02515 1.05181 0
M  V30 6365 C 621.235 -1.62574 -0.0292204 0
M  V30 6366 O 622.419 -1.88137 0.116848 0
M  V30 6367 C 619.546 -3.33407 0.596468 0
M  V30 6368 C 618.592 -3.92328 1.67276 0
M  V30 6369 S 619.425 -4.24342 3.26641 0
M  V30 6370 C 620.581 -5.58308 2.82919 0
M  V30 6371 H 620.814 -2.21336 1.98488 0
M  V30 6372 H 618.347 -1.06679 1.1162 0
M  V30 6373 H 620.305 -4.09086 0.34044 0
M  V30 6374 H 618.966 -3.125 -0.316614 0
M  V30 6375 H 618.159 -4.86797 1.30556 0
M  V30 6376 H 617.761 -3.2325 1.8811 0
M  V30 6377 H 620.053 -6.37801 2.28509 0
M  V30 6378 H 620.996 -5.99931 3.7615 0
M  V30 6379 H 621.404 -5.19049 2.21919 0
M  V30 6380 N 620.802 -1.09834 -1.13024 0
M  V30 6381 C 622.051 -0.831806 -1.83749 0
M  V30 6382 C 622.364 0.644763 -1.84668 0
M  V30 6383 O 623.57 1.02697 -2.51327 0
M  V30 6384 C 622.026 -1.43817 -3.29916 0
M  V30 6385 C 621.634 -2.94759 -3.37374 0
M  V30 6386 C 623.378 -1.25077 -4.05655 0
M  V30 6387 C 621.285 -3.48461 -4.77838 0
M  V30 6388 H 620.215 -0.30751 -0.688443 0
M  V30 6389 H 622.866 -1.32156 -1.27307 0
M  V30 6390 H 621.248 -0.876106 -3.86187 0
M  V30 6391 H 622.422 -3.57228 -2.91076 0
M  V30 6392 H 620.737 -3.12581 -2.75103 0
M  V30 6393 H 623.334 -1.62649 -5.09362 0
M  V30 6394 H 623.677 -0.191782 -4.15858 0
M  V30 6395 H 624.21 -1.78057 -3.55725 0
M  V30 6396 H 620.949 -4.53998 -4.72828 0
M  V30 6397 H 620.469 -2.90757 -5.24615 0
M  V30 6398 H 622.148 -3.45914 -5.46766 0
M  V30 6399 N 622.28 1.30327 -0.886154 0
M  V30 6400 C 623.505 2.0079 -0.519425 0
M  V30 6401 C 623.93 1.65979 0.885013 0
M  V30 6402 O 623.288 0.877043 1.58675 0
M  V30 6403 C 623.336 3.53686 -0.702758 0
M  V30 6404 O 622.44 4.11637 0.250828 0
M  V30 6405 H 621.781 0.63171 -0.204544 0
M  V30 6406 H 624.311 1.66145 -1.19402 0
M  V30 6407 H 624.321 4.03531 -0.602207 0
M  V30 6408 H 622.996 3.78361 -1.72673 0
M  V30 6409 H 621.573 3.72755 0.103873 0
M  V30 6410 N 623.758 0.647228 1.43697 0
M  V30 6411 C 624.706 -0.0600105 2.32523 0
M  V30 6412 C 625.7 -0.819277 1.48271 0
M  V30 6413 O 626.906 -0.730356 1.64517 0
M  V30 6414 H 623.281 -0.0381872 0.75103 0
M  V30 6415 H 625.252 0.706978 2.89904 0
M  V30 6416 C 624.001 -1.0169 3.32497 0
M  V30 6417 H 623.324 -0.442083 3.97348 0
M  V30 6418 H 624.764 -1.48095 3.97296 0
M  V30 6419 C 623.223 -2.11002 2.6264 0
M  V30 6420 O 623.753 -3.19302 2.4374 0
M  V30 6421 N 621.959 -1.87388 2.22113 0
M  V30 6422 H 621.506 -0.993174 2.37684 0
M  V30 6423 H 621.464 -2.60723 1.75701 0
M  V30 6424 N 625.236 -1.5273 0.388769 0
M  V30 6425 C 626.146 -2.30165 -0.453993 0
M  V30 6426 C 627.162 -1.37058 -1.07197 0
M  V30 6427 O 628.338 -1.70127 -1.0779 0
M  V30 6428 C 625.403 -3.09303 -1.56628 0
M  V30 6429 C 624.464 -4.18117 -0.973467 0
M  V30 6430 C 623.697 -4.93472 -2.03275 0
M  V30 6431 O 623.92 -4.68913 -3.24772 0
M  V30 6432 O 622.854 -5.78833 -1.65034 0
M  V30 6433 H 626.68 -3.03185 0.176816 0
M  V30 6434 H 624.265 -1.4862 0.152501 0
M  V30 6435 H 626.147 -3.58648 -2.21246 0
M  V30 6436 H 624.822 -2.39098 -2.18206 0
M  V30 6437 H 623.729 -3.7297 -0.290556 0
M  V30 6438 H 625.062 -4.90556 -0.401908 0
M  V30 6439 N 626.714 -0.118576 -1.57153 0
M  V30 6440 C 627.677 0.817464 -2.14127 0
M  V30 6441 C 628.677 1.1949 -1.07604 0
M  V30 6442 O 629.867 1.12048 -1.33382 0
M  V30 6443 C 626.999 2.10541 -2.68115 0
M  V30 6444 H 628.192 0.322339 -2.98163 0
M  V30 6445 H 625.745 0.130655 -1.55753 0
M  V30 6446 H 626.48 2.64485 -1.87665 0
M  V30 6447 H 626.265 1.84425 -3.4602 0
M  V30 6448 H 627.755 2.77453 -3.12105 0
M  V30 6449 N 628.193 1.56834 0.155195 0
M  V30 6450 C 629.439 1.83169 0.870467 0
M  V30 6451 C 629.772 0.698929 1.81187 0
M  V30 6452 O 629.047 -0.298035 1.92203 0
M  V30 6453 C 629.33 3.19965 1.65211 0
M  V30 6454 C 629.183 4.43792 0.732744 0
M  V30 6455 C 630.502 3.53885 2.61636 0
M  V30 6456 H 627.621 0.666288 0.315006 0
M  V30 6457 H 630.263 1.89513 0.135988 0
M  V30 6458 H 628.413 3.14687 2.27825 0
M  V30 6459 H 630.085 4.61148 0.118236 0
M  V30 6460 H 628.328 4.3378 0.0417906 0
M  V30 6461 H 628.999 5.36095 1.31552 0
M  V30 6462 H 631.475 3.5972 2.09143 0
M  V30 6463 H 630.351 4.50648 3.13381 0
M  V30 6464 H 630.612 2.79418 3.42605 0
M  V30 6465 N 629.671 -0.424282 1.51781 0
M  V30 6466 C 630.917 -1.17434 1.6534 0
M  V30 6467 C 631.25 -1.90549 0.374806 0
M  V30 6468 O 630.525 -1.84145 -0.626179 0
M  V30 6469 C 630.808 -2.18093 2.86544 0
M  V30 6470 C 630.661 -1.48975 4.24413 0
M  V30 6471 C 631.98 -3.18934 3.03264 0
M  V30 6472 H 629.099 -0.425566 0.601716 0
M  V30 6473 H 631.741 -0.461921 1.84299 0
M  V30 6474 H 629.891 -2.78849 2.7051 0
M  V30 6475 H 631.563 -0.914551 4.52143 0
M  V30 6476 H 629.806 -0.791893 4.26511 0
M  V30 6477 H 630.477 -2.22347 5.05238 0
M  V30 6478 H 632.953 -2.68243 3.18096 0
M  V30 6479 H 631.829 -3.86645 3.89611 0
M  V30 6480 H 632.09 -3.85793 2.15908 0
M  V30 6481 N 631.149 -1.42148 -0.680565 0
M  V30 6482 C 632.097 -1.45401 -1.81552 0
M  V30 6483 C 633.091 -0.33036 -1.66147 0
M  V30 6484 O 634.297 -0.503103 -1.72826 0
M  V30 6485 H 630.672 -0.455265 -0.59853 0
M  V30 6486 H 632.643 -2.41024 -1.75926 0
M  V30 6487 C 631.392 -1.36769 -3.19671 0
M  V30 6488 H 630.715 -2.22525 -3.32149 0
M  V30 6489 H 632.155 -1.43106 -3.9912 0
M  V30 6490 C 630.614 -0.0817752 -3.36801 0
M  V30 6491 O 631.144 0.867707 -3.92216 0
M  V30 6492 N 629.35 -0.000799811 -2.906 0
M  V30 6493 H 628.897 -0.774231 -2.4569 0
M  V30 6494 H 628.855 0.858961 -3.02439 0
M  V30 6495 N 632.627 0.916307 -1.28225 0
M  V30 6496 C 633.876 1.65975 -1.14608 0
M  V30 6497 C 634.189 1.93204 0.305191 0
M  V30 6498 O 635.395 2.65611 0.562432 0
M  V30 6499 C 633.851 2.98989 -2.00333 0
M  V30 6500 C 633.459 2.79417 -3.50186 0
M  V30 6501 C 635.203 3.76856 -1.95397 0
M  V30 6502 C 633.11 4.08056 -4.28071 0
M  V30 6503 H 632.04 0.622587 -0.425324 0
M  V30 6504 H 634.691 1.01705 -1.52736 0
M  V30 6505 H 633.073 3.6438 -1.5506 0
M  V30 6506 H 634.247 2.22723 -4.034 0
M  V30 6507 H 632.562 2.14966 -3.56621 0
M  V30 6508 H 635.159 4.72203 -2.50856 0
M  V30 6509 H 635.502 4.05776 -0.930137 0
M  V30 6510 H 636.035 3.1828 -2.38626 0
M  V30 6511 H 632.774 3.8431 -5.31024 0
M  V30 6512 H 632.294 4.64371 -3.79631 0
M  V30 6513 H 633.973 4.76333 -4.37854 0
M  V30 6514 N 634.105 1.10431 1.1244 0
M  V30 6515 C 635.035 0.775143 2.20258 0
M  V30 6516 C 636.016 -0.25186 1.68225 0
M  V30 6517 O 637.201 -0.117637 1.93843 0
M  V30 6518 C 634.331 0.206133 3.46688 0
M  V30 6519 C 633.285 1.16382 4.11873 0
M  V30 6520 C 632.611 0.456014 5.32752 0
M  V30 6521 C 633.911 2.5104 4.58013 0
M  V30 6522 H 635.605 1.67665 2.4805 0
M  V30 6523 H 633.151 0.807595 1.19222 0
M  V30 6524 H 635.104 -0.036291 4.21384 0
M  V30 6525 H 633.828 -0.730614 3.18323 0
M  V30 6526 H 632.487 1.39169 3.39157 0
M  V30 6527 H 632.135 -0.485203 5.00654 0
M  V30 6528 H 631.835 1.09466 5.77314 0
M  V30 6529 H 633.359 0.222135 6.10196 0
M  V30 6530 H 634.773 2.32401 5.24083 0
M  V30 6531 H 633.17 3.10789 5.13352 0
M  V30 6532 H 634.24 3.11039 3.71998 0
M  V30 6533 N 635.583 -1.29855 0.893053 0
M  V30 6534 C 636.808 -2.00512 0.530066 0
M  V30 6535 C 637.233 -1.66446 -0.876199 0
M  V30 6536 O 636.591 -0.885446 -1.58207 0
M  V30 6537 C 636.639 -3.53308 0.721505 0
M  V30 6538 O 635.743 -4.11764 -0.228994 0
M  V30 6539 H 635.084 -0.630617 0.207891 0
M  V30 6540 H 637.614 -1.6551 1.20282 0
M  V30 6541 H 637.624 -4.03206 0.623599 0
M  V30 6542 H 636.299 -3.77439 1.74678 0
M  V30 6543 H 634.876 -3.72805 -0.0841034 0
M  V30 6544 N 637.061 -0.65484 -1.43351 0
M  V30 6545 C 638.286 -0.175046 -2.0666 0
M  V30 6546 C 638.711 1.15104 -1.4877 0
M  V30 6547 O 638.069 1.71144 -0.598279 0
M  V30 6548 C 638.117 -0.0991544 -3.60464 0
M  V30 6549 O 637.221 0.938169 -4.01587 0
M  V30 6550 H 636.562 -0.0956148 -0.65708 0
M  V30 6551 H 639.092 -0.898222 -1.83829 0
M  V30 6552 H 639.102 0.083632 -4.07914 0
M  V30 6553 H 637.777 -1.06719 -4.01975 0
M  V30 6554 H 636.354 0.72804 -3.65724 0
M  V30 6555 N 638.539 1.52521 -0.396863 0
M  V30 6556 C 639.764 2.06571 0.185258 0
M  V30 6557 C 640.189 1.26605 1.39115 0
M  V30 6558 O 639.547 0.293055 1.78916 0
M  V30 6559 C 639.595 3.5674 0.526189 0
M  V30 6560 O 638.699 3.7929 1.61903 0
M  V30 6561 H 638.04 0.663712 0.0195474 0
M  V30 6562 H 640.57 1.966 -0.566519 0
M  V30 6563 H 640.58 4.00311 0.788338 0
M  V30 6564 H 639.255 4.14379 -0.355397 0
M  V30 6565 H 637.832 3.47605 1.35 0
M  V30 6566 N 640.017 0.126909 1.57088 0
M  V30 6567 C 641.242 -0.53997 2.00248 0
M  V30 6568 C 641.667 -1.58927 1.00618 0
M  V30 6569 O 641.025 -1.81288 -0.0210131 0
M  V30 6570 C 641.073 -1.13565 3.4225 0
M  V30 6571 O 640.177 -2.25103 3.45547 0
M  V30 6572 H 639.518 -0.13412 0.650314 0
M  V30 6573 H 642.048 0.217718 2.03438 0
M  V30 6574 H 642.058 -1.46925 3.80627 0
M  V30 6575 H 640.733 -0.367122 4.14277 0
M  V30 6576 H 639.31 -1.93123 3.18995 0
M  V30 6577 N 641.495 -1.56914 -0.146875 0
M  V30 6578 C 642.906 -1.72799 -0.706928 0
M  V30 6579 C 643.257 -0.741329 -1.81656 0
M  V30 6580 O 642.382 0.0920162 -2.16204 0
M  V30 6581 C 642.977 -3.13317 -1.28911 0
M  V30 6582 C 641.536 -3.30803 -1.79573 0
M  V30 6583 C 640.683 -2.68725 -0.684252 0
M  V30 6584 H 643.634 -1.58504 0.0787931 0
M  V30 6585 H 643.655 -3.13323 -2.15891 0
M  V30 6586 H 643.167 -3.85104 -0.481284 0
M  V30 6587 H 641.268 -2.64012 -2.62923 0
M  V30 6588 H 641.381 -4.38754 -1.92436 0
M  V30 6589 H 639.745 -2.29196 -1.11091 0
M  V30 6590 H 640.528 -3.43117 0.112134 0
M  V30 6591 N 642.974 0.416227 -1.52004 0
M  V30 6592 C 643.906 1.52552 -1.71058 0
M  V30 6593 C 644.919 1.51693 -0.59102 0
M  V30 6594 O 646.108 1.56087 -0.865973 0
M  V30 6595 C 643.208 2.91455 -1.72937 0
M  V30 6596 C 642.381 3.16584 -3.01816 0
M  V30 6597 C 641.44 4.35322 -2.95603 0
M  V30 6598 O 640.466 4.32947 -3.6952 0
M  V30 6599 N 641.668 5.40049 -2.12903 0
M  V30 6600 H 644.433 1.36604 -2.66757 0
M  V30 6601 H 641.994 0.60544 -1.50153 0
M  V30 6602 H 643.986 3.68944 -1.66321 0
M  V30 6603 H 642.556 3.00895 -0.847418 0
M  V30 6604 H 641.776 2.27203 -3.22137 0
M  V30 6605 H 643.064 3.30213 -3.87088 0
M  V30 6606 H 642.462 5.44823 -1.52265 0
M  V30 6607 H 641.019 6.16308 -2.1215 0
M  V30 6608 N 644.452 1.42507 0.673017 0
M  V30 6609 C 645.868 1.25472 0.986355 0
M  V30 6610 C 646.068 0.160181 2.00862 0
M  V30 6611 O 645.124 -0.467993 2.48125 0
M  V30 6612 C 646.437 2.61219 1.48947 0
M  V30 6613 C 647.985 2.68589 1.60715 0
M  V30 6614 C 648.46 4.04707 2.14422 0
M  V30 6615 N 649.951 4.0667 2.21752 0
M  V30 6616 C 650.686 5.0881 2.64386 0
M  V30 6617 N 650.182 6.21332 3.0646 0
M  V30 6618 N 651.975 4.96166 2.64151 0
M  V30 6619 H 644.126 2.124 -0.00378532 0
M  V30 6620 H 646.389 0.946046 0.0608367 0
M  V30 6621 H 646.095 3.42179 0.812812 0
M  V30 6622 H 645.969 2.85261 2.46791 0
M  V30 6623 H 648.356 1.87974 2.27486 0
M  V30 6624 H 648.437 2.48333 0.613552 0
M  V30 6625 H 648.081 4.8578 1.48258 0
M  V30 6626 H 648.011 4.22315 3.14575 0
M  V30 6627 H 650.502 3.25438 1.92089 0
M  V30 6628 H 650.815 6.95118 3.37684 0
M  V30 6629 H 649.16 6.24835 3.04313 0
M  V30 6630 H 652.351 4.07334 2.30644 0
M  V30 6631 H 652.524 5.759 2.97057 0
M  V30 6632 N 645.93 -0.909495 1.28709 0
M  V30 6633 C 646.877 -2.01245 1.13 0
M  V30 6634 C 647.847 -1.6608 0.0259684 0
M  V30 6635 O 649.032 -1.89835 0.191687 0
M  V30 6636 C 646.172 -3.35644 0.802315 0
M  V30 6637 C 645.285 -3.83653 1.98582 0
M  V30 6638 C 644.42 -5.06582 1.59837 0
M  V30 6639 C 643.459 -5.46934 2.74827 0
M  V30 6640 N 642.596 -6.61053 2.36546 0
M  V30 6641 H 647.436 -2.14013 2.0737 0
M  V30 6642 H 644.973 -1.0482 1.03205 0
M  V30 6643 H 646.931 -4.12963 0.593057 0
M  V30 6644 H 645.561 -3.22631 -0.104457 0
M  V30 6645 H 644.613 -3.02454 2.30708 0
M  V30 6646 H 645.925 -4.09515 2.84779 0
M  V30 6647 H 645.079 -5.91457 1.35143 0
M  V30 6648 H 643.818 -4.82537 0.707753 0
M  V30 6649 H 642.823 -4.60599 3.00215 0
M  V30 6650 H 644.048 -5.72965 3.64538 0
M  V30 6651 H 641.994 -6.3863 1.49959 0
M  V30 6652 H 641.911 -6.86662 3.16277 0
M  V30 6653 H 643.179 -7.49221 2.15146 0
M  V30 6654 N 647.408 -1.11026 -1.11852 0
M  V30 6655 C 648.355 -0.764662 -2.17765 0
M  V30 6656 C 649.325 0.261854 -1.64023 0
M  V30 6657 O 650.51 0.139748 -1.90288 0
M  V30 6658 C 647.65 -0.209317 -3.44465 0
M  V30 6659 C 646.763 -1.29187 -4.12231 0
M  V30 6660 C 645.898 -0.697523 -5.266 0
M  V30 6661 C 644.937 -1.76023 -5.86244 0
M  V30 6662 N 644.074 -1.18569 -6.92016 0
M  V30 6663 H 648.914 -1.67202 -2.46673 0
M  V30 6664 H 646.451 -0.835065 -1.21099 0
M  V30 6665 H 648.409 0.130599 -4.16996 0
M  V30 6666 H 647.039 0.661251 -3.15955 0
M  V30 6667 H 646.091 -1.74881 -3.37818 0
M  V30 6668 H 647.403 -2.09607 -4.52622 0
M  V30 6669 H 646.557 -0.307412 -6.05921 0
M  V30 6670 H 645.296 0.138044 -4.87505 0
M  V30 6671 H 644.301 -2.1597 -5.05606 0
M  V30 6672 H 645.526 -2.59875 -6.27409 0
M  V30 6673 H 643.472 -0.371695 -6.54946 0
M  V30 6674 H 643.389 -1.92666 -7.31038 0
M  V30 6675 H 644.657 -0.82233 -7.7515 0
M  V30 6676 N 648.886 1.2938 -0.899927 0
M  V30 6677 C 650.132 1.9584 -0.526742 0
M  V30 6678 C 650.465 1.70774 0.924651 0
M  V30 6679 O 649.74 1.02084 1.65557 0
M  V30 6680 C 650.023 3.50638 -0.820062 0
M  V30 6681 C 649.876 3.85161 -2.32317 0
M  V30 6682 C 651.195 4.3903 -0.30671 0
M  V30 6683 H 648.314 0.711322 -0.192848 0
M  V30 6684 H 650.956 1.52992 -1.12665 0
M  V30 6685 H 649.106 3.87265 -0.309491 0
M  V30 6686 H 650.778 3.58477 -2.9033 0
M  V30 6687 H 649.021 3.32696 -2.78381 0
M  V30 6688 H 649.692 4.93204 -2.47898 0
M  V30 6689 H 652.168 4.09396 -0.743908 0
M  V30 6690 H 651.044 5.46226 -0.541144 0
M  V30 6691 H 651.305 4.34937 0.792588 0
M  V30 6692 N 650.364 0.662433 1.43002 0
M  V30 6693 C 651.314 -0.0460442 2.27954 0
M  V30 6694 C 652.298 -0.785753 1.40409 0
M  V30 6695 O 653.49 -0.666701 1.63964 0
M  V30 6696 C 650.619 -1.00532 3.2825 0
M  V30 6697 C 649.705 -0.263604 4.2328 0
M  V30 6698 N 650.096 0.724855 5.00579 0
M  V30 6699 C 648.394 -0.503778 4.43146 0
M  V30 6700 C 649.095 1.16594 5.69895 0
M  V30 6701 N 648.071 0.498345 5.41311 0
M  V30 6702 H 651.873 0.712314 2.85137 0
M  V30 6703 H 649.387 0.490469 1.54817 0
M  V30 6704 H 651.384 -1.52775 3.87899 0
M  V30 6705 H 650.044 -1.76364 2.72628 0
M  V30 6706 H 651.055 1.10393 5.05998 0
M  V30 6707 H 647.732 -1.24255 3.98581 0
M  V30 6708 H 649.122 1.98434 6.4193 0
M  V30 6709 N 651.842 -1.52309 0.404946 0
M  V30 6710 C 653.082 -2.03677 -0.171779 0
M  V30 6711 C 653.446 -1.28419 -1.42733 0
M  V30 6712 O 654.647 -1.69991 -2.08222 0
M  V30 6713 C 652.918 -3.54951 -0.417701 0
M  V30 6714 S 654.477 -4.28114 -0.962472 0
M  V30 6715 H 651.295 -0.709445 -0.0469912 0
M  V30 6716 H 653.897 -1.874 0.556901 0
M  V30 6717 H 652.601 -4.07306 0.50295 0
M  V30 6718 H 652.132 -3.75462 -1.17437 0
M  V30 6719 H 654.147 -4.42589 -2.24342 0
M  V30 6720 N 653.32 -0.135238 -1.57019 0
M  V30 6721 C 654.25 0.805235 -2.19176 0
M  V30 6722 C 655.231 1.2656 -1.13651 0
M  V30 6723 O 656.416 1.32528 -1.4195 0
M  V30 6724 C 653.546 2.04914 -2.80406 0
M  V30 6725 C 652.5 1.72598 -3.91655 0
M  V30 6726 C 651.826 3.04154 -4.39766 0
M  V30 6727 C 653.126 0.981709 -5.12991 0
M  V30 6728 H 654.82 0.287232 -2.98019 0
M  V30 6729 H 652.366 0.136714 -1.4335 0
M  V30 6730 H 654.319 2.71178 -3.22553 0
M  V30 6731 H 653.043 2.59067 -1.98877 0
M  V30 6732 H 651.702 1.08717 -3.50109 0
M  V30 6733 H 651.35 3.56274 -3.55075 0
M  V30 6734 H 651.05 2.83299 -5.14796 0
M  V30 6735 H 652.574 3.71509 -4.84576 0
M  V30 6736 H 653.988 1.5462 -5.52056 0
M  V30 6737 H 652.385 0.873533 -5.93708 0
M  V30 6738 H 653.455 -0.0286887 -4.84892 0
M  V30 6739 N 654.798 1.5699 0.138552 0
M  V30 6740 C 655.746 1.99858 1.18994 0
M  V30 6741 C 656.74 0.89231 1.43994 0
M  V30 6742 O 657.946 1.0775 1.44187 0
M  V30 6743 H 654.321 0.636325 0.400743 0
M  V30 6744 H 656.292 2.87427 0.801755 0
M  V30 6745 C 655.041 2.40235 2.51361 0
M  V30 6746 H 654.364 3.24917 2.32957 0
M  V30 6747 H 655.804 2.74045 3.23535 0
M  V30 6748 C 654.263 1.25829 3.1252 0
M  V30 6749 O 654.793 0.563604 3.97727 0
M  V30 6750 N 652.999 1.02036 2.72097 0
M  V30 6751 H 652.546 1.58705 2.02905 0
M  V30 6752 H 652.504 0.256796 3.1335 0
M  V30 6753 N 656.276 -0.40816 1.52223 0
M  V30 6754 C 657.209 -1.51834 1.70357 0
M  V30 6755 C 658.187 -1.52973 0.551171 0
M  V30 6756 O 659.371 -1.71667 0.778642 0
M  V30 6757 C 656.498 -2.90362 1.74378 0
M  V30 6758 C 655.544 -3.0713 2.95928 0
M  V30 6759 S 656.377 -2.80342 4.56255 0
M  V30 6760 C 657.533 -4.21098 4.63063 0
M  V30 6761 H 657.766 -1.36223 2.64255 0
M  V30 6762 H 655.299 -0.599798 1.42274 0
M  V30 6763 H 657.257 -3.70199 1.77379 0
M  V30 6764 H 655.918 -3.03314 0.816063 0
M  V30 6765 H 655.111 -4.08482 2.95226 0
M  V30 6766 H 654.713 -2.3516 2.90819 0
M  V30 6767 H 657.005 -5.14749 4.40499 0
M  V30 6768 H 657.948 -4.26823 5.65002 0
M  V30 6769 H 658.356 -4.06114 3.92086 0
M  V30 6770 N 657.755 -1.42862 -0.66545 0
M  V30 6771 C 659.032 -1.3431 -1.42197 0
M  V30 6772 C 659.412 0.0150265 -2.11095 0
M  V30 6773 O 658.76 1.03101 -2.03918 0
M  V30 6774 C 658.97 -2.51783 -2.41674 0
M  V30 6775 C 660.318 -2.94321 -3.0604 0
M  V30 6776 O 661.342 -2.51741 -2.52001 0
M  V30 6777 O 660.201 -3.68047 -4.03985 0
M  V30 6778 H 657.295 -0.530159 -0.634713 0
M  V30 6779 H 659.841 -1.54888 -0.693386 0
M  V30 6780 H 658.613 -3.42282 -1.89627 0
M  V30 6781 H 658.236 -2.33241 -3.22001 0
M  V30 6782 N 659.233 0.902656 -1.29189 0
M  V30 6783 C 660.458 1.69167 -1.19989 0
M  V30 6784 C 660.883 1.86607 0.236495 0
M  V30 6785 O 660.241 1.38425 1.17082 0
M  V30 6786 C 660.289 3.05532 -1.91527 0
M  V30 6787 O 659.393 3.93621 -1.2303 0
M  V30 6788 H 658.734 0.517584 -0.415936 0
M  V30 6789 H 661.264 1.12785 -1.70706 0
M  V30 6790 H 661.274 3.55693 -1.99866 0
M  V30 6791 H 659.949 2.92156 -2.96003 0
M  V30 6792 H 658.526 3.52055 -1.22928 0
M  V30 6793 N 660.711 1.11618 1.11262 0
M  V30 6794 C 661.641 0.79846 2.19424 0
M  V30 6795 C 662.622 -0.234003 1.68483 0
M  V30 6796 O 663.807 -0.0970704 1.93957 0
M  V30 6797 C 660.937 0.242892 3.4645 0
M  V30 6798 C 659.891 1.20744 4.10615 0
M  V30 6799 C 659.217 0.512494 5.32238 0
M  V30 6800 C 660.517 2.55884 4.55325 0
M  V30 6801 H 662.211 1.70286 2.46258 0
M  V30 6802 H 659.757 0.820195 1.18359 0
M  V30 6803 H 661.71 0.00840447 4.21399 0
M  V30 6804 H 660.434 -0.696811 3.1908 0
M  V30 6805 H 659.093 1.42759 3.37662 0
M  V30 6806 H 658.741 -0.432075 5.01141 0
M  V30 6807 H 658.441 1.15583 5.7612 0
M  V30 6808 H 659.965 0.286842 6.09926 0
M  V30 6809 H 661.379 2.37946 5.21588 0
M  V30 6810 H 659.776 3.16216 5.10027 0
M  V30 6811 H 660.846 3.14968 3.68678 0
M  V30 6812 N 662.189 -1.289 0.906776 0
M  V30 6813 C 663.414 -1.99939 0.551303 0
M  V30 6814 C 663.839 -1.67366 -0.858496 0
M  V30 6815 O 663.197 -0.902176 -1.57259 0
M  V30 6816 C 663.245 -3.52523 0.758937 0
M  V30 6817 O 662.349 -4.11983 -0.185308 0
M  V30 6818 H 661.69 -0.628376 0.214568 0
M  V30 6819 H 664.22 -1.64225 1.2203 0
M  V30 6820 H 664.23 -4.02522 0.666329 0
M  V30 6821 H 662.905 -3.75566 1.78671 0
M  V30 6822 H 661.482 -3.72873 -0.0445577 0
M  V30 6823 N 663.667 -0.670007 -1.42649 0
M  V30 6824 C 664.914 -0.190286 -2.01604 0
M  V30 6825 C 665.242 1.20155 -1.52948 0
M  V30 6826 O 664.497 1.81964 -0.72026 0
M  V30 6827 C 664.796 -0.168298 -3.57004 0
M  V30 6828 C 664.462 -1.50415 -4.25072 0
M  V30 6829 C 663.124 -1.86992 -4.43382 0
M  V30 6830 C 665.476 -2.38414 -4.63474 0
M  V30 6831 C 662.804 -3.11203 -4.97363 0
M  V30 6832 C 665.156 -3.61933 -5.18833 0
M  V30 6833 C 663.82 -3.98685 -5.35356 0
M  V30 6834 H 663.09 -0.0696305 -0.737721 0
M  V30 6835 H 665.737 -0.864044 -1.70899 0
M  V30 6836 H 664.042 0.588958 -3.87348 0
M  V30 6837 H 665.739 0.22001 -4.00396 0
M  V30 6838 H 662.329 -1.20959 -4.11177 0
M  V30 6839 H 666.513 -2.11442 -4.49006 0
M  V30 6840 H 661.769 -3.39705 -5.08341 0
M  V30 6841 H 665.943 -4.30326 -5.47533 0
M  V30 6842 H 663.57 -4.95009 -5.76949 0
M  V30 6843 N 665.145 1.52092 -0.413018 0
M  V30 6844 C 666.077 2.24819 0.445994 0
M  V30 6845 C 667.09 1.27925 1.00692 0
M  V30 6846 O 668.279 1.53845 0.905204 0
M  V30 6847 C 665.379 2.96951 1.6332 0
M  V30 6848 C 664.552 4.20746 1.19548 0
M  V30 6849 C 663.611 4.75668 2.25003 0
M  V30 6850 O 662.637 5.38148 1.85434 0
M  V30 6851 N 663.839 4.57579 3.57214 0
M  V30 6852 H 666.604 2.99176 -0.177209 0
M  V30 6853 H 664.165 1.60102 -0.240601 0
M  V30 6854 H 666.157 3.30586 2.33441 0
M  V30 6855 H 664.727 2.25756 2.16225 0
M  V30 6856 H 663.947 3.92881 0.32224 0
M  V30 6857 H 665.235 5.01132 0.880033 0
M  V30 6858 H 664.633 4.07758 3.92109 0
M  V30 6859 H 663.19 4.95642 4.23299 0
M  V30 6860 N 666.623 0.143563 1.56945 0
M  V30 6861 C 667.553 -0.7936 2.196 0
M  V30 6862 C 668.534 -1.25955 1.14321 0
M  V30 6863 O 669.719 -1.31773 1.42651 0
M  V30 6864 C 666.849 -2.03424 2.81489 0
M  V30 6865 C 665.803 -1.70519 3.92565 0
M  V30 6866 C 665.129 -3.01817 4.41373 0
M  V30 6867 C 666.429 -0.95449 5.13504 0
M  V30 6868 H 668.123 -0.271423 2.98167 0
M  V30 6869 H 665.669 -0.12911 1.4342 0
M  V30 6870 H 667.622 -2.69463 3.23987 0
M  V30 6871 H 666.346 -2.58008 2.00248 0
M  V30 6872 H 665.005 -1.06859 3.5068 0
M  V30 6873 H 664.653 -3.54386 3.56959 0
M  V30 6874 H 664.353 -2.80565 5.16292 0
M  V30 6875 H 665.877 -3.68934 4.86539 0
M  V30 6876 H 667.291 -1.5169 5.52868 0
M  V30 6877 H 665.688 -0.842035 5.94163 0
M  V30 6878 H 666.758 0.0544033 4.84869 0
M  V30 6879 N 668.101 -1.57061 -0.130224 0
M  V30 6880 C 669.349 -1.83893 -0.838313 0
M  V30 6881 C 669.67 -0.727046 -1.80939 0
M  V30 6882 O 668.94 0.249927 -1.94299 0
M  V30 6883 H 667.52 -0.67846 -0.312573 0
M  V30 6884 H 670.182 -1.94529 -0.120224 0
M  V30 6885 H 669.278 -2.79419 -1.39038 0
M  V30 6886 N 669.579 0.400081 -1.52437 0
M  V30 6887 C 670.509 1.4947 -1.7939 0
M  V30 6888 C 671.49 1.57383 -0.645329 0
M  V30 6889 O 672.675 1.72511 -0.891826 0
M  V30 6890 C 669.805 2.87201 -1.95276 0
M  V30 6891 C 668.759 2.94134 -3.10917 0
M  V30 6892 C 668.085 4.34207 -3.1204 0
M  V30 6893 C 669.385 2.64791 -4.50203 0
M  V30 6894 H 671.079 1.27165 -2.71052 0
M  V30 6895 H 668.625 0.610312 -1.30427 0
M  V30 6896 H 670.578 3.63772 -2.12715 0
M  V30 6897 H 669.302 3.10819 -1.00294 0
M  V30 6898 H 667.961 2.20009 -2.93243 0
M  V30 6899 H 667.609 4.54848 -2.14761 0
M  V30 6900 H 667.309 4.39768 -3.89715 0
M  V30 6901 H 668.833 5.127 -3.31619 0
M  V30 6902 H 670.247 3.31083 -4.68035 0
M  V30 6903 H 668.644 2.81717 -5.29864 0
M  V30 6904 H 669.714 1.60184 -4.57678 0
M  V30 6905 N 671.057 1.43213 0.657864 0
M  V30 6906 C 672.287 1.478 1.44356 0
M  V30 6907 C 672.695 0.0930206 1.88971 0
M  V30 6908 O 672.038 -0.906089 1.59799 0
M  V30 6909 C 672.1 2.35745 2.71412 0
M  V30 6910 C 671.764 3.83359 2.48767 0
M  V30 6911 C 672.761 4.74585 2.12285 0
M  V30 6912 C 670.446 4.27799 2.63235 0
M  V30 6913 C 672.44 6.08247 1.90562 0
M  V30 6914 C 670.127 5.61516 2.41128 0
M  V30 6915 C 671.125 6.51557 2.04847 0
M  V30 6916 O 670.813 7.82802 1.82967 0
M  V30 6917 H 670.545 0.504363 0.450104 0
M  V30 6918 H 673.099 1.88572 0.814241 0
M  V30 6919 H 671.329 1.89852 3.36887 0
M  V30 6920 H 673.018 2.31589 3.33348 0
M  V30 6921 H 673.784 4.41531 2.00687 0
M  V30 6922 H 669.663 3.57993 2.90451 0
M  V30 6923 H 673.207 6.78489 1.62168 0
M  V30 6924 H 669.104 5.94139 2.52327 0
M  V30 6925 H 669.872 7.94332 1.97429 0
M  V30 6926 N 672.536 -0.895792 1.29666 0
M  V30 6927 C 673.466 -2.01673 1.17688 0
M  V30 6928 C 674.447 -1.69955 0.0701317 0
M  V30 6929 O 675.632 -1.9258 0.250289 0
M  V30 6930 C 672.762 -3.36568 0.856681 0
M  V30 6931 C 671.716 -3.82509 1.92017 0
M  V30 6932 C 671.042 -5.14574 1.4532 0
M  V30 6933 C 672.342 -4.02409 3.32963 0
M  V30 6934 H 674.036 -2.11953 2.11463 0
M  V30 6935 H 671.582 -1.01839 1.01807 0
M  V30 6936 H 673.535 -4.14498 0.759577 0
M  V30 6937 H 672.259 -3.26391 -0.116763 0
M  V30 6938 H 670.918 -3.068 2.00673 0
M  V30 6939 H 670.566 -5.00815 0.468325 0
M  V30 6940 H 670.266 -5.46283 2.16447 0
M  V30 6941 H 671.79 -5.9504 1.36968 0
M  V30 6942 H 673.204 -4.70808 3.27127 0
M  V30 6943 H 671.601 -4.45478 4.02082 0
M  V30 6944 H 672.671 -3.06616 3.75652 0
M  V30 6945 N 674.014 -1.12206 -1.10668 0
M  V30 6946 C 675.239 -0.898938 -1.86906 0
M  V30 6947 C 675.664 0.546346 -1.79991 0
M  V30 6948 O 675.022 1.38655 -1.1681 0
M  V30 6949 C 675.07 -1.37529 -3.33344 0
M  V30 6950 O 674.174 -0.55218 -4.08687 0
M  V30 6951 H 673.515 -0.323163 -0.580053 0
M  V30 6952 H 676.045 -1.49355 -1.39837 0
M  V30 6953 H 676.055 -1.3733 -3.84193 0
M  V30 6954 H 674.73 -2.42767 -3.37693 0
M  V30 6955 H 673.307 -0.620947 -3.67694 0
M  V30 6956 N 675.492 1.28418 -0.913599 0
M  V30 6957 C 676.903 1.77024 -0.593237 0
M  V30 6958 C 677.254 1.74779 0.891441 0
M  V30 6959 O 676.379 1.34237 1.69733 0
M  V30 6960 C 676.974 3.21456 -1.07011 0
M  V30 6961 C 675.533 3.67786 -0.800664 0
M  V30 6962 C 674.68 2.48185 -1.23691 0
M  V30 6963 H 677.631 1.14883 -1.09487 0
M  V30 6964 H 677.652 3.78269 -0.411481 0
M  V30 6965 H 677.164 3.23058 -2.1507 0
M  V30 6966 H 675.265 3.71644 0.266725 0
M  V30 6967 H 675.378 4.57934 -1.4083 0
M  V30 6968 H 673.742 2.46116 -0.655655 0
M  V30 6969 H 674.525 2.52506 -2.32585 0
M  V30 6970 N 676.97 0.677563 1.42291 0
M  V30 6971 C 677.92 -0.0218641 2.2799 0
M  V30 6972 C 678.904 -0.770816 1.41235 0
M  V30 6973 O 680.096 -0.649273 1.64662 0
M  V30 6974 C 677.225 -0.970449 3.29298 0
M  V30 6975 C 676.311 -0.218695 4.23536 0
M  V30 6976 N 676.702 0.777908 4.99782 0
M  V30 6977 C 675 -0.456748 4.43655 0
M  V30 6978 C 675.701 1.22632 5.68627 0
M  V30 6979 N 674.677 0.55573 5.40752 0
M  V30 6980 H 678.479 0.742516 2.84366 0
M  V30 6981 H 675.993 0.506862 1.54288 0
M  V30 6982 H 677.99 -1.48652 3.89497 0
M  V30 6983 H 676.65 -1.73463 2.74483 0
M  V30 6984 H 677.661 1.15754 5.04798 0
M  V30 6985 H 674.338 -1.20021 3.99877 0
M  V30 6986 H 675.728 2.05231 6.39789 0
M  V30 6987 N 678.448 -1.51871 0.421078 0
M  V30 6988 C 679.695 -2.01938 -0.15079 0
M  V30 6989 C 680.023 -1.30611 -1.44121 0
M  V30 6990 O 679.278 -0.404631 -1.91471 0
M  V30 6991 C 679.577 -3.54764 -0.433292 0
M  V30 6992 C 679.243 -4.44288 0.76936 0
M  V30 6993 C 677.905 -4.68477 1.09921 0
M  V30 6994 C 680.257 -4.96915 1.57242 0
M  V30 6995 C 677.585 -5.4254 2.2331 0
M  V30 6996 C 679.937 -5.7222 2.69716 0
M  V30 6997 C 678.601 -5.94678 3.03174 0
M  V30 6998 H 677.871 -0.738943 -0.0551781 0
M  V30 6999 H 680.518 -1.82977 0.564945 0
M  V30 7000 H 678.823 -3.71968 -1.23074 0
M  V30 7001 H 680.52 -3.91023 -0.888922 0
M  V30 7002 H 677.11 -4.25646 0.502305 0
M  V30 7003 H 681.294 -4.78125 1.3308 0
M  V30 7004 H 676.55 -5.58146 2.49565 0
M  V30 7005 H 680.724 -6.11992 3.32323 0
M  V30 7006 H 678.351 -6.51848 3.9115 0
M  V30 7007 N 679.926 -0.151884 -1.56866 0
M  V30 7008 C 680.856 0.781943 -2.20018 0
M  V30 7009 C 681.837 1.25347 -1.14987 0
M  V30 7010 O 683.022 1.31015 -1.43348 0
M  V30 7011 C 680.152 2.01928 -2.82564 0
M  V30 7012 C 679.106 1.68434 -3.93464 0
M  V30 7013 C 678.432 2.99472 -4.42968 0
M  V30 7014 C 679.732 0.927244 -5.14003 0
M  V30 7015 H 681.426 0.255607 -2.98307 0
M  V30 7016 H 678.972 0.121502 -1.43486 0
M  V30 7017 H 680.925 2.67741 -3.25411 0
M  V30 7018 H 679.649 2.56943 -2.01614 0
M  V30 7019 H 678.308 1.04998 -3.51242 0
M  V30 7020 H 677.956 3.52488 -3.58834 0
M  V30 7021 H 677.656 2.77823 -5.17772 0
M  V30 7022 H 679.18 3.66348 -4.88489 0
M  V30 7023 H 680.594 1.48756 -5.53665 0
M  V30 7024 H 678.991 0.810513 -5.94601 0
M  V30 7025 H 680.061 -0.0801163 -4.84834 0
M  V30 7026 N 681.404 1.57128 0.121893 0
M  V30 7027 C 682.336 1.96773 1.17529 0
M  V30 7028 C 683.349 0.866668 1.37814 0
M  V30 7029 O 684.538 1.14497 1.3694 0
M  V30 7030 C 681.638 2.24832 2.53582 0
M  V30 7031 C 680.811 3.56138 2.53939 0
M  V30 7032 C 679.87 3.72443 3.71716 0
M  V30 7033 O 678.896 4.44584 3.55434 0
M  V30 7034 N 680.098 3.10993 4.90167 0
M  V30 7035 H 682.863 2.87743 0.838086 0
M  V30 7036 H 680.424 1.58881 0.311199 0
M  V30 7037 H 682.416 2.32958 3.30927 0
M  V30 7038 H 680.986 1.40002 2.79496 0
M  V30 7039 H 680.206 3.59226 1.62329 0
M  V30 7040 H 681.494 4.42448 2.51231 0
M  V30 7041 H 680.892 2.52345 5.06299 0
M  V30 7042 H 679.449 3.24644 5.65198 0
M  V30 7043 N 682.882 -0.391992 1.52647 0
M  V30 7044 C 683.845 -1.46135 1.7657 0
M  V30 7045 C 684.845 -1.47701 0.635698 0
M  V30 7046 O 686.035 -1.48924 0.903728 0
M  V30 7047 C 683.167 -2.85443 1.86374 0
M  V30 7048 H 684.36 -1.26208 2.72051 0
M  V30 7049 H 681.913 -0.623549 1.43323 0
M  V30 7050 H 682.648 -3.10718 0.928685 0
M  V30 7051 H 682.433 -2.85708 2.68539 0
M  V30 7052 H 683.923 -3.62933 2.06566 0
M  V30 7053 N 684.36 -1.4356 -0.65026 0
M  V30 7054 C 685.585 -1.48995 -1.44275 0
M  V30 7055 C 686.01 -0.109954 -1.87778 0
M  V30 7056 O 685.368 0.896926 -1.57559 0
M  V30 7057 C 685.416 -2.44341 -2.65198 0
M  V30 7058 O 684.52 -1.93172 -3.6436 0
M  V30 7059 H 683.861 -0.503852 -0.432469 0
M  V30 7060 H 686.391 -1.88504 -0.795446 0
M  V30 7061 H 686.401 -2.61743 -3.12977 0
M  V30 7062 H 685.076 -3.44588 -2.32877 0
M  V30 7063 H 683.653 -1.85445 -3.23519 0
M  V30 7064 N 685.838 0.888903 -1.30139 0
M  V30 7065 C 686.786 2.0156 -1.16088 0
M  V30 7066 C 687.78 1.69239 -0.0737413 0
M  V30 7067 O 688.986 1.78468 -0.234313 0
M  V30 7068 H 685.361 0.660825 -0.358907 0
M  V30 7069 H 687.332 2.10547 -2.11453 0
M  V30 7070 C 686.081 3.36758 -0.865426 0
M  V30 7071 H 685.404 3.62137 -1.69402 0
M  V30 7072 H 686.844 4.16246 -0.807192 0
M  V30 7073 C 685.303 3.34124 0.431577 0
M  V30 7074 O 685.833 3.7445 1.45431 0
M  V30 7075 N 684.039 2.87229 0.441321 0
M  V30 7076 H 683.586 2.54609 -0.391433 0
M  V30 7077 H 683.544 2.8585 1.30909 0
M  V30 7078 N 687.317 1.12792 1.10072 0
M  V30 7079 C 688.545 0.908506 1.85886 0
M  V30 7080 C 688.96 -0.542408 1.80841 0
M  V30 7081 O 688.317 -1.37517 1.1998 0
M  V30 7082 C 688.368 1.37973 3.34134 0
M  V30 7083 O 688.089 2.77378 3.39106 0
M  V30 7084 C 689.59 1.1978 4.26811 0
M  V30 7085 H 686.81 0.3244 0.587372 0
M  V30 7086 H 689.354 1.49882 1.39125 0
M  V30 7087 H 687.509 0.832566 3.78348 0
M  V30 7088 H 687.923 2.98144 4.31521 0
M  V30 7089 H 689.397 1.57635 5.29014 0
M  V30 7090 H 689.874 0.138768 4.38981 0
M  V30 7091 H 690.48 1.73266 3.88406 0
M  V30 7092 N 688.795 -1.27931 0.920396 0
M  V30 7093 C 690.044 -1.93975 0.552867 0
M  V30 7094 C 690.357 -1.73193 -0.909035 0
M  V30 7095 O 691.563 -2.33515 -1.38502 0
M  V30 7096 C 690.019 -3.47463 0.937947 0
M  V30 7097 C 689.627 -3.77013 2.42003 0
M  V30 7098 C 691.371 -4.19628 0.64132 0
M  V30 7099 C 689.278 -5.23841 2.74489 0
M  V30 7100 H 688.208 -0.726146 0.203046 0
M  V30 7101 H 690.859 -1.45339 1.12022 0
M  V30 7102 H 689.241 -3.94867 0.299317 0
M  V30 7103 H 690.415 -3.40393 3.10595 0
M  V30 7104 H 688.73 -3.18035 2.6878 0
M  V30 7105 H 691.327 -5.27729 0.860622 0
M  V30 7106 H 691.67 -4.14164 -0.421168 0
M  V30 7107 H 692.203 -3.78022 1.23872 0
M  V30 7108 H 688.942 -5.34388 3.79618 0
M  V30 7109 H 688.462 -5.61634 2.1054 0
M  V30 7110 H 690.141 -5.91647 2.61845 0
M  V30 7111 N 690.273 -0.685099 -1.4193 0
M  V30 7112 C 691.183 -0.013404 -2.34596 0
M  V30 7113 C 692.199 0.777589 -1.55658 0
M  V30 7114 O 693.375 0.717553 -1.88184 0
M  V30 7115 C 690.44 0.919031 -3.34297 0
M  V30 7116 C 689.501 0.121417 -4.29128 0
M  V30 7117 C 688.734 1.00944 -5.24067 0
M  V30 7118 O 688.957 2.24898 -5.24192 0
M  V30 7119 O 687.891 0.464724 -6.00103 0
M  V30 7120 H 691.717 -0.776978 -2.93593 0
M  V30 7121 H 689.302 -0.445379 -1.42607 0
M  V30 7122 H 691.184 1.45402 -3.9552 0
M  V30 7123 H 689.859 1.66228 -2.77759 0
M  V30 7124 H 688.766 -0.45792 -3.71287 0
M  V30 7125 H 690.099 -0.582937 -4.88736 0
M  V30 7126 N 691.751 1.51645 -0.429126 0
M  V30 7127 C 693.162 1.86665 0.0359003 0
M  V30 7128 C 693.513 1.34677 1.42676 0
M  V30 7129 O 692.638 0.694195 2.04963 0
M  V30 7130 C 693.233 3.38724 0.0719221 0
M  V30 7131 C 691.792 3.7331 0.481336 0
M  V30 7132 C 690.939 2.75313 -0.331329 0
M  V30 7133 H 693.89 1.44987 -0.645333 0
M  V30 7134 H 693.911 3.7011 0.883118 0
M  V30 7135 H 693.423 3.76532 -0.940495 0
M  V30 7136 H 691.524 3.41088 1.49966 0
M  V30 7137 H 691.637 4.78631 0.211837 0
M  V30 7138 H 690.001 2.53839 0.209204 0
M  V30 7139 H 690.784 3.15963 -1.34247 0
M  V30 7140 N 693.229 0.160201 1.56784 0
M  V30 7141 C 694.477 -0.486625 1.96154 0
M  V30 7142 C 694.798 -1.64525 1.04673 0
M  V30 7143 O 694.068 -1.95586 0.110864 0
M  V30 7144 H 692.648 -0.182764 0.724297 0
M  V30 7145 H 695.31 0.238787 1.93432 0
M  V30 7146 H 694.406 -0.854025 3.00188 0
M  V30 7147 N 694.707 -1.5719 -0.113559 0
M  V30 7148 C 695.639 -1.97393 -1.16484 0
M  V30 7149 C 696.652 -0.873964 -1.37352 0
M  V30 7150 O 697.841 -1.15222 -1.36331 0
M  V30 7151 C 694.941 -2.26174 -2.52386 0
M  V30 7152 C 694.114 -3.57479 -2.52046 0
M  V30 7153 C 693.173 -3.74409 -3.69735 0
M  V30 7154 O 692.199 -4.46463 -3.53071 0
M  V30 7155 N 693.401 -3.13588 -4.88511 0
M  V30 7156 H 696.166 -2.88184 -0.822814 0
M  V30 7157 H 693.727 -1.59044 -0.302769 0
M  V30 7158 H 695.719 -2.3471 -3.29687 0
M  V30 7159 H 694.289 -1.41483 -2.7875 0
M  V30 7160 H 693.509 -3.60081 -1.60421 0
M  V30 7161 H 694.797 -4.43775 -2.48881 0
M  V30 7162 H 694.195 -2.55026 -5.04953 0
M  V30 7163 H 692.752 -3.27637 -5.63469 0
M  V30 7164 N 696.185 0.383891 -1.52853 0
M  V30 7165 C 697.117 1.48889 -1.74255 0
M  V30 7166 C 698.13 1.50405 -0.623063 0
M  V30 7167 O 699.319 1.54215 -0.898887 0
M  V30 7168 C 696.419 2.87721 -1.79081 0
M  V30 7169 C 695.592 3.10111 -3.08464 0
M  V30 7170 C 694.651 4.28954 -3.0477 0
M  V30 7171 O 693.677 4.25012 -3.78621 0
M  V30 7172 N 694.879 5.35411 -2.24311 0
M  V30 7173 H 697.644 1.30915 -2.69595 0
M  V30 7174 H 695.205 0.573454 -1.51404 0
M  V30 7175 H 697.197 3.65333 -1.7411 0
M  V30 7176 H 695.767 2.99029 -0.911052 0
M  V30 7177 H 694.987 2.20319 -3.26884 0
M  V30 7178 H 696.275 3.21928 -3.94005 0
M  V30 7179 H 695.673 5.41471 -1.63787 0
M  V30 7180 H 694.23 6.1167 -2.25175 0
M  V30 7181 N 697.663 1.43903 0.642637 0
M  V30 7182 C 698.888 1.49758 1.43483 0
M  V30 7183 C 699.313 0.119911 1.87717 0
M  V30 7184 O 698.671 -0.888558 1.58033 0
M  V30 7185 C 698.719 2.45744 2.63898 0
M  V30 7186 O 697.823 1.95101 3.63331 0
M  V30 7187 H 697.164 0.506138 0.429791 0
M  V30 7188 H 699.694 1.88923 0.785438 0
M  V30 7189 H 699.704 2.63399 3.11584 0
M  V30 7190 H 698.379 3.45818 2.31046 0
M  V30 7191 H 696.956 1.87158 3.22531 0
M  V30 7192 N 699.141 -0.881989 1.30609 0
M  V30 7193 C 700.388 -1.63405 1.19604 0
M  V30 7194 C 700.716 -1.92905 -0.248574 0
M  V30 7195 O 699.971 -1.55062 -1.19391 0
M  V30 7196 C 700.27 -2.97999 1.97311 0
M  V30 7197 C 699.936 -2.88039 3.46907 0
M  V30 7198 C 698.598 -2.85029 3.877 0
M  V30 7199 C 700.95 -2.75948 4.42156 0
M  V30 7200 C 698.278 -2.67772 5.2203 0
M  V30 7201 C 700.63 -2.60228 5.76597 0
M  V30 7202 C 699.294 -2.55595 6.16626 0
M  V30 7203 H 698.564 -0.597941 0.437662 0
M  V30 7204 H 701.211 -1.02524 1.61744 0
M  V30 7205 H 699.516 -3.62847 1.47815 0
M  V30 7206 H 701.213 -3.55156 1.86186 0
M  V30 7207 H 697.803 -2.91192 3.14492 0
M  V30 7208 H 701.987 -2.77337 4.1158 0
M  V30 7209 H 697.243 -2.62601 5.52133 0
M  V30 7210 H 701.417 -2.49847 6.50038 0
M  V30 7211 H 699.044 -2.41981 7.20659 0
M  V30 7212 N 700.619 -1.13374 -1.09472 0
M  V30 7213 C 701.865 -0.896516 -1.81908 0
M  V30 7214 C 702.198 0.575933 -1.85463 0
M  V30 7215 O 701.473 1.42618 -1.32251 0
M  V30 7216 C 701.756 -1.48445 -3.28079 0
M  V30 7217 C 701.609 -3.02598 -3.32798 0
M  V30 7218 C 702.928 -1.15226 -4.24748 0
M  V30 7219 H 700.047 -0.327127 -0.660422 0
M  V30 7220 H 702.689 -1.40195 -1.2824 0
M  V30 7221 H 700.839 -1.0546 -3.73912 0
M  V30 7222 H 702.511 -3.54335 -2.95372 0
M  V30 7223 H 700.754 -3.37613 -2.72397 0
M  V30 7224 H 701.425 -3.38835 -4.3577 0
M  V30 7225 H 703.901 -1.52369 -3.87199 0
M  V30 7226 H 702.777 -1.59012 -5.25363 0
M  V30 7227 H 703.038 -0.0658891 -4.42051 0
M  V30 7228 N 702.098 1.27442 -0.927168 0
M  V30 7229 C 703.03 2.25975 -0.383158 0
M  V30 7230 C 704.043 1.55382 0.485832 0
M  V30 7231 O 705.232 1.75986 0.298541 0
M  V30 7232 C 702.332 3.35629 0.469688 0
M  V30 7233 C 701.505 4.35747 -0.379886 0
M  V30 7234 C 700.564 5.24598 0.410227 0
M  V30 7235 O 699.59 5.68909 -0.181888 0
M  V30 7236 N 700.792 5.54737 1.71017 0
M  V30 7237 H 703.557 2.7329 -1.23015 0
M  V30 7238 H 701.118 1.41063 -0.794539 0
M  V30 7239 H 703.11 3.92015 1.00532 0
M  V30 7240 H 701.68 2.87919 1.21744 0
M  V30 7241 H 700.9 3.78634 -1.09682 0
M  V30 7242 H 702.188 4.99648 -0.960717 0
M  V30 7243 H 701.586 5.20594 2.21356 0
M  V30 7244 H 700.143 6.13824 2.19234 0
M  V30 7245 N 703.576 0.692616 1.41565 0
M  V30 7246 C 704.822 0.222664 2.01574 0
M  V30 7247 C 705.155 -1.1737 1.54719 0
M  V30 7248 O 704.43 -1.79161 0.757084 0
M  V30 7249 C 704.713 0.277064 3.59033 0
M  V30 7250 C 704.566 1.71016 4.16021 0
M  V30 7251 C 705.885 -0.36479 4.38586 0
M  V30 7252 H 703.004 0.0823839 0.732381 0
M  V30 7253 H 705.646 0.880778 1.68352 0
M  V30 7254 H 703.796 -0.283288 3.87466 0
M  V30 7255 H 705.468 2.32413 3.98475 0
M  V30 7256 H 703.711 2.24525 3.71175 0
M  V30 7257 H 704.382 1.69978 5.25178 0
M  V30 7258 H 706.858 0.112404 4.15948 0
M  V30 7259 H 705.734 -0.296169 5.481 0
M  V30 7260 H 705.995 -1.44506 4.17816 0
M  V30 7261 N 705.054 -1.51416 0.437162 0
M  V30 7262 C 706.47 -1.59349 0.0894459 0
M  V30 7263 C 706.67 -1.44809 -1.40116 0
M  V30 7264 O 705.726 -1.28924 -2.17106 0
M  V30 7265 C 707.039 -2.9446 0.609398 0
M  V30 7266 C 708.587 -3.07769 0.569824 0
M  V30 7267 C 709.062 -4.45404 1.06675 0
M  V30 7268 N 710.553 -4.51723 1.02473 0
M  V30 7269 C 711.288 -5.56544 1.3801 0
M  V30 7270 N 710.784 -6.68784 1.80831 0
M  V30 7271 N 712.577 -5.46901 1.29828 0
M  V30 7272 H 704.728 -1.59112 1.40703 0
M  V30 7273 H 706.991 -0.750031 0.579791 0
M  V30 7274 H 706.697 -3.1047 1.65231 0
M  V30 7275 H 706.571 -3.77184 0.0342236 0
M  V30 7276 H 708.958 -2.91428 -0.464107 0
M  V30 7277 H 709.039 -2.26885 1.1814 0
M  V30 7278 H 708.683 -4.62492 2.09914 0
M  V30 7279 H 708.613 -5.24827 0.431712 0
M  V30 7280 H 711.104 -3.71165 0.710258 0
M  V30 7281 H 711.417 -7.44787 2.06185 0
M  V30 7282 H 709.762 -6.69992 1.84757 0
M  V30 7283 H 712.953 -4.581 0.962397 0
M  V30 7284 H 713.126 -6.2848 1.57851 0
M  V30 7285 N 706.532 -0.168513 -1.56696 0
M  V30 7286 C 707.778 0.477865 -1.9709 0
M  V30 7287 C 708.111 1.63084 -1.05438 0
M  V30 7288 O 707.386 1.94238 -0.10095 0
M  V30 7289 C 707.669 0.963521 -3.4697 0
M  V30 7290 C 707.522 -0.189443 -4.49401 0
M  V30 7291 C 708.841 1.83813 -3.99876 0
M  V30 7292 H 705.96 0.172229 -0.716593 0
M  V30 7293 H 708.602 -0.254083 -1.88293 0
M  V30 7294 H 706.752 1.58724 -3.54597 0
M  V30 7295 H 708.424 -0.826451 -4.53836 0
M  V30 7296 H 706.667 -0.845366 -4.25483 0
M  V30 7297 H 707.338 0.192446 -5.51664 0
M  V30 7298 H 709.814 1.31235 -3.94863 0
M  V30 7299 H 708.69 2.14697 -5.0517 0
M  V30 7300 H 708.951 2.78289 -3.43523 0
M  V30 7301 N 708.01 1.57248 0.105221 0
M  V30 7302 C 709.235 1.90143 0.828264 0
M  V30 7303 C 709.66 0.761811 1.71983 0
M  V30 7304 O 709.018 -0.287086 1.79013 0
M  V30 7305 C 709.066 3.21856 1.62608 0
M  V30 7306 O 708.17 3.08732 2.7342 0
M  V30 7307 H 707.511 0.623558 0.228192 0
M  V30 7308 H 710.041 2.0443 0.0834826 0
M  V30 7309 H 710.051 3.54916 2.01243 0
M  V30 7310 H 708.726 4.0439 0.971687 0
M  V30 7311 H 707.303 2.87167 2.37886 0
M  V30 7312 N 709.488 -0.375779 1.53054 0
M  V30 7313 C 710.899 -0.95309 1.6054 0
M  V30 7314 C 711.25 -1.90575 0.466446 0
M  V30 7315 O 710.375 -2.12507 -0.408609 0
M  V30 7316 C 710.97 -1.73537 2.90982 0
M  V30 7317 C 709.529 -2.26218 3.00836 0
M  V30 7318 C 708.676 -1.07157 2.55759 0
M  V30 7319 H 711.627 -0.154895 1.57942 0
M  V30 7320 H 711.648 -2.59574 2.78211 0
M  V30 7321 H 711.16 -1.04176 3.73857 0
M  V30 7322 H 709.261 -2.98852 2.22527 0
M  V30 7323 H 709.374 -2.54799 4.05727 0
M  V30 7324 H 707.738 -1.43553 2.10391 0
M  V30 7325 H 708.521 -0.393099 3.41042 0
M  V30 7326 N 710.966 -1.44241 -0.634997 0
M  V30 7327 C 712.191 -1.50516 -1.42687 0
M  V30 7328 C 712.616 -0.129864 -1.87651 0
M  V30 7329 O 711.974 0.880164 -1.58502 0
M  V30 7330 C 712.022 -2.4714 -2.62591 0
M  V30 7331 O 711.126 -1.97025 -3.62291 0
M  V30 7332 H 710.467 -0.50841 -0.427101 0
M  V30 7333 H 712.997 -1.89337 -0.775408 0
M  V30 7334 H 713.007 -2.65048 -3.10183 0
M  V30 7335 H 711.682 -3.47039 -2.29209 0
M  V30 7336 H 710.259 -1.88866 -3.21534 0
M  V30 7337 N 712.444 0.87505 -1.31075 0
M  V30 7338 C 713.69 1.63009 -1.20647 0
M  V30 7339 C 714.023 1.9276 0.236045 0
M  V30 7340 O 713.298 1.55559 1.16754 0
M  V30 7341 C 713.581 2.96357 -2.0456 0
M  V30 7342 C 713.434 2.73516 -3.57084 0
M  V30 7343 C 714.753 3.974 -1.89107 0
M  V30 7344 H 711.872 0.591518 -0.439631 0
M  V30 7345 H 714.514 1.0119 -1.60812 0
M  V30 7346 H 712.664 3.49119 -1.70435 0
M  V30 7347 H 714.336 2.27465 -4.01319 0
M  V30 7348 H 712.579 2.0784 -3.80769 0
M  V30 7349 H 713.25 3.68377 -4.11099 0
M  V30 7350 H 715.726 3.5383 -2.18961 0
M  V30 7351 H 714.602 4.88596 -2.5013 0
M  V30 7352 H 714.863 4.33794 -0.85296 0
M  V30 7353 N 713.922 1.13953 1.08869 0
M  V30 7354 C 715.147 0.928559 1.85452 0
M  V30 7355 C 715.572 -0.517642 1.80837 0
M  V30 7356 O 714.93 -1.36779 1.19001 0
M  V30 7357 C 714.978 1.42814 3.31114 0
M  V30 7358 O 714.082 0.617129 4.07756 0
M  V30 7359 H 713.423 0.33235 0.574839 0
M  V30 7360 H 715.953 1.5156 1.37443 0
M  V30 7361 H 715.963 1.43425 3.8196 0
M  V30 7362 H 714.638 2.48109 3.33788 0
M  V30 7363 H 713.215 0.679365 3.66659 0
M  V30 7364 N 715.4 -1.26948 0.933913 0
M  V30 7365 C 716.31 -2.30366 0.443671 0
M  V30 7366 C 717.326 -1.67284 -0.478745 0
M  V30 7367 O 718.502 -1.98156 -0.360043 0
M  V30 7368 C 715.567 -3.45485 -0.289974 0
M  V30 7369 C 714.628 -4.24069 0.668114 0
M  V30 7370 C 713.861 -5.33691 -0.0306138 0
M  V30 7371 O 714.084 -5.5656 -1.24888 0
M  V30 7372 O 713.018 -5.98441 0.644384 0
M  V30 7373 H 716.844 -2.74349 1.30254 0
M  V30 7374 H 714.429 -1.32012 0.699506 0
M  V30 7375 H 716.311 -4.15486 -0.70353 0
M  V30 7376 H 714.986 -3.03546 -1.12435 0
M  V30 7377 H 713.893 -3.56579 1.13147 0
M  V30 7378 H 715.226 -4.69739 1.46989 0
M  V30 7379 N 716.879 -0.700114 -1.41195 0
M  V30 7380 C 718.126 -0.233006 -2.01155 0
M  V30 7381 C 718.454 1.16883 -1.55462 0
M  V30 7382 O 717.709 1.80395 -0.758695 0
M  V30 7383 C 718.008 -0.243986 -3.56566 0
M  V30 7384 C 717.674 -1.59397 -4.21786 0
M  V30 7385 C 716.336 -1.96355 -4.39316 0
M  V30 7386 C 718.688 -2.48192 -4.58312 0
M  V30 7387 C 716.016 -3.21683 -4.9065 0
M  V30 7388 C 718.368 -3.72857 -5.11039 0
M  V30 7389 C 717.032 -4.09951 -5.26779 0
M  V30 7390 H 716.302 -0.085263 -0.736078 0
M  V30 7391 H 718.949 -0.9001 -1.69028 0
M  V30 7392 H 717.254 0.506663 -3.8851 0
M  V30 7393 H 718.951 0.135031 -4.00773 0
M  V30 7394 H 715.541 -1.29654 -4.08519 0
M  V30 7395 H 719.725 -2.20918 -4.4442 0
M  V30 7396 H 714.981 -3.50412 -5.01021 0
M  V30 7397 H 719.155 -4.41844 -5.38282 0
M  V30 7398 H 716.782 -5.07136 -5.66319 0
M  V30 7399 N 718.357 1.51182 -0.445186 0
M  V30 7400 C 719.287 2.30821 0.352686 0
M  V30 7401 C 720.268 1.36576 1.01395 0
M  V30 7402 O 721.453 1.65497 1.01609 0
M  V30 7403 C 718.583 3.15593 1.44976 0
M  V30 7404 C 717.537 4.1818 0.911553 0
M  V30 7405 C 716.863 4.91523 2.10497 0
M  V30 7406 C 718.163 5.22266 -0.059418 0
M  V30 7407 H 719.857 2.97771 -0.311936 0
M  V30 7408 H 717.403 1.43201 -0.151461 0
M  V30 7409 H 719.356 3.70091 2.01521 0
M  V30 7410 H 718.08 2.4648 2.14278 0
M  V30 7411 H 716.739 3.64746 0.368264 0
M  V30 7412 H 716.387 4.18906 2.78437 0
M  V30 7413 H 716.087 5.60898 1.7512 0
M  V30 7414 H 717.611 5.48847 2.6758 0
M  V30 7415 H 719.025 5.71789 0.415985 0
M  V30 7416 H 717.422 5.99213 -0.326152 0
M  V30 7417 H 718.492 4.7461 -0.993631 0
M  V30 7418 N 719.835 0.176821 1.56605 0
M  V30 7419 C 720.765 -0.746841 2.21234 0
M  V30 7420 C 721.746 -1.23502 1.16967 0
M  V30 7421 O 722.931 -1.28718 1.45414 0
M  V30 7422 C 720.061 -1.97407 2.8574 0
M  V30 7423 C 719.015 -1.62153 3.96094 0
M  V30 7424 C 718.341 -2.92387 4.47676 0
M  V30 7425 C 719.641 -0.845353 5.15413 0
M  V30 7426 H 721.335 -0.208116 2.98676 0
M  V30 7427 H 718.881 -0.0986594 1.43662 0
M  V30 7428 H 720.834 -2.62531 3.2963 0
M  V30 7429 H 719.558 -2.53703 2.05676 0
M  V30 7430 H 718.217 -0.993964 3.52868 0
M  V30 7431 H 717.865 -3.46734 3.64396 0
M  V30 7432 H 717.565 -2.69551 5.22127 0
M  V30 7433 H 719.089 -3.5853 4.94255 0
M  V30 7434 H 720.503 -1.39929 5.55961 0
M  V30 7435 H 718.9 -0.715814 5.95815 0
M  V30 7436 H 719.97 0.157239 4.84645 0
M  V30 7437 N 721.313 -1.57302 -0.09688 0
M  V30 7438 C 722.245 -1.98618 -1.14384 0
M  V30 7439 C 723.258 -0.888483 -1.36418 0
M  V30 7440 O 724.447 -1.16661 -1.35101 0
M  V30 7441 C 721.547 -2.28838 -2.49973 0
M  V30 7442 C 720.72 -3.60132 -2.48241 0
M  V30 7443 C 719.779 -3.7831 -3.65743 0
M  V30 7444 O 718.805 -4.50183 -3.48316 0
M  V30 7445 N 720.007 -3.18752 -4.85157 0
M  V30 7446 H 722.772 -2.8904 -0.792202 0
M  V30 7447 H 720.333 -1.59356 -0.285883 0
M  V30 7448 H 722.325 -2.38193 -3.27179 0
M  V30 7449 H 720.895 -1.44431 -2.77233 0
M  V30 7450 H 720.115 -3.61763 -1.56593 0
M  V30 7451 H 721.403 -4.46389 -2.4416 0
M  V30 7452 H 720.801 -2.60368 -5.0222 0
M  V30 7453 H 719.358 -3.33595 -5.59962 0
M  V30 7454 N 722.791 0.367657 -1.53252 0
M  V30 7455 C 723.721 1.45632 -1.8252 0
M  V30 7456 C 724.702 1.55979 -0.678568 0
M  V30 7457 O 725.887 1.70581 -0.928217 0
M  V30 7458 C 723.017 2.82994 -2.01325 0
M  V30 7459 C 721.971 2.87473 -3.17086 0
M  V30 7460 C 721.297 4.2749 -3.21179 0
M  V30 7461 C 722.597 2.55182 -4.55719 0
M  V30 7462 H 724.291 1.21387 -2.73689 0
M  V30 7463 H 721.837 0.58251 -1.31692 0
M  V30 7464 H 723.79 3.59179 -2.20383 0
M  V30 7465 H 722.514 3.08622 -1.06864 0
M  V30 7466 H 721.173 2.13739 -2.97844 0
M  V30 7467 H 720.821 4.5019 -2.24361 0
M  V30 7468 H 720.521 4.31403 -3.98955 0
M  V30 7469 H 722.045 5.0555 -3.42419 0
M  V30 7470 H 723.459 3.21081 -4.74953 0
M  V30 7471 H 721.856 2.70414 -5.3572 0
M  V30 7472 H 722.926 1.5044 -4.60973 0
M  V30 7473 N 724.269 1.44576 0.627338 0
M  V30 7474 C 725.546 1.38033 1.38586 0
M  V30 7475 C 725.926 0.0409468 2.1106 0
M  V30 7476 O 725.274 -0.976582 2.0658 0
M  V30 7477 C 725.484 2.58102 2.34913 0
M  V30 7478 C 726.832 3.02332 2.98129 0
M  V30 7479 O 727.856 2.58334 2.45238 0
M  V30 7480 O 726.715 3.78628 3.94085 0
M  V30 7481 H 723.809 0.546801 0.620434 0
M  V30 7482 H 726.355 1.56672 0.652077 0
M  V30 7483 H 725.127 3.4719 1.80485 0
M  V30 7484 H 724.75 2.41696 3.15703 0
M  V30 7485 N 725.747 -0.868086 1.31537 0
M  V30 7486 C 726.972 -1.65926 1.24432 0
M  V30 7487 C 727.397 -1.87169 -0.186936 0
M  V30 7488 O 726.755 -1.4148 -1.13371 0
M  V30 7489 C 726.803 -3.00347 1.9956 0
M  V30 7490 O 725.907 -3.90221 1.33422 0
M  V30 7491 H 725.248 -0.506375 0.429512 0
M  V30 7492 H 727.778 -1.0822 1.73637 0
M  V30 7493 H 727.788 -3.50269 2.09226 0
M  V30 7494 H 726.463 -2.84205 3.03645 0
M  V30 7495 H 725.04 -3.48672 1.32219 0
M  V30 7496 N 727.225 -1.14528 -1.08264 0
M  V30 7497 C 728.465 -0.924808 -1.82282 0
M  V30 7498 C 728.829 0.538881 -1.84283 0
M  V30 7499 O 730.03 0.877355 -2.54079 0
M  V30 7500 C 728.301 -1.51102 -3.23887 0
M  V30 7501 S 729.86 -1.43232 -4.14765 0
M  V30 7502 H 726.678 -0.333052 -0.62817 0
M  V30 7503 H 729.28 -1.45905 -1.30123 0
M  V30 7504 H 727.984 -2.56942 -3.20014 0
M  V30 7505 H 727.515 -0.975234 -3.8112 0
M  V30 7506 H 729.53 -0.418843 -4.94429 0
M  V30 7507 N 728.703 1.26451 -0.940633 0
M  V30 7508 C 729.653 2.24086 -0.420669 0
M  V30 7509 C 730.637 1.53501 0.482301 0
M  V30 7510 O 731.829 1.74127 0.317636 0
M  V30 7511 C 728.958 3.41866 0.313452 0
M  V30 7512 C 728.044 4.19737 -0.606779 0
M  V30 7513 N 728.435 4.7521 -1.73232 0
M  V30 7514 C 726.733 4.44091 -0.41226 0
M  V30 7515 C 727.434 5.34052 -2.30572 0
M  V30 7516 N 726.41 5.1971 -1.59381 0
M  V30 7517 H 730.212 2.64569 -1.27986 0
M  V30 7518 H 727.726 1.4153 -0.796436 0
M  V30 7519 H 729.723 4.1093 0.702991 0
M  V30 7520 H 728.383 3.0291 1.16942 0
M  V30 7521 H 729.394 4.72769 -2.11447 0
M  V30 7522 H 726.071 4.1556 0.401984 0
M  V30 7523 H 727.461 5.87845 -3.25404 0
M  V30 7524 N 730.181 0.707592 1.40822 0
M  V30 7525 C 731.111 0.0644925 2.33411 0
M  V30 7526 C 732.092 -0.754205 1.52466 0
M  V30 7527 O 733.277 -0.704749 1.80961 0
M  V30 7528 C 730.407 -0.863865 3.36385 0
M  V30 7529 C 729.361 -0.15138 4.27732 0
M  V30 7530 C 728.687 -1.19491 5.21177 0
M  V30 7531 C 729.987 0.989607 5.12839 0
M  V30 7532 H 731.681 0.837829 2.87438 0
M  V30 7533 H 729.227 0.404346 1.38207 0
M  V30 7534 H 731.18 -1.32309 4.0009 0
M  V30 7535 H 729.904 -1.66901 2.80734 0
M  V30 7536 H 728.563 0.287937 3.65467 0
M  V30 7537 H 728.211 -1.9929 4.61836 0
M  V30 7538 H 727.911 -0.723123 5.83134 0
M  V30 7539 H 729.435 -1.6544 5.8776 0
M  V30 7540 H 730.849 0.610114 5.70044 0
M  V30 7541 H 729.246 1.38926 5.83798 0
M  V30 7542 H 730.316 1.82389 4.49291 0
M  V30 7543 N 731.66 -1.50943 0.453197 0
M  V30 7544 C 732.937 -1.94872 -0.168633 0
M  V30 7545 C 733.317 -1.39272 -1.5864 0
M  V30 7546 O 732.665 -0.586272 -2.20851 0
M  V30 7547 C 732.875 -3.48757 -0.130217 0
M  V30 7548 C 734.223 -4.23331 -0.327975 0
M  V30 7549 O 735.247 -3.55594 -0.207619 0
M  V30 7550 O 734.106 -5.43529 -0.569077 0
M  V30 7551 H 731.2 -0.818042 -0.121394 0
M  V30 7552 H 733.746 -1.61782 0.512316 0
M  V30 7553 H 732.518 -3.81725 0.860346 0
M  V30 7554 H 732.141 -3.88333 -0.853397 0
M  V30 7555 N 733.138 -0.185124 -1.56509 0
M  V30 7556 C 734.068 0.735098 -2.21627 0
M  V30 7557 C 735.049 1.2288 -1.1762 0
M  V30 7558 O 736.234 1.27945 -1.46095 0
M  V30 7559 C 733.364 1.95889 -2.86783 0
M  V30 7560 C 732.318 1.6005 -3.96948 0
M  V30 7561 C 731.644 2.90009 -4.4922 0
M  V30 7562 C 732.944 0.818008 -5.15855 0
M  V30 7563 H 734.638 0.192274 -2.98782 0
M  V30 7564 H 732.184 0.0910393 -1.43712 0
M  V30 7565 H 734.137 2.60779 -3.31017 0
M  V30 7566 H 732.861 2.52608 -2.07018 0
M  V30 7567 H 731.52 0.975237 -3.5339 0
M  V30 7568 H 731.168 3.44797 -3.6623 0
M  V30 7569 H 730.868 2.66778 -5.23549 0
M  V30 7570 H 732.392 3.55904 -4.9615 0
M  V30 7571 H 733.806 1.36979 -5.56695 0
M  V30 7572 H 732.203 0.684207 -5.96187 0
M  V30 7573 H 733.273 -0.182939 -4.84555 0
M  V30 7574 N 734.616 1.57351 0.0885366 0
M  V30 7575 C 735.864 1.86051 0.789262 0
M  V30 7576 C 736.185 0.774763 1.78948 0
M  V30 7577 O 735.455 -0.198324 1.94894 0
M  V30 7578 H 734.035 0.686508 0.294475 0
M  V30 7579 H 736.697 1.94779 0.0686055 0
M  V30 7580 H 735.793 2.83007 1.31581 0
M  V30 7581 N 736.094 -0.359525 1.53444 0
M  V30 7582 C 737.505 -0.936009 1.61542 0
M  V30 7583 C 737.856 -1.90069 0.486633 0
M  V30 7584 O 736.981 -2.12929 -0.386047 0
M  V30 7585 C 737.576 -1.70441 2.92806 0
M  V30 7586 C 736.135 -2.23015 3.03218 0
M  V30 7587 C 735.282 -1.04438 2.56881 0
M  V30 7588 H 738.233 -0.138134 1.58098 0
M  V30 7589 H 738.254 -2.56609 2.80948 0
M  V30 7590 H 737.766 -1.00205 3.74941 0
M  V30 7591 H 735.867 -2.96475 2.25684 0
M  V30 7592 H 735.98 -2.50481 4.08407 0
M  V30 7593 H 734.344 -1.41314 2.11902 0
M  V30 7594 H 735.127 -0.356905 3.4144 0
M  V30 7595 N 737.572 -1.44907 -0.619662 0
M  V30 7596 C 738.482 -1.55168 -1.75955 0
M  V30 7597 C 739.498 -0.43672 -1.6843 0
M  V30 7598 O 740.674 -0.695704 -1.89002 0
M  V30 7599 C 737.739 -1.50397 -3.12381 0
M  V30 7600 C 736.8 -2.72835 -3.31451 0
M  V30 7601 C 736.033 -2.68283 -4.61368 0
M  V30 7602 O 736.256 -1.74929 -5.42914 0
M  V30 7603 O 735.19 -3.59308 -4.82889 0
M  V30 7604 H 739.016 -2.51493 -1.7025 0
M  V30 7605 H 736.601 -1.27282 -0.782289 0
M  V30 7606 H 738.483 -1.50301 -3.93685 0
M  V30 7607 H 737.158 -0.572197 -3.18603 0
M  V30 7608 H 736.065 -2.78496 -2.49781 0
M  V30 7609 H 737.398 -3.65098 -3.30098 0
M  V30 7610 N 739.05 0.861098 -1.31996 0
M  V30 7611 C 740.298 1.61162 -1.21947 0
M  V30 7612 C 740.619 1.93751 0.220351 0
M  V30 7613 O 739.889 1.59069 1.14341 0
M  V30 7614 H 738.469 0.597485 -0.448353 0
M  V30 7615 H 741.131 1.03039 -1.65436 0
M  V30 7616 H 740.227 2.55138 -1.79752 0
M  V30 7617 N 740.528 1.15101 1.07655 0
M  V30 7618 C 741.776 0.922149 1.79836 0
M  V30 7619 C 742.097 -0.552346 1.87014 0
M  V30 7620 O 741.367 -1.40145 1.3688 0
M  V30 7621 H 739.947 0.338182 0.666064 0
M  V30 7622 H 742.609 1.45107 1.30115 0
M  V30 7623 H 741.705 1.32883 2.82398 0
M  V30 7624 N 742.006 -1.2595 0.947325 0
M  V30 7625 C 743.234 -1.97544 0.615127 0
M  V30 7626 C 743.649 -1.70484 -0.811221 0
M  V30 7627 O 743.006 -0.97662 -1.5417 0
M  V30 7628 C 743.057 -3.51236 0.855328 0
M  V30 7629 O 742.778 -3.77359 2.22558 0
M  V30 7630 C 744.279 -4.40066 0.534515 0
M  V30 7631 H 741.499 -0.629888 0.231263 0
M  V30 7632 H 744.043 -1.60308 1.26971 0
M  V30 7633 H 742.198 -3.8661 0.247266 0
M  V30 7634 H 742.612 -4.71857 2.29022 0
M  V30 7635 H 744.086 -5.46838 0.753168 0
M  V30 7636 H 744.563 -4.35982 -0.530701 0
M  V30 7637 H 745.169 -4.10245 1.12158 0
M  V30 7638 N 743.484 -0.715051 -1.40445 0
M  V30 7639 C 744.73 -0.254705 -2.01194 0
M  V30 7640 C 745.063 1.14894 -1.56567 0
M  V30 7641 O 744.338 1.77933 -0.785491 0
M  V30 7642 C 744.621 -0.334148 -3.58546 0
M  V30 7643 C 744.474 -1.77613 -4.13248 0
M  V30 7644 C 745.793 0.294968 -4.3911 0
M  V30 7645 H 742.912 -0.094025 -0.730978 0
M  V30 7646 H 745.554 -0.907449 -1.66929 0
M  V30 7647 H 743.704 0.221609 -3.87867 0
M  V30 7648 H 745.376 -2.38723 -3.94727 0
M  V30 7649 H 743.619 -2.30402 -3.67556 0
M  V30 7650 H 744.29 -1.78311 -5.22407 0
M  V30 7651 H 746.766 -0.178563 -4.15717 0
M  V30 7652 H 745.642 0.208934 -5.48502 0
M  V30 7653 H 745.903 1.37841 -4.20062 0
M  V30 7654 N 744.962 1.50701 -0.461195 0
M  V30 7655 C 745.872 2.32069 0.343661 0
M  V30 7656 C 746.888 1.42016 1.00535 0
M  V30 7657 O 748.064 1.75077 0.995498 0
M  V30 7658 C 745.129 3.16424 1.41692 0
M  V30 7659 C 744.19 4.22286 0.772869 0
M  V30 7660 C 743.423 5.02609 1.79499 0
M  V30 7661 O 743.646 4.83874 3.0203 0
M  V30 7662 O 742.58 5.86047 1.3723 0
M  V30 7663 H 746.406 3.01996 -0.321268 0
M  V30 7664 H 743.991 1.47723 -0.223235 0
M  V30 7665 H 745.873 3.68795 2.03883 0
M  V30 7666 H 744.548 2.49236 2.0655 0
M  V30 7667 H 743.455 3.73931 0.112277 0
M  V30 7668 H 744.788 4.91915 0.167399 0
M  V30 7669 N 746.441 0.193421 1.56409 0
M  V30 7670 C 747.371 -0.723334 2.22014 0
M  V30 7671 C 748.352 -1.22254 1.1827 0
M  V30 7672 O 749.537 -1.27168 1.46771 0
M  V30 7673 C 746.667 -1.94366 2.87818 0
M  V30 7674 C 745.621 -1.57943 3.97791 0
M  V30 7675 C 744.947 -2.87623 4.50752 0
M  V30 7676 C 746.247 -0.790639 5.16281 0
M  V30 7677 H 747.941 -0.176426 2.9888 0
M  V30 7678 H 745.487 -0.0834166 1.43758 0
M  V30 7679 H 747.44 -2.5902 3.32396 0
M  V30 7680 H 746.164 -2.51507 2.08355 0
M  V30 7681 H 744.823 -0.956482 3.53903 0
M  V30 7682 H 744.471 -3.4285 3.68053 0
M  V30 7683 H 744.171 -2.63998 5.24956 0
M  V30 7684 H 745.695 -3.53268 4.9803 0
M  V30 7685 H 747.109 -1.34024 5.57414 0
M  V30 7686 H 745.506 -0.65258 5.96541 0
M  V30 7687 H 746.576 0.208633 4.84451 0
M  V30 7688 N 747.919 -1.57396 -0.0801906 0
M  V30 7689 C 749.168 -1.8602 -0.779702 0
M  V30 7690 C 749.481 -0.784864 -1.79163 0
M  V30 7691 O 750.687 -0.958691 -2.54011 0
M  V30 7692 C 749.143 -3.29942 -1.43758 0
M  V30 7693 C 748.751 -4.45584 -0.464654 0
M  V30 7694 C 750.495 -3.67775 -2.11995 0
M  V30 7695 C 748.402 -5.80544 -1.12797 0
M  V30 7696 H 747.332 -0.69392 -0.294943 0
M  V30 7697 H 749.983 -1.83471 -0.0328527 0
M  V30 7698 H 748.365 -3.27078 -2.2324 0
M  V30 7699 H 749.539 -4.59824 0.299749 0
M  V30 7700 H 747.854 -4.16247 0.112813 0
M  V30 7701 H 750.451 -4.65896 -2.62383 0
M  V30 7702 H 750.794 -2.9715 -2.91561 0
M  V30 7703 H 751.327 -3.72593 -1.39354 0
M  V30 7704 H 748.066 -6.54439 -0.372807 0
M  V30 7705 H 747.586 -5.70119 -1.86344 0
M  V30 7706 H 749.265 -6.25602 -1.6502 0
M  V30 7707 N 749.397 0.351382 -1.53633 0
M  V30 7708 C 750.329 1.45159 -1.77374 0
M  V30 7709 C 751.342 1.4905 -0.654826 0
M  V30 7710 O 752.531 1.52274 -0.931396 0
M  V30 7711 C 749.631 2.83858 -1.85143 0
M  V30 7712 C 748.804 3.03498 -3.14972 0
M  V30 7713 C 747.863 4.22393 -3.138 0
M  V30 7714 O 746.889 4.16885 -3.87551 0
M  V30 7715 N 748.091 5.30533 -2.35617 0
M  V30 7716 H 750.856 1.25167 -2.72311 0
M  V30 7717 H 748.417 0.54121 -1.52586 0
M  V30 7718 H 750.409 3.61557 -1.8182 0
M  V30 7719 H 748.979 2.9703 -0.974275 0
M  V30 7720 H 748.199 2.13336 -3.31484 0
M  V30 7721 H 749.487 3.13498 -4.00745 0
M  V30 7722 H 748.885 5.37875 -1.75235 0
M  V30 7723 H 747.442 6.06756 -2.38098 0
M  V30 7724 N 750.875 1.45233 0.611969 0
M  V30 7725 C 752.123 1.48727 1.36838 0
M  V30 7726 C 752.444 0.128616 1.94575 0
M  V30 7727 O 751.714 -0.84149 1.76906 0
M  V30 7728 H 750.294 0.547695 0.507976 0
M  V30 7729 H 752.956 1.81156 0.718925 0
M  V30 7730 H 752.052 2.2236 2.19003 0
M  V30 7731 N 752.353 -0.854086 1.3245 0
M  V30 7732 C 753.769 -1.14238 1.11453 0
M  V30 7733 C 753.969 -2.01228 -0.10461 0
M  V30 7734 O 753.025 -2.39845 -0.789339 0
M  V30 7735 C 754.338 -1.81916 2.39431 0
M  V30 7736 C 755.886 -1.94549 2.45193 0
M  V30 7737 C 756.361 -2.65642 3.73093 0
M  V30 7738 N 757.852 -2.73167 3.74078 0
M  V30 7739 C 758.587 -3.28828 4.69744 0
M  V30 7740 N 758.083 -3.85295 5.75778 0
M  V30 7741 N 759.876 -3.26936 4.57241 0
M  V30 7742 H 752.027 -0.274786 2.10615 0
M  V30 7743 H 754.29 -0.184375 0.929898 0
M  V30 7744 H 753.996 -1.25452 3.28565 0
M  V30 7745 H 753.87 -2.82068 2.50434 0
M  V30 7746 H 756.257 -2.50172 1.56518 0
M  V30 7747 H 756.338 -0.933914 2.38142 0
M  V30 7748 H 755.982 -2.10683 4.62142 0
M  V30 7749 H 755.912 -3.6724 3.77415 0
M  V30 7750 H 758.403 -2.33108 2.97438 0
M  V30 7751 H 758.716 -4.25925 6.44832 0
M  V30 7752 H 757.061 -3.83625 5.79531 0
M  V30 7753 H 760.252 -2.8207 3.7357 0
M  V30 7754 H 760.425 -3.70014 5.31971 0
M  V30 7755 N 753.831 -1.1567 -1.07043 0
M  V30 7756 C 754.794 -0.858906 -2.12498 0
M  V30 7757 C 755.794 0.142735 -1.60165 0
M  V30 7758 O 756.984 -0.0872678 -1.73981 0
M  V30 7759 C 754.116 -0.283021 -3.39723 0
M  V30 7760 H 755.309 -1.79368 -2.40348 0
M  V30 7761 H 752.862 -0.964608 -1.22984 0
M  V30 7762 H 753.597 0.659796 -3.17517 0
M  V30 7763 H 753.382 -1.00467 -3.7901 0
M  V30 7764 H 754.872 -0.0923543 -4.17498 0
M  V30 7765 N 755.309 1.25446 -0.953992 0
M  V30 7766 C 756.272 2.24156 -0.478179 0
M  V30 7767 C 757.272 1.55278 0.417776 0
M  V30 7768 O 758.462 1.72866 0.215155 0
M  V30 7769 C 755.594 3.39495 0.309202 0
M  V30 7770 H 756.787 2.67764 -1.35064 0
M  V30 7771 H 754.34 1.37822 -0.737206 0
M  V30 7772 H 755.075 3.01307 1.19936 0
M  V30 7773 H 754.86 3.90679 -0.333562 0
M  V30 7774 H 756.35 4.12796 0.631594 0
M  V30 7775 N 756.787 0.722489 1.40064 0
M  V30 7776 C 757.734 0.0743738 2.3068 0
M  V30 7777 C 758.704 -0.743004 1.48555 0
M  V30 7778 O 759.889 -0.705536 1.77276 0
M  V30 7779 C 757.029 -0.836292 3.34814 0
M  V30 7780 C 756.142 -0.00764663 4.31999 0
M  V30 7781 C 755.277 -0.918428 5.232 0
M  V30 7782 C 754.316 -0.0842838 6.12042 0
M  V30 7783 N 753.453 -0.950316 6.95639 0
M  V30 7784 H 758.293 0.852794 2.85537 0
M  V30 7785 H 755.83 0.432222 1.40607 0
M  V30 7786 H 757.788 -1.3786 3.93765 0
M  V30 7787 H 756.418 -1.58082 2.81443 0
M  V30 7788 H 755.47 0.651928 3.74772 0
M  V30 7789 H 756.782 0.63786 4.94705 0
M  V30 7790 H 755.936 -1.52902 5.87116 0
M  V30 7791 H 754.675 -1.59774 4.60786 0
M  V30 7792 H 753.68 0.5392 5.4715 0
M  V30 7793 H 754.905 0.591628 6.76518 0
M  V30 7794 H 752.851 -1.61515 6.35806 0
M  V30 7795 H 752.768 -0.361004 7.55138 0
M  V30 7796 H 754.036 -1.54687 7.63997 0
M  V30 7797 N 758.265 -1.50454 0.469181 0
M  V30 7798 C 759.513 -2.01916 -0.0862982 0
M  V30 7799 C 759.834 -1.35337 -1.40388 0
M  V30 7800 O 759.104 -0.498096 -1.89462 0
M  V30 7801 H 757.684 -0.746185 -0.0348825 0
M  V30 7802 H 760.346 -1.84804 0.619167 0
M  V30 7803 H 759.442 -3.11182 -0.239189 0
M  V30 7804 N 759.743 -0.201713 -1.56304 0
M  V30 7805 C 760.691 0.733133 -2.20744 0
M  V30 7806 C 761.685 1.2148 -1.18064 0
M  V30 7807 O 762.891 1.17692 -1.36193 0
M  V30 7808 H 759.266 0.254789 -0.707521 0
M  V30 7809 H 761.237 0.165996 -2.97938 0
M  V30 7810 C 759.986 1.93925 -2.88597 0
M  V30 7811 H 759.309 1.5777 -3.67353 0
M  V30 7812 H 760.749 2.57158 -3.37114 0
M  V30 7813 C 759.208 2.78219 -1.89989 0
M  V30 7814 O 759.738 3.76353 -1.40432 0
M  V30 7815 N 757.944 2.43847 -1.58072 0
M  V30 7816 H 757.491 1.64103 -1.98565 0
M  V30 7817 H 757.449 3.0053 -0.923524 0
M  V30 7818 N 761.222 1.57436 0.0718424 0
M  V30 7819 C 762.462 1.89082 0.776351 0
M  V30 7820 C 762.826 0.795494 1.74745 0
M  V30 7821 O 764.027 0.995025 2.49705 0
M  V30 7822 C 762.298 3.25958 1.46582 0
M  V30 7823 S 763.857 3.79352 2.2054 0
M  V30 7824 H 760.675 0.662472 0.25817 0
M  V30 7825 H 763.277 1.95473 0.0324536 0
M  V30 7826 H 761.981 4.03577 0.745237 0
M  V30 7827 H 761.512 3.22764 2.24915 0
M  V30 7828 H 763.527 3.54634 3.47058 0
M  V30 7829 N 762.7 -0.34323 1.53817 0
M  V30 7830 C 763.946 -1.08504 1.71332 0
M  V30 7831 C 764.279 -1.88294 0.475285 0
M  V30 7832 O 763.554 -1.87205 -0.527688 0
M  V30 7833 C 763.837 -2.02597 2.97702 0
M  V30 7834 C 763.69 -1.26268 4.31713 0
M  V30 7835 C 765.009 -3.0241 3.19744 0
M  V30 7836 H 762.128 -0.393072 0.623429 0
M  V30 7837 H 764.77 -0.363579 1.86489 0
M  V30 7838 H 762.92 -2.64118 2.8491 0
M  V30 7839 H 764.592 -0.673594 4.56356 0
M  V30 7840 H 762.835 -0.564696 4.30109 0
M  V30 7841 H 763.506 -1.95253 5.16314 0
M  V30 7842 H 765.982 -2.51004 3.31868 0
M  V30 7843 H 764.858 -3.65449 4.09558 0
M  V30 7844 H 765.119 -3.73806 2.36054 0
M  V30 7845 N 764.178 -1.45556 -0.604258 0
M  V30 7846 C 765.403 -1.53509 -1.39462 0
M  V30 7847 C 765.828 -0.169638 -1.87333 0
M  V30 7848 O 765.186 0.846346 -1.60333 0
M  V30 7849 C 765.234 -2.52654 -2.5729 0
M  V30 7850 O 764.338 -2.04666 -3.5803 0
M  V30 7851 H 763.679 -0.517355 -0.416221 0
M  V30 7852 H 766.209 -1.90939 -0.735072 0
M  V30 7853 H 766.219 -2.71568 -3.04491 0
M  V30 7854 H 764.894 -3.51823 -2.21797 0
M  V30 7855 H 763.471 -1.95643 -3.17456 0
M  V30 7856 N 765.656 0.84705 -1.32902 0
M  V30 7857 C 766.586 1.97166 -1.25091 0
M  V30 7858 C 767.567 1.69578 -0.133161 0
M  V30 7859 O 768.752 1.91519 -0.321591 0
M  V30 7860 C 765.882 3.33157 -0.981006 0
M  V30 7861 C 764.836 3.75119 -2.06082 0
M  V30 7862 C 764.162 5.08826 -1.64318 0
M  V30 7863 C 765.462 3.89774 -3.47669 0
M  V30 7864 H 767.156 2.03958 -2.19184 0
M  V30 7865 H 764.702 0.979907 -1.05517 0
M  V30 7866 H 766.655 4.11393 -0.912891 0
M  V30 7867 H 765.379 3.266 -0.00445559 0
M  V30 7868 H 764.038 2.9914 -2.11921 0
M  V30 7869 H 763.686 4.98732 -0.653876 0
M  V30 7870 H 763.386 5.37873 -2.36572 0
M  V30 7871 H 764.91 5.89546 -1.58958 0
M  V30 7872 H 766.324 4.58343 -3.44376 0
M  V30 7873 H 764.721 4.30248 -4.18338 0
M  V30 7874 H 765.791 2.92463 -3.86773 0
M  V30 7875 N 767.134 1.16236 1.06428 0
M  V30 7876 C 768.064 0.890807 2.1584 0
M  V30 7877 C 769.045 -0.162333 1.69324 0
M  V30 7878 O 770.23 -0.0147191 1.94194 0
M  V30 7879 C 767.36 0.389615 3.45108 0
M  V30 7880 C 766.314 1.38051 4.05125 0
M  V30 7881 C 765.64 0.737773 5.29586 0
M  V30 7882 C 766.94 2.74965 4.44062 0
M  V30 7883 H 768.634 1.80577 2.38814 0
M  V30 7884 H 766.18 0.869657 1.14774 0
M  V30 7885 H 768.133 0.187127 4.20984 0
M  V30 7886 H 766.857 -0.560851 3.21748 0
M  V30 7887 H 765.516 1.56952 3.31303 0
M  V30 7888 H 765.164 -0.219135 5.02522 0
M  V30 7889 H 764.864 1.39914 5.70699 0
M  V30 7890 H 766.388 0.545275 6.0816 0
M  V30 7891 H 767.802 2.59855 5.11027 0
M  V30 7892 H 766.199 3.37563 4.96156 0
M  V30 7893 H 767.269 3.30321 3.54987 0
M  V30 7894 N 768.612 -1.24939 0.960631 0
M  V30 7895 C 769.837 -1.9742 0.635608 0
M  V30 7896 C 770.262 -1.70857 -0.786737 0
M  V30 7897 O 769.62 -0.968063 -1.53291 0
M  V30 7898 C 769.668 -3.48987 0.907771 0
M  V30 7899 O 768.772 -4.12399 -0.0104053 0
M  V30 7900 H 768.113 -0.61871 0.241027 0
M  V30 7901 H 770.643 -1.58901 1.28886 0
M  V30 7902 H 770.653 -3.99334 0.836453 0
M  V30 7903 H 769.328 -3.6765 1.94439 0
M  V30 7904 H 767.905 -3.72727 0.113631 0
M  V30 7905 N 770.09 -0.729906 -1.39679 0
M  V30 7906 C 771.501 -0.346241 -1.83461 0
M  V30 7907 C 771.852 1.1215 -1.60987 0
M  V30 7908 O 770.977 1.86456 -1.09832 0
M  V30 7909 C 771.572 -0.621656 -3.33048 0
M  V30 7910 C 770.131 -0.291543 -3.75269 0
M  V30 7911 C 769.278 -0.886844 -2.62736 0
M  V30 7912 H 772.229 -0.927949 -1.28743 0
M  V30 7913 H 772.25 0.108301 -3.80346 0
M  V30 7914 H 771.762 -1.68996 -3.49373 0
M  V30 7915 H 769.863 0.771133 -3.64533 0
M  V30 7916 H 769.976 -0.770544 -4.72863 0
M  V30 7917 H 768.34 -0.313839 -2.52759 0
M  V30 7918 H 769.123 -1.95971 -2.81869 0
M  V30 7919 N 771.568 1.50203 -0.477153 0
M  V30 7920 C 772.793 2.07263 0.0754986 0
M  V30 7921 C 773.218 1.33801 1.32208 0
M  V30 7922 O 772.576 0.387482 1.77111 0
M  V30 7923 C 772.624 3.59028 0.336348 0
M  V30 7924 O 771.728 3.87339 1.4157 0
M  V30 7925 H 771.069 0.663815 -0.015662 0
M  V30 7926 H 773.599 1.93321 -0.669936 0
M  V30 7927 H 773.609 4.03927 0.575034 0
M  V30 7928 H 772.284 4.11912 -0.574551 0
M  V30 7929 H 770.861 3.54272 1.16385 0
M  V30 7930 N 773.046 0.209999 1.56195 0
M  V30 7931 C 774.457 -0.299943 1.84275 0
M  V30 7932 C 774.808 -1.60314 1.1311 0
M  V30 7933 O 773.933 -2.1273 0.396874 0
M  V30 7934 C 774.528 -0.550986 3.3429 0
M  V30 7935 C 773.087 -1.00526 3.62728 0
M  V30 7936 C 772.234 -0.0619828 2.77231 0
M  V30 7937 H 775.185 0.433458 1.52666 0
M  V30 7938 H 775.206 -1.39846 3.53869 0
M  V30 7939 H 774.718 0.397669 3.86057 0
M  V30 7940 H 772.819 -1.96768 3.16407 0
M  V30 7941 H 772.932 -0.887664 4.70805 0
M  V30 7942 H 771.296 -0.566648 2.48317 0
M  V30 7943 H 772.079 0.881383 3.31793 0
M  V30 7944 N 774.524 -1.57472 -0.0634922 0
M  V30 7945 C 775.434 -2.07621 -1.09227 0
M  V30 7946 C 776.45 -1.00746 -1.41867 0
M  V30 7947 O 777.626 -1.32269 -1.51878 0
M  V30 7948 C 774.691 -2.51707 -2.38421 0
M  V30 7949 C 773.752 -3.72917 -2.12676 0
M  V30 7950 C 772.985 -4.14891 -3.3571 0
M  V30 7951 O 773.208 -3.56663 -4.45137 0
M  V30 7952 O 772.142 -5.07616 -3.23434 0
M  V30 7953 H 775.968 -2.95612 -0.696205 0
M  V30 7954 H 773.553 -1.46787 -0.27819 0
M  V30 7955 H 775.435 -2.80547 -3.14438 0
M  V30 7956 H 774.11 -1.66842 -2.77391 0
M  V30 7957 H 773.017 -3.49148 -1.34337 0
M  V30 7958 H 774.35 -4.5866 -1.78583 0
M  V30 7959 N 776.003 0.335068 -1.53997 0
M  V30 7960 C 777.251 1.07223 -1.71312 0
M  V30 7961 C 777.572 1.88911 -0.483486 0
M  V30 7962 O 776.842 1.89344 0.50257 0
M  V30 7963 H 775.422 0.398846 -0.63161 0
M  V30 7964 H 778.084 0.374288 -1.91272 0
M  V30 7965 H 777.18 1.7448 -2.58772 0
M  V30 7966 N 777.481 1.45874 0.596531 0
M  V30 7967 C 778.758 1.40942 1.35627 0
M  V30 7968 C 779.138 0.0857066 2.10926 0
M  V30 7969 O 778.486 -0.932544 2.08605 0
M  V30 7970 C 778.696 2.63027 2.29386 0
M  V30 7971 C 780.044 3.08588 2.91649 0
M  V30 7972 O 781.068 2.63478 2.39704 0
M  V30 7973 O 779.927 3.86902 3.85965 0
M  V30 7974 H 777.021 0.559838 0.608696 0
M  V30 7975 H 779.567 1.5802 0.618698 0
M  V30 7976 H 778.339 3.5094 1.7308 0
M  V30 7977 H 777.962 2.48338 3.10506 0
M  V30 7978 N 778.959 -0.83999 1.33349 0
M  V30 7979 C 780.37 -1.41139 1.22216 0
M  V30 7980 C 780.721 -1.95551 -0.159398 0
M  V30 7981 O 779.846 -1.88721 -1.05893 0
M  V30 7982 C 780.441 -2.56564 2.21269 0
M  V30 7983 C 779 -3.09661 2.13979 0
M  V30 7984 C 778.147 -1.82457 2.08818 0
M  V30 7985 H 781.098 -0.645853 1.44964 0
M  V30 7986 H 781.119 -3.34163 1.81976 0
M  V30 7987 H 780.631 -2.16932 3.21811 0
M  V30 7988 H 778.732 -3.53841 1.16736 0
M  V30 7989 H 778.845 -3.6991 3.04472 0
M  V30 7990 H 777.209 -2.0266 1.54276 0
M  V30 7991 H 777.992 -1.45022 3.11165 0
M  V30 7992 N 780.437 -1.16799 -1.0581 0
M  V30 7993 C 781.853 -0.913935 -1.30841 0
M  V30 7994 C 782.053 0.430439 -1.96849 0
M  V30 7995 O 781.109 1.16885 -2.23817 0
M  V30 7996 C 782.422 -2.06662 -2.18429 0
M  V30 7997 C 783.97 -2.10294 -2.31831 0
M  V30 7998 C 784.445 -3.2493 -3.22776 0
M  V30 7999 N 785.936 -3.24678 -3.30361 0
M  V30 8000 C 786.671 -4.10021 -4.00837 0
M  V30 8001 N 786.167 -5.05461 -4.73795 0
M  V30 8002 N 787.96 -3.97991 -3.96937 0
M  V30 8003 H 780.111 -2.03343 -0.613613 0
M  V30 8004 H 782.374 -0.88754 -0.333133 0
M  V30 8005 H 782.08 -3.03791 -1.77211 0
M  V30 8006 H 781.954 -2.01233 -3.19038 0
M  V30 8007 H 784.341 -1.13754 -2.72294 0
M  V30 8008 H 784.422 -2.19786 -1.30873 0
M  V30 8009 H 784.066 -4.21731 -2.83028 0
M  V30 8010 H 783.996 -3.12674 -4.23725 0
M  V30 8011 H 786.487 -2.55573 -2.78372 0
M  V30 8012 H 786.8 -5.66989 -5.25113 0
M  V30 8013 H 785.145 -5.09436 -4.72758 0
M  V30 8014 H 788.336 -3.2273 -3.39062 0
M  V30 8015 H 788.509 -4.64722 -4.51594 0
M  V30 8016 N 781.915 1.24427 -0.967243 0
M  V30 8017 C 783.162 1.92487 -0.62888 0
M  V30 8018 C 783.49 1.75623 0.835871 0
M  V30 8019 O 782.745 1.1027 1.61675 0
M  V30 8020 C 783.044 3.44568 -0.949096 0
M  V30 8021 C 782.71 3.816 -2.40192 0
M  V30 8022 C 781.372 3.9142 -2.799 0
M  V30 8023 C 783.724 3.99715 -3.34481 0
M  V30 8024 C 781.052 4.16771 -4.12939 0
M  V30 8025 C 783.404 4.26562 -4.67148 0
M  V30 8026 C 782.068 4.34601 -5.06634 0
M  V30 8027 H 781.338 0.704361 -0.230124 0
M  V30 8028 H 783.985 1.4772 -1.21864 0
M  V30 8029 H 782.29 3.90819 -0.277085 0
M  V30 8030 H 783.987 3.95436 -0.665692 0
M  V30 8031 H 780.577 3.74522 -2.08402 0
M  V30 8032 H 784.761 3.91531 -3.04987 0
M  V30 8033 H 780.017 4.21214 -4.43158 0
M  V30 8034 H 784.191 4.39523 -5.40178 0
M  V30 8035 H 781.818 4.53998 -6.09746 0
M  V30 8036 N 783.393 0.737304 1.3929 0
M  V30 8037 C 784.618 0.295237 2.05288 0
M  V30 8038 C 785.043 -1.06235 1.55228 0
M  V30 8039 O 784.401 -1.67365 0.697043 0
M  V30 8040 C 784.449 0.309146 3.59272 0
M  V30 8041 O 783.553 -0.702437 4.06374 0
M  V30 8042 H 782.894 0.133762 0.650387 0
M  V30 8043 H 785.424 1.00387 1.78279 0
M  V30 8044 H 785.434 0.154336 4.07708 0
M  V30 8045 H 784.109 1.29974 3.95069 0
M  V30 8046 H 782.686 -0.513574 3.69346 0
M  V30 8047 N 784.871 -1.49948 0.485112 0
M  V30 8048 C 786.118 -2.02396 -0.0650059 0
M  V30 8049 C 786.446 -1.36606 -1.38452 0
M  V30 8050 O 785.701 -0.485476 -1.89583 0
M  V30 8051 C 786 -3.56282 -0.282434 0
M  V30 8052 C 785.666 -4.40625 0.957106 0
M  V30 8053 C 784.328 -4.63393 1.29692 0
M  V30 8054 C 786.68 -4.89799 1.78176 0
M  V30 8055 C 784.008 -5.3258 2.4612 0
M  V30 8056 C 786.36 -5.60266 2.93743 0
M  V30 8057 C 785.024 -5.81284 3.28124 0
M  V30 8058 H 784.294 -0.740618 -0.0237873 0
M  V30 8059 H 786.941 -1.80416 0.642044 0
M  V30 8060 H 785.246 -3.76853 -1.07186 0
M  V30 8061 H 786.943 -3.94442 -0.722276 0
M  V30 8062 H 783.533 -4.23133 0.682384 0
M  V30 8063 H 787.717 -4.7205 1.53239 0
M  V30 8064 H 782.973 -5.47059 2.73014 0
M  V30 8065 H 787.147 -5.97347 3.5798 0
M  V30 8066 H 784.774 -6.34671 4.18446 0
M  V30 8067 N 786.349 -0.21828 -1.56081 0
M  V30 8068 C 787.279 0.687922 -2.23136 0
M  V30 8069 C 788.26 1.20357 -1.202 0
M  V30 8070 O 789.445 1.24817 -1.48776 0
M  V30 8071 C 786.575 1.89762 -2.90874 0
M  V30 8072 C 785.529 1.51595 -4.00254 0
M  V30 8073 C 784.855 2.80415 -4.55271 0
M  V30 8074 C 786.155 0.708404 -5.17474 0
M  V30 8075 H 787.849 0.128854 -2.99123 0
M  V30 8076 H 785.395 0.0605354 -1.43873 0
M  V30 8077 H 787.348 2.53699 -3.36474 0
M  V30 8078 H 786.072 2.4816 -2.1233 0
M  V30 8079 H 784.731 0.900058 -3.55379 0
M  V30 8080 H 784.379 3.36951 -3.73461 0
M  V30 8081 H 784.079 2.55613 -5.2909 0
M  V30 8082 H 785.603 3.453 -5.03587 0
M  V30 8083 H 787.017 1.2514 -5.59476 0
M  V30 8084 H 785.414 0.557593 -5.97504 0
M  V30 8085 H 786.484 -0.285679 -4.84058 0
M  V30 8086 N 787.827 1.57504 0.0551401 0
M  V30 8087 C 788.757 2.07864 1.06372 0
M  V30 8088 C 789.738 0.975565 1.39344 0
M  V30 8089 O 790.923 1.24929 1.48682 0
M  V30 8090 C 788.053 2.53643 2.3724 0
M  V30 8091 C 787.007 3.67978 2.18578 0
M  V30 8092 C 786.333 3.9987 3.54976 0
M  V30 8093 C 787.633 4.97405 1.59329 0
M  V30 8094 H 789.327 2.92379 0.644595 0
M  V30 8095 H 786.873 1.40654 0.308619 0
M  V30 8096 H 788.826 2.8749 3.08103 0
M  V30 8097 H 787.55 1.66177 2.81163 0
M  V30 8098 H 786.209 3.3444 1.50152 0
M  V30 8099 H 785.857 3.0951 3.965 0
M  V30 8100 H 785.557 4.76867 3.43324 0
M  V30 8101 H 787.081 4.36228 4.27244 0
M  V30 8102 H 788.495 5.29375 2.20078 0
M  V30 8103 H 786.892 5.78837 1.58327 0
M  V30 8104 H 787.962 4.81697 0.55638 0
M  V30 8105 N 789.305 -0.326896 1.54172 0
M  V30 8106 C 790.255 -1.40319 1.79707 0
M  V30 8107 C 791.239 -1.47056 0.652938 0
M  V30 8108 O 792.431 -1.51645 0.91284 0
M  V30 8109 C 789.56 -2.77222 2.02491 0
M  V30 8110 C 788.646 -2.74811 3.23016 0
M  V30 8111 N 789.037 -2.42022 4.44138 0
M  V30 8112 C 787.335 -3.05943 3.24522 0
M  V30 8113 C 788.036 -2.48263 5.26061 0
M  V30 8114 N 787.012 -2.84567 4.63166 0
M  V30 8115 H 790.814 -1.13892 2.70935 0
M  V30 8116 H 788.328 -0.53536 1.53322 0
M  V30 8117 H 790.325 -3.54793 2.18923 0
M  V30 8118 H 788.985 -3.04582 1.12515 0
M  V30 8119 H 789.996 -2.14926 4.71197 0
M  V30 8120 H 786.673 -3.38367 2.44569 0
M  V30 8121 H 788.063 -2.2593 6.32776 0
M  V30 8122 N 790.784 -1.46188 -0.588786 0
M  V30 8123 C 792.031 -1.51184 -1.34721 0
M  V30 8124 C 792.359 -0.161084 -1.93832 0
M  V30 8125 O 791.614 0.842557 -1.76634 0
M  V30 8126 C 791.913 -2.55364 -2.50048 0
M  V30 8127 C 791.579 -3.99553 -2.08969 0
M  V30 8128 C 790.241 -4.38811 -1.9748 0
M  V30 8129 C 792.593 -4.90156 -1.77191 0
M  V30 8130 C 789.921 -5.66544 -1.52463 0
M  V30 8131 C 792.273 -6.1832 -1.33654 0
M  V30 8132 C 790.937 -6.5649 -1.20738 0
M  V30 8133 H 790.207 -0.55322 -0.49298 0
M  V30 8134 H 792.854 -1.79634 -0.663627 0
M  V30 8135 H 791.159 -2.20552 -3.23827 0
M  V30 8136 H 792.856 -2.5646 -3.08268 0
M  V30 8137 H 789.446 -3.68518 -2.18843 0
M  V30 8138 H 793.63 -4.60549 -1.84955 0
M  V30 8139 H 788.886 -5.94895 -1.411 0
M  V30 8140 H 793.06 -6.87956 -1.08117 0
M  V30 8141 H 790.687 -7.55362 -0.856307 0
M  V30 8142 N 792.262 0.832906 -1.33792 0
M  V30 8143 C 793.492 1.61813 -1.28453 0
M  V30 8144 C 793.9 1.88639 0.145595 0
M  V30 8145 O 793.243 1.47122 1.10004 0
M  V30 8146 C 793.305 2.98929 -1.99704 0
M  V30 8147 C 792.969 2.95045 -3.48995 0
M  V30 8148 C 793.966 2.70337 -4.44088 0
M  V30 8149 C 791.651 3.14993 -3.91261 0
M  V30 8150 C 793.645 2.65612 -5.79421 0
M  V30 8151 C 791.332 3.09893 -5.26697 0
M  V30 8152 C 792.33 2.85235 -6.20588 0
M  V30 8153 O 792.018 2.8005 -7.53543 0
M  V30 8154 H 791.75 0.510013 -0.443693 0
M  V30 8155 H 794.304 1.04514 -1.76822 0
M  V30 8156 H 792.534 3.58106 -1.45935 0
M  V30 8157 H 794.223 3.59849 -1.87786 0
M  V30 8158 H 794.989 2.54671 -4.12756 0
M  V30 8159 H 790.868 3.33204 -3.18584 0
M  V30 8160 H 794.412 2.46285 -6.52679 0
M  V30 8161 H 790.309 3.2511 -5.5765 0
M  V30 8162 H 791.077 2.95849 -7.63162 0
M  V30 8163 N 793.74 1.17359 1.05189 0
M  V30 8164 C 794.968 0.986529 1.81866 0
M  V30 8165 C 795.383 -0.46522 1.82979 0
M  V30 8166 O 794.74 -1.32305 1.25705 0
M  V30 8167 C 794.791 1.52021 3.27982 0
M  V30 8168 O 794.512 2.91511 3.27037 0
M  V30 8169 C 796.013 1.37774 4.21347 0
M  V30 8170 H 793.233 0.349021 0.573084 0
M  V30 8171 H 795.777 1.55648 1.32643 0
M  V30 8172 H 793.932 0.992287 3.74476 0
M  V30 8173 H 794.346 3.16178 4.18488 0
M  V30 8174 H 795.82 1.7993 5.21852 0
M  V30 8175 H 796.297 0.32483 4.37997 0
M  V30 8176 H 796.903 1.89583 3.80708 0
M  V30 8177 N 795.218 -1.23913 0.973828 0
M  V30 8178 C 796.464 -1.92436 0.640026 0
M  V30 8179 C 796.797 -1.75875 -0.823512 0
M  V30 8180 O 796.072 -1.11563 -1.59323 0
M  V30 8181 C 796.355 -3.4526 1.0231 0
M  V30 8182 C 796.208 -3.70961 2.54378 0
M  V30 8183 C 797.527 -4.36495 0.562155 0
M  V30 8184 H 794.646 -0.698868 0.233992 0
M  V30 8185 H 797.288 -1.46163 1.21393 0
M  V30 8186 H 795.438 -3.84802 0.534751 0
M  V30 8187 H 797.11 -3.40941 3.10737 0
M  V30 8188 H 795.353 -3.15899 2.97305 0
M  V30 8189 H 796.024 -4.77912 2.76232 0
M  V30 8190 H 798.5 -4.04363 0.981333 0
M  V30 8191 H 797.376 -5.42142 0.858689 0
M  V30 8192 H 797.637 -4.38818 -0.537659 0
M  V30 8193 N 796.696 -0.74468 -1.38897 0
M  V30 8194 C 798.107 -0.36568 -1.83084 0
M  V30 8195 C 798.458 1.10436 -1.62168 0
M  V30 8196 O 797.583 1.85281 -1.11804 0
M  V30 8197 C 798.178 -0.656946 -3.3237 0
M  V30 8198 C 796.737 -0.331329 -3.74939 0
M  V30 8199 C 795.884 -0.914661 -2.61781 0
M  V30 8200 H 798.835 -0.941551 -1.27752 0
M  V30 8201 H 798.856 0.0679546 -3.80439 0
M  V30 8202 H 798.368 -1.72693 -3.47561 0
M  V30 8203 H 796.469 0.732426 -3.6533 0
M  V30 8204 H 796.582 -0.820655 -4.72019 0
M  V30 8205 H 794.946 -0.34063 -2.52412 0
M  V30 8206 H 795.729 -1.98949 -2.79775 0
M  V30 8207 N 798.174 1.49689 -0.493057 0
M  V30 8208 C 799.423 2.01622 0.0560733 0
M  V30 8209 C 799.736 1.37838 1.3878 0
M  V30 8210 O 800.942 1.81054 2.02316 0
M  V30 8211 C 799.398 3.59586 0.150409 0
M  V30 8212 C 799.006 4.32338 -1.1742 0
M  V30 8213 C 800.75 4.19489 0.650327 0
M  V30 8214 C 798.657 5.8214 -1.04246 0
M  V30 8215 H 797.587 0.753594 0.0247297 0
M  V30 8216 H 800.238 1.723 -0.631279 0
M  V30 8217 H 798.62 3.8559 0.902035 0
M  V30 8218 H 799.794 4.18042 -1.9385 0
M  V30 8219 H 798.109 3.84144 -1.60694 0
M  V30 8220 H 800.706 5.29181 0.766272 0
M  V30 8221 H 801.049 3.82326 1.6472 0
M  V30 8222 H 801.582 3.97775 -0.0445371 0
M  V30 8223 H 798.321 6.23814 -2.01336 0
M  V30 8224 H 797.841 5.98952 -0.31892 0
M  V30 8225 H 799.52 6.43004 -0.717957 0
M  V30 8226 N 799.652 0.226554 1.55963 0
M  V30 8227 C 801.063 -0.280381 1.84583 0
M  V30 8228 C 801.414 -1.59105 1.14804 0
M  V30 8229 O 800.539 -2.12297 0.419414 0
M  V30 8230 C 801.134 -0.515499 3.34855 0
M  V30 8231 C 799.693 -0.966733 3.63774 0
M  V30 8232 C 798.84 -0.0325753 2.77281 0
M  V30 8233 H 801.791 0.449626 1.52197 0
M  V30 8234 H 801.812 -1.36085 3.55332 0
M  V30 8235 H 801.324 0.438594 3.85614 0
M  V30 8236 H 799.425 -1.93401 3.18476 0
M  V30 8237 H 799.538 -0.837679 4.7172 0
M  V30 8238 H 797.902 -0.540279 2.48904 0
M  V30 8239 H 798.685 0.916524 3.30839 0
M  V30 8240 N 801.13 -1.57531 -0.0467866 0
M  V30 8241 C 802.077 -2.05387 -1.05285 0
M  V30 8242 C 803.047 -0.939385 -1.36985 0
M  V30 8243 O 804.232 -1.20877 -1.47626 0
M  V30 8244 C 801.372 -2.52343 -2.35408 0
M  V30 8245 C 800.485 -3.77512 -2.10022 0
M  V30 8246 C 799.62 -4.1315 -3.33887 0
M  V30 8247 C 798.659 -5.31286 -3.03976 0
M  V30 8248 N 797.796 -5.62441 -4.20243 0
M  V30 8249 H 802.636 -2.91095 -0.637788 0
M  V30 8250 H 800.173 -1.43939 -0.303322 0
M  V30 8251 H 802.131 -2.77628 -3.11413 0
M  V30 8252 H 800.761 -1.69577 -2.7467 0
M  V30 8253 H 799.813 -3.59417 -1.24594 0
M  V30 8254 H 801.125 -4.63644 -1.83945 0
M  V30 8255 H 800.279 -4.39469 -4.18273 0
M  V30 8256 H 799.018 -3.25634 -3.63062 0
M  V30 8257 H 798.023 -5.04738 -2.17991 0
M  V30 8258 H 799.248 -6.20441 -2.76098 0
M  V30 8259 H 797.194 -4.77885 -4.49402 0
M  V30 8260 H 797.111 -6.43046 -3.97528 0
M  V30 8261 H 798.379 -5.93327 -5.05553 0
M  V30 8262 N 802.608 0.318715 -1.54344 0
M  V30 8263 C 803.836 1.0755 -1.7675 0
M  V30 8264 C 804.251 1.81543 -0.518422 0
M  V30 8265 O 803.608 1.75198 0.511078 0
M  V30 8266 C 803.659 2.06983 -2.96378 0
M  V30 8267 O 803.38 1.35995 -4.16458 0
M  V30 8268 C 804.881 2.94841 -3.31034 0
M  V30 8269 H 802.101 0.319711 -0.589937 0
M  V30 8270 H 804.645 0.363369 -2.01246 0
M  V30 8271 H 802.8 2.73724 -2.74142 0
M  V30 8272 H 803.214 2.02623 -4.83781 0
M  V30 8273 H 804.688 3.60496 -4.18027 0
M  V30 8274 H 805.165 3.62199 -2.48412 0
M  V30 8275 H 805.771 2.33656 -3.55366 0
M  V30 8276 N 804.086 1.46499 0.581025 0
M  V30 8277 C 805.334 1.51596 1.33653 0
M  V30 8278 C 805.655 0.169859 1.94259 0
M  V30 8279 O 804.925 -0.803776 1.78651 0
M  V30 8280 H 803.505 0.558346 0.496244 0
M  V30 8281 H 806.167 1.8264 0.680338 0
M  V30 8282 H 805.263 2.26956 2.14237 0
M  V30 8283 N 805.565 -0.825799 1.34232 0
M  V30 8284 C 806.793 -1.61363 1.29497 0
M  V30 8285 C 807.208 -1.88341 -0.131536 0
M  V30 8286 O 806.565 -1.47279 -1.07773 0
M  V30 8287 C 806.616 -2.95623 2.08061 0
M  V30 8288 O 806.337 -2.69824 3.45147 0
M  V30 8289 C 807.838 -3.90032 2.10688 0
M  V30 8290 H 805.058 -0.501676 0.445603 0
M  V30 8291 H 807.602 -1.02767 1.76803 0
M  V30 8292 H 805.757 -3.50785 1.64404 0
M  V30 8293 H 806.171 -3.55412 3.85723 0
M  V30 8294 H 807.645 -4.81411 2.70087 0
M  V30 8295 H 808.122 -4.25188 1.10052 0
M  V30 8296 H 808.728 -3.40807 2.54422 0
M  V30 8297 N 807.043 -1.17915 -1.04565 0
M  V30 8298 C 807.973 -0.925033 -2.14395 0
M  V30 8299 C 808.954 0.135375 -1.6956 0
M  V30 8300 O 810.139 -0.0161774 -1.94193 0
M  V30 8301 C 807.269 -0.444469 -3.44444 0
M  V30 8302 C 806.223 -1.44478 -4.02877 0
M  V30 8303 C 805.549 -0.821933 -5.28345 0
M  V30 8304 C 806.849 -2.81995 -4.39632 0
M  V30 8305 H 808.543 -1.84354 -2.35911 0
M  V30 8306 H 806.089 -0.887806 -1.13375 0
M  V30 8307 H 808.042 -0.254078 -4.20633 0
M  V30 8308 H 806.766 0.509592 -3.226 0
M  V30 8309 H 805.425 -1.62203 -3.28764 0
M  V30 8310 H 805.073 0.139161 -5.02807 0
M  V30 8311 H 804.773 -1.48976 -5.68401 0
M  V30 8312 H 806.297 -0.641959 -6.07216 0
M  V30 8313 H 807.711 -2.67952 -5.06828 0
M  V30 8314 H 806.108 -3.45414 -4.90723 0
M  V30 8315 H 807.178 -3.35927 -3.49687 0
M  V30 8316 N 808.521 1.23394 -0.980386 0
M  V30 8317 C 809.746 1.96384 -0.666935 0
M  V30 8318 C 810.171 1.72087 0.759456 0
M  V30 8319 O 809.529 0.992328 1.51732 0
M  V30 8320 C 809.577 3.47499 -0.963177 0
M  V30 8321 O 808.681 4.12363 -0.0552051 0
M  V30 8322 H 808.022 0.614797 -0.250839 0
M  V30 8323 H 810.552 1.56831 -1.31398 0
M  V30 8324 H 810.562 3.97953 -0.899877 0
M  V30 8325 H 809.237 3.6451 -2.00264 0
M  V30 8326 H 807.814 3.72499 -0.172914 0
M  V30 8327 N 809.999 0.752036 1.385 0
M  V30 8328 C 811.239 0.312408 2.01998 0
M  V30 8329 C 811.603 -1.085 1.58404 0
M  V30 8330 O 812.804 -1.62365 2.14222 0
M  V30 8331 C 811.075 0.429423 3.54811 0
M  V30 8332 S 812.634 0.0721487 4.38741 0
M  V30 8333 H 809.452 0.1213 0.700576 0
M  V30 8334 H 812.054 0.982312 1.69029 0
M  V30 8335 H 810.758 1.44743 3.84028 0
M  V30 8336 H 810.289 -0.257716 3.92555 0
M  V30 8337 H 812.304 -1.13875 4.82957 0
M  V30 8338 N 811.477 -1.49425 0.500989 0
M  V30 8339 C 812.705 -2.06861 -0.0403443 0
M  V30 8340 C 813.12 -1.36132 -1.30819 0
M  V30 8341 O 812.477 -0.439647 -1.77125 0
M  V30 8342 C 812.528 -3.6027 -0.297902 0
M  V30 8343 O 812.249 -4.28338 0.919686 0
M  V30 8344 C 813.75 -4.34419 -0.882876 0
M  V30 8345 H 810.97 -0.670688 0.0204619 0
M  V30 8346 H 813.514 -1.92207 0.698342 0
M  V30 8347 H 811.669 -3.74627 -0.98657 0
M  V30 8348 H 812.083 -5.2004 0.682528 0
M  V30 8349 H 813.557 -5.42631 -1.01268 0
M  V30 8350 H 814.034 -3.96898 -1.88066 0
M  V30 8351 H 814.64 -4.24669 -0.231677 0
M  V30 8352 N 812.955 -0.234822 -1.55841 0
M  V30 8353 C 814.201 0.393843 -1.98939 0
M  V30 8354 C 814.534 1.58466 -1.1226 0
M  V30 8355 O 813.809 1.93635 -0.183242 0
M  V30 8356 C 814.092 0.815492 -3.50745 0
M  V30 8357 C 813.945 -0.379878 -4.48193 0
M  V30 8358 C 815.264 1.66687 -4.07312 0
M  V30 8359 H 812.383 0.141681 -0.723253 0
M  V30 8360 H 815.025 -0.333716 -1.87046 0
M  V30 8361 H 813.175 1.43541 -3.6101 0
M  V30 8362 H 814.847 -1.0182 -4.49923 0
M  V30 8363 H 813.09 -1.02507 -4.21515 0
M  V30 8364 H 813.761 -0.0417069 -5.51984 0
M  V30 8365 H 816.237 1.14369 -4.00074 0
M  V30 8366 H 815.113 1.93078 -5.13821 0
M  V30 8367 H 815.374 2.63468 -3.55017 0
M  V30 8368 N 814.433 1.57553 0.0384317 0
M  V30 8369 C 815.396 2.04927 1.02653 0
M  V30 8370 C 816.396 0.951768 1.29607 0
M  V30 8371 O 817.586 1.21568 1.24768 0
M  V30 8372 C 814.718 2.45828 2.36181 0
M  V30 8373 H 815.911 2.93474 0.617508 0
M  V30 8374 H 813.464 1.53679 0.285031 0
M  V30 8375 H 814.199 1.60408 2.8185 0
M  V30 8376 H 813.984 3.25945 2.1795 0
M  V30 8377 H 815.474 2.82939 3.0714 0
M  V30 8378 N 815.911 -0.310526 1.54511 0
M  V30 8379 C 816.841 -1.38757 1.878 0
M  V30 8380 C 817.822 -1.53353 0.735991 0
M  V30 8381 O 819.007 -1.67018 0.990887 0
M  V30 8382 C 816.137 -2.75327 2.11689 0
M  V30 8383 C 815.091 -2.75506 3.27537 0
M  V30 8384 C 814.417 -4.15275 3.36824 0
M  V30 8385 C 815.717 -2.38093 4.64875 0
M  V30 8386 H 817.411 -1.11146 2.78005 0
M  V30 8387 H 814.957 -0.533232 1.33763 0
M  V30 8388 H 816.91 -3.50752 2.33562 0
M  V30 8389 H 815.634 -3.04443 1.18245 0
M  V30 8390 H 814.293 -2.02538 3.05572 0
M  V30 8391 H 813.941 -4.41553 2.40915 0
M  V30 8392 H 813.641 -4.16299 4.14692 0
M  V30 8393 H 815.165 -4.92493 3.60947 0
M  V30 8394 H 816.579 -3.03232 4.86542 0
M  V30 8395 H 814.976 -2.50345 5.45387 0
M  V30 8396 H 816.046 -1.33227 4.66239 0
M  V30 8397 N 817.389 -1.46805 -0.573248 0
M  V30 8398 C 818.805 -1.31969 -0.897577 0
M  V30 8399 C 819.005 -0.298171 -1.99282 0
M  V30 8400 O 818.061 0.295953 -2.5076 0
M  V30 8401 C 819.374 -2.70859 -1.30598 0
M  V30 8402 C 820.922 -2.79022 -1.4183 0
M  V30 8403 C 821.397 -4.18516 -1.86033 0
M  V30 8404 N 822.888 -4.2098 -1.9321 0
M  V30 8405 C 823.623 -5.25814 -2.28707 0
M  V30 8406 N 823.119 -6.40968 -2.6293 0
M  V30 8407 N 824.912 -5.13184 -2.29343 0
M  V30 8408 H 817.063 -2.11869 0.150094 0
M  V30 8409 H 819.326 -0.947989 0.00447895 0
M  V30 8410 H 819.032 -3.46965 -0.575161 0
M  V30 8411 H 818.906 -3.01585 -2.26554 0
M  V30 8412 H 821.293 -2.03198 -2.13996 0
M  V30 8413 H 821.374 -2.51969 -0.441024 0
M  V30 8414 H 821.018 -4.94839 -1.14442 0
M  V30 8415 H 820.948 -4.42982 -2.84735 0
M  V30 8416 H 823.439 -3.37898 -1.69214 0
M  V30 8417 H 823.752 -7.16729 -2.88996 0
M  V30 8418 H 822.097 -6.44314 -2.60547 0
M  V30 8419 H 825.288 -4.22255 -2.02036 0
M  V30 8420 H 825.461 -5.94996 -2.56679 0
M  V30 8421 N 818.867 0.818669 -1.34668 0
M  V30 8422 C 820.278 1.39177 -1.24446 0
M  V30 8423 C 820.629 1.9578 0.128268 0
M  V30 8424 O 819.754 1.90382 1.02877 0
M  V30 8425 C 820.349 2.53012 -2.25323 0
M  V30 8426 C 818.908 3.06218 -2.18878 0
M  V30 8427 C 818.055 1.79112 -2.11694 0
M  V30 8428 H 821.006 0.622709 -1.45973 0
M  V30 8429 H 821.027 3.31226 -1.8727 0
M  V30 8430 H 820.539 2.11784 -3.25221 0
M  V30 8431 H 818.64 3.51939 -1.22351 0
M  V30 8432 H 818.753 3.65019 -3.10319 0
M  V30 8433 H 817.117 2.0018 -1.57481 0
M  V30 8434 H 817.9 1.40053 -3.13433 0
M  V30 8435 N 820.346 1.18468 1.03938 0
M  V30 8436 C 821.293 0.912859 2.1198 0
M  V30 8437 C 822.263 -0.14824 1.65437 0
M  V30 8438 O 823.448 -0.008331 1.90798 0
M  V30 8439 C 820.588 0.446114 3.42204 0
M  V30 8440 C 819.701 1.57278 4.02353 0
M  V30 8441 C 818.836 1.05863 5.20544 0
M  V30 8442 C 817.875 2.1599 5.72726 0
M  V30 8443 N 817.012 1.65959 6.82204 0
M  V30 8444 H 821.852 1.83798 2.34569 0
M  V30 8445 H 819.389 0.916504 1.15059 0
M  V30 8446 H 821.347 0.15697 4.16905 0
M  V30 8447 H 819.977 -0.442025 3.19759 0
M  V30 8448 H 819.029 1.97737 3.24968 0
M  V30 8449 H 820.341 2.40289 4.37107 0
M  V30 8450 H 819.495 0.724087 6.02364 0
M  V30 8451 H 818.234 0.198116 4.87297 0
M  V30 8452 H 817.239 2.50287 4.89527 0
M  V30 8453 H 818.464 3.02479 6.08016 0
M  V30 8454 H 816.41 0.82199 6.5083 0
M  V30 8455 H 816.327 2.42567 7.16029 0
M  V30 8456 H 817.595 1.35436 7.67644 0
M  V30 8457 N 821.824 -1.22873 0.986916 0
M  V30 8458 C 823.052 -1.95487 0.677663 0
M  V30 8459 C 823.467 -1.72978 -0.756572 0
M  V30 8460 O 822.824 -1.02517 -1.50985 0
M  V30 8461 C 822.875 -3.48337 0.966638 0
M  V30 8462 O 822.596 -3.70087 2.34451 0
M  V30 8463 C 824.097 -4.38142 0.674248 0
M  V30 8464 H 821.317 -0.622211 0.251185 0
M  V30 8465 H 823.861 -1.56187 1.32007 0
M  V30 8466 H 822.016 -3.85628 0.370137 0
M  V30 8467 H 822.43 -4.64332 2.43918 0
M  V30 8468 H 823.904 -5.44165 0.926759 0
M  V30 8469 H 824.381 -4.3745 -0.391728 0
M  V30 8470 H 824.987 -4.06469 1.25152 0
M  V30 8471 N 823.302 -0.75937 -1.38099 0
M  V30 8472 C 824.55 -0.317485 -1.99591 0
M  V30 8473 C 824.871 1.10628 -1.60581 0
M  V30 8474 O 824.141 1.7575 -0.865378 0
M  V30 8475 H 822.721 -0.114397 -0.738189 0
M  V30 8476 H 825.383 -0.974749 -1.68774 0
M  V30 8477 H 824.479 -0.385227 -3.09713 0
M  V30 8478 N 824.78 1.49157 -0.508906 0
M  V30 8479 C 826.005 2.07376 0.0315182 0
M  V30 8480 C 826.43 1.36575 1.2934 0
M  V30 8481 O 825.788 0.424963 1.76249 0
M  V30 8482 C 825.836 3.59661 0.260118 0
M  V30 8483 O 824.94 3.90255 1.33322 0
M  V30 8484 H 824.281 0.663334 -0.029739 0
M  V30 8485 H 826.811 1.91857 -0.710791 0
M  V30 8486 H 826.821 4.05056 0.489225 0
M  V30 8487 H 825.496 4.10601 -0.661794 0
M  V30 8488 H 824.073 3.56661 1.08844 0
M  V30 8489 N 826.258 0.243083 1.55714 0
M  V30 8490 C 827.19 -0.690766 2.18543 0
M  V30 8491 C 828.203 -1.14163 1.16064 0
M  V30 8492 O 829.392 -1.06906 1.42946 0
M  V30 8493 C 826.492 -1.95016 2.77168 0
M  V30 8494 C 825.665 -1.65137 4.05029 0
M  V30 8495 C 824.724 -2.75998 4.48009 0
M  V30 8496 O 823.75 -2.43547 5.14464 0
M  V30 8497 N 824.952 -4.05414 4.15476 0
M  V30 8498 H 827.717 -0.153203 2.99308 0
M  V30 8499 H 825.278 0.0628968 1.61778 0
M  V30 8500 H 827.27 -2.68414 3.0288 0
M  V30 8501 H 825.84 -2.39762 2.00582 0
M  V30 8502 H 825.06 -0.752768 3.86946 0
M  V30 8503 H 826.348 -1.42633 4.88399 0
M  V30 8504 H 825.746 -4.34613 3.62116 0
M  V30 8505 H 824.303 -4.75288 4.46032 0
M  V30 8506 N 827.736 -1.57571 -0.0300757 0
M  V30 8507 C 829.013 -1.80381 -0.756447 0
M  V30 8508 C 829.393 -0.840906 -1.93628 0
M  V30 8509 O 828.741 0.117143 -2.282 0
M  V30 8510 C 828.951 -3.2807 -1.19043 0
M  V30 8511 C 830.299 -3.93025 -1.60676 0
M  V30 8512 O 831.323 -3.32213 -1.28503 0
M  V30 8513 O 830.182 -5.00092 -2.20386 0
M  V30 8514 H 827.276 -0.741737 -0.365725 0
M  V30 8515 H 829.822 -1.69699 -0.00693177 0
M  V30 8516 H 828.594 -3.89748 -0.348128 0
M  V30 8517 H 828.217 -3.43637 -1.99999 0
M  V30 8518 N 829.214 0.302327 -1.54673 0
M  V30 8519 C 830.146 1.39443 -1.81902 0
M  V30 8520 C 831.159 1.46891 -0.701914 0
M  V30 8521 O 832.348 1.49233 -0.979369 0
M  V30 8522 C 829.448 2.77824 -1.9408 0
M  V30 8523 C 828.621 2.93324 -3.24468 0
M  V30 8524 C 827.68 4.12196 -3.27079 0
M  V30 8525 O 826.706 4.04344 -4.00617 0
M  V30 8526 N 827.908 5.22768 -2.52376 0
M  V30 8527 H 830.673 1.1644 -2.76155 0
M  V30 8528 H 828.234 0.492392 -1.54231 0
M  V30 8529 H 830.226 3.5559 -1.9323 0
M  V30 8530 H 828.796 2.9378 -1.06828 0
M  V30 8531 H 828.016 2.02682 -3.38103 0
M  V30 8532 H 829.304 3.0059 -4.10516 0
M  V30 8533 H 828.702 5.32027 -1.92259 0
M  V30 8534 H 827.259 5.98874 -2.57281 0
M  V30 8535 N 830.692 1.47107 0.565454 0
M  V30 8536 C 831.602 1.61591 1.70075 0
M  V30 8537 C 832.618 0.498931 1.66693 0
M  V30 8538 O 833.794 0.765372 1.8629 0
M  V30 8539 C 830.859 1.61887 3.06583 0
M  V30 8540 C 829.92 2.84949 3.21096 0
M  V30 8541 C 829.153 2.85221 4.51093 0
M  V30 8542 O 829.376 1.94959 5.36048 0
M  V30 8543 O 828.31 3.76982 4.69221 0
M  V30 8544 H 832.136 2.57638 1.60799 0
M  V30 8545 H 829.721 1.30097 0.73451 0
M  V30 8546 H 831.603 1.64809 3.87835 0
M  V30 8547 H 830.278 0.69005 3.16259 0
M  V30 8548 H 829.185 2.87575 2.39273 0
M  V30 8549 H 830.518 3.77098 3.1632 0
M  V30 8550 N 832.17 -0.811516 1.35101 0
M  V30 8551 C 833.416 -1.57068 1.28287 0
M  V30 8552 C 833.749 -1.93667 -0.143808 0
M  V30 8553 O 833.024 -1.60953 -1.09199 0
M  V30 8554 C 833.307 -2.86259 2.18466 0
M  V30 8555 C 833.16 -2.56168 3.69727 0
M  V30 8556 C 834.479 -3.87924 2.07852 0
M  V30 8557 H 831.598 -0.569869 0.467353 0
M  V30 8558 H 834.24 -0.934023 1.65457 0
M  V30 8559 H 832.39 -3.4059 1.86898 0
M  V30 8560 H 834.062 -2.08059 4.11715 0
M  V30 8561 H 832.305 -1.89436 3.90252 0
M  V30 8562 H 832.976 -3.48344 4.28206 0
M  V30 8563 H 835.452 -3.4298 2.35593 0
M  V30 8564 H 834.328 -4.76106 2.73157 0
M  V30 8565 H 834.589 -4.2923 1.05896 0
M  V30 8566 N 833.648 -1.19017 -1.03309 0
M  V30 8567 C 834.598 -0.89194 -2.0983 0
M  V30 8568 C 835.582 0.14151 -1.60277 0
M  V30 8569 O 836.774 -0.0635946 -1.76886 0
M  V30 8570 C 833.903 -0.427793 -3.40624 0
M  V30 8571 C 832.989 -1.49374 -3.96923 0
M  V30 8572 N 833.38 -2.71213 -4.26939 0
M  V30 8573 C 831.678 -1.35605 -4.24885 0
M  V30 8574 C 832.379 -3.39849 -4.72099 0
M  V30 8575 N 831.355 -2.67239 -4.73375 0
M  V30 8576 H 835.157 -1.81801 -2.30923 0
M  V30 8577 H 832.671 -1.08171 -1.21131 0
M  V30 8578 H 834.668 -0.195608 -4.16441 0
M  V30 8579 H 833.328 0.491848 -3.20953 0
M  V30 8580 H 834.339 -3.08014 -4.16351 0
M  V30 8581 H 831.016 -0.499537 -4.14501 0
M  V30 8582 H 832.406 -4.44018 -5.04279 0
M  V30 8583 N 835.127 1.22348 -0.993418 0
M  V30 8584 C 836.543 1.43222 -0.704238 0
M  V30 8585 C 836.743 1.88009 0.724909 0
M  V30 8586 O 835.799 2.03429 1.49575 0
M  V30 8587 C 837.112 2.47328 -1.71025 0
M  V30 8588 C 838.66 2.61126 -1.72576 0
M  V30 8589 C 839.135 3.68453 -2.72041 0
M  V30 8590 N 840.626 3.75911 -2.70639 0
M  V30 8591 C 841.361 4.58551 -3.44266 0
M  V30 8592 N 840.857 5.45179 -4.27495 0
M  V30 8593 N 842.65 4.52866 -3.32969 0
M  V30 8594 H 834.801 0.915832 -1.91641 0
M  V30 8595 H 837.064 0.464283 -0.826526 0
M  V30 8596 H 836.77 2.21366 -2.73295 0
M  V30 8597 H 836.644 3.45939 -1.50353 0
M  V30 8598 H 839.031 2.86431 -0.710037 0
M  V30 8599 H 839.112 1.62787 -1.97317 0
M  V30 8600 H 838.756 3.43895 -3.73763 0
M  V30 8601 H 838.686 4.66362 -2.4457 0
M  V30 8602 H 841.177 3.14014 -2.10247 0
M  V30 8603 H 841.49 6.0526 -4.80499 0
M  V30 8604 H 839.835 5.44759 -4.31582 0
M  V30 8605 H 843.026 3.84215 -2.67389 0
M  V30 8606 H 843.199 5.17039 -3.90608 0
M  V30 8607 N 836.605 0.766683 1.37694 0
M  V30 8608 C 837.833 0.339939 2.04088 0
M  V30 8609 C 838.248 -1.03617 1.57826 0
M  V30 8610 O 837.605 -1.6605 0.757214 0
M  V30 8611 C 837.656 0.368269 3.59619 0
M  V30 8612 O 837.377 1.69009 4.04188 0
M  V30 8613 C 838.878 -0.0707053 4.43244 0
M  V30 8614 H 836.098 0.143189 0.655544 0
M  V30 8615 H 838.642 1.03919 1.76128 0
M  V30 8616 H 836.797 -0.282359 3.8637 0
M  V30 8617 H 837.211 1.62523 4.98685 0
M  V30 8618 H 838.685 0.000273538 5.52 0
M  V30 8619 H 839.162 -1.1204 4.24669 0
M  V30 8620 H 839.768 0.551543 4.21709 0
M  V30 8621 N 838.083 -1.48885 0.516809 0
M  V30 8622 C 839.329 -2.02788 -0.0220928 0
M  V30 8623 C 839.662 -1.39433 -1.35175 0
M  V30 8624 O 838.937 -0.535459 -1.86984 0
M  V30 8625 C 839.22 -3.59753 -0.158012 0
M  V30 8626 C 839.073 -4.33611 1.19588 0
M  V30 8627 C 840.392 -4.30984 -0.891133 0
M  V30 8628 H 837.511 -0.736971 -0.00655488 0
M  V30 8629 H 840.153 -1.77746 0.671287 0
M  V30 8630 H 838.303 -3.8122 -0.748568 0
M  V30 8631 H 839.975 -4.23598 1.82653 0
M  V30 8632 H 838.218 -3.95547 1.78116 0
M  V30 8633 H 838.889 -5.41846 1.05391 0
M  V30 8634 H 841.365 -4.14267 -0.39012 0
M  V30 8635 H 840.241 -5.40527 -0.955107 0
M  V30 8636 H 840.502 -3.97336 -1.93847 0
M  V30 8637 N 839.561 -0.251338 -1.55583 0
M  V30 8638 C 840.808 0.372169 -1.99051 0
M  V30 8639 C 841.136 1.57623 -1.13953 0
M  V30 8640 O 840.391 1.94762 -0.191398 0
M  V30 8641 C 840.69 0.821186 -3.47838 0
M  V30 8642 C 840.356 -0.275608 -4.50057 0
M  V30 8643 C 839.018 -0.57683 -4.7773 0
M  V30 8644 C 841.37 -1.01585 -5.11204 0
M  V30 8645 C 838.698 -1.62229 -5.63825 0
M  V30 8646 C 841.05 -2.05087 -5.98433 0
M  V30 8647 C 839.714 -2.35869 -6.24437 0
M  V30 8648 H 838.984 0.136186 -0.728378 0
M  V30 8649 H 841.631 -0.360089 -1.88084 0
M  V30 8650 H 839.936 1.63272 -3.56159 0
M  V30 8651 H 841.633 1.31396 -3.78861 0
M  V30 8652 H 838.223 -0.030697 -4.28589 0
M  V30 8653 H 842.407 -0.79639 -4.89869 0
M  V30 8654 H 837.663 -1.86607 -5.82226 0
M  V30 8655 H 841.837 -2.62934 -6.44855 0
M  V30 8656 H 839.464 -3.17017 -6.90944 0
M  V30 8657 N 841.039 1.57585 0.0217189 0
M  V30 8658 C 841.972 2.02435 1.05334 0
M  V30 8659 C 842.95 0.91006 1.34747 0
M  V30 8660 O 844.134 1.17648 1.47279 0
M  V30 8661 C 841.261 2.40362 2.38629 0
M  V30 8662 C 840.307 3.62307 2.25025 0
M  V30 8663 S 841.14 5.11141 1.59673 0
M  V30 8664 C 842.296 5.52316 2.94444 0
M  V30 8665 H 842.529 2.89621 0.671354 0
M  V30 8666 H 840.062 1.52648 0.231925 0
M  V30 8667 H 842.02 2.62883 3.15282 0
M  V30 8668 H 840.681 1.53615 2.73973 0
M  V30 8669 H 839.874 3.86523 3.23443 0
M  V30 8670 H 839.476 3.39675 1.56515 0
M  V30 8671 H 841.768 5.53449 3.90768 0
M  V30 8672 H 842.711 6.52539 2.74952 0
M  V30 8673 H 843.119 4.79834 2.97355 0
M  V30 8674 N 842.517 -0.29412 1.54831 0
M  V30 8675 C 843.933 -0.640167 1.46199 0
M  V30 8676 C 844.133 -1.90426 0.658798 0
M  V30 8677 O 843.189 -2.51932 0.169228 0
M  V30 8678 C 844.502 -0.786763 2.90225 0
M  V30 8679 C 846.05 -0.882201 3.0031 0
M  V30 8680 C 846.525 -1.06074 4.45547 0
M  V30 8681 N 848.016 -1.12678 4.49286 0
M  V30 8682 C 848.751 -1.28334 5.58854 0
M  V30 8683 N 848.247 -1.40845 6.78332 0
M  V30 8684 N 850.04 -1.31277 5.46555 0
M  V30 8685 H 842.191 0.536334 2.05517 0
M  V30 8686 H 844.454 0.178363 0.93107 0
M  V30 8687 H 844.16 0.0713018 3.51628 0
M  V30 8688 H 844.034 -1.67364 3.38037 0
M  V30 8689 H 846.421 -1.73075 2.39017 0
M  V30 8690 H 846.502 0.0288405 2.55784 0
M  V30 8691 H 846.146 -0.216935 5.07437 0
M  V30 8692 H 846.076 -1.98611 4.8771 0
M  V30 8693 H 848.567 -1.04335 3.63212 0
M  V30 8694 H 848.88 -1.52566 7.57591 0
M  V30 8695 H 847.225 -1.37888 6.81184 0
M  V30 8696 H 850.416 -1.2112 4.52159 0
M  V30 8697 H 850.589 -1.43136 6.31994 0
M  V30 8698 N 843.995 -1.47404 -0.557645 0
M  V30 8699 C 844.925 -1.62736 -1.67449 0
M  V30 8700 C 845.906 -0.476824 -1.6328 0
M  V30 8701 O 847.091 -0.706108 -1.80908 0
M  V30 8702 C 844.221 -1.641 -3.06086 0
M  V30 8703 C 843.175 -2.78377 -3.25101 0
M  V30 8704 C 842.501 -2.64812 -4.6452 0
M  V30 8705 C 843.801 -4.19971 -3.10518 0
M  V30 8706 H 845.495 -2.56232 -1.54873 0
M  V30 8707 H 843.041 -1.23312 -0.743649 0
M  V30 8708 H 844.994 -1.73417 -3.84063 0
M  V30 8709 H 843.718 -0.671652 -3.19619 0
M  V30 8710 H 842.377 -2.6857 -2.49531 0
M  V30 8711 H 842.025 -1.65906 -4.74852 0
M  V30 8712 H 841.725 -3.41477 -4.78191 0
M  V30 8713 H 843.249 -2.76057 -5.44633 0
M  V30 8714 H 844.663 -4.30757 -3.78313 0
M  V30 8715 H 843.06 -4.97419 -3.35699 0
M  V30 8716 H 844.13 -4.38369 -2.0727 0
M  V30 8717 N 845.473 0.80434 -1.35529 0
M  V30 8718 C 846.421 1.93769 -1.28671 0
M  V30 8719 C 847.415 1.68428 -0.181222 0
M  V30 8720 O 848.621 1.76617 -0.347338 0
M  V30 8721 H 844.996 0.636663 -0.400206 0
M  V30 8722 H 846.967 1.96673 -2.24415 0
M  V30 8723 C 845.716 3.30572 -1.07784 0
M  V30 8724 H 845.039 3.5063 -1.9209 0
M  V30 8725 H 846.479 4.1027 -1.07027 0
M  V30 8726 C 844.938 3.36193 0.218213 0
M  V30 8727 O 845.468 3.82941 1.21323 0
M  V30 8728 N 843.674 2.89455 0.257761 0
M  V30 8729 H 843.221 2.51604 -0.552562 0
M  V30 8730 H 843.179 2.93597 1.12465 0
M  V30 8731 N 846.951 1.19563 1.02676 0
M  V30 8732 C 848.2 0.993864 1.75514 0
M  V30 8733 C 848.513 -0.475882 1.89723 0
M  V30 8734 O 849.719 -0.796525 2.59553 0
M  V30 8735 C 848.175 1.72937 3.15628 0
M  V30 8736 C 847.783 3.23937 3.09466 0
M  V30 8737 C 849.527 1.61092 3.92746 0
M  V30 8738 C 847.434 3.90067 4.44524 0
M  V30 8739 H 846.364 0.368244 0.657961 0
M  V30 8740 H 849.015 1.43081 1.14891 0
M  V30 8741 H 847.397 1.22025 3.76731 0
M  V30 8742 H 848.571 3.81983 2.57731 0
M  V30 8743 H 846.886 3.3608 2.45843 0
M  V30 8744 H 849.483 2.07848 4.92649 0
M  V30 8745 H 849.826 0.565415 4.12442 0
M  V30 8746 H 850.359 2.09361 3.3825 0
M  V30 8747 H 847.098 4.94725 4.30032 0
M  V30 8748 H 846.618 3.36809 4.96306 0
M  V30 8749 H 848.297 3.93736 5.13401 0
M  V30 8750 N 848.429 -1.21819 0.999893 0
M  V30 8751 C 849.678 -1.90066 0.675108 0
M  V30 8752 C 849.991 -1.78624 -0.79705 0
M  V30 8753 O 851.197 -2.41851 -1.23371 0
M  V30 8754 C 849.653 -3.40795 1.15702 0
M  V30 8755 C 849.261 -3.60859 2.6549 0
M  V30 8756 C 851.005 -4.147 0.906889 0
M  V30 8757 C 848.912 -5.05324 3.07248 0
M  V30 8758 H 847.842 -0.711763 0.248815 0
M  V30 8759 H 850.493 -1.3792 1.21038 0
M  V30 8760 H 848.875 -3.92164 0.549832 0
M  V30 8761 H 850.049 -3.19951 3.31614 0
M  V30 8762 H 848.364 -3.00298 2.88461 0
M  V30 8763 H 850.961 -5.21187 1.1945 0
M  V30 8764 H 851.304 -4.16004 -0.156923 0
M  V30 8765 H 851.837 -3.69379 1.47662 0
M  V30 8766 H 848.576 -5.09164 4.12834 0
M  V30 8767 H 848.096 -5.47108 2.45832 0
M  V30 8768 H 849.775 -5.73797 2.98941 0
M  V30 8769 N 849.908 -0.773975 -1.37286 0
M  V30 8770 C 851.133 -0.349561 -2.04433 0
M  V30 8771 C 851.558 1.02082 -1.5799 0
M  V30 8772 O 850.916 1.65458 -0.741172 0
M  V30 8773 C 850.964 -0.404292 -3.58326 0
M  V30 8774 O 850.068 0.594447 -4.08093 0
M  V30 8775 H 849.409 -0.150959 -0.646612 0
M  V30 8776 H 851.939 -1.05079 -1.75555 0
M  V30 8777 H 851.949 -0.262378 -4.07155 0
M  V30 8778 H 850.624 -1.40403 -3.91484 0
M  V30 8779 H 849.201 0.415468 -3.70578 0
M  V30 8780 N 851.386 1.48609 -0.524698 0
M  V30 8781 C 852.797 1.86516 -0.0828846 0
M  V30 8782 C 853.148 1.43478 1.33822 0
M  V30 8783 O 852.273 0.823139 2.00133 0
M  V30 8784 C 852.868 3.38495 -0.143639 0
M  V30 8785 C 851.427 3.75615 0.242951 0
M  V30 8786 C 850.574 2.72649 -0.505747 0
M  V30 8787 H 853.525 1.40589 -0.736233 0
M  V30 8788 H 853.546 3.74977 0.645955 0
M  V30 8789 H 853.058 3.69789 -1.17805 0
M  V30 8790 H 851.159 3.49935 1.27971 0
M  V30 8791 H 851.272 4.7901 -0.0929834 0
M  V30 8792 H 849.636 2.54656 0.0473482 0
M  V30 8793 H 850.419 3.06786 -1.54069 0
M  V30 8794 N 852.864 0.259585 1.55447 0
M  V30 8795 C 854.141 -0.412595 1.91199 0
M  V30 8796 C 854.521 -1.74909 1.18194 0
M  V30 8797 O 853.869 -2.26474 0.303603 0
M  V30 8798 C 854.079 -0.568195 3.44344 0
M  V30 8799 C 855.427 -0.858253 4.15836 0
M  V30 8800 O 856.451 -0.653588 3.50152 0
M  V30 8801 O 855.31 -1.24874 5.32042 0
M  V30 8802 H 852.404 -0.223403 0.796254 0
M  V30 8803 H 854.95 0.30459 1.66944 0
M  V30 8804 H 853.722 0.372989 3.89518 0
M  V30 8805 H 853.345 -1.33544 3.74502 0
M  V30 8806 N 854.342 -1.57594 -0.0133615 0
M  V30 8807 C 855.272 -2.10611 -1.00823 0
M  V30 8808 C 856.253 -1.01217 -1.36708 0
M  V30 8809 O 857.438 -1.28827 -1.45318 0
M  V30 8810 C 854.568 -2.59844 -2.30431 0
M  V30 8811 C 853.522 -3.73644 -2.08745 0
M  V30 8812 C 852.848 -4.09141 -3.4425 0
M  V30 8813 C 854.148 -5.01454 -1.46086 0
M  V30 8814 H 855.842 -2.93985 -0.566849 0
M  V30 8815 H 853.388 -1.41423 -0.271219 0
M  V30 8816 H 855.341 -2.95557 -3.00373 0
M  V30 8817 H 854.065 -1.73573 -2.76658 0
M  V30 8818 H 852.724 -3.38303 -1.41232 0
M  V30 8819 H 852.372 -3.19914 -3.88155 0
M  V30 8820 H 852.072 -4.85802 -3.3056 0
M  V30 8821 H 853.596 -4.47402 -4.15528 0
M  V30 8822 H 855.01 -5.35024 -2.05966 0
M  V30 8823 H 853.407 -5.82832 -1.42924 0
M  V30 8824 H 854.477 -4.83003 -0.428471 0
M  V30 8825 N 855.82 0.285905 -1.54985 0
M  V30 8826 C 857.045 1.04207 -1.7932 0
M  V30 8827 C 857.47 1.79622 -0.558343 0
M  V30 8828 O 856.828 1.74506 0.491661 0
M  V30 8829 C 856.876 1.98648 -3.0095 0
M  V30 8830 O 855.98 3.07207 -2.75132 0
M  V30 8831 H 855.321 0.298596 -0.593074 0
M  V30 8832 H 857.851 0.318736 -2.02102 0
M  V30 8833 H 857.861 2.4084 -3.29333 0
M  V30 8834 H 856.536 1.43167 -3.90482 0
M  V30 8835 H 855.113 2.69423 -2.57809 0
M  V30 8836 N 857.298 1.47698 0.54982 0
M  V30 8837 C 858.546 1.54397 1.30407 0
M  V30 8838 C 858.867 0.211026 1.93855 0
M  V30 8839 O 858.137 -0.765701 1.80316 0
M  V30 8840 H 856.717 0.568747 0.484289 0
M  V30 8841 H 859.379 1.84042 0.641444 0
M  V30 8842 H 858.475 2.31449 2.09375 0
M  V30 8843 N 858.776 -0.797141 1.35954 0
M  V30 8844 C 860.016 -1.56795 1.31128 0
M  V30 8845 C 860.38 -1.91683 -0.110364 0
M  V30 8846 O 861.581 -2.67305 -0.283093 0
M  V30 8847 C 859.852 -2.81577 2.20111 0
M  V30 8848 S 861.411 -3.71895 2.32894 0
M  V30 8849 H 858.229 -0.53711 0.465869 0
M  V30 8850 H 860.831 -0.939522 1.71445 0
M  V30 8851 H 859.535 -2.53986 3.22365 0
M  V30 8852 H 859.066 -3.49399 1.80786 0
M  V30 8853 H 861.081 -4.72322 1.52073 0
M  V30 8854 N 860.254 -1.20106 -1.0204 0
M  V30 8855 C 861.482 -1.0344 -1.79186 0
M  V30 8856 C 861.897 0.416542 -1.84148 0
M  V30 8857 O 861.254 1.28925 -1.29168 0
M  V30 8858 C 861.305 -1.60663 -3.23836 0
M  V30 8859 O 861.026 -3.00079 -3.19193 0
M  V30 8860 C 862.527 -1.48897 -4.17546 0
M  V30 8861 H 859.747 -0.364093 -0.563629 0
M  V30 8862 H 862.291 -1.5911 -1.28469 0
M  V30 8863 H 860.446 -1.09122 -3.71714 0
M  V30 8864 H 860.86 -3.27162 -4.09958 0
M  V30 8865 H 862.334 -1.93703 -5.16898 0
M  V30 8866 H 862.811 -0.440843 -4.36982 0
M  V30 8867 H 863.417 -1.9961 -3.75547 0
M  V30 8868 N 861.732 1.21287 -1.00634 0
M  V30 8869 C 862.957 1.94925 -0.708441 0
M  V30 8870 C 863.382 1.73659 0.722783 0
M  V30 8871 O 862.74 1.02429 1.49593 0
M  V30 8872 C 862.788 3.45377 -1.03667 0
M  V30 8873 O 861.892 4.12153 -0.142661 0
M  V30 8874 H 861.233 0.609338 -0.263824 0
M  V30 8875 H 863.763 1.54008 -1.34695 0
M  V30 8876 H 863.773 3.95954 -0.984086 0
M  V30 8877 H 862.448 3.6018 -2.0795 0
M  V30 8878 H 861.025 3.72048 -0.251888 0
M  V30 8879 N 863.21 0.781244 1.36873 0
M  V30 8880 C 864.157 0.172146 2.30157 0
M  V30 8881 C 865.127 -0.679328 1.51573 0
M  V30 8882 O 866.312 -0.629713 1.80109 0
M  V30 8883 C 863.452 -0.693534 3.38059 0
M  V30 8884 C 862.565 0.175586 4.31643 0
M  V30 8885 C 861.7 -0.695695 5.26625 0
M  V30 8886 C 860.739 0.17538 6.11849 0
M  V30 8887 N 859.876 -0.654416 6.99043 0
M  V30 8888 H 864.716 0.973133 2.81663 0
M  V30 8889 H 862.253 0.491469 1.38647 0
M  V30 8890 H 864.211 -1.21035 3.99257 0
M  V30 8891 H 862.841 -1.46003 2.87894 0
M  V30 8892 H 861.893 0.810295 3.7167 0
M  V30 8893 H 863.205 0.847107 4.91554 0
M  V30 8894 H 862.359 -1.27863 5.93073 0
M  V30 8895 H 861.098 -1.40087 4.67148 0
M  V30 8896 H 860.103 0.77078 5.4437 0
M  V30 8897 H 861.328 0.87803 6.734 0
M  V30 8898 H 859.274 -1.34403 6.42084 0
M  V30 8899 H 859.191 -0.0403998 7.55989 0
M  V30 8900 H 860.459 -1.22144 7.69871 0
M  V30 8901 N 864.689 -1.48329 0.532571 0
M  V30 8902 C 865.937 -2.021 -0.000581206 0
M  V30 8903 C 866.258 -1.4117 -1.34522 0
M  V30 8904 O 865.528 -0.578005 -1.87179 0
M  V30 8905 H 864.108 -0.746993 -0.00320281 0
M  V30 8906 H 866.77 -1.82011 0.696991 0
M  V30 8907 H 865.866 -3.11917 -0.106991 0
M  V30 8908 N 866.167 -0.267825 -1.55308 0
M  V30 8909 C 867.097 0.616585 -2.25212 0
M  V30 8910 C 868.078 1.16472 -1.23969 0
M  V30 8911 O 869.263 1.20021 -1.52672 0
M  V30 8912 C 866.393 1.80412 -2.96764 0
M  V30 8913 C 865.347 1.38784 -4.04874 0
M  V30 8914 C 864.673 2.65789 -4.63961 0
M  V30 8915 C 865.973 0.543415 -5.19465 0
M  V30 8916 H 867.667 0.0336257 -2.99381 0
M  V30 8917 H 865.213 0.0147328 -1.43992 0
M  V30 8918 H 867.166 2.42866 -3.44375 0
M  V30 8919 H 865.89 2.4128 -2.20118 0
M  V30 8920 H 864.549 0.786541 -3.58063 0
M  V30 8921 H 864.197 3.24899 -3.83992 0
M  V30 8922 H 863.897 2.38651 -5.36954 0
M  V30 8923 H 865.421 3.29104 -5.14318 0
M  V30 8924 H 866.835 1.07277 -5.63174 0
M  V30 8925 H 865.232 0.367219 -5.98975 0
M  V30 8926 H 866.302 -0.439534 -4.82904 0
M  V30 8927 N 867.645 1.57599 0.00500368 0
M  V30 8928 C 868.891 1.90631 0.691919 0
M  V30 8929 C 869.224 0.868443 1.737 0
M  V30 8930 O 868.499 -0.113482 1.94169 0
M  V30 8931 C 868.782 3.34255 1.33961 0
M  V30 8932 C 868.635 4.48755 0.306413 0
M  V30 8933 C 869.954 3.77211 2.26715 0
M  V30 8934 H 867.073 0.693279 0.250066 0
M  V30 8935 H 869.715 1.89946 -0.0452634 0
M  V30 8936 H 867.865 3.3497 1.96793 0
M  V30 8937 H 869.537 4.60176 -0.321841 0
M  V30 8938 H 867.78 4.32203 -0.371852 0
M  V30 8939 H 868.451 5.46193 0.798554 0
M  V30 8940 H 870.927 3.78017 1.73904 0
M  V30 8941 H 869.803 4.78466 2.69002 0
M  V30 8942 H 870.064 3.10801 3.14413 0
M  V30 8943 N 869.123 -0.277682 1.55134 0
M  V30 8944 C 870.053 -1.34742 1.90701 0
M  V30 8945 C 871.034 -1.51757 0.768354 0
M  V30 8946 O 872.219 -1.64879 1.02609 0
M  V30 8947 C 869.349 -2.70775 2.17481 0
M  V30 8948 C 868.303 -2.68497 3.33307 0
M  V30 8949 C 867.629 -4.08037 3.45557 0
M  V30 8950 C 868.929 -2.28178 4.69821 0
M  V30 8951 H 870.623 -1.05224 2.803 0
M  V30 8952 H 868.169 -0.504738 1.34864 0
M  V30 8953 H 870.122 -3.45719 2.40949 0
M  V30 8954 H 868.846 -3.01867 1.24676 0
M  V30 8955 H 867.505 -1.9601 3.09799 0
M  V30 8956 H 867.153 -4.36344 2.50226 0
M  V30 8957 H 866.853 -4.07409 4.23429 0
M  V30 8958 H 868.377 -4.84726 3.71312 0
M  V30 8959 H 869.791 -2.92843 4.92865 0
M  V30 8960 H 868.188 -2.3872 5.50575 0
M  V30 8961 H 869.258 -1.23308 4.6896 0
M  V30 8962 N 870.601 -1.47988 -0.541979 0
M  V30 8963 C 872.012 -1.49073 -1.12402 0
M  V30 8964 C 872.363 -0.253825 -1.94551 0
M  V30 8965 O 871.488 0.640056 -2.06718 0
M  V30 8966 C 872.083 -2.7011 -2.04514 0
M  V30 8967 C 870.642 -2.74105 -2.5796 0
M  V30 8968 C 869.789 -2.42409 -1.3466 0
M  V30 8969 H 872.74 -1.55277 -0.327818 0
M  V30 8970 H 872.761 -2.47946 -2.88623 0
M  V30 8971 H 872.273 -3.60117 -1.44697 0
M  V30 8972 H 870.374 -1.88276 -3.21532 0
M  V30 8973 H 870.487 -3.75213 -2.97913 0
M  V30 8974 H 868.851 -1.9331 -1.65841 0
M  V30 8975 H 869.634 -3.34642 -0.766133 0
M  V30 8976 N 872.079 0.78992 -1.36375 0
M  V30 8977 C 873.042 1.88414 -1.30509 0
M  V30 8978 C 874.042 1.59384 -0.2129 0
M  V30 8979 O 875.232 1.67805 -0.467651 0
M  V30 8980 C 872.364 3.25188 -1.02302 0
M  V30 8981 H 873.557 1.95031 -2.27822 0
M  V30 8982 H 871.11 0.987664 -1.2114 0
M  V30 8983 H 871.845 3.24254 -0.0544486 0
M  V30 8984 H 871.63 3.47647 -1.81338 0
M  V30 8985 H 873.12 4.05252 -1.00801 0
M  V30 8986 N 873.557 1.20646 1.01402 0
M  V30 8987 C 874.803 1.0197 1.753 0
M  V30 8988 C 875.136 -0.446803 1.8899 0
M  V30 8989 O 874.411 -1.33169 1.41762 0
M  V30 8990 C 874.694 1.70693 3.17074 0
M  V30 8991 C 874.547 3.24805 3.11162 0
M  V30 8992 C 875.866 1.44212 4.15802 0
M  V30 8993 H 872.985 0.371844 0.636318 0
M  V30 8994 H 875.627 1.48696 1.18277 0
M  V30 8995 H 873.777 1.30968 3.65759 0
M  V30 8996 H 875.449 3.73841 2.70261 0
M  V30 8997 H 873.692 3.55576 2.48492 0
M  V30 8998 H 874.363 3.68049 4.11393 0
M  V30 8999 H 876.839 1.7868 3.75783 0
M  V30 9000 H 875.715 1.94825 5.13161 0
M  V30 9001 H 875.976 0.370252 4.40547 0
M  V30 9002 N 875.035 -1.20752 1.01276 0
M  V30 9003 C 875.965 -2.25658 0.600064 0
M  V30 9004 C 876.946 -1.65733 -0.38298 0
M  V30 9005 O 878.131 -1.92324 -0.269256 0
M  V30 9006 C 875.261 -3.47237 -0.0663197 0
M  V30 9007 C 874.215 -4.1973 0.83731 0
M  V30 9008 C 873.541 -5.34687 0.0369102 0
M  V30 9009 C 874.841 -4.76286 2.14357 0
M  V30 9010 H 876.535 -2.60432 1.477 0
M  V30 9011 H 874.081 -1.25187 0.711634 0
M  V30 9012 H 876.034 -4.19803 -0.366563 0
M  V30 9013 H 874.758 -3.11615 -0.977944 0
M  V30 9014 H 873.417 -3.49024 1.1215 0
M  V30 9015 H 873.065 -4.95309 -0.876244 0
M  V30 9016 H 872.765 -5.84119 0.63865 0
M  V30 9017 H 874.289 -6.10059 -0.256968 0
M  V30 9018 H 875.703 -5.40691 1.90595 0
M  V30 9019 H 874.1 -5.36139 2.69583 0
M  V30 9020 H 875.17 -3.9524 2.80916 0
M  V30 9021 N 876.513 -0.788492 -1.36457 0
M  V30 9022 C 877.761 -0.359749 -1.98872 0
M  V30 9023 C 878.082 1.07197 -1.62892 0
M  V30 9024 O 877.352 1.73875 -0.902463 0
M  V30 9025 H 875.932 -0.130029 -0.735596 0
M  V30 9026 H 878.594 -1.01033 -1.66668 0
M  V30 9027 H 877.69 -0.450835 -3.08827 0
M  V30 9028 N 877.991 1.48044 -0.54043 0
M  V30 9029 C 879.24 2.01698 -0.00809961 0
M  V30 9030 C 879.553 1.42184 1.34325 0
M  V30 9031 O 880.759 1.87398 1.96454 0
M  V30 9032 C 879.215 3.59882 0.035933 0
M  V30 9033 C 878.823 4.28384 -1.31115 0
M  V30 9034 C 880.567 4.21346 0.51654 0
M  V30 9035 C 878.474 5.78529 -1.22714 0
M  V30 9036 H 877.404 0.754 0.000742174 0
M  V30 9037 H 880.055 1.70204 -0.685775 0
M  V30 9038 H 878.437 3.88264 0.778906 0
M  V30 9039 H 879.611 4.11663 -2.07051 0
M  V30 9040 H 877.926 3.78837 -1.72834 0
M  V30 9041 H 880.523 5.31351 0.597529 0
M  V30 9042 H 880.866 3.87373 1.52473 0
M  V30 9043 H 881.399 3.97432 -0.171064 0
M  V30 9044 H 878.138 6.17093 -2.21081 0
M  V30 9045 H 877.658 5.97634 -0.50931 0
M  V30 9046 H 879.337 6.40395 -0.92216 0
M  V30 9047 N 879.47 0.276058 1.55163 0
M  V30 9048 C 880.698 -0.343772 2.04024 0
M  V30 9049 C 881.113 -1.49397 1.15438 0
M  V30 9050 O 880.47 -1.81662 0.174692 0
M  V30 9051 C 880.521 -0.823885 3.51986 0
M  V30 9052 O 880.242 0.280507 4.37201 0
M  V30 9053 C 881.743 -1.51143 4.16738 0
M  V30 9054 H 878.963 -0.07828 0.666418 0
M  V30 9055 H 881.507 0.408427 2.0038 0
M  V30 9056 H 879.662 -1.52617 3.56071 0
M  V30 9057 H 880.076 -0.0887831 5.24425 0
M  V30 9058 H 881.55 -1.79878 5.2187 0
M  V30 9059 H 882.027 -2.44327 3.64967 0
M  V30 9060 H 882.633 -0.852975 4.16659 0
M  V30 9061 N 880.948 -1.576 0.00335426 0
M  V30 9062 C 882.195 -1.90713 -0.680791 0
M  V30 9063 C 882.523 -0.877263 -1.73592 0
M  V30 9064 O 881.778 0.117497 -1.95347 0
M  V30 9065 C 882.077 -3.3058 -1.35837 0
M  V30 9066 C 881.743 -4.48786 -0.436111 0
M  V30 9067 C 880.405 -4.80855 -0.182195 0
M  V30 9068 C 882.757 -5.20821 0.198677 0
M  V30 9069 C 880.085 -5.8233 0.714747 0
M  V30 9070 C 882.437 -6.23252 1.08351 0
M  V30 9071 C 881.101 -6.53776 1.34658 0
M  V30 9072 H 880.371 -0.697869 -0.249119 0
M  V30 9073 H 883.018 -1.91407 0.0596011 0
M  V30 9074 H 881.323 -3.26026 -2.17289 0
M  V30 9075 H 883.02 -3.53462 -1.89383 0
M  V30 9076 H 879.61 -4.23731 -0.644186 0
M  V30 9077 H 883.794 -4.96298 0.0155259 0
M  V30 9078 H 879.05 -6.04339 0.926529 0
M  V30 9079 H 883.224 -6.78199 1.58172 0
M  V30 9080 H 880.851 -7.32225 2.04328 0
M  V30 9081 N 882.426 0.269451 -1.5528 0
M  V30 9082 C 883.674 0.998604 -1.75705 0
M  V30 9083 C 883.995 1.86691 -0.563175 0
M  V30 9084 O 883.265 1.91305 0.421811 0
M  V30 9085 H 881.845 0.371698 -0.647958 0
M  V30 9086 H 884.507 0.292826 -1.92688 0
M  V30 9087 H 883.603 1.63348 -2.6594 0
M  V30 9088 N 883.904 1.48273 0.534124 0
M  V30 9089 C 884.867 1.6201 1.62127 0
M  V30 9090 C 885.867 0.493653 1.53035 0
M  V30 9091 O 887.057 0.759337 1.56779 0
M  V30 9092 C 884.189 1.5864 3.01739 0
M  V30 9093 H 885.382 2.58944 1.51288 0
M  V30 9094 H 882.935 1.36808 0.755861 0
M  V30 9095 H 883.67 0.631685 3.18088 0
M  V30 9096 H 883.455 2.40415 3.09747 0
M  V30 9097 H 884.945 1.71438 3.80787 0
M  V30 9098 N 885.382 -0.782676 1.36792 0
M  V30 9099 C 886.629 -1.54083 1.31395 0
M  V30 9100 C 886.957 -1.94217 -0.104797 0
M  V30 9101 O 886.212 -1.63491 -1.0756 0
M  V30 9102 C 886.511 -2.82542 2.18872 0
M  V30 9103 C 886.177 -2.61512 3.67317 0
M  V30 9104 C 884.839 -2.55486 4.07775 0
M  V30 9105 C 887.191 -2.42389 4.61407 0
M  V30 9106 C 884.519 -2.28311 5.40454 0
M  V30 9107 C 886.871 -2.1674 5.94312 0
M  V30 9108 C 885.535 -2.09151 6.33887 0
M  V30 9109 H 884.805 -0.563829 0.48081 0
M  V30 9110 H 887.452 -0.902436 1.68903 0
M  V30 9111 H 885.757 -3.50883 1.74323 0
M  V30 9112 H 887.454 -3.40367 2.12017 0
M  V30 9113 H 884.044 -2.67062 3.35225 0
M  V30 9114 H 888.228 -2.46043 4.31018 0
M  V30 9115 H 883.484 -2.20922 5.70091 0
M  V30 9116 H 887.658 -2.0094 6.6678 0
M  V30 9117 H 885.285 -1.87857 7.36623 0
M  V30 9118 N 886.86 -1.21182 -1.00761 0
M  V30 9119 C 887.79 -0.992773 -2.11344 0
M  V30 9120 C 888.771 0.0813618 -1.69905 0
M  V30 9121 O 889.956 -0.0779503 -1.94043 0
M  V30 9122 C 887.086 -0.553826 -3.42856 0
M  V30 9123 C 886.04 -1.57223 -3.98077 0
M  V30 9124 C 885.366 -0.989605 -5.25463 0
M  V30 9125 C 886.666 -2.95839 -4.30438 0
M  V30 9126 H 888.36 -1.91766 -2.29927 0
M  V30 9127 H 885.906 -0.923426 -1.10494 0
M  V30 9128 H 887.859 -0.387771 -4.19612 0
M  V30 9129 H 886.583 0.406702 -3.24058 0
M  V30 9130 H 885.242 -1.7258 -3.23437 0
M  V30 9131 H 884.89 -0.0208743 -5.02996 0
M  V30 9132 H 884.59 -1.66984 -5.63374 0
M  V30 9133 H 886.114 -0.834815 -6.04866 0
M  V30 9134 H 887.528 -2.8394 -4.98047 0
M  V30 9135 H 885.925 -3.60851 -4.79486 0
M  V30 9136 H 886.995 -3.46882 -3.38823 0
M  V30 9137 N 888.338 1.20213 -1.01915 0
M  V30 9138 C 889.587 1.88968 -0.705261 0
M  V30 9139 C 889.9 1.79869 0.768531 0
M  V30 9140 O 891.106 2.43783 1.19508 0
M  V30 9141 C 889.562 3.38911 -1.21109 0
M  V30 9142 C 889.17 3.5659 -2.71197 0
M  V30 9143 C 890.914 4.13204 -0.97275 0
M  V30 9144 C 888.821 5.00372 -3.15248 0
M  V30 9145 H 887.751 0.707715 -0.260107 0
M  V30 9146 H 890.402 1.35977 -1.23217 0
M  V30 9147 H 888.784 3.9124 -0.612152 0
M  V30 9148 H 889.958 3.14635 -3.36662 0
M  V30 9149 H 888.273 2.95671 -2.93202 0
M  V30 9150 H 890.87 5.19221 -1.27726 0
M  V30 9151 H 891.213 4.16201 0.09072 0
M  V30 9152 H 891.746 3.66983 -1.5352 0
M  V30 9153 H 888.485 5.02532 -4.20882 0
M  V30 9154 H 888.005 5.43127 -2.54505 0
M  V30 9155 H 889.684 5.68969 -3.08032 0
M  V30 9156 N 889.816 0.795718 1.36037 0
M  V30 9157 C 891.064 0.370291 1.98679 0
M  V30 9158 C 891.385 -1.06332 1.63458 0
M  V30 9159 O 890.655 -1.73394 0.911671 0
M  V30 9160 H 889.235 0.133928 0.734896 0
M  V30 9161 H 891.897 1.01915 1.6613 0
M  V30 9162 H 890.993 0.467207 3.08583 0
M  V30 9163 N 891.294 -1.47756 0.548274 0
M  V30 9164 C 892.257 -2.28379 -0.193857 0
M  V30 9165 C 893.257 -1.36436 -0.850986 0
M  V30 9166 O 894.447 -1.59154 -0.70822 0
M  V30 9167 C 891.579 -3.15858 -1.28243 0
M  V30 9168 H 892.772 -2.95458 0.514231 0
M  V30 9169 H 890.325 -1.53298 0.304879 0
M  V30 9170 H 891.06 -2.5345 -2.0232 0
M  V30 9171 H 890.845 -3.83512 -0.816148 0
M  V30 9172 H 892.335 -3.76627 -1.80393 0
M  V30 9173 N 892.772 -0.284283 -1.55015 0
M  V30 9174 C 893.702 0.592663 -2.25853 0
M  V30 9175 C 894.683 1.15151 -1.25197 0
M  V30 9176 O 895.868 1.18395 -1.53936 0
M  V30 9177 C 892.998 1.77254 -2.98661 0
M  V30 9178 C 891.952 1.34482 -4.06323 0
M  V30 9179 C 891.278 2.60853 -4.66754 0
M  V30 9180 C 892.578 0.488288 -5.20013 0
M  V30 9181 H 894.272 0.00187041 -2.994 0
M  V30 9182 H 891.818 -0.000540402 -1.44 0
M  V30 9183 H 893.771 2.39199 -3.46932 0
M  V30 9184 H 892.495 2.38931 -2.22664 0
M  V30 9185 H 891.154 0.748519 -3.58877 0
M  V30 9186 H 890.802 3.20808 -3.87416 0
M  V30 9187 H 890.502 2.32942 -5.39455 0
M  V30 9188 H 892.026 3.23631 -5.1778 0
M  V30 9189 H 893.44 1.01298 -5.6428 0
M  V30 9190 H 891.837 0.303669 -5.99331 0
M  V30 9191 H 892.907 -0.490727 -4.8241 0
M  V30 9192 N 894.251 1.57596 -0.0117121 0
M  V30 9193 C 895.181 2.12188 0.9746 0
M  V30 9194 C 896.162 1.03379 1.35081 0
M  V30 9195 O 897.347 1.31123 1.4325 0
M  V30 9196 C 894.477 2.63477 2.26268 0
M  V30 9197 C 893.431 3.76917 2.02774 0
M  V30 9198 C 892.757 4.14566 3.37697 0
M  V30 9199 C 894.057 5.03715 1.38089 0
M  V30 9200 H 895.751 2.9485 0.520007 0
M  V30 9201 H 893.297 1.41836 0.248685 0
M  V30 9202 H 895.25 3.00299 2.95633 0
M  V30 9203 H 893.974 1.77953 2.73862 0
M  V30 9204 H 892.633 3.40507 1.35832 0
M  V30 9205 H 892.281 3.26048 3.83016 0
M  V30 9206 H 891.981 4.91 3.22789 0
M  V30 9207 H 893.505 4.53956 4.08358 0
M  V30 9208 H 894.919 5.38233 1.97428 0
M  V30 9209 H 893.316 5.85032 1.33634 0
M  V30 9210 H 894.386 4.83624 0.351575 0
M  V30 9211 N 895.729 -0.261212 1.5542 0
M  V30 9212 C 896.957 -1.00916 1.8062 0
M  V30 9213 C 897.372 -1.79494 0.585444 0
M  V30 9214 O 896.729 -1.76974 -0.445702 0
M  V30 9215 C 896.78 -1.95841 3.03856 0
M  V30 9216 O 896.501 -1.20445 4.21218 0
M  V30 9217 C 898.002 -2.82352 3.41749 0
M  V30 9218 H 895.222 -0.297596 0.601397 0
M  V30 9219 H 897.766 -0.288427 2.02456 0
M  V30 9220 H 895.921 -2.63361 2.84112 0
M  V30 9221 H 896.335 -1.84528 4.90968 0
M  V30 9222 H 897.809 -3.44733 4.31118 0
M  V30 9223 H 898.286 -3.5273 2.61683 0
M  V30 9224 H 898.892 -2.20306 3.63793 0
M  V30 9225 N 897.207 -1.48554 -0.526253 0
M  V30 9226 C 898.17 -1.62868 -1.61266 0
M  V30 9227 C 899.17 -0.501762 -1.52771 0
M  V30 9228 O 900.36 -0.76764 -1.56374 0
M  V30 9229 C 897.492 -1.60238 -3.00893 0
M  V30 9230 H 898.685 -2.59742 -1.49913 0
M  V30 9231 H 896.238 -1.37207 -0.748595 0
M  V30 9232 H 896.973 -0.648545 -3.17749 0
M  V30 9233 H 896.758 -2.42054 -3.08468 0
M  V30 9234 H 898.248 -1.73455 -3.79872 0
M  V30 9235 N 898.685 0.775411 -1.37205 0
M  V30 9236 C 899.648 1.8702 -1.325 0
M  V30 9237 C 900.648 1.5915 -0.229793 0
M  V30 9238 O 901.838 1.673 -0.485423 0
M  V30 9239 C 898.97 3.24085 -1.05745 0
M  V30 9240 H 900.163 1.92604 -2.29878 0
M  V30 9241 H 897.716 0.97476 -1.22181 0
M  V30 9242 H 898.451 3.24178 -0.0888371 0
M  V30 9243 H 898.236 3.45705 -1.85016 0
M  V30 9244 H 899.726 4.0416 -1.05094 0
M  V30 9245 N 900.163 1.21714 1.00117 0
M  V30 9246 C 901.093 1.00397 2.10815 0
M  V30 9247 C 902.074 -0.0723502 1.69946 0
M  V30 9248 O 903.259 0.0882398 1.93999 0
M  V30 9249 C 900.389 0.572001 3.42557 0
M  V30 9250 C 899.343 1.59331 3.97237 0
M  V30 9251 C 898.669 1.01746 5.2493 0
M  V30 9252 C 899.969 2.98117 4.28863 0
M  V30 9253 H 901.663 1.92983 2.28906 0
M  V30 9254 H 899.209 0.929273 1.10002 0
M  V30 9255 H 901.162 0.410018 4.19401 0
M  V30 9256 H 899.886 -0.38951 3.24269 0
M  V30 9257 H 898.545 1.74293 3.22518 0
M  V30 9258 H 898.193 0.0475491 5.02978 0
M  V30 9259 H 897.893 1.69969 5.62481 0
M  V30 9260 H 899.417 0.866881 6.04415 0
M  V30 9261 H 900.831 2.86578 4.96534 0
M  V30 9262 H 899.228 3.63389 4.77565 0
M  V30 9263 H 900.298 3.48674 3.36979 0
M  V30 9264 N 901.641 -1.19671 1.02551 0
M  V30 9265 C 902.887 -1.89818 0.730801 0
M  V30 9266 C 903.242 -1.77917 -0.732355 0
M  V30 9267 O 902.535 -1.15848 -1.5261 0
M  V30 9268 C 902.729 -3.39647 1.11241 0
M  V30 9269 C 902.558 -3.66129 2.61112 0
M  V30 9270 C 901.328 -3.84348 3.28032 0
M  V30 9271 C 903.526 -3.67963 3.59316 0
M  V30 9272 N 901.508 -3.98429 4.67041 0
M  V30 9273 C 902.879 -3.87575 4.83927 0
M  V30 9274 C 904.934 -3.50971 3.53162 0
M  V30 9275 C 903.637 -3.91957 6.03127 0
M  V30 9276 C 905.663 -3.56629 4.71773 0
M  V30 9277 C 905.025 -3.76722 5.95197 0
M  V30 9278 H 901.124 -0.713873 0.319232 0
M  V30 9279 H 903.708 -1.43844 1.31213 0
M  V30 9280 H 901.879 -3.84352 0.559324 0
M  V30 9281 H 903.611 -3.97301 0.77031 0
M  V30 9282 H 900.366 -3.83097 2.78448 0
M  V30 9283 H 900.79 -4.09327 5.39241 0
M  V30 9284 H 905.432 -3.34395 2.58728 0
M  V30 9285 H 903.15 -4.07326 6.97933 0
M  V30 9286 H 906.736 -3.44777 4.68637 0
M  V30 9287 H 905.616 -3.8097 6.85442 0
M  V30 9288 N 903.119 -0.802921 -1.35613 0
M  V30 9289 C 904.349 -0.393359 -2.02821 0
M  V30 9290 C 904.757 0.999282 -1.60658 0
M  V30 9291 O 904.1 1.65463 -0.797977 0
M  V30 9292 C 904.162 -0.393102 -3.57344 0
M  V30 9293 C 903.826 -1.73563 -4.22759 0
M  V30 9294 C 904.823 -2.69333 -4.44698 0
M  V30 9295 C 902.508 -2.01863 -4.59953 0
M  V30 9296 C 904.502 -3.91589 -5.02928 0
M  V30 9297 C 902.189 -3.24383 -5.17898 0
M  V30 9298 C 903.187 -4.19064 -5.39328 0
M  V30 9299 O 902.875 -5.39422 -5.96053 0
M  V30 9300 H 902.607 -0.158431 -0.657172 0
M  V30 9301 H 905.161 -1.08682 -1.74291 0
M  V30 9302 H 903.391 0.356934 -3.85049 0
M  V30 9303 H 905.08 -0.00635596 -4.059 0
M  V30 9304 H 905.846 -2.48759 -4.16346 0
M  V30 9305 H 901.725 -1.28979 -4.42589 0
M  V30 9306 H 905.269 -4.65502 -5.1957 0
M  V30 9307 H 901.166 -3.44829 -5.45677 0
M  V30 9308 H 901.934 -5.40669 -6.14507 0
M  V30 9309 N 904.597 1.47463 -0.556102 0
M  V30 9310 C 905.846 2.01678 -0.029492 0
M  V30 9311 C 906.159 1.436 1.32809 0
M  V30 9312 O 907.365 1.89472 1.94455 0
M  V30 9313 C 905.821 3.599 -0.00223937 0
M  V30 9314 C 905.429 4.26969 -1.35651 0
M  V30 9315 C 907.173 4.2187 0.471822 0
M  V30 9316 C 905.08 5.77194 -1.28843 0
M  V30 9317 H 904.01 0.753965 -0.00725504 0
M  V30 9318 H 906.661 1.69467 -0.703789 0
M  V30 9319 H 905.043 3.89068 0.737682 0
M  V30 9320 H 906.217 4.09444 -2.11406 0
M  V30 9321 H 904.532 3.76983 -1.76842 0
M  V30 9322 H 907.129 5.31955 0.541139 0
M  V30 9323 H 907.472 3.88968 1.48356 0
M  V30 9324 H 908.005 3.97228 -0.213207 0
M  V30 9325 H 904.744 6.14713 -2.27613 0
M  V30 9326 H 904.264 5.9706 -0.572668 0
M  V30 9327 H 905.943 6.3938 -0.990031 0
M  V30 9328 N 906.075 0.2925 1.54862 0
M  V30 9329 C 907.305 -0.321646 2.04081 0
M  V30 9330 C 907.713 -1.48712 1.16967 0
M  V30 9331 O 907.056 -1.82755 0.18609 0
M  V30 9332 C 907.118 -0.848678 3.49339 0
M  V30 9333 C 906.782 0.190416 4.56603 0
M  V30 9334 C 907.779 1.01595 5.09877 0
M  V30 9335 C 905.464 0.329666 5.01217 0
M  V30 9336 C 907.458 1.96676 6.06298 0
M  V30 9337 C 905.145 1.28393 5.9746 0
M  V30 9338 C 906.143 2.10097 6.49883 0
M  V30 9339 O 905.831 3.03907 7.44242 0
M  V30 9340 H 905.563 -0.075098 0.671816 0
M  V30 9341 H 908.117 0.427531 2.00901 0
M  V30 9342 H 906.347 -1.64823 3.49815 0
M  V30 9343 H 908.036 -1.37779 3.81801 0
M  V30 9344 H 908.802 0.919197 4.7621 0
M  V30 9345 H 904.681 -0.296317 4.60047 0
M  V30 9346 H 908.225 2.60488 6.47141 0
M  V30 9347 H 904.122 1.38144 6.30545 0
M  V30 9348 H 904.89 2.98787 7.62016 0
M  V30 9349 N 907.553 -1.57587 0.0200696 0
M  V30 9350 C 908.778 -1.96124 -0.674547 0
M  V30 9351 C 909.203 -0.896068 -1.65385 0
M  V30 9352 O 908.561 0.143925 -1.80728 0
M  V30 9353 C 908.609 -3.3376 -1.36517 0
M  V30 9354 O 907.713 -3.29483 -2.48022 0
M  V30 9355 H 907.054 -0.639719 -0.177919 0
M  V30 9356 H 909.584 -2.04447 0.0792317 0
M  V30 9357 H 909.594 -3.69785 -1.72403 0
M  V30 9358 H 908.269 -4.10832 -0.647265 0
M  V30 9359 H 906.846 -3.05162 -2.14314 0
M  V30 9360 N 909.032 0.252966 -1.55557 0
M  V30 9361 C 909.982 1.31585 -1.86197 0
M  V30 9362 C 910.966 1.43773 -0.722357 0
M  V30 9363 O 912.158 1.47117 -0.984152 0
M  V30 9364 C 909.287 2.67245 -2.15487 0
M  V30 9365 C 908.373 2.59087 -3.3576 0
M  V30 9366 N 908.764 2.20556 -4.5518 0
M  V30 9367 C 907.062 2.90112 -3.3875 0
M  V30 9368 C 907.763 2.22881 -5.37307 0
M  V30 9369 N 906.739 2.62145 -4.76215 0
M  V30 9370 H 910.541 1.00835 -2.76061 0
M  V30 9371 H 908.055 0.461598 -1.55702 0
M  V30 9372 H 910.052 3.43944 -2.35602 0
M  V30 9373 H 908.712 2.98867 -1.26919 0
M  V30 9374 H 909.723 1.922 -4.80915 0
M  V30 9375 H 906.4 3.26313 -2.60434 0
M  V30 9376 H 907.79 1.95482 -6.42835 0
M  V30 9377 N 910.51 1.48831 0.518367 0
M  V30 9378 C 911.738 1.6112 1.298 0
M  V30 9379 C 912.153 0.275872 1.86774 0
M  V30 9380 O 911.51 -0.736416 1.66983 0
M  V30 9381 C 911.561 2.66675 2.44063 0
M  V30 9382 O 911.282 3.95027 1.89434 0
M  V30 9383 C 912.783 2.8951 3.35706 0
M  V30 9384 H 910.003 0.542916 0.394314 0
M  V30 9385 H 912.547 1.94743 0.624142 0
M  V30 9386 H 910.702 2.35879 3.07311 0
M  V30 9387 H 911.116 4.53031 2.64316 0
M  V30 9388 H 912.59 3.67142 4.12202 0
M  V30 9389 H 913.067 1.98768 3.91648 0
M  V30 9390 H 913.673 3.21656 2.7824 0
M  V30 9391 N 911.988 -0.768124 1.37614 0
M  V30 9392 C 913.404 -1.06919 1.18493 0
M  V30 9393 C 913.604 -2.01486 0.0235753 0
M  V30 9394 O 912.66 -2.4438 -0.635209 0
M  V30 9395 C 913.973 -1.66321 2.50515 0
M  V30 9396 C 915.521 -1.78562 2.57069 0
M  V30 9397 C 915.996 -2.41377 3.89231 0
M  V30 9398 N 917.487 -2.48824 3.90693 0
M  V30 9399 C 918.222 -2.98288 4.89706 0
M  V30 9400 N 917.718 -3.47897 5.99115 0
M  V30 9401 N 919.511 -2.97196 4.77107 0
M  V30 9402 H 911.662 -0.140286 2.11936 0
M  V30 9403 H 913.925 -0.124863 0.939741 0
M  V30 9404 H 913.631 -1.04303 3.35878 0
M  V30 9405 H 913.505 -2.65571 2.67866 0
M  V30 9406 H 915.892 -2.39712 1.72111 0
M  V30 9407 H 915.973 -0.780574 2.43599 0
M  V30 9408 H 915.617 -1.80866 4.74605 0
M  V30 9409 H 915.547 -3.42495 4.00006 0
M  V30 9410 H 918.038 -2.1372 3.1166 0
M  V30 9411 H 918.351 -3.84053 6.70614 0
M  V30 9412 H 916.696 -3.45993 6.02755 0
M  V30 9413 H 919.887 -2.57741 3.90752 0
M  V30 9414 H 920.06 -3.35434 5.54426 0
M  V30 9415 N 913.466 -1.22244 -0.994698 0
M  V30 9416 C 914.691 -1.07299 -1.77487 0
M  V30 9417 C 915.116 0.372302 -1.84379 0
M  V30 9418 O 914.474 1.2689 -1.29494 0
M  V30 9419 C 914.522 -1.68675 -3.18718 0
M  V30 9420 O 913.626 -0.939202 -4.01563 0
M  V30 9421 H 912.967 -0.376979 -0.546611 0
M  V30 9422 H 915.497 -1.62003 -1.24965 0
M  V30 9423 H 915.507 -1.73324 -3.69354 0
M  V30 9424 H 914.182 -2.73849 -3.13017 0
M  V30 9425 H 912.759 -0.968583 -3.60101 0
M  V30 9426 N 914.944 1.19125 -1.03184 0
M  V30 9427 C 916.355 1.70564 -0.759264 0
M  V30 9428 C 916.706 1.8248 0.720794 0
M  V30 9429 O 915.831 1.49804 1.56166 0
M  V30 9430 C 916.426 3.09793 -1.37163 0
M  V30 9431 C 914.985 3.5848 -1.14757 0
M  V30 9432 C 914.132 2.35265 -1.46784 0
M  V30 9433 H 917.083 1.03925 -1.19939 0
M  V30 9434 H 917.104 3.72624 -0.77015 0
M  V30 9435 H 916.616 3.01088 -2.44882 0
M  V30 9436 H 914.717 3.72494 -0.0887182 0
M  V30 9437 H 914.83 4.42426 -1.83836 0
M  V30 9438 H 913.194 2.38747 -0.887254 0
M  V30 9439 H 913.977 2.29188 -2.55593 0
M  V30 9440 N 916.422 0.810101 1.35185 0
M  V30 9441 C 917.647 0.40364 2.03434 0
M  V30 9442 C 918.072 -0.97857 1.60641 0
M  V30 9443 O 917.43 -1.63435 0.784779 0
M  V30 9444 C 917.478 0.499154 3.57129 0
M  V30 9445 O 916.582 -0.486039 4.09526 0
M  V30 9446 H 915.923 0.168049 0.642383 0
M  V30 9447 H 918.453 1.09696 1.72708 0
M  V30 9448 H 918.463 0.370236 4.06317 0
M  V30 9449 H 917.138 1.50733 3.87624 0
M  V30 9450 H 915.715 -0.31707 3.7155 0
M  V30 9451 N 917.9 -1.47166 0.563914 0
M  V30 9452 C 918.847 -2.30097 -0.180013 0
M  V30 9453 C 919.817 -1.39473 -0.902019 0
M  V30 9454 O 921.002 -1.68432 -0.896396 0
M  V30 9455 C 918.142 -3.23573 -1.19978 0
M  V30 9456 C 917.255 -4.2929 -0.483149 0
M  V30 9457 C 916.39 -5.0991 -1.48879 0
M  V30 9458 C 915.429 -6.07395 -0.757513 0
M  V30 9459 N 914.566 -6.8095 -1.71031 0
M  V30 9460 H 919.406 -2.93189 0.53329 0
M  V30 9461 H 916.943 -1.4451 0.274814 0
M  V30 9462 H 918.901 -3.76196 -1.80368 0
M  V30 9463 H 917.531 -2.6233 -1.88103 0
M  V30 9464 H 916.583 -3.79671 0.235414 0
M  V30 9465 H 917.895 -4.9872 0.0894075 0
M  V30 9466 H 917.049 -5.66717 -2.16603 0
M  V30 9467 H 915.788 -4.40397 -2.09527 0
M  V30 9468 H 914.793 -5.4976 -0.0663841 0
M  V30 9469 H 916.018 -6.78919 -0.156685 0
M  V30 9470 H 913.964 -6.14162 -2.30524 0
M  V30 9471 H 913.881 -7.46574 -1.19007 0
M  V30 9472 H 915.149 -7.42326 -2.37849 0
M  V30 9473 N 919.378 -0.300708 -1.54705 0
M  V30 9474 C 920.794 0.0526874 -1.59513 0
M  V30 9475 C 920.994 1.52444 -1.31769 0
M  V30 9476 O 920.05 2.27716 -1.09096 0
M  V30 9477 C 921.363 -0.344989 -2.98714 0
M  V30 9478 C 922.911 -0.29373 -3.11619 0
M  V30 9479 C 923.386 -0.666225 -4.53129 0
M  V30 9480 N 924.877 -0.618749 -4.59049 0
M  V30 9481 C 925.612 -0.879447 -5.66616 0
M  V30 9482 N 925.108 -1.2061 -6.82221 0
M  V30 9483 N 926.901 -0.806528 -5.56284 0
M  V30 9484 H 919.052 -1.25988 -1.71 0
M  V30 9485 H 921.315 -0.510758 -0.798643 0
M  V30 9486 H 921.021 -1.36953 -3.2394 0
M  V30 9487 H 920.895 0.301507 -3.75993 0
M  V30 9488 H 923.282 0.72156 -2.86142 0
M  V30 9489 H 923.363 -0.974844 -2.36496 0
M  V30 9490 H 923.007 -1.67932 -4.79334 0
M  V30 9491 H 922.937 0.0369575 -5.26587 0
M  V30 9492 H 925.428 -0.377202 -3.76013 0
M  V30 9493 H 925.741 -1.391 -7.60178 0
M  V30 9494 H 924.086 -1.24413 -6.83774 0
M  V30 9495 H 927.277 -0.550993 -4.64846 0
M  V30 9496 H 927.45 -1.01307 -6.40032 0
M  V30 9497 N 920.856 1.57574 -0.0284266 0
M  V30 9498 C 921.766 2.13637 0.96936 0
M  V30 9499 C 922.782 1.08845 1.35752 0
M  V30 9500 O 923.958 1.40899 1.43908 0
M  V30 9501 C 921.023 2.65179 2.2334 0
M  V30 9502 C 920.084 3.84683 1.90572 0
M  V30 9503 C 919.317 4.33758 3.1095 0
M  V30 9504 O 919.54 3.82009 4.23586 0
M  V30 9505 O 918.474 5.2561 2.93288 0
M  V30 9506 H 922.3 2.99169 0.52267 0
M  V30 9507 H 919.885 1.48159 0.192135 0
M  V30 9508 H 921.767 2.98402 2.97547 0
M  V30 9509 H 920.442 1.82731 2.67191 0
M  V30 9510 H 919.349 3.56386 1.13753 0
M  V30 9511 H 920.682 4.68292 1.51538 0
M  V30 9512 N 922.334 -0.244713 1.55689 0
M  V30 9513 C 923.745 -0.813603 1.6804 0
M  V30 9514 C 924.096 -1.85936 0.626281 0
M  V30 9515 O 923.221 -2.15206 -0.227038 0
M  V30 9516 C 923.816 -1.48252 3.04642 0
M  V30 9517 C 922.375 -1.99908 3.18926 0
M  V30 9518 C 921.522 -0.850958 2.6392 0
M  V30 9519 H 924.473 -0.0204805 1.58687 0
M  V30 9520 H 924.494 -2.35062 2.99209 0
M  V30 9521 H 924.006 -0.721164 3.81341 0
M  V30 9522 H 922.107 -2.78918 2.47054 0
M  V30 9523 H 922.22 -2.19497 4.25862 0
M  V30 9524 H 920.584 -1.25206 2.21801 0
M  V30 9525 H 921.367 -0.10265 3.43146 0
M  V30 9526 N 923.813 -1.49104 -0.510467 0
M  V30 9527 C 925.059 -1.58346 -1.26705 0
M  V30 9528 C 925.392 -0.265121 -1.92382 0
M  V30 9529 O 924.667 0.730558 -1.80258 0
M  V30 9530 C 924.95 -2.7359 -2.34137 0
M  V30 9531 C 924.803 -4.1519 -1.73024 0
M  V30 9532 C 926.122 -2.84511 -3.3577 0
M  V30 9533 H 923.241 -0.57637 -0.459311 0
M  V30 9534 H 925.883 -1.81353 -0.566658 0
M  V30 9535 H 924.033 -2.54105 -2.93876 0
M  V30 9536 H 925.705 -4.46167 -1.17186 0
M  V30 9537 H 923.948 -4.21279 -1.03473 0
M  V30 9538 H 924.619 -4.91683 -2.50903 0
M  V30 9539 H 927.095 -3.0222 -2.86011 0
M  V30 9540 H 925.971 -3.6684 -4.08313 0
M  V30 9541 H 926.232 -1.93471 -3.97519 0
M  V30 9542 N 925.291 0.760815 -1.38019 0
M  V30 9543 C 926.537 1.52198 -1.34028 0
M  V30 9544 C 926.87 1.94067 0.0718309 0
M  V30 9545 O 926.145 1.64895 1.0315 0
M  V30 9546 C 926.428 2.77954 -2.2894 0
M  V30 9547 C 926.281 2.42269 -3.7898 0
M  V30 9548 C 927.6 3.79943 -2.22107 0
M  V30 9549 H 924.719 0.552131 -0.488181 0
M  V30 9550 H 927.361 0.871971 -1.6881 0
M  V30 9551 H 925.511 3.33419 -1.9941 0
M  V30 9552 H 927.183 1.92635 -4.19153 0
M  V30 9553 H 925.426 1.74822 -3.97014 0
M  V30 9554 H 926.097 3.32211 -4.4084 0
M  V30 9555 H 928.573 3.34 -2.4816 0
M  V30 9556 H 927.449 4.6564 -2.90639 0
M  V30 9557 H 927.71 4.25004 -1.21753 0
M  V30 9558 N 926.769 1.22769 0.988202 0
M  V30 9559 C 927.732 1.00325 2.06076 0
M  V30 9560 C 928.732 -0.0320618 1.60768 0
M  V30 9561 O 929.922 0.206912 1.72967 0
M  V30 9562 C 927.054 0.516376 3.36966 0
M  V30 9563 H 928.247 1.95499 2.27421 0
M  V30 9564 H 925.8 1.04704 1.16047 0
M  V30 9565 H 926.535 -0.439498 3.21308 0
M  V30 9566 H 926.32 1.26337 3.71189 0
M  V30 9567 H 927.81 0.37974 4.1587 0
M  V30 9568 N 928.247 -1.18576 1.03814 0
M  V30 9569 C 929.493 -1.88773 0.741132 0
M  V30 9570 C 929.826 -1.79993 -0.729127 0
M  V30 9571 O 929.101 -1.19851 -1.53186 0
M  V30 9572 C 929.384 -3.39352 1.20468 0
M  V30 9573 C 929.237 -3.56955 2.73684 0
M  V30 9574 C 930.556 -4.32901 0.792741 0
M  V30 9575 H 927.675 -0.685482 0.270708 0
M  V30 9576 H 930.317 -1.39523 1.2897 0
M  V30 9577 H 928.467 -3.81427 0.737974 0
M  V30 9578 H 930.139 -3.2399 3.28372 0
M  V30 9579 H 928.382 -2.99696 3.13632 0
M  V30 9580 H 929.053 -4.62598 3.01176 0
M  V30 9581 H 931.529 -3.98592 1.1943 0
M  V30 9582 H 930.405 -5.36828 1.14486 0
M  V30 9583 H 930.666 -4.41052 -0.304295 0
M  V30 9584 N 929.725 -0.817259 -1.34754 0
M  V30 9585 C 930.688 -0.240611 -2.27934 0
M  V30 9586 C 931.688 0.578219 -1.50044 0
M  V30 9587 O 932.878 0.395148 -1.69659 0
M  V30 9588 C 930.01 0.663318 -3.34384 0
M  V30 9589 H 931.203 -1.06257 -2.80445 0
M  V30 9590 H 928.756 -0.588697 -1.4479 0
M  V30 9591 H 929.491 1.50855 -2.87077 0
M  V30 9592 H 929.276 0.0777388 -3.92023 0
M  V30 9593 H 930.766 1.06076 -4.03903 0
M  V30 9594 N 931.203 1.46865 -0.571711 0
M  V30 9595 C 932.166 2.28658 0.157499 0
M  V30 9596 C 933.166 1.37773 0.829172 0
M  V30 9597 O 934.356 1.6026 0.682811 0
M  V30 9598 C 931.488 3.17859 1.23202 0
M  V30 9599 H 932.681 2.94603 -0.561171 0
M  V30 9600 H 930.234 1.52793 -0.329229 0
M  V30 9601 H 930.969 2.56637 1.98262 0
M  V30 9602 H 930.754 3.84762 0.755031 0
M  V30 9603 H 932.244 3.7945 1.74378 0
M  V30 9604 N 932.681 0.308908 1.54543 0
M  V30 9605 C 934.092 -0.182144 1.85809 0
M  V30 9606 C 934.443 -1.52796 1.23076 0
M  V30 9607 O 933.568 -2.09775 0.531358 0
M  V30 9608 C 934.163 -0.337275 3.37117 0
M  V30 9609 C 932.722 -0.772545 3.68387 0
M  V30 9610 C 931.869 0.114451 2.77064 0
M  V30 9611 H 934.82 0.529671 1.496 0
M  V30 9612 H 934.841 -1.17058 3.62046 0
M  V30 9613 H 934.353 0.642382 3.82747 0
M  V30 9614 H 932.454 -1.76247 3.2828 0
M  V30 9615 H 932.567 -0.586453 4.75497 0
M  V30 9616 H 930.931 -0.407581 2.51418 0
M  V30 9617 H 931.714 1.09061 3.25516 0
M  V30 9618 N 934.159 -1.57557 0.0367827 0
M  V30 9619 C 935.122 -2.09591 -0.927589 0
M  V30 9620 C 936.122 -1.01252 -1.24919 0
M  V30 9621 O 937.312 -1.27382 -1.18825 0
M  V30 9622 C 934.444 -2.56816 -2.24184 0
M  V30 9623 H 935.637 -2.96086 -0.476784 0
M  V30 9624 H 933.19 -1.54864 -0.211385 0
M  V30 9625 H 933.925 -1.73673 -2.73876 0
M  V30 9626 H 933.71 -3.35973 -2.0215 0
M  V30 9627 H 935.2 -2.97271 -2.93291 0
M  V30 9628 N 935.637 0.236453 -1.55816 0
M  V30 9629 C 936.862 0.98449 -1.82545 0
M  V30 9630 C 937.287 1.77755 -0.615206 0
M  V30 9631 O 936.645 1.75982 0.435895 0
M  V30 9632 C 936.693 1.88973 -3.07118 0
M  V30 9633 O 935.797 2.98298 -2.84766 0
M  V30 9634 H 935.138 0.279577 -0.602273 0
M  V30 9635 H 937.668 0.254277 -2.03014 0
M  V30 9636 H 937.678 2.3024 -3.36829 0
M  V30 9637 H 936.353 1.30671 -3.94839 0
M  V30 9638 H 934.93 2.61085 -2.6625 0
M  V30 9639 N 937.115 1.49373 0.502552 0
M  V30 9640 C 938.34 1.62752 1.28556 0
M  V30 9641 C 938.765 0.298285 1.8572 0
M  V30 9642 O 938.123 -0.733885 1.65782 0
M  V30 9643 C 938.171 2.69778 2.39274 0
M  V30 9644 O 937.275 2.28843 3.43081 0
M  V30 9645 H 936.616 0.544799 0.379592 0
M  V30 9646 H 939.146 1.9555 0.601792 0
M  V30 9647 H 939.156 2.91899 2.8506 0
M  V30 9648 H 937.831 3.66266 1.97033 0
M  V30 9649 H 936.408 2.17047 3.03224 0
M  V30 9650 N 938.594 -0.753485 1.38421 0
M  V30 9651 C 939.504 -1.89797 1.37892 0
M  V30 9652 C 940.52 -1.71797 0.276023 0
M  V30 9653 O 941.696 -1.94718 0.514464 0
M  V30 9654 C 938.761 -3.25166 1.20284 0
M  V30 9655 C 937.822 -3.55691 2.4038 0
M  V30 9656 C 937.055 -4.84601 2.23602 0
M  V30 9657 O 937.278 -5.56985 1.22979 0
M  V30 9658 O 936.212 -5.14605 3.12194 0
M  V30 9659 H 940.038 -1.93197 2.34326 0
M  V30 9660 H 937.623 -0.898775 1.19342 0
M  V30 9661 H 939.505 -4.06099 1.12525 0
M  V30 9662 H 938.18 -3.22577 0.269352 0
M  V30 9663 H 937.087 -2.74919 2.53714 0
M  V30 9664 H 938.42 -3.6304 3.32359 0
M  V30 9665 N 940.072 -1.23292 -0.981677 0
M  V30 9666 C 941.297 -1.09176 -1.76339 0
M  V30 9667 C 941.722 0.352726 -1.84763 0
M  V30 9668 O 941.08 1.25509 -1.30832 0
M  V30 9669 C 941.128 -1.72046 -3.16911 0
M  V30 9670 O 940.232 -0.98174 -4.00544 0
M  V30 9671 H 939.573 -0.382755 -0.542581 0
M  V30 9672 H 942.103 -1.63319 -1.23239 0
M  V30 9673 H 942.113 -1.77232 -3.67495 0
M  V30 9674 H 940.788 -2.77154 -3.10095 0
M  V30 9675 H 939.365 -1.00672 -3.59054 0
M  V30 9676 N 941.55 1.18024 -1.04442 0
M  V30 9677 C 942.775 1.92573 -0.770097 0
M  V30 9678 C 943.2 1.75871 0.667169 0
M  V30 9679 O 942.558 1.07136 1.46258 0
M  V30 9680 C 942.606 3.41904 -1.14602 0
M  V30 9681 O 941.71 4.11491 -0.273712 0
M  V30 9682 H 941.051 0.600636 -0.283076 0
M  V30 9683 H 943.581 1.49645 -1.39526 0
M  V30 9684 H 943.591 3.92623 -1.10956 0
M  V30 9685 H 942.266 3.53382 -2.19304 0
M  V30 9686 H 940.843 3.71059 -0.370124 0
M  V30 9687 N 943.028 0.824394 1.34319 0
M  V30 9688 C 944.253 0.425194 2.02995 0
M  V30 9689 C 944.678 -0.961476 1.6167 0
M  V30 9690 O 944.036 -1.62593 0.80207 0
M  V30 9691 C 944.084 0.537004 3.56579 0
M  V30 9692 O 943.188 -0.442576 4.10018 0
M  V30 9693 H 942.529 0.174853 0.640564 0
M  V30 9694 H 945.059 1.11522 1.71534 0
M  V30 9695 H 945.069 0.413311 4.05901 0
M  V30 9696 H 943.744 1.54836 3.86004 0
M  V30 9697 H 942.321 -0.277644 3.71865 0
M  V30 9698 N 944.506 -1.46559 0.579492 0
M  V30 9699 C 945.734 -2.06784 0.0693648 0
M  V30 9700 C 946.149 -1.42875 -1.23419 0
M  V30 9701 O 945.506 -0.532919 -1.74546 0
M  V30 9702 C 945.557 -3.61343 -0.106511 0
M  V30 9703 O 945.278 -4.22861 1.14545 0
M  V30 9704 C 946.779 -4.38489 -0.651359 0
M  V30 9705 H 943.999 -0.66866 0.0559848 0
M  V30 9706 H 946.543 -1.88235 0.799245 0
M  V30 9707 H 944.698 -3.7933 -0.786601 0
M  V30 9708 H 945.112 -5.15691 0.95723 0
M  V30 9709 H 946.586 -5.47237 -0.723615 0
M  V30 9710 H 947.063 -4.06309 -1.66763 0
M  V30 9711 H 947.669 -4.253 -0.0062433 0
M  V30 9712 N 945.984 -0.3171 -1.54377 0
M  V30 9713 C 946.932 0.567371 -2.25574 0
M  V30 9714 C 947.926 1.12387 -1.2675 0
M  V30 9715 O 949.132 1.07266 -1.44548 0
M  V30 9716 H 945.507 0.201605 -0.724472 0
M  V30 9717 H 947.478 -0.0554644 -2.98348 0
M  V30 9718 C 946.227 1.71984 -3.02187 0
M  V30 9719 H 945.55 1.30086 -3.78044 0
M  V30 9720 H 946.99 2.31443 -3.5526 0
M  V30 9721 C 945.449 2.6336 -2.10103 0
M  V30 9722 O 945.979 3.64899 -1.67962 0
M  V30 9723 N 944.185 2.3145 -1.75725 0
M  V30 9724 H 943.732 1.48921 -2.10191 0
M  V30 9725 H 943.69 2.92852 -1.14391 0
M  V30 9726 N 947.462 1.57535 -0.0451378 0
M  V30 9727 C 948.412 2.07683 0.940829 0
M  V30 9728 C 949.396 0.9807 1.27558 0
M  V30 9729 O 950.588 1.2441 1.25901 0
M  V30 9730 C 947.717 2.62049 2.21778 0
M  V30 9731 C 946.803 3.78621 1.91068 0
M  V30 9732 N 947.194 4.88623 1.30694 0
M  V30 9733 C 945.492 3.87411 2.20972 0
M  V30 9734 C 946.193 5.69714 1.17478 0
M  V30 9735 N 945.169 5.17129 1.67566 0
M  V30 9736 H 948.971 2.90129 0.469267 0
M  V30 9737 H 946.485 1.61615 0.159472 0
M  V30 9738 H 948.482 2.96276 2.93302 0
M  V30 9739 H 947.142 1.81039 2.69546 0
M  V30 9740 H 948.153 5.08545 0.979907 0
M  V30 9741 H 944.83 3.17335 2.71302 0
M  V30 9742 H 946.22 6.68174 0.706574 0
M  V30 9743 N 948.94 -0.228186 1.55939 0
M  V30 9744 C 950.165 -0.974795 1.83064 0
M  V30 9745 C 950.59 -1.77426 0.624624 0
M  V30 9746 O 949.948 -1.76211 -0.426556 0
M  V30 9747 C 949.996 -1.87342 3.08116 0
M  V30 9748 O 949.1 -2.96784 2.86344 0
M  V30 9749 H 948.441 -0.276379 0.603747 0
M  V30 9750 H 950.971 -0.243507 2.03146 0
M  V30 9751 H 950.981 -2.28451 3.38045 0
M  V30 9752 H 949.656 -1.28575 3.95526 0
M  V30 9753 H 948.233 -2.59669 2.67631 0
M  V30 9754 N 950.418 -1.49637 -0.494624 0
M  V30 9755 C 951.667 -1.58691 -1.24499 0
M  V30 9756 C 951.98 -0.281763 -1.9356 0
M  V30 9757 O 953.186 -0.250925 -2.70338 0
M  V30 9758 C 951.642 -2.8002 -2.26091 0
M  V30 9759 C 951.25 -4.17318 -1.6294 0
M  V30 9760 C 952.994 -2.98407 -3.01916 0
M  V30 9761 C 950.901 -5.29862 -2.62679 0
M  V30 9762 H 949.831 -0.590888 -0.468367 0
M  V30 9763 H 952.482 -1.76034 -0.518112 0
M  V30 9764 H 950.864 -2.56185 -3.01969 0
M  V30 9765 H 952.038 -4.51315 -0.930108 0
M  V30 9766 H 950.353 -4.04342 -0.994819 0
M  V30 9767 H 952.95 -3.79658 -3.76516 0
M  V30 9768 H 953.293 -2.09214 -3.5991 0
M  V30 9769 H 953.826 -3.22312 -2.33152 0
M  V30 9770 H 950.565 -6.21134 -2.09458 0
M  V30 9771 H 950.085 -5.00311 -3.3083 0
M  V30 9772 H 951.764 -5.59461 -3.2498 0
M  V30 9773 N 951.896 0.746133 -1.38819 0
M  V30 9774 C 953.144 1.50247 -1.35167 0
M  V30 9775 C 953.465 1.94921 0.0553531 0
M  V30 9776 O 952.735 1.68187 1.00449 0
M  V30 9777 H 951.315 0.557337 -0.497377 0
M  V30 9778 H 953.977 0.886472 -1.73573 0
M  V30 9779 H 953.073 2.38986 -2.00728 0
M  V30 9780 N 953.375 1.23811 0.975125 0
M  V30 9781 C 954.6 1.10109 1.75757 0
M  V30 9782 C 955.025 -0.342922 1.84948 0
M  V30 9783 O 954.383 -1.24814 1.31496 0
M  V30 9784 C 954.431 1.73724 3.15994 0
M  V30 9785 O 953.535 1.00297 4.00018 0
M  V30 9786 H 952.876 0.385627 0.540544 0
M  V30 9787 H 955.406 1.63971 1.22372 0
M  V30 9788 H 955.416 1.79178 3.6655 0
M  V30 9789 H 954.091 2.78794 3.0862 0
M  V30 9790 H 952.668 1.02575 3.58515 0
M  V30 9791 N 954.853 -1.17469 1.05066 0
M  V30 9792 C 956.081 -1.9162 0.780334 0
M  V30 9793 C 956.496 -1.76745 -0.663817 0
M  V30 9794 O 955.853 -1.10377 -1.45338 0
M  V30 9795 C 955.904 -3.42723 1.14992 0
M  V30 9796 O 955.625 -3.57139 2.53739 0
M  V30 9797 C 957.126 -4.33952 0.905549 0
M  V30 9798 H 954.346 -0.608022 0.283814 0
M  V30 9799 H 956.89 -1.4897 1.401 0
M  V30 9800 H 955.045 -3.83124 0.57403 0
M  V30 9801 H 955.459 -4.5075 2.68189 0
M  V30 9802 H 956.933 -5.38487 1.21391 0
M  V30 9803 H 957.41 -4.38911 -0.159295 0
M  V30 9804 H 958.016 -3.99263 1.46522 0
M  V30 9805 N 956.331 -0.831506 -1.3388 0
M  V30 9806 C 957.263 -0.216908 -2.28171 0
M  V30 9807 C 958.276 0.598141 -1.51414 0
M  V30 9808 O 959.465 0.426416 -1.73332 0
M  V30 9809 C 956.565 0.713831 -3.31297 0
M  V30 9810 C 955.738 -0.0602673 -4.37358 0
M  V30 9811 C 954.797 0.792696 -5.20195 0
M  V30 9812 O 953.823 0.234564 -5.68716 0
M  V30 9813 N 955.025 2.11119 -5.40748 0
M  V30 9814 H 957.79 -1.02704 -2.81553 0
M  V30 9815 H 955.351 -0.689272 -1.46495 0
M  V30 9816 H 957.343 1.28925 -3.83615 0
M  V30 9817 H 955.913 1.42469 -2.78247 0
M  V30 9818 H 955.133 -0.817041 -3.8564 0
M  V30 9819 H 956.421 -0.592822 -5.05335 0
M  V30 9820 H 955.819 2.58828 -5.03016 0
M  V30 9821 H 954.376 2.63527 -5.96151 0
M  V30 9822 N 957.809 1.4625 -0.587256 0
M  V30 9823 C 959.034 2.07252 -0.0784517 0
M  V30 9824 C 959.459 1.43239 1.21919 0
M  V30 9825 O 958.817 0.517791 1.73749 0
M  V30 9826 C 958.865 3.60534 0.0691037 0
M  V30 9827 O 957.969 3.96773 1.12448 0
M  V30 9828 H 957.31 0.660825 -0.064859 0
M  V30 9829 H 959.84 1.87819 -0.811491 0
M  V30 9830 H 959.85 4.0708 0.273826 0
M  V30 9831 H 958.525 4.06516 -0.878514 0
M  V30 9832 H 957.102 3.6193 0.897852 0
M  V30 9833 N 959.287 0.325282 1.54207 0
M  V30 9834 C 960.515 -0.27869 2.05014 0
M  V30 9835 C 960.93 -1.45649 1.20133 0
M  V30 9836 O 960.287 -1.81014 0.232398 0
M  V30 9837 C 960.338 -0.711486 3.54429 0
M  V30 9838 O 960.059 0.419458 4.36087 0
M  V30 9839 C 961.56 -1.37809 4.21336 0
M  V30 9840 H 958.78 -0.0570388 0.668571 0
M  V30 9841 H 961.324 0.47197 1.98979 0
M  V30 9842 H 959.479 -1.41212 3.60746 0
M  V30 9843 H 959.893 0.0781037 5.24442 0
M  V30 9844 H 961.367 -1.63184 5.27328 0
M  V30 9845 H 961.844 -2.32593 3.72555 0
M  V30 9846 H 962.45 -0.719987 4.19161 0
M  V30 9847 N 960.765 -1.57509 0.0534917 0
M  V30 9848 C 962.176 -1.80374 -0.481867 0
M  V30 9849 C 962.527 -0.965917 -1.70776 0
M  V30 9850 O 961.652 -0.183167 -2.15623 0
M  V30 9851 C 962.247 -3.27146 -0.880978 0
M  V30 9852 C 960.806 -3.50921 -1.3613 0
M  V30 9853 C 959.953 -2.75237 -0.337611 0
M  V30 9854 H 962.904 -1.56222 0.279353 0
M  V30 9855 H 962.925 -3.38193 -1.74373 0
M  V30 9856 H 962.437 -3.88098 0.011441 0
M  V30 9857 H 960.538 -2.95251 -2.27283 0
M  V30 9858 H 960.651 -4.59632 -1.35186 0
M  V30 9859 H 959.015 -2.41444 -0.810991 0
M  V30 9860 H 959.798 -3.38918 0.546763 0
M  V30 9861 N 962.243 0.219913 -1.56058 0
M  V30 9862 C 963.483 0.951113 -1.80923 0
M  V30 9863 C 963.847 1.81465 -0.627247 0
M  V30 9864 O 965.048 2.57972 -0.755237 0
M  V30 9865 C 963.319 1.76652 -3.10691 0
M  V30 9866 S 964.878 2.55314 -3.56876 0
M  V30 9867 H 961.696 0.319461 -0.635189 0
M  V30 9868 H 964.298 0.216551 -1.94297 0
M  V30 9869 H 963.002 1.12231 -3.94756 0
M  V30 9870 H 962.533 2.54335 -3.00128 0
M  V30 9871 H 964.548 3.78938 -3.20344 0
M  V30 9872 N 963.721 1.49897 0.486681 0
M  V30 9873 C 964.946 1.64106 1.26823 0
M  V30 9874 C 965.371 0.317967 1.85393 0
M  V30 9875 O 964.729 -0.71626 1.66551 0
M  V30 9876 C 964.777 2.72301 2.36399 0
M  V30 9877 O 963.881 2.32469 3.40634 0
M  V30 9878 H 963.222 0.548794 0.373793 0
M  V30 9879 H 965.752 1.96177 0.581017 0
M  V30 9880 H 965.762 2.94906 2.81948 0
M  V30 9881 H 964.437 3.68335 1.93137 0
M  V30 9882 H 963.014 2.20251 3.00905 0
M  V30 9883 N 965.199 -0.738761 1.39212 0
M  V30 9884 C 966.427 -1.52801 1.39497 0
M  V30 9885 C 966.842 -1.88797 -0.0114917 0
M  V30 9886 O 966.199 -1.53835 -0.981887 0
M  V30 9887 C 966.25 -2.81793 2.2644 0
M  V30 9888 O 965.971 -2.47328 3.61608 0
M  V30 9889 C 967.472 -3.75844 2.35067 0
M  V30 9890 H 964.692 -0.472322 0.476606 0
M  V30 9891 H 967.236 -0.913153 1.8298 0
M  V30 9892 H 965.391 -3.3962 1.8638 0
M  V30 9893 H 965.805 -3.30162 4.07545 0
M  V30 9894 H 967.279 -4.6326 3.00157 0
M  V30 9895 H 967.756 -4.17329 1.3687 0
M  V30 9896 H 968.362 -3.23937 2.75581 0
M  V30 9897 N 966.677 -1.24326 -0.968545 0
M  V30 9898 C 967.902 -1.1104 -1.75171 0
M  V30 9899 C 968.327 0.333109 -1.85127 0
M  V30 9900 O 967.685 1.24115 -1.32156 0
M  V30 9901 C 967.733 -1.75397 -3.15068 0
M  V30 9902 O 966.837 -1.02417 -3.9948 0
M  V30 9903 H 966.178 -0.388488 -0.538491 0
M  V30 9904 H 968.708 -1.64617 -1.215 0
M  V30 9905 H 968.718 -1.8112 -3.65595 0
M  V30 9906 H 967.393 -2.80427 -3.07138 0
M  V30 9907 H 965.97 -1.04475 -3.57966 0
M  V30 9908 N 968.156 1.1691 -1.05688 0
M  V30 9909 C 969.381 1.91745 -0.790478 0
M  V30 9910 C 969.806 1.76568 0.648478 0
M  V30 9911 O 969.164 1.08682 1.45114 0
M  V30 9912 C 969.212 3.4067 -1.18222 0
M  V30 9913 O 968.316 4.11177 -0.317341 0
M  V30 9914 H 967.657 0.5976 -0.28943 0
M  V30 9915 H 970.187 1.48157 -1.41105 0
M  V30 9916 H 970.197 3.91424 -1.15114 0
M  V30 9917 H 968.872 3.51036 -2.2304 0
M  V30 9918 H 967.449 3.70645 -0.409459 0
M  V30 9919 N 969.634 0.838594 1.33437 0
M  V30 9920 C 970.567 0.216651 2.27169 0
M  V30 9921 C 971.545 -0.636065 1.49643 0
M  V30 9922 O 972.729 -0.596388 1.78817 0
M  V30 9923 C 969.856 -0.69584 3.31475 0
M  V30 9924 C 968.902 0.0813808 4.26422 0
M  V30 9925 S 969.735 1.43909 5.15801 0
M  V30 9926 C 970.891 0.531887 6.23636 0
M  V30 9927 H 971.124 1.01128 2.79572 0
M  V30 9928 H 968.657 0.635332 1.40723 0
M  V30 9929 H 970.615 -1.21671 3.92054 0
M  V30 9930 H 969.276 -1.46413 2.77888 0
M  V30 9931 H 968.469 -0.612944 5.00259 0
M  V30 9932 H 968.071 0.533304 3.70178 0
M  V30 9933 H 970.363 -0.270371 6.7696 0
M  V30 9934 H 971.306 1.24041 6.97151 0
M  V30 9935 H 971.714 0.113357 5.64386 0
M  V30 9936 N 971.112 -1.45937 0.595003 0
M  V30 9937 C 972.075 -2.2888 -0.121102 0
M  V30 9938 C 973.075 -1.39075 -0.807149 0
M  V30 9939 O 974.265 -1.61326 -0.657228 0
M  V30 9940 C 971.397 -3.19778 -1.1813 0
M  V30 9941 H 972.59 -2.93673 0.607968 0
M  V30 9942 H 970.143 -1.5225 0.353495 0
M  V30 9943 H 970.878 -2.59759 -1.94154 0
M  V30 9944 H 970.663 -3.85914 -0.693724 0
M  V30 9945 H 972.153 -3.82176 -1.68319 0
M  V30 9946 O 972.629 -0.475622 -1.54338 0
M  V30 9947 H 973.32 0.048546 -1.93639 0
M  V30 END ATOM
M  V30 BEGIN BOND
M  V30 END BOND
M  V30 END CTAB
M  END
$$$$
