drugbank_target|P17846 Sulfite reductase [NADPH] hemoprotein beta-component (DB02832)
 OpenBabel12092120013D

  0  0  0     0  0            999 V3000
M  V30 BEGIN CTAB
M  V30 COUNTS 9008 9101 0 0 0
M  V30 BEGIN ATOM
M  V30 1 H -0.908 1.98254 -0.117106 0
M  V30 2 N 0 1.576 0 0
M  V30 3 C 0.933 2.03868 1.02534 0
M  V30 4 C 1.911 0.928543 1.3348 0
M  V30 5 O 3.095 1.19667 1.45644 0
M  V30 6 C 0.222 2.43627 2.35294 0
M  V30 7 C -0.732 3.65373 2.2001 0
M  V30 8 S 0.101 5.13292 1.52614 0
M  V30 9 C 1.257 5.56322 2.86805 0
M  V30 10 H 1.49 2.90518 0.631377 0
M  V30 11 H -0.977 1.52953 0.210867 0
M  V30 12 H 0.981 2.67203 3.11629 0
M  V30 13 H -0.358 1.57376 2.7183 0
M  V30 14 H -1.165 3.90944 3.18086 0
M  V30 15 H -1.563 3.418 1.51819 0
M  V30 16 H 0.729 5.58782 3.83104 0
M  V30 17 H 1.672 6.56266 2.65933 0
M  V30 18 H 2.08 4.83886 2.90714 0
M  V30 19 N 1.4781 -0.272755 1.55222 0
M  V30 20 C 2.7031 -1.02683 1.80197 0
M  V30 21 C 3.1281 -1.79142 0.573551 0
M  V30 22 O 2.4861 -1.74917 -0.476849 0
M  V30 23 C 2.5341 -1.9609 3.02624 0
M  V30 24 O 1.6381 -3.04863 2.77727 0
M  V30 25 H 0.9791 -0.293557 0.595584 0
M  V30 26 H 3.5091 -0.30159 2.02365 0
M  V30 27 H 3.5191 -2.38039 3.31363 0
M  V30 28 H 2.1941 -1.39851 3.91682 0
M  V30 29 H 0.7711 -2.67228 2.60084 0
M  V30 30 N 2.9562 -1.48159 -0.537278 0
M  V30 31 C 3.8662 -1.64807 -1.6696 0
M  V30 32 C 4.8822 -0.530651 -1.65711 0
M  V30 33 O 6.0582 -0.800784 -1.84796 0
M  V30 34 C 3.1232 -1.67708 -3.03438 0
M  V30 35 C 2.1842 -2.91025 -3.156 0
M  V30 36 C 1.4172 -2.93778 -4.45567 0
M  V30 37 O 1.6402 -2.05153 -5.3223 0
M  V30 38 O 0.5742 -3.85868 -4.61941 0
M  V30 39 H 4.4002 -2.6066 -1.55853 0
M  V30 40 H 1.9852 -1.31475 -0.709549 0
M  V30 41 H 3.8672 -1.7218 -3.84619 0
M  V30 42 H 2.5422 -0.750278 -3.14885 0
M  V30 43 H 1.4492 -2.92089 -2.33741 0
M  V30 44 H 2.7822 -3.83065 -3.09066 0
M  V30 45 N 4.4343 0.785586 -1.36625 0
M  V30 46 C 5.3813 1.89838 -1.31264 0
M  V30 47 C 6.3513 1.65115 -0.180633 0
M  V30 48 O 7.5363 1.87222 -0.36777 0
M  V30 49 C 4.6763 3.26706 -1.11163 0
M  V30 50 C 3.7893 3.63476 -2.33472 0
M  V30 51 C 2.9243 4.89481 -2.06353 0
M  V30 52 C 1.9633 5.18941 -3.24602 0
M  V30 53 N 1.1003 6.36131 -2.97123 0
M  V30 54 H 5.9403 1.93756 -2.26413 0
M  V30 55 H 3.4773 0.947454 -1.12524 0
M  V30 56 H 5.4353 4.05639 -0.975337 0
M  V30 57 H 4.0653 3.222 -0.196674 0
M  V30 58 H 3.1173 2.79636 -2.57891 0
M  V30 59 H 4.4293 3.81193 -3.21704 0
M  V30 60 H 3.5833 5.76288 -1.89675 0
M  V30 61 H 2.3223 4.73841 -1.15437 0
M  V30 62 H 1.3273 4.30615 -3.41834 0
M  V30 63 H 2.5523 5.36498 -4.16349 0
M  V30 64 H 0.4983 6.21875 -2.08823 0
M  V30 65 H 0.4153 6.54198 -3.78894 0
M  V30 66 H 1.6833 7.2591 -2.84033 0
M  V30 67 N 5.9124 1.20967 1.01018 0
M  V30 68 C 6.8624 0.93182 2.08089 0
M  V30 69 C 7.8464 -0.110898 1.60517 0
M  V30 70 O 9.0384 0.0973392 1.76732 0
M  V30 71 C 6.1674 0.492719 3.39746 0
M  V30 72 C 5.2534 1.56922 3.94 0
M  V30 73 N 5.6444 2.79312 4.21686 0
M  V30 74 C 3.9424 1.43688 4.2222 0
M  V30 75 C 4.6434 3.48797 4.65527 0
M  V30 76 N 3.6194 2.76224 4.68189 0
M  V30 77 H 7.4214 1.86175 2.27412 0
M  V30 78 H 4.9354 1.10463 1.19045 0
M  V30 79 H 6.9324 0.275044 4.15992 0
M  V30 80 H 5.5924 -0.430509 3.21833 0
M  V30 81 H 6.6034 3.15903 4.10397 0
M  V30 82 H 3.2804 0.578548 4.13472 0
M  V30 83 H 4.6704 4.53561 4.95714 0
M  V30 84 N 7.3905 -1.2043 1.01659 0
M  V30 85 C 8.8015 -1.71517 0.737482 0
M  V30 86 C 9.1525 -1.81547 -0.743973 0
M  V30 87 O 8.2775 -1.47803 -1.58061 0
M  V30 88 C 8.8725 -3.11515 1.33206 0
M  V30 89 C 7.4315 -3.59912 1.10183 0
M  V30 90 C 6.5785 -2.37116 1.43776 0
M  V30 91 H 9.5295 -1.05444 1.18606 0
M  V30 92 H 9.5505 -3.73575 0.722636 0
M  V30 93 H 9.0625 -3.04182 2.41028 0
M  V30 94 H 7.1635 -3.72577 0.0412756 0
M  V30 95 H 7.2765 -4.44731 1.78188 0
M  V30 96 H 5.6405 -2.39857 0.856778 0
M  V30 97 H 6.4235 -2.32424 2.52654 0
M  V30 98 N 8.8686 -0.792821 -1.36206 0
M  V30 99 C 10.1166 -0.366062 -1.98757 0
M  V30 100 C 10.4376 1.0668 -1.63231 0
M  V30 101 O 9.7076 1.73587 -0.907978 0
M  V30 102 H 8.2876 -0.132364 -0.735179 0
M  V30 103 H 10.9496 -1.01562 -1.66347 0
M  V30 104 H 10.0456 -0.460638 -3.08682 0
M  V30 105 N 10.3467 1.47872 -0.545128 0
M  V30 106 C 11.7577 1.86384 -0.108581 0
M  V30 107 C 12.1087 1.45309 1.31832 0
M  V30 108 O 11.2337 0.850641 1.9898 0
M  V30 109 C 11.8287 3.38265 -0.190274 0
M  V30 110 C 10.3877 3.75914 0.191164 0
M  V30 111 C 9.5347 2.71926 -0.543273 0
M  V30 112 H 12.4857 1.39561 -0.755537 0
M  V30 113 H 12.5067 3.75831 0.594217 0
M  V30 114 H 12.0187 3.6813 -1.2289 0
M  V30 115 H 10.1197 3.51665 1.23136 0
M  V30 116 H 10.2327 4.78836 -0.158987 0
M  V30 117 H 8.5967 2.54697 0.0122495 0
M  V30 118 H 9.3797 3.04634 -1.58282 0
M  V30 119 N 11.8248 0.280983 1.55075 0
M  V30 120 C 12.7548 -0.597469 2.25727 0
M  V30 121 C 13.7358 -1.15417 1.24952 0
M  V30 122 O 14.9208 -1.18722 1.53684 0
M  V30 123 C 12.0508 -1.7789 2.98283 0
M  V30 124 C 11.0048 -1.35347 4.06036 0
M  V30 125 C 10.3308 -2.61846 4.66198 0
M  V30 126 C 11.6308 -0.499354 5.19907 0
M  V30 127 H 13.3248 -0.00824265 2.99399 0
M  V30 128 H 10.8708 -0.0025244 1.44 0
M  V30 129 H 12.8238 -2.39937 3.46422 0
M  V30 130 H 11.5478 -2.39405 2.22155 0
M  V30 131 H 10.2068 -0.756156 3.58717 0
M  V30 132 H 9.8548 -3.21632 3.86732 0
M  V30 133 H 9.5548 -2.3409 5.38958 0
M  V30 134 H 11.0788 -3.24732 5.1709 0
M  V30 135 H 12.4928 -1.02498 5.64063 0
M  V30 136 H 10.8898 -0.316424 5.99265 0
M  V30 137 H 11.9598 0.480459 4.82514 0
M  V30 138 N 13.3029 -1.57598 0.00835791 0
M  V30 139 C 14.5489 -1.91211 -0.675732 0
M  V30 140 C 14.8819 -0.883139 -1.72958 0
M  V30 141 O 14.1569 0.097016 -1.94258 0
M  V30 142 C 14.4399 -3.35379 -1.31123 0
M  V30 143 C 14.2929 -4.48999 -0.268356 0
M  V30 144 C 15.6119 -3.7912 -2.23508 0
M  V30 145 H 12.7309 -0.695374 -0.244179 0
M  V30 146 H 15.3729 -1.89901 0.0613655 0
M  V30 147 H 13.5229 -3.36626 -1.93946 0
M  V30 148 H 15.1949 -4.59887 0.360844 0
M  V30 149 H 13.4379 -4.31873 0.408482 0
M  V30 150 H 14.1089 -5.46851 -0.752218 0
M  V30 151 H 16.5849 -3.79477 -1.70693 0
M  V30 152 H 15.4609 -4.80729 -2.64936 0
M  V30 153 H 15.7219 -3.13455 -3.11766 0
M  V30 154 N 14.781 0.264519 -1.55364 0
M  V30 155 C 16.027 0.99646 -1.76631 0
M  V30 156 C 16.36 1.85632 -0.570478 0
M  V30 157 O 15.635 1.89647 0.43175 0
M  V30 158 C 15.918 1.87187 -3.07625 0
M  V30 159 C 15.771 1.04138 -4.37579 0
M  V30 160 C 17.09 2.85749 -3.34717 0
M  V30 161 H 14.209 0.360841 -0.642622 0
M  V30 162 H 16.851 0.268218 -1.88097 0
M  V30 163 H 15.001 2.49279 -2.9798 0
M  V30 164 H 16.673 0.440517 -4.59192 0
M  V30 165 H 14.916 0.345115 -4.32425 0
M  V30 166 H 15.587 1.68729 -5.2558 0
M  V30 167 H 18.063 2.33793 -3.4421 0
M  V30 168 H 16.939 3.44136 -4.27623 0
M  V30 169 H 17.2 3.61311 -2.54768 0
M  V30 170 N 16.2591 1.48442 0.529413 0
M  V30 171 C 17.1691 1.6569 1.66084 0
M  V30 172 C 18.1851 0.539432 1.65427 0
M  V30 173 O 19.3611 0.810572 1.84368 0
M  V30 174 C 16.4261 1.69315 3.02545 0
M  V30 175 C 15.4871 2.92694 3.14052 0
M  V30 176 C 14.7201 2.96137 4.44003 0
M  V30 177 O 14.9431 2.07973 5.31134 0
M  V30 178 O 13.8771 3.88312 4.59888 0
M  V30 179 H 17.7031 2.61483 1.54469 0
M  V30 180 H 15.2881 1.3185 0.702567 0
M  V30 181 H 17.1701 1.74217 3.83701 0
M  V30 182 H 15.8451 0.766966 3.14483 0
M  V30 183 H 14.7521 2.93324 2.32189 0
M  V30 184 H 16.0851 3.84699 3.0703 0
M  V30 185 N 17.7372 -0.778329 1.37039 0
M  V30 186 C 18.9852 -1.53361 1.31623 0
M  V30 187 C 19.3062 -1.94739 -0.100831 0
M  V30 188 O 18.5762 -1.65797 -1.04347 0
M  V30 189 H 17.1562 -0.568794 0.484234 0
M  V30 190 H 19.8182 -0.926742 1.71457 0
M  V30 191 H 18.9142 -2.43606 1.95096 0
M  V30 192 N 19.2153 -1.21501 -1.00376 0
M  V30 193 C 20.1623 -0.975387 -2.09177 0
M  V30 194 C 21.1323 0.0990615 -1.65804 0
M  V30 195 O 22.3173 -0.0483147 -1.90739 0
M  V30 196 C 19.4573 -0.547507 -3.40729 0
M  V30 197 C 18.5703 -1.69153 -3.97506 0
M  V30 198 C 17.7053 -1.2127 -5.17172 0
M  V30 199 C 16.7443 -2.32897 -5.66061 0
M  V30 200 N 15.8813 -1.86138 -6.76976 0
M  V30 201 H 20.7213 -1.9068 -2.29009 0
M  V30 202 H 18.2583 -0.950257 -1.12288 0
M  V30 203 H 20.2163 -0.280667 -4.16255 0
M  V30 204 H 18.8463 0.346904 -3.20931 0
M  V30 205 H 17.8983 -2.07298 -3.18954 0
M  V30 206 H 19.2103 -2.5316 -4.29781 0
M  V30 207 H 18.3643 -0.902591 -5.99948 0
M  V30 208 H 17.1033 -0.342692 -4.86495 0
M  V30 209 H 16.1083 -2.64709 -4.81881 0
M  V30 210 H 17.3333 -3.20396 -5.98768 0
M  V30 211 H 15.2793 -1.01484 -6.48103 0
M  V30 212 H 15.1963 -2.63717 -7.08512 0
M  V30 213 H 16.4643 -1.58165 -7.63285 0
M  V30 214 N 20.6934 1.19889 -1.02296 0
M  V30 215 C 21.6234 2.25141 -0.619174 0
M  V30 216 C 22.6044 1.66051 0.368915 0
M  V30 217 O 23.7894 1.92546 0.252941 0
M  V30 218 C 20.9194 3.4728 0.0368783 0
M  V30 219 C 19.8734 4.19005 -0.872865 0
M  V30 220 C 19.1994 5.34637 -0.0822402 0
M  V30 221 C 20.4994 4.74452 -2.18387 0
M  V30 222 H 22.1934 2.59171 -1.49903 0
M  V30 223 H 19.7394 1.24579 -0.722222 0
M  V30 224 H 21.6924 4.20098 0.330958 0
M  V30 225 H 20.4164 3.12433 0.95149 0
M  V30 226 H 19.0754 3.48061 -1.15105 0
M  V30 227 H 18.7234 4.96034 0.83422 0
M  V30 228 H 18.4234 5.83557 -0.688149 0
M  V30 229 H 19.9474 6.10255 0.205238 0
M  V30 230 H 21.3614 5.39055 -1.95172 0
M  V30 231 H 19.7584 5.33834 -2.74119 0
M  V30 232 H 20.8284 3.92844 -2.84257 0
M  V30 233 N 22.1715 0.800033 1.35784 0
M  V30 234 C 23.3995 0.389606 2.03199 0
M  V30 235 C 23.8145 -0.997375 1.60306 0
M  V30 236 O 23.1715 -1.64154 0.797481 0
M  V30 237 C 23.2225 0.455855 3.58614 0
M  V30 238 O 22.9435 1.78815 3.99946 0
M  V30 239 C 24.4445 0.0374032 4.43284 0
M  V30 240 H 21.6645 0.159132 0.651857 0
M  V30 241 H 24.2085 1.08183 1.73541 0
M  V30 242 H 22.3635 -0.188057 3.86943 0
M  V30 243 H 22.7775 1.74636 4.94573 0
M  V30 244 H 24.2515 0.134882 5.51835 0
M  V30 245 H 24.7285 -1.01651 4.27275 0
M  V30 246 H 25.3345 0.654215 4.20238 0
M  V30 247 N 23.6496 -1.47581 0.552962 0
M  V30 248 C 24.9266 -1.95563 -0.0381515 0
M  V30 249 C 25.3066 -1.49552 -1.48988 0
M  V30 250 O 24.6546 -0.732414 -2.16444 0
M  V30 251 C 24.8646 -3.48848 0.102919 0
M  V30 252 C 26.2126 -4.24577 -0.0446082 0
M  V30 253 O 27.2366 -3.56187 0.0302548 0
M  V30 254 O 26.0956 -5.46116 -0.204923 0
M  V30 255 H 23.1896 -0.824321 -0.0665067 0
M  V30 256 H 25.7356 -1.58001 0.619186 0
M  V30 257 H 24.5076 -3.75129 1.11328 0
M  V30 258 H 24.1306 -3.93165 -0.592224 0
M  V30 259 N 25.1277 -0.289203 -1.54924 0
M  V30 260 C 26.0907 0.579144 -2.21762 0
M  V30 261 C 27.0907 1.07047 -1.1999 0
M  V30 262 O 28.2807 0.968384 -1.44803 0
M  V30 263 C 25.4127 1.80055 -2.8947 0
M  V30 264 H 26.6057 -0.00464908 -2.999 0
M  V30 265 H 24.1587 -0.0399306 -1.56249 0
M  V30 266 H 24.8937 2.42449 -2.15381 0
M  V30 267 H 24.6787 1.45602 -3.64064 0
M  V30 268 H 26.1687 2.41773 -3.40493 0
M  V30 269 N 26.6058 1.57591 -0.0167156 0
M  V30 270 C 27.5158 2.1291 0.98521 0
M  V30 271 C 28.5318 1.07834 1.36557 0
M  V30 272 O 29.7078 1.39826 1.44951 0
M  V30 273 C 26.7728 2.63512 2.25305 0
M  V30 274 C 25.8338 3.83256 1.93426 0
M  V30 275 C 25.0668 4.31435 3.14165 0
M  V30 276 O 25.2898 3.78851 4.26413 0
M  V30 277 O 24.2238 5.23416 2.97186 0
M  V30 278 H 28.0498 2.98772 0.544888 0
M  V30 279 H 25.6348 1.48012 0.203141 0
M  V30 280 H 27.5168 2.96183 2.99756 0
M  V30 281 H 26.1918 1.8074 2.68542 0
M  V30 282 H 25.0988 3.55531 1.16398 0
M  V30 283 H 26.4318 4.67153 1.55013 0
M  V30 284 N 28.0839 -0.256276 1.55502 0
M  V30 285 C 29.4999 -0.604325 1.47716 0
M  V30 286 C 29.6999 -1.88763 0.705039 0
M  V30 287 O 28.7559 -2.51445 0.230613 0
M  V30 288 C 30.0689 -0.715756 2.92057 0
M  V30 289 C 31.6169 -0.808706 3.02372 0
M  V30 290 C 32.0919 -0.951777 4.48001 0
M  V30 291 N 33.5829 -1.01688 4.519 0
M  V30 292 C 34.3179 -1.14668 5.61817 0
M  V30 293 N 33.8139 -1.24261 6.81565 0
M  V30 294 N 35.6069 -1.1791 5.49594 0
M  V30 295 H 27.7579 0.586291 2.04148 0
M  V30 296 H 30.0209 0.201015 0.926443 0
M  V30 297 H 29.7269 0.157027 3.51349 0
M  V30 298 H 29.6009 -1.59071 3.42018 0
M  V30 299 H 31.9879 -1.67195 2.43166 0
M  V30 300 H 32.0689 0.0912063 2.55637 0
M  V30 301 H 31.7129 -0.0931291 5.07815 0
M  V30 302 H 31.6429 -1.86659 4.92408 0
M  V30 303 H 34.1339 -0.954468 3.65648 0
M  V30 304 H 34.4469 -1.34046 7.61086 0
M  V30 305 H 32.7919 -1.21236 6.84344 0
M  V30 306 H 35.9829 -1.10057 4.54978 0
M  V30 307 H 36.1559 -1.27681 6.35296 0
M  V30 308 N 29.562 -1.4872 -0.521534 0
M  V30 309 C 30.495 -1.58451 -1.64221 0
M  V30 310 C 31.473 -0.434513 -1.56687 0
M  V30 311 O 32.657 -0.647275 -1.77038 0
M  V30 312 C 29.784 -1.52037 -3.02659 0
M  V30 313 C 28.83 -2.71981 -3.28525 0
M  V30 314 S 29.663 -4.33869 -3.13876 0
M  V30 315 C 30.819 -4.30067 -4.54745 0
M  V30 316 H 31.052 -2.53256 -1.55719 0
M  V30 317 H 28.585 -1.37358 -0.705143 0
M  V30 318 H 30.543 -1.49023 -3.82495 0
M  V30 319 H 29.204 -0.585541 -3.08594 0
M  V30 320 H 28.397 -2.63656 -4.29536 0
M  V30 321 H 27.999 -2.72302 -2.56374 0
M  V30 322 H 30.291 -4.00521 -5.46433 0
M  V30 323 H 31.234 -5.31287 -4.68123 0
M  V30 324 H 31.642 -3.60419 -4.34463 0
M  V30 325 N 31.0401 0.771051 -1.3745 0
M  V30 326 C 31.9871 1.88435 -1.3327 0
M  V30 327 C 32.9571 1.64914 -0.198136 0
M  V30 328 O 34.1421 1.86821 -0.387606 0
M  V30 329 C 31.2821 3.25509 -1.14622 0
M  V30 330 C 30.3951 3.60979 -2.37314 0
M  V30 331 C 29.5301 4.87265 -2.11533 0
M  V30 332 C 28.5691 5.15469 -3.30088 0
M  V30 333 N 27.7061 6.32944 -3.03853 0
M  V30 334 H 32.5461 1.91344 -2.28455 0
M  V30 335 H 30.0831 0.935466 -1.13523 0
M  V30 336 H 32.0411 4.04582 -1.01831 0
M  V30 337 H 30.6711 3.21974 -0.230837 0
M  V30 338 H 29.7231 2.76885 -2.60842 0
M  V30 339 H 31.0351 3.77759 -3.25729 0
M  V30 340 H 30.1891 5.74244 -1.95777 0
M  V30 341 H 28.9281 4.7259 -1.20457 0
M  V30 342 H 27.9331 4.26966 -3.46382 0
M  V30 343 H 29.1581 5.32052 -4.22016 0
M  V30 344 H 27.1041 6.19625 -2.15407 0
M  V30 345 H 27.0211 6.50143 -3.85812 0
M  V30 346 H 28.2891 7.22857 -2.91716 0
M  V30 347 N 32.5182 1.22032 0.997298 0
M  V30 348 C 33.4682 0.953838 2.07089 0
M  V30 349 C 34.4522 -0.0938669 1.60626 0
M  V30 350 O 35.6442 0.116078 1.76619 0
M  V30 351 C 32.7732 0.528726 3.39204 0
M  V30 352 C 31.8592 1.61092 3.92314 0
M  V30 353 N 32.2502 2.83768 4.18699 0
M  V30 354 C 30.5482 1.48158 4.20672 0
M  V30 355 C 31.2492 3.53715 4.61802 0
M  V30 356 N 30.2252 2.81174 4.65233 0
M  V30 357 H 34.0272 1.88577 2.25424 0
M  V30 358 H 31.5412 1.11719 1.17867 0
M  V30 359 H 33.5382 0.31915 4.15677 0
M  V30 360 H 32.1982 -0.39635 3.22272 0
M  V30 361 H 33.2092 3.20238 4.07023 0
M  V30 362 H 29.8862 0.622369 4.12835 0
M  V30 363 H 31.2762 4.58793 4.90875 0
M  V30 364 N 33.9963 -1.19345 1.0293 0
M  V30 365 C 34.9063 -2.26245 0.620515 0
M  V30 366 C 35.9223 -1.70486 -0.347928 0
M  V30 367 O 37.0983 -2.00347 -0.205704 0
M  V30 368 C 34.1633 -3.46693 -0.0218957 0
M  V30 369 C 33.2243 -4.17632 0.994102 0
M  V30 370 C 32.4573 -5.32329 0.382253 0
M  V30 371 O 32.6803 -5.64552 -0.814676 0
M  V30 372 O 31.6143 -5.91664 1.10531 0
M  V30 373 H 35.4403 -2.63453 1.51083 0
M  V30 374 H 33.0253 -1.26207 0.799513 0
M  V30 375 H 34.9073 -4.19683 -0.380072 0
M  V30 376 H 33.5823 -3.11333 -0.886209 0
M  V30 377 H 32.4893 -3.4676 1.40387 0
M  V30 378 H 33.8223 -4.56964 1.8288 0
M  V30 379 N 35.4744 -0.807222 -1.35358 0
M  V30 380 C 36.6994 -0.399309 -2.0352 0
M  V30 381 C 37.1244 0.981986 -1.60433 0
M  V30 382 O 36.4824 1.63601 -0.781299 0
M  V30 383 C 36.5304 -0.491552 -3.57234 0
M  V30 384 O 35.6344 0.494754 -4.09421 0
M  V30 385 H 34.9754 -0.166682 -0.642739 0
M  V30 386 H 37.5054 -1.09328 -1.72941 0
M  V30 387 H 37.5154 -0.361588 -4.06395 0
M  V30 388 H 36.1904 -1.49907 -3.87944 0
M  V30 389 H 34.7674 0.324977 -3.71481 0
M  V30 390 N 36.9525 1.47285 -0.560781 0
M  V30 391 C 37.9005 2.31756 0.197942 0
M  V30 392 C 38.8945 1.43146 0.905854 0
M  V30 393 O 40.1005 1.59891 0.826733 0
M  V30 394 H 36.4755 0.747438 0.0827049 0
M  V30 395 H 38.4465 2.9359 -0.533629 0
M  V30 396 C 37.1955 3.25874 1.21249 0
M  V30 397 H 36.5185 3.94023 0.67719 0
M  V30 398 H 37.9585 3.87803 1.71419 0
M  V30 399 C 36.4175 2.49651 2.26221 0
M  V30 400 O 36.9475 2.24355 3.33208 0
M  V30 401 N 35.1535 2.10597 2.00243 0
M  V30 402 H 34.7005 2.31369 1.13252 0
M  V30 403 H 34.6585 1.59913 2.70694 0
M  V30 404 N 38.4306 0.297415 1.54768 0
M  V30 405 C 39.6606 -0.315165 2.04182 0
M  V30 406 C 40.0686 -1.4834 1.17439 0
M  V30 407 O 39.4116 -1.82695 0.191891 0
M  V30 408 C 39.4736 -0.837583 3.49607 0
M  V30 409 C 39.1376 0.204912 4.5654 0
M  V30 410 C 40.1346 1.03214 5.09552 0
M  V30 411 C 37.8196 0.345578 5.0111 0
M  V30 412 C 39.8136 1.986 6.05671 0
M  V30 413 C 37.5006 1.30289 5.97049 0
M  V30 414 C 38.4986 2.12159 6.49213 0
M  V30 415 O 38.1866 3.06268 7.43273 0
M  V30 416 H 37.9186 -0.0729646 0.672051 0
M  V30 417 H 40.4726 0.433907 2.00765 0
M  V30 418 H 38.7026 -1.63712 3.50336 0
M  V30 419 H 40.3916 -1.36566 3.82236 0
M  V30 420 H 41.1576 0.934312 4.75916 0
M  V30 421 H 37.0366 -0.28171 4.60138 0
M  V30 422 H 40.5806 2.62542 6.46311 0
M  V30 423 H 36.4776 1.40145 6.30103 0
M  V30 424 H 37.2456 3.01205 7.61064 0
M  V30 425 N 39.9087 -1.5758 0.0250728 0
M  V30 426 C 40.8387 -2.13007 -0.956575 0
M  V30 427 C 41.8197 -1.0452 -1.342 0
M  V30 428 O 43.0047 -1.32332 -1.42133 0
M  V30 429 C 40.1347 -2.65386 -2.24026 0
M  V30 430 C 39.0887 -3.78623 -1.99571 0
M  V30 431 C 38.4147 -4.17414 -3.3417 0
M  V30 432 C 39.7147 -5.04867 -1.33814 0
M  V30 433 H 41.4087 -2.9528 -0.494991 0
M  V30 434 H 38.9547 -1.42042 -0.236651 0
M  V30 435 H 40.9077 -3.02794 -2.93076 0
M  V30 436 H 39.6317 -1.80268 -2.72343 0
M  V30 437 H 38.2907 -3.41646 -1.32941 0
M  V30 438 H 37.9387 -3.29284 -3.80238 0
M  V30 439 H 37.6387 -4.93719 -3.18615 0
M  V30 440 H 39.1627 -4.57402 -4.04495 0
M  V30 441 H 40.5767 -5.39888 -1.92857 0
M  V30 442 H 38.9737 -5.86144 -1.28669 0
M  V30 443 H 40.0437 -4.83904 -0.310561 0
M  V30 444 N 41.3868 0.248026 -1.55636 0
M  V30 445 C 42.8028 0.596483 -1.48035 0
M  V30 446 C 43.0028 1.88386 -0.715039 0
M  V30 447 O 42.0588 2.51319 -0.243944 0
M  V30 448 C 43.3718 0.700258 -2.92433 0
M  V30 449 C 44.9198 0.792659 -3.02797 0
M  V30 450 C 45.3948 0.928005 -4.485 0
M  V30 451 N 46.8858 0.992903 -4.52433 0
M  V30 452 C 47.6208 1.11687 -5.62418 0
M  V30 453 N 47.1168 1.20645 -6.82214 0
M  V30 454 N 48.9098 1.14994 -5.50212 0
M  V30 455 H 41.0608 -0.597109 -2.03834 0
M  V30 456 H 43.3238 -0.205925 -0.925364 0
M  V30 457 H 43.0298 -0.175658 -3.51261 0
M  V30 458 H 42.9038 1.57255 -3.42857 0
M  V30 459 H 45.2908 1.65903 -2.4405 0
M  V30 460 H 45.3718 -0.104762 -2.55585 0
M  V30 461 H 45.0158 0.0661971 -5.07857 0
M  V30 462 H 44.9458 1.84045 -4.93391 0
M  V30 463 H 47.4368 0.935064 -3.66149 0
M  V30 464 H 47.7498 1.30008 -7.61786 0
M  V30 465 H 46.0948 1.17605 -6.84977 0
M  V30 466 H 49.2858 1.07643 -4.55555 0
M  V30 467 H 49.4588 1.24311 -6.35965 0
M  V30 468 N 42.8649 1.48995 0.513639 0
M  V30 469 C 44.1129 1.57531 1.26604 0
M  V30 470 C 44.4339 0.258236 1.93283 0
M  V30 471 O 43.7039 -0.721502 1.8213 0
M  V30 472 H 42.2839 0.580387 0.470276 0
M  V30 473 H 44.9459 1.85552 0.596373 0
M  V30 474 H 44.0419 2.36486 2.03669 0
M  V30 475 N 44.343 -0.763751 1.37857 0
M  V30 476 C 45.571 -1.55293 1.36718 0
M  V30 477 C 45.986 -1.88745 -0.0455434 0
M  V30 478 O 45.343 -1.52039 -1.00947 0
M  V30 479 C 45.394 -2.85831 2.2132 0
M  V30 480 O 45.115 -2.5381 3.57089 0
M  V30 481 C 46.616 -3.80023 2.28249 0
M  V30 482 H 43.836 -0.480841 0.468009 0
M  V30 483 H 46.38 -0.946009 1.81303 0
M  V30 484 H 44.535 -3.42926 1.80223 0
M  V30 485 H 44.949 -3.37459 4.01524 0
M  V30 486 H 46.423 -4.68599 2.91752 0
M  V30 487 H 46.9 -4.1973 1.2932 0
M  V30 488 H 47.506 -3.28855 2.69693 0
M  V30 489 N 45.8211 -1.22559 -0.990812 0
M  V30 490 C 47.0701 -1.04553 -1.72486 0
M  V30 491 C 47.3831 0.419349 -1.91052 0
M  V30 492 O 48.5891 0.719121 -2.61803 0
M  V30 493 C 47.0451 -1.82231 -3.10355 0
M  V30 494 C 46.6531 -3.32981 -2.99713 0
M  V30 495 C 48.3971 -1.7268 -3.87791 0
M  V30 496 C 46.3041 -4.03091 -4.32748 0
M  V30 497 H 45.2341 -0.387614 -0.646739 0
M  V30 498 H 47.8851 -1.46429 -1.10593 0
M  V30 499 H 46.2671 -1.33155 -3.72942 0
M  V30 500 H 47.4411 -3.89466 -2.46278 0
M  V30 501 H 45.7561 -3.43231 -2.35758 0
M  V30 502 H 48.3531 -2.22381 -4.86262 0
M  V30 503 H 48.6961 -0.687607 -4.10582 0
M  V30 504 H 49.2291 -2.1931 -3.31885 0
M  V30 505 H 45.9681 -5.07273 -4.15156 0
M  V30 506 H 45.4881 -3.51394 -4.86089 0
M  V30 507 H 47.1671 -4.08804 -5.01486 0
M  V30 508 N 47.2992 1.18797 -1.03562 0
M  V30 509 C 48.2622 2.20464 -0.626769 0
M  V30 510 C 49.2622 1.57721 0.313173 0
M  V30 511 O 50.4522 1.73917 0.0992615 0
M  V30 512 C 47.5842 3.40802 0.0818498 0
M  V30 513 H 48.7772 2.58149 -1.5264 0
M  V30 514 H 46.3302 1.32593 -0.827578 0
M  V30 515 H 47.0652 3.08642 0.995518 0
M  V30 516 H 46.8502 3.8758 -0.593652 0
M  V30 517 H 48.3402 4.16092 0.354584 0
M  V30 518 N 48.7773 0.814389 1.34928 0
M  V30 519 C 49.6873 0.231978 2.3345 0
M  V30 520 C 50.7033 -0.629139 1.62228 0
M  V30 521 O 51.8793 -0.539052 1.94052 0
M  V30 522 C 48.9443 -0.603482 3.41407 0
M  V30 523 C 48.0053 0.279037 4.28392 0
M  V30 524 C 47.2383 -0.516643 5.31193 0
M  V30 525 O 47.4613 -1.75068 5.4287 0
M  V30 526 O 46.3953 0.0965652 6.01823 0
M  V30 527 H 50.2213 1.04721 2.85074 0
M  V30 528 H 47.8063 0.576343 1.37836 0
M  V30 529 H 49.6883 -1.07908 4.0735 0
M  V30 530 H 48.3633 -1.39618 2.92042 0
M  V30 531 H 47.2703 0.801948 3.65403 0
M  V30 532 H 48.6033 1.03588 4.81176 0
M  V30 533 N 50.2554 -1.46986 0.568584 0
M  V30 534 C 51.5324 -1.95592 -0.0174074 0
M  V30 535 C 51.9124 -1.51124 -1.47393 0
M  V30 536 O 51.2604 -0.755329 -2.15655 0
M  V30 537 C 51.4704 -3.48719 0.139913 0
M  V30 538 C 52.8184 -4.246 0.000426376 0
M  V30 539 O 53.8424 -3.56135 0.0680316 0
M  V30 540 O 52.7014 -5.46302 -0.146988 0
M  V30 541 H 49.7954 -0.82498 -0.0577599 0
M  V30 542 H 52.3414 -1.57335 0.635909 0
M  V30 543 H 51.1134 -3.73927 1.15301 0
M  V30 544 H 50.7364 -3.93771 -0.550491 0
M  V30 545 N 51.7335 -0.305618 -1.54608 0
M  V30 546 C 52.6635 0.561482 -2.26649 0
M  V30 547 C 53.6445 1.13415 -1.26772 0
M  V30 548 O 54.8295 1.16262 -1.55553 0
M  V30 549 C 51.9595 1.73122 -3.01075 0
M  V30 550 C 50.9135 1.2887 -4.08138 0
M  V30 551 C 50.2395 2.54396 -4.70305 0
M  V30 552 C 51.5395 0.416578 -5.20636 0
M  V30 553 H 53.2335 -0.0393902 -2.99374 0
M  V30 554 H 50.7795 -0.020385 -1.43986 0
M  V30 555 H 52.7325 2.34396 -3.50195 0
M  V30 556 H 51.4565 2.3584 -2.25936 0
M  V30 557 H 50.1155 0.698991 -3.59875 0
M  V30 558 H 49.7635 3.15439 -3.918 0
M  V30 559 H 49.4635 2.25486 -5.42614 0
M  V30 560 H 50.9875 3.16464 -5.2219 0
M  V30 561 H 52.4015 0.935116 -5.65622 0
M  V30 562 H 50.7985 0.221046 -5.99693 0
M  V30 563 H 51.8685 -0.557162 -4.81688 0
M  V30 564 N 53.2116 1.57565 -0.0334293 0
M  V30 565 C 54.1596 2.1164 0.96496 0
M  V30 566 C 55.1536 1.04398 1.33407 0
M  V30 567 O 56.3596 1.22828 1.3158 0
M  V30 568 H 52.7346 0.676222 0.32898 0
M  V30 569 H 54.7056 2.94455 0.483614 0
M  V30 570 C 53.4546 2.66207 2.23672 0
M  V30 571 H 52.7776 3.48378 1.96145 0
M  V30 572 H 54.2176 3.07685 2.9173 0
M  V30 573 C 52.6766 1.59151 2.96939 0
M  V30 574 O 53.2066 0.993858 3.89211 0
M  V30 575 N 51.4126 1.31093 2.59351 0
M  V30 576 H 50.9596 1.7988 1.84393 0
M  V30 577 H 50.9176 0.596889 3.08682 0
M  V30 578 N 54.6897 -0.239769 1.55765 0
M  V30 579 C 55.9667 -0.990056 1.68693 0
M  V30 580 C 56.3467 -2.03107 0.5754 0
M  V30 581 O 55.6947 -2.24604 -0.42017 0
M  V30 582 C 55.9047 -1.61696 3.09282 0
M  V30 583 C 57.2527 -2.11613 3.6811 0
M  V30 584 O 58.2767 -1.71624 3.12127 0
M  V30 585 O 57.1357 -2.85057 4.66267 0
M  V30 586 H 54.2297 -0.461299 0.686391 0
M  V30 587 H 56.7757 -0.232991 1.68093 0
M  V30 588 H 55.5477 -0.864357 3.81634 0
M  V30 589 H 55.1707 -2.44005 3.13923 0
M  V30 590 N 56.1678 -1.49265 -0.50573 0
M  V30 591 C 57.4158 -1.582 -1.25766 0
M  V30 592 C 57.7368 -0.268482 -1.93143 0
M  V30 593 O 57.0068 0.711833 -1.8251 0
M  V30 594 H 55.5868 -0.582873 -0.467191 0
M  V30 595 H 58.2488 -1.85865 -0.586525 0
M  V30 596 H 57.3448 -2.37563 -2.02412 0
M  V30 597 N 57.6459 0.756429 -1.3826 0
M  V30 598 C 58.5759 1.88374 -1.37976 0
M  V30 599 C 59.5569 1.68311 -0.246082 0
M  V30 600 O 60.7419 1.88944 -0.44874 0
M  V30 601 C 57.8719 3.25864 -1.20125 0
M  V30 602 C 56.8259 3.60523 -2.30666 0
M  V30 603 C 56.1519 4.9672 -1.97923 0
M  V30 604 C 57.4519 3.65692 -3.72916 0
M  V30 605 H 59.1459 1.88869 -2.32312 0
M  V30 606 H 56.6919 0.907272 -1.11824 0
M  V30 607 H 58.6449 4.0438 -1.18552 0
M  V30 608 H 57.3689 3.25841 -0.222498 0
M  V30 609 H 56.0279 2.84324 -2.3142 0
M  V30 610 H 55.6759 4.93253 -0.985393 0
M  V30 611 H 55.3759 5.20878 -2.71955 0
M  V30 612 H 56.8999 5.77618 -1.97964 0
M  V30 613 H 58.3139 4.34328 -3.74208 0
M  V30 614 H 56.7109 4.01358 -4.4613 0
M  V30 615 H 57.7809 2.65987 -4.05436 0
M  V30 616 N 59.124 1.23083 0.984299 0
M  V30 617 C 60.352 1.08714 1.76037 0
M  V30 618 C 60.767 -0.361691 1.85303 0
M  V30 619 O 60.124 -1.25034 1.32939 0
M  V30 620 C 60.175 1.70206 3.18923 0
M  V30 621 O 59.896 3.09423 3.10144 0
M  V30 622 C 61.397 1.61227 4.12941 0
M  V30 623 H 58.617 0.380664 0.552572 0
M  V30 624 H 61.161 1.62853 1.23689 0
M  V30 625 H 59.316 1.20109 3.6831 0
M  V30 626 H 59.73 3.39188 4.00065 0
M  V30 627 H 61.204 2.08962 5.10919 0
M  V30 628 H 61.681 0.570375 4.35481 0
M  V30 629 H 62.287 2.10671 3.69456 0
M  V30 630 N 60.6021 -1.18246 1.0419 0
M  V30 631 C 61.8501 -1.87886 0.744543 0
M  V30 632 C 62.1711 -1.8082 -0.730006 0
M  V30 633 O 61.4411 -1.22736 -1.52685 0
M  V30 634 H 60.0211 -0.695556 0.272417 0
M  V30 635 H 62.6831 -1.43494 1.31892 0
M  V30 636 H 61.7791 -2.9389 1.05049 0
M  V30 637 N 62.0802 -0.821533 -1.34494 0
M  V30 638 C 63.3282 -0.408139 -1.97936 0
M  V30 639 C 63.6492 1.03193 -1.65457 0
M  V30 640 O 62.9192 1.71622 -0.944595 0
M  V30 641 H 61.4992 -0.147928 -0.732206 0
M  V30 642 H 64.1612 -1.05067 -1.64155 0
M  V30 643 H 63.2572 -0.52601 -3.07635 0
M  V30 644 N 63.5583 1.46682 -0.576371 0
M  V30 645 C 64.8053 2.02412 -0.0595339 0
M  V30 646 C 65.1333 1.44859 1.29793 0
M  V30 647 O 64.3883 0.601099 1.8624 0
M  V30 648 C 64.6873 3.57345 0.062886 0
M  V30 649 C 64.3533 4.33908 -1.22616 0
M  V30 650 C 63.0153 4.54544 -1.57933 0
M  V30 651 C 65.3673 4.77919 -2.07948 0
M  V30 652 C 62.6953 5.16444 -2.78393 0
M  V30 653 C 65.0473 5.41149 -3.27629 0
M  V30 654 C 63.7113 5.60014 -3.63236 0
M  V30 655 H 62.9813 0.74068 -0.021785 0
M  V30 656 H 65.6283 1.76128 -0.751735 0
M  V30 657 H 63.9333 3.82729 0.838178 0
M  V30 658 H 65.6303 3.98136 0.478439 0
M  V30 659 H 62.2203 4.18138 -0.941202 0
M  V30 660 H 66.4043 4.61738 -1.81967 0
M  V30 661 H 61.6603 5.29242 -3.06126 0
M  V30 662 H 65.8343 5.74211 -3.94023 0
M  V30 663 H 63.4613 6.07748 -4.56669 0
M  V30 664 N 65.0364 0.313813 1.54444 0
M  V30 665 C 65.9834 -0.55655 2.23989 0
M  V30 666 C 66.9534 -1.11943 1.22711 0
M  V30 667 O 68.1384 -1.16158 1.51367 0
M  V30 668 C 65.2784 -1.71635 2.99392 0
M  V30 669 C 64.3914 -1.18364 4.15468 0
M  V30 670 C 63.5264 -2.30834 4.78424 0
M  V30 671 C 62.5654 -1.74762 5.86622 0
M  V30 672 N 61.7024 -2.80855 6.43479 0
M  V30 673 H 66.5424 0.0430893 2.97969 0
M  V30 674 H 64.0794 0.0330359 1.47063 0
M  V30 675 H 66.0374 -2.39868 3.41349 0
M  V30 676 H 64.6674 -2.28742 2.27765 0
M  V30 677 H 63.7194 -0.393163 3.78363 0
M  V30 678 H 65.0314 -0.733262 4.93381 0
M  V30 679 H 64.1854 -3.0699 5.23299 0
M  V30 680 H 62.9244 -2.79204 3.99871 0
M  V30 681 H 61.9294 -0.970995 5.41158 0
M  V30 682 H 63.1544 -1.2728 6.67066 0
M  V30 683 H 61.1004 -3.28535 5.67804 0
M  V30 684 H 61.0174 -2.40351 7.16776 0
M  V30 685 H 62.2854 -3.5687 6.93011 0
M  V30 686 N 66.5145 -1.57545 0.0417849 0
M  V30 687 C 67.7625 -1.91937 -0.632829 0
M  V30 688 C 68.0835 -0.919978 -1.71934 0
M  V30 689 O 67.3535 0.0366064 -1.95866 0
M  V30 690 H 65.9335 -0.708493 -0.236742 0
M  V30 691 H 68.5955 -1.9468 0.0925745 0
M  V30 692 H 67.6915 -2.92912 -1.07746 0
M  V30 693 N 67.9926 0.231505 -1.5589 0
M  V30 694 C 69.2696 0.981096 -1.69215 0
M  V30 695 C 69.6496 2.02799 -0.586164 0
M  V30 696 O 68.9976 2.24823 0.408253 0
M  V30 697 C 69.2076 1.60054 -3.10135 0
M  V30 698 C 70.5556 2.09658 -3.69227 0
M  V30 699 O 71.5796 1.69967 -3.13033 0
M  V30 700 O 70.4386 2.8258 -4.67772 0
M  V30 701 H 67.5326 0.457653 -0.688827 0
M  V30 702 H 70.0786 0.224073 -1.68214 0
M  V30 703 H 68.8506 0.844105 -3.82087 0
M  V30 704 H 68.4736 2.42336 -3.15212 0
M  V30 705 N 69.4707 1.49531 0.497807 0
M  V30 706 C 70.4187 1.66926 1.61983 0
M  V30 707 C 71.4127 0.535167 1.60724 0
M  V30 708 O 72.6187 0.714896 1.65195 0
M  V30 709 H 68.9937 0.526415 0.537021 0
M  V30 710 H 70.9647 2.61098 1.44465 0
M  V30 711 C 69.7137 1.75602 3.00099 0
M  V30 712 H 69.0367 2.62244 3.01775 0
M  V30 713 H 70.4767 1.91807 3.78135 0
M  V30 714 C 68.9357 0.501543 3.33146 0
M  V30 715 O 69.4657 -0.371342 3.9998 0
M  V30 716 N 67.6717 0.363531 2.88317 0
M  V30 717 H 67.2187 1.07485 2.34104 0
M  V30 718 H 67.1767 -0.474728 3.10795 0
M  V30 719 N 70.9488 -0.749086 1.3866 0
M  V30 720 C 72.1958 -1.50833 1.35114 0
M  V30 721 C 72.5238 -1.94415 -0.0574049 0
M  V30 722 O 71.7788 -1.66065 -1.03541 0
M  V30 723 C 72.0778 -2.7712 2.25697 0
M  V30 724 C 71.7438 -2.52477 3.73585 0
M  V30 725 C 70.4058 -2.45466 4.13884 0
M  V30 726 C 72.7578 -2.31066 4.67181 0
M  V30 727 C 70.0858 -2.15064 5.45861 0
M  V30 728 C 72.4378 -2.02183 5.9942 0
M  V30 729 C 71.1018 -1.93631 6.38798 0
M  V30 730 H 70.3718 -0.551936 0.494416 0
M  V30 731 H 73.0188 -0.860979 1.71054 0
M  V30 732 H 71.3238 -3.46528 1.82827 0
M  V30 733 H 73.0208 -3.35096 2.20254 0
M  V30 734 H 69.6108 -2.58807 3.41638 0
M  V30 735 H 73.7948 -2.35459 4.3689 0
M  V30 736 H 69.0508 -2.06954 5.75308 0
M  V30 737 H 73.2248 -1.8462 6.71482 0
M  V30 738 H 70.8518 -1.69839 7.40985 0
M  V30 739 N 72.4269 -1.23603 -0.977757 0
M  V30 740 C 73.3569 -1.04401 -2.0886 0
M  V30 741 C 74.3379 0.0399052 -1.70053 0
M  V30 742 O 75.5229 -0.125246 -1.93796 0
M  V30 743 C 72.6529 -0.637269 -3.41403 0
M  V30 744 C 71.6069 -1.66883 -3.94124 0
M  V30 745 C 70.9329 -1.11745 -5.22893 0
M  V30 746 C 72.2329 -3.06247 -4.23096 0
M  V30 747 H 73.9269 -1.97316 -2.25182 0
M  V30 748 H 71.4729 -0.950096 -1.08209 0
M  V30 749 H 73.4259 -0.48998 -4.18542 0
M  V30 750 H 72.1499 0.327557 -3.24953 0
M  V30 751 H 70.8089 -1.80416 -3.19133 0
M  V30 752 H 70.4569 -0.143527 -5.02795 0
M  V30 753 H 70.1569 -1.80672 -5.59134 0
M  V30 754 H 71.6809 -0.982067 -6.02651 0
M  V30 755 H 73.0949 -2.96001 -4.90975 0
M  V30 756 H 71.4919 -3.72436 -4.70544 0
M  V30 757 H 72.5619 -3.55041 -3.30263 0
M  V30 758 N 73.905 1.17692 -1.04816 0
M  V30 759 C 74.835 2.23777 -0.666791 0
M  V30 760 C 75.816 1.66796 0.33361 0
M  V30 761 O 77.001 1.93039 0.212042 0
M  V30 762 C 74.131 3.47281 -0.0367933 0
M  V30 763 C 73.085 4.17059 -0.961546 0
M  V30 764 C 72.411 5.34342 -0.195626 0
M  V30 765 C 73.711 4.69713 -2.28402 0
M  V30 766 H 75.405 2.55933 -1.55367 0
M  V30 767 H 72.951 1.23019 -0.748484 0
M  V30 768 H 74.904 4.20706 0.241775 0
M  V30 769 H 73.628 3.14381 0.885004 0
M  V30 770 H 72.287 3.45541 -1.22462 0
M  V30 771 H 71.935 4.97692 0.728816 0
M  V30 772 H 71.635 5.81966 -0.811775 0
M  V30 773 H 73.159 6.10553 0.0757473 0
M  V30 774 H 74.573 5.34794 -2.06563 0
M  V30 775 H 72.97 5.279 -2.8538 0
M  V30 776 H 74.04 3.86726 -2.92525 0
M  V30 777 N 75.3831 0.828654 1.34056 0
M  V30 778 C 76.6321 0.415828 1.97367 0
M  V30 779 C 76.9451 -1.02796 1.6641 0
M  V30 780 O 78.1511 -1.54497 2.23255 0
M  V30 781 C 76.6071 0.692601 3.53173 0
M  V30 782 C 76.2151 2.15038 3.93017 0
M  V30 783 C 77.9591 0.346222 4.23086 0
M  V30 784 C 75.8661 2.37174 5.41758 0
M  V30 785 H 74.7961 0.151755 0.738571 0
M  V30 786 H 77.4471 1.01581 1.52819 0
M  V30 787 H 75.8291 0.0223764 3.95994 0
M  V30 788 H 77.0031 2.86024 3.61285 0
M  V30 789 H 75.3181 2.45875 3.36057 0
M  V30 790 H 77.9151 0.48937 5.32456 0
M  V30 791 H 78.2581 -0.709842 4.10204 0
M  V30 792 H 78.7911 0.971258 3.85761 0
M  V30 793 H 75.5301 3.41308 5.59633 0
M  V30 794 H 75.0501 1.70738 5.74986 0
M  V30 795 H 76.7291 2.19818 6.08514 0
M  V30 796 N 76.8612 -1.46375 0.584142 0
M  V30 797 C 78.2772 -1.57694 0.245929 0
M  V30 798 C 78.4772 -1.57903 -1.25175 0
M  V30 799 O 77.5332 -1.49676 -2.03355 0
M  V30 800 C 78.8462 -2.87028 0.896402 0
M  V30 801 C 80.3942 -3.00662 0.870127 0
M  V30 802 C 80.8692 -4.32734 1.50017 0
M  V30 803 N 82.3602 -4.39436 1.46458 0
M  V30 804 C 83.0952 -5.40248 1.92144 0
M  V30 805 N 82.5912 -6.47726 2.4581 0
M  V30 806 N 84.3842 -5.31459 1.83052 0
M  V30 807 H 76.5352 -1.44483 1.55687 0
M  V30 808 H 78.7982 -0.689291 0.650831 0
M  V30 809 H 78.5042 -2.9269 1.95002 0
M  V30 810 H 78.3782 -3.75014 0.405486 0
M  V30 811 H 80.7652 -2.94581 -0.174871 0
M  V30 812 H 80.8462 -2.14148 1.39908 0
M  V30 813 H 80.4902 -4.39573 2.54437 0
M  V30 814 H 80.4202 -5.18025 0.946432 0
M  V30 815 H 82.9112 -3.62367 1.07231 0
M  V30 816 H 83.2242 -7.20863 2.78525 0
M  V30 817 H 81.5692 -6.48542 2.49836 0
M  V30 818 H 84.7602 -4.46396 1.40883 0
M  V30 819 H 84.9332 -6.09881 2.18973 0
M  V30 820 N 78.3393 -0.321999 -1.54275 0
M  V30 821 C 79.5863 0.281044 -2.0054 0
M  V30 822 C 79.9143 1.52265 -1.21019 0
M  V30 823 O 79.1693 1.93687 -0.279982 0
M  V30 824 C 79.4683 0.661769 -3.5122 0
M  V30 825 C 79.1343 -0.480482 -4.48333 0
M  V30 826 C 77.7963 -0.794005 -4.74604 0
M  V30 827 C 80.1483 -1.24783 -5.06042 0
M  V30 828 C 77.4763 -1.87763 -5.55844 0
M  V30 829 C 79.8283 -2.32153 -5.88462 0
M  V30 830 C 78.4923 -2.64089 -6.13036 0
M  V30 831 H 77.7623 0.102841 -0.733829 0
M  V30 832 H 80.4093 -0.445453 -1.86247 0
M  V30 833 H 78.7143 1.46867 -3.63232 0
M  V30 834 H 80.4113 1.13989 -3.84457 0
M  V30 835 H 77.0013 -0.226039 -4.28004 0
M  V30 836 H 81.1853 -1.01887 -4.85729 0
M  V30 837 H 76.4413 -2.12954 -5.73115 0
M  V30 838 H 80.6153 -2.92057 -6.32199 0
M  V30 839 H 78.2423 -3.48185 -6.75775 0
M  V30 840 N 79.8174 1.5752 -0.0501392 0
M  V30 841 C 80.7674 2.07981 0.934231 0
M  V30 842 C 81.7514 0.984745 1.27246 0
M  V30 843 O 82.9434 1.24809 1.25506 0
M  V30 844 C 80.0724 2.62751 2.20945 0
M  V30 845 C 79.1584 3.79225 1.89865 0
M  V30 846 N 79.5494 4.89036 1.29142 0
M  V30 847 C 77.8474 3.88111 2.19741 0
M  V30 848 C 78.5484 5.70084 1.15669 0
M  V30 849 N 77.5244 5.17659 1.65923 0
M  V30 850 H 81.3264 2.90277 0.460053 0
M  V30 851 H 78.8404 1.61665 0.15434 0
M  V30 852 H 80.8374 2.97205 2.9236 0
M  V30 853 H 79.4974 1.81894 2.6897 0
M  V30 854 H 80.5084 5.08854 0.963756 0
M  V30 855 H 77.1854 3.18194 2.70293 0
M  V30 856 H 78.5754 6.68395 0.685356 0
M  V30 857 N 81.2955 -0.223234 1.56011 0
M  V30 858 C 82.5435 -0.946003 1.78592 0
M  V30 859 C 82.8645 -1.84936 0.618349 0
M  V30 860 O 82.1345 -1.92473 -0.364833 0
M  V30 861 H 80.7145 -0.352298 0.658707 0
M  V30 862 H 83.3765 -0.235494 1.93472 0
M  V30 863 H 82.4725 -1.55381 2.70672 0
M  V30 864 N 82.7736 -1.49793 -0.48987 0
M  V30 865 C 83.7066 -1.61898 -1.60823 0
M  V30 866 C 84.6846 -0.467651 -1.5573 0
M  V30 867 O 85.8686 -0.684682 -1.75626 0
M  V30 868 C 82.9956 -1.58422 -2.99366 0
M  V30 869 C 82.0416 -2.78889 -3.22682 0
M  V30 870 S 82.8746 -4.40429 -3.04602 0
M  V30 871 C 84.0306 -4.39617 -4.4552 0
M  V30 872 H 84.2636 -2.56502 -1.50312 0
M  V30 873 H 81.7966 -1.38822 -0.675849 0
M  V30 874 H 83.7546 -1.57103 -3.79248 0
M  V30 875 H 82.4156 -0.650866 -3.07283 0
M  V30 876 H 81.6086 -2.72708 -4.23847 0
M  V30 877 H 81.2106 -2.77678 -2.50541 0
M  V30 878 H 83.5026 -4.12022 -5.37814 0
M  V30 879 H 84.4456 -5.41097 -4.56749 0
M  V30 880 H 84.8536 -3.69554 -4.2672 0
M  V30 881 N 84.2517 0.741722 -1.39055 0
M  V30 882 C 85.4817 1.52876 -1.3897 0
M  V30 883 C 85.8897 1.8919 0.0193266 0
M  V30 884 O 85.2327 1.54138 0.999356 0
M  V30 885 C 85.2947 2.84929 -2.19216 0
M  V30 886 C 84.9587 2.71086 -3.67915 0
M  V30 887 C 85.9557 2.40084 -4.61146 0
M  V30 888 C 83.6407 2.88168 -4.11418 0
M  V30 889 C 85.6347 2.26335 -5.95862 0
M  V30 890 C 83.3217 2.74037 -5.46211 0
M  V30 891 C 84.3197 2.43166 -6.38247 0
M  V30 892 O 84.0077 2.29115 -7.70559 0
M  V30 893 H 83.7397 0.479252 -0.476753 0
M  V30 894 H 86.2937 0.924751 -1.83405 0
M  V30 895 H 84.5237 3.47564 -1.69518 0
M  V30 896 H 86.2127 3.46509 -2.11392 0
M  V30 897 H 86.9787 2.26545 -4.28838 0
M  V30 898 H 82.8577 3.11191 -3.40119 0
M  V30 899 H 86.4017 2.0216 -6.67665 0
M  V30 900 H 82.2987 2.87153 -5.78112 0
M  V30 901 H 83.0667 2.44237 -7.81211 0
M  V30 902 N 85.7298 1.2412 0.971189 0
M  V30 903 C 86.6618 0.988349 2.06795 0
M  V30 904 C 87.6748 -0.0409541 1.62748 0
M  V30 905 O 88.8638 0.195673 1.77424 0
M  V30 906 C 85.9638 0.469023 3.35639 0
M  V30 907 C 85.1368 1.56065 4.08611 0
M  V30 908 C 84.1958 1.04458 5.15728 0
M  V30 909 O 83.2218 1.73553 5.42096 0
M  V30 910 N 84.4238 -0.122817 5.8037 0
M  V30 911 H 87.1888 1.93265 2.29061 0
M  V30 912 H 84.7498 1.15102 1.13856 0
M  V30 913 H 86.7418 0.108613 4.04554 0
M  V30 914 H 85.3118 -0.380919 3.1027 0
M  V30 915 H 84.5318 2.09341 3.34021 0
M  V30 916 H 85.8198 2.29449 4.54126 0
M  V30 917 H 85.2178 -0.700563 5.61345 0
M  V30 918 H 83.7748 -0.424404 6.50417 0
M  V30 919 N 87.2079 -1.17134 1.05439 0
M  V30 920 C 88.1399 -2.2078 0.615539 0
M  V30 921 C 89.1529 -1.59584 -0.322001 0
M  V30 922 O 90.3419 -1.78133 -0.114344 0
M  V30 923 C 87.4419 -3.38691 -0.118938 0
M  V30 924 C 86.6149 -4.29454 0.829924 0
M  V30 925 C 85.6739 -5.26024 0.136258 0
M  V30 926 O 84.6999 -5.63952 0.77115 0
M  V30 927 N 85.9019 -5.69487 -1.1254 0
M  V30 928 H 88.6669 -2.59052 1.50705 0
M  V30 929 H 86.2279 -1.32058 0.936603 0
M  V30 930 H 88.2199 -4.00329 -0.593179 0
M  V30 931 H 86.7899 -2.98996 -0.91215 0
M  V30 932 H 86.0099 -3.65211 1.48373 0
M  V30 933 H 87.2979 -4.86984 1.47392 0
M  V30 934 H 86.6959 -5.4075 -1.6615 0
M  V30 935 H 85.2529 -6.33257 -1.54366 0
M  V30 936 N 88.686 -0.835752 -1.33615 0
M  V30 937 C 89.963 -0.352017 -1.92406 0
M  V30 938 C 90.343 1.16225 -1.76224 0
M  V30 939 O 89.691 1.97526 -1.14873 0
M  V30 940 C 89.901 -0.795485 -3.39813 0
M  V30 941 C 91.249 -0.801703 -4.16963 0
M  V30 942 O 92.273 -0.738889 -3.48452 0
M  V30 943 O 91.132 -0.886607 -5.3926 0
M  V30 944 H 88.226 -0.0989641 -0.821057 0
M  V30 945 H 90.772 -0.921397 -1.42507 0
M  V30 946 H 89.544 -1.83795 -3.45449 0
M  V30 947 H 89.167 -0.202505 -3.97084 0
M  V30 948 N 90.1641 1.46063 -0.591896 0
M  V30 949 C 91.4411 1.95595 -0.0137119 0
M  V30 950 C 91.8211 1.5345 1.4497 0
M  V30 951 O 91.1691 0.789543 2.14426 0
M  V30 952 C 91.3791 3.48453 -0.195373 0
M  V30 953 C 92.7271 4.24546 -0.0679765 0
M  V30 954 O 93.7511 3.55982 -0.124681 0
M  V30 955 O 92.6101 5.46467 0.0600579 0
M  V30 956 H 89.7041 0.825795 0.0446279 0
M  V30 957 H 92.2501 1.56303 -0.660859 0
M  V30 958 H 91.0221 3.72045 -1.21235 0
M  V30 959 H 90.6451 3.94597 0.487775 0
M  V30 960 N 91.6422 0.330177 1.54103 0
M  V30 961 C 93.0582 -0.0222371 1.59585 0
M  V30 962 C 93.2582 -1.49902 1.34654 0
M  V30 963 O 92.3142 -2.25592 1.13421 0
M  V30 964 C 93.6272 0.401932 2.98002 0
M  V30 965 C 95.1752 0.353145 3.11001 0
M  V30 966 C 95.6502 0.752576 4.51775 0
M  V30 967 N 97.1412 0.706239 4.57784 0
M  V30 968 C 97.8762 0.987417 5.64834 0
M  V30 969 N 97.3722 1.33607 6.79795 0
M  V30 970 N 99.1652 0.91254 5.54643 0
M  V30 971 H 91.3162 1.29228 1.68564 0
M  V30 972 H 93.5792 0.525906 0.78875 0
M  V30 973 H 93.2852 1.4311 3.21267 0
M  V30 974 H 93.1592 -0.229699 3.765 0
M  V30 975 H 95.5462 -0.666822 2.87467 0
M  V30 976 H 95.6272 1.0198 2.34593 0
M  V30 977 H 95.2712 1.77049 4.76042 0
M  V30 978 H 95.2012 0.0635409 5.26562 0
M  V30 979 H 97.6922 0.44889 3.75224 0
M  V30 980 H 98.0052 1.53582 7.57385 0
M  V30 981 H 96.3502 1.37439 6.81275 0
M  V30 982 H 99.5412 0.639601 4.6371 0
M  V30 983 H 99.7142 1.13503 6.37982 0
M  V30 984 N 93.1203 -1.57491 0.0584922 0
M  V30 985 C 94.3973 -1.84346 -0.653918 0
M  V30 986 C 94.7773 -0.948355 -1.88599 0
M  V30 987 O 94.1253 -0.0112403 -2.28497 0
M  V30 988 C 94.3353 -3.34239 -1.00425 0
M  V30 989 C 95.6833 -4.01431 -1.38342 0
M  V30 990 O 96.7073 -3.38907 -1.09637 0
M  V30 991 O 95.5663 -5.11683 -1.91943 0
M  V30 992 H 92.6603 -0.761112 -0.323478 0
M  V30 993 H 95.2063 -1.6947 0.0884125 0
M  V30 994 H 93.9783 -3.91089 -0.128625 0
M  V30 995 H 93.6013 -3.54329 -1.80378 0
M  V30 996 N 94.5984 0.214957 -1.56127 0
M  V30 997 C 95.8474 0.936451 -1.78643 0
M  V30 998 C 96.1604 1.85237 -0.628229 0
M  V30 999 O 97.3664 2.613 -0.737186 0
M  V30 1000 C 95.8224 1.7154 -3.16389 0
M  V30 1001 C 95.4304 0.845299 -4.39953 0
M  V30 1002 C 97.1744 2.42772 -3.48227 0
M  V30 1003 C 95.0814 1.62198 -5.68723 0
M  V30 1004 H 94.0114 0.353401 -0.666051 0
M  V30 1005 H 96.6624 0.190169 -1.82512 0
M  V30 1006 H 95.0444 2.50484 -3.06715 0
M  V30 1007 H 96.2184 0.0959353 -4.607 0
M  V30 1008 H 94.5334 0.244789 -4.1568 0
M  V30 1009 H 97.1304 3.01394 -4.41663 0
M  V30 1010 H 97.4734 3.15984 -2.71035 0
M  V30 1011 H 98.0064 1.70813 -3.5926 0
M  V30 1012 H 94.7454 0.933011 -6.48826 0
M  V30 1013 H 94.2654 2.34579 -5.52026 0
M  V30 1014 H 95.9444 2.18095 -6.09133 0
M  V30 1015 N 96.0765 1.50051 0.48192 0
M  V30 1016 C 97.4925 1.37237 0.814756 0
M  V30 1017 C 97.6925 0.420109 1.97072 0
M  V30 1018 O 96.7485 -0.141246 2.52105 0
M  V30 1019 C 98.0615 2.78375 1.13701 0
M  V30 1020 C 99.6095 2.87213 1.2441 0
M  V30 1021 C 100.084 4.29161 1.59954 0
M  V30 1022 N 101.575 4.32061 1.66967 0
M  V30 1023 C 102.31 5.38879 1.95952 0
M  V30 1024 N 101.806 6.55918 2.23031 0
M  V30 1025 N 103.599 5.26312 1.97363 0
M  V30 1026 H 95.7505 2.10546 -0.28005 0
M  V30 1027 H 98.0135 0.945921 -0.0627454 0
M  V30 1028 H 97.7195 3.49845 0.360787 0
M  V30 1029 H 97.5935 3.14941 2.07586 0
M  V30 1030 H 99.9805 2.15969 2.01101 0
M  V30 1031 H 100.061 2.54204 0.285299 0
M  V30 1032 H 99.7055 5.00938 0.838067 0
M  V30 1033 H 99.6355 4.59648 2.56966 0
M  V30 1034 H 102.126 3.47661 1.48123 0
M  V30 1035 H 102.439 7.33139 2.44391 0
M  V30 1036 H 100.784 6.59112 2.20447 0
M  V30 1037 H 103.975 4.33876 1.75697 0
M  V30 1038 H 104.148 6.09649 2.19618 0
M  V30 1039 N 97.5546 -0.734337 1.39446 0
M  V30 1040 C 98.5176 -1.83004 1.37994 0
M  V30 1041 C 99.5176 -1.58397 0.276938 0
M  V30 1042 O 100.708 -1.65785 0.534875 0
M  V30 1043 C 97.8396 -3.20802 1.1532 0
M  V30 1044 H 99.0326 -1.85694 2.35494 0
M  V30 1045 H 96.5856 -0.938059 1.25021 0
M  V30 1046 H 97.3206 -3.23772 0.185036 0
M  V30 1047 H 97.1056 -3.4006 1.95197 0
M  V30 1048 H 98.5956 -4.00862 1.17046 0
M  V30 1049 N 99.0327 -1.24633 -0.964593 0
M  V30 1050 C 99.9427 -1.05859 -2.09359 0
M  V30 1051 C 100.959 0.00148855 -1.74 0
M  V30 1052 O 102.135 -0.197346 -2.00431 0
M  V30 1053 C 99.1997 -0.668879 -3.40187 0
M  V30 1054 C 98.2607 -1.80578 -3.89474 0
M  V30 1055 C 97.4937 -1.43457 -5.14058 0
M  V30 1056 O 97.7167 -0.325775 -5.69469 0
M  V30 1057 O 96.6507 -2.2613 -5.57807 0
M  V30 1058 H 100.477 -2.00516 -2.28094 0
M  V30 1059 H 98.0617 -1.03481 -1.0776 0
M  V30 1060 H 99.9437 -0.463211 -4.18846 0
M  V30 1061 H 98.6187 0.248536 -3.22744 0
M  V30 1062 H 97.5257 -2.06623 -3.11862 0
M  V30 1063 H 98.8587 -2.70208 -4.11398 0
M  V30 1064 N 100.511 1.16574 -1.06058 0
M  V30 1065 C 101.927 1.3904 -0.783585 0
M  V30 1066 C 102.127 1.91784 0.618145 0
M  V30 1067 O 101.183 2.11511 1.37911 0
M  V30 1068 C 102.496 2.37329 -1.84649 0
M  V30 1069 C 104.044 2.51018 -1.86973 0
M  V30 1070 C 104.519 3.52588 -2.92311 0
M  V30 1071 N 106.01 3.60113 -2.91329 0
M  V30 1072 C 106.745 4.38486 -3.69482 0
M  V30 1073 N 106.241 5.20302 -4.57447 0
M  V30 1074 N 108.034 4.33446 -3.57885 0
M  V30 1075 H 100.185 0.806725 -1.96483 0
M  V30 1076 H 102.448 0.417117 -0.851303 0
M  V30 1077 H 102.154 2.05663 -2.85299 0
M  V30 1078 H 102.028 3.36946 -1.6955 0
M  V30 1079 H 104.415 2.81989 -0.869827 0
M  V30 1080 H 104.496 1.51445 -2.0615 0
M  V30 1081 H 104.14 3.22354 -3.92492 0
M  V30 1082 H 104.07 4.51886 -2.70383 0
M  V30 1083 H 106.561 3.01707 -2.27555 0
M  V30 1084 H 106.874 5.77311 -5.13743 0
M  V30 1085 H 105.219 5.19653 -4.61503 0
M  V30 1086 H 108.41 3.68586 -2.88551 0
M  V30 1087 H 108.583 4.94279 -4.19037 0
M  V30 1088 N 101.989 0.842826 1.3317 0
M  V30 1089 C 102.952 0.284065 2.27433 0
M  V30 1090 C 103.952 -0.54948 1.5112 0
M  V30 1091 O 105.142 -0.362699 1.70382 0
M  V30 1092 C 102.274 -0.599384 3.35589 0
M  V30 1093 H 103.467 1.11589 2.78366 0
M  V30 1094 H 101.02 0.616221 1.4364 0
M  V30 1095 H 101.755 -1.45349 2.89904 0
M  V30 1096 H 101.54 -0.00291266 3.921 0
M  V30 1097 H 103.03 -0.983488 4.05854 0
M  V30 1098 N 103.467 -1.45747 0.599634 0
M  V30 1099 C 104.377 -2.34262 -0.125888 0
M  V30 1100 C 105.393 -1.50768 -0.868625 0
M  V30 1101 O 106.569 -1.83592 -0.828003 0
M  V30 1102 C 103.634 -3.28252 -1.11587 0
M  V30 1103 C 102.695 -4.27651 -0.375956 0
M  V30 1104 C 101.928 -5.1715 -1.31877 0
M  V30 1105 O 102.151 -5.09916 -2.55621 0
M  V30 1106 O 101.085 -5.96286 -0.820157 0
M  V30 1107 H 104.911 -2.97688 0.601315 0
M  V30 1108 H 102.496 -1.44999 0.359934 0
M  V30 1109 H 104.378 -3.86191 -1.68626 0
M  V30 1110 H 103.053 -2.67401 -1.82424 0
M  V30 1111 H 101.96 -3.7335 0.236698 0
M  V30 1112 H 103.293 -4.91334 0.29177 0
M  V30 1113 N 104.945 -0.338344 -1.53925 0
M  V30 1114 C 105.877 0.555117 -2.22376 0
M  V30 1115 C 106.89 1.06812 -1.22862 0
M  V30 1116 O 108.079 0.979163 -1.49247 0
M  V30 1117 C 105.179 1.77609 -2.88631 0
M  V30 1118 C 104.352 1.39927 -4.14414 0
M  V30 1119 C 103.411 2.47936 -4.64127 0
M  V30 1120 O 102.437 2.11461 -5.28463 0
M  V30 1121 N 103.639 3.79107 -4.39612 0
M  V30 1122 H 106.404 -0.0310778 -2.99684 0
M  V30 1123 H 103.965 -0.162226 -1.61085 0
M  V30 1124 H 105.957 2.49287 -3.18807 0
M  V30 1125 H 104.527 2.26978 -2.14941 0
M  V30 1126 H 103.747 0.513481 -3.90841 0
M  V30 1127 H 105.035 1.12341 -4.96243 0
M  V30 1128 H 104.433 4.11531 -3.88148 0
M  V30 1129 H 102.99 4.4697 -4.74406 0
M  V30 1130 N 106.423 1.57458 -0.0668435 0
M  V30 1131 C 107.37 2.12439 0.902122 0
M  V30 1132 C 108.34 1.03565 1.2986 0
M  V30 1133 O 109.525 1.312 1.38532 0
M  V30 1134 C 106.665 2.6865 2.16614 0
M  V30 1135 C 105.778 3.91663 1.82274 0
M  V30 1136 C 104.913 4.36134 3.0325 0
M  V30 1137 C 103.952 5.51808 2.64904 0
M  V30 1138 N 103.089 5.9126 3.78624 0
M  V30 1139 H 107.929 2.94934 0.426382 0
M  V30 1140 H 105.466 1.4575 0.198819 0
M  V30 1141 H 107.424 2.99346 2.90599 0
M  V30 1142 H 106.054 1.88928 2.61737 0
M  V30 1143 H 105.106 3.6746 0.983719 0
M  V30 1144 H 106.418 4.75693 1.50059 0
M  V30 1145 H 105.572 4.68465 3.85519 0
M  V30 1146 H 104.311 3.50948 3.38655 0
M  V30 1147 H 103.316 5.19133 1.81055 0
M  V30 1148 H 104.541 6.38722 2.30675 0
M  V30 1149 H 102.487 5.09024 4.138 0
M  V30 1150 H 102.404 6.70018 3.5016 0
M  V30 1151 H 103.672 6.28212 4.61486 0
M  V30 1152 N 107.901 -0.206675 1.56239 0
M  V30 1153 C 108.831 -1.25909 1.96645 0
M  V30 1154 C 109.812 -1.48097 0.836734 0
M  V30 1155 O 110.997 -1.6003 1.10019 0
M  V30 1156 C 108.127 -2.6058 2.29599 0
M  V30 1157 C 107.081 -2.53024 3.452 0
M  V30 1158 C 106.407 -3.91861 3.63798 0
M  V30 1159 C 107.707 -2.06524 4.79734 0
M  V30 1160 H 109.401 -0.923369 2.84806 0
M  V30 1161 H 106.947 -0.442735 1.37025 0
M  V30 1162 H 108.9 -3.34375 2.56459 0
M  V30 1163 H 107.624 -2.95869 1.38307 0
M  V30 1164 H 106.283 -1.81684 3.18412 0
M  V30 1165 H 105.931 -4.24483 2.69857 0
M  V30 1166 H 105.631 -3.87683 4.4156 0
M  V30 1167 H 107.155 -4.67296 3.93022 0
M  V30 1168 H 108.569 -2.70072 5.05702 0
M  V30 1169 H 106.966 -2.13374 5.60885 0
M  V30 1170 H 108.036 -1.01802 4.74093 0
M  V30 1171 N 109.379 -1.50304 -0.473955 0
M  V30 1172 C 110.289 -1.7174 -1.5982 0
M  V30 1173 C 111.305 -0.600457 -1.63311 0
M  V30 1174 O 112.481 -0.878441 -1.81233 0
M  V30 1175 C 109.546 -1.80427 -2.96052 0
M  V30 1176 C 108.607 -3.04148 -3.02972 0
M  V30 1177 C 107.84 -3.12411 -4.32706 0
M  V30 1178 O 108.063 -2.27542 -5.23049 0
M  V30 1179 O 106.997 -4.05113 -4.45159 0
M  V30 1180 H 110.823 -2.67035 -1.44657 0
M  V30 1181 H 108.408 -1.34366 -0.653148 0
M  V30 1182 H 110.29 -1.88338 -3.7697 0
M  V30 1183 H 108.965 -0.883156 -3.11419 0
M  V30 1184 H 107.872 -3.0174 -2.21142 0
M  V30 1185 H 109.205 -3.95829 -2.92541 0
M  V30 1186 N 110.857 0.726932 -1.39834 0
M  V30 1187 C 112.268 1.30558 -1.3346 0
M  V30 1188 C 112.619 1.962 -0.00273003 0
M  V30 1189 O 111.744 1.96826 0.899371 0
M  V30 1190 C 112.339 2.37404 -2.41713 0
M  V30 1191 C 110.898 2.90921 -2.38835 0
M  V30 1192 C 110.045 1.64578 -2.2318 0
M  V30 1193 H 112.996 0.523862 -1.49804 0
M  V30 1194 H 113.017 3.17984 -2.08966 0
M  V30 1195 H 112.529 1.89599 -3.38635 0
M  V30 1196 H 110.63 3.42985 -1.45575 0
M  V30 1197 H 110.743 3.43487 -3.33997 0
M  V30 1198 H 109.107 1.89219 -1.70494 0
M  V30 1199 H 109.89 1.18814 -3.22084 0
M  V30 1200 N 112.336 1.25143 0.95797 0
M  V30 1201 C 113.752 1.01892 1.22842 0
M  V30 1202 C 113.952 -0.266311 1.99732 0
M  V30 1203 O 113.008 -0.979913 2.3271 0
M  V30 1204 C 114.321 2.24004 2.00606 0
M  V30 1205 C 115.869 2.28731 2.13662 0
M  V30 1206 C 116.344 3.5049 2.94823 0
M  V30 1207 N 117.835 3.50866 3.02403 0
M  V30 1208 C 118.57 4.4174 3.65586 0
M  V30 1209 N 118.066 5.42882 4.30408 0
M  V30 1210 N 119.859 4.29429 3.62694 0
M  V30 1211 H 112.01 2.07718 0.443493 0
M  V30 1212 H 114.273 0.912031 0.258657 0
M  V30 1213 H 113.979 3.17395 1.51503 0
M  V30 1214 H 113.853 2.26907 3.01319 0
M  V30 1215 H 116.24 1.35865 2.61963 0
M  V30 1216 H 116.321 2.29848 1.12265 0
M  V30 1217 H 115.965 4.43676 2.47213 0
M  V30 1218 H 115.895 3.46617 3.96439 0
M  V30 1219 H 118.386 2.777 2.56302 0
M  V30 1220 H 118.699 6.0844 4.76467 0
M  V30 1221 H 117.044 5.46758 4.29047 0
M  V30 1222 H 120.235 3.49643 3.11236 0
M  V30 1223 H 120.408 5.00448 4.1165 0
M  V30 1224 N 113.814 -1.1601 1.06675 0
M  V30 1225 C 114.764 -2.18512 0.650888 0
M  V30 1226 C 115.748 -1.57677 -0.320441 0
M  V30 1227 O 116.94 -1.76482 -0.135266 0
M  V30 1228 C 114.069 -3.43273 0.0429255 0
M  V30 1229 C 113.155 -4.11176 1.03898 0
M  V30 1230 N 113.546 -4.54672 2.216 0
M  V30 1231 C 111.844 -4.37417 0.870779 0
M  V30 1232 C 112.545 -5.07248 2.84736 0
M  V30 1233 N 111.521 -5.0037 2.12441 0
M  V30 1234 H 115.323 -2.49863 1.54745 0
M  V30 1235 H 112.837 -1.32503 0.938975 0
M  V30 1236 H 114.834 -4.16006 -0.272857 0
M  V30 1237 H 113.494 -3.13408 -0.84884 0
M  V30 1238 H 114.505 -4.4828 2.59356 0
M  V30 1239 H 111.182 -4.17488 0.0313293 0
M  V30 1240 H 112.572 -5.50912 3.84636 0
M  V30 1241 N 115.292 -0.849877 -1.32721 0
M  V30 1242 C 116.255 -0.296122 -2.27279 0
M  V30 1243 C 117.255 0.541458 -1.5141 0
M  V30 1244 O 118.445 0.353658 -1.70572 0
M  V30 1245 C 115.577 0.581579 -3.35902 0
M  V30 1246 H 116.77 -1.13064 -2.77771 0
M  V30 1247 H 114.323 -0.62383 -1.43311 0
M  V30 1248 H 115.058 1.43809 -2.9067 0
M  V30 1249 H 114.843 -0.0178814 -3.92096 0
M  V30 1250 H 116.333 0.961951 -4.0637 0
M  V30 1251 N 116.77 1.45427 -0.607355 0
M  V30 1252 C 117.703 2.27635 0.160482 0
M  V30 1253 C 118.681 1.37122 0.873857 0
M  V30 1254 O 119.865 1.66551 0.882775 0
M  V30 1255 C 116.992 3.15486 1.23231 0
M  V30 1256 C 116.038 4.21939 0.622097 0
M  V30 1257 S 116.871 5.32459 -0.569852 0
M  V30 1258 C 118.027 6.23879 0.502577 0
M  V30 1259 H 118.26 2.9241 -0.536983 0
M  V30 1260 H 115.793 1.49265 -0.394868 0
M  V30 1261 H 117.751 3.66659 1.84585 0
M  V30 1262 H 116.412 2.49977 1.90185 0
M  V30 1263 H 115.605 4.8333 1.42856 0
M  V30 1264 H 115.207 3.73906 0.0837063 0
M  V30 1265 H 117.499 6.63261 1.38171 0
M  V30 1266 H 118.442 7.0806 -0.0751759 0
M  V30 1267 H 118.85 5.58545 0.8178 0
M  V30 1268 N 118.248 0.346503 1.53744 0
M  V30 1269 C 119.178 -0.501193 2.28058 0
M  V30 1270 C 120.159 -1.10014 1.29734 0
M  V30 1271 O 121.344 -1.12097 1.58581 0
M  V30 1272 C 118.474 -1.65078 3.05559 0
M  V30 1273 C 117.428 -1.18003 4.11411 0
M  V30 1274 C 116.754 -2.41837 4.76884 0
M  V30 1275 C 118.054 -0.278394 5.21558 0
M  V30 1276 H 119.748 0.11875 2.99164 0
M  V30 1277 H 117.294 0.0585531 1.43881 0
M  V30 1278 H 119.247 -2.25028 3.56287 0
M  V30 1279 H 117.971 -2.29767 2.32109 0
M  V30 1280 H 116.63 -0.603331 3.61601 0
M  V30 1281 H 116.278 -3.0494 4.00026 0
M  V30 1282 H 115.978 -2.1102 5.48402 0
M  V30 1283 H 117.502 -3.02508 5.30397 0
M  V30 1284 H 118.916 -0.784823 5.67903 0
M  V30 1285 H 117.313 -0.0619707 6.00068 0
M  V30 1286 H 118.383 0.684677 4.80042 0
M  V30 1287 N 119.726 -1.57421 0.075193 0
M  V30 1288 C 120.656 -2.15942 -0.888324 0
M  V30 1289 C 121.637 -1.08737 -1.30806 0
M  V30 1290 O 122.822 -1.36787 -1.37851 0
M  V30 1291 C 119.952 -2.72379 -2.1547 0
M  V30 1292 C 118.906 -3.8478 -1.87425 0
M  V30 1293 C 118.232 -4.27834 -3.20721 0
M  V30 1294 C 119.532 -5.08869 -1.17684 0
M  V30 1295 H 121.226 -2.96705 -0.400799 0
M  V30 1296 H 118.772 -1.42723 -0.191342 0
M  V30 1297 H 120.725 -3.11965 -2.83295 0
M  V30 1298 H 119.449 -1.88841 -2.6647 0
M  V30 1299 H 118.108 -3.45703 -1.22004 0
M  V30 1300 H 117.756 -3.41214 -3.6957 0
M  V30 1301 H 117.456 -5.03605 -3.02746 0
M  V30 1302 H 118.98 -4.70039 -3.89738 0
M  V30 1303 H 120.394 -5.4575 -1.75584 0
M  V30 1304 H 118.791 -5.8994 -1.09956 0
M  V30 1305 H 119.861 -4.84648 -0.156453 0
M  V30 1306 N 121.204 0.198386 -1.56346 0
M  V30 1307 C 122.62 0.549085 -1.49857 0
M  V30 1308 C 122.82 1.86016 -0.774611 0
M  V30 1309 O 121.876 2.50416 -0.323776 0
M  V30 1310 C 123.189 0.606868 -2.94512 0
M  V30 1311 C 124.737 0.695925 -3.05165 0
M  V30 1312 C 125.212 0.784848 -4.51225 0
M  V30 1313 N 126.703 0.848463 -4.55363 0
M  V30 1314 C 127.438 0.937378 -5.65686 0
M  V30 1315 N 126.934 0.9888 -6.85707 0
M  V30 1316 N 128.727 0.974312 -5.53592 0
M  V30 1317 H 120.878 -0.661655 -2.01831 0
M  V30 1318 H 123.141 -0.235261 -0.918344 0
M  V30 1319 H 122.847 -0.28732 -3.50524 0
M  V30 1320 H 122.721 1.46268 -3.47686 0
M  V30 1321 H 125.108 1.58055 -2.49204 0
M  V30 1322 H 125.189 -0.186022 -2.55123 0
M  V30 1323 H 124.833 -0.0954072 -5.0781 0
M  V30 1324 H 124.763 1.68255 -4.98997 0
M  V30 1325 H 127.254 0.818103 -3.68938 0
M  V30 1326 H 127.567 1.05707 -7.65536 0
M  V30 1327 H 125.912 0.957534 -6.88372 0
M  V30 1328 H 129.103 0.930954 -4.58749 0
M  V30 1329 H 129.276 1.04015 -6.39597 0
M  V30 1330 N 122.682 1.50554 0.465978 0
M  V30 1331 C 123.922 1.63439 1.22747 0
M  V30 1332 C 124.286 0.329822 1.89146 0
M  V30 1333 O 125.487 0.334161 2.66715 0
M  V30 1334 C 123.758 2.78542 2.2394 0
M  V30 1335 S 125.317 3.11591 3.0896 0
M  V30 1336 H 122.135 0.576113 0.416672 0
M  V30 1337 H 124.737 1.88357 0.523641 0
M  V30 1338 H 123.441 3.71805 1.7375 0
M  V30 1339 H 122.972 2.55726 2.98944 0
M  V30 1340 H 124.987 2.55811 4.25176 0
M  V30 1341 N 124.16 -0.719506 1.40217 0
M  V30 1342 C 125.576 -1.02707 1.22161 0
M  V30 1343 C 125.776 -2.0128 0.0940557 0
M  V30 1344 O 124.832 -2.46452 -0.549318 0
M  V30 1345 C 126.145 -1.57454 2.56181 0
M  V30 1346 C 127.693 -1.69458 2.63159 0
M  V30 1347 C 128.168 -2.27611 3.97438 0
M  V30 1348 N 129.659 -2.35002 3.99159 0
M  V30 1349 C 130.394 -2.80972 4.99842 0
M  V30 1350 N 129.89 -3.26723 6.10921 0
M  V30 1351 N 131.683 -2.80321 4.87213 0
M  V30 1352 H 123.834 -0.0660492 2.12297 0
M  V30 1353 H 126.097 -0.0919077 0.943534 0
M  V30 1354 H 125.803 -0.924873 3.39321 0
M  V30 1355 H 125.677 -2.56036 2.76993 0
M  V30 1356 H 128.064 -2.33543 1.80393 0
M  V30 1357 H 128.145 -0.694867 2.46181 0
M  V30 1358 H 127.789 -1.6415 4.80643 0
M  V30 1359 H 127.719 -3.2829 4.11744 0
M  V30 1360 H 130.21 -2.02685 3.18947 0
M  V30 1361 H 130.523 -3.60355 6.8364 0
M  V30 1362 H 128.868 -3.24692 6.14492 0
M  V30 1363 H 132.059 -2.43912 3.9953 0
M  V30 1364 H 132.232 -3.15831 5.65822 0
M  V30 1365 N 125.638 -1.25649 -0.95132 0
M  V30 1366 C 126.568 -1.08808 -2.06599 0
M  V30 1367 C 127.549 0.00382547 -1.701 0
M  V30 1368 O 128.734 -0.166325 -1.93486 0
M  V30 1369 C 125.864 -0.709542 -3.39975 0
M  V30 1370 C 124.818 -1.75206 -3.90496 0
M  V30 1371 C 124.144 -1.22811 -5.20405 0
M  V30 1372 C 125.444 -3.15153 -4.16504 0
M  V30 1373 H 127.138 -2.02048 -2.20946 0
M  V30 1374 H 124.684 -0.972835 -1.06169 0
M  V30 1375 H 126.637 -0.578649 -4.17408 0
M  V30 1376 H 125.361 0.258556 -3.25575 0
M  V30 1377 H 124.02 -1.87145 -3.15234 0
M  V30 1378 H 123.668 -0.250145 -5.02378 0
M  V30 1379 H 123.368 -1.92492 -5.55176 0
M  V30 1380 H 124.892 -1.10968 -6.00432 0
M  V30 1381 H 126.306 -3.06349 -4.84586 0
M  V30 1382 H 124.703 -3.82333 -4.62538 0
M  V30 1383 H 125.773 -3.61966 -3.22658 0
M  V30 1384 N 127.117 1.15442 -1.07289 0
M  V30 1385 C 128.528 1.67803 -0.818475 0
M  V30 1386 C 128.879 1.8489 0.656507 0
M  V30 1387 O 128.004 1.55176 1.50829 0
M  V30 1388 C 128.599 3.04805 -1.47917 0
M  V30 1389 C 127.158 3.54245 -1.27229 0
M  V30 1390 C 126.305 2.29986 -1.54925 0
M  V30 1391 H 129.256 0.996646 -1.23502 0
M  V30 1392 H 129.277 3.69702 -0.90005 0
M  V30 1393 H 128.789 2.92336 -2.55267 0
M  V30 1394 H 126.89 3.71956 -0.21899 0
M  V30 1395 H 127.003 4.35723 -1.99203 0
M  V30 1396 H 125.367 2.35496 -0.970242 0
M  V30 1397 H 126.15 2.20105 -2.63455 0
M  V30 1398 N 128.595 0.856903 1.32268 0
M  V30 1399 C 129.843 0.460474 1.96784 0
M  V30 1400 C 130.164 -0.987701 1.68135 0
M  V30 1401 O 129.434 -1.69058 0.989765 0
M  V30 1402 H 128.014 0.167289 0.728027 0
M  V30 1403 H 130.676 1.09383 1.61312 0
M  V30 1404 H 129.772 0.60739 3.06133 0
M  V30 1405 N 130.073 -1.45103 0.615059 0
M  V30 1406 C 131.321 -2.01784 0.112955 0
M  V30 1407 C 131.642 -1.48504 -1.26378 0
M  V30 1408 O 130.912 -0.682245 -1.83636 0
M  V30 1409 H 129.492 -0.745993 0.0387668 0
M  V30 1410 H 132.154 -1.77808 0.798141 0
M  V30 1411 H 131.25 -3.12025 0.0684069 0
M  V30 1412 N 131.551 -0.354651 -1.53558 0
M  V30 1413 C 132.797 0.238797 -2.01389 0
M  V30 1414 C 133.13 1.49309 -1.2418 0
M  V30 1415 O 132.405 1.91638 -0.332457 0
M  V30 1416 C 132.688 0.541771 -3.56001 0
M  V30 1417 C 132.541 -0.725388 -4.43912 0
M  V30 1418 C 133.86 1.34685 -4.18984 0
M  V30 1419 H 130.979 0.0853177 -0.732045 0
M  V30 1420 H 133.621 -0.477384 -1.83905 0
M  V30 1421 H 131.771 1.15189 -3.71031 0
M  V30 1422 H 133.443 -1.36313 -4.407 0
M  V30 1423 H 131.686 -1.34801 -4.12324 0
M  V30 1424 H 132.357 -0.468505 -5.50008 0
M  V30 1425 H 134.833 0.830837 -4.07721 0
M  V30 1426 H 133.709 1.52759 -5.27215 0
M  V30 1427 H 133.97 2.35221 -3.74331 0
M  V30 1428 N 133.029 1.57378 -0.0835403 0
M  V30 1429 C 134.278 1.93106 0.582498 0
M  V30 1430 C 134.591 0.96651 1.70053 0
M  V30 1431 O 135.797 1.21705 2.42693 0
M  V30 1432 C 134.253 3.43076 1.08751 0
M  V30 1433 C 133.861 4.48 -0.000146404 0
M  V30 1434 C 135.605 3.87785 1.72694 0
M  V30 1435 C 133.512 5.89113 0.519568 0
M  V30 1436 H 132.442 0.720775 0.221358 0
M  V30 1437 H 135.093 1.82821 -0.157675 0
M  V30 1438 H 133.475 3.48474 1.88101 0
M  V30 1439 H 134.649 4.54233 -0.775199 0
M  V30 1440 H 132.964 4.1283 -0.54406 0
M  V30 1441 H 135.561 4.90604 2.1263 0
M  V30 1442 H 135.904 3.25796 2.59158 0
M  V30 1443 H 136.437 3.8504 0.999457 0
M  V30 1444 H 133.176 6.54775 -0.308186 0
M  V30 1445 H 132.696 5.86376 1.26188 0
M  V30 1446 H 134.375 6.39346 0.992237 0
M  V30 1447 N 134.507 -0.190092 1.56449 0
M  V30 1448 C 135.735 -0.925772 1.85033 0
M  V30 1449 C 136.15 -1.76638 0.666658 0
M  V30 1450 O 135.507 -1.78822 -0.364565 0
M  V30 1451 C 135.558 -1.81786 3.12468 0
M  V30 1452 O 135.279 -1.01118 4.26271 0
M  V30 1453 C 136.78 -2.6648 3.54265 0
M  V30 1454 H 134 -0.269872 0.614337 0
M  V30 1455 H 136.544 -0.195837 2.0356 0
M  V30 1456 H 134.699 -2.50136 2.95822 0
M  V30 1457 H 135.113 -1.61956 4.98869 0
M  V30 1458 H 136.587 -3.24722 4.46385 0
M  V30 1459 H 137.064 -3.40434 2.77491 0
M  V30 1460 H 137.67 -2.03493 3.73458 0
M  V30 1461 N 135.985 -1.50799 -0.457987 0
M  V30 1462 C 137.213 -1.66218 -1.23203 0
M  V30 1463 C 137.628 -0.350894 -1.85511 0
M  V30 1464 O 136.985 0.668546 -1.69814 0
M  V30 1465 C 137.036 -2.76291 -2.33121 0
M  V30 1466 O 136.757 -4.02338 -1.73366 0
M  V30 1467 C 138.258 -3.028 -3.2377 0
M  V30 1468 H 135.478 -0.558361 -0.372121 0
M  V30 1469 H 138.022 -1.97099 -0.545179 0
M  V30 1470 H 136.177 -2.48068 -2.97558 0
M  V30 1471 H 136.591 -4.63312 -2.4585 0
M  V30 1472 H 138.065 -3.8345 -3.97077 0
M  V30 1473 H 138.542 -2.14385 -3.83322 0
M  V30 1474 H 139.148 -3.32604 -2.65056 0
M  V30 1475 N 137.463 0.71206 -1.40597 0
M  V30 1476 C 138.41 1.82613 -1.41142 0
M  V30 1477 C 139.38 1.63925 -0.267903 0
M  V30 1478 O 140.565 1.85009 -0.466495 0
M  V30 1479 C 137.705 3.20354 -1.28324 0
M  V30 1480 C 136.818 3.50589 -2.52411 0
M  V30 1481 C 135.953 4.77855 -2.32009 0
M  V30 1482 C 134.992 5.01005 -3.51654 0
M  V30 1483 N 134.129 6.19487 -3.30425 0
M  V30 1484 H 138.969 1.81482 -2.36365 0
M  V30 1485 H 136.506 0.886475 -1.17388 0
M  V30 1486 H 138.464 3.99899 -1.18899 0
M  V30 1487 H 137.094 3.20705 -0.367189 0
M  V30 1488 H 136.146 2.65573 -2.72351 0
M  V30 1489 H 137.458 3.63604 -3.41458 0
M  V30 1490 H 136.612 5.65424 -2.19956 0
M  V30 1491 H 135.351 4.67056 -1.40392 0
M  V30 1492 H 134.356 4.1189 -3.64179 0
M  V30 1493 H 135.581 5.13674 -4.44202 0
M  V30 1494 H 133.527 6.09932 -2.41494 0
M  V30 1495 H 133.444 6.33194 -4.13039 0
M  V30 1496 H 134.712 7.09834 -3.22113 0
M  V30 1497 N 138.941 1.26152 0.944643 0
M  V30 1498 C 139.873 1.03199 2.04652 0
M  V30 1499 C 140.886 -0.00642356 1.62799 0
M  V30 1500 O 142.075 0.233263 1.76969 0
M  V30 1501 C 139.175 0.540111 3.34568 0
M  V30 1502 C 138.348 1.64697 4.05208 0
M  V30 1503 C 137.407 1.15374 5.13396 0
M  V30 1504 O 136.433 1.85013 5.38293 0
M  V30 1505 N 137.635 0.00031529 5.805 0
M  V30 1506 H 140.4 1.9808 2.2491 0
M  V30 1507 H 137.961 1.17491 1.11389 0
M  V30 1508 H 139.953 0.194401 4.04233 0
M  V30 1509 H 138.523 -0.315021 3.11009 0
M  V30 1510 H 137.743 2.16379 3.29506 0
M  V30 1511 H 139.031 2.3903 4.49157 0
M  V30 1512 H 138.429 -0.581336 5.62705 0
M  V30 1513 H 136.986 -0.286346 6.51171 0
M  V30 1514 N 140.419 -1.14872 1.07899 0
M  V30 1515 C 141.665 -1.86289 0.81657 0
M  V30 1516 C 142.02 -1.8107 -0.65049 0
M  V30 1517 O 141.313 -1.22684 -1.47171 0
M  V30 1518 C 141.507 -3.34223 1.26609 0
M  V30 1519 C 141.336 -3.53846 2.77531 0
M  V30 1520 C 140.106 -3.68995 3.45212 0
M  V30 1521 C 142.304 -3.51201 3.75716 0
M  V30 1522 N 140.286 -3.76725 4.84718 0
M  V30 1523 C 141.657 -3.65112 5.01092 0
M  V30 1524 C 143.712 -3.34507 3.68794 0
M  V30 1525 C 142.415 -3.64056 6.20368 0
M  V30 1526 C 144.441 -3.34752 4.8754 0
M  V30 1527 C 143.803 -3.49199 6.11751 0
M  V30 1528 H 139.902 -0.698579 0.351443 0
M  V30 1529 H 142.486 -1.37713 1.37634 0
M  V30 1530 H 140.657 -3.81402 0.73395 0
M  V30 1531 H 142.389 -3.93377 0.95062 0
M  V30 1532 H 139.144 -3.70006 2.95622 0
M  V30 1533 H 139.568 -3.8432 5.5734 0
M  V30 1534 H 144.21 -3.22253 2.73702 0
M  V30 1535 H 141.928 -3.75087 7.15776 0
M  V30 1536 H 145.514 -3.23055 4.83866 0
M  V30 1537 H 144.394 -3.49328 7.02097 0
M  V30 1538 N 141.898 -0.863906 -1.31812 0
M  V30 1539 C 142.83 -0.272485 -2.27575 0
M  V30 1540 C 143.843 0.56104 -1.52827 0
M  V30 1541 O 145.032 0.384021 -1.7432 0
M  V30 1542 C 142.132 0.63283 -3.32939 0
M  V30 1543 C 141.305 -0.166902 -4.37081 0
M  V30 1544 C 140.364 0.665608 -5.21973 0
M  V30 1545 O 139.39 0.0958091 -5.69119 0
M  V30 1546 N 140.592 1.9787 -5.45736 0
M  V30 1547 H 143.357 -1.0954 -2.78964 0
M  V30 1548 H 140.918 -0.724791 -1.4477 0
M  V30 1549 H 142.91 1.19532 -3.86645 0
M  V30 1550 H 141.48 1.35642 -2.81638 0
M  V30 1551 H 140.7 -0.910838 -3.83533 0
M  V30 1552 H 141.988 -0.715874 -5.03739 0
M  V30 1553 H 141.386 2.46484 -5.09178 0
M  V30 1554 H 139.943 2.48911 -6.024 0
M  V30 1555 N 143.376 1.44774 -0.622745 0
M  V30 1556 C 144.339 2.29069 0.0774015 0
M  V30 1557 C 145.339 1.4059 0.780461 0
M  V30 1558 O 146.529 1.62551 0.626322 0
M  V30 1559 C 143.661 3.21974 1.12006 0
M  V30 1560 H 144.854 2.92459 -0.663901 0
M  V30 1561 H 142.407 1.51548 -0.382486 0
M  V30 1562 H 143.142 2.63417 1.89162 0
M  V30 1563 H 142.927 3.87168 0.619951 0
M  V30 1564 H 144.417 3.85318 1.60995 0
M  V30 1565 N 144.854 0.36279 1.53368 0
M  V30 1566 C 146.103 -0.22888 2.00397 0
M  V30 1567 C 146.416 -1.50096 1.25421 0
M  V30 1568 O 147.622 -2.17106 1.63025 0
M  V30 1569 C 146.078 -0.458417 3.56969 0
M  V30 1570 C 145.686 0.798877 4.4082 0
M  V30 1571 C 147.43 -1.00789 4.12361 0
M  V30 1572 C 145.337 0.539078 5.88938 0
M  V30 1573 H 144.267 -0.089305 0.748693 0
M  V30 1574 H 146.918 0.481099 1.77081 0
M  V30 1575 H 145.3 -1.22959 3.76427 0
M  V30 1576 H 146.474 1.57262 4.33134 0
M  V30 1577 H 144.789 1.27137 3.96516 0
M  V30 1578 H 147.386 -1.21754 5.20653 0
M  V30 1579 H 147.729 -1.9692 3.66781 0
M  V30 1580 H 148.262 -0.296961 3.9669 0
M  V30 1581 H 145.001 1.47064 6.3879 0
M  V30 1582 H 144.521 -0.196222 5.99479 0
M  V30 1583 H 146.2 0.163542 6.46793 0
M  V30 1584 N 146.332 -1.57332 0.0918853 0
M  V30 1585 C 147.609 -1.85691 -0.614668 0
M  V30 1586 C 147.989 -0.988146 -1.86545 0
M  V30 1587 O 147.337 -0.0597055 -2.28422 0
M  V30 1588 C 147.547 -3.36294 -0.933126 0
M  V30 1589 C 148.895 -4.04275 -1.29796 0
M  V30 1590 O 149.919 -3.41157 -1.02424 0
M  V30 1591 O 148.778 -5.1564 -1.81047 0
M  V30 1592 H 145.872 -0.767802 -0.307261 0
M  V30 1593 H 148.418 -1.69244 0.12434 0
M  V30 1594 H 147.19 -3.91273 -0.0456404 0
M  V30 1595 H 146.813 -3.58076 -1.72822 0
M  V30 1596 N 147.81 0.181792 -1.56548 0
M  V30 1597 C 148.757 1.22521 -1.95595 0
M  V30 1598 C 149.727 1.4454 -0.818373 0
M  V30 1599 O 150.912 1.57454 -1.07763 0
M  V30 1600 C 148.052 2.56193 -2.31212 0
M  V30 1601 C 147.165 2.41641 -3.58097 0
M  V30 1602 C 146.3 3.68108 -3.82975 0
M  V30 1603 C 145.339 3.48445 -5.03242 0
M  V30 1604 N 144.476 4.66956 -5.24306 0
M  V30 1605 H 149.316 0.885226 -2.84548 0
M  V30 1606 H 146.853 0.425718 -1.40805 0
M  V30 1607 H 148.811 3.34088 -2.49882 0
M  V30 1608 H 147.441 2.88208 -1.45382 0
M  V30 1609 H 146.493 1.54976 -3.474 0
M  V30 1610 H 147.805 2.23052 -4.46149 0
M  V30 1611 H 146.959 4.54441 -4.01956 0
M  V30 1612 H 145.698 3.89666 -2.93278 0
M  V30 1613 H 144.703 2.60499 -4.8417 0
M  V30 1614 H 145.928 3.2832 -5.9446 0
M  V30 1615 H 143.874 4.88752 -4.37559 0
M  V30 1616 H 143.791 4.51242 -6.06561 0
M  V30 1617 H 145.059 5.54602 -5.47756 0
M  V30 1618 N 149.288 1.51039 0.449983 0
M  V30 1619 C 150.535 1.63081 1.20045 0
M  V30 1620 C 150.863 0.341024 1.91487 0
M  V30 1621 O 150.118 -0.674276 1.83717 0
M  V30 1622 C 150.417 2.77556 2.25161 0
M  V30 1623 C 150.083 4.17289 1.70823 0
M  V30 1624 C 148.745 4.55305 1.55725 0
M  V30 1625 C 151.097 5.04536 1.3074 0
M  V30 1626 C 148.425 5.78287 0.989999 0
M  V30 1627 C 150.777 6.28085 0.754482 0
M  V30 1628 C 149.441 6.64885 0.590308 0
M  V30 1629 H 148.711 0.596755 0.439277 0
M  V30 1630 H 151.358 1.85037 0.49333 0
M  V30 1631 H 149.663 2.49771 3.01863 0
M  V30 1632 H 151.36 2.84073 2.83026 0
M  V30 1633 H 147.95 3.8731 1.83546 0
M  V30 1634 H 152.134 4.75782 1.41229 0
M  V30 1635 H 147.39 6.05456 0.850451 0
M  V30 1636 H 151.564 6.95038 0.435324 0
M  V30 1637 H 149.191 7.60055 0.14862 0
M  V30 1638 N 150.766 -0.704594 1.40972 0
M  V30 1639 C 151.729 -1.80035 1.41845 0
M  V30 1640 C 152.729 -1.57774 0.310474 0
M  V30 1641 O 153.919 -1.64613 0.56992 0
M  V30 1642 C 151.051 -3.18284 1.22098 0
M  V30 1643 H 152.244 -1.80658 2.3938 0
M  V30 1644 H 149.797 -0.911329 1.26982 0
M  V30 1645 H 150.532 -3.23306 0.253672 0
M  V30 1646 H 150.317 -3.35843 2.02366 0
M  V30 1647 H 151.807 -3.98289 1.25522 0
M  V30 1648 N 152.244 -1.26651 -0.937939 0
M  V30 1649 C 153.492 -1.12165 -1.68118 0
M  V30 1650 C 153.813 0.334983 -1.92101 0
M  V30 1651 O 153.083 1.23583 -1.52 0
M  V30 1652 H 151.663 -0.412093 -0.623048 0
M  V30 1653 H 154.325 -1.59027 -1.12678 0
M  V30 1654 H 153.421 -1.64289 -2.6536 0
M  V30 1655 N 153.722 1.14298 -1.08507 0
M  V30 1656 C 154.632 2.23027 -0.727753 0
M  V30 1657 C 155.648 1.71952 0.26619 0
M  V30 1658 O 156.824 2.011 0.109882 0
M  V30 1659 C 153.889 3.46403 -0.143541 0
M  V30 1660 C 152.95 4.12413 -1.19223 0
M  V30 1661 C 152.183 5.29899 -0.635798 0
M  V30 1662 O 152.406 5.67796 0.544393 0
M  V30 1663 O 151.34 5.85717 -1.38634 0
M  V30 1664 H 155.166 2.55945 -1.63481 0
M  V30 1665 H 152.751 1.22248 -0.858817 0
M  V30 1666 H 154.633 4.21018 0.179404 0
M  V30 1667 H 153.308 3.15206 0.736659 0
M  V30 1668 H 152.215 3.39667 -1.56772 0
M  V30 1669 H 153.548 4.47718 -2.04474 0
M  V30 1670 N 155.201 0.870884 1.31352 0
M  V30 1671 C 156.149 0.316445 2.30437 0
M  V30 1672 C 157.143 -0.568965 1.59559 0
M  V30 1673 O 158.349 -0.454964 1.74155 0
M  V30 1674 H 154.724 0.0836521 0.747333 0
M  V30 1675 H 156.695 1.16606 2.74673 0
M  V30 1676 C 155.444 -0.46635 3.44558 0
M  V30 1677 H 154.767 0.205687 3.99271 0
M  V30 1678 H 156.207 -0.819614 4.16003 0
M  V30 1679 C 154.666 -1.65797 2.9328 0
M  V30 1680 O 155.196 -2.75728 2.92125 0
M  V30 1681 N 153.402 -1.49041 2.4947 0
M  V30 1682 H 152.949 -0.59612 2.50608 0
M  V30 1683 H 152.907 -2.28911 2.15516 0
M  V30 1684 N 156.679 -1.44442 0.630414 0
M  V30 1685 C 157.907 -2.06414 0.141671 0
M  V30 1686 C 158.322 -1.47105 -1.18345 0
M  V30 1687 O 157.679 -0.593662 -1.72574 0
M  V30 1688 C 157.73 -3.61494 0.0199784 0
M  V30 1689 O 157.451 -4.18594 1.29269 0
M  V30 1690 C 158.952 -4.40499 -0.497544 0
M  V30 1691 H 156.172 -0.666292 0.0793452 0
M  V30 1692 H 158.716 -1.85323 0.864614 0
M  V30 1693 H 156.871 -3.8185 -0.653402 0
M  V30 1694 H 157.285 -5.12026 1.13707 0
M  V30 1695 H 158.759 -5.49433 -0.531708 0
M  V30 1696 H 159.236 -4.11895 -1.52445 0
M  V30 1697 H 159.842 -4.25061 0.142562 0
M  V30 1698 N 158.157 -0.370918 -1.53173 0
M  V30 1699 C 159.406 0.218249 -2.00516 0
M  V30 1700 C 159.719 1.49429 -1.26215 0
M  V30 1701 O 160.925 2.16239 -1.64174 0
M  V30 1702 C 159.381 0.43948 -3.57207 0
M  V30 1703 C 158.989 -0.822244 -4.4039 0
M  V30 1704 C 160.733 0.986012 -4.1289 0
M  V30 1705 C 158.64 -0.570304 -5.88644 0
M  V30 1706 H 157.57 0.0853333 -0.749156 0
M  V30 1707 H 160.221 -0.490483 -1.76823 0
M  V30 1708 H 158.603 1.20961 -3.77074 0
M  V30 1709 H 159.777 -1.59557 -4.32294 0
M  V30 1710 H 158.092 -1.29238 -3.95836 0
M  V30 1711 H 160.689 1.18991 -5.21292 0
M  V30 1712 H 161.032 1.94972 -3.6782 0
M  V30 1713 H 161.565 0.27592 -3.96842 0
M  V30 1714 H 158.304 -1.50449 -6.38001 0
M  V30 1715 H 157.824 0.164427 -5.99575 0
M  V30 1716 H 159.503 -0.19784 -6.46697 0
M  V30 1717 N 159.635 1.57281 -0.100228 0
M  V30 1718 C 160.865 1.98591 0.569681 0
M  V30 1719 C 161.273 0.978315 1.61943 0
M  V30 1720 O 160.616 -0.0396108 1.83657 0
M  V30 1721 C 160.678 3.36282 1.271 0
M  V30 1722 C 160.342 4.55488 0.371409 0
M  V30 1723 C 161.339 5.18491 -0.382504 0
M  V30 1724 C 159.024 5.01474 0.287965 0
M  V30 1725 C 161.018 6.25852 -1.20779 0
M  V30 1726 C 158.705 6.08701 -0.540965 0
M  V30 1727 C 159.703 6.70755 -1.28749 0
M  V30 1728 O 159.391 7.75914 -2.10269 0
M  V30 1729 H 159.123 0.65752 0.156982 0
M  V30 1730 H 161.677 2.0463 -0.177734 0
M  V30 1731 H 159.907 3.26941 2.0651 0
M  V30 1732 H 161.596 3.62005 1.83595 0
M  V30 1733 H 162.362 4.83891 -0.3278 0
M  V30 1734 H 158.241 4.52932 0.858689 0
M  V30 1735 H 161.785 6.74218 -1.79096 0
M  V30 1736 H 157.682 6.42732 -0.597131 0
M  V30 1737 H 158.45 7.92925 -2.03007 0
M  V30 1738 N 161.113 -0.173488 1.56642 0
M  V30 1739 C 162.361 -0.888706 1.81512 0
M  V30 1740 C 162.682 -1.82875 0.676872 0
M  V30 1741 O 161.952 -1.93536 -0.303414 0
M  V30 1742 H 160.532 -0.331164 0.669582 0
M  V30 1743 H 163.194 -0.173823 1.94123 0
M  V30 1744 H 162.29 -1.46691 2.75478 0
M  V30 1745 N 162.591 -1.51276 -0.441967 0
M  V30 1746 C 163.816 -1.67799 -1.21895 0
M  V30 1747 C 164.241 -0.372864 -1.84367 0
M  V30 1748 O 163.599 0.666501 -1.68604 0
M  V30 1749 C 163.647 -2.79199 -2.28211 0
M  V30 1750 O 162.751 -2.42479 -3.33583 0
M  V30 1751 H 162.092 -0.559649 -0.357336 0
M  V30 1752 H 164.622 -1.97815 -0.522522 0
M  V30 1753 H 164.632 -3.03146 -2.73069 0
M  V30 1754 H 163.307 -3.73906 -1.82118 0
M  V30 1755 H 161.884 -2.29087 -2.94234 0
M  V30 1756 N 164.069 0.697108 -1.41344 0
M  V30 1757 C 165.318 1.45279 -1.39918 0
M  V30 1758 C 165.631 1.95597 -0.0109624 0
M  V30 1759 O 166.837 2.71208 0.125919 0
M  V30 1760 C 165.293 2.62695 -2.46007 0
M  V30 1761 C 164.901 2.19169 -3.90729 0
M  V30 1762 C 166.645 3.40336 -2.53715 0
M  V30 1763 C 164.552 3.33535 -4.88373 0
M  V30 1764 H 163.482 0.545692 -0.520323 0
M  V30 1765 H 166.133 0.756929 -1.67161 0
M  V30 1766 H 164.515 3.34541 -2.11892 0
M  V30 1767 H 165.689 1.54623 -4.34083 0
M  V30 1768 H 164.004 1.54525 -3.86666 0
M  V30 1769 H 166.601 4.2547 -3.2385 0
M  V30 1770 H 166.944 3.85418 -1.5735 0
M  V30 1771 H 167.477 2.75546 -2.86913 0
M  V30 1772 H 164.216 2.93468 -5.86137 0
M  V30 1773 H 163.736 3.96936 -4.49668 0
M  V30 1774 H 165.415 3.99335 -5.09059 0
M  V30 1775 N 165.547 1.27147 0.931209 0
M  V30 1776 C 166.963 1.04475 1.20653 0
M  V30 1777 C 167.163 -0.223885 2.00252 0
M  V30 1778 O 166.219 -0.930332 2.34736 0
M  V30 1779 C 167.532 2.28209 1.95809 0
M  V30 1780 C 169.08 2.33211 2.08762 0
M  V30 1781 C 169.555 3.56665 2.87323 0
M  V30 1782 N 171.046 3.57201 2.94892 0
M  V30 1783 C 171.781 4.49395 3.56134 0
M  V30 1784 N 171.277 5.51889 4.18796 0
M  V30 1785 N 173.07 4.37026 3.53504 0
M  V30 1786 H 165.221 2.08612 0.399333 0
M  V30 1787 H 167.484 0.917312 0.239253 0
M  V30 1788 H 167.19 3.20538 1.44736 0
M  V30 1789 H 167.064 2.33247 2.96438 0
M  V30 1790 H 169.451 1.41391 2.59023 0
M  V30 1791 H 169.532 2.32178 1.07364 0
M  V30 1792 H 169.176 4.4882 2.37746 0
M  V30 1793 H 169.106 3.54948 3.88998 0
M  V30 1794 H 171.597 2.83074 2.50354 0
M  V30 1795 H 171.91 6.18409 4.63454 0
M  V30 1796 H 170.255 5.55735 4.17353 0
M  V30 1797 H 173.446 3.56166 3.03749 0
M  V30 1798 H 173.619 5.09067 4.00942 0
M  V30 1799 N 167.025 -1.13721 1.09112 0
M  V30 1800 C 167.955 -2.21148 0.749385 0
M  V30 1801 C 168.936 -1.6792 -0.271475 0
M  V30 1802 O 170.121 -1.93693 -0.140251 0
M  V30 1803 C 167.251 -3.46905 0.165659 0
M  V30 1804 C 166.205 -4.13203 1.11567 0
M  V30 1805 C 165.531 -5.33248 0.393809 0
M  V30 1806 C 166.831 -4.60912 2.45678 0
M  V30 1807 H 168.525 -2.4999 1.64758 0
M  V30 1808 H 166.071 -1.20156 0.793626 0
M  V30 1809 H 168.024 -4.21313 -0.085466 0
M  V30 1810 H 166.748 -3.17449 -0.767714 0
M  V30 1811 H 165.407 -3.40758 1.35202 0
M  V30 1812 H 165.055 -5.00054 -0.543599 0
M  V30 1813 H 164.755 -5.78552 1.02721 0
M  V30 1814 H 166.279 -6.10413 0.150908 0
M  V30 1815 H 167.693 -5.26759 2.26269 0
M  V30 1816 H 166.09 -5.16944 3.04776 0
M  V30 1817 H 167.16 -3.75603 3.06677 0
M  V30 1818 N 168.503 -0.877838 -1.30888 0
M  V30 1819 C 169.731 -0.507414 -2.00581 0
M  V30 1820 C 170.146 0.902216 -1.65848 0
M  V30 1821 O 169.503 1.59225 -0.891831 0
M  V30 1822 C 169.554 -0.664162 -3.55347 0
M  V30 1823 O 169.275 -2.01829 -3.8884 0
M  V30 1824 C 170.776 -0.295787 -4.42312 0
M  V30 1825 H 167.996 -0.196866 -0.641471 0
M  V30 1826 H 170.54 -1.18117 -1.66939 0
M  V30 1827 H 168.695 -0.0378619 -3.87381 0
M  V30 1828 H 169.109 -2.03174 -4.8355 0
M  V30 1829 H 170.583 -0.456388 -5.5011 0
M  V30 1830 H 171.06 0.765663 -4.32475 0
M  V30 1831 H 171.666 -0.898113 -4.15709 0
M  V30 1832 N 169.982 1.44106 -0.638065 0
M  V30 1833 C 170.93 2.3248 0.0748149 0
M  V30 1834 C 171.924 1.47746 0.828702 0
M  V30 1835 O 173.13 1.64049 0.740816 0
M  V30 1836 H 169.505 0.750771 0.0429686 0
M  V30 1837 H 171.476 2.90348 -0.688504 0
M  V30 1838 C 170.225 3.31843 1.03805 0
M  V30 1839 H 169.548 3.97059 0.467375 0
M  V30 1840 H 170.988 3.96345 1.50622 0
M  V30 1841 C 169.447 2.61291 2.1267 0
M  V30 1842 O 169.977 2.41702 3.20847 0
M  V30 1843 N 168.183 2.20915 1.88798 0
M  V30 1844 H 167.73 2.37047 1.00829 0
M  V30 1845 H 167.688 1.74038 2.61836 0
M  V30 1846 N 171.46 0.379036 1.52974 0
M  V30 1847 C 172.876 0.0285448 1.59574 0
M  V30 1848 C 173.076 -1.45542 1.39355 0
M  V30 1849 O 172.132 -2.2187 1.20541 0
M  V30 1850 C 173.445 0.496535 2.96572 0
M  V30 1851 C 174.993 0.451909 3.0972 0
M  V30 1852 C 175.468 0.895924 4.49152 0
M  V30 1853 N 176.959 0.851522 4.55306 0
M  V30 1854 C 177.694 1.16661 5.61407 0
M  V30 1855 N 177.19 1.55166 6.752 0
M  V30 1856 N 178.983 1.08853 5.51459 0
M  V30 1857 H 171.134 1.34525 1.64367 0
M  V30 1858 H 173.397 0.550733 0.771619 0
M  V30 1859 H 173.103 1.53258 3.16552 0
M  V30 1860 H 172.977 -0.109802 3.7704 0
M  V30 1861 H 175.364 -0.575029 2.89443 0
M  V30 1862 H 175.445 1.09392 2.3123 0
M  V30 1863 H 175.089 1.92104 4.70168 0
M  V30 1864 H 175.019 0.23103 5.26093 0
M  V30 1865 H 177.51 0.568038 3.73606 0
M  V30 1866 H 177.823 1.776 7.52116 0
M  V30 1867 H 176.168 1.59044 6.76557 0
M  V30 1868 H 179.359 0.786803 4.6144 0
M  V30 1869 H 179.532 1.33742 6.34048 0
M  V30 1870 N 172.938 -1.57226 0.108567 0
M  V30 1871 C 173.87 -2.11809 -0.875752 0
M  V30 1872 C 174.883 -1.05839 -1.23701 0
M  V30 1873 O 176.072 -1.33245 -1.18778 0
M  V30 1874 C 173.172 -2.59411 -2.18081 0
M  V30 1875 C 172.345 -3.89364 -1.99284 0
M  V30 1876 C 171.404 -4.22672 -3.13424 0
M  V30 1877 O 170.43 -4.91668 -2.86795 0
M  V30 1878 N 171.632 -3.79154 -4.3957 0
M  V30 1879 H 174.397 -2.9689 -0.409477 0
M  V30 1880 H 171.958 -1.61721 -0.076158 0
M  V30 1881 H 173.95 -2.7873 -2.93414 0
M  V30 1882 H 172.52 -1.79268 -2.5609 0
M  V30 1883 H 171.74 -3.79059 -1.08203 0
M  V30 1884 H 173.028 -4.74358 -1.84017 0
M  V30 1885 H 172.426 -3.23486 -4.64083 0
M  V30 1886 H 170.983 -4.03602 -5.11809 0
M  V30 1887 N 174.416 0.165178 -1.56732 0
M  V30 1888 C 175.644 0.896218 -1.86482 0
M  V30 1889 C 176.059 1.75555 -0.694675 0
M  V30 1890 O 175.416 1.79379 0.33607 0
M  V30 1891 C 175.467 1.76792 -3.1532 0
M  V30 1892 O 175.188 0.943239 -4.27825 0
M  V30 1893 C 176.689 2.6081 -3.58459 0
M  V30 1894 H 173.909 0.260064 -0.618553 0
M  V30 1895 H 176.453 0.163428 -2.03846 0
M  V30 1896 H 174.608 2.45398 -2.99764 0
M  V30 1897 H 175.022 1.53998 -5.01383 0
M  V30 1898 H 176.496 3.17579 -4.51495 0
M  V30 1899 H 176.973 3.35977 -2.82872 0
M  V30 1900 H 177.579 1.97526 -3.76648 0
M  V30 1901 N 175.894 1.51508 0.433938 0
M  V30 1902 C 177.141 1.64345 1.18309 0
M  V30 1903 C 177.469 0.361315 1.91115 0
M  V30 1904 O 176.724 -0.654753 1.84422 0
M  V30 1905 C 177.023 2.79928 2.22205 0
M  V30 1906 C 176.689 4.19078 1.66387 0
M  V30 1907 C 175.351 4.56932 1.50887 0
M  V30 1908 C 177.703 5.05894 1.25381 0
M  V30 1909 C 175.031 5.79305 0.928608 0
M  V30 1910 C 177.383 6.2885 0.687823 0
M  V30 1911 C 176.047 6.65473 0.519755 0
M  V30 1912 H 175.317 0.601381 0.432923 0
M  V30 1913 H 177.964 1.85549 0.473676 0
M  V30 1914 H 176.269 2.52959 2.99197 0
M  V30 1915 H 177.966 2.87059 2.79997 0
M  V30 1916 H 174.556 3.89234 1.79428 0
M  V30 1917 H 178.74 4.77253 1.36175 0
M  V30 1918 H 173.996 6.06324 0.786186 0
M  V30 1919 H 178.17 6.95461 0.361581 0
M  V30 1920 H 175.797 7.6017 0.0679979 0
M  V30 1921 N 177.372 -0.689602 1.41712 0
M  V30 1922 C 178.304 -1.815 1.39966 0
M  V30 1923 C 179.317 -1.59995 0.300917 0
M  V30 1924 O 180.506 -1.69387 0.563039 0
M  V30 1925 C 177.606 -3.18364 1.16179 0
M  V30 1926 C 176.779 -3.66847 2.38206 0
M  V30 1927 C 175.838 -4.82398 2.10186 0
M  V30 1928 O 174.864 -4.93706 2.83272 0
M  V30 1929 N 176.066 -5.70064 1.0958 0
M  V30 1930 H 178.831 -1.83488 2.36965 0
M  V30 1931 H 176.392 -0.872149 1.36401 0
M  V30 1932 H 178.384 -3.93301 0.953756 0
M  V30 1933 H 176.954 -3.11365 0.27756 0
M  V30 1934 H 176.174 -2.82751 2.74673 0
M  V30 1935 H 177.462 -3.95978 3.19498 0
M  V30 1936 H 176.86 -5.63565 0.491019 0
M  V30 1937 H 175.417 -6.44874 0.947656 0
M  V30 1938 N 178.85 -1.27639 -0.924453 0
M  V30 1939 C 180.097 -1.14167 -1.67249 0
M  V30 1940 C 180.425 0.311863 -1.91984 0
M  V30 1941 O 179.68 1.24425 -1.51053 0
M  V30 1942 C 179.979 -1.87407 -3.04325 0
M  V30 1943 C 179.645 -3.37249 -2.99289 0
M  V30 1944 C 178.307 -3.7812 -2.97622 0
M  V30 1945 C 180.659 -4.32845 -2.90336 0
M  V30 1946 C 177.987 -5.12944 -2.8479 0
M  V30 1947 C 180.339 -5.6773 -2.79045 0
M  V30 1948 C 179.003 -6.07889 -2.7573 0
M  V30 1949 H 178.273 -0.417766 -0.612007 0
M  V30 1950 H 180.92 -1.58286 -1.07786 0
M  V30 1951 H 179.225 -1.35805 -3.67511 0
M  V30 1952 H 180.922 -1.74408 -3.61086 0
M  V30 1953 H 177.512 -3.04748 -3.01374 0
M  V30 1954 H 181.696 -4.02239 -2.90719 0
M  V30 1955 H 176.952 -5.432 -2.80612 0
M  V30 1956 H 181.126 -6.41472 -2.71083 0
M  V30 1957 H 178.753 -7.12314 -2.65544 0
M  V30 1958 N 180.328 1.1314 -1.09713 0
M  V30 1959 C 181.278 2.16709 -0.708593 0
M  V30 1960 C 182.262 1.58471 0.278523 0
M  V30 1961 O 183.454 1.76779 0.088427 0
M  V30 1962 C 180.583 3.43039 -0.133923 0
M  V30 1963 C 179.669 4.08277 -1.14763 0
M  V30 1964 N 180.06 4.48637 -2.33577 0
M  V30 1965 C 178.358 4.34954 -0.986446 0
M  V30 1966 C 179.059 4.9952 -2.98085 0
M  V30 1967 N 178.035 4.94561 -2.25632 0
M  V30 1968 H 181.837 2.45672 -1.61315 0
M  V30 1969 H 179.351 1.29967 -0.973775 0
M  V30 1970 H 181.348 4.16583 0.162465 0
M  V30 1971 H 180.008 3.15549 0.765447 0
M  V30 1972 H 181.019 4.41246 -2.7115 0
M  V30 1973 H 177.696 4.17258 -0.142008 0
M  V30 1974 H 179.086 5.40521 -3.99108 0
M  V30 1975 N 181.806 0.884767 1.30421 0
M  V30 1976 C 183.054 0.502112 1.95763 0
M  V30 1977 C 183.375 -0.951815 1.70192 0
M  V30 1978 O 182.645 -1.6692 1.0254 0
M  V30 1979 H 181.225 0.182694 0.724315 0
M  V30 1980 H 183.887 1.1278 1.58955 0
M  V30 1981 H 182.983 0.672188 3.04775 0
M  V30 1982 N 183.284 -1.43765 0.645699 0
M  V30 1983 C 184.533 -2.01116 0.153412 0
M  V30 1984 C 184.846 -1.51493 -1.23731 0
M  V30 1985 O 186.052 -2.01067 -1.8244 0
M  V30 1986 C 184.508 -3.59206 0.223473 0
M  V30 1987 C 184.116 -4.17823 1.61642 0
M  V30 1988 C 185.86 -4.23972 -0.211597 0
M  V30 1989 C 183.767 -5.68183 1.64081 0
M  V30 1990 H 182.697 -0.752093 0.0535891 0
M  V30 1991 H 185.348 -1.6482 0.806633 0
M  V30 1992 H 183.73 -3.92867 -0.497118 0
M  V30 1993 H 184.904 -3.95674 2.36176 0
M  V30 1994 H 183.219 -3.65399 1.99681 0
M  V30 1995 H 185.816 -5.34275 -0.213112 0
M  V30 1996 H 186.159 -3.97352 -1.24165 0
M  V30 1997 H 186.692 -3.95166 0.456988 0
M  V30 1998 H 183.431 -5.99559 2.64971 0
M  V30 1999 H 182.951 -5.9241 0.938611 0
M  V30 2000 H 184.63 -6.32085 1.3812 0
M  V30 2001 N 184.763 -0.387143 -1.52771 0
M  V30 2002 C 185.693 0.440551 -2.29306 0
M  V30 2003 C 186.674 1.06535 -1.32606 0
M  V30 2004 O 187.859 1.07853 -1.61497 0
M  V30 2005 C 184.989 1.56919 -3.09829 0
M  V30 2006 C 183.943 1.07054 -4.14395 0
M  V30 2007 C 183.269 2.29109 -4.83129 0
M  V30 2008 C 184.569 0.140015 -5.22112 0
M  V30 2009 H 186.263 -0.198026 -2.98744 0
M  V30 2010 H 183.809 -0.09668 -1.43675 0
M  V30 2011 H 185.762 2.15503 -3.62128 0
M  V30 2012 H 184.486 2.23532 -2.3812 0
M  V30 2013 H 183.145 0.507247 -3.63074 0
M  V30 2014 H 182.793 2.94227 -4.0797 0
M  V30 2015 H 182.493 1.96406 -5.53804 0
M  V30 2016 H 184.017 2.88339 -5.38231 0
M  V30 2017 H 185.431 0.633978 -5.69784 0
M  V30 2018 H 183.828 -0.0971485 -6.00021 0
M  V30 2019 H 184.898 -0.811711 -4.78058 0
M  V30 2020 N 186.241 1.57166 -0.116904 0
M  V30 2021 C 187.188 2.15202 0.83408 0
M  V30 2022 C 188.158 1.07644 1.26499 0
M  V30 2023 O 189.343 1.35541 1.34288 0
M  V30 2024 C 186.483 2.75405 2.07957 0
M  V30 2025 C 185.596 3.97264 1.69721 0
M  V30 2026 C 184.731 4.45561 2.89221 0
M  V30 2027 C 183.77 5.59956 2.47215 0
M  V30 2028 N 182.907 6.03006 3.59622 0
M  V30 2029 H 187.747 2.96141 0.332335 0
M  V30 2030 H 185.284 1.46309 0.152349 0
M  V30 2031 H 187.242 3.08439 2.80929 0
M  V30 2032 H 185.872 1.97159 2.55594 0
M  V30 2033 H 184.924 3.70404 0.866316 0
M  V30 2034 H 186.236 4.80226 1.34849 0
M  V30 2035 H 185.39 4.80493 3.7042 0
M  V30 2036 H 184.129 3.61544 3.27318 0
M  V30 2037 H 183.134 5.2463 1.64448 0
M  V30 2038 H 184.359 6.45738 2.10238 0
M  V30 2039 H 182.305 5.21931 3.97396 0
M  V30 2040 H 182.222 6.80819 3.28667 0
M  V30 2041 H 183.49 6.42576 4.41267 0
M  V30 2042 N 187.719 -0.156864 1.56817 0
M  V30 2043 C 188.666 -1.19394 1.97519 0
M  V30 2044 C 189.636 -1.4322 0.841265 0
M  V30 2045 O 190.821 -1.55719 1.10255 0
M  V30 2046 C 187.961 -2.52483 2.35258 0
M  V30 2047 C 187.074 -2.35914 3.61896 0
M  V30 2048 C 186.209 -3.61969 3.88782 0
M  V30 2049 C 185.248 -3.40395 5.08722 0
M  V30 2050 N 184.385 -4.58556 5.31668 0
M  V30 2051 H 189.225 -0.839845 2.85921 0
M  V30 2052 H 186.762 -0.403264 1.41464 0
M  V30 2053 H 188.72 -3.30071 2.55165 0
M  V30 2054 H 187.35 -2.85859 1.49949 0
M  V30 2055 H 186.402 -1.49429 3.49821 0
M  V30 2056 H 187.714 -2.15926 4.49641 0
M  V30 2057 H 186.868 -4.47989 4.09135 0
M  V30 2058 H 185.607 -3.84951 2.9944 0
M  V30 2059 H 184.612 -2.52763 4.88253 0
M  V30 2060 H 185.837 -3.18822 5.99608 0
M  V30 2061 H 183.783 -4.81729 4.45279 0
M  V30 2062 H 183.7 -4.41535 6.13664 0
M  V30 2063 H 184.968 -5.45817 5.5651 0
M  V30 2064 N 189.197 -1.51736 -0.425897 0
M  V30 2065 C 190.145 -1.74464 -1.53834 0
M  V30 2066 C 191.139 -0.611241 -1.57988 0
M  V30 2067 O 192.345 -0.792899 -1.61596 0
M  V30 2068 H 188.72 -0.551437 -0.511293 0
M  V30 2069 H 190.691 -2.67694 -1.31843 0
M  V30 2070 C 189.44 -1.8972 -2.91379 0
M  V30 2071 H 188.763 -2.76344 -2.88919 0
M  V30 2072 H 190.203 -2.09629 -3.68553 0
M  V30 2073 C 188.662 -0.65992 -3.30374 0
M  V30 2074 O 189.192 0.180083 -4.01296 0
M  V30 2075 N 187.398 -0.500677 -2.86254 0
M  V30 2076 H 186.945 -1.18532 -2.28709 0
M  V30 2077 H 186.903 0.325903 -3.12706 0
M  V30 2078 N 190.675 0.682077 -1.42076 0
M  V30 2079 C 191.921 1.44428 -1.42367 0
M  V30 2080 C 192.254 1.94164 -0.0373056 0
M  V30 2081 O 191.529 1.70429 0.937239 0
M  V30 2082 C 191.812 2.64654 -2.44194 0
M  V30 2083 C 191.665 2.20596 -3.91991 0
M  V30 2084 C 192.984 3.66865 -2.431 0
M  V30 2085 H 190.103 0.523834 -0.518428 0
M  V30 2086 H 192.745 0.77576 -1.73442 0
M  V30 2087 H 190.895 3.2169 -2.17826 0
M  V30 2088 H 192.567 1.68783 -4.29313 0
M  V30 2089 H 190.81 1.52242 -4.06208 0
M  V30 2090 H 191.481 3.06921 -4.58807 0
M  V30 2091 H 193.957 3.19531 -2.66532 0
M  V30 2092 H 192.833 4.48577 -3.16339 0
M  V30 2093 H 193.094 4.17493 -1.45437 0
M  V30 2094 N 192.153 1.28127 0.917671 0
M  V30 2095 C 193.1 1.11717 2.0196 0
M  V30 2096 C 194.07 0.0153929 1.66093 0
M  V30 2097 O 195.255 0.179596 1.89953 0
M  V30 2098 C 192.395 0.780927 3.36148 0
M  V30 2099 C 191.508 1.96135 3.84909 0
M  V30 2100 C 190.643 1.56609 5.0759 0
M  V30 2101 C 189.682 2.71339 5.48673 0
M  V30 2102 N 188.819 2.32332 6.62545 0
M  V30 2103 H 193.659 2.06003 2.15329 0
M  V30 2104 H 191.196 1.02535 1.05475 0
M  V30 2105 H 193.154 0.56675 4.13333 0
M  V30 2106 H 191.784 -0.124998 3.22558 0
M  V30 2107 H 190.836 2.28777 3.03916 0
M  V30 2108 H 192.148 2.82165 4.1132 0
M  V30 2109 H 191.302 1.31374 5.92305 0
M  V30 2110 H 190.041 0.677014 4.82978 0
M  V30 2111 H 189.046 2.97276 4.62501 0
M  V30 2112 H 190.271 3.60882 5.75274 0
M  V30 2113 H 188.217 1.45889 6.39572 0
M  V30 2114 H 188.134 3.11899 6.88662 0
M  V30 2115 H 189.402 2.10371 7.50576 0
M  V30 2116 N 193.631 -1.12557 1.10312 0
M  V30 2117 C 195.042 -1.65574 0.862678 0
M  V30 2118 C 195.393 -1.86566 -0.607256 0
M  V30 2119 O 194.518 -1.59121 -1.46662 0
M  V30 2120 C 195.113 -3.00776 1.55947 0
M  V30 2121 C 193.672 -3.50748 1.36576 0
M  V30 2122 C 192.819 -2.25797 1.60968 0
M  V30 2123 H 195.77 -0.963552 1.26101 0
M  V30 2124 H 195.791 -3.67185 0.997753 0
M  V30 2125 H 195.303 -2.85465 2.62928 0
M  V30 2126 H 193.404 -3.71245 0.317531 0
M  V30 2127 H 193.517 -4.30289 2.10686 0
M  V30 2128 H 191.881 -2.32841 1.03234 0
M  V30 2129 H 192.664 -2.13043 2.69198 0
M  V30 2130 N 195.109 -0.891671 -1.2995 0
M  V30 2131 C 196.355 -0.514261 -1.96171 0
M  V30 2132 C 196.688 0.935506 -1.70182 0
M  V30 2133 O 195.963 1.66204 -1.01028 0
M  V30 2134 C 196.246 -0.797719 -3.51153 0
M  V30 2135 C 196.099 -2.2986 -3.86632 0
M  V30 2136 C 197.418 -0.278749 -4.39216 0
M  V30 2137 H 194.537 -0.188314 -0.712535 0
M  V30 2138 H 197.179 -1.11689 -1.53706 0
M  V30 2139 H 195.329 -0.284826 -3.87455 0
M  V30 2140 H 197.001 -2.88042 -3.60319 0
M  V30 2141 H 195.244 -2.76257 -3.34462 0
M  V30 2142 H 195.915 -2.44753 -4.94773 0
M  V30 2143 H 198.391 -0.717825 -4.09862 0
M  V30 2144 H 197.267 -0.506353 -5.46559 0
M  V30 2145 H 197.528 0.820266 -4.34424 0
M  V30 2146 N 196.587 1.43421 -0.653314 0
M  V30 2147 C 197.537 2.2792 0.060558 0
M  V30 2148 C 198.521 1.39906 0.794677 0
M  V30 2149 O 199.713 1.63536 0.677128 0
M  V30 2150 C 196.842 3.27603 1.0262 0
M  V30 2151 C 195.928 4.23104 0.290551 0
M  V30 2152 N 196.319 5.01031 -0.692967 0
M  V30 2153 C 194.617 4.42816 0.531984 0
M  V30 2154 C 195.318 5.70626 -1.12963 0
M  V30 2155 N 194.294 5.41617 -0.463867 0
M  V30 2156 H 198.096 2.85585 -0.694143 0
M  V30 2157 H 195.61 1.55126 -0.480602 0
M  V30 2158 H 197.607 3.86918 1.55242 0
M  V30 2159 H 196.267 2.71499 1.78096 0
M  V30 2160 H 197.278 5.0669 -1.07169 0
M  V30 2161 H 193.955 3.97782 1.26791 0
M  V30 2162 H 195.345 6.4318 -1.94343 0
M  V30 2163 N 198.065 0.39524 1.52563 0
M  V30 2164 C 198.997 -0.472201 2.24283 0
M  V30 2165 C 200.01 -1.02178 1.26742 0
M  V30 2166 O 201.199 -0.923097 1.52778 0
M  V30 2167 C 198.299 -1.66775 2.95024 0
M  V30 2168 C 197.472 -1.2445 4.19322 0
M  V30 2169 C 196.531 -2.30539 4.7301 0
M  V30 2170 O 195.557 -1.91702 5.35947 0
M  V30 2171 N 196.759 -3.6253 4.53379 0
M  V30 2172 H 199.524 0.142282 2.99362 0
M  V30 2173 H 197.085 0.2219 1.60372 0
M  V30 2174 H 199.077 -2.37283 3.27839 0
M  V30 2175 H 197.647 -2.18845 2.23217 0
M  V30 2176 H 196.867 -0.368069 3.92478 0
M  V30 2177 H 198.155 -0.938457 5.0007 0
M  V30 2178 H 197.553 -3.96841 4.03154 0
M  V30 2179 H 196.11 -4.29055 4.90668 0
M  V30 2180 N 199.544 -1.57102 0.125237 0
M  V30 2181 C 200.477 -2.11371 -0.860094 0
M  V30 2182 C 201.455 -1.03168 -1.25679 0
M  V30 2183 O 202.639 -1.30862 -1.35674 0
M  V30 2184 C 199.766 -2.61555 -2.1519 0
M  V30 2185 C 198.812 -3.81701 -1.9028 0
M  V30 2186 S 199.645 -5.23797 -1.11343 0
M  V30 2187 C 200.801 -5.77353 -2.41689 0
M  V30 2188 H 201.034 -2.94617 -0.39852 0
M  V30 2189 H 198.567 -1.54145 -0.0886555 0
M  V30 2190 H 200.525 -2.91122 -2.89411 0
M  V30 2191 H 199.186 -1.78479 -2.58465 0
M  V30 2192 H 198.379 -4.14985 -2.86014 0
M  V30 2193 H 197.981 -3.52783 -1.24178 0
M  V30 2194 H 200.273 -5.87458 -3.37489 0
M  V30 2195 H 201.216 -6.75323 -2.12942 0
M  V30 2196 H 201.624 -5.05457 -2.51342 0
M  V30 2197 N 201.022 0.148545 -1.56898 0
M  V30 2198 C 201.952 1.18524 -2.01182 0
M  V30 2199 C 202.933 1.4489 -0.891123 0
M  V30 2200 O 204.118 1.55836 -1.15882 0
M  V30 2201 C 201.248 2.51879 -2.39112 0
M  V30 2202 C 200.202 2.40038 -3.54353 0
M  V30 2203 C 199.528 3.78089 -3.78091 0
M  V30 2204 C 200.828 1.88577 -4.87069 0
M  V30 2205 H 202.522 0.817029 -2.88036 0
M  V30 2206 H 200.068 0.391575 -1.38574 0
M  V30 2207 H 202.021 3.24627 -2.68692 0
M  V30 2208 H 200.745 2.90532 -1.49193 0
M  V30 2209 H 199.404 1.69742 -3.24936 0
M  V30 2210 H 199.052 4.14175 -2.85426 0
M  V30 2211 H 198.752 3.71028 -4.55645 0
M  V30 2212 H 200.276 4.52387 -4.10095 0
M  V30 2213 H 201.69 2.51117 -5.15377 0
M  V30 2214 H 200.087 1.9241 -5.68417 0
M  V30 2215 H 201.157 0.84136 -4.77545 0
M  V30 2216 N 202.5 1.5196 0.417844 0
M  V30 2217 C 203.45 1.7106 1.5074 0
M  V30 2218 C 204.434 0.564487 1.50673 0
M  V30 2219 O 205.626 0.821206 1.56797 0
M  V30 2220 C 202.755 1.85677 2.88754 0
M  V30 2221 C 201.841 3.06133 2.93502 0
M  V30 2222 N 202.232 4.28987 2.67962 0
M  V30 2223 C 200.53 3.05787 3.24669 0
M  V30 2224 C 201.231 5.10395 2.79055 0
M  V30 2225 N 200.207 4.45455 3.11561 0
M  V30 2226 H 204.009 2.63696 1.29775 0
M  V30 2227 H 201.523 1.49873 0.625436 0
M  V30 2228 H 203.52 1.97475 3.67164 0
M  V30 2229 H 202.18 0.942348 3.10725 0
M  V30 2230 H 203.191 4.57607 2.4252 0
M  V30 2231 H 199.868 2.2405 3.52289 0
M  V30 2232 H 201.258 6.18247 2.63097 0
M  V30 2233 N 203.978 -0.674533 1.42435 0
M  V30 2234 C 205.203 -1.46784 1.46524 0
M  V30 2235 C 205.628 -1.87938 0.078066 0
M  V30 2236 O 204.986 -1.56014 -0.92354 0
M  V30 2237 C 205.034 -2.69307 2.39805 0
M  V30 2238 O 204.138 -3.67587 1.86959 0
M  V30 2239 H 203.479 -0.440959 0.496439 0
M  V30 2240 H 206.009 -0.827326 1.87127 0
M  V30 2241 H 206.019 -3.17374 2.56393 0
M  V30 2242 H 204.694 -2.38692 3.40586 0
M  V30 2243 H 203.271 -3.2662 1.79927 0
M  V30 2244 N 205.456 -1.28612 -0.910864 0
M  V30 2245 C 206.702 -1.16106 -1.66274 0
M  V30 2246 C 207.035 0.289113 -1.92036 0
M  V30 2247 O 206.31 1.21 -1.52281 0
M  V30 2248 C 206.593 -1.96309 -3.01885 0
M  V30 2249 C 206.446 -3.49405 -2.8326 0
M  V30 2250 C 207.765 -1.78076 -4.02463 0
M  V30 2251 H 204.884 -0.423152 -0.603417 0
M  V30 2252 H 207.526 -1.57961 -1.05586 0
M  V30 2253 H 205.676 -1.60742 -3.53687 0
M  V30 2254 H 207.348 -3.94894 -2.38446 0
M  V30 2255 H 205.591 -3.74893 -2.18261 0
M  V30 2256 H 206.262 -4.00784 -3.79574 0
M  V30 2257 H 208.738 -2.0912 -3.59733 0
M  V30 2258 H 207.614 -2.36561 -4.95308 0
M  V30 2259 H 207.875 -0.733008 -4.35981 0
M  V30 2260 N 206.934 1.1197 -1.10907 0
M  V30 2261 C 208.182 1.83225 -0.852819 0
M  V30 2262 C 208.503 1.84769 0.623341 0
M  V30 2263 O 207.773 1.3143 1.45269 0
M  V30 2264 H 206.353 0.67849 -0.312507 0
M  V30 2265 H 209.015 1.3556 -1.40033 0
M  V30 2266 H 208.111 2.87265 -1.22005 0
M  V30 2267 N 208.412 0.89855 1.29475 0
M  V30 2268 C 209.342 0.39201 2.30186 0
M  V30 2269 C 210.323 -0.532359 1.61555 0
M  V30 2270 O 211.508 -0.443331 1.89072 0
M  V30 2271 C 208.638 -0.382353 3.45189 0
M  V30 2272 C 207.592 0.451483 4.25612 0
M  V30 2273 C 206.918 -0.450307 5.328 0
M  V30 2274 C 208.218 1.70079 4.93832 0
M  V30 2275 H 209.912 1.23362 2.72804 0
M  V30 2276 H 207.458 0.594638 1.31149 0
M  V30 2277 H 209.411 -0.747451 4.14718 0
M  V30 2278 H 208.135 -1.25774 3.01411 0
M  V30 2279 H 206.794 0.798897 3.57789 0
M  V30 2280 H 206.442 -1.32379 4.85268 0
M  V30 2281 H 206.142 0.103902 5.87508 0
M  V30 2282 H 207.666 -0.811623 6.05182 0
M  V30 2283 H 209.08 1.40549 5.55805 0
M  V30 2284 H 207.477 2.19623 5.58467 0
M  V30 2285 H 208.547 2.43744 4.19186 0
M  V30 2286 N 209.89 -1.43072 0.660911 0
M  V30 2287 C 211.167 -1.95307 0.107017 0
M  V30 2288 C 211.547 -1.60192 -1.37484 0
M  V30 2289 O 210.895 -0.890949 -2.10415 0
M  V30 2290 C 211.105 -3.47124 0.361402 0
M  V30 2291 C 212.453 -4.23738 0.270455 0
M  V30 2292 O 213.477 -3.54981 0.294382 0
M  V30 2293 O 212.336 -5.46131 0.200737 0
M  V30 2294 H 209.43 -0.826984 -0.00517729 0
M  V30 2295 H 211.976 -1.52972 0.734681 0
M  V30 2296 H 210.748 -3.65837 1.38848 0
M  V30 2297 H 210.371 -3.96475 -0.298953 0
M  V30 2298 N 211.368 -0.403325 -1.52352 0
M  V30 2299 C 212.331 0.413051 -2.25447 0
M  V30 2300 C 213.331 0.978513 -1.276 0
M  V30 2301 O 214.521 0.858305 -1.51587 0
M  V30 2302 C 211.653 1.58087 -3.02029 0
M  V30 2303 H 212.846 -0.227094 -2.99039 0
M  V30 2304 H 210.399 -0.155722 -1.55522 0
M  V30 2305 H 211.134 2.25804 -2.32772 0
M  V30 2306 H 210.919 1.18195 -3.73861 0
M  V30 2307 H 212.409 2.1585 -3.57489 0
M  V30 2308 N 212.846 1.57033 -0.133567 0
M  V30 2309 C 213.776 2.1909 0.807567 0
M  V30 2310 C 214.757 1.13517 1.26681 0
M  V30 2311 O 215.942 1.41809 1.32679 0
M  V30 2312 C 213.072 2.80188 2.05212 0
M  V30 2313 C 212.026 3.91471 1.73015 0
M  V30 2314 C 211.352 4.39443 3.04622 0
M  V30 2315 C 212.652 5.12886 0.987168 0
M  V30 2316 H 214.346 2.97988 0.290403 0
M  V30 2317 H 211.892 1.43335 0.138239 0
M  V30 2318 H 213.845 3.22264 2.71521 0
M  V30 2319 H 212.569 1.98601 2.59278 0
M  V30 2320 H 211.228 3.49993 1.0909 0
M  V30 2321 H 210.876 3.54695 3.56651 0
M  V30 2322 H 210.576 5.14495 2.83847 0
M  V30 2323 H 212.1 4.8418 3.72024 0
M  V30 2324 H 213.514 5.51891 1.55208 0
M  V30 2325 H 211.911 5.93615 0.87985 0
M  V30 2326 H 212.981 4.84894 -0.0235286 0
M  V30 2327 N 214.325 -0.140222 1.56975 0
M  V30 2328 C 215.288 -1.15689 1.97861 0
M  V30 2329 C 216.288 -1.3549 0.865974 0
M  V30 2330 O 217.478 -1.32367 1.13246 0
M  V30 2331 C 214.61 -2.51582 2.30042 0
M  V30 2332 H 215.803 -0.805971 2.88867 0
M  V30 2333 H 213.356 -0.383801 1.51515 0
M  V30 2334 H 214.091 -2.91632 1.41849 0
M  V30 2335 H 213.876 -2.38569 3.11171 0
M  V30 2336 H 215.366 -3.24792 2.62488 0
M  V30 2337 N 215.803 -1.52179 -0.40978 0
M  V30 2338 C 217.031 -1.70054 -1.17853 0
M  V30 2339 C 217.446 -0.409735 -1.843 0
M  V30 2340 O 216.803 0.614183 -1.71855 0
M  V30 2341 C 216.854 -2.83568 -2.24213 0
M  V30 2342 O 216.575 -4.0765 -1.60478 0
M  V30 2343 C 218.076 -3.12947 -3.13973 0
M  V30 2344 H 215.296 -0.569917 -0.354169 0
M  V30 2345 H 217.84 -1.98734 -0.482198 0
M  V30 2346 H 215.995 -2.57409 -2.89516 0
M  V30 2347 H 216.409 -4.70899 -2.30986 0
M  V30 2348 H 217.883 -3.95889 -3.84677 0
M  V30 2349 H 218.36 -2.26472 -3.76307 0
M  V30 2350 H 218.966 -3.40868 -2.5434 0
M  V30 2351 N 217.281 0.66697 -1.42791 0
M  V30 2352 C 218.244 1.76211 -1.46568 0
M  V30 2353 C 219.244 1.56896 -0.352196 0
M  V30 2354 O 220.434 1.63044 -0.613364 0
M  V30 2355 C 217.566 3.14935 -1.30494 0
M  V30 2356 H 218.759 1.74247 -2.44086 0
M  V30 2357 H 216.312 0.877342 -1.29354 0
M  V30 2358 H 217.047 3.2252 -0.339301 0
M  V30 2359 H 216.832 3.30359 -2.11199 0
M  V30 2360 H 218.322 3.94821 -1.36038 0
M  V30 2361 N 218.759 1.29093 0.90403 0
M  V30 2362 C 219.707 1.13727 2.02901 0
M  V30 2363 C 220.701 0.0539853 1.69314 0
M  V30 2364 O 221.907 0.213469 1.7873 0
M  V30 2365 H 218.282 0.35117 0.664969 0
M  V30 2366 H 220.253 2.08982 2.13001 0
M  V30 2367 C 219.002 0.826066 3.37745 0
M  V30 2368 H 218.325 1.65164 3.64089 0
M  V30 2369 H 219.765 0.758559 4.17159 0
M  V30 2370 C 218.224 -0.470541 3.33598 0
M  V30 2371 O 218.754 -1.49792 3.72727 0
M  V30 2372 N 216.96 -0.474812 2.86695 0
M  V30 2373 H 216.507 0.361692 2.55048 0
M  V30 2374 H 216.465 -1.34236 2.84303 0
M  V30 2375 N 220.237 -1.11381 1.11499 0
M  V30 2376 C 221.514 -1.7955 0.775965 0
M  V30 2377 C 221.894 -1.97859 -0.73588 0
M  V30 2378 O 221.242 -1.56376 -1.66609 0
M  V30 2379 C 221.452 -3.13196 1.53977 0
M  V30 2380 C 222.8 -3.88227 1.71944 0
M  V30 2381 O 223.824 -3.22887 1.50407 0
M  V30 2382 O 222.683 -5.05477 2.07738 0
M  V30 2383 H 219.777 -0.777728 0.28119 0
M  V30 2384 H 222.323 -1.18118 1.21845 0
M  V30 2385 H 221.095 -2.95229 2.56818 0
M  V30 2386 H 220.718 -3.82342 1.09088 0
M  V30 2387 N 221.715 -0.905404 -1.28997 0
M  V30 2388 C 222.648 -0.331959 -2.25773 0
M  V30 2389 C 223.626 0.559099 -1.52685 0
M  V30 2390 O 224.81 0.50463 -1.8162 0
M  V30 2391 C 221.937 0.526276 -3.34586 0
M  V30 2392 C 220.983 -0.298249 -4.25456 0
M  V30 2393 S 221.816 -1.69968 -5.0781 0
M  V30 2394 C 222.972 -0.848519 -6.20122 0
M  V30 2395 H 223.205 -1.15222 -2.74064 0
M  V30 2396 H 220.738 -0.706112 -1.37308 0
M  V30 2397 H 222.696 1.01565 -3.97737 0
M  V30 2398 H 221.357 1.32084 -2.84978 0
M  V30 2399 H 220.55 0.357607 -5.0273 0
M  V30 2400 H 220.152 -0.720968 -3.66985 0
M  V30 2401 H 222.444 -0.0744325 -6.77459 0
M  V30 2402 H 223.387 -1.59353 -6.89937 0
M  V30 2403 H 223.795 -0.400383 -5.63078 0
M  V30 2404 N 223.193 1.4272 -0.668489 0
M  V30 2405 C 224.141 2.32586 0.0254857 0
M  V30 2406 C 225.135 1.49471 0.797176 0
M  V30 2407 O 226.341 1.65583 0.705853 0
M  V30 2408 H 222.716 0.751514 0.0270339 0
M  V30 2409 H 224.687 2.88823 -0.749936 0
M  V30 2410 C 223.436 3.3397 0.967427 0
M  V30 2411 H 222.759 3.97961 0.383048 0
M  V30 2412 H 224.199 3.9945 1.42181 0
M  V30 2413 C 222.658 2.65744 2.0708 0
M  V30 2414 O 223.188 2.48454 3.15648 0
M  V30 2415 N 221.394 2.2487 1.8407 0
M  V30 2416 H 220.941 2.39132 0.95778 0
M  V30 2417 H 220.899 1.79552 2.58086 0
M  V30 2418 N 224.671 0.411399 1.52136 0
M  V30 2419 C 226.087 0.0623865 1.59478 0
M  V30 2420 C 226.287 -1.42554 1.4241 0
M  V30 2421 O 225.343 -2.19263 1.2522 0
M  V30 2422 C 226.656 0.559331 2.95452 0
M  V30 2423 C 228.204 0.517503 3.08692 0
M  V30 2424 C 228.679 0.990994 4.4715 0
M  V30 2425 N 230.17 0.947908 4.53397 0
M  V30 2426 C 230.905 1.28544 5.58806 0
M  V30 2427 N 230.401 1.69454 6.71757 0
M  V30 2428 N 232.194 1.20526 5.49026 0
M  V30 2429 H 224.345 1.37982 1.61477 0
M  V30 2430 H 226.608 0.566977 0.759764 0
M  V30 2431 H 226.314 1.59938 3.1323 0
M  V30 2432 H 226.188 -0.0298014 3.77188 0
M  V30 2433 H 228.575 -0.513505 2.90598 0
M  V30 2434 H 228.656 1.14272 2.28857 0
M  V30 2435 H 228.3 2.02034 4.65988 0
M  V30 2436 H 228.23 0.34257 5.25485 0
M  V30 2437 H 230.721 0.647157 3.72317 0
M  V30 2438 H 231.034 1.93513 7.48179 0
M  V30 2439 H 229.379 1.73359 6.73032 0
M  V30 2440 H 232.57 0.884505 4.59667 0
M  V30 2441 H 232.743 1.47161 6.31069 0
M  V30 2442 N 226.149 -1.5696 0.141893 0
M  V30 2443 C 227.097 -2.17784 -0.816874 0
M  V30 2444 C 228.091 -1.1334 -1.25899 0
M  V30 2445 O 229.297 -1.316 -1.22806 0
M  V30 2446 H 225.672 -0.697278 -0.281615 0
M  V30 2447 H 227.643 -2.97087 -0.279621 0
M  V30 2448 C 226.392 -2.80983 -2.04802 0
M  V30 2449 H 225.715 -3.61062 -1.7168 0
M  V30 2450 H 227.155 -3.2705 -2.69841 0
M  V30 2451 C 225.614 -1.79228 -2.8527 0
M  V30 2452 O 226.144 -1.25962 -3.8144 0
M  V30 2453 N 224.35 -1.48647 -2.49704 0
M  V30 2454 H 223.897 -1.92155 -1.71564 0
M  V30 2455 H 223.855 -0.808115 -3.03837 0
M  V30 2456 N 227.627 0.131896 -1.57047 0
M  V30 2457 C 228.873 0.843179 -1.84441 0
M  V30 2458 C 229.206 1.80129 -0.725749 0
M  V30 2459 O 228.481 1.92624 0.269469 0
M  V30 2460 C 228.764 1.60442 -3.22382 0
M  V30 2461 C 228.617 0.666782 -4.4483 0
M  V30 2462 C 229.936 2.56354 -3.5773 0
M  V30 2463 H 227.055 0.305081 -0.670891 0
M  V30 2464 H 229.697 0.107839 -1.89694 0
M  V30 2465 H 227.847 2.23128 -3.18035 0
M  V30 2466 H 229.519 0.0497646 -4.61273 0
M  V30 2467 H 227.762 -0.022609 -4.33794 0
M  V30 2468 H 228.433 1.23579 -5.37989 0
M  V30 2469 H 230.909 2.0378 -3.62785 0
M  V30 2470 H 229.785 3.06657 -4.5525 0
M  V30 2471 H 230.046 3.38419 -2.84473 0
M  V30 2472 N 229.106 1.52395 0.401703 0
M  V30 2473 C 230.036 1.79231 1.49661 0
M  V30 2474 C 231.017 0.643654 1.57452 0
M  V30 2475 O 232.202 0.889989 1.72606 0
M  V30 2476 C 229.332 1.94971 2.87409 0
M  V30 2477 C 228.286 3.10604 2.94465 0
M  V30 2478 C 227.612 3.11577 4.34538 0
M  V30 2479 C 228.912 4.49921 2.6527 0
M  V30 2480 H 230.606 2.70917 1.27454 0
M  V30 2481 H 228.152 1.30362 0.6117 0
M  V30 2482 H 230.105 2.12328 3.63999 0
M  V30 2483 H 228.829 0.999632 3.10926 0
M  V30 2484 H 227.488 2.93009 2.20321 0
M  V30 2485 H 227.136 2.14277 4.55076 0
M  V30 2486 H 226.836 3.89247 4.40183 0
M  V30 2487 H 228.36 3.31073 5.13053 0
M  V30 2488 H 229.774 4.67683 3.31581 0
M  V30 2489 H 228.171 5.29564 2.82281 0
M  V30 2490 H 229.241 4.57507 1.60671 0
M  V30 2491 N 230.584 -0.659388 1.43143 0
M  V30 2492 C 231.824 -1.43121 1.45931 0
M  V30 2493 C 232.188 -1.91838 0.0789298 0
M  V30 2494 O 233.389 -2.68794 -0.018491 0
M  V30 2495 C 231.66 -2.58534 2.46769 0
M  V30 2496 S 233.219 -3.47154 2.68384 0
M  V30 2497 H 230.037 -0.488624 0.516496 0
M  V30 2498 H 232.639 -0.766128 1.79863 0
M  V30 2499 H 231.343 -2.21007 3.45809 0
M  V30 2500 H 230.874 -3.29898 2.14315 0
M  V30 2501 H 232.889 -4.55051 1.97845 0
M  V30 2502 N 232.062 -1.29571 -0.897171 0
M  V30 2503 C 233.29 -1.20583 -1.68129 0
M  V30 2504 C 233.705 0.233181 -1.87354 0
M  V30 2505 O 233.062 1.15579 -1.41236 0
M  V30 2506 C 233.113 -1.91772 -3.06441 0
M  V30 2507 O 232.834 -3.30053 -2.88091 0
M  V30 2508 C 234.335 -1.89291 -4.00854 0
M  V30 2509 H 231.555 -0.417826 -0.525036 0
M  V30 2510 H 234.099 -1.70987 -1.12177 0
M  V30 2511 H 232.254 -1.45196 -3.59161 0
M  V30 2512 H 232.668 -3.65942 -3.75748 0
M  V30 2513 H 234.142 -2.43662 -4.95311 0
M  V30 2514 H 234.619 -0.869014 -4.30517 0
M  V30 2515 H 235.225 -2.35622 -3.54066 0
M  V30 2516 N 233.54 1.10788 -1.12088 0
M  V30 2517 C 234.765 1.87002 -0.896949 0
M  V30 2518 C 235.19 1.79933 0.548261 0
M  V30 2519 O 234.548 1.16662 1.38779 0
M  V30 2520 C 234.596 3.3349 -1.37174 0
M  V30 2521 O 233.7 4.08745 -0.547831 0
M  V30 2522 H 233.041 0.580397 -0.322545 0
M  V30 2523 H 235.571 1.39996 -1.49206 0
M  V30 2524 H 235.581 3.84339 -1.36922 0
M  V30 2525 H 234.256 3.37951 -2.42408 0
M  V30 2526 H 232.833 3.6776 -0.617034 0
M  V30 2527 N 235.018 0.912232 1.28515 0
M  V30 2528 C 235.966 0.389597 2.29314 0
M  V30 2529 C 236.96 -0.517915 1.61289 0
M  V30 2530 O 238.166 -0.399328 1.75515 0
M  V30 2531 H 234.541 0.107386 0.744293 0
M  V30 2532 H 236.512 1.25286 2.70825 0
M  V30 2533 C 235.261 -0.356496 3.45868 0
M  V30 2534 H 234.584 0.332608 3.98414 0
M  V30 2535 H 236.024 -0.686851 4.184 0
M  V30 2536 C 234.483 -1.56383 2.98406 0
M  V30 2537 O 235.013 -2.66294 3.00749 0
M  V30 2538 N 233.219 -1.41029 2.54085 0
M  V30 2539 H 232.766 -0.516089 2.52377 0
M  V30 2540 H 232.724 -2.21939 2.22689 0
M  V30 2541 N 236.496 -1.42363 0.676048 0
M  V30 2542 C 237.907 -1.84649 0.275948 0
M  V30 2543 C 238.258 -1.56588 -1.18214 0
M  V30 2544 O 237.383 -1.02634 -1.90513 0
M  V30 2545 C 237.978 -3.35178 0.494053 0
M  V30 2546 C 236.537 -3.76109 0.148061 0
M  V30 2547 C 235.684 -2.65931 0.785891 0
M  V30 2548 H 238.635 -1.32192 0.878121 0
M  V30 2549 H 238.656 -3.79655 -0.25343 0
M  V30 2550 H 238.168 -3.55571 1.55535 0
M  V30 2551 H 236.269 -3.61323 -0.909742 0
M  V30 2552 H 236.382 -4.7546 0.589454 0
M  V30 2553 H 234.746 -2.53773 0.217113 0
M  V30 2554 H 235.529 -2.89146 1.85067 0
M  V30 2555 N 237.974 -0.419461 -1.51915 0
M  V30 2556 C 239.204 0.151915 -2.06041 0
M  V30 2557 C 239.612 1.38539 -1.28855 0
M  V30 2558 O 238.955 1.80592 -0.336463 0
M  V30 2559 C 239.017 0.557119 -3.55157 0
M  V30 2560 C 238.681 -0.567054 -4.53468 0
M  V30 2561 C 239.678 -1.43379 -4.99738 0
M  V30 2562 C 237.363 -0.742693 -4.96779 0
M  V30 2563 C 239.357 -2.46102 -5.87973 0
M  V30 2564 C 237.044 -1.77322 -5.84808 0
M  V30 2565 C 238.042 -2.63078 -6.30301 0
M  V30 2566 O 237.73 -3.64364 -7.16585 0
M  V30 2567 H 237.462 0.0193293 -0.675724 0
M  V30 2568 H 240.016 -0.592073 -1.96682 0
M  V30 2569 H 238.246 1.35355 -3.62238 0
M  V30 2570 H 239.935 1.05759 -3.9188 0
M  V30 2571 H 240.701 -1.30954 -4.66986 0
M  V30 2572 H 236.58 -0.0848307 -4.60922 0
M  V30 2573 H 240.124 -3.13071 -6.23404 0
M  V30 2574 H 236.021 -1.89773 -6.16974 0
M  V30 2575 H 236.789 -3.60731 -7.34721 0
M  V30 2576 N 239.452 1.56882 -0.150215 0
M  V30 2577 C 240.362 2.20494 0.801222 0
M  V30 2578 C 241.378 1.19019 1.26927 0
M  V30 2579 O 242.554 1.51607 1.32579 0
M  V30 2580 C 239.619 2.81659 2.02161 0
M  V30 2581 C 238.68 3.9827 1.60249 0
M  V30 2582 C 237.913 4.56508 2.7647 0
M  V30 2583 O 238.136 4.13627 3.92771 0
M  V30 2584 O 237.07 5.46719 2.51757 0
M  V30 2585 H 240.896 3.02315 0.289717 0
M  V30 2586 H 238.481 1.49202 0.0769684 0
M  V30 2587 H 240.363 3.20522 2.73576 0
M  V30 2588 H 239.038 2.02849 2.52258 0
M  V30 2589 H 237.945 3.64117 0.858477 0
M  V30 2590 H 239.278 4.78609 1.14864 0
M  V30 2591 N 240.93 -0.123565 1.57115 0
M  V30 2592 C 242.155 -0.850398 1.89164 0
M  V30 2593 C 242.58 -1.7286 0.741688 0
M  V30 2594 O 241.938 -1.78665 -0.307958 0
M  V30 2595 C 241.986 -1.66353 3.19936 0
M  V30 2596 O 241.09 -2.77004 3.0552 0
M  V30 2597 H 240.431 -0.235454 0.620852 0
M  V30 2598 H 242.961 -0.107335 2.04318 0
M  V30 2599 H 242.971 -2.05372 3.52543 0
M  V30 2600 H 241.646 -1.01881 4.03228 0
M  V30 2601 H 240.223 -2.41221 2.84371 0
M  V30 2602 N 242.408 -1.52605 -0.393616 0
M  V30 2603 C 243.34 -1.73303 -1.49995 0
M  V30 2604 C 244.353 -0.613473 -1.50799 0
M  V30 2605 O 245.542 -0.889049 -1.54784 0
M  V30 2606 C 242.642 -1.77245 -2.88855 0
M  V30 2607 C 241.815 -3.06483 -3.12069 0
M  V30 2608 C 240.874 -3.02033 -4.30886 0
M  V30 2609 O 239.9 -3.75907 -4.27414 0
M  V30 2610 N 241.102 -2.20897 -5.36828 0
M  V30 2611 H 243.867 -2.68756 -1.32629 0
M  V30 2612 H 241.428 -1.51036 -0.583083 0
M  V30 2613 H 243.42 -1.7178 -3.66434 0
M  V30 2614 H 241.99 -0.891993 -2.99603 0
M  V30 2615 H 241.21 -3.25474 -2.22396 0
M  V30 2616 H 242.498 -3.91947 -3.2443 0
M  V30 2617 H 241.896 -1.60336 -5.42502 0
M  V30 2618 H 240.453 -2.21275 -6.13091 0
M  V30 2619 N 243.887 0.651787 -1.4349 0
M  V30 2620 C 244.817 1.77621 -1.51569 0
M  V30 2621 C 245.798 1.66022 -0.370253 0
M  V30 2622 O 246.983 1.85095 -0.587658 0
M  V30 2623 C 244.113 3.16056 -1.43966 0
M  V30 2624 C 243.067 3.4242 -2.56774 0
M  V30 2625 C 242.393 4.8067 -2.34223 0
M  V30 2626 C 243.693 3.37023 -3.99015 0
M  V30 2627 H 245.387 1.71117 -2.45681 0
M  V30 2628 H 242.933 0.821825 -1.18246 0
M  V30 2629 H 244.886 3.94472 -1.48221 0
M  V30 2630 H 243.61 3.23293 -0.463586 0
M  V30 2631 H 242.269 2.66375 -2.51873 0
M  V30 2632 H 241.917 4.84585 -1.34856 0
M  V30 2633 H 241.617 4.9927 -3.09844 0
M  V30 2634 H 243.141 5.61342 -2.40265 0
M  V30 2635 H 244.555 4.05374 -4.05395 0
M  V30 2636 H 242.952 3.67159 -4.74673 0
M  V30 2637 H 244.022 2.3518 -4.2405 0
M  V30 2638 N 245.365 1.30045 0.890287 0
M  V30 2639 C 246.315 1.12592 1.9826 0
M  V30 2640 C 247.299 0.0426021 1.60844 0
M  V30 2641 O 248.491 0.265346 1.75 0
M  V30 2642 C 245.62 0.814301 3.33503 0
M  V30 2643 C 244.706 1.93761 3.7725 0
M  V30 2644 N 245.097 3.18232 3.93143 0
M  V30 2645 C 243.395 1.83277 4.06602 0
M  V30 2646 C 244.096 3.9158 4.30163 0
M  V30 2647 N 243.072 3.19591 4.3973 0
M  V30 2648 H 246.874 2.07003 2.08631 0
M  V30 2649 H 244.388 1.21307 1.07974 0
M  V30 2650 H 246.385 0.67029 4.11476 0
M  V30 2651 H 245.045 -0.121797 3.24471 0
M  V30 2652 H 246.056 3.53581 3.78419 0
M  V30 2653 H 242.733 0.97001 4.06075 0
M  V30 2654 H 244.123 4.98744 4.50226 0
M  V30 2655 N 246.843 -1.10192 1.12674 0
M  V30 2656 C 247.806 -2.14786 0.799979 0
M  V30 2657 C 248.806 -1.59711 -0.18685 0
M  V30 2658 O 249.996 -1.74156 0.0392558 0
M  V30 2659 C 247.128 -3.40374 0.189228 0
M  V30 2660 H 248.321 -2.45203 1.72671 0
M  V30 2661 H 245.874 -1.25597 0.930326 0
M  V30 2662 H 246.609 -3.15577 -0.747107 0
M  V30 2663 H 246.394 -3.81637 0.899766 0
M  V30 2664 H 247.884 -4.17594 -0.0228143 0
M  V30 2665 N 248.321 -0.919034 -1.28029 0
M  V30 2666 C 249.231 -0.416756 -2.30869 0
M  V30 2667 C 250.247 0.498235 -1.66714 0
M  V30 2668 O 251.423 0.383144 -1.97722 0
M  V30 2669 C 248.488 0.330274 -3.45123 0
M  V30 2670 C 247.549 -0.618578 -4.2482 0
M  V30 2671 C 246.782 0.0928959 -5.33619 0
M  V30 2672 O 247.005 1.31375 -5.55065 0
M  V30 2673 O 245.939 -0.574499 -5.99152 0
M  V30 2674 H 249.765 -1.27043 -2.75851 0
M  V30 2675 H 247.35 -0.684052 -1.3282 0
M  V30 2676 H 249.232 0.751972 -4.14636 0
M  V30 2677 H 247.907 1.1597 -3.02213 0
M  V30 2678 H 246.814 -1.08978 -3.57875 0
M  V30 2679 H 248.147 -1.41497 -4.71423 0
M  V30 2680 N 249.799 1.42003 -0.683588 0
M  V30 2681 C 250.762 2.29191 -0.0198243 0
M  V30 2682 C 251.762 1.43773 0.72013 0
M  V30 2683 O 252.952 1.65061 0.556815 0
M  V30 2684 C 250.084 3.26435 0.982487 0
M  V30 2685 H 251.277 2.8938 -0.787345 0
M  V30 2686 H 248.83 1.49789 -0.446418 0
M  V30 2687 H 249.565 2.71203 1.77819 0
M  V30 2688 H 249.35 3.89449 0.455182 0
M  V30 2689 H 250.84 3.918 1.44508 0
M  V30 2690 N 251.277 0.427512 1.51691 0
M  V30 2691 C 252.507 -0.140986 2.06118 0
M  V30 2692 C 252.915 -1.37854 1.29588 0
M  V30 2693 O 252.258 -1.80411 0.346036 0
M  V30 2694 C 252.32 -0.538276 3.55447 0
M  V30 2695 C 251.984 0.591095 4.53161 0
M  V30 2696 C 252.981 1.46027 4.98971 0
M  V30 2697 C 250.666 0.769028 4.96378 0
M  V30 2698 C 252.66 2.49216 5.8666 0
M  V30 2699 C 250.347 1.80421 5.83859 0
M  V30 2700 C 251.345 2.66417 6.28897 0
M  V30 2701 O 251.033 3.68159 7.14643 0
M  V30 2702 H 250.765 -0.0157455 0.675817 0
M  V30 2703 H 253.319 0.602495 1.96365 0
M  V30 2704 H 251.549 -1.33432 3.6295 0
M  V30 2705 H 253.238 -1.0368 3.92435 0
M  V30 2706 H 254.004 1.33429 4.66285 0
M  V30 2707 H 249.883 0.109273 4.6087 0
M  V30 2708 H 253.427 3.16372 6.21735 0
M  V30 2709 H 249.324 1.93042 6.15959 0
M  V30 2710 H 250.092 3.64622 7.32798 0
M  V30 2711 N 252.755 -1.56801 0.158532 0
M  V30 2712 C 253.665 -2.20916 -0.789518 0
M  V30 2713 C 254.681 -1.1969 -1.26294 0
M  V30 2714 O 255.857 -1.52308 -1.31773 0
M  V30 2715 C 252.922 -2.82727 -2.00665 0
M  V30 2716 C 251.983 -3.99114 -1.58134 0
M  V30 2717 C 251.216 -4.57968 -2.74045 0
M  V30 2718 O 251.439 -4.15704 -3.90572 0
M  V30 2719 O 250.373 -5.48047 -2.48855 0
M  V30 2720 H 254.199 -3.02464 -0.273681 0
M  V30 2721 H 251.784 -1.4924 -0.0690548 0
M  V30 2722 H 253.666 -3.21968 -2.71872 0
M  V30 2723 H 252.341 -2.04184 -2.51179 0
M  V30 2724 H 251.248 -3.64567 -0.839155 0
M  V30 2725 H 252.581 -4.79212 -1.12325 0
M  V30 2726 N 254.233 0.115231 -1.57178 0
M  V30 2727 C 255.479 0.818565 -1.86202 0
M  V30 2728 C 255.834 1.77316 -0.746785 0
M  V30 2729 O 255.127 1.89923 0.25291 0
M  V30 2730 C 255.321 1.60324 -3.19423 0
M  V30 2731 C 255.15 0.726138 -4.43799 0
M  V30 2732 C 253.92 0.379535 -5.03873 0
M  V30 2733 C 256.118 0.0420774 -5.14283 0
M  V30 2734 N 254.1 -0.507841 -6.11796 0
M  V30 2735 C 255.471 -0.704152 -6.15988 0
M  V30 2736 C 257.526 -0.0339486 -4.97888 0
M  V30 2737 C 256.229 -1.51927 -7.03072 0
M  V30 2738 C 258.255 -0.835906 -5.85463 0
M  V30 2739 C 257.617 -1.57031 -6.86673 0
M  V30 2740 H 253.716 0.276343 -0.731545 0
M  V30 2741 H 256.3 0.0821032 -1.94527 0
M  V30 2742 H 254.471 2.31072 -3.12186 0
M  V30 2743 H 256.203 2.2522 -3.36241 0
M  V30 2744 H 252.958 0.722634 -4.68054 0
M  V30 2745 H 253.382 -0.94349 -6.70393 0
M  V30 2746 H 258.024 0.519496 -4.19596 0
M  V30 2747 H 255.742 -2.08386 -7.80769 0
M  V30 2748 H 259.328 -0.89714 -5.74841 0
M  V30 2749 H 258.208 -2.18088 -7.53264 0
M  V30 2750 N 255.711 1.52812 0.385517 0
M  V30 2751 C 256.674 1.77188 1.45386 0
M  V30 2752 C 257.674 0.641953 1.4743 0
M  V30 2753 O 258.864 0.910033 1.4854 0
M  V30 2754 C 255.996 1.87582 2.8465 0
M  V30 2755 H 257.189 2.72583 1.25054 0
M  V30 2756 H 254.742 1.43586 0.617467 0
M  V30 2757 H 255.477 0.941849 3.10322 0
M  V30 2758 H 255.262 2.69748 2.84567 0
M  V30 2759 H 256.752 2.08102 3.62054 0
M  V30 2760 N 257.189 -0.644168 1.43834 0
M  V30 2761 C 258.136 -1.75671 1.49694 0
M  V30 2762 C 259.106 -1.6246 0.345809 0
M  V30 2763 O 260.291 -1.82573 0.554234 0
M  V30 2764 C 257.431 -3.13867 1.43463 0
M  V30 2765 C 256.544 -3.38147 2.6885 0
M  V30 2766 C 255.679 -4.66241 2.54544 0
M  V30 2767 C 254.718 -4.83657 3.75157 0
M  V30 2768 N 253.855 -6.03016 3.59605 0
M  V30 2769 H 258.695 -1.69998 2.44754 0
M  V30 2770 H 256.232 -0.829458 1.21484 0
M  V30 2771 H 258.19 -3.9377 1.37843 0
M  V30 2772 H 256.82 -3.18588 0.519783 0
M  V30 2773 H 255.872 -2.52276 2.84712 0
M  V30 2774 H 257.184 -3.46899 3.58417 0
M  V30 2775 H 256.338 -5.54285 2.46683 0
M  V30 2776 H 255.077 -4.59826 1.62516 0
M  V30 2777 H 254.082 -3.94046 3.83416 0
M  V30 2778 H 255.307 -4.91896 4.68204 0
M  V30 2779 H 253.253 -5.97715 2.7032 0
M  V30 2780 H 253.17 -6.12766 4.42779 0
M  V30 2781 H 254.438 -6.93657 3.55613 0
M  V30 2782 N 258.668 -1.30515 -0.883378 0
M  V30 2783 C 259.615 -1.17032 -1.98927 0
M  V30 2784 C 260.585 -0.0594241 -1.65994 0
M  V30 2785 O 261.77 -0.229895 -1.8941 0
M  V30 2786 C 258.91 -0.869777 -3.33959 0
M  V30 2787 C 258.023 -2.06271 -3.79574 0
M  V30 2788 C 257.158 -1.70011 -5.03259 0
M  V30 2789 C 256.197 -2.8579 -5.41286 0
M  V30 2790 N 255.334 -2.49816 -6.56153 0
M  V30 2791 H 260.174 -2.1164 -2.09792 0
M  V30 2792 H 257.711 -1.05296 -1.02719 0
M  V30 2793 H 259.669 -0.676138 -4.11685 0
M  V30 2794 H 258.299 0.0394332 -3.22776 0
M  V30 2795 H 257.351 -2.36755 -2.97744 0
M  V30 2796 H 258.663 -2.92971 -4.03694 0
M  V30 2797 H 257.817 -1.47032 -5.88614 0
M  V30 2798 H 256.556 -0.804829 -4.81013 0
M  V30 2799 H 255.561 -3.09434 -4.54456 0
M  V30 2800 H 256.786 -3.76008 -5.65504 0
M  V30 2801 H 254.732 -1.62795 -6.35479 0
M  V30 2802 H 254.649 -3.30048 -6.8015 0
M  V30 2803 H 255.917 -2.30197 -7.44735 0
M  V30 2804 N 260.146 1.09593 -1.13257 0
M  V30 2805 C 261.395 1.81105 -0.887917 0
M  V30 2806 C 261.708 1.86563 0.587672 0
M  V30 2807 O 262.914 2.54367 0.949204 0
M  V30 2808 C 261.37 3.25338 -1.53895 0
M  V30 2809 C 260.978 3.28151 -3.04994 0
M  V30 2810 C 262.722 4.01617 -1.37492 0
M  V30 2811 C 260.629 4.66897 -3.6299 0
M  V30 2812 H 259.559 0.678661 -0.328534 0
M  V30 2813 H 262.21 1.23183 -1.36008 0
M  V30 2814 H 260.592 3.8331 -0.994446 0
M  V30 2815 H 261.766 2.79953 -3.66009 0
M  V30 2816 H 260.081 2.65361 -3.20893 0
M  V30 2817 H 262.678 5.04119 -1.78235 0
M  V30 2818 H 263.021 4.15072 -0.31957 0
M  V30 2819 H 263.554 3.50082 -1.88912 0
M  V30 2820 H 260.293 4.58643 -4.68323 0
M  V30 2821 H 259.813 5.15426 -3.06752 0
M  V30 2822 H 261.492 5.3587 -3.62563 0
M  V30 2823 N 261.624 0.925811 1.2754 0
M  V30 2824 C 262.849 0.580924 1.99098 0
M  V30 2825 C 263.274 -0.833555 1.68622 0
M  V30 2826 O 262.632 -1.55903 0.925422 0
M  V30 2827 C 262.68 0.811186 3.51358 0
M  V30 2828 O 261.784 -0.124129 4.12213 0
M  V30 2829 H 261.125 0.223873 0.625122 0
M  V30 2830 H 263.655 1.24455 1.62395 0
M  V30 2831 H 263.665 0.72601 4.01489 0
M  V30 2832 H 262.34 1.84227 3.72872 0
M  V30 2833 H 260.917 0.0108006 3.72898 0
M  V30 2834 N 263.102 -1.41638 0.69111 0
M  V30 2835 C 264.012 -2.34588 0.0233487 0
M  V30 2836 C 265.028 -1.55987 -0.770984 0
M  V30 2837 O 266.204 -1.88486 -0.709569 0
M  V30 2838 C 263.269 -3.34684 -0.904851 0
M  V30 2839 C 262.33 -4.29176 -0.103225 0
M  V30 2840 C 261.563 -5.2449 -0.987216 0
M  V30 2841 O 261.786 -5.2514 -2.22674 0
M  V30 2842 O 260.72 -6.00295 -0.439281 0
M  V30 2843 H 264.546 -2.93261 0.789416 0
M  V30 2844 H 262.131 -1.42417 0.45142 0
M  V30 2845 H 264.013 -3.96133 -1.43724 0
M  V30 2846 H 262.688 -2.78461 -1.65049 0
M  V30 2847 H 261.595 -3.71089 0.473655 0
M  V30 2848 H 262.928 -4.88484 0.60365 0
M  V30 2849 N 264.58 -0.43555 -1.51462 0
M  V30 2850 C 265.53 0.394701 -2.24558 0
M  V30 2851 C 266.514 0.99157 -1.26715 0
M  V30 2852 O 267.706 0.910007 -1.51815 0
M  V30 2853 C 264.835 1.4963 -3.08975 0
M  V30 2854 C 263.921 0.908912 -4.14246 0
M  V30 2855 N 264.312 0.0505335 -5.05775 0
M  V30 2856 C 262.61 1.17668 -4.30198 0
M  V30 2857 C 263.311 -0.279161 -5.8103 0
M  V30 2858 N 262.287 0.336767 -5.42556 0
M  V30 2859 H 266.089 -0.267106 -2.92684 0
M  V30 2860 H 263.603 -0.247518 -1.60503 0
M  V30 2861 H 265.6 2.10394 -3.59917 0
M  V30 2862 H 264.26 2.16046 -2.42393 0
M  V30 2863 H 265.271 -0.31577 -5.16936 0
M  V30 2864 H 261.948 1.83847 -3.74842 0
M  V30 2865 H 263.338 -0.977553 -6.64751 0
M  V30 2866 N 266.058 1.56714 -0.166846 0
M  V30 2867 C 266.988 2.20754 0.760913 0
M  V30 2868 C 267.969 1.16178 1.24244 0
M  V30 2869 O 269.154 1.44592 1.29641 0
M  V30 2870 C 266.284 2.84478 1.99223 0
M  V30 2871 C 265.238 3.95053 1.64672 0
M  V30 2872 C 264.564 4.45805 2.95232 0
M  V30 2873 C 265.864 5.14865 0.878155 0
M  V30 2874 H 267.558 2.98537 0.22713 0
M  V30 2875 H 265.104 1.43596 0.107805 0
M  V30 2876 H 267.057 3.27951 2.64624 0
M  V30 2877 H 265.781 2.04056 2.55007 0
M  V30 2878 H 264.44 3.52228 1.01641 0
M  V30 2879 H 264.088 3.62181 3.49047 0
M  V30 2880 H 263.788 5.204 2.7287 0
M  V30 2881 H 265.312 4.91962 3.6167 0
M  V30 2882 H 266.726 5.55059 1.43466 0
M  V30 2883 H 265.123 5.95348 0.753738 0
M  V30 2884 H 266.193 4.84735 -0.126377 0
M  V30 2885 N 267.536 -0.106894 1.57237 0
M  V30 2886 C 268.466 -1.13148 2.04254 0
M  V30 2887 C 269.447 -1.42476 0.929224 0
M  V30 2888 O 270.632 -1.52709 1.19973 0
M  V30 2889 C 267.762 -2.4545 2.45706 0
M  V30 2890 C 266.716 -2.30558 3.60592 0
M  V30 2891 C 266.042 -3.67931 3.87983 0
M  V30 2892 C 267.342 -1.75597 4.91897 0
M  V30 2893 H 269.036 -0.740374 2.90101 0
M  V30 2894 H 266.582 -0.354696 1.39563 0
M  V30 2895 H 268.535 -3.17389 2.77205 0
M  V30 2896 H 267.259 -2.86475 1.56843 0
M  V30 2897 H 265.918 -1.61067 3.29322 0
M  V30 2898 H 265.566 -4.06462 2.96306 0
M  V30 2899 H 265.266 -3.58817 4.65322 0
M  V30 2900 H 266.79 -4.41356 4.21945 0
M  V30 2901 H 268.204 -2.37364 5.21854 0
M  V30 2902 H 266.601 -1.77272 5.73319 0
M  V30 2903 H 267.671 -0.714451 4.79608 0
M  V30 2904 N 269.014 -1.53014 -0.377408 0
M  V30 2905 C 270.425 -1.60438 -0.954798 0
M  V30 2906 C 270.776 -0.464418 -1.90624 0
M  V30 2907 O 269.901 0.41087 -2.12464 0
M  V30 2908 C 270.496 -2.90797 -1.73847 0
M  V30 2909 C 269.055 -3.00595 -2.26538 0
M  V30 2910 C 268.202 -2.55645 -1.07429 0
M  V30 2911 H 271.153 -1.57926 -0.156575 0
M  V30 2912 H 271.174 -2.77935 -2.5987 0
M  V30 2913 H 270.686 -3.73746 -1.04574 0
M  V30 2914 H 268.787 -2.22208 -2.99089 0
M  V30 2915 H 268.9 -4.05456 -2.5523 0
M  V30 2916 H 267.264 -2.10239 -1.43777 0
M  V30 2917 H 268.047 -3.41 -0.396728 0
M  V30 2918 N 270.492 0.636531 -1.44174 0
M  V30 2919 C 271.908 0.954104 -1.27941 0
M  V30 2920 C 272.108 2.0039 -0.211248 0
M  V30 2921 O 271.164 2.49236 0.404695 0
M  V30 2922 C 272.477 1.4225 -2.64925 0
M  V30 2923 C 274.025 1.53827 -2.72592 0
M  V30 2924 C 274.5 2.04053 -4.10032 0
M  V30 2925 N 275.991 2.11331 -4.12182 0
M  V30 2926 C 276.726 2.51352 -5.15374 0
M  V30 2927 N 276.222 2.90549 -6.2893 0
M  V30 2928 N 278.015 2.51438 -5.02728 0
M  V30 2929 H 270.166 -0.0578386 -2.12321 0
M  V30 2930 H 272.429 0.0367406 -0.947288 0
M  V30 2931 H 272.135 0.725466 -3.44136 0
M  V30 2932 H 272.009 2.39451 -2.9145 0
M  V30 2933 H 274.396 2.22628 -1.93702 0
M  V30 2934 H 274.477 0.550154 -2.49814 0
M  V30 2935 H 274.121 1.35848 -4.89395 0
M  V30 2936 H 274.051 3.03726 -4.30184 0
M  V30 2937 H 276.542 1.83745 -3.30222 0
M  V30 2938 H 276.855 3.19884 -7.03487 0
M  V30 2939 H 275.2 2.88313 -6.32377 0
M  V30 2940 H 278.391 2.20203 -4.13072 0
M  V30 2941 H 278.564 2.82304 -5.83274 0
M  V30 2942 N 271.97 1.30982 0.876444 0
M  V30 2943 C 273.198 1.23242 1.6619 0
M  V30 2944 C 273.613 -0.203345 1.87702 0
M  V30 2945 O 272.97 -1.13317 1.43057 0
M  V30 2946 C 273.021 1.96623 3.03351 0
M  V30 2947 O 272.742 3.34594 2.82804 0
M  V30 2948 C 274.243 1.95644 3.97792 0
M  V30 2949 H 271.463 0.426126 0.518322 0
M  V30 2950 H 274.007 1.7275 1.09442 0
M  V30 2951 H 272.162 1.50892 3.56806 0
M  V30 2952 H 272.576 3.71873 3.69879 0
M  V30 2953 H 274.05 2.51511 4.91372 0
M  V30 2954 H 274.527 0.937395 4.2908 0
M  V30 2955 H 275.133 2.41225 3.50272 0
M  V30 2956 N 273.449 -1.08991 1.13837 0
M  V30 2957 C 274.865 -1.33312 0.877506 0
M  V30 2958 C 275.065 -1.95587 -0.48456 0
M  V30 2959 O 274.121 -2.20509 -1.23013 0
M  V30 2960 C 275.434 -2.24045 2.0056 0
M  V30 2961 C 276.982 -2.37542 2.03821 0
M  V30 2962 C 277.457 -3.31614 3.15905 0
M  V30 2963 N 278.948 -3.39189 3.15445 0
M  V30 2964 C 279.683 -4.11992 3.98811 0
M  V30 2965 N 279.179 -4.87553 4.92203 0
M  V30 2966 N 280.972 -4.07762 3.86894 0
M  V30 2967 H 273.123 -0.669456 2.01574 0
M  V30 2968 H 275.386 -0.357482 0.878015 0
M  V30 2969 H 275.092 -1.85521 2.98789 0
M  V30 2970 H 274.966 -3.24466 1.92359 0
M  V30 2971 H 277.353 -2.75327 1.06202 0
M  V30 2972 H 277.434 -1.36884 2.16093 0
M  V30 2973 H 277.078 -2.94551 4.13766 0
M  V30 2974 H 277.008 -4.32186 3.0087 0
M  V30 2975 H 279.499 -2.85314 2.47799 0
M  V30 2976 H 279.812 -5.40549 5.52292 0
M  V30 2977 H 278.157 -4.86627 4.96205 0
M  V30 2978 H 281.348 -3.47833 3.13257 0
M  V30 2979 H 281.521 -4.64238 4.52092 0
M  V30 2980 N 274.927 -0.932562 -1.27047 0
M  V30 2981 C 275.89 -0.440064 -2.24936 0
M  V30 2982 C 276.89 0.444071 -1.54547 0
M  V30 2983 O 278.08 0.244465 -1.72476 0
M  V30 2984 C 275.212 0.36678 -3.38921 0
M  V30 2985 H 276.405 -1.305 -2.70018 0
M  V30 2986 H 273.958 -0.713707 -1.39054 0
M  V30 2987 H 274.693 1.25033 -2.99228 0
M  V30 2988 H 274.478 -0.267204 -3.91188 0
M  V30 2989 H 275.968 0.701567 -4.11665 0
M  V30 2990 N 276.405 1.4127 -0.698611 0
M  V30 2991 C 277.635 2.05205 -0.239644 0
M  V30 2992 C 278.043 1.52684 1.11733 0
M  V30 2993 O 277.386 0.671222 1.70998 0
M  V30 2994 C 277.448 3.59289 -0.123126 0
M  V30 2995 C 277.112 4.34619 -1.41263 0
M  V30 2996 C 278.109 4.63701 -2.35111 0
M  V30 2997 C 275.794 4.73837 -1.66684 0
M  V30 2998 C 277.788 5.30966 -3.52639 0
M  V30 2999 C 275.475 5.40837 -2.84498 0
M  V30 3000 C 276.473 5.69329 -3.77298 0
M  V30 3001 O 276.161 6.34949 -4.93047 0
M  V30 3002 H 275.893 0.66723 -0.108537 0
M  V30 3003 H 278.447 1.81974 -0.952602 0
M  V30 3004 H 276.677 3.81272 0.645628 0
M  V30 3005 H 278.366 4.04797 0.299056 0
M  V30 3006 H 279.132 4.33882 -2.16729 0
M  V30 3007 H 275.011 4.51039 -0.953135 0
M  V30 3008 H 278.555 5.53121 -4.25091 0
M  V30 3009 H 274.452 5.70075 -3.02795 0
M  V30 3010 H 275.22 6.53445 -4.92902 0
M  V30 3011 N 277.883 0.443576 1.51229 0
M  V30 3012 C 278.846 -0.353132 2.26463 0
M  V30 3013 C 279.846 -0.944338 1.3015 0
M  V30 3014 O 281.036 -0.817813 1.5381 0
M  V30 3015 C 278.168 -1.50023 3.06114 0
M  V30 3016 H 279.361 0.3063 2.98332 0
M  V30 3017 H 276.914 0.196902 1.55055 0
M  V30 3018 H 277.649 -2.19553 2.38677 0
M  V30 3019 H 277.434 -1.08241 3.76864 0
M  V30 3020 H 278.924 -2.06296 3.63087 0
M  V30 3021 N 279.361 -1.56624 0.175154 0
M  V30 3022 C 280.271 -2.21741 -0.766042 0
M  V30 3023 C 281.287 -1.21023 -1.25018 0
M  V30 3024 O 282.463 -1.53697 -1.3015 0
M  V30 3025 C 279.528 -2.84839 -1.97655 0
M  V30 3026 C 278.589 -4.00769 -1.53892 0
M  V30 3027 C 277.822 -4.60849 -2.69173 0
M  V30 3028 O 278.045 -4.19823 -3.86141 0
M  V30 3029 O 276.979 -5.50655 -2.43028 0
M  V30 3030 H 280.805 -3.02738 -0.241585 0
M  V30 3031 H 278.39 -1.49305 -0.053222 0
M  V30 3032 H 280.272 -3.24834 -2.68442 0
M  V30 3033 H 278.947 -2.06836 -2.48999 0
M  V30 3034 H 277.854 -3.65436 -0.80044 0
M  V30 3035 H 279.187 -4.80376 -1.07236 0
M  V30 3036 N 280.839 0.0985539 -1.57292 0
M  V30 3037 C 282.088 0.801358 -1.85098 0
M  V30 3038 C 282.401 1.80066 -0.763902 0
M  V30 3039 O 283.607 2.55112 -0.928981 0
M  V30 3040 C 282.063 1.47599 -3.28242 0
M  V30 3041 C 281.671 0.516624 -4.45011 0
M  V30 3042 C 283.415 2.16272 -3.65276 0
M  V30 3043 C 281.322 1.19564 -5.79188 0
M  V30 3044 H 280.252 0.303022 -0.69043 0
M  V30 3045 H 282.903 0.0542623 -1.8342 0
M  V30 3046 H 281.285 2.27042 -3.2445 0
M  V30 3047 H 282.459 -0.246065 -4.60143 0
M  V30 3048 H 280.774 -0.064227 -4.1635 0
M  V30 3049 H 283.371 2.67802 -4.62803 0
M  V30 3050 H 283.714 2.95009 -2.93727 0
M  V30 3051 H 284.247 1.43693 -3.70941 0
M  V30 3052 H 280.986 0.449157 -6.53959 0
M  V30 3053 H 280.506 1.92984 -5.67906 0
M  V30 3054 H 282.185 1.7231 -6.23633 0
M  V30 3055 N 282.317 1.53212 0.369288 0
M  V30 3056 C 283.563 1.70413 1.11046 0
M  V30 3057 C 283.918 0.448509 1.87099 0
M  V30 3058 O 283.211 -0.558382 1.83283 0
M  V30 3059 C 283.405 2.89101 2.10132 0
M  V30 3060 C 283.234 4.26084 1.43814 0
M  V30 3061 C 282.004 4.90994 1.19384 0
M  V30 3062 C 284.202 5.06754 0.877802 0
M  V30 3063 N 282.184 6.11911 0.49377 0
M  V30 3064 C 283.555 6.1924 0.306891 0
M  V30 3065 C 285.61 4.91814 0.776129 0
M  V30 3066 C 284.313 7.1842 -0.355774 0
M  V30 3067 C 286.339 5.91263 0.127252 0
M  V30 3068 C 285.701 7.03069 -0.432801 0
M  V30 3069 H 281.8 0.676872 0.391623 0
M  V30 3070 H 284.384 1.90603 0.397334 0
M  V30 3071 H 282.555 2.70456 2.78761 0
M  V30 3072 H 284.287 2.95142 2.76899 0
M  V30 3073 H 281.042 4.50074 1.47413 0
M  V30 3074 H 281.466 6.76813 0.159207 0
M  V30 3075 H 286.108 4.05564 1.19489 0
M  V30 3076 H 283.826 8.04264 -0.786499 0
M  V30 3077 H 287.412 5.81779 0.0495613 0
M  V30 3078 H 286.292 7.78702 -0.926958 0
M  V30 3079 N 283.795 -0.628877 1.44509 0
M  V30 3080 C 284.725 -1.75187 1.54376 0
M  V30 3081 C 285.706 -1.65411 0.396618 0
M  V30 3082 O 286.891 -1.84137 0.617031 0
M  V30 3083 C 284.021 -3.13725 1.48976 0
M  V30 3084 C 282.975 -3.38291 2.62189 0
M  V30 3085 C 282.301 -4.76883 2.41841 0
M  V30 3086 C 283.601 -3.30632 4.04326 0
M  V30 3087 H 285.295 -1.67187 2.48373 0
M  V30 3088 H 282.841 -0.802909 1.19538 0
M  V30 3089 H 284.794 -3.92064 1.54478 0
M  V30 3090 H 283.518 -3.22515 0.514961 0
M  V30 3091 H 282.177 -2.62334 2.56079 0
M  V30 3092 H 281.825 -4.82378 1.42548 0
M  V30 3093 H 281.525 -4.94278 3.17747 0
M  V30 3094 H 283.049 -5.57449 2.49165 0
M  V30 3095 H 284.463 -3.98873 4.11793 0
M  V30 3096 H 282.86 -3.59561 4.80454 0
M  V30 3097 H 283.93 -2.28404 4.27738 0
M  V30 3098 N 285.273 -1.31445 -0.869486 0
M  V30 3099 C 286.55 -1.11795 -1.60503 0
M  V30 3100 C 286.93 0.327168 -2.08549 0
M  V30 3101 O 286.278 1.32135 -1.8642 0
M  V30 3102 C 286.488 -2.13258 -2.76265 0
M  V30 3103 C 287.836 -2.45805 -3.46215 0
M  V30 3104 O 288.86 -2.11688 -2.86473 0
M  V30 3105 O 287.719 -3.04228 -4.5399 0
M  V30 3106 H 284.813 -0.430421 -0.706163 0
M  V30 3107 H 287.359 -1.42925 -0.914907 0
M  V30 3108 H 286.131 -3.10461 -2.3818 0
M  V30 3109 H 285.754 -1.83035 -3.52964 0
M  V30 3110 N 286.751 1.08385 -1.14413 0
M  V30 3111 C 287.683 2.1519 -0.789036 0
M  V30 3112 C 288.696 1.61638 0.19417 0
M  V30 3113 O 289.885 1.78479 -0.0275711 0
M  V30 3114 C 286.985 3.38565 -0.15058 0
M  V30 3115 C 286.158 4.21501 -1.16857 0
M  V30 3116 C 285.217 5.23277 -0.553832 0
M  V30 3117 O 284.243 5.56041 -1.21686 0
M  V30 3118 N 285.445 5.76629 0.669296 0
M  V30 3119 H 288.21 2.46257 -1.70814 0
M  V30 3120 H 285.771 1.24198 -1.03858 0
M  V30 3121 H 287.763 4.03777 0.273181 0
M  V30 3122 H 286.333 3.05299 0.671667 0
M  V30 3123 H 285.553 3.52265 -1.76926 0
M  V30 3124 H 286.841 4.73731 -1.85624 0
M  V30 3125 H 286.239 5.52243 1.22654 0
M  V30 3126 H 284.796 6.43521 1.03556 0
M  V30 3127 N 288.23 0.939286 1.26551 0
M  V30 3128 C 289.14 0.453432 2.30176 0
M  V30 3129 C 290.156 -0.471649 1.67486 0
M  V30 3130 O 291.332 -0.35164 1.98306 0
M  V30 3131 C 288.397 -0.275326 3.45605 0
M  V30 3132 C 287.458 0.686084 4.23782 0
M  V30 3133 C 286.691 -0.00798994 5.33699 0
M  V30 3134 O 286.914 -1.22528 5.57085 0
M  V30 3135 O 285.848 0.669746 5.98162 0
M  V30 3136 H 289.674 1.31416 2.73795 0
M  V30 3137 H 287.259 0.705095 1.31715 0
M  V30 3138 H 289.141 -0.685911 4.1578 0
M  V30 3139 H 287.816 -1.11147 3.0402 0
M  V30 3140 H 286.723 1.14658 3.56096 0
M  V30 3141 H 288.056 1.48979 4.69112 0
M  V30 3142 N 289.708 -1.40897 0.706093 0
M  V30 3143 C 290.655 -2.30751 0.0474474 0
M  V30 3144 C 291.625 -1.47678 -0.76029 0
M  V30 3145 O 292.81 -1.76441 -0.726177 0
M  V30 3146 C 289.95 -3.33815 -0.875309 0
M  V30 3147 C 289.063 -4.31961 -0.0580623 0
M  V30 3148 C 288.198 -5.22093 -0.979425 0
M  V30 3149 C 287.237 -6.11902 -0.155706 0
M  V30 3150 N 286.374 -6.94482 -1.03144 0
M  V30 3151 H 291.214 -2.86513 0.819413 0
M  V30 3152 H 288.751 -1.41102 0.415783 0
M  V30 3153 H 290.709 -3.92129 -1.42446 0
M  V30 3154 H 289.339 -2.79579 -1.61356 0
M  V30 3155 H 288.391 -3.75507 0.608147 0
M  V30 3156 H 289.703 -4.95415 0.580082 0
M  V30 3157 H 288.857 -5.85292 -1.59744 0
M  V30 3158 H 287.596 -4.5889 -1.65141 0
M  V30 3159 H 286.601 -5.47742 0.475309 0
M  V30 3160 H 287.826 -6.77162 0.512635 0
M  V30 3161 H 285.772 -6.33877 -1.68924 0
M  V30 3162 H 285.689 -7.54665 -0.449108 0
M  V30 3163 H 286.957 -7.6214 -1.63593 0
M  V30 3164 N 291.186 -0.45159 -1.50991 0
M  V30 3165 C 292.432 0.110237 -2.025 0
M  V30 3166 C 292.765 1.41109 -1.33424 0
M  V30 3167 O 292.04 1.89135 -0.453659 0
M  V30 3168 C 292.323 0.314271 -3.58726 0
M  V30 3169 C 292.176 -1.00623 -4.38401 0
M  V30 3170 C 293.495 1.07767 -4.26702 0
M  V30 3171 H 290.614 0.0385897 -0.735989 0
M  V30 3172 H 293.256 -0.593374 -1.80497 0
M  V30 3173 H 291.406 0.913601 -3.77605 0
M  V30 3174 H 293.078 -1.64064 -4.31139 0
M  V30 3175 H 291.321 -1.6075 -4.02917 0
M  V30 3176 H 291.992 -0.817341 -5.45915 0
M  V30 3177 H 294.468 0.56986 -4.12179 0
M  V30 3178 H 293.344 1.18921 -5.35863 0
M  V30 3179 H 293.605 2.10939 -3.88532 0
M  V30 3180 N 292.664 1.56529 -0.183458 0
M  V30 3181 C 293.627 2.17324 0.728223 0
M  V30 3182 C 294.627 1.12453 1.14939 0
M  V30 3183 O 295.817 1.37902 1.06437 0
M  V30 3184 C 292.949 2.76591 1.99274 0
M  V30 3185 H 294.142 2.99241 0.198772 0
M  V30 3186 H 291.695 1.5616 0.0661391 0
M  V30 3187 H 292.43 1.98441 2.56499 0
M  V30 3188 H 292.215 3.5335 1.69959 0
M  V30 3189 H 293.705 3.23311 2.6431 0
M  V30 3190 N 294.142 -0.090211 1.57342 0
M  V30 3191 C 295.37 -0.806224 1.90546 0
M  V30 3192 C 295.785 -1.72041 0.777644 0
M  V30 3193 O 295.142 -1.80778 -0.250103 0
M  V30 3194 C 295.193 -1.61546 3.23396 0
M  V30 3195 O 294.914 -0.738043 4.31839 0
M  V30 3196 C 296.415 -2.4341 3.70495 0
M  V30 3197 H 293.635 -0.230256 0.630257 0
M  V30 3198 H 296.179 -0.0659843 2.04394 0
M  V30 3199 H 294.334 -2.30816 3.11131 0
M  V30 3200 H 294.748 -1.29901 5.08159 0
M  V30 3201 H 296.222 -2.95676 4.66133 0
M  V30 3202 H 296.699 -3.22098 2.98579 0
M  V30 3203 H 297.305 -1.79331 3.85643 0
M  V30 3204 N 295.62 -1.53406 -0.361157 0
M  V30 3205 C 296.848 -1.73717 -1.12383 0
M  V30 3206 C 297.263 -0.468161 -1.82904 0
M  V30 3207 O 296.62 0.559198 -1.73722 0
M  V30 3208 C 296.671 -2.90558 -2.15078 0
M  V30 3209 O 296.392 -4.12549 -1.47428 0
M  V30 3210 C 297.893 -3.22777 -3.03858 0
M  V30 3211 H 295.113 -0.580896 -0.335858 0
M  V30 3212 H 297.657 -2.00167 -0.418728 0
M  V30 3213 H 295.812 -2.66489 -2.8118 0
M  V30 3214 H 296.226 -4.78009 -2.15887 0
M  V30 3215 H 297.7 -4.07927 -3.71887 0
M  V30 3216 H 298.177 -2.38329 -3.68912 0
M  V30 3217 H 298.783 -3.48787 -2.43367 0
M  V30 3218 N 297.098 0.621204 -1.44841 0
M  V30 3219 C 298.375 1.38 -1.38619 0
M  V30 3220 C 298.755 2.11041 -0.0498935 0
M  V30 3221 O 298.103 2.06992 0.967816 0
M  V30 3222 C 298.313 2.33817 -2.59096 0
M  V30 3223 C 299.661 2.96844 -3.03593 0
M  V30 3224 O 300.685 2.44141 -2.59371 0
M  V30 3225 O 299.544 3.92476 -3.80296 0
M  V30 3226 H 296.638 0.61811 -0.549426 0
M  V30 3227 H 299.184 0.645429 -1.56947 0
M  V30 3228 H 297.956 1.79012 -3.47952 0
M  V30 3229 H 297.579 3.14676 -2.43032 0
M  V30 3230 N 298.576 1.31904 0.862503 0
M  V30 3231 C 299.486 1.22161 2.00285 0
M  V30 3232 C 300.502 0.136785 1.73462 0
M  V30 3233 O 301.678 0.355994 1.98229 0
M  V30 3234 C 298.743 0.937093 3.33796 0
M  V30 3235 C 297.804 2.10957 3.73893 0
M  V30 3236 C 297.037 1.83853 5.01033 0
M  V30 3237 O 297.26 0.777274 5.65079 0
M  V30 3238 O 296.194 2.69741 5.38074 0
M  V30 3239 H 300.02 2.18008 2.11439 0
M  V30 3240 H 297.605 1.11716 0.991957 0
M  V30 3241 H 299.487 0.794583 4.13841 0
M  V30 3242 H 298.162 0.00871894 3.23699 0
M  V30 3243 H 297.069 2.30752 2.94456 0
M  V30 3244 H 298.402 3.02046 3.88625 0
M  V30 3245 N 300.054 -1.07777 1.14986 0
M  V30 3246 C 300.964 -2.18404 0.856546 0
M  V30 3247 C 301.98 -1.73211 -0.165485 0
M  V30 3248 O 303.156 -2.01399 0.00755219 0
M  V30 3249 C 300.221 -3.44977 0.34526 0
M  V30 3250 C 299.282 -4.0476 1.43065 0
M  V30 3251 C 298.515 -5.25291 0.943663 0
M  V30 3252 O 298.738 -5.70004 -0.212426 0
M  V30 3253 O 297.672 -5.76638 1.72547 0
M  V30 3254 H 301.498 -2.45978 1.78125 0
M  V30 3255 H 299.083 -1.17033 0.928631 0
M  V30 3256 H 300.965 -4.21348 0.0663671 0
M  V30 3257 H 299.64 -3.18965 -0.551631 0
M  V30 3258 H 298.547 -3.29949 1.76309 0
M  V30 3259 H 299.88 -4.35035 2.30229 0
M  V30 3260 N 301.532 -0.945985 -1.26051 0
M  V30 3261 C 302.943 -0.638096 -1.75457 0
M  V30 3262 C 303.294 0.846672 -1.76991 0
M  V30 3263 O 302.419 1.66262 -1.38513 0
M  V30 3264 C 303.014 -1.15157 -3.18629 0
M  V30 3265 C 301.573 -0.894004 -3.65629 0
M  V30 3266 C 300.72 -1.29967 -2.44957 0
M  V30 3267 H 303.671 -1.12376 -1.1206 0
M  V30 3268 H 303.692 -0.507615 -3.77099 0
M  V30 3269 H 303.204 -2.23222 -3.1748 0
M  V30 3270 H 301.305 0.172057 -3.72203 0
M  V30 3271 H 301.418 -1.52439 -4.54202 0
M  V30 3272 H 299.782 -0.718078 -2.44368 0
M  V30 3273 H 300.565 -2.38935 -2.46505 0
M  V30 3274 N 303.011 1.40521 -0.713556 0
M  V30 3275 C 304.26 2.00155 -0.249192 0
M  V30 3276 C 304.573 1.57224 1.16362 0
M  V30 3277 O 305.779 2.09542 1.72639 0
M  V30 3278 C 304.235 3.5773 -0.3946 0
M  V30 3279 C 303.843 4.09635 -1.81392 0
M  V30 3280 C 305.587 4.24499 0.00907364 0
M  V30 3281 C 303.494 5.59707 -1.91003 0
M  V30 3282 H 302.424 0.74868 -0.0894114 0
M  V30 3283 H 305.075 1.60784 -0.884352 0
M  V30 3284 H 303.457 3.94792 0.30911 0
M  V30 3285 H 304.631 3.83955 -2.54785 0
M  V30 3286 H 302.946 3.55456 -2.16888 0
M  V30 3287 H 305.543 5.34683 -0.0420404 0
M  V30 3288 H 305.886 4.02824 1.05065 0
M  V30 3289 H 306.419 3.92536 -0.645007 0
M  V30 3290 H 303.158 5.86234 -2.93275 0
M  V30 3291 H 302.678 5.87258 -1.22019 0
M  V30 3292 H 304.357 6.24776 -1.6812 0
M  V30 3293 N 304.489 0.459591 1.5075 0
M  V30 3294 C 305.419 -0.330644 2.31147 0
M  V30 3295 C 306.4 -1.00087 1.37538 0
M  V30 3296 O 307.585 -1.00025 1.66459 0
M  V30 3297 C 304.715 -1.41958 3.16962 0
M  V30 3298 C 303.669 -0.871608 4.19031 0
M  V30 3299 C 302.995 -2.05797 4.9351 0
M  V30 3300 C 304.295 0.109251 5.22186 0
M  V30 3301 H 305.989 0.340336 2.97459 0
M  V30 3302 H 303.535 0.165119 1.4305 0
M  V30 3303 H 305.488 -1.9798 3.71997 0
M  V30 3304 H 304.212 -2.11917 2.48513 0
M  V30 3305 H 302.871 -0.333442 3.6508 0
M  V30 3306 H 302.519 -2.74427 4.21544 0
M  V30 3307 H 302.219 -1.6976 5.62544 0
M  V30 3308 H 303.743 -2.62331 5.51375 0
M  V30 3309 H 305.157 -0.361405 5.7216 0
M  V30 3310 H 303.554 0.383316 5.98875 0
M  V30 3311 H 304.624 1.03887 4.73641 0
M  V30 3312 N 305.967 -1.56429 0.191757 0
M  V30 3313 C 307.215 -1.97095 -0.447006 0
M  V30 3314 C 307.536 -1.07967 -1.62383 0
M  V30 3315 O 306.806 -0.150248 -1.95323 0
M  V30 3316 H 305.386 -0.727832 -0.168135 0
M  V30 3317 H 308.048 -1.92911 0.27771 0
M  V30 3318 H 307.144 -3.01848 -0.793371 0
M  V30 3319 N 307.445 0.0818655 -1.57387 0
M  V30 3320 C 308.377 1.12484 -1.997 0
M  V30 3321 C 309.39 1.35564 -0.90146 0
M  V30 3322 O 310.579 1.33982 -1.17945 0
M  V30 3323 C 307.679 2.47778 -2.31213 0
M  V30 3324 C 306.852 2.44793 -3.62485 0
M  V30 3325 C 305.911 3.62117 -3.81782 0
M  V30 3326 O 304.937 3.44005 -4.53486 0
M  V30 3327 N 306.139 4.82094 -3.23367 0
M  V30 3328 H 308.904 0.764585 -2.89783 0
M  V30 3329 H 306.465 0.270664 -1.59621 0
M  V30 3330 H 308.457 3.24891 -2.41304 0
M  V30 3331 H 307.027 2.75843 -1.4707 0
M  V30 3332 H 306.247 1.53134 -3.6324 0
M  V30 3333 H 307.535 2.39889 -4.48699 0
M  V30 3334 H 306.933 4.99713 -2.65148 0
M  V30 3335 H 305.49 5.56753 -3.38923 0
M  V30 3336 N 308.923 1.53595 0.353017 0
M  V30 3337 C 310.151 1.74311 1.1146 0
M  V30 3338 C 310.566 0.477854 1.82653 0
M  V30 3339 O 309.923 -0.549977 1.74016 0
M  V30 3340 C 309.974 2.91694 2.13534 0
M  V30 3341 O 309.695 4.13325 1.45238 0
M  V30 3342 C 311.196 3.24384 3.02142 0
M  V30 3343 H 308.416 0.582669 0.332773 0
M  V30 3344 H 310.96 2.00386 0.408107 0
M  V30 3345 H 309.115 2.67977 2.79763 0
M  V30 3346 H 309.529 4.79148 2.13349 0
M  V30 3347 H 311.003 4.09893 3.69718 0
M  V30 3348 H 311.48 2.40282 3.67643 0
M  V30 3349 H 312.086 3.50073 2.41514 0
M  V30 3350 N 310.401 -0.613514 1.45168 0
M  V30 3351 C 311.631 -1.39743 1.52169 0
M  V30 3352 C 312.039 -1.88596 0.151086 0
M  V30 3353 O 311.382 -1.6251 -0.856521 0
M  V30 3354 C 311.444 -2.64035 2.43979 0
M  V30 3355 C 311.108 -2.36861 3.90827 0
M  V30 3356 C 312.105 -1.97591 4.80889 0
M  V30 3357 C 309.79 -2.49956 4.35692 0
M  V30 3358 C 311.784 -1.71768 6.1382 0
M  V30 3359 C 309.471 -2.23747 5.68665 0
M  V30 3360 C 310.469 -1.84714 6.57548 0
M  V30 3361 O 310.157 -1.58809 7.88058 0
M  V30 3362 H 309.889 -0.434382 0.517966 0
M  V30 3363 H 312.443 -0.75587 1.90986 0
M  V30 3364 H 310.673 -3.3089 2.00122 0
M  V30 3365 H 312.362 -3.26069 2.41731 0
M  V30 3366 H 313.128 -1.87015 4.47493 0
M  V30 3367 H 309.007 -2.79305 3.66756 0
M  V30 3368 H 312.551 -1.41227 6.83155 0
M  V30 3369 H 308.448 -2.33938 6.01617 0
M  V30 3370 H 309.216 -1.7291 8.00028 0
M  V30 3371 N 311.879 -1.3236 -0.855495 0
M  V30 3372 C 312.809 -1.23833 -1.97958 0
M  V30 3373 C 313.79 -0.122361 -1.69659 0
M  V30 3374 O 314.975 -0.30939 -1.9172 0
M  V30 3375 C 312.105 -0.959772 -3.33775 0
M  V30 3376 C 311.059 -2.03689 -3.76424 0
M  V30 3377 C 310.385 -1.61075 -5.09862 0
M  V30 3378 C 311.685 -3.4518 -3.9198 0
M  V30 3379 H 313.379 -2.1788 -2.0535 0
M  V30 3380 H 310.925 -1.04891 -0.986605 0
M  V30 3381 H 312.878 -0.886678 -4.11966 0
M  V30 3382 H 311.602 0.0163404 -3.26596 0
M  V30 3383 H 310.261 -2.10012 -3.00484 0
M  V30 3384 H 309.909 -0.622107 -4.99138 0
M  V30 3385 H 309.609 -2.33143 -5.39368 0
M  V30 3386 H 311.133 -1.55201 -5.90546 0
M  V30 3387 H 312.547 -3.4145 -4.60526 0
M  V30 3388 H 310.944 -4.1559 -4.32903 0
M  V30 3389 H 312.014 -3.84903 -2.94919 0
M  V30 3390 N 313.357 1.07166 -1.15556 0
M  V30 3391 C 314.768 1.6127 -0.940693 0
M  V30 3392 C 315.119 1.89251 0.517551 0
M  V30 3393 O 314.244 1.65937 1.38903 0
M  V30 3394 C 314.839 2.92993 -1.7012 0
M  V30 3395 C 313.398 3.43832 -1.53156 0
M  V30 3396 C 312.545 2.1786 -1.71558 0
M  V30 3397 H 315.496 0.90229 -1.30554 0
M  V30 3398 H 315.517 3.62007 -1.17181 0
M  V30 3399 H 315.029 2.72596 -2.76248 0
M  V30 3400 H 313.13 3.69307 -0.494294 0
M  V30 3401 H 313.243 4.19747 -2.30975 0
M  V30 3402 H 311.607 2.2765 -1.14225 0
M  V30 3403 H 312.39 1.99956 -2.79056 0
M  V30 3404 N 314.835 0.952656 1.25548 0
M  V30 3405 C 316.251 0.656769 1.4546 0
M  V30 3406 C 316.451 -0.78633 1.85524 0
M  V30 3407 O 315.507 -1.56183 1.98402 0
M  V30 3408 C 316.82 1.62801 2.52817 0
M  V30 3409 C 318.368 1.63897 2.66659 0
M  V30 3410 C 318.843 2.5978 3.77198 0
M  V30 3411 N 320.334 2.58133 3.84606 0
M  V30 3412 C 321.069 3.29003 4.69621 0
M  V30 3413 N 320.565 4.09339 5.58939 0
M  V30 3414 N 322.358 3.179 4.63569 0
M  V30 3415 H 314.509 1.88526 0.978344 0
M  V30 3416 H 316.772 0.810815 0.491206 0
M  V30 3417 H 316.478 2.65869 2.30232 0
M  V30 3418 H 316.352 1.38898 3.50695 0
M  V30 3419 H 318.739 0.615481 2.8861 0
M  V30 3420 H 318.82 1.91858 1.69187 0
M  V30 3421 H 318.464 3.62254 3.55997 0
M  V30 3422 H 318.394 2.29105 4.7415 0
M  V30 3423 H 320.885 1.99809 3.20757 0
M  V30 3424 H 321.198 4.6034 6.20731 0
M  V30 3425 H 319.543 4.13438 5.58654 0
M  V30 3426 H 322.734 2.54612 3.92798 0
M  V30 3427 H 322.907 3.73398 5.29602 0
M  V30 3428 N 316.313 -1.40141 0.720998 0
M  V30 3429 C 317.26 -2.30688 0.071919 0
M  V30 3430 C 318.23 -1.48476 -0.744584 0
M  V30 3431 O 319.415 -1.77201 -0.707423 0
M  V30 3432 C 316.555 -3.34724 -0.839855 0
M  V30 3433 C 315.668 -4.31998 -0.0122438 0
M  V30 3434 C 314.803 -5.23102 -0.923995 0
M  V30 3435 C 313.842 -6.12033 -0.0907969 0
M  V30 3436 N 312.979 -6.95537 -0.957718 0
M  V30 3437 H 317.819 -2.85628 0.849755 0
M  V30 3438 H 315.356 -1.40653 0.430726 0
M  V30 3439 H 317.314 -3.93618 -1.38279 0
M  V30 3440 H 315.944 -2.81274 -1.58381 0
M  V30 3441 H 314.996 -3.74841 0.64794 0
M  V30 3442 H 316.308 -4.94772 0.632595 0
M  V30 3443 H 315.462 -5.86953 -1.53527 0
M  V30 3444 H 314.201 -4.60615 -1.60264 0
M  V30 3445 H 313.206 -5.47207 0.533377 0
M  V30 3446 H 314.431 -6.76581 0.584428 0
M  V30 3447 H 312.377 -6.35633 -1.62192 0
M  V30 3448 H 312.294 -7.55099 -0.36904 0
M  V30 3449 H 313.562 -7.63832 -1.555 0
M  V30 3450 N 317.792 -0.46758 -1.50504 0
M  V30 3451 C 319.039 0.0886219 -2.02306 0
M  V30 3452 C 319.367 1.40037 -1.34981 0
M  V30 3453 O 318.622 1.90136 -0.463318 0
M  V30 3454 C 318.921 0.323995 -3.55928 0
M  V30 3455 C 318.587 -0.905618 -4.41712 0
M  V30 3456 C 317.249 -1.24275 -4.64875 0
M  V30 3457 C 319.601 -1.72448 -4.91845 0
M  V30 3458 C 316.929 -2.39888 -5.35417 0
M  V30 3459 C 319.281 -2.87185 -5.63656 0
M  V30 3460 C 317.945 -3.21317 -5.85074 0
M  V30 3461 H 317.215 0.0324291 -0.74029 0
M  V30 3462 H 319.862 -0.620945 -1.81153 0
M  V30 3463 H 318.167 1.11577 -3.75577 0
M  V30 3464 H 319.864 0.76826 -3.93572 0
M  V30 3465 H 316.454 -0.632956 -4.239 0
M  V30 3466 H 320.638 -1.4772 -4.73806 0
M  V30 3467 H 315.894 -2.66611 -5.50208 0
M  V30 3468 H 320.068 -3.50985 -6.01484 0
M  V30 3469 H 317.695 -4.1101 -6.39511 0
M  V30 3470 N 319.27 1.56325 -0.20005 0
M  V30 3471 C 320.217 2.1932 0.718833 0
M  V30 3472 C 321.187 1.14198 1.20615 0
M  V30 3473 O 322.372 1.42469 1.26914 0
M  V30 3474 C 319.512 2.86041 1.93066 0
M  V30 3475 C 318.625 4.05702 1.48425 0
M  V30 3476 C 317.76 4.60266 2.65196 0
M  V30 3477 C 316.799 5.72273 2.17185 0
M  V30 3478 N 315.936 6.21221 3.27152 0
M  V30 3479 H 320.776 2.97486 0.17489 0
M  V30 3480 H 318.313 1.46911 0.0745794 0
M  V30 3481 H 320.271 3.22897 2.64184 0
M  V30 3482 H 318.901 2.1043 2.44783 0
M  V30 3483 H 317.953 3.74475 0.668755 0
M  V30 3484 H 319.265 4.86699 1.09204 0
M  V30 3485 H 318.419 4.99453 3.4443 0
M  V30 3486 H 317.158 3.78386 3.07693 0
M  V30 3487 H 316.163 5.3261 1.36407 0
M  V30 3488 H 317.388 6.55974 1.75713 0
M  V30 3489 H 315.334 5.42263 3.69171 0
M  V30 3490 H 315.251 6.97284 2.92116 0
M  V30 3491 H 316.519 6.65063 4.06585 0
M  V30 3492 N 320.748 -0.0735177 1.57428 0
M  V30 3493 C 321.976 -0.785969 1.9139 0
M  V30 3494 C 322.391 -1.71207 0.795847 0
M  V30 3495 O 321.748 -1.81033 -0.230915 0
M  V30 3496 C 321.799 -1.58107 3.25091 0
M  V30 3497 O 321.52 -0.6922 4.32597 0
M  V30 3498 C 323.021 -2.39467 3.73055 0
M  V30 3499 H 320.241 -0.223558 0.632663 0
M  V30 3500 H 322.785 -0.044302 2.04452 0
M  V30 3501 H 320.94 -2.27503 3.13562 0
M  V30 3502 H 321.354 -1.24504 5.09508 0
M  V30 3503 H 322.828 -2.90716 4.69242 0
M  V30 3504 H 323.305 -3.18913 3.01979 0
M  V30 3505 H 323.911 -1.7523 3.87523 0
M  V30 3506 N 322.226 -1.5378 -0.344866 0
M  V30 3507 C 323.454 -1.74899 -1.10534 0
M  V30 3508 C 323.869 -0.487534 -1.82397 0
M  V30 3509 O 323.226 0.540741 -1.74305 0
M  V30 3510 C 323.277 -2.92822 -2.11984 0
M  V30 3511 O 322.998 -4.14089 -1.43044 0
M  V30 3512 C 324.499 -3.25982 -3.00417 0
M  V30 3513 H 321.719 -0.584426 -0.329678 0
M  V30 3514 H 324.263 -2.006 -0.397474 0
M  V30 3515 H 322.418 -2.69457 -2.78338 0
M  V30 3516 H 322.832 -4.80272 -2.10805 0
M  V30 3517 H 324.306 -4.11848 -3.67539 0
M  V30 3518 H 324.783 -2.42228 -3.66363 0
M  V30 3519 H 325.389 -3.51349 -2.39654 0
M  V30 3520 N 323.704 0.605807 -1.45491 0
M  V30 3521 C 324.95 1.36679 -1.49823 0
M  V30 3522 C 325.283 1.93693 -0.140175 0
M  V30 3523 O 324.558 1.75158 0.845581 0
M  V30 3524 C 324.841 2.51337 -2.57879 0
M  V30 3525 C 324.694 1.99508 -4.03134 0
M  V30 3526 C 326.013 3.53463 -2.62205 0
M  V30 3527 H 323.132 0.495617 -0.545466 0
M  V30 3528 H 325.774 0.682732 -1.7731 0
M  V30 3529 H 323.924 3.09691 -2.34571 0
M  V30 3530 H 325.596 1.45789 -4.37656 0
M  V30 3531 H 323.839 1.30496 -4.13707 0
M  V30 3532 H 324.51 2.82169 -4.74431 0
M  V30 3533 H 326.986 3.04953 -2.83095 0
M  V30 3534 H 325.862 4.31178 -3.39672 0
M  V30 3535 H 326.123 4.09197 -1.67363 0
M  V30 3536 N 325.182 1.32811 0.848464 0
M  V30 3537 C 326.428 1.23907 1.60546 0
M  V30 3538 C 326.761 -0.197161 1.93197 0
M  V30 3539 O 326.036 -1.13596 1.5788 0
M  V30 3540 C 326.319 2.10489 2.92175 0
M  V30 3541 C 326.172 3.62522 2.66266 0
M  V30 3542 C 327.491 1.97075 3.93509 0
M  V30 3543 H 324.61 0.451459 0.58254 0
M  V30 3544 H 327.252 1.62818 0.979296 0
M  V30 3545 H 325.402 1.77434 3.45614 0
M  V30 3546 H 327.074 4.05821 2.19334 0
M  V30 3547 H 325.317 3.84879 2.00126 0
M  V30 3548 H 325.988 4.18437 3.6002 0
M  V30 3549 H 328.464 2.26045 3.49346 0
M  V30 3550 H 327.34 2.59923 4.83457 0
M  V30 3551 H 327.601 0.940186 4.31987 0
M  V30 3552 N 326.66 -1.06551 1.16123 0
M  V30 3553 C 327.909 -1.78687 0.935622 0
M  V30 3554 C 328.222 -1.88056 -0.538001 0
M  V30 3555 O 329.428 -2.56794 -0.88143 0
M  V30 3556 C 327.884 -3.21143 1.62466 0
M  V30 3557 C 327.492 -3.19949 3.13587 0
M  V30 3558 C 329.236 -3.9783 1.48092 0
M  V30 3559 C 327.143 -4.57108 3.75241 0
M  V30 3560 H 326.073 -0.669712 0.346412 0
M  V30 3561 H 328.724 -1.19534 1.39226 0
M  V30 3562 H 327.106 -3.80539 1.09572 0
M  V30 3563 H 328.28 -2.70151 3.73303 0
M  V30 3564 H 326.595 -2.5676 3.27816 0
M  V30 3565 H 329.192 -4.99217 1.91538 0
M  V30 3566 H 329.535 -4.14078 0.429507 0
M  V30 3567 H 330.068 -3.4495 1.98127 0
M  V30 3568 H 326.807 -4.46065 4.80319 0
M  V30 3569 H 326.327 -5.07111 3.20309 0
M  V30 3570 H 328.006 -5.26069 3.76644 0
M  V30 3571 N 328.138 -0.959301 -1.25041 0
M  V30 3572 C 329.549 -0.65667 -1.74771 0
M  V30 3573 C 329.9 0.827852 -1.77879 0
M  V30 3574 O 329.025 1.64783 -1.40269 0
M  V30 3575 C 329.62 -1.1853 -3.1739 0
M  V30 3576 C 328.179 -0.932734 -3.6466 0
M  V30 3577 C 327.326 -1.32558 -2.43564 0
M  V30 3578 H 330.277 -1.13558 -1.10862 0
M  V30 3579 H 330.298 -0.547582 -3.76539 0
M  V30 3580 H 329.81 -2.26576 -3.15095 0
M  V30 3581 H 327.911 0.13257 -3.72364 0
M  V30 3582 H 328.024 -1.57248 -4.52559 0
M  V30 3583 H 326.388 -0.743956 -2.43593 0
M  V30 3584 H 327.171 -2.41537 -2.43957 0
M  V30 3585 N 329.616 1.39756 -0.72842 0
M  V30 3586 C 331.027 1.83498 -0.344289 0
M  V30 3587 C 331.378 1.60868 1.12321 0
M  V30 3588 O 330.503 1.09634 1.86573 0
M  V30 3589 C 331.098 3.33114 -0.618112 0
M  V30 3590 C 329.657 3.753 -0.287549 0
M  V30 3591 C 328.804 2.62831 -0.884048 0
M  V30 3592 H 331.755 1.28842 -0.926578 0
M  V30 3593 H 331.776 3.80334 0.112349 0
M  V30 3594 H 331.288 3.49553 -1.68625 0
M  V30 3595 H 329.389 3.64451 0.775012 0
M  V30 3596 H 329.502 4.72945 -0.765512 0
M  V30 3597 H 327.866 2.52792 -0.311149 0
M  V30 3598 H 328.649 2.82078 -1.95671 0
M  V30 3599 N 331.094 0.475555 1.50254 0
M  V30 3600 C 332.026 -0.352649 2.26471 0
M  V30 3601 C 333.039 -0.953165 1.3198 0
M  V30 3602 O 334.228 -0.840815 1.57457 0
M  V30 3603 C 331.328 -1.50902 3.0345 0
M  V30 3604 C 330.501 -1.02047 4.25329 0
M  V30 3605 C 329.56 -2.05142 4.84565 0
M  V30 3606 O 328.586 -1.63023 5.45355 0
M  V30 3607 N 329.788 -3.37987 4.71959 0
M  V30 3608 H 332.553 0.300767 2.98187 0
M  V30 3609 H 330.114 0.306598 1.5897 0
M  V30 3610 H 332.106 -2.19572 3.39956 0
M  V30 3611 H 330.676 -2.06705 2.34504 0
M  V30 3612 H 329.896 -0.159507 3.93877 0
M  V30 3613 H 331.184 -0.672061 5.04342 0
M  V30 3614 H 330.582 -3.74913 4.23623 0
M  V30 3615 H 329.139 -4.02443 5.12721 0
M  V30 3616 N 332.573 -1.56217 0.208337 0
M  V30 3617 C 333.521 -2.21053 -0.723769 0
M  V30 3618 C 334.515 -1.18578 -1.20978 0
M  V30 3619 O 335.721 -1.36691 -1.17114 0
M  V30 3620 H 332.096 -0.708595 -0.251788 0
M  V30 3621 H 334.067 -2.98006 -0.153365 0
M  V30 3622 C 332.816 -2.89417 -1.927 0
M  V30 3623 H 332.139 -3.68019 -1.56212 0
M  V30 3624 H 333.579 -3.38201 -2.55727 0
M  V30 3625 C 332.038 -1.91166 -2.77411 0
M  V30 3626 O 332.568 -1.42026 -3.75754 0
M  V30 3627 N 330.774 -1.59105 -2.43175 0
M  V30 3628 H 330.321 -1.99259 -1.63259 0
M  V30 3629 H 330.279 -0.936255 -3.00136 0
M  V30 3630 N 334.051 0.0651679 -1.57465 0
M  V30 3631 C 335.328 0.79644 -1.78651 0
M  V30 3632 C 335.708 1.95454 -0.797566 0
M  V30 3633 O 335.056 2.27882 0.167946 0
M  V30 3634 C 335.266 1.26322 -3.25337 0
M  V30 3635 C 336.614 1.6939 -3.89348 0
M  V30 3636 O 337.638 1.35872 -3.29268 0
M  V30 3637 O 336.497 2.31471 -4.95059 0
M  V30 3638 H 333.591 0.382157 -0.733407 0
M  V30 3639 H 336.137 0.0447311 -1.69641 0
M  V30 3640 H 334.909 0.434859 -3.88876 0
M  V30 3641 H 334.532 2.07604 -3.39096 0
M  V30 3642 N 335.529 1.53961 0.336706 0
M  V30 3643 C 336.778 1.70751 1.07363 0
M  V30 3644 C 337.091 0.481061 1.89592 0
M  V30 3645 O 338.297 0.530046 2.66276 0
M  V30 3646 C 336.753 3.01965 1.95818 0
M  V30 3647 C 336.361 4.31971 1.18764 0
M  V30 3648 C 338.105 3.28121 2.69327 0
M  V30 3649 C 336.012 5.54255 2.06289 0
M  V30 3650 H 334.942 0.636292 0.404535 0
M  V30 3651 H 337.593 1.80459 0.332681 0
M  V30 3652 H 335.975 2.86132 2.7376 0
M  V30 3653 H 337.149 4.5853 0.456849 0
M  V30 3654 H 335.464 4.12481 0.569946 0
M  V30 3655 H 338.061 4.16673 3.35094 0
M  V30 3656 H 338.404 2.45426 3.36261 0
M  V30 3657 H 338.937 3.44762 1.98454 0
M  V30 3658 H 335.676 6.39513 1.43885 0
M  V30 3659 H 335.196 5.31935 2.77138 0
M  V30 3660 H 336.875 5.90159 2.65182 0
M  V30 3661 N 337.007 -0.598083 1.45811 0
M  V30 3662 C 338.284 -1.35777 1.40797 0
M  V30 3663 C 338.664 -2.10935 0.083462 0
M  V30 3664 O 338.012 -2.08505 -0.934763 0
M  V30 3665 C 338.222 -2.29666 2.62783 0
M  V30 3666 C 339.57 -2.91977 3.08277 0
M  V30 3667 O 340.594 -2.39984 2.63223 0
M  V30 3668 O 339.453 -3.86376 3.86491 0
M  V30 3669 H 336.547 -0.609291 0.55919 0
M  V30 3670 H 339.093 -0.620379 1.57954 0
M  V30 3671 H 337.865 -1.73454 3.50756 0
M  V30 3672 H 337.488 -3.1077 2.48008 0
M  V30 3673 N 338.485 -1.33259 -0.841409 0
M  V30 3674 C 339.415 -1.25926 -1.96634 0
M  V30 3675 C 340.396 -0.140349 -1.6952 0
M  V30 3676 O 341.581 -0.329707 -1.91381 0
M  V30 3677 C 338.711 -0.99512 -3.32738 0
M  V30 3678 C 337.665 -2.0767 -3.74242 0
M  V30 3679 C 336.991 -1.66474 -5.08125 0
M  V30 3680 C 338.291 -3.49318 -3.88297 0
M  V30 3681 H 339.985 -2.20046 -2.03027 0
M  V30 3682 H 337.531 -1.05931 -0.975425 0
M  V30 3683 H 339.484 -0.930323 -4.11002 0
M  V30 3684 H 338.208 -0.0183004 -3.26595 0
M  V30 3685 H 336.867 -2.13187 -2.98239 0
M  V30 3686 H 336.515 -0.675012 -4.9845 0
M  V30 3687 H 336.215 -2.3885 -5.36865 0
M  V30 3688 H 337.739 -1.61455 -5.88867 0
M  V30 3689 H 339.153 -3.46316 -4.56879 0
M  V30 3690 H 337.55 -4.20158 -4.28471 0
M  V30 3691 H 338.62 -3.8801 -2.9082 0
M  V30 3692 N 339.963 1.05934 -1.16686 0
M  V30 3693 C 340.913 2.11764 -0.844978 0
M  V30 3694 C 341.897 1.59922 0.177178 0
M  V30 3695 O 343.089 1.76983 -0.0241768 0
M  V30 3696 C 340.218 3.41493 -0.351812 0
M  V30 3697 C 339.304 4.00152 -1.40496 0
M  V30 3698 N 339.695 4.32874 -2.61636 0
M  V30 3699 C 337.993 4.278 -1.26106 0
M  V30 3700 C 338.694 4.79552 -3.29249 0
M  V30 3701 N 337.67 4.79211 -2.56628 0
M  V30 3702 H 341.472 2.34916 -1.76612 0
M  V30 3703 H 338.986 1.23511 -1.05446 0
M  V30 3704 H 340.983 4.16773 -0.102796 0
M  V30 3705 H 339.643 3.19778 0.56322 0
M  V30 3706 H 340.654 4.23109 -2.98663 0
M  V30 3707 H 337.331 4.15511 -0.407081 0
M  V30 3708 H 338.721 5.14045 -4.32675 0
M  V30 3709 N 341.441 0.965919 1.2453 0
M  V30 3710 C 342.404 0.499547 2.2369 0
M  V30 3711 C 343.404 -0.40294 1.5567 0
M  V30 3712 O 344.594 -0.19865 1.73064 0
M  V30 3713 C 341.726 -0.276792 3.39774 0
M  V30 3714 H 342.919 1.37613 2.66463 0
M  V30 3715 H 340.472 0.750324 1.37112 0
M  V30 3716 H 341.207 -1.17055 3.02438 0
M  V30 3717 H 340.992 0.370826 3.90343 0
M  V30 3718 H 342.482 -0.592175 4.1338 0
M  V30 3719 N 342.919 -1.39368 0.735821 0
M  V30 3720 C 343.867 -2.32443 0.0855131 0
M  V30 3721 C 344.861 -1.53104 -0.724954 0
M  V30 3722 O 346.067 -1.68762 -0.626047 0
M  V30 3723 H 342.442 -0.751948 0.00885257 0
M  V30 3724 H 344.413 -2.84916 0.886883 0
M  V30 3725 C 343.162 -3.38206 -0.806983 0
M  V30 3726 H 342.485 -3.99335 -0.19274 0
M  V30 3727 H 343.925 -4.05779 -1.2296 0
M  V30 3728 C 342.384 -2.75321 -1.94165 0
M  V30 3729 O 342.914 -2.63231 -3.03435 0
M  V30 3730 N 341.12 -2.33396 -1.73132 0
M  V30 3731 H 340.667 -2.4343 -0.842596 0
M  V30 3732 H 340.625 -1.91661 -2.49225 0
M  V30 3733 N 344.397 -0.483516 -1.5 0
M  V30 3734 C 345.674 0.129337 -1.95172 0
M  V30 3735 C 346.054 1.55802 -1.4244 0
M  V30 3736 O 345.402 2.19625 -0.630649 0
M  V30 3737 C 345.612 0.0599251 -3.48949 0
M  V30 3738 C 346.96 0.242617 -4.23906 0
M  V30 3739 O 347.984 0.135933 -3.55941 0
M  V30 3740 O 346.843 0.459454 -5.44565 0
M  V30 3741 H 343.937 0.104887 -0.820322 0
M  V30 3742 H 346.483 -0.544807 -1.60717 0
M  V30 3743 H 345.255 -0.937079 -3.79914 0
M  V30 3744 H 344.878 0.774984 -3.89974 0
M  V30 3745 N 345.875 1.56104 -0.216619 0
M  V30 3746 C 346.808 2.16026 0.735395 0
M  V30 3747 C 347.786 1.1032 1.1945 0
M  V30 3748 O 348.97 1.38549 1.27814 0
M  V30 3749 C 346.097 2.73656 1.99575 0
M  V30 3750 C 345.143 3.92146 1.67702 0
M  V30 3751 S 345.976 5.29397 0.806145 0
M  V30 3752 C 347.132 5.90463 2.07617 0
M  V30 3753 H 347.365 2.96439 0.226072 0
M  V30 3754 H 344.898 1.544 -0.00136639 0
M  V30 3755 H 346.856 3.075 2.71945 0
M  V30 3756 H 345.517 1.93245 2.47619 0
M  V30 3757 H 344.71 4.30954 2.61332 0
M  V30 3758 H 344.312 3.59423 1.03398 0
M  V30 3759 H 346.604 6.06136 3.02664 0
M  V30 3760 H 347.547 6.86589 1.73207 0
M  V30 3761 H 347.955 5.19252 2.21445 0
M  V30 3762 N 347.353 -0.0568162 1.57498 0
M  V30 3763 C 348.301 -1.08452 2.05769 0
M  V30 3764 C 349.295 -1.39164 0.965903 0
M  V30 3765 O 350.501 -1.38395 1.15095 0
M  V30 3766 H 346.876 -0.367148 0.656282 0
M  V30 3767 H 348.847 -0.651368 2.91204 0
M  V30 3768 C 347.596 -2.38543 2.52968 0
M  V30 3769 H 346.919 -2.15765 3.36579 0
M  V30 3770 H 348.359 -3.08863 2.90481 0
M  V30 3771 C 346.818 -3.05562 1.41893 0
M  V30 3772 O 347.348 -3.94262 0.769442 0
M  V30 3773 N 345.554 -2.6643 1.16032 0
M  V30 3774 H 345.101 -1.94387 1.6903 0
M  V30 3775 H 345.059 -3.11593 0.419219 0
M  V30 3776 N 348.832 -1.54138 -0.328536 0
M  V30 3777 C 350.079 -1.72105 -1.06706 0
M  V30 3778 C 350.407 -0.492111 -1.88171 0
M  V30 3779 O 349.662 0.526153 -1.88494 0
M  V30 3780 C 349.961 -2.9457 -2.02393 0
M  V30 3781 C 349.627 -4.29544 -1.37122 0
M  V30 3782 C 348.289 -4.6624 -1.19052 0
M  V30 3783 C 350.641 -5.1333 -0.902331 0
M  V30 3784 C 347.969 -5.84325 -0.527331 0
M  V30 3785 C 350.321 -6.32094 -0.252988 0
M  V30 3786 C 348.985 -6.67473 -0.0600901 0
M  V30 3787 H 348.255 -0.629775 -0.390466 0
M  V30 3788 H 350.902 -1.88372 -0.34473 0
M  V30 3789 H 349.207 -2.72969 -2.81061 0
M  V30 3790 H 350.904 -3.05665 -2.59557 0
M  V30 3791 H 347.494 -4.0067 -1.52188 0
M  V30 3792 H 351.678 -4.855 -1.02974 0
M  V30 3793 H 346.934 -6.103 -0.366634 0
M  V30 3794 H 351.108 -6.96299 0.118366 0
M  V30 3795 H 348.735 -7.58832 0.455828 0
M  V30 3796 N 350.31 0.590341 -1.46126 0
M  V30 3797 C 351.556 1.35082 -1.51264 0
M  V30 3798 C 351.889 1.93534 -0.160711 0
M  V30 3799 O 351.164 1.76045 0.826956 0
M  V30 3800 C 351.447 2.48588 -2.6053 0
M  V30 3801 C 351.3 1.95221 -4.05227 0
M  V30 3802 C 352.619 3.50662 -2.6594 0
M  V30 3803 H 349.738 0.489803 -0.550692 0
M  V30 3804 H 352.38 0.663887 -1.78024 0
M  V30 3805 H 350.53 3.07186 -2.37843 0
M  V30 3806 H 352.202 1.41139 -4.39178 0
M  V30 3807 H 350.445 1.26101 -4.15068 0
M  V30 3808 H 351.116 2.77121 -4.77397 0
M  V30 3809 H 353.592 3.01934 -2.86313 0
M  V30 3810 H 352.468 4.27551 -3.44226 0
M  V30 3811 H 352.729 4.07399 -1.71694 0
M  V30 3812 N 351.788 1.33704 0.83433 0
M  V30 3813 C 352.751 1.24244 1.92603 0
M  V30 3814 C 353.751 0.160383 1.59998 0
M  V30 3815 O 354.941 0.412228 1.69252 0
M  V30 3816 C 352.073 0.91555 3.28376 0
M  V30 3817 H 353.266 2.21287 2.02416 0
M  V30 3818 H 350.819 1.17827 1.02696 0
M  V30 3819 H 351.554 -0.0521886 3.24258 0
M  V30 3820 H 351.339 1.69811 3.53422 0
M  V30 3821 H 352.829 0.874231 4.08347 0
M  V30 3822 N 353.266 -1.05314 1.17247 0
M  V30 3823 C 354.515 -1.77685 0.954521 0
M  V30 3824 C 354.828 -1.88616 -0.518025 0
M  V30 3825 O 356.034 -2.57714 -0.854144 0
M  V30 3826 C 354.49 -3.19402 1.65863 0
M  V30 3827 C 354.098 -3.16605 3.16963 0
M  V30 3828 C 355.842 -3.96237 1.52303 0
M  V30 3829 C 353.749 -4.53103 3.80068 0
M  V30 3830 H 352.679 -0.666 0.353496 0
M  V30 3831 H 355.33 -1.1805 1.40486 0
M  V30 3832 H 353.712 -3.79355 1.13602 0
M  V30 3833 H 354.886 -2.66176 3.76148 0
M  V30 3834 H 353.201 -2.53268 3.30521 0
M  V30 3835 H 355.798 -4.97157 1.96822 0
M  V30 3836 H 356.141 -4.136 0.473401 0
M  V30 3837 H 356.674 -3.42829 2.01775 0
M  V30 3838 H 353.413 -4.40946 4.85023 0
M  V30 3839 H 352.933 -5.03686 3.2567 0
M  V30 3840 H 354.612 -5.22045 3.82202 0
M  V30 3841 N 354.744 -0.972509 -1.24016 0
M  V30 3842 C 355.707 -0.511403 -2.23422 0
M  V30 3843 C 356.707 0.394679 -1.55881 0
M  V30 3844 O 357.897 0.189469 -1.73167 0
M  V30 3845 C 355.029 0.258769 -3.39916 0
M  V30 3846 H 356.222 -1.39024 -2.6573 0
M  V30 3847 H 353.775 -0.757585 -1.36713 0
M  V30 3848 H 354.51 1.1545 -3.03054 0
M  V30 3849 H 354.295 -0.391522 -3.9014 0
M  V30 3850 H 355.785 0.570244 -4.13688 0
M  V30 3851 N 356.222 1.38976 -0.743202 0
M  V30 3852 C 357.132 2.3434 -0.110399 0
M  V30 3853 C 358.148 1.58741 0.712559 0
M  V30 3854 O 359.324 1.9099 0.639125 0
M  V30 3855 C 356.389 3.37812 0.780012 0
M  V30 3856 C 355.45 4.29263 -0.0561319 0
M  V30 3857 C 354.683 5.27793 0.791875 0
M  V30 3858 O 354.906 5.33043 2.03031 0
M  V30 3859 O 353.84 6.01512 0.216183 0
M  V30 3860 H 357.666 2.90129 -0.897714 0
M  V30 3861 H 355.251 1.40643 -0.503966 0
M  V30 3862 H 357.133 4.01194 1.28923 0
M  V30 3863 H 355.808 2.84395 1.546 0
M  V30 3864 H 354.715 3.69076 -0.611056 0
M  V30 3865 H 356.048 4.85907 -0.784531 0
M  V30 3866 N 357.7 0.491464 1.49741 0
M  V30 3867 C 358.648 -0.305837 2.30581 0
M  V30 3868 C 359.642 -0.971642 1.38764 0
M  V30 3869 O 360.848 -0.90042 1.5586 0
M  V30 3870 H 357.223 -0.117482 0.742767 0
M  V30 3871 H 359.194 0.396093 2.95759 0
M  V30 3872 C 357.943 -1.36319 3.19863 0
M  V30 3873 H 357.266 -0.860258 3.90435 0
M  V30 3874 H 358.706 -1.89323 3.79385 0
M  V30 3875 C 357.165 -2.37621 2.38826 0
M  V30 3876 O 357.695 -3.43311 2.08567 0
M  V30 3877 N 355.901 -2.09849 2.01026 0
M  V30 3878 H 355.448 -1.23922 2.25834 0
M  V30 3879 H 355.406 -2.77859 1.47112 0
M  V30 3880 N 359.178 -1.55987 0.224894 0
M  V30 3881 C 360.426 -1.97998 -0.405099 0
M  V30 3882 C 360.747 -1.11387 -1.60056 0
M  V30 3883 O 360.017 -0.191645 -1.9496 0
M  V30 3884 H 358.597 -0.731235 -0.152658 0
M  V30 3885 H 361.259 -1.92279 0.318567 0
M  V30 3886 H 360.355 -3.03463 -0.729167 0
M  V30 3887 N 360.656 0.0484629 -1.57525 0
M  V30 3888 C 361.603 1.05504 -2.05275 0
M  V30 3889 C 362.573 1.37084 -0.937927 0
M  V30 3890 O 363.758 1.47754 -1.2072 0
M  V30 3891 C 360.898 2.35676 -2.52093 0
M  V30 3892 C 360.011 2.10423 -3.77288 0
M  V30 3893 C 359.146 3.34327 -4.12794 0
M  V30 3894 C 358.185 3.04542 -5.30962 0
M  V30 3895 N 357.322 4.20841 -5.61994 0
M  V30 3896 H 362.162 0.640885 -2.91027 0
M  V30 3897 H 359.699 0.304854 -1.43906 0
M  V30 3898 H 361.657 3.11709 -2.77297 0
M  V30 3899 H 360.287 2.7485 -1.69285 0
M  V30 3900 H 359.339 1.24976 -3.59284 0
M  V30 3901 H 360.651 1.84438 -4.63448 0
M  V30 3902 H 359.805 4.1874 -4.39024 0
M  V30 3903 H 358.544 3.63408 -3.25247 0
M  V30 3904 H 357.549 2.18528 -5.04505 0
M  V30 3905 H 358.774 2.76758 -6.20146 0
M  V30 3906 H 356.72 4.4991 -4.77406 0
M  V30 3907 H 356.637 3.98212 -6.42622 0
M  V30 3908 H 357.905 5.06184 -5.92789 0
M  V30 3909 N 362.134 1.5431 0.320358 0
M  V30 3910 C 363.064 1.86912 1.3995 0
M  V30 3911 C 364.045 0.726211 1.53819 0
M  V30 3912 O 365.23 0.980233 1.67646 0
M  V30 3913 C 362.36 2.09932 2.7667 0
M  V30 3914 C 361.314 3.25776 2.77586 0
M  V30 3915 C 360.64 3.34173 4.17412 0
M  V30 3916 C 361.94 4.6335 2.41048 0
M  V30 3917 H 363.634 2.77292 1.12914 0
M  V30 3918 H 361.18 1.33421 0.541738 0
M  V30 3919 H 363.133 2.31324 3.52232 0
M  V30 3920 H 361.857 1.16304 3.0519 0
M  V30 3921 H 360.516 3.04276 2.04479 0
M  V30 3922 H 360.164 2.38098 4.43078 0
M  V30 3923 H 359.864 4.12033 4.18931 0
M  V30 3924 H 361.388 3.57803 4.94782 0
M  V30 3925 H 362.802 4.84602 3.06324 0
M  V30 3926 H 361.199 5.43782 2.53813 0
M  V30 3927 H 362.269 4.65381 1.36193 0
M  V30 3928 N 363.613 -0.582584 1.46437 0
M  V30 3929 C 364.859 -1.34278 1.51978 0
M  V30 3930 C 365.192 -1.93446 0.170973 0
M  V30 3931 O 364.467 -1.76481 -0.817608 0
M  V30 3932 C 364.75 -2.47203 2.61845 0
M  V30 3933 C 364.603 -1.93069 4.06257 0
M  V30 3934 C 365.922 -3.49247 2.67795 0
M  V30 3935 H 363.041 -0.486876 0.553282 0
M  V30 3936 H 365.683 -0.654437 1.78374 0
M  V30 3937 H 363.833 -3.0592 2.39469 0
M  V30 3938 H 365.505 -1.38808 4.3992 0
M  V30 3939 H 363.748 -1.23898 4.1573 0
M  V30 3940 H 364.419 -2.74586 4.7886 0
M  V30 3941 H 366.895 -3.00411 2.8791 0
M  V30 3942 H 365.771 -4.25719 3.46489 0
M  V30 3943 H 366.032 -4.06482 1.73852 0
M  V30 3944 N 365.091 -1.34144 -0.827227 0
M  V30 3945 C 366.339 -1.26009 -1.58007 0
M  V30 3946 C 366.66 0.170971 -1.94249 0
M  V30 3947 O 365.93 1.10256 -1.61927 0
M  V30 3948 H 364.51 -0.463414 -0.585881 0
M  V30 3949 H 367.172 -1.68005 -0.987951 0
M  V30 3950 H 366.268 -1.86187 -2.50481 0
M  V30 3951 N 366.569 1.04691 -1.17803 0
M  V30 3952 C 367.816 1.77782 -0.969532 0
M  V30 3953 C 368.144 1.87926 0.501401 0
M  V30 3954 O 367.399 1.37918 1.38842 0
M  V30 3955 C 367.698 3.21467 -1.56186 0
M  V30 3956 C 367.364 3.3137 -3.05786 0
M  V30 3957 C 366.026 3.3378 -3.46619 0
M  V30 3958 C 368.378 3.31976 -4.01797 0
M  V30 3959 C 365.706 3.34431 -4.82051 0
M  V30 3960 C 368.058 3.34167 -5.37136 0
M  V30 3961 C 366.722 3.34866 -5.77426 0
M  V30 3962 H 365.992 0.650549 -0.354777 0
M  V30 3963 H 368.639 1.23006 -1.46772 0
M  V30 3964 H 366.944 3.79203 -0.985515 0
M  V30 3965 H 368.641 3.76652 -1.37602 0
M  V30 3966 H 365.231 3.3021 -2.73238 0
M  V30 3967 H 369.415 3.29311 -3.71306 0
M  V30 3968 H 364.671 3.33285 -5.12573 0
M  V30 3969 H 368.845 3.33585 -6.11305 0
M  V30 3970 H 366.472 3.35124 -6.82346 0
M  V30 3971 N 368.047 0.979072 1.23499 0
M  V30 3972 C 368.995 0.510604 2.26926 0
M  V30 3973 C 369.989 -0.431691 1.63807 0
M  V30 3974 O 371.195 -0.30573 1.77385 0
M  V30 3975 H 367.57 0.146688 0.737554 0
M  V30 3976 H 369.541 1.39466 2.63803 0
M  V30 3977 C 368.29 -0.172658 3.47271 0
M  V30 3978 H 367.613 0.543331 3.96091 0
M  V30 3979 H 369.053 -0.464101 4.21452 0
M  V30 3980 C 367.512 -1.40345 3.06276 0
M  V30 3981 O 368.042 -2.49978 3.14442 0
M  V30 3982 N 366.248 -1.27362 2.61203 0
M  V30 3983 H 365.795 -0.381584 2.54758 0
M  V30 3984 H 365.753 -2.09822 2.34141 0
M  V30 3985 N 369.525 -1.3858 0.750561 0
M  V30 3986 C 370.455 -2.33102 0.136237 0
M  V30 3987 C 371.436 -1.54713 -0.706965 0
M  V30 3988 O 372.621 -1.83043 -0.648769 0
M  V30 3989 C 369.751 -3.38882 -0.760017 0
M  V30 3990 C 368.705 -4.27995 -0.0197785 0
M  V30 3991 C 368.031 -5.24605 -1.03408 0
M  V30 3992 C 369.331 -5.09554 1.14684 0
M  V30 3993 H 371.025 -2.84726 0.925822 0
M  V30 3994 H 368.571 -1.36898 0.446654 0
M  V30 3995 H 370.524 -4.0397 -1.19943 0
M  V30 3996 H 369.248 -2.85734 -1.58189 0
M  V30 3997 H 367.907 -3.64409 0.400184 0
M  V30 3998 H 367.555 -4.67746 -1.84994 0
M  V30 3999 H 367.255 -5.85081 -0.543464 0
M  V30 4000 H 368.779 -5.9257 -1.47288 0
M  V30 4001 H 370.193 -5.67899 0.785118 0
M  V30 4002 H 368.59 -5.7925 1.56812 0
M  V30 4003 H 369.66 -4.4347 1.96118 0
M  V30 4004 N 371.003 -0.499398 -1.49478 0
M  V30 4005 C 371.933 0.269244 -2.31943 0
M  V30 4006 C 372.914 0.964054 -1.40143 0
M  V30 4007 O 374.099 0.955767 -1.69052 0
M  V30 4008 C 371.229 1.33504 -3.20615 0
M  V30 4009 C 370.183 0.760202 -4.21195 0
M  V30 4010 C 369.509 1.9264 -4.98792 0
M  V30 4011 C 370.809 -0.247661 -5.21712 0
M  V30 4012 H 372.503 -0.419082 -2.96452 0
M  V30 4013 H 370.049 -0.202988 -1.42562 0
M  V30 4014 H 372.002 1.88048 -3.77115 0
M  V30 4015 H 370.726 2.05253 -2.54045 0
M  V30 4016 H 369.385 0.23653 -3.65836 0
M  V30 4017 H 369.033 2.63154 -4.28671 0
M  V30 4018 H 368.733 1.54785 -5.66847 0
M  V30 4019 H 370.257 2.4762 -5.58137 0
M  V30 4020 H 371.671 0.209579 -5.72917 0
M  V30 4021 H 370.068 -0.541962 -5.97648 0
M  V30 4022 H 371.138 -1.16409 -4.7072 0
M  V30 4023 N 372.481 1.55866 -0.233164 0
M  V30 4024 C 373.727 1.98897 0.395959 0
M  V30 4025 C 374.06 1.12091 1.58585 0
M  V30 4026 O 373.335 0.181182 1.93654 0
M  V30 4027 C 373.618 3.50658 0.819224 0
M  V30 4028 C 373.471 4.48233 -0.375109 0
M  V30 4029 C 374.79 4.07135 1.67121 0
M  V30 4030 H 371.909 0.723102 0.142451 0
M  V30 4031 H 374.551 1.87082 -0.331725 0
M  V30 4032 H 372.701 3.60857 1.43925 0
M  V30 4033 H 374.373 4.50031 -1.01341 0
M  V30 4034 H 372.616 4.21624 -1.02058 0
M  V30 4035 H 373.287 5.51988 -0.0358328 0
M  V30 4036 H 375.763 3.99952 1.14795 0
M  V30 4037 H 374.639 5.13615 1.93625 0
M  V30 4038 H 374.9 3.54736 2.63846 0
M  V30 4039 N 373.959 -0.0401083 1.57549 0
M  V30 4040 C 375.207 -0.731677 1.8839 0
M  V30 4041 C 375.528 -1.76481 0.829425 0
M  V30 4042 O 374.798 -1.95411 -0.1383 0
M  V30 4043 H 373.378 -0.273225 0.695239 0
M  V30 4044 H 376.04 -0.00867725 1.94898 0
M  V30 4045 H 375.136 -1.22816 2.86919 0
M  V30 4046 N 375.437 -1.54477 -0.31217 0
M  V30 4047 C 376.685 -1.72884 -1.04668 0
M  V30 4048 C 377.006 -0.511477 -1.88173 0
M  V30 4049 O 376.276 0.474407 -1.90069 0
M  V30 4050 H 374.856 -0.637461 -0.389425 0
M  V30 4051 H 377.518 -1.91807 -0.345852 0
M  V30 4052 H 376.614 -2.61334 -1.70619 0
M  V30 4053 N 376.915 0.57481 -1.46744 0
M  V30 4054 C 378.163 1.33009 -1.52161 0
M  V30 4055 C 378.484 1.94185 -0.178092 0
M  V30 4056 O 377.754 1.7899 0.796196 0
M  V30 4057 H 376.334 0.493873 -0.560445 0
M  V30 4058 H 378.996 0.672589 -1.82927 0
M  V30 4059 H 378.092 2.13273 -2.27862 0
M  V30 4060 N 378.394 1.34581 0.820102 0
M  V30 4061 C 379.324 1.29038 1.94606 0
M  V30 4062 C 380.305 0.1673 1.69275 0
M  V30 4063 O 381.49 0.360112 1.90832 0
M  V30 4064 C 378.62 1.04793 3.31113 0
M  V30 4065 C 377.574 2.13597 3.70891 0
M  V30 4066 C 376.9 1.74537 5.05412 0
M  V30 4067 C 378.2 3.55451 3.8269 0
M  V30 4068 H 379.894 2.23248 1.99501 0
M  V30 4069 H 377.44 1.0747 0.958449 0
M  V30 4070 H 379.393 0.995592 4.0947 0
M  V30 4071 H 378.117 0.0702565 3.26524 0
M  V30 4072 H 376.776 2.17905 2.9481 0
M  V30 4073 H 376.424 0.754226 4.97313 0
M  V30 4074 H 376.124 2.47361 5.32997 0
M  V30 4075 H 377.648 1.70803 5.86224 0
M  V30 4076 H 379.062 3.5354 4.51312 0
M  V30 4077 H 377.459 4.26922 4.21732 0
M  V30 4078 H 378.529 3.92587 2.84611 0
M  V30 4079 N 379.872 -1.04064 1.18357 0
M  V30 4080 C 381.097 -1.81454 1.00445 0
M  V30 4081 C 381.522 -1.82823 -0.442423 0
M  V30 4082 O 380.88 -1.24555 -1.31741 0
M  V30 4083 C 380.928 -3.24925 1.56384 0
M  V30 4084 O 380.032 -4.04856 0.785209 0
M  V30 4085 H 379.373 -0.560604 0.355835 0
M  V30 4086 H 381.903 -1.31059 1.57114 0
M  V30 4087 H 381.913 -3.75702 1.59097 0
M  V30 4088 H 380.588 -3.23244 2.61699 0
M  V30 4089 H 379.165 -3.63537 0.830399 0
M  V30 4090 N 381.35 -0.985608 -1.22978 0
M  V30 4091 C 382.599 -0.652881 -1.90841 0
M  V30 4092 C 382.912 0.817842 -1.77681 0
M  V30 4093 O 384.118 1.26185 -2.40395 0
M  V30 4094 C 382.574 -1.11717 -3.42122 0
M  V30 4095 C 382.182 -2.6126 -3.63933 0
M  V30 4096 C 383.926 -0.85843 -4.1573 0
M  V30 4097 C 381.833 -3.0133 -5.08876 0
M  V30 4098 H 380.763 -0.240491 -0.714619 0
M  V30 4099 H 383.414 -1.1942 -1.39324 0
M  V30 4100 H 381.796 -0.504027 -3.92779 0
M  V30 4101 H 382.97 -3.27858 -3.23799 0
M  V30 4102 H 381.285 -2.84937 -3.03644 0
M  V30 4103 H 383.882 -1.13359 -5.22546 0
M  V30 4104 H 384.225 0.205461 -4.15793 0
M  V30 4105 H 384.758 -1.43341 -3.71077 0
M  V30 4106 H 381.497 -4.06864 -5.13947 0
M  V30 4107 H 381.017 -2.3943 -5.49939 0
M  V30 4108 H 382.696 -2.92224 -5.77247 0
M  V30 4109 N 382.828 1.3818 -0.7579 0
M  V30 4110 C 383.738 2.3421 -0.135247 0
M  V30 4111 C 384.754 1.59487 0.695683 0
M  V30 4112 O 385.93 1.91657 0.618832 0
M  V30 4113 C 382.995 3.3862 0.744139 0
M  V30 4114 C 382.056 4.2918 -0.101658 0
M  V30 4115 C 381.289 5.28603 0.735851 0
M  V30 4116 O 381.512 5.35166 1.97366 0
M  V30 4117 O 380.446 6.01707 0.152372 0
M  V30 4118 H 384.272 2.8916 -0.928436 0
M  V30 4119 H 381.857 1.40101 -0.518855 0
M  V30 4120 H 383.739 4.02539 1.2466 0
M  V30 4121 H 382.414 2.86019 1.51575 0
M  V30 4122 H 381.321 3.68407 -0.650167 0
M  V30 4123 H 382.654 4.85048 -0.836024 0
M  V30 4124 N 384.306 0.507319 1.49211 0
M  V30 4125 C 385.256 -0.287112 2.26185 0
M  V30 4126 C 386.24 -0.929983 1.31302 0
M  V30 4127 O 387.432 -0.836538 1.55984 0
M  V30 4128 C 384.561 -1.34718 3.15763 0
M  V30 4129 C 383.647 -0.710235 4.18111 0
M  V30 4130 N 384.038 0.190836 5.0544 0
M  V30 4131 C 382.336 -0.97009 4.35322 0
M  V30 4132 C 383.037 0.55606 5.79036 0
M  V30 4133 N 382.013 -0.0775232 5.43545 0
M  V30 4134 H 385.815 0.406445 2.91076 0
M  V30 4135 H 383.329 0.323814 1.59139 0
M  V30 4136 H 385.326 -1.92982 3.69545 0
M  V30 4137 H 383.986 -2.04235 2.52424 0
M  V30 4138 H 384.997 0.562047 5.14841 0
M  V30 4139 H 381.674 -1.65753 3.83187 0
M  V30 4140 H 383.064 1.2936 6.5933 0
M  V30 4141 N 385.784 -1.5574 0.241426 0
M  V30 4142 C 387.032 -1.98417 -0.384075 0
M  V30 4143 C 387.353 -1.13078 -1.58866 0
M  V30 4144 O 386.623 -0.212312 -1.94746 0
M  V30 4145 H 385.203 -0.732813 -0.144894 0
M  V30 4146 H 387.865 -1.9193 0.338943 0
M  V30 4147 H 386.961 -3.04219 -0.696939 0
M  V30 4148 N 387.262 0.0317525 -1.57568 0
M  V30 4149 C 388.21 1.05165 -2.07468 0
M  V30 4150 C 389.204 1.3761 -0.98792 0
M  V30 4151 O 390.41 1.36546 -1.17282 0
M  V30 4152 H 386.785 0.35666 -0.66204 0
M  V30 4153 H 388.756 0.604958 -2.92203 0
M  V30 4154 C 387.505 2.34488 -2.56731 0
M  V30 4155 H 386.828 2.10383 -3.39969 0
M  V30 4156 H 388.268 3.04203 -2.95358 0
M  V30 4157 C 386.727 3.03266 -1.46736 0
M  V30 4158 O 387.257 3.92988 -0.832069 0
M  V30 4159 N 385.463 2.6455 -1.20256 0
M  V30 4160 H 385.01 1.91674 -1.72102 0
M  V30 4161 H 384.968 3.10886 -0.468737 0
M  V30 4162 N 388.74 1.54641 0.303973 0
M  V30 4163 C 389.687 1.85386 1.37479 0
M  V30 4164 C 390.657 0.702528 1.50512 0
M  V30 4165 O 391.842 0.950867 1.65418 0
M  V30 4166 C 388.982 2.10413 2.73533 0
M  V30 4167 C 388.095 3.38049 2.68974 0
M  V30 4168 C 387.23 3.52934 3.97002 0
M  V30 4169 C 386.269 4.74373 3.86829 0
M  V30 4170 N 385.406 4.8608 5.06627 0
M  V30 4171 H 390.246 2.76732 1.1056 0
M  V30 4172 H 387.783 1.37034 0.534805 0
M  V30 4173 H 389.741 2.22919 3.52652 0
M  V30 4174 H 388.371 1.22338 2.98719 0
M  V30 4175 H 387.423 3.3418 1.81736 0
M  V30 4176 H 388.735 4.27288 2.57346 0
M  V30 4177 H 387.889 3.65088 4.84557 0
M  V30 4178 H 386.628 2.61824 4.1146 0
M  V30 4179 H 385.633 4.62255 2.97658 0
M  V30 4180 H 386.858 5.66888 3.73918 0
M  V30 4181 H 384.804 3.97891 5.21554 0
M  V30 4182 H 384.721 5.69315 4.9741 0
M  V30 4183 H 385.989 5.02587 5.95841 0
M  V30 4184 N 390.218 -0.567019 1.47046 0
M  V30 4185 C 391.165 -1.67489 1.58796 0
M  V30 4186 C 392.135 -1.60399 0.43144 0
M  V30 4187 O 393.32 -1.79378 0.650233 0
M  V30 4188 C 390.46 -3.05821 1.59899 0
M  V30 4189 C 389.573 -3.2342 2.86397 0
M  V30 4190 C 388.708 -4.52093 2.789 0
M  V30 4191 C 387.747 -4.6309 4.00267 0
M  V30 4192 N 386.884 -5.83106 3.91064 0
M  V30 4193 H 391.724 -1.56785 2.53422 0
M  V30 4194 H 389.261 -0.763896 1.2571 0
M  V30 4195 H 391.219 -3.8591 1.58522 0
M  V30 4196 H 389.849 -3.15384 0.687929 0
M  V30 4197 H 388.901 -2.3683 2.97684 0
M  V30 4198 H 390.213 -3.27412 3.76301 0
M  V30 4199 H 389.367 -5.4043 2.75718 0
M  V30 4200 H 388.106 -4.50565 1.86662 0
M  V30 4201 H 387.111 -3.73168 4.03765 0
M  V30 4202 H 388.336 -4.66386 4.93621 0
M  V30 4203 H 386.282 -5.82546 3.01623 0
M  V30 4204 H 386.199 -5.88434 4.74638 0
M  V30 4205 H 387.467 -6.73831 3.91882 0
M  V30 4206 N 391.696 -1.35014 -0.812953 0
M  V30 4207 C 392.924 -1.31031 -1.6012 0
M  V30 4208 C 393.339 0.113558 -1.88458 0
M  V30 4209 O 392.696 1.06363 -1.48301 0
M  V30 4210 C 392.747 -2.10872 -2.93624 0
M  V30 4211 O 392.468 -3.47706 -2.66518 0
M  V30 4212 C 393.969 -2.14401 -3.88004 0
M  V30 4213 H 391.189 -0.45037 -0.497401 0
M  V30 4214 H 393.733 -1.77775 -1.01076 0
M  V30 4215 H 391.888 -1.67744 -3.492 0
M  V30 4216 H 392.302 -3.89097 -3.51715 0
M  V30 4217 H 393.776 -2.74669 -4.78812 0
M  V30 4218 H 394.253 -1.14105 -4.24119 0
M  V30 4219 H 394.859 -2.57662 -3.38364 0
M  V30 4220 N 393.175 1.03435 -1.18907 0
M  V30 4221 C 394.405 1.8012 -1.01195 0
M  V30 4222 C 394.813 1.8395 0.442613 0
M  V30 4223 O 394.156 1.27836 1.31923 0
M  V30 4224 C 394.218 3.26792 -1.49823 0
M  V30 4225 C 393.882 3.46609 -2.97844 0
M  V30 4226 C 394.879 3.37278 -3.95651 0
M  V30 4227 C 392.564 3.73001 -3.36416 0
M  V30 4228 C 394.558 3.54054 -5.30023 0
M  V30 4229 C 392.245 3.89423 -4.70949 0
M  V30 4230 C 393.243 3.79951 -5.67562 0
M  V30 4231 O 392.931 3.95895 -6.99659 0
M  V30 4232 H 392.663 0.573865 -0.357289 0
M  V30 4233 H 395.217 1.31207 -1.58031 0
M  V30 4234 H 393.447 3.76703 -0.873578 0
M  V30 4235 H 395.136 3.85055 -1.28404 0
M  V30 4236 H 395.902 3.16846 -3.67197 0
M  V30 4237 H 391.781 3.79469 -2.61772 0
M  V30 4238 H 395.325 3.46577 -6.05417 0
M  V30 4239 H 391.222 4.09351 -4.99101 0
M  V30 4240 H 391.99 4.13019 -7.06653 0
M  V30 4241 N 394.653 0.992116 1.22453 0
M  V30 4242 C 395.616 0.546883 2.2258 0
M  V30 4243 C 396.616 -0.369829 1.56489 0
M  V30 4244 O 397.806 -0.161896 1.73446 0
M  V30 4245 C 394.938 -0.204659 3.40285 0
M  V30 4246 H 396.131 1.43234 2.63484 0
M  V30 4247 H 393.684 0.779239 1.3549 0
M  V30 4248 H 394.419 -1.10614 3.04853 0
M  V30 4249 H 394.204 0.45354 3.89468 0
M  V30 4250 H 395.694 -0.504358 4.14543 0
M  V30 4251 N 396.131 -1.37776 0.765217 0
M  V30 4252 C 397.547 -1.53297 0.444108 0
M  V30 4253 C 397.747 -1.72515 -1.04119 0
M  V30 4254 O 396.803 -1.74278 -1.82711 0
M  V30 4255 C 398.116 -2.73328 1.25349 0
M  V30 4256 C 399.664 -2.87185 1.24473 0
M  V30 4257 C 400.139 -4.10191 2.03733 0
M  V30 4258 N 401.63 -4.17291 2.01053 0
M  V30 4259 C 402.365 -5.11488 2.59166 0
M  V30 4260 N 401.861 -6.11285 3.26041 0
M  V30 4261 N 403.654 -5.03924 2.49032 0
M  V30 4262 H 395.805 -1.23552 1.72768 0
M  V30 4263 H 398.068 -0.601103 0.733062 0
M  V30 4264 H 397.774 -2.6557 2.30577 0
M  V30 4265 H 397.648 -3.66834 0.87823 0
M  V30 4266 H 400.035 -2.94418 0.20047 0
M  V30 4267 H 400.116 -1.94657 1.65959 0
M  V30 4268 H 399.76 -4.0372 3.08176 0
M  V30 4269 H 399.69 -5.01821 1.59633 0
M  V30 4270 H 402.181 -3.45825 1.5236 0
M  V30 4271 H 402.494 -6.79678 3.67774 0
M  V30 4272 H 400.839 -6.11583 3.30138 0
M  V30 4273 H 404.03 -4.24902 1.96407 0
M  V30 4274 H 404.203 -5.77152 2.94617 0
M  V30 4275 N 397.609 -0.515225 -1.4894 0
M  V30 4276 C 398.837 0.0206034 -2.0689 0
M  V30 4277 C 399.252 1.29514 -1.37374 0
M  V30 4278 O 398.609 1.76698 -0.456529 0
M  V30 4279 C 398.66 0.26351 -3.60538 0
M  V30 4280 O 398.381 -0.960517 -4.27441 0
M  V30 4281 C 399.882 0.841383 -4.35242 0
M  V30 4282 H 397.102 -0.0268608 -0.670462 0
M  V30 4283 H 399.646 -0.716651 -1.91532 0
M  V30 4284 H 397.801 0.950777 -3.75552 0
M  V30 4285 H 398.215 -0.73212 -5.19365 0
M  V30 4286 H 399.689 0.96085 -5.43573 0
M  V30 4287 H 400.166 1.8427 -3.98674 0
M  V30 4288 H 400.772 0.191143 -4.2487 0
M  V30 4289 N 399.087 1.5561 -0.249682 0
M  V30 4290 C 400.05 2.20217 0.635394 0
M  V30 4291 C 401.05 1.17227 1.10066 0
M  V30 4292 O 402.24 1.42292 1.00492 0
M  V30 4293 C 399.372 2.84794 1.87363 0
M  V30 4294 H 400.565 2.99814 0.0716752 0
M  V30 4295 H 398.118 1.563 -0.000153234 0
M  V30 4296 H 398.853 2.09142 2.47851 0
M  V30 4297 H 398.638 3.60241 1.5482 0
M  V30 4298 H 400.128 3.3423 2.5036 0
M  V30 4299 N 400.565 -0.0233959 1.57583 0
M  V30 4300 C 401.79 -0.728376 1.94189 0
M  V30 4301 C 402.215 -1.67793 0.850119 0
M  V30 4302 O 401.573 -1.80262 -0.19371 0
M  V30 4303 C 401.621 -1.45669 3.29868 0
M  V30 4304 O 400.725 -2.57013 3.22518 0
M  V30 4305 H 400.066 -0.195493 0.63457 0
M  V30 4306 H 402.596 0.0228214 2.04587 0
M  V30 4307 H 402.606 -1.82535 3.6489 0
M  V30 4308 H 401.281 -0.760314 4.08891 0
M  V30 4309 H 399.858 -2.22648 2.99136 0
M  V30 4310 N 402.043 -1.548 -0.295768 0
M  V30 4311 C 402.953 -1.89177 -1.38742 0
M  V30 4312 C 403.969 -0.786481 -1.55211 0
M  V30 4313 O 405.145 -1.08344 -1.69775 0
M  V30 4314 C 402.21 -2.13663 -2.73036 0
M  V30 4315 C 401.271 -3.37349 -2.65508 0
M  V30 4316 C 400.504 -3.60658 -3.93398 0
M  V30 4317 O 400.727 -2.86882 -4.93006 0
M  V30 4318 O 399.661 -4.54179 -3.94975 0
M  V30 4319 H 403.487 -2.82059 -1.12589 0
M  V30 4320 H 401.072 -1.41056 -0.492295 0
M  V30 4321 H 402.954 -2.3094 -3.52484 0
M  V30 4322 H 401.629 -1.23967 -2.99022 0
M  V30 4323 H 400.536 -3.25431 -1.84514 0
M  V30 4324 H 401.869 -4.27192 -2.44474 0
M  V30 4325 N 403.521 0.559213 -1.47345 0
M  V30 4326 C 404.768 1.31648 -1.53867 0
M  V30 4327 C 405.096 1.93468 -0.200104 0
M  V30 4328 O 404.351 1.78295 0.806799 0
M  V30 4329 C 404.65 2.44853 -2.6035 0
M  V30 4330 C 404.316 2.00876 -4.03683 0
M  V30 4331 C 402.978 1.88599 -4.42701 0
M  V30 4332 C 405.33 1.67279 -4.93626 0
M  V30 4333 C 402.658 1.41017 -5.69501 0
M  V30 4334 C 405.01 1.21169 -6.20887 0
M  V30 4335 C 403.674 1.07487 -6.58789 0
M  V30 4336 H 402.944 0.481734 -0.56304 0
M  V30 4337 H 405.591 0.627301 -1.80934 0
M  V30 4338 H 403.896 3.19318 -2.27032 0
M  V30 4339 H 405.593 3.03039 -2.62619 0
M  V30 4340 H 402.183 2.11374 -3.72853 0
M  V30 4341 H 406.367 1.75638 -4.64182 0
M  V30 4342 H 401.623 1.29086 -5.97618 0
M  V30 4343 H 405.797 0.942345 -6.89995 0
M  V30 4344 H 403.424 0.703946 -7.56934 0
M  V30 4345 N 404.999 1.35443 0.805782 0
M  V30 4346 C 406.247 1.28507 1.55982 0
M  V30 4347 C 406.568 -0.140046 1.94496 0
M  V30 4348 O 405.838 -1.07666 1.63661 0
M  V30 4349 H 404.418 0.472676 0.578434 0
M  V30 4350 H 407.08 1.69555 0.961098 0
M  V30 4351 H 406.176 1.90148 2.47488 0
M  V30 4352 N 406.477 -1.02803 1.19454 0
M  V30 4353 C 407.707 -1.79581 1.02149 0
M  V30 4354 C 408.115 -1.84182 -0.432851 0
M  V30 4355 O 407.458 -1.28534 -1.31243 0
M  V30 4356 C 407.52 -3.25993 1.51554 0
M  V30 4357 C 407.184 -3.45025 2.99678 0
M  V30 4358 C 408.181 -3.35175 3.97434 0
M  V30 4359 C 405.866 -3.71212 3.38389 0
M  V30 4360 C 407.86 -3.51238 5.31893 0
M  V30 4361 C 405.547 -3.8692 4.73008 0
M  V30 4362 C 406.545 -3.76936 5.69569 0
M  V30 4363 O 406.233 -3.92179 7.01748 0
M  V30 4364 H 405.965 -0.571962 0.360327 0
M  V30 4365 H 408.519 -1.30367 1.58725 0
M  V30 4366 H 406.749 -3.76235 0.893543 0
M  V30 4367 H 408.438 -3.84368 1.30444 0
M  V30 4368 H 409.204 -3.14895 3.68872 0
M  V30 4369 H 405.083 -3.78075 2.6378 0
M  V30 4370 H 408.627 -3.43362 6.07247 0
M  V30 4371 H 404.524 -4.06699 5.01265 0
M  V30 4372 H 405.292 -4.09265 7.08833 0
M  V30 4373 N 407.956 -0.998596 -1.21925 0
M  V30 4374 C 408.886 -0.573688 -2.26343 0
M  V30 4375 C 409.867 0.402296 -1.65274 0
M  V30 4376 O 411.052 0.291683 -1.91997 0
M  V30 4377 C 408.182 0.106839 -3.47136 0
M  V30 4378 C 407.136 -0.788269 -4.20678 0
M  V30 4379 C 406.462 0.0254927 -5.34694 0
M  V30 4380 C 407.762 -2.08784 -4.78755 0
M  V30 4381 H 409.456 -1.44651 -2.62138 0
M  V30 4382 H 407.002 -0.696975 -1.26009 0
M  V30 4383 H 408.955 0.415531 -4.19346 0
M  V30 4384 H 407.679 1.01424 -3.10452 0
M  V30 4385 H 406.338 -1.08069 -3.50309 0
M  V30 4386 H 405.986 0.933989 -4.94253 0
M  V30 4387 H 405.686 -0.570437 -5.84825 0
M  V30 4388 H 407.21 0.328147 -6.09718 0
M  V30 4389 H 408.624 -1.84272 -5.42878 0
M  V30 4390 H 407.021 -2.63307 -5.39249 0
M  V30 4391 H 408.091 -2.76284 -3.98491 0
M  V30 4392 N 409.434 1.37368 -0.772513 0
M  V30 4393 C 410.845 1.8231 -0.402493 0
M  V30 4394 C 411.196 1.6436 1.07146 0
M  V30 4395 O 410.321 1.15514 1.82991 0
M  V30 4396 C 410.916 3.30979 -0.723776 0
M  V30 4397 C 409.475 3.74195 -0.406802 0
M  V30 4398 C 408.622 2.59885 -0.967218 0
M  V30 4399 H 411.573 1.25829 -0.967099 0
M  V30 4400 H 411.594 3.80499 -0.00870832 0
M  V30 4401 H 411.106 3.44011 -1.7966 0
M  V30 4402 H 409.207 3.66732 0.658673 0
M  V30 4403 H 409.32 4.7027 -0.915588 0
M  V30 4404 H 407.684 2.51674 -0.391416 0
M  V30 4405 H 408.467 2.7571 -2.04546 0
M  V30 4406 N 410.912 0.523116 1.48665 0
M  V30 4407 C 411.842 -0.23231 2.32342 0
M  V30 4408 C 412.823 -0.941637 1.41659 0
M  V30 4409 O 414.008 -0.928751 1.70552 0
M  V30 4410 C 411.138 -1.28387 3.22698 0
M  V30 4411 C 410.092 -0.693098 4.22351 0
M  V30 4412 C 409.418 -1.8468 5.01794 0
M  V30 4413 C 410.718 0.33063 5.21252 0
M  V30 4414 H 412.412 0.466192 2.95748 0
M  V30 4415 H 409.958 0.225643 1.42221 0
M  V30 4416 H 411.911 -1.82024 3.80059 0
M  V30 4417 H 410.635 -2.01186 2.57278 0
M  V30 4418 H 409.294 -0.178299 3.66166 0
M  V30 4419 H 408.942 -2.56301 4.32804 0
M  V30 4420 H 408.642 -1.45747 5.69238 0
M  V30 4421 H 410.166 -2.38709 5.62006 0
M  V30 4422 H 411.58 -0.118407 5.73178 0
M  V30 4423 H 409.977 0.636974 5.9671 0
M  V30 4424 H 411.047 1.23883 4.68808 0
M  V30 4425 N 412.39 -1.55475 0.257931 0
M  V30 4426 C 413.3 -2.2549 -0.647425 0
M  V30 4427 C 414.316 -1.2748 -1.18427 0
M  V30 4428 O 415.492 -1.6038 -1.2182 0
M  V30 4429 C 412.557 -2.94916 -1.82278 0
M  V30 4430 C 411.618 -4.08363 -1.32432 0
M  V30 4431 C 410.851 -4.74469 -2.44366 0
M  V30 4432 O 411.074 -4.39701 -3.63344 0
M  V30 4433 O 410.008 -5.62763 -2.13497 0
M  V30 4434 H 413.834 -3.03593 -0.0807707 0
M  V30 4435 H 411.419 -1.49377 0.0259962 0
M  V30 4436 H 413.301 -3.38606 -2.50846 0
M  V30 4437 H 411.976 -2.19744 -2.37685 0
M  V30 4438 H 410.883 -3.69166 -0.605605 0
M  V30 4439 H 412.216 -4.85385 -0.816211 0
M  V30 4440 N 413.868 0.0150385 -1.57593 0
M  V30 4441 C 414.818 1.01943 -2.0394 0
M  V30 4442 C 415.802 1.31209 -0.931286 0
M  V30 4443 O 416.994 1.30559 -1.19513 0
M  V30 4444 C 414.123 2.31621 -2.53391 0
M  V30 4445 C 413.209 2.05384 -3.7105 0
M  V30 4446 N 413.6 1.49253 -4.83278 0
M  V30 4447 C 411.898 2.35601 -3.78693 0
M  V30 4448 C 412.599 1.39143 -5.64813 0
M  V30 4449 N 411.575 1.87187 -5.10355 0
M  V30 4450 H 415.377 0.57969 -2.88126 0
M  V30 4451 H 412.891 0.221056 -1.60888 0
M  V30 4452 H 414.888 3.044 -2.84862 0
M  V30 4453 H 413.548 2.76261 -1.70616 0
M  V30 4454 H 414.559 1.17334 -5.04433 0
M  V30 4455 H 411.236 2.8322 -3.06746 0
M  V30 4456 H 412.626 0.961153 -6.6499 0
M  V30 4457 N 415.346 1.54954 0.287554 0
M  V30 4458 C 416.574 1.78881 1.03967 0
M  V30 4459 C 416.989 0.554894 1.80462 0
M  V30 4460 O 416.346 -0.475676 1.76192 0
M  V30 4461 C 416.397 3.00488 2.0097 0
M  V30 4462 O 416.118 4.19113 1.27577 0
M  V30 4463 C 417.619 3.36907 2.88112 0
M  V30 4464 H 414.839 0.596259 0.307761 0
M  V30 4465 H 417.383 2.01937 0.322749 0
M  V30 4466 H 415.538 2.79601 2.68145 0
M  V30 4467 H 415.952 4.87765 1.92835 0
M  V30 4468 H 417.426 4.25205 3.52001 0
M  V30 4469 H 417.903 2.55659 3.57121 0
M  V30 4470 H 418.509 3.60001 2.26449 0
M  V30 4471 N 416.824 -0.551391 1.4764 0
M  V30 4472 C 417.754 -1.66757 1.63445 0
M  V30 4473 C 418.735 -1.63077 0.483742 0
M  V30 4474 O 419.92 -1.80607 0.71377 0
M  V30 4475 C 417.05 -3.05387 1.65396 0
M  V30 4476 C 416.004 -3.23918 2.79752 0
M  V30 4477 C 415.33 -4.63393 2.66779 0
M  V30 4478 C 416.63 -3.08735 4.21284 0
M  V30 4479 H 418.324 -1.53786 2.56886 0
M  V30 4480 H 415.87 -0.738415 1.23626 0
M  V30 4481 H 417.823 -3.83325 1.75043 0
M  V30 4482 H 416.547 -3.19332 0.685195 0
M  V30 4483 H 415.206 -2.48391 2.69625 0
M  V30 4484 H 414.854 -4.74144 1.67918 0
M  V30 4485 H 414.554 -4.7674 3.43501 0
M  V30 4486 H 416.078 -5.43458 2.78364 0
M  V30 4487 H 417.492 -3.76484 4.32357 0
M  V30 4488 H 415.889 -3.33588 4.98838 0
M  V30 4489 H 416.959 -2.0541 4.39243 0
M  V30 4490 N 418.302 -1.35869 -0.798587 0
M  V30 4491 C 419.265 -1.29307 -1.89242 0
M  V30 4492 C 420.265 -0.202747 -1.59517 0
M  V30 4493 O 421.455 -0.456957 -1.681 0
M  V30 4494 C 418.587 -1.00229 -3.25833 0
M  V30 4495 H 419.78 -2.26576 -1.96478 0
M  V30 4496 H 417.333 -1.20509 -0.995358 0
M  V30 4497 H 418.068 -0.033801 -3.24282 0
M  V30 4498 H 417.853 -1.79121 -3.48795 0
M  V30 4499 H 419.343 -0.98219 -4.05885 0
M  V30 4500 N 419.78 1.02168 -1.19998 0
M  V30 4501 C 421.026 1.75945 -1.00852 0
M  V30 4502 C 421.359 1.88702 0.458828 0
M  V30 4503 O 420.634 1.40911 1.34069 0
M  V30 4504 C 420.917 3.18154 -1.68671 0
M  V30 4505 C 420.77 3.13224 -3.22817 0
M  V30 4506 C 422.089 4.16711 -1.41561 0
M  V30 4507 H 419.208 0.638673 -0.367785 0
M  V30 4508 H 421.85 1.19222 -1.4794 0
M  V30 4509 H 420 3.66586 -1.28636 0
M  V30 4510 H 421.672 2.72635 -3.72112 0
M  V30 4511 H 419.915 2.50751 -3.53986 0
M  V30 4512 H 420.586 4.13728 -3.65422 0
M  V30 4513 H 423.062 3.76913 -1.76284 0
M  V30 4514 H 421.938 5.14391 -1.91553 0
M  V30 4515 H 422.199 4.40774 -0.342193 0
M  V30 4516 N 421.258 1.00505 1.21394 0
M  V30 4517 C 422.221 0.570459 2.21987 0
M  V30 4518 C 423.221 -0.353211 1.56873 0
M  V30 4519 O 424.411 -0.14349 1.73608 0
M  V30 4520 C 421.543 -0.168555 3.40483 0
M  V30 4521 H 422.736 1.46021 2.6195 0
M  V30 4522 H 420.289 0.793565 1.34656 0
M  V30 4523 H 421.024 -1.07374 3.06009 0
M  V30 4524 H 420.809 0.494823 3.88965 0
M  V30 4525 H 422.299 -0.460362 4.15055 0
M  V30 4526 N 422.737 -1.36956 0.779787 0
M  V30 4527 C 423.647 -2.33965 0.172491 0
M  V30 4528 C 424.663 -1.60574 -0.670222 0
M  V30 4529 O 425.839 -1.92617 -0.588263 0
M  V30 4530 C 422.904 -3.39761 -0.690173 0
M  V30 4531 C 421.965 -4.28964 0.169924 0
M  V30 4532 C 421.198 -5.29707 -0.651662 0
M  V30 4533 O 421.421 -5.38238 -1.88827 0
M  V30 4534 O 420.355 -6.01873 -0.0566264 0
M  V30 4535 H 424.181 -2.87647 0.974321 0
M  V30 4536 H 421.766 -1.39258 0.541078 0
M  V30 4537 H 423.648 -4.04471 -1.1824 0
M  V30 4538 H 422.323 -2.88394 -1.47006 0
M  V30 4539 H 421.23 -3.67326 0.708696 0
M  V30 4540 H 422.563 -4.83656 0.913085 0
M  V30 4541 N 424.215 -0.530993 -1.48385 0
M  V30 4542 C 425.178 0.220497 -2.28137 0
M  V30 4543 C 426.178 0.866851 -1.35434 0
M  V30 4544 O 427.368 0.726746 -1.58316 0
M  V30 4545 C 424.5 1.31921 -3.1434 0
M  V30 4546 H 425.693 -0.479714 -2.96038 0
M  V30 4547 H 423.246 -0.286968 -1.53643 0
M  V30 4548 H 423.981 2.05264 -2.51072 0
M  V30 4549 H 423.766 0.86085 -3.82533 0
M  V30 4550 H 425.256 1.84776 -3.74497 0
M  V30 4551 N 425.693 1.55336 -0.266172 0
M  V30 4552 C 426.939 1.99692 0.353681 0
M  V30 4553 C 427.272 1.1543 1.56172 0
M  V30 4554 O 426.547 0.222218 1.93226 0
M  V30 4555 C 426.83 3.52316 0.74466 0
M  V30 4556 C 426.683 4.47337 -0.470101 0
M  V30 4557 C 428.002 4.10588 1.58447 0
M  V30 4558 H 425.121 0.725961 0.12708 0
M  V30 4559 H 427.763 1.86336 -0.371333 0
M  V30 4560 H 425.913 3.63829 1.36239 0
M  V30 4561 H 427.585 4.4778 -1.10864 0
M  V30 4562 H 425.828 4.19364 -1.10978 0
M  V30 4563 H 426.499 5.51788 -0.15291 0
M  V30 4564 H 428.975 4.02297 1.06286 0
M  V30 4565 H 427.851 5.17607 1.82686 0
M  V30 4566 H 428.112 3.60253 2.56262 0
M  V30 4567 N 427.171 -0.0066808 1.57599 0
M  V30 4568 C 428.417 -0.693947 1.90558 0
M  V30 4569 C 428.75 -1.73792 0.866594 0
M  V30 4570 O 428.025 -1.94156 -0.115548 0
M  V30 4571 C 428.308 -1.34317 3.34112 0
M  V30 4572 C 428.161 -0.311189 4.48722 0
M  V30 4573 C 429.48 -2.27116 3.7697 0
M  V30 4574 H 426.599 -0.250803 0.693013 0
M  V30 4575 H 429.241 0.043242 1.89951 0
M  V30 4576 H 427.391 -1.9715 3.3476 0
M  V30 4577 H 429.063 0.316944 4.6021 0
M  V30 4578 H 427.306 0.367253 4.32243 0
M  V30 4579 H 427.977 -0.804366 5.46108 0
M  V30 4580 H 430.453 -1.74306 3.77831 0
M  V30 4581 H 429.329 -2.69511 4.78179 0
M  V30 4582 H 429.59 -3.14743 3.10466 0
M  V30 4583 N 428.649 -1.55105 -0.279332 0
M  V30 4584 C 429.877 -1.7943 -1.03017 0
M  V30 4585 C 430.292 -0.564456 -1.80165 0
M  V30 4586 O 429.649 0.466326 -1.76442 0
M  V30 4587 C 429.7 -3.0155 -1.99374 0
M  V30 4588 O 429.421 -4.19784 -1.25352 0
M  V30 4589 C 430.922 -3.3843 -2.86321 0
M  V30 4590 H 428.142 -0.597882 -0.304594 0
M  V30 4591 H 430.686 -2.02105 -0.312035 0
M  V30 4592 H 428.841 -2.81019 -2.66659 0
M  V30 4593 H 429.255 -4.88781 -1.90246 0
M  V30 4594 H 430.729 -4.27066 -3.49741 0
M  V30 4595 H 431.206 -2.57549 -3.5576 0
M  V30 4596 H 431.812 -3.61197 -2.24536 0
M  V30 4597 N 430.127 0.543554 -1.4793 0
M  V30 4598 C 431.355 1.32516 -1.58894 0
M  V30 4599 C 431.77 1.87215 -0.244131 0
M  V30 4600 O 431.127 1.65709 0.764652 0
M  V30 4601 C 431.178 2.48554 -2.62494 0
M  V30 4602 O 430.899 1.96112 -3.91755 0
M  V30 4603 C 432.4 3.40572 -2.8377 0
M  V30 4604 H 429.62 0.403472 -0.536145 0
M  V30 4605 H 432.164 0.657106 -1.93655 0
M  V30 4606 H 430.319 3.1127 -2.30629 0
M  V30 4607 H 430.733 2.71967 -4.4848 0
M  V30 4608 H 432.207 4.18375 -3.60093 0
M  V30 4609 H 432.684 3.94965 -1.92092 0
M  V30 4610 H 433.29 2.8366 -3.16887 0
M  V30 4611 N 431.605 1.3629 0.791371 0
M  V30 4612 C 432.537 1.26321 1.91248 0
M  V30 4613 C 433.55 0.18313 1.61767 0
M  V30 4614 O 434.739 0.437682 1.73051 0
M  V30 4615 C 431.839 0.925901 3.26007 0
M  V30 4616 C 431.012 2.10746 3.83281 0
M  V30 4617 C 430.071 1.74352 4.96475 0
M  V30 4618 O 429.097 2.46416 5.13096 0
M  V30 4619 N 430.299 0.676058 5.7655 0
M  V30 4620 H 433.064 2.22915 2.00323 0
M  V30 4621 H 430.625 1.29659 0.969546 0
M  V30 4622 H 432.617 0.663636 3.99222 0
M  V30 4623 H 431.187 0.0491581 3.12561 0
M  V30 4624 H 430.407 2.53264 3.02077 0
M  V30 4625 H 431.695 2.8969 4.18279 0
M  V30 4626 H 431.093 0.0776467 5.65647 0
M  V30 4627 H 429.65 0.473612 6.50077 0
M  V30 4628 N 433.083 -1.0153 1.20538 0
M  V30 4629 C 434.499 -1.27461 0.96051 0
M  V30 4630 C 434.699 -1.98273 -0.359193 0
M  V30 4631 O 433.755 -2.27886 -1.0874 0
M  V30 4632 C 435.068 -2.10837 2.14402 0
M  V30 4633 C 436.616 -2.24099 2.18515 0
M  V30 4634 C 437.091 -3.10852 3.36355 0
M  V30 4635 N 438.582 -3.18441 3.36377 0
M  V30 4636 C 439.317 -3.85795 4.24205 0
M  V30 4637 N 438.813 -4.55264 5.22213 0
M  V30 4638 N 440.606 -3.82331 4.12043 0
M  V30 4639 H 432.757 -0.539907 2.05423 0
M  V30 4640 H 435.02 -0.30092 0.898972 0
M  V30 4641 H 434.726 -1.66144 3.09983 0
M  V30 4642 H 434.6 -3.11576 2.12604 0
M  V30 4643 H 436.987 -2.68016 1.23497 0
M  V30 4644 H 437.068 -1.22865 2.24361 0
M  V30 4645 H 436.712 -2.6764 4.31661 0
M  V30 4646 H 436.642 -4.12177 3.27746 0
M  V30 4647 H 439.133 -2.68978 2.65442 0
M  V30 4648 H 439.446 -5.04331 5.85551 0
M  V30 4649 H 437.791 -4.54085 5.26148 0
M  V30 4650 H 440.982 -3.27207 3.34743 0
M  V30 4651 H 441.155 -4.34547 4.807 0
M  V30 4652 N 434.561 -1.01147 -1.20859 0
M  V30 4653 C 435.838 -0.613136 -1.85742 0
M  V30 4654 C 436.218 0.909004 -1.90526 0
M  V30 4655 O 435.566 1.79862 -1.40932 0
M  V30 4656 C 435.776 -1.255 -3.25654 0
M  V30 4657 C 437.124 -1.3672 -4.01986 0
M  V30 4658 O 438.148 -1.21082 -3.34989 0
M  V30 4659 O 437.007 -1.6194 -5.21956 0
M  V30 4660 H 434.101 -0.210878 -0.799662 0
M  V30 4661 H 436.647 -1.10853 -1.2849 0
M  V30 4662 H 435.419 -2.29532 -3.16908 0
M  V30 4663 H 435.042 -0.746369 -3.90532 0
M  V30 4664 N 436.039 1.36541 -0.78704 0
M  V30 4665 C 437.285 2.00044 -0.367938 0
M  V30 4666 C 437.64 1.61345 1.04812 0
M  V30 4667 O 436.933 0.856936 1.71368 0
M  V30 4668 C 437.127 3.54343 -0.466485 0
M  V30 4669 C 436.956 4.08029 -1.89058 0
M  V30 4670 C 435.726 4.38284 -2.51466 0
M  V30 4671 C 437.924 4.27954 -2.85236 0
M  V30 4672 N 435.906 4.77778 -3.85488 0
M  V30 4673 C 437.277 4.70227 -4.04088 0
M  V30 4674 C 439.332 4.10119 -2.82324 0
M  V30 4675 C 438.035 4.96532 -5.20432 0
M  V30 4676 C 440.061 4.37569 -3.97854 0
M  V30 4677 C 439.423 4.80095 -5.15449 0
M  V30 4678 H 435.522 0.760525 -0.182004 0
M  V30 4679 H 438.106 1.65589 -1.02413 0
M  V30 4680 H 436.277 3.88072 0.159606 0
M  V30 4681 H 438.009 4.04693 -0.0238577 0
M  V30 4682 H 434.764 4.27905 -2.02965 0
M  V30 4683 H 435.188 5.01813 -4.54437 0
M  V30 4684 H 439.83 3.76399 -1.92571 0
M  V30 4685 H 437.548 5.29134 -6.10773 0
M  V30 4686 H 441.134 4.25341 -3.96958 0
M  V30 4687 H 440.014 5.00925 -6.0336 0
M  V30 4688 N 437.518 0.538854 1.48102 0
M  V30 4689 C 438.766 0.00798599 2.02098 0
M  V30 4690 C 439.087 -1.33922 1.41739 0
M  V30 4691 O 438.357 -1.86932 0.585934 0
M  V30 4692 H 436.937 -3.62179e-05 0.747 0
M  V30 4693 H 439.599 0.7047 1.81714 0
M  V30 4694 H 438.695 -0.0937672 3.11959 0
M  V30 4695 N 438.996 -1.55193 0.274407 0
M  V30 4696 C 439.944 -2.23924 -0.629362 0
M  V30 4697 C 440.938 -1.23602 -1.1584 0
M  V30 4698 O 442.144 -1.41535 -1.11211 0
M  V30 4699 H 438.519 -0.718637 -0.221507 0
M  V30 4700 H 440.49 -2.98388 -0.0268322 0
M  V30 4701 C 439.239 -2.97329 -1.80252 0
M  V30 4702 H 438.562 -3.74313 -1.40462 0
M  V30 4703 H 440.002 -3.48743 -2.41152 0
M  V30 4704 C 438.461 -2.0276 -2.69054 0
M  V30 4705 O 438.991 -1.57836 -3.69392 0
M  V30 4706 N 437.197 -1.69275 -2.36208 0
M  V30 4707 H 436.744 -2.06004 -1.54661 0
M  V30 4708 H 436.702 -1.06271 -2.95895 0
M  V30 4709 N 440.474 -0.00167713 -1.576 0
M  V30 4710 C 441.89 0.354422 -1.55615 0
M  V30 4711 C 442.09 1.74679 -1.00447 0
M  V30 4712 O 441.146 2.4428 -0.639022 0
M  V30 4713 C 442.459 0.22812 -2.99833 0
M  V30 4714 C 444.007 0.302934 -3.11531 0
M  V30 4715 C 444.482 0.205737 -4.57538 0
M  V30 4716 N 445.973 0.263584 -4.62449 0
M  V30 4717 C 446.708 0.211742 -5.73009 0
M  V30 4718 N 446.204 0.110399 -6.92712 0
M  V30 4719 N 447.997 0.263729 -5.61481 0
M  V30 4720 H 440.148 -0.912498 -1.918 0
M  V30 4721 H 442.411 -0.349928 -0.881053 0
M  V30 4722 H 442.117 -0.729934 -3.44042 0
M  V30 4723 H 441.991 1.00951 -3.6344 0
M  V30 4724 H 444.378 1.25143 -2.67251 0
M  V30 4725 H 444.459 -0.508357 -2.50698 0
M  V30 4726 H 444.103 -0.739225 -5.02492 0
M  V30 4727 H 444.033 1.03554 -5.16318 0
M  V30 4728 H 446.524 0.343173 -3.76339 0
M  V30 4729 H 446.837 0.0767828 -7.72762 0
M  V30 4730 H 445.182 0.0760025 -6.94958 0
M  V30 4731 H 448.373 0.34111 -4.66855 0
M  V30 4732 H 448.546 0.219862 -6.47627 0
M  V30 4733 N 441.952 1.55251 0.271103 0
M  V30 4734 C 443.18 1.79974 1.02064 0
M  V30 4735 C 443.595 0.574003 1.79863 0
M  V30 4736 O 442.952 -0.456962 1.76686 0
M  V30 4737 C 443.003 3.02603 1.97772 0
M  V30 4738 O 442.724 4.20443 1.23124 0
M  V30 4739 C 444.225 3.39944 2.84522 0
M  V30 4740 H 441.445 0.599489 0.301419 0
M  V30 4741 H 443.989 2.02268 0.301313 0
M  V30 4742 H 442.144 2.8243 2.65165 0
M  V30 4743 H 442.558 4.89783 1.87651 0
M  V30 4744 H 444.032 4.28915 3.47471 0
M  V30 4745 H 444.509 2.59432 3.54389 0
M  V30 4746 H 445.115 3.62383 2.22618 0
M  V30 4747 N 443.43 -0.535701 1.48216 0
M  V30 4748 C 444.707 -1.29683 1.46429 0
M  V30 4749 C 445.087 -2.10391 0.172852 0
M  V30 4750 O 444.435 -2.12282 -0.845488 0
M  V30 4751 C 444.645 -2.18313 2.72287 0
M  V30 4752 C 445.993 -2.78639 3.20383 0
M  V30 4753 O 447.017 -2.28604 2.73164 0
M  V30 4754 O 445.876 -3.69636 4.02531 0
M  V30 4755 H 442.97 -0.585026 0.584529 0
M  V30 4756 H 445.516 -0.552827 1.60443 0
M  V30 4757 H 444.288 -1.58421 3.57797 0
M  V30 4758 H 443.911 -2.99971 2.60966 0
M  V30 4759 N 444.908 -1.36708 -0.784132 0
M  V30 4760 C 446.324 -1.17237 -1.08294 0
M  V30 4761 C 446.524 -5.93947e-05 -2.015 0
M  V30 4762 O 445.58 0.663686 -2.43622 0
M  V30 4763 C 446.893 -2.48557 -1.69233 0
M  V30 4764 C 448.441 -2.54968 -1.8155 0
M  V30 4765 C 448.916 -3.86388 -2.45904 0
M  V30 4766 N 450.407 -3.87762 -2.53367 0
M  V30 4767 C 451.142 -4.86191 -3.03983 0
M  V30 4768 N 450.638 -5.95015 -3.54866 0
M  V30 4769 N 452.431 -4.73606 -3.02743 0
M  V30 4770 H 444.582 -2.11758 -0.16501 0
M  V30 4771 H 446.845 -0.93822 -0.135822 0
M  V30 4772 H 446.551 -3.34638 -1.08215 0
M  V30 4773 H 446.425 -2.64748 -2.68679 0
M  V30 4774 H 448.812 -1.69302 -2.41704 0
M  V30 4775 H 448.893 -2.42672 -0.80895 0
M  V30 4776 H 448.537 -4.72462 -1.86392 0
M  V30 4777 H 448.467 -3.95982 -3.4714 0
M  V30 4778 H 450.958 -3.09145 -2.17343 0
M  V30 4779 H 451.271 -6.66086 -3.91854 0
M  V30 4780 H 449.616 -5.98676 -3.53003 0
M  V30 4781 H 452.807 -3.87717 -2.62284 0
M  V30 4782 H 452.98 -5.50473 -3.41881 0
M  V30 4783 N 446.386 1.0089 -1.21074 0
M  V30 4784 C 447.333 2.09588 -0.966512 0
M  V30 4785 C 448.303 1.65761 0.106089 0
M  V30 4786 O 449.488 1.90758 -0.0402287 0
M  V30 4787 C 446.628 3.40958 -0.533058 0
M  V30 4788 C 445.741 3.9822 -1.67467 0
M  V30 4789 C 444.876 5.17682 -1.19076 0
M  V30 4790 C 443.915 5.67043 -2.30496 0
M  V30 4791 N 443.052 6.77759 -1.83267 0
M  V30 4792 H 447.892 2.29815 -1.89708 0
M  V30 4793 H 445.429 1.12689 -0.945489 0
M  V30 4794 H 447.387 4.1637 -0.263019 0
M  V30 4795 H 446.017 3.20781 0.360505 0
M  V30 4796 H 445.069 3.1983 -2.05944 0
M  V30 4797 H 446.381 4.3085 -2.51336 0
M  V30 4798 H 445.535 6.00326 -0.877151 0
M  V30 4799 H 444.274 4.86635 -0.322066 0
M  V30 4800 H 443.279 4.82999 -2.62664 0
M  V30 4801 H 444.504 6.00121 -3.17855 0
M  V30 4802 H 442.45 6.48527 -0.987356 0
M  V30 4803 H 442.367 7.09624 -2.60711 0
M  V30 4804 H 443.635 7.63949 -1.54928 0
M  V30 4805 N 447.864 1.01787 1.20321 0
M  V30 4806 C 448.812 0.58254 2.25187 0
M  V30 4807 C 449.806 -0.379359 1.65098 0
M  V30 4808 O 451.012 -0.249142 1.78267 0
M  V30 4809 H 447.387 0.170078 0.732514 0
M  V30 4810 H 449.358 1.47788 2.59232 0
M  V30 4811 C 448.107 -0.0620885 3.47645 0
M  V30 4812 H 447.43 0.669069 3.94162 0
M  V30 4813 H 448.87 -0.329784 4.22716 0
M  V30 4814 C 447.329 -1.3053 3.10586 0
M  V30 4815 O 447.859 -2.39848 3.22236 0
M  V30 4816 N 446.065 -1.18988 2.65123 0
M  V30 4817 H 445.612 -0.300341 2.55843 0
M  V30 4818 H 445.57 -2.02267 2.40698 0
M  V30 4819 N 449.342 -1.36122 0.79427 0
M  V30 4820 C 450.305 -2.28309 0.201889 0
M  V30 4821 C 451.305 -1.49041 -0.603603 0
M  V30 4822 O 452.495 -1.68964 -0.423888 0
M  V30 4823 C 449.627 -3.3321 -0.719978 0
M  V30 4824 H 450.82 -2.82208 1.01481 0
M  V30 4825 H 448.373 -1.45768 0.564037 0
M  V30 4826 H 449.108 -2.84475 -1.55706 0
M  V30 4827 H 448.893 -3.91835 -0.144266 0
M  V30 4828 H 450.383 -4.02044 -1.12916 0
M  V30 4829 N 450.82 -0.546701 -1.47814 0
M  V30 4830 C 451.767 0.206854 -2.29871 0
M  V30 4831 C 452.737 0.918235 -1.38411 0
M  V30 4832 O 453.922 0.915991 -1.67375 0
M  V30 4833 C 451.062 1.23746 -3.22151 0
M  V30 4834 C 450.175 0.533216 -4.28697 0
M  V30 4835 C 449.31 1.5482 -5.08138 0
M  V30 4836 C 448.349 0.828347 -6.06469 0
M  V30 4837 N 447.486 1.78966 -6.78908 0
M  V30 4838 H 452.326 -0.499037 -2.93792 0
M  V30 4839 H 449.863 -0.25793 -1.44821 0
M  V30 4840 H 451.821 1.84746 -3.74065 0
M  V30 4841 H 450.451 1.91151 -2.60117 0
M  V30 4842 H 449.503 -0.191089 -3.7992 0
M  V30 4843 H 450.815 -0.0311987 -4.9879 0
M  V30 4844 H 449.969 2.23202 -5.6415 0
M  V30 4845 H 448.708 2.14652 -4.37922 0
M  V30 4846 H 447.713 0.130539 -5.49645 0
M  V30 4847 H 448.938 0.235907 -6.7869 0
M  V30 4848 H 446.884 2.37675 -6.1143 0
M  V30 4849 H 446.801 1.27712 -7.45135 0
M  V30 4850 H 448.069 2.46496 -7.395 0
M  V30 4851 N 452.299 1.55045 -0.282633 0
M  V30 4852 C 453.527 2.04168 0.33512 0
M  V30 4853 C 453.942 1.16071 1.48906 0
M  V30 4854 O 453.299 0.182391 1.81586 0
M  V30 4855 C 453.35 3.52332 0.808957 0
M  V30 4856 O 453.071 4.37078 -0.299038 0
M  V30 4857 C 454.572 4.17375 1.49375 0
M  V30 4858 H 451.792 0.666744 0.0754543 0
M  V30 4859 H 454.336 2.00205 -0.416918 0
M  V30 4860 H 452.491 3.56715 1.51106 0
M  V30 4861 H 452.905 5.24458 0.0665514 0
M  V30 4862 H 454.379 5.22627 1.77664 0
M  V30 4863 H 454.856 3.65999 2.42778 0
M  V30 4864 H 455.462 4.17016 0.835305 0
M  V30 4865 N 453.777 0.010035 1.57597 0
M  V30 4866 C 454.724 -0.978122 2.09049 0
M  V30 4867 C 455.694 -1.33509 0.988159 0
M  V30 4868 O 456.879 -1.43172 1.26121 0
M  V30 4869 C 454.019 -2.26158 2.60666 0
M  V30 4870 C 453.132 -1.96275 3.84838 0
M  V30 4871 C 452.267 -3.18776 4.24918 0
M  V30 4872 C 451.306 -2.84625 5.41899 0
M  V30 4873 N 450.443 -3.99693 5.77226 0
M  V30 4874 H 455.283 -0.532431 2.93205 0
M  V30 4875 H 452.82 -0.251234 1.44939 0
M  V30 4876 H 454.778 -3.01202 2.88675 0
M  V30 4877 H 453.408 -2.68378 1.79369 0
M  V30 4878 H 452.46 -1.11555 3.63675 0
M  V30 4879 H 453.772 -1.67111 4.69974 0
M  V30 4880 H 452.926 -4.02157 4.54262 0
M  V30 4881 H 451.665 -3.51087 3.38511 0
M  V30 4882 H 450.67 -1.99653 5.12268 0
M  V30 4883 H 451.895 -2.53551 6.29991 0
M  V30 4884 H 449.841 -4.31882 4.93776 0
M  V30 4885 H 449.758 -3.74087 6.56959 0
M  V30 4886 H 451.026 -4.83834 6.11167 0
M  V30 4887 N 455.255 -1.55392 -0.262866 0
M  V30 4888 C 456.485 -1.80251 -1.00961 0
M  V30 4889 C 456.893 -0.58117 -1.80053 0
M  V30 4890 O 456.236 0.459427 -1.77862 0
M  V30 4891 C 456.298 -2.98207 -2.00781 0
M  V30 4892 C 455.962 -4.34856 -1.40533 0
M  V30 4893 C 456.959 -5.13459 -0.815853 0
M  V30 4894 C 454.644 -4.8153 -1.42948 0
M  V30 4895 C 456.638 -6.36875 -0.258562 0
M  V30 4896 C 454.325 -6.04899 -0.868334 0
M  V30 4897 C 455.323 -6.8241 -0.283884 0
M  V30 4898 O 455.011 -8.03451 0.268644 0
M  V30 4899 H 454.743 -0.604049 -0.303482 0
M  V30 4900 H 457.297 -2.03257 -0.295926 0
M  V30 4901 H 455.527 -2.70917 -2.75936 0
M  V30 4902 H 457.216 -3.10299 -2.61667 0
M  V30 4903 H 457.982 -4.78526 -0.789812 0
M  V30 4904 H 453.861 -4.21201 -1.87378 0
M  V30 4905 H 457.405 -6.97318 0.198257 0
M  V30 4906 H 453.302 -6.39312 -0.891649 0
M  V30 4907 H 454.07 -8.18346 0.158974 0
M  V30 4908 N 456.733 0.527833 -1.48498 0
M  V30 4909 C 457.961 1.30823 -1.6029 0
M  V30 4910 C 458.376 1.86945 -0.263974 0
M  V30 4911 O 457.733 1.6651 0.747034 0
M  V30 4912 C 457.784 2.45756 -2.65116 0
M  V30 4913 O 457.505 1.91946 -3.93813 0
M  V30 4914 C 459.006 3.37543 -2.87367 0
M  V30 4915 H 456.226 0.397763 -0.540394 0
M  V30 4916 H 458.77 0.636529 -1.94341 0
M  V30 4917 H 456.925 3.08806 -2.33917 0
M  V30 4918 H 457.339 2.67195 -4.51339 0
M  V30 4919 H 458.813 4.14532 -3.6451 0
M  V30 4920 H 459.29 3.92905 -1.9627 0
M  V30 4921 H 459.896 2.80283 -3.19878 0
M  V30 4922 N 458.211 1.37122 0.776871 0
M  V30 4923 C 459.141 1.35164 1.90402 0
M  V30 4924 C 460.122 0.221069 1.68657 0
M  V30 4925 O 461.307 0.420642 1.8959 0
M  V30 4926 C 458.437 1.15274 3.27611 0
M  V30 4927 C 457.391 2.25289 3.63908 0
M  V30 4928 C 456.717 1.90527 4.99603 0
M  V30 4929 C 458.017 3.67446 3.71188 0
M  V30 4930 H 459.711 2.29482 1.92297 0
M  V30 4931 H 457.257 1.10465 0.923773 0
M  V30 4932 H 459.21 1.12536 4.06096 0
M  V30 4933 H 457.934 0.174102 3.26136 0
M  V30 4934 H 456.593 2.27174 2.87728 0
M  V30 4935 H 456.241 0.91206 4.94662 0
M  V30 4936 H 455.941 2.64193 5.24858 0
M  V30 4937 H 457.465 1.89367 5.80493 0
M  V30 4938 H 458.879 3.67719 4.39836 0
M  V30 4939 H 457.276 4.40123 4.07936 0
M  V30 4940 H 458.346 4.01443 2.71977 0
M  V30 4941 N 459.689 -1.00246 1.21608 0
M  V30 4942 C 460.599 -2.12515 0.993709 0
M  V30 4943 C 461.615 -1.73913 -0.0549939 0
M  V30 4944 O 462.791 -2.00943 0.135619 0
M  V30 4945 C 459.856 -3.42083 0.563953 0
M  V30 4946 C 458.917 -3.94843 1.68516 0
M  V30 4947 C 458.15 -5.18226 1.27582 0
M  V30 4948 O 458.373 -5.70201 0.150506 0
M  V30 4949 O 457.307 -5.64497 2.0887 0
M  V30 4950 H 461.133 -2.34152 1.93407 0
M  V30 4951 H 458.718 -1.10891 1.00118 0
M  V30 4952 H 460.6 -4.20073 0.334194 0
M  V30 4953 H 459.275 -3.21828 -0.347665 0
M  V30 4954 H 458.182 -3.18068 1.96935 0
M  V30 4955 H 459.515 -4.19512 2.5743 0
M  V30 4956 N 461.167 -1.02423 -1.1978 0
M  V30 4957 C 462.583 -0.740459 -1.41384 0
M  V30 4958 C 462.783 0.676827 -1.89793 0
M  V30 4959 O 461.839 1.4435 -2.0717 0
M  V30 4960 C 463.152 -1.77264 -2.42895 0
M  V30 4961 C 464.7 -1.79165 -2.56649 0
M  V30 4962 C 465.175 -2.8133 -3.6141 0
M  V30 4963 N 466.666 -2.80118 -3.68901 0
M  V30 4964 C 467.401 -3.55824 -4.49641 0
M  V30 4965 N 466.897 -4.41231 -5.34123 0
M  V30 4966 N 468.69 -3.44387 -4.44246 0
M  V30 4967 H 460.841 -1.9391 -0.866764 0
M  V30 4968 H 463.104 -0.838074 -0.443098 0
M  V30 4969 H 462.81 -2.7884 -2.14339 0
M  V30 4970 H 462.684 -1.59108 -3.42001 0
M  V30 4971 H 465.071 -0.782702 -2.84531 0
M  V30 4972 H 465.152 -2.01396 -1.57713 0
M  V30 4973 H 464.796 -3.82394 -3.34271 0
M  V30 4974 H 464.726 -2.56359 -4.59986 0
M  V30 4975 H 467.217 -2.1817 -3.08562 0
M  V30 4976 H 467.53 -4.95747 -5.92836 0
M  V30 4977 H 465.875 -4.45306 -5.33599 0
M  V30 4978 H 469.066 -2.7708 -3.77285 0
M  V30 4979 H 469.239 -4.0364 -5.06931 0
M  V30 4980 N 462.645 1.35699 -0.801477 0
M  V30 4981 C 463.891 1.99208 -0.380022 0
M  V30 4982 C 464.224 1.63445 1.04878 0
M  V30 4983 O 463.499 0.895223 1.72673 0
M  V30 4984 C 463.782 3.55755 -0.557708 0
M  V30 4985 C 463.635 4.01332 -2.03107 0
M  V30 4986 C 464.954 4.40096 0.0197968 0
M  V30 4987 H 462.073 0.723667 -0.139552 0
M  V30 4988 H 464.715 1.60928 -1.01006 0
M  V30 4989 H 462.865 3.88494 -0.0213741 0
M  V30 4990 H 464.537 3.79026 -2.62939 0
M  V30 4991 H 462.78 3.52429 -2.52936 0
M  V30 4992 H 463.451 5.10234 -2.1063 0
M  V30 4993 H 465.927 4.13786 -0.438179 0
M  V30 4994 H 464.803 5.48735 -0.134477 0
M  V30 4995 H 465.064 4.2786 1.11303 0
M  V30 4996 N 464.123 0.554532 1.47522 0
M  V30 4997 C 465.371 0.0294208 2.02079 0
M  V30 4998 C 465.692 -1.32411 1.43151 0
M  V30 4999 O 464.962 -1.863 0.605728 0
M  V30 5000 H 463.542 0.00788672 0.746958 0
M  V30 5001 H 466.204 0.723934 1.80956 0
M  V30 5002 H 465.3 -0.0606745 3.12041 0
M  V30 5003 N 465.601 -1.54893 0.290851 0
M  V30 5004 C 466.847 -2.0023 -0.321867 0
M  V30 5005 C 467.18 -1.179 -1.54316 0
M  V30 5006 O 466.455 -0.25293 -1.92848 0
M  V30 5007 C 466.738 -3.53456 -0.688515 0
M  V30 5008 C 466.591 -4.46532 0.541209 0
M  V30 5009 C 467.91 -4.13057 -1.51895 0
M  V30 5010 H 465.029 -0.727891 -0.115515 0
M  V30 5011 H 467.671 -1.85722 0.400931 0
M  V30 5012 H 465.821 -3.6595 -1.30433 0
M  V30 5013 H 467.493 -4.4596 1.17973 0
M  V30 5014 H 465.736 -4.17545 1.17636 0
M  V30 5015 H 466.407 -5.51475 0.240675 0
M  V30 5016 H 468.883 -4.03937 -0.99872 0
M  V30 5017 H 467.759 -5.20448 -1.74429 0
M  V30 5018 H 468.02 -3.64284 -2.50498 0
M  V30 5019 N 467.08 -0.0183926 -1.57589 0
M  V30 5020 C 467.99 0.982943 -2.13015 0
M  V30 5021 C 469.006 1.36443 -1.07979 0
M  V30 5022 O 470.182 1.44802 -1.3998 0
M  V30 5023 C 467.247 2.25024 -2.63752 0
M  V30 5024 C 466.308 1.93018 -3.83461 0
M  V30 5025 C 465.541 3.13706 -4.31769 0
M  V30 5026 O 465.764 4.2601 -3.79305 0
M  V30 5027 O 464.698 2.96629 -5.23732 0
M  V30 5028 H 468.524 0.541709 -2.9883 0
M  V30 5029 H 466.109 0.201565 -1.48034 0
M  V30 5030 H 467.991 2.99441 -2.96502 0
M  V30 5031 H 466.666 2.68349 -1.81026 0
M  V30 5032 H 465.573 1.16019 -3.55655 0
M  V30 5033 H 466.906 1.54516 -4.67317 0
M  V30 5034 N 468.558 1.5553 0.254621 0
M  V30 5035 C 469.786 1.81046 1.00149 0
M  V30 5036 C 470.201 0.593047 1.79244 0
M  V30 5037 O 469.558 -0.438196 1.77161 0
M  V30 5038 C 469.609 3.04684 1.94551 0
M  V30 5039 O 469.33 4.21725 1.18658 0
M  V30 5040 C 470.831 3.42943 2.80901 0
M  V30 5041 H 468.051 0.602653 0.295044 0
M  V30 5042 H 470.595 2.02576 0.279842 0
M  V30 5043 H 468.75 2.85226 2.62154 0
M  V30 5044 H 469.164 4.91746 1.82445 0
M  V30 5045 H 470.638 4.32576 3.42902 0
M  V30 5046 H 471.115 2.63176 3.51617 0
M  V30 5047 H 471.721 3.64724 2.18762 0
M  V30 5048 N 470.036 -0.519951 1.48776 0
M  V30 5049 C 471.283 -1.27522 1.57303 0
M  V30 5050 C 471.611 -1.92869 0.251328 0
M  V30 5051 O 470.866 -1.80372 -0.759243 0
M  V30 5052 C 471.165 -2.37864 2.6675 0
M  V30 5053 C 470.831 -1.90103 4.08867 0
M  V30 5054 C 469.493 -1.76795 4.47546 0
M  V30 5055 C 471.845 -1.54133 4.97888 0
M  V30 5056 C 469.173 -1.25868 5.73039 0
M  V30 5057 C 471.525 -1.04665 6.23881 0
M  V30 5058 C 470.189 -0.899823 6.61407 0
M  V30 5059 H 469.459 -0.466636 0.575614 0
M  V30 5060 H 472.106 -0.579109 1.82534 0
M  V30 5061 H 470.411 -3.13186 2.35418 0
M  V30 5062 H 472.108 -2.95969 2.70561 0
M  V30 5063 H 468.698 -2.01414 3.78326 0
M  V30 5064 H 472.882 -1.6327 4.68675 0
M  V30 5065 H 468.138 -1.13196 6.0083 0
M  V30 5066 H 472.312 -0.759074 6.92251 0
M  V30 5067 H 469.939 -0.503011 7.58534 0
M  V30 5068 N 471.514 -1.37532 -0.769588 0
M  V30 5069 C 472.461 -1.3347 -1.88293 0
M  V30 5070 C 473.431 -0.199891 -1.64893 0
M  V30 5071 O 474.616 -0.389594 -1.8678 0
M  V30 5072 C 471.756 -1.14968 -3.25387 0
M  V30 5073 C 470.869 -2.37698 -3.60727 0
M  V30 5074 C 470.004 -2.12051 -4.8704 0
M  V30 5075 C 469.043 -3.30636 -5.15117 0
M  V30 5076 N 468.18 -3.04527 -6.3262 0
M  V30 5077 H 473.02 -2.28658 -1.911 0
M  V30 5078 H 470.557 -1.13622 -0.934257 0
M  V30 5079 H 472.515 -1.02261 -4.04473 0
M  V30 5080 H 471.145 -0.234263 -3.21949 0
M  V30 5081 H 470.197 -2.61137 -2.76608 0
M  V30 5082 H 471.509 -3.26131 -3.77413 0
M  V30 5083 H 470.663 -1.96388 -5.74035 0
M  V30 5084 H 469.402 -1.20959 -4.72462 0
M  V30 5085 H 468.407 -3.46836 -4.26597 0
M  V30 5086 H 469.632 -4.22582 -5.31603 0
M  V30 5087 H 467.578 -2.16067 -6.19396 0
M  V30 5088 H 467.495 -3.86503 -6.49732 0
M  V30 5089 H 468.763 -2.92485 -7.22546 0
M  V30 5090 N 472.992 0.995999 -1.22138 0
M  V30 5091 C 473.955 2.06711 -0.990109 0
M  V30 5092 C 474.955 1.60744 0.0422978 0
M  V30 5093 O 476.145 1.73095 -0.195895 0
M  V30 5094 C 473.277 3.37288 -0.49491 0
M  V30 5095 H 474.47 2.28661 -1.94047 0
M  V30 5096 H 472.023 1.16711 -1.03963 0
M  V30 5097 H 472.758 3.21022 0.459948 0
M  V30 5098 H 472.543 3.71986 -1.23971 0
M  V30 5099 H 474.033 4.16103 -0.353253 0
M  V30 5100 N 474.47 1.03057 1.19235 0
M  V30 5101 C 475.38 0.622922 2.26179 0
M  V30 5102 C 476.396 -0.346113 1.70523 0
M  V30 5103 O 477.572 -0.203572 2.00369 0
M  V30 5104 C 474.637 -0.0182063 3.46695 0
M  V30 5105 C 473.698 0.998546 4.17526 0
M  V30 5106 C 472.931 0.387917 5.32288 0
M  V30 5107 O 473.154 -0.808668 5.64639 0
M  V30 5108 O 472.088 1.1116 5.91546 0
M  V30 5109 H 475.914 1.51363 2.63292 0
M  V30 5110 H 473.499 0.800856 1.26122 0
M  V30 5111 H 475.381 -0.375606 4.19723 0
M  V30 5112 H 474.056 -0.882895 3.11427 0
M  V30 5113 H 472.963 1.40756 3.4661 0
M  V30 5114 H 474.296 1.83366 4.56769 0
M  V30 5115 N 475.948 -1.35272 0.808662 0
M  V30 5116 C 477.194 -1.99003 0.390581 0
M  V30 5117 C 477.527 -1.63999 -1.0401 0
M  V30 5118 O 476.802 -0.904368 -1.72196 0
M  V30 5119 C 477.085 -3.55454 0.576566 0
M  V30 5120 C 476.938 -4.00249 2.05233 0
M  V30 5121 C 478.257 -4.401 0.00354277 0
M  V30 5122 H 475.376 -0.722917 0.143388 0
M  V30 5123 H 478.018 -1.6039 1.01858 0
M  V30 5124 H 476.168 -3.88477 0.0419766 0
M  V30 5125 H 477.84 -3.77626 2.64946 0
M  V30 5126 H 476.083 -3.51082 2.54801 0
M  V30 5127 H 476.754 -5.0911 2.13333 0
M  V30 5128 H 479.23 -4.13548 0.460117 0
M  V30 5129 H 478.106 -5.48656 0.163575 0
M  V30 5130 H 478.367 -4.28444 -1.09032 0
M  V30 5131 N 477.426 -0.562348 -1.47226 0
M  V30 5132 C 478.336 0.185466 -2.33866 0
M  V30 5133 C 479.352 0.906713 -1.48508 0
M  V30 5134 O 480.528 0.874458 -1.81425 0
M  V30 5135 C 477.593 1.19904 -3.25306 0
M  V30 5136 C 476.654 0.484669 -4.26555 0
M  V30 5137 C 475.887 1.44996 -5.13626 0
M  V30 5138 O 476.11 2.68515 -5.03245 0
M  V30 5139 O 475.044 0.971642 -5.94006 0
M  V30 5140 H 478.87 -0.525361 -2.99121 0
M  V30 5141 H 476.455 -0.322916 -1.45868 0
M  V30 5142 H 478.337 1.78399 -3.81774 0
M  V30 5143 H 477.012 1.8917 -2.62672 0
M  V30 5144 H 475.919 -0.141605 -3.73832 0
M  V30 5145 H 477.252 -0.166634 -4.91918 0
M  V30 5146 N 478.904 1.54736 -0.299062 0
M  V30 5147 C 480.32 1.59507 0.0543849 0
M  V30 5148 C 480.52 1.31606 1.52585 0
M  V30 5149 O 479.576 1.08853 2.27832 0
M  V30 5150 C 480.889 2.98751 -0.34181 0
M  V30 5151 C 482.437 3.1165 -0.290414 0
M  V30 5152 C 482.912 4.53199 -0.661402 0
M  V30 5153 N 484.403 4.59114 -0.613863 0
M  V30 5154 C 485.138 5.66709 -0.873417 0
M  V30 5155 N 484.634 6.82349 -1.19884 0
M  V30 5156 N 486.427 5.56369 -0.800608 0
M  V30 5157 H 478.578 1.71133 -1.25806 0
M  V30 5158 H 480.841 0.799186 -0.509908 0
M  V30 5159 H 480.547 3.24085 -1.36608 0
M  V30 5160 H 480.421 3.75961 0.305508 0
M  V30 5161 H 482.808 2.86066 0.724605 0
M  V30 5162 H 482.889 2.366 -0.972327 0
M  V30 5163 H 482.533 4.79513 -1.67422 0
M  V30 5164 H 482.463 5.26583 0.0425612 0
M  V30 5165 H 484.954 3.76053 -0.3732 0
M  V30 5166 H 485.267 7.60326 -1.38291 0
M  V30 5167 H 483.612 6.83906 -1.23685 0
M  V30 5168 H 486.803 4.64904 -0.546045 0
M  V30 5169 H 486.976 6.40139 -1.00626 0
M  V30 5170 N 480.382 0.0267497 1.57577 0
M  V30 5171 C 481.798 -0.32962 1.56159 0
M  V30 5172 C 481.998 -1.73059 1.03213 0
M  V30 5173 O 481.054 -2.43233 0.677804 0
M  V30 5174 C 482.367 -0.18039 3.00158 0
M  V30 5175 C 483.915 -0.253334 3.11973 0
M  V30 5176 C 484.39 -0.132921 4.57807 0
M  V30 5177 N 485.881 -0.189979 4.6281 0
M  V30 5178 C 486.616 -0.120554 5.73273 0
M  V30 5179 N 486.112 -0.000180315 6.928 0
M  V30 5180 N 487.905 -0.174369 5.61829 0
M  V30 5181 H 480.056 0.942896 1.90324 0
M  V30 5182 H 482.319 0.3639 0.875375 0
M  V30 5183 H 482.025 0.784576 3.42837 0
M  V30 5184 H 481.899 -0.951565 3.65 0
M  V30 5185 H 484.286 -1.20876 2.69208 0
M  V30 5186 H 484.367 0.548177 2.49857 0
M  V30 5187 H 484.011 0.819073 5.01252 0
M  V30 5188 H 483.941 -0.953264 5.179 0
M  V30 5189 H 486.432 -0.283257 3.76837 0
M  V30 5190 H 486.745 0.0461666 7.72786 0
M  V30 5191 H 485.09 0.034569 6.94991 0
M  V30 5192 H 488.281 -0.266794 4.67339 0
M  V30 5193 H 488.454 -0.116802 6.47895 0
M  V30 5194 N 481.861 -1.55662 -0.24637 0
M  V30 5195 C 482.824 -1.89558 -1.28842 0
M  V30 5196 C 483.824 -0.772082 -1.41052 0
M  V30 5197 O 485.014 -1.04007 -1.39743 0
M  V30 5198 C 482.146 -2.12449 -2.66605 0
M  V30 5199 H 483.339 -2.82735 -1.00004 0
M  V30 5200 H 480.892 -1.48562 -0.485684 0
M  V30 5201 H 481.627 -1.21742 -3.00582 0
M  V30 5202 H 481.412 -2.94273 -2.59125 0
M  V30 5203 H 482.902 -2.39854 -3.41847 0
M  V30 5204 N 483.339 0.512053 -1.4905 0
M  V30 5205 C 484.587 1.26436 -1.57665 0
M  V30 5206 C 484.908 1.93255 -0.260293 0
M  V30 5207 O 484.178 1.82206 0.719564 0
M  V30 5208 H 482.758 0.469658 -0.580888 0
M  V30 5209 H 485.42 0.594398 -1.85615 0
M  V30 5210 H 484.516 2.03417 -2.36702 0
M  V30 5211 N 484.817 1.37938 0.762283 0
M  V30 5212 C 486.066 1.32989 1.51647 0
M  V30 5213 C 486.379 -0.0802922 1.95435 0
M  V30 5214 O 487.585 -0.252295 2.70325 0
M  V30 5215 C 486.041 2.33485 2.73885 0
M  V30 5216 C 485.649 3.80079 2.37157 0
M  V30 5217 C 487.393 2.37563 3.51801 0
M  V30 5218 C 485.3 4.72283 3.55954 0
M  V30 5219 H 484.23 0.494301 0.56937 0
M  V30 5220 H 486.881 1.63448 0.834083 0
M  V30 5221 H 485.263 1.96056 3.44061 0
M  V30 5222 H 486.437 4.26398 1.74704 0
M  V30 5223 H 484.752 3.79037 1.72395 0
M  V30 5224 H 487.349 3.0365 4.40114 0
M  V30 5225 H 487.692 1.39199 3.92338 0
M  V30 5226 H 488.225 2.73747 2.8863 0
M  V30 5227 H 484.964 5.7181 3.2049 0
M  V30 5228 H 484.484 4.30663 4.1748 0
M  V30 5229 H 486.163 4.89876 4.22647 0
M  V30 5230 N 486.295 -0.989507 1.22664 0
M  V30 5231 C 487.242 -2.08024 0.999733 0
M  V30 5232 C 488.212 -1.65909 -0.0797047 0
M  V30 5233 O 489.397 -1.90669 0.0705715 0
M  V30 5234 C 486.537 -3.40067 0.587234 0
M  V30 5235 C 485.65 -3.95505 1.73781 0
M  V30 5236 C 484.785 -5.15722 1.27297 0
M  V30 5237 C 483.824 -5.63305 2.39488 0
M  V30 5238 N 482.961 -6.74758 1.94026 0
M  V30 5239 H 487.801 -2.26768 1.9334 0
M  V30 5240 H 485.338 -1.11171 0.963297 0
M  V30 5241 H 487.296 -4.15899 0.329227 0
M  V30 5242 H 485.926 -3.21314 -0.309426 0
M  V30 5243 H 484.978 -3.16513 2.11006 0
M  V30 5244 H 486.29 -4.26797 2.58158 0
M  V30 5245 H 485.444 -5.98854 0.972546 0
M  V30 5246 H 484.183 -4.86061 0.399445 0
M  V30 5247 H 483.188 -4.78759 2.70315 0
M  V30 5248 H 484.413 -5.94988 3.27362 0
M  V30 5249 H 482.359 -6.46874 1.09041 0
M  V30 5250 H 482.276 -7.05386 2.71968 0
M  V30 5251 H 483.544 -7.61387 1.67062 0
M  V30 5252 N 487.773 -1.03688 -1.18687 0
M  V30 5253 C 489.02 -0.73803 -1.88572 0
M  V30 5254 C 489.348 0.733973 -1.8012 0
M  V30 5255 O 488.603 1.55098 -1.19344 0
M  V30 5256 C 488.902 -1.14477 -3.3857 0
M  V30 5257 C 488.568 -2.61641 -3.67226 0
M  V30 5258 C 487.23 -3.01846 -3.74757 0
M  V30 5259 C 489.582 -3.56812 -3.79914 0
M  V30 5260 C 486.91 -4.36118 -3.92451 0
M  V30 5261 C 489.262 -4.90799 -3.99123 0
M  V30 5262 C 487.926 -5.3068 -4.04888 0
M  V30 5263 H 487.196 -0.270064 -0.690034 0
M  V30 5264 H 489.843 -1.3012 -1.40503 0
M  V30 5265 H 488.148 -0.500337 -3.88592 0
M  V30 5266 H 489.845 -0.89095 -3.90977 0
M  V30 5267 H 486.435 -2.29498 -3.61979 0
M  V30 5268 H 490.619 -3.26899 -3.73431 0
M  V30 5269 H 485.875 -4.66542 -3.95157 0
M  V30 5270 H 490.049 -5.64451 -4.07882 0
M  V30 5271 H 487.676 -6.34733 -4.18351 0
M  V30 5272 N 489.251 1.34841 -0.815825 0
M  V30 5273 C 490.161 2.33425 -0.234462 0
M  V30 5274 C 491.177 1.62295 0.627413 0
M  V30 5275 O 492.353 1.94109 0.536987 0
M  V30 5276 C 489.418 3.41471 0.599849 0
M  V30 5277 C 488.479 4.28362 -0.283596 0
M  V30 5278 C 487.712 5.31248 0.51099 0
M  V30 5279 O 487.935 5.43056 1.7449 0
M  V30 5280 O 486.869 6.01812 -0.10297 0
M  V30 5281 H 490.695 2.84962 -1.05024 0
M  V30 5282 H 488.28 1.37774 -0.577809 0
M  V30 5283 H 490.162 4.07464 1.07475 0
M  V30 5284 H 488.837 2.9219 1.39308 0
M  V30 5285 H 487.744 3.65318 -0.805836 0
M  V30 5286 H 489.077 4.81066 -1.041 0
M  V30 5287 N 490.729 0.570148 1.46925 0
M  V30 5288 C 492.14 0.1402 1.86173 0
M  V30 5289 C 492.491 -1.29347 1.47526 0
M  V30 5290 O 491.616 -1.97508 0.884292 0
M  V30 5291 C 492.211 0.247661 3.37894 0
M  V30 5292 C 490.77 -0.127332 3.76185 0
M  V30 5293 C 489.917 0.589349 2.70965 0
M  V30 5294 H 492.868 0.779117 1.38259 0
M  V30 5295 H 492.889 -0.530341 3.76786 0
M  V30 5296 H 492.401 1.29121 3.65991 0
M  V30 5297 H 490.502 -1.17149 3.53704 0
M  V30 5298 H 490.615 0.240238 4.78497 0
M  V30 5299 H 488.979 0.0309824 2.54681 0
M  V30 5300 H 489.762 1.6343 3.01903 0
M  V30 5301 N 492.207 -1.54576 0.307264 0
M  V30 5302 C 493.456 -1.99442 -0.300976 0
M  V30 5303 C 493.769 -1.19928 -1.5452 0
M  V30 5304 O 494.975 -1.55092 -2.22842 0
M  V30 5305 C 493.431 -3.55084 -0.586809 0
M  V30 5306 C 493.039 -4.43413 0.639438 0
M  V30 5307 C 494.783 -4.0846 -1.1559 0
M  V30 5308 C 492.69 -5.90499 0.326411 0
M  V30 5309 H 491.62 -0.744986 -0.116238 0
M  V30 5310 H 494.271 -1.787 0.416947 0
M  V30 5311 H 492.653 -3.71749 -1.36449 0
M  V30 5312 H 493.827 -4.38522 1.41545 0
M  V30 5313 H 492.142 -4.00842 1.1276 0
M  V30 5314 H 494.739 -5.15926 -1.40445 0
M  V30 5315 H 495.082 -3.59443 -2.10015 0
M  V30 5316 H 495.615 -3.95362 -0.439778 0
M  V30 5317 H 492.354 -6.43676 1.23939 0
M  V30 5318 H 491.874 -5.98382 -0.412212 0
M  V30 5319 H 493.553 -6.46962 -0.0697393 0
M  V30 5320 N 493.685 -0.035106 -1.57561 0
M  V30 5321 C 495.101 0.321334 -1.56332 0
M  V30 5322 C 495.301 1.72509 -1.04129 0
M  V30 5323 O 494.357 2.4287 -0.690694 0
M  V30 5324 C 495.67 0.164469 -3.0025 0
M  V30 5325 C 497.218 0.236786 -3.12103 0
M  V30 5326 C 497.693 0.10864 -4.57871 0
M  V30 5327 N 499.184 0.165433 -4.62904 0
M  V30 5328 C 499.919 0.0901506 -5.73329 0
M  V30 5329 N 499.415 -0.0365606 -6.9279 0
M  V30 5330 N 501.208 0.144572 -5.61914 0
M  V30 5331 H 493.359 -0.952976 -1.89821 0
M  V30 5332 H 495.622 -0.368537 -0.873432 0
M  V30 5333 H 495.328 -0.802746 -3.42416 0
M  V30 5334 H 495.202 0.932194 -3.655 0
M  V30 5335 H 497.589 1.19446 -2.69845 0
M  V30 5336 H 497.67 -0.561419 -2.49563 0
M  V30 5337 H 497.314 -0.845644 -5.00811 0
M  V30 5338 H 497.244 0.925786 -5.18398 0
M  V30 5339 H 499.735 0.263269 -3.76982 0
M  V30 5340 H 500.048 -0.0871487 -7.72751 0
M  V30 5341 H 498.393 -0.0714256 -6.94963 0
M  V30 5342 H 501.584 0.242006 -4.67474 0
M  V30 5343 H 501.757 0.0824413 -6.47948 0
M  V30 5344 N 495.163 1.55791 0.238111 0
M  V30 5345 C 496.574 1.68383 0.806472 0
M  V30 5346 C 496.925 0.634157 1.85669 0
M  V30 5347 O 496.05 -0.217913 2.153 0
M  V30 5348 C 496.645 3.05268 1.46959 0
M  V30 5349 C 495.204 3.1977 1.98555 0
M  V30 5350 C 494.351 2.64279 0.839763 0
M  V30 5351 H 497.302 1.58694 0.0137535 0
M  V30 5352 H 497.323 3.00203 2.33792 0
M  V30 5353 H 496.835 3.81643 0.704993 0
M  V30 5354 H 494.936 2.48234 2.77868 0
M  V30 5355 H 495.049 4.26788 2.17689 0
M  V30 5356 H 493.413 2.22329 1.24265 0
M  V30 5357 H 494.196 3.43187 0.0881032 0
M  V30 5358 N 496.642 -0.504142 1.49319 0
M  V30 5359 C 497.872 -1.28071 1.62116 0
M  V30 5360 C 498.28 -1.86955 0.290566 0
M  V30 5361 O 497.623 -1.68415 -0.733616 0
M  V30 5362 C 497.685 -2.4521 2.62893 0
M  V30 5363 C 497.349 -2.07218 4.0732 0
M  V30 5364 C 498.346 -1.61375 4.94221 0
M  V30 5365 C 496.031 -2.16949 4.53033 0
M  V30 5366 C 498.025 -1.25763 6.2487 0
M  V30 5367 C 495.712 -1.80949 5.83696 0
M  V30 5368 C 496.71 -1.3543 6.69438 0
M  V30 5369 O 496.398 -0.99915 7.97667 0
M  V30 5370 H 496.13 -0.394763 0.54876 0
M  V30 5371 H 498.684 -0.612118 1.96067 0
M  V30 5372 H 496.914 -3.15134 2.24115 0
M  V30 5373 H 498.603 -3.0724 2.65252 0
M  V30 5374 H 499.369 -1.53306 4.60133 0
M  V30 5375 H 495.248 -2.5133 3.86463 0
M  V30 5376 H 498.792 -0.901631 6.91749 0
M  V30 5377 H 494.689 -1.88667 6.17313 0
M  V30 5378 H 495.457 -1.13089 8.1065 0
M  V30 5379 N 498.12 -1.38341 -0.754957 0
M  V30 5380 C 499.03 -1.3769 -1.89944 0
M  V30 5381 C 500.046 -0.274194 -1.71826 0
M  V30 5382 O 501.222 -0.512391 -1.94773 0
M  V30 5383 C 498.287 -1.19938 -3.25293 0
M  V30 5384 C 497.348 -2.40001 -3.55946 0
M  V30 5385 C 496.581 -2.23087 -4.84838 0
M  V30 5386 O 496.804 -1.22386 -5.57116 0
M  V30 5387 O 495.738 -3.11646 -5.14937 0
M  V30 5388 H 499.564 -2.3412 -1.93446 0
M  V30 5389 H 497.149 -1.19246 -0.900044 0
M  V30 5390 H 499.031 -1.12093 -4.06218 0
M  V30 5391 H 497.706 -0.265919 -3.22606 0
M  V30 5392 H 496.613 -2.53421 -2.75188 0
M  V30 5393 H 497.946 -3.31973 -3.63394 0
M  V30 5394 N 499.598 0.982988 -1.23187 0
M  V30 5395 C 500.845 1.72392 -1.06241 0
M  V30 5396 C 501.173 1.9032 0.40108 0
M  V30 5397 O 500.428 1.45084 1.31336 0
M  V30 5398 C 500.727 3.12736 -1.73006 0
M  V30 5399 C 500.393 3.14695 -3.22921 0
M  V30 5400 C 499.055 3.14937 -3.63824 0
M  V30 5401 C 501.407 3.10211 -4.1883 0
M  V30 5402 C 498.735 3.08408 -4.99101 0
M  V30 5403 C 501.087 3.05224 -5.54095 0
M  V30 5404 C 499.751 3.03787 -5.94365 0
M  V30 5405 H 499.021 0.630829 -0.388762 0
M  V30 5406 H 501.668 1.15053 -1.53085 0
M  V30 5407 H 499.973 3.73446 -1.18514 0
M  V30 5408 H 501.67 3.68828 -1.57374 0
M  V30 5409 H 498.26 3.15262 -2.90358 0
M  V30 5410 H 502.444 3.09166 -3.8824 0
M  V30 5411 H 497.7 3.05646 -5.29519 0
M  V30 5412 H 501.874 3.00712 -6.28128 0
M  V30 5413 H 499.501 2.98483 -6.99151 0
M  V30 5414 N 501.076 1.04316 1.18135 0
M  V30 5415 C 502.304 0.768117 1.92113 0
M  V30 5416 C 502.719 -0.675057 1.76319 0
M  V30 5417 O 502.076 -1.46038 1.09449 0
M  V30 5418 C 502.127 1.12808 3.43448 0
M  V30 5419 O 501.848 2.5146 3.58747 0
M  V30 5420 C 503.349 0.8779 4.3452 0
M  V30 5421 H 500.569 0.279937 0.609817 0
M  V30 5422 H 503.113 1.39149 1.49859 0
M  V30 5423 H 501.268 0.549623 3.83481 0
M  V30 5424 H 501.682 2.65313 4.52448 0
M  V30 5425 H 503.156 1.17959 5.39249 0
M  V30 5426 H 503.633 -0.187239 4.38801 0
M  V30 5427 H 504.239 1.43977 4.00188 0
M  V30 5428 N 502.554 -1.34406 0.822964 0
M  V30 5429 C 503.802 -1.97892 0.410245 0
M  V30 5430 C 504.123 -1.65567 -1.03017 0
M  V30 5431 O 503.393 -0.94642 -1.71522 0
M  V30 5432 H 501.973 -0.732049 0.148707 0
M  V30 5433 H 504.635 -1.64043 1.05242 0
M  V30 5434 H 503.731 -3.07579 0.529284 0
M  V30 5435 N 504.032 -0.577932 -1.46621 0
M  V30 5436 C 505.448 -0.239242 -1.57797 0
M  V30 5437 C 505.648 1.25843 -1.57371 0
M  V30 5438 O 504.704 2.03988 -1.48813 0
M  V30 5439 C 506.017 -0.884227 -2.87405 0
M  V30 5440 C 507.565 -0.857373 -3.01028 0
M  V30 5441 C 508.04 -1.48181 -4.33366 0
M  V30 5442 N 509.531 -1.44593 -4.40053 0
M  V30 5443 C 510.266 -1.89852 -5.41058 0
M  V30 5444 N 509.762 -2.43062 -6.48762 0
M  V30 5445 N 511.555 -1.80797 -5.3223 0
M  V30 5446 H 503.706 -1.55073 -1.45142 0
M  V30 5447 H 505.969 -0.647903 -0.692044 0
M  V30 5448 H 505.675 -1.93759 -2.93514 0
M  V30 5449 H 505.549 -0.389585 -3.75183 0
M  V30 5450 H 507.936 0.187357 -2.94505 0
M  V30 5451 H 508.017 -1.38999 -2.14739 0
M  V30 5452 H 507.661 -2.52572 -4.40647 0
M  V30 5453 H 507.591 -0.924464 -5.18422 0
M  V30 5454 H 510.082 -1.05694 -3.62819 0
M  V30 5455 H 510.395 -2.75466 -7.22038 0
M  V30 5456 H 508.74 -2.47085 -6.49595 0
M  V30 5457 H 511.931 -1.38989 -4.46989 0
M  V30 5458 H 512.104 -2.16385 -6.10804 0
M  V30 5459 N 505.51 1.54411 -0.315457 0
M  V30 5460 C 506.758 2.00023 0.288971 0
M  V30 5461 C 507.079 1.20529 1.5329 0
M  V30 5462 O 506.349 0.304986 1.93511 0
M  V30 5463 H 504.929 0.738891 0.109766 0
M  V30 5464 H 507.591 1.90094 -0.430129 0
M  V30 5465 H 506.687 3.07198 0.550999 0
M  V30 5466 N 506.988 0.0434614 1.5754 0
M  V30 5467 C 508.265 -0.671479 1.83713 0
M  V30 5468 C 508.645 -1.89495 0.930315 0
M  V30 5469 O 507.993 -2.28498 -0.0105639 0
M  V30 5470 C 508.203 -1.0361 3.33266 0
M  V30 5471 C 509.551 -1.42167 4.00092 0
M  V30 5472 O 510.575 -1.12866 3.37846 0
M  V30 5473 O 509.434 -1.96817 5.09829 0
M  V30 5474 H 506.528 -0.330726 0.75799 0
M  V30 5475 H 509.074 0.0722373 1.69546 0
M  V30 5476 H 507.846 -0.165938 3.90948 0
M  V30 5477 H 507.469 -1.83751 3.52592 0
M  V30 5478 N 508.466 -1.55915 -0.229846 0
M  V30 5479 C 509.882 -1.48721 -0.579166 0
M  V30 5480 C 510.082 -0.736976 -1.87539 0
M  V30 5481 O 509.138 -0.273258 -2.51017 0
M  V30 5482 C 510.451 -2.9323 -0.666082 0
M  V30 5483 C 511.999 -3.03701 -0.757267 0
M  V30 5484 C 512.474 -4.49552 -0.8756 0
M  V30 5485 N 513.965 -4.53561 -0.940035 0
M  V30 5486 C 514.7 -5.63683 -1.05116 0
M  V30 5487 N 514.196 -6.83576 -1.12675 0
M  V30 5488 N 515.989 -5.51516 -1.08565 0
M  V30 5489 H 508.14 -2.03123 0.620857 0
M  V30 5490 H 510.403 -0.922898 0.21671 0
M  V30 5491 H 510.109 -3.51032 0.21664 0
M  V30 5492 H 509.983 -3.44668 -1.53243 0
M  V30 5493 H 512.37 -2.45969 -1.63043 0
M  V30 5494 H 512.451 -2.55446 0.134583 0
M  V30 5495 H 512.095 -5.079 -0.00692351 0
M  V30 5496 H 512.025 -4.95506 -1.78274 0
M  V30 5497 H 514.516 -3.67215 -0.892269 0
M  V30 5498 H 514.829 -7.63251 -1.21109 0
M  V30 5499 H 513.174 -6.86303 -1.09603 0
M  V30 5500 H 516.365 -4.5678 -1.02319 0
M  V30 5501 H 516.538 -6.37372 -1.1688 0
M  V30 5502 N 509.944 0.496216 -1.49584 0
M  V30 5503 C 511.193 1.24668 -1.58558 0
M  V30 5504 C 511.506 1.9359 -0.279703 0
M  V30 5505 O 512.712 2.70365 -0.248048 0
M  V30 5506 C 511.168 2.26388 -2.79779 0
M  V30 5507 C 510.776 1.63384 -4.17145 0
M  V30 5508 C 512.52 3.02233 -2.98086 0
M  V30 5509 C 510.427 2.63243 -5.29582 0
M  V30 5510 H 509.357 0.468995 -0.590389 0
M  V30 5511 H 512.008 0.519985 -1.75978 0
M  V30 5512 H 510.39 3.02241 -2.55863 0
M  V30 5513 H 511.564 0.93491 -4.51216 0
M  V30 5514 H 509.879 0.999121 -4.04236 0
M  V30 5515 H 512.476 3.76919 -3.79257 0
M  V30 5516 H 512.819 3.60132 -2.08831 0
M  V30 5517 H 513.352 2.33495 -3.22063 0
M  V30 5518 H 510.091 2.10119 -6.20911 0
M  V30 5519 H 509.611 3.31363 -4.99959 0
M  V30 5520 H 511.29 3.25575 -5.59115 0
M  V30 5521 N 511.423 1.38739 0.74761 0
M  V30 5522 C 512.671 1.35007 1.50391 0
M  V30 5523 C 512.992 -0.0574274 1.94915 0
M  V30 5524 O 512.262 -1.00628 1.6808 0
M  V30 5525 H 510.842 0.496784 0.557866 0
M  V30 5526 H 513.504 1.73479 0.888319 0
M  V30 5527 H 512.6 2.00474 2.392 0
M  V30 5528 N 512.901 -0.976442 1.23707 0
M  V30 5529 C 514.147 -1.72158 1.08319 0
M  V30 5530 C 514.502 -1.88701 -0.375445 0
M  V30 5531 O 513.795 -1.43107 -1.274 0
M  V30 5532 C 513.989 -3.11814 1.74662 0
M  V30 5533 C 513.818 -3.08892 3.26827 0
M  V30 5534 C 512.588 -3.13861 3.96004 0
M  V30 5535 C 514.786 -2.9175 4.2354 0
M  V30 5536 N 512.768 -3.00867 5.35119 0
M  V30 5537 C 514.139 -2.8696 5.49595 0
M  V30 5538 C 516.194 -2.76265 4.14225 0
M  V30 5539 C 514.897 -2.68268 6.67401 0
M  V30 5540 C 516.923 -2.58938 5.317 0
M  V30 5541 C 516.285 -2.54849 6.56682 0
M  V30 5542 H 512.384 -0.638896 0.450927 0
M  V30 5543 H 514.968 -1.15835 1.56494 0
M  V30 5544 H 513.139 -3.66347 1.29014 0
M  V30 5545 H 514.871 -3.74984 1.52215 0
M  V30 5546 H 511.626 -3.22198 3.4711 0
M  V30 5547 H 512.05 -2.97634 6.08065 0
M  V30 5548 H 516.692 -2.78213 3.18366 0
M  V30 5549 H 514.41 -2.65063 7.63392 0
M  V30 5550 H 517.996 -2.47914 5.26336 0
M  V30 5551 H 516.876 -2.41611 7.46052 0
M  V30 5552 N 514.379 -1.04941 -1.1758 0
M  V30 5553 C 515.625 -0.759112 -1.88057 0
M  V30 5554 C 515.958 0.711918 -1.8068 0
M  V30 5555 O 515.233 1.52035 -1.21308 0
M  V30 5556 C 515.516 -1.237 -3.38187 0
M  V30 5557 C 515.369 -2.77078 -3.54327 0
M  V30 5558 C 516.688 -0.834014 -4.32125 0
M  V30 5559 H 513.807 -0.277237 -0.682868 0
M  V30 5560 H 516.449 -1.30296 -1.38286 0
M  V30 5561 H 514.599 -0.774337 -3.80705 0
M  V30 5562 H 516.271 -3.31449 -3.20842 0
M  V30 5563 H 514.514 -3.16477 -2.96689 0
M  V30 5564 H 515.185 -3.05577 -4.59703 0
M  V30 5565 H 517.661 -1.23228 -3.97434 0
M  V30 5566 H 516.537 -1.19603 -5.35711 0
M  V30 5567 H 516.798 0.262195 -4.41322 0
M  V30 5568 N 515.857 1.33968 -0.830081 0
M  V30 5569 C 516.804 2.29387 -0.255008 0
M  V30 5570 C 517.774 1.53923 0.624243 0
M  V30 5571 O 518.959 1.82262 0.564372 0
M  V30 5572 C 516.099 3.4034 0.571209 0
M  V30 5573 C 515.212 4.30729 -0.331083 0
M  V30 5574 C 514.347 5.2879 0.505389 0
M  V30 5575 C 513.386 6.10819 -0.395843 0
M  V30 5576 N 512.523 7.00948 0.401979 0
M  V30 5577 H 517.363 2.77972 -1.07404 0
M  V30 5578 H 514.9 1.36785 -0.541133 0
M  V30 5579 H 516.858 4.03361 1.06562 0
M  V30 5580 H 515.488 2.9297 1.35529 0
M  V30 5581 H 514.54 3.68507 -0.943759 0
M  V30 5582 H 515.852 4.88181 -1.02377 0
M  V30 5583 H 515.006 5.97297 1.06399 0
M  V30 5584 H 513.745 4.71894 1.23155 0
M  V30 5585 H 512.75 5.41238 -0.966529 0
M  V30 5586 H 513.975 6.69797 -1.12023 0
M  V30 5587 H 511.921 6.46512 1.11168 0
M  V30 5588 H 511.838 7.55643 -0.232167 0
M  V30 5589 H 513.106 7.73774 0.943102 0
M  V30 5590 N 517.335 0.585699 1.46312 0
M  V30 5591 C 518.583 0.072278 2.01971 0
M  V30 5592 C 518.904 -1.29345 1.45928 0
M  V30 5593 O 518.174 -1.84973 0.645109 0
M  V30 5594 H 516.754 0.023729 0.746623 0
M  V30 5595 H 519.416 0.762155 1.7938 0
M  V30 5596 H 518.512 0.00552767 3.121 0
M  V30 5597 N 518.813 -1.54241 0.323641 0
M  V30 5598 C 520.062 -1.9975 -0.279806 0
M  V30 5599 C 520.375 -1.2156 -1.5324 0
M  V30 5600 O 521.581 -1.57447 -2.21185 0
M  V30 5601 C 520.037 -3.55686 -0.549115 0
M  V30 5602 C 519.645 -4.4271 0.686432 0
M  V30 5603 C 521.389 -4.09663 -1.11251 0
M  V30 5604 C 519.296 -5.90119 0.389022 0
M  V30 5605 H 518.226 -0.746177 -0.10833 0
M  V30 5606 H 520.877 -1.78248 0.435877 0
M  V30 5607 H 519.259 -3.73176 -1.32499 0
M  V30 5608 H 520.433 -4.36996 1.46188 0
M  V30 5609 H 518.748 -3.99623 1.17005 0
M  V30 5610 H 521.345 -5.17386 -1.34965 0
M  V30 5611 H 521.688 -3.61651 -2.06191 0
M  V30 5612 H 522.221 -3.95806 -0.39782 0
M  V30 5613 H 518.96 -6.42326 1.30759 0
M  V30 5614 H 518.48 -5.98785 -0.348722 0
M  V30 5615 H 520.159 -6.47 -0.0011164 0
M  V30 5616 N 520.291 -0.0518155 -1.57515 0
M  V30 5617 C 521.568 0.661727 -1.84067 0
M  V30 5618 C 521.948 1.88999 -0.940351 0
M  V30 5619 O 521.296 2.285 -0.00155404 0
M  V30 5620 C 521.506 1.01841 -3.3381 0
M  V30 5621 C 522.854 1.40043 -4.00841 0
M  V30 5622 O 523.878 1.11073 -3.38439 0
M  V30 5623 O 522.737 1.94111 -5.10865 0
M  V30 5624 H 519.831 0.326702 -0.759733 0
M  V30 5625 H 522.377 -0.0812277 -1.69505 0
M  V30 5626 H 521.149 0.145202 -3.91031 0
M  V30 5627 H 520.772 1.81879 -3.53562 0
M  V30 5628 N 521.769 1.56035 0.221574 0
M  V30 5629 C 523.046 1.69837 0.970301 0
M  V30 5630 C 523.426 0.599065 2.02421 0
M  V30 5631 O 522.774 -0.393929 2.25079 0
M  V30 5632 C 522.984 3.11148 1.58076 0
M  V30 5633 C 524.332 3.70555 2.07302 0
M  V30 5634 O 525.356 3.14109 1.6797 0
M  V30 5635 O 524.215 4.69562 2.79596 0
M  V30 5636 H 521.309 0.691727 0.453257 0
M  V30 5637 H 523.855 1.68353 0.213358 0
M  V30 5638 H 522.627 3.82617 0.819759 0
M  V30 5639 H 522.25 3.16749 2.40324 0
M  V30 5640 N 523.247 -0.488276 1.49845 0
M  V30 5641 C 524.195 -1.60917 1.67954 0
M  V30 5642 C 525.189 -1.6038 0.54539 0
M  V30 5643 O 526.395 -1.64736 0.7254 0
M  V30 5644 H 522.77 -0.533658 0.529824 0
M  V30 5645 H 524.741 -1.428 2.62013 0
M  V30 5646 C 523.49 -2.98975 1.77509 0
M  V30 5647 H 522.813 -3.00099 2.6416 0
M  V30 5648 H 524.253 -3.76906 1.9421 0
M  V30 5649 C 522.712 -3.3282 0.522745 0
M  V30 5650 O 523.242 -4.00208 -0.345866 0
M  V30 5651 N 521.448 -2.8808 0.381882 0
M  V30 5652 H 520.995 -2.33415 1.08974 0
M  V30 5653 H 520.953 -3.11091 -0.454929 0
M  V30 5654 N 524.725 -1.39134 -0.740242 0
M  V30 5655 C 525.971 -1.37278 -1.50088 0
M  V30 5656 C 526.326 0.0329967 -1.92372 0
M  V30 5657 O 525.619 0.998447 -1.63529 0
M  V30 5658 C 525.813 -2.27457 -2.75678 0
M  V30 5659 C 525.642 -3.76662 -2.45674 0
M  V30 5660 C 524.412 -4.45617 -2.38229 0
M  V30 5661 C 526.61 -4.6877 -2.11563 0
M  V30 5662 N 524.592 -5.80187 -2.00641 0
M  V30 5663 C 525.963 -5.91951 -1.84376 0
M  V30 5664 C 528.018 -4.56843 -1.97987 0
M  V30 5665 C 526.721 -7.04538 -1.4498 0
M  V30 5666 C 528.747 -5.69347 -1.59994 0
M  V30 5667 C 528.109 -6.91597 -1.33687 0
M  V30 5668 H 524.208 -0.557611 -0.548265 0
M  V30 5669 H 526.792 -1.74638 -0.860784 0
M  V30 5670 H 524.963 -1.92263 -3.37475 0
M  V30 5671 H 526.695 -2.16631 -3.41838 0
M  V30 5672 H 523.45 -3.98993 -2.5515 0
M  V30 5673 H 523.874 -6.51387 -1.84454 0
M  V30 5674 H 528.516 -3.62868 -2.16995 0
M  V30 5675 H 526.234 -7.98419 -1.24712 0
M  V30 5676 H 529.82 -5.62104 -1.50102 0
M  V30 5677 H 528.7 -7.77176 -1.04728 0
M  V30 5678 N 526.204 0.969867 -1.24223 0
M  V30 5679 C 527.154 2.04913 -0.999732 0
M  V30 5680 C 528.138 1.60795 0.0580636 0
M  V30 5681 O 529.33 1.76317 -0.155392 0
M  V30 5682 C 526.459 3.37942 -0.604154 0
M  V30 5683 C 525.545 3.88628 -1.69791 0
M  V30 5684 N 525.936 4.12274 -2.93025 0
M  V30 5685 C 524.234 4.17268 -1.57492 0
M  V30 5686 C 524.935 4.53808 -3.63914 0
M  V30 5687 N 523.911 4.58855 -2.91468 0
M  V30 5688 H 527.713 2.21168 -1.93551 0
M  V30 5689 H 525.227 1.15349 -1.14317 0
M  V30 5690 H 527.224 4.14863 -0.411665 0
M  V30 5691 H 525.884 3.23075 0.324465 0
M  V30 5692 H 526.895 3.99789 -3.29225 0
M  V30 5693 H 523.572 4.11346 -0.714175 0
M  V30 5694 H 524.962 4.80534 -4.69614 0
M  V30 5695 N 527.682 1.05563 1.17022 0
M  V30 5696 C 528.612 0.681026 2.23348 0
M  V30 5697 C 529.593 -0.322983 1.67005 0
M  V30 5698 O 530.778 -0.199746 1.9317 0
M  V30 5699 C 527.908 0.0589053 3.4725 0
M  V30 5700 C 526.862 0.988082 4.16438 0
M  V30 5701 C 526.188 0.229646 5.34207 0
M  V30 5702 C 527.488 2.31388 4.68249 0
M  V30 5703 H 529.182 1.56993 2.54938 0
M  V30 5704 H 526.728 0.756302 1.2254 0
M  V30 5705 H 528.681 -0.214982 4.20851 0
M  V30 5706 H 527.405 -0.864968 3.14938 0
M  V30 5707 H 526.064 1.24659 3.44754 0
M  V30 5708 H 525.712 -0.697111 4.98146 0
M  V30 5709 H 525.412 0.848815 5.81437 0
M  V30 5710 H 526.936 -0.0368694 6.10589 0
M  V30 5711 H 528.35 2.09964 5.33468 0
M  V30 5712 H 526.747 2.88736 5.26072 0
M  V30 5713 H 527.817 2.94982 3.84855 0
M  V30 5714 N 529.16 -1.33526 0.837174 0
M  V30 5715 C 530.388 -2.02047 0.445494 0
M  V30 5716 C 530.803 -1.62995 -0.952788 0
M  V30 5717 O 530.16 -0.842447 -1.61892 0
M  V30 5718 C 530.211 -3.57221 0.554577 0
M  V30 5719 O 529.932 -3.94863 1.89776 0
M  V30 5720 C 531.433 -4.43012 0.159634 0
M  V30 5721 H 528.653 -0.647221 0.177048 0
M  V30 5722 H 531.197 -1.70492 1.12928 0
M  V30 5723 H 529.352 -3.87315 -0.0812781 0
M  V30 5724 H 529.766 -4.89569 1.88208 0
M  V30 5725 H 531.24 -5.51253 0.28701 0
M  V30 5726 H 531.717 -4.29916 -0.898289 0
M  V30 5727 H 532.323 -4.18274 0.769855 0
M  V30 5728 N 530.638 -0.59345 -1.46 0
M  V30 5729 C 531.568 0.121192 -2.33185 0
M  V30 5730 C 532.549 0.872977 -1.4599 0
M  V30 5731 O 533.734 0.846321 -1.74789 0
M  V30 5732 C 530.864 1.12844 -3.28456 0
M  V30 5733 C 529.818 0.4908 -4.25177 0
M  V30 5734 C 529.144 1.60529 -5.10034 0
M  V30 5735 C 530.444 -0.578949 -5.19081 0
M  V30 5736 H 532.138 -0.606767 -2.93187 0
M  V30 5737 H 529.684 -0.293242 -1.40983 0
M  V30 5738 H 531.637 1.63684 -3.88311 0
M  V30 5739 H 530.361 1.88681 -2.66584 0
M  V30 5740 H 529.02 0.00339328 -3.666 0
M  V30 5741 H 528.668 2.35359 -4.44539 0
M  V30 5742 H 528.368 1.18422 -5.75543 0
M  V30 5743 H 529.892 2.11623 -5.72755 0
M  V30 5744 H 531.306 -0.155199 -5.7309 0
M  V30 5745 H 529.703 -0.920947 -5.92991 0
M  V30 5746 H 530.773 -1.46109 -4.62364 0
M  V30 5747 N 532.116 1.54067 -0.331816 0
M  V30 5748 C 533.363 2.00715 0.268269 0
M  V30 5749 C 533.691 1.21986 1.51491 0
M  V30 5750 O 532.946 0.292309 1.93505 0
M  V30 5751 C 533.245 3.51634 0.639392 0
M  V30 5752 C 532.911 4.48018 -0.509019 0
M  V30 5753 C 531.573 4.74089 -0.824209 0
M  V30 5754 C 533.925 5.05237 -1.28003 0
M  V30 5755 C 531.253 5.54637 -1.91298 0
M  V30 5756 C 533.605 5.86972 -2.35895 0
M  V30 5757 C 532.269 6.11342 -2.67987 0
M  V30 5758 H 531.539 0.734469 0.0981667 0
M  V30 5759 H 534.186 1.8596 -0.457304 0
M  V30 5760 H 532.491 3.6416 1.44551 0
M  V30 5761 H 534.188 3.85175 1.11539 0
M  V30 5762 H 530.778 4.27851 -0.253287 0
M  V30 5763 H 534.962 4.8507 -1.04978 0
M  V30 5764 H 530.218 5.71747 -2.16599 0
M  V30 5765 H 534.392 6.30327 -2.96076 0
M  V30 5766 H 532.019 6.73544 -3.5248 0
M  V30 5767 N 533.594 0.0601682 1.57485 0
M  V30 5768 C 534.843 -0.611101 1.9222 0
M  V30 5769 C 535.156 -1.71469 0.941159 0
M  V30 5770 O 536.362 -2.44473 1.18089 0
M  V30 5771 C 534.818 -1.13832 3.41424 0
M  V30 5772 C 534.426 -0.0663596 4.47951 0
M  V30 5773 C 536.17 -1.78432 3.85178 0
M  V30 5774 C 534.077 -0.606965 5.88277 0
M  V30 5775 H 533.007 -0.232033 0.71741 0
M  V30 5776 H 535.658 0.130518 1.83035 0
M  V30 5777 H 534.04 -1.93254 3.45643 0
M  V30 5778 H 535.214 0.707682 4.55333 0
M  V30 5779 H 533.529 0.482715 4.13593 0
M  V30 5780 H 536.126 -2.1989 4.87394 0
M  V30 5781 H 536.469 -2.63966 3.21913 0
M  V30 5782 H 537.002 -1.05651 3.83514 0
M  V30 5783 H 533.741 0.21095 6.5516 0
M  V30 5784 H 533.261 -1.34879 5.84438 0
M  V30 5785 H 534.94 -1.08704 6.37803 0
M  V30 5786 N 535.072 -1.5615 -0.213296 0
M  V30 5787 C 535.982 -1.96265 -1.28519 0
M  V30 5788 C 536.998 -0.86765 -1.50824 0
M  V30 5789 O 538.174 -1.17191 -1.63793 0
M  V30 5790 C 535.239 -2.27836 -2.61327 0
M  V30 5791 C 534.3 -3.50949 -2.47252 0
M  V30 5792 C 533.533 -3.81004 -3.73727 0
M  V30 5793 O 533.756 -3.12612 -4.77106 0
M  V30 5794 O 532.69 -4.74477 -3.70344 0
M  V30 5795 H 536.516 -2.87631 -0.974795 0
M  V30 5796 H 534.101 -1.43467 -0.416832 0
M  V30 5797 H 535.983 -2.49299 -3.39747 0
M  V30 5798 H 534.658 -1.39643 -2.9203 0
M  V30 5799 H 533.565 -3.34754 -1.67004 0
M  V30 5800 H 534.898 -4.39551 -2.21486 0
M  V30 5801 N 536.55 0.480323 -1.50102 0
M  V30 5802 C 537.498 1.60024 -1.68805 0
M  V30 5803 C 538.492 1.60089 -0.553888 0
M  V30 5804 O 539.698 1.64349 -0.734127 0
M  V30 5805 H 536.073 0.530841 -0.532646 0
M  V30 5806 H 538.044 1.41408 -2.62767 0
M  V30 5807 C 536.793 2.98029 -1.79092 0
M  V30 5808 H 536.116 2.98694 -2.65748 0
M  V30 5809 H 537.556 3.75871 -1.96206 0
M  V30 5810 C 536.015 3.32538 -0.540388 0
M  V30 5811 O 536.545 4.00386 0.324637 0
M  V30 5812 N 534.751 2.87873 -0.397154 0
M  V30 5813 H 534.298 2.32834 -1.1021 0
M  V30 5814 H 534.256 3.11328 0.438425 0
M  V30 5815 N 538.028 1.39524 0.732853 0
M  V30 5816 C 539.276 1.36594 1.48951 0
M  V30 5817 C 539.597 -0.0367507 1.94965 0
M  V30 5818 O 538.867 -0.988391 1.69138 0
M  V30 5819 H 537.447 0.502673 0.552566 0
M  V30 5820 H 540.109 1.74411 0.869869 0
M  V30 5821 H 539.205 2.03 2.3706 0
M  V30 5822 N 539.506 -0.963266 1.24736 0
M  V30 5823 C 540.922 -1.23273 1.01371 0
M  V30 5824 C 541.122 -1.99618 -0.274776 0
M  V30 5825 O 540.178 -2.32293 -0.989769 0
M  V30 5826 C 541.491 -2.01554 2.23152 0
M  V30 5827 C 543.039 -2.14629 2.27823 0
M  V30 5828 C 543.514 -2.96307 3.49237 0
M  V30 5829 N 545.005 -3.03887 3.49581 0
M  V30 5830 C 545.74 -3.67456 4.40186 0
M  V30 5831 N 545.236 -4.32706 5.41052 0
M  V30 5832 N 547.029 -3.64511 4.27888 0
M  V30 5833 H 539.18 -0.452294 2.07528 0
M  V30 5834 H 541.443 -0.262521 0.910926 0
M  V30 5835 H 541.149 -1.52847 3.1675 0
M  V30 5836 H 541.023 -3.02278 2.25628 0
M  V30 5837 H 543.41 -2.62537 1.34753 0
M  V30 5838 H 543.491 -1.13238 2.2937 0
M  V30 5839 H 543.135 -2.49091 4.42624 0
M  V30 5840 H 543.065 -3.97905 3.44933 0
M  V30 5841 H 545.556 -2.57477 2.76611 0
M  V30 5842 H 545.869 -4.79042 6.06415 0
M  V30 5843 H 544.214 -4.31361 5.44934 0
M  V30 5844 H 547.405 -3.12715 3.4832 0
M  V30 5845 H 547.578 -4.13768 4.98698 0
M  V30 5846 N 540.985 -1.06182 -1.16461 0
M  V30 5847 C 542.234 -0.772927 -1.86303 0
M  V30 5848 C 542.547 0.703187 -1.82523 0
M  V30 5849 O 543.753 1.10641 -2.47933 0
M  V30 5850 C 542.209 -1.33249 -3.34324 0
M  V30 5851 C 541.817 -2.83876 -3.46581 0
M  V30 5852 C 543.561 -1.12108 -4.09429 0
M  V30 5853 C 541.468 -3.33082 -4.88682 0
M  V30 5854 H 540.398 -0.285452 -0.697878 0
M  V30 5855 H 543.049 -1.28039 -1.31447 0
M  V30 5856 H 541.431 -0.7528 -3.88779 0
M  V30 5857 H 542.605 -3.47786 -3.02293 0
M  V30 5858 H 540.92 -3.03671 -2.84909 0
M  V30 5859 H 543.517 -1.46361 -5.14279 0
M  V30 5860 H 543.86 -0.0593832 -4.16258 0
M  V30 5861 H 544.393 -1.6665 -3.6121 0
M  V30 5862 H 541.132 -4.38726 -4.87032 0
M  V30 5863 H 540.652 -2.73919 -5.33599 0
M  V30 5864 H 542.331 -3.28344 -5.57494 0
M  V30 5865 N 542.463 1.3308 -0.844243 0
M  V30 5866 C 543.393 2.3161 -0.296493 0
M  V30 5867 C 544.374 1.59215 0.598707 0
M  V30 5868 O 545.559 1.87077 0.521134 0
M  V30 5869 C 542.689 3.43313 0.524762 0
M  V30 5870 C 541.643 4.27115 -0.275106 0
M  V30 5871 C 540.969 5.30483 0.670236 0
M  V30 5872 C 542.269 5.00443 -1.49514 0
M  V30 5873 H 543.963 2.77672 -1.11976 0
M  V30 5874 H 541.509 1.33496 -0.539899 0
M  V30 5875 H 543.462 4.11273 0.918298 0
M  V30 5876 H 542.186 2.95952 1.3813 0
M  V30 5877 H 540.845 3.60787 -0.650267 0
M  V30 5878 H 540.493 4.79379 1.52332 0
M  V30 5879 H 540.193 5.87435 0.139123 0
M  V30 5880 H 541.717 6.01308 1.06117 0
M  V30 5881 H 543.131 5.61141 -1.17447 0
M  V30 5882 H 541.528 5.67071 -1.96343 0
M  V30 5883 H 542.598 4.28906 -2.26202 0
M  V30 5884 N 543.941 0.601185 1.45683 0
M  V30 5885 C 545.218 0.0261659 1.95582 0
M  V30 5886 C 545.598 -1.4399 1.5437 0
M  V30 5887 O 544.946 -2.13919 0.80318 0
M  V30 5888 C 545.156 0.217557 3.48321 0
M  V30 5889 C 546.504 0.0950076 4.24494 0
M  V30 5890 O 547.528 0.147345 3.55895 0
M  V30 5891 O 546.387 -0.025261 5.46494 0
M  V30 5892 H 543.481 -0.0393688 0.826062 0
M  V30 5893 H 546.027 0.670798 1.55879 0
M  V30 5894 H 544.799 1.23601 3.71266 0
M  V30 5895 H 544.422 -0.46264 3.94899 0
M  V30 5896 N 545.419 -1.53889 0.339982 0
M  V30 5897 C 546.649 -2.04973 -0.258738 0
M  V30 5898 C 547.057 -1.21485 -1.45045 0
M  V30 5899 O 546.4 -0.2422 -1.82096 0
M  V30 5900 C 546.462 -3.51783 -0.740853 0
M  V30 5901 C 546.126 -4.55802 0.330734 0
M  V30 5902 C 547.123 -5.06512 1.17226 0
M  V30 5903 C 544.808 -4.99966 0.483637 0
M  V30 5904 C 546.802 -5.99963 2.15227 0
M  V30 5905 C 544.489 -5.93229 1.46704 0
M  V30 5906 C 545.487 -6.43115 2.29981 0
M  V30 5907 O 545.175 -7.34545 3.26649 0
M  V30 5908 H 544.907 -0.673807 -0.0544037 0
M  V30 5909 H 547.461 -1.99492 0.489107 0
M  V30 5910 H 545.691 -3.54717 -1.53988 0
M  V30 5911 H 547.38 -3.85857 -1.25973 0
M  V30 5912 H 548.146 -4.73158 1.0652 0
M  V30 5913 H 544.025 -4.6074 -0.15471 0
M  V30 5914 H 547.569 -6.38825 2.80265 0
M  V30 5915 H 543.466 -6.25998 1.57468 0
M  V30 5916 H 544.234 -7.52468 3.22078 0
M  V30 5917 N 546.897 -0.0685191 -1.57451 0
M  V30 5918 C 548.308 0.464634 -1.80826 0
M  V30 5919 C 548.659 1.69847 -0.982169 0
M  V30 5920 O 547.784 2.15439 -0.203734 0
M  V30 5921 C 548.379 0.849721 -3.27971 0
M  V30 5922 C 546.938 1.32776 -3.52204 0
M  V30 5923 C 546.085 0.311332 -2.75547 0
M  V30 5924 H 549.036 -0.294248 -1.55948 0
M  V30 5925 H 549.057 1.71138 -3.39841 0
M  V30 5926 H 548.569 -0.0484736 -3.8807 0
M  V30 5927 H 546.67 2.24456 -2.97406 0
M  V30 5928 H 546.783 1.30794 -4.60901 0
M  V30 5929 H 545.147 0.787915 -2.42206 0
M  V30 5930 H 545.93 -0.579078 -3.38381 0
M  V30 5931 N 548.375 1.56261 0.205012 0
M  V30 5932 C 549.338 1.92908 1.23771 0
M  V30 5933 C 550.338 0.809208 1.38955 0
M  V30 5934 O 551.528 1.07676 1.36936 0
M  V30 5935 C 548.66 2.19442 2.60879 0
M  V30 5936 H 549.853 2.85287 0.924728 0
M  V30 5937 H 547.406 1.49798 0.446125 0
M  V30 5938 H 548.141 1.29668 2.97248 0
M  V30 5939 H 547.926 3.0104 2.51232 0
M  V30 5940 H 549.416 2.48833 3.35368 0
M  V30 5941 N 549.853 -0.472356 1.50355 0
M  V30 5942 C 551.269 -0.806001 1.37753 0
M  V30 5943 C 551.469 -1.968 0.432649 0
M  V30 5944 O 550.525 -2.52189 -0.12519 0
M  V30 5945 C 551.838 -1.11926 2.79093 0
M  V30 5946 C 553.386 -1.22579 2.87999 0
M  V30 5947 C 553.861 -1.57218 4.3017 0
M  V30 5948 N 555.352 -1.64212 4.33115 0
M  V30 5949 C 556.087 -1.92517 5.40116 0
M  V30 5950 N 555.583 -2.1885 6.57325 0
M  V30 5951 N 557.376 -1.94008 5.27558 0
M  V30 5952 H 549.527 0.293451 2.10363 0
M  V30 5953 H 551.79 0.0687672 0.945503 0
M  V30 5954 H 551.496 -0.338504 3.50067 0
M  V30 5955 H 551.37 -2.05577 3.16256 0
M  V30 5956 H 553.757 -1.99722 2.17245 0
M  V30 5957 H 553.838 -0.269107 2.54381 0
M  V30 5958 H 553.482 -0.806154 5.01461 0
M  V30 5959 H 553.412 -2.54034 4.61275 0
M  V30 5960 H 555.903 -1.45906 3.48597 0
M  V30 5961 H 556.216 -2.39718 7.3468 0
M  V30 5962 H 554.561 -2.16245 6.60502 0
M  V30 5963 H 557.752 -1.72931 4.34986 0
M  V30 5964 H 557.925 -2.15731 6.11035 0
M  V30 5965 N 551.331 -1.39911 -0.725443 0
M  V30 5966 C 552.742 -1.33599 -1.30415 0
M  V30 5967 C 553.093 -0.00481792 -1.96199 0
M  V30 5968 O 552.218 0.897275 -1.96921 0
M  V30 5969 C 552.813 -2.41965 -2.37146 0
M  V30 5970 C 551.372 -2.39144 -2.90667 0
M  V30 5971 C 550.519 -2.23355 -1.64341 0
M  V30 5972 H 553.47 -1.4986 -0.522267 0
M  V30 5973 H 553.491 -2.09304 -3.17761 0
M  V30 5974 H 553.003 -3.38837 -1.89238 0
M  V30 5975 H 551.104 -1.4594 -3.4283 0
M  V30 5976 H 551.217 -3.34362 -3.43131 0
M  V30 5977 H 549.581 -1.70696 -1.89037 0
M  V30 5978 H 550.364 -3.2221 -1.18471 0
M  V30 5979 N 552.809 0.956637 -1.25245 0
M  V30 5980 C 553.739 2.07058 -1.07931 0
M  V30 5981 C 554.72 1.70096 0.0110361 0
M  V30 5982 O 555.905 1.93555 -0.158121 0
M  V30 5983 C 553.035 3.40272 -0.695124 0
M  V30 5984 C 551.989 3.91235 -1.73549 0
M  V30 5985 C 551.315 5.20921 -1.20604 0
M  V30 5986 C 552.615 4.17837 -3.13385 0
M  V30 5987 H 554.309 2.218 -2.01109 0
M  V30 5988 H 551.855 1.06581 -0.968326 0
M  V30 5989 H 553.808 4.1765 -0.560949 0
M  V30 5990 H 552.532 3.25462 0.272355 0
M  V30 5991 H 551.191 3.16025 -1.85807 0
M  V30 5992 H 550.839 5.02479 -0.228846 0
M  V30 5993 H 550.539 5.55987 -1.90136 0
M  V30 5994 H 552.063 6.00897 -1.08421 0
M  V30 5995 H 553.477 4.8588 -3.04292 0
M  V30 5996 H 551.874 4.64154 -3.80369 0
M  V30 5997 H 552.944 3.2419 -3.60595 0
M  V30 5998 N 554.287 1.06798 1.15896 0
M  V30 5999 C 555.234 0.683314 2.20453 0
M  V30 6000 C 556.204 -0.32255 1.62938 0
M  V30 6001 O 557.389 -0.210276 1.89638 0
M  V30 6002 C 554.529 0.0813266 3.45004 0
M  V30 6003 C 553.642 1.13799 4.16742 0
M  V30 6004 C 552.777 0.501598 5.28826 0
M  V30 6005 C 551.816 1.54144 5.92373 0
M  V30 6006 N 550.953 0.928038 6.9594 0
M  V30 6007 H 555.793 1.57932 2.52708 0
M  V30 6008 H 553.33 0.789544 1.24115 0
M  V30 6009 H 555.288 -0.285274 4.16224 0
M  V30 6010 H 553.918 -0.77806 3.13283 0
M  V30 6011 H 552.97 1.62223 3.44075 0
M  V30 6012 H 554.282 1.92664 4.60089 0
M  V30 6013 H 553.436 0.0823162 6.06644 0
M  V30 6014 H 552.175 -0.318883 4.86656 0
M  V30 6015 H 551.18 1.97056 5.13273 0
M  V30 6016 H 552.405 2.3641 6.36621 0
M  V30 6017 H 550.351 0.12836 6.55874 0
M  V30 6018 H 550.268 1.65401 7.37685 0
M  V30 6019 H 551.536 0.534071 7.77668 0
M  V30 6020 N 555.766 -1.3263 0.851289 0
M  V30 6021 C 556.994 -2.01563 0.466899 0
M  V30 6022 C 557.409 -1.63996 -0.935447 0
M  V30 6023 O 556.766 -0.85957 -1.6099 0
M  V30 6024 C 556.817 -3.56613 0.592433 0
M  V30 6025 O 556.538 -3.92828 1.93954 0
M  V30 6026 C 558.039 -4.42818 0.206612 0
M  V30 6027 H 555.259 -0.645307 0.183902 0
M  V30 6028 H 557.803 -1.69285 1.1473 0
M  V30 6029 H 555.958 -3.87379 -0.0401936 0
M  V30 6030 H 556.372 -4.87545 1.9339 0
M  V30 6031 H 557.846 -5.50918 0.345462 0
M  V30 6032 H 558.323 -4.30844 -0.85264 0
M  V30 6033 H 558.929 -4.17434 0.814176 0
M  V30 6034 N 557.244 -0.608902 -1.45362 0
M  V30 6035 C 558.492 -0.104401 -2.0183 0
M  V30 6036 C 558.813 1.27007 -1.47967 0
M  V30 6037 O 558.083 1.83924 -0.674455 0
M  V30 6038 H 556.663 -0.0356042 -0.746151 0
M  V30 6039 H 559.325 -0.790596 -1.78145 0
M  V30 6040 H 558.421 -0.0551793 -3.12051 0
M  V30 6041 N 558.722 1.53707 -0.348139 0
M  V30 6042 C 559.652 2.28111 0.498766 0
M  V30 6043 C 560.633 1.29851 1.09876 0
M  V30 6044 O 561.818 1.587 1.11928 0
M  V30 6045 C 558.948 3.05735 1.64753 0
M  V30 6046 C 557.902 4.11537 1.17565 0
M  V30 6047 C 557.228 4.77142 2.4133 0
M  V30 6048 C 558.528 5.21587 0.272844 0
M  V30 6049 H 560.222 2.99152 -0.121934 0
M  V30 6050 H 557.768 1.43875 -0.0600842 0
M  V30 6051 H 559.721 3.56526 2.24649 0
M  V30 6052 H 558.445 2.32354 2.2952 0
M  V30 6053 H 557.104 3.61665 0.599483 0
M  V30 6054 H 556.752 4.0035 3.04514 0
M  V30 6055 H 556.452 5.48626 2.10436 0
M  V30 6056 H 557.976 5.30719 3.01943 0
M  V30 6057 H 559.39 5.67986 0.778779 0
M  V30 6058 H 557.787 6.00074 0.0555849 0
M  V30 6059 H 558.857 4.79969 -0.689785 0
M  V30 6060 N 560.2 0.0768682 1.57412 0
M  V30 6061 C 561.13 -0.886026 2.16037 0
M  V30 6062 C 562.111 -1.30691 1.08876 0
M  V30 6063 O 563.296 -1.37705 1.36934 0
M  V30 6064 C 560.426 -2.1518 2.72608 0
M  V30 6065 C 559.38 -1.87015 3.8498 0
M  V30 6066 C 558.706 -3.20266 4.28175 0
M  V30 6067 C 560.006 -1.17143 5.08994 0
M  V30 6068 H 561.7 -0.397642 2.96748 0
M  V30 6069 H 559.246 -0.189823 1.42743 0
M  V30 6070 H 561.199 -2.82962 3.12266 0
M  V30 6071 H 559.923 -2.66269 1.89125 0
M  V30 6072 H 558.582 -1.21636 3.45833 0
M  V30 6073 H 558.23 -3.69207 3.41607 0
M  V30 6074 H 557.93 -3.0221 5.03927 0
M  V30 6075 H 559.454 -3.89237 4.70454 0
M  V30 6076 H 560.868 -1.75003 5.45937 0
M  V30 6077 H 559.265 -1.09328 5.90057 0
M  V30 6078 H 560.335 -0.151295 4.84664 0
M  V30 6079 N 561.678 -1.56367 -0.196722 0
M  V30 6080 C 562.588 -1.97617 -1.2643 0
M  V30 6081 C 563.604 -0.883598 -1.49895 0
M  V30 6082 O 564.78 -1.18921 -1.62541 0
M  V30 6083 C 561.845 -2.30595 -2.58895 0
M  V30 6084 C 560.906 -3.53551 -2.43516 0
M  V30 6085 C 560.139 -3.84946 -3.69665 0
M  V30 6086 O 560.362 -3.17655 -4.73763 0
M  V30 6087 O 559.296 -4.78379 -3.65291 0
M  V30 6088 H 563.122 -2.88648 -0.944233 0
M  V30 6089 H 560.707 -1.43901 -0.401592 0
M  V30 6090 H 562.589 -2.52889 -3.37083 0
M  V30 6091 H 561.264 -1.42732 -2.90533 0
M  V30 6092 H 560.171 -3.36507 -1.63445 0
M  V30 6093 H 561.504 -4.41875 -2.16812 0
M  V30 6094 N 563.156 0.464375 -1.50603 0
M  V30 6095 C 564.405 1.21277 -1.61167 0
M  V30 6096 C 564.718 1.92953 -0.320704 0
M  V30 6097 O 565.924 2.69778 -0.30534 0
M  V30 6098 C 564.38 2.20403 -2.84518 0
M  V30 6099 C 563.988 1.54499 -4.20516 0
M  V30 6100 C 565.732 2.95843 -3.0443 0
M  V30 6101 C 563.639 2.51951 -5.35047 0
M  V30 6102 H 562.569 0.456367 -0.600204 0
M  V30 6103 H 565.22 0.48254 -1.77042 0
M  V30 6104 H 563.602 2.96746 -2.62217 0
M  V30 6105 H 564.776 0.83899 -4.53098 0
M  V30 6106 H 563.091 0.913152 -4.06264 0
M  V30 6107 H 565.688 3.6879 -3.87167 0
M  V30 6108 H 566.031 3.55622 -2.16423 0
M  V30 6109 H 566.564 2.26611 -3.26944 0
M  V30 6110 H 563.303 1.96901 -6.25228 0
M  V30 6111 H 562.823 3.20683 -5.06875 0
M  V30 6112 H 564.502 3.13643 -5.65895 0
M  V30 6113 N 564.634 1.40294 0.718013 0
M  V30 6114 C 565.597 1.4012 1.81381 0
M  V30 6115 C 566.597 0.295405 1.58063 0
M  V30 6116 O 567.787 0.554187 1.6515 0
M  V30 6117 C 564.919 1.19056 3.19435 0
M  V30 6118 H 566.112 2.37645 1.82933 0
M  V30 6119 H 563.665 1.26107 0.923405 0
M  V30 6120 H 564.4 0.222809 3.23534 0
M  V30 6121 H 564.185 1.99152 3.37758 0
M  V30 6122 H 565.675 1.21716 3.99468 0
M  V30 6123 N 566.112 -0.949982 1.2575 0
M  V30 6124 C 567.059 -2.04738 1.06541 0
M  V30 6125 C 568.029 -1.66078 -0.0268818 0
M  V30 6126 O 569.214 -1.90348 0.131196 0
M  V30 6127 C 566.354 -3.38027 0.695127 0
M  V30 6128 C 565.467 -3.89776 1.86276 0
M  V30 6129 C 564.602 -5.11411 1.4364 0
M  V30 6130 C 563.641 -5.554 2.57287 0
M  V30 6131 N 562.778 -6.68244 2.15395 0
M  V30 6132 H 567.618 -2.20502 2.00457 0
M  V30 6133 H 565.155 -1.0805 0.998178 0
M  V30 6134 H 567.113 -4.14641 0.461375 0
M  V30 6135 H 565.743 -3.22135 -0.207046 0
M  V30 6136 H 564.795 -3.0964 2.20969 0
M  V30 6137 H 566.107 -4.18368 2.71606 0
M  V30 6138 H 565.261 -5.95457 1.16257 0
M  V30 6139 H 564 -4.84545 0.553879 0
M  V30 6140 H 563.005 -4.69916 2.85409 0
M  V30 6141 H 564.23 -5.84272 3.46125 0
M  V30 6142 H 562.176 -6.43078 1.29565 0
M  V30 6143 H 562.093 -6.96377 2.94272 0
M  V30 6144 H 563.361 -7.55687 1.91201 0
M  V30 6145 N 567.59 -1.07411 -1.15328 0
M  V30 6146 C 568.839 -0.792643 -1.85473 0
M  V30 6147 C 569.152 0.683789 -1.83259 0
M  V30 6148 O 570.358 1.08005 -2.49093 0
M  V30 6149 C 568.814 -1.36787 -3.32892 0
M  V30 6150 C 568.422 -2.87536 -3.43551 0
M  V30 6151 C 570.166 -1.16444 -4.08217 0
M  V30 6152 C 568.073 -3.38247 -4.85122 0
M  V30 6153 H 567.003 -0.292838 -0.694811 0
M  V30 6154 H 569.654 -1.29426 -1.30082 0
M  V30 6155 H 568.036 -0.793993 -3.87958 0
M  V30 6156 H 569.21 -3.50973 -2.98588 0
M  V30 6157 H 567.525 -3.06676 -2.81672 0
M  V30 6158 H 570.122 -1.51808 -5.12697 0
M  V30 6159 H 570.465 -0.10353 -4.16171 0
M  V30 6160 H 570.998 -1.70472 -3.59422 0
M  V30 6161 H 567.737 -4.43866 -4.82351 0
M  V30 6162 H 567.257 -2.79564 -5.30664 0
M  V30 6163 H 568.936 -3.34238 -5.5398 0
M  V30 6164 N 569.068 1.32177 -0.85831 0
M  V30 6165 C 570.018 2.26307 -0.277307 0
M  V30 6166 C 571.002 1.50123 0.578946 0
M  V30 6167 O 572.194 1.71754 0.427731 0
M  V30 6168 C 569.323 3.39181 0.530232 0
M  V30 6169 C 568.409 4.22746 -0.338613 0
M  V30 6170 N 568.8 4.85265 -1.4266 0
M  V30 6171 C 567.098 4.45813 -0.129 0
M  V30 6172 C 567.799 5.47634 -1.96142 0
M  V30 6173 N 566.775 5.28794 -1.26007 0
M  V30 6174 H 570.577 2.72173 -1.10902 0
M  V30 6175 H 568.091 1.46308 -0.704816 0
M  V30 6176 H 570.088 4.05628 0.962904 0
M  V30 6177 H 568.748 2.9486 1.35969 0
M  V30 6178 H 569.759 4.85259 -1.80953 0
M  V30 6179 H 566.436 4.12163 0.665451 0
M  V30 6180 H 567.826 6.0735 -2.8736 0
M  V30 6181 N 570.547 0.616602 1.45037 0
M  V30 6182 C 571.494 -0.0969439 2.30596 0
M  V30 6183 C 572.464 -0.851151 1.42635 0
M  V30 6184 O 573.649 -0.835092 1.71554 0
M  V30 6185 C 570.789 -1.08234 3.27688 0
M  V30 6186 C 569.902 -0.328072 4.30752 0
M  V30 6187 C 569.037 -1.30399 5.14946 0
M  V30 6188 C 568.076 -0.538049 6.09731 0
M  V30 6189 N 567.213 -1.46371 6.86673 0
M  V30 6190 H 572.053 0.63864 2.91076 0
M  V30 6191 H 569.59 0.326733 1.43425 0
M  V30 6192 H 571.548 -1.66688 3.82454 0
M  V30 6193 H 570.178 -1.78523 2.68941 0
M  V30 6194 H 569.23 0.372136 3.78575 0
M  V30 6195 H 570.542 0.269142 4.98073 0
M  V30 6196 H 569.696 -1.96032 5.74157 0
M  V30 6197 H 568.435 -1.93514 4.47665 0
M  V30 6198 H 567.44 0.131852 5.49642 0
M  V30 6199 H 568.665 0.0881732 6.79043 0
M  V30 6200 H 566.611 -2.08233 6.22073 0
M  V30 6201 H 566.528 -0.920152 7.50379 0
M  V30 6202 H 567.796 -2.10932 7.50418 0
M  V30 6203 N 572.025 -1.5352 0.356285 0
M  V30 6204 C 573.273 -2.00719 -0.235837 0
M  V30 6205 C 573.594 -1.24551 -1.5004 0
M  V30 6206 O 572.864 -0.356185 -1.92635 0
M  V30 6207 H 571.444 -0.741542 -0.0901366 0
M  V30 6208 H 574.106 -1.88887 0.480378 0
M  V30 6209 H 573.202 -3.08551 -0.469357 0
M  V30 6210 N 573.503 -0.0852151 -1.57369 0
M  V30 6211 C 574.78 0.622534 -1.85429 0
M  V30 6212 C 575.16 1.86962 -0.980229 0
M  V30 6213 O 574.508 2.28445 -0.0500219 0
M  V30 6214 C 574.718 0.947374 -3.35896 0
M  V30 6215 C 576.066 1.31509 -4.03721 0
M  V30 6216 O 577.09 1.03869 -3.40719 0
M  V30 6217 O 575.949 1.83231 -5.14868 0
M  V30 6218 H 573.043 0.310513 -0.766492 0
M  V30 6219 H 575.589 -0.117164 -1.69295 0
M  V30 6220 H 574.361 0.0622264 -3.91251 0
M  V30 6221 H 573.984 1.74338 -3.5734 0
M  V30 6222 N 574.981 1.5647 0.188427 0
M  V30 6223 C 576.228 1.81013 0.907779 0
M  V30 6224 C 576.556 0.65953 1.82977 0
M  V30 6225 O 575.811 -0.354308 1.92466 0
M  V30 6226 C 576.11 3.11596 1.7505 0
M  V30 6227 C 575.776 4.40145 0.978922 0
M  V30 6228 C 574.438 4.75066 0.765912 0
M  V30 6229 C 576.79 5.19369 0.436498 0
M  V30 6230 C 574.118 5.867 -0.00089868 0
M  V30 6231 C 576.47 6.31805 -0.317136 0
M  V30 6232 C 575.134 6.65303 -0.541103 0
M  V30 6233 H 574.404 0.662373 0.33218 0
M  V30 6234 H 577.051 1.9071 0.173732 0
M  V30 6235 H 575.356 2.97165 2.55343 0
M  V30 6236 H 577.053 3.27793 2.30983 0
M  V30 6237 H 573.643 4.12745 1.15497 0
M  V30 6238 H 577.827 4.92799 0.588449 0
M  V30 6239 H 573.083 6.11122 -0.184329 0
M  V30 6240 H 577.257 6.92406 -0.744788 0
M  V30 6241 H 574.884 7.51646 -1.13718 0
M  V30 6242 N 576.459 -0.456382 1.50847 0
M  V30 6243 C 577.875 -0.791345 1.386 0
M  V30 6244 C 578.075 -1.9633 0.453498 0
M  V30 6245 O 577.131 -2.52308 -0.0984353 0
M  V30 6246 C 578.444 -1.08959 2.80265 0
M  V30 6247 C 579.992 -1.19517 2.89283 0
M  V30 6248 C 580.467 -1.52647 4.31814 0
M  V30 6249 N 581.958 -1.59609 4.34832 0
M  V30 6250 C 582.693 -1.86777 5.42127 0
M  V30 6251 N 582.189 -2.11866 6.59609 0
M  V30 6252 N 583.982 -1.88402 5.29586 0
M  V30 6253 H 576.133 0.315746 2.1004 0
M  V30 6254 H 578.396 0.0787916 0.94472 0
M  V30 6255 H 578.102 -0.301355 3.50407 0
M  V30 6256 H 577.976 -2.02211 3.18419 0
M  V30 6257 H 580.363 -1.97406 2.19351 0
M  V30 6258 H 580.444 -0.242111 2.54652 0
M  V30 6259 H 580.088 -0.752922 5.02288 0
M  V30 6260 H 580.018 -2.49127 4.63943 0
M  V30 6261 H 582.509 -1.42201 3.50125 0
M  V30 6262 H 582.822 -2.31912 7.37182 0
M  V30 6263 H 581.167 -2.09228 6.62758 0
M  V30 6264 H 584.358 -1.68307 4.36795 0
M  V30 6265 H 584.531 -2.09238 6.13289 0
M  V30 6266 N 577.937 -1.40673 -0.710563 0
M  V30 6267 C 579.186 -1.38525 -1.46607 0
M  V30 6268 C 579.499 0.0077024 -1.95598 0
M  V30 6269 O 580.705 0.151792 -2.71075 0
M  V30 6270 C 579.161 -2.43489 -2.6503 0
M  V30 6271 C 578.769 -3.88619 -2.22888 0
M  V30 6272 C 580.513 -2.50456 -3.42742 0
M  V30 6273 C 578.42 -4.85168 -3.3818 0
M  V30 6274 H 577.35 -0.515092 -0.550632 0
M  V30 6275 H 580.001 -1.66431 -0.772846 0
M  V30 6276 H 578.383 -2.0869 -3.36548 0
M  V30 6277 H 579.557 -4.32588 -1.58758 0
M  V30 6278 H 577.872 -3.85174 -1.58208 0
M  V30 6279 H 580.469 -3.19776 -4.28541 0
M  V30 6280 H 580.812 -1.53665 -3.86902 0
M  V30 6281 H 581.345 -2.84271 -2.78271 0
M  V30 6282 H 578.084 -5.8331 -2.99047 0
M  V30 6283 H 577.604 -4.4586 -4.01209 0
M  V30 6284 H 579.283 -5.05225 -4.04174 0
M  V30 6285 N 579.415 0.9433 -1.26252 0
M  V30 6286 C 580.643 1.72367 -1.14443 0
M  V30 6287 C 581.058 1.86392 0.300572 0
M  V30 6288 O 580.415 1.36978 1.20596 0
M  V30 6289 C 580.466 3.13155 -1.806 0
M  V30 6290 O 580.187 2.99803 -3.19452 0
M  V30 6291 C 581.688 4.07417 -1.74717 0
M  V30 6292 H 578.908 0.539758 -0.398626 0
M  V30 6293 H 581.452 1.18268 -1.66832 0
M  V30 6294 H 579.607 3.64162 -1.32154 0
M  V30 6295 H 580.021 3.88697 -3.52158 0
M  V30 6296 H 581.495 5.03773 -2.25647 0
M  V30 6297 H 581.972 4.3337 -0.713244 0
M  V30 6298 H 582.578 3.6233 -2.22704 0
M  V30 6299 N 580.893 1.08022 1.14757 0
M  V30 6300 C 581.856 0.71048 2.1791 0
M  V30 6301 C 582.856 -0.252731 1.58801 0
M  V30 6302 O 584.046 -0.0327915 1.74169 0
M  V30 6303 C 581.178 0.0483203 3.40866 0
M  V30 6304 H 582.371 1.62384 2.52134 0
M  V30 6305 H 579.924 0.877595 1.29337 0
M  V30 6306 H 580.659 -0.876959 3.12218 0
M  V30 6307 H 580.444 0.741189 3.85031 0
M  V30 6308 H 581.934 -0.195471 4.17142 0
M  V30 6309 N 582.371 -1.3172 0.865308 0
M  V30 6310 C 583.319 -2.30569 0.306674 0
M  V30 6311 C 584.313 -1.59317 -0.575724 0
M  V30 6312 O 585.519 -1.73961 -0.462343 0
M  V30 6313 H 581.894 -0.747681 0.0804834 0
M  V30 6314 H 583.865 -2.75165 1.15441 0
M  V30 6315 C 582.614 -3.44358 -0.480952 0
M  V30 6316 H 581.937 -3.99354 0.18876 0
M  V30 6317 H 583.377 -4.15652 -0.837241 0
M  V30 6318 C 581.836 -2.92574 -1.67039 0
M  V30 6319 O 582.366 -2.90954 -2.76964 0
M  V30 6320 N 580.572 -2.48835 -1.50097 0
M  V30 6321 H 580.119 -2.50353 -0.606738 0
M  V30 6322 H 580.077 -2.14543 -2.29823 0
M  V30 6323 N 583.85 -0.624285 -1.44708 0
M  V30 6324 C 584.782 0.12305 -2.28869 0
M  V30 6325 C 585.795 0.81557 -1.40898 0
M  V30 6326 O 586.984 0.678162 -1.65116 0
M  V30 6327 C 584.084 1.19612 -3.1709 0
M  V30 6328 C 583.257 0.587452 -4.33437 0
M  V30 6329 C 582.316 1.55358 -5.02743 0
M  V30 6330 O 581.341 1.07338 -5.58988 0
M  V30 6331 N 582.543 2.88798 -5.03563 0
M  V30 6332 H 585.308 -0.599193 -2.93649 0
M  V30 6333 H 582.87 -0.464954 -1.5508 0
M  V30 6334 H 584.861 1.84261 -3.60319 0
M  V30 6335 H 583.432 1.82067 -2.54107 0
M  V30 6336 H 582.652 -0.237509 -3.93484 0
M  V30 6337 H 583.94 0.161326 -5.08544 0
M  V30 6338 H 583.338 3.30399 -4.59188 0
M  V30 6339 H 581.894 3.48826 -5.50603 0
M  V30 6340 N 585.328 1.53329 -0.364422 0
M  V30 6341 C 586.276 2.27212 0.497737 0
M  V30 6342 C 587.27 1.30146 1.08437 0
M  V30 6343 O 588.476 1.47778 1.0277 0
M  V30 6344 H 584.851 0.730329 0.179232 0
M  V30 6345 H 586.822 2.98037 -0.147182 0
M  V30 6346 C 585.571 3.07333 1.6261 0
M  V30 6347 H 584.894 3.81866 1.184 0
M  V30 6348 H 586.334 3.62209 2.20409 0
M  V30 6349 C 584.793 2.18102 2.56775 0
M  V30 6350 O 585.323 1.79104 3.59562 0
M  V30 6351 N 583.529 1.82759 2.25937 0
M  V30 6352 H 583.076 2.14671 1.42387 0
M  V30 6353 H 583.034 1.23342 2.89196 0
M  V30 6354 N 586.806 0.0935595 1.57322 0
M  V30 6355 C 587.736 -0.863062 2.16964 0
M  V30 6356 C 588.717 -1.29528 1.10256 0
M  V30 6357 O 589.902 -1.36245 1.38387 0
M  V30 6358 C 587.032 -2.12276 2.74875 0
M  V30 6359 C 585.986 -1.82921 3.86942 0
M  V30 6360 C 585.312 -3.15707 4.31548 0
M  V30 6361 C 586.612 -1.11737 5.10208 0
M  V30 6362 H 588.306 -0.366145 2.97153 0
M  V30 6363 H 585.852 -0.174673 1.42937 0
M  V30 6364 H 587.805 -2.79634 3.1525 0
M  V30 6365 H 586.529 -2.64248 1.91938 0
M  V30 6366 H 585.188 -1.17961 3.47103 0
M  V30 6367 H 584.836 -3.65563 3.45504 0
M  V30 6368 H 584.536 -2.96849 5.07104 0
M  V30 6369 H 586.06 -3.84226 4.74555 0
M  V30 6370 H 587.474 -1.69203 5.47762 0
M  V30 6371 H 585.871 -1.03064 5.91183 0
M  V30 6372 H 586.941 -0.0998818 4.84797 0
M  V30 6373 N 588.284 -1.56567 -0.180126 0
M  V30 6374 C 589.533 -1.80685 -0.896426 0
M  V30 6375 C 589.846 -0.669335 -1.83791 0
M  V30 6376 O 591.052 -0.795209 -2.59593 0
M  V30 6377 C 589.508 -3.20132 -1.6445 0
M  V30 6378 C 589.116 -4.41727 -0.747088 0
M  V30 6379 C 590.86 -3.53549 -2.34955 0
M  V30 6380 C 588.767 -5.72195 -1.49489 0
M  V30 6381 H 587.697 -0.673758 -0.338477 0
M  V30 6382 H 590.348 -1.8289 -0.149467 0
M  V30 6383 H 588.73 -3.12218 -2.43589 0
M  V30 6384 H 589.904 -4.608 0.00671129 0
M  V30 6385 H 588.219 -4.16122 -0.152134 0
M  V30 6386 H 590.816 -4.48267 -2.91481 0
M  V30 6387 H 591.159 -2.78006 -3.09868 0
M  V30 6388 H 591.692 -3.62976 -1.62768 0
M  V30 6389 H 588.431 -6.50743 -0.788251 0
M  V30 6390 H 587.951 -5.57115 -2.22224 0
M  V30 6391 H 589.63 -6.1384 -2.04472 0
M  V30 6392 N 589.762 0.448376 -1.51087 0
M  V30 6393 C 591.011 1.19561 -1.62444 0
M  V30 6394 C 591.324 1.92602 -0.341151 0
M  V30 6395 O 592.53 2.69439 -0.333936 0
M  V30 6396 C 590.986 2.17373 -2.8684 0
M  V30 6397 C 590.594 1.5003 -4.22131 0
M  V30 6398 C 592.338 2.92597 -3.0755 0
M  V30 6399 C 590.245 2.46262 -5.37689 0
M  V30 6400 H 589.175 0.449975 -0.605011 0
M  V30 6401 H 591.826 0.463735 -1.77544 0
M  V30 6402 H 590.208 2.93948 -2.65349 0
M  V30 6403 H 591.382 0.790886 -4.53962 0
M  V30 6404 H 589.697 0.870011 -4.0721 0
M  V30 6405 H 592.294 3.64663 -3.91056 0
M  V30 6406 H 592.637 3.53306 -2.20183 0
M  V30 6407 H 593.17 2.23131 -3.29329 0
M  V30 6408 H 589.909 1.90258 -6.27281 0
M  V30 6409 H 589.429 3.15289 -5.10248 0
M  V30 6410 H 591.108 3.07623 -5.6919 0
M  V30 6411 N 591.24 1.41047 0.703093 0
M  V30 6412 C 592.203 1.42036 1.79884 0
M  V30 6413 C 593.203 0.312153 1.57741 0
M  V30 6414 O 594.393 0.571672 1.64553 0
M  V30 6415 C 591.525 1.22437 3.18154 0
M  V30 6416 H 592.718 2.39572 1.80403 0
M  V30 6417 H 590.271 1.27079 0.909977 0
M  V30 6418 H 591.006 0.257112 3.23279 0
M  V30 6419 H 590.791 2.02723 3.35627 0
M  V30 6420 H 592.281 1.25946 3.98155 0
M  V30 6421 N 592.718 -0.936591 1.26751 0
M  V30 6422 C 593.966 -1.67998 1.12343 0
M  V30 6423 C 594.287 -1.92137 -0.332938 0
M  V30 6424 O 593.557 -1.52132 -1.23421 0
M  V30 6425 H 592.137 -0.622609 0.412756 0
M  V30 6426 H 594.799 -1.12509 1.59147 0
M  V30 6427 H 593.895 -2.65185 1.64571 0
M  V30 6428 N 594.196 -1.08629 -1.14182 0
M  V30 6429 C 595.442 -0.818556 -1.85546 0
M  V30 6430 C 595.775 0.654076 -1.82854 0
M  V30 6431 O 595.05 1.48099 -1.26083 0
M  V30 6432 C 595.333 -1.34397 -3.3408 0
M  V30 6433 C 595.186 -2.8821 -3.45333 0
M  V30 6434 C 596.505 -0.971069 -4.29253 0
M  V30 6435 H 593.624 -0.298821 -0.673702 0
M  V30 6436 H 596.266 -1.34629 -1.34071 0
M  V30 6437 H 594.416 -0.895064 -3.78049 0
M  V30 6438 H 596.088 -3.41488 -3.10134 0
M  V30 6439 H 594.331 -3.25756 -2.86471 0
M  V30 6440 H 595.002 -3.20047 -4.49749 0
M  V30 6441 H 597.478 -1.35809 -3.93313 0
M  V30 6442 H 596.354 -1.36586 -5.31635 0
M  V30 6443 H 596.615 0.121659 -4.41933 0
M  V30 6444 N 595.674 1.31259 -0.872281 0
M  V30 6445 C 597.085 1.78822 -0.536617 0
M  V30 6446 C 597.436 1.71855 0.946594 0
M  V30 6447 O 596.561 1.28769 1.73918 0
M  V30 6448 C 597.156 3.24698 -0.967294 0
M  V30 6449 C 595.715 3.70147 -0.683251 0
M  V30 6450 C 594.862 2.51994 -1.15733 0
M  V30 6451 H 597.813 1.18308 -1.05777 0
M  V30 6452 H 597.834 3.79386 -0.290929 0
M  V30 6453 H 597.346 3.29737 -2.04683 0
M  V30 6454 H 595.447 3.70607 0.384825 0
M  V30 6455 H 595.56 4.62183 -1.2619 0
M  V30 6456 H 593.924 2.48078 -0.577024 0
M  V30 6457 H 594.707 2.59778 -2.24434 0
M  V30 6458 N 597.152 0.631951 1.44375 0
M  V30 6459 C 598.062 -0.073674 2.34484 0
M  V30 6460 C 599.078 -0.834825 1.52665 0
M  V30 6461 O 600.254 -0.786902 1.85391 0
M  V30 6462 C 597.319 -1.04247 3.30656 0
M  V30 6463 C 596.38 -0.280602 4.28382 0
M  V30 6464 C 595.613 -1.20325 5.19959 0
M  V30 6465 O 595.836 -2.44199 5.15484 0
M  V30 6466 O 594.77 -0.687128 5.97965 0
M  V30 6467 H 598.596 0.667477 2.96274 0
M  V30 6468 H 596.181 0.392144 1.44162 0
M  V30 6469 H 598.063 -1.59981 3.89851 0
M  V30 6470 H 596.738 -1.76422 2.71398 0
M  V30 6471 H 595.645 0.319804 3.72731 0
M  V30 6472 H 596.978 0.401144 4.90563 0
M  V30 6473 N 598.631 -1.53133 0.372548 0
M  V30 6474 C 599.856 -2.0625 -0.218098 0
M  V30 6475 C 600.281 -1.24375 -1.41111 0
M  V30 6476 O 599.639 -0.264554 -1.79359 0
M  V30 6477 C 599.687 -3.55858 -0.582876 0
M  V30 6478 O 598.791 -3.76667 -1.67917 0
M  V30 6479 H 598.132 -0.663317 -0.030104 0
M  V30 6480 H 600.662 -1.97477 0.535169 0
M  V30 6481 H 600.672 -3.99007 -0.851925 0
M  V30 6482 H 599.347 -4.14892 0.289428 0
M  V30 6483 H 597.924 -3.45413 -1.40513 0
M  V30 6484 N 600.109 -0.101901 -1.5727 0
M  V30 6485 C 601.019 0.868647 -2.17926 0
M  V30 6486 C 602.035 1.30527 -1.1506 0
M  V30 6487 O 603.211 1.37178 -1.47459 0
M  V30 6488 C 600.276 2.10727 -2.75309 0
M  V30 6489 C 599.337 1.7242 -3.93154 0
M  V30 6490 C 598.57 2.90377 -4.47791 0
M  V30 6491 O 598.793 4.05305 -4.01353 0
M  V30 6492 O 597.727 2.6845 -5.38719 0
M  V30 6493 H 601.553 0.382544 -3.01281 0
M  V30 6494 H 599.138 0.122812 -1.48894 0
M  V30 6495 H 601.02 2.83303 -3.11958 0
M  V30 6496 H 599.695 2.58376 -1.94996 0
M  V30 6497 H 598.602 0.970039 -3.61305 0
M  V30 6498 H 599.935 1.29528 -4.74851 0
M  V30 6499 N 601.587 1.56661 0.17182 0
M  V30 6500 C 602.534 1.96371 1.21273 0
M  V30 6501 C 603.504 0.82756 1.44016 0
M  V30 6502 O 604.689 1.08764 1.56764 0
M  V30 6503 C 601.829 2.32838 2.54716 0
M  V30 6504 C 600.942 3.59628 2.39356 0
M  V30 6505 C 600.077 3.85311 3.65662 0
M  V30 6506 C 599.116 5.0545 3.45234 0
M  V30 6507 N 598.253 5.27268 4.63608 0
M  V30 6508 H 603.093 2.85106 0.86709 0
M  V30 6509 H 600.63 1.41073 0.416744 0
M  V30 6510 H 602.588 2.52004 3.3249 0
M  V30 6511 H 601.218 1.47214 2.87277 0
M  V30 6512 H 600.27 3.4838 1.52761 0
M  V30 6513 H 601.582 4.4756 2.20207 0
M  V30 6514 H 600.736 4.04841 4.51872 0
M  V30 6515 H 599.475 2.95753 3.8779 0
M  V30 6516 H 598.48 4.85819 2.5741 0
M  V30 6517 H 599.705 5.96538 3.24529 0
M  V30 6518 H 597.651 4.40662 4.85956 0
M  V30 6519 H 597.568 6.09422 4.4737 0
M  V30 6520 H 598.836 5.51277 5.51103 0
M  V30 6521 N 603.065 -0.440357 1.51323 0
M  V30 6522 C 604.028 -1.51679 1.71832 0
M  V30 6523 C 605.028 -1.49648 0.588386 0
M  V30 6524 O 606.218 -1.51724 0.855891 0
M  V30 6525 C 603.35 -2.91228 1.77199 0
M  V30 6526 H 604.543 -1.34799 2.67898 0
M  V30 6527 H 602.096 -0.66883 1.41267 0
M  V30 6528 H 602.831 -3.13516 0.829363 0
M  V30 6529 H 602.616 -2.94107 2.59314 0
M  V30 6530 H 604.106 -3.69321 1.94915 0
M  V30 6531 N 604.543 -1.41418 -0.695603 0
M  V30 6532 C 605.49 -1.43264 -1.80954 0
M  V30 6533 C 606.46 -0.287016 -1.63601 0
M  V30 6534 O 607.645 -0.488054 -1.84452 0
M  V30 6535 C 604.785 -1.32054 -3.18835 0
M  V30 6536 C 603.898 -2.56485 -3.4762 0
M  V30 6537 C 603.033 -2.3757 -4.75115 0
M  V30 6538 C 602.072 -3.57477 -4.96867 0
M  V30 6539 N 601.209 -3.37632 -6.15588 0
M  V30 6540 H 606.049 -2.38467 -1.78711 0
M  V30 6541 H 603.586 -1.18415 -0.872715 0
M  V30 6542 H 605.544 -1.23558 -3.98484 0
M  V30 6543 H 604.174 -0.404592 -3.20254 0
M  V30 6544 H 603.226 -2.75432 -2.62376 0
M  V30 6545 H 604.538 -3.45678 -3.59594 0
M  V30 6546 H 603.692 -2.2654 -5.62818 0
M  V30 6547 H 602.431 -1.45834 -4.65386 0
M  V30 6548 H 601.436 -3.68961 -4.07612 0
M  V30 6549 H 602.661 -4.50167 -5.08455 0
M  V30 6550 H 600.607 -2.48596 -6.07072 0
M  V30 6551 H 600.524 -4.20401 -6.2833 0
M  V30 6552 H 601.792 -3.30375 -7.06026 0
M  V30 6553 N 606.021 0.929856 -1.27246 0
M  V30 6554 C 607.27 1.67182 -1.12842 0
M  V30 6555 C 607.583 1.9287 0.325666 0
M  V30 6556 O 608.789 2.64999 0.590572 0
M  V30 6557 C 607.245 3.01097 -1.97151 0
M  V30 6558 C 606.853 2.83115 -3.47203 0
M  V30 6559 C 608.597 3.78907 -1.91389 0
M  V30 6560 C 606.504 4.12573 -4.23719 0
M  V30 6561 H 605.434 0.627064 -0.418697 0
M  V30 6562 H 608.085 1.0332 -1.51649 0
M  V30 6563 H 606.467 3.66004 -1.51186 0
M  V30 6564 H 607.641 2.26989 -4.01015 0
M  V30 6565 H 605.956 2.18736 -3.54321 0
M  V30 6566 H 608.553 4.74837 -2.45834 0
M  V30 6567 H 608.896 4.0674 -0.887047 0
M  V30 6568 H 609.429 3.20794 -2.35237 0
M  V30 6569 H 606.168 3.8992 -5.26918 0
M  V30 6570 H 605.688 4.68371 -3.74685 0
M  V30 6571 H 607.367 4.8095 -4.32777 0
M  V30 6572 N 607.499 1.09233 1.13605 0
M  V30 6573 C 608.409 0.741939 2.22559 0
M  V30 6574 C 609.425 -0.255236 1.72118 0
M  V30 6575 O 610.601 -0.0970747 2.01166 0
M  V30 6576 C 607.666 0.165595 3.46304 0
M  V30 6577 C 606.727 1.21846 4.11645 0
M  V30 6578 C 605.96 0.669526 5.29484 0
M  V30 6579 O 606.183 -0.508228 5.68131 0
M  V30 6580 O 605.117 1.42361 5.84822 0
M  V30 6581 H 608.943 1.65107 2.54899 0
M  V30 6582 H 606.528 0.866584 1.21699 0
M  V30 6583 H 608.41 -0.152592 4.21124 0
M  V30 6584 H 607.085 -0.716573 3.15669 0
M  V30 6585 H 605.992 1.58931 3.38662 0
M  V30 6586 H 607.325 2.07321 4.46407 0
M  V30 6587 N 608.977 -1.30795 0.87923 0
M  V30 6588 C 609.924 -2.28282 0.339968 0
M  V30 6589 C 610.894 -1.56134 -0.566685 0
M  V30 6590 O 612.079 -1.84231 -0.496338 0
M  V30 6591 C 609.219 -3.42225 -0.444501 0
M  V30 6592 C 608.332 -4.29204 0.490717 0
M  V30 6593 C 607.467 -5.30302 -0.308784 0
M  V30 6594 C 606.506 -6.08929 0.622272 0
M  V30 6595 N 605.643 -7.01957 -0.14155 0
M  V30 6596 H 610.483 -2.73794 1.17647 0
M  V30 6597 H 608.02 -1.34682 0.591527 0
M  V30 6598 H 609.978 -4.07038 -0.915186 0
M  V30 6599 H 608.608 -2.97799 -1.24562 0
M  V30 6600 H 607.66 -3.6475 1.07988 0
M  V30 6601 H 608.972 -4.84045 1.20425 0
M  V30 6602 H 608.126 -6.00835 -0.841575 0
M  V30 6603 H 606.865 -4.7614 -1.05556 0
M  V30 6604 H 605.87 -5.37278 1.16674 0
M  V30 6605 H 607.095 -6.65178 1.36804 0
M  V30 6606 H 605.041 -6.50192 -0.870966 0
M  V30 6607 H 604.958 -7.54261 0.51246 0
M  V30 6608 H 606.226 -7.76741 -0.655271 0
M  V30 6609 N 610.455 -0.639598 -1.44038 0
M  V30 6610 C 611.704 -0.144885 -2.01179 0
M  V30 6611 C 612.017 1.24372 -1.50967 0
M  V30 6612 O 613.223 1.83291 -2.00292 0
M  V30 6613 C 611.679 -0.208244 -3.59297 0
M  V30 6614 C 611.287 -1.59869 -4.18504 0
M  V30 6615 C 613.031 0.229568 -4.23879 0
M  V30 6616 C 610.938 -1.61671 -5.68873 0
M  V30 6617 H 609.868 -0.0504005 -0.752314 0
M  V30 6618 H 612.519 -0.799639 -1.65161 0
M  V30 6619 H 610.901 0.513767 -3.92653 0
M  V30 6620 H 612.075 -2.34496 -3.96671 0
M  V30 6621 H 610.39 -1.98131 -3.66242 0
M  V30 6622 H 612.987 0.235758 -5.3418 0
M  V30 6623 H 613.33 1.25848 -3.96822 0
M  V30 6624 H 613.863 -0.440233 -3.95357 0
M  V30 6625 H 610.602 -2.62427 -6.00677 0
M  V30 6626 H 610.122 -0.913489 -5.92803 0
M  V30 6627 H 611.801 -1.35439 -6.32665 0
M  V30 6628 N 611.933 1.52934 -0.380664 0
M  V30 6629 C 612.896 2.24809 0.446473 0
M  V30 6630 C 613.896 1.26133 0.997347 0
M  V30 6631 O 615.086 1.50297 0.880714 0
M  V30 6632 C 612.218 2.99649 1.62553 0
M  V30 6633 H 613.411 2.99343 -0.182677 0
M  V30 6634 H 610.964 1.55736 -0.132618 0
M  V30 6635 H 611.699 2.29395 2.29235 0
M  V30 6636 H 611.484 3.72066 1.23732 0
M  V30 6637 H 612.974 3.54246 2.21133 0
M  V30 6638 N 613.412 0.11024 1.57214 0
M  V30 6639 C 614.359 -0.843195 2.14846 0
M  V30 6640 C 615.329 -1.26954 1.07107 0
M  V30 6641 O 616.514 -1.34861 1.34971 0
M  V30 6642 C 613.654 -2.09123 2.74521 0
M  V30 6643 C 612.767 -1.71404 3.96541 0
M  V30 6644 C 611.902 -2.91107 4.44331 0
M  V30 6645 C 610.941 -2.49586 5.58903 0
M  V30 6646 N 610.078 -3.62175 6.01477 0
M  V30 6647 H 614.918 -0.344886 2.95998 0
M  V30 6648 H 612.455 -0.15855 1.46243 0
M  V30 6649 H 614.413 -2.82234 3.07246 0
M  V30 6650 H 613.043 -2.56427 1.96074 0
M  V30 6651 H 612.095 -0.88201 3.70033 0
M  V30 6652 H 613.407 -1.36884 4.7965 0
M  V30 6653 H 612.561 -3.72454 4.78919 0
M  V30 6654 H 611.3 -3.28848 3.60153 0
M  V30 6655 H 610.305 -1.6667 5.23929 0
M  V30 6656 H 611.53 -2.12973 6.4484 0
M  V30 6657 H 609.476 -3.99605 5.20242 0
M  V30 6658 H 609.393 -3.3155 6.79419 0
M  V30 6659 H 610.661 -4.43987 6.407 0
M  V30 6660 N 614.89 -1.56749 -0.16351 0
M  V30 6661 C 615.8 -2.00255 -1.2221 0
M  V30 6662 C 616.816 -0.915194 -1.47987 0
M  V30 6663 O 617.992 -1.22342 -1.59982 0
M  V30 6664 C 615.057 -2.36035 -2.53946 0
M  V30 6665 C 614.118 -3.58637 -2.35962 0
M  V30 6666 C 613.351 -3.92701 -3.61416 0
M  V30 6667 O 613.574 -3.27632 -4.66919 0
M  V30 6668 O 612.508 -4.86019 -3.55062 0
M  V30 6669 H 616.334 -2.90586 -0.882794 0
M  V30 6670 H 613.919 -1.44721 -0.370978 0
M  V30 6671 H 615.801 -2.59982 -3.31643 0
M  V30 6672 H 614.476 -1.48863 -2.8744 0
M  V30 6673 H 613.383 -3.39898 -1.5627 0
M  V30 6674 H 614.716 -4.46374 -2.0739 0
M  V30 6675 N 616.368 0.432326 -1.51554 0
M  V30 6676 C 617.593 1.20824 -1.68571 0
M  V30 6677 C 618.018 1.84126 -0.384596 0
M  V30 6678 O 617.376 1.69025 0.655751 0
M  V30 6679 C 617.424 2.26429 -2.80646 0
M  V30 6680 O 616.528 3.32032 -2.44598 0
M  V30 6681 H 615.869 0.353765 -0.561913 0
M  V30 6682 H 618.399 0.509916 -1.98144 0
M  V30 6683 H 618.409 2.71133 -3.04878 0
M  V30 6684 H 617.084 1.79733 -3.75058 0
M  V30 6685 H 615.661 2.92769 -2.30956 0
M  V30 6686 N 617.846 1.41785 0.688094 0
M  V30 6687 C 619.094 1.41264 1.4453 0
M  V30 6688 C 619.415 0.0252946 1.94984 0
M  V30 6689 O 618.685 -0.934081 1.72197 0
M  V30 6690 H 617.265 0.519998 0.536294 0
M  V30 6691 H 619.927 1.7709 0.813941 0
M  V30 6692 H 619.023 2.10439 2.30482 0
M  V30 6693 N 619.324 -0.923095 1.27737 0
M  V30 6694 C 620.254 -2.04124 1.13383 0
M  V30 6695 C 621.235 -1.70066 0.0340658 0
M  V30 6696 O 622.42 -1.93068 0.209383 0
M  V30 6697 C 619.55 -3.3831 0.785097 0
M  V30 6698 C 618.504 -3.86496 1.8386 0
M  V30 6699 C 617.83 -5.1754 1.34373 0
M  V30 6700 C 619.13 -4.09381 3.24353 0
M  V30 6701 H 620.824 -2.1639 2.06919 0
M  V30 6702 H 618.37 -1.03976 0.996243 0
M  V30 6703 H 620.323 -4.16016 0.671485 0
M  V30 6704 H 619.047 -3.2607 -0.185969 0
M  V30 6705 H 617.706 -3.10987 1.9412 0
M  V30 6706 H 617.354 -5.01696 0.361989 0
M  V30 6707 H 617.054 -5.50751 2.04811 0
M  V30 6708 H 618.578 -5.97811 1.24315 0
M  V30 6709 H 619.992 -4.77641 3.17067 0
M  V30 6710 H 618.389 -4.53906 3.92542 0
M  V30 6711 H 619.459 -3.14515 3.69064 0
M  V30 6712 N 620.802 -1.09834 -1.13024 0
M  V30 6713 C 621.735 -0.685453 -2.17662 0
M  V30 6714 C 622.713 0.310142 -1.59615 0
M  V30 6715 O 623.897 0.21052 -1.87321 0
M  V30 6716 C 621.024 -0.0104476 -3.38698 0
M  V30 6717 C 620.07 -0.968522 -4.15358 0
M  V30 6718 S 620.903 -2.48272 -4.74469 0
M  V30 6719 C 622.059 -1.82025 -5.98847 0
M  V30 6720 H 622.292 -1.57187 -2.52348 0
M  V30 6721 H 619.825 -0.914728 -1.24387 0
M  V30 6722 H 621.783 0.372694 -4.08805 0
M  V30 6723 H 620.444 0.852673 -3.02305 0
M  V30 6724 H 619.637 -0.443373 -5.02046 0
M  V30 6725 H 619.239 -1.29327 -3.50928 0
M  V30 6726 H 621.531 -1.14678 -6.67724 0
M  V30 6727 H 622.474 -2.66645 -6.55977 0
M  V30 6728 H 622.882 -1.2874 -5.49624 0
M  V30 6729 N 622.28 1.30327 -0.886154 0
M  V30 6730 C 623.228 2.30052 -0.343317 0
M  V30 6731 C 624.222 1.60212 0.550305 0
M  V30 6732 O 625.428 1.74674 0.434609 0
M  V30 6733 H 621.803 0.746306 -0.0923681 0
M  V30 6734 H 623.774 2.73294 -1.19804 0
M  V30 6735 C 622.523 3.45079 0.426107 0
M  V30 6736 H 621.846 3.99003 -0.25227 0
M  V30 6737 H 623.286 4.16931 0.771009 0
M  V30 6738 C 621.745 2.95195 1.62363 0
M  V30 6739 O 622.275 2.95323 2.723 0
M  V30 6740 N 620.481 2.51192 1.4612 0
M  V30 6741 H 620.028 2.51286 0.566832 0
M  V30 6742 H 619.986 2.18173 2.2638 0
M  V30 6743 N 623.758 0.647228 1.43697 0
M  V30 6744 C 624.721 -0.0385101 2.29168 0
M  V30 6745 C 625.721 -0.756487 1.41894 0
M  V30 6746 O 626.911 -0.598641 1.63591 0
M  V30 6747 C 624.043 -1.06524 3.23829 0
M  V30 6748 H 625.236 0.713445 2.9129 0
M  V30 6749 H 622.789 0.408153 1.50877 0
M  V30 6750 H 623.524 -1.84664 2.66589 0
M  V30 6751 H 623.309 -0.554147 3.88164 0
M  V30 6752 H 624.799 -1.54432 3.87996 0
M  V30 6753 N 625.236 -1.5273 0.388769 0
M  V30 6754 C 626.482 -2.01871 -0.193877 0
M  V30 6755 C 626.815 -1.27475 -1.46505 0
M  V30 6756 O 626.09 -0.375063 -1.90849 0
M  V30 6757 C 626.373 -3.5712 -0.462336 0
M  V30 6758 C 626.226 -4.42186 0.824091 0
M  V30 6759 C 627.545 -4.21881 -1.25319 0
M  V30 6760 H 624.664 -0.733764 -0.0689899 0
M  V30 6761 H 627.306 -1.82796 0.518231 0
M  V30 6762 H 625.456 -3.73504 -1.06896 0
M  V30 6763 H 627.128 -4.37554 1.46096 0
M  V30 6764 H 625.371 -4.09219 1.43952 0
M  V30 6765 H 626.042 -5.48828 0.590905 0
M  V30 6766 H 628.518 -4.0947 -0.73981 0
M  V30 6767 H 627.394 -5.30487 -1.40977 0
M  V30 6768 H 627.655 -3.79478 -2.26824 0
M  V30 6769 N 626.714 -0.118576 -1.57153 0
M  V30 6770 C 627.942 0.54726 -1.99531 0
M  V30 6771 C 628.357 1.60251 -0.998246 0
M  V30 6772 O 627.714 1.82498 0.00893106 0
M  V30 6773 C 627.765 1.17378 -3.41913 0
M  V30 6774 O 627.486 0.160703 -4.37805 0
M  V30 6775 C 628.987 1.92297 -3.9942 0
M  V30 6776 H 626.207 0.144919 -0.655164 0
M  V30 6777 H 628.751 -0.20479 -2.03472 0
M  V30 6778 H 626.906 1.87661 -3.38913 0
M  V30 6779 H 627.32 0.61586 -5.20872 0
M  V30 6780 H 628.794 2.31462 -5.01128 0
M  V30 6781 H 629.271 2.79801 -3.38538 0
M  V30 6782 H 629.877 1.26777 -4.05965 0
M  V30 6783 N 628.193 1.56834 0.155195 0
M  V30 6784 C 629.604 1.72421 0.716082 0
M  V30 6785 C 629.955 0.731685 1.82046 0
M  V30 6786 O 629.08 -0.103481 2.16152 0
M  V30 6787 C 629.675 3.12629 1.30571 0
M  V30 6788 C 628.234 3.29846 1.81325 0
M  V30 6789 C 627.381 2.68359 0.698494 0
M  V30 6790 H 630.332 1.58544 -0.0703861 0
M  V30 6791 H 630.353 3.12174 2.1755 0
M  V30 6792 H 629.865 3.84844 0.501701 0
M  V30 6793 H 627.966 2.62614 2.64319 0
M  V30 6794 H 628.079 4.37727 1.9476 0
M  V30 6795 H 626.443 2.28604 1.12305 0
M  V30 6796 H 627.226 3.43171 -0.0939366 0
M  V30 6797 N 629.671 -0.424282 1.51781 0
M  V30 6798 C 630.603 -1.53457 1.70246 0
M  V30 6799 C 631.616 -1.52004 0.582967 0
M  V30 6800 O 632.805 -1.56544 0.857683 0
M  V30 6801 C 629.905 -2.92368 1.71389 0
M  V30 6802 C 629.078 -3.1818 3.00133 0
M  V30 6803 C 628.137 -4.36884 2.9329 0
M  V30 6804 O 627.163 -4.34901 3.67219 0
M  V30 6805 N 628.365 -5.4117 2.10036 0
M  V30 6806 H 631.13 -1.38017 2.66029 0
M  V30 6807 H 628.691 -0.613394 1.4983 0
M  V30 6808 H 630.683 -3.6982 1.64362 0
M  V30 6809 H 629.253 -3.0134 0.831449 0
M  V30 6810 H 628.473 -2.28908 3.20928 0
M  V30 6811 H 629.761 -3.32261 3.85331 0
M  V30 6812 H 629.159 -5.45623 1.49373 0
M  V30 6813 H 627.716 -6.17425 2.08878 0
M  V30 6814 N 631.149 -1.42148 -0.680565 0
M  V30 6815 C 632.565 -1.24947 -0.992995 0
M  V30 6816 C 632.765 -0.149527 -2.00944 0
M  V30 6817 O 631.821 0.481145 -2.47873 0
M  V30 6818 C 633.134 -2.60426 -1.5033 0
M  V30 6819 C 634.682 -2.67733 -1.62137 0
M  V30 6820 C 635.157 -4.03564 -2.16565 0
M  V30 6821 N 636.648 -4.05488 -2.23905 0
M  V30 6822 C 637.383 -5.07401 -2.67081 0
M  V30 6823 N 636.879 -6.19698 -3.09751 0
M  V30 6824 N 638.672 -4.94758 -2.66778 0
M  V30 6825 H 630.823 -2.12399 -0.0074788 0
M  V30 6826 H 633.086 -0.94571 -0.0658529 0
M  V30 6827 H 632.792 -3.41743 -0.830947 0
M  V30 6828 H 632.666 -2.83949 -2.483 0
M  V30 6829 H 635.053 -1.86765 -2.2848 0
M  V30 6830 H 635.134 -2.48004 -0.626713 0
M  V30 6831 H 634.778 -4.84987 -1.50833 0
M  V30 6832 H 634.708 -4.20641 -3.1681 0
M  V30 6833 H 637.199 -3.24415 -1.93812 0
M  V30 6834 H 637.512 -6.93318 -3.41365 0
M  V30 6835 H 635.857 -6.23212 -3.07623 0
M  V30 6836 H 639.048 -4.06105 -2.32801 0
M  V30 6837 H 639.221 -5.74317 -3.00107 0
M  V30 6838 N 632.627 0.916307 -1.28225 0
M  V30 6839 C 633.537 2.05165 -1.13775 0
M  V30 6840 C 634.553 1.73879 -0.0649418 0
M  V30 6841 O 635.729 1.99531 -0.273722 0
M  V30 6842 C 632.794 3.37385 -0.798267 0
M  V30 6843 C 631.855 3.82296 -1.95316 0
M  V30 6844 C 631.088 5.08206 -1.62978 0
M  V30 6845 O 631.311 5.6781 -0.542948 0
M  V30 6846 O 630.245 5.48768 -2.47261 0
M  V30 6847 H 634.071 2.20273 -2.09078 0
M  V30 6848 H 631.656 1.0373 -1.07519 0
M  V30 6849 H 633.538 4.16773 -0.62278 0
M  V30 6850 H 632.213 3.23458 0.125139 0
M  V30 6851 H 631.12 3.03746 -2.18378 0
M  V30 6852 H 632.453 4.00782 -2.85718 0
M  V30 6853 N 634.105 1.10431 1.1244 0
M  V30 6854 C 635.053 0.747974 2.20246 0
M  V30 6855 C 636.047 -0.255848 1.67457 0
M  V30 6856 O 637.253 -0.116221 1.79624 0
M  V30 6857 H 633.628 0.223946 0.71788 0
M  V30 6858 H 635.599 1.6661 2.47556 0
M  V30 6859 C 634.348 0.195957 3.47147 0
M  V30 6860 H 633.671 0.959606 3.88113 0
M  V30 6861 H 635.111 -0.0153154 4.23997 0
M  V30 6862 C 633.57 -1.07132 3.19413 0
M  V30 6863 O 634.1 -2.15284 3.3914 0
M  V30 6864 N 632.306 -0.98994 2.73219 0
M  V30 6865 H 631.853 -0.109736 2.57366 0
M  V30 6866 H 631.811 -1.83856 2.55038 0
M  V30 6867 N 635.583 -1.29855 0.893053 0
M  V30 6868 C 636.808 -2.00512 0.530066 0
M  V30 6869 C 637.233 -1.66446 -0.876199 0
M  V30 6870 O 636.591 -0.885446 -1.58207 0
M  V30 6871 C 636.639 -3.53308 0.721505 0
M  V30 6872 O 635.743 -4.11764 -0.228994 0
M  V30 6873 H 635.084 -0.630617 0.207891 0
M  V30 6874 H 637.614 -1.6551 1.20282 0
M  V30 6875 H 637.624 -4.03206 0.623599 0
M  V30 6876 H 636.299 -3.77439 1.74678 0
M  V30 6877 H 634.876 -3.72805 -0.0841034 0
M  V30 6878 N 637.061 -0.65484 -1.43351 0
M  V30 6879 C 637.994 0.0855537 -2.2804 0
M  V30 6880 C 638.972 0.828301 -1.39921 0
M  V30 6881 O 640.156 0.827539 -1.69364 0
M  V30 6882 C 637.283 1.12792 -3.19368 0
M  V30 6883 C 636.329 0.483037 -4.23756 0
M  V30 6884 S 637.162 -0.744605 -5.30298 0
M  V30 6885 C 638.318 0.297187 -6.25194 0
M  V30 6886 H 638.551 -0.632831 -2.90487 0
M  V30 6887 H 636.084 -0.44373 -1.47886 0
M  V30 6888 H 638.042 1.7243 -3.72529 0
M  V30 6889 H 636.703 1.81863 -2.56095 0
M  V30 6890 H 635.896 1.26888 -4.87766 0
M  V30 6891 H 635.498 -0.0392713 -3.73979 0
M  V30 6892 H 637.79 1.1629 -6.67445 0
M  V30 6893 H 638.733 -0.30793 -7.0743 0
M  V30 6894 H 639.141 0.633721 -5.60932 0
M  V30 6895 N 638.539 1.52521 -0.396863 0
M  V30 6896 C 639.502 2.2527 0.422604 0
M  V30 6897 C 640.502 1.27184 0.983913 0
M  V30 6898 O 641.692 1.51222 0.864723 0
M  V30 6899 C 638.824 3.01356 1.59365 0
M  V30 6900 H 640.017 2.99133 -0.214416 0
M  V30 6901 H 637.57 1.55587 -0.149128 0
M  V30 6902 H 638.305 2.31813 2.26789 0
M  V30 6903 H 638.09 3.73357 1.19779 0
M  V30 6904 H 639.58 3.56571 2.17363 0
M  V30 6905 N 640.017 0.126909 1.57088 0
M  V30 6906 C 641.257 -0.53216 1.97351 0
M  V30 6907 C 641.621 -1.63342 1.00913 0
M  V30 6908 O 642.822 -2.35194 1.30144 0
M  V30 6909 C 641.093 -1.04385 3.41817 0
M  V30 6910 S 642.652 -1.71033 4.04095 0
M  V30 6911 H 639.47 -0.172724 0.689701 0
M  V30 6912 H 642.072 0.213865 1.94327 0
M  V30 6913 H 640.776 -0.231289 4.09748 0
M  V30 6914 H 640.307 -1.82496 3.48509 0
M  V30 6915 H 642.322 -2.99656 3.95501 0
M  V30 6916 N 641.495 -1.56914 -0.146875 0
M  V30 6917 C 642.741 -1.83628 -0.860741 0
M  V30 6918 C 643.074 -0.708528 -1.80813 0
M  V30 6919 O 642.349 0.287838 -1.92358 0
M  V30 6920 C 642.632 -3.20836 -1.63511 0
M  V30 6921 C 642.485 -4.44174 -0.709199 0
M  V30 6922 C 643.804 -3.55268 -2.59756 0
M  V30 6923 H 640.923 -0.667949 -0.311468 0
M  V30 6924 H 643.565 -1.89582 -0.125936 0
M  V30 6925 H 641.715 -3.15891 -2.26153 0
M  V30 6926 H 643.387 -4.61205 -0.0937781 0
M  V30 6927 H 641.63 -4.33796 -0.0187856 0
M  V30 6928 H 642.301 -5.36785 -1.28707 0
M  V30 6929 H 644.777 -3.60824 -2.07232 0
M  V30 6930 H 643.653 -4.52303 -3.10987 0
M  V30 6931 H 643.914 -2.81231 -3.41118 0
M  V30 6932 N 642.974 0.416227 -1.52004 0
M  V30 6933 C 644.199 1.19029 -1.69843 0
M  V30 6934 C 644.624 1.83708 -0.404103 0
M  V30 6935 O 643.982 1.69711 0.637787 0
M  V30 6936 C 644.03 2.23439 -2.83032 0
M  V30 6937 O 643.134 3.29419 -2.48106 0
M  V30 6938 H 642.475 0.347785 -0.565634 0
M  V30 6939 H 645.005 0.488871 -1.98674 0
M  V30 6940 H 645.015 2.67884 -3.07737 0
M  V30 6941 H 643.69 1.75745 -3.76944 0
M  V30 6942 H 642.267 2.90303 -2.34048 0
M  V30 6943 N 644.452 1.42507 0.673017 0
M  V30 6944 C 645.699 1.43072 1.43306 0
M  V30 6945 C 646.027 0.0478004 1.94441 0
M  V30 6946 O 645.282 -0.944106 1.71421 0
M  V30 6947 C 645.581 2.40351 2.64511 0
M  V30 6948 C 645.247 3.8669 2.31908 0
M  V30 6949 C 643.909 4.26551 2.22728 0
M  V30 6950 C 646.261 4.78991 2.05467 0
M  V30 6951 C 643.589 5.56691 1.85234 0
M  V30 6952 C 645.941 6.09476 1.69477 0
M  V30 6953 C 644.605 6.48334 1.58808 0
M  V30 6954 H 643.875 0.523536 0.524395 0
M  V30 6955 H 646.522 1.75459 0.76723 0
M  V30 6956 H 644.827 2.01297 3.36135 0
M  V30 6957 H 646.524 2.38051 3.22696 0
M  V30 6958 H 643.114 3.55132 2.39956 0
M  V30 6959 H 647.298 4.48982 2.11492 0
M  V30 6960 H 642.554 5.85657 1.75545 0
M  V30 6961 H 646.728 6.80482 1.48043 0
M  V30 6962 H 644.355 7.49084 1.29525 0
M  V30 6963 N 645.93 -0.909495 1.28709 0
M  V30 6964 C 647.341 -1.47419 1.14563 0
M  V30 6965 C 647.692 -1.94432 -0.262832 0
M  V30 6966 O 646.817 -1.82842 -1.15748 0
M  V30 6967 C 647.412 -2.67933 2.07358 0
M  V30 6968 C 645.971 -3.20568 1.97264 0
M  V30 6969 C 645.118 -1.93269 1.98852 0
M  V30 6970 H 648.069 -0.721787 1.41336 0
M  V30 6971 H 648.09 -3.43339 1.64007 0
M  V30 6972 H 647.602 -2.33685 3.09859 0
M  V30 6973 H 645.703 -3.59531 0.978157 0
M  V30 6974 H 645.816 -3.85529 2.84436 0
M  V30 6975 H 644.18 -2.10553 1.43317 0
M  V30 6976 H 644.963 -1.61312 3.0304 0
M  V30 6977 N 647.408 -1.11026 -1.11852 0
M  V30 6978 C 648.636 -0.878818 -1.87308 0
M  V30 6979 C 649.051 0.57111 -1.79955 0
M  V30 6980 O 648.408 1.39409 -1.17777 0
M  V30 6981 C 648.459 -1.3264 -3.36287 0
M  V30 6982 O 648.18 -2.71948 -3.43476 0
M  V30 6983 C 649.681 -1.12974 -4.28663 0
M  V30 6984 H 646.901 -0.315015 -0.592458 0
M  V30 6985 H 649.445 -1.47649 -1.41492 0
M  V30 6986 H 647.6 -0.772269 -3.79625 0
M  V30 6987 H 648.014 -2.91241 -4.3621 0
M  V30 6988 H 649.488 -1.49198 -5.31454 0
M  V30 6989 H 649.965 -0.0689127 -4.39146 0
M  V30 6990 H 650.571 -1.67064 -3.91113 0
M  V30 6991 N 648.886 1.2938 -0.899927 0
M  V30 6992 C 650.126 1.97332 -0.532871 0
M  V30 6993 C 650.49 1.69385 0.904029 0
M  V30 6994 O 651.691 2.30793 1.37797 0
M  V30 6995 C 649.962 3.47927 -0.817393 0
M  V30 6996 S 651.521 4.3528 -0.55468 0
M  V30 6997 H 648.339 0.682966 -0.197683 0
M  V30 6998 H 650.941 1.57189 -1.16241 0
M  V30 6999 H 649.645 3.65761 -1.86138 0
M  V30 7000 H 649.176 3.93006 -0.175978 0
M  V30 7001 H 651.191 4.92557 0.600182 0
M  V30 7002 N 650.364 0.662433 1.43002 0
M  V30 7003 C 651.775 0.258315 1.84904 0
M  V30 7004 C 652.126 -1.19703 1.55453 0
M  V30 7005 O 651.251 -1.91484 1.00811 0
M  V30 7006 C 651.846 0.462047 3.35635 0
M  V30 7007 C 650.405 0.112165 3.76233 0
M  V30 7008 C 649.552 0.760479 2.66668 0
M  V30 7009 H 652.503 0.865467 1.33024 0
M  V30 7010 H 652.524 -0.289646 3.79396 0
M  V30 7011 H 652.036 1.52135 3.57039 0
M  V30 7012 H 650.137 -0.944179 3.60439 0
M  V30 7013 H 650.25 0.544058 4.76001 0
M  V30 7014 H 648.614 0.192887 2.53969 0
M  V30 7015 H 649.397 1.82299 2.90898 0
M  V30 7016 N 651.842 -1.52309 0.404946 0
M  V30 7017 C 652.772 -2.29805 -0.41376 0
M  V30 7018 C 653.753 -1.3384 -1.0498 0
M  V30 7019 O 654.938 -1.62745 -1.05961 0
M  V30 7020 C 652.068 -3.11639 -1.53292 0
M  V30 7021 C 651.022 -4.15616 -1.02211 0
M  V30 7022 C 650.348 -4.8577 -2.23455 0
M  V30 7023 C 651.648 -5.2224 -0.0790725 0
M  V30 7024 H 653.342 -2.98493 0.232878 0
M  V30 7025 H 650.888 -1.43552 0.113441 0
M  V30 7026 H 652.841 -3.64618 -2.11262 0
M  V30 7027 H 651.565 -2.40712 -2.20738 0
M  V30 7028 H 650.224 -3.63641 -0.46484 0
M  V30 7029 H 649.872 -4.11376 -2.89445 0
M  V30 7030 H 649.572 -5.56058 -1.89929 0
M  V30 7031 H 651.096 -5.4156 -2.82038 0
M  V30 7032 H 652.51 -5.70485 -0.567438 0
M  V30 7033 H 650.907 -5.99867 0.167167 0
M  V30 7034 H 651.977 -4.77078 0.867447 0
M  V30 7035 N 653.32 -0.135238 -1.57019 0
M  V30 7036 C 654.283 0.794707 -2.14981 0
M  V30 7037 C 655.283 1.18342 -1.08866 0
M  V30 7038 O 656.473 1.10627 -1.34563 0
M  V30 7039 C 653.605 2.07685 -2.70333 0
M  V30 7040 H 654.798 0.290696 -2.98488 0
M  V30 7041 H 652.351 0.114128 -1.55883 0
M  V30 7042 H 653.086 2.6248 -1.9046 0
M  V30 7043 H 652.871 1.80745 -3.47957 0
M  V30 7044 H 654.361 2.74127 -3.1503 0
M  V30 7045 N 654.798 1.5699 0.138552 0
M  V30 7046 C 655.731 1.94064 1.2006 0
M  V30 7047 C 656.709 0.807601 1.41126 0
M  V30 7048 O 657.893 1.06399 1.556 0
M  V30 7049 C 655.02 2.21999 2.55801 0
M  V30 7050 C 654.066 3.44617 2.5128 0
M  V30 7051 S 654.899 4.97888 1.97149 0
M  V30 7052 C 656.055 5.28954 3.34602 0
M  V30 7053 H 656.288 2.83843 0.884337 0
M  V30 7054 H 653.821 1.50507 0.344517 0
M  V30 7055 H 655.779 2.38772 3.33914 0
M  V30 7056 H 654.44 1.32869 2.84613 0
M  V30 7057 H 653.633 3.61466 3.51224 0
M  V30 7058 H 653.235 3.27129 1.8128 0
M  V30 7059 H 655.527 5.22938 4.30745 0
M  V30 7060 H 656.47 6.30346 3.22598 0
M  V30 7061 H 656.878 4.56455 3.32128 0
M  V30 7062 N 656.276 -0.40816 1.52223 0
M  V30 7063 C 657.239 -1.48 1.7501 0
M  V30 7064 C 658.239 -1.48367 0.619996 0
M  V30 7065 O 659.429 -1.49874 0.887881 0
M  V30 7066 C 656.561 -2.87403 1.83336 0
M  V30 7067 H 657.754 -1.29086 2.70697 0
M  V30 7068 H 655.307 -0.638715 1.42654 0
M  V30 7069 H 656.042 -3.11686 0.895677 0
M  V30 7070 H 655.827 -2.8854 2.65494 0
M  V30 7071 H 657.317 -3.65103 2.02705 0
M  V30 7072 N 657.755 -1.42862 -0.66545 0
M  V30 7073 C 658.665 -1.49491 -1.80803 0
M  V30 7074 C 659.681 -0.382914 -1.69734 0
M  V30 7075 O 660.857 -0.635223 -1.9112 0
M  V30 7076 C 657.922 -1.40383 -3.17007 0
M  V30 7077 C 656.983 -2.62152 -3.39963 0
M  V30 7078 C 656.216 -2.53469 -4.69669 0
M  V30 7079 O 656.439 -1.57568 -5.48205 0
M  V30 7080 O 655.373 -3.43763 -4.94075 0
M  V30 7081 H 659.199 -2.45949 -1.78165 0
M  V30 7082 H 656.784 -1.24728 -0.822387 0
M  V30 7083 H 658.666 -1.377 -3.98267 0
M  V30 7084 H 657.341 -0.470546 -3.20262 0
M  V30 7085 H 656.248 -2.70409 -2.58515 0
M  V30 7086 H 657.581 -3.54411 -3.41546 0
M  V30 7087 N 659.233 0.902656 -1.29189 0
M  V30 7088 C 660.196 1.98797 -1.14071 0
M  V30 7089 C 661.196 1.60615 -0.0770549 0
M  V30 7090 O 662.386 1.71165 -0.323753 0
M  V30 7091 C 659.518 3.32688 -0.743739 0
M  V30 7092 H 660.711 2.13637 -2.10473 0
M  V30 7093 H 658.264 1.08678 -1.12334 0
M  V30 7094 H 658.999 3.23549 0.220554 0
M  V30 7095 H 658.784 3.61765 -1.51223 0
M  V30 7096 H 660.274 4.12337 -0.660935 0
M  V30 7097 N 660.711 1.11618 1.11262 0
M  V30 7098 C 661.621 0.78898 2.20935 0
M  V30 7099 C 662.637 -0.21867 1.7262 0
M  V30 7100 O 663.813 -0.0543826 2.01327 0
M  V30 7101 C 660.878 0.239014 3.45875 0
M  V30 7102 C 659.939 1.3055 4.08968 0
M  V30 7103 C 659.172 0.781687 5.27944 0
M  V30 7104 O 659.395 -0.387605 5.69082 0
M  V30 7105 O 658.329 1.54734 5.81671 0
M  V30 7106 H 662.155 1.70477 2.51339 0
M  V30 7107 H 659.74 0.892203 1.19834 0
M  V30 7108 H 661.622 -0.0632312 4.21353 0
M  V30 7109 H 660.297 -0.649454 3.17118 0
M  V30 7110 H 659.204 1.66079 3.35214 0
M  V30 7111 H 660.537 2.16743 4.41909 0
M  V30 7112 N 662.189 -1.289 0.906776 0
M  V30 7113 C 663.605 -1.47733 0.603902 0
M  V30 7114 C 663.805 -1.82568 -0.852702 0
M  V30 7115 O 662.861 -1.92642 -1.63234 0
M  V30 7116 C 664.174 -2.58522 1.53581 0
M  V30 7117 C 665.722 -2.72394 1.54177 0
M  V30 7118 C 666.197 -3.86318 2.46013 0
M  V30 7119 N 667.688 -3.93661 2.441 0
M  V30 7120 C 668.423 -4.81177 3.11859 0
M  V30 7121 N 667.919 -5.73333 3.88923 0
M  V30 7122 N 669.712 -4.74728 3.00981 0
M  V30 7123 H 661.863 -1.04567 1.84877 0
M  V30 7124 H 664.126 -0.520118 0.792579 0
M  V30 7125 H 663.832 -2.39667 2.57396 0
M  V30 7126 H 663.706 -3.55475 1.26165 0
M  V30 7127 H 666.093 -2.90641 0.511034 0
M  V30 7128 H 666.174 -1.75993 1.85634 0
M  V30 7129 H 665.818 -3.68826 3.49185 0
M  V30 7130 H 665.748 -4.82102 2.11862 0
M  V30 7131 H 668.239 -3.27751 1.88115 0
M  V30 7132 H 668.552 -6.36923 4.37663 0
M  V30 7133 H 666.897 -5.73196 3.93029 0
M  V30 7134 H 670.088 -4.01722 2.40286 0
M  V30 7135 H 670.261 -5.42719 3.54062 0
M  V30 7136 N 663.667 -0.670007 -1.42649 0
M  V30 7137 C 664.914 -0.190286 -2.01604 0
M  V30 7138 C 665.242 1.20155 -1.52948 0
M  V30 7139 O 664.497 1.81964 -0.72026 0
M  V30 7140 C 664.796 -0.168298 -3.57004 0
M  V30 7141 C 664.462 -1.50415 -4.25072 0
M  V30 7142 C 663.124 -1.86992 -4.43382 0
M  V30 7143 C 665.476 -2.38414 -4.63474 0
M  V30 7144 C 662.804 -3.11203 -4.97363 0
M  V30 7145 C 665.156 -3.61933 -5.18833 0
M  V30 7146 C 663.82 -3.98685 -5.35356 0
M  V30 7147 H 663.09 -0.0696305 -0.737721 0
M  V30 7148 H 665.737 -0.864044 -1.70899 0
M  V30 7149 H 664.042 0.588958 -3.87348 0
M  V30 7150 H 665.739 0.22001 -4.00396 0
M  V30 7151 H 662.329 -1.20959 -4.11177 0
M  V30 7152 H 666.513 -2.11442 -4.49006 0
M  V30 7153 H 661.769 -3.39705 -5.08341 0
M  V30 7154 H 665.943 -4.30326 -5.47533 0
M  V30 7155 H 663.57 -4.95009 -5.76949 0
M  V30 7156 N 665.145 1.52092 -0.413018 0
M  V30 7157 C 666.075 2.30021 0.401567 0
M  V30 7158 C 667.056 1.34395 1.04269 0
M  V30 7159 O 668.241 1.63304 1.05097 0
M  V30 7160 C 665.371 3.12447 1.51638 0
M  V30 7161 C 664.325 4.16153 1.00005 0
M  V30 7162 C 663.651 4.86948 2.20875 0
M  V30 7163 C 664.951 5.22275 0.0513757 0
M  V30 7164 H 666.645 2.98365 -0.248704 0
M  V30 7165 H 664.191 1.4349 -0.121052 0
M  V30 7166 H 666.144 3.65733 2.09326 0
M  V30 7167 H 664.868 2.41879 2.19458 0
M  V30 7168 H 663.527 3.63882 0.445549 0
M  V30 7169 H 663.175 4.12905 2.8726 0
M  V30 7170 H 662.875 5.57057 1.86978 0
M  V30 7171 H 664.399 5.43048 2.79162 0
M  V30 7172 H 665.813 5.70778 0.537176 0
M  V30 7173 H 664.21 5.9977 -0.198977 0
M  V30 7174 H 665.28 4.76611 -0.892736 0
M  V30 7175 N 666.623 0.143563 1.56945 0
M  V30 7176 C 668.034 -0.37783 1.82837 0
M  V30 7177 C 668.385 -1.64967 1.06209 0
M  V30 7178 O 667.51 -2.14221 0.306291 0
M  V30 7179 C 668.105 -0.692274 3.31652 0
M  V30 7180 C 666.664 -1.1582 3.58138 0
M  V30 7181 C 665.811 -0.17951 2.76718 0
M  V30 7182 H 668.762 0.368317 1.54367 0
M  V30 7183 H 668.783 -1.54729 3.47619 0
M  V30 7184 H 668.295 0.233572 3.87397 0
M  V30 7185 H 666.396 -2.10011 3.07776 0
M  V30 7186 H 666.509 -1.08655 4.66616 0
M  V30 7187 H 664.873 -0.671458 2.4569 0
M  V30 7188 H 665.656 0.739865 3.35233 0
M  V30 7189 N 668.101 -1.57061 -0.130224 0
M  V30 7190 C 669.326 -1.88802 -0.858409 0
M  V30 7191 C 669.751 -0.734353 -1.73173 0
M  V30 7192 O 669.109 0.315529 -1.78533 0
M  V30 7193 C 669.157 -3.19228 -1.67708 0
M  V30 7194 O 668.261 -3.04343 -2.78297 0
M  V30 7195 H 667.602 -0.619849 -0.238083 0
M  V30 7196 H 670.132 -2.04271 -0.115995 0
M  V30 7197 H 670.142 -3.51669 -2.06864 0
M  V30 7198 H 668.817 -4.02793 -1.0359 0
M  V30 7199 H 667.394 -2.83346 -2.42425 0
M  V30 7200 N 669.579 0.400081 -1.52437 0
M  V30 7201 C 670.826 1.14619 -1.6694 0
M  V30 7202 C 671.154 1.90262 -0.403797 0
M  V30 7203 O 670.409 1.85835 0.61351 0
M  V30 7204 C 670.708 2.15914 -2.84808 0
M  V30 7205 C 670.374 1.57011 -4.2268 0
M  V30 7206 C 669.036 1.40672 -4.60179 0
M  V30 7207 C 671.388 1.14081 -5.08562 0
M  V30 7208 C 668.716 0.799335 -5.81229 0
M  V30 7209 C 671.068 0.547573 -6.30226 0
M  V30 7210 C 669.732 0.371389 -6.66466 0
M  V30 7211 H 669.002 0.419419 -0.610875 0
M  V30 7212 H 671.649 0.432227 -1.86558 0
M  V30 7213 H 669.954 2.93488 -2.59561 0
M  V30 7214 H 671.651 2.73533 -2.93225 0
M  V30 7215 H 668.241 1.70713 -3.93135 0
M  V30 7216 H 672.425 1.2551 -4.80168 0
M  V30 7217 H 667.681 0.65093 -6.07925 0
M  V30 7218 H 671.855 0.206575 -6.96094 0
M  V30 7219 H 669.482 -0.10135 -7.60132 0
M  V30 7220 N 671.057 1.43213 0.657864 0
M  V30 7221 C 672.306 1.43871 1.41365 0
M  V30 7222 C 672.619 0.064898 1.95492 0
M  V30 7223 O 673.825 -0.0510796 2.71452 0
M  V30 7224 C 672.281 2.53158 2.55811 0
M  V30 7225 C 671.889 3.96624 2.08311 0
M  V30 7226 C 673.633 2.63004 3.3321 0
M  V30 7227 C 671.54 4.97385 3.1994 0
M  V30 7228 H 670.47 0.535174 0.531136 0
M  V30 7229 H 673.121 1.69185 0.710543 0
M  V30 7230 H 671.503 2.21037 3.2857 0
M  V30 7231 H 672.677 4.38182 1.42593 0
M  V30 7232 H 670.992 3.90781 1.43804 0
M  V30 7233 H 673.589 3.3546 4.16378 0
M  V30 7234 H 673.932 1.67918 3.80932 0
M  V30 7235 H 674.465 2.94403 2.67529 0
M  V30 7236 H 671.204 5.94007 2.77192 0
M  V30 7237 H 670.724 4.60444 3.84385 0
M  V30 7238 H 672.403 5.19877 3.85145 0
M  V30 7239 N 672.536 -0.895792 1.29666 0
M  V30 7240 C 673.813 -1.62723 1.08538 0
M  V30 7241 C 674.193 -2.07848 -0.369119 0
M  V30 7242 O 673.541 -1.8372 -1.35864 0
M  V30 7243 C 673.751 -2.80505 2.07648 0
M  V30 7244 C 675.099 -3.51098 2.3878 0
M  V30 7245 O 676.123 -2.90679 2.05874 0
M  V30 7246 O 674.982 -4.60028 2.9502 0
M  V30 7247 H 672.076 -0.714692 0.416106 0
M  V30 7248 H 674.622 -0.943517 1.41053 0
M  V30 7249 H 673.394 -2.44386 3.05599 0
M  V30 7250 H 673.017 -3.5658 1.75887 0
M  V30 7251 N 674.014 -1.12206 -1.10668 0
M  V30 7252 C 674.962 -0.782918 -2.19028 0
M  V30 7253 C 675.956 0.229175 -1.67843 0
M  V30 7254 O 677.162 0.0876295 -1.79787 0
M  V30 7255 H 673.537 -0.235339 -0.714227 0
M  V30 7256 H 675.508 -1.70527 -2.44874 0
M  V30 7257 C 674.257 -0.25116 -3.46792 0
M  V30 7258 H 673.58 -1.02123 -3.86537 0
M  V30 7259 H 675.02 -0.0521409 -4.23968 0
M  V30 7260 C 673.479 1.02037 -3.21076 0
M  V30 7261 O 674.009 2.09862 -3.42522 0
M  V30 7262 N 672.215 0.946348 -2.74759 0
M  V30 7263 H 671.762 0.068777 -2.57508 0
M  V30 7264 H 671.72 1.79775 -2.57931 0
M  V30 7265 N 675.492 1.28418 -0.913599 0
M  V30 7266 C 676.741 1.94265 -0.542572 0
M  V30 7267 C 677.054 1.72709 0.918207 0
M  V30 7268 O 678.26 2.32778 1.39738 0
M  V30 7269 C 676.716 3.47956 -0.919507 0
M  V30 7270 C 676.324 3.78291 -2.4 0
M  V30 7271 C 678.068 4.19962 -0.619057 0
M  V30 7272 C 675.975 5.2529 -2.71707 0
M  V30 7273 H 674.905 0.727213 -0.199192 0
M  V30 7274 H 677.556 1.45931 -1.11249 0
M  V30 7275 H 675.938 3.9502 -0.278372 0
M  V30 7276 H 677.112 3.42035 -3.08786 0
M  V30 7277 H 675.427 3.19456 -2.67089 0
M  V30 7278 H 678.024 5.28178 -0.832623 0
M  V30 7279 H 678.367 4.13935 0.443126 0
M  V30 7280 H 678.9 3.78674 -1.21865 0
M  V30 7281 H 675.639 5.36394 -3.76778 0
M  V30 7282 H 675.159 5.62743 -2.07559 0
M  V30 7283 H 676.838 5.93027 -2.58703 0
M  V30 7284 N 676.97 0.677563 1.42291 0
M  V30 7285 C 678.247 0.129803 1.95169 0
M  V30 7286 C 678.627 -1.35605 1.61786 0
M  V30 7287 O 677.975 -2.09361 0.915444 0
M  V30 7288 C 678.185 0.401889 3.46678 0
M  V30 7289 C 679.533 0.319889 4.23393 0
M  V30 7290 O 680.557 0.33579 3.54614 0
M  V30 7291 O 679.416 0.264459 5.4586 0
M  V30 7292 H 676.51 0.00447433 0.826988 0
M  V30 7293 H 679.056 0.752483 1.52105 0
M  V30 7294 H 677.828 1.43108 3.64192 0
M  V30 7295 H 677.451 -0.252662 3.96796 0
M  V30 7296 N 678.448 -1.51871 0.421078 0
M  V30 7297 C 679.396 -2.28903 -0.413066 0
M  V30 7298 C 680.39 -1.3408 -1.03532 0
M  V30 7299 O 681.596 -1.5149 -0.972146 0
M  V30 7300 H 677.971 -0.736478 -0.152003 0
M  V30 7301 H 679.942 -2.97285 0.257695 0
M  V30 7302 C 678.691 -3.13156 -1.51091 0
M  V30 7303 H 678.014 -3.85997 -1.04145 0
M  V30 7304 H 679.454 -3.7014 -2.06814 0
M  V30 7305 C 677.913 -2.27482 -2.48503 0
M  V30 7306 O 678.443 -1.92325 -3.52667 0
M  V30 7307 N 676.649 -1.91019 -2.18998 0
M  V30 7308 H 676.196 -2.19808 -1.34322 0
M  V30 7309 H 676.154 -1.3399 -2.84419 0
M  V30 7310 N 679.926 -0.151884 -1.56866 0
M  V30 7311 C 680.856 0.781943 -2.20018 0
M  V30 7312 C 681.837 1.25347 -1.14987 0
M  V30 7313 O 683.022 1.31015 -1.43348 0
M  V30 7314 C 680.152 2.01928 -2.82564 0
M  V30 7315 C 679.106 1.68434 -3.93464 0
M  V30 7316 C 678.432 2.99472 -4.42968 0
M  V30 7317 C 679.732 0.927244 -5.14003 0
M  V30 7318 H 681.426 0.255607 -2.98307 0
M  V30 7319 H 678.972 0.121502 -1.43486 0
M  V30 7320 H 680.925 2.67741 -3.25411 0
M  V30 7321 H 679.649 2.56943 -2.01614 0
M  V30 7322 H 678.308 1.04998 -3.51242 0
M  V30 7323 H 677.956 3.52488 -3.58834 0
M  V30 7324 H 677.656 2.77823 -5.17772 0
M  V30 7325 H 679.18 3.66348 -4.88489 0
M  V30 7326 H 680.594 1.48756 -5.53665 0
M  V30 7327 H 678.991 0.810513 -5.94601 0
M  V30 7328 H 680.061 -0.0801163 -4.84834 0
M  V30 7329 N 681.404 1.57128 0.121893 0
M  V30 7330 C 682.337 1.95327 1.17995 0
M  V30 7331 C 683.315 0.822524 1.40262 0
M  V30 7332 O 684.499 1.08044 1.54463 0
M  V30 7333 C 681.626 2.24699 2.53432 0
M  V30 7334 C 680.672 3.47263 2.4761 0
M  V30 7335 S 681.505 4.99951 1.91857 0
M  V30 7336 C 682.661 5.32473 3.28973 0
M  V30 7337 H 682.894 2.84765 0.854182 0
M  V30 7338 H 680.427 1.50864 0.328534 0
M  V30 7339 H 682.385 2.423 3.31362 0
M  V30 7340 H 681.046 1.3588 2.83188 0
M  V30 7341 H 680.239 3.65171 3.4737 0
M  V30 7342 H 679.841 3.29034 1.778 0
M  V30 7343 H 682.133 5.27478 4.25175 0
M  V30 7344 H 683.076 6.33732 3.15895 0
M  V30 7345 H 683.484 4.59952 3.27268 0
M  V30 7346 N 682.882 -0.391992 1.52647 0
M  V30 7347 C 683.845 -1.46135 1.7657 0
M  V30 7348 C 684.845 -1.47701 0.635698 0
M  V30 7349 O 686.035 -1.48924 0.903728 0
M  V30 7350 C 683.167 -2.85443 1.86374 0
M  V30 7351 H 684.36 -1.26208 2.72051 0
M  V30 7352 H 681.913 -0.623549 1.43323 0
M  V30 7353 H 682.648 -3.10718 0.928685 0
M  V30 7354 H 682.433 -2.85708 2.68539 0
M  V30 7355 H 683.923 -3.62933 2.06566 0
M  V30 7356 N 684.36 -1.4356 -0.65026 0
M  V30 7357 C 685.307 -1.48948 -1.76304 0
M  V30 7358 C 686.277 -0.338919 -1.62605 0
M  V30 7359 O 687.462 -0.54649 -1.82806 0
M  V30 7360 C 684.602 -1.42131 -3.14472 0
M  V30 7361 C 683.715 -2.67415 -3.39284 0
M  V30 7362 C 682.85 -2.52565 -4.67316 0
M  V30 7363 C 681.889 -3.73103 -4.85243 0
M  V30 7364 N 681.026 -3.57046 -6.04535 0
M  V30 7365 H 685.866 -2.44032 -1.71034 0
M  V30 7366 H 683.403 -1.21131 -0.834601 0
M  V30 7367 H 685.361 -1.36172 -3.94351 0
M  V30 7368 H 683.991 -0.506273 -3.18805 0
M  V30 7369 H 683.043 -2.8364 -2.53481 0
M  V30 7370 H 684.355 -3.56943 -3.48415 0
M  V30 7371 H 683.509 -2.44331 -5.55326 0
M  V30 7372 H 682.248 -1.60566 -4.60511 0
M  V30 7373 H 681.253 -3.81743 -3.95667 0
M  V30 7374 H 682.478 -4.66115 -4.93876 0
M  V30 7375 H 680.424 -2.67783 -5.98856 0
M  V30 7376 H 680.341 -4.40178 -6.14638 0
M  V30 7377 H 681.609 -3.52669 -6.95158 0
M  V30 7378 N 685.838 0.888903 -1.30139 0
M  V30 7379 C 686.788 1.9814 -1.12803 0
M  V30 7380 C 687.772 1.60839 -0.0443137 0
M  V30 7381 O 688.964 1.74971 -0.267208 0
M  V30 7382 C 686.093 3.33416 -0.817849 0
M  V30 7383 C 685.179 3.77043 -1.94163 0
M  V30 7384 N 685.57 3.92805 -3.18651 0
M  V30 7385 C 683.868 4.06407 -1.8371 0
M  V30 7386 C 684.569 4.29746 -3.92038 0
M  V30 7387 N 683.545 4.3939 -3.20059 0
M  V30 7388 H 687.347 2.08411 -2.07225 0
M  V30 7389 H 684.861 1.07845 -1.21421 0
M  V30 7390 H 686.858 4.11405 -0.674668 0
M  V30 7391 H 685.518 3.24484 0.118344 0
M  V30 7392 H 686.529 3.78042 -3.53984 0
M  V30 7393 H 683.206 4.05972 -0.974331 0
M  V30 7394 H 684.596 4.49695 -4.99223 0
M  V30 7395 N 687.317 1.12792 1.10072 0
M  V30 7396 C 688.565 0.883796 1.81751 0
M  V30 7397 C 688.886 -0.591891 1.858 0
M  V30 7398 O 688.156 -1.43017 1.33876 0
M  V30 7399 H 686.736 0.323978 0.673088 0
M  V30 7400 H 689.398 1.42314 1.33164 0
M  V30 7401 H 688.494 1.26863 2.85153 0
M  V30 7402 N 688.795 -1.27931 0.920396 0
M  V30 7403 C 690.041 -1.94977 0.557832 0
M  V30 7404 C 690.374 -1.72224 -0.897365 0
M  V30 7405 O 689.649 -1.04705 -1.63912 0
M  V30 7406 C 689.932 -3.49289 0.875741 0
M  V30 7407 C 689.785 -3.81416 2.38416 0
M  V30 7408 C 691.104 -4.38486 0.376517 0
M  V30 7409 H 688.223 -0.708164 0.20414 0
M  V30 7410 H 690.865 -1.5118 1.15085 0
M  V30 7411 H 689.015 -3.86724 0.371062 0
M  V30 7412 H 690.687 -3.53813 2.95997 0
M  V30 7413 H 688.93 -3.28225 2.83639 0
M  V30 7414 H 689.601 -4.89198 2.55713 0
M  V30 7415 H 692.077 -4.08161 0.808945 0
M  V30 7416 H 690.953 -5.45296 0.627976 0
M  V30 7417 H 691.214 -4.36143 -0.723293 0
M  V30 7418 N 690.273 -0.685099 -1.4193 0
M  V30 7419 C 691.498 -0.218842 -2.06242 0
M  V30 7420 C 691.923 1.11923 -1.51178 0
M  V30 7421 O 691.281 1.69837 -0.634446 0
M  V30 7422 C 691.329 -0.175592 -3.60172 0
M  V30 7423 O 690.433 0.852776 -4.03487 0
M  V30 7424 H 689.774 -0.109531 -0.654904 0
M  V30 7425 H 692.304 -0.937013 -1.81882 0
M  V30 7426 H 692.314 -0.00291151 -4.08 0
M  V30 7427 H 690.989 -1.15222 -3.99621 0
M  V30 7428 H 689.566 0.650301 -3.67186 0
M  V30 7429 N 691.751 1.51645 -0.429126 0
M  V30 7430 C 693.028 1.94579 0.199614 0
M  V30 7431 C 693.408 1.3673 1.60836 0
M  V30 7432 O 692.756 0.551062 2.21756 0
M  V30 7433 C 692.966 3.48506 0.185685 0
M  V30 7434 C 694.314 4.22756 0.395282 0
M  V30 7435 O 695.338 3.55219 0.264165 0
M  V30 7436 O 694.197 5.42555 0.655475 0
M  V30 7437 H 691.291 0.816007 0.134393 0
M  V30 7438 H 693.837 1.62577 -0.486513 0
M  V30 7439 H 692.609 3.83045 -0.799508 0
M  V30 7440 H 692.232 3.86927 0.91507 0
M  V30 7441 N 693.229 0.160201 1.56784 0
M  V30 7442 C 694.139 -0.787167 2.21 0
M  V30 7443 C 695.155 -1.26167 1.19825 0
M  V30 7444 O 696.331 -1.31611 1.52448 0
M  V30 7445 C 693.396 -2.00364 2.8294 0
M  V30 7446 C 692.457 -1.5771 3.99282 0
M  V30 7447 C 691.69 -2.73558 4.58259 0
M  V30 7448 O 691.913 -3.90129 4.16119 0
M  V30 7449 O 690.847 -2.48271 5.48311 0
M  V30 7450 H 694.673 -0.270462 3.02493 0
M  V30 7451 H 692.258 -0.0674666 1.49248 0
M  V30 7452 H 694.14 -2.71529 3.22257 0
M  V30 7453 H 692.815 -2.50961 2.04451 0
M  V30 7454 H 691.722 -0.835274 3.64656 0
M  V30 7455 H 693.055 -1.11815 4.79331 0
M  V30 7456 N 694.707 -1.5719 -0.113559 0
M  V30 7457 C 695.657 -1.97166 -1.14497 0
M  V30 7458 C 696.641 -0.847413 -1.36776 0
M  V30 7459 O 697.833 -1.11114 -1.37777 0
M  V30 7460 C 694.962 -2.38411 -2.47013 0
M  V30 7461 C 694.048 -3.5748 -2.28185 0
M  V30 7462 N 694.439 -4.72998 -1.79182 0
M  V30 7463 C 692.737 -3.63218 -2.58821 0
M  V30 7464 C 693.438 -5.55007 -1.74191 0
M  V30 7465 N 692.414 -4.9765 -2.18735 0
M  V30 7466 H 696.216 -2.83937 -0.758733 0
M  V30 7467 H 693.73 -1.59191 -0.321234 0
M  V30 7468 H 695.727 -2.65269 -3.21618 0
M  V30 7469 H 694.387 -1.53007 -2.8639 0
M  V30 7470 H 695.398 -4.96109 -1.48649 0
M  V30 7471 H 692.075 -2.88434 -3.01847 0
M  V30 7472 H 693.465 -6.57678 -1.37512 0
M  V30 7473 N 696.185 0.383891 -1.52853 0
M  V30 7474 C 697.434 1.12563 -1.67369 0
M  V30 7475 C 697.747 1.90982 -0.422533 0
M  V30 7476 O 698.953 2.6778 -0.447914 0
M  V30 7477 C 697.409 2.05011 -2.95801 0
M  V30 7478 C 697.017 1.31991 -4.28115 0
M  V30 7479 C 698.761 2.79289 -3.19684 0
M  V30 7480 C 696.668 2.23235 -5.4765 0
M  V30 7481 H 695.598 0.42391 -0.623552 0
M  V30 7482 H 698.249 0.388016 -1.79351 0
M  V30 7483 H 696.631 2.82429 -2.77578 0
M  V30 7484 H 697.805 0.597633 -4.56908 0
M  V30 7485 H 696.12 0.696517 -4.10533 0
M  V30 7486 H 698.717 3.47749 -4.06171 0
M  V30 7487 H 699.06 3.43649 -2.3497 0
M  V30 7488 H 699.593 2.08962 -3.38496 0
M  V30 7489 H 696.332 1.63482 -6.34786 0
M  V30 7490 H 695.852 2.93364 -5.23161 0
M  V30 7491 H 697.531 2.83205 -5.81725 0
M  V30 7492 N 697.663 1.43903 0.642637 0
M  V30 7493 C 698.909 1.46296 1.40447 0
M  V30 7494 C 699.242 0.0908361 1.93987 0
M  V30 7495 O 698.517 -0.889884 1.72949 0
M  V30 7496 C 698.8 2.51399 2.57819 0
M  V30 7497 C 698.653 3.97926 2.09702 0
M  V30 7498 C 699.972 2.53125 3.60022 0
M  V30 7499 H 697.091 0.532676 0.509338 0
M  V30 7500 H 699.733 1.75515 0.727635 0
M  V30 7501 H 697.883 2.26614 3.1556 0
M  V30 7502 H 699.555 4.33804 1.5688 0
M  V30 7503 H 697.798 4.10252 1.40982 0
M  V30 7504 H 698.469 4.67096 2.94152 0
M  V30 7505 H 700.945 2.75242 3.12059 0
M  V30 7506 H 699.821 3.28589 4.39682 0
M  V30 7507 H 700.082 1.56895 4.13324 0
M  V30 7508 N 699.141 -0.881989 1.30609 0
M  V30 7509 C 700.074 -1.99066 1.11571 0
M  V30 7510 C 701.052 -1.62584 0.022516 0
M  V30 7511 O 702.236 -1.87671 0.176644 0
M  V30 7512 C 699.363 -3.3134 0.702237 0
M  V30 7513 C 698.409 -3.86807 1.79673 0
M  V30 7514 S 699.242 -4.13735 3.39976 0
M  V30 7515 C 700.398 -5.49024 3.00538 0
M  V30 7516 H 700.631 -2.1491 2.05429 0
M  V30 7517 H 698.164 -1.03074 1.14957 0
M  V30 7518 H 700.122 -4.07796 0.470415 0
M  V30 7519 H 698.783 -3.13349 -0.217034 0
M  V30 7520 H 697.976 -4.82397 1.45977 0
M  V30 7521 H 697.578 -3.17102 1.98298 0
M  V30 7522 H 699.87 -6.30208 2.48684 0
M  V30 7523 H 700.813 -5.8766 3.95046 0
M  V30 7524 H 701.221 -5.11726 2.3832 0
M  V30 7525 N 700.619 -1.13374 -1.09472 0
M  V30 7526 C 702.035 -0.871846 -1.33682 0
M  V30 7527 C 702.235 0.492847 -1.9538 0
M  V30 7528 O 701.291 1.23946 -2.19985 0
M  V30 7529 C 702.604 -1.99608 -2.24893 0
M  V30 7530 C 704.152 -2.02812 -2.38404 0
M  V30 7531 C 704.627 -3.14497 -3.3295 0
M  V30 7532 N 706.118 -3.14004 -3.40523 0
M  V30 7533 C 706.853 -3.97061 -4.13679 0
M  V30 7534 N 706.349 -4.90131 -4.89636 0
M  V30 7535 N 708.142 -3.85162 -4.09398 0
M  V30 7536 H 700.293 -2.01288 -0.677995 0
M  V30 7537 H 702.556 -0.876492 -0.361201 0
M  V30 7538 H 702.262 -2.98 -1.86786 0
M  V30 7539 H 702.136 -1.90981 -3.25278 0
M  V30 7540 H 704.523 -1.05034 -2.75775 0
M  V30 7541 H 704.604 -2.15511 -1.37799 0
M  V30 7542 H 704.248 -4.12514 -2.96302 0
M  V30 7543 H 704.178 -2.99035 -4.33458 0
M  V30 7544 H 706.669 -2.46587 -2.86362 0
M  V30 7545 H 706.982 -5.49996 -5.42885 0
M  V30 7546 H 705.327 -4.94138 -4.88726 0
M  V30 7547 H 708.518 -3.11779 -3.49158 0
M  V30 7548 H 708.691 -4.5012 -4.6615 0
M  V30 7549 N 702.098 1.27442 -0.927168 0
M  V30 7550 C 703.344 1.94679 -0.568164 0
M  V30 7551 C 703.677 1.72697 0.888219 0
M  V30 7552 O 702.952 1.05573 1.63354 0
M  V30 7553 C 703.235 3.4882 -0.894253 0
M  V30 7554 C 703.088 3.80146 -2.40435 0
M  V30 7555 C 704.407 4.38281 -0.399766 0
M  V30 7556 H 701.526 0.707071 -0.207892 0
M  V30 7557 H 704.168 1.50568 -1.15885 0
M  V30 7558 H 702.318 3.86522 -0.391566 0
M  V30 7559 H 703.99 3.52238 -2.97869 0
M  V30 7560 H 702.233 3.26716 -2.85375 0
M  V30 7561 H 702.904 4.87835 -2.58304 0
M  V30 7562 H 705.38 4.07726 -0.83058 0
M  V30 7563 H 704.256 5.44955 -0.656885 0
M  V30 7564 H 704.517 4.36521 0.700153 0
M  V30 7565 N 703.576 0.692616 1.41565 0
M  V30 7566 C 704.804 0.231279 2.05603 0
M  V30 7567 C 705.219 -1.11837 1.52111 0
M  V30 7568 O 704.576 -1.6983 0.66813 0
M  V30 7569 C 704.627 0.177125 3.61066 0
M  V30 7570 O 704.348 1.47346 4.12578 0
M  V30 7571 C 705.849 -0.30556 4.42246 0
M  V30 7572 H 703.069 0.108238 0.662213 0
M  V30 7573 H 705.613 0.944369 1.81389 0
M  V30 7574 H 703.768 -0.486769 3.8433 0
M  V30 7575 H 704.182 1.35861 5.06599 0
M  V30 7576 H 705.656 -0.29233 5.51225 0
M  V30 7577 H 706.133 -1.34393 4.18133 0
M  V30 7578 H 706.739 0.327229 4.24039 0
M  V30 7579 N 705.054 -1.51416 0.437162 0
M  V30 7580 C 706.302 -2.01687 -0.129108 0
M  V30 7581 C 706.623 -1.32329 -1.43227 0
M  V30 7582 O 705.893 -0.457796 -1.90476 0
M  V30 7583 H 704.473 -0.745277 -0.0507023 0
M  V30 7584 H 707.135 -1.86075 0.579828 0
M  V30 7585 H 706.231 -3.10605 -0.305141 0
M  V30 7586 N 706.532 -0.168513 -1.56696 0
M  V30 7587 C 707.772 0.479648 -1.98693 0
M  V30 7588 C 708.136 1.60609 -1.05209 0
M  V30 7589 O 709.337 2.3166 -1.36334 0
M  V30 7590 C 707.608 0.952852 -3.44464 0
M  V30 7591 S 709.167 1.60259 -4.08488 0
M  V30 7592 H 705.985 0.154377 -0.694038 0
M  V30 7593 H 708.587 -0.265312 -1.93691 0
M  V30 7594 H 707.291 0.12257 -4.10217 0
M  V30 7595 H 706.822 1.73192 -3.53225 0
M  V30 7596 H 708.837 2.89065 -4.03307 0
M  V30 7597 N 708.01 1.57248 0.105221 0
M  V30 7598 C 709.421 1.74612 0.660865 0
M  V30 7599 C 709.772 0.789231 1.79626 0
M  V30 7600 O 708.897 -0.0346611 2.16372 0
M  V30 7601 C 709.492 3.16624 1.20559 0
M  V30 7602 C 708.051 3.35447 1.7074 0
M  V30 7603 C 707.198 2.70445 0.612764 0
M  V30 7604 H 710.149 1.5824 -0.12079 0
M  V30 7605 H 710.17 3.18937 2.07508 0
M  V30 7606 H 709.682 3.86245 0.379012 0
M  V30 7607 H 707.783 2.7089 2.5583 0
M  V30 7608 H 707.896 4.43702 1.80736 0
M  V30 7609 H 706.26 2.32061 1.04975 0
M  V30 7610 H 707.043 3.42699 -0.203066 0
M  V30 7611 N 709.488 -0.375779 1.53054 0
M  V30 7612 C 710.436 -1.48015 1.79428 0
M  V30 7613 C 711.43 -1.55893 0.662854 0
M  V30 7614 O 712.636 -1.58901 0.845599 0
M  V30 7615 H 709.011 -0.492887 0.56795 0
M  V30 7616 H 710.982 -1.22971 2.71884 0
M  V30 7617 C 709.731 -2.84984 1.99197 0
M  V30 7618 H 709.054 -2.79677 2.85693 0
M  V30 7619 H 710.494 -3.61462 2.21633 0
M  V30 7620 C 708.953 -3.28025 0.768183 0
M  V30 7621 O 709.483 -4.01671 -0.0480482 0
M  V30 7622 N 707.689 -2.84454 0.594521 0
M  V30 7623 H 707.236 -2.24688 1.25988 0
M  V30 7624 H 707.194 -3.13609 -0.222916 0
M  V30 7625 N 710.966 -1.44241 -0.634997 0
M  V30 7626 C 712.214 -1.46531 -1.39187 0
M  V30 7627 C 712.535 -0.0976441 -1.94755 0
M  V30 7628 O 711.805 0.869528 -1.75545 0
M  V30 7629 H 710.385 -0.539544 -0.516625 0
M  V30 7630 H 713.047 -1.79989 -0.747655 0
M  V30 7631 H 712.143 -2.18848 -2.22513 0
M  V30 7632 N 712.444 0.87505 -1.31075 0
M  V30 7633 C 713.684 1.64174 -1.21763 0
M  V30 7634 C 714.048 1.90713 0.221933 0
M  V30 7635 O 715.249 2.652 0.438458 0
M  V30 7636 C 713.52 2.93932 -2.0332 0
M  V30 7637 S 715.079 3.84841 -2.10815 0
M  V30 7638 H 711.897 0.563358 -0.433761 0
M  V30 7639 H 714.499 1.03788 -1.65675 0
M  V30 7640 H 713.203 2.72349 -3.07009 0
M  V30 7641 H 712.734 3.59345 -1.60108 0
M  V30 7642 H 714.749 4.80385 -1.24276 0
M  V30 7643 N 713.922 1.13953 1.08869 0
M  V30 7644 C 715.17 0.903023 1.80803 0
M  V30 7645 C 715.491 -0.572151 1.86417 0
M  V30 7646 O 714.761 -1.41589 1.35386 0
M  V30 7647 H 713.341 0.331099 0.669614 0
M  V30 7648 H 716.003 1.43719 1.31647 0
M  V30 7649 H 715.099 1.29881 2.83791 0
M  V30 7650 N 715.4 -1.26948 0.933913 0
M  V30 7651 C 716.816 -1.46419 0.635103 0
M  V30 7652 C 717.016 -1.84336 -0.813785 0
M  V30 7653 O 716.072 -1.96061 -1.59111 0
M  V30 7654 C 717.385 -2.55206 1.5903 0
M  V30 7655 C 718.933 -2.69062 1.5992 0
M  V30 7656 C 719.408 -3.81013 2.54152 0
M  V30 7657 N 720.899 -3.88395 2.52395 0
M  V30 7658 C 721.634 -4.74454 3.21996 0
M  V30 7659 N 721.13 -5.64954 4.00997 0
M  V30 7660 N 722.923 -4.68237 3.10983 0
M  V30 7661 H 715.074 -1.00622 1.87053 0
M  V30 7662 H 717.337 -0.503189 0.803433 0
M  V30 7663 H 717.043 -2.34153 2.62422 0
M  V30 7664 H 716.917 -3.52719 1.33677 0
M  V30 7665 H 719.304 -2.89492 0.572569 0
M  V30 7666 H 719.385 -1.72016 1.89325 0
M  V30 7667 H 719.029 -3.61336 3.5693 0
M  V30 7668 H 718.959 -4.77499 2.22041 0
M  V30 7669 H 721.45 -3.23687 1.95025 0
M  V30 7670 H 721.763 -6.27496 4.51074 0
M  V30 7671 H 720.108 -5.6473 4.05099 0
M  V30 7672 H 723.299 -3.96535 2.48753 0
M  V30 7673 H 723.472 -5.35087 3.65494 0
M  V30 7674 N 716.879 -0.700114 -1.41195 0
M  V30 7675 C 717.842 -0.0465706 -2.29153 0
M  V30 7676 C 718.842 0.703302 -1.44604 0
M  V30 7677 O 720.032 0.537513 -1.657 0
M  V30 7678 C 717.164 0.944324 -3.2756 0
M  V30 7679 H 718.357 -0.821064 -2.88442 0
M  V30 7680 H 715.91 -0.463869 -1.49258 0
M  V30 7681 H 716.645 1.74642 -2.73259 0
M  V30 7682 H 716.43 0.409701 -3.89954 0
M  V30 7683 H 717.92 1.39925 -3.9346 0
M  V30 7684 N 718.357 1.51182 -0.445186 0
M  V30 7685 C 719.29 2.24528 0.4077 0
M  V30 7686 C 720.268 1.26778 1.01814 0
M  V30 7687 O 721.452 1.55934 1.05909 0
M  V30 7688 C 718.579 3.00171 1.56892 0
M  V30 7689 C 717.625 4.12641 1.0784 0
M  V30 7690 S 718.458 5.35498 0.014049 0
M  V30 7691 C 719.614 6.14681 1.17975 0
M  V30 7692 H 719.847 2.96522 -0.214987 0
M  V30 7693 H 717.38 1.52681 -0.229781 0
M  V30 7694 H 719.338 3.44349 2.23459 0
M  V30 7695 H 717.999 2.27752 2.16304 0
M  V30 7696 H 717.192 4.64875 1.94698 0
M  V30 7697 H 716.794 3.70765 0.490852 0
M  V30 7698 H 719.086 6.44244 2.09658 0
M  V30 7699 H 720.029 7.04659 0.697222 0
M  V30 7700 H 720.437 5.46299 1.42187 0
M  V30 7701 N 719.835 0.176821 1.56605 0
M  V30 7702 C 720.765 -0.746841 2.21234 0
M  V30 7703 C 721.746 -1.23502 1.16967 0
M  V30 7704 O 722.931 -1.28718 1.45414 0
M  V30 7705 C 720.061 -1.97407 2.8574 0
M  V30 7706 C 719.015 -1.62153 3.96094 0
M  V30 7707 C 718.341 -2.92387 4.47676 0
M  V30 7708 C 719.641 -0.845353 5.15413 0
M  V30 7709 H 721.335 -0.208116 2.98676 0
M  V30 7710 H 718.881 -0.0986594 1.43662 0
M  V30 7711 H 720.834 -2.62531 3.2963 0
M  V30 7712 H 719.558 -2.53703 2.05676 0
M  V30 7713 H 718.217 -0.993964 3.52868 0
M  V30 7714 H 717.865 -3.46734 3.64396 0
M  V30 7715 H 717.565 -2.69551 5.22127 0
M  V30 7716 H 719.089 -3.5853 4.94255 0
M  V30 7717 H 720.503 -1.39929 5.55961 0
M  V30 7718 H 718.9 -0.715814 5.95815 0
M  V30 7719 H 719.97 0.157239 4.84645 0
M  V30 7720 N 721.313 -1.57302 -0.09688 0
M  V30 7721 C 722.276 -2.00976 -1.10188 0
M  V30 7722 C 723.276 -0.903009 -1.3305 0
M  V30 7723 O 724.466 -1.16853 -1.29194 0
M  V30 7724 C 721.598 -2.36893 -2.45142 0
M  V30 7725 H 722.791 -2.9098 -0.726003 0
M  V30 7726 H 720.344 -1.52515 -0.341872 0
M  V30 7727 H 721.079 -1.49837 -2.8761 0
M  V30 7728 H 720.864 -3.17632 -2.29897 0
M  V30 7729 H 722.354 -2.71345 -3.1743 0
M  V30 7730 N 722.791 0.367657 -1.53252 0
M  V30 7731 C 723.701 1.47415 -1.82499 0
M  V30 7732 C 724.717 1.58711 -0.713222 0
M  V30 7733 O 725.893 1.74644 -1.00306 0
M  V30 7734 C 722.958 2.82706 -2.00694 0
M  V30 7735 C 722.019 2.80955 -3.24596 0
M  V30 7736 C 721.252 4.09793 -3.41914 0
M  V30 7737 O 721.475 5.05852 -2.63572 0
M  V30 7738 O 720.409 4.15731 -4.3526 0
M  V30 7739 H 724.235 1.25624 -2.765 0
M  V30 7740 H 721.82 0.557559 -1.38606 0
M  V30 7741 H 723.702 3.62873 -2.14246 0
M  V30 7742 H 722.377 3.04479 -1.09883 0
M  V30 7743 H 721.284 1.99494 -3.16469 0
M  V30 7744 H 722.617 2.64136 -4.15323 0
M  V30 7745 N 724.269 1.44576 0.627338 0
M  V30 7746 C 725.515 1.47777 1.38888 0
M  V30 7747 C 725.848 0.111406 1.9388 0
M  V30 7748 O 725.123 -0.87149 1.73883 0
M  V30 7749 C 725.406 2.54119 2.55138 0
M  V30 7750 C 725.259 4.00128 2.0547 0
M  V30 7751 C 726.578 2.56929 3.57317 0
M  V30 7752 H 723.697 0.538048 0.50366 0
M  V30 7753 H 726.339 1.76277 0.708978 0
M  V30 7754 H 724.489 2.29948 3.13139 0
M  V30 7755 H 726.161 4.35444 1.5227 0
M  V30 7756 H 724.404 4.11724 1.36623 0
M  V30 7757 H 725.075 4.7019 2.89181 0
M  V30 7758 H 727.551 2.78536 3.09122 0
M  V30 7759 H 726.427 3.33234 4.36173 0
M  V30 7760 H 726.688 1.6127 4.11636 0
M  V30 7761 N 725.747 -0.868086 1.31537 0
M  V30 7762 C 726.995 -1.61807 1.21091 0
M  V30 7763 C 727.316 -1.93631 -0.230623 0
M  V30 7764 O 726.586 -1.5846 -1.15183 0
M  V30 7765 H 725.166 -0.599854 0.445178 0
M  V30 7766 H 727.828 -1.03915 1.64887 0
M  V30 7767 H 726.924 -2.56088 1.78396 0
M  V30 7768 N 727.225 -1.14528 -1.08264 0
M  V30 7769 C 728.155 -0.856356 -2.1723 0
M  V30 7770 C 729.136 0.189251 -1.69044 0
M  V30 7771 O 730.321 0.0456119 -1.94146 0
M  V30 7772 C 727.451 -0.334662 -3.45684 0
M  V30 7773 C 726.405 -1.31588 -4.0727 0
M  V30 7774 C 725.731 -0.653428 -5.30692 0
M  V30 7775 C 727.031 -2.67866 -4.48381 0
M  V30 7776 H 728.725 -1.76755 -2.41657 0
M  V30 7777 H 726.271 -0.851287 -1.16143 0
M  V30 7778 H 728.224 -0.120128 -4.21229 0
M  V30 7779 H 726.948 0.611967 -3.20815 0
M  V30 7780 H 725.607 -1.51661 -3.33758 0
M  V30 7781 H 725.255 0.299054 -5.0211 0
M  V30 7782 H 724.955 -1.30817 -5.72853 0
M  V30 7783 H 726.479 -0.448453 -6.08951 0
M  V30 7784 H 727.893 -2.51692 -5.15096 0
M  V30 7785 H 726.29 -3.29627 -5.01464 0
M  V30 7786 H 727.36 -3.24632 -3.60198 0
M  V30 7787 N 728.703 1.26451 -0.940633 0
M  V30 7788 C 729.949 1.94065 -0.58878 0
M  V30 7789 C 730.282 1.7363 0.869853 0
M  V30 7790 O 729.557 1.073 1.62225 0
M  V30 7791 C 729.84 3.47852 -0.931199 0
M  V30 7792 C 729.693 3.77575 -2.44453 0
M  V30 7793 C 731.012 4.37832 -0.446229 0
M  V30 7794 H 728.131 0.704827 -0.21538 0
M  V30 7795 H 730.773 1.4933 -1.17475 0
M  V30 7796 H 728.923 3.86085 -0.432539 0
M  V30 7797 H 730.595 3.49059 -3.01588 0
M  V30 7798 H 728.838 3.23671 -2.88825 0
M  V30 7799 H 729.509 4.85068 -2.63464 0
M  V30 7800 H 731.985 4.06822 -0.873778 0
M  V30 7801 H 730.861 5.44228 -0.714648 0
M  V30 7802 H 731.122 4.37239 0.653815 0
M  V30 7803 N 730.181 0.707592 1.40822 0
M  V30 7804 C 731.429 0.243189 2.00632 0
M  V30 7805 C 731.75 -1.16512 1.56365 0
M  V30 7806 O 731.02 -1.78841 0.799553 0
M  V30 7807 H 729.6 0.0869203 0.741926 0
M  V30 7808 H 732.262 0.911438 1.72275 0
M  V30 7809 H 731.358 0.270014 3.1093 0
M  V30 7810 N 731.66 -1.50943 0.453197 0
M  V30 7811 C 732.607 -2.28128 -0.350197 0
M  V30 7812 C 733.577 -1.32398 -1.00299 0
M  V30 7813 O 734.762 -1.61319 -1.01887 0
M  V30 7814 C 731.902 -3.13782 -1.43649 0
M  V30 7815 C 731.015 -4.24523 -0.800255 0
M  V30 7816 C 730.15 -4.97462 -1.86293 0
M  V30 7817 C 729.189 -6.00102 -1.20598 0
M  V30 7818 N 728.326 -6.66387 -2.21071 0
M  V30 7819 H 733.166 -2.96337 0.31434 0
M  V30 7820 H 730.703 -1.46151 0.166863 0
M  V30 7821 H 732.661 -3.6178 -2.07776 0
M  V30 7822 H 731.291 -2.47655 -2.07044 0
M  V30 7823 H 730.343 -3.80371 -0.0468651 0
M  V30 7824 H 731.655 -4.98009 -0.280777 0
M  V30 7825 H 730.809 -5.49088 -2.58044 0
M  V30 7826 H 729.548 -4.23642 -2.41617 0
M  V30 7827 H 728.553 -5.47753 -0.474 0
M  V30 7828 H 729.778 -6.75887 -0.659859 0
M  V30 7829 H 727.724 -5.9537 -2.75446 0
M  V30 7830 H 727.641 -7.3569 -1.74058 0
M  V30 7831 H 728.909 -7.22638 -2.92257 0
M  V30 7832 N 733.138 -0.185124 -1.56509 0
M  V30 7833 C 734.101 0.72591 -2.17401 0
M  V30 7834 C 735.101 1.14819 -1.12575 0
M  V30 7835 O 736.291 1.0629 -1.38015 0
M  V30 7836 C 733.423 1.98979 -2.76803 0
M  V30 7837 H 734.616 0.195588 -2.99262 0
M  V30 7838 H 732.169 0.0644772 -1.56167 0
M  V30 7839 H 732.904 2.56287 -1.98714 0
M  V30 7840 H 732.689 1.69583 -3.53531 0
M  V30 7841 H 734.179 2.63966 -3.23592 0
M  V30 7842 N 734.616 1.57351 0.0885366 0
M  V30 7843 C 736.027 1.75303 0.642308 0
M  V30 7844 C 736.378 0.808238 1.78779 0
M  V30 7845 O 735.503 -0.01171 2.16397 0
M  V30 7846 C 736.098 3.17885 1.17194 0
M  V30 7847 C 734.657 3.37239 1.67172 0
M  V30 7848 C 733.804 2.7108 0.584045 0
M  V30 7849 H 736.755 1.58103 -0.137567 0
M  V30 7850 H 736.776 3.2112 2.04114 0
M  V30 7851 H 736.288 3.86625 0.338024 0
M  V30 7852 H 734.389 2.73588 2.52943 0
M  V30 7853 H 734.502 4.45594 1.76019 0
M  V30 7854 H 732.866 2.33161 1.02508 0
M  V30 7855 H 733.649 3.42464 -0.239403 0
M  V30 7856 N 736.094 -0.359525 1.53444 0
M  V30 7857 C 737.342 -1.09935 1.69584 0
M  V30 7858 C 737.663 -1.89656 0.453371 0
M  V30 7859 O 736.933 -1.8852 -0.53263 0
M  V30 7860 H 735.513 -0.408843 0.625185 0
M  V30 7861 H 738.175 -0.40467 1.90653 0
M  V30 7862 H 737.271 -1.78575 2.55964 0
M  V30 7863 N 737.572 -1.44907 -0.619662 0
M  V30 7864 C 738.988 -1.29046 -0.939107 0
M  V30 7865 C 739.188 -0.23462 -2.00129 0
M  V30 7866 O 738.244 0.37558 -2.49691 0
M  V30 7867 C 739.557 -2.66567 -1.39149 0
M  V30 7868 C 741.105 -2.74368 -1.50635 0
M  V30 7869 C 741.58 -4.12386 -1.99253 0
M  V30 7870 N 743.071 -4.1462 -2.06506 0
M  V30 7871 C 743.806 -5.18272 -2.4532 0
M  V30 7872 N 743.302 -6.32278 -2.83189 0
M  V30 7873 N 745.095 -5.05628 -2.45554 0
M  V30 7874 H 737.246 -2.12239 0.0826135 0
M  V30 7875 H 739.509 -0.947652 -0.0256829 0
M  V30 7876 H 739.215 -3.4496 -0.685254 0
M  V30 7877 H 739.089 -2.94224 -2.36034 0
M  V30 7878 H 741.476 -1.96287 -2.20353 0
M  V30 7879 H 741.557 -2.50439 -0.520963 0
M  V30 7880 H 741.201 -4.90947 -1.30127 0
M  V30 7881 H 741.131 -4.33699 -2.98684 0
M  V30 7882 H 743.622 -3.32343 -1.79878 0
M  V30 7883 H 743.935 -7.07172 -3.11652 0
M  V30 7884 H 742.28 -6.35699 -2.80913 0
M  V30 7885 H 745.471 -4.15613 -2.15367 0
M  V30 7886 H 745.644 -5.86529 -2.75478 0
M  V30 7887 N 739.05 0.861098 -1.31996 0
M  V30 7888 C 740.28 1.64501 -1.24992 0
M  V30 7889 C 740.688 1.88288 0.185576 0
M  V30 7890 O 740.031 1.44756 1.131 0
M  V30 7891 C 740.093 3.03098 -1.93319 0
M  V30 7892 C 739.757 3.02381 -3.42658 0
M  V30 7893 C 740.754 2.79696 -4.38254 0
M  V30 7894 C 738.439 3.23221 -3.84491 0
M  V30 7895 C 740.433 2.77843 -5.73657 0
M  V30 7896 C 738.12 3.20996 -5.20005 0
M  V30 7897 C 739.118 2.98335 -6.14398 0
M  V30 7898 O 738.806 2.95971 -7.47433 0
M  V30 7899 H 738.538 0.519309 -0.432775 0
M  V30 7900 H 741.092 1.08241 -1.74565 0
M  V30 7901 H 739.322 3.61121 -1.38306 0
M  V30 7902 H 741.011 3.63751 -1.8011 0
M  V30 7903 H 741.777 2.63368 -4.07262 0
M  V30 7904 H 737.656 3.39887 -3.11445 0
M  V30 7905 H 741.2 2.60074 -6.47308 0
M  V30 7906 H 737.097 3.36865 -5.50629 0
M  V30 7907 H 737.865 3.1197 -7.56714 0
M  V30 7908 N 740.528 1.15101 1.07655 0
M  V30 7909 C 741.476 0.840714 2.16875 0
M  V30 7910 C 742.47 -0.184594 1.68391 0
M  V30 7911 O 743.676 -0.0399315 1.79956 0
M  V30 7912 H 740.051 0.254192 0.707736 0
M  V30 7913 H 742.022 1.76959 2.40266 0
M  V30 7914 C 740.771 0.343018 3.46004 0
M  V30 7915 H 740.094 1.12335 3.83694 0
M  V30 7916 H 741.534 0.16453 4.23681 0
M  V30 7917 C 739.993 -0.934881 3.23669 0
M  V30 7918 O 740.523 -2.00706 3.47965 0
M  V30 7919 N 738.729 -0.873167 2.77172 0
M  V30 7920 H 738.276 -0.000479072 2.576 0
M  V30 7921 H 738.234 -1.72873 2.62607 0
M  V30 7922 N 742.006 -1.2595 0.947325 0
M  V30 7923 C 742.936 -2.28521 0.479604 0
M  V30 7924 C 743.917 -1.63469 -0.470293 0
M  V30 7925 O 745.102 -1.90627 -0.370824 0
M  V30 7926 C 742.232 -3.46397 -0.250289 0
M  V30 7927 C 741.186 -4.23578 0.613643 0
M  V30 7928 C 740.512 -5.34131 -0.246568 0
M  V30 7929 C 741.812 -4.86979 1.88809 0
M  V30 7930 H 743.506 -2.67895 1.33688 0
M  V30 7931 H 741.052 -1.28783 0.644274 0
M  V30 7932 H 743.005 -4.17269 -0.588576 0
M  V30 7933 H 741.729 -3.05993 -1.14175 0
M  V30 7934 H 740.388 -3.54478 0.93491 0
M  V30 7935 H 740.036 -4.89968 -1.13756 0
M  V30 7936 H 739.736 -5.86683 0.328123 0
M  V30 7937 H 741.26 -6.07839 -0.579986 0
M  V30 7938 H 742.674 -5.50034 1.61666 0
M  V30 7939 H 741.071 -5.49675 2.40784 0
M  V30 7940 H 742.141 -4.09575 2.5957 0
M  V30 7941 N 743.484 -0.715051 -1.40445 0
M  V30 7942 C 744.434 -0.038591 -2.27967 0
M  V30 7943 C 745.418 0.733099 -1.43229 0
M  V30 7944 O 746.61 0.605388 -1.66325 0
M  V30 7945 C 743.739 0.882801 -3.31755 0
M  V30 7946 C 742.825 0.106325 -4.23967 0
M  V30 7947 N 743.216 -0.910143 -4.97544 0
M  V30 7948 C 741.514 0.33896 -4.4471 0
M  V30 7949 C 742.215 -1.37665 -5.65175 0
M  V30 7950 N 741.191 -0.698905 -5.39088 0
M  V30 7951 H 744.993 -0.81765 -2.82297 0
M  V30 7952 H 742.507 -0.547591 -1.5289 0
M  V30 7953 H 744.504 1.38273 -3.93302 0
M  V30 7954 H 743.164 1.66124 -2.78985 0
M  V30 7955 H 744.175 -1.29097 -5.01552 0
M  V30 7956 H 740.852 1.09377 -4.02918 0
M  V30 7957 H 742.242 -2.22122 -6.34123 0
M  V30 7958 N 744.962 1.50701 -0.461195 0
M  V30 7959 C 745.892 2.31182 0.328184 0
M  V30 7960 C 746.873 1.37644 0.999408 0
M  V30 7961 O 748.058 1.66565 0.99848 0
M  V30 7962 C 745.188 3.17113 1.41621 0
M  V30 7963 C 744.142 4.19124 0.867148 0
M  V30 7964 C 743.468 4.93728 2.05272 0
M  V30 7965 C 744.768 5.22174 -0.114808 0
M  V30 7966 H 746.462 2.97423 -0.343501 0
M  V30 7967 H 744.008 1.43033 -0.166641 0
M  V30 7968 H 745.961 3.72208 1.97584 0
M  V30 7969 H 744.685 2.48739 2.11652 0
M  V30 7970 H 743.344 3.65116 0.329557 0
M  V30 7971 H 742.992 4.21835 2.73978 0
M  V30 7972 H 742.692 5.62724 1.69161 0
M  V30 7973 H 744.216 5.51654 2.61744 0
M  V30 7974 H 745.63 5.72198 0.355316 0
M  V30 7975 H 744.027 5.98833 -0.389689 0
M  V30 7976 H 745.097 4.7353 -1.04391 0
M  V30 7977 N 746.441 0.193421 1.56409 0
M  V30 7978 C 747.689 -0.444908 1.97142 0
M  V30 7979 C 748.01 -1.62268 1.08139 0
M  V30 7980 O 747.28 -1.95307 0.152326 0
M  V30 7981 H 745.86 -0.16736 0.728011 0
M  V30 7982 H 748.522 0.279763 1.92882 0
M  V30 7983 H 747.618 -0.790159 3.01932 0
M  V30 7984 N 747.919 -1.57396 -0.0801906 0
M  V30 7985 C 749.167 -1.86467 -0.779384 0
M  V30 7986 C 749.488 -0.784243 -1.78535 0
M  V30 7987 O 748.758 0.187986 -1.94996 0
M  V30 7988 H 747.338 -0.68806 -0.29083 0
M  V30 7989 H 750 -1.94813 -0.0582749 0
M  V30 7990 H 749.096 -2.83701 -1.30078 0
M  V30 7991 N 749.397 0.351382 -1.53633 0
M  V30 7992 C 750.345 1.45142 -1.8176 0
M  V30 7993 C 751.339 1.54819 -0.687571 0
M  V30 7994 O 752.545 1.57536 -0.870772 0
M  V30 7995 H 748.92 0.483789 -0.575719 0
M  V30 7996 H 750.891 1.1863 -2.73806 0
M  V30 7997 C 749.64 2.81779 -2.03706 0
M  V30 7998 H 748.963 2.75097 -2.90107 0
M  V30 7999 H 750.403 3.5789 -2.27356 0
M  V30 8000 C 748.862 3.26762 -0.820271 0
M  V30 8001 O 749.392 4.01697 -0.0158603 0
M  V30 8002 N 747.598 2.83472 -0.639699 0
M  V30 8003 H 747.145 2.22655 -1.29547 0
M  V30 8004 H 747.103 3.13924 0.172995 0
M  V30 8005 N 750.875 1.45233 0.611969 0
M  V30 8006 C 752.291 1.29542 0.932251 0
M  V30 8007 C 752.491 0.24523 2.00002 0
M  V30 8008 O 751.547 -0.362333 2.49887 0
M  V30 8009 C 752.86 2.67301 1.37733 0
M  V30 8010 C 754.408 2.75163 1.49178 0
M  V30 8011 C 754.883 4.13437 1.97064 0
M  V30 8012 N 756.374 4.15709 2.04304 0
M  V30 8013 C 757.109 5.19566 2.42568 0
M  V30 8014 N 756.605 6.33771 2.79832 0
M  V30 8015 N 758.398 5.06923 2.42869 0
M  V30 8016 H 750.549 2.12192 -0.0938679 0
M  V30 8017 H 752.812 0.947775 0.0206569 0
M  V30 8018 H 752.518 3.45318 0.666951 0
M  V30 8019 H 752.392 2.95472 2.3447 0
M  V30 8020 H 754.779 1.97453 2.19309 0
M  V30 8021 H 754.86 2.50712 0.507674 0
M  V30 8022 H 754.504 4.91631 1.27521 0
M  V30 8023 H 754.434 4.35277 2.9638 0
M  V30 8024 H 756.925 3.33293 1.78113 0
M  V30 8025 H 757.238 7.08815 3.07898 0
M  V30 8026 H 755.583 6.37179 2.77538 0
M  V30 8027 H 758.774 4.1675 2.1316 0
M  V30 8028 H 758.947 5.87981 2.72364 0
M  V30 8029 N 752.353 -0.854086 1.3245 0
M  V30 8030 C 753.602 -1.60318 1.22397 0
M  V30 8031 C 753.915 -1.9444 -0.212664 0
M  V30 8032 O 755.121 -2.67991 -0.435066 0
M  V30 8033 C 753.577 -2.8909 2.1437 0
M  V30 8034 C 753.185 -2.62391 3.63119 0
M  V30 8035 C 754.929 -3.67104 2.13155 0
M  V30 8036 C 752.836 -3.87167 4.47052 0
M  V30 8037 H 751.766 -0.601586 0.454544 0
M  V30 8038 H 754.417 -0.943023 1.57415 0
M  V30 8039 H 752.799 -3.56567 1.72268 0
M  V30 8040 H 753.973 -2.03222 4.13567 0
M  V30 8041 H 752.288 -1.97706 3.66471 0
M  V30 8042 H 754.885 -4.59696 2.731 0
M  V30 8043 H 755.228 -4.00876 1.12268 0
M  V30 8044 H 755.761 -3.06533 2.5354 0
M  V30 8045 H 752.5 -3.58536 5.48755 0
M  V30 8046 H 752.02 -4.45729 4.01355 0
M  V30 8047 H 753.699 -4.549 4.60081 0
M  V30 8048 N 753.831 -1.1567 -1.07043 0
M  V30 8049 C 755.079 -0.931673 -1.79344 0
M  V30 8050 C 755.4 0.542421 -1.87304 0
M  V30 8051 O 754.67 1.39418 -1.37621 0
M  V30 8052 H 753.25 -0.34171 -0.664262 0
M  V30 8053 H 755.912 -1.45795 -1.29344 0
M  V30 8054 H 755.008 -1.34379 -2.81689 0
M  V30 8055 N 755.309 1.25446 -0.953992 0
M  V30 8056 C 756.537 1.97215 -0.625595 0
M  V30 8057 C 756.952 1.70911 0.802168 0
M  V30 8058 O 756.309 0.984782 1.5365 0
M  V30 8059 C 756.36 3.50777 -0.873943 0
M  V30 8060 O 756.081 3.76173 -2.24556 0
M  V30 8061 C 757.582 4.39776 -0.557845 0
M  V30 8062 H 754.802 0.628652 -0.2346 0
M  V30 8063 H 757.346 1.59632 -1.27819 0
M  V30 8064 H 755.501 3.86474 -0.267765 0
M  V30 8065 H 755.915 4.70636 -2.31522 0
M  V30 8066 H 757.389 5.46431 -0.782157 0
M  V30 8067 H 757.866 4.36257 0.507573 0
M  V30 8068 H 758.472 4.09644 -1.14332 0
M  V30 8069 N 756.787 0.722489 1.40064 0
M  V30 8070 C 758.203 0.396758 1.5459 0
M  V30 8071 C 758.403 -1.09375 1.69232 0
M  V30 8072 O 757.459 -1.87984 1.68578 0
M  V30 8073 C 758.772 1.16885 2.77053 0
M  V30 8074 C 760.32 1.15583 2.90877 0
M  V30 8075 C 760.795 1.91023 4.16262 0
M  V30 8076 N 762.286 1.88126 4.23276 0
M  V30 8077 C 763.021 2.43315 5.19216 0
M  V30 8078 N 762.517 3.07089 6.21022 0
M  V30 8079 N 764.31 2.33418 5.11344 0
M  V30 8080 H 756.461 1.68887 1.28806 0
M  V30 8081 H 758.724 0.714231 0.62336 0
M  V30 8082 H 758.43 2.22301 2.72534 0
M  V30 8083 H 758.304 0.765011 3.69361 0
M  V30 8084 H 760.691 0.10984 2.94896 0
M  V30 8085 H 760.772 1.59895 1.99668 0
M  V30 8086 H 760.416 2.95616 4.13006 0
M  V30 8087 H 760.346 1.44126 5.06493 0
M  V30 8088 H 762.837 1.41654 3.50346 0
M  V30 8089 H 763.15 3.467 6.90666 0
M  V30 8090 H 761.495 3.11175 6.21446 0
M  V30 8091 H 764.686 1.83248 4.30741 0
M  V30 8092 H 764.859 2.7673 5.85939 0
M  V30 8093 N 758.265 -1.50454 0.469181 0
M  V30 8094 C 759.514 -2.01507 -0.0881425 0
M  V30 8095 C 759.827 -1.35613 -1.40956 0
M  V30 8096 O 761.033 -1.77812 -2.05171 0
M  V30 8097 C 759.489 -3.59301 -0.207596 0
M  V30 8098 C 759.097 -4.34152 1.10527 0
M  V30 8099 C 760.841 -4.18401 -0.716981 0
M  V30 8100 C 758.748 -5.83725 0.949717 0
M  V30 8101 H 757.678 -0.753106 -0.0367156 0
M  V30 8102 H 760.329 -1.73282 0.603788 0
M  V30 8103 H 758.711 -3.84106 -0.963265 0
M  V30 8104 H 759.885 -4.21073 1.87175 0
M  V30 8105 H 758.2 -3.86652 1.54562 0
M  V30 8106 H 760.797 -5.27895 -0.850363 0
M  V30 8107 H 761.14 -3.79657 -1.70782 0
M  V30 8108 H 761.673 -3.97796 -0.0187511 0
M  V30 8109 H 758.412 -6.26938 1.91387 0
M  V30 8110 H 757.932 -5.99383 0.223591 0
M  V30 8111 H 759.611 -6.44065 0.61557 0
M  V30 8112 N 759.743 -0.201713 -1.56304 0
M  V30 8113 C 761.154 0.309711 -1.84113 0
M  V30 8114 C 761.505 1.60912 -1.12258 0
M  V30 8115 O 760.63 2.12937 -0.385587 0
M  V30 8116 C 761.225 0.568706 -3.33993 0
M  V30 8117 C 759.784 1.02448 -3.6219 0
M  V30 8118 C 758.931 0.0766842 -2.77194 0
M  V30 8119 H 761.882 -0.425356 -1.52893 0
M  V30 8120 H 761.903 1.41721 -3.53122 0
M  V30 8121 H 761.415 -0.37719 -3.86263 0
M  V30 8122 H 759.516 1.98443 -3.15359 0
M  V30 8123 H 759.629 0.912619 -4.70328 0
M  V30 8124 H 757.993 0.579809 -2.48013 0
M  V30 8125 H 758.776 -0.863774 -3.32256 0
M  V30 8126 N 761.222 1.57436 0.0718424 0
M  V30 8127 C 762.638 1.53792 0.426628 0
M  V30 8128 C 762.838 0.921887 1.79174 0
M  V30 8129 O 761.894 0.524374 2.46995 0
M  V30 8130 C 763.207 2.98443 0.367739 0
M  V30 8131 C 764.755 3.09778 0.447928 0
M  V30 8132 C 765.23 4.5608 0.418946 0
M  V30 8133 N 766.721 4.60716 0.479022 0
M  V30 8134 C 767.456 5.71397 0.47881 0
M  V30 8135 N 766.952 6.91443 0.433417 0
M  V30 8136 N 768.745 5.59639 0.525364 0
M  V30 8137 H 760.896 1.95848 -0.822033 0
M  V30 8138 H 763.159 0.896418 -0.308447 0
M  V30 8139 H 762.865 3.47072 -0.56865 0
M  V30 8140 H 762.739 3.58335 1.17795 0
M  V30 8141 H 765.126 2.61122 1.37474 0
M  V30 8142 H 765.207 2.52796 -0.390857 0
M  V30 8143 H 764.851 5.05393 -0.504016 0
M  V30 8144 H 764.781 5.10925 1.27526 0
M  V30 8145 H 767.272 3.74328 0.518355 0
M  V30 8146 H 767.585 7.71562 0.43718 0
M  V30 8147 H 765.93 6.93847 0.400106 0
M  V30 8148 H 769.121 4.64756 0.558519 0
M  V30 8149 H 769.294 6.45896 0.52173 0
M  V30 8150 N 762.7 -0.34323 1.53817 0
M  V30 8151 C 763.633 -1.44472 1.76644 0
M  V30 8152 C 764.611 -1.50498 0.615556 0
M  V30 8153 O 765.795 -1.6821 0.850751 0
M  V30 8154 C 762.922 -2.82705 1.86536 0
M  V30 8155 C 761.968 -2.94302 3.08688 0
M  V30 8156 S 762.801 -2.60739 4.67735 0
M  V30 8157 C 763.957 -4.01079 4.80506 0
M  V30 8158 H 764.19 -1.24893 2.69794 0
M  V30 8159 H 761.723 -0.538915 1.4469 0
M  V30 8160 H 763.681 -3.62342 1.92921 0
M  V30 8161 H 762.342 -2.9958 0.943975 0
M  V30 8162 H 761.535 -3.95593 3.12286 0
M  V30 8163 H 761.137 -2.22614 3.00531 0
M  V30 8164 H 763.429 -4.95603 4.61935 0
M  V30 8165 H 764.372 -4.02475 5.82597 0
M  V30 8166 H 764.78 -3.89119 4.08958 0
M  V30 8167 N 764.178 -1.45556 -0.604258 0
M  V30 8168 C 765.408 -1.53056 -1.38771 0
M  V30 8169 C 765.816 -0.163092 -1.88496 0
M  V30 8170 O 765.159 0.846157 -1.63052 0
M  V30 8171 C 765.221 -2.45656 -2.62476 0
M  V30 8172 C 764.885 -3.92328 -2.34367 0
M  V30 8173 C 765.882 -4.82137 -1.94525 0
M  V30 8174 C 763.567 -4.37275 -2.47177 0
M  V30 8175 C 765.561 -6.14901 -1.67856 0
M  V30 8176 C 763.248 -5.70079 -2.20122 0
M  V30 8177 C 764.246 -6.58711 -1.80524 0
M  V30 8178 O 763.934 -7.89053 -1.53788 0
M  V30 8179 H 763.666 -0.520721 -0.431075 0
M  V30 8180 H 766.22 -1.91464 -0.743693 0
M  V30 8181 H 764.45 -2.02225 -3.29609 0
M  V30 8182 H 766.139 -2.43802 -3.24523 0
M  V30 8183 H 766.905 -4.48675 -1.84162 0
M  V30 8184 H 762.784 -3.68527 -2.76964 0
M  V30 8185 H 766.328 -6.8404 -1.36874 0
M  V30 8186 H 762.225 -6.03095 -2.30102 0
M  V30 8187 H 762.993 -8.01113 -1.67812 0
M  V30 8188 N 765.656 0.84705 -1.32902 0
M  V30 8189 C 766.603 1.95624 -1.22473 0
M  V30 8190 C 767.573 1.65767 -0.105178 0
M  V30 8191 O 768.758 1.88704 -0.282042 0
M  V30 8192 C 765.898 3.31434 -0.961542 0
M  V30 8193 C 765.011 3.73741 -2.1666 0
M  V30 8194 C 764.146 4.98379 -1.83825 0
M  V30 8195 C 763.185 5.33199 -3.00609 0
M  V30 8196 N 762.322 6.49014 -2.67816 0
M  V30 8197 H 767.162 2.03875 -2.17345 0
M  V30 8198 H 764.699 0.997764 -1.08088 0
M  V30 8199 H 766.657 4.09663 -0.789411 0
M  V30 8200 H 765.287 3.22762 -0.0495938 0
M  V30 8201 H 764.339 2.91102 -2.44875 0
M  V30 8202 H 765.651 3.95462 -3.03993 0
M  V30 8203 H 764.805 5.84336 -1.63208 0
M  V30 8204 H 763.544 4.78611 -0.937172 0
M  V30 8205 H 762.549 4.4575 -3.21849 0
M  V30 8206 H 763.774 5.5492 -3.9146 0
M  V30 8207 H 761.72 6.30748 -1.80258 0
M  V30 8208 H 761.637 6.7079 -3.48679 0
M  V30 8209 H 762.905 7.38103 -2.50647 0
M  V30 8210 N 767.134 1.16236 1.06428 0
M  V30 8211 C 768.044 0.881976 2.1739 0
M  V30 8212 C 769.06 -0.145259 1.73393 0
M  V30 8213 O 770.236 0.0310558 2.01376 0
M  V30 8214 C 767.301 0.385496 3.4455 0
M  V30 8215 C 766.362 1.47779 4.03063 0
M  V30 8216 C 765.595 1.0049 5.24154 0
M  V30 8217 O 765.818 -0.145889 5.70213 0
M  V30 8218 O 764.752 1.79265 5.74585 0
M  V30 8219 H 768.578 1.80983 2.43883 0
M  V30 8220 H 766.163 0.942226 1.15942 0
M  V30 8221 H 768.045 0.115536 4.21242 0
M  V30 8222 H 766.72 -0.514369 3.19587 0
M  V30 8223 H 765.627 1.80147 3.27869 0
M  V30 8224 H 766.96 2.35291 4.32318 0
M  V30 8225 N 768.612 -1.24939 0.960631 0
M  V30 8226 C 769.56 -2.27659 0.47686 0
M  V30 8227 C 770.554 -1.63148 -0.455961 0
M  V30 8228 O 771.76 -1.76911 -0.332029 0
M  V30 8229 H 768.135 -0.739651 0.135723 0
M  V30 8230 H 770.106 -2.65844 1.35534 0
M  V30 8231 C 768.855 -3.46976 -0.224191 0
M  V30 8232 H 768.178 -3.96854 0.484471 0
M  V30 8233 H 769.618 -4.20717 -0.526615 0
M  V30 8234 C 768.077 -3.04159 -1.44876 0
M  V30 8235 O 768.607 -3.10697 -2.54618 0
M  V30 8236 N 766.813 -2.59284 -1.31226 0
M  V30 8237 H 766.36 -2.54164 -0.419361 0
M  V30 8238 H 766.318 -2.31 -2.13275 0
M  V30 8239 N 770.09 -0.729906 -1.39679 0
M  V30 8240 C 771.339 -0.272534 -1.9985 0
M  V30 8241 C 771.652 1.14519 -1.58571 0
M  V30 8242 O 772.858 1.70182 -2.11543 0
M  V30 8243 C 771.314 -0.436322 -3.57245 0
M  V30 8244 C 770.922 -1.86161 -4.0749 0
M  V30 8245 C 772.666 -0.0404679 -4.24481 0
M  V30 8246 C 770.573 -1.97522 -5.5744 0
M  V30 8247 H 769.503 -0.0981428 -0.747585 0
M  V30 8248 H 772.154 -0.903056 -1.59741 0
M  V30 8249 H 770.536 0.263015 -3.95126 0
M  V30 8250 H 771.71 -2.59248 -3.80955 0
M  V30 8251 H 770.025 -2.21021 -3.529 0
M  V30 8252 H 772.622 -0.104437 -5.34598 0
M  V30 8253 H 772.965 1.00357 -4.04023 0
M  V30 8254 H 773.498 -0.690774 -3.91757 0
M  V30 8255 H 770.237 -3.00096 -5.82771 0
M  V30 8256 H 769.757 -1.28864 -5.85794 0
M  V30 8257 H 771.436 -1.754 -6.22771 0
M  V30 8258 N 771.568 1.50203 -0.477153 0
M  V30 8259 C 772.796 2.0677 0.0732489 0
M  V30 8260 C 773.211 1.34033 1.32968 0
M  V30 8261 O 772.568 0.411412 1.77802 0
M  V30 8262 C 772.619 3.59751 0.35518 0
M  V30 8263 O 772.34 4.29747 -0.851425 0
M  V30 8264 C 773.841 4.3296 0.951877 0
M  V30 8265 H 771.061 0.670929 -0.00978923 0
M  V30 8266 H 773.605 1.93293 -0.667676 0
M  V30 8267 H 771.76 3.7301 1.04605 0
M  V30 8268 H 772.174 5.2106 -0.599708 0
M  V30 8269 H 773.648 5.40952 1.09888 0
M  V30 8270 H 774.125 3.93856 1.94356 0
M  V30 8271 H 774.731 4.24246 0.299208 0
M  V30 8272 N 773.046 0.209999 1.56195 0
M  V30 8273 C 773.956 -0.716459 2.23392 0
M  V30 8274 C 774.972 -1.22291 1.23778 0
M  V30 8275 O 776.148 -1.26694 1.56558 0
M  V30 8276 C 773.213 -1.91261 2.89172 0
M  V30 8277 C 772.274 -1.44927 4.04097 0
M  V30 8278 C 771.507 -2.5884 4.66731 0
M  V30 8279 O 771.73 -3.76693 4.2832 0
M  V30 8280 O 770.664 -2.30701 5.55932 0
M  V30 8281 H 774.49 -0.174089 3.03201 0
M  V30 8282 H 772.075 -0.0199505 1.49387 0
M  V30 8283 H 773.957 -2.6114 3.30733 0
M  V30 8284 H 772.632 -2.4433 2.12331 0
M  V30 8285 H 771.539 -0.718839 3.67129 0
M  V30 8286 H 772.872 -0.965084 4.82646 0
M  V30 8287 N 774.524 -1.57472 -0.0634922 0
M  V30 8288 C 775.935 -1.76303 -0.614337 0
M  V30 8289 C 776.286 -0.836578 -1.77471 0
M  V30 8290 O 775.411 -0.0227184 -2.16388 0
M  V30 8291 C 776.006 -3.19709 -1.12122 0
M  V30 8292 C 774.565 -3.39856 -1.61786 0
M  V30 8293 C 773.712 -2.71975 -0.540845 0
M  V30 8294 H 776.663 -1.57864 0.162702 0
M  V30 8295 H 776.684 -3.24326 -1.98979 0
M  V30 8296 H 776.196 -3.87114 -0.276472 0
M  V30 8297 H 774.297 -2.77578 -2.48558 0
M  V30 8298 H 774.41 -4.48338 -1.68908 0
M  V30 8299 H 772.774 -2.34763 -0.987854 0
M  V30 8300 H 773.557 -3.4204 0.293856 0
M  V30 8301 N 776.003 0.335068 -1.53997 0
M  V30 8302 C 776.913 1.43511 -1.85585 0
M  V30 8303 C 777.929 1.57162 -0.746726 0
M  V30 8304 O 779.105 1.72477 -1.03988 0
M  V30 8305 C 776.17 2.78386 -2.06646 0
M  V30 8306 C 775.231 2.74007 -3.30483 0
M  V30 8307 C 774.464 4.02449 -3.50529 0
M  V30 8308 O 774.687 5.00147 -2.74242 0
M  V30 8309 O 773.621 4.06405 -4.4398 0
M  V30 8310 H 777.447 1.19731 -2.79102 0
M  V30 8311 H 775.032 0.528033 -1.39758 0
M  V30 8312 H 776.914 3.58247 -2.21894 0
M  V30 8313 H 775.589 3.0208 -1.16317 0
M  V30 8314 H 774.496 1.92736 -3.2063 0
M  V30 8315 H 775.829 2.55267 -4.20832 0
M  V30 8316 N 777.481 1.45874 0.596531 0
M  V30 8317 C 778.73 1.49737 1.35135 0
M  V30 8318 C 779.043 0.147755 1.95041 0
M  V30 8319 O 780.249 0.0640984 2.71424 0
M  V30 8320 C 778.705 2.6378 2.44843 0
M  V30 8321 C 778.313 4.05102 1.91301 0
M  V30 8322 C 780.057 2.769 3.21755 0
M  V30 8323 C 777.964 5.10508 2.98557 0
M  V30 8324 H 776.894 0.557219 0.507959 0
M  V30 8325 H 779.545 1.72046 0.638147 0
M  V30 8326 H 777.927 2.34774 3.189 0
M  V30 8327 H 779.101 4.43836 1.2388 0
M  V30 8328 H 777.416 3.96528 1.271 0
M  V30 8329 H 780.013 3.52819 4.01775 0
M  V30 8330 H 780.356 1.83924 3.73467 0
M  V30 8331 H 780.889 3.05485 2.54802 0
M  V30 8332 H 777.628 6.0523 2.51749 0
M  V30 8333 H 777.148 4.76332 3.6451 0
M  V30 8334 H 778.827 5.35745 3.62748 0
M  V30 8335 N 778.959 -0.83999 1.33349 0
M  V30 8336 C 779.889 -1.965 1.26135 0
M  V30 8337 C 780.87 -1.69505 0.142152 0
M  V30 8338 O 782.055 -1.91346 0.331743 0
M  V30 8339 C 779.185 -3.32632 0.99866 0
M  V30 8340 C 778.139 -3.74021 2.08068 0
M  V30 8341 C 777.465 -5.07947 1.67014 0
M  V30 8342 C 778.765 -3.87925 3.49731 0
M  V30 8343 H 780.459 -2.02793 2.20262 0
M  V30 8344 H 778.005 -0.974297 1.06035 0
M  V30 8345 H 779.958 -4.10903 0.934696 0
M  V30 8346 H 778.682 -3.26593 0.0217759 0
M  V30 8347 H 777.341 -2.98012 2.13505 0
M  V30 8348 H 776.989 -4.98378 0.680316 0
M  V30 8349 H 776.689 -5.36611 2.39422 0
M  V30 8350 H 778.213 -5.88695 1.62082 0
M  V30 8351 H 779.627 -4.5651 3.46802 0
M  V30 8352 H 778.024 -4.28023 4.20614 0
M  V30 8353 H 779.094 -2.90407 3.88319 0
M  V30 8354 N 780.437 -1.16799 -1.0581 0
M  V30 8355 C 781.4 -0.881396 -2.11575 0
M  V30 8356 C 782.4 0.12574 -1.60308 0
M  V30 8357 O 783.59 -0.105716 -1.73879 0
M  V30 8358 C 780.722 -0.319037 -3.39404 0
M  V30 8359 H 781.915 -1.81907 -2.38432 0
M  V30 8360 H 779.468 -0.977597 -1.21954 0
M  V30 8361 H 780.203 0.626082 -3.18199 0
M  V30 8362 H 779.988 -1.04481 -3.77923 0
M  V30 8363 H 781.478 -0.13663 -4.17376 0
M  V30 8364 N 781.915 1.24427 -0.967243 0
M  V30 8365 C 783.14 1.9708 -0.646069 0
M  V30 8366 C 783.565 1.71272 0.777665 0
M  V30 8367 O 782.923 0.976179 1.52776 0
M  V30 8368 C 782.971 3.48501 -0.926266 0
M  V30 8369 O 782.075 4.12398 -0.0114653 0
M  V30 8370 H 781.416 0.617423 -0.244304 0
M  V30 8371 H 783.946 1.58215 -1.29727 0
M  V30 8372 H 783.956 3.98885 -0.857619 0
M  V30 8373 H 782.631 3.66613 -1.96386 0
M  V30 8374 H 781.208 3.72661 -0.133396 0
M  V30 8375 N 783.393 0.737304 1.3929 0
M  V30 8376 C 784.323 0.113988 2.33222 0
M  V30 8377 C 785.304 -0.721695 1.54031 0
M  V30 8378 O 786.489 -0.666206 1.82415 0
M  V30 8379 C 783.619 -0.792319 3.38141 0
M  V30 8380 C 782.573 -0.0606178 4.27957 0
M  V30 8381 C 781.899 -1.08409 5.23595 0
M  V30 8382 C 783.199 1.09817 5.10625 0
M  V30 8383 H 784.893 0.898611 2.85596 0
M  V30 8384 H 782.439 0.433571 1.37318 0
M  V30 8385 H 784.392 -1.23793 4.02807 0
M  V30 8386 H 783.116 -1.60908 2.84211 0
M  V30 8387 H 781.775 0.365393 3.64775 0
M  V30 8388 H 781.423 -1.89449 4.6596 0
M  V30 8389 H 781.123 -0.599269 5.84536 0
M  V30 8390 H 782.647 -1.52936 5.91137 0
M  V30 8391 H 784.061 0.730892 5.68622 0
M  V30 8392 H 782.458 1.51278 5.80719 0
M  V30 8393 H 783.528 1.91878 4.45321 0
M  V30 8394 N 784.871 -1.49948 0.485112 0
M  V30 8395 C 786.148 -1.95186 -0.12726 0
M  V30 8396 C 786.528 -1.42605 -1.5565 0
M  V30 8397 O 785.876 -0.632986 -2.19558 0
M  V30 8398 C 786.086 -3.48955 -0.0562117 0
M  V30 8399 C 787.434 -4.23932 -0.238106 0
M  V30 8400 O 788.458 -3.55955 -0.132145 0
M  V30 8401 O 787.317 -5.44614 -0.453658 0
M  V30 8402 H 784.411 -0.820433 -0.104014 0
M  V30 8403 H 786.957 -1.60659 0.546517 0
M  V30 8404 H 785.729 -3.79814 0.941122 0
M  V30 8405 H 785.352 -3.90056 -0.770834 0
M  V30 8406 N 786.349 -0.21828 -1.56081 0
M  V30 8407 C 787.259 0.704602 -2.23769 0
M  V30 8408 C 788.275 1.21633 -1.24425 0
M  V30 8409 O 789.451 1.25862 -1.57228 0
M  V30 8410 C 786.516 1.89725 -2.90182 0
M  V30 8411 C 785.577 1.42782 -4.0486 0
M  V30 8412 C 784.81 2.56361 -4.68097 0
M  V30 8413 O 785.033 3.74417 -4.30312 0
M  V30 8414 O 783.967 2.2775 -5.57148 0
M  V30 8415 H 787.793 0.158007 -3.03289 0
M  V30 8416 H 785.378 0.0120279 -1.49395 0
M  V30 8417 H 787.26 2.59382 -3.32113 0
M  V30 8418 H 785.935 2.432 -2.13624 0
M  V30 8419 H 784.842 0.699359 -3.67505 0
M  V30 8420 H 786.175 0.939474 -4.83151 0
M  V30 8421 N 787.827 1.57504 0.0551401 0
M  V30 8422 C 788.757 2.07864 1.06372 0
M  V30 8423 C 789.738 0.975565 1.39344 0
M  V30 8424 O 790.923 1.24929 1.48682 0
M  V30 8425 C 788.053 2.53643 2.3724 0
M  V30 8426 C 787.007 3.67978 2.18578 0
M  V30 8427 C 786.333 3.9987 3.54976 0
M  V30 8428 C 787.633 4.97405 1.59329 0
M  V30 8429 H 789.327 2.92379 0.644595 0
M  V30 8430 H 786.873 1.40654 0.308619 0
M  V30 8431 H 788.826 2.8749 3.08103 0
M  V30 8432 H 787.55 1.66177 2.81163 0
M  V30 8433 H 786.209 3.3444 1.50152 0
M  V30 8434 H 785.857 3.0951 3.965 0
M  V30 8435 H 785.557 4.76867 3.43324 0
M  V30 8436 H 787.081 4.36228 4.27244 0
M  V30 8437 H 788.495 5.29375 2.20078 0
M  V30 8438 H 786.892 5.78837 1.58327 0
M  V30 8439 H 787.962 4.81697 0.55638 0
M  V30 8440 N 789.305 -0.326896 1.54172 0
M  V30 8441 C 790.554 -1.06274 1.71431 0
M  V30 8442 C 790.867 -1.89282 0.493123 0
M  V30 8443 O 792.073 -2.65933 0.54699 0
M  V30 8444 C 790.529 -1.93892 3.03206 0
M  V30 8445 C 790.137 -1.16011 4.32719 0
M  V30 8446 C 791.881 -2.67232 3.29829 0
M  V30 8447 C 789.788 -2.02755 5.55558 0
M  V30 8448 H 788.718 -0.400475 0.638855 0
M  V30 8449 H 791.369 -0.321184 1.80667 0
M  V30 8450 H 789.751 -2.71933 2.87869 0
M  V30 8451 H 790.925 -0.427643 4.58811 0
M  V30 8452 H 789.24 -0.54367 4.12836 0
M  V30 8453 H 791.837 -3.32434 4.18798 0
M  V30 8454 H 792.18 -3.34692 2.47562 0
M  V30 8455 H 792.713 -1.96255 3.46018 0
M  V30 8456 H 789.452 -1.3981 6.40417 0
M  V30 8457 H 788.972 -2.73745 5.33689 0
M  V30 8458 H 790.651 -2.61419 5.91835 0
M  V30 8459 N 790.784 -1.46188 -0.588786 0
M  V30 8460 C 792.032 -1.50885 -1.34455 0
M  V30 8461 C 792.353 -0.159555 -1.94346 0
M  V30 8462 O 791.623 0.813239 -1.78222 0
M  V30 8463 H 790.203 -0.555707 -0.499198 0
M  V30 8464 H 792.865 -1.82277 -0.690014 0
M  V30 8465 H 791.961 -2.25816 -2.15438 0
M  V30 8466 N 792.262 0.832906 -1.33792 0
M  V30 8467 C 793.678 1.1245 -1.13257 0
M  V30 8468 C 793.878 2.01369 0.0725832 0
M  V30 8469 O 792.934 2.41071 0.751082 0
M  V30 8470 C 794.247 1.78084 -2.42294 0
M  V30 8471 C 795.795 1.90624 -2.48257 0
M  V30 8472 C 796.27 2.59673 -3.77271 0
M  V30 8473 N 797.761 2.67181 -3.78376 0
M  V30 8474 C 798.496 3.21313 -4.74916 0
M  V30 8475 N 797.992 3.76086 -5.81835 0
M  V30 8476 N 799.785 3.19621 -4.62384 0
M  V30 8477 H 791.936 0.241244 -2.11026 0
M  V30 8478 H 794.199 0.169557 -0.932713 0
M  V30 8479 H 793.905 1.20209 -3.30519 0
M  V30 8480 H 793.779 2.78049 -2.5489 0
M  V30 8481 H 796.166 2.4765 -1.60478 0
M  V30 8482 H 796.247 0.89591 -2.39598 0
M  V30 8483 H 795.891 2.03304 -4.65435 0
M  V30 8484 H 795.821 3.61189 -3.8321 0
M  V30 8485 H 798.312 2.28346 -3.01108 0
M  V30 8486 H 798.625 4.15612 -6.51526 0
M  V30 8487 H 796.97 3.74357 -5.85561 0
M  V30 8488 H 800.161 2.76091 -3.7801 0
M  V30 8489 H 800.334 3.61504 -5.37791 0
M  V30 8490 N 793.74 1.17359 1.05189 0
M  V30 8491 C 794.986 0.973414 1.78595 0
M  V30 8492 C 795.341 -0.492713 1.85984 0
M  V30 8493 O 794.634 -1.361 1.3486 0
M  V30 8494 C 794.828 1.54821 3.22126 0
M  V30 8495 C 794.657 3.06871 3.28725 0
M  V30 8496 C 793.427 3.75602 3.38011 0
M  V30 8497 C 795.625 4.04467 3.17665 0
M  V30 8498 N 793.607 5.15257 3.33741 0
M  V30 8499 C 794.978 5.30574 3.20766 0
M  V30 8500 C 797.033 3.96138 3.01627 0
M  V30 8501 C 795.736 6.49319 3.09479 0
M  V30 8502 C 797.762 5.14467 2.91681 0
M  V30 8503 C 797.124 6.3946 2.95416 0
M  V30 8504 H 793.223 0.410092 0.665844 0
M  V30 8505 H 795.807 1.48944 1.25395 0
M  V30 8506 H 793.978 1.05853 3.73697 0
M  V30 8507 H 795.71 1.28467 3.83768 0
M  V30 8508 H 792.465 3.26282 3.43273 0
M  V30 8509 H 792.889 5.88263 3.35076 0
M  V30 8510 H 797.531 3.00345 2.97578 0
M  V30 8511 H 795.249 7.45322 3.12283 0
M  V30 8512 H 798.835 5.09803 2.80343 0
M  V30 8513 H 797.715 7.29483 2.87792 0
M  V30 8514 N 795.218 -1.23913 0.973828 0
M  V30 8515 C 796.181 -2.23367 0.51378 0
M  V30 8516 C 797.181 -1.55923 -0.39302 0
M  V30 8517 O 798.371 -1.73187 -0.187626 0
M  V30 8518 C 795.503 -3.39944 -0.255152 0
M  V30 8519 H 796.696 -2.65581 1.39307 0
M  V30 8520 H 794.249 -1.36632 0.759039 0
M  V30 8521 H 794.984 -3.03177 -1.15127 0
M  V30 8522 H 794.769 -3.90098 0.395673 0
M  V30 8523 H 796.259 -4.13749 -0.565842 0
M  V30 8524 N 796.696 -0.74468 -1.38897 0
M  V30 8525 C 797.643 -0.111064 -2.30533 0
M  V30 8526 C 798.613 0.719276 -1.49719 0
M  V30 8527 O 799.798 0.677244 -1.78376 0
M  V30 8528 C 796.938 0.78292 -3.36102 0
M  V30 8529 C 796.051 -0.0610817 -4.31957 0
M  V30 8530 C 795.186 0.835075 -5.24595 0
M  V30 8531 C 794.225 -0.0130974 -6.12099 0
M  V30 8532 N 793.362 0.839525 -6.97063 0
M  V30 8533 H 798.202 -0.898113 -2.84144 0
M  V30 8534 H 795.739 -0.454537 -1.39901 0
M  V30 8535 H 797.697 1.31578 -3.95908 0
M  V30 8536 H 796.327 1.53585 -2.83922 0
M  V30 8537 H 795.379 -0.711469 -3.73687 0
M  V30 8538 H 796.691 -0.716482 -4.93627 0
M  V30 8539 H 795.845 1.43542 -5.89475 0
M  V30 8540 H 794.584 1.52423 -4.63269 0
M  V30 8541 H 793.589 -0.626179 -5.46223 0
M  V30 8542 H 794.814 -0.699181 -6.75491 0
M  V30 8543 H 792.76 1.5138 -6.38295 0
M  V30 8544 H 792.677 0.240823 -7.55616 0
M  V30 8545 H 793.945 1.42513 -7.66362 0
M  V30 8546 N 798.174 1.49689 -0.493057 0
M  V30 8547 C 799.084 2.32746 0.294358 0
M  V30 8548 C 800.1 1.44117 0.975003 0
M  V30 8549 O 801.276 1.77149 0.958138 0
M  V30 8550 C 798.341 3.19358 1.34949 0
M  V30 8551 C 797.402 4.2383 0.683122 0
M  V30 8552 C 796.635 5.06303 1.68798 0
M  V30 8553 O 796.858 4.90172 2.91698 0
M  V30 8554 O 795.792 5.88826 1.24768 0
M  V30 8555 H 799.618 3.01247 -0.385254 0
M  V30 8556 H 797.203 1.47216 -0.254519 0
M  V30 8557 H 799.085 3.73037 1.96014 0
M  V30 8558 H 797.76 2.53561 2.01217 0
M  V30 8559 H 796.667 3.74086 0.0329351 0
M  V30 8560 H 798 4.9216 0.0630192 0
M  V30 8561 N 799.652 0.226554 1.55963 0
M  V30 8562 C 801.068 -0.128733 1.5908 0
M  V30 8563 C 801.268 -1.58558 1.24345 0
M  V30 8564 O 800.324 -2.32661 0.981069 0
M  V30 8565 C 801.637 0.202076 3.0002 0
M  V30 8566 C 803.185 0.144718 3.12665 0
M  V30 8567 C 803.66 0.449272 4.55791 0
M  V30 8568 N 805.151 0.399026 4.61478 0
M  V30 8569 C 805.886 0.608106 5.70166 0
M  V30 8570 N 805.382 0.879227 6.87198 0
M  V30 8571 N 807.175 0.5402 5.59498 0
M  V30 8572 H 799.326 1.17686 1.76816 0
M  V30 8573 H 801.589 0.472072 0.822102 0
M  V30 8574 H 801.295 1.21341 3.30105 0
M  V30 8575 H 801.169 -0.480554 3.74126 0
M  V30 8576 H 803.556 -0.857261 2.82374 0
M  V30 8577 H 803.637 0.860899 2.40878 0
M  V30 8578 H 803.281 1.44871 4.86801 0
M  V30 8579 H 803.211 -0.288157 5.25811 0
M  V30 8580 H 805.702 0.197372 3.77384 0
M  V30 8581 H 806.015 1.02673 7.65949 0
M  V30 8582 H 804.36 0.916477 6.88931 0
M  V30 8583 H 807.551 0.328581 4.66945 0
M  V30 8584 H 807.724 0.706548 6.44137 0
M  V30 8585 N 801.13 -1.57531 -0.0467866 0
M  V30 8586 C 802.04 -2.08768 -1.07018 0
M  V30 8587 C 803.056 -1.02245 -1.40791 0
M  V30 8588 O 804.232 -1.33873 -1.50466 0
M  V30 8589 C 801.297 -2.54221 -2.35738 0
M  V30 8590 C 800.358 -3.75152 -2.08709 0
M  V30 8591 C 799.591 -4.18428 -3.31291 0
M  V30 8592 O 799.814 -3.61365 -4.4133 0
M  V30 8593 O 798.748 -5.11018 -3.18032 0
M  V30 8594 H 802.574 -2.96334 -0.664812 0
M  V30 8595 H 800.159 -1.47074 -0.262605 0
M  V30 8596 H 802.041 -2.83866 -3.11445 0
M  V30 8597 H 800.716 -1.69774 -2.75605 0
M  V30 8598 H 799.623 -3.50553 -1.30627 0
M  V30 8599 H 800.956 -4.60528 -1.73708 0
M  V30 8600 N 802.608 0.318715 -1.54344 0
M  V30 8601 C 803.571 1.37545 -1.83342 0
M  V30 8602 C 804.571 1.445 -0.705444 0
M  V30 8603 O 805.761 1.44443 -0.973752 0
M  V30 8604 C 802.893 2.76225 -1.99781 0
M  V30 8605 H 804.086 1.13084 -2.77762 0
M  V30 8606 H 801.639 0.554457 -1.46135 0
M  V30 8607 H 802.374 3.05934 -1.07588 0
M  V30 8608 H 802.159 2.7257 -2.81865 0
M  V30 8609 H 803.649 3.52664 -2.23647 0
M  V30 8610 N 804.086 1.46499 0.581025 0
M  V30 8611 C 805.334 1.51596 1.33653 0
M  V30 8612 C 805.655 0.169859 1.94259 0
M  V30 8613 O 804.925 -0.803776 1.78651 0
M  V30 8614 H 803.505 0.558346 0.496244 0
M  V30 8615 H 806.167 1.8264 0.680338 0
M  V30 8616 H 805.263 2.26956 2.14237 0
M  V30 8617 N 805.565 -0.825799 1.34232 0
M  V30 8618 C 806.475 -1.9684 1.27638 0
M  V30 8619 C 807.491 -1.73018 0.184569 0
M  V30 8620 O 808.667 -1.97172 0.410525 0
M  V30 8621 C 805.732 -3.31084 1.02879 0
M  V30 8622 C 804.793 -3.67933 2.21188 0
M  V30 8623 C 804.026 -4.95772 1.976 0
M  V30 8624 O 804.249 -5.62721 0.93281 0
M  V30 8625 O 803.183 -5.30431 2.84477 0
M  V30 8626 H 807.009 -2.05346 2.23756 0
M  V30 8627 H 804.594 -0.960772 1.1441 0
M  V30 8628 H 806.476 -4.11492 0.908406 0
M  V30 8629 H 805.151 -3.23552 0.0979821 0
M  V30 8630 H 804.058 -2.87981 2.38784 0
M  V30 8631 H 805.391 -3.80147 3.12648 0
M  V30 8632 N 807.043 -1.17915 -1.04565 0
M  V30 8633 C 808.291 -0.969505 -1.77327 0
M  V30 8634 C 808.612 0.502569 -1.88412 0
M  V30 8635 O 807.882 1.36467 -1.40547 0
M  V30 8636 H 806.462 -0.355723 -0.656864 0
M  V30 8637 H 809.124 -1.48506 -1.26223 0
M  V30 8638 H 808.22 -1.40324 -2.78775 0
M  V30 8639 N 808.521 1.23394 -0.980386 0
M  V30 8640 C 809.768 1.91809 -0.649261 0
M  V30 8641 C 810.096 1.765 0.817197 0
M  V30 8642 O 809.351 1.11979 1.60497 0
M  V30 8643 C 809.65 3.43542 -0.985588 0
M  V30 8644 C 809.316 3.79031 -2.44225 0
M  V30 8645 C 807.978 3.88429 -2.84035 0
M  V30 8646 C 810.33 3.96145 -3.38702 0
M  V30 8647 C 807.658 4.12368 -4.17336 0
M  V30 8648 C 810.01 4.21583 -4.71646 0
M  V30 8649 C 808.674 4.29203 -5.11215 0
M  V30 8650 H 807.944 0.70188 -0.237581 0
M  V30 8651 H 810.591 1.4642 -1.23424 0
M  V30 8652 H 808.896 3.90503 -0.318521 0
M  V30 8653 H 810.593 3.94708 -0.707596 0
M  V30 8654 H 807.183 3.7229 -2.12362 0
M  V30 8655 H 811.367 3.88274 -3.09123 0
M  V30 8656 H 806.623 4.1649 -4.47601 0
M  V30 8657 H 810.797 4.33769 -5.4481 0
M  V30 8658 H 808.424 4.47505 -6.14527 0
M  V30 8659 N 809.999 0.752036 1.385 0
M  V30 8660 C 811.247 0.306895 1.99756 0
M  V30 8661 C 811.568 -1.11478 1.59992 0
M  V30 8662 O 810.838 -1.76206 0.856045 0
M  V30 8663 H 809.418 0.11048 0.738785 0
M  V30 8664 H 812.08 0.965785 1.69289 0
M  V30 8665 H 811.176 0.368797 3.09913 0
M  V30 8666 N 811.477 -1.49425 0.500989 0
M  V30 8667 C 812.754 -1.9531 -0.106551 0
M  V30 8668 C 813.134 -1.44248 -1.54129 0
M  V30 8669 O 812.482 -0.656237 -2.18874 0
M  V30 8670 C 812.692 -3.48995 -0.0191972 0
M  V30 8671 C 814.04 -4.24161 -0.193129 0
M  V30 8672 O 815.064 -3.56075 -0.0943843 0
M  V30 8673 O 813.923 -5.45064 -0.395869 0
M  V30 8674 H 811.017 -0.82149 -0.0953068 0
M  V30 8675 H 813.563 -1.6007 0.563526 0
M  V30 8676 H 812.335 -3.78794 0.981353 0
M  V30 8677 H 811.958 -3.90852 -0.72942 0
M  V30 8678 N 812.955 -0.234822 -1.55841 0
M  V30 8679 C 814.202 0.39326 -1.98645 0
M  V30 8680 C 814.53 1.58823 -1.12274 0
M  V30 8681 O 813.785 1.94954 -0.170731 0
M  V30 8682 C 814.084 0.858032 -3.46947 0
M  V30 8683 C 813.75 -0.227858 -4.50324 0
M  V30 8684 C 812.412 -0.526128 -4.78315 0
M  V30 8685 C 814.764 -0.961576 -5.12253 0
M  V30 8686 C 812.092 -1.5624 -5.65514 0
M  V30 8687 C 814.444 -1.98728 -6.00575 0
M  V30 8688 C 813.108 -2.29233 -6.26904 0
M  V30 8689 H 812.378 0.143904 -0.726892 0
M  V30 8690 H 815.025 -0.34012 -1.88455 0
M  V30 8691 H 813.33 1.67041 -3.54408 0
M  V30 8692 H 815.027 1.35407 -3.77447 0
M  V30 8693 H 811.617 0.0147624 -4.28597 0
M  V30 8694 H 815.801 -0.744388 -4.90686 0
M  V30 8695 H 811.057 -1.80422 -5.84173 0
M  V30 8696 H 815.231 -2.5608 -6.47608 0
M  V30 8697 H 812.858 -3.09671 -6.94268 0
M  V30 8698 N 814.433 1.57553 0.0384317 0
M  V30 8699 C 815.661 1.93093 0.743141 0
M  V30 8700 C 816.076 0.833787 1.69391 0
M  V30 8701 O 815.433 -0.190532 1.81503 0
M  V30 8702 C 815.484 3.28533 1.50826 0
M  V30 8703 O 815.205 4.34032 0.595665 0
M  V30 8704 C 816.706 3.78297 2.31098 0
M  V30 8705 H 813.926 0.637486 0.20941 0
M  V30 8706 H 816.47 2.045 -0.00125154 0
M  V30 8707 H 814.625 3.18552 2.20462 0
M  V30 8708 H 815.039 5.12155 1.13124 0
M  V30 8709 H 816.513 4.75602 2.80191 0
M  V30 8710 H 816.99 3.09008 3.12107 0
M  V30 8711 H 817.596 3.91331 1.66555 0
M  V30 8712 N 815.911 -0.310526 1.54511 0
M  V30 8713 C 817.157 -1.04846 1.73595 0
M  V30 8714 C 817.49 -1.87244 0.515118 0
M  V30 8715 O 816.765 -1.88282 -0.48786 0
M  V30 8716 C 817.048 -1.96237 3.01932 0
M  V30 8717 C 816.901 -1.17082 4.34295 0
M  V30 8718 C 818.22 -2.9556 3.26086 0
M  V30 8719 H 815.339 -0.37976 0.631626 0
M  V30 8720 H 817.981 -0.32394 1.87218 0
M  V30 8721 H 816.131 -2.58015 2.90449 0
M  V30 8722 H 817.803 -0.576643 4.57682 0
M  V30 8723 H 816.046 -0.473336 4.3121 0
M  V30 8724 H 816.717 -1.84257 5.20339 0
M  V30 8725 H 819.193 -2.43908 3.37117 0
M  V30 8726 H 818.069 -3.5668 4.17218 0
M  V30 8727 H 818.33 -3.68715 2.4393 0
M  V30 8728 N 817.389 -1.46805 -0.573248 0
M  V30 8729 C 818.805 -1.31969 -0.897577 0
M  V30 8730 C 819.005 -0.298171 -1.99282 0
M  V30 8731 O 818.061 0.295953 -2.5076 0
M  V30 8732 C 819.374 -2.70859 -1.30598 0
M  V30 8733 C 820.922 -2.79022 -1.4183 0
M  V30 8734 C 821.397 -4.18516 -1.86033 0
M  V30 8735 N 822.888 -4.2098 -1.9321 0
M  V30 8736 C 823.623 -5.25814 -2.28707 0
M  V30 8737 N 823.119 -6.40968 -2.6293 0
M  V30 8738 N 824.912 -5.13184 -2.29343 0
M  V30 8739 H 817.063 -2.11869 0.150094 0
M  V30 8740 H 819.326 -0.947989 0.00447895 0
M  V30 8741 H 819.032 -3.46965 -0.575161 0
M  V30 8742 H 818.906 -3.01585 -2.26554 0
M  V30 8743 H 821.293 -2.03198 -2.13996 0
M  V30 8744 H 821.374 -2.51969 -0.441024 0
M  V30 8745 H 821.018 -4.94839 -1.14442 0
M  V30 8746 H 820.948 -4.42982 -2.84735 0
M  V30 8747 H 823.439 -3.37898 -1.69214 0
M  V30 8748 H 823.752 -7.16729 -2.88996 0
M  V30 8749 H 822.097 -6.44314 -2.60547 0
M  V30 8750 H 825.288 -4.22255 -2.02036 0
M  V30 8751 H 825.461 -5.94996 -2.56679 0
M  V30 8752 N 818.867 0.818669 -1.34668 0
M  V30 8753 C 819.83 1.9114 -1.26483 0
M  V30 8754 C 820.83 1.598 -0.179044 0
M  V30 8755 O 822.02 1.6876 -0.431952 0
M  V30 8756 C 819.152 3.27285 -0.95381 0
M  V30 8757 H 820.345 1.9982 -2.23634 0
M  V30 8758 H 817.898 1.01314 -1.19018 0
M  V30 8759 H 818.633 3.24297 0.0143428 0
M  V30 8760 H 818.418 3.51416 -1.73924 0
M  V30 8761 H 819.908 4.07299 -0.921827 0
M  V30 8762 N 820.346 1.18468 1.03938 0
M  V30 8763 C 821.594 0.978895 1.76811 0
M  V30 8764 C 821.915 -0.49257 1.88676 0
M  V30 8765 O 821.185 -1.3572 1.41269 0
M  V30 8766 H 819.765 0.359201 0.654968 0
M  V30 8767 H 822.427 1.49173 1.25433 0
M  V30 8768 H 821.523 1.418 2.78027 0
M  V30 8769 N 821.824 -1.22873 0.986916 0
M  V30 8770 C 823.073 -1.90772 0.654911 0
M  V30 8771 C 823.386 -1.77768 -0.81595 0
M  V30 8772 O 824.592 -2.40529 -1.25929 0
M  V30 8773 C 823.048 -3.42003 1.12081 0
M  V30 8774 C 822.656 -3.63655 2.61647 0
M  V30 8775 C 824.4 -4.15638 0.862854 0
M  V30 8776 C 822.307 -5.08555 3.01871 0
M  V30 8777 H 821.237 -0.714362 0.241252 0
M  V30 8778 H 823.888 -1.39196 1.19568 0
M  V30 8779 H 822.27 -3.92725 0.508207 0
M  V30 8780 H 823.444 -3.2345 3.28202 0
M  V30 8781 H 821.759 -3.03341 2.8526 0
M  V30 8782 H 824.356 -5.22425 1.13915 0
M  V30 8783 H 824.699 -4.15814 -0.201036 0
M  V30 8784 H 825.232 -3.70924 1.43736 0
M  V30 8785 H 821.971 -5.13514 4.07411 0
M  V30 8786 H 821.491 -5.49684 2.40015 0
M  V30 8787 H 823.17 -5.76936 2.92839 0
M  V30 8788 N 823.302 -0.75937 -1.38099 0
M  V30 8789 C 824.551 -0.314864 -1.99227 0
M  V30 8790 C 824.864 1.1113 -1.60964 0
M  V30 8791 O 826.07 1.65657 -2.15105 0
M  V30 8792 C 824.526 -0.512001 -3.56239 0
M  V30 8793 C 824.134 -1.94762 -4.0345 0
M  V30 8794 C 825.878 -0.130497 -4.24299 0
M  V30 8795 C 823.785 -2.09301 -5.53125 0
M  V30 8796 H 822.715 -0.113978 -0.745335 0
M  V30 8797 H 825.366 -0.936736 -1.57789 0
M  V30 8798 H 823.748 0.179144 -3.95595 0
M  V30 8799 H 824.922 -2.67271 -3.75371 0
M  V30 8800 H 823.237 -2.28457 -3.48133 0
M  V30 8801 H 825.834 -0.21781 -5.34256 0
M  V30 8802 H 826.177 0.917644 -4.0606 0
M  V30 8803 H 826.71 -0.773716 -3.90203 0
M  V30 8804 H 823.449 -3.1239 -5.76275 0
M  V30 8805 H 822.969 -1.41261 -5.82928 0
M  V30 8806 H 824.648 -1.88571 -6.1891 0
M  V30 8807 N 824.78 1.49157 -0.508906 0
M  V30 8808 C 826.196 1.58741 -0.165372 0
M  V30 8809 C 826.396 1.5133 1.33047 0
M  V30 8810 O 825.452 1.39135 2.10707 0
M  V30 8811 C 826.765 2.91217 -0.749194 0
M  V30 8812 C 828.313 3.047 -0.716015 0
M  V30 8813 C 828.788 4.39807 -1.27804 0
M  V30 8814 N 830.279 4.46319 -1.23908 0
M  V30 8815 C 831.014 5.49325 -1.64406 0
M  V30 8816 N 830.51 6.59395 -2.12534 0
M  V30 8817 N 832.303 5.40084 -1.55773 0
M  V30 8818 H 824.454 1.52217 -1.48134 0
M  V30 8819 H 826.717 0.721514 -0.614915 0
M  V30 8820 H 826.423 3.02233 -1.79856 0
M  V30 8821 H 826.297 3.76592 -0.214144 0
M  V30 8822 H 828.684 2.9331 0.324535 0
M  V30 8823 H 828.765 2.2099 -1.2883 0
M  V30 8824 H 828.409 4.5195 -2.31741 0
M  V30 8825 H 828.339 5.2217 -0.681623 0
M  V30 8826 H 830.83 3.67354 -0.886537 0
M  V30 8827 H 831.143 7.34102 -2.41485 0
M  V30 8828 H 829.488 6.60414 -2.16513 0
M  V30 8829 H 832.679 4.52986 -1.17987 0
M  V30 8830 H 832.852 6.20233 -1.87657 0
M  V30 8831 N 826.258 0.243083 1.55714 0
M  V30 8832 C 827.669 -0.260788 1.8487 0
M  V30 8833 C 828.02 -1.57879 1.16485 0
M  V30 8834 O 827.145 -2.1184 0.441908 0
M  V30 8835 C 827.74 -0.479954 3.35383 0
M  V30 8836 C 826.299 -0.928096 3.64778 0
M  V30 8837 C 825.446 -0.00316416 2.773 0
M  V30 8838 H 828.397 0.465743 1.51712 0
M  V30 8839 H 828.418 -1.32308 3.56756 0
M  V30 8840 H 827.93 0.479468 3.85127 0
M  V30 8841 H 826.031 -1.90012 3.20509 0
M  V30 8842 H 826.144 -0.7876 4.72582 0
M  V30 8843 H 824.508 -0.513849 2.49463 0
M  V30 8844 H 825.291 0.951562 3.29849 0
M  V30 8845 N 827.736 -1.57571 -0.0300757 0
M  V30 8846 C 828.982 -1.89506 -0.722159 0
M  V30 8847 C 829.315 -0.840699 -1.7506 0
M  V30 8848 O 828.59 0.144358 -1.93964 0
M  V30 8849 C 828.873 -3.32081 -1.39262 0
M  V30 8850 C 828.726 -4.48211 -0.377768 0
M  V30 8851 C 830.045 -3.73557 -2.32687 0
M  V30 8852 H 827.164 -0.689213 -0.261064 0
M  V30 8853 H 829.806 -1.89994 0.0150388 0
M  V30 8854 H 827.956 -3.31796 -2.02098 0
M  V30 8855 H 829.628 -4.6063 0.248591 0
M  V30 8856 H 827.871 -4.3274 0.303045 0
M  V30 8857 H 828.542 -5.44854 -0.885347 0
M  V30 8858 H 831.018 -3.75202 -1.79896 0
M  V30 8859 H 829.894 -4.74125 -2.7658 0
M  V30 8860 H 830.155 -3.05759 -3.19317 0
M  V30 8861 N 829.214 0.302327 -1.54673 0
M  V30 8862 C 830.144 1.37759 -1.88533 0
M  V30 8863 C 831.125 1.52961 -0.744113 0
M  V30 8864 O 832.31 1.6649 -0.999731 0
M  V30 8865 C 829.44 2.74201 -2.13146 0
M  V30 8866 C 828.394 2.73765 -3.28993 0
M  V30 8867 C 827.72 4.13483 -3.39022 0
M  V30 8868 C 829.02 2.35624 -4.66132 0
M  V30 8869 H 830.714 1.0967 -2.78591 0
M  V30 8870 H 828.26 0.52613 -1.34044 0
M  V30 8871 H 830.213 3.49508 -2.35419 0
M  V30 8872 H 828.937 3.03812 -1.19858 0
M  V30 8873 H 827.596 2.00914 -3.06642 0
M  V30 8874 H 827.244 4.40269 -2.43253 0
M  V30 8875 H 826.944 4.14093 -4.16894 0
M  V30 8876 H 828.468 4.90572 -3.63553 0
M  V30 8877 H 829.882 3.00647 -4.88143 0
M  V30 8878 H 828.279 2.47449 -5.46707 0
M  V30 8879 H 829.349 1.30753 -4.66939 0
M  V30 8880 N 830.692 1.47107 0.565454 0
M  V30 8881 C 831.969 1.43787 1.32607 0
M  V30 8882 C 832.349 0.130428 2.10697 0
M  V30 8883 O 831.697 -0.888086 2.10536 0
M  V30 8884 C 831.907 2.67833 2.23755 0
M  V30 8885 C 833.255 3.14704 2.85037 0
M  V30 8886 O 834.279 2.68503 2.34061 0
M  V30 8887 O 833.138 3.95002 3.77671 0
M  V30 8888 H 830.232 0.572623 0.596684 0
M  V30 8889 H 832.778 1.59296 0.58504 0
M  V30 8890 H 831.55 3.54532 1.65597 0
M  V30 8891 H 831.173 2.54869 3.05168 0
M  V30 8892 N 832.17 -0.811516 1.35101 0
M  V30 8893 C 833.581 -1.38515 1.25182 0
M  V30 8894 C 833.932 -1.95846 -0.117883 0
M  V30 8895 O 833.057 -1.90925 -1.01866 0
M  V30 8896 C 833.652 -2.51813 2.26662 0
M  V30 8897 C 832.211 -3.05052 2.20499 0
M  V30 8898 C 831.358 -1.77987 2.12641 0
M  V30 8899 H 834.309 -0.614959 1.46301 0
M  V30 8900 H 834.33 -3.30228 1.89023 0
M  V30 8901 H 833.842 -2.10057 3.2634 0
M  V30 8902 H 831.943 -3.51285 1.24215 0
M  V30 8903 H 832.056 -3.63368 3.1225 0
M  V30 8904 H 830.42 -1.99342 1.5854 0
M  V30 8905 H 831.203 -1.38389 3.14171 0
M  V30 8906 N 833.648 -1.19017 -1.03309 0
M  V30 8907 C 834.611 -0.926076 -2.09658 0
M  V30 8908 C 835.611 0.0917077 -1.60538 0
M  V30 8909 O 836.801 -0.142574 -1.73616 0
M  V30 8910 C 833.933 -0.390958 -3.38651 0
M  V30 8911 H 835.126 -1.86923 -2.3452 0
M  V30 8912 H 832.679 -1.00325 -1.19853 0
M  V30 8913 H 833.414 0.558446 -3.19456 0
M  V30 8914 H 833.199 -1.12474 -3.75622 0
M  V30 8915 H 834.689 -0.225131 -4.16993 0
M  V30 8916 N 835.127 1.22348 -0.993418 0
M  V30 8917 C 836.543 1.43222 -0.704238 0
M  V30 8918 C 836.743 1.88009 0.724909 0
M  V30 8919 O 835.799 2.03429 1.49575 0
M  V30 8920 C 837.112 2.47328 -1.71025 0
M  V30 8921 C 838.66 2.61126 -1.72576 0
M  V30 8922 C 839.135 3.68453 -2.72041 0
M  V30 8923 N 840.626 3.75911 -2.70639 0
M  V30 8924 C 841.361 4.58551 -3.44266 0
M  V30 8925 N 840.857 5.45179 -4.27495 0
M  V30 8926 N 842.65 4.52866 -3.32969 0
M  V30 8927 H 834.801 0.915832 -1.91641 0
M  V30 8928 H 837.064 0.464283 -0.826526 0
M  V30 8929 H 836.77 2.21366 -2.73295 0
M  V30 8930 H 836.644 3.45939 -1.50353 0
M  V30 8931 H 839.031 2.86431 -0.710037 0
M  V30 8932 H 839.112 1.62787 -1.97317 0
M  V30 8933 H 838.756 3.43895 -3.73763 0
M  V30 8934 H 838.686 4.66362 -2.4457 0
M  V30 8935 H 841.177 3.14014 -2.10247 0
M  V30 8936 H 841.49 6.0526 -4.80499 0
M  V30 8937 H 839.835 5.44759 -4.31582 0
M  V30 8938 H 843.026 3.84215 -2.67389 0
M  V30 8939 H 843.199 5.17039 -3.90608 0
M  V30 8940 N 836.605 0.766683 1.37694 0
M  V30 8941 C 837.882 0.25366 1.93948 0
M  V30 8942 C 838.262 -1.25041 1.70082 0
M  V30 8943 O 837.61 -2.03115 1.04674 0
M  V30 8944 C 837.82 0.621549 3.43421 0
M  V30 8945 C 839.168 0.588504 4.20502 0
M  V30 8946 O 840.192 0.560632 3.5176 0
M  V30 8947 O 839.051 0.61107 5.43073 0
M  V30 8948 H 836.145 0.0570586 0.825029 0
M  V30 8949 H 838.691 0.847693 1.47011 0
M  V30 8950 H 837.463 1.65979 3.54354 0
M  V30 8951 H 837.086 0.000197027 3.976 0
M  V30 8952 N 838.083 -1.48885 0.516809 0
M  V30 8953 C 839.013 -2.32241 -0.242157 0
M  V30 8954 C 839.994 -1.41258 -0.947633 0
M  V30 8955 O 841.179 -1.70156 -0.935973 0
M  V30 8956 C 838.309 -3.22151 -1.29754 0
M  V30 8957 C 837.263 -4.22053 -0.710995 0
M  V30 8958 C 836.589 -5.01007 -1.86806 0
M  V30 8959 C 837.889 -5.21388 0.30853 0
M  V30 8960 H 839.583 -2.95943 0.453651 0
M  V30 8961 H 837.129 -1.42316 0.219612 0
M  V30 8962 H 839.082 -3.79284 -1.83634 0
M  V30 8963 H 837.806 -2.56423 -2.02274 0
M  V30 8964 H 836.465 -3.66087 -0.193819 0
M  V30 8965 H 836.113 -4.31713 -2.58133 0
M  V30 8966 H 835.813 -5.68615 -1.48159 0
M  V30 8967 H 837.337 -5.60989 -2.4109 0
M  V30 8968 H 838.751 -5.73122 -0.142703 0
M  V30 8969 H 837.148 -5.96975 0.611673 0
M  V30 8970 H 838.218 -4.69329 1.21894 0
M  V30 8971 N 839.561 -0.251338 -1.55583 0
M  V30 8972 C 840.807 0.365823 -2.00083 0
M  V30 8973 C 841.162 1.55242 -1.13656 0
M  V30 8974 O 840.455 1.90624 -0.193108 0
M  V30 8975 C 840.649 0.821186 -3.47838 0
M  V30 8976 C 840.478 -0.319746 -4.48562 0
M  V30 8977 C 839.248 -0.795866 -4.98993 0
M  V30 8978 C 841.446 -1.14825 -5.01318 0
M  V30 8979 N 839.428 -1.90875 -5.83472 0
M  V30 8980 C 840.799 -2.10943 -5.83012 0
M  V30 8981 C 842.854 -1.18431 -4.8361 0
M  V30 8982 C 841.557 -3.10383 -6.48888 0
M  V30 8983 C 843.583 -2.16703 -5.50267 0
M  V30 8984 C 842.945 -3.11557 -6.31753 0
M  V30 8985 H 839.044 0.0996971 -0.775619 0
M  V30 8986 H 841.628 -0.36993 -1.91153 0
M  V30 8987 H 839.799 1.52622 -3.57157 0
M  V30 8988 H 841.531 1.41367 -3.79206 0
M  V30 8989 H 838.286 -0.379242 -4.72079 0
M  V30 8990 H 838.71 -2.46808 -6.30408 0
M  V30 8991 H 843.352 -0.464824 -4.20237 0
M  V30 8992 H 841.07 -3.83277 -7.11424 0
M  V30 8993 H 844.656 -2.20204 -5.38518 0
M  V30 8994 H 843.536 -3.86357 -6.82421 0
M  V30 8995 N 841.039 1.57585 0.0217189 0
M  V30 8996 C 842.316 1.80779 0.74687 0
M  V30 8997 C 842.696 0.851163 1.9318 0
M  V30 8998 O 842.044 -0.105039 2.28258 0
M  V30 8999 C 842.254 3.28696 1.17302 0
M  V30 9000 C 843.602 3.93871 1.58589 0
M  V30 9001 O 844.626 3.3289 1.2674 0
M  V30 9002 O 843.485 5.01254 2.1773 0
M  V30 9003 H 840.579 0.743666 0.361786 0
M  V30 9004 H 843.125 1.697 -0.00206785 0
M  V30 9005 H 841.897 3.89927 0.327453 0
M  V30 9006 H 841.52 3.44692 1.98174 0
M  V30 9007 O 842.556 -0.164421 1.60661 0
M  V30 9008 H 843.247 -0.800403 1.76389 0
M  V30 END ATOM
M  V30 BEGIN BOND
M  V30 END BOND
M  V30 END CTAB
M  END
$$$$
