drugbank_target|P17812 CTP synthase 1 (DB00130)
 OpenBabel12092119423D

  0  0  0     0  0            999 V3000
M  V30 BEGIN CTAB
M  V30 COUNTS 9367 9472 0 0 0
M  V30 BEGIN ATOM
M  V30 1 H -0.908 1.98254 -0.117106 0
M  V30 2 N 0 1.576 0 0
M  V30 3 C 0.933 2.03868 1.02534 0
M  V30 4 C 1.911 0.928543 1.3348 0
M  V30 5 O 3.095 1.19667 1.45644 0
M  V30 6 C 0.222 2.43627 2.35294 0
M  V30 7 C -0.732 3.65373 2.2001 0
M  V30 8 S 0.101 5.13292 1.52614 0
M  V30 9 C 1.257 5.56322 2.86805 0
M  V30 10 H 1.49 2.90518 0.631377 0
M  V30 11 H -0.977 1.52953 0.210867 0
M  V30 12 H 0.981 2.67203 3.11629 0
M  V30 13 H -0.358 1.57376 2.7183 0
M  V30 14 H -1.165 3.90944 3.18086 0
M  V30 15 H -1.563 3.418 1.51819 0
M  V30 16 H 0.729 5.58782 3.83104 0
M  V30 17 H 1.672 6.56266 2.65933 0
M  V30 18 H 2.08 4.83886 2.90714 0
M  V30 19 N 1.4781 -0.272755 1.55222 0
M  V30 20 C 2.4251 -1.33716 1.88119 0
M  V30 21 C 3.3951 -1.49066 0.73271 0
M  V30 22 O 4.5801 -1.63469 0.984002 0
M  V30 23 C 1.7201 -2.69238 2.15882 0
M  V30 24 C 0.8331 -2.62108 3.43399 0
M  V30 25 C -0.0319 -3.89811 3.60861 0
M  V30 26 C -0.9929 -3.77193 4.8207 0
M  V30 27 N -1.8559 -4.9673 4.96189 0
M  V30 28 H 2.9841 -1.04962 2.78903 0
M  V30 29 H 0.5211 -0.507088 1.38083 0
M  V30 30 H 2.4791 -3.48089 2.29978 0
M  V30 31 H 1.1091 -2.96194 1.28331 0
M  V30 32 H 0.1611 -1.74967 3.37773 0
M  V30 33 H 1.4731 -2.48685 4.32386 0
M  V30 34 H 0.6271 -4.77103 3.74777 0
M  V30 35 H -0.6339 -4.06102 2.7006 0
M  V30 36 H -1.6289 -2.88284 4.68159 0
M  V30 37 H -0.4039 -3.62421 5.74307 0
M  V30 38 H -2.4579 -5.13431 4.08319 0
M  V30 39 H -2.5409 -4.85839 5.79221 0
M  V30 40 H -1.2729 -5.85594 5.1449 0
M  V30 41 N 2.9562 -1.48159 -0.537278 0
M  V30 42 C 4.1862 -1.59223 -1.3165 0
M  V30 43 C 4.5942 -0.248849 -1.87556 0
M  V30 44 O 3.9372 0.770949 -1.6674 0
M  V30 45 C 3.9992 -2.57365 -2.51005 0
M  V30 46 C 3.6632 -4.02603 -2.16239 0
M  V30 47 C 4.6602 -4.90503 -1.72344 0
M  V30 48 C 2.3452 -4.48088 -2.26986 0
M  V30 49 C 4.3392 -6.21913 -1.39651 0
M  V30 50 C 2.0262 -5.7952 -1.93906 0
M  V30 51 C 3.0242 -6.66255 -1.50309 0
M  V30 52 O 2.7122 -7.95243 -1.17659 0
M  V30 53 H 2.4442 -0.539831 -0.406889 0
M  V30 54 H 4.9982 -1.94655 -0.655641 0
M  V30 55 H 3.2282 -2.1704 -3.20048 0
M  V30 56 H 4.9172 -2.58342 -3.13072 0
M  V30 57 H 5.6832 -4.56604 -1.63517 0
M  V30 58 H 1.5622 -3.80769 -2.59877 0
M  V30 59 H 5.1062 -6.89569 -1.0555 0
M  V30 60 H 1.0032 -6.12957 -2.02371 0
M  V30 61 H 1.7712 -8.0793 -1.31119 0
M  V30 62 N 4.4343 0.785586 -1.36625 0
M  V30 63 C 5.6833 1.53883 -1.30396 0
M  V30 64 C 5.9963 1.95271 0.113452 0
M  V30 65 O 7.2023 2.69858 0.298142 0
M  V30 66 C 5.6583 2.77808 -2.28802 0
M  V30 67 C 5.2663 2.43574 -3.75999 0
M  V30 68 C 7.0103 3.55783 -2.31558 0
M  V30 69 C 4.9173 3.63919 -4.66173 0
M  V30 70 H 3.8473 0.577678 -0.484566 0
M  V30 71 H 6.4983 0.861705 -1.62009 0
M  V30 72 H 4.8803 3.47339 -1.90188 0
M  V30 73 H 6.0543 1.81916 -4.23371 0
M  V30 74 H 4.3693 1.78803 -3.76056 0
M  V30 75 H 6.9663 4.45205 -2.96137 0
M  V30 76 H 7.3093 3.94644 -1.3252 0
M  V30 77 H 7.8423 2.93235 -2.68809 0
M  V30 78 H 4.5813 3.3015 -5.66287 0
M  V30 79 H 4.1013 4.2473 -4.23515 0
M  V30 80 H 5.7803 4.30901 -4.82632 0
M  V30 81 N 5.9124 1.20967 1.01018 0
M  V30 82 C 6.8424 0.988272 2.11555 0
M  V30 83 C 7.8234 -0.0849778 1.69888 0
M  V30 84 O 9.0084 0.0738202 1.9406 0
M  V30 85 C 6.1384 0.546528 3.42973 0
M  V30 86 C 5.0924 1.56375 3.9841 0
M  V30 87 C 4.4184 0.97842 5.25672 0
M  V30 88 C 5.7184 2.94922 4.31066 0
M  V30 89 H 7.4124 1.91276 2.30334 0
M  V30 90 H 4.9584 0.921073 1.1069 0
M  V30 91 H 6.9114 0.378839 4.19694 0
M  V30 92 H 5.6354 -0.413598 3.23971 0
M  V30 93 H 4.2944 1.71891 3.23804 0
M  V30 94 H 3.9424 0.0101688 5.02999 0
M  V30 95 H 3.6424 1.65784 5.63728 0
M  V30 96 H 5.1664 0.821939 6.05043 0
M  V30 97 H 6.5804 2.8288 4.9865 0
M  V30 98 H 4.9774 3.5983 4.80253 0
M  V30 99 H 6.0474 3.4616 3.39561 0
M  V30 100 N 7.3905 -1.2043 1.01659 0
M  V30 101 C 8.6365 -1.90079 0.706963 0
M  V30 102 C 8.9695 -1.78648 -0.761474 0
M  V30 103 O 8.2445 -1.17069 -1.55323 0
M  V30 104 C 8.5275 -3.41469 1.14327 0
M  V30 105 C 8.3805 -3.61833 2.67201 0
M  V30 106 C 9.6995 -4.34261 0.714529 0
M  V30 107 H 6.8185 -0.690254 0.2583 0
M  V30 108 H 9.4605 -1.41826 1.26433 0
M  V30 109 H 7.6105 -3.82696 0.669056 0
M  V30 110 H 9.2825 -3.2986 3.22475 0
M  V30 111 H 7.5255 -3.05304 3.08175 0
M  V30 112 H 8.1965 -4.67955 2.92783 0
M  V30 113 H 10.6725 -4.00682 1.12221 0
M  V30 114 H 9.5485 -5.38806 1.04784 0
M  V30 115 H 9.8095 -4.40431 -0.383799 0
M  V30 116 N 8.8686 -0.792821 -1.36206 0
M  V30 117 C 10.0966 -0.378825 -2.03402 0
M  V30 118 C 10.5116 1.00586 -1.59774 0
M  V30 119 O 9.8686 1.64574 -0.788764 0
M  V30 120 C 9.9196 -0.43683 -3.58851 0
M  V30 121 O 9.6406 -1.76691 -4.00889 0
M  V30 122 C 11.1416 -0.0138943 -4.43298 0
M  V30 123 H 8.3616 -0.155673 -0.652692 0
M  V30 124 H 10.9056 -1.07261 -1.74113 0
M  V30 125 H 9.0606 0.208575 -3.86838 0
M  V30 126 H 9.4746 -1.72011 -4.95492 0
M  V30 127 H 10.9486 -0.105615 -5.51899 0
M  V30 128 H 11.4256 1.03915 -4.2673 0
M  V30 129 H 12.0316 -0.63192 -4.20579 0
M  V30 130 N 10.3467 1.47872 -0.545128 0
M  V30 131 C 11.5947 2.02093 -0.016553 0
M  V30 132 C 11.9157 1.42305 1.3332 0
M  V30 133 O 11.1857 0.593853 1.86682 0
M  V30 134 H 9.7657 0.746993 -0.00313038 0
M  V30 135 H 12.4277 1.81414 -0.712397 0
M  V30 136 H 11.5237 3.11996 0.0805422 0
M  V30 137 N 11.8248 0.280983 1.55075 0
M  V30 138 C 13.0728 -0.333455 1.9933 0
M  V30 139 C 13.3938 -1.55937 1.17085 0
M  V30 140 O 12.6638 -1.94143 0.261805 0
M  V30 141 H 11.2438 -0.126197 0.736263 0
M  V30 142 H 13.9058 0.387678 1.91005 0
M  V30 143 H 13.0018 -0.619292 3.05894 0
M  V30 144 N 13.3029 -1.57598 0.00835791 0
M  V30 145 C 14.5489 -1.91211 -0.675732 0
M  V30 146 C 14.8819 -0.883139 -1.72958 0
M  V30 147 O 14.1569 0.097016 -1.94258 0
M  V30 148 C 14.4399 -3.35379 -1.31123 0
M  V30 149 C 14.2929 -4.48999 -0.268356 0
M  V30 150 C 15.6119 -3.7912 -2.23508 0
M  V30 151 H 12.7309 -0.695374 -0.244179 0
M  V30 152 H 15.3729 -1.89901 0.0613655 0
M  V30 153 H 13.5229 -3.36626 -1.93946 0
M  V30 154 H 15.1949 -4.59887 0.360844 0
M  V30 155 H 13.4379 -4.31873 0.408482 0
M  V30 156 H 14.1089 -5.46851 -0.752218 0
M  V30 157 H 16.5849 -3.79477 -1.70693 0
M  V30 158 H 15.4609 -4.80729 -2.64936 0
M  V30 159 H 15.7219 -3.13455 -3.11766 0
M  V30 160 N 14.781 0.264519 -1.55364 0
M  V30 161 C 16.03 0.992812 -1.75574 0
M  V30 162 C 16.343 1.87142 -0.568979 0
M  V30 163 O 17.549 2.63513 -0.653682 0
M  V30 164 C 16.005 1.81519 -3.10771 0
M  V30 165 C 15.613 0.984839 -4.37041 0
M  V30 166 C 17.357 2.53727 -3.40327 0
M  V30 167 C 15.264 1.80209 -5.63275 0
M  V30 168 H 14.194 0.374412 -0.65447 0
M  V30 169 H 16.845 0.248138 -1.81815 0
M  V30 170 H 15.227 2.60115 -2.98591 0
M  V30 171 H 16.401 0.242455 -4.60162 0
M  V30 172 H 14.716 0.37691 -4.14691 0
M  V30 173 H 17.313 3.15292 -4.3185 0
M  V30 174 H 17.656 3.24447 -2.60845 0
M  V30 175 H 18.189 1.82156 -3.53644 0
M  V30 176 H 14.928 1.13896 -6.45529 0
M  V30 177 H 14.448 2.52022 -5.44284 0
M  V30 178 H 16.127 2.37364 -6.01887 0
M  V30 179 N 16.2591 1.48442 0.529413 0
M  V30 180 C 17.4841 1.60406 1.31471 0
M  V30 181 C 17.9091 0.264738 1.86228 0
M  V30 182 O 17.2671 -0.763668 1.64432 0
M  V30 183 C 17.3151 2.65419 2.44101 0
M  V30 184 O 16.4191 2.22618 3.47153 0
M  V30 185 H 15.7601 0.537863 0.389357 0
M  V30 186 H 18.2901 1.94432 0.636965 0
M  V30 187 H 18.3001 2.86709 2.90279 0
M  V30 188 H 16.9751 3.62652 2.03608 0
M  V30 189 H 15.5521 2.11543 3.0709 0
M  V30 190 N 17.7372 -0.778329 1.37039 0
M  V30 191 C 18.9852 -1.53361 1.31623 0
M  V30 192 C 19.3062 -1.94739 -0.100831 0
M  V30 193 O 18.5762 -1.65797 -1.04347 0
M  V30 194 H 17.1562 -0.568794 0.484234 0
M  V30 195 H 19.8182 -0.926742 1.71457 0
M  V30 196 H 18.9142 -2.43606 1.95096 0
M  V30 197 N 19.2153 -1.21501 -1.00376 0
M  V30 198 C 20.4643 -1.02718 -1.73586 0
M  V30 199 C 20.7773 0.439589 -1.90596 0
M  V30 200 O 21.9833 0.746848 -2.61026 0
M  V30 201 C 20.4393 -1.78929 -3.1227 0
M  V30 202 C 20.0473 -3.29783 -3.03228 0
M  V30 203 C 21.7913 -1.68557 -3.89601 0
M  V30 204 C 19.6983 -3.98479 -4.36999 0
M  V30 205 H 18.6283 -0.380733 -0.650814 0
M  V30 206 H 21.2793 -1.45248 -1.1214 0
M  V30 207 H 19.6613 -1.29192 -3.74333 0
M  V30 208 H 20.8353 -3.86832 -2.50395 0
M  V30 209 H 19.1503 -3.40711 -2.39385 0
M  V30 210 H 21.7473 -2.17211 -4.88593 0
M  V30 211 H 22.0903 -0.644021 -4.11288 0
M  V30 212 H 22.6233 -2.15778 -3.34193 0
M  V30 213 H 19.3623 -5.02841 -4.20513 0
M  V30 214 H 18.8823 -3.46219 -4.89788 0
M  V30 215 H 20.5613 -4.03462 -5.05794 0
M  V30 216 N 20.6934 1.19889 -1.02296 0
M  V30 217 C 21.9414 1.89046 -0.714558 0
M  V30 218 C 22.2624 1.79636 0.758681 0
M  V30 219 O 21.5324 1.20292 1.54618 0
M  V30 220 H 20.1124 0.699802 -0.261317 0
M  V30 221 H 22.7744 1.45574 -1.29592 0
M  V30 222 H 21.8704 2.95524 -1.0036 0
M  V30 223 N 22.1715 0.800033 1.35784 0
M  V30 224 C 23.1185 0.203848 2.29898 0
M  V30 225 C 24.0885 -0.658375 1.52495 0
M  V30 226 O 25.2735 -0.604832 1.8096 0
M  V30 227 C 22.4135 -0.64688 3.38983 0
M  V30 228 C 21.5265 0.235054 4.3136 0
M  V30 229 C 20.6615 -0.623054 5.27533 0
M  V30 230 C 19.7005 0.259682 6.11549 0
M  V30 231 N 18.8375 -0.558019 6.99879 0
M  V30 232 H 23.6775 1.01186 2.80295 0
M  V30 233 H 21.2145 0.51053 1.37957 0
M  V30 234 H 23.1725 -1.15521 4.00887 0
M  V30 235 H 21.8025 -1.42021 2.89879 0
M  V30 236 H 20.8545 0.861438 3.70518 0
M  V30 237 H 22.1665 0.914768 4.9034 0
M  V30 238 H 21.3205 -1.19678 5.94779 0
M  V30 239 H 20.0595 -1.33636 4.69034 0
M  V30 240 H 19.0645 0.845726 5.43256 0
M  V30 241 H 20.2895 0.970748 6.72126 0
M  V30 242 H 18.2355 -1.25542 6.43875 0
M  V30 243 H 18.1525 0.0637872 7.55973 0
M  V30 244 H 19.4205 -1.11523 7.71481 0
M  V30 245 N 23.6496 -1.47581 0.552962 0
M  V30 246 C 24.8976 -2.02082 0.0272703 0
M  V30 247 C 25.2186 -1.4301 -1.32563 0
M  V30 248 O 24.4886 -0.603745 -1.86365 0
M  V30 249 H 23.0686 -0.746966 0.00709182 0
M  V30 250 H 25.7306 -1.81033 0.722008 0
M  V30 251 H 24.8266 -3.12034 -0.0639951 0
M  V30 252 N 25.1277 -0.289203 -1.54924 0
M  V30 253 C 26.3767 0.324231 -1.99077 0
M  V30 254 C 26.6897 1.5591 -1.18117 0
M  V30 255 O 27.8957 2.24637 -1.52481 0
M  V30 256 C 26.3517 0.628209 -3.54375 0
M  V30 257 C 25.9597 -0.587647 -4.44129 0
M  V30 258 C 27.7037 1.20349 -4.07083 0
M  V30 259 C 25.6107 -0.257475 -5.90839 0
M  V30 260 H 24.5407 0.124924 -0.743579 0
M  V30 261 H 27.1917 -0.396063 -1.79175 0
M  V30 262 H 25.5737 1.40778 -3.70132 0
M  V30 263 H 26.7477 -1.36418 -4.40144 0
M  V30 264 H 25.0627 -1.08074 -4.0213 0
M  V30 265 H 27.6597 1.46456 -5.14252 0
M  V30 266 H 28.0027 2.14195 -3.56968 0
M  V30 267 H 28.5357 0.485889 -3.94821 0
M  V30 268 H 25.2747 -1.16419 -6.45079 0
M  V30 269 H 24.7947 0.482018 -5.9786 0
M  V30 270 H 26.4737 0.145238 -6.46837 0
M  V30 271 N 26.6058 1.57591 -0.0167156 0
M  V30 272 C 27.8548 1.90461 0.663877 0
M  V30 273 C 28.1678 0.893515 1.73999 0
M  V30 274 O 29.3738 1.11302 2.47637 0
M  V30 275 C 27.8298 3.38155 1.23204 0
M  V30 276 C 27.4378 4.47597 0.189866 0
M  V30 277 C 29.1818 3.80111 1.88986 0
M  V30 278 C 27.0888 5.86379 0.768964 0
M  V30 279 H 26.0188 0.710738 0.251729 0
M  V30 280 H 28.6698 1.83326 -0.0799926 0
M  V30 281 H 27.0518 3.40182 2.02712 0
M  V30 282 H 28.2258 4.57112 -0.581846 0
M  V30 283 H 26.5408 4.14766 -0.368475 0
M  V30 284 H 29.1378 4.81145 2.33247 0
M  V30 285 H 29.4808 3.14511 2.72743 0
M  V30 286 H 30.0138 3.80454 1.16187 0
M  V30 287 H 26.7528 6.55493 -0.0301957 0
M  V30 288 H 26.2728 5.80496 1.50945 0
M  V30 289 H 27.9518 6.34563 1.26251 0
M  V30 290 N 28.0839 -0.256276 1.55502 0
M  V30 291 C 29.0469 -1.30047 1.88734 0
M  V30 292 C 30.0469 -1.4154 0.763086 0
M  V30 293 O 31.2369 -1.40403 1.03115 0
M  V30 294 C 28.3689 -2.67953 2.10747 0
M  V30 295 H 29.5619 -1.01802 2.82093 0
M  V30 296 H 27.1149 -0.495134 1.4825 0
M  V30 297 H 27.8499 -3.01351 1.19825 0
M  V30 298 H 27.6349 -2.60993 2.92617 0
M  V30 299 H 29.1249 -3.43368 2.37673 0
M  V30 300 N 29.562 -1.4872 -0.521534 0
M  V30 301 C 30.787 -1.61101 -1.30618 0
M  V30 302 C 31.212 -0.274611 -1.86085 0
M  V30 303 O 30.57 0.754937 -1.64834 0
M  V30 304 C 30.618 -2.66709 -2.4269 0
M  V30 305 O 29.722 -2.24456 -3.45967 0
M  V30 306 H 29.063 -0.539921 -0.386499 0
M  V30 307 H 31.593 -1.94767 -0.626645 0
M  V30 308 H 31.603 -2.88245 -2.88754 0
M  V30 309 H 30.278 -3.63727 -2.01682 0
M  V30 310 H 28.855 -2.13168 -3.05964 0
M  V30 311 N 31.0401 0.771051 -1.3745 0
M  V30 312 C 32.2651 1.56529 -1.36065 0
M  V30 313 C 32.6901 1.88029 0.0515859 0
M  V30 314 O 32.0481 1.49282 1.02882 0
M  V30 315 C 32.0961 2.85187 -2.20683 0
M  V30 316 O 31.2001 3.79593 -1.61193 0
M  V30 317 H 30.5411 0.47411 -0.464883 0
M  V30 318 H 33.0711 0.954269 -1.80983 0
M  V30 319 H 33.0811 3.34283 -2.33921 0
M  V30 320 H 31.7561 2.61588 -3.23334 0
M  V30 321 H 30.3331 3.38239 -1.56999 0
M  V30 322 N 32.5182 1.22032 0.997298 0
M  V30 323 C 33.7642 1.04376 1.73878 0
M  V30 324 C 34.0972 -0.420716 1.89588 0
M  V30 325 O 33.3722 -1.31202 1.43583 0
M  V30 326 C 33.6552 1.75047 3.14691 0
M  V30 327 C 33.5082 3.29062 3.06656 0
M  V30 328 C 34.8272 1.49928 4.13775 0
M  V30 329 H 31.9462 0.380578 0.631133 0
M  V30 330 H 34.5882 1.50312 1.16217 0
M  V30 331 H 32.7382 1.35996 3.63919 0
M  V30 332 H 34.4102 3.7753 2.65083 0
M  V30 333 H 32.6532 3.58967 2.43568 0
M  V30 334 H 33.3242 3.73683 4.06282 0
M  V30 335 H 35.8002 1.83842 3.73285 0
M  V30 336 H 34.6762 2.01878 5.10428 0
M  V30 337 H 34.9372 0.430929 4.39995 0
M  V30 338 N 33.9963 -1.19345 1.0293 0
M  V30 339 C 35.2443 -1.88665 0.724574 0
M  V30 340 C 35.5653 -1.80036 -0.749144 0
M  V30 341 O 34.8353 -1.2111 -1.53978 0
M  V30 342 H 33.4153 -0.698406 0.265025 0
M  V30 343 H 36.0773 -1.44885 1.30362 0
M  V30 344 H 35.1733 -2.94987 1.01926 0
M  V30 345 N 35.4744 -0.807222 -1.35358 0
M  V30 346 C 36.7024 -0.400377 -2.02989 0
M  V30 347 C 37.1174 0.988859 -1.60832 0
M  V30 348 O 36.4744 1.63729 -0.806175 0
M  V30 349 C 36.5254 -0.474867 -3.58368 0
M  V30 350 O 36.2464 -1.80933 -3.98992 0
M  V30 351 C 37.7474 -0.0609112 -4.43258 0
M  V30 352 H 34.9674 -0.162587 -0.651004 0
M  V30 353 H 37.5114 -1.09102 -1.72965 0
M  V30 354 H 35.6664 0.167534 -3.87038 0
M  V30 355 H 36.0804 -1.77256 -4.9364 0
M  V30 356 H 37.5544 -0.164145 -5.51756 0
M  V30 357 H 38.0314 0.993831 -4.27808 0
M  V30 358 H 38.6374 -0.676492 -4.19885 0
M  V30 359 N 36.9525 1.47285 -0.560781 0
M  V30 360 C 38.2015 2.01668 -0.035895 0
M  V30 361 C 38.5145 1.44021 1.32353 0
M  V30 362 O 39.7205 1.90088 1.93853 0
M  V30 363 C 38.1765 3.59897 -0.0136659 0
M  V30 364 C 37.7845 4.26536 -1.37006 0
M  V30 365 C 39.5285 4.22017 0.458425 0
M  V30 366 C 37.4355 5.76782 -1.30675 0
M  V30 367 H 36.3655 0.753938 -0.00964879 0
M  V30 368 H 39.0165 1.69243 -0.709166 0
M  V30 369 H 37.3985 3.89301 0.725325 0
M  V30 370 H 38.5725 4.0877 -2.12705 0
M  V30 371 H 36.8875 3.76419 -1.78038 0
M  V30 372 H 39.4845 5.32124 0.524247 0
M  V30 373 H 39.8275 3.89437 1.4712 0
M  V30 374 H 40.3605 3.97159 -0.225818 0
M  V30 375 H 37.0995 6.13988 -2.29564 0
M  V30 376 H 36.6195 5.96875 -0.591622 0
M  V30 377 H 38.2985 6.39063 -1.01033 0
M  V30 378 N 38.4306 0.297415 1.54768 0
M  V30 379 C 39.3606 -0.573494 2.26348 0
M  V30 380 C 40.3416 -1.14085 1.26169 0
M  V30 381 O 41.5266 -1.17086 1.54934 0
M  V30 382 C 38.6566 -1.74716 3.00153 0
M  V30 383 C 37.6106 -1.31032 4.07449 0
M  V30 384 C 36.9366 -2.56887 4.68949 0
M  V30 385 C 38.2366 -0.444183 5.20408 0
M  V30 386 H 39.9306 0.0235131 2.99391 0
M  V30 387 H 37.4766 0.0127488 1.43994 0
M  V30 388 H 39.4296 -2.3625 3.48947 0
M  V30 389 H 38.1536 -2.37035 2.24682 0
M  V30 390 H 36.8126 -0.718066 3.59499 0
M  V30 391 H 36.4606 -3.17512 3.90122 0
M  V30 392 H 36.1606 -2.2836 5.41411 0
M  V30 393 H 37.6846 -3.19229 5.20505 0
M  V30 394 H 39.0986 -0.9651 5.65118 0
M  V30 395 H 37.4956 -0.252846 5.99567 0
M  V30 396 H 38.5656 0.531609 4.81977 0
M  V30 397 N 39.9087 -1.5758 0.0250728 0
M  V30 398 C 40.8557 -2.09973 -0.958129 0
M  V30 399 C 41.8257 -1.00085 -1.3256 0
M  V30 400 O 43.0107 -1.27481 -1.41962 0
M  V30 401 C 40.1507 -2.62812 -2.2366 0
M  V30 402 C 39.2637 -3.86693 -1.92594 0
M  V30 403 C 38.3987 -4.27941 -3.14707 0
M  V30 404 C 37.4377 -5.44591 -2.79442 0
M  V30 405 N 36.5747 -5.81014 -3.94167 0
M  V30 406 H 41.4147 -2.937 -0.504428 0
M  V30 407 H 38.9517 -1.45172 -0.237392 0
M  V30 408 H 40.9097 -2.91536 -2.98434 0
M  V30 409 H 39.5397 -1.81922 -2.66654 0
M  V30 410 H 38.5917 -3.64723 -1.0808 0
M  V30 411 H 39.9037 -4.71547 -1.62619 0
M  V30 412 H 39.0577 -4.58079 -3.97804 0
M  V30 413 H 37.7967 -3.41845 -3.4784 0
M  V30 414 H 36.8017 -5.1415 -1.94755 0
M  V30 415 H 38.0267 -6.32382 -2.47528 0
M  V30 416 H 35.9727 -4.97874 -4.2715 0
M  V30 417 H 35.8897 -6.60498 -3.67801 0
M  V30 418 H 37.1577 -6.15756 -4.7798 0
M  V30 419 N 41.3868 0.248026 -1.55636 0
M  V30 420 C 42.6118 0.998028 -1.81808 0
M  V30 421 C 43.0368 1.78207 -0.601979 0
M  V30 422 O 42.3948 1.75653 0.448961 0
M  V30 423 C 42.4428 1.9125 -3.05705 0
M  V30 424 O 41.5468 3.00406 -2.82542 0
M  V30 425 H 40.8878 0.284045 -0.600179 0
M  V30 426 H 43.4178 0.269357 -2.02819 0
M  V30 427 H 43.4278 2.32737 -3.35108 0
M  V30 428 H 42.1028 1.33602 -3.93857 0
M  V30 429 H 40.6798 2.63056 -2.64303 0
M  V30 430 N 42.8649 1.48995 0.513639 0
M  V30 431 C 44.1049 1.59452 1.27885 0
M  V30 432 C 44.4689 0.269479 1.90099 0
M  V30 433 O 45.6699 0.249139 2.67643 0
M  V30 434 C 43.9409 2.71277 2.32688 0
M  V30 435 S 45.4999 3.01604 3.18717 0
M  V30 436 H 42.3179 0.562565 0.434789 0
M  V30 437 H 44.9199 1.86595 0.583301 0
M  V30 438 H 43.6239 3.66089 1.8549 0
M  V30 439 H 43.1549 2.46086 3.06929 0
M  V30 440 H 45.1699 2.42155 4.331 0
M  V30 441 N 44.343 -0.763751 1.37857 0
M  V30 442 C 45.591 -1.51957 1.33243 0
M  V30 443 C 45.912 -1.94835 -0.0801709 0
M  V30 444 O 45.182 -1.66894 -1.02582 0
M  V30 445 H 43.762 -0.563626 0.49024 0
M  V30 446 H 46.424 -0.908504 1.7243 0
M  V30 447 H 45.52 -2.41523 1.97669 0
M  V30 448 N 45.8211 -1.22559 -0.990812 0
M  V30 449 C 46.7511 -1.0218 -2.09956 0
M  V30 450 C 47.7321 0.0579394 -1.70001 0
M  V30 451 O 48.9171 -0.104684 -1.93918 0
M  V30 452 C 46.0471 -0.601023 -3.4206 0
M  V30 453 C 45.0011 -1.62694 -3.95872 0
M  V30 454 C 44.3271 -1.06193 -5.24049 0
M  V30 455 C 45.6271 -3.01743 -4.2632 0
M  V30 456 H 47.3211 -1.94916 -2.27262 0
M  V30 457 H 44.8671 -0.938566 -1.09211 0
M  V30 458 H 46.8201 -0.445561 -4.19038 0
M  V30 459 H 45.5441 0.362005 -3.24588 0
M  V30 460 H 44.2031 -1.77021 -3.21028 0
M  V30 461 H 43.8511 -0.0901903 -5.02919 0
M  V30 462 H 43.5511 -1.74732 -5.61019 0
M  V30 463 H 45.0751 -0.918092 -6.03658 0
M  V30 464 H 46.4891 -2.90777 -4.94087 0
M  V30 465 H 44.8861 -3.67425 -4.74467 0
M  V30 466 H 45.9561 -3.51518 -3.34011 0
M  V30 467 N 47.2992 1.18797 -1.03562 0
M  V30 468 C 48.2492 2.20161 -0.592724 0
M  V30 469 C 49.2332 1.56772 0.362133 0
M  V30 470 O 50.4252 1.76062 0.182009 0
M  V30 471 C 47.5542 3.43266 0.0481024 0
M  V30 472 C 46.6402 4.13786 -0.9296 0
M  V30 473 N 47.0312 4.60388 -2.09467 0
M  V30 474 C 45.3292 4.39572 -0.754499 0
M  V30 475 C 46.0302 5.14619 -2.71187 0
M  V30 476 N 45.0062 5.05826 -1.991 0
M  V30 477 H 48.8082 2.53877 -1.48066 0
M  V30 478 H 46.3222 1.34946 -0.903514 0
M  V30 479 H 48.3192 4.15136 0.383058 0
M  V30 480 H 46.9792 3.11048 0.931636 0
M  V30 481 H 47.9902 4.54999 -2.47379 0
M  V30 482 H 44.6672 4.17425 0.0793713 0
M  V30 483 H 46.0572 5.60917 -3.69895 0
M  V30 484 N 48.7773 0.814389 1.34928 0
M  V30 485 C 50.0233 0.399013 1.98836 0
M  V30 486 C 50.3563 -1.03314 1.64438 0
M  V30 487 O 49.6313 -1.71811 0.911659 0
M  V30 488 C 49.9143 0.591629 3.55207 0
M  V30 489 C 49.7673 2.06928 3.99376 0
M  V30 490 C 51.0863 0.022199 4.40094 0
M  V30 491 H 48.2053 0.146451 0.722303 0
M  V30 492 H 50.8473 1.02537 1.59957 0
M  V30 493 H 48.9973 0.0584441 3.88456 0
M  V30 494 H 50.6693 2.66544 3.76499 0
M  V30 495 H 48.9123 2.56287 3.49999 0
M  V30 496 H 49.5833 2.1549 5.08201 0
M  V30 497 H 52.0593 0.477643 4.13349 0
M  V30 498 H 50.9353 0.186832 5.48582 0
M  V30 499 H 51.1963 -1.07215 4.28902 0
M  V30 500 N 50.2554 -1.46986 0.568584 0
M  V30 501 C 51.4834 -2.0683 0.0539956 0
M  V30 502 C 51.8984 -1.41953 -1.24478 0
M  V30 503 O 51.2554 -0.519933 -1.74937 0
M  V30 504 C 51.3064 -3.61254 -0.133362 0
M  V30 505 O 51.0274 -4.237 1.11399 0
M  V30 506 C 52.5284 -4.37992 -0.683927 0
M  V30 507 H 49.7484 -0.669058 0.0510141 0
M  V30 508 H 52.2924 -1.88824 0.785234 0
M  V30 509 H 50.4474 -3.78735 -0.81477 0
M  V30 510 H 50.8614 -5.16388 0.91888 0
M  V30 511 H 52.3354 -5.46684 -0.764263 0
M  V30 512 H 52.8124 -4.05058 -1.69778 0
M  V30 513 H 53.4184 -4.25283 -0.0378494 0
M  V30 514 N 51.7335 -0.305618 -1.54608 0
M  V30 515 C 52.9585 0.307562 -2.05107 0
M  V30 516 C 53.3835 1.46385 -1.18123 0
M  V30 517 O 52.7415 1.8034 -0.186324 0
M  V30 518 C 52.7895 0.73704 -3.52987 0
M  V30 519 O 51.8935 1.84134 -3.6901 0
M  V30 520 H 51.2345 0.0589143 -0.661381 0
M  V30 521 H 53.7645 -0.448807 -1.99617 0
M  V30 522 H 53.7745 1.02459 -3.94925 0
M  V30 523 H 52.4495 -0.108773 -4.15758 0
M  V30 524 H 51.0265 1.55398 -3.38978 0
M  V30 525 N 53.2116 1.57565 -0.0334293 0
M  V30 526 C 54.4606 1.91155 0.643639 0
M  V30 527 C 54.7736 0.91192 1.73042 0
M  V30 528 O 55.9796 1.13923 2.46442 0
M  V30 529 C 54.4356 3.39443 1.1961 0
M  V30 530 C 54.0436 4.47774 0.142381 0
M  V30 531 C 55.7876 3.82094 1.84944 0
M  V30 532 C 53.6946 5.87162 0.706727 0
M  V30 533 H 52.6246 0.713368 0.244176 0
M  V30 534 H 55.2756 1.8323 -0.0994323 0
M  V30 535 H 53.6576 3.42313 1.99092 0
M  V30 536 H 54.8316 4.56469 -0.630296 0
M  V30 537 H 53.1466 4.14352 -0.412446 0
M  V30 538 H 55.7436 4.83591 2.2813 0
M  V30 539 H 56.0866 3.17386 2.69392 0
M  V30 540 H 56.6196 3.81665 1.12145 0
M  V30 541 H 53.3586 6.55424 -0.0997178 0
M  V30 542 H 52.8786 5.82064 1.44779 0
M  V30 543 H 54.5576 6.35866 1.19514 0
M  V30 544 N 54.6897 -0.239769 1.55765 0
M  V30 545 C 55.6367 -1.29696 1.90913 0
M  V30 546 C 56.6067 -1.47478 0.764164 0
M  V30 547 O 57.7917 -1.61345 1.01845 0
M  V30 548 C 54.9317 -2.64598 2.21544 0
M  V30 549 C 54.0447 -2.54765 3.48882 0
M  V30 550 C 53.1797 -3.82069 3.69049 0
M  V30 551 C 52.2187 -3.66883 4.89963 0
M  V30 552 N 51.3557 -4.86094 5.06614 0
M  V30 553 H 56.1957 -0.990224 2.81067 0
M  V30 554 H 53.7327 -0.477684 1.39128 0
M  V30 555 H 55.6907 -3.43132 2.3731 0
M  V30 556 H 54.3207 -2.93405 1.34585 0
M  V30 557 H 53.3727 -1.67763 3.41409 0
M  V30 558 H 54.6847 -2.39457 4.37563 0
M  V30 559 H 53.8387 -4.69046 3.84812 0
M  V30 560 H 52.5777 -4.00282 2.78614 0
M  V30 561 H 51.5827 -2.78289 4.74168 0
M  V30 562 H 52.8077 -3.50157 5.81865 0
M  V30 563 H 50.7537 -5.04655 4.19117 0
M  V30 564 H 50.6707 -4.73443 5.89396 0
M  V30 565 H 51.9387 -5.74549 5.26795 0
M  V30 566 N 56.1678 -1.49265 -0.50573 0
M  V30 567 C 57.4168 -1.57761 -1.25675 0
M  V30 568 C 57.7298 -0.267371 -1.93764 0
M  V30 569 O 58.9358 -0.230827 -2.70517 0
M  V30 570 C 57.3918 -2.78332 -2.28165 0
M  V30 571 C 56.9998 -4.16096 -1.66037 0
M  V30 572 C 58.7438 -2.96155 -3.04125 0
M  V30 573 C 56.6508 -5.27895 -2.6661 0
M  V30 574 H 55.5808 -0.587391 -0.472745 0
M  V30 575 H 58.2318 -1.75644 -0.53118 0
M  V30 576 H 56.6138 -2.53934 -3.03865 0
M  V30 577 H 57.7878 -4.50612 -0.963622 0
M  V30 578 H 56.1028 -4.03591 -1.02484 0
M  V30 579 H 58.6998 -3.76849 -3.79327 0
M  V30 580 H 59.0428 -2.06534 -3.61455 0
M  V30 581 H 59.5758 -3.2057 -2.35541 0
M  V30 582 H 56.3148 -6.1956 -2.14068 0
M  V30 583 H 55.8348 -4.97839 -3.34539 0
M  V30 584 H 57.5138 -5.57031 -3.29129 0
M  V30 585 N 57.6459 0.756429 -1.3826 0
M  V30 586 C 58.9229 1.50584 -1.24835 0
M  V30 587 C 59.3029 2.10556 0.151485 0
M  V30 588 O 58.6509 1.96825 1.1607 0
M  V30 589 C 58.8609 2.57448 -2.3563 0
M  V30 590 C 60.2089 3.24429 -2.73917 0
M  V30 591 O 61.2329 2.67751 -2.34921 0
M  V30 592 O 60.0919 4.26937 -3.41156 0
M  V30 593 H 57.1859 0.667664 -0.48801 0
M  V30 594 H 59.7319 0.792083 -1.5008 0
M  V30 595 H 58.5039 2.11362 -3.29305 0
M  V30 596 H 58.1269 3.36408 -2.11933 0
M  V30 597 N 59.124 1.23083 0.984299 0
M  V30 598 C 60.535 1.05609 1.5396 0
M  V30 599 C 60.886 -0.377793 1.92528 0
M  V30 600 O 60.011 -1.26398 1.75649 0
M  V30 601 C 60.606 1.91087 2.7977 0
M  V30 602 C 59.165 1.77885 3.31713 0
M  V30 603 C 58.312 1.87028 2.04733 0
M  V30 604 H 61.263 1.36802 0.804419 0
M  V30 605 H 61.284 1.43336 3.5247 0
M  V30 606 H 60.796 2.9544 2.51668 0
M  V30 607 H 58.897 0.762995 3.64704 0
M  V30 608 H 59.01 2.61047 4.01735 0
M  V30 609 H 57.374 1.30565 2.18689 0
M  V30 610 H 58.157 2.92929 1.79017 0
M  V30 611 N 60.6021 -1.18246 1.0419 0
M  V30 612 C 61.8321 -1.91916 0.764961 0
M  V30 613 C 62.2401 -1.76485 -0.681898 0
M  V30 614 O 61.5831 -1.09275 -1.47664 0
M  V30 615 C 61.6451 -3.4373 1.05309 0
M  V30 616 C 61.3091 -3.8294 2.4941 0
M  V30 617 C 62.3061 -3.86621 3.47592 0
M  V30 618 C 59.9911 -4.142 2.84155 0
M  V30 619 C 61.9851 -4.21013 4.78568 0
M  V30 620 C 59.6721 -4.48262 4.15337 0
M  V30 621 C 60.6701 -4.51645 5.12353 0
M  V30 622 O 60.3581 -4.84911 6.41183 0
M  V30 623 H 60.0901 -0.61606 0.278292 0
M  V30 624 H 62.6441 -1.50947 1.39299 0
M  V30 625 H 60.8741 -3.84946 0.367933 0
M  V30 626 H 62.5631 -3.9865 0.763752 0
M  V30 627 H 63.3291 -3.62607 3.22089 0
M  V30 628 H 59.2081 -4.10743 2.09311 0
M  V30 629 H 62.7521 -4.23568 5.54289 0
M  V30 630 H 58.6491 -4.71737 4.40607 0
M  V30 631 H 59.4171 -5.02809 6.45852 0
M  V30 632 N 62.0802 -0.821533 -1.34494 0
M  V30 633 C 63.3292 -0.405355 -1.97585 0
M  V30 634 C 63.6422 1.03677 -1.65863 0
M  V30 635 O 64.8482 1.55679 -2.22433 0
M  V30 636 C 63.3042 -0.673861 -3.53535 0
M  V30 637 C 62.9122 -2.12951 -3.94152 0
M  V30 638 C 64.6562 -0.32378 -4.23263 0
M  V30 639 C 62.5632 -2.34298 -5.43009 0
M  V30 640 H 61.4932 -0.147836 -0.739365 0
M  V30 641 H 64.1442 -1.00769 -1.53355 0
M  V30 642 H 62.5262 -0.00137554 -3.96 0
M  V30 643 H 63.7002 -2.84104 -3.62797 0
M  V30 644 H 62.0152 -2.44089 -3.37356 0
M  V30 645 H 64.6122 -0.461126 -5.32708 0
M  V30 646 H 64.9552 0.731586 -4.09821 0
M  V30 647 H 65.4882 -0.950786 -3.8627 0
M  V30 648 H 62.2272 -3.38335 -5.61435 0
M  V30 649 H 61.7472 -1.67687 -5.75883 0
M  V30 650 H 63.4262 -2.16588 -6.09671 0
M  V30 651 N 63.5583 1.46682 -0.576371 0
M  V30 652 C 64.5063 2.31953 0.17335 0
M  V30 653 C 65.5003 1.44098 0.89062 0
M  V30 654 O 66.7063 1.60759 0.809728 0
M  V30 655 H 63.0813 0.748273 0.0747727 0
M  V30 656 H 65.0523 2.93007 -0.564738 0
M  V30 657 C 63.8013 3.27142 1.17786 0
M  V30 658 H 63.1243 3.94719 0.635361 0
M  V30 659 H 64.5643 3.896 1.67296 0
M  V30 660 C 63.0233 2.52036 2.23561 0
M  V30 661 O 63.5533 2.27877 3.3081 0
M  V30 662 N 61.7593 2.12709 1.97998 0
M  V30 663 H 61.3063 2.32557 1.10792 0
M  V30 664 H 61.2643 1.62776 2.68982 0
M  V30 665 N 65.0364 0.313813 1.54444 0
M  V30 666 C 66.2854 -0.292519 1.99568 0
M  V30 667 C 66.5984 -1.54011 1.20582 0
M  V30 668 O 67.8044 -2.22183 1.56035 0
M  V30 669 C 66.2604 -0.571752 3.55329 0
M  V30 670 C 65.8684 0.658229 4.43138 0
M  V30 671 C 67.6124 -1.13857 4.08946 0
M  V30 672 C 65.5194 0.351439 5.90355 0
M  V30 673 H 64.4494 -0.113079 0.745472 0
M  V30 674 H 67.1004 0.424518 1.78522 0
M  V30 675 H 65.4824 -1.34872 3.72325 0
M  V30 676 H 66.6564 1.43403 4.37918 0
M  V30 677 H 64.9714 1.14458 4.0036 0
M  V30 678 H 67.5684 -1.38257 5.16516 0
M  V30 679 H 67.9114 -2.08489 3.6033 0
M  V30 680 H 68.4444 -0.423015 3.95544 0
M  V30 681 H 65.1834 1.26667 6.43145 0
M  V30 682 H 64.7034 -0.386842 5.98551 0
M  V30 683 H 66.3824 -0.0423134 6.46986 0
M  V30 684 N 66.5145 -1.57545 0.0417849 0
M  V30 685 C 67.7915 -1.83642 -0.673433 0
M  V30 686 C 68.1715 -0.928298 -1.89594 0
M  V30 687 O 67.5195 0.0129955 -2.28496 0
M  V30 688 C 67.7295 -3.33155 -1.03964 0
M  V30 689 C 69.0775 -3.99941 -1.42592 0
M  V30 690 O 70.1015 -3.37725 -1.13226 0
M  V30 691 O 68.9605 -5.09619 -1.9736 0
M  V30 692 H 66.0545 -0.757638 -0.331533 0
M  V30 693 H 68.6005 -1.69554 0.070433 0
M  V30 694 H 67.3725 -3.9093 -0.170098 0
M  V30 695 H 66.9955 -3.52396 -1.84126 0
M  V30 696 N 67.9926 0.231505 -1.5589 0
M  V30 697 C 68.9556 1.27028 -1.90779 0
M  V30 698 C 69.9556 1.40308 -0.785507 0
M  V30 699 O 71.1456 1.38744 -1.05336 0
M  V30 700 C 68.2776 2.64566 -2.14983 0
M  V30 701 H 69.4706 0.973017 -2.83677 0
M  V30 702 H 67.0236 0.471486 -1.49019 0
M  V30 703 H 67.7586 2.99406 -1.24604 0
M  V30 704 H 67.5436 2.56305 -2.96732 0
M  V30 705 H 69.0336 3.39543 -2.43105 0
M  V30 706 N 69.4707 1.49531 0.497807 0
M  V30 707 C 70.7187 1.58865 1.24926 0
M  V30 708 C 71.0397 0.278721 1.92998 0
M  V30 709 O 70.3097 -0.702144 1.82885 0
M  V30 710 H 68.8897 0.585343 0.464094 0
M  V30 711 H 71.5517 1.86174 0.57666 0
M  V30 712 H 70.6477 2.38633 2.01149 0
M  V30 713 N 70.9488 -0.749086 1.3866 0
M  V30 714 C 72.1768 -1.53834 1.38358 0
M  V30 715 C 72.5918 -1.88783 -0.0255219 0
M  V30 716 O 71.9488 -1.53101 -0.993292 0
M  V30 717 C 71.9998 -2.83468 2.2434 0
M  V30 718 O 71.7208 -2.50008 3.5976 0
M  V30 719 C 73.2218 -3.7758 2.32267 0
M  V30 720 H 70.4418 -0.47585 0.473083 0
M  V30 721 H 72.9858 -0.926726 1.82297 0
M  V30 722 H 71.1408 -3.40995 1.83851 0
M  V30 723 H 71.5548 -3.33182 4.05081 0
M  V30 724 H 73.0288 -4.65478 2.96706 0
M  V30 725 H 73.5058 -4.18334 1.33765 0
M  V30 726 H 74.1118 -3.25976 2.73166 0
M  V30 727 N 72.4269 -1.23603 -0.977757 0
M  V30 728 C 73.6739 -1.06971 -1.71941 0
M  V30 729 C 74.0019 0.393009 -1.90488 0
M  V30 730 O 73.2569 1.30719 -1.4564 0
M  V30 731 C 73.5559 -1.7433 -3.11999 0
M  V30 732 C 73.2219 -3.24252 -3.13323 0
M  V30 733 C 71.8839 -3.65156 -3.13392 0
M  V30 734 C 74.2359 -4.20141 -3.08433 0
M  V30 735 C 71.5639 -5.00403 -3.0629 0
M  V30 736 C 73.9159 -5.55384 -3.02873 0
M  V30 737 C 72.5799 -5.95647 -3.01265 0
M  V30 738 H 71.8499 -0.391433 -0.629175 0
M  V30 739 H 74.4969 -1.53572 -1.14403 0
M  V30 740 H 72.8019 -1.20096 -3.7294 0
M  V30 741 H 74.4989 -1.58936 -3.68158 0
M  V30 742 H 71.0889 -2.91692 -3.14029 0
M  V30 743 H 75.2729 -3.89547 -3.07517 0
M  V30 744 H 70.5289 -5.3081 -3.03399 0
M  V30 745 H 74.7029 -6.29398 -2.98046 0
M  V30 746 H 72.3299 -7.0041 -2.95516 0
M  V30 747 N 73.905 1.17692 -1.04816 0
M  V30 748 C 75.13 1.92327 -0.776207 0
M  V30 749 C 75.555 1.76082 0.661581 0
M  V30 750 O 74.913 1.076 1.45917 0
M  V30 751 C 74.961 3.41539 -1.15687 0
M  V30 752 O 74.065 4.11402 -0.286775 0
M  V30 753 H 73.406 0.599735 -0.284981 0
M  V30 754 H 75.936 1.49201 -1.4 0
M  V30 755 H 75.946 3.92269 -1.12202 0
M  V30 756 H 74.621 3.52684 -2.20425 0
M  V30 757 H 73.198 3.70939 -0.381903 0
M  V30 758 N 75.3831 0.828654 1.34056 0
M  V30 759 C 76.7941 0.477534 1.8049 0
M  V30 760 C 77.1451 -1.00258 1.6865 0
M  V30 761 O 76.2701 -1.78057 1.22982 0
M  V30 762 C 76.8651 0.860018 3.27703 0
M  V30 763 C 75.4241 0.561185 3.72193 0
M  V30 764 C 74.5711 1.07385 2.55663 0
M  V30 765 H 77.5221 1.0183 1.21722 0
M  V30 766 H 77.5431 0.166038 3.80138 0
M  V30 767 H 77.0551 1.93731 3.36288 0
M  V30 768 H 75.1561 -0.506465 3.69142 0
M  V30 769 H 75.2691 1.10926 4.66082 0
M  V30 770 H 73.6331 0.495149 2.49841 0
M  V30 771 H 74.4161 2.15771 2.67016 0
M  V30 772 N 76.8612 -1.46375 0.584142 0
M  V30 773 C 78.0912 -2.06461 0.0758195 0
M  V30 774 C 78.4992 -1.43322 -1.23512 0
M  V30 775 O 77.8422 -0.533216 -1.75791 0
M  V30 776 C 77.9042 -3.59131 -0.162773 0
M  V30 777 C 77.5682 -4.4447 1.06279 0
M  V30 778 C 78.5652 -4.80918 1.97519 0
M  V30 779 C 76.2502 -4.85584 1.28504 0
M  V30 780 C 78.2442 -5.57309 3.09331 0
M  V30 781 C 75.9312 -5.61734 2.4062 0
M  V30 782 C 76.9292 -5.9751 3.30863 0
M  V30 783 O 76.6172 -6.72121 4.41032 0
M  V30 784 H 76.3492 -0.673745 0.0551725 0
M  V30 785 H 78.9032 -1.88969 0.804984 0
M  V30 786 H 77.1332 -3.74936 -0.946565 0
M  V30 787 H 78.8222 -4.0114 -0.619782 0
M  V30 788 H 79.5882 -4.49732 1.81565 0
M  V30 789 H 75.4672 -4.57187 0.591702 0
M  V30 790 H 79.0112 -5.85152 3.79793 0
M  V30 791 H 74.9082 -5.92334 2.56537 0
M  V30 792 H 75.6762 -6.90547 4.39417 0
M  V30 793 N 78.3393 -0.321999 -1.54275 0
M  V30 794 C 79.2493 0.553631 -2.27974 0
M  V30 795 C 80.2653 1.13054 -1.32268 0
M  V30 796 O 81.4413 1.15084 -1.6528 0
M  V30 797 C 78.5063 1.69927 -3.02201 0
M  V30 798 C 77.5673 1.15433 -4.1349 0
M  V30 799 C 76.8003 2.24537 -4.84168 0
M  V30 800 O 77.0233 3.44852 -4.5435 0
M  V30 801 O 75.9573 1.90044 -5.7111 0
M  V30 802 H 79.7833 -0.0448345 -3.03667 0
M  V30 803 H 77.3683 -0.0877418 -1.49142 0
M  V30 804 H 79.2503 2.3663 -3.48689 0
M  V30 805 H 77.9253 2.28395 -2.29385 0
M  V30 806 H 76.8323 0.452436 -3.71354 0
M  V30 807 H 78.1653 0.614805 -4.88345 0
M  V30 808 N 79.8174 1.5752 -0.0501392 0
M  V30 809 C 80.7674 2.07981 0.934231 0
M  V30 810 C 81.7514 0.984745 1.27246 0
M  V30 811 O 82.9434 1.24809 1.25506 0
M  V30 812 C 80.0724 2.62751 2.20945 0
M  V30 813 C 79.1584 3.79225 1.89865 0
M  V30 814 N 79.5494 4.89036 1.29142 0
M  V30 815 C 77.8474 3.88111 2.19741 0
M  V30 816 C 78.5484 5.70084 1.15669 0
M  V30 817 N 77.5244 5.17659 1.65923 0
M  V30 818 H 81.3264 2.90277 0.460053 0
M  V30 819 H 78.8404 1.61665 0.15434 0
M  V30 820 H 80.8374 2.97205 2.9236 0
M  V30 821 H 79.4974 1.81894 2.6897 0
M  V30 822 H 80.5084 5.08854 0.963756 0
M  V30 823 H 77.1854 3.18194 2.70293 0
M  V30 824 H 78.5754 6.68395 0.685356 0
M  V30 825 N 81.2955 -0.223234 1.56011 0
M  V30 826 C 82.5435 -0.946003 1.78592 0
M  V30 827 C 82.8645 -1.84936 0.618349 0
M  V30 828 O 82.1345 -1.92473 -0.364833 0
M  V30 829 H 80.7145 -0.352298 0.658707 0
M  V30 830 H 83.3765 -0.235494 1.93472 0
M  V30 831 H 82.4725 -1.55381 2.70672 0
M  V30 832 N 82.7736 -1.49793 -0.48987 0
M  V30 833 C 83.6836 -1.70036 -1.61632 0
M  V30 834 C 84.6996 -0.583102 -1.63939 0
M  V30 835 O 85.8756 -0.859169 -1.82154 0
M  V30 836 C 82.9406 -1.77277 -2.97949 0
M  V30 837 C 82.0016 -3.00918 -3.06181 0
M  V30 838 C 81.2346 -3.07804 -4.35996 0
M  V30 839 O 81.4576 -2.21982 -5.25433 0
M  V30 840 O 80.3916 -4.00369 -4.49431 0
M  V30 841 H 84.2176 -2.65486 -1.47482 0
M  V30 842 H 81.8026 -1.33666 -0.667362 0
M  V30 843 H 83.6846 -1.84329 -3.78947 0
M  V30 844 H 82.3596 -0.850076 -3.12339 0
M  V30 845 H 81.2666 -2.99377 -2.2433 0
M  V30 846 H 82.5996 -3.92704 -2.96723 0
M  V30 847 N 84.2517 0.741722 -1.39055 0
M  V30 848 C 85.4977 1.50336 -1.36113 0
M  V30 849 C 85.8307 1.94148 0.0450796 0
M  V30 850 O 85.1057 1.66301 1.00868 0
M  V30 851 C 85.3887 2.74773 -2.32749 0
M  V30 852 C 85.2417 2.37023 -3.82283 0
M  V30 853 C 86.5607 3.76846 -2.27322 0
M  V30 854 H 83.6797 0.545351 -0.495743 0
M  V30 855 H 86.3217 0.848624 -1.69995 0
M  V30 856 H 84.4717 3.30639 -2.03986 0
M  V30 857 H 86.1437 1.8684 -4.21768 0
M  V30 858 H 84.3867 1.69334 -3.99385 0
M  V30 859 H 85.0577 3.26104 -4.45376 0
M  V30 860 H 87.5337 3.30548 -2.5274 0
M  V30 861 H 86.4097 4.6159 -2.97028 0
M  V30 862 H 86.6707 4.23286 -1.27599 0
M  V30 863 N 85.7298 1.2412 0.971189 0
M  V30 864 C 86.9768 1.07881 1.71371 0
M  V30 865 C 87.3048 -0.382901 1.90694 0
M  V30 866 O 86.5598 -1.29945 1.46331 0
M  V30 867 C 86.8588 1.75983 3.11071 0
M  V30 868 C 86.5248 3.25909 3.11599 0
M  V30 869 C 85.1868 3.66813 3.11451 0
M  V30 870 C 87.5388 4.21771 3.062 0
M  V30 871 C 84.8668 5.02021 3.03631 0
M  V30 872 C 87.2188 5.56982 2.99923 0
M  V30 873 C 85.8828 5.97237 2.98102 0
M  V30 874 H 85.1528 0.394764 0.62709 0
M  V30 875 H 87.7998 1.54176 1.13587 0
M  V30 876 H 86.1048 1.22072 3.72298 0
M  V30 877 H 87.8018 1.60887 3.6731 0
M  V30 878 H 84.3918 2.93353 3.12477 0
M  V30 879 H 88.5758 3.91172 3.05447 0
M  V30 880 H 83.8318 5.32411 3.0058 0
M  V30 881 H 88.0058 6.30969 2.94704 0
M  V30 882 H 85.6328 7.01967 2.91798 0
M  V30 883 N 87.2079 -1.17134 1.05439 0
M  V30 884 C 88.4539 -1.87733 0.767077 0
M  V30 885 C 88.7869 -1.8098 -0.704253 0
M  V30 886 O 88.0619 -1.21951 -1.5152 0
M  V30 887 C 88.3449 -3.37659 1.25133 0
M  V30 888 C 88.1979 -3.53149 2.78578 0
M  V30 889 C 89.5169 -4.31768 0.852324 0
M  V30 890 H 86.6359 -0.681687 0.280129 0
M  V30 891 H 89.2779 -1.37732 1.30881 0
M  V30 892 H 87.4279 -3.80373 0.790469 0
M  V30 893 H 89.0999 -3.19434 3.32806 0
M  V30 894 H 87.3429 -2.95345 3.17732 0
M  V30 895 H 88.0139 -4.58403 3.07523 0
M  V30 896 H 90.4899 -3.96909 1.24911 0
M  V30 897 H 89.3659 -5.35199 1.21873 0
M  V30 898 H 89.6269 -4.41429 -0.243485 0
M  V30 899 N 88.686 -0.835752 -1.33615 0
M  V30 900 C 89.616 -0.281739 -2.31794 0
M  V30 901 C 90.597 0.608833 -1.58831 0
M  V30 902 O 91.782 0.533035 -1.86741 0
M  V30 903 C 88.912 0.546612 -3.42971 0
M  V30 904 C 87.866 -0.247904 -4.27281 0
M  V30 905 C 87.192 0.704001 -5.30045 0
M  V30 906 C 88.492 -1.46324 -5.01385 0
M  V30 907 H 90.186 -1.10206 -2.78379 0
M  V30 908 H 87.732 -0.531388 -1.33837 0
M  V30 909 H 89.685 0.944467 -4.1068 0
M  V30 910 H 88.409 1.40011 -2.95067 0
M  V30 911 H 87.068 -0.627281 -3.61194 0
M  V30 912 H 86.716 1.55381 -4.78399 0
M  V30 913 H 86.416 0.176524 -5.87335 0
M  V30 914 H 87.94 1.09944 -6.0062 0
M  V30 915 H 89.354 -1.13871 -5.61877 0
M  V30 916 H 87.751 -1.92728 -5.6831 0
M  V30 917 H 88.821 -2.23467 -4.30338 0
M  V30 918 N 90.1641 1.46063 -0.591896 0
M  V30 919 C 91.4411 1.95595 -0.0137119 0
M  V30 920 C 91.8211 1.5345 1.4497 0
M  V30 921 O 91.1691 0.789543 2.14426 0
M  V30 922 C 91.3791 3.48453 -0.195373 0
M  V30 923 C 92.7271 4.24546 -0.0679765 0
M  V30 924 O 93.7511 3.55982 -0.124681 0
M  V30 925 O 92.6101 5.46467 0.0600579 0
M  V30 926 H 89.7041 0.825795 0.0446279 0
M  V30 927 H 92.2501 1.56303 -0.660859 0
M  V30 928 H 91.0221 3.72045 -1.21235 0
M  V30 929 H 90.6451 3.94597 0.487775 0
M  V30 930 N 91.6422 0.330177 1.54103 0
M  V30 931 C 92.9192 -0.325007 1.92881 0
M  V30 932 C 93.2992 -1.6934 1.26045 0
M  V30 933 O 92.6472 -2.24855 0.406526 0
M  V30 934 C 92.8572 -0.410634 3.46576 0
M  V30 935 C 94.2052 -0.667801 4.19316 0
M  V30 936 O 95.2292 -0.49329 3.52768 0
M  V30 937 O 94.0882 -1.00491 5.37181 0
M  V30 938 H 91.1822 -0.186873 0.80561 0
M  V30 939 H 93.7282 0.380376 1.65382 0
M  V30 940 H 92.5002 0.550164 3.87413 0
M  V30 941 H 92.1232 -1.16333 3.802 0
M  V30 942 N 93.1203 -1.57491 0.0584922 0
M  V30 943 C 94.3683 -1.92597 -0.612436 0
M  V30 944 C 94.6893 -0.938162 -1.70949 0
M  V30 945 O 93.9593 0.0158301 -1.95894 0
M  V30 946 H 92.5393 -0.710964 -0.229214 0
M  V30 947 H 95.2013 -1.94571 0.113218 0
M  V30 948 H 94.2973 -2.94038 -1.04633 0
M  V30 949 N 94.5984 0.214957 -1.56127 0
M  V30 950 C 95.8464 0.936518 -1.79091 0
M  V30 951 C 96.1674 1.84606 -0.628148 0
M  V30 952 O 95.4374 1.92664 0.35462 0
M  V30 953 H 94.0174 0.3488 -0.660566 0
M  V30 954 H 96.6794 0.22523 -1.93594 0
M  V30 955 H 95.7754 1.53943 -2.71492 0
M  V30 956 N 96.0765 1.50051 0.48192 0
M  V30 957 C 96.9865 1.7089 1.60728 0
M  V30 958 C 98.0025 0.591788 1.63627 0
M  V30 959 O 99.1785 0.868817 1.81696 0
M  V30 960 C 96.2435 1.78855 2.97005 0
M  V30 961 C 95.3045 3.02537 3.04581 0
M  V30 962 C 94.5375 3.10112 4.34357 0
M  V30 963 O 94.7605 2.24765 5.24249 0
M  V30 964 O 93.6945 4.02747 4.47301 0
M  V30 965 H 97.5205 2.66264 1.46072 0
M  V30 966 H 95.1055 1.34018 0.660264 0
M  V30 967 H 96.9875 1.86336 3.77964 0
M  V30 968 H 95.6625 0.866628 3.11883 0
M  V30 969 H 94.5695 3.00563 2.22739 0
M  V30 970 H 95.9025 3.94272 2.94636 0
M  V30 971 N 97.5546 -0.734337 1.39446 0
M  V30 972 C 98.8006 -1.49613 1.36908 0
M  V30 973 C 99.1336 -1.94169 -0.0347829 0
M  V30 974 O 98.4086 -1.66833 -0.999847 0
M  V30 975 C 98.6916 -2.73534 2.34203 0
M  V30 976 C 98.5446 -2.34993 3.83534 0
M  V30 977 C 99.8636 -3.75635 2.29317 0
M  V30 978 H 96.9826 -0.542714 0.498629 0
M  V30 979 H 99.6246 -0.839597 1.70443 0
M  V30 980 H 97.7746 -3.29553 2.05736 0
M  V30 981 H 99.4466 -1.84601 4.22753 0
M  V30 982 H 97.6896 -1.67213 4.00278 0
M  V30 983 H 98.3606 -3.23738 4.47099 0
M  V30 984 H 100.837 -3.29203 2.54489 0
M  V30 985 H 99.7126 -4.60008 2.99472 0
M  V30 986 H 99.9736 -4.22603 1.29842 0
M  V30 987 N 99.0327 -1.24633 -0.964593 0
M  V30 988 C 100.31 -0.995809 -1.68354 0
M  V30 989 C 100.69 0.480964 -2.05548 0
M  V30 990 O 100.038 1.45599 -1.76105 0
M  V30 991 C 100.248 -1.92177 -2.91323 0
M  V30 992 C 101.596 -2.19446 -3.63495 0
M  V30 993 O 102.62 -1.89855 -3.01386 0
M  V30 994 O 101.479 -2.69714 -4.75307 0
M  V30 995 H 98.5727 -0.376854 -0.736146 0
M  V30 996 H 101.119 -1.35745 -1.0184 0
M  V30 997 H 99.8907 -2.91938 -2.60553 0
M  V30 998 H 99.5137 -1.56349 -3.65569 0
M  V30 999 N 100.511 1.16574 -1.06058 0
M  V30 1000 C 101.441 2.23057 -0.690488 0
M  V30 1001 C 102.422 1.67141 0.315901 0
M  V30 1002 O 103.607 1.93253 0.191556 0
M  V30 1003 C 100.737 3.47222 -0.073625 0
M  V30 1004 C 99.6908 4.16016 -1.00573 0
M  V30 1005 C 99.0168 5.34104 -0.252289 0
M  V30 1006 C 100.317 4.67264 -2.33371 0
M  V30 1007 H 102.011 2.54271 -1.58072 0
M  V30 1008 H 99.5568 1.22218 -0.76149 0
M  V30 1009 H 101.51 4.20939 0.19714 0
M  V30 1010 H 100.234 3.15302 0.85161 0
M  V30 1011 H 98.8928 3.44223 -1.2612 0
M  V30 1012 H 98.5408 4.98437 0.675988 0
M  V30 1013 H 98.2408 5.81072 -0.873455 0
M  V30 1014 H 99.7648 6.10599 0.0109857 0
M  V30 1015 H 101.179 5.32573 -2.12223 0
M  V30 1016 H 99.5758 5.24843 -2.90963 0
M  V30 1017 H 100.646 3.83602 -2.96611 0
M  V30 1018 N 101.989 0.842826 1.3317 0
M  V30 1019 C 103.266 0.362216 1.92217 0
M  V30 1020 C 103.646 -1.15289 1.76838 0
M  V30 1021 O 102.994 -1.96914 1.15919 0
M  V30 1022 C 103.204 0.813495 3.39387 0
M  V30 1023 C 104.552 0.823804 4.16532 0
M  V30 1024 O 105.576 0.757358 3.48055 0
M  V30 1025 O 104.435 0.915193 5.38782 0
M  V30 1026 H 101.529 0.103317 0.820521 0
M  V30 1027 H 104.075 0.928942 1.42017 0
M  V30 1028 H 102.847 1.85624 3.4447 0
M  V30 1029 H 102.47 0.223561 3.96971 0
M  V30 1030 N 103.467 -1.45747 0.599634 0
M  V30 1031 C 104.397 -2.33235 -0.111306 0
M  V30 1032 C 105.378 -1.46359 -0.866781 0
M  V30 1033 O 106.563 -1.75146 -0.838904 0
M  V30 1034 C 103.693 -3.28932 -1.11451 0
M  V30 1035 C 102.647 -4.25381 -0.472772 0
M  V30 1036 C 101.973 -5.1071 -1.58365 0
M  V30 1037 C 103.273 -5.18831 0.600948 0
M  V30 1038 H 104.967 -2.92927 0.61919 0
M  V30 1039 H 102.513 -1.40857 0.299215 0
M  V30 1040 H 104.466 -3.89002 -1.62036 0
M  V30 1041 H 103.19 -2.67381 -1.8755 0
M  V30 1042 H 101.849 -3.66598 0.0121472 0
M  V30 1043 H 101.497 -4.45533 -2.33473 0
M  V30 1044 H 101.197 -5.7604 -1.15982 0
M  V30 1045 H 102.721 -5.73647 -2.09194 0
M  V30 1046 H 104.135 -5.73019 0.179491 0
M  V30 1047 H 102.532 -5.92595 0.946076 0
M  V30 1048 H 103.602 -4.6174 1.48068 0
M  V30 1049 N 104.945 -0.338344 -1.53925 0
M  V30 1050 C 106.193 0.259245 -2.0043 0
M  V30 1051 C 106.514 1.51484 -1.22791 0
M  V30 1052 O 105.784 1.93037 -0.33368 0
M  V30 1053 H 104.364 0.0987845 -0.740439 0
M  V30 1054 H 107.026 -0.458302 -1.89435 0
M  V30 1055 H 106.122 0.505334 -3.07982 0
M  V30 1056 N 106.423 1.57458 -0.0668435 0
M  V30 1057 C 107.371 2.13639 0.919851 0
M  V30 1058 C 108.365 1.07204 1.31163 0
M  V30 1059 O 109.571 1.25591 1.28945 0
M  V30 1060 H 105.946 0.683048 0.314562 0
M  V30 1061 H 107.917 2.95415 0.421047 0
M  V30 1062 C 106.666 2.70892 2.17975 0
M  V30 1063 H 105.989 3.5246 1.88711 0
M  V30 1064 H 107.429 3.13803 2.85138 0
M  V30 1065 C 105.888 1.65414 2.93496 0
M  V30 1066 O 106.418 1.07619 3.87015 0
M  V30 1067 N 104.624 1.36564 2.56512 0
M  V30 1068 H 104.171 1.83751 1.80536 0
M  V30 1069 H 104.129 0.66223 3.07347 0
M  V30 1070 N 107.901 -0.206675 1.56239 0
M  V30 1071 C 109.131 -0.943975 1.83773 0
M  V30 1072 C 109.539 -1.77841 0.645703 0
M  V30 1073 O 108.882 -1.79403 -0.395008 0
M  V30 1074 C 108.944 -1.899 3.05251 0
M  V30 1075 C 108.608 -1.24764 4.39639 0
M  V30 1076 C 109.605 -0.630216 5.16066 0
M  V30 1077 C 107.29 -1.25496 4.8637 0
M  V30 1078 C 109.284 -0.0287946 6.37393 0
M  V30 1079 C 106.971 -0.649698 6.07637 0
M  V30 1080 C 107.969 -0.0376845 6.8299 0
M  V30 1081 O 107.657 0.55812 8.0196 0
M  V30 1082 H 107.389 -0.281508 0.614597 0
M  V30 1083 H 109.943 -0.222458 2.04192 0
M  V30 1084 H 108.173 -2.6599 2.80689 0
M  V30 1085 H 109.862 -2.5031 3.1953 0
M  V30 1086 H 110.628 -0.616785 4.81062 0
M  V30 1087 H 106.507 -1.72072 4.27683 0
M  V30 1088 H 110.051 0.449518 6.9615 0
M  V30 1089 H 105.948 -0.660592 6.42111 0
M  V30 1090 H 106.716 0.453891 8.17241 0
M  V30 1091 N 109.379 -1.50304 -0.473955 0
M  V30 1092 C 110.289 -1.7174 -1.5982 0
M  V30 1093 C 111.305 -0.600457 -1.63311 0
M  V30 1094 O 112.481 -0.878441 -1.81233 0
M  V30 1095 C 109.546 -1.80427 -2.96052 0
M  V30 1096 C 108.607 -3.04148 -3.02972 0
M  V30 1097 C 107.84 -3.12411 -4.32706 0
M  V30 1098 O 108.063 -2.27542 -5.23049 0
M  V30 1099 O 106.997 -4.05113 -4.45159 0
M  V30 1100 H 110.823 -2.67035 -1.44657 0
M  V30 1101 H 108.408 -1.34366 -0.653148 0
M  V30 1102 H 110.29 -1.88338 -3.7697 0
M  V30 1103 H 108.965 -0.883156 -3.11419 0
M  V30 1104 H 107.872 -3.0174 -2.21142 0
M  V30 1105 H 109.205 -3.95829 -2.92541 0
M  V30 1106 N 110.857 0.726932 -1.39834 0
M  V30 1107 C 112.273 1.03354 -1.21615 0
M  V30 1108 C 112.473 2.01327 -0.08338 0
M  V30 1109 O 111.529 2.46158 0.56238 0
M  V30 1110 C 112.842 1.58811 -2.55342 0
M  V30 1111 C 114.39 1.70851 -2.62257 0
M  V30 1112 C 114.865 2.29716 -3.96225 0
M  V30 1113 N 116.356 2.37116 -3.97907 0
M  V30 1114 C 117.091 2.83619 -4.98345 0
M  V30 1115 N 116.587 3.29958 -6.09179 0
M  V30 1116 N 118.38 2.82901 -4.8572 0
M  V30 1117 H 110.531 0.0773069 -2.12259 0
M  V30 1118 H 112.794 0.0969102 -0.943034 0
M  V30 1119 H 112.5 0.942855 -3.38826 0
M  V30 1120 H 112.374 2.57502 -2.75632 0
M  V30 1121 H 114.761 2.34497 -1.79152 0
M  V30 1122 H 114.842 0.707913 -2.45809 0
M  V30 1123 H 114.486 1.66696 -4.79765 0
M  V30 1124 H 114.416 3.30469 -4.09997 0
M  V30 1125 H 116.907 2.04374 -3.17868 0
M  V30 1126 H 117.22 3.63976 -6.8172 0
M  V30 1127 H 115.565 3.27946 -6.12761 0
M  V30 1128 H 118.756 2.46027 -3.98231 0
M  V30 1129 H 118.929 3.18827 -5.6414 0
M  V30 1130 N 112.336 1.25143 0.95797 0
M  V30 1131 C 113.583 1.09692 1.70217 0
M  V30 1132 C 113.911 -0.362654 1.91089 0
M  V30 1133 O 113.166 -1.28386 1.47701 0
M  V30 1134 C 113.465 1.79272 3.09187 0
M  V30 1135 C 113.131 3.29196 3.08125 0
M  V30 1136 C 111.793 3.70096 3.07543 0
M  V30 1137 C 114.145 4.24995 3.0171 0
M  V30 1138 C 111.473 5.05213 2.9829 0
M  V30 1139 C 113.825 5.60132 2.93999 0
M  V30 1140 C 112.489 6.00365 2.9175 0
M  V30 1141 H 111.759 0.401393 0.622868 0
M  V30 1142 H 114.406 1.55372 1.11945 0
M  V30 1143 H 112.711 1.26014 3.70982 0
M  V30 1144 H 114.408 1.64773 3.65583 0
M  V30 1145 H 110.998 2.96651 3.09348 0
M  V30 1146 H 115.182 3.9439 3.01281 0
M  V30 1147 H 110.438 5.35569 2.94916 0
M  V30 1148 H 114.612 6.3406 2.87996 0
M  V30 1149 H 112.239 7.05023 2.84336 0
M  V30 1150 N 113.814 -1.1601 1.06675 0
M  V30 1151 C 114.744 -2.22688 0.702307 0
M  V30 1152 C 115.725 -1.67306 -0.307032 0
M  V30 1153 O 116.91 -1.93352 -0.181305 0
M  V30 1154 C 114.04 -3.47178 0.092038 0
M  V30 1155 C 112.994 -4.15477 1.02777 0
M  V30 1156 C 112.32 -5.33963 0.28061 0
M  V30 1157 C 113.62 -4.66019 2.35846 0
M  V30 1158 H 115.314 -2.53429 1.59419 0
M  V30 1159 H 112.86 -1.21813 0.767961 0
M  V30 1160 H 114.813 -4.21037 -0.174814 0
M  V30 1161 H 113.537 -3.15749 -0.834877 0
M  V30 1162 H 112.196 -3.43549 1.27944 0
M  V30 1163 H 111.844 -4.98788 -0.649545 0
M  V30 1164 H 111.544 -5.806 0.904258 0
M  V30 1165 H 113.068 -6.10596 0.021396 0
M  V30 1166 H 114.482 -5.3144 2.15045 0
M  V30 1167 H 112.879 -5.23293 2.93743 0
M  V30 1168 H 113.949 -3.82023 2.98641 0
M  V30 1169 N 115.292 -0.849877 -1.32721 0
M  V30 1170 C 116.569 -0.372405 -1.92022 0
M  V30 1171 C 116.949 1.1435 -1.77447 0
M  V30 1172 O 116.297 1.96296 -1.16962 0
M  V30 1173 C 116.507 -0.831482 -3.3895 0
M  V30 1174 C 117.855 -0.845882 -4.16089 0
M  V30 1175 O 118.879 -0.775806 -3.47649 0
M  V30 1176 O 117.738 -0.943753 -5.38289 0
M  V30 1177 H 114.832 -0.107667 -0.819961 0
M  V30 1178 H 117.378 -0.93646 -1.41522 0
M  V30 1179 H 116.15 -1.87448 -3.4348 0
M  V30 1180 H 115.773 -0.24461 -3.96847 0
M  V30 1181 N 116.77 1.45427 -0.607355 0
M  V30 1182 C 118.019 2.01452 -0.100036 0
M  V30 1183 C 118.332 1.48159 1.27704 0
M  V30 1184 O 119.538 1.96159 1.87707 0
M  V30 1185 C 117.994 3.59672 -0.128158 0
M  V30 1186 C 117.602 4.21962 -1.50507 0
M  V30 1187 C 119.346 4.23262 0.323932 0
M  V30 1188 C 117.253 5.72333 -1.48959 0
M  V30 1189 H 116.183 0.75325 -0.0336299 0
M  V30 1190 H 118.834 1.66901 -0.76265 0
M  V30 1191 H 117.216 3.91411 0.601105 0
M  V30 1192 H 118.39 4.01796 -2.25602 0
M  V30 1193 H 116.705 3.70565 -1.89923 0
M  V30 1194 H 119.302 5.33522 0.354691 0
M  V30 1195 H 119.645 3.93921 1.34656 0
M  V30 1196 H 120.178 3.96239 -0.352056 0
M  V30 1197 H 116.917 6.06373 -2.48981 0
M  V30 1198 H 116.437 5.94691 -0.781214 0
M  V30 1199 H 118.116 6.35525 -1.21313 0
M  V30 1200 N 118.248 0.346503 1.53744 0
M  V30 1201 C 119.664 -0.00530975 1.59599 0
M  V30 1202 C 119.864 -1.48465 1.36236 0
M  V30 1203 O 118.92 -2.24376 1.15808 0
M  V30 1204 C 120.233 0.433516 2.97559 0
M  V30 1205 C 121.781 0.386111 3.10609 0
M  V30 1206 C 122.256 0.800451 4.50951 0
M  V30 1207 N 123.747 0.754753 4.5701 0
M  V30 1208 C 124.482 1.04727 5.63755 0
M  V30 1209 N 123.978 1.4081 6.7834 0
M  V30 1210 N 125.771 0.971316 5.53644 0
M  V30 1211 H 117.922 1.31009 1.67184 0
M  V30 1212 H 120.185 0.534242 0.783128 0
M  V30 1213 H 119.891 1.46509 3.19731 0
M  V30 1214 H 119.765 -0.189753 3.76722 0
M  V30 1215 H 122.152 -0.636295 2.88158 0
M  V30 1216 H 122.233 1.04462 2.33498 0
M  V30 1217 H 121.877 1.82088 4.74137 0
M  V30 1218 H 121.807 0.119386 5.26465 0
M  V30 1219 H 124.298 0.488662 3.74727 0
M  V30 1220 H 124.611 1.61607 7.55714 0
M  V30 1221 H 122.956 1.44657 6.79779 0
M  V30 1222 H 126.147 0.688748 4.63005 0
M  V30 1223 H 126.32 1.20263 6.36742 0
M  V30 1224 N 119.726 -1.57421 0.075193 0
M  V30 1225 C 120.656 -2.15942 -0.888324 0
M  V30 1226 C 121.637 -1.08737 -1.30806 0
M  V30 1227 O 122.822 -1.36787 -1.37851 0
M  V30 1228 C 119.952 -2.72379 -2.1547 0
M  V30 1229 C 118.906 -3.8478 -1.87425 0
M  V30 1230 C 118.232 -4.27834 -3.20721 0
M  V30 1231 C 119.532 -5.08869 -1.17684 0
M  V30 1232 H 121.226 -2.96705 -0.400799 0
M  V30 1233 H 118.772 -1.42723 -0.191342 0
M  V30 1234 H 120.725 -3.11965 -2.83295 0
M  V30 1235 H 119.449 -1.88841 -2.6647 0
M  V30 1236 H 118.108 -3.45703 -1.22004 0
M  V30 1237 H 117.756 -3.41214 -3.6957 0
M  V30 1238 H 117.456 -5.03605 -3.02746 0
M  V30 1239 H 118.98 -4.70039 -3.89738 0
M  V30 1240 H 120.394 -5.4575 -1.75584 0
M  V30 1241 H 118.791 -5.8994 -1.09956 0
M  V30 1242 H 119.861 -4.84648 -0.156453 0
M  V30 1243 N 121.204 0.198386 -1.56346 0
M  V30 1244 C 122.432 0.935572 -1.84539 0
M  V30 1245 C 122.847 1.76989 -0.657281 0
M  V30 1246 O 122.204 1.78626 0.374043 0
M  V30 1247 C 122.255 1.8344 -3.11499 0
M  V30 1248 O 121.976 1.03377 -4.25728 0
M  V30 1249 C 123.477 2.68355 -3.52846 0
M  V30 1250 H 120.697 0.273126 -0.612897 0
M  V30 1251 H 123.241 0.20663 -2.03453 0
M  V30 1252 H 121.396 2.51701 -2.94492 0
M  V30 1253 H 121.81 1.64599 -4.98003 0
M  V30 1254 H 123.284 3.27085 -4.44657 0
M  V30 1255 H 123.761 3.41901 -2.75681 0
M  V30 1256 H 124.367 2.05471 -3.72373 0
M  V30 1257 N 122.682 1.50554 0.465978 0
M  V30 1258 C 123.629 1.6979 1.56333 0
M  V30 1259 C 124.599 0.539239 1.57103 0
M  V30 1260 O 125.784 0.770401 1.74555 0
M  V30 1261 C 122.924 1.80273 2.94271 0
M  V30 1262 C 122.037 3.07674 3.0325 0
M  V30 1263 C 121.172 3.08922 4.32135 0
M  V30 1264 C 120.211 4.30755 4.34875 0
M  V30 1265 N 119.348 4.29714 5.55239 0
M  V30 1266 H 124.188 2.63472 1.39235 0
M  V30 1267 H 121.725 1.30602 0.676873 0
M  V30 1268 H 123.683 1.84332 3.74269 0
M  V30 1269 H 122.313 0.900258 3.09992 0
M  V30 1270 H 121.365 3.13062 2.16094 0
M  V30 1271 H 122.677 3.97642 3.01135 0
M  V30 1272 H 121.831 3.11738 5.20485 0
M  V30 1273 H 120.57 2.16792 4.36866 0
M  V30 1274 H 119.575 4.28146 3.44922 0
M  V30 1275 H 120.8 5.24117 4.31831 0
M  V30 1276 H 118.746 3.4044 5.60746 0
M  V30 1277 H 118.663 5.13456 5.54886 0
M  V30 1278 H 119.931 4.36683 6.457 0
M  V30 1279 N 124.16 -0.719506 1.40217 0
M  V30 1280 C 125.437 -1.47221 1.28784 0
M  V30 1281 C 125.817 -2.10883 -0.0956067 0
M  V30 1282 O 125.165 -1.99833 -1.10811 0
M  V30 1283 C 125.375 -2.5111 2.42373 0
M  V30 1284 C 126.723 -3.17053 2.82423 0
M  V30 1285 O 127.747 -2.61429 2.41937 0
M  V30 1286 O 126.606 -4.17742 3.52355 0
M  V30 1287 H 123.7 -0.654491 0.50554 0
M  V30 1288 H 126.246 -0.752014 1.52128 0
M  V30 1289 H 125.018 -2.02556 3.34793 0
M  V30 1290 H 124.641 -3.3067 2.20778 0
M  V30 1291 N 125.638 -1.25649 -0.95132 0
M  V30 1292 C 126.586 -1.06118 -2.06982 0
M  V30 1293 C 127.58 0.00889169 -1.69398 0
M  V30 1294 O 128.786 -0.146988 -1.79399 0
M  V30 1295 H 125.161 -0.326248 -0.677544 0
M  V30 1296 H 127.132 -2.00932 -2.2061 0
M  V30 1297 C 125.881 -0.700145 -3.40578 0
M  V30 1298 H 125.204 -1.51537 -3.69968 0
M  V30 1299 H 126.644 -0.603211 -4.19687 0
M  V30 1300 C 125.103 0.59403 -3.31622 0
M  V30 1301 O 125.633 1.63522 -3.66911 0
M  V30 1302 N 123.839 0.58089 -2.84735 0
M  V30 1303 H 123.386 -0.266783 -2.56215 0
M  V30 1304 H 123.344 1.44695 -2.79125 0
M  V30 1305 N 127.117 1.15442 -1.07289 0
M  V30 1306 C 128.065 2.22225 -0.686952 0
M  V30 1307 C 129.059 1.66688 0.30193 0
M  V30 1308 O 130.265 1.79236 0.165712 0
M  V30 1309 H 126.64 0.723783 -0.204064 0
M  V30 1310 H 128.611 2.52056 -1.5972 0
M  V30 1311 C 127.36 3.47556 -0.100149 0
M  V30 1312 H 126.683 3.90612 -0.852211 0
M  V30 1313 H 128.123 4.23794 0.132235 0
M  V30 1314 C 126.582 3.16337 1.159 0
M  V30 1315 O 127.112 3.33074 2.24555 0
M  V30 1316 N 125.318 2.70385 1.06491 0
M  V30 1317 H 124.865 2.56966 0.180668 0
M  V30 1318 H 124.823 2.49871 1.90819 0
M  V30 1319 N 128.595 0.856903 1.32268 0
M  V30 1320 C 129.525 0.31858 2.31316 0
M  V30 1321 C 130.506 -0.583487 1.59779 0
M  V30 1322 O 131.691 -0.503259 1.87566 0
M  V30 1323 C 128.821 -0.491979 3.43798 0
M  V30 1324 C 127.775 0.315849 4.26833 0
M  V30 1325 C 127.101 -0.619586 5.31098 0
M  V30 1326 C 128.401 1.54282 4.98993 0
M  V30 1327 H 130.095 1.14621 2.76591 0
M  V30 1328 H 127.641 0.552613 1.32974 0
M  V30 1329 H 129.594 -0.879012 4.1213 0
M  V30 1330 H 128.318 -1.35299 2.97257 0
M  V30 1331 H 126.977 0.684664 3.6015 0
M  V30 1332 H 126.625 -1.47751 4.8081 0
M  V30 1333 H 126.325 -0.0830621 5.87541 0
M  V30 1334 H 127.849 -1.00375 6.02293 0
M  V30 1335 H 129.263 1.22796 5.59995 0
M  V30 1336 H 127.66 2.01745 5.65172 0
M  V30 1337 H 128.73 2.30285 4.26728 0
M  V30 1338 N 130.073 -1.45103 0.615059 0
M  V30 1339 C 131.301 -2.06553 0.11977 0
M  V30 1340 C 131.716 -1.45842 -1.19898 0
M  V30 1341 O 131.073 -0.575325 -1.73194 0
M  V30 1342 C 131.124 -3.61495 -0.018364 0
M  V30 1343 O 130.845 -4.19942 1.24822 0
M  V30 1344 C 132.346 -4.39947 -0.544237 0
M  V30 1345 H 129.566 -0.667096 0.0722739 0
M  V30 1346 H 132.11 -1.8623 0.84491 0
M  V30 1347 H 130.265 -3.81135 -0.693865 0
M  V30 1348 H 130.679 -5.13204 1.0827 0
M  V30 1349 H 132.153 -5.48838 -0.589953 0
M  V30 1350 H 132.63 -4.10255 -1.56805 0
M  V30 1351 H 133.236 -4.25188 0.0974703 0
M  V30 1352 N 131.551 -0.354651 -1.53558 0
M  V30 1353 C 132.779 0.239515 -2.05509 0
M  V30 1354 C 133.194 1.4333 -1.2289 0
M  V30 1355 O 132.551 1.80538 -0.266899 0
M  V30 1356 C 132.602 0.643719 -3.55723 0
M  V30 1357 O 132.323 -0.502602 -4.35207 0
M  V30 1358 C 133.824 1.29743 -4.23889 0
M  V30 1359 H 131.044 0.0442697 -0.669538 0
M  V30 1360 H 133.588 -0.509856 -1.98042 0
M  V30 1361 H 131.743 1.34302 -3.63376 0
M  V30 1362 H 132.157 -0.178172 -5.24197 0
M  V30 1363 H 133.631 1.53091 -5.30346 0
M  V30 1364 H 134.108 2.25441 -3.76926 0
M  V30 1365 H 134.714 0.639865 -4.20459 0
M  V30 1366 N 133.029 1.57378 -0.0835403 0
M  V30 1367 C 134.277 1.93547 0.581718 0
M  V30 1368 C 134.598 0.96524 1.69435 0
M  V30 1369 O 133.868 0.0153369 1.95894 0
M  V30 1370 H 132.448 0.714521 0.217874 0
M  V30 1371 H 135.11 1.94366 -0.144158 0
M  V30 1372 H 134.206 2.95665 0.999423 0
M  V30 1373 N 134.507 -0.190092 1.56449 0
M  V30 1374 C 135.454 -1.23557 1.94942 0
M  V30 1375 C 136.424 -1.44972 0.810696 0
M  V30 1376 O 137.609 -1.58023 1.06927 0
M  V30 1377 C 134.749 -2.57416 2.2985 0
M  V30 1378 C 133.862 -2.43537 3.5681 0
M  V30 1379 C 132.997 -3.70134 3.81017 0
M  V30 1380 C 132.036 -3.51109 5.01387 0
M  V30 1381 N 131.173 -4.6973 5.21822 0
M  V30 1382 H 136.013 -0.900304 2.84075 0
M  V30 1383 H 133.55 -0.43318 1.40577 0
M  V30 1384 H 135.508 -3.35409 2.48106 0
M  V30 1385 H 134.138 -2.88975 1.43852 0
M  V30 1386 H 133.19 -1.56816 3.46573 0
M  V30 1387 H 134.502 -2.25415 4.4496 0
M  V30 1388 H 133.656 -4.56566 3.9954 0
M  V30 1389 H 132.395 -3.91215 2.91207 0
M  V30 1390 H 131.4 -2.63063 4.82782 0
M  V30 1391 H 132.625 -3.31468 5.9271 0
M  V30 1392 H 130.571 -4.91065 4.34961 0
M  V30 1393 H 130.488 -4.54452 6.0416 0
M  V30 1394 H 131.756 -5.57499 5.44808 0
M  V30 1395 N 135.985 -1.50799 -0.457987 0
M  V30 1396 C 137.234 -1.6168 -1.20593 0
M  V30 1397 C 137.547 -0.32888 -1.92815 0
M  V30 1398 O 138.753 -0.316773 -2.69646 0
M  V30 1399 C 137.209 -2.8545 -2.19195 0
M  V30 1400 C 136.817 -4.21168 -1.52715 0
M  V30 1401 C 138.561 -3.05681 -2.94549 0
M  V30 1402 C 136.468 -5.3611 -2.4968 0
M  V30 1403 H 135.398 -0.602134 -0.453818 0
M  V30 1404 H 138.049 -1.77245 -0.475031 0
M  V30 1405 H 136.431 -2.63472 -2.95632 0
M  V30 1406 H 137.605 -4.53449 -0.819775 0
M  V30 1407 H 135.92 -4.06648 -0.895922 0
M  V30 1408 H 138.517 -3.88727 -3.67145 0
M  V30 1409 H 138.86 -2.17929 -3.54701 0
M  V30 1410 H 139.393 -3.27901 -2.25223 0
M  V30 1411 H 136.132 -6.26057 -1.94249 0
M  V30 1412 H 135.652 -5.0823 -3.18532 0
M  V30 1413 H 137.331 -5.6722 -3.11241 0
M  V30 1414 N 137.463 0.71206 -1.40597 0
M  V30 1415 C 138.693 1.49894 -1.42181 0
M  V30 1416 C 139.101 1.89189 -0.0208078 0
M  V30 1417 O 138.444 1.56223 0.966436 0
M  V30 1418 C 138.506 2.80215 -2.25211 0
M  V30 1419 C 138.17 2.63221 -3.73582 0
M  V30 1420 C 139.167 2.30249 -4.66135 0
M  V30 1421 C 136.852 2.79376 -4.17438 0
M  V30 1422 C 138.846 2.13645 -6.00529 0
M  V30 1423 C 136.533 2.6239 -5.51901 0
M  V30 1424 C 137.531 2.29573 -6.43262 0
M  V30 1425 O 137.219 2.12719 -7.75246 0
M  V30 1426 H 136.951 0.469031 -0.486812 0
M  V30 1427 H 139.505 0.88564 -1.85326 0
M  V30 1428 H 137.735 3.4389 -1.76852 0
M  V30 1429 H 139.424 3.41947 -2.18694 0
M  V30 1430 H 140.19 2.17398 -4.33547 0
M  V30 1431 H 136.069 3.03906 -3.46644 0
M  V30 1432 H 139.613 1.87953 -6.71803 0
M  V30 1433 H 135.51 2.74826 -5.84073 0
M  V30 1434 H 136.278 2.27611 -7.86216 0
M  V30 1435 N 138.941 1.26152 0.944643 0
M  V30 1436 C 139.873 1.03199 2.04652 0
M  V30 1437 C 140.886 -0.00642356 1.62799 0
M  V30 1438 O 142.075 0.233263 1.76969 0
M  V30 1439 C 139.175 0.540111 3.34568 0
M  V30 1440 C 138.348 1.64697 4.05208 0
M  V30 1441 C 137.407 1.15374 5.13396 0
M  V30 1442 O 136.433 1.85013 5.38293 0
M  V30 1443 N 137.635 0.00031529 5.805 0
M  V30 1444 H 140.4 1.9808 2.2491 0
M  V30 1445 H 137.961 1.17491 1.11389 0
M  V30 1446 H 139.953 0.194401 4.04233 0
M  V30 1447 H 138.523 -0.315021 3.11009 0
M  V30 1448 H 137.743 2.16379 3.29506 0
M  V30 1449 H 139.031 2.3903 4.49157 0
M  V30 1450 H 138.429 -0.581336 5.62705 0
M  V30 1451 H 136.986 -0.286346 6.51171 0
M  V30 1452 N 140.419 -1.14872 1.07899 0
M  V30 1453 C 141.649 -1.89386 0.825631 0
M  V30 1454 C 142.057 -1.78565 -0.625406 0
M  V30 1455 O 141.4 -1.13918 -1.44113 0
M  V30 1456 C 141.462 -3.40206 1.16191 0
M  V30 1457 C 141.126 -3.74812 2.61467 0
M  V30 1458 C 142.123 -3.75367 3.59716 0
M  V30 1459 C 139.808 -4.0495 2.97189 0
M  V30 1460 C 141.802 -4.05574 4.9172 0
M  V30 1461 C 139.489 -4.34821 4.29388 0
M  V30 1462 C 140.487 -4.35116 5.26463 0
M  V30 1463 O 140.175 -4.64267 6.56286 0
M  V30 1464 H 139.907 -0.606894 0.297751 0
M  V30 1465 H 142.461 -1.46438 1.44031 0
M  V30 1466 H 140.691 -3.8358 0.490214 0
M  V30 1467 H 142.38 -3.96018 0.890193 0
M  V30 1468 H 143.146 -3.52176 3.33462 0
M  V30 1469 H 139.025 -4.03876 2.22273 0
M  V30 1470 H 142.569 -4.05719 5.67484 0
M  V30 1471 H 138.466 -4.5748 4.55392 0
M  V30 1472 H 139.234 -4.82007 6.61522 0
M  V30 1473 N 141.898 -0.863906 -1.31812 0
M  V30 1474 C 143.144 -0.472535 -1.97218 0
M  V30 1475 C 143.477 0.971394 -1.68159 0
M  V30 1476 O 142.752 1.68309 -0.974798 0
M  V30 1477 C 143.035 -0.723054 -3.52766 0
M  V30 1478 C 142.888 -2.21608 -3.91421 0
M  V30 1479 C 144.207 -0.185522 -4.39709 0
M  V30 1480 H 141.326 -0.173158 -0.71637 0
M  V30 1481 H 143.968 -1.08403 -1.56041 0
M  V30 1482 H 142.118 -0.202577 -3.87971 0
M  V30 1483 H 143.79 -2.80334 -3.66347 0
M  V30 1484 H 142.033 -2.691 -3.40246 0
M  V30 1485 H 142.704 -2.34203 -4.99853 0
M  V30 1486 H 145.18 -0.630726 -4.11292 0
M  V30 1487 H 144.056 -0.390306 -5.47511 0
M  V30 1488 H 144.317 0.912229 -4.32586 0
M  V30 1489 N 143.376 1.44774 -0.622745 0
M  V30 1490 C 144.625 2.01334 -0.121397 0
M  V30 1491 C 144.938 1.49505 1.26125 0
M  V30 1492 O 146.144 1.98139 1.85616 0
M  V30 1493 C 144.6 3.59516 -0.166298 0
M  V30 1494 C 144.208 4.20342 -1.54974 0
M  V30 1495 C 145.952 4.23582 0.279021 0
M  V30 1496 C 143.859 5.70721 -1.55021 0
M  V30 1497 H 142.789 0.752851 -0.0416172 0
M  V30 1498 H 145.44 1.66083 -0.780309 0
M  V30 1499 H 143.822 3.92027 0.559557 0
M  V30 1500 H 144.996 3.99381 -2.29851 0
M  V30 1501 H 143.311 3.68529 -1.93843 0
M  V30 1502 H 145.908 5.33868 0.298083 0
M  V30 1503 H 146.251 3.95327 1.30471 0
M  V30 1504 H 146.784 3.95843 -0.394063 0
M  V30 1505 H 143.523 6.03698 -2.55399 0
M  V30 1506 H 143.043 5.93829 -0.844245 0
M  V30 1507 H 144.722 6.34203 -1.28047 0
M  V30 1508 N 144.854 0.36279 1.53368 0
M  V30 1509 C 145.802 -0.500155 2.27159 0
M  V30 1510 C 146.796 -1.08575 1.3003 0
M  V30 1511 O 148.002 -1.02927 1.47668 0
M  V30 1512 H 144.377 -0.180009 0.730138 0
M  V30 1513 H 146.348 0.14401 2.98052 0
M  V30 1514 C 145.097 -1.62937 3.07159 0
M  V30 1515 H 144.42 -1.18806 3.8174 0
M  V30 1516 H 145.86 -2.20795 3.61975 0
M  V30 1517 C 144.319 -2.57007 2.17829 0
M  V30 1518 O 144.849 -3.59752 1.78721 0
M  V30 1519 N 143.055 -2.26131 1.82518 0
M  V30 1520 H 142.602 -1.42616 2.14519 0
M  V30 1521 H 142.56 -2.89327 1.23034 0
M  V30 1522 N 146.332 -1.57332 0.0918853 0
M  V30 1523 C 147.279 -2.13847 -0.868211 0
M  V30 1524 C 148.249 -1.05618 -1.28196 0
M  V30 1525 O 149.434 -1.33387 -1.36427 0
M  V30 1526 C 146.574 -2.72062 -2.12312 0
M  V30 1527 C 145.687 -3.94514 -1.7602 0
M  V30 1528 C 144.822 -4.40903 -2.96273 0
M  V30 1529 C 143.861 -5.55953 -2.56092 0
M  V30 1530 N 142.998 -5.97209 -3.69169 0
M  V30 1531 H 147.838 -2.95575 -0.379406 0
M  V30 1532 H 145.375 -1.46048 -0.175606 0
M  V30 1533 H 147.333 -3.03931 -2.858 0
M  V30 1534 H 145.963 -1.93068 -2.58698 0
M  V30 1535 H 145.015 -3.68979 -0.925135 0
M  V30 1536 H 146.327 -4.7802 -1.42472 0
M  V30 1537 H 145.481 -4.74539 -3.78018 0
M  V30 1538 H 144.22 -3.56291 -3.33029 0
M  V30 1539 H 143.225 -5.21948 -1.72773 0
M  V30 1540 H 144.45 -6.42311 -2.20484 0
M  V30 1541 H 142.396 -5.15543 -4.05649 0
M  V30 1542 H 142.313 -6.75504 -3.39456 0
M  V30 1543 H 143.581 -6.35475 -4.51434 0
M  V30 1544 N 147.81 0.181792 -1.56548 0
M  V30 1545 C 148.72 1.24538 -1.98815 0
M  V30 1546 C 149.736 1.49045 -0.897861 0
M  V30 1547 O 150.912 1.61399 -1.20467 0
M  V30 1548 C 147.977 2.56683 -2.33055 0
M  V30 1549 C 147.038 2.40131 -3.55859 0
M  V30 1550 C 146.271 3.65975 -3.88456 0
M  V30 1551 O 146.494 4.70711 -3.22161 0
M  V30 1552 O 145.428 3.6071 -4.81842 0
M  V30 1553 H 149.254 0.916647 -2.89536 0
M  V30 1554 H 146.839 0.387842 -1.44278 0
M  V30 1555 H 148.721 3.34655 -2.56094 0
M  V30 1556 H 147.396 2.89157 -1.45498 0
M  V30 1557 H 146.303 1.60226 -3.38051 0
M  V30 1558 H 147.636 2.12585 -4.43924 0
M  V30 1559 N 149.288 1.51039 0.449983 0
M  V30 1560 C 150.704 1.38934 0.785462 0
M  V30 1561 C 150.904 0.461817 1.96136 0
M  V30 1562 O 149.96 -0.0877389 2.52348 0
M  V30 1563 C 151.273 2.80724 1.0777 0
M  V30 1564 C 152.821 2.89787 1.1829 0
M  V30 1565 C 153.296 4.32457 1.50815 0
M  V30 1566 N 154.787 4.35505 1.57764 0
M  V30 1567 C 155.522 5.42914 1.84477 0
M  V30 1568 N 155.018 6.60502 2.09068 0
M  V30 1569 N 156.811 5.3038 1.86155 0
M  V30 1570 H 148.962 2.09904 -0.324647 0
M  V30 1571 H 151.225 0.944378 -0.0827957 0
M  V30 1572 H 150.931 3.50531 0.286498 0
M  V30 1573 H 150.805 3.19273 2.00859 0
M  V30 1574 H 153.192 2.20186 1.96474 0
M  V30 1575 H 153.273 2.54752 0.231314 0
M  V30 1576 H 152.917 5.02603 0.731622 0
M  V30 1577 H 152.847 4.64995 2.47158 0
M  V30 1578 H 155.338 3.50724 1.40715 0
M  V30 1579 H 155.651 7.38158 2.28785 0
M  V30 1580 H 153.996 6.63639 2.06416 0
M  V30 1581 H 157.187 4.37505 1.66454 0
M  V30 1582 H 157.36 6.1417 2.06637 0
M  V30 1583 N 150.766 -0.704594 1.40972 0
M  V30 1584 C 151.713 -1.81862 1.42109 0
M  V30 1585 C 152.683 -1.63781 0.276593 0
M  V30 1586 O 153.868 -1.84759 0.4763 0
M  V30 1587 C 151.008 -3.19669 1.30022 0
M  V30 1588 C 150.121 -3.49246 2.54267 0
M  V30 1589 C 149.256 -4.76618 2.3454 0
M  V30 1590 C 148.295 -4.99133 3.54306 0
M  V30 1591 N 147.432 -6.17726 3.33706 0
M  V30 1592 H 152.272 -1.80226 2.37324 0
M  V30 1593 H 149.809 -0.880238 1.17857 0
M  V30 1594 H 151.767 -3.99263 1.21018 0
M  V30 1595 H 150.397 -3.20506 0.384192 0
M  V30 1596 H 149.449 -2.64125 2.73756 0
M  V30 1597 H 150.761 -3.61788 3.43381 0
M  V30 1598 H 149.915 -5.64249 2.22952 0
M  V30 1599 H 148.654 -4.66305 1.42867 0
M  V30 1600 H 147.659 -4.09953 3.66359 0
M  V30 1601 H 148.884 -5.11311 4.4692 0
M  V30 1602 H 146.83 -6.08642 2.44725 0
M  V30 1603 H 146.747 -6.30995 4.16391 0
M  V30 1604 H 148.015 -7.08115 3.25873 0
M  V30 1605 N 152.244 -1.26651 -0.937939 0
M  V30 1606 C 153.492 -1.12165 -1.68118 0
M  V30 1607 C 153.813 0.334983 -1.92101 0
M  V30 1608 O 153.083 1.23583 -1.52 0
M  V30 1609 H 151.663 -0.412093 -0.623048 0
M  V30 1610 H 154.325 -1.59027 -1.12678 0
M  V30 1611 H 153.421 -1.64289 -2.6536 0
M  V30 1612 N 153.722 1.14298 -1.08507 0
M  V30 1613 C 154.999 1.81544 -0.728088 0
M  V30 1614 C 155.379 1.95838 0.78808 0
M  V30 1615 O 154.727 1.51904 1.70697 0
M  V30 1616 C 154.937 3.17169 -1.45619 0
M  V30 1617 C 156.285 3.9265 -1.61591 0
M  V30 1618 O 157.309 3.26762 -1.41793 0
M  V30 1619 O 156.168 5.10807 -1.94263 0
M  V30 1620 H 153.262 0.78491 -0.260471 0
M  V30 1621 H 155.808 1.21307 -1.18671 0
M  V30 1622 H 154.58 3.01934 -2.489 0
M  V30 1623 H 154.203 3.851 -0.989124 0
M  V30 1624 N 155.201 0.870884 1.31352 0
M  V30 1625 C 156.431 0.496049 2.00557 0
M  V30 1626 C 156.839 -0.916241 1.65534 0
M  V30 1627 O 156.182 -1.61188 0.881134 0
M  V30 1628 C 156.244 0.574418 3.54881 0
M  V30 1629 C 155.908 1.94849 4.1338 0
M  V30 1630 C 156.905 2.91611 4.30417 0
M  V30 1631 C 154.59 2.25005 4.49086 0
M  V30 1632 C 156.584 4.16672 4.82352 0
M  V30 1633 C 154.271 3.50315 5.00722 0
M  V30 1634 C 155.269 4.45964 5.17306 0
M  V30 1635 O 154.957 5.69052 5.67833 0
M  V30 1636 H 154.689 0.191664 0.64826 0
M  V30 1637 H 157.243 1.17409 1.68536 0
M  V30 1638 H 155.473 -0.160549 3.86367 0
M  V30 1639 H 157.162 0.212879 4.05341 0
M  V30 1640 H 157.928 2.69622 4.03149 0
M  V30 1641 H 153.807 1.51332 4.35453 0
M  V30 1642 H 157.351 4.91336 4.95211 0
M  V30 1643 H 153.248 3.72147 5.27424 0
M  V30 1644 H 154.016 5.71236 5.86201 0
M  V30 1645 N 156.679 -1.44442 0.630414 0
M  V30 1646 C 157.609 -2.33418 -0.0618083 0
M  V30 1647 C 158.59 -1.48165 -0.835541 0
M  V30 1648 O 159.775 -1.76886 -0.801564 0
M  V30 1649 C 156.905 -3.31222 -1.04449 0
M  V30 1650 C 155.859 -4.26288 -0.382436 0
M  V30 1651 C 155.185 -5.13954 -1.47497 0
M  V30 1652 C 156.485 -5.1744 0.710865 0
M  V30 1653 H 158.179 -2.91548 0.681184 0
M  V30 1654 H 155.725 -1.40191 0.329026 0
M  V30 1655 H 157.678 -3.92351 -1.53748 0
M  V30 1656 H 156.402 -2.71299 -1.81836 0
M  V30 1657 H 155.061 -3.6649 0.0899054 0
M  V30 1658 H 154.709 -4.50385 -2.2397 0
M  V30 1659 H 154.409 -5.7837 -1.03737 0
M  V30 1660 H 155.933 -5.77955 -1.96979 0
M  V30 1661 H 157.347 -5.72509 0.300996 0
M  V30 1662 H 155.744 -5.90455 1.07156 0
M  V30 1663 H 156.814 -4.58496 1.57829 0
M  V30 1664 N 158.157 -0.370918 -1.53173 0
M  V30 1665 C 159.405 0.216673 -2.00935 0
M  V30 1666 C 159.726 1.48845 -1.25977 0
M  V30 1667 O 158.996 1.92286 -0.374551 0
M  V30 1668 H 157.576 0.0830565 -0.742368 0
M  V30 1669 H 160.238 -0.49838 -1.8842 0
M  V30 1670 H 159.334 0.439893 -3.08984 0
M  V30 1671 N 159.635 1.57281 -0.100228 0
M  V30 1672 C 160.582 2.14305 0.856858 0
M  V30 1673 C 161.552 1.06296 1.27634 0
M  V30 1674 O 162.737 1.34109 1.35718 0
M  V30 1675 C 159.877 2.73184 2.10866 0
M  V30 1676 C 158.99 3.95442 1.73925 0
M  V30 1677 C 158.125 4.42468 2.93931 0
M  V30 1678 C 157.164 5.57303 2.5314 0
M  V30 1679 N 156.301 5.99158 3.65997 0
M  V30 1680 H 161.141 2.95772 0.363726 0
M  V30 1681 H 158.678 1.46139 0.167858 0
M  V30 1682 H 160.636 3.05442 2.84185 0
M  V30 1683 H 159.266 1.94437 2.57671 0
M  V30 1684 H 158.318 3.69464 0.905554 0
M  V30 1685 H 159.63 4.78769 1.39935 0
M  V30 1686 H 158.784 4.76537 3.75496 0
M  V30 1687 H 157.523 3.58052 3.31134 0
M  V30 1688 H 156.528 5.22857 1.70003 0
M  V30 1689 H 157.753 6.43471 2.17075 0
M  V30 1690 H 155.699 5.17687 4.02909 0
M  V30 1691 H 155.616 6.77295 3.35869 0
M  V30 1692 H 156.884 6.3786 4.48057 0
M  V30 1693 N 161.113 -0.173488 1.56642 0
M  V30 1694 C 162.341 -0.906095 1.86004 0
M  V30 1695 C 162.756 -1.75921 0.685355 0
M  V30 1696 O 162.113 -1.79198 -0.345578 0
M  V30 1697 C 162.164 -1.78462 3.14378 0
M  V30 1698 O 161.885 -0.965914 4.27319 0
M  V30 1699 C 163.386 -2.62707 3.57071 0
M  V30 1700 H 160.606 -0.263341 0.617165 0
M  V30 1701 H 163.15 -0.174236 2.03756 0
M  V30 1702 H 161.305 -2.46984 2.98459 0
M  V30 1703 H 161.719 -1.56655 5.00559 0
M  V30 1704 H 163.193 -3.19969 4.49804 0
M  V30 1705 H 163.67 -3.37472 2.81086 0
M  V30 1706 H 164.276 -1.99521 3.75595 0
M  V30 1707 N 162.591 -1.51276 -0.441967 0
M  V30 1708 C 163.837 -1.63958 -1.19355 0
M  V30 1709 C 164.17 -0.352543 -1.90973 0
M  V30 1710 O 163.445 0.647627 -1.83401 0
M  V30 1711 C 163.728 -2.83979 -2.21422 0
M  V30 1712 C 163.581 -4.22646 -1.53918 0
M  V30 1713 C 164.9 -2.99521 -3.22451 0
M  V30 1714 H 162.019 -0.596709 -0.432559 0
M  V30 1715 H 164.661 -1.83748 -0.483398 0
M  V30 1716 H 162.811 -2.67237 -2.81987 0
M  V30 1717 H 164.483 -4.51045 -0.967256 0
M  V30 1718 H 162.726 -4.25558 -0.841615 0
M  V30 1719 H 163.397 -5.02609 -2.28229 0
M  V30 1720 H 165.873 -3.14944 -2.71937 0
M  V30 1721 H 164.749 -3.85072 -3.91166 0
M  V30 1722 H 165.01 -2.11391 -3.88287 0
M  V30 1723 N 164.069 0.697108 -1.41344 0
M  V30 1724 C 165.001 1.8224 -1.39001 0
M  V30 1725 C 166.014 1.60152 -0.292428 0
M  V30 1726 O 167.203 1.69684 -0.554048 0
M  V30 1727 C 164.303 3.18976 -1.14489 0
M  V30 1728 C 163.476 3.68105 -2.36258 0
M  V30 1729 C 162.535 4.83506 -2.07625 0
M  V30 1730 O 161.561 4.95201 -2.8065 0
M  V30 1731 N 162.763 5.70637 -1.06555 0
M  V30 1732 H 165.528 1.84742 -2.35988 0
M  V30 1733 H 163.089 0.87937 -1.35936 0
M  V30 1734 H 165.081 3.93801 -0.932885 0
M  V30 1735 H 163.651 3.11508 -0.261043 0
M  V30 1736 H 162.871 2.84204 -2.7317 0
M  V30 1737 H 164.159 3.97667 -3.17393 0
M  V30 1738 H 163.557 5.63817 -0.461125 0
M  V30 1739 H 162.114 6.45368 -0.913444 0
M  V30 1740 N 165.547 1.27147 0.931209 0
M  V30 1741 C 166.793 1.13446 1.68101 0
M  V30 1742 C 167.126 -0.319628 1.91552 0
M  V30 1743 O 166.401 -1.23407 1.50336 0
M  V30 1744 C 166.684 1.91482 3.0497 0
M  V30 1745 C 166.537 3.44855 2.88782 0
M  V30 1746 C 167.856 1.71651 4.05246 0
M  V30 1747 H 164.975 0.413498 0.610072 0
M  V30 1748 H 167.617 1.56261 1.08086 0
M  V30 1749 H 165.767 1.55095 3.56199 0
M  V30 1750 H 167.439 3.9105 2.44698 0
M  V30 1751 H 165.682 3.71373 2.24198 0
M  V30 1752 H 166.353 3.94694 3.85902 0
M  V30 1753 H 168.829 2.0337 3.63015 0
M  V30 1754 H 167.705 2.28651 4.99009 0
M  V30 1755 H 167.966 0.663555 4.37092 0
M  V30 1756 N 167.025 -1.13721 1.09112 0
M  V30 1757 C 168.271 -1.85198 0.826414 0
M  V30 1758 C 168.604 -1.83129 -0.646319 0
M  V30 1759 O 167.879 -1.2671 -1.47563 0
M  V30 1760 C 168.162 -3.33507 1.35812 0
M  V30 1761 C 168.015 -3.44108 2.89672 0
M  V30 1762 C 169.334 -4.28838 0.989256 0
M  V30 1763 H 166.453 -0.67243 0.301675 0
M  V30 1764 H 169.095 -1.33499 1.35197 0
M  V30 1765 H 167.245 -3.77666 0.911082 0
M  V30 1766 H 168.917 -3.08684 3.428 0
M  V30 1767 H 167.16 -2.85087 3.26967 0
M  V30 1768 H 167.831 -4.48388 3.21951 0
M  V30 1769 H 170.307 -3.92734 1.37475 0
M  V30 1770 H 169.183 -5.31051 1.38838 0
M  V30 1771 H 169.444 -4.4198 -0.102924 0
M  V30 1772 N 168.503 -0.877838 -1.30888 0
M  V30 1773 C 169.914 -0.544193 -1.78593 0
M  V30 1774 C 170.265 0.939301 -1.72254 0
M  V30 1775 O 169.39 1.7337 -1.29505 0
M  V30 1776 C 169.985 -0.98105 -3.24285 0
M  V30 1777 C 168.544 -0.698935 -3.69854 0
M  V30 1778 C 167.691 -1.168 -2.51502 0
M  V30 1779 H 170.642 -1.06278 -1.17859 0
M  V30 1780 H 170.663 -0.307009 -3.79259 0
M  V30 1781 H 170.175 -2.06079 -3.28866 0
M  V30 1782 H 168.276 0.369112 -3.70767 0
M  V30 1783 H 168.389 -1.28148 -4.61644 0
M  V30 1784 H 166.753 -0.587535 -2.47831 0
M  V30 1785 H 167.536 -2.25533 -2.58824 0
M  V30 1786 N 169.982 1.44106 -0.638065 0
M  V30 1787 C 170.932 2.27843 0.0847285 0
M  V30 1788 C 171.916 1.39055 0.809471 0
M  V30 1789 O 173.108 1.62808 0.694435 0
M  V30 1790 C 170.237 3.26497 1.06089 0
M  V30 1791 C 169.323 4.22772 0.33541 0
M  V30 1792 N 169.714 5.01737 -0.639787 0
M  V30 1793 C 168.012 4.42227 0.578921 0
M  V30 1794 C 168.713 5.71792 -1.06904 0
M  V30 1795 N 167.689 5.42079 -0.406395 0
M  V30 1796 H 171.491 2.86305 -0.663814 0
M  V30 1797 H 169.005 1.55627 -0.464122 0
M  V30 1798 H 171.002 3.8525 1.59337 0
M  V30 1799 H 169.662 2.69595 1.80966 0
M  V30 1800 H 170.673 5.07799 -1.01789 0
M  V30 1801 H 167.35 3.96415 1.31003 0
M  V30 1802 H 168.74 6.45205 -1.8751 0
M  V30 1803 N 171.46 0.379036 1.52974 0
M  V30 1804 C 172.709 -0.207612 2.00629 0
M  V30 1805 C 173.022 -1.48758 1.27006 0
M  V30 1806 O 174.228 -2.15365 1.65318 0
M  V30 1807 C 172.684 -0.42053 3.57435 0
M  V30 1808 C 172.292 0.845587 4.39948 0
M  V30 1809 C 174.036 -0.964102 4.13407 0
M  V30 1810 C 171.943 0.601513 5.88333 0
M  V30 1811 H 170.873 -0.0813591 0.749598 0
M  V30 1812 H 173.524 0.499853 1.76561 0
M  V30 1813 H 171.906 -1.18959 3.7771 0
M  V30 1814 H 173.08 1.61848 4.31442 0
M  V30 1815 H 171.395 1.31336 3.95145 0
M  V30 1816 H 173.992 -1.16225 5.21916 0
M  V30 1817 H 174.335 -1.93019 3.68849 0
M  V30 1818 H 174.868 -0.25487 3.96983 0
M  V30 1819 H 171.607 1.53831 6.37194 0
M  V30 1820 H 171.127 -0.132628 5.99653 0
M  V30 1821 H 172.806 0.232134 6.46583 0
M  V30 1822 N 172.938 -1.57226 0.108567 0
M  V30 1823 C 174.166 -1.99179 -0.559954 0
M  V30 1824 C 174.581 -0.988022 -1.60884 0
M  V30 1825 O 173.938 0.0205512 -1.82488 0
M  V30 1826 C 173.989 -3.41159 -1.19552 0
M  V30 1827 O 173.71 -4.37694 -0.188577 0
M  V30 1828 C 175.211 -3.98188 -1.94837 0
M  V30 1829 H 172.431 -0.654228 -0.149088 0
M  V30 1830 H 174.975 -2.03598 0.19183 0
M  V30 1831 H 173.13 -3.37711 -1.89815 0
M  V30 1832 H 173.544 -5.20469 -0.649014 0
M  V30 1833 H 175.018 -4.99644 -2.34648 0
M  V30 1834 H 175.495 -3.3675 -2.81951 0
M  V30 1835 H 176.101 -4.0515 -1.2936 0
M  V30 1836 N 174.416 0.165178 -1.56732 0
M  V30 1837 C 175.693 0.908443 -1.73224 0
M  V30 1838 C 176.073 2.0013 -0.67165 0
M  V30 1839 O 175.421 2.26353 0.31253 0
M  V30 1840 C 175.631 1.46756 -3.16644 0
M  V30 1841 C 176.979 1.93809 -3.77787 0
M  V30 1842 O 178.003 1.56537 -3.1996 0
M  V30 1843 O 176.862 2.62486 -4.79336 0
M  V30 1844 H 173.956 0.428025 -0.707618 0
M  V30 1845 H 176.502 0.152526 -1.69013 0
M  V30 1846 H 175.274 0.68129 -3.85323 0
M  V30 1847 H 174.897 2.28749 -3.25207 0
M  V30 1848 N 175.894 1.51508 0.433938 0
M  V30 1849 C 176.857 1.72473 1.50949 0
M  V30 1850 C 177.857 0.594725 1.49398 0
M  V30 1851 O 179.047 0.862315 1.5136 0
M  V30 1852 C 176.179 1.78431 2.90474 0
M  V30 1853 H 177.372 2.68467 1.33662 0
M  V30 1854 H 174.925 1.41549 0.662836 0
M  V30 1855 H 175.66 0.842645 3.13161 0
M  V30 1856 H 175.445 2.60558 2.93005 0
M  V30 1857 H 176.935 1.96479 3.68491 0
M  V30 1858 N 177.372 -0.689602 1.41712 0
M  V30 1859 C 178.621 -1.44534 1.40686 0
M  V30 1860 C 178.934 -1.95588 0.0213352 0
M  V30 1861 O 180.14 -2.71271 -0.111534 0
M  V30 1862 C 178.596 -2.61387 2.47396 0
M  V30 1863 C 178.204 -2.17094 3.91885 0
M  V30 1864 C 179.948 -3.38986 2.55517 0
M  V30 1865 C 177.855 -3.3094 4.90135 0
M  V30 1866 H 176.785 -0.542925 0.52321 0
M  V30 1867 H 179.436 -0.748054 1.6756 0
M  V30 1868 H 177.818 -3.33412 2.13664 0
M  V30 1869 H 178.992 -1.52318 4.34897 0
M  V30 1870 H 177.307 -1.52473 3.8748 0
M  V30 1871 H 179.904 -4.23747 3.26102 0
M  V30 1872 H 180.247 -3.84578 1.59391 0
M  V30 1873 H 180.78 -2.74021 2.8837 0
M  V30 1874 H 177.519 -2.90355 5.87685 0
M  V30 1875 H 177.039 -3.94546 4.51767 0
M  V30 1876 H 178.718 -3.9663 5.11169 0
M  V30 1877 N 178.85 -1.27639 -0.924453 0
M  V30 1878 C 179.782 -1.06442 -2.02985 0
M  V30 1879 C 180.795 -0.0194771 -1.62788 0
M  V30 1880 O 181.984 -0.261388 -1.76576 0
M  V30 1881 C 179.084 -0.59327 -3.33667 0
M  V30 1882 C 178.257 -1.71123 -4.02537 0
M  V30 1883 C 177.316 -1.23527 -5.11495 0
M  V30 1884 O 176.342 -1.93553 -5.35281 0
M  V30 1885 N 177.544 -0.0926678 -5.80426 0
M  V30 1886 H 180.309 -2.01633 -2.2173 0
M  V30 1887 H 177.87 -1.19248 -1.09505 0
M  V30 1888 H 179.862 -0.258686 -4.03872 0
M  V30 1889 H 178.432 0.265502 -3.1147 0
M  V30 1890 H 177.652 -2.21593 -3.26022 0
M  V30 1891 H 178.94 -2.46145 -4.45298 0
M  V30 1892 H 178.338 0.491741 -5.63559 0
M  V30 1893 H 176.895 0.182714 -6.51544 0
M  V30 1894 N 180.328 1.1314 -1.09713 0
M  V30 1895 C 181.238 2.22242 -0.751367 0
M  V30 1896 C 182.254 1.72224 0.247938 0
M  V30 1897 O 183.43 2.01205 0.0885463 0
M  V30 1898 C 180.495 3.46231 -0.180274 0
M  V30 1899 C 179.556 4.11125 -1.2359 0
M  V30 1900 C 178.789 5.29195 -0.691966 0
M  V30 1901 O 179.012 5.68342 0.48414 0
M  V30 1902 O 177.946 5.84214 -1.44838 0
M  V30 1903 H 181.772 2.54197 -1.66186 0
M  V30 1904 H 179.357 1.21331 -0.871735 0
M  V30 1905 H 181.239 4.21185 0.134739 0
M  V30 1906 H 179.914 3.1597 0.703185 0
M  V30 1907 H 178.821 3.37985 -1.60366 0
M  V30 1908 H 180.154 4.45524 -2.09211 0
M  V30 1909 N 181.806 0.884767 1.30421 0
M  V30 1910 C 183.052 0.513218 1.96819 0
M  V30 1911 C 183.407 -0.927347 1.68577 0
M  V30 1912 O 182.7 -1.64644 0.979941 0
M  V30 1913 C 182.894 0.724318 3.49983 0
M  V30 1914 C 182.723 2.18385 3.93113 0
M  V30 1915 C 181.493 2.82839 4.18725 0
M  V30 1916 C 183.691 3.15763 4.05953 0
M  V30 1917 N 181.673 4.1939 4.48314 0
M  V30 1918 C 183.044 4.37387 4.39423 0
M  V30 1919 C 185.099 3.11555 3.88379 0
M  V30 1920 C 183.802 5.55343 4.5715 0
M  V30 1921 C 185.828 4.28782 4.07308 0
M  V30 1922 C 185.19 5.49172 4.41123 0
M  V30 1923 H 181.289 0.237123 0.745182 0
M  V30 1924 H 183.873 1.14246 1.57658 0
M  V30 1925 H 182.044 0.124565 3.882 0
M  V30 1926 H 183.776 0.31969 4.03435 0
M  V30 1927 H 180.531 2.33708 4.11919 0
M  V30 1928 H 180.955 4.89911 4.67243 0
M  V30 1929 H 185.597 2.19576 3.61312 0
M  V30 1930 H 183.315 6.47826 4.8306 0
M  V30 1931 H 186.901 4.26995 3.95179 0
M  V30 1932 H 185.781 6.38371 4.55469 0
M  V30 1933 N 183.284 -1.43765 0.645699 0
M  V30 1934 C 184.53 -2.02197 0.156271 0
M  V30 1935 C 184.863 -1.50776 -1.22393 0
M  V30 1936 O 184.138 -0.697771 -1.81553 0
M  V30 1937 C 184.421 -3.59749 0.158872 0
M  V30 1938 C 184.274 -4.21419 1.57245 0
M  V30 1939 C 185.593 -4.37149 -0.50879 0
M  V30 1940 H 182.712 -0.734694 0.0582602 0
M  V30 1941 H 185.354 -1.71157 0.824951 0
M  V30 1942 H 183.504 -3.86325 -0.410525 0
M  V30 1943 H 185.176 -4.059 2.19186 0
M  V30 1944 H 183.419 -3.78356 2.122 0
M  V30 1945 H 184.09 -5.30482 1.52619 0
M  V30 1946 H 186.566 -4.16093 -0.024412 0
M  V30 1947 H 185.442 -5.4683 -0.476213 0
M  V30 1948 H 185.703 -4.12839 -1.58165 0
M  V30 1949 N 184.763 -0.387143 -1.52771 0
M  V30 1950 C 185.696 0.493123 -2.22808 0
M  V30 1951 C 186.674 1.0658 -1.22798 0
M  V30 1952 O 187.858 1.11785 -1.51777 0
M  V30 1953 C 184.985 1.68238 -2.93962 0
M  V30 1954 C 184.031 1.23515 -4.08223 0
M  V30 1955 S 184.864 0.21848 -5.35054 0
M  V30 1956 C 186.02 1.41357 -6.09729 0
M  V30 1957 H 186.253 -0.101625 -2.97126 0
M  V30 1958 H 183.786 -0.171323 -1.53447 0
M  V30 1959 H 185.744 2.36443 -3.35567 0
M  V30 1960 H 184.405 2.24842 -2.19328 0
M  V30 1961 H 183.598 2.12304 -4.57103 0
M  V30 1962 H 183.2 0.632044 -3.68621 0
M  V30 1963 H 185.492 2.34101 -6.3577 0
M  V30 1964 H 186.435 0.965736 -7.01484 0
M  V30 1965 H 186.843 1.6294 -5.40473 0
M  V30 1966 N 186.241 1.57166 -0.116904 0
M  V30 1967 C 187.657 1.5779 0.239693 0
M  V30 1968 C 187.857 1.1295 1.66867 0
M  V30 1969 O 186.913 0.81592 2.38954 0
M  V30 1970 C 188.226 3.00699 0.00828202 0
M  V30 1971 C 189.774 3.12912 0.0743438 0
M  V30 1972 C 190.249 4.57817 -0.129348 0
M  V30 1973 N 191.74 4.63139 -0.075247 0
M  V30 1974 C 192.475 5.73023 -0.207788 0
M  V30 1975 N 191.971 6.91665 -0.396382 0
M  V30 1976 N 193.764 5.61906 -0.14751 0
M  V30 1977 H 185.915 1.84615 -1.05029 0
M  V30 1978 H 188.178 0.85311 -0.41341 0
M  V30 1979 H 187.884 3.37784 -0.979531 0
M  V30 1980 H 187.758 3.69848 0.741077 0
M  V30 1981 H 190.145 2.75686 1.05268 0
M  V30 1982 H 190.226 2.4631 -0.690297 0
M  V30 1983 H 189.87 4.95742 -1.10465 0
M  V30 1984 H 189.8 5.22507 0.655253 0
M  V30 1985 H 192.291 3.7784 0.0670898 0
M  V30 1986 H 192.604 7.71255 -0.488437 0
M  V30 1987 H 190.949 6.93654 -0.432329 0
M  V30 1988 H 194.14 4.681 -0.00115036 0
M  V30 1989 H 194.313 6.47501 -0.254247 0
M  V30 1990 N 187.719 -0.156864 1.56817 0
M  V30 1991 C 188.651 -1.21883 1.94106 0
M  V30 1992 C 189.664 -1.3971 0.835754 0
M  V30 1993 O 190.853 -1.39457 1.11418 0
M  V30 1994 C 187.953 -2.58527 2.19127 0
M  V30 1995 C 187.126 -2.61809 3.50393 0
M  V30 1996 C 186.185 -3.7992 3.64071 0
M  V30 1997 O 185.211 -3.65249 4.36557 0
M  V30 1998 N 186.413 -4.96973 2.99997 0
M  V30 1999 H 189.178 -0.901974 2.85805 0
M  V30 2000 H 186.739 -0.346513 1.58148 0
M  V30 2001 H 188.731 -3.36034 2.25529 0
M  V30 2002 H 187.301 -2.82545 1.33742 0
M  V30 2003 H 186.521 -1.7029 3.5552 0
M  V30 2004 H 187.809 -2.61024 4.36742 0
M  V30 2005 H 187.207 -5.11794 2.41004 0
M  V30 2006 H 185.764 -5.7229 3.11974 0
M  V30 2007 N 189.197 -1.51736 -0.425897 0
M  V30 2008 C 190.16 -1.73271 -1.50032 0
M  V30 2009 C 191.16 -0.602639 -1.4908 0
M  V30 2010 O 192.35 -0.87033 -1.509 0
M  V30 2011 C 189.482 -1.79969 -2.89523 0
M  V30 2012 H 190.675 -2.69172 -1.32237 0
M  V30 2013 H 188.228 -1.41899 -0.65532 0
M  V30 2014 H 188.963 -0.859241 -3.1271 0
M  V30 2015 H 188.748 -2.62109 -2.91619 0
M  V30 2016 H 190.238 -1.9843 -3.67444 0
M  V30 2017 N 190.675 0.682077 -1.42076 0
M  V30 2018 C 191.605 1.80796 -1.47767 0
M  V30 2019 C 192.586 1.6677 -0.334954 0
M  V30 2020 O 193.771 1.863 -0.548264 0
M  V30 2021 C 190.901 3.19038 -1.37229 0
M  V30 2022 C 189.855 3.47789 -2.49453 0
M  V30 2023 C 189.181 4.8553 -2.23975 0
M  V30 2024 C 190.481 3.45411 -3.91776 0
M  V30 2025 H 192.175 1.7629 -2.41997 0
M  V30 2026 H 189.721 0.846721 -1.16476 0
M  V30 2027 H 191.674 3.97528 -1.39821 0
M  V30 2028 H 190.398 3.24204 -0.394907 0
M  V30 2029 H 189.057 2.71657 -2.46166 0
M  V30 2030 H 188.705 4.87337 -1.24547 0
M  V30 2031 H 188.405 5.0573 -2.99184 0
M  V30 2032 H 189.929 5.66312 -2.28304 0
M  V30 2033 H 191.343 4.13882 -3.96705 0
M  V30 2034 H 189.74 3.77145 -4.66778 0
M  V30 2035 H 190.81 2.44122 -4.18966 0
M  V30 2036 N 192.153 1.28127 0.917671 0
M  V30 2037 C 193.402 1.14432 1.66097 0
M  V30 2038 C 193.715 -0.307247 1.93172 0
M  V30 2039 O 194.921 -0.565259 2.65551 0
M  V30 2040 C 193.377 2.00015 2.99202 0
M  V30 2041 C 192.985 3.49889 2.79789 0
M  V30 2042 C 194.729 1.94996 3.77064 0
M  V30 2043 C 192.636 4.27636 4.08511 0
M  V30 2044 H 191.566 0.424662 0.62304 0
M  V30 2045 H 194.217 1.52628 1.01868 0
M  V30 2046 H 192.599 1.54672 3.64544 0
M  V30 2047 H 193.773 4.03162 2.23152 0
M  V30 2048 H 192.088 3.56392 2.15345 0
M  V30 2049 H 194.685 2.50354 4.72469 0
M  V30 2050 H 195.028 0.925819 4.05875 0
M  V30 2051 H 195.561 2.38287 3.18534 0
M  V30 2052 H 192.3 5.30615 3.84874 0
M  V30 2053 H 191.82 3.79137 4.64774 0
M  V30 2054 H 193.499 4.37346 4.76799 0
M  V30 2055 N 193.631 -1.12557 1.10312 0
M  V30 2056 C 195.042 -1.65574 0.862678 0
M  V30 2057 C 195.393 -1.86566 -0.607256 0
M  V30 2058 O 194.518 -1.59121 -1.46662 0
M  V30 2059 C 195.113 -3.00776 1.55947 0
M  V30 2060 C 193.672 -3.50748 1.36576 0
M  V30 2061 C 192.819 -2.25797 1.60968 0
M  V30 2062 H 195.77 -0.963552 1.26101 0
M  V30 2063 H 195.791 -3.67185 0.997753 0
M  V30 2064 H 195.303 -2.85465 2.62928 0
M  V30 2065 H 193.404 -3.71245 0.317531 0
M  V30 2066 H 193.517 -4.30289 2.10686 0
M  V30 2067 H 191.881 -2.32841 1.03234 0
M  V30 2068 H 192.664 -2.13043 2.69198 0
M  V30 2069 N 195.109 -0.891671 -1.2995 0
M  V30 2070 C 196.355 -0.514261 -1.96171 0
M  V30 2071 C 196.688 0.935506 -1.70182 0
M  V30 2072 O 195.963 1.66204 -1.01028 0
M  V30 2073 C 196.246 -0.797719 -3.51153 0
M  V30 2074 C 196.099 -2.2986 -3.86632 0
M  V30 2075 C 197.418 -0.278749 -4.39216 0
M  V30 2076 H 194.537 -0.188314 -0.712535 0
M  V30 2077 H 197.179 -1.11689 -1.53706 0
M  V30 2078 H 195.329 -0.284826 -3.87455 0
M  V30 2079 H 197.001 -2.88042 -3.60319 0
M  V30 2080 H 195.244 -2.76257 -3.34462 0
M  V30 2081 H 195.915 -2.44753 -4.94773 0
M  V30 2082 H 198.391 -0.717825 -4.09862 0
M  V30 2083 H 197.267 -0.506353 -5.46559 0
M  V30 2084 H 197.528 0.820266 -4.34424 0
M  V30 2085 N 196.587 1.43421 -0.653314 0
M  V30 2086 C 197.864 1.95361 -0.0966581 0
M  V30 2087 C 198.244 1.59461 1.38331 0
M  V30 2088 O 197.592 0.879777 2.10884 0
M  V30 2089 C 197.802 3.47311 -0.342988 0
M  V30 2090 C 199.15 4.23875 -0.24798 0
M  V30 2091 O 200.174 3.55133 -0.275553 0
M  V30 2092 O 199.033 5.4623 -0.171771 0
M  V30 2093 H 196.127 0.826945 0.00956291 0
M  V30 2094 H 198.673 1.5336 -0.726558 0
M  V30 2095 H 197.445 3.66569 -1.36906 0
M  V30 2096 H 197.068 3.9631 0.319975 0
M  V30 2097 N 198.065 0.39524 1.52563 0
M  V30 2098 C 198.975 -0.444232 2.30356 0
M  V30 2099 C 199.991 -1.06615 1.37511 0
M  V30 2100 O 201.167 -1.07067 1.70583 0
M  V30 2101 C 198.232 -1.55315 3.09964 0
M  V30 2102 C 197.293 -0.955734 4.18526 0
M  V30 2103 C 196.526 -2.01181 4.9433 0
M  V30 2104 O 196.749 -3.22781 4.70285 0
M  V30 2105 O 195.683 -1.62579 5.79527 0
M  V30 2106 H 199.509 0.189667 3.03107 0
M  V30 2107 H 197.094 0.1588 1.48554 0
M  V30 2108 H 198.976 -2.19724 3.59582 0
M  V30 2109 H 197.651 -2.17191 2.4002 0
M  V30 2110 H 196.558 -0.274743 3.7309 0
M  V30 2111 H 197.891 -0.381109 4.90722 0
M  V30 2112 N 199.544 -1.57102 0.125237 0
M  V30 2113 C 200.821 -1.86953 -0.575142 0
M  V30 2114 C 201.201 -1.02749 -1.84407 0
M  V30 2115 O 200.549 -0.108144 -2.28244 0
M  V30 2116 C 200.759 -3.38198 -0.861583 0
M  V30 2117 C 202.107 -4.06937 -1.21192 0
M  V30 2118 O 203.131 -3.43252 -0.951645 0
M  V30 2119 O 201.99 -5.19364 -1.70068 0
M  V30 2120 H 199.084 -0.774147 -0.290906 0
M  V30 2121 H 201.63 -1.68942 0.160211 0
M  V30 2122 H 200.402 -3.91282 0.0373647 0
M  V30 2123 H 200.025 -3.61661 -1.65188 0
M  V30 2124 N 201.022 0.148545 -1.56898 0
M  V30 2125 C 202.27 0.859717 -1.82902 0
M  V30 2126 C 202.591 1.81775 -0.70588 0
M  V30 2127 O 201.861 1.93994 0.272586 0
M  V30 2128 H 200.441 0.320469 -0.674766 0
M  V30 2129 H 203.103 0.142918 -1.94375 0
M  V30 2130 H 202.199 1.4229 -2.77777 0
M  V30 2131 N 202.5 1.5196 0.417844 0
M  V30 2132 C 203.43 1.77634 1.51554 0
M  V30 2133 C 204.411 0.626918 1.58126 0
M  V30 2134 O 205.596 0.871632 1.7354 0
M  V30 2135 C 202.726 1.91911 2.8946 0
M  V30 2136 C 201.68 3.07463 2.97743 0
M  V30 2137 C 201.006 3.06951 4.37819 0
M  V30 2138 C 202.306 4.47082 2.70027 0
M  V30 2139 H 204 2.6955 1.3032 0
M  V30 2140 H 201.546 1.29706 0.625492 0
M  V30 2141 H 203.499 2.08455 3.6623 0
M  V30 2142 H 202.223 0.966598 3.11969 0
M  V30 2143 H 200.882 2.90656 2.23416 0
M  V30 2144 H 200.53 2.09438 4.57323 0
M  V30 2145 H 200.23 3.84556 4.44286 0
M  V30 2146 H 201.754 3.25613 5.16535 0
M  V30 2147 H 203.168 4.6414 3.36522 0
M  V30 2148 H 201.565 5.2654 2.87881 0
M  V30 2149 H 202.635 4.55777 1.65514 0
M  V30 2150 N 203.978 -0.674533 1.42435 0
M  V30 2151 C 204.888 -1.81751 1.48337 0
M  V30 2152 C 205.904 -1.69975 0.372099 0
M  V30 2153 O 207.08 -1.91521 0.62304 0
M  V30 2154 C 204.145 -3.17895 1.38361 0
M  V30 2155 C 203.206 -3.41625 2.59982 0
M  V30 2156 C 202.439 -4.71274 2.50473 0
M  V30 2157 O 202.662 -5.49197 1.54075 0
M  V30 2158 O 201.596 -4.96254 3.4061 0
M  V30 2159 H 205.422 -1.79728 2.44809 0
M  V30 2160 H 203.007 -0.830312 1.24202 0
M  V30 2161 H 204.889 -3.99136 1.35161 0
M  V30 2162 H 203.564 -3.20555 0.450144 0
M  V30 2163 H 202.471 -2.60231 2.68757 0
M  V30 2164 H 203.804 -3.43796 3.52229 0
M  V30 2165 N 205.456 -1.28612 -0.910864 0
M  V30 2166 C 206.867 -1.14406 -1.47541 0
M  V30 2167 C 207.218 0.264901 -1.94403 0
M  V30 2168 O 206.343 1.15942 -1.82719 0
M  V30 2169 C 206.938 -2.07073 -2.68153 0
M  V30 2170 C 205.497 -1.96923 -3.20778 0
M  V30 2171 C 204.644 -1.98646 -1.93481 0
M  V30 2172 H 207.595 -1.41259 -0.723291 0
M  V30 2173 H 207.616 -1.63642 -3.43514 0
M  V30 2174 H 207.128 -3.09611 -2.34015 0
M  V30 2175 H 205.229 -0.97433 -3.59635 0
M  V30 2176 H 205.342 -2.84026 -3.85832 0
M  V30 2177 H 203.706 -1.43093 -2.10705 0
M  V30 2178 H 204.489 -3.02868 -1.61634 0
M  V30 2179 N 206.934 1.1197 -1.10907 0
M  V30 2180 C 207.866 2.17592 -0.720175 0
M  V30 2181 C 208.879 1.60938 0.245495 0
M  V30 2182 O 210.068 1.78476 0.0292245 0
M  V30 2183 C 207.168 3.38873 -0.0427917 0
M  V30 2184 C 206.341 4.25006 -1.03388 0
M  V30 2185 C 205.4 5.24774 -0.387075 0
M  V30 2186 O 204.426 5.59631 -1.03934 0
M  V30 2187 N 205.628 5.74208 0.852407 0
M  V30 2188 H 208.393 2.51567 -1.62893 0
M  V30 2189 H 205.954 1.27439 -0.998543 0
M  V30 2190 H 207.946 4.02703 0.401501 0
M  V30 2191 H 206.516 3.03007 0.768456 0
M  V30 2192 H 205.736 3.57716 -1.65629 0
M  V30 2193 H 207.024 4.79397 -1.70458 0
M  V30 2194 H 206.422 5.48062 1.40161 0
M  V30 2195 H 204.979 6.39901 1.23977 0
M  V30 2196 N 208.412 0.89855 1.29475 0
M  V30 2197 C 209.658 0.524658 1.95896 0
M  V30 2198 C 209.991 -0.926468 1.70676 0
M  V30 2199 O 209.266 -1.65665 1.01908 0
M  V30 2200 C 209.549 0.81633 3.50725 0
M  V30 2201 C 209.402 2.31907 3.85408 0
M  V30 2202 C 210.721 0.302038 4.39062 0
M  V30 2203 H 207.84 0.19209 0.711527 0
M  V30 2204 H 210.482 1.12502 1.53112 0
M  V30 2205 H 208.632 0.305369 3.87298 0
M  V30 2206 H 210.304 2.89949 3.58786 0
M  V30 2207 H 208.547 2.78027 3.32992 0
M  V30 2208 H 209.218 2.47373 4.93468 0
M  V30 2209 H 211.694 0.739551 4.09475 0
M  V30 2210 H 210.57 0.535331 5.46283 0
M  V30 2211 H 210.831 -0.797216 4.34853 0
M  V30 2212 N 209.89 -1.43072 0.660911 0
M  V30 2213 C 211.13 -2.03596 0.181146 0
M  V30 2214 C 211.494 -1.51057 -1.18515 0
M  V30 2215 O 212.695 -2.03275 -1.75877 0
M  V30 2216 C 210.966 -3.56845 0.19911 0
M  V30 2217 S 212.525 -4.38289 -0.211684 0
M  V30 2218 H 209.343 -0.706954 0.0757479 0
M  V30 2219 H 211.945 -1.75027 0.870965 0
M  V30 2220 H 210.649 -3.92583 1.1961 0
M  V30 2221 H 210.18 -3.90067 -0.510996 0
M  V30 2222 H 212.195 -4.74583 -1.44863 0
M  V30 2223 N 211.368 -0.403325 -1.52352 0
M  V30 2224 C 212.614 0.174605 -2.02047 0
M  V30 2225 C 212.947 1.45282 -1.28867 0
M  V30 2226 O 212.222 1.90483 -0.393257 0
M  V30 2227 C 212.505 0.428238 -3.57545 0
M  V30 2228 C 212.358 -0.866248 -4.4138 0
M  V30 2229 C 213.677 1.21287 -4.23057 0
M  V30 2230 H 210.796 0.0619851 -0.734389 0
M  V30 2231 H 213.438 -0.53565 -1.82293 0
M  V30 2232 H 211.588 1.03327 -3.74507 0
M  V30 2233 H 213.26 -1.50265 -4.3614 0
M  V30 2234 H 211.503 -1.47851 -4.07827 0
M  V30 2235 H 212.174 -0.643249 -5.48239 0
M  V30 2236 H 214.65 0.700703 -4.10158 0
M  V30 2237 H 213.526 1.35909 -5.31808 0
M  V30 2238 H 213.787 2.23193 -3.81625 0
M  V30 2239 N 212.846 1.57033 -0.133567 0
M  V30 2240 C 214.095 1.94861 0.520768 0
M  V30 2241 C 214.408 1.02012 1.66892 0
M  V30 2242 O 215.614 1.29365 2.38699 0
M  V30 2243 C 214.07 3.46362 0.977809 0
M  V30 2244 C 213.678 4.47773 -0.142674 0
M  V30 2245 C 215.422 3.93083 1.60269 0
M  V30 2246 C 213.329 5.90468 0.331883 0
M  V30 2247 H 212.259 0.727453 0.198315 0
M  V30 2248 H 214.91 1.82227 -0.215759 0
M  V30 2249 H 213.292 3.54282 1.7692 0
M  V30 2250 H 214.466 4.51536 -0.919317 0
M  V30 2251 H 212.781 4.10891 -0.675124 0
M  V30 2252 H 215.378 4.97121 1.96914 0
M  V30 2253 H 215.721 3.33876 2.48662 0
M  V30 2254 H 216.254 3.88025 0.876453 0
M  V30 2255 H 212.993 6.53463 -0.516341 0
M  V30 2256 H 212.513 5.90094 1.07469 0
M  V30 2257 H 214.192 6.42179 0.788332 0
M  V30 2258 N 214.325 -0.140222 1.56975 0
M  V30 2259 C 215.235 -1.19223 2.02047 0
M  V30 2260 C 216.251 -1.46612 0.937062 0
M  V30 2261 O 217.427 -1.58148 1.24704 0
M  V30 2262 C 214.492 -2.50414 2.39778 0
M  V30 2263 C 213.553 -2.30612 3.621 0
M  V30 2264 C 212.786 -3.55547 3.98023 0
M  V30 2265 O 213.009 -4.62004 3.34528 0
M  V30 2266 O 211.943 -3.47808 4.91237 0
M  V30 2267 H 215.769 -0.839559 2.91865 0
M  V30 2268 H 213.354 -0.349453 1.45256 0
M  V30 2269 H 215.236 -3.27747 2.64877 0
M  V30 2270 H 213.911 -2.85198 1.53114 0
M  V30 2271 H 212.818 -1.51207 3.4218 0
M  V30 2272 H 214.151 -2.00741 4.49404 0
M  V30 2273 N 215.803 -1.52179 -0.40978 0
M  V30 2274 C 216.733 -1.78435 -1.5061 0
M  V30 2275 C 217.714 -0.635295 -1.57791 0
M  V30 2276 O 218.899 -0.880823 -1.73076 0
M  V30 2277 C 216.029 -1.93444 -2.88439 0
M  V30 2278 C 214.983 -3.09038 -2.96108 0
M  V30 2279 C 214.309 -3.09268 -4.36185 0
M  V30 2280 C 215.609 -4.48508 -2.67652 0
M  V30 2281 H 217.303 -2.70237 -1.28889 0
M  V30 2282 H 214.849 -1.30036 -0.618605 0
M  V30 2283 H 216.802 -2.10394 -3.65119 0
M  V30 2284 H 215.526 -0.983129 -3.11452 0
M  V30 2285 H 214.185 -2.91837 -2.21872 0
M  V30 2286 H 213.833 -2.11861 -4.56206 0
M  V30 2287 H 213.533 -3.86907 -4.42241 0
M  V30 2288 H 215.057 -3.28348 -5.14801 0
M  V30 2289 H 216.471 -4.65918 -3.34056 0
M  V30 2290 H 214.868 -5.28059 -2.85085 0
M  V30 2291 H 215.938 -4.56649 -1.63095 0
M  V30 2292 N 217.281 0.66697 -1.42791 0
M  V30 2293 C 218.529 1.42417 -1.43394 0
M  V30 2294 C 218.85 1.94925 -0.0542373 0
M  V30 2295 O 218.12 1.73564 0.908415 0
M  V30 2296 H 216.7 0.528515 -0.527902 0
M  V30 2297 H 219.362 0.787562 -1.78279 0
M  V30 2298 H 218.458 2.27333 -2.13837 0
M  V30 2299 N 218.759 1.29093 0.90403 0
M  V30 2300 C 220.007 1.16583 1.65085 0
M  V30 2301 C 220.328 -0.283933 1.92922 0
M  V30 2302 O 219.598 -1.19509 1.55224 0
M  V30 2303 H 218.178 0.428467 0.611903 0
M  V30 2304 H 220.84 1.61959 1.08422 0
M  V30 2305 H 219.936 1.71266 2.6091 0
M  V30 2306 N 220.237 -1.11381 1.11499 0
M  V30 2307 C 221.465 -1.86934 0.88675 0
M  V30 2308 C 221.88 -1.80195 -0.563476 0
M  V30 2309 O 221.237 -1.18367 -1.38908 0
M  V30 2310 C 221.288 -3.35722 1.34064 0
M  V30 2311 O 221.009 -3.4232 2.73401 0
M  V30 2312 C 222.51 -4.2818 1.14791 0
M  V30 2313 H 219.73 -0.591117 0.317523 0
M  V30 2314 H 222.274 -1.40865 1.48248 0
M  V30 2315 H 220.429 -3.79294 0.788355 0
M  V30 2316 H 220.843 -4.34971 2.93087 0
M  V30 2317 H 222.317 -5.30817 1.5145 0
M  V30 2318 H 222.794 -4.39113 0.0875279 0
M  V30 2319 H 223.4 -3.90402 1.68721 0
M  V30 2320 N 221.715 -0.905404 -1.28997 0
M  V30 2321 C 222.961 -0.535039 -1.95615 0
M  V30 2322 C 223.294 0.917404 -1.71165 0
M  V30 2323 O 222.569 1.65123 -1.02785 0
M  V30 2324 C 222.852 -0.834918 -3.50287 0
M  V30 2325 C 222.705 -2.33948 -3.84172 0
M  V30 2326 C 224.024 -0.325318 -4.38896 0
M  V30 2327 H 221.143 -0.195861 -0.710498 0
M  V30 2328 H 223.785 -1.13313 -1.52513 0
M  V30 2329 H 221.935 -0.325904 -3.87131 0
M  V30 2330 H 223.607 -2.91847 -3.57243 0
M  V30 2331 H 221.85 -2.79789 -3.31513 0
M  V30 2332 H 222.521 -2.49987 -4.92149 0
M  V30 2333 H 224.997 -0.761256 -4.09077 0
M  V30 2334 H 223.873 -0.564295 -5.45992 0
M  V30 2335 H 224.134 0.774144 -4.35269 0
M  V30 2336 N 223.193 1.4272 -0.668489 0
M  V30 2337 C 224.441 2.01226 -0.187769 0
M  V30 2338 C 224.762 1.53092 1.2078 0
M  V30 2339 O 224.032 0.74993 1.80977 0
M  V30 2340 H 222.612 0.744041 -0.0664272 0
M  V30 2341 H 225.274 1.74723 -0.863583 0
M  V30 2342 H 224.37 3.11556 -0.184166 0
M  V30 2343 N 224.671 0.411399 1.52136 0
M  V30 2344 C 225.948 -0.222308 1.94333 0
M  V30 2345 C 226.328 -1.6242 1.34844 0
M  V30 2346 O 225.676 -2.22384 0.525145 0
M  V30 2347 C 225.886 -0.226345 3.48265 0
M  V30 2348 C 227.234 -0.444592 4.22266 0
M  V30 2349 O 228.258 -0.305602 3.54887 0
M  V30 2350 O 227.117 -0.718749 5.41753 0
M  V30 2351 H 224.211 -0.143907 0.814383 0
M  V30 2352 H 226.757 0.467506 1.63133 0
M  V30 2353 H 225.529 0.75475 3.83952 0
M  V30 2354 H 225.152 -0.960163 3.85832 0
M  V30 2355 N 226.149 -1.5696 0.141893 0
M  V30 2356 C 227.398 -1.95135 -0.510427 0
M  V30 2357 C 227.711 -1.02896 -1.66348 0
M  V30 2358 O 228.917 -1.30629 -2.38009 0
M  V30 2359 C 227.373 -3.46876 -0.959427 0
M  V30 2360 C 226.981 -4.47691 0.166419 0
M  V30 2361 C 228.725 -3.93927 -1.58183 0
M  V30 2362 C 226.632 -5.90636 -0.300565 0
M  V30 2363 H 225.562 -0.728494 -0.194454 0
M  V30 2364 H 228.213 -1.8211 0.22542 0
M  V30 2365 H 226.595 -3.55215 -1.75038 0
M  V30 2366 H 227.769 -4.51043 0.94325 0
M  V30 2367 H 226.084 -4.10527 0.696905 0
M  V30 2368 H 228.681 -4.98158 -1.94275 0
M  V30 2369 H 229.024 -3.3519 -2.46888 0
M  V30 2370 H 229.557 -3.88484 -0.855863 0
M  V30 2371 H 226.296 -6.5318 0.550989 0
M  V30 2372 H 225.816 -5.90655 -1.04338 0
M  V30 2373 H 227.495 -6.42588 -0.754265 0
M  V30 2374 N 227.627 0.131896 -1.57047 0
M  V30 2375 C 228.537 1.1815 -2.02676 0
M  V30 2376 C 229.553 1.46113 -0.944824 0
M  V30 2377 O 230.729 1.57485 -1.25541 0
M  V30 2378 C 227.794 2.49139 -2.41103 0
M  V30 2379 C 226.855 2.28688 -3.63318 0
M  V30 2380 C 226.088 3.53431 -3.99903 0
M  V30 2381 O 226.311 4.60223 -3.36973 0
M  V30 2382 O 225.245 3.45198 -4.93074 0
M  V30 2383 H 229.071 0.824069 -2.92306 0
M  V30 2384 H 226.656 0.341745 -1.45439 0
M  V30 2385 H 228.538 3.26338 -2.66611 0
M  V30 2386 H 227.213 2.84382 -1.54624 0
M  V30 2387 H 226.12 1.4939 -3.42977 0
M  V30 2388 H 227.453 1.98355 -4.50462 0
M  V30 2389 N 229.106 1.52395 0.401703 0
M  V30 2390 C 230.331 1.70972 1.17403 0
M  V30 2391 C 230.756 0.421615 1.83314 0
M  V30 2392 O 230.114 -0.621564 1.70312 0
M  V30 2393 C 230.162 2.85151 2.20728 0
M  V30 2394 O 229.266 2.51238 3.27037 0
M  V30 2395 H 228.607 0.568927 0.342372 0
M  V30 2396 H 231.137 1.99131 0.469891 0
M  V30 2397 H 231.147 3.10279 2.64936 0
M  V30 2398 H 229.822 3.78603 1.7214 0
M  V30 2399 H 228.399 2.36808 2.88057 0
M  V30 2400 N 230.584 -0.659388 1.43143 0
M  V30 2401 C 231.517 -1.78425 1.42267 0
M  V30 2402 C 232.495 -1.60085 0.284894 0
M  V30 2403 O 233.679 -1.82351 0.477527 0
M  V30 2404 C 230.806 -3.15642 1.22833 0
M  V30 2405 C 229.852 -3.52698 2.39806 0
M  V30 2406 S 230.685 -3.53372 4.02353 0
M  V30 2407 C 231.841 -4.93256 3.85291 0
M  V30 2408 H 232.074 -1.78897 2.37452 0
M  V30 2409 H 229.607 -0.831469 1.301 0
M  V30 2410 H 231.565 -3.94838 1.12308 0
M  V30 2411 H 230.226 -3.12739 0.29207 0
M  V30 2412 H 229.419 -4.52475 2.21996 0
M  V30 2413 H 229.021 -2.80899 2.46925 0
M  V30 2414 H 231.313 -5.81751 3.47235 0
M  V30 2415 H 232.256 -5.16115 4.84799 0
M  V30 2416 H 232.664 -4.665 3.17865 0
M  V30 2417 N 232.062 -1.29571 -0.897171 0
M  V30 2418 C 233.473 -1.15964 -1.46319 0
M  V30 2419 C 233.824 0.244267 -1.94674 0
M  V30 2420 O 232.949 1.13998 -1.83939 0
M  V30 2421 C 233.544 -2.09906 -2.65942 0
M  V30 2422 C 232.103 -2.00314 -3.18671 0
M  V30 2423 C 231.25 -2.00687 -1.91363 0
M  V30 2424 H 234.201 -1.42019 -0.708268 0
M  V30 2425 H 234.222 -1.67276 -3.41759 0
M  V30 2426 H 233.734 -3.12075 -2.30718 0
M  V30 2427 H 231.835 -1.01242 -3.58582 0
M  V30 2428 H 231.948 -2.88102 -3.82798 0
M  V30 2429 H 230.312 -1.45319 -2.09175 0
M  V30 2430 H 231.095 -3.04566 -1.58413 0
M  V30 2431 N 233.54 1.10788 -1.12088 0
M  V30 2432 C 234.787 1.82671 -0.873931 0
M  V30 2433 C 235.115 1.85004 0.600311 0
M  V30 2434 O 234.37 1.30365 1.45957 0
M  V30 2435 C 234.669 3.29294 -1.38926 0
M  V30 2436 C 234.335 3.47113 -2.87791 0
M  V30 2437 C 232.997 3.51684 -3.28439 0
M  V30 2438 C 235.349 3.52808 -3.83635 0
M  V30 2439 C 232.677 3.59513 -4.63646 0
M  V30 2440 C 235.029 3.62169 -5.18668 0
M  V30 2441 C 233.693 3.65003 -5.58864 0
M  V30 2442 H 232.963 0.668441 -0.319794 0
M  V30 2443 H 235.61 1.30613 -1.40045 0
M  V30 2444 H 233.915 3.83894 -0.783122 0
M  V30 2445 H 235.612 3.83416 -1.17443 0
M  V30 2446 H 232.202 3.4423 -2.5535 0
M  V30 2447 H 236.386 3.4853 -3.53328 0
M  V30 2448 H 231.642 3.59987 -4.94185 0
M  V30 2449 H 235.816 3.6552 -5.92763 0
M  V30 2450 H 233.443 3.70822 -6.63623 0
M  V30 2451 N 235.018 0.912232 1.28515 0
M  V30 2452 C 236.267 0.540504 1.94323 0
M  V30 2453 C 236.58 -0.920044 1.72611 0
M  V30 2454 O 237.786 -1.39986 2.32629 0
M  V30 2455 C 236.242 0.915803 3.48053 0
M  V30 2456 C 235.85 2.39598 3.78546 0
M  V30 2457 C 237.594 0.614588 4.20027 0
M  V30 2458 C 235.501 2.71148 5.25578 0
M  V30 2459 H 234.431 0.198418 0.727424 0
M  V30 2460 H 237.082 1.11094 1.46049 0
M  V30 2461 H 235.464 0.274168 3.9505 0
M  V30 2462 H 236.638 3.08422 3.42364 0
M  V30 2463 H 234.953 2.66749 3.1974 0
M  V30 2464 H 237.55 0.827002 5.28266 0
M  V30 2465 H 237.893 -0.447531 4.13887 0
M  V30 2466 H 238.426 1.21462 3.78803 0
M  V30 2467 H 235.165 3.76207 5.36794 0
M  V30 2468 H 234.685 2.0696 5.62963 0
M  V30 2469 H 236.364 2.58072 5.93302 0
M  V30 2470 N 236.496 -1.42363 0.676048 0
M  V30 2471 C 237.406 -2.346 -0.00153389 0
M  V30 2472 C 238.422 -1.5516 -0.787485 0
M  V30 2473 O 239.598 -1.87723 -0.729521 0
M  V30 2474 C 236.663 -3.33705 -0.940298 0
M  V30 2475 C 235.724 -4.29042 -0.148739 0
M  V30 2476 C 234.957 -5.23413 -1.04279 0
M  V30 2477 O 235.18 -5.22749 -2.28232 0
M  V30 2478 O 234.114 -5.99795 -0.502925 0
M  V30 2479 H 237.94 -2.94082 0.758268 0
M  V30 2480 H 235.525 -1.42888 0.436289 0
M  V30 2481 H 237.407 -3.94586 -1.47917 0
M  V30 2482 H 236.082 -2.76695 -1.67993 0
M  V30 2483 H 234.989 -3.71571 0.43427 0
M  V30 2484 H 236.322 -4.89097 0.551805 0
M  V30 2485 N 237.974 -0.419461 -1.51915 0
M  V30 2486 C 238.937 0.389116 -2.25873 0
M  V30 2487 C 239.937 0.964924 -1.28631 0
M  V30 2488 O 241.127 0.842179 -1.52489 0
M  V30 2489 C 238.259 1.54874 -3.03689 0
M  V30 2490 H 239.452 -0.258799 -2.98781 0
M  V30 2491 H 237.005 -0.172209 -1.55348 0
M  V30 2492 H 237.74 2.23323 -2.35154 0
M  V30 2493 H 237.525 1.14223 -3.75094 0
M  V30 2494 H 239.015 2.12046 -3.59759 0
M  V30 2495 N 239.452 1.56882 -0.150215 0
M  V30 2496 C 240.699 1.96228 0.500093 0
M  V30 2497 C 241.027 1.03522 1.64661 0
M  V30 2498 O 240.282 0.0650683 1.95592 0
M  V30 2499 C 240.581 3.41801 1.04437 0
M  V30 2500 C 240.247 4.50897 0.0159671 0
M  V30 2501 C 238.909 4.8046 -0.266731 0
M  V30 2502 C 241.261 5.16703 -0.683192 0
M  V30 2503 C 238.589 5.73135 -1.25434 0
M  V30 2504 C 240.941 6.10441 -1.65964 0
M  V30 2505 C 239.605 6.38382 -1.95 0
M  V30 2506 H 238.875 0.718048 0.182997 0
M  V30 2507 H 241.522 1.90019 -0.237724 0
M  V30 2508 H 239.827 3.44857 1.85959 0
M  V30 2509 H 241.524 3.69573 1.55618 0
M  V30 2510 H 238.114 4.27891 0.246485 0
M  V30 2511 H 242.298 4.93993 -0.477983 0
M  V30 2512 H 237.554 5.93074 -1.48571 0
M  V30 2513 H 241.728 6.60507 -2.20689 0
M  V30 2514 H 239.355 7.09996 -2.71679 0
M  V30 2515 N 240.93 -0.123565 1.57115 0
M  V30 2516 C 242.346 -0.476961 1.52306 0
M  V30 2517 C 242.546 -1.82109 0.86248 0
M  V30 2518 O 241.602 -2.48586 0.442884 0
M  V30 2519 C 242.915 -0.465661 2.97073 0
M  V30 2520 C 244.463 -0.549534 3.08138 0
M  V30 2521 C 244.938 -0.568669 4.54456 0
M  V30 2522 N 246.429 -0.630237 4.58892 0
M  V30 2523 C 247.164 -0.666415 5.69514 0
M  V30 2524 N 246.66 -0.660514 6.89644 0
M  V30 2525 N 248.453 -0.709077 5.5761 0
M  V30 2526 H 240.604 0.757198 1.98445 0
M  V30 2527 H 242.867 0.278808 0.906074 0
M  V30 2528 H 242.573 0.454232 3.48754 0
M  V30 2529 H 242.447 -1.29513 3.54269 0
M  V30 2530 H 244.834 -1.45985 2.56461 0
M  V30 2531 H 244.915 0.307532 2.53945 0
M  V30 2532 H 244.559 0.337581 5.06777 0
M  V30 2533 H 244.489 -1.44256 5.06456 0
M  V30 2534 H 246.98 -0.641146 3.72421 0
M  V30 2535 H 247.293 -0.690616 7.69708 0
M  V30 2536 H 245.638 -0.628012 6.92157 0
M  V30 2537 H 248.829 -0.711019 4.62668 0
M  V30 2538 H 249.002 -0.733804 6.43832 0
M  V30 2539 N 242.408 -1.52605 -0.393616 0
M  V30 2540 C 243.34 -1.73303 -1.49995 0
M  V30 2541 C 244.353 -0.613473 -1.50799 0
M  V30 2542 O 245.542 -0.889049 -1.54784 0
M  V30 2543 C 242.642 -1.77245 -2.88855 0
M  V30 2544 C 241.815 -3.06483 -3.12069 0
M  V30 2545 C 240.874 -3.02033 -4.30886 0
M  V30 2546 O 239.9 -3.75907 -4.27414 0
M  V30 2547 N 241.102 -2.20897 -5.36828 0
M  V30 2548 H 243.867 -2.68756 -1.32629 0
M  V30 2549 H 241.428 -1.51036 -0.583083 0
M  V30 2550 H 243.42 -1.7178 -3.66434 0
M  V30 2551 H 241.99 -0.891993 -2.99603 0
M  V30 2552 H 241.21 -3.25474 -2.22396 0
M  V30 2553 H 242.498 -3.91947 -3.2443 0
M  V30 2554 H 241.896 -1.60336 -5.42502 0
M  V30 2555 H 240.453 -2.21275 -6.13091 0
M  V30 2556 N 243.887 0.651787 -1.4349 0
M  V30 2557 C 245.134 1.41167 -1.45183 0
M  V30 2558 C 245.462 1.94349 -0.0766601 0
M  V30 2559 O 244.717 1.72804 0.918555 0
M  V30 2560 C 245.016 2.60914 -2.44251 0
M  V30 2561 C 244.682 2.26142 -3.9009 0
M  V30 2562 C 243.344 2.16371 -4.2981 0
M  V30 2563 C 245.696 1.98334 -4.81989 0
M  V30 2564 C 243.024 1.7695 -5.5938 0
M  V30 2565 C 245.376 1.6041 -6.11924 0
M  V30 2566 C 244.04 1.49166 -6.5062 0
M  V30 2567 H 243.31 0.516566 -0.531263 0
M  V30 2568 H 245.957 0.741099 -1.76579 0
M  V30 2569 H 244.262 3.3311 -2.06265 0
M  V30 2570 H 245.959 3.19127 -2.42815 0
M  V30 2571 H 242.549 2.34658 -3.58655 0
M  V30 2572 H 246.733 2.04803 -4.52072 0
M  V30 2573 H 241.989 1.66831 -5.88198 0
M  V30 2574 H 246.163 1.37925 -6.82605 0
M  V30 2575 H 243.79 1.1839 -7.50925 0
M  V30 2576 N 245.365 1.30045 0.890287 0
M  V30 2577 C 246.297 1.11786 2.00091 0
M  V30 2578 C 247.31 0.0626307 1.62679 0
M  V30 2579 O 248.499 0.308112 1.75821 0
M  V30 2580 C 245.599 0.681527 3.31977 0
M  V30 2581 C 244.772 1.81735 3.97858 0
M  V30 2582 C 243.831 1.37045 5.08041 0
M  V30 2583 O 242.857 2.07677 5.29961 0
M  V30 2584 N 244.059 0.246525 5.79976 0
M  V30 2585 H 246.824 2.07441 2.16306 0
M  V30 2586 H 244.385 1.2211 1.06305 0
M  V30 2587 H 246.377 0.365675 4.03045 0
M  V30 2588 H 244.947 -0.182828 3.12065 0
M  V30 2589 H 244.167 2.30159 3.20032 0
M  V30 2590 H 245.455 2.57865 4.38615 0
M  V30 2591 H 244.853 -0.34215 5.64664 0
M  V30 2592 H 243.41 -0.00990438 6.51799 0
M  V30 2593 N 246.843 -1.10192 1.12674 0
M  V30 2594 C 248.09 -1.82205 0.883606 0
M  V30 2595 C 248.418 -1.8532 -0.590492 0
M  V30 2596 O 247.673 -1.31137 -1.45264 0
M  V30 2597 C 247.972 -3.28552 1.4067 0
M  V30 2598 C 247.638 -3.45582 2.89627 0
M  V30 2599 C 246.3 -3.49937 3.30299 0
M  V30 2600 C 248.652 -3.50768 3.85501 0
M  V30 2601 C 245.98 -3.57049 4.65546 0
M  V30 2602 C 248.332 -3.59414 5.20581 0
M  V30 2603 C 246.996 -3.62034 5.60792 0
M  V30 2604 H 246.266 -0.666735 0.323334 0
M  V30 2605 H 248.913 -1.29868 1.40736 0
M  V30 2606 H 247.218 -3.83473 0.80347 0
M  V30 2607 H 248.915 -3.82788 1.19475 0
M  V30 2608 H 245.505 -3.42871 2.57172 0
M  V30 2609 H 249.689 -3.46651 3.55171 0
M  V30 2610 H 244.945 -3.57361 4.96088 0
M  V30 2611 H 249.119 -3.62371 5.94693 0
M  V30 2612 H 246.746 -3.67298 6.6558 0
M  V30 2613 N 248.321 -0.919034 -1.28029 0
M  V30 2614 C 249.268 -0.410005 -2.27129 0
M  V30 2615 C 250.238 0.518405 -1.57803 0
M  V30 2616 O 251.423 0.439451 -1.8567 0
M  V30 2617 C 248.563 0.339054 -3.4343 0
M  V30 2618 C 247.676 -0.622468 -4.27492 0
M  V30 2619 C 246.811 0.145567 -5.31001 0
M  V30 2620 C 245.85 -0.809226 -6.06727 0
M  V30 2621 N 244.987 -0.0743728 -7.02061 0
M  V30 2622 H 249.827 -1.26011 -2.70047 0
M  V30 2623 H 247.364 -0.632663 -1.328 0
M  V30 2624 H 249.322 0.789586 -4.0966 0
M  V30 2625 H 247.952 1.15346 -3.01488 0
M  V30 2626 H 247.004 -1.19153 -3.61257 0
M  V30 2627 H 248.316 -1.35252 -4.80113 0
M  V30 2628 H 247.47 0.656417 -6.03139 0
M  V30 2629 H 246.209 0.908643 -4.79161 0
M  V30 2630 H 245.214 -1.3314 -5.33436 0
M  V30 2631 H 246.439 -1.57194 -6.60656 0
M  V30 2632 H 244.385 0.670616 -6.52563 0
M  V30 2633 H 244.302 -0.744157 -7.52329 0
M  V30 2634 H 245.57 0.416109 -7.78389 0
M  V30 2635 N 249.799 1.42003 -0.683588 0
M  V30 2636 C 251.045 2.01712 -0.209825 0
M  V30 2637 C 251.378 1.53968 1.18353 0
M  V30 2638 O 250.653 0.745661 1.79639 0
M  V30 2639 C 250.936 3.59202 -0.254197 0
M  V30 2640 C 250.789 4.17102 -1.68363 0
M  V30 2641 C 252.108 4.38344 0.392709 0
M  V30 2642 H 249.227 0.732891 -0.0777189 0
M  V30 2643 H 251.869 1.68909 -0.87004 0
M  V30 2644 H 250.019 3.87278 0.307954 0
M  V30 2645 H 251.691 3.99946 -2.29871 0
M  V30 2646 H 249.934 3.72597 -2.22157 0
M  V30 2647 H 250.605 5.26249 -1.6663 0
M  V30 2648 H 253.081 4.16011 -0.0859162 0
M  V30 2649 H 251.957 5.47901 0.331063 0
M  V30 2650 H 252.218 4.16887 1.47164 0
M  V30 2651 N 251.277 0.427512 1.51691 0
M  V30 2652 C 252.224 -0.388867 2.275 0
M  V30 2653 C 253.194 -1.02532 1.30677 0
M  V30 2654 O 254.379 -1.0461 1.59566 0
M  V30 2655 C 251.519 -1.48954 3.11298 0
M  V30 2656 C 250.632 -0.872194 4.23104 0
M  V30 2657 C 249.767 -1.94709 4.94228 0
M  V30 2658 C 248.806 -1.30766 5.97969 0
M  V30 2659 N 247.943 -2.32349 6.62539 0
M  V30 2660 H 252.783 0.263997 2.96828 0
M  V30 2661 H 250.32 0.142033 1.46413 0
M  V30 2662 H 252.278 -2.13887 3.58201 0
M  V30 2663 H 250.908 -2.11217 2.44105 0
M  V30 2664 H 249.96 -0.111419 3.80237 0
M  V30 2665 H 251.272 -0.365264 4.97461 0
M  V30 2666 H 250.426 -2.67327 5.44629 0
M  V30 2667 H 249.165 -2.48773 4.1948 0
M  V30 2668 H 248.17 -0.566902 5.4687 0
M  V30 2669 H 249.395 -0.774483 6.74669 0
M  V30 2670 H 247.341 -2.85511 5.90609 0
M  V30 2671 H 247.258 -1.8652 7.3263 0
M  V30 2672 H 248.526 -3.04481 7.17574 0
M  V30 2673 N 252.755 -1.56801 0.158532 0
M  V30 2674 C 254.171 -1.5837 -0.197774 0
M  V30 2675 C 254.371 -1.17334 -1.63814 0
M  V30 2676 O 253.427 -0.878988 -2.36707 0
M  V30 2677 C 254.74 -3.00615 0.0714459 0
M  V30 2678 C 256.288 -3.12999 0.00864533 0
M  V30 2679 C 256.763 -4.57313 0.250685 0
M  V30 2680 N 258.254 -4.62777 0.198014 0
M  V30 2681 C 258.989 -5.72271 0.359642 0
M  V30 2682 N 258.485 -6.90371 0.579625 0
M  V30 2683 N 260.278 -5.61318 0.296438 0
M  V30 2684 H 252.429 -1.81765 1.09887 0
M  V30 2685 H 254.692 -0.841849 0.435884 0
M  V30 2686 H 254.398 -3.35068 1.06874 0
M  V30 2687 H 254.272 -3.71683 -0.642757 0
M  V30 2688 H 256.659 -2.7838 -0.979217 0
M  V30 2689 H 256.74 -2.44393 0.755359 0
M  V30 2690 H 256.384 -4.92639 1.2357 0
M  V30 2691 H 256.314 -5.24061 -0.516489 0
M  V30 2692 H 258.805 -3.77885 0.0331115 0
M  V30 2693 H 259.118 -7.69689 0.69275 0
M  V30 2694 H 257.463 -6.92264 0.616087 0
M  V30 2695 H 260.654 -4.67932 0.125258 0
M  V30 2696 H 260.827 -6.46599 0.425831 0
M  V30 2697 N 254.233 0.115231 -1.57178 0
M  V30 2698 C 255.143 1.15994 -2.03918 0
M  V30 2699 C 256.159 1.45103 -0.960268 0
M  V30 2700 O 257.335 1.56144 -1.27204 0
M  V30 2701 C 254.4 2.46568 -2.43732 0
M  V30 2702 C 253.461 2.24822 -3.65723 0
M  V30 2703 C 252.694 3.4917 -4.03629 0
M  V30 2704 O 252.917 4.56623 -3.41835 0
M  V30 2705 O 251.851 3.39949 -4.96708 0
M  V30 2706 H 255.677 0.793019 -2.93164 0
M  V30 2707 H 253.262 0.3263 -1.45793 0
M  V30 2708 H 255.144 3.23492 -2.70057 0
M  V30 2709 H 253.819 2.82726 -1.57631 0
M  V30 2710 H 252.726 1.45744 -3.44542 0
M  V30 2711 H 254.059 1.93566 -4.52541 0
M  V30 2712 N 255.711 1.52812 0.385517 0
M  V30 2713 C 256.659 1.78482 1.49155 0
M  V30 2714 C 257.653 0.652914 1.56312 0
M  V30 2715 O 258.859 0.835464 1.59436 0
M  V30 2716 H 255.234 0.5648 0.496493 0
M  V30 2717 H 257.205 2.71095 1.24699 0
M  V30 2718 C 255.954 1.97378 2.86247 0
M  V30 2719 H 255.277 2.83907 2.81491 0
M  V30 2720 H 256.717 2.19327 3.62866 0
M  V30 2721 C 255.176 0.74728 3.28508 0
M  V30 2722 O 255.706 -0.0736232 4.01633 0
M  V30 2723 N 253.912 0.576396 2.84826 0
M  V30 2724 H 253.459 1.24555 2.25486 0
M  V30 2725 H 253.417 -0.24288 3.1346 0
M  V30 2726 N 257.189 -0.644168 1.43834 0
M  V30 2727 C 258.436 -1.40395 1.4593 0
M  V30 2728 C 258.764 -1.94305 0.0869658 0
M  V30 2729 O 258.019 -1.73288 -0.909378 0
M  V30 2730 C 258.318 -2.59615 2.45631 0
M  V30 2731 C 257.984 -2.2407 3.91284 0
M  V30 2732 C 256.646 -2.14089 4.30952 0
M  V30 2733 C 258.998 -1.95775 4.83034 0
M  V30 2734 C 256.326 -1.73981 5.6031 0
M  V30 2735 C 258.678 -1.57163 6.12766 0
M  V30 2736 C 257.342 -1.45713 6.51402 0
M  V30 2737 H 256.612 -0.513741 0.533995 0
M  V30 2738 H 259.259 -0.731724 1.76969 0
M  V30 2739 H 257.564 -3.32011 2.08028 0
M  V30 2740 H 259.261 -3.17834 2.44504 0
M  V30 2741 H 255.851 -2.32753 3.59895 0
M  V30 2742 H 260.035 -2.02403 4.53152 0
M  V30 2743 H 255.291 -1.63709 5.89075 0
M  V30 2744 H 259.465 -1.34303 6.83327 0
M  V30 2745 H 257.092 -1.14406 7.51542 0
M  V30 2746 N 258.668 -1.30515 -0.883378 0
M  V30 2747 C 259.908 -1.20716 -1.64946 0
M  V30 2748 C 260.272 0.234072 -1.90568 0
M  V30 2749 O 261.473 0.455335 -2.64915 0
M  V30 2750 C 259.744 -2.01444 -2.9522 0
M  V30 2751 S 261.303 -2.0836 -3.86175 0
M  V30 2752 H 258.121 -0.430165 -0.566109 0
M  V30 2753 H 260.723 -1.65011 -1.04841 0
M  V30 2754 H 259.427 -3.05268 -2.74298 0
M  V30 2755 H 258.958 -1.57817 -3.60357 0
M  V30 2756 H 260.973 -1.21215 -4.81167 0
M  V30 2757 N 260.146 1.09593 -1.13257 0
M  V30 2758 C 261.094 2.18271 -0.803783 0
M  V30 2759 C 262.088 1.68054 0.213148 0
M  V30 2760 O 263.294 1.79862 0.0704699 0
M  V30 2761 H 259.669 0.711949 -0.242143 0
M  V30 2762 H 261.64 2.43235 -1.72856 0
M  V30 2763 C 260.389 3.46536 -0.28424 0
M  V30 2764 H 259.712 3.85545 -1.05807 0
M  V30 2765 H 261.152 4.23899 -0.0925945 0
M  V30 2766 C 259.611 3.22036 0.989684 0
M  V30 2767 O 260.141 3.44509 2.06584 0
M  V30 2768 N 258.347 2.7565 0.920086 0
M  V30 2769 H 257.894 2.57562 0.0442019 0
M  V30 2770 H 257.852 2.59635 1.77306 0
M  V30 2771 N 261.624 0.925811 1.2754 0
M  V30 2772 C 262.873 0.561084 1.93739 0
M  V30 2773 C 263.186 -0.901685 1.73577 0
M  V30 2774 O 264.392 -1.37511 2.34101 0
M  V30 2775 C 262.848 0.952668 3.47062 0
M  V30 2776 C 262.456 2.43599 3.75983 0
M  V30 2777 C 264.2 0.659103 4.19352 0
M  V30 2778 C 262.107 2.76707 5.22673 0
M  V30 2779 H 261.037 0.206122 0.725279 0
M  V30 2780 H 263.688 1.12637 1.44863 0
M  V30 2781 H 262.07 0.316053 3.94737 0
M  V30 2782 H 263.244 3.12035 3.39073 0
M  V30 2783 H 261.559 2.70125 3.16893 0
M  V30 2784 H 264.156 0.882985 5.27359 0
M  V30 2785 H 264.499 -0.403607 4.14339 0
M  V30 2786 H 265.032 1.25473 3.77494 0
M  V30 2787 H 261.771 3.8188 5.32774 0
M  V30 2788 H 261.291 2.12919 5.60737 0
M  V30 2789 H 262.97 2.6435 5.90532 0
M  V30 2790 N 263.102 -1.41638 0.69111 0
M  V30 2791 C 264.052 -2.28 -0.000107832 0
M  V30 2792 C 265.036 -1.41964 -0.757304 0
M  V30 2793 O 266.228 -1.65274 -0.633532 0
M  V30 2794 C 263.357 -3.30209 -0.938983 0
M  V30 2795 C 262.443 -4.23725 -0.17827 0
M  V30 2796 N 262.834 -4.99017 0.825563 0
M  V30 2797 C 261.132 -4.44071 -0.414392 0
M  V30 2798 C 261.833 -5.67431 1.28052 0
M  V30 2799 N 260.809 -5.40197 0.607304 0
M  V30 2800 H 264.611 -2.83644 0.769617 0
M  V30 2801 H 262.125 -1.53797 0.521562 0
M  V30 2802 H 264.122 -3.90898 -1.44929 0
M  V30 2803 H 262.782 -2.76126 -1.70836 0
M  V30 2804 H 263.793 -5.03671 1.20566 0
M  V30 2805 H 260.47 -4.01004 -1.162 0
M  V30 2806 H 261.86 -6.37801 2.11327 0
M  V30 2807 N 264.58 -0.43555 -1.51462 0
M  V30 2808 C 265.826 0.131709 -2.02372 0
M  V30 2809 C 266.159 1.42516 -1.3192 0
M  V30 2810 O 265.434 1.89606 -0.433573 0
M  V30 2811 C 265.717 0.352301 -3.58373 0
M  V30 2812 C 265.57 -0.959676 -4.39443 0
M  V30 2813 C 266.889 1.12286 -4.25535 0
M  V30 2814 H 264.008 0.0463936 -0.735538 0
M  V30 2815 H 266.65 -0.574197 -1.81116 0
M  V30 2816 H 264.8 0.9536 -3.76615 0
M  V30 2817 H 266.472 -1.59482 -4.32855 0
M  V30 2818 H 264.715 -1.56468 -4.04599 0
M  V30 2819 H 265.386 -0.759394 -5.46752 0
M  V30 2820 H 267.862 0.613545 -4.11552 0
M  V30 2821 H 266.738 1.24598 -5.34571 0
M  V30 2822 H 266.999 2.15048 -3.86273 0
M  V30 2823 N 266.058 1.56714 -0.166846 0
M  V30 2824 C 267.283 2.01557 0.488833 0
M  V30 2825 C 267.708 1.0463 1.56314 0
M  V30 2826 O 267.066 0.0251304 1.81283 0
M  V30 2827 C 267.114 3.4503 1.04818 0
M  V30 2828 O 266.218 3.51163 2.16236 0
M  V30 2829 H 265.559 0.653516 0.117526 0
M  V30 2830 H 268.089 2.02818 -0.269421 0
M  V30 2831 H 268.099 3.84243 1.37191 0
M  V30 2832 H 266.774 4.15077 0.261572 0
M  V30 2833 H 265.351 3.23807 1.84942 0
M  V30 2834 N 267.536 -0.106894 1.57237 0
M  V30 2835 C 268.466 -1.13148 2.04254 0
M  V30 2836 C 269.447 -1.42476 0.929224 0
M  V30 2837 O 270.632 -1.52709 1.19973 0
M  V30 2838 C 267.762 -2.4545 2.45706 0
M  V30 2839 C 266.716 -2.30558 3.60592 0
M  V30 2840 C 266.042 -3.67931 3.87983 0
M  V30 2841 C 267.342 -1.75597 4.91897 0
M  V30 2842 H 269.036 -0.740374 2.90101 0
M  V30 2843 H 266.582 -0.354696 1.39563 0
M  V30 2844 H 268.535 -3.17389 2.77205 0
M  V30 2845 H 267.259 -2.86475 1.56843 0
M  V30 2846 H 265.918 -1.61067 3.29322 0
M  V30 2847 H 265.566 -4.06462 2.96306 0
M  V30 2848 H 265.266 -3.58817 4.65322 0
M  V30 2849 H 266.79 -4.41356 4.21945 0
M  V30 2850 H 268.204 -2.37364 5.21854 0
M  V30 2851 H 266.601 -1.77272 5.73319 0
M  V30 2852 H 267.671 -0.714451 4.79608 0
M  V30 2853 N 269.014 -1.53014 -0.377408 0
M  V30 2854 C 270.26 -1.68872 -1.12294 0
M  V30 2855 C 270.593 -0.433224 -1.89306 0
M  V30 2856 O 269.868 0.569258 -1.85983 0
M  V30 2857 C 270.151 -2.93115 -2.09179 0
M  V30 2858 C 270.004 -4.28794 -1.35853 0
M  V30 2859 C 271.323 -3.12928 -3.09458 0
M  V30 2860 H 268.442 -0.614518 -0.406862 0
M  V30 2861 H 271.084 -1.85633 -0.40503 0
M  V30 2862 H 269.234 -2.78956 -2.70399 0
M  V30 2863 H 270.906 -4.54742 -0.775082 0
M  V30 2864 H 269.149 -4.28744 -0.660364 0
M  V30 2865 H 269.82 -5.11837 -2.06706 0
M  V30 2866 H 272.296 -3.26194 -2.58334 0
M  V30 2867 H 271.172 -4.01316 -3.74482 0
M  V30 2868 H 271.433 -2.27669 -3.78971 0
M  V30 2869 N 270.492 0.636531 -1.44174 0
M  V30 2870 C 271.903 1.21806 -1.41493 0
M  V30 2871 C 272.254 1.95785 -0.1275 0
M  V30 2872 O 271.379 2.02147 0.772376 0
M  V30 2873 C 271.974 2.21551 -2.56321 0
M  V30 2874 C 270.533 2.75143 -2.56853 0
M  V30 2875 C 269.68 1.50052 -2.33195 0
M  V30 2876 H 272.631 0.427531 -1.52833 0
M  V30 2877 H 272.652 3.0405 -2.28765 0
M  V30 2878 H 272.164 1.67679 -3.50008 0
M  V30 2879 H 270.265 3.33033 -1.67093 0
M  V30 2880 H 270.378 3.2155 -3.55165 0
M  V30 2881 H 268.742 1.77993 -1.82183 0
M  V30 2882 H 269.525 0.980903 -3.28988 0
M  V30 2883 N 271.97 1.30982 0.876444 0
M  V30 2884 C 272.902 1.13902 1.98894 0
M  V30 2885 C 273.915 0.0798815 1.62604 0
M  V30 2886 O 275.104 0.326743 1.75484 0
M  V30 2887 C 272.204 0.716699 3.31235 0
M  V30 2888 C 271.377 1.85945 3.95908 0
M  V30 2889 C 270.436 1.42426 5.06558 0
M  V30 2890 O 269.462 2.13287 5.27729 0
M  V30 2891 N 270.664 0.308025 5.79682 0
M  V30 2892 H 273.429 2.09724 2.14094 0
M  V30 2893 H 270.99 1.2323 1.05004 0
M  V30 2894 H 272.982 0.408403 4.02634 0
M  V30 2895 H 271.552 -0.149719 3.12241 0
M  V30 2896 H 270.772 2.33541 3.17573 0
M  V30 2897 H 272.06 2.62503 4.35855 0
M  V30 2898 H 271.458 -0.282241 5.64995 0
M  V30 2899 H 270.015 0.0592282 6.51773 0
M  V30 2900 N 273.449 -1.08991 1.13837 0
M  V30 2901 C 274.86 -1.62746 0.914917 0
M  V30 2902 C 275.211 -1.88403 -0.547594 0
M  V30 2903 O 274.336 -1.63706 -1.41525 0
M  V30 2904 C 274.931 -2.95662 1.65437 0
M  V30 2905 C 273.49 -3.46225 1.47666 0
M  V30 2906 C 272.637 -2.20562 1.6807 0
M  V30 2907 H 275.588 -0.922946 1.29102 0
M  V30 2908 H 275.609 -3.63825 1.11407 0
M  V30 2909 H 275.121 -2.76956 2.71877 0
M  V30 2910 H 273.222 -3.70046 0.435478 0
M  V30 2911 H 273.335 -4.23368 2.24268 0
M  V30 2912 H 271.699 -2.29439 1.10589 0
M  V30 2913 H 272.482 -2.0437 2.7584 0
M  V30 2914 N 274.927 -0.932562 -1.27047 0
M  V30 2915 C 276.152 -0.591474 -1.98787 0
M  V30 2916 C 276.577 0.824601 -1.69062 0
M  V30 2917 O 275.935 1.5541 -0.933677 0
M  V30 2918 C 275.983 -0.829808 -3.50922 0
M  V30 2919 O 275.087 0.102266 -4.12273 0
M  V30 2920 H 274.428 -0.227185 -0.623926 0
M  V30 2921 H 276.958 -1.25314 -1.61733 0
M  V30 2922 H 276.968 -0.747292 -4.01098 0
M  V30 2923 H 275.643 -1.86201 -3.7189 0
M  V30 2924 H 274.22 -0.0305761 -3.72887 0
M  V30 2925 N 276.405 1.4127 -0.698611 0
M  V30 2926 C 277.63 2.06024 -0.238512 0
M  V30 2927 C 278.055 1.5224 1.10475 0
M  V30 2928 O 277.413 0.650623 1.69223 0
M  V30 2929 C 277.461 3.59988 -0.209952 0
M  V30 2930 O 276.565 4.04282 0.814235 0
M  V30 2931 H 275.906 0.653829 -0.115775 0
M  V30 2932 H 278.436 1.8098 -0.954326 0
M  V30 2933 H 278.446 4.07979 -0.0418436 0
M  V30 2934 H 277.121 3.98503 -1.1903 0
M  V30 2935 H 275.698 3.6779 0.615234 0
M  V30 2936 N 277.883 0.443576 1.51229 0
M  V30 2937 C 279.111 -0.11929 2.06556 0
M  V30 2938 C 279.526 -1.35921 1.31038 0
M  V30 2939 O 278.883 -1.78675 0.371704 0
M  V30 2940 C 278.934 -0.435228 3.5887 0
M  V30 2941 O 278.655 0.755486 4.31537 0
M  V30 2942 C 280.156 -1.04808 4.30732 0
M  V30 2943 H 277.376 -0.0051584 0.67098 0
M  V30 2944 H 279.92 0.624453 1.94733 0
M  V30 2945 H 278.075 -1.12887 3.70588 0
M  V30 2946 H 278.489 0.483491 5.22267 0
M  V30 2947 H 279.963 -1.2191 5.3837 0
M  V30 2948 H 280.44 -2.03081 3.89429 0
M  V30 2949 H 281.046 -0.393637 4.23474 0
M  V30 2950 N 279.361 -1.56624 0.175154 0
M  V30 2951 C 280.609 -1.96609 -0.467885 0
M  V30 2952 C 280.93 -1.06238 -1.63519 0
M  V30 2953 O 280.2 -0.129523 -1.95471 0
M  V30 2954 H 278.78 -0.726008 -0.175845 0
M  V30 2955 H 281.442 -1.93195 0.257234 0
M  V30 2956 H 280.538 -3.00989 -0.825342 0
M  V30 2957 N 280.839 0.0985539 -1.57292 0
M  V30 2958 C 281.749 1.13824 -2.05137 0
M  V30 2959 C 282.765 1.44076 -0.975604 0
M  V30 2960 O 283.941 1.54786 -1.28853 0
M  V30 2961 C 281.006 2.43969 -2.46333 0
M  V30 2962 C 280.067 2.2093 -3.68087 0
M  V30 2963 C 279.3 3.44869 -4.0731 0
M  V30 2964 O 279.523 4.52972 -3.46659 0
M  V30 2965 O 278.457 3.34661 -5.00285 0
M  V30 2966 H 282.283 0.761881 -2.93988 0
M  V30 2967 H 279.868 0.310818 -1.46131 0
M  V30 2968 H 281.75 3.20609 -2.73473 0
M  V30 2969 H 280.425 2.81038 -1.60621 0
M  V30 2970 H 279.332 1.42081 -3.46069 0
M  V30 2971 H 280.665 1.88755 -4.54568 0
M  V30 2972 N 282.317 1.53212 0.369288 0
M  V30 2973 C 283.249 1.75668 1.47219 0
M  V30 2974 C 284.262 0.637387 1.49804 0
M  V30 2975 O 285.451 0.913561 1.5335 0
M  V30 2976 C 282.551 1.81818 2.85999 0
M  V30 2977 C 281.724 3.11409 3.07153 0
M  V30 2978 C 280.783 3.08849 4.26026 0
M  V30 2979 O 279.809 3.82659 4.2138 0
M  V30 2980 N 281.011 2.29409 5.33246 0
M  V30 2981 H 283.776 2.70832 1.28337 0
M  V30 2982 H 281.337 1.51944 0.55898 0
M  V30 2983 H 283.329 1.77588 3.63655 0
M  V30 2984 H 281.899 0.939544 2.98146 0
M  V30 2985 H 281.119 3.28971 2.1719 0
M  V30 2986 H 282.407 3.97059 3.18154 0
M  V30 2987 H 281.805 1.68946 5.39883 0
M  V30 2988 H 280.362 2.31001 6.09493 0
M  V30 2989 N 283.795 -0.628877 1.44509 0
M  V30 2990 C 284.742 -1.74074 1.51549 0
M  V30 2991 C 285.712 -1.62084 0.363021 0
M  V30 2992 O 286.897 -1.81975 0.573567 0
M  V30 2993 C 284.037 -3.12328 1.46784 0
M  V30 2994 C 283.15 -3.35277 2.72422 0
M  V30 2995 C 282.285 -4.63515 2.59475 0
M  V30 2996 C 281.324 -4.7965 3.80266 0
M  V30 2997 N 280.461 -5.99168 3.65981 0
M  V30 2998 H 285.301 -1.67392 2.46544 0
M  V30 2999 H 282.838 -0.816527 1.22357 0
M  V30 3000 H 284.796 -3.92286 1.42012 0
M  V30 3001 H 283.426 -3.18018 0.553544 0
M  V30 3002 H 282.478 -2.49242 2.87372 0
M  V30 3003 H 283.79 -3.43078 3.62076 0
M  V30 3004 H 282.944 -5.51638 2.52548 0
M  V30 3005 H 281.683 -4.58076 1.67384 0
M  V30 3006 H 280.688 -3.89957 3.87574 0
M  V30 3007 H 281.913 -4.86902 4.73395 0
M  V30 3008 H 279.859 -5.94814 2.76644 0
M  V30 3009 H 279.776 -6.08035 4.49254 0
M  V30 3010 H 281.044 -6.89846 3.6295 0
M  V30 3011 N 285.273 -1.31445 -0.869486 0
M  V30 3012 C 286.501 -1.24122 -1.65534 0
M  V30 3013 C 286.916 0.193387 -1.87807 0
M  V30 3014 O 286.273 1.12557 -1.43656 0
M  V30 3015 C 286.324 -1.98229 -3.02304 0
M  V30 3016 O 286.045 -3.3609 -2.81026 0
M  V30 3017 C 287.546 -1.97751 -3.96749 0
M  V30 3018 H 284.766 -0.428868 -0.516055 0
M  V30 3019 H 287.31 -1.73328 -1.08525 0
M  V30 3020 H 285.465 -1.52782 -3.56001 0
M  V30 3021 H 285.879 -3.7383 -3.67902 0
M  V30 3022 H 287.353 -2.54114 -4.90031 0
M  V30 3023 H 287.83 -0.960137 -4.28577 0
M  V30 3024 H 288.436 -2.43079 -3.48988 0
M  V30 3025 N 286.751 1.08385 -1.14413 0
M  V30 3026 C 287.698 2.15311 -0.831265 0
M  V30 3027 C 288.668 1.64751 0.211292 0
M  V30 3028 O 289.853 1.90627 0.0811674 0
M  V30 3029 C 286.993 3.43658 -0.315143 0
M  V30 3030 C 286.106 4.08064 -1.41802 0
M  V30 3031 C 285.241 5.24207 -0.859126 0
M  V30 3032 C 284.28 5.80554 -1.93967 0
M  V30 3033 N 283.417 6.88042 -1.39793 0
M  V30 3034 H 288.257 2.41415 -1.74708 0
M  V30 3035 H 285.794 1.18474 -0.871909 0
M  V30 3036 H 287.752 4.172 0.00230884 0
M  V30 3037 H 286.382 3.17839 0.56378 0
M  V30 3038 H 285.434 3.3228 -1.85187 0
M  V30 3039 H 286.746 4.45962 -2.23427 0
M  V30 3040 H 285.9 6.04689 -0.49359 0
M  V30 3041 H 284.639 4.87699 -0.011932 0
M  V30 3042 H 283.644 4.98725 -2.31415 0
M  V30 3043 H 284.869 6.19121 -2.79046 0
M  V30 3044 H 282.815 6.53493 -0.572919 0
M  V30 3045 H 282.732 7.24767 -2.15054 0
M  V30 3046 H 284 7.72255 -1.0603 0
M  V30 3047 N 288.23 0.939286 1.26551 0
M  V30 3048 C 289.641 0.628782 1.75793 0
M  V30 3049 C 289.992 -0.856046 1.7654 0
M  V30 3050 O 289.117 -1.66994 1.3763 0
M  V30 3051 C 289.712 1.13465 3.19235 0
M  V30 3052 C 288.271 0.874601 3.66098 0
M  V30 3053 C 287.418 1.28667 2.45642 0
M  V30 3054 H 290.369 1.1178 1.12654 0
M  V30 3055 H 290.39 0.487609 3.77363 0
M  V30 3056 H 289.902 2.21535 3.1866 0
M  V30 3057 H 288.003 -0.191793 3.72106 0
M  V30 3058 H 288.116 1.50028 4.55004 0
M  V30 3059 H 286.48 0.705109 2.44745 0
M  V30 3060 H 287.263 2.37625 2.47769 0
M  V30 3061 N 289.708 -1.40897 0.706093 0
M  V30 3062 C 290.936 -2.05373 0.250887 0
M  V30 3063 C 291.351 -1.53172 -1.10381 0
M  V30 3064 O 290.708 -0.684305 -1.69185 0
M  V30 3065 C 290.759 -3.6088 0.211571 0
M  V30 3066 O 290.48 -4.11153 1.51276 0
M  V30 3067 C 291.981 -4.42517 -0.263346 0
M  V30 3068 H 289.201 -0.66115 0.114552 0
M  V30 3069 H 291.745 -1.80479 0.961635 0
M  V30 3070 H 289.9 -3.84777 -0.450073 0
M  V30 3071 H 290.314 -5.05279 1.40689 0
M  V30 3072 H 291.788 -5.51479 -0.239718 0
M  V30 3073 H 292.265 -4.19396 -1.30397 0
M  V30 3074 H 292.871 -4.23708 0.367677 0
M  V30 3075 N 291.186 -0.45159 -1.50991 0
M  V30 3076 C 292.118 0.388634 -2.25881 0
M  V30 3077 C 293.131 0.974041 -1.30446 0
M  V30 3078 O 294.32 0.865758 -1.56099 0
M  V30 3079 C 291.42 1.5571 -3.01011 0
M  V30 3080 C 290.593 1.08801 -4.23652 0
M  V30 3081 C 289.652 2.12825 -4.8124 0
M  V30 3082 O 288.678 1.71678 -5.42693 0
M  V30 3083 N 289.88 3.45453 -4.66522 0
M  V30 3084 H 292.645 -0.25329 -2.98628 0
M  V30 3085 H 290.206 -0.281268 -1.59438 0
M  V30 3086 H 292.198 2.24952 -3.3642 0
M  V30 3087 H 290.768 2.10409 -2.31186 0
M  V30 3088 H 289.988 0.22215 -3.93574 0
M  V30 3089 H 291.276 0.752213 -5.03209 0
M  V30 3090 H 290.674 3.81605 -4.17605 0
M  V30 3091 H 289.231 4.10549 -5.06254 0
M  V30 3092 N 292.664 1.56529 -0.183458 0
M  V30 3093 C 293.612 2.19873 0.758845 0
M  V30 3094 C 294.606 1.16638 1.22849 0
M  V30 3095 O 295.812 1.3481 1.19274 0
M  V30 3096 H 292.187 0.7045 0.263029 0
M  V30 3097 H 294.158 2.97724 0.200755 0
M  V30 3098 C 292.907 2.86314 1.9728 0
M  V30 3099 H 292.23 3.65487 1.62047 0
M  V30 3100 H 293.67 3.3409 2.61075 0
M  V30 3101 C 292.129 1.86729 2.80418 0
M  V30 3102 O 292.659 1.36031 3.77966 0
M  V30 3103 N 290.865 1.55216 2.45675 0
M  V30 3104 H 290.412 1.96636 1.66409 0
M  V30 3105 H 290.37 0.888388 3.01588 0
M  V30 3106 N 294.142 -0.090211 1.57342 0
M  V30 3107 C 295.367 -0.810082 1.90925 0
M  V30 3108 C 295.792 -1.71248 0.778187 0
M  V30 3109 O 295.15 -1.79278 -0.269991 0
M  V30 3110 C 295.198 -1.59529 3.23393 0
M  V30 3111 O 294.302 -2.70461 3.11327 0
M  V30 3112 H 293.643 -0.222231 0.625707 0
M  V30 3113 H 296.173 -0.0639716 2.045 0
M  V30 3114 H 296.183 -1.97847 3.5682 0
M  V30 3115 H 294.858 -0.933055 4.05299 0
M  V30 3116 H 293.435 -2.35135 2.89423 0
M  V30 3117 N 295.62 -1.53406 -0.361157 0
M  V30 3118 C 296.866 -1.70054 -1.10496 0
M  V30 3119 C 297.199 -0.453278 -1.88836 0
M  V30 3120 O 296.474 0.5495 -1.86576 0
M  V30 3121 C 296.757 -2.95317 -2.06058 0
M  V30 3122 C 296.61 -4.3021 -1.31298 0
M  V30 3123 C 297.929 -3.16193 -3.06121 0
M  V30 3124 H 295.048 -0.618799 -0.400321 0
M  V30 3125 H 297.69 -1.86052 -0.385318 0
M  V30 3126 H 295.84 -2.81809 -2.67425 0
M  V30 3127 H 297.512 -4.55538 -0.726807 0
M  V30 3128 H 295.755 -4.29421 -0.614853 0
M  V30 3129 H 296.426 -5.14 -2.01265 0
M  V30 3130 H 298.902 -3.28916 -2.5486 0
M  V30 3131 H 297.778 -4.05266 -3.70204 0
M  V30 3132 H 298.039 -2.31676 -3.76535 0
M  V30 3133 N 297.098 0.621204 -1.44841 0
M  V30 3134 C 298.514 0.94048 -1.28946 0
M  V30 3135 C 298.714 2.00154 -0.23249 0
M  V30 3136 O 297.77 2.49651 0.378237 0
M  V30 3137 C 299.083 1.39433 -2.66419 0
M  V30 3138 C 300.631 1.50927 -2.74208 0
M  V30 3139 C 301.106 1.99692 -4.12174 0
M  V30 3140 N 302.597 2.06947 -4.144 0
M  V30 3141 C 303.332 2.45871 -5.1801 0
M  V30 3142 N 302.828 2.83862 -6.31977 0
M  V30 3143 N 304.621 2.46092 -5.05366 0
M  V30 3144 H 296.772 -0.0803548 -2.12248 0
M  V30 3145 H 299.035 0.0266913 -0.947624 0
M  V30 3146 H 298.741 0.688925 -3.44887 0
M  V30 3147 H 298.615 2.36347 -2.93973 0
M  V30 3148 H 301.002 2.20561 -1.96053 0
M  V30 3149 H 301.083 0.523627 -2.50383 0
M  V30 3150 H 300.727 1.30649 -4.90809 0
M  V30 3151 H 300.657 2.99146 -4.33381 0
M  V30 3152 H 303.148 1.80232 -3.32152 0
M  V30 3153 H 303.461 3.12405 -7.0684 0
M  V30 3154 H 301.806 2.8159 -6.35399 0
M  V30 3155 H 304.997 2.1581 -4.15384 0
M  V30 3156 H 305.17 2.76102 -5.86235 0
M  V30 3157 N 298.576 1.31904 0.862503 0
M  V30 3158 C 299.486 1.22161 2.00285 0
M  V30 3159 C 300.502 0.136785 1.73462 0
M  V30 3160 O 301.678 0.355994 1.98229 0
M  V30 3161 C 298.743 0.937093 3.33796 0
M  V30 3162 C 297.804 2.10957 3.73893 0
M  V30 3163 C 297.037 1.83853 5.01033 0
M  V30 3164 O 297.26 0.777274 5.65079 0
M  V30 3165 O 296.194 2.69741 5.38074 0
M  V30 3166 H 300.02 2.18008 2.11439 0
M  V30 3167 H 297.605 1.11716 0.991957 0
M  V30 3168 H 299.487 0.794583 4.13841 0
M  V30 3169 H 298.162 0.00871894 3.23699 0
M  V30 3170 H 297.069 2.30752 2.94456 0
M  V30 3171 H 298.402 3.02046 3.88625 0
M  V30 3172 N 300.054 -1.07777 1.14986 0
M  V30 3173 C 300.984 -2.16865 0.865557 0
M  V30 3174 C 301.965 -1.69123 -0.182083 0
M  V30 3175 O 303.15 -1.94164 -0.0373815 0
M  V30 3176 C 300.28 -3.45539 0.349313 0
M  V30 3177 C 299.234 -4.06708 1.33313 0
M  V30 3178 C 298.56 -5.30411 0.675918 0
M  V30 3179 C 299.86 -4.47241 2.69764 0
M  V30 3180 H 301.554 -2.40905 1.77778 0
M  V30 3181 H 299.1 -1.15781 0.856203 0
M  V30 3182 H 301.053 -4.21174 0.137983 0
M  V30 3183 H 299.777 -3.21072 -0.598362 0
M  V30 3184 H 298.436 -3.33112 1.53075 0
M  V30 3185 H 298.084 -5.02232 -0.277767 0
M  V30 3186 H 297.784 -5.72293 1.33244 0
M  V30 3187 H 299.308 -6.08755 0.474262 0
M  V30 3188 H 300.722 -5.14025 2.53873 0
M  V30 3189 H 299.119 -5.00062 3.3175 0
M  V30 3190 H 300.189 -3.58818 3.26156 0
M  V30 3191 N 301.532 -0.945985 -1.26051 0
M  V30 3192 C 302.948 -0.649045 -1.45807 0
M  V30 3193 C 303.148 0.796158 -1.85104 0
M  V30 3194 O 302.204 1.57233 -1.97571 0
M  V30 3195 C 303.517 -1.61458 -2.53677 0
M  V30 3196 C 305.065 -1.62481 -2.67524 0
M  V30 3197 C 305.54 -2.57776 -3.7857 0
M  V30 3198 N 307.031 -2.5609 -3.85969 0
M  V30 3199 C 307.766 -3.26508 -4.7136 0
M  V30 3200 N 307.262 -4.0637 -5.61102 0
M  V30 3201 N 309.055 -3.15437 -4.65248 0
M  V30 3202 H 301.206 -1.88005 -0.988328 0
M  V30 3203 H 303.469 -0.808198 -0.4955 0
M  V30 3204 H 303.175 -2.64644 -2.31638 0
M  V30 3205 H 303.049 -1.37036 -3.51427 0
M  V30 3206 H 305.436 -0.600167 -2.88933 0
M  V30 3207 H 305.517 -1.90958 -1.70202 0
M  V30 3208 H 305.161 -3.60361 -3.57913 0
M  V30 3209 H 305.091 -2.26587 -4.75359 0
M  V30 3210 H 307.582 -1.98105 -3.21812 0
M  V30 3211 H 307.895 -4.57042 -6.23164 0
M  V30 3212 H 306.24 -4.10469 -5.60839 0
M  V30 3213 H 309.431 -2.52525 -3.94143 0
M  V30 3214 H 309.604 -3.70584 -5.31575 0
M  V30 3215 N 303.011 1.40521 -0.713556 0
M  V30 3216 C 304.259 2.00527 -0.251692 0
M  V30 3217 C 304.58 1.56857 1.15848 0
M  V30 3218 O 303.85 0.807127 1.785 0
M  V30 3219 H 302.43 0.741551 -0.0900646 0
M  V30 3220 H 305.092 1.71887 -0.918733 0
M  V30 3221 H 304.188 3.10813 -0.283192 0
M  V30 3222 N 304.489 0.459591 1.5075 0
M  V30 3223 C 305.419 -0.330644 2.31147 0
M  V30 3224 C 306.4 -1.00087 1.37538 0
M  V30 3225 O 307.585 -1.00025 1.66459 0
M  V30 3226 C 304.715 -1.41958 3.16962 0
M  V30 3227 C 303.669 -0.871608 4.19031 0
M  V30 3228 C 302.995 -2.05797 4.9351 0
M  V30 3229 C 304.295 0.109251 5.22186 0
M  V30 3230 H 305.989 0.340336 2.97459 0
M  V30 3231 H 303.535 0.165119 1.4305 0
M  V30 3232 H 305.488 -1.9798 3.71997 0
M  V30 3233 H 304.212 -2.11917 2.48513 0
M  V30 3234 H 302.871 -0.333442 3.6508 0
M  V30 3235 H 302.519 -2.74427 4.21544 0
M  V30 3236 H 302.219 -1.6976 5.62544 0
M  V30 3237 H 303.743 -2.62331 5.51375 0
M  V30 3238 H 305.157 -0.361405 5.7216 0
M  V30 3239 H 303.554 0.383316 5.98875 0
M  V30 3240 H 304.624 1.03887 4.73641 0
M  V30 3241 N 305.967 -1.56429 0.191757 0
M  V30 3242 C 307.215 -1.97095 -0.447006 0
M  V30 3243 C 307.536 -1.07967 -1.62383 0
M  V30 3244 O 306.806 -0.150248 -1.95323 0
M  V30 3245 H 305.386 -0.727832 -0.168135 0
M  V30 3246 H 308.048 -1.92911 0.27771 0
M  V30 3247 H 307.144 -3.01848 -0.793371 0
M  V30 3248 N 307.445 0.0818655 -1.57387 0
M  V30 3249 C 308.375 1.09885 -2.06028 0
M  V30 3250 C 309.356 1.4098 -0.951774 0
M  V30 3251 O 310.541 1.50781 -1.22387 0
M  V30 3252 C 307.671 2.4151 -2.4958 0
M  V30 3253 C 306.625 2.24792 -3.64215 0
M  V30 3254 C 305.951 3.61712 -3.93787 0
M  V30 3255 C 307.251 1.67749 -4.94629 0
M  V30 3256 H 308.945 0.694128 -2.91243 0
M  V30 3257 H 306.491 0.332448 -1.4011 0
M  V30 3258 H 308.444 3.12939 -2.82219 0
M  V30 3259 H 307.168 2.83943 -1.61381 0
M  V30 3260 H 305.827 1.55807 -3.31843 0
M  V30 3261 H 305.475 4.01697 -3.02735 0
M  V30 3262 H 305.175 3.51368 -4.70971 0
M  V30 3263 H 306.699 4.34587 -4.28913 0
M  V30 3264 H 308.113 2.29032 -5.25564 0
M  V30 3265 H 306.51 1.68128 -5.76067 0
M  V30 3266 H 307.58 0.638059 -4.80684 0
M  V30 3267 N 308.923 1.53595 0.353017 0
M  V30 3268 C 310.148 1.7462 1.11904 0
M  V30 3269 C 310.573 0.479721 1.8188 0
M  V30 3270 O 309.931 -0.567066 1.72204 0
M  V30 3271 C 309.979 2.92029 2.11545 0
M  V30 3272 O 309.083 2.61516 3.18878 0
M  V30 3273 H 308.424 0.579531 0.324099 0
M  V30 3274 H 310.954 2.00525 0.406301 0
M  V30 3275 H 310.964 3.18551 2.5493 0
M  V30 3276 H 309.639 3.83888 1.60008 0
M  V30 3277 H 308.216 2.45852 2.80377 0
M  V30 3278 N 310.401 -0.613514 1.45168 0
M  V30 3279 C 311.812 -1.19539 1.43413 0
M  V30 3280 C 312.163 -1.95558 0.158632 0
M  V30 3281 O 311.288 -2.0335 -0.740119 0
M  V30 3282 C 311.883 -2.17445 2.59813 0
M  V30 3283 C 310.442 -2.71022 2.61197 0
M  V30 3284 C 309.589 -1.46323 2.35552 0
M  V30 3285 H 312.54 -0.403163 1.53494 0
M  V30 3286 H 312.561 -3.00373 2.33574 0
M  V30 3287 H 312.073 -1.62089 3.52631 0
M  V30 3288 H 310.174 -3.30332 1.7237 0
M  V30 3289 H 310.287 -3.15859 3.60236 0
M  V30 3290 H 308.651 -1.75072 1.84992 0
M  V30 3291 H 309.434 -0.92844 3.30507 0
M  V30 3292 N 311.879 -1.3236 -0.855495 0
M  V30 3293 C 313.156 -1.13491 -1.59309 0
M  V30 3294 C 313.536 0.30503 -2.08885 0
M  V30 3295 O 312.884 1.30151 -1.87811 0
M  V30 3296 C 313.094 -2.16176 -2.73987 0
M  V30 3297 C 314.442 -2.49463 -3.43589 0
M  V30 3298 O 315.466 -2.14715 -2.84211 0
M  V30 3299 O 314.325 -3.09027 -4.50738 0
M  V30 3300 H 311.419 -0.437887 -0.701559 0
M  V30 3301 H 313.965 -1.43887 -0.899696 0
M  V30 3302 H 312.737 -3.1297 -2.34873 0
M  V30 3303 H 312.36 -1.86769 -3.51003 0
M  V30 3304 N 313.357 1.07166 -1.15556 0
M  V30 3305 C 314.287 2.16403 -0.877046 0
M  V30 3306 C 315.268 1.69217 0.173111 0
M  V30 3307 O 316.453 1.94181 0.027084 0
M  V30 3308 C 313.583 3.45349 -0.367632 0
M  V30 3309 C 312.537 4.05995 -1.35468 0
M  V30 3310 C 311.863 5.30045 -0.704038 0
M  V30 3311 C 313.163 4.45804 -2.72132 0
M  V30 3312 H 314.857 2.39959 -1.79053 0
M  V30 3313 H 312.403 1.15325 -0.862331 0
M  V30 3314 H 314.356 4.21095 -0.160317 0
M  V30 3315 H 313.08 3.21385 0.581326 0
M  V30 3316 H 311.739 3.32296 -1.54839 0
M  V30 3317 H 311.387 5.02373 0.251128 0
M  V30 3318 H 311.087 5.71579 -1.36277 0
M  V30 3319 H 312.611 6.08495 -0.50654 0
M  V30 3320 H 314.025 5.12671 -2.56595 0
M  V30 3321 H 312.422 4.98296 -3.34397 0
M  V30 3322 H 313.492 3.57083 -3.28054 0
M  V30 3323 N 314.835 0.952656 1.25548 0
M  V30 3324 C 316.081 0.607272 1.93494 0
M  V30 3325 C 316.414 -0.853245 1.74452 0
M  V30 3326 O 315.689 -1.61194 1.08843 0
M  V30 3327 C 315.972 0.96435 3.46947 0
M  V30 3328 C 315.825 2.48045 3.75225 0
M  V30 3329 C 317.144 0.487987 4.37386 0
M  V30 3330 H 314.263 0.222096 0.702739 0
M  V30 3331 H 316.905 1.18895 1.48203 0
M  V30 3332 H 315.055 0.469361 3.85654 0
M  V30 3333 H 316.727 3.04905 3.46166 0
M  V30 3334 H 314.97 2.919 3.209 0
M  V30 3335 H 315.641 2.6808 4.82532 0
M  V30 3336 H 318.117 0.912558 4.0597 0
M  V30 3337 H 316.993 0.766547 5.43521 0
M  V30 3338 H 317.254 -0.612063 4.37843 0
M  V30 3339 N 316.313 -1.40141 0.720998 0
M  V30 3340 C 317.559 -2.01084 0.263231 0
M  V30 3341 C 317.892 -1.57052 -1.14229 0
M  V30 3342 O 317.167 -0.793027 -1.77599 0
M  V30 3343 C 317.45 -3.58401 0.349344 0
M  V30 3344 C 317.303 -4.12491 1.79363 0
M  V30 3345 C 318.622 -4.39231 -0.276351 0
M  V30 3346 H 315.741 -0.730572 0.0971228 0
M  V30 3347 H 318.383 -1.66543 0.914518 0
M  V30 3348 H 316.533 -3.87958 -0.205165 0
M  V30 3349 H 318.205 -3.93711 2.40394 0
M  V30 3350 H 316.448 -3.66576 2.31958 0
M  V30 3351 H 317.119 -5.21646 1.80524 0
M  V30 3352 H 319.595 -4.15637 0.196184 0
M  V30 3353 H 318.471 -5.48586 -0.185681 0
M  V30 3354 H 318.732 -4.20643 -1.36059 0
M  V30 3355 N 317.792 -0.46758 -1.50504 0
M  V30 3356 C 319.032 0.0874114 -2.04213 0
M  V30 3357 C 319.396 1.37301 -1.34211 0
M  V30 3358 O 320.597 2.01015 -1.78456 0
M  V30 3359 C 318.868 0.270571 -3.56374 0
M  V30 3360 S 320.427 0.784623 -4.31728 0
M  V30 3361 H 317.245 0.0176153 -0.710782 0
M  V30 3362 H 319.847 -0.633915 -1.84937 0
M  V30 3363 H 318.551 -0.670942 -4.04878 0
M  V30 3364 H 318.082 1.01811 -3.79997 0
M  V30 3365 H 320.097 2.05849 -4.51487 0
M  V30 3366 N 319.27 1.56325 -0.20005 0
M  V30 3367 C 320.686 1.58839 0.155716 0
M  V30 3368 C 320.886 1.21636 1.60645 0
M  V30 3369 O 319.942 0.941437 2.34293 0
M  V30 3370 C 321.255 3.0032 -0.151124 0
M  V30 3371 C 322.803 3.12866 -0.0916284 0
M  V30 3372 C 323.278 4.56488 -0.371845 0
M  V30 3373 N 324.769 4.62089 -0.320641 0
M  V30 3374 C 325.504 5.71116 -0.511243 0
M  V30 3375 N 325 6.88592 -0.762461 0
M  V30 3376 N 326.793 5.60335 -0.445157 0
M  V30 3377 H 318.944 1.78788 -1.14668 0
M  V30 3378 H 321.207 0.829996 -0.458051 0
M  V30 3379 H 320.913 3.32117 -1.15721 0
M  V30 3380 H 320.787 3.73257 0.543986 0
M  V30 3381 H 323.174 2.80878 0.905065 0
M  V30 3382 H 323.255 2.42304 -0.81989 0
M  V30 3383 H 322.899 4.89189 -1.36588 0
M  V30 3384 H 322.829 5.25246 0.377362 0
M  V30 3385 H 325.32 3.77665 -0.13329 0
M  V30 3386 H 325.633 7.67581 -0.896576 0
M  V30 3387 H 323.978 6.90387 -0.799412 0
M  V30 3388 H 327.169 4.67436 -0.249278 0
M  V30 3389 H 327.342 6.45243 -0.597116 0
M  V30 3390 N 320.748 -0.0735177 1.57428 0
M  V30 3391 C 321.988 -0.778363 1.89 0
M  V30 3392 C 322.352 -1.7483 0.793634 0
M  V30 3393 O 323.553 -2.49811 0.992367 0
M  V30 3394 C 321.824 -1.46929 3.25802 0
M  V30 3395 S 323.383 -2.20943 3.79117 0
M  V30 3396 H 320.201 -0.258874 0.662197 0
M  V30 3397 H 322.803 -0.0345338 1.95469 0
M  V30 3398 H 321.507 -0.749532 4.03497 0
M  V30 3399 H 321.038 -2.25258 3.22525 0
M  V30 3400 H 323.053 -3.47435 3.54265 0
M  V30 3401 N 322.226 -1.5378 -0.344866 0
M  V30 3402 C 323.451 -1.75211 -1.10977 0
M  V30 3403 C 323.876 -0.48936 -1.81623 0
M  V30 3404 O 323.234 0.557925 -1.72502 0
M  V30 3405 C 323.282 -2.93147 -2.09993 0
M  V30 3406 O 322.386 -2.63203 -3.17487 0
M  V30 3407 H 321.727 -0.581241 -0.321021 0
M  V30 3408 H 324.257 -2.00738 -0.395661 0
M  V30 3409 H 324.267 -3.19898 -2.53237 0
M  V30 3410 H 322.942 -3.84731 -1.5797 0
M  V30 3411 H 321.519 -2.47336 -2.79069 0
M  V30 3412 N 323.704 0.605807 -1.45491 0
M  V30 3413 C 324.652 1.73754 -1.54636 0
M  V30 3414 C 325.646 1.64207 -0.416219 0
M  V30 3415 O 326.852 1.69979 -0.592199 0
M  V30 3416 H 323.227 0.574073 -0.485741 0
M  V30 3417 H 325.198 1.63169 -2.49837 0
M  V30 3418 C 323.947 3.12135 -1.53189 0
M  V30 3419 H 323.27 3.20141 -2.39478 0
M  V30 3420 H 324.71 3.91147 -1.63645 0
M  V30 3421 C 323.169 3.35921 -0.256616 0
M  V30 3422 O 323.699 3.96194 0.662798 0
M  V30 3423 N 321.905 2.90204 -0.151751 0
M  V30 3424 H 321.452 2.41336 -0.90081 0
M  V30 3425 H 321.41 3.06492 0.700699 0
M  V30 3426 N 325.182 1.32811 0.848464 0
M  V30 3427 C 326.593 1.21315 1.41914 0
M  V30 3428 C 326.944 -0.171847 1.95446 0
M  V30 3429 O 326.069 -1.07093 1.88043 0
M  V30 3430 C 326.664 2.19631 2.57968 0
M  V30 3431 C 325.223 2.12003 3.11017 0
M  V30 3432 C 324.37 2.07651 1.83783 0
M  V30 3433 H 327.321 1.44549 0.655071 0
M  V30 3434 H 327.342 1.79845 3.35315 0
M  V30 3435 H 326.854 3.20423 2.18976 0
M  V30 3436 H 324.955 1.14481 3.54577 0
M  V30 3437 H 325.068 3.02111 3.71841 0
M  V30 3438 H 323.432 1.52983 2.03638 0
M  V30 3439 H 324.215 3.10235 1.47 0
M  V30 3440 N 326.66 -1.06551 1.16123 0
M  V30 3441 C 327.59 -2.15935 0.88851 0
M  V30 3442 C 328.571 -1.69306 -0.164135 0
M  V30 3443 O 329.756 -1.94193 -0.0167857 0
M  V30 3444 C 326.886 -3.45149 0.385942 0
M  V30 3445 C 325.84 -4.05271 1.3762 0
M  V30 3446 C 325.166 -5.29664 0.732137 0
M  V30 3447 C 326.466 -4.44355 2.74493 0
M  V30 3448 H 328.16 -2.39006 1.80323 0
M  V30 3449 H 325.706 -1.14866 0.868435 0
M  V30 3450 H 327.659 -4.21004 0.182647 0
M  V30 3451 H 326.383 -3.21689 -0.564274 0
M  V30 3452 H 325.042 -3.3147 1.56599 0
M  V30 3453 H 324.69 -5.02499 -0.224483 0
M  V30 3454 H 324.39 -5.70848 1.39307 0
M  V30 3455 H 325.914 -6.08218 0.538802 0
M  V30 3456 H 327.328 -5.11303 2.59311 0
M  V30 3457 H 325.725 -4.96515 3.37035 0
M  V30 3458 H 326.795 -3.55339 3.29943 0
M  V30 3459 N 328.138 -0.959301 -1.25041 0
M  V30 3460 C 329.415 -0.533805 -1.88175 0
M  V30 3461 C 329.795 0.988994 -1.865 0
M  V30 3462 O 329.143 1.85677 -1.33177 0
M  V30 3463 C 329.353 -1.11575 -3.30684 0
M  V30 3464 C 330.701 -1.19548 -4.07423 0
M  V30 3465 O 331.725 -1.06765 -3.39823 0
M  V30 3466 O 330.584 -1.39656 -5.28354 0
M  V30 3467 H 327.678 -0.176772 -0.807887 0
M  V30 3468 H 330.224 -1.05303 -1.33076 0
M  V30 3469 H 328.996 -2.15884 -3.26358 0
M  V30 3470 H 328.619 -0.580059 -3.93346 0
M  V30 3471 N 329.616 1.39756 -0.72842 0
M  V30 3472 C 330.844 2.04948 -0.283528 0
M  V30 3473 C 331.259 1.54908 1.0793 0
M  V30 3474 O 330.616 0.711135 1.68075 0
M  V30 3475 C 330.667 3.60498 -0.268957 0
M  V30 3476 O 330.388 4.08695 -1.57798 0
M  V30 3477 C 331.889 4.4288 0.192912 0
M  V30 3478 H 329.109 0.659243 -0.125056 0
M  V30 3479 H 331.653 1.78927 -0.990226 0
M  V30 3480 H 329.808 3.85444 0.388801 0
M  V30 3481 H 330.222 5.02977 -1.48709 0
M  V30 3482 H 331.696 5.51791 0.151952 0
M  V30 3483 H 332.173 4.21418 1.23708 0
M  V30 3484 H 332.779 4.23069 -0.435039 0
M  V30 3485 N 331.094 0.475555 1.50254 0
M  V30 3486 C 332.319 -0.0777042 2.07254 0
M  V30 3487 C 332.744 -1.3235 1.3366 0
M  V30 3488 O 332.102 -1.77152 0.385597 0
M  V30 3489 C 332.15 -0.340169 3.58992 0
M  V30 3490 O 331.254 -1.41982 3.87188 0
M  V30 3491 H 330.595 0.0149556 0.663832 0
M  V30 3492 H 333.125 0.667878 1.93392 0
M  V30 3493 H 333.135 -0.579332 4.03866 0
M  V30 3494 H 331.81 0.570167 4.11973 0
M  V30 3495 H 330.387 -1.16762 3.54148 0
M  V30 3496 N 332.573 -1.56217 0.208337 0
M  V30 3497 C 333.819 -1.98242 -0.427552 0
M  V30 3498 C 334.152 -1.09554 -1.60348 0
M  V30 3499 O 333.427 -0.15035 -1.93918 0
M  V30 3500 C 333.71 -3.4931 -0.874907 0
M  V30 3501 C 333.563 -4.48773 0.303751 0
M  V30 3502 C 334.882 -4.04424 -1.73577 0
M  V30 3503 H 332.001 -0.720744 -0.153936 0
M  V30 3504 H 334.643 -1.87586 0.30192 0
M  V30 3505 H 332.793 -3.58522 -1.49648 0
M  V30 3506 H 334.465 -4.51586 0.941682 0
M  V30 3507 H 332.708 -4.23194 0.953375 0
M  V30 3508 H 333.379 -5.51976 -0.0519883 0
M  V30 3509 H 335.855 -3.98075 -1.21143 0
M  V30 3510 H 334.731 -5.1047 -2.01771 0
M  V30 3511 H 334.992 -3.50494 -2.69456 0
M  V30 3512 N 334.051 0.0651679 -1.57465 0
M  V30 3513 C 334.998 1.07675 -2.04144 0
M  V30 3514 C 335.968 1.38071 -0.923335 0
M  V30 3515 O 337.153 1.49026 -1.19146 0
M  V30 3516 C 334.293 2.38337 -2.49579 0
M  V30 3517 C 333.406 2.14413 -3.75035 0
M  V30 3518 C 332.541 3.38686 -4.09225 0
M  V30 3519 C 331.58 3.10156 -5.27702 0
M  V30 3520 N 330.717 4.26778 -5.57499 0
M  V30 3521 H 335.557 0.671716 -2.90331 0
M  V30 3522 H 333.094 0.3201 -1.43575 0
M  V30 3523 H 335.052 3.14632 -2.73975 0
M  V30 3524 H 333.682 2.7663 -1.6636 0
M  V30 3525 H 332.734 1.2878 -3.57939 0
M  V30 3526 H 334.046 1.89344 -4.61466 0
M  V30 3527 H 333.2 4.23373 -4.34558 0
M  V30 3528 H 331.939 3.66837 -3.21374 0
M  V30 3529 H 330.944 2.23866 -5.02159 0
M  V30 3530 H 332.169 2.8332 -6.17176 0
M  V30 3531 H 330.115 4.54948 -4.72608 0
M  V30 3532 H 330.032 4.05005 -6.38362 0
M  V30 3533 H 331.3 5.12443 -5.87386 0
M  V30 3534 N 335.529 1.53961 0.336706 0
M  V30 3535 C 336.439 1.85432 1.43708 0
M  V30 3536 C 337.455 0.745053 1.57242 0
M  V30 3537 O 338.631 1.03804 1.72588 0
M  V30 3538 C 335.696 2.06349 2.78605 0
M  V30 3539 C 334.757 3.30191 2.74358 0
M  V30 3540 C 333.99 3.50101 4.02822 0
M  V30 3541 O 334.213 2.7371 5.00439 0
M  V30 3542 O 333.147 4.43547 4.06878 0
M  V30 3543 H 336.973 2.78975 1.20028 0
M  V30 3544 H 334.558 1.39701 0.52952 0
M  V30 3545 H 336.44 2.21513 3.58483 0
M  V30 3546 H 335.115 1.15995 3.02203 0
M  V30 3547 H 334.022 3.20425 1.93078 0
M  V30 3548 H 335.355 4.2056 2.55715 0
M  V30 3549 N 337.007 -0.598083 1.45811 0
M  V30 3550 C 337.954 -1.7082 1.55207 0
M  V30 3551 C 338.924 -1.61278 0.39732 0
M  V30 3552 O 340.109 -1.80717 0.612038 0
M  V30 3553 C 337.249 -3.09144 1.53376 0
M  V30 3554 C 336.362 -3.29423 2.79472 0
M  V30 3555 C 335.497 -4.57907 2.69248 0
M  V30 3556 C 334.536 -4.71476 3.90354 0
M  V30 3557 N 333.673 -5.9127 3.78608 0
M  V30 3558 H 338.513 -1.62125 2.50039 0
M  V30 3559 H 336.05 -0.790389 1.24062 0
M  V30 3560 H 338.008 -3.89186 1.50301 0
M  V30 3561 H 336.638 -3.16773 0.620876 0
M  V30 3562 H 335.69 -2.43091 2.92594 0
M  V30 3563 H 337.002 -3.3532 3.69272 0
M  V30 3564 H 336.156 -5.46157 2.64192 0
M  V30 3565 H 334.895 -4.54423 1.77063 0
M  V30 3566 H 333.9 -3.81648 3.95759 0
M  V30 3567 H 335.125 -4.76751 4.83617 0
M  V30 3568 H 333.071 -5.88813 2.89199 0
M  V30 3569 H 332.988 -5.98369 4.6205 0
M  V30 3570 H 334.256 -6.81992 3.77501 0
M  V30 3571 N 338.485 -1.33259 -0.841409 0
M  V30 3572 C 339.734 -1.23921 -1.59143 0
M  V30 3573 C 340.047 0.1941 -1.94635 0
M  V30 3574 O 341.253 0.409474 -2.68394 0
M  V30 3575 C 339.709 -2.17119 -2.87032 0
M  V30 3576 C 339.317 -3.65606 -2.58914 0
M  V30 3577 C 341.061 -2.16648 -3.65053 0
M  V30 3578 C 338.968 -4.50726 -3.82884 0
M  V30 3579 H 337.898 -0.460264 -0.597221 0
M  V30 3580 H 340.549 -1.58307 -0.927959 0
M  V30 3581 H 338.931 -1.75663 -3.54906 0
M  V30 3582 H 340.105 -4.15487 -1.99267 0
M  V30 3583 H 338.42 -3.68341 -1.942 0
M  V30 3584 H 341.017 -2.77474 -4.57069 0
M  V30 3585 H 341.36 -1.16088 -3.99787 0
M  V30 3586 H 341.893 -2.56453 -3.041 0
M  V30 3587 H 338.632 -5.52151 -3.53283 0
M  V30 3588 H 338.152 -4.0559 -4.41879 0
M  V30 3589 H 339.831 -4.64401 -4.50489 0
M  V30 3590 N 339.963 1.05934 -1.16686 0
M  V30 3591 C 341.188 1.83029 -0.975455 0
M  V30 3592 C 341.613 1.82096 0.471452 0
M  V30 3593 O 340.971 1.22443 1.33706 0
M  V30 3594 C 341.019 3.27372 -1.51195 0
M  V30 3595 O 340.123 4.06054 -0.720701 0
M  V30 3596 H 339.464 0.566194 -0.346872 0
M  V30 3597 H 341.994 1.33541 -1.55009 0
M  V30 3598 H 342.004 3.78186 -1.53099 0
M  V30 3599 H 340.679 3.27366 -2.56523 0
M  V30 3600 H 339.256 3.64812 -0.772458 0
M  V30 3601 N 341.441 0.965919 1.2453 0
M  V30 3602 C 342.374 0.4393 2.23932 0
M  V30 3603 C 343.352 -0.485615 1.55179 0
M  V30 3604 O 344.536 -0.417402 1.83821 0
M  V30 3605 C 341.663 -0.366042 3.36716 0
M  V30 3606 C 340.709 0.5009 4.23548 0
M  V30 3607 S 341.542 1.94002 4.99123 0
M  V30 3608 C 342.698 1.14342 6.15367 0
M  V30 3609 H 342.931 1.28167 2.68254 0
M  V30 3610 H 340.464 0.770819 1.33782 0
M  V30 3611 H 342.422 -0.824724 4.0213 0
M  V30 3612 H 341.083 -1.18337 2.90956 0
M  V30 3613 H 340.276 -0.117341 5.03863 0
M  V30 3614 H 339.878 0.89524 3.63127 0
M  V30 3615 H 342.17 0.397572 6.76332 0
M  V30 3616 H 343.113 1.92089 6.81548 0
M  V30 3617 H 343.521 0.668579 5.60527 0
M  V30 3618 N 342.919 -1.39368 0.735821 0
M  V30 3619 C 344.166 -2.00497 0.284123 0
M  V30 3620 C 344.494 -1.58387 -1.12889 0
M  V30 3621 O 343.749 -0.804359 -1.78406 0
M  V30 3622 C 344.048 -3.5583 0.334651 0
M  V30 3623 C 343.714 -4.17593 1.7008 0
M  V30 3624 C 342.376 -4.34176 2.07472 0
M  V30 3625 C 344.728 -4.51848 2.59775 0
M  V30 3626 C 342.056 -4.82304 3.34065 0
M  V30 3627 C 344.408 -5.01384 3.85741 0
M  V30 3628 C 343.072 -5.16175 4.23225 0
M  V30 3629 H 342.342 -0.73367 0.103968 0
M  V30 3630 H 344.989 -1.66683 0.942825 0
M  V30 3631 H 343.294 -3.89674 -0.407625 0
M  V30 3632 H 344.991 -4.00986 -0.0329927 0
M  V30 3633 H 341.581 -4.05087 1.40008 0
M  V30 3634 H 345.765 -4.38653 2.32157 0
M  V30 3635 H 341.021 -4.91941 3.63049 0
M  V30 3636 H 345.195 -5.26863 4.55399 0
M  V30 3637 H 342.822 -5.5323 5.21384 0
M  V30 3638 N 344.397 -0.483516 -1.5 0
M  V30 3639 C 345.637 0.0657469 -2.04294 0
M  V30 3640 C 346.001 1.35869 -1.35659 0
M  V30 3641 O 347.202 1.99111 -1.80578 0
M  V30 3642 C 345.473 0.232758 -3.56641 0
M  V30 3643 S 347.032 0.738788 -4.32536 0
M  V30 3644 H 343.85 0.0100755 -0.710929 0
M  V30 3645 H 346.452 -0.653494 -1.84254 0
M  V30 3646 H 345.156 -0.713847 -4.04144 0
M  V30 3647 H 344.687 0.977751 -3.81056 0
M  V30 3648 H 346.702 2.01048 -4.53645 0
M  V30 3649 N 345.875 1.56104 -0.216619 0
M  V30 3650 C 346.825 2.16703 0.708798 0
M  V30 3651 C 347.809 1.11392 1.16106 0
M  V30 3652 O 349.001 1.37395 1.11587 0
M  V30 3653 C 346.13 2.84666 1.91886 0
M  V30 3654 C 345.216 3.97195 1.48651 0
M  V30 3655 N 345.607 4.99959 0.766434 0
M  V30 3656 C 343.905 4.09193 1.77418 0
M  V30 3657 C 344.606 5.79126 0.546659 0
M  V30 3658 N 343.582 5.32315 1.10188 0
M  V30 3659 H 347.384 2.93516 0.150162 0
M  V30 3660 H 344.898 1.6239 -0.0176768 0
M  V30 3661 H 346.895 3.26486 2.59253 0
M  V30 3662 H 345.555 2.09347 2.48202 0
M  V30 3663 H 346.566 5.16197 0.419634 0
M  V30 3664 H 343.243 3.45021 2.35088 0
M  V30 3665 H 344.633 6.71895 -0.026103 0
M  V30 3666 N 347.353 -0.0568162 1.57498 0
M  V30 3667 C 348.599 -0.75422 1.88253 0
M  V30 3668 C 348.932 -1.76461 0.810865 0
M  V30 3669 O 348.207 -1.93691 -0.177259 0
M  V30 3670 C 348.49 -1.44878 3.2967 0
M  V30 3671 C 348.343 -0.453789 4.47505 0
M  V30 3672 C 349.662 -2.38994 3.69554 0
M  V30 3673 H 346.781 -0.272724 0.684683 0
M  V30 3674 H 349.423 -0.0172113 1.89992 0
M  V30 3675 H 347.573 -2.077 3.28318 0
M  V30 3676 H 349.245 0.170371 4.60985 0
M  V30 3677 H 347.488 0.229552 4.33192 0
M  V30 3678 H 348.159 -0.977699 5.43273 0
M  V30 3679 H 350.635 -1.86239 3.72095 0
M  V30 3680 H 349.511 -2.84587 4.69363 0
M  V30 3681 H 349.772 -3.24461 3.00296 0
M  V30 3682 N 348.832 -1.54138 -0.328536 0
M  V30 3683 C 349.742 -1.86192 -1.42723 0
M  V30 3684 C 350.758 -0.753382 -1.56844 0
M  V30 3685 O 351.934 -1.04718 -1.72035 0
M  V30 3686 C 348.999 -2.07824 -2.77507 0
M  V30 3687 C 348.06 -3.31641 -2.72603 0
M  V30 3688 C 347.293 -3.52232 -4.00959 0
M  V30 3689 O 347.516 -2.7636 -4.9898 0
M  V30 3690 O 346.45 -4.45699 -4.0452 0
M  V30 3691 H 350.276 -2.79608 -1.18547 0
M  V30 3692 H 347.861 -1.3998 -0.522104 0
M  V30 3693 H 349.743 -2.23411 -3.57303 0
M  V30 3694 H 348.418 -1.17596 -3.01584 0
M  V30 3695 H 347.325 -3.21444 -1.91376 0
M  V30 3696 H 348.658 -4.2191 -2.53481 0
M  V30 3697 N 350.31 0.590341 -1.46126 0
M  V30 3698 C 351.721 1.17243 -1.45296 0
M  V30 3699 C 352.072 1.95281 -0.189723 0
M  V30 3700 O 351.197 2.04502 0.707674 0
M  V30 3701 C 351.792 2.13284 -2.6324 0
M  V30 3702 C 350.351 2.66832 -2.65476 0
M  V30 3703 C 349.498 1.42557 -2.3785 0
M  V30 3704 H 352.449 0.378692 -1.54116 0
M  V30 3705 H 352.47 2.96619 -2.38323 0
M  V30 3706 H 351.982 1.56459 -3.55165 0
M  V30 3707 H 350.083 3.27548 -1.77603 0
M  V30 3708 H 350.196 3.10088 -3.65215 0
M  V30 3709 H 348.56 1.72107 -1.87753 0
M  V30 3710 H 349.343 0.875741 -3.31942 0
M  V30 3711 N 351.788 1.33704 0.83433 0
M  V30 3712 C 352.698 1.26382 1.97648 0
M  V30 3713 C 353.714 0.173548 1.73132 0
M  V30 3714 O 354.89 0.397962 1.97429 0
M  V30 3715 C 351.955 1.00769 3.31733 0
M  V30 3716 C 351.016 2.1884 3.69334 0
M  V30 3717 C 350.249 1.9444 4.9702 0
M  V30 3718 O 350.472 0.896961 5.63303 0
M  V30 3719 O 349.406 2.81093 5.32231 0
M  V30 3720 H 353.232 2.22444 2.06767 0
M  V30 3721 H 350.817 1.13795 0.968037 0
M  V30 3722 H 352.699 0.882186 4.12062 0
M  V30 3723 H 351.374 0.0773783 3.23608 0
M  V30 3724 H 350.281 2.36946 2.89495 0
M  V30 3725 H 351.614 3.10221 3.82131 0
M  V30 3726 N 353.266 -1.05314 1.17247 0
M  V30 3727 C 354.198 -2.13023 0.845812 0
M  V30 3728 C 355.211 -1.62096 -0.151246 0
M  V30 3729 O 356.4 -1.78343 0.0748818 0
M  V30 3730 C 353.5 -3.38047 0.240292 0
M  V30 3731 C 352.673 -4.18255 1.27991 0
M  V30 3732 C 351.732 -5.21625 0.692375 0
M  V30 3733 O 350.758 -5.52619 1.36385 0
M  V30 3734 N 351.96 -5.78201 -0.516178 0
M  V30 3735 H 354.725 -2.41642 1.77283 0
M  V30 3736 H 352.286 -1.21401 1.07115 0
M  V30 3737 H 354.278 -4.04359 -0.16603 0
M  V30 3738 H 352.848 -3.06972 -0.590487 0
M  V30 3739 H 352.068 -3.47451 1.86203 0
M  V30 3740 H 353.356 -4.68643 1.98119 0
M  V30 3741 H 352.754 -5.55301 -1.07969 0
M  V30 3742 H 351.311 -6.4604 -0.86458 0
M  V30 3743 N 354.744 -0.972509 -1.24016 0
M  V30 3744 C 355.99 -0.637978 -1.92504 0
M  V30 3745 C 356.323 0.825383 -1.75787 0
M  V30 3746 O 355.598 1.59442 -1.11393 0
M  V30 3747 C 355.881 -1.01942 -3.45369 0
M  V30 3748 C 355.734 -2.53983 -3.71231 0
M  V30 3749 C 357.053 -0.55751 -4.36555 0
M  V30 3750 H 354.172 -0.233248 -0.699117 0
M  V30 3751 H 356.814 -1.21238 -1.46292 0
M  V30 3752 H 354.964 -0.530656 -3.84859 0
M  V30 3753 H 356.636 -3.10374 -3.41271 0
M  V30 3754 H 354.879 -2.96968 -3.16216 0
M  V30 3755 H 355.55 -2.75723 -4.78206 0
M  V30 3756 H 358.026 -0.977029 -4.04467 0
M  V30 3757 H 356.902 -0.85292 -5.42233 0
M  V30 3758 H 357.163 0.542328 -4.38761 0
M  V30 3759 N 356.222 1.38976 -0.743202 0
M  V30 3760 C 357.471 1.99581 -0.291592 0
M  V30 3761 C 357.784 1.59656 1.13001 0
M  V30 3762 O 358.99 2.13157 1.68156 0
M  V30 3763 C 357.446 3.56813 -0.470391 0
M  V30 3764 C 357.054 4.05695 -1.90041 0
M  V30 3765 C 358.798 4.24423 -0.0809709 0
M  V30 3766 C 356.705 5.5553 -2.02832 0
M  V30 3767 H 355.635 0.746615 -0.105272 0
M  V30 3768 H 358.286 1.58872 -0.918258 0
M  V30 3769 H 356.668 3.95359 0.225299 0
M  V30 3770 H 357.842 3.78464 -2.62872 0
M  V30 3771 H 356.157 3.50775 -2.24379 0
M  V30 3772 H 358.754 5.34474 -0.155445 0
M  V30 3773 H 359.097 4.04962 0.96497 0
M  V30 3774 H 359.63 3.9108 -0.728124 0
M  V30 3775 H 356.369 5.79881 -3.05643 0
M  V30 3776 H 355.889 5.84537 -1.34448 0
M  V30 3777 H 357.568 6.21069 -1.81335 0
M  V30 3778 N 357.7 0.491464 1.49741 0
M  V30 3779 C 358.94 -0.0549118 2.04326 0
M  V30 3780 C 359.304 -1.35148 1.36378 0
M  V30 3781 O 360.505 -1.9815 1.81631 0
M  V30 3782 C 358.776 -0.213841 3.5676 0
M  V30 3783 S 360.335 -0.715839 4.32922 0
M  V30 3784 H 357.153 -0.00630513 0.710972 0
M  V30 3785 H 359.755 0.663257 1.83905 0
M  V30 3786 H 358.459 0.73527 4.0376 0
M  V30 3787 H 357.99 -0.957529 3.81569 0
M  V30 3788 H 360.005 -1.9864 4.54705 0
M  V30 3789 N 359.178 -1.55987 0.224894 0
M  V30 3790 C 360.424 -1.98684 -0.406502 0
M  V30 3791 C 360.757 -1.11248 -1.59177 0
M  V30 3792 O 360.032 -0.170909 -1.93748 0
M  V30 3793 C 360.315 -3.50218 -0.837808 0
M  V30 3794 C 360.168 -4.48426 0.351332 0
M  V30 3795 C 361.487 -4.06243 -1.69278 0
M  V30 3796 H 358.606 -0.722337 -0.146283 0
M  V30 3797 H 361.248 -1.87255 0.321799 0
M  V30 3798 H 359.398 -3.60089 -1.45837 0
M  V30 3799 H 361.07 -4.50562 0.989526 0
M  V30 3800 H 359.313 -4.22159 0.998207 0
M  V30 3801 H 359.984 -5.52 0.00655905 0
M  V30 3802 H 362.46 -3.99337 -1.16914 0
M  V30 3803 H 361.336 -5.12581 -1.96346 0
M  V30 3804 H 361.597 -3.53332 -2.65723 0
M  V30 3805 N 360.656 0.0484629 -1.57525 0
M  V30 3806 C 361.606 1.06246 -2.01732 0
M  V30 3807 C 362.59 1.33155 -0.903245 0
M  V30 3808 O 363.782 1.33065 -1.16717 0
M  V30 3809 C 360.911 2.36943 -2.48421 0
M  V30 3810 C 359.997 2.13208 -3.6661 0
M  V30 3811 N 360.388 1.5947 -4.80003 0
M  V30 3812 C 358.686 2.43581 -3.7361 0
M  V30 3813 C 359.387 1.51092 -5.61735 0
M  V30 3814 N 358.363 1.9797 -5.0627 0
M  V30 3815 H 362.165 0.640675 -2.86832 0
M  V30 3816 H 359.679 0.255134 -1.60383 0
M  V30 3817 H 361.676 3.10374 -2.78341 0
M  V30 3818 H 360.336 2.79818 -1.64718 0
M  V30 3819 H 361.347 1.28008 -5.01831 0
M  V30 3820 H 358.024 2.89662 -3.00669 0
M  V30 3821 H 359.414 1.10199 -6.62801 0
M  V30 3822 N 362.134 1.5431 0.320358 0
M  V30 3823 C 363.411 1.63322 1.07635 0
M  V30 3824 C 363.791 0.46912 2.05821 0
M  V30 3825 O 363.139 -0.536274 2.22118 0
M  V30 3826 C 363.349 3.00465 1.77544 0
M  V30 3827 C 364.697 3.56621 2.30449 0
M  V30 3828 O 365.721 3.02791 1.87606 0
M  V30 3829 O 364.58 4.5083 3.08892 0
M  V30 3830 H 361.674 0.661502 0.496331 0
M  V30 3831 H 364.22 1.66656 0.319992 0
M  V30 3832 H 362.992 3.76629 1.06143 0
M  V30 3833 H 362.615 3.00824 2.59982 0
M  V30 3834 N 363.613 -0.582584 1.46437 0
M  V30 3835 C 364.859 -1.34278 1.51978 0
M  V30 3836 C 365.192 -1.93446 0.170973 0
M  V30 3837 O 364.467 -1.76481 -0.817608 0
M  V30 3838 C 364.75 -2.47203 2.61845 0
M  V30 3839 C 364.603 -1.93069 4.06257 0
M  V30 3840 C 365.922 -3.49247 2.67795 0
M  V30 3841 H 363.041 -0.486876 0.553282 0
M  V30 3842 H 365.683 -0.654437 1.78374 0
M  V30 3843 H 363.833 -3.0592 2.39469 0
M  V30 3844 H 365.505 -1.38808 4.3992 0
M  V30 3845 H 363.748 -1.23898 4.1573 0
M  V30 3846 H 364.419 -2.74586 4.7886 0
M  V30 3847 H 366.895 -3.00411 2.8791 0
M  V30 3848 H 365.771 -4.25719 3.46489 0
M  V30 3849 H 366.032 -4.06482 1.73852 0
M  V30 3850 N 365.091 -1.34144 -0.827227 0
M  V30 3851 C 366.316 -1.29476 -1.62021 0
M  V30 3852 C 366.741 0.129292 -1.87655 0
M  V30 3853 O 366.099 1.08967 -1.449 0
M  V30 3854 C 366.147 -2.08702 -2.94068 0
M  V30 3855 O 365.251 -1.45359 -3.85933 0
M  V30 3856 H 364.592 -0.444881 -0.492927 0
M  V30 3857 H 367.122 -1.76882 -1.02829 0
M  V30 3858 H 367.132 -2.19898 -3.43669 0
M  V30 3859 H 365.807 -3.12241 -2.74734 0
M  V30 3860 H 364.384 -1.42879 -3.44442 0
M  V30 3861 N 366.569 1.04691 -1.17803 0
M  V30 3862 C 367.794 1.81984 -0.994813 0
M  V30 3863 C 368.219 1.82586 0.452112 0
M  V30 3864 O 367.577 1.23854 1.324 0
M  V30 3865 C 367.625 3.2575 -1.54659 0
M  V30 3866 O 366.729 4.05267 -0.763728 0
M  V30 3867 H 366.07 0.562483 -0.352857 0
M  V30 3868 H 368.6 1.3189 -1.56417 0
M  V30 3869 H 368.61 3.76541 -1.57102 0
M  V30 3870 H 367.285 3.24627 -2.59981 0
M  V30 3871 H 365.862 3.63972 -0.811108 0
M  V30 3872 N 368.047 0.979072 1.23499 0
M  V30 3873 C 369.296 0.642751 1.91185 0
M  V30 3874 C 369.609 -0.827253 1.77245 0
M  V30 3875 O 370.815 -1.27458 2.39722 0
M  V30 3876 C 369.271 1.09901 3.42709 0
M  V30 3877 C 368.879 2.59327 3.65313 0
M  V30 3878 C 370.623 0.836371 4.16179 0
M  V30 3879 C 368.53 2.98627 5.10467 0
M  V30 3880 H 367.46 0.236698 0.715884 0
M  V30 3881 H 370.111 1.1868 1.39955 0
M  V30 3882 H 368.493 0.48319 3.93041 0
M  V30 3883 H 369.667 3.26136 3.25533 0
M  V30 3884 H 367.982 2.83323 3.05151 0
M  V30 3885 H 370.579 1.10586 5.23139 0
M  V30 3886 H 370.922 -0.227509 4.15678 0
M  V30 3887 H 371.455 1.41371 3.71832 0
M  V30 3888 H 368.194 4.04133 5.16098 0
M  V30 3889 H 367.714 2.3651 5.51201 0
M  V30 3890 H 369.393 2.89159 5.78788 0
M  V30 3891 N 369.525 -1.3858 0.750561 0
M  V30 3892 C 370.755 -2.04175 0.31564 0
M  V30 3893 C 371.163 -1.56726 -1.05989 0
M  V30 3894 O 370.506 -0.734225 -1.68389 0
M  V30 3895 C 370.568 -3.58585 0.256389 0
M  V30 3896 C 370.232 -4.29077 1.57296 0
M  V30 3897 C 371.229 -4.54656 2.52159 0
M  V30 3898 C 368.914 -4.67324 1.84156 0
M  V30 3899 C 370.908 -5.17512 3.72103 0
M  V30 3900 C 368.595 -5.29905 3.04374 0
M  V30 3901 C 369.593 -5.54933 3.98168 0
M  V30 3902 O 369.281 -6.16212 5.16273 0
M  V30 3903 H 369.013 -0.662742 0.133226 0
M  V30 3904 H 371.567 -1.78313 1.01948 0
M  V30 3905 H 369.797 -3.83406 -0.503677 0
M  V30 3906 H 371.486 -4.05628 -0.148612 0
M  V30 3907 H 372.252 -4.25539 2.32683 0
M  V30 3908 H 368.131 -4.47191 1.11988 0
M  V30 3909 H 371.675 -5.36963 4.45327 0
M  V30 3910 H 367.572 -5.58444 3.23745 0
M  V30 3911 H 368.34 -6.34701 5.16815 0
M  V30 3912 N 371.003 -0.499398 -1.49478 0
M  V30 3913 C 372.419 -0.155261 -1.58843 0
M  V30 3914 C 372.619 1.34008 -1.50479 0
M  V30 3915 O 371.675 2.11589 -1.37791 0
M  V30 3916 C 372.988 -0.730636 -2.91689 0
M  V30 3917 C 374.536 -0.696599 -3.0515 0
M  V30 3918 C 375.011 -1.25001 -4.40612 0
M  V30 3919 N 376.502 -1.21064 -4.47099 0
M  V30 3920 C 377.237 -1.60905 -5.50361 0
M  V30 3921 N 376.733 -2.08331 -6.60735 0
M  V30 3922 N 378.526 -1.52331 -5.41065 0
M  V30 3923 H 370.677 -1.47162 -1.53158 0
M  V30 3924 H 372.94 -0.610309 -0.725415 0
M  V30 3925 H 372.646 -1.77928 -3.03372 0
M  V30 3926 H 372.52 -0.190161 -3.7672 0
M  V30 3927 H 374.907 0.343204 -2.93097 0
M  V30 3928 H 374.988 -1.2742 -2.21806 0
M  V30 3929 H 374.632 -2.28859 -4.53416 0
M  V30 3930 H 374.562 -0.64836 -5.22593 0
M  V30 3931 H 377.053 -0.863128 -3.67911 0
M  V30 3932 H 377.366 -2.36805 -7.35624 0
M  V30 3933 H 375.711 -2.12304 -6.6178 0
M  V30 3934 H 378.902 -1.151 -4.53729 0
M  V30 3935 H 379.075 -1.83704 -6.21415 0
M  V30 3936 N 372.481 1.55866 -0.233164 0
M  V30 3937 C 373.727 1.98897 0.395959 0
M  V30 3938 C 374.06 1.12091 1.58585 0
M  V30 3939 O 373.335 0.181182 1.93654 0
M  V30 3940 C 373.618 3.50658 0.819224 0
M  V30 3941 C 373.471 4.48233 -0.375109 0
M  V30 3942 C 374.79 4.07135 1.67121 0
M  V30 3943 H 371.909 0.723102 0.142451 0
M  V30 3944 H 374.551 1.87082 -0.331725 0
M  V30 3945 H 372.701 3.60857 1.43925 0
M  V30 3946 H 374.373 4.50031 -1.01341 0
M  V30 3947 H 372.616 4.21624 -1.02058 0
M  V30 3948 H 373.287 5.51988 -0.0358328 0
M  V30 3949 H 375.763 3.99952 1.14795 0
M  V30 3950 H 374.639 5.13615 1.93625 0
M  V30 3951 H 374.9 3.54736 2.63846 0
M  V30 3952 N 373.959 -0.0401083 1.57549 0
M  V30 3953 C 375.37 -0.588097 1.77196 0
M  V30 3954 C 375.721 -1.76209 0.862832 0
M  V30 3955 O 374.846 -2.16331 0.0548389 0
M  V30 3956 C 375.441 -1.07363 3.21339 0
M  V30 3957 C 374 -1.56723 3.42221 0
M  V30 3958 C 373.147 -0.50041 2.72747 0
M  V30 3959 H 376.098 0.186119 1.57605 0
M  V30 3960 H 376.119 -1.94143 3.27244 0
M  V30 3961 H 375.631 -0.218975 3.87482 0
M  V30 3962 H 373.732 -2.4441 2.81237 0
M  V30 3963 H 373.845 -1.62234 4.50796 0
M  V30 3964 H 372.209 -0.952894 2.36203 0
M  V30 3965 H 372.992 0.344599 3.41566 0
M  V30 3966 N 375.437 -1.54477 -0.31217 0
M  V30 3967 C 376.367 -1.87652 -1.38957 0
M  V30 3968 C 377.348 -0.734358 -1.53431 0
M  V30 3969 O 378.533 -0.98911 -1.67123 0
M  V30 3970 C 375.663 -2.11396 -2.75552 0
M  V30 3971 C 374.617 -3.27243 -2.75855 0
M  V30 3972 C 373.943 -3.36382 -4.15633 0
M  V30 3973 C 375.243 -4.64622 -2.38587 0
M  V30 3974 H 376.937 -2.77887 -1.11442 0
M  V30 3975 H 374.483 -1.33707 -0.534655 0
M  V30 3976 H 376.436 -2.33189 -3.51 0
M  V30 3977 H 375.16 -1.17921 -3.04569 0
M  V30 3978 H 373.819 -3.05356 -2.02863 0
M  V30 3979 H 373.467 -2.40445 -4.41809 0
M  V30 3980 H 373.167 -4.14249 -4.1674 0
M  V30 3981 H 374.691 -3.60422 -4.92877 0
M  V30 3982 H 376.105 -4.86219 -3.03749 0
M  V30 3983 H 374.502 -5.45121 -2.50925 0
M  V30 3984 H 375.572 -4.66097 -1.33723 0
M  V30 3985 N 376.915 0.57481 -1.46744 0
M  V30 3986 C 377.845 1.69337 -1.60771 0
M  V30 3987 C 378.826 1.63825 -0.457736 0
M  V30 3988 O 380.011 1.8172 -0.684947 0
M  V30 3989 C 377.141 3.0798 -1.60517 0
M  V30 3990 C 376.095 3.28327 -2.74564 0
M  V30 3991 C 375.421 4.67578 -2.59373 0
M  V30 3992 C 376.721 3.15398 -4.16319 0
M  V30 3993 H 378.415 1.57853 -2.54407 0
M  V30 3994 H 375.961 0.75799 -1.22436 0
M  V30 3995 H 377.914 3.86061 -1.68923 0
M  V30 3996 H 376.638 3.20381 -0.634305 0
M  V30 3997 H 375.297 2.52649 -2.65639 0
M  V30 3998 H 374.945 4.76755 -1.60353 0
M  V30 3999 H 374.645 4.82144 -3.35873 0
M  V30 4000 H 376.169 5.47817 -2.69682 0
M  V30 4001 H 377.583 3.83315 -4.26313 0
M  V30 4002 H 375.98 3.41482 -4.93468 0
M  V30 4003 H 377.05 2.12372 -4.3592 0
M  V30 4004 N 378.394 1.34581 0.820102 0
M  V30 4005 C 379.324 1.29038 1.94606 0
M  V30 4006 C 380.305 0.1673 1.69275 0
M  V30 4007 O 381.49 0.360112 1.90832 0
M  V30 4008 C 378.62 1.04793 3.31113 0
M  V30 4009 C 377.574 2.13597 3.70891 0
M  V30 4010 C 376.9 1.74537 5.05412 0
M  V30 4011 C 378.2 3.55451 3.8269 0
M  V30 4012 H 379.894 2.23248 1.99501 0
M  V30 4013 H 377.44 1.0747 0.958449 0
M  V30 4014 H 379.393 0.995592 4.0947 0
M  V30 4015 H 378.117 0.0702565 3.26524 0
M  V30 4016 H 376.776 2.17905 2.9481 0
M  V30 4017 H 376.424 0.754226 4.97313 0
M  V30 4018 H 376.124 2.47361 5.32997 0
M  V30 4019 H 377.648 1.70803 5.86224 0
M  V30 4020 H 379.062 3.5354 4.51312 0
M  V30 4021 H 377.459 4.26922 4.21732 0
M  V30 4022 H 378.529 3.92587 2.84611 0
M  V30 4023 N 379.872 -1.04064 1.18357 0
M  V30 4024 C 380.782 -2.15569 0.925596 0
M  V30 4025 C 381.798 -1.7365 -0.110295 0
M  V30 4026 O 382.974 -2.01273 0.0716218 0
M  V30 4027 C 380.039 -3.43704 0.454836 0
M  V30 4028 C 379.1 -4.00004 1.55869 0
M  V30 4029 C 378.333 -5.22023 1.1103 0
M  V30 4030 O 378.556 -5.70392 -0.0309756 0
M  V30 4031 O 377.49 -5.70856 1.90805 0
M  V30 4032 H 381.316 -2.40187 1.8586 0
M  V30 4033 H 378.901 -1.1402 0.965394 0
M  V30 4034 H 380.783 -4.20923 0.200382 0
M  V30 4035 H 379.458 -3.20559 -0.449876 0
M  V30 4036 H 378.365 -3.24172 1.86716 0
M  V30 4037 H 379.698 -4.2749 2.43953 0
M  V30 4038 N 381.35 -0.985608 -1.22978 0
M  V30 4039 C 382.26 -0.538548 -2.28335 0
M  V30 4040 C 383.276 0.409163 -1.69121 0
M  V30 4041 O 384.452 0.277797 -1.99475 0
M  V30 4042 C 381.517 0.146867 -3.46389 0
M  V30 4043 C 380.578 -0.842896 -4.20944 0
M  V30 4044 C 379.811 -0.190095 -5.33361 0
M  V30 4045 O 380.034 1.01767 -5.61248 0
M  V30 4046 O 378.968 -0.891289 -5.95264 0
M  V30 4047 H 382.794 -1.41487 -2.68729 0
M  V30 4048 H 380.379 -0.753495 -1.29007 0
M  V30 4049 H 382.261 0.531125 -4.1804 0
M  V30 4050 H 380.936 0.997871 -3.07935 0
M  V30 4051 H 379.843 -1.27795 -3.51595 0
M  V30 4052 H 381.176 -1.66287 -4.6326 0
M  V30 4053 N 382.828 1.3818 -0.7579 0
M  V30 4054 C 383.76 2.2901 -0.0932177 0
M  V30 4055 C 384.773 1.47958 0.679136 0
M  V30 4056 O 385.962 1.70773 0.519514 0
M  V30 4057 C 383.062 3.26953 0.89192 0
M  V30 4058 C 382.235 4.37045 0.176303 0
M  V30 4059 C 381.294 5.15148 1.07281 0
M  V30 4060 O 380.32 5.66616 0.541728 0
M  V30 4061 N 381.522 5.28542 2.40049 0
M  V30 4062 H 384.287 2.86694 -0.873303 0
M  V30 4063 H 381.848 1.50007 -0.609054 0
M  V30 4064 H 383.84 3.76083 1.49479 0
M  V30 4065 H 382.41 2.70136 1.57306 0
M  V30 4066 H 381.63 3.89493 -0.607328 0
M  V30 4067 H 382.918 5.07801 -0.318718 0
M  V30 4068 H 382.316 4.88285 2.85647 0
M  V30 4069 H 380.873 5.8103 2.95376 0
M  V30 4070 N 384.306 0.507319 1.49211 0
M  V30 4071 C 385.554 -0.0348839 2.0207 0
M  V30 4072 C 385.875 -1.36898 1.38866 0
M  V30 4073 O 385.145 -1.88133 0.546151 0
M  V30 4074 H 383.725 -0.0158812 0.746831 0
M  V30 4075 H 386.387 0.665998 1.83168 0
M  V30 4076 H 385.483 -0.159917 3.1169 0
M  V30 4077 N 385.784 -1.5574 0.241426 0
M  V30 4078 C 387.03 -1.99104 -0.385406 0
M  V30 4079 C 387.363 -1.1293 -1.57988 0
M  V30 4080 O 386.638 -0.191449 -1.93555 0
M  V30 4081 C 386.921 -3.51087 -0.800616 0
M  V30 4082 C 386.774 -4.48028 0.398874 0
M  V30 4083 C 388.093 -4.08015 -1.64959 0
M  V30 4084 H 385.212 -0.723848 -0.138614 0
M  V30 4085 H 387.854 -1.86903 0.341642 0
M  V30 4086 H 386.004 -3.61615 -1.4201 0
M  V30 4087 H 387.676 -4.49487 1.03726 0
M  V30 4088 H 385.919 -4.21077 1.04293 0
M  V30 4089 H 386.59 -5.51962 0.0651056 0
M  V30 4090 H 389.066 -4.00555 -1.12672 0
M  V30 4091 H 387.942 -5.14635 -1.90898 0
M  V30 4092 H 388.203 -3.56131 -2.61961 0
M  V30 4093 N 387.262 0.0317525 -1.57568 0
M  V30 4094 C 388.508 0.724175 -1.8943 0
M  V30 4095 C 388.841 1.75149 -0.838836 0
M  V30 4096 O 388.116 1.93948 0.146422 0
M  V30 4097 C 388.399 1.39615 -3.31933 0
M  V30 4098 C 388.252 0.382537 -4.4817 0
M  V30 4099 C 389.571 2.33084 -3.73309 0
M  V30 4100 H 386.69 0.261797 -0.688935 0
M  V30 4101 H 389.332 -0.013017 -1.89996 0
M  V30 4102 H 387.482 2.02451 -3.31581 0
M  V30 4103 H 389.154 -0.243689 -4.60656 0
M  V30 4104 H 387.397 -0.29844 -4.32772 0
M  V30 4105 H 388.068 0.891145 -5.44759 0
M  V30 4106 H 390.544 1.80295 -3.7501 0
M  V30 4107 H 389.42 2.77084 -4.73831 0
M  V30 4108 H 389.681 3.19643 -3.05419 0
M  V30 4109 N 388.74 1.54641 0.303973 0
M  V30 4110 C 390.017 1.64455 1.05896 0
M  V30 4111 C 390.397 0.490923 2.05312 0
M  V30 4112 O 389.745 -0.512685 2.22674 0
M  V30 4113 C 389.955 3.02331 1.74347 0
M  V30 4114 C 391.303 3.59045 2.26653 0
M  V30 4115 O 392.327 3.04764 1.84384 0
M  V30 4116 O 391.186 4.54081 3.04093 0
M  V30 4117 H 388.28 0.666729 0.489287 0
M  V30 4118 H 390.826 1.66986 0.302298 0
M  V30 4119 H 389.598 3.77734 1.02142 0
M  V30 4120 H 389.221 3.03565 2.56777 0
M  V30 4121 N 390.218 -0.567019 1.47046 0
M  V30 4122 C 391.448 -1.34831 1.56538 0
M  V30 4123 C 391.856 -1.8802 0.21101 0
M  V30 4124 O 391.199 -1.65152 -0.804387 0
M  V30 4125 C 391.261 -2.56139 2.52256 0
M  V30 4126 C 390.925 -2.24307 3.98165 0
M  V30 4127 C 391.922 -1.82192 4.86931 0
M  V30 4128 C 389.607 -2.35968 4.43423 0
M  V30 4129 C 391.601 -1.52153 6.18973 0
M  V30 4130 C 389.288 -2.05542 5.75496 0
M  V30 4131 C 390.286 -1.63701 6.63092 0
M  V30 4132 O 389.974 -1.33657 7.92711 0
M  V30 4133 H 389.706 -0.417683 0.531523 0
M  V30 4134 H 392.26 -0.694726 1.93294 0
M  V30 4135 H 390.49 -3.24356 2.10548 0
M  V30 4136 H 392.179 -3.18214 2.51982 0
M  V30 4137 H 392.945 -1.72684 4.53217 0
M  V30 4138 H 388.824 -2.67495 3.75456 0
M  V30 4139 H 392.368 -1.19421 6.87302 0
M  V30 4140 H 388.265 -2.14679 6.08755 0
M  V30 4141 H 389.033 -1.4737 8.05124 0
M  V30 4142 N 391.696 -1.35014 -0.812953 0
M  V30 4143 C 392.943 -1.27931 -1.56971 0
M  V30 4144 C 393.271 0.148034 -1.93936 0
M  V30 4145 O 392.526 1.11175 -1.61054 0
M  V30 4146 C 392.825 -2.12524 -2.87347 0
M  V30 4147 C 392.491 -3.61401 -2.6963 0
M  V30 4148 C 391.153 -4.01983 -2.64506 0
M  V30 4149 C 393.505 -4.55894 -2.52607 0
M  V30 4150 C 390.833 -5.35235 -2.40293 0
M  V30 4151 C 393.185 -5.89336 -2.29925 0
M  V30 4152 C 391.849 -6.2907 -2.23219 0
M  V30 4153 H 391.119 -0.468131 -0.574399 0
M  V30 4154 H 393.766 -1.66851 -0.939836 0
M  V30 4155 H 392.071 -1.66463 -3.54679 0
M  V30 4156 H 393.768 -2.04383 -3.45005 0
M  V30 4157 H 390.358 -3.29193 -2.74463 0
M  V30 4158 H 394.542 -4.25431 -2.55583 0
M  V30 4159 H 389.798 -5.65028 -2.33566 0
M  V30 4160 H 393.972 -6.62139 -2.15743 0
M  V30 4161 H 391.599 -7.32256 -2.04219 0
M  V30 4162 N 393.175 1.03435 -1.18907 0
M  V30 4163 C 394.105 2.13503 -0.945448 0
M  V30 4164 C 395.086 1.69682 0.119189 0
M  V30 4165 O 396.271 1.94169 -0.034707 0
M  V30 4166 C 393.401 3.44004 -0.477316 0
M  V30 4167 C 392.355 4.0148 -1.48316 0
M  V30 4168 C 391.681 5.27537 -0.872311 0
M  V30 4169 C 392.981 4.36921 -2.86177 0
M  V30 4170 H 394.675 2.34141 -1.86597 0
M  V30 4171 H 392.221 1.12523 -0.898584 0
M  V30 4172 H 394.174 4.20372 -0.294204 0
M  V30 4173 H 392.898 3.23072 0.478786 0
M  V30 4174 H 391.557 3.27201 -1.65332 0
M  V30 4175 H 391.205 5.02917 0.0911752 0
M  V30 4176 H 390.905 5.66954 -1.54393 0
M  V30 4177 H 392.429 6.06576 -0.699871 0
M  V30 4178 H 393.843 5.04248 -2.72776 0
M  V30 4179 H 392.24 4.87405 -3.50081 0
M  V30 4180 H 393.31 3.46466 -3.39248 0
M  V30 4181 N 394.653 0.992116 1.22453 0
M  V30 4182 C 396.069 0.702713 1.43297 0
M  V30 4183 C 396.269 -0.726909 1.87932 0
M  V30 4184 O 395.325 -1.49792 2.0327 0
M  V30 4185 C 396.638 1.70762 2.47509 0
M  V30 4186 C 398.186 1.72298 2.61309 0
M  V30 4187 C 398.661 2.71649 3.68742 0
M  V30 4188 N 400.152 2.70239 3.76199 0
M  V30 4189 C 400.887 3.43778 4.58917 0
M  V30 4190 N 400.383 4.26914 5.45633 0
M  V30 4191 N 402.176 3.32487 4.5322 0
M  V30 4192 H 394.327 1.91543 0.917871 0
M  V30 4193 H 396.59 0.826031 0.465162 0
M  V30 4194 H 396.296 2.73059 2.21657 0
M  V30 4195 H 396.17 1.49985 3.46099 0
M  V30 4196 H 398.557 0.706989 2.86506 0
M  V30 4197 H 398.638 1.97143 1.62997 0
M  V30 4198 H 398.282 3.73397 3.44292 0
M  V30 4199 H 398.212 2.44074 4.66622 0
M  V30 4200 H 400.703 2.09912 3.14237 0
M  V30 4201 H 401.016 4.79855 6.05771 0
M  V30 4202 H 399.361 4.31002 5.45218 0
M  V30 4203 H 402.552 2.6698 3.84499 0
M  V30 4204 H 402.725 3.90058 5.17454 0
M  V30 4205 N 396.131 -1.37776 0.765217 0
M  V30 4206 C 397.547 -1.53297 0.444108 0
M  V30 4207 C 397.747 -1.72515 -1.04119 0
M  V30 4208 O 396.803 -1.74278 -1.82711 0
M  V30 4209 C 398.116 -2.73328 1.25349 0
M  V30 4210 C 399.664 -2.87185 1.24473 0
M  V30 4211 C 400.139 -4.10191 2.03733 0
M  V30 4212 N 401.63 -4.17291 2.01053 0
M  V30 4213 C 402.365 -5.11488 2.59166 0
M  V30 4214 N 401.861 -6.11285 3.26041 0
M  V30 4215 N 403.654 -5.03924 2.49032 0
M  V30 4216 H 395.805 -1.23552 1.72768 0
M  V30 4217 H 398.068 -0.601103 0.733062 0
M  V30 4218 H 397.774 -2.6557 2.30577 0
M  V30 4219 H 397.648 -3.66834 0.87823 0
M  V30 4220 H 400.035 -2.94418 0.20047 0
M  V30 4221 H 400.116 -1.94657 1.65959 0
M  V30 4222 H 399.76 -4.0372 3.08176 0
M  V30 4223 H 399.69 -5.01821 1.59633 0
M  V30 4224 H 402.181 -3.45825 1.5236 0
M  V30 4225 H 402.494 -6.79678 3.67774 0
M  V30 4226 H 400.839 -6.11583 3.30138 0
M  V30 4227 H 404.03 -4.24902 1.96407 0
M  V30 4228 H 404.203 -5.77152 2.94617 0
M  V30 4229 N 397.609 -0.515225 -1.4894 0
M  V30 4230 C 398.539 0.244628 -2.32215 0
M  V30 4231 C 399.52 0.949136 -1.41157 0
M  V30 4232 O 400.705 0.937783 -1.70057 0
M  V30 4233 C 397.835 1.30096 -3.22013 0
M  V30 4234 C 396.789 0.715486 -4.21977 0
M  V30 4235 C 396.115 1.87339 -5.00808 0
M  V30 4236 C 397.415 -0.302982 -5.2142 0
M  V30 4237 H 399.109 -0.450501 -2.95991 0
M  V30 4238 H 396.655 -0.218098 -1.42339 0
M  V30 4239 H 398.608 1.84037 -3.79089 0
M  V30 4240 H 397.332 2.02547 -2.56207 0
M  V30 4241 H 395.991 0.197715 -3.66066 0
M  V30 4242 H 395.639 2.58592 -4.31438 0
M  V30 4243 H 395.339 1.48764 -5.68457 0
M  V30 4244 H 396.863 2.41686 -5.60732 0
M  V30 4245 H 398.277 0.148802 -5.73107 0
M  V30 4246 H 396.674 -0.60532 -5.97039 0
M  V30 4247 H 397.744 -1.21395 -4.69459 0
M  V30 4248 N 399.087 1.5561 -0.249682 0
M  V30 4249 C 400.364 1.90932 0.424761 0
M  V30 4250 C 400.744 1.17078 1.75658 0
M  V30 4251 O 400.092 0.289176 2.26663 0
M  V30 4252 C 400.302 3.43975 0.590109 0
M  V30 4253 C 401.65 4.15281 0.884714 0
M  V30 4254 O 402.674 3.49729 0.67587 0
M  V30 4255 O 401.533 5.31236 1.28259 0
M  V30 4256 H 398.627 0.794815 0.228468 0
M  V30 4257 H 401.173 1.67135 -0.293954 0
M  V30 4258 H 399.945 3.89748 -0.34818 0
M  V30 4259 H 399.568 3.73644 1.35926 0
M  V30 4260 N 400.565 -0.0233959 1.57583 0
M  V30 4261 C 401.495 -1.02162 2.09965 0
M  V30 4262 C 402.476 -1.3735 1.00344 0
M  V30 4263 O 403.661 -1.46135 1.27899 0
M  V30 4264 C 400.791 -2.32081 2.58371 0
M  V30 4265 C 399.745 -2.1112 3.72307 0
M  V30 4266 C 399.071 -3.46848 4.06941 0
M  V30 4267 C 400.371 -1.49276 5.00514 0
M  V30 4268 H 402.065 -0.585557 2.93618 0
M  V30 4269 H 399.611 -0.280218 1.41247 0
M  V30 4270 H 401.564 -3.02249 2.93639 0
M  V30 4271 H 400.288 -2.77758 1.71808 0
M  V30 4272 H 398.947 -1.43384 3.37397 0
M  V30 4273 H 398.595 -3.90184 3.17436 0
M  V30 4274 H 398.295 -3.33646 4.83688 0
M  V30 4275 H 399.819 -4.18369 4.44747 0
M  V30 4276 H 401.233 -2.09368 5.33702 0
M  V30 4277 H 399.63 -1.46632 5.8191 0
M  V30 4278 H 400.7 -0.459217 4.82721 0
M  V30 4279 N 402.043 -1.548 -0.295768 0
M  V30 4280 C 403.454 -1.65274 -0.868411 0
M  V30 4281 C 403.805 -0.56481 -1.87894 0
M  V30 4282 O 402.93 0.29767 -2.14343 0
M  V30 4283 C 403.525 -2.99603 -1.58188 0
M  V30 4284 C 402.084 -3.12181 -2.10286 0
M  V30 4285 C 401.231 -2.6098 -0.93727 0
M  V30 4286 H 404.182 -1.58534 -0.0726422 0
M  V30 4287 H 404.203 -2.91319 -2.44772 0
M  V30 4288 H 403.715 -3.78764 -0.846151 0
M  V30 4289 H 401.816 -2.3775 -2.8689 0
M  V30 4290 H 401.929 -4.18415 -2.33379 0
M  V30 4291 H 400.293 -2.17564 -1.32431 0
M  V30 4292 H 401.076 -3.42623 -0.215414 0
M  V30 4293 N 403.521 0.559213 -1.47345 0
M  V30 4294 C 404.77 1.31281 -1.53128 0
M  V30 4295 C 405.083 1.94602 -0.197344 0
M  V30 4296 O 406.289 2.71173 -0.133154 0
M  V30 4297 C 404.745 2.38051 -2.69925 0
M  V30 4298 C 404.353 1.8093 -4.0984 0
M  V30 4299 C 406.097 3.14604 -2.84999 0
M  V30 4300 C 404.004 2.85468 -5.1794 0
M  V30 4301 H 402.934 0.493614 -0.569966 0
M  V30 4302 H 405.585 0.594155 -1.73615 0
M  V30 4303 H 403.967 3.12822 -2.42814 0
M  V30 4304 H 405.141 1.12544 -4.46845 0
M  V30 4305 H 403.456 1.16967 -3.99634 0
M  V30 4306 H 406.053 3.92666 -3.62929 0
M  V30 4307 H 406.396 3.68665 -1.93369 0
M  V30 4308 H 406.929 2.46945 -3.1187 0
M  V30 4309 H 403.668 2.36264 -6.1144 0
M  V30 4310 H 403.188 3.52269 -4.85455 0
M  V30 4311 H 404.867 3.48996 -5.44803 0
M  V30 4312 N 404.999 1.35443 0.805782 0
M  V30 4313 C 405.909 1.30546 1.94923 0
M  V30 4314 C 406.925 0.210233 1.72725 0
M  V30 4315 O 408.101 0.43975 1.9654 0
M  V30 4316 C 405.166 1.07782 3.29521 0
M  V30 4317 C 404.227 2.26625 3.64609 0
M  V30 4318 C 403.46 2.04938 4.92784 0
M  V30 4319 O 403.683 1.01624 5.61274 0
M  V30 4320 O 402.617 2.9232 5.26149 0
M  V30 4321 H 406.443 2.26779 2.02002 0
M  V30 4322 H 404.028 1.15823 0.943682 0
M  V30 4323 H 405.91 0.969392 4.10098 0
M  V30 4324 H 404.585 0.146003 3.23371 0
M  V30 4325 H 403.492 2.43033 2.84404 0
M  V30 4326 H 404.825 3.18257 3.75464 0
M  V30 4327 N 406.477 -1.02803 1.19454 0
M  V30 4328 C 407.893 -1.28473 0.946937 0
M  V30 4329 C 408.093 -1.97881 -0.380202 0
M  V30 4330 O 407.149 -2.26719 -1.11151 0
M  V30 4331 C 408.462 -2.13099 2.12154 0
M  V30 4332 C 410.01 -2.26404 2.16126 0
M  V30 4333 C 410.485 -3.14402 3.33039 0
M  V30 4334 N 411.976 -3.21991 3.32981 0
M  V30 4335 C 412.711 -3.90272 4.20089 0
M  V30 4336 N 412.207 -4.60777 5.17355 0
M  V30 4337 N 414 -3.8668 4.07964 0
M  V30 4338 H 406.151 -0.561665 2.04839 0
M  V30 4339 H 408.414 -0.310438 0.89573 0
M  V30 4340 H 408.12 -1.69422 3.08203 0
M  V30 4341 H 407.994 -3.13813 2.09287 0
M  V30 4342 H 410.381 -2.69311 1.20647 0
M  V30 4343 H 410.462 -1.25237 2.23045 0
M  V30 4344 H 410.106 -2.72204 4.28798 0
M  V30 4345 H 410.036 -4.1563 3.23356 0
M  V30 4346 H 412.527 -2.71778 2.62574 0
M  V30 4347 H 412.84 -5.10513 5.80169 0
M  V30 4348 H 411.185 -4.5964 5.21302 0
M  V30 4349 H 414.376 -3.30739 3.31254 0
M  V30 4350 H 414.549 -4.39621 4.76064 0
M  V30 4351 N 407.956 -0.998596 -1.21925 0
M  V30 4352 C 408.888 -0.511879 -2.23411 0
M  V30 4353 C 409.901 0.396094 -1.57908 0
M  V30 4354 O 411.09 0.197316 -1.77406 0
M  V30 4355 C 408.19 0.276802 -3.37768 0
M  V30 4356 C 407.363 -0.628687 -4.32858 0
M  V30 4357 C 406.422 0.109272 -5.26087 0
M  V30 4358 O 405.448 -0.507237 -5.66935 0
M  V30 4359 N 406.65 1.38983 -5.63617 0
M  V30 4360 H 409.415 -1.38457 -2.658 0
M  V30 4361 H 406.976 -0.873981 -1.36283 0
M  V30 4362 H 408.968 0.77928 -3.97126 0
M  V30 4363 H 407.538 1.05063 -2.94415 0
M  V30 4364 H 406.758 -1.31175 -3.71735 0
M  V30 4365 H 408.046 -1.24514 -4.93329 0
M  V30 4366 H 407.444 1.91194 -5.32411 0
M  V30 4367 H 406.001 1.83739 -6.25367 0
M  V30 4368 N 409.434 1.37368 -0.772513 0
M  V30 4369 C 410.845 1.8231 -0.402493 0
M  V30 4370 C 411.196 1.6436 1.07146 0
M  V30 4371 O 410.321 1.15514 1.82991 0
M  V30 4372 C 410.916 3.30979 -0.723776 0
M  V30 4373 C 409.475 3.74195 -0.406802 0
M  V30 4374 C 408.622 2.59885 -0.967218 0
M  V30 4375 H 411.573 1.25829 -0.967099 0
M  V30 4376 H 411.594 3.80499 -0.00870832 0
M  V30 4377 H 411.106 3.44011 -1.7966 0
M  V30 4378 H 409.207 3.66732 0.658673 0
M  V30 4379 H 409.32 4.7027 -0.915588 0
M  V30 4380 H 407.684 2.51674 -0.391416 0
M  V30 4381 H 408.467 2.7571 -2.04546 0
M  V30 4382 N 410.912 0.523116 1.48665 0
M  V30 4383 C 412.328 0.180511 1.58576 0
M  V30 4384 C 412.528 -1.31597 1.52592 0
M  V30 4385 O 411.584 -2.0937 1.4114 0
M  V30 4386 C 412.897 0.776949 2.90489 0
M  V30 4387 C 414.445 0.745058 3.04003 0
M  V30 4388 C 414.92 1.31995 4.38567 0
M  V30 4389 N 416.411 1.28162 4.45117 0
M  V30 4390 C 417.146 1.6964 5.47731 0
M  V30 4391 N 416.642 2.18816 6.57337 0
M  V30 4392 N 418.435 1.6092 5.38573 0
M  V30 4393 H 410.586 1.4958 1.50797 0
M  V30 4394 H 412.849 0.621772 0.715614 0
M  V30 4395 H 412.555 1.82732 3.00503 0
M  V30 4396 H 412.429 0.25007 3.7637 0
M  V30 4397 H 414.816 -0.296532 2.93606 0
M  V30 4398 H 414.897 1.30933 2.1975 0
M  V30 4399 H 414.541 2.36043 4.49718 0
M  V30 4400 H 414.471 0.731418 5.21496 0
M  V30 4401 H 416.962 0.92155 3.66491 0
M  V30 4402 H 417.275 2.48478 7.31764 0
M  V30 4403 H 415.62 2.22805 6.58318 0
M  V30 4404 H 418.811 1.22304 4.5184 0
M  V30 4405 H 418.984 1.93567 6.18414 0
M  V30 4406 N 412.39 -1.55475 0.257931 0
M  V30 4407 C 413.337 -2.21837 -0.636939 0
M  V30 4408 C 414.307 -1.18596 -1.16294 0
M  V30 4409 O 415.492 -1.47081 -1.21539 0
M  V30 4410 C 412.632 -2.9301 -1.82317 0
M  V30 4411 C 411.745 -4.10931 -1.33265 0
M  V30 4412 C 410.88 -4.69791 -2.47931 0
M  V30 4413 C 409.919 -5.7994 -1.95796 0
M  V30 4414 N 409.056 -6.32935 -3.0387 0
M  V30 4415 H 413.896 -2.9793 -0.0643591 0
M  V30 4416 H 411.433 -1.47086 -0.0200031 0
M  V30 4417 H 413.391 -3.3248 -2.52018 0
M  V30 4418 H 412.021 -2.1937 -2.36805 0
M  V30 4419 H 411.073 -3.76699 -0.52931 0
M  V30 4420 H 412.385 -4.90417 -0.910654 0
M  V30 4421 H 411.539 -5.11892 -3.25656 0
M  V30 4422 H 410.278 -3.89545 -2.93438 0
M  V30 4423 H 409.283 -5.37305 -1.16546 0
M  V30 4424 H 410.508 -6.62043 -1.51246 0
M  V30 4425 H 408.454 -5.55591 -3.48791 0
M  V30 4426 H 408.371 -7.07645 -2.66035 0
M  V30 4427 H 409.639 -6.79695 -3.81621 0
M  V30 4428 N 413.868 0.0150385 -1.57593 0
M  V30 4429 C 414.801 1.04475 -2.0288 0
M  V30 4430 C 415.779 1.3436 -0.915764 0
M  V30 4431 O 416.963 1.46779 -1.18271 0
M  V30 4432 C 414.09 2.37608 -2.41371 0
M  V30 4433 C 413.136 2.23487 -3.63257 0
M  V30 4434 S 413.969 1.57505 -5.11813 0
M  V30 4435 C 415.125 2.921 -5.5356 0
M  V30 4436 H 415.358 0.65907 -2.89903 0
M  V30 4437 H 412.891 0.225452 -1.52745 0
M  V30 4438 H 414.849 3.14165 -2.64217 0
M  V30 4439 H 413.51 2.7332 -1.54775 0
M  V30 4440 H 412.703 3.21802 -3.87891 0
M  V30 4441 H 412.305 1.55074 -3.40335 0
M  V30 4442 H 414.597 3.88419 -5.55101 0
M  V30 4443 H 415.54 2.72184 -6.53698 0
M  V30 4444 H 415.948 2.95318 -4.8109 0
M  V30 4445 N 415.346 1.54954 0.287554 0
M  V30 4446 C 416.276 1.89839 1.35954 0
M  V30 4447 C 417.257 0.758675 1.52244 0
M  V30 4448 O 418.442 1.01557 1.65529 0
M  V30 4449 C 415.572 2.15753 2.72154 0
M  V30 4450 C 414.526 3.3159 2.70614 0
M  V30 4451 C 413.852 3.42952 4.10229 0
M  V30 4452 C 415.152 4.68359 2.31165 0
M  V30 4453 H 416.846 2.79625 1.07007 0
M  V30 4454 H 414.392 1.3454 0.513316 0
M  V30 4455 H 416.345 2.38743 3.47246 0
M  V30 4456 H 415.069 1.22752 3.02654 0
M  V30 4457 H 413.728 3.08545 1.97979 0
M  V30 4458 H 413.376 2.47443 4.37928 0
M  V30 4459 H 413.076 4.20826 4.10097 0
M  V30 4460 H 414.6 3.68218 4.87081 0
M  V30 4461 H 416.014 4.9099 2.95976 0
M  V30 4462 H 414.411 5.49044 2.42221 0
M  V30 4463 H 415.481 4.68165 1.26291 0
M  V30 4464 N 416.824 -0.551391 1.4764 0
M  V30 4465 C 417.757 -1.6738 1.5511 0
M  V30 4466 C 418.735 -1.5753 0.402856 0
M  V30 4467 O 419.919 -1.78307 0.611475 0
M  V30 4468 C 417.046 -3.05661 1.45908 0
M  V30 4469 C 416.092 -3.33938 2.65307 0
M  V30 4470 S 416.925 -3.22553 4.27457 0
M  V30 4471 C 418.081 -4.63317 4.20818 0
M  V30 4472 H 418.314 -1.6079 2.50068 0
M  V30 4473 H 415.847 -0.732674 1.35909 0
M  V30 4474 H 417.805 -3.8542 1.41286 0
M  V30 4475 H 416.466 -3.09711 0.523248 0
M  V30 4476 H 415.659 -4.34761 2.54948 0
M  V30 4477 H 415.261 -2.61809 2.67081 0
M  V30 4478 H 417.553 -5.54391 3.89431 0
M  V30 4479 H 418.496 -4.78732 5.21748 0
M  V30 4480 H 418.904 -4.41636 3.51593 0
M  V30 4481 N 418.302 -1.35869 -0.798587 0
M  V30 4482 C 419.249 -1.29446 -1.91082 0
M  V30 4483 C 420.219 -0.16487 -1.6528 0
M  V30 4484 O 421.404 -0.349888 -1.87564 0
M  V30 4485 C 418.544 -1.0804 -3.27752 0
M  V30 4486 C 417.657 -2.29993 -3.65687 0
M  V30 4487 C 416.792 -2.01673 -4.91428 0
M  V30 4488 C 415.831 -3.19636 -5.22015 0
M  V30 4489 N 414.968 -2.91039 -6.38937 0
M  V30 4490 H 419.808 -2.24553 -1.95907 0
M  V30 4491 H 417.345 -1.11615 -0.958148 0
M  V30 4492 H 419.303 -0.936586 -4.06551 0
M  V30 4493 H 417.933 -0.16592 -3.22373 0
M  V30 4494 H 416.985 -2.55211 -2.82085 0
M  V30 4495 H 418.297 -3.18052 -3.84245 0
M  V30 4496 H 417.451 -1.84168 -5.78072 0
M  V30 4497 H 416.19 -1.10911 -4.74921 0
M  V30 4498 H 415.195 -3.37709 -4.33858 0
M  V30 4499 H 416.42 -4.11211 -5.40447 0
M  V30 4500 H 414.366 -2.0288 -6.2384 0
M  V30 4501 H 414.283 -3.72635 -6.57784 0
M  V30 4502 H 415.551 -2.77093 -7.28587 0
M  V30 4503 N 419.78 1.02168 -1.19998 0
M  V30 4504 C 421.026 1.7606 -1.01855 0
M  V30 4505 C 421.381 1.87178 0.445222 0
M  V30 4506 O 420.674 1.3828 1.32624 0
M  V30 4507 C 420.868 3.18081 -1.62969 0
M  V30 4508 C 420.697 3.20809 -3.15137 0
M  V30 4509 C 419.467 3.28342 -3.84083 0
M  V30 4510 C 421.665 3.07268 -4.1242 0
M  V30 4511 N 419.647 3.2052 -5.23584 0
M  V30 4512 C 421.018 3.0716 -5.38566 0
M  V30 4513 C 423.073 2.91448 -4.03686 0
M  V30 4514 C 421.776 2.92853 -6.56985 0
M  V30 4515 C 423.802 2.78494 -5.21723 0
M  V30 4516 C 423.164 2.79046 -6.46771 0
M  V30 4517 H 419.263 0.655192 -0.426905 0
M  V30 4518 H 421.847 1.21564 -1.52087 0
M  V30 4519 H 420.018 3.70882 -1.15329 0
M  V30 4520 H 421.75 3.80375 -1.38192 0
M  V30 4521 H 418.505 3.34859 -3.34913 0
M  V30 4522 H 418.929 3.19997 -5.96599 0
M  V30 4523 H 423.571 2.89838 -3.07821 0
M  V30 4524 H 421.289 2.93213 -7.53028 0
M  V30 4525 H 424.875 2.67278 -5.16773 0
M  V30 4526 H 423.755 2.69134 -7.36571 0
M  V30 4527 N 421.258 1.00505 1.21394 0
M  V30 4528 C 422.205 0.565496 2.23765 0
M  V30 4529 C 423.175 -0.408466 1.60999 0
M  V30 4530 O 424.36 -0.310503 1.88257 0
M  V30 4531 C 421.5 -0.101667 3.4495 0
M  V30 4532 C 420.613 0.915479 4.22188 0
M  V30 4533 C 419.748 0.220574 5.30742 0
M  V30 4534 C 418.787 1.22527 5.99711 0
M  V30 4535 N 417.924 0.557831 6.9988 0
M  V30 4536 H 422.764 1.44314 2.60725 0
M  V30 4537 H 420.301 0.722643 1.28126 0
M  V30 4538 H 422.259 -0.505504 4.14126 0
M  V30 4539 H 420.889 -0.94303 3.08718 0
M  V30 4540 H 419.941 1.43756 3.52191 0
M  V30 4541 H 421.253 1.68005 4.69655 0
M  V30 4542 H 420.407 -0.239368 6.06228 0
M  V30 4543 H 419.146 -0.576401 4.84282 0
M  V30 4544 H 418.151 1.69571 5.22997 0
M  V30 4545 H 419.376 2.02332 6.48258 0
M  V30 4546 H 417.322 -0.219486 6.55633 0
M  V30 4547 H 417.239 1.26065 7.45415 0
M  V30 4548 H 418.507 0.121095 7.79406 0
M  V30 4549 N 422.737 -1.36956 0.779787 0
M  V30 4550 C 423.647 -2.33965 0.172491 0
M  V30 4551 C 424.663 -1.60574 -0.670222 0
M  V30 4552 O 425.839 -1.92617 -0.588263 0
M  V30 4553 C 422.904 -3.39761 -0.690173 0
M  V30 4554 C 421.965 -4.28964 0.169924 0
M  V30 4555 C 421.198 -5.29707 -0.651662 0
M  V30 4556 O 421.421 -5.38238 -1.88827 0
M  V30 4557 O 420.355 -6.01873 -0.0566264 0
M  V30 4558 H 424.181 -2.87647 0.974321 0
M  V30 4559 H 421.766 -1.39258 0.541078 0
M  V30 4560 H 423.648 -4.04471 -1.1824 0
M  V30 4561 H 422.323 -2.88394 -1.47006 0
M  V30 4562 H 421.23 -3.67326 0.708696 0
M  V30 4563 H 422.563 -4.83656 0.913085 0
M  V30 4564 N 424.215 -0.530993 -1.48385 0
M  V30 4565 C 425.148 0.278511 -2.26494 0
M  V30 4566 C 426.126 0.943905 -1.32398 0
M  V30 4567 O 427.31 0.968098 -1.61741 0
M  V30 4568 C 424.437 1.39453 -3.08659 0
M  V30 4569 C 423.483 0.840434 -4.18137 0
M  V30 4570 S 424.316 -0.292496 -5.34701 0
M  V30 4571 C 425.472 0.825973 -6.20426 0
M  V30 4572 H 425.705 -0.384365 -2.94805 0
M  V30 4573 H 423.238 -0.316799 -1.51115 0
M  V30 4574 H 425.196 2.03382 -3.56575 0
M  V30 4575 H 423.857 2.02913 -2.3976 0
M  V30 4576 H 423.05 1.67769 -4.75257 0
M  V30 4577 H 422.652 0.277819 -3.72967 0
M  V30 4578 H 424.944 1.72438 -6.55188 0
M  V30 4579 H 425.887 0.292728 -7.07495 0
M  V30 4580 H 426.295 1.10683 -5.53543 0
M  V30 4581 N 425.693 1.55336 -0.266172 0
M  V30 4582 C 426.656 2.20878 0.612001 0
M  V30 4583 C 427.656 1.18388 1.08816 0
M  V30 4584 O 428.846 1.4335 0.989774 0
M  V30 4585 C 425.978 2.86765 1.84332 0
M  V30 4586 H 427.171 2.99873 0.0398718 0
M  V30 4587 H 424.724 1.56291 -0.0167309 0
M  V30 4588 H 425.459 2.11759 2.45619 0
M  V30 4589 H 425.244 3.61862 1.5099 0
M  V30 4590 H 426.734 3.36867 2.46801 0
M  V30 4591 N 427.171 -0.0066808 1.57599 0
M  V30 4592 C 428.448 -0.729586 1.81484 0
M  V30 4593 C 428.828 -1.92359 0.869558 0
M  V30 4594 O 428.176 -2.28348 -0.0832533 0
M  V30 4595 C 428.386 -1.1416 3.29801 0
M  V30 4596 C 429.734 -1.54823 3.95367 0
M  V30 4597 O 430.758 -1.23558 3.34084 0
M  V30 4598 O 429.617 -2.12937 5.03309 0
M  V30 4599 H 426.711 -0.354674 0.747085 0
M  V30 4600 H 429.257 0.0182609 1.6969 0
M  V30 4601 H 428.029 -0.290231 3.90222 0
M  V30 4602 H 427.652 -1.94876 3.46568 0
M  V30 4603 N 428.649 -1.55105 -0.279332 0
M  V30 4604 C 430.065 -1.46803 -0.626187 0
M  V30 4605 C 430.265 -0.676939 -1.89789 0
M  V30 4606 O 429.321 -0.19326 -2.51759 0
M  V30 4607 C 430.634 -2.90962 -0.759034 0
M  V30 4608 C 432.182 -3.01138 -0.853504 0
M  V30 4609 C 432.657 -4.46539 -1.01818 0
M  V30 4610 N 434.148 -4.50341 -1.08386 0
M  V30 4611 C 434.883 -5.60053 -1.22996 0
M  V30 4612 N 434.379 -6.79645 -1.34366 0
M  V30 4613 N 436.172 -5.47783 -1.26056 0
M  V30 4614 H 428.323 -2.04996 0.555921 0
M  V30 4615 H 430.586 -0.929325 0.187239 0
M  V30 4616 H 430.292 -3.51544 0.104852 0
M  V30 4617 H 430.166 -3.39619 -1.64131 0
M  V30 4618 H 432.553 -2.40658 -1.70786 0
M  V30 4619 H 432.634 -2.55745 0.0532466 0
M  V30 4620 H 432.278 -5.0762 -0.168504 0
M  V30 4621 H 432.208 -4.89583 -1.93948 0
M  V30 4622 H 434.699 -3.64191 -1.00864 0
M  V30 4623 H 435.012 -7.59012 -1.4533 0
M  V30 4624 H 433.357 -6.82469 -1.31382 0
M  V30 4625 H 436.548 -4.53294 -1.168 0
M  V30 4626 H 436.721 -6.33331 -1.37098 0
M  V30 4627 N 430.127 0.543554 -1.4793 0
M  V30 4628 C 431.357 1.32324 -1.58663 0
M  V30 4629 C 431.765 1.8766 -0.240896 0
M  V30 4630 O 431.108 1.66411 0.778011 0
M  V30 4631 C 431.17 2.52094 -2.56299 0
M  V30 4632 C 430.834 2.17944 -4.01683 0
M  V30 4633 C 431.831 1.74422 -4.89768 0
M  V30 4634 C 429.516 2.28884 -4.47121 0
M  V30 4635 C 431.51 1.42287 -6.21316 0
M  V30 4636 C 429.197 1.96361 -5.78693 0
M  V30 4637 C 430.195 1.53132 -6.65612 0
M  V30 4638 O 429.883 1.21029 -7.94737 0
M  V30 4639 H 429.615 0.409174 -0.538101 0
M  V30 4640 H 432.169 0.663887 -1.94375 0
M  V30 4641 H 430.399 3.20965 -2.15681 0
M  V30 4642 H 432.088 3.14165 -2.57012 0
M  V30 4643 H 432.854 1.65452 -4.55907 0
M  V30 4644 H 428.733 2.61488 -3.79664 0
M  V30 4645 H 432.277 1.08472 -6.89115 0
M  V30 4646 H 428.174 2.04967 -6.12094 0
M  V30 4647 H 428.942 1.34543 -8.07366 0
M  V30 4648 N 431.605 1.3629 0.791371 0
M  V30 4649 C 432.882 1.20962 1.53712 0
M  V30 4650 C 433.262 -0.205021 2.10102 0
M  V30 4651 O 432.61 -1.21042 1.93807 0
M  V30 4652 C 432.82 2.29002 2.63361 0
M  V30 4653 C 434.168 2.65572 3.31295 0
M  V30 4654 O 435.192 2.2803 2.73643 0
M  V30 4655 O 434.051 3.3018 4.35481 0
M  V30 4656 H 431.145 0.47086 0.679867 0
M  V30 4657 H 433.691 1.48016 0.830021 0
M  V30 4658 H 432.463 3.2382 2.19674 0
M  V30 4659 H 432.086 2.03303 3.41692 0
M  V30 4660 N 433.083 -1.0153 1.20538 0
M  V30 4661 C 434.499 -1.27461 0.96051 0
M  V30 4662 C 434.699 -1.98273 -0.359193 0
M  V30 4663 O 433.755 -2.27886 -1.0874 0
M  V30 4664 C 435.068 -2.10837 2.14402 0
M  V30 4665 C 436.616 -2.24099 2.18515 0
M  V30 4666 C 437.091 -3.10852 3.36355 0
M  V30 4667 N 438.582 -3.18441 3.36377 0
M  V30 4668 C 439.317 -3.85795 4.24205 0
M  V30 4669 N 438.813 -4.55264 5.22213 0
M  V30 4670 N 440.606 -3.82331 4.12043 0
M  V30 4671 H 432.757 -0.539907 2.05423 0
M  V30 4672 H 435.02 -0.30092 0.898972 0
M  V30 4673 H 434.726 -1.66144 3.09983 0
M  V30 4674 H 434.6 -3.11576 2.12604 0
M  V30 4675 H 436.987 -2.68016 1.23497 0
M  V30 4676 H 437.068 -1.22865 2.24361 0
M  V30 4677 H 436.712 -2.6764 4.31661 0
M  V30 4678 H 436.642 -4.12177 3.27746 0
M  V30 4679 H 439.133 -2.68978 2.65442 0
M  V30 4680 H 439.446 -5.04331 5.85551 0
M  V30 4681 H 437.791 -4.54085 5.26148 0
M  V30 4682 H 440.982 -3.27207 3.34743 0
M  V30 4683 H 441.155 -4.34547 4.807 0
M  V30 4684 N 434.561 -1.01147 -1.20859 0
M  V30 4685 C 435.491 -0.597663 -2.25722 0
M  V30 4686 C 436.472 0.384744 -1.65692 0
M  V30 4687 O 437.657 0.271303 -1.92296 0
M  V30 4688 C 434.787 0.0700149 -3.47229 0
M  V30 4689 C 433.741 -0.832843 -4.19819 0
M  V30 4690 C 433.067 -0.0312202 -5.34691 0
M  V30 4691 C 434.367 -2.1385 -4.76514 0
M  V30 4692 H 436.061 -1.47423 -2.60589 0
M  V30 4693 H 433.607 -0.710301 -1.25263 0
M  V30 4694 H 435.56 0.37103 -4.19763 0
M  V30 4695 H 434.284 0.981259 -3.11511 0
M  V30 4696 H 432.943 -1.11778 -3.49144 0
M  V30 4697 H 432.591 0.881515 -4.95215 0
M  V30 4698 H 432.291 -0.632434 -5.84187 0
M  V30 4699 H 433.815 0.26346 -6.10031 0
M  V30 4700 H 435.229 -1.9002 -5.40893 0
M  V30 4701 H 433.626 -2.69012 -5.36426 0
M  V30 4702 H 434.696 -2.80495 -3.95538 0
M  V30 4703 N 436.039 1.36541 -0.78704 0
M  V30 4704 C 436.969 2.32659 -0.197992 0
M  V30 4705 C 437.95 1.56533 0.665697 0
M  V30 4706 O 439.135 1.84698 0.60001 0
M  V30 4707 C 436.265 3.40778 0.669901 0
M  V30 4708 C 435.219 4.27897 -0.0937039 0
M  V30 4709 C 434.545 5.27163 0.894629 0
M  V30 4710 C 435.845 5.06334 -1.28154 0
M  V30 4711 H 437.539 2.82171 -1.00099 0
M  V30 4712 H 435.085 1.35665 -0.482793 0
M  V30 4713 H 437.038 4.07008 1.09191 0
M  V30 4714 H 435.762 2.89827 1.50558 0
M  V30 4715 H 434.421 3.6322 -0.49666 0
M  V30 4716 H 434.069 4.72486 1.72527 0
M  V30 4717 H 433.769 5.86317 0.388149 0
M  V30 4718 H 435.293 5.96266 1.31525 0
M  V30 4719 H 436.707 5.65617 -0.93541 0
M  V30 4720 H 435.104 5.74888 -1.72115 0
M  V30 4721 H 436.174 4.38114 -2.07807 0
M  V30 4722 N 437.518 0.538854 1.48102 0
M  V30 4723 C 438.428 -0.222648 2.33541 0
M  V30 4724 C 439.444 -0.930225 1.47047 0
M  V30 4725 O 440.62 -0.903211 1.80011 0
M  V30 4726 C 437.685 -1.25064 3.23357 0
M  V30 4727 C 436.746 -0.552469 4.2573 0
M  V30 4728 C 435.979 -1.53149 5.11254 0
M  V30 4729 O 436.202 -2.76487 4.9891 0
M  V30 4730 O 435.136 -1.06602 5.92385 0
M  V30 4731 H 438.962 0.477707 2.99919 0
M  V30 4732 H 436.547 0.299669 1.46364 0
M  V30 4733 H 438.429 -1.8445 3.78888 0
M  V30 4734 H 437.104 -1.93325 2.59629 0
M  V30 4735 H 436.011 0.082114 3.7401 0
M  V30 4736 H 437.344 0.0883526 4.92121 0
M  V30 4737 N 438.996 -1.55193 0.274407 0
M  V30 4738 C 440.224 -2.03987 -0.345943 0
M  V30 4739 C 440.639 -1.15279 -1.4952 0
M  V30 4740 O 439.996 -0.172759 -1.8168 0
M  V30 4741 C 440.047 -3.51898 -0.827631 0
M  V30 4742 O 439.768 -4.37231 0.275855 0
M  V30 4743 C 441.269 -4.16577 -1.51587 0
M  V30 4744 H 438.489 -0.666335 -0.0789892 0
M  V30 4745 H 441.033 -2.00423 0.406294 0
M  V30 4746 H 439.188 -3.55909 -1.52996 0
M  V30 4747 H 439.602 -5.24415 -0.0943638 0
M  V30 4748 H 441.076 -5.21678 -1.80433 0
M  V30 4749 H 441.553 -3.64707 -2.44716 0
M  V30 4750 H 442.159 -4.16568 -0.857409 0
M  V30 4751 N 440.474 -0.00167713 -1.576 0
M  V30 4752 C 441.714 0.687302 -1.92498 0
M  V30 4753 C 442.078 1.70844 -0.876144 0
M  V30 4754 O 443.279 2.44792 -1.11043 0
M  V30 4755 C 441.55 1.31217 -3.32441 0
M  V30 4756 S 443.109 2.02604 -3.89226 0
M  V30 4757 H 439.927 0.226985 -0.673794 0
M  V30 4758 H 442.529 -0.0587666 -1.95412 0
M  V30 4759 H 441.233 0.556164 -4.06614 0
M  V30 4760 H 440.764 2.09613 -3.32905 0
M  V30 4761 H 442.779 3.30137 -3.70438 0
M  V30 4762 N 441.952 1.55251 0.271103 0
M  V30 4763 C 443.177 1.80306 1.02491 0
M  V30 4764 C 443.602 0.575457 1.79081 0
M  V30 4765 O 442.96 -0.474987 1.74967 0
M  V30 4766 C 443.008 3.02832 1.95768 0
M  V30 4767 O 442.112 2.78051 3.04568 0
M  V30 4768 H 441.453 0.595896 0.292923 0
M  V30 4769 H 443.983 2.02397 0.299436 0
M  V30 4770 H 443.993 3.31616 2.37686 0
M  V30 4771 H 442.668 3.9183 1.39434 0
M  V30 4772 H 441.245 2.60369 2.66951 0
M  V30 4773 N 443.43 -0.535701 1.48216 0
M  V30 4774 C 444.679 -1.28828 1.55197 0
M  V30 4775 C 444.992 -1.94263 0.228278 0
M  V30 4776 O 446.198 -2.70927 0.176278 0
M  V30 4777 C 444.654 -2.33727 2.73678 0
M  V30 4778 C 444.262 -1.74386 4.12666 0
M  V30 4779 C 446.006 -3.1003 2.89968 0
M  V30 4780 C 443.913 -2.77192 5.22416 0
M  V30 4781 H 442.843 -0.484484 0.577747 0
M  V30 4782 H 445.494 -0.56646 1.74538 0
M  V30 4783 H 443.876 -3.08919 2.4776 0
M  V30 4784 H 445.05 -1.05421 4.48579 0
M  V30 4785 H 443.365 -1.10595 4.01445 0
M  V30 4786 H 445.962 -3.86842 3.6913 0
M  V30 4787 H 446.305 -3.65542 1.9921 0
M  V30 4788 H 446.838 -2.41952 3.15759 0
M  V30 4789 H 443.577 -2.26507 6.15122 0
M  V30 4790 H 443.097 -3.44502 4.90998 0
M  V30 4791 H 444.776 -3.40285 5.50286 0
M  V30 4792 N 444.908 -1.36708 -0.784132 0
M  V30 4793 C 445.871 -1.31307 -1.87859 0
M  V30 4794 C 446.871 -0.219654 -1.59293 0
M  V30 4795 O 448.061 -0.47476 -1.67606 0
M  V30 4796 C 445.193 -1.03679 -3.24751 0
M  V30 4797 H 446.386 -2.28647 -1.94064 0
M  V30 4798 H 443.939 -1.21558 -0.98252 0
M  V30 4799 H 444.674 -0.0681936 -3.24228 0
M  V30 4800 H 444.459 -1.82811 -3.46876 0
M  V30 4801 H 445.949 -1.02518 -4.04821 0
M  V30 4802 N 446.386 1.0089 -1.21074 0
M  V30 4803 C 447.316 2.1145 -0.990523 0
M  V30 4804 C 448.297 1.69897 0.0831699 0
M  V30 4805 O 449.482 1.94052 -0.0758853 0
M  V30 4806 C 446.612 3.42914 -0.550177 0
M  V30 4807 C 445.566 3.98244 -1.56799 0
M  V30 4808 C 444.892 5.25568 -0.984013 0
M  V30 4809 C 446.192 4.30752 -2.95381 0
M  V30 4810 H 447.886 2.3013 -1.91521 0
M  V30 4811 H 445.432 1.10592 -0.92225 0
M  V30 4812 H 447.385 4.19653 -0.383305 0
M  V30 4813 H 446.109 3.24014 0.41015 0
M  V30 4814 H 444.768 3.23621 -1.72236 0
M  V30 4815 H 444.416 5.02998 -0.0155216 0
M  V30 4816 H 444.116 5.63551 -1.66384 0
M  V30 4817 H 445.64 6.04955 -0.828378 0
M  V30 4818 H 447.054 4.98349 -2.8341 0
M  V30 4819 H 445.451 4.79869 -3.60341 0
M  V30 4820 H 446.521 3.39192 -3.46521 0
M  V30 4821 N 447.864 1.01787 1.20321 0
M  V30 4822 C 449.11 0.708985 1.90003 0
M  V30 4823 C 449.443 -0.759572 1.78729 0
M  V30 4824 O 448.718 -1.55198 1.17234 0
M  V30 4825 C 449.001 1.1469 3.41348 0
M  V30 4826 C 448.854 2.67586 3.61549 0
M  V30 4827 C 450.173 0.71915 4.34185 0
M  V30 4828 H 447.292 0.259034 0.689978 0
M  V30 4829 H 449.934 1.26584 1.41692 0
M  V30 4830 H 448.084 0.673128 3.82624 0
M  V30 4831 H 449.756 3.22826 3.29517 0
M  V30 4832 H 447.999 3.085 3.04976 0
M  V30 4833 H 448.67 2.93281 4.67643 0
M  V30 4834 H 451.146 1.12647 4.00562 0
M  V30 4835 H 450.022 1.05358 5.38694 0
M  V30 4836 H 450.283 -0.379111 4.40472 0
M  V30 4837 N 449.342 -1.36122 0.79427 0
M  V30 4838 C 450.59 -1.98718 0.368177 0
M  V30 4839 C 450.911 -1.63345 -1.06506 0
M  V30 4840 O 450.181 -0.909825 -1.73491 0
M  V30 4841 H 448.761 -0.735038 0.133146 0
M  V30 4842 H 451.423 -1.66239 1.01739 0
M  V30 4843 H 450.519 -3.08633 0.463923 0
M  V30 4844 N 450.82 -0.546701 -1.47814 0
M  V30 4845 C 451.767 0.206854 -2.29871 0
M  V30 4846 C 452.737 0.918235 -1.38411 0
M  V30 4847 O 453.922 0.915991 -1.67375 0
M  V30 4848 C 451.062 1.23746 -3.22151 0
M  V30 4849 C 450.175 0.533216 -4.28697 0
M  V30 4850 C 449.31 1.5482 -5.08138 0
M  V30 4851 C 448.349 0.828347 -6.06469 0
M  V30 4852 N 447.486 1.78966 -6.78908 0
M  V30 4853 H 452.326 -0.499037 -2.93792 0
M  V30 4854 H 449.863 -0.25793 -1.44821 0
M  V30 4855 H 451.821 1.84746 -3.74065 0
M  V30 4856 H 450.451 1.91151 -2.60117 0
M  V30 4857 H 449.503 -0.191089 -3.7992 0
M  V30 4858 H 450.815 -0.0311987 -4.9879 0
M  V30 4859 H 449.969 2.23202 -5.6415 0
M  V30 4860 H 448.708 2.14652 -4.37922 0
M  V30 4861 H 447.713 0.130539 -5.49645 0
M  V30 4862 H 448.938 0.235907 -6.7869 0
M  V30 4863 H 446.884 2.37675 -6.1143 0
M  V30 4864 H 446.801 1.27712 -7.45135 0
M  V30 4865 H 448.069 2.46496 -7.395 0
M  V30 4866 N 452.299 1.55045 -0.282633 0
M  V30 4867 C 453.529 2.03872 0.334635 0
M  V30 4868 C 453.937 1.16018 1.49454 0
M  V30 4869 O 453.28 0.174449 1.8287 0
M  V30 4870 C 453.342 3.48791 0.870905 0
M  V30 4871 C 453.006 4.56715 -0.161338 0
M  V30 4872 C 454.003 5.10513 -0.983466 0
M  V30 4873 C 451.688 5.01417 -0.297745 0
M  V30 4874 C 453.682 6.07538 -1.92811 0
M  V30 4875 C 451.369 5.98265 -1.24586 0
M  V30 4876 C 452.367 6.51208 -2.05954 0
M  V30 4877 O 452.055 7.46162 -2.99162 0
M  V30 4878 H 451.787 0.671324 0.0793742 0
M  V30 4879 H 454.341 2.01169 -0.41473 0
M  V30 4880 H 452.571 3.48758 1.67047 0
M  V30 4881 H 454.26 3.80916 1.40207 0
M  V30 4882 H 455.026 4.76785 -0.888856 0
M  V30 4883 H 450.905 4.59849 0.325604 0
M  V30 4884 H 454.449 6.48787 -2.56363 0
M  V30 4885 H 450.346 6.31412 -1.34126 0
M  V30 4886 H 451.114 7.63903 -2.93929 0
M  V30 4887 N 453.777 0.010035 1.57597 0
M  V30 4888 C 455.005 -0.683413 1.95287 0
M  V30 4889 C 455.42 -1.66747 0.885481 0
M  V30 4890 O 454.777 -1.82003 -0.134629 0
M  V30 4891 C 454.828 -1.40652 3.33015 0
M  V30 4892 O 454.549 -0.461916 4.35658 0
M  V30 4893 C 456.05 -2.19356 3.85225 0
M  V30 4894 H 453.27 -0.189708 0.643624 0
M  V30 4895 H 455.814 0.0641359 2.04399 0
M  V30 4896 H 453.969 -2.10562 3.2518 0
M  V30 4897 H 454.383 -0.973215 5.15392 0
M  V30 4898 H 455.857 -2.65433 4.83993 0
M  V30 4899 H 456.334 -3.02457 3.18459 0
M  V30 4900 H 456.94 -1.54442 3.96267 0
M  V30 4901 N 455.255 -1.55392 -0.262866 0
M  V30 4902 C 456.202 -1.88966 -1.32516 0
M  V30 4903 C 457.172 -0.742187 -1.48596 0
M  V30 4904 O 458.357 -0.99439 -1.62839 0
M  V30 4905 C 455.497 -2.17592 -2.67858 0
M  V30 4906 C 454.61 -3.45061 -2.59917 0
M  V30 4907 C 453.745 -3.63336 -3.87505 0
M  V30 4908 C 452.784 -4.84462 -3.74116 0
M  V30 4909 N 451.921 -4.99342 -4.93561 0
M  V30 4910 H 456.761 -2.79566 -1.03184 0
M  V30 4911 H 454.298 -1.38404 -0.498285 0
M  V30 4912 H 456.256 -2.3219 -3.46617 0
M  V30 4913 H 454.886 -1.30215 -2.95371 0
M  V30 4914 H 453.938 -3.38881 -1.72812 0
M  V30 4915 H 455.25 -4.3396 -2.45926 0
M  V30 4916 H 454.404 -3.77807 -4.74707 0
M  V30 4917 H 453.143 -2.72641 -4.04374 0
M  V30 4918 H 452.148 -4.69985 -2.85297 0
M  V30 4919 H 453.373 -5.76603 -3.58757 0
M  V30 4920 H 451.319 -4.1158 -5.10821 0
M  V30 4921 H 451.236 -5.82303 -4.82141 0
M  V30 4922 H 452.504 -5.18208 -5.82306 0
M  V30 4923 N 456.733 0.527833 -1.48498 0
M  V30 4924 C 457.98 1.28354 -1.56625 0
M  V30 4925 C 458.308 1.93 -0.241096 0
M  V30 4926 O 457.563 1.79967 0.768798 0
M  V30 4927 C 457.862 2.39275 -2.65485 0
M  V30 4928 C 457.528 1.92268 -4.07853 0
M  V30 4929 C 456.19 1.79166 -4.46602 0
M  V30 4930 C 458.542 1.56771 -4.97064 0
M  V30 4931 C 455.87 1.28905 -5.72364 0
M  V30 4932 C 458.222 1.07972 -6.23318 0
M  V30 4933 C 456.886 0.934887 -6.60921 0
M  V30 4934 H 456.156 0.469682 -0.573131 0
M  V30 4935 H 458.803 0.588781 -1.82224 0
M  V30 4936 H 457.108 3.1443 -2.33754 0
M  V30 4937 H 458.805 2.974 -2.68988 0
M  V30 4938 H 455.395 2.03417 -3.77252 0
M  V30 4939 H 459.579 1.65753 -4.67803 0
M  V30 4940 H 454.835 1.16381 -6.00221 0
M  V30 4941 H 459.009 0.795775 -6.91838 0
M  V30 4942 H 456.636 0.543231 -7.58257 0
M  V30 4943 N 458.211 1.37122 0.776871 0
M  V30 4944 C 459.436 1.354 1.57104 0
M  V30 4945 C 459.861 -0.0595562 1.88006 0
M  V30 4946 O 459.219 -1.03514 1.48844 0
M  V30 4947 C 459.267 2.19472 2.8612 0
M  V30 4948 O 458.371 1.59582 3.80273 0
M  V30 4949 H 457.712 0.462869 0.476076 0
M  V30 4950 H 460.242 1.80577 0.961932 0
M  V30 4951 H 460.252 2.32502 3.35271 0
M  V30 4952 H 458.927 3.22222 2.62956 0
M  V30 4953 H 457.504 1.55564 3.38902 0
M  V30 4954 N 459.689 -1.00246 1.21608 0
M  V30 4955 C 460.966 -1.71336 0.943568 0
M  V30 4956 C 461.346 -2.03972 -0.543943 0
M  V30 4957 O 460.694 -1.71545 -1.50946 0
M  V30 4958 C 460.904 -2.97094 1.83128 0
M  V30 4959 C 462.252 -3.70071 2.08165 0
M  V30 4960 O 463.276 -3.07081 1.80498 0
M  V30 4961 O 462.135 -4.83376 2.54971 0
M  V30 4962 H 459.229 -0.747386 0.354039 0
M  V30 4963 H 461.775 -1.05967 1.32549 0
M  V30 4964 H 460.547 -2.69407 2.83788 0
M  V30 4965 H 460.17 -3.70204 1.45034 0
M  V30 4966 N 461.167 -1.02423 -1.1978 0
M  V30 4967 C 462.392 -0.7373 -1.93852 0
M  V30 4968 C 462.817 0.696923 -1.74713 0
M  V30 4969 O 462.175 1.48056 -1.04638 0
M  V30 4970 C 462.223 -1.08783 -3.438 0
M  V30 4971 O 461.327 -0.20383 -4.11896 0
M  V30 4972 H 460.668 -0.27284 -0.605355 0
M  V30 4973 H 463.198 -1.36966 -1.51992 0
M  V30 4974 H 463.208 -1.04276 -3.9445 0
M  V30 4975 H 461.883 -2.13274 -3.57053 0
M  V30 4976 H 460.46 -0.307091 -3.71633 0
M  V30 4977 N 462.645 1.35699 -0.801477 0
M  V30 4978 C 463.875 2.02862 -0.3912 0
M  V30 4979 C 464.283 1.60552 1.00099 0
M  V30 4980 O 463.626 0.796215 1.65548 0
M  V30 4981 C 463.688 3.57386 -0.389299 0
M  V30 4982 C 463.352 4.22943 -1.73113 0
M  V30 4983 C 464.349 4.44984 -2.68859 0
M  V30 4984 C 462.034 4.60167 -2.01373 0
M  V30 4985 C 464.028 5.03345 -3.91053 0
M  V30 4986 C 461.715 5.18243 -3.23832 0
M  V30 4987 C 462.713 5.39773 -4.1849 0
M  V30 4988 O 462.401 5.96626 -5.38788 0
M  V30 4989 H 462.133 0.657341 -0.157732 0
M  V30 4990 H 464.687 1.74407 -1.08496 0
M  V30 4991 H 462.917 3.85011 0.361031 0
M  V30 4992 H 464.606 4.059 -0.0020365 0
M  V30 4993 H 465.372 4.1661 -2.48316 0
M  V30 4994 H 461.251 4.42726 -1.28508 0
M  V30 4995 H 464.795 5.20065 -4.64949 0
M  V30 4996 H 460.692 5.46044 -3.44248 0
M  V30 4997 H 461.46 6.15082 -5.40015 0
M  V30 4998 N 464.123 0.554532 1.47522 0
M  V30 4999 C 465.086 -0.184174 2.28459 0
M  V30 5000 C 466.086 -0.845195 1.36796 0
M  V30 5001 O 467.276 -0.701467 1.59452 0
M  V30 5002 C 464.408 -1.26903 3.16399 0
M  V30 5003 H 465.601 0.526751 2.95238 0
M  V30 5004 H 463.154 0.311375 1.53167 0
M  V30 5005 H 463.889 -2.01244 2.54306 0
M  V30 5006 H 463.674 -0.799883 3.83854 0
M  V30 5007 H 465.164 -1.78794 3.77389 0
M  V30 5008 N 465.601 -1.54893 0.290851 0
M  V30 5009 C 466.826 -2.04804 -0.32712 0
M  V30 5010 C 467.251 -1.16721 -1.47506 0
M  V30 5011 O 466.609 -0.169107 -1.8051 0
M  V30 5012 C 466.657 -3.52268 -0.770689 0
M  V30 5013 O 465.761 -3.67236 -1.87647 0
M  V30 5014 H 465.102 -0.660789 -0.0652227 0
M  V30 5015 H 467.632 -2.00036 0.429739 0
M  V30 5016 H 467.642 -3.9393 -1.06223 0
M  V30 5017 H 466.317 -4.15843 0.069096 0
M  V30 5018 H 464.894 -3.37479 -1.58626 0
M  V30 5019 N 467.08 -0.0183926 -1.57589 0
M  V30 5020 C 468.326 0.663543 -1.91638 0
M  V30 5021 C 468.659 1.72392 -0.894134 0
M  V30 5022 O 467.934 1.94316 0.0846449 0
M  V30 5023 C 468.217 1.28984 -3.36207 0
M  V30 5024 C 468.07 0.239761 -4.49161 0
M  V30 5025 C 469.389 2.2109 -3.80536 0
M  V30 5026 H 466.508 0.239746 -0.696915 0
M  V30 5027 H 469.15 -0.073456 -1.89858 0
M  V30 5028 H 467.3 1.91799 -3.37854 0
M  V30 5029 H 468.972 -0.390119 -4.59647 0
M  V30 5030 H 467.215 -0.435972 -4.31604 0
M  V30 5031 H 467.886 0.717383 -5.47319 0
M  V30 5032 H 470.362 1.68273 -3.80557 0
M  V30 5033 H 469.238 2.61869 -4.82406 0
M  V30 5034 H 469.499 3.09764 -3.15434 0
M  V30 5035 N 468.558 1.5553 0.254621 0
M  V30 5036 C 469.807 1.76202 0.981612 0
M  V30 5037 C 470.12 0.580883 1.86776 0
M  V30 5038 O 471.326 0.670448 2.63092 0
M  V30 5039 C 469.782 3.11921 1.79537 0
M  V30 5040 C 469.39 4.37659 0.956991 0
M  V30 5041 C 471.134 3.41936 2.51555 0
M  V30 5042 C 469.041 5.64411 1.76619 0
M  V30 5043 H 467.971 0.656841 0.370237 0
M  V30 5044 H 470.622 1.81969 0.236556 0
M  V30 5045 H 469.004 3.00241 2.58208 0
M  V30 5046 H 470.178 4.60307 0.21315 0
M  V30 5047 H 468.493 4.14922 0.350497 0
M  V30 5048 H 471.09 4.33849 3.12536 0
M  V30 5049 H 471.433 2.62905 3.22779 0
M  V30 5050 H 471.966 3.54797 1.799 0
M  V30 5051 H 468.705 6.46241 1.09783 0
M  V30 5052 H 468.225 5.45877 2.48551 0
M  V30 5053 H 469.904 6.03386 2.33527 0
M  V30 5054 N 470.036 -0.519951 1.48776 0
M  V30 5055 C 470.983 -1.62352 1.64044 0
M  V30 5056 C 471.953 -1.58945 0.482251 0
M  V30 5057 O 473.138 -1.77219 0.706971 0
M  V30 5058 C 470.278 -3.00579 1.69547 0
M  V30 5059 C 469.391 -3.14145 2.96541 0
M  V30 5060 C 468.526 -4.42991 2.93142 0
M  V30 5061 C 467.565 -4.50122 4.14797 0
M  V30 5062 N 466.702 -5.7037 4.09418 0
M  V30 5063 H 471.542 -1.48643 2.58281 0
M  V30 5064 H 469.079 -0.723516 1.28077 0
M  V30 5065 H 471.037 -3.80671 1.70719 0
M  V30 5066 H 469.667 -3.13036 0.787918 0
M  V30 5067 H 468.719 -2.27239 3.05068 0
M  V30 5068 H 470.031 -3.15275 3.86527 0
M  V30 5069 H 469.185 -5.31385 2.92772 0
M  V30 5070 H 467.924 -4.44398 2.00902 0
M  V30 5071 H 466.929 -3.60133 4.15433 0
M  V30 5072 H 468.154 -4.50445 5.08208 0
M  V30 5073 H 466.1 -5.72655 3.20004 0
M  V30 5074 H 466.017 -5.73036 4.93119 0
M  V30 5075 H 467.285 -6.61023 4.13121 0
M  V30 5076 N 471.514 -1.37532 -0.769588 0
M  V30 5077 C 472.477 -1.33292 -1.86456 0
M  V30 5078 C 473.477 -0.236537 -1.59051 0
M  V30 5079 O 474.667 -0.492511 -1.67093 0
M  V30 5080 C 471.799 -1.07118 -3.23633 0
M  V30 5081 H 472.992 -2.30692 -1.91628 0
M  V30 5082 H 470.545 -1.22593 -0.969572 0
M  V30 5083 H 471.28 -0.102578 -3.24138 0
M  V30 5084 H 471.065 -1.86479 -3.44917 0
M  V30 5085 H 472.555 -1.06806 -4.03711 0
M  V30 5086 N 472.992 0.995999 -1.22138 0
M  V30 5087 C 473.922 2.10387 -1.01289 0
M  V30 5088 C 474.903 1.69975 0.0651454 0
M  V30 5089 O 476.088 1.9396 -0.0964628 0
M  V30 5090 C 473.218 3.42312 -0.586517 0
M  V30 5091 C 472.172 3.96558 -1.61014 0
M  V30 5092 C 471.498 5.24494 -1.0397 0
M  V30 5093 C 472.798 4.27595 -2.99933 0
M  V30 5094 H 474.492 2.28086 -1.93951 0
M  V30 5095 H 472.038 1.09607 -0.933928 0
M  V30 5096 H 473.991 4.19223 -0.427793 0
M  V30 5097 H 472.715 3.24431 0.375761 0
M  V30 5098 H 471.374 3.21776 -1.75658 0
M  V30 5099 H 471.022 5.02953 -0.0688703 0
M  V30 5100 H 470.722 5.61755 -1.72352 0
M  V30 5101 H 472.246 6.04042 -0.892494 0
M  V30 5102 H 473.66 4.95315 -2.8868 0
M  V30 5103 H 472.057 4.76021 -3.6541 0
M  V30 5104 H 473.127 3.35498 -3.50099 0
M  V30 5105 N 474.47 1.03057 1.19235 0
M  V30 5106 C 475.38 0.622922 2.26179 0
M  V30 5107 C 476.396 -0.346113 1.70523 0
M  V30 5108 O 477.572 -0.203572 2.00369 0
M  V30 5109 C 474.637 -0.0182063 3.46695 0
M  V30 5110 C 473.698 0.998546 4.17526 0
M  V30 5111 C 472.931 0.387917 5.32288 0
M  V30 5112 O 473.154 -0.808668 5.64639 0
M  V30 5113 O 472.088 1.1116 5.91546 0
M  V30 5114 H 475.914 1.51363 2.63292 0
M  V30 5115 H 473.499 0.800856 1.26122 0
M  V30 5116 H 475.381 -0.375606 4.19723 0
M  V30 5117 H 474.056 -0.882895 3.11427 0
M  V30 5118 H 472.963 1.40756 3.4661 0
M  V30 5119 H 474.296 1.83366 4.56769 0
M  V30 5120 N 475.948 -1.35272 0.808662 0
M  V30 5121 C 476.898 -2.27181 0.193124 0
M  V30 5122 C 477.882 -1.47871 -0.634265 0
M  V30 5123 O 479.074 -1.70048 -0.491182 0
M  V30 5124 C 476.203 -3.36979 -0.655751 0
M  V30 5125 C 475.289 -4.23712 0.181481 0
M  V30 5126 N 475.68 -4.90225 1.24551 0
M  V30 5127 C 473.978 -4.45985 -0.0365493 0
M  V30 5128 C 474.679 -5.54537 1.75682 0
M  V30 5129 N 473.655 -5.33107 1.06294 0
M  V30 5130 H 477.457 -2.76101 1.00724 0
M  V30 5131 H 474.971 -1.48823 0.650029 0
M  V30 5132 H 476.968 -4.01774 -1.11279 0
M  V30 5133 H 475.628 -2.89611 -1.46819 0
M  V30 5134 H 476.639 -4.91641 1.62818 0
M  V30 5135 H 473.316 -4.09409 -0.817964 0
M  V30 5136 H 474.706 -6.17597 2.64621 0
M  V30 5137 N 477.426 -0.562348 -1.47226 0
M  V30 5138 C 478.651 -0.0432632 -2.07355 0
M  V30 5139 C 479.076 1.24332 -1.41149 0
M  V30 5140 O 478.434 1.74603 -0.488226 0
M  V30 5141 C 478.482 0.130288 -3.60365 0
M  V30 5142 O 477.586 1.19166 -3.94808 0
M  V30 5143 H 476.927 -0.0536334 -0.66183 0
M  V30 5144 H 479.457 -0.779495 -1.89169 0
M  V30 5145 H 479.467 0.342881 -4.06557 0
M  V30 5146 H 478.142 -0.809389 -4.07948 0
M  V30 5147 H 476.719 0.959153 -3.60354 0
M  V30 5148 N 478.904 1.54736 -0.299062 0
M  V30 5149 C 479.867 2.22127 0.565012 0
M  V30 5150 C 480.867 1.20669 1.06281 0
M  V30 5151 O 482.057 1.45417 0.959145 0
M  V30 5152 C 479.189 2.90611 1.78208 0
M  V30 5153 H 480.382 2.99891 -0.0237448 0
M  V30 5154 H 477.935 1.5622 -0.0498788 0
M  V30 5155 H 478.67 2.16921 2.41072 0
M  V30 5156 H 478.455 3.64984 1.43281 0
M  V30 5157 H 479.945 3.42026 2.396 0
M  V30 5158 N 480.382 0.0267497 1.57577 0
M  V30 5159 C 481.312 -0.954308 2.13108 0
M  V30 5160 C 482.293 -1.34088 1.04663 0
M  V30 5161 O 483.478 -1.41992 1.32484 0
M  V30 5162 C 480.608 -2.23744 2.65624 0
M  V30 5163 C 479.562 -1.99168 3.78835 0
M  V30 5164 C 478.888 -3.33726 4.17769 0
M  V30 5165 C 480.188 -1.33277 5.0501 0
M  V30 5166 H 481.882 -0.491848 2.95332 0
M  V30 5167 H 479.428 -0.23514 1.42067 0
M  V30 5168 H 481.381 -2.92754 3.03106 0
M  V30 5169 H 480.105 -2.72151 1.80558 0
M  V30 5170 H 478.764 -1.32577 3.41788 0
M  V30 5171 H 478.412 -3.79888 3.29688 0
M  V30 5172 H 478.112 -3.18089 4.94058 0
M  V30 5173 H 479.636 -4.04008 4.57832 0
M  V30 5174 H 481.05 -1.92283 5.40093 0
M  V30 5175 H 479.447 -1.28045 5.8628 0
M  V30 5176 H 480.517 -0.305411 4.83937 0
M  V30 5177 N 481.861 -1.55662 -0.24637 0
M  V30 5178 C 482.824 -1.89558 -1.28842 0
M  V30 5179 C 483.824 -0.772082 -1.41052 0
M  V30 5180 O 485.014 -1.04007 -1.39743 0
M  V30 5181 C 482.146 -2.12449 -2.66605 0
M  V30 5182 H 483.339 -2.82735 -1.00004 0
M  V30 5183 H 480.892 -1.48562 -0.485684 0
M  V30 5184 H 481.627 -1.21742 -3.00582 0
M  V30 5185 H 481.412 -2.94273 -2.59125 0
M  V30 5186 H 482.902 -2.39854 -3.41847 0
M  V30 5187 N 483.339 0.512053 -1.4905 0
M  V30 5188 C 484.588 1.26343 -1.57227 0
M  V30 5189 C 484.901 1.93876 -0.259155 0
M  V30 5190 O 486.107 2.70612 -0.219358 0
M  V30 5191 C 484.563 2.29343 -2.77362 0
M  V30 5192 C 484.171 1.67799 -4.15388 0
M  V30 5193 C 485.915 3.05378 -2.94864 0
M  V30 5194 C 483.822 2.68845 -5.2676 0
M  V30 5195 H 482.752 0.475231 -0.585382 0
M  V30 5196 H 485.403 0.53862 -1.75417 0
M  V30 5197 H 483.785 3.04938 -2.52643 0
M  V30 5198 H 484.959 0.982715 -4.50199 0
M  V30 5199 H 483.274 1.04194 -4.03153 0
M  V30 5200 H 485.871 3.80921 -3.75238 0
M  V30 5201 H 486.214 3.62327 -2.05 0
M  V30 5202 H 486.747 2.36898 -3.19569 0
M  V30 5203 H 483.486 2.16692 -6.18647 0
M  V30 5204 H 483.006 3.36647 -4.96416 0
M  V30 5205 H 484.685 3.31487 -5.5563 0
M  V30 5206 N 484.817 1.37938 0.762283 0
M  V30 5207 C 485.765 1.34569 1.89721 0
M  V30 5208 C 486.759 0.232929 1.67791 0
M  V30 5209 O 487.965 0.401485 1.75465 0
M  V30 5210 H 484.34 0.419594 0.624055 0
M  V30 5211 H 486.311 2.30357 1.8968 0
M  V30 5212 C 485.06 1.17898 3.27101 0
M  V30 5213 H 484.383 2.02781 3.44558 0
M  V30 5214 H 485.823 1.19593 4.06784 0
M  V30 5215 C 484.282 -0.114728 3.36705 0
M  V30 5216 O 484.812 -1.0949 3.8649 0
M  V30 5217 N 483.018 -0.16863 2.9011 0
M  V30 5218 H 482.565 0.62967 2.49786 0
M  V30 5219 H 482.523 -1.03383 2.96916 0
M  V30 5220 N 486.295 -0.989507 1.22664 0
M  V30 5221 C 487.245 -2.06478 0.967005 0
M  V30 5222 C 488.229 -1.60682 -0.0836374 0
M  V30 5223 O 489.421 -1.76541 0.127322 0
M  V30 5224 C 486.55 -3.38861 0.550313 0
M  V30 5225 C 485.636 -3.9128 1.63587 0
M  V30 5226 N 486.027 -4.16884 2.86429 0
M  V30 5227 C 484.325 -4.1972 1.50834 0
M  V30 5228 C 485.026 -4.5954 3.56648 0
M  V30 5229 N 484.002 -4.63434 2.84131 0
M  V30 5230 H 487.804 -2.24219 1.90008 0
M  V30 5231 H 485.318 -1.17153 1.12467 0
M  V30 5232 H 487.315 -4.15465 0.345612 0
M  V30 5233 H 485.975 -3.22518 -0.375822 0
M  V30 5234 H 486.986 -4.04976 3.22823 0
M  V30 5235 H 483.663 -4.1243 0.648643 0
M  V30 5236 H 485.053 -4.87944 4.61909 0
M  V30 5237 N 487.773 -1.03688 -1.18687 0
M  V30 5238 C 488.72 -0.624624 -2.22187 0
M  V30 5239 C 489.69 0.365636 -1.62026 0
M  V30 5240 O 490.875 0.260481 -1.89014 0
M  V30 5241 C 488.015 0.0101738 -3.45099 0
M  V30 5242 C 487.128 -1.02709 -4.19613 0
M  V30 5243 C 486.263 -0.361213 -5.2997 0
M  V30 5244 C 485.302 -1.38384 -5.96252 0
M  V30 5245 N 484.439 -0.743196 -6.98155 0
M  V30 5246 H 489.279 -1.51176 -2.56807 0
M  V30 5247 H 486.816 -0.75636 -1.26165 0
M  V30 5248 H 488.774 0.395528 -4.15321 0
M  V30 5249 H 487.404 0.860848 -3.1111 0
M  V30 5250 H 486.456 -1.53043 -3.48256 0
M  V30 5251 H 487.768 -1.80398 -4.65036 0
M  V30 5252 H 486.922 0.0785537 -6.06649 0
M  V30 5253 H 485.661 0.447799 -4.8564 0
M  V30 5254 H 484.666 -1.83378 -5.18317 0
M  V30 5255 H 485.891 -2.19448 -6.42666 0
M  V30 5256 H 483.837 0.0455789 -6.55984 0
M  V30 5257 H 483.754 -1.45784 -7.41811 0
M  V30 5258 H 485.022 -0.327698 -7.78811 0
M  V30 5259 N 489.251 1.34841 -0.815825 0
M  V30 5260 C 490.181 2.32187 -0.247298 0
M  V30 5261 C 491.162 1.5791 0.632344 0
M  V30 5262 O 492.347 1.8593 0.560698 0
M  V30 5263 C 489.477 3.42122 0.597466 0
M  V30 5264 C 488.431 4.27602 -0.184446 0
M  V30 5265 C 487.757 5.28942 0.782609 0
M  V30 5266 C 489.057 5.03502 -1.38865 0
M  V30 5267 H 490.751 2.79985 -1.06061 0
M  V30 5268 H 488.297 1.34611 -0.511461 0
M  V30 5269 H 490.25 4.09232 1.00533 0
M  V30 5270 H 488.974 2.92956 1.44376 0
M  V30 5271 H 487.633 3.62085 -0.573592 0
M  V30 5272 H 487.281 4.7604 1.62466 0
M  V30 5273 H 486.981 5.87008 0.263695 0
M  V30 5274 H 488.505 5.98922 1.18848 0
M  V30 5275 H 489.919 5.63506 -1.05518 0
M  V30 5276 H 488.316 5.71108 -1.8427 0
M  V30 5277 H 489.386 4.33608 -2.17054 0
M  V30 5278 N 490.729 0.570148 1.46925 0
M  V30 5279 C 491.639 -0.173061 2.33961 0
M  V30 5280 C 492.655 -0.898825 1.48987 0
M  V30 5281 O 493.831 -0.864825 1.81887 0
M  V30 5282 C 490.896 -1.18177 3.25937 0
M  V30 5283 C 489.957 -0.462041 4.26806 0
M  V30 5284 C 489.19 -1.4227 5.14388 0
M  V30 5285 O 489.413 -2.65842 5.04662 0
M  V30 5286 O 488.347 -0.940127 5.94513 0
M  V30 5287 H 492.173 0.541216 2.98839 0
M  V30 5288 H 489.758 0.330647 1.45695 0
M  V30 5289 H 491.64 -1.76372 3.82715 0
M  V30 5290 H 490.315 -1.87774 2.63671 0
M  V30 5291 H 489.222 0.161429 3.73752 0
M  V30 5292 H 490.555 0.192719 4.91823 0
M  V30 5293 N 492.207 -1.54576 0.307264 0
M  V30 5294 C 493.456 -1.99442 -0.300976 0
M  V30 5295 C 493.769 -1.19928 -1.5452 0
M  V30 5296 O 494.975 -1.55092 -2.22842 0
M  V30 5297 C 493.431 -3.55084 -0.586809 0
M  V30 5298 C 493.039 -4.43413 0.639438 0
M  V30 5299 C 494.783 -4.0846 -1.1559 0
M  V30 5300 C 492.69 -5.90499 0.326411 0
M  V30 5301 H 491.62 -0.744986 -0.116238 0
M  V30 5302 H 494.271 -1.787 0.416947 0
M  V30 5303 H 492.653 -3.71749 -1.36449 0
M  V30 5304 H 493.827 -4.38522 1.41545 0
M  V30 5305 H 492.142 -4.00842 1.1276 0
M  V30 5306 H 494.739 -5.15926 -1.40445 0
M  V30 5307 H 495.082 -3.59443 -2.10015 0
M  V30 5308 H 495.615 -3.95362 -0.439778 0
M  V30 5309 H 492.354 -6.43676 1.23939 0
M  V30 5310 H 491.874 -5.98382 -0.412212 0
M  V30 5311 H 493.553 -6.46962 -0.0697393 0
M  V30 5312 N 493.685 -0.035106 -1.57561 0
M  V30 5313 C 494.632 0.94474 -2.10578 0
M  V30 5314 C 495.602 1.3192 -1.00927 0
M  V30 5315 O 496.787 1.41147 -1.28382 0
M  V30 5316 C 493.927 2.21982 -2.64231 0
M  V30 5317 C 493.04 1.90128 -3.87911 0
M  V30 5318 C 492.175 3.11975 -4.29936 0
M  V30 5319 C 491.214 2.75968 -5.46359 0
M  V30 5320 N 490.351 3.90459 -5.83512 0
M  V30 5321 H 495.191 0.485717 -2.94015 0
M  V30 5322 H 492.728 0.228143 -1.4532 0
M  V30 5323 H 494.686 2.96572 -2.9343 0
M  V30 5324 H 493.316 2.6549 -1.83616 0
M  V30 5325 H 492.368 1.05755 -3.65404 0
M  V30 5326 H 493.68 1.59613 -4.72573 0
M  V30 5327 H 492.834 3.9488 -4.60603 0
M  V30 5328 H 491.573 3.45657 -3.44053 0
M  V30 5329 H 490.578 1.91478 -5.1538 0
M  V30 5330 H 491.803 2.43497 -6.33945 0
M  V30 5331 H 489.749 4.23971 -5.00584 0
M  V30 5332 H 489.666 3.63588 -6.62827 0
M  V30 5333 H 490.934 4.7405 -6.18787 0
M  V30 5334 N 495.163 1.55791 0.238111 0
M  V30 5335 C 496.393 1.81834 0.980809 0
M  V30 5336 C 496.801 0.609741 1.79106 0
M  V30 5337 O 496.144 -0.431073 1.78571 0
M  V30 5338 C 496.206 3.01363 1.96011 0
M  V30 5339 C 495.87 4.37037 1.33597 0
M  V30 5340 C 496.867 5.14692 0.734063 0
M  V30 5341 C 494.552 4.83743 1.3527 0
M  V30 5342 C 496.546 6.37206 0.157208 0
M  V30 5343 C 494.233 6.06204 0.77199 0
M  V30 5344 C 495.231 6.82775 0.175282 0
M  V30 5345 O 494.919 8.02922 -0.396432 0
M  V30 5346 H 494.651 0.6088 0.293834 0
M  V30 5347 H 497.205 2.03702 0.263552 0
M  V30 5348 H 495.435 2.75273 2.71591 0
M  V30 5349 H 497.124 3.14422 2.56697 0
M  V30 5350 H 497.89 4.79722 0.713582 0
M  V30 5351 H 493.769 4.24129 1.80653 0
M  V30 5352 H 497.313 6.96915 -0.30917 0
M  V30 5353 H 493.21 6.4065 0.789828 0
M  V30 5354 H 493.978 8.17989 -0.289145 0
M  V30 5355 N 496.642 -0.504142 1.49319 0
M  V30 5356 C 497.891 -1.25507 1.57895 0
M  V30 5357 C 498.204 -1.93735 0.269433 0
M  V30 5358 O 499.41 -2.70492 0.233706 0
M  V30 5359 C 497.866 -2.27869 2.78574 0
M  V30 5360 C 497.474 -1.65594 4.16272 0
M  V30 5361 C 499.218 -3.0381 2.96479 0
M  V30 5362 C 497.125 -2.66048 5.28178 0
M  V30 5363 H 496.055 -0.47212 0.587894 0
M  V30 5364 H 498.706 -0.52931 1.757 0
M  V30 5365 H 497.088 -3.03594 2.54257 0
M  V30 5366 H 498.262 -0.958826 4.50714 0
M  V30 5367 H 496.577 -1.02055 4.037 0
M  V30 5368 H 499.174 -3.78925 3.77253 0
M  V30 5369 H 499.517 -3.61235 2.06918 0
M  V30 5370 H 500.05 -2.352 3.20821 0
M  V30 5371 H 496.789 -2.13408 6.19788 0
M  V30 5372 H 496.309 -3.34009 4.98195 0
M  V30 5373 H 497.988 -3.28536 5.57381 0
M  V30 5374 N 498.12 -1.38341 -0.754957 0
M  V30 5375 C 499.397 -1.24995 -1.50451 0
M  V30 5376 C 499.777 0.149244 -2.10572 0
M  V30 5377 O 499.125 1.15861 -1.96948 0
M  V30 5378 C 499.335 -2.35904 -2.57197 0
M  V30 5379 C 500.683 -2.74262 -3.24138 0
M  V30 5380 O 501.707 -2.35205 -2.67501 0
M  V30 5381 O 500.566 -3.4161 -4.26574 0
M  V30 5382 H 497.66 -0.48872 -0.667144 0
M  V30 5383 H 500.206 -1.50165 -0.790486 0
M  V30 5384 H 498.978 -3.2953 -2.11011 0
M  V30 5385 H 498.601 -2.12291 -3.36182 0
M  V30 5386 N 499.598 0.982988 -1.23187 0
M  V30 5387 C 500.823 1.76455 -1.08988 0
M  V30 5388 C 501.248 1.84726 0.354691 0
M  V30 5389 O 500.606 1.30699 1.25649 0
M  V30 5390 C 500.654 3.17094 -1.71708 0
M  V30 5391 O 499.758 4.00648 -0.977477 0
M  V30 5392 H 499.099 0.542988 -0.382177 0
M  V30 5393 H 501.629 1.23413 -1.63188 0
M  V30 5394 H 501.639 3.67684 -1.76841 0
M  V30 5395 H 500.314 3.10389 -2.76823 0
M  V30 5396 H 498.891 3.59161 -1.0029 0
M  V30 5397 N 501.076 1.04316 1.18135 0
M  V30 5398 C 502.039 0.640794 2.2006 0
M  V30 5399 C 503.039 -0.303124 1.57917 0
M  V30 5400 O 504.229 -0.0881855 1.73977 0
M  V30 5401 C 501.361 -0.060148 3.40847 0
M  V30 5402 H 502.554 1.54281 2.57172 0
M  V30 5403 H 500.107 0.836004 1.32063 0
M  V30 5404 H 500.842 -0.975845 3.0927 0
M  V30 5405 H 500.627 0.618319 3.87194 0
M  V30 5406 H 502.117 -0.328082 4.16309 0
M  V30 5407 N 502.554 -1.34406 0.822964 0
M  V30 5408 C 503.831 -1.92733 0.333641 0
M  V30 5409 C 504.211 -1.75107 -1.17901 0
M  V30 5410 O 503.559 -1.12983 -1.98613 0
M  V30 5411 C 503.769 -3.40557 0.763023 0
M  V30 5412 C 505.117 -4.17709 0.761879 0
M  V30 5413 O 506.141 -3.49141 0.705606 0
M  V30 5414 O 505 -5.40082 0.835109 0
M  V30 5415 H 502.094 -0.821964 0.0911249 0
M  V30 5416 H 504.64 -1.4338 0.907757 0
M  V30 5417 H 503.412 -3.47187 1.8049 0
M  V30 5418 H 503.035 -3.97259 0.164605 0
M  V30 5419 N 504.032 -0.577932 -1.46621 0
M  V30 5420 C 504.962 0.145917 -2.33044 0
M  V30 5421 C 505.943 0.888412 -1.45056 0
M  V30 5422 O 507.128 0.864812 -1.73881 0
M  V30 5423 C 504.258 1.16322 -3.27241 0
M  V30 5424 C 503.212 0.535868 -4.24632 0
M  V30 5425 C 502.538 1.65929 -5.08303 0
M  V30 5426 C 503.838 -0.523861 -5.19666 0
M  V30 5427 H 505.532 -0.575636 -2.93814 0
M  V30 5428 H 503.078 -0.278272 -1.41286 0
M  V30 5429 H 505.031 1.67793 -3.86553 0
M  V30 5430 H 503.755 1.91498 -2.64567 0
M  V30 5431 H 502.414 0.0422759 -3.66576 0
M  V30 5432 H 502.062 2.40061 -4.42018 0
M  V30 5433 H 501.762 1.2452 -5.74255 0
M  V30 5434 H 503.286 2.17686 -5.70478 0
M  V30 5435 H 504.7 -0.0944059 -5.73222 0
M  V30 5436 H 503.097 -0.858 -5.93935 0
M  V30 5437 H 504.167 -1.41197 -4.63887 0
M  V30 5438 N 505.51 1.54411 -0.315457 0
M  V30 5439 C 506.42 2.27737 0.56329 0
M  V30 5440 C 507.436 1.31787 1.13614 0
M  V30 5441 O 508.612 1.64791 1.15784 0
M  V30 5442 C 505.677 3.01478 1.71207 0
M  V30 5443 C 504.738 4.12997 1.17185 0
M  V30 5444 C 503.971 4.83212 2.26588 0
M  V30 5445 O 504.194 4.52884 3.46775 0
M  V30 5446 O 503.128 5.70299 1.92463 0
M  V30 5447 H 506.954 3.03683 -0.0319614 0
M  V30 5448 H 504.539 1.49178 -0.0814188 0
M  V30 5449 H 506.421 3.47683 2.38106 0
M  V30 5450 H 505.096 2.28414 2.29366 0
M  V30 5451 H 504.003 3.71159 0.468174 0
M  V30 5452 H 505.336 4.8808 0.635501 0
M  V30 5453 N 506.988 0.0434614 1.5754 0
M  V30 5454 C 508.399 -0.493343 1.80064 0
M  V30 5455 C 508.75 -1.71388 0.955023 0
M  V30 5456 O 507.875 -2.15736 0.169434 0
M  V30 5457 C 508.47 -0.90179 3.26578 0
M  V30 5458 C 507.029 -1.38362 3.50047 0
M  V30 5459 C 506.176 -0.355129 2.75017 0
M  V30 5460 H 509.127 0.2694 1.56397 0
M  V30 5461 H 509.148 -1.76523 3.37075 0
M  V30 5462 H 508.66 -0.013271 3.88098 0
M  V30 5463 H 506.761 -2.29159 2.93798 0
M  V30 5464 H 506.874 -1.3811 4.58762 0
M  V30 5465 H 505.238 -0.826348 2.40922 0
M  V30 5466 H 506.021 0.525172 3.39259 0
M  V30 5467 N 508.466 -1.55915 -0.229846 0
M  V30 5468 C 509.715 -1.77742 -0.953455 0
M  V30 5469 C 510.028 -0.610524 -1.85828 0
M  V30 5470 O 511.234 -0.712219 -2.61992 0
M  V30 5471 C 509.69 -3.14738 -1.74551 0
M  V30 5472 C 509.298 -4.39126 -0.887242 0
M  V30 5473 C 511.042 -3.45895 -2.46084 0
M  V30 5474 C 508.949 -5.67149 -1.67617 0
M  V30 5475 H 507.879 -0.662648 -0.359741 0
M  V30 5476 H 510.53 -1.82322 -0.207576 0
M  V30 5477 H 508.912 -3.04311 -2.53399 0
M  V30 5478 H 510.086 -4.60588 -0.139892 0
M  V30 5479 H 508.401 -4.15427 -0.284443 0
M  V30 5480 H 510.998 -4.38767 -3.05594 0
M  V30 5481 H 511.341 -2.68007 -3.18556 0
M  V30 5482 H 511.874 -3.57614 -1.74233 0
M  V30 5483 H 508.613 -6.47906 -0.994881 0
M  V30 5484 H 508.133 -5.49763 -2.39836 0
M  V30 5485 H 509.812 -6.07025 -2.23898 0
M  V30 5486 N 509.944 0.496216 -1.49584 0
M  V30 5487 C 511.172 1.27394 -1.63029 0
M  V30 5488 C 511.587 1.86344 -0.303569 0
M  V30 5489 O 510.944 1.68057 0.711547 0
M  V30 5490 C 510.995 2.40077 -2.70269 0
M  V30 5491 O 510.716 1.83549 -3.97796 0
M  V30 5492 C 512.217 3.31372 -2.94462 0
M  V30 5493 H 509.437 0.386211 -0.54871 0
M  V30 5494 H 511.981 0.595163 -1.95648 0
M  V30 5495 H 510.136 3.03775 -2.40415 0
M  V30 5496 H 510.55 2.57561 -4.56905 0
M  V30 5497 H 512.024 4.06707 -3.73221 0
M  V30 5498 H 512.501 3.88654 -2.0456 0
M  V30 5499 H 513.107 2.73435 -3.25751 0
M  V30 5500 N 511.423 1.38739 0.74761 0
M  V30 5501 C 512.648 1.38702 1.54197 0
M  V30 5502 C 513.073 -0.019664 1.8809 0
M  V30 5503 O 512.431 -1.00333 1.51006 0
M  V30 5504 C 512.479 2.25492 2.814 0
M  V30 5505 O 511.583 1.67613 3.76802 0
M  V30 5506 H 510.924 0.472863 0.466151 0
M  V30 5507 H 513.454 1.82577 0.923413 0
M  V30 5508 H 513.464 2.39561 3.30264 0
M  V30 5509 H 512.139 3.27727 2.56062 0
M  V30 5510 H 510.716 1.62718 3.35526 0
M  V30 5511 N 512.901 -0.976442 1.23707 0
M  V30 5512 C 513.833 -2.07212 0.979574 0
M  V30 5513 C 514.846 -1.6273 -0.0478528 0
M  V30 5514 O 516.035 -1.77506 0.18815 0
M  V30 5515 C 513.135 -3.35835 0.45479 0
M  V30 5516 C 512.308 -4.09268 1.54331 0
M  V30 5517 C 511.367 -5.16166 1.02271 0
M  V30 5518 O 510.393 -5.42827 1.71254 0
M  V30 5519 N 511.595 -5.80313 -0.147419 0
M  V30 5520 H 514.36 -2.29878 1.92292 0
M  V30 5521 H 511.921 -1.14343 1.14618 0
M  V30 5522 H 513.913 -4.04597 0.0914631 0
M  V30 5523 H 512.483 -3.10106 -0.394068 0
M  V30 5524 H 511.703 -3.34906 2.07923 0
M  V30 5525 H 512.991 -4.55095 2.27522 0
M  V30 5526 H 512.389 -5.61043 -0.724353 0
M  V30 5527 H 510.946 -6.50231 -0.451972 0
M  V30 5528 N 514.379 -1.04941 -1.1758 0
M  V30 5529 C 515.289 -0.658826 -2.25159 0
M  V30 5530 C 516.305 0.318941 -1.71052 0
M  V30 5531 O 517.481 0.171669 -2.00667 0
M  V30 5532 C 514.546 -0.0369522 -3.4668 0
M  V30 5533 C 513.607 -1.06484 -4.15884 0
M  V30 5534 C 512.84 -0.472551 -5.31604 0
M  V30 5535 O 513.063 0.718736 -5.65854 0
M  V30 5536 O 511.997 -1.20557 -5.89703 0
M  V30 5537 H 515.823 -1.55533 -2.60851 0
M  V30 5538 H 513.408 -0.820819 -1.24832 0
M  V30 5539 H 515.29 0.308784 -4.20267 0
M  V30 5540 H 513.965 0.833238 -3.12792 0
M  V30 5541 H 512.872 -1.46253 -3.44327 0
M  V30 5542 H 514.205 -1.9061 -4.53794 0
M  V30 5543 N 515.857 1.33968 -0.830081 0
M  V30 5544 C 516.767 2.33164 -0.259207 0
M  V30 5545 C 517.783 1.62951 0.610164 0
M  V30 5546 O 518.959 1.94668 0.516369 0
M  V30 5547 C 516.024 3.42088 0.563598 0
M  V30 5548 C 515.085 4.28037 -0.329014 0
M  V30 5549 C 514.318 5.3176 0.454616 0
M  V30 5550 O 514.541 5.44876 1.6872 0
M  V30 5551 O 513.475 6.01669 -0.166794 0
M  V30 5552 H 517.301 2.83832 -1.08041 0
M  V30 5553 H 514.886 1.37154 -0.59239 0
M  V30 5554 H 516.768 4.08581 1.03147 0
M  V30 5555 H 515.443 2.93651 1.36201 0
M  V30 5556 H 514.35 3.64443 -0.844538 0
M  V30 5557 H 515.683 4.79934 -1.09196 0
M  V30 5558 N 517.335 0.585699 1.46312 0
M  V30 5559 C 518.746 0.159938 1.86014 0
M  V30 5560 C 519.097 -1.27775 1.48889 0
M  V30 5561 O 518.222 -1.96559 0.90519 0
M  V30 5562 C 518.817 0.283485 3.37612 0
M  V30 5563 C 517.376 -0.0874256 3.76298 0
M  V30 5564 C 516.523 0.618055 2.70325 0
M  V30 5565 H 519.474 0.793737 1.37425 0
M  V30 5566 H 519.495 -0.490348 3.77327 0
M  V30 5567 H 519.007 1.32995 3.64601 0
M  V30 5568 H 517.108 -1.13391 3.54927 0
M  V30 5569 H 517.221 0.290975 4.78216 0
M  V30 5570 H 515.585 0.057993 2.54634 0
M  V30 5571 H 516.368 1.66623 3.00153 0
M  V30 5572 N 518.813 -1.54241 0.323641 0
M  V30 5573 C 520.059 -2.00867 -0.279323 0
M  V30 5574 C 520.392 -1.21146 -1.5178 0
M  V30 5575 O 519.667 -0.29378 -1.92269 0
M  V30 5576 C 519.95 -3.54837 -0.613387 0
M  V30 5577 C 519.803 -4.45284 0.635803 0
M  V30 5578 C 521.122 -4.16186 -1.43099 0
M  V30 5579 H 518.241 -0.730177 -0.100049 0
M  V30 5580 H 520.883 -1.84829 0.440235 0
M  V30 5581 H 519.033 -3.68634 -1.22641 0
M  V30 5582 H 520.705 -4.43357 1.27406 0
M  V30 5583 H 518.948 -4.14956 1.26466 0
M  V30 5584 H 519.619 -5.5084 0.357597 0
M  V30 5585 H 522.095 -4.05964 -0.912814 0
M  V30 5586 H 520.971 -5.24031 -1.6335 0
M  V30 5587 H 521.232 -3.69516 -2.42715 0
M  V30 5588 N 520.291 -0.0518155 -1.57515 0
M  V30 5589 C 521.707 0.304735 -1.56664 0
M  V30 5590 C 521.907 1.71395 -1.05953 0
M  V30 5591 O 520.963 2.42123 -0.716414 0
M  V30 5592 C 522.276 0.132614 -3.00407 0
M  V30 5593 C 523.824 0.20367 -3.12337 0
M  V30 5594 C 524.299 0.0600706 -4.57961 0
M  V30 5595 N 525.79 0.116326 -4.63054 0
M  V30 5596 C 526.525 0.0293363 -5.73392 0
M  V30 5597 N 526.021 -0.110038 -6.92713 0
M  V30 5598 N 527.814 0.0849651 -5.62036 0
M  V30 5599 H 519.965 -0.973056 -1.888 0
M  V30 5600 H 522.228 -0.377781 -0.869474 0
M  V30 5601 H 521.934 -0.839019 -3.41546 0
M  V30 5602 H 521.808 0.893376 -3.66468 0
M  V30 5603 H 524.195 1.16578 -2.71097 0
M  V30 5604 H 524.276 -0.587857 -2.48954 0
M  V30 5605 H 523.92 -0.898715 -4.99886 0
M  V30 5606 H 523.85 0.87075 -5.19351 0
M  V30 5607 H 526.341 0.22327 -3.7724 0
M  V30 5608 H 526.654 -0.169104 -7.72615 0
M  V30 5609 H 524.999 -0.145132 -6.94848 0
M  V30 5610 H 528.19 0.192411 -4.67704 0
M  V30 5611 H 528.363 0.0137131 -6.47999 0
M  V30 5612 N 521.769 1.56035 0.221574 0
M  V30 5613 C 522.999 1.82864 0.961468 0
M  V30 5614 C 523.407 0.628703 1.78449 0
M  V30 5615 O 522.75 -0.412109 1.79018 0
M  V30 5616 C 522.812 3.03425 1.92804 0
M  V30 5617 C 522.476 4.38429 1.28954 0
M  V30 5618 C 523.473 5.15441 0.679431 0
M  V30 5619 C 521.158 4.85151 1.30131 0
M  V30 5620 C 523.152 6.37337 0.0896148 0
M  V30 5621 C 520.839 6.06989 0.707651 0
M  V30 5622 C 521.837 6.82923 0.102855 0
M  V30 5623 O 521.525 8.02456 -0.48157 0
M  V30 5624 H 521.257 0.611883 0.28736 0
M  V30 5625 H 523.811 2.0397 0.241932 0
M  V30 5626 H 522.041 2.78138 2.68656 0
M  V30 5627 H 523.73 3.17127 2.53348 0
M  V30 5628 H 524.496 4.80452 0.662661 0
M  V30 5629 H 520.375 4.26021 1.76145 0
M  V30 5630 H 523.919 6.96547 -0.383069 0
M  V30 5631 H 519.816 6.41451 0.721834 0
M  V30 5632 H 520.584 8.17636 -0.375887 0
M  V30 5633 N 523.247 -0.488276 1.49845 0
M  V30 5634 C 524.197 -1.58556 1.63842 0
M  V30 5635 C 525.181 -1.53142 0.493586 0
M  V30 5636 O 526.373 -1.60457 0.747169 0
M  V30 5637 C 523.502 -2.97101 1.72005 0
M  V30 5638 C 522.588 -3.07463 2.92108 0
M  V30 5639 N 522.979 -2.87681 4.16021 0
M  V30 5640 C 521.277 -3.3858 2.90309 0
M  V30 5641 C 521.978 -3.0256 4.96822 0
M  V30 5642 N 520.954 -3.32002 4.30437 0
M  V30 5643 H 524.756 -1.41935 2.57355 0
M  V30 5644 H 522.27 -0.694668 1.46793 0
M  V30 5645 H 524.267 -3.75976 1.80132 0
M  V30 5646 H 522.927 -3.14782 0.796375 0
M  V30 5647 H 523.938 -2.63603 4.45796 0
M  V30 5648 H 520.615 -3.62357 2.07372 0
M  V30 5649 H 522.005 -2.9165 6.05301 0
M  V30 5650 N 524.725 -1.39134 -0.740242 0
M  V30 5651 C 525.635 -1.39697 -1.88473 0
M  V30 5652 C 526.651 -0.292403 -1.71526 0
M  V30 5653 O 527.827 -0.533021 -1.94219 0
M  V30 5654 C 524.892 -1.23382 -3.24003 0
M  V30 5655 C 523.953 -2.43763 -3.53381 0
M  V30 5656 C 523.186 -2.28216 -4.82445 0
M  V30 5657 O 523.409 -1.28288 -5.55786 0
M  V30 5658 O 522.343 -3.1709 -5.11603 0
M  V30 5659 H 526.169 -2.36159 -1.90952 0
M  V30 5660 H 523.754 -1.20194 -0.887346 0
M  V30 5661 H 525.636 -1.16395 -4.05006 0
M  V30 5662 H 524.311 -0.300121 -3.22306 0
M  V30 5663 H 523.218 -2.56325 -2.72485 0
M  V30 5664 H 524.551 -3.35808 -3.59852 0
M  V30 5665 N 526.204 0.969867 -1.24223 0
M  V30 5666 C 527.167 2.04564 -1.03373 0
M  V30 5667 C 528.167 1.60798 0.00819206 0
M  V30 5668 O 529.357 1.72641 -0.232567 0
M  V30 5669 C 526.489 3.36163 -0.566343 0
M  V30 5670 H 527.682 2.24494 -1.98853 0
M  V30 5671 H 525.235 1.1448 -1.06415 0
M  V30 5672 H 525.97 3.21925 0.391751 0
M  V30 5673 H 525.755 3.69273 -1.31834 0
M  V30 5674 H 527.245 4.1526 -0.441435 0
M  V30 5675 N 527.682 1.05563 1.17022 0
M  V30 5676 C 528.928 0.778872 1.87897 0
M  V30 5677 C 529.283 -0.686839 1.79723 0
M  V30 5678 O 528.576 -1.49612 1.19694 0
M  V30 5679 C 528.77 1.19849 3.36706 0
M  V30 5680 C 528.599 2.70345 3.59366 0
M  V30 5681 C 527.369 3.37707 3.75875 0
M  V30 5682 C 529.567 3.68564 3.58699 0
M  V30 5683 N 527.549 4.7703 3.86414 0
M  V30 5684 C 528.92 4.93634 3.75134 0
M  V30 5685 C 530.975 3.6198 3.4187 0
M  V30 5686 C 529.678 6.12907 3.76481 0
M  V30 5687 C 531.704 4.80697 3.44507 0
M  V30 5688 C 531.066 6.04592 3.61453 0
M  V30 5689 H 527.165 0.337297 0.705517 0
M  V30 5690 H 529.749 1.34832 1.40458 0
M  V30 5691 H 527.92 0.656958 3.82804 0
M  V30 5692 H 529.652 0.871172 3.95212 0
M  V30 5693 H 526.407 2.88108 3.75887 0
M  V30 5694 H 526.831 5.49483 3.95471 0
M  V30 5695 H 531.473 2.67154 3.27702 0
M  V30 5696 H 529.191 7.08073 3.89432 0
M  V30 5697 H 532.777 4.77259 3.32738 0
M  V30 5698 H 531.657 6.94916 3.63403 0
M  V30 5699 N 529.16 -1.33526 0.837174 0
M  V30 5700 C 530.092 -2.28077 0.226579 0
M  V30 5701 C 531.105 -1.51666 -0.591717 0
M  V30 5702 O 532.294 -1.73511 -0.419064 0
M  V30 5703 C 529.394 -3.31597 -0.69978 0
M  V30 5704 C 528.567 -4.37329 0.0788067 0
M  V30 5705 C 527.626 -5.20526 -0.770637 0
M  V30 5706 O 526.652 -5.68811 -0.210453 0
M  V30 5707 N 527.854 -5.41639 -2.08825 0
M  V30 5708 H 530.619 -2.81115 1.03897 0
M  V30 5709 H 528.18 -1.46201 0.695476 0
M  V30 5710 H 530.172 -3.84158 -1.27298 0
M  V30 5711 H 528.742 -2.78848 -1.41288 0
M  V30 5712 H 527.962 -3.8529 0.833381 0
M  V30 5713 H 529.25 -5.05079 0.614238 0
M  V30 5714 H 528.648 -5.04108 -2.56693 0
M  V30 5715 H 527.205 -5.97263 -2.60998 0
M  V30 5716 N 530.638 -0.59345 -1.46 0
M  V30 5717 C 531.585 0.133618 -2.30413 0
M  V30 5718 C 532.555 0.873736 -1.41262 0
M  V30 5719 O 533.74 0.862279 -1.70204 0
M  V30 5720 C 530.88 1.13434 -3.25924 0
M  V30 5721 C 529.993 0.39656 -4.30176 0
M  V30 5722 C 529.128 1.38575 -5.12806 0
M  V30 5723 C 528.167 0.634984 -6.08797 0
M  V30 5724 N 527.304 1.57276 -6.84258 0
M  V30 5725 H 532.144 -0.592252 -2.92055 0
M  V30 5726 H 529.681 -0.303874 -1.43927 0
M  V30 5727 H 531.639 1.72752 -3.79753 0
M  V30 5728 H 530.269 1.82779 -2.66067 0
M  V30 5729 H 529.321 -0.311861 -3.79119 0
M  V30 5730 H 530.633 -0.189869 -4.98438 0
M  V30 5731 H 529.787 2.05141 -5.70966 0
M  V30 5732 H 528.526 2.00611 -4.44529 0
M  V30 5733 H 527.531 -0.0443925 -5.49782 0
M  V30 5734 H 528.756 0.0198678 -6.79097 0
M  V30 5735 H 526.702 2.18103 -6.18682 0
M  V30 5736 H 526.619 1.03941 -7.48821 0
M  V30 5737 H 527.887 2.22844 -7.46968 0
M  V30 5738 N 532.116 1.54067 -0.331816 0
M  V30 5739 C 533.046 2.27569 0.522932 0
M  V30 5740 C 534.027 1.28679 1.11247 0
M  V30 5741 O 535.212 1.57504 1.13605 0
M  V30 5742 C 532.342 3.0397 1.67987 0
M  V30 5743 C 531.296 4.10267 1.21924 0
M  V30 5744 C 530.622 4.74555 2.46377 0
M  V30 5745 C 531.922 5.21268 0.32815 0
M  V30 5746 H 533.616 2.99264 -0.0901977 0
M  V30 5747 H 531.162 1.4393 -0.044821 0
M  V30 5748 H 533.115 3.54123 2.28418 0
M  V30 5749 H 531.839 2.29906 2.31971 0
M  V30 5750 H 530.498 3.61009 0.637809 0
M  V30 5751 H 530.146 3.97098 3.08743 0
M  V30 5752 H 529.846 5.46363 2.16243 0
M  V30 5753 H 531.37 5.27487 3.07555 0
M  V30 5754 H 532.784 5.67128 0.838978 0
M  V30 5755 H 531.181 5.99982 0.119228 0
M  V30 5756 H 532.251 4.80673 -0.638839 0
M  V30 5757 N 533.594 0.0601682 1.57485 0
M  V30 5758 C 534.834 -0.615384 1.94916 0
M  V30 5759 C 535.198 -1.67475 0.938948 0
M  V30 5760 O 536.399 -2.40502 1.20051 0
M  V30 5761 C 534.67 -1.18788 3.37082 0
M  V30 5762 S 536.229 -1.88018 3.96478 0
M  V30 5763 H 533.047 -0.201821 0.681754 0
M  V30 5764 H 535.649 0.131252 1.95059 0
M  V30 5765 H 534.353 -0.404869 4.08398 0
M  V30 5766 H 533.884 -1.97114 3.40455 0
M  V30 5767 H 535.899 -3.16161 3.82435 0
M  V30 5768 N 535.072 -1.5615 -0.213296 0
M  V30 5769 C 536.297 -1.83986 -0.957282 0
M  V30 5770 C 536.722 -0.641526 -1.76822 0
M  V30 5771 O 536.08 0.409722 -1.7661 0
M  V30 5772 C 536.128 -3.09889 -1.84393 0
M  V30 5773 O 535.232 -2.89163 -2.94038 0
M  V30 5774 H 534.573 -0.606357 -0.270605 0
M  V30 5775 H 537.103 -2.03369 -0.224111 0
M  V30 5776 H 537.113 -3.40209 -2.25215 0
M  V30 5777 H 535.788 -3.96735 -1.24795 0
M  V30 5778 H 534.365 -2.70097 -2.57103 0
M  V30 5779 N 536.55 0.480323 -1.50102 0
M  V30 5780 C 537.513 1.56181 -1.6775 0
M  V30 5781 C 538.513 1.51156 -0.548503 0
M  V30 5782 O 539.703 1.5394 -0.815363 0
M  V30 5783 C 536.835 2.95823 -1.69415 0
M  V30 5784 H 538.028 1.41855 -2.6423 0
M  V30 5785 H 535.581 0.70605 -1.39444 0
M  V30 5786 H 536.316 3.15604 -0.745948 0
M  V30 5787 H 536.101 3.00878 -2.51425 0
M  V30 5788 H 537.591 3.74359 -1.85054 0
M  V30 5789 N 538.028 1.39524 0.732853 0
M  V30 5790 C 538.978 1.34905 1.83806 0
M  V30 5791 C 539.962 0.229546 1.59254 0
M  V30 5792 O 541.154 0.467255 1.70721 0
M  V30 5793 C 538.283 1.19699 3.21756 0
M  V30 5794 C 537.369 2.36359 3.5213 0
M  V30 5795 N 537.76 3.61834 3.53426 0
M  V30 5796 C 536.058 2.29363 3.82503 0
M  V30 5797 C 536.759 4.38992 3.81655 0
M  V30 5798 N 535.735 3.68606 3.99538 0
M  V30 5799 H 539.537 2.29882 1.83116 0
M  V30 5800 H 537.051 1.33051 0.931194 0
M  V30 5801 H 539.048 1.14472 4.00876 0
M  V30 5802 H 537.708 0.256739 3.23683 0
M  V30 5803 H 538.719 3.95228 3.34686 0
M  V30 5804 H 535.396 1.43612 3.92023 0
M  V30 5805 H 536.786 5.47763 3.89108 0
M  V30 5806 N 539.506 -0.963266 1.24736 0
M  V30 5807 C 540.754 -1.70343 1.08755 0
M  V30 5808 C 541.075 -1.91387 -0.373619 0
M  V30 5809 O 540.345 -1.4948 -1.2662 0
M  V30 5810 H 538.925 -0.631224 0.399456 0
M  V30 5811 H 541.587 -1.15859 1.56725 0
M  V30 5812 H 540.683 -2.68616 1.58909 0
M  V30 5813 N 540.985 -1.06182 -1.16461 0
M  V30 5814 C 542.231 -0.779015 -1.87241 0
M  V30 5815 C 542.564 0.692715 -1.81425 0
M  V30 5816 O 541.839 1.5074 -1.22913 0
M  V30 5817 C 542.122 -1.2728 -3.36856 0
M  V30 5818 C 541.975 -2.80821 -3.51368 0
M  V30 5819 C 543.294 -0.879799 -4.31216 0
M  V30 5820 H 540.413 -0.284464 -0.679889 0
M  V30 5821 H 543.055 -1.31755 -1.36896 0
M  V30 5822 H 541.205 -0.814673 -3.79862 0
M  V30 5823 H 542.877 -3.34833 -3.17308 0
M  V30 5824 H 541.12 -3.19606 -2.93316 0
M  V30 5825 H 541.791 -3.10435 -4.56436 0
M  V30 5826 H 544.267 -1.27436 -3.96105 0
M  V30 5827 H 543.143 -1.25278 -5.34412 0
M  V30 5828 H 543.404 0.215372 -4.41575 0
M  V30 5829 N 542.463 1.3308 -0.844243 0
M  V30 5830 C 543.393 2.3161 -0.296493 0
M  V30 5831 C 544.374 1.59215 0.598707 0
M  V30 5832 O 545.559 1.87077 0.521134 0
M  V30 5833 C 542.689 3.43313 0.524762 0
M  V30 5834 C 541.643 4.27115 -0.275106 0
M  V30 5835 C 540.969 5.30483 0.670236 0
M  V30 5836 C 542.269 5.00443 -1.49514 0
M  V30 5837 H 543.963 2.77672 -1.11976 0
M  V30 5838 H 541.509 1.33496 -0.539899 0
M  V30 5839 H 543.462 4.11273 0.918298 0
M  V30 5840 H 542.186 2.95952 1.3813 0
M  V30 5841 H 540.845 3.60787 -0.650267 0
M  V30 5842 H 540.493 4.79379 1.52332 0
M  V30 5843 H 540.193 5.87435 0.139123 0
M  V30 5844 H 541.717 6.01308 1.06117 0
M  V30 5845 H 543.131 5.61141 -1.17447 0
M  V30 5846 H 541.528 5.67071 -1.96343 0
M  V30 5847 H 542.598 4.28906 -2.26202 0
M  V30 5848 N 543.941 0.601185 1.45683 0
M  V30 5849 C 545.187 0.0940202 2.02582 0
M  V30 5850 C 545.52 -1.26972 1.46941 0
M  V30 5851 O 544.795 -1.83613 0.641612 0
M  V30 5852 C 545.078 0.0481715 3.60068 0
M  V30 5853 C 544.931 1.44212 4.26055 0
M  V30 5854 C 546.25 -0.642975 4.35378 0
M  V30 5855 H 543.369 0.0356404 0.736138 0
M  V30 5856 H 546.011 0.771929 1.73612 0
M  V30 5857 H 544.161 -0.529128 3.8488 0
M  V30 5858 H 545.833 2.06601 4.12449 0
M  V30 5859 H 544.076 2.00465 3.84703 0
M  V30 5860 H 544.747 1.36234 5.34925 0
M  V30 5861 H 547.223 -0.152351 4.15821 0
M  V30 5862 H 546.099 -0.644141 5.45107 0
M  V30 5863 H 546.36 -1.70785 4.0778 0
M  V30 5864 N 545.419 -1.53889 0.339982 0
M  V30 5865 C 546.83 -1.86139 -0.144671 0
M  V30 5866 C 547.181 -1.2613 -1.50285 0
M  V30 5867 O 546.306 -0.573515 -2.08662 0
M  V30 5868 C 546.901 -3.37728 -0.269285 0
M  V30 5869 C 545.46 -3.69868 -0.698168 0
M  V30 5870 C 544.607 -2.76777 0.170249 0
M  V30 5871 H 547.558 -1.48503 0.559704 0
M  V30 5872 H 547.579 -3.64331 -1.0974 0
M  V30 5873 H 547.091 -3.81375 0.719366 0
M  V30 5874 H 545.192 -3.31764 -1.69597 0
M  V30 5875 H 545.305 -4.76582 -0.490533 0
M  V30 5876 H 543.669 -2.52188 -0.356844 0
M  V30 5877 H 544.452 -3.23253 1.15597 0
M  V30 5878 N 546.897 -0.0685191 -1.57451 0
M  V30 5879 C 548.145 0.60016 -1.92983 0
M  V30 5880 C 548.466 1.70348 -0.949028 0
M  V30 5881 O 547.736 1.959 0.00335647 0
M  V30 5882 H 546.316 0.224682 -0.712409 0
M  V30 5883 H 548.978 -0.125605 -1.94495 0
M  V30 5884 H 548.074 1.02759 -2.94698 0
M  V30 5885 N 548.375 1.56261 0.205012 0
M  V30 5886 C 549.623 1.79684 0.925096 0
M  V30 5887 C 549.944 0.63989 1.84202 0
M  V30 5888 O 549.214 -0.342345 1.92885 0
M  V30 5889 H 547.794 0.662774 0.344587 0
M  V30 5890 H 550.456 1.93734 0.212899 0
M  V30 5891 H 549.552 2.72467 1.52211 0
M  V30 5892 N 549.853 -0.472356 1.50355 0
M  V30 5893 C 551.1 -1.22453 1.61281 0
M  V30 5894 C 551.428 -1.91972 0.31256 0
M  V30 5895 O 550.683 -1.82696 -0.701475 0
M  V30 5896 C 550.982 -2.29257 2.74182 0
M  V30 5897 C 550.648 -1.76999 4.14708 0
M  V30 5898 C 549.31 -1.62467 4.52944 0
M  V30 5899 C 551.662 -1.38215 5.0254 0
M  V30 5900 C 548.99 -1.07574 5.76754 0
M  V30 5901 C 551.342 -0.847638 6.26895 0
M  V30 5902 C 550.006 -0.688946 6.63935 0
M  V30 5903 H 549.276 -0.448087 0.590168 0
M  V30 5904 H 551.923 -0.520744 1.84284 0
M  V30 5905 H 550.228 -3.05538 2.45263 0
M  V30 5906 H 551.925 -2.87212 2.7984 0
M  V30 5907 H 548.515 -1.89276 3.84542 0
M  V30 5908 H 552.699 -1.48276 4.73633 0
M  V30 5909 H 547.955 -0.940237 6.04127 0
M  V30 5910 H 552.129 -0.538455 6.94315 0
M  V30 5911 H 549.756 -0.261435 7.5975 0
M  V30 5912 N 551.331 -1.39911 -0.725443 0
M  V30 5913 C 552.579 -1.37382 -1.48224 0
M  V30 5914 C 552.9 0.0264107 -1.94982 0
M  V30 5915 O 552.17 0.979408 -1.6966 0
M  V30 5916 H 550.75 -0.505596 -0.549892 0
M  V30 5917 H 553.412 -1.7487 -0.860608 0
M  V30 5918 H 552.508 -2.04254 -2.3598 0
M  V30 5919 N 552.809 0.956637 -1.25245 0
M  V30 5920 C 554.055 1.70352 -1.10036 0
M  V30 5921 C 554.388 1.90869 0.358156 0
M  V30 5922 O 553.663 1.47819 1.26411 0
M  V30 5923 C 553.946 3.08766 -1.85298 0
M  V30 5924 C 553.799 2.95672 -3.38966 0
M  V30 5925 C 555.118 4.08622 -1.63451 0
M  V30 5926 H 552.237 0.618279 -0.401123 0
M  V30 5927 H 554.879 1.11212 -1.54051 0
M  V30 5928 H 553.029 3.59252 -1.47887 0
M  V30 5929 H 554.701 2.52527 -3.86041 0
M  V30 5930 H 552.944 2.31634 -3.6678 0
M  V30 5931 H 553.615 3.93776 -3.86839 0
M  V30 5932 H 556.091 3.67038 -1.96015 0
M  V30 5933 H 554.967 5.03514 -2.18551 0
M  V30 5934 H 555.228 4.3834 -0.575357 0
M  V30 5935 N 554.287 1.06798 1.15896 0
M  V30 5936 C 555.703 0.792423 1.38538 0
M  V30 5937 C 555.903 -0.60592 1.92174 0
M  V30 5938 O 554.959 -1.36561 2.12385 0
M  V30 5939 C 556.272 1.86157 2.36149 0
M  V30 5940 C 557.82 1.88567 2.49823 0
M  V30 5941 C 558.295 2.9455 3.5072 0
M  V30 5942 N 559.786 2.93616 3.58251 0
M  V30 5943 C 560.521 3.72267 4.36125 0
M  V30 5944 N 560.017 4.60751 5.17379 0
M  V30 5945 N 561.81 3.60637 4.31158 0
M  V30 5946 H 553.961 1.96993 0.794198 0
M  V30 5947 H 556.224 0.853942 0.411688 0
M  V30 5948 H 555.93 2.86603 2.03843 0
M  V30 5949 H 555.804 1.71692 3.3586 0
M  V30 5950 H 558.191 0.887765 2.8143 0
M  V30 5951 H 558.272 2.0711 1.5013 0
M  V30 5952 H 557.916 3.94537 3.19849 0
M  V30 5953 H 557.846 2.73255 4.50155 0
M  V30 5954 H 560.337 2.29472 3.00252 0
M  V30 5955 H 560.65 5.17408 5.74028 0
M  V30 5956 H 558.995 4.64803 5.16704 0
M  V30 5957 H 562.186 2.90892 3.66742 0
M  V30 5958 H 562.359 4.22176 4.91601 0
M  V30 5959 N 555.766 -1.3263 0.851289 0
M  V30 5960 C 557.014 -1.96978 0.452128 0
M  V30 5961 C 557.335 -1.67715 -0.99482 0
M  V30 5962 O 556.605 -0.98259 -1.69476 0
M  V30 5963 H 555.185 -0.72873 0.164202 0
M  V30 5964 H 557.847 -1.61774 1.08698 0
M  V30 5965 H 556.943 -3.06387 0.594407 0
M  V30 5966 N 557.244 -0.608902 -1.45362 0
M  V30 5967 C 558.472 -0.111013 -2.06602 0
M  V30 5968 C 558.887 1.20516 -1.45332 0
M  V30 5969 O 558.244 1.73437 -0.567978 0
M  V30 5970 C 558.295 0.033688 -3.61484 0
M  V30 5971 O 558.016 -1.23041 -4.20467 0
M  V30 5972 C 559.517 0.562882 -4.39712 0
M  V30 5973 H 556.737 -0.0694453 -0.667397 0
M  V30 5974 H 559.281 -0.837008 -1.86586 0
M  V30 5975 H 557.436 0.710016 -3.80838 0
M  V30 5976 H 557.85 -1.06094 -5.13658 0
M  V30 5977 H 559.324 0.613213 -5.48583 0
M  V30 5978 H 559.801 1.58543 -4.09586 0
M  V30 5979 H 560.407 -0.0794454 -4.25226 0
M  V30 5980 N 558.722 1.53707 -0.348139 0
M  V30 5981 C 559.632 2.28881 0.514857 0
M  V30 5982 C 560.648 1.34168 1.10793 0
M  V30 5983 O 561.824 1.6721 1.12262 0
M  V30 5984 C 558.889 3.05042 1.64774 0
M  V30 5985 C 557.95 4.15389 1.08398 0
M  V30 5986 C 557.183 4.87909 2.16287 0
M  V30 5987 O 557.406 4.60137 3.3709 0
M  V30 5988 O 556.34 5.74254 1.80323 0
M  V30 5989 H 560.166 3.03547 -0.0963699 0
M  V30 5990 H 557.751 1.48972 -0.113043 0
M  V30 5991 H 559.633 3.52656 2.30677 0
M  V30 5992 H 558.308 2.33228 2.24469 0
M  V30 5993 H 557.215 3.72068 0.389341 0
M  V30 5994 H 558.548 4.89318 0.531829 0
M  V30 5995 N 560.2 0.0768682 1.57412 0
M  V30 5996 C 561.448 -0.589918 1.93299 0
M  V30 5997 C 561.769 -1.69842 0.958049 0
M  V30 5998 O 561.039 -1.95899 0.00703261 0
M  V30 5999 H 559.619 -0.220901 0.713591 0
M  V30 6000 H 562.281 0.135917 1.94425 0
M  V30 6001 H 561.377 -1.01195 2.95239 0
M  V30 6002 N 561.678 -1.56367 -0.196722 0
M  V30 6003 C 562.625 -1.94417 -1.24382 0
M  V30 6004 C 563.595 -0.804543 -1.45315 0
M  V30 6005 O 564.78 -1.06256 -1.58475 0
M  V30 6006 C 561.92 -2.28757 -2.58388 0
M  V30 6007 C 561.033 -3.55775 -2.45047 0
M  V30 6008 C 560.168 -3.79445 -3.71746 0
M  V30 6009 C 559.207 -4.99894 -3.53231 0
M  V30 6010 N 558.344 -5.19826 -4.71938 0
M  V30 6011 H 563.184 -2.83691 -0.912338 0
M  V30 6012 H 560.721 -1.40392 -0.439135 0
M  V30 6013 H 562.679 -2.46682 -3.36457 0
M  V30 6014 H 561.309 -1.42625 -2.89582 0
M  V30 6015 H 560.361 -3.45905 -1.58284 0
M  V30 6016 H 561.673 -4.44 -2.27299 0
M  V30 6017 H 560.827 -3.97601 -4.58256 0
M  V30 6018 H 559.566 -2.89546 -3.92446 0
M  V30 6019 H 558.571 -4.81662 -2.65107 0
M  V30 6020 H 559.796 -5.913 -3.33978 0
M  V30 6021 H 557.742 -4.32875 -4.92905 0
M  V30 6022 H 557.659 -6.02228 -4.57009 0
M  V30 6023 H 558.927 -5.42439 -5.59803 0
M  V30 6024 N 563.156 0.464375 -1.50603 0
M  V30 6025 C 564.405 1.21277 -1.61167 0
M  V30 6026 C 564.718 1.92953 -0.320704 0
M  V30 6027 O 565.924 2.69778 -0.30534 0
M  V30 6028 C 564.38 2.20403 -2.84518 0
M  V30 6029 C 563.988 1.54499 -4.20516 0
M  V30 6030 C 565.732 2.95843 -3.0443 0
M  V30 6031 C 563.639 2.51951 -5.35047 0
M  V30 6032 H 562.569 0.456367 -0.600204 0
M  V30 6033 H 565.22 0.48254 -1.77042 0
M  V30 6034 H 563.602 2.96746 -2.62217 0
M  V30 6035 H 564.776 0.83899 -4.53098 0
M  V30 6036 H 563.091 0.913152 -4.06264 0
M  V30 6037 H 565.688 3.6879 -3.87167 0
M  V30 6038 H 566.031 3.55622 -2.16423 0
M  V30 6039 H 566.564 2.26611 -3.26944 0
M  V30 6040 H 563.303 1.96901 -6.25228 0
M  V30 6041 H 562.823 3.20683 -5.06875 0
M  V30 6042 H 564.502 3.13643 -5.65895 0
M  V30 6043 N 564.634 1.40294 0.718013 0
M  V30 6044 C 565.566 1.36281 1.84283 0
M  V30 6045 C 566.579 0.268621 1.60569 0
M  V30 6046 O 567.768 0.528798 1.70487 0
M  V30 6047 C 564.868 1.09741 3.2064 0
M  V30 6048 C 564.041 2.30767 3.71571 0
M  V30 6049 C 563.1 2.00424 4.86535 0
M  V30 6050 O 562.126 2.73268 4.99313 0
M  V30 6051 N 563.328 0.980724 5.72156 0
M  V30 6052 H 566.093 2.3322 1.88225 0
M  V30 6053 H 563.654 1.34616 0.899453 0
M  V30 6054 H 565.646 0.874322 3.95143 0
M  V30 6055 H 564.216 0.214771 3.11861 0
M  V30 6056 H 563.436 2.68921 2.88228 0
M  V30 6057 H 564.724 3.11455 4.02335 0
M  V30 6058 H 564.122 0.377375 5.6444 0
M  V30 6059 H 562.679 0.817538 6.46653 0
M  V30 6060 N 566.112 -0.949982 1.2575 0
M  V30 6061 C 567.075 -2.02894 1.06615 0
M  V30 6062 C 568.075 -1.60791 0.0173905 0
M  V30 6063 O 569.265 -1.72249 0.260003 0
M  V30 6064 C 566.397 -3.35219 0.619751 0
M  V30 6065 H 567.59 -2.21302 2.02399 0
M  V30 6066 H 565.143 -1.12772 1.08223 0
M  V30 6067 H 565.878 -3.22508 -0.340486 0
M  V30 6068 H 565.663 -3.67129 1.37692 0
M  V30 6069 H 567.153 -4.14505 0.507443 0
M  V30 6070 N 567.59 -1.07411 -1.15328 0
M  V30 6071 C 568.839 -0.792643 -1.85473 0
M  V30 6072 C 569.152 0.683789 -1.83259 0
M  V30 6073 O 570.358 1.08005 -2.49093 0
M  V30 6074 C 568.814 -1.36787 -3.32892 0
M  V30 6075 C 568.422 -2.87536 -3.43551 0
M  V30 6076 C 570.166 -1.16444 -4.08217 0
M  V30 6077 C 568.073 -3.38247 -4.85122 0
M  V30 6078 H 567.003 -0.292838 -0.694811 0
M  V30 6079 H 569.654 -1.29426 -1.30082 0
M  V30 6080 H 568.036 -0.793993 -3.87958 0
M  V30 6081 H 569.21 -3.50973 -2.98588 0
M  V30 6082 H 567.525 -3.06676 -2.81672 0
M  V30 6083 H 570.122 -1.51808 -5.12697 0
M  V30 6084 H 570.465 -0.10353 -4.16171 0
M  V30 6085 H 570.998 -1.70472 -3.59422 0
M  V30 6086 H 567.737 -4.43866 -4.82351 0
M  V30 6087 H 567.257 -2.79564 -5.30664 0
M  V30 6088 H 568.936 -3.34238 -5.5398 0
M  V30 6089 N 569.068 1.32177 -0.85831 0
M  V30 6090 C 570.031 2.27086 -0.310588 0
M  V30 6091 C 571.031 1.51751 0.531806 0
M  V30 6092 O 572.221 1.70794 0.34279 0
M  V30 6093 C 569.353 3.36266 0.560179 0
M  V30 6094 H 570.546 2.77045 -1.1483 0
M  V30 6095 H 568.099 1.42911 -0.632942 0
M  V30 6096 H 568.834 2.9158 1.41956 0
M  V30 6097 H 568.619 3.92077 -0.0428473 0
M  V30 6098 H 570.109 4.06974 0.936056 0
M  V30 6099 N 570.547 0.616602 1.45037 0
M  V30 6100 C 571.793 0.123965 2.03022 0
M  V30 6101 C 572.148 -1.23508 1.47525 0
M  V30 6102 O 571.441 -1.80453 0.643981 0
M  V30 6103 C 571.635 0.0356829 3.57382 0
M  V30 6104 C 571.464 1.38462 4.27853 0
M  V30 6105 C 570.234 1.96766 4.65415 0
M  V30 6106 C 572.432 2.31536 4.59234 0
M  V30 6107 N 570.414 3.25046 5.20786 0
M  V30 6108 C 571.785 3.4442 5.15533 0
M  V30 6109 C 573.84 2.30796 4.41178 0
M  V30 6110 C 572.543 4.56742 5.55679 0
M  V30 6111 C 574.569 3.42171 4.82362 0
M  V30 6112 C 573.931 4.53778 5.38762 0
M  V30 6113 H 570.03 0.0889428 0.776925 0
M  V30 6114 H 572.614 0.816925 1.76733 0
M  V30 6115 H 570.785 -0.62652 3.83314 0
M  V30 6116 H 572.517 -0.464443 4.02026 0
M  V30 6117 H 569.272 1.4987 4.49261 0
M  V30 6118 H 569.696 3.90592 5.52962 0
M  V30 6119 H 574.338 1.45765 3.96878 0
M  V30 6120 H 572.056 5.42491 5.9894 0
M  V30 6121 H 575.642 3.42757 4.70116 0
M  V30 6122 H 574.522 5.38536 5.70043 0
M  V30 6123 N 572.025 -1.5352 0.356285 0
M  V30 6124 C 572.988 -2.24071 -0.482182 0
M  V30 6125 C 573.988 -1.24531 -1.01729 0
M  V30 6126 O 575.178 -1.48876 -0.904513 0
M  V30 6127 C 572.31 -2.97025 -1.67299 0
M  V30 6128 H 573.503 -2.99596 0.135031 0
M  V30 6129 H 571.056 -1.55928 0.107825 0
M  V30 6130 H 571.791 -2.25719 -2.32855 0
M  V30 6131 H 571.576 -3.7005 -1.29636 0
M  V30 6132 H 573.066 -3.50683 -2.26741 0
M  V30 6133 N 573.503 -0.0852151 -1.57369 0
M  V30 6134 C 574.919 0.271436 -1.57275 0
M  V30 6135 C 575.119 1.69109 -1.09565 0
M  V30 6136 O 574.175 2.40549 -0.767611 0
M  V30 6137 C 575.488 0.0688638 -3.00621 0
M  V30 6138 C 577.036 0.137373 -3.12698 0
M  V30 6139 C 577.511 -0.0370832 -4.57985 0
M  V30 6140 N 579.002 0.0180794 -4.63196 0
M  V30 6141 C 579.737 -0.0922953 -5.73326 0
M  V30 6142 N 579.233 -0.256948 -6.92323 0
M  V30 6143 N 581.026 -0.0342702 -5.6209 0
M  V30 6144 H 573.177 -1.01288 -1.86693 0
M  V30 6145 H 575.44 -0.396138 -0.861266 0
M  V30 6146 H 575.146 -0.911277 -3.39689 0
M  V30 6147 H 575.02 0.815442 -3.6828 0
M  V30 6148 H 577.407 1.10801 -2.73509 0
M  V30 6149 H 577.488 -0.640532 -2.47651 0
M  V30 6150 H 577.132 -1.00455 -4.97867 0
M  V30 6151 H 577.062 0.760392 -5.21081 0
M  V30 6152 H 579.553 0.143202 -3.77629 0
M  V30 6153 H 579.866 -0.332949 -7.72082 0
M  V30 6154 H 578.211 -0.292487 -6.94384 0
M  V30 6155 H 581.402 0.0931605 -4.68007 0
M  V30 6156 H 581.575 -0.12374 -6.47882 0
M  V30 6157 N 574.981 1.5647 0.188427 0
M  V30 6158 C 575.929 1.95971 1.25293 0
M  V30 6159 C 576.923 0.846047 1.4676 0
M  V30 6160 O 578.129 1.03109 1.47542 0
M  V30 6161 H 574.504 0.623253 0.420784 0
M  V30 6162 H 576.475 2.84731 0.892792 0
M  V30 6163 C 575.224 2.32116 2.58877 0
M  V30 6164 H 574.547 3.17341 2.43176 0
M  V30 6165 H 575.987 2.63613 3.3209 0
M  V30 6166 C 574.446 1.15823 3.16365 0
M  V30 6167 O 574.976 0.436785 3.99318 0
M  V30 6168 N 573.182 0.933278 2.75206 0
M  V30 6169 H 572.729 1.52169 2.07852 0
M  V30 6170 H 572.687 0.156976 3.14008 0
M  V30 6171 N 576.459 -0.456382 1.50847 0
M  V30 6172 C 577.391 -1.57033 1.66953 0
M  V30 6173 C 578.404 -1.53207 0.550593 0
M  V30 6174 O 579.593 -1.58328 0.824285 0
M  V30 6175 C 576.693 -2.95937 1.65149 0
M  V30 6176 C 575.866 -3.24475 2.93317 0
M  V30 6177 C 574.925 -4.43007 2.83957 0
M  V30 6178 O 573.951 -4.42592 3.57912 0
M  V30 6179 N 575.153 -5.45503 1.9851 0
M  V30 6180 H 577.918 -1.43629 2.63042 0
M  V30 6181 H 575.479 -0.645037 1.48495 0
M  V30 6182 H 577.471 -3.73224 1.56481 0
M  V30 6183 H 576.041 -3.03036 0.767343 0
M  V30 6184 H 575.261 -2.35664 3.16 0
M  V30 6185 H 576.549 -3.4036 3.78196 0
M  V30 6186 H 575.947 -5.48668 1.37766 0
M  V30 6187 H 574.504 -6.21716 1.95735 0
M  V30 6188 N 577.937 -1.40673 -0.710563 0
M  V30 6189 C 578.884 -1.41336 -1.82463 0
M  V30 6190 C 579.854 -0.269648 -1.63897 0
M  V30 6191 O 581.039 -0.468463 -1.8496 0
M  V30 6192 C 578.179 -1.28665 -3.20218 0
M  V30 6193 C 577.292 -2.52784 -3.5032 0
M  V30 6194 C 576.427 -2.32517 -4.77608 0
M  V30 6195 C 575.466 -3.52187 -5.0063 0
M  V30 6196 N 574.603 -3.31084 -6.19135 0
M  V30 6197 H 579.443 -2.36558 -1.8123 0
M  V30 6198 H 576.98 -1.17483 -0.885226 0
M  V30 6199 H 578.938 -1.19324 -3.99772 0
M  V30 6200 H 577.568 -0.370602 -3.20666 0
M  V30 6201 H 576.62 -2.72634 -2.65283 0
M  V30 6202 H 577.932 -3.41845 -3.63241 0
M  V30 6203 H 577.086 -2.20558 -5.65189 0
M  V30 6204 H 575.825 -1.40889 -4.66906 0
M  V30 6205 H 574.83 -3.64617 -4.11502 0
M  V30 6206 H 576.055 -4.44749 -5.13201 0
M  V30 6207 H 574.001 -2.42143 -6.09674 0
M  V30 6208 H 573.918 -4.13713 -6.32754 0
M  V30 6209 H 575.186 -3.22868 -7.0949 0
M  V30 6210 N 579.415 0.9433 -1.26252 0
M  V30 6211 C 580.362 2.0417 -1.07625 0
M  V30 6212 C 581.332 1.6609 0.0180738 0
M  V30 6213 O 582.517 1.90276 -0.141289 0
M  V30 6214 C 579.657 3.37653 -0.713043 0
M  V30 6215 C 578.77 3.88783 -1.8834 0
M  V30 6216 C 577.905 5.10642 -1.4635 0
M  V30 6217 C 576.944 5.54028 -2.60229 0
M  V30 6218 N 576.081 6.67092 -2.18936 0
M  V30 6219 H 580.921 2.19436 -2.01623 0
M  V30 6220 H 578.458 1.07519 -1.00389 0
M  V30 6221 H 580.416 4.14391 -0.483358 0
M  V30 6222 H 579.046 3.22241 0.18996 0
M  V30 6223 H 578.098 3.08464 -2.22608 0
M  V30 6224 H 579.41 4.16922 -2.73821 0
M  V30 6225 H 578.564 5.94832 -1.19414 0
M  V30 6226 H 577.303 4.84244 -0.579568 0
M  V30 6227 H 576.308 4.68396 -2.87898 0
M  V30 6228 H 577.533 5.82429 -3.49219 0
M  V30 6229 H 575.479 6.42381 -1.32974 0
M  V30 6230 H 575.396 6.94806 -2.97961 0
M  V30 6231 H 576.664 7.54662 -1.95206 0
M  V30 6232 N 580.893 1.08022 1.14757 0
M  V30 6233 C 582.304 0.829144 1.67279 0
M  V30 6234 C 582.655 -0.644721 1.85305 0
M  V30 6235 O 581.78 -1.49838 1.56133 0
M  V30 6236 C 582.375 1.49855 3.03857 0
M  V30 6237 C 580.934 1.29482 3.53428 0
M  V30 6238 C 580.081 1.56386 2.28995 0
M  V30 6239 H 583.032 1.24134 0.988762 0
M  V30 6240 H 583.053 0.923572 3.69121 0
M  V30 6241 H 582.565 2.57123 2.90705 0
M  V30 6242 H 580.666 0.242669 3.71809 0
M  V30 6243 H 580.779 2.01974 4.34446 0
M  V30 6244 H 579.143 0.985217 2.34874 0
M  V30 6245 H 579.926 2.64851 2.18423 0
M  V30 6246 N 582.371 -1.3172 0.865308 0
M  V30 6247 C 583.618 -1.96876 0.473931 0
M  V30 6248 C 583.946 -1.68425 -0.972786 0
M  V30 6249 O 583.201 -0.970742 -1.69927 0
M  V30 6250 C 583.5 -3.5102 0.672283 0
M  V30 6251 C 583.166 -3.9948 2.09108 0
M  V30 6252 C 581.828 -4.12425 2.4791 0
M  V30 6253 C 584.18 -4.2503 3.0166 0
M  V30 6254 C 581.508 -4.48267 3.78515 0
M  V30 6255 C 583.86 -4.62335 4.31774 0
M  V30 6256 C 582.524 -4.73486 4.70497 0
M  V30 6257 H 581.794 -0.72042 0.173424 0
M  V30 6258 H 584.441 -1.56937 1.0974 0
M  V30 6259 H 582.746 -3.91785 -0.034356 0
M  V30 6260 H 584.443 -3.99475 0.349353 0
M  V30 6261 H 581.033 -3.89898 1.77981 0
M  V30 6262 H 585.217 -4.14529 2.7291 0
M  V30 6263 H 580.473 -4.55097 4.08285 0
M  V30 6264 H 584.647 -4.81058 5.03543 0
M  V30 6265 H 582.274 -5.01016 5.71741 0
M  V30 6266 N 583.85 -0.624285 -1.44708 0
M  V30 6267 C 584.779 0.0717025 -2.3339 0
M  V30 6268 C 585.76 0.841814 -1.47809 0
M  V30 6269 O 586.946 0.809056 -1.76544 0
M  V30 6270 C 584.076 1.05852 -3.30776 0
M  V30 6271 C 583.029 0.400503 -4.26122 0
M  V30 6272 C 582.356 1.49674 -5.13324 0
M  V30 6273 C 583.656 -0.688924 -5.17737 0
M  V30 6274 H 585.35 -0.668819 -2.91834 0
M  V30 6275 H 582.896 -0.32308 -1.40329 0
M  V30 6276 H 584.849 1.5541 -3.91696 0
M  V30 6277 H 583.572 1.82984 -2.70526 0
M  V30 6278 H 582.231 -0.0743687 -3.66525 0
M  V30 6279 H 581.88 2.25877 -4.49431 0
M  V30 6280 H 581.58 1.06188 -5.77926 0
M  V30 6281 H 583.104 1.99427 -5.77115 0
M  V30 6282 H 584.518 -0.276724 -5.72632 0
M  V30 6283 H 582.915 -1.04652 -5.90904 0
M  V30 6284 H 583.985 -1.55884 -4.5916 0
M  V30 6285 N 585.328 1.53329 -0.364422 0
M  V30 6286 C 586.576 2.00842 0.225189 0
M  V30 6287 C 586.897 1.25345 1.49378 0
M  V30 6288 O 586.167 0.366396 1.92443 0
M  V30 6289 H 584.747 0.742009 0.0862027 0
M  V30 6290 H 587.409 1.8863 -0.490389 0
M  V30 6291 H 586.505 3.08795 0.452987 0
M  V30 6292 N 586.806 0.0935595 1.57322 0
M  V30 6293 C 588.052 -0.571355 1.94585 0
M  V30 6294 C 588.385 -1.67929 0.975366 0
M  V30 6295 O 587.66 -1.94498 0.00816206 0
M  V30 6296 C 587.943 -1.12797 3.41978 0
M  V30 6297 C 587.796 -0.0251881 4.49793 0
M  V30 6298 C 589.115 -2.02682 3.90651 0
M  V30 6299 H 586.234 -0.206223 0.70756 0
M  V30 6300 H 588.876 0.163956 1.89291 0
M  V30 6301 H 587.026 -1.75461 3.4662 0
M  V30 6302 H 588.698 0.608979 4.57263 0
M  V30 6303 H 586.941 0.641399 4.29032 0
M  V30 6304 H 587.612 -0.455433 5.50118 0
M  V30 6305 H 590.088 -1.49925 3.88152 0
M  V30 6306 H 588.964 -2.38555 4.94351 0
M  V30 6307 H 589.225 -2.94362 3.29854 0
M  V30 6308 N 588.284 -1.56567 -0.180126 0
M  V30 6309 C 589.524 -1.83285 -0.904761 0
M  V30 6310 C 589.888 -0.673226 -1.7981 0
M  V30 6311 O 591.089 -0.820645 -2.55967 0
M  V30 6312 C 589.36 -3.15086 -1.68688 0
M  V30 6313 S 590.919 -3.63258 -2.46149 0
M  V30 6314 H 587.737 -0.643114 -0.303193 0
M  V30 6315 H 590.339 -1.94785 -0.167034 0
M  V30 6316 H 589.043 -3.97484 -1.02148 0
M  V30 6317 H 588.574 -3.06504 -2.46615 0
M  V30 6318 H 590.589 -3.29884 -3.70663 0
M  V30 6319 N 589.762 0.448376 -1.51087 0
M  V30 6320 C 590.692 1.55102 -1.74544 0
M  V30 6321 C 591.673 1.59357 -0.594932 0
M  V30 6322 O 592.858 1.75261 -0.836491 0
M  V30 6323 C 589.988 2.93268 -1.86041 0
M  V30 6324 C 588.942 3.03877 -3.01402 0
M  V30 6325 C 588.268 4.43914 -2.98068 0
M  V30 6326 C 589.568 2.7898 -4.41551 0
M  V30 6327 H 591.262 1.35724 -2.66869 0
M  V30 6328 H 588.808 0.651498 -1.28419 0
M  V30 6329 H 590.761 3.70356 -2.01034 0
M  V30 6330 H 589.485 3.13853 -0.903548 0
M  V30 6331 H 588.144 2.29227 -2.86096 0
M  V30 6332 H 587.792 4.6145 -2.00182 0
M  V30 6333 H 587.492 4.51944 -3.75527 0
M  V30 6334 H 589.016 5.22991 -3.1514 0
M  V30 6335 H 590.43 3.45805 -4.57265 0
M  V30 6336 H 588.827 2.98431 -5.20633 0
M  V30 6337 H 589.897 1.74663 -4.5235 0
M  V30 6338 N 591.24 1.41047 0.703093 0
M  V30 6339 C 592.488 1.39723 1.4602 0
M  V30 6340 C 592.809 0.00461257 1.94999 0
M  V30 6341 O 592.079 -0.952292 1.71196 0
M  V30 6342 H 590.659 0.514281 0.541779 0
M  V30 6343 H 593.321 1.76217 0.832678 0
M  V30 6344 H 592.417 2.07982 2.32701 0
M  V30 6345 N 592.718 -0.936591 1.26751 0
M  V30 6346 C 593.651 -2.03619 1.03027 0
M  V30 6347 C 594.629 -1.62534 -0.0464619 0
M  V30 6348 O 595.813 -1.88251 0.0968873 0
M  V30 6349 C 592.94 -3.3402 0.561072 0
M  V30 6350 C 591.986 -3.9408 1.63105 0
M  V30 6351 S 592.819 -4.27782 3.22122 0
M  V30 6352 C 593.975 -5.61277 2.76982 0
M  V30 6353 H 594.208 -2.23429 1.96129 0
M  V30 6354 H 591.741 -1.07857 1.10482 0
M  V30 6355 H 593.699 -4.09424 0.297031 0
M  V30 6356 H 592.36 -3.12147 -0.349741 0
M  V30 6357 H 591.553 -4.88154 1.25386 0
M  V30 6358 H 591.155 -3.25227 1.84671 0
M  V30 6359 H 593.447 -6.40189 2.21731 0
M  V30 6360 H 594.39 -6.03887 3.69766 0
M  V30 6361 H 594.798 -5.21374 2.16402 0
M  V30 6362 N 594.196 -1.08629 -1.14182 0
M  V30 6363 C 595.128 -0.676189 -2.18998 0
M  V30 6364 C 596.141 0.277871 -1.60411 0
M  V30 6365 O 597.33 0.0651771 -1.78381 0
M  V30 6366 C 594.43 0.0254916 -3.3889 0
M  V30 6367 C 593.603 -0.948039 -4.27002 0
M  V30 6368 C 592.662 -0.281268 -5.25448 0
M  V30 6369 O 591.688 -0.926378 -5.61611 0
M  V30 6370 N 592.89 0.967923 -5.72374 0
M  V30 6371 H 595.655 -1.57792 -2.54798 0
M  V30 6372 H 593.216 -0.972665 -1.29425 0
M  V30 6373 H 595.208 0.482554 -4.01813 0
M  V30 6374 H 593.778 0.829348 -3.01398 0
M  V30 6375 H 592.998 -1.58388 -3.6098 0
M  V30 6376 H 594.286 -1.60765 -4.82734 0
M  V30 6377 H 593.684 1.51175 -5.45126 0
M  V30 6378 H 592.241 1.36844 -6.37273 0
M  V30 6379 N 595.674 1.31259 -0.872281 0
M  V30 6380 C 596.604 2.30929 -0.345554 0
M  V30 6381 C 597.585 1.60449 0.5648 0
M  V30 6382 O 598.77 1.8814 0.481335 0
M  V30 6383 C 595.9 3.44348 0.451823 0
M  V30 6384 C 594.854 4.26435 -0.365641 0
M  V30 6385 C 594.18 5.31785 0.557562 0
M  V30 6386 C 595.48 4.97159 -1.60095 0
M  V30 6387 H 597.174 2.75234 -1.17841 0
M  V30 6388 H 594.72 1.3232 -0.568094 0
M  V30 6389 H 596.673 4.13128 0.830854 0
M  V30 6390 H 595.397 2.98816 1.31821 0
M  V30 6391 H 594.056 3.59326 -0.726649 0
M  V30 6392 H 593.704 4.82502 1.4213 0
M  V30 6393 H 593.404 5.87598 0.0144878 0
M  V30 6394 H 594.928 6.03424 0.933387 0
M  V30 6395 H 596.342 5.58523 -1.29323 0
M  V30 6396 H 594.739 5.62779 -2.08327 0
M  V30 6397 H 595.809 4.24012 -2.35249 0
M  V30 6398 N 597.152 0.631951 1.44375 0
M  V30 6399 C 598.115 -0.0628142 2.29114 0
M  V30 6400 C 599.115 -0.771494 1.41084 0
M  V30 6401 O 600.305 -0.615959 1.62947 0
M  V30 6402 C 597.437 -1.09953 3.22681 0
M  V30 6403 H 598.63 0.682509 2.92031 0
M  V30 6404 H 596.183 0.392128 1.51301 0
M  V30 6405 H 596.918 -1.87481 2.64616 0
M  V30 6406 H 596.703 -0.595286 3.87555 0
M  V30 6407 H 598.193 -1.58538 3.86336 0
M  V30 6408 N 598.631 -1.53133 0.372548 0
M  V30 6409 C 599.877 -2.01654 -0.215277 0
M  V30 6410 C 600.21 -1.25914 -1.47849 0
M  V30 6411 O 599.485 -0.3548 -1.91237 0
M  V30 6412 C 599.768 -3.56609 -0.500187 0
M  V30 6413 C 599.621 -4.43036 0.777145 0
M  V30 6414 C 600.94 -4.20528 -1.29786 0
M  V30 6415 H 598.059 -0.732991 -0.0767686 0
M  V30 6416 H 600.701 -1.83335 0.498814 0
M  V30 6417 H 598.851 -3.7235 -1.10852 0
M  V30 6418 H 600.523 -4.39079 1.41447 0
M  V30 6419 H 598.766 -4.10723 1.39604 0
M  V30 6420 H 599.437 -5.49424 0.532662 0
M  V30 6421 H 601.913 -4.08663 -0.783198 0
M  V30 6422 H 600.789 -5.28962 -1.46596 0
M  V30 6423 H 601.05 -3.77051 -2.30836 0
M  V30 6424 N 600.109 -0.101901 -1.5727 0
M  V30 6425 C 601.355 0.561027 -1.94885 0
M  V30 6426 C 601.688 1.6741 -0.984258 0
M  V30 6427 O 600.963 1.94491 -0.0184767 0
M  V30 6428 C 601.246 1.10982 -3.42571 0
M  V30 6429 C 601.099 0.00133418 -4.498 0
M  V30 6430 C 602.418 2.00608 -3.9172 0
M  V30 6431 H 599.537 0.202467 -0.708644 0
M  V30 6432 H 602.179 -0.173992 -1.89202 0
M  V30 6433 H 600.329 1.73621 -3.47546 0
M  V30 6434 H 602.001 -0.63322 -4.56933 0
M  V30 6435 H 600.244 -0.664143 -4.28686 0
M  V30 6436 H 600.915 0.426253 -5.50352 0
M  V30 6437 H 603.391 1.47864 -3.88941 0
M  V30 6438 H 602.267 2.3593 -4.95609 0
M  V30 6439 H 602.528 2.92608 -3.3141 0
M  V30 6440 N 601.587 1.56661 0.17182 0
M  V30 6441 C 602.497 1.99604 1.2327 0
M  V30 6442 C 603.513 0.907333 1.4847 0
M  V30 6443 O 604.689 1.21492 1.60629 0
M  V30 6444 C 601.754 2.34685 2.55194 0
M  V30 6445 C 600.815 3.57381 2.3786 0
M  V30 6446 C 600.048 3.90779 3.63494 0
M  V30 6447 O 600.271 3.25152 4.6865 0
M  V30 6448 O 599.205 4.84129 3.57634 0
M  V30 6449 H 603.031 2.90114 0.898192 0
M  V30 6450 H 600.616 1.44522 0.378647 0
M  V30 6451 H 602.498 2.5822 3.33017 0
M  V30 6452 H 601.173 1.47336 2.88225 0
M  V30 6453 H 600.08 3.39064 1.5807 0
M  V30 6454 H 601.413 4.45268 2.09754 0
M  V30 6455 N 603.065 -0.440357 1.51323 0
M  V30 6456 C 604.312 -1.19004 1.63842 0
M  V30 6457 C 604.64 -1.91266 0.35321 0
M  V30 6458 O 603.895 -1.84143 -0.662565 0
M  V30 6459 C 604.194 -2.2339 2.78984 0
M  V30 6460 C 603.86 -1.68162 4.18369 0
M  V30 6461 C 602.522 -1.52823 4.56288 0
M  V30 6462 C 604.874 -1.27524 5.05358 0
M  V30 6463 C 602.202 -0.953157 5.78906 0
M  V30 6464 C 604.554 -0.714474 6.28552 0
M  V30 6465 C 603.218 -0.547961 6.65247 0
M  V30 6466 H 602.488 -0.435468 0.59954 0
M  V30 6467 H 605.135 -0.481538 1.85347 0
M  V30 6468 H 603.44 -3.00267 2.51688 0
M  V30 6469 H 605.137 -2.81211 2.85869 0
M  V30 6470 H 601.727 -1.81077 3.8847 0
M  V30 6471 H 605.911 -1.38197 4.76671 0
M  V30 6472 H 601.167 -0.811882 6.05986 0
M  V30 6473 H 605.341 -0.391059 6.95301 0
M  V30 6474 H 602.968 -0.100222 7.60134 0
M  V30 6475 N 604.543 -1.41418 -0.695603 0
M  V30 6476 C 605.768 -1.44329 -1.48942 0
M  V30 6477 C 606.193 -0.0501579 -1.88033 0
M  V30 6478 O 605.551 0.946598 -1.54626 0
M  V30 6479 C 605.599 -2.3578 -2.72837 0
M  V30 6480 O 604.703 -1.81482 -3.70322 0
M  V30 6481 H 604.044 -0.489838 -0.44828 0
M  V30 6482 H 606.574 -1.85878 -0.855014 0
M  V30 6483 H 606.584 -2.51654 -3.21145 0
M  V30 6484 H 605.259 -3.37005 -2.43722 0
M  V30 6485 H 603.836 -1.75058 -3.29255 0
M  V30 6486 N 606.021 0.929856 -1.27246 0
M  V30 6487 C 607.437 1.20542 -1.04603 0
M  V30 6488 C 607.637 2.00276 0.221754 0
M  V30 6489 O 606.693 2.34835 0.927833 0
M  V30 6490 C 608.006 1.95566 -2.28417 0
M  V30 6491 C 609.554 2.08513 -2.33433 0
M  V30 6492 C 610.029 2.86943 -3.5697 0
M  V30 6493 N 611.52 2.94512 -3.57515 0
M  V30 6494 C 612.255 3.55656 -4.49774 0
M  V30 6495 N 611.751 4.18209 -5.52334 0
M  V30 6496 N 613.544 3.53038 -4.37402 0
M  V30 6497 H 605.695 0.397113 -2.08655 0
M  V30 6498 H 607.958 0.238277 -0.917566 0
M  V30 6499 H 607.664 1.44395 -3.20691 0
M  V30 6500 H 607.538 2.9619 -2.33563 0
M  V30 6501 H 609.925 2.58872 -1.41666 0
M  V30 6502 H 610.006 1.07117 -2.32292 0
M  V30 6503 H 609.65 2.37268 -4.49072 0
M  V30 6504 H 609.58 3.8862 -3.55362 0
M  V30 6505 H 612.071 2.50053 -2.83341 0
M  V30 6506 H 612.384 4.62796 -6.18902 0
M  V30 6507 H 610.729 4.16761 -5.56179 0
M  V30 6508 H 613.92 3.0337 -3.56489 0
M  V30 6509 H 614.093 4.004 -5.09493 0
M  V30 6510 N 607.499 1.09233 1.13605 0
M  V30 6511 C 608.447 0.724572 2.21027 0
M  V30 6512 C 609.441 -0.273595 1.67176 0
M  V30 6513 O 610.647 -0.135266 1.79491 0
M  V30 6514 H 607.022 0.216319 0.720215 0
M  V30 6515 H 608.993 1.63975 2.49309 0
M  V30 6516 C 607.742 0.159126 3.47336 0
M  V30 6517 H 607.065 0.918387 3.89109 0
M  V30 6518 H 608.505 -0.0602851 4.23957 0
M  V30 6519 C 606.964 -1.10514 3.18258 0
M  V30 6520 O 607.494 -2.18869 3.36837 0
M  V30 6521 N 605.7 -1.01886 2.72154 0
M  V30 6522 H 605.247 -0.137027 2.57235 0
M  V30 6523 H 605.205 -1.8655 2.53074 0
M  V30 6524 N 608.977 -1.30795 0.87923 0
M  V30 6525 C 610.223 -1.96653 0.495519 0
M  V30 6526 C 610.556 -1.69282 -0.951703 0
M  V30 6527 O 609.831 -0.994374 -1.6716 0
M  V30 6528 C 610.114 -3.51898 0.764174 0
M  V30 6529 C 609.967 -3.88808 2.2616 0
M  V30 6530 C 611.286 -4.39462 0.236825 0
M  V30 6531 H 608.405 -0.7143 0.181507 0
M  V30 6532 H 611.047 -1.54765 1.10217 0
M  V30 6533 H 609.197 -3.87709 0.247841 0
M  V30 6534 H 610.869 -3.63051 2.8459 0
M  V30 6535 H 609.112 -3.37082 2.73053 0
M  V30 6536 H 609.783 -4.97086 2.4002 0
M  V30 6537 H 612.259 -4.10528 0.678683 0
M  V30 6538 H 611.135 -5.47018 0.454176 0
M  V30 6539 H 611.396 -4.33621 -0.861683 0
M  V30 6540 N 610.455 -0.639598 -1.44038 0
M  V30 6541 C 611.385 0.0469443 -2.33453 0
M  V30 6542 C 612.366 0.82609 -1.48694 0
M  V30 6543 O 613.551 0.790285 -1.77393 0
M  V30 6544 C 610.681 1.02338 -3.3188 0
M  V30 6545 C 609.635 0.355284 -4.26523 0
M  V30 6546 C 608.961 1.44221 -5.14883 0
M  V30 6547 C 610.261 -0.743798 -5.16977 0
M  V30 6548 H 611.955 -0.699735 -2.91108 0
M  V30 6549 H 609.501 -0.337946 -1.39978 0
M  V30 6550 H 611.454 1.51247 -3.93322 0
M  V30 6551 H 610.178 1.80105 -2.72451 0
M  V30 6552 H 608.837 -0.113239 -3.66425 0
M  V30 6553 H 608.485 2.21097 -4.51802 0
M  V30 6554 H 608.185 1.00052 -5.79019 0
M  V30 6555 H 609.709 1.93295 -5.79197 0
M  V30 6556 H 611.123 -0.337444 -5.72306 0
M  V30 6557 H 609.52 -1.10914 -5.89761 0
M  V30 6558 H 610.59 -1.60745 -4.57481 0
M  V30 6559 N 611.933 1.52934 -0.380664 0
M  V30 6560 C 613.181 2.01069 0.203874 0
M  V30 6561 C 613.502 1.26922 1.4804 0
M  V30 6562 O 612.772 0.386787 1.92044 0
M  V30 6563 H 611.352 0.742882 0.0783279 0
M  V30 6564 H 614.014 1.88099 -0.510368 0
M  V30 6565 H 613.11 3.09258 0.42021 0
M  V30 6566 N 613.412 0.11024 1.57214 0
M  V30 6567 C 614.658 -0.544479 1.95977 0
M  V30 6568 C 615.013 -1.64845 0.992171 0
M  V30 6569 O 614.306 -1.91589 0.0206981 0
M  V30 6570 C 614.5 -1.13102 3.39032 0
M  V30 6571 C 614.329 -0.0854079 4.49619 0
M  V30 6572 C 613.099 0.343373 5.04132 0
M  V30 6573 C 615.297 0.692232 5.0962 0
M  V30 6574 N 613.279 1.37567 5.98288 0
M  V30 6575 C 614.65 1.57596 5.99636 0
M  V30 6576 C 616.705 0.744085 4.92309 0
M  V30 6577 C 615.408 2.50701 6.74197 0
M  V30 6578 C 617.434 1.6628 5.67543 0
M  V30 6579 C 616.796 2.53412 6.57238 0
M  V30 6580 H 612.895 -0.169124 0.763493 0
M  V30 6581 H 615.479 0.196326 1.93708 0
M  V30 6582 H 613.65 -1.84158 3.41965 0
M  V30 6583 H 615.382 -1.74934 3.64939 0
M  V30 6584 H 612.137 -0.0473277 4.73576 0
M  V30 6585 H 612.561 1.89048 6.50069 0
M  V30 6586 H 617.203 0.0845825 4.22715 0
M  V30 6587 H 614.921 3.17669 7.43043 0
M  V30 6588 H 618.507 1.70825 5.56156 0
M  V30 6589 H 617.387 3.23347 7.14434 0
M  V30 6590 N 614.89 -1.56749 -0.16351 0
M  V30 6591 C 615.822 -1.93587 -1.22705 0
M  V30 6592 C 616.835 -0.829824 -1.40063 0
M  V30 6593 O 618.024 -1.10826 -1.39928 0
M  V30 6594 C 615.124 -2.1803 -2.59454 0
M  V30 6595 C 614.297 -3.4928 -2.63292 0
M  V30 6596 C 613.356 -3.62457 -3.8146 0
M  V30 6597 O 612.382 -4.35004 -3.67096 0
M  V30 6598 N 613.584 -2.97888 -4.9824 0
M  V30 6599 H 616.349 -2.8542 -0.914081 0
M  V30 6600 H 613.91 -1.58 -0.353214 0
M  V30 6601 H 615.902 -2.24102 -3.36987 0
M  V30 6602 H 614.472 -1.32543 -2.8311 0
M  V30 6603 H 613.692 -3.54795 -1.71796 0
M  V30 6604 H 614.98 -4.35632 -2.62873 0
M  V30 6605 H 614.378 -2.38833 -5.12811 0
M  V30 6606 H 612.935 -3.09545 -5.73607 0
M  V30 6607 N 616.368 0.432326 -1.51554 0
M  V30 6608 C 617.645 1.19288 -1.55015 0
M  V30 6609 C 618.025 2.08701 -0.317375 0
M  V30 6610 O 617.373 2.17602 0.697243 0
M  V30 6611 C 617.583 1.99037 -2.86679 0
M  V30 6612 C 618.931 2.55907 -3.38817 0
M  V30 6613 O 619.955 2.09243 -2.88263 0
M  V30 6614 O 618.814 3.41029 -4.27038 0
M  V30 6615 H 615.908 0.543369 -0.623441 0
M  V30 6616 H 618.454 0.440988 -1.6387 0
M  V30 6617 H 617.226 1.33397 -3.6786 0
M  V30 6618 H 616.849 2.81281 -2.8101 0
M  V30 6619 N 617.846 1.41785 0.688094 0
M  V30 6620 C 618.809 1.43936 1.78368 0
M  V30 6621 C 619.809 0.328866 1.57401 0
M  V30 6622 O 620.999 0.589093 1.63937 0
M  V30 6623 C 618.131 1.25804 3.16838 0
M  V30 6624 H 619.324 2.41472 1.77852 0
M  V30 6625 H 616.877 1.28037 0.896448 0
M  V30 6626 H 617.612 0.291386 3.22988 0
M  V30 6627 H 617.397 2.06272 3.33458 0
M  V30 6628 H 618.887 1.30162 3.96797 0
M  V30 6629 N 619.324 -0.923095 1.27737 0
M  V30 6630 C 620.272 -2.04567 1.10703 0
M  V30 6631 C 621.266 -1.69375 0.0288445 0
M  V30 6632 O 622.472 -1.79027 0.186913 0
M  V30 6633 H 618.847 -0.670109 0.34126 0
M  V30 6634 H 620.818 -2.1608 2.05796 0
M  V30 6635 C 619.567 -3.38934 0.775837 0
M  V30 6636 H 618.89 -3.66501 1.59741 0
M  V30 6637 H 620.33 -4.18239 0.696548 0
M  V30 6638 C 618.789 -3.32863 -0.520012 0
M  V30 6639 O 619.319 -3.70462 -1.55308 0
M  V30 6640 N 617.525 -2.85958 -0.51732 0
M  V30 6641 H 617.072 -2.55557 0.32379 0
M  V30 6642 H 617.03 -2.82279 -1.38441 0
M  V30 6643 N 620.802 -1.09834 -1.13024 0
M  V30 6644 C 622.027 -0.85909 -1.88771 0
M  V30 6645 C 622.452 0.584402 -1.78791 0
M  V30 6646 O 621.81 1.41101 -1.13842 0
M  V30 6647 C 621.858 -1.30427 -3.36186 0
M  V30 6648 O 620.962 -0.465368 -4.09766 0
M  V30 6649 H 620.303 -0.310786 -0.586778 0
M  V30 6650 H 622.833 -1.46355 -1.42973 0
M  V30 6651 H 622.843 -1.2915 -3.8702 0
M  V30 6652 H 621.518 -2.3555 -3.42767 0
M  V30 6653 H 620.095 -0.542814 -3.68928 0
M  V30 6654 N 622.28 1.30327 -0.886154 0
M  V30 6655 C 623.508 2.00254 -0.520176 0
M  V30 6656 C 623.923 1.66419 0.891637 0
M  V30 6657 O 623.28 0.901951 1.58654 0
M  V30 6658 C 623.331 3.54916 -0.686775 0
M  V30 6659 O 623.052 3.87547 -2.04301 0
M  V30 6660 C 624.553 4.42115 -0.323945 0
M  V30 6661 H 621.773 0.640204 -0.200947 0
M  V30 6662 H 624.317 1.66183 -1.19178 0
M  V30 6663 H 622.472 3.8735 -0.0625273 0
M  V30 6664 H 622.886 4.82247 -2.06249 0
M  V30 6665 H 624.36 5.49808 -0.491407 0
M  V30 6666 H 624.837 4.32953 0.73811 0
M  V30 6667 H 625.443 4.15129 -0.924565 0
M  V30 6668 N 623.758 0.647228 1.43697 0
M  V30 6669 C 624.668 -0.0487997 2.34549 0
M  V30 6670 C 625.684 -0.818586 1.53542 0
M  V30 6671 O 626.86 -0.767195 1.86215 0
M  V30 6672 C 623.925 -1.00734 3.31743 0
M  V30 6673 C 622.986 -0.23515 4.28655 0
M  V30 6674 C 622.219 -1.14803 5.21206 0
M  V30 6675 O 622.442 -2.38717 5.18045 0
M  V30 6676 O 621.376 -0.623667 5.9866 0
M  V30 6677 H 625.202 0.698863 2.9555 0
M  V30 6678 H 622.787 0.407412 1.43738 0
M  V30 6679 H 624.669 -1.55837 3.91526 0
M  V30 6680 H 623.344 -1.73534 2.73254 0
M  V30 6681 H 622.251 0.359319 3.7237 0
M  V30 6682 H 623.584 0.453152 4.9011 0
M  V30 6683 N 625.236 -1.5273 0.388769 0
M  V30 6684 C 626.483 -2.01573 -0.19359 0
M  V30 6685 C 626.811 -1.27525 -1.46859 0
M  V30 6686 O 626.066 -0.363926 -1.92286 0
M  V30 6687 C 626.365 -3.53765 -0.508445 0
M  V30 6688 C 626.031 -4.4582 0.674947 0
M  V30 6689 C 624.693 -4.70703 0.999596 0
M  V30 6690 C 627.045 -5.00138 1.46666 0
M  V30 6691 C 624.373 -5.47155 2.11751 0
M  V30 6692 C 626.725 -5.77812 2.57518 0
M  V30 6693 C 625.389 -6.00975 2.90492 0
M  V30 6694 H 624.659 -0.737606 -0.0708397 0
M  V30 6695 H 627.306 -1.84134 0.526006 0
M  V30 6696 H 625.611 -3.69274 -1.30936 0
M  V30 6697 H 627.308 -3.8905 -0.971664 0
M  V30 6698 H 623.898 -4.26616 0.411906 0
M  V30 6699 H 628.082 -4.8084 1.22909 0
M  V30 6700 H 623.338 -5.63314 2.3767 0
M  V30 6701 H 627.512 -6.18904 3.19267 0
M  V30 6702 H 625.139 -6.59998 3.77236 0
M  V30 6703 N 626.714 -0.118576 -1.57153 0
M  V30 6704 C 627.991 0.583062 -1.86708 0
M  V30 6705 C 628.371 1.84841 -1.01967 0
M  V30 6706 O 627.719 2.28288 -0.0984673 0
M  V30 6707 C 627.929 0.875912 -3.3783 0
M  V30 6708 C 629.277 1.22916 -4.0642 0
M  V30 6709 O 630.301 0.966188 -3.42846 0
M  V30 6710 O 629.16 1.72269 -5.18638 0
M  V30 6711 H 626.254 0.294185 -0.772906 0
M  V30 6712 H 628.8 -0.153048 -1.69008 0
M  V30 6713 H 627.572 -0.0207776 -3.91294 0
M  V30 6714 H 627.195 1.66719 -3.60958 0
M  V30 6715 N 628.193 1.56834 0.155195 0
M  V30 6716 C 629.604 1.72421 0.716082 0
M  V30 6717 C 629.955 0.731685 1.82046 0
M  V30 6718 O 629.08 -0.103481 2.16152 0
M  V30 6719 C 629.675 3.12629 1.30571 0
M  V30 6720 C 628.234 3.29846 1.81325 0
M  V30 6721 C 627.381 2.68359 0.698494 0
M  V30 6722 H 630.332 1.58544 -0.0703861 0
M  V30 6723 H 630.353 3.12174 2.1755 0
M  V30 6724 H 629.865 3.84844 0.501701 0
M  V30 6725 H 627.966 2.62614 2.64319 0
M  V30 6726 H 628.079 4.37727 1.9476 0
M  V30 6727 H 626.443 2.28604 1.12305 0
M  V30 6728 H 627.226 3.43171 -0.0939366 0
M  V30 6729 N 629.671 -0.424282 1.51781 0
M  V30 6730 C 630.899 -1.1947 1.68921 0
M  V30 6731 C 631.314 -1.84683 0.39213 0
M  V30 6732 O 630.671 -1.71261 -0.630554 0
M  V30 6733 C 630.722 -2.26909 2.81416 0
M  V30 6734 O 630.443 -1.64361 4.061 0
M  V30 6735 C 631.944 -3.16945 3.09937 0
M  V30 6736 H 629.164 -0.359591 0.566511 0
M  V30 6737 H 631.708 -0.501139 1.98265 0
M  V30 6738 H 629.863 -2.91959 2.54635 0
M  V30 6739 H 630.277 -2.35468 4.68674 0
M  V30 6740 H 631.751 -3.88437 3.922 0
M  V30 6741 H 632.228 -3.78451 2.22871 0
M  V30 6742 H 632.834 -2.57581 3.38426 0
M  V30 6743 N 631.149 -1.42148 -0.680565 0
M  V30 6744 C 632.377 -1.45696 -1.46902 0
M  V30 6745 C 632.792 -0.0665858 -1.88683 0
M  V30 6746 O 632.149 0.917436 -1.57764 0
M  V30 6747 C 632.2 -2.37898 -2.72188 0
M  V30 6748 O 631.921 -3.71526 -2.32163 0
M  V30 6749 C 633.422 -2.50407 -3.65802 0
M  V30 6750 H 630.642 -0.495729 -0.45221 0
M  V30 6751 H 633.186 -1.866 -0.836709 0
M  V30 6752 H 631.341 -2.00263 -3.31622 0
M  V30 6753 H 631.755 -4.20849 -3.13027 0
M  V30 6754 H 633.229 -3.19056 -4.50452 0
M  V30 6755 H 633.706 -1.5401 -4.11312 0
M  V30 6756 H 634.312 -2.8874 -3.12265 0
M  V30 6757 N 632.627 0.916307 -1.28225 0
M  V30 6758 C 633.852 1.7043 -1.18188 0
M  V30 6759 C 634.277 1.86346 0.256274 0
M  V30 6760 O 633.635 1.37175 1.18544 0
M  V30 6761 C 633.683 3.07546 -1.88275 0
M  V30 6762 O 632.787 3.94904 -1.18848 0
M  V30 6763 H 632.128 0.521967 -0.410423 0
M  V30 6764 H 634.658 1.14589 -1.69501 0
M  V30 6765 H 634.668 3.57793 -1.96082 0
M  V30 6766 H 633.343 2.95279 -2.92887 0
M  V30 6767 H 631.92 3.53339 -1.19187 0
M  V30 6768 N 634.105 1.10431 1.1244 0
M  V30 6769 C 635.055 0.722378 2.16254 0
M  V30 6770 C 636.039 -0.268427 1.58645 0
M  V30 6771 O 637.231 -0.077169 1.76832 0
M  V30 6772 C 634.36 0.155763 3.42946 0
M  V30 6773 C 633.446 1.17361 4.07538 0
M  V30 6774 N 633.837 2.36429 4.47141 0
M  V30 6775 C 632.135 1.01412 4.34317 0
M  V30 6776 C 632.836 3.01259 4.97612 0
M  V30 6777 N 631.812 2.28777 4.93115 0
M  V30 6778 H 635.614 1.62876 2.4464 0
M  V30 6779 H 633.128 0.982031 1.29344 0
M  V30 6780 H 635.125 -0.135936 4.16678 0
M  V30 6781 H 633.785 -0.745339 3.1603 0
M  V30 6782 H 634.796 2.73954 4.39511 0
M  V30 6783 H 631.473 0.168574 4.1716 0
M  V30 6784 H 632.863 4.02541 5.37968 0
M  V30 6785 N 635.583 -1.29855 0.893053 0
M  V30 6786 C 636.994 -1.77946 0.564998 0
M  V30 6787 C 637.345 -1.73339 -0.919134 0
M  V30 6788 O 636.47 -1.3152 -1.71847 0
M  V30 6789 C 637.065 -3.23118 1.01883 0
M  V30 6790 C 635.624 -3.69013 0.742051 0
M  V30 6791 C 634.771 -2.50121 1.19727 0
M  V30 6792 H 637.722 -1.16611 1.07646 0
M  V30 6793 H 637.743 -3.78875 0.351249 0
M  V30 6794 H 637.255 -3.26439 2.09903 0
M  V30 6795 H 635.356 -3.71173 -0.325816 0
M  V30 6796 H 635.469 -4.60117 1.33527 0
M  V30 6797 H 633.833 -2.47128 0.616418 0
M  V30 6798 H 634.616 -2.56174 2.28538 0
M  V30 6799 N 637.061 -0.65484 -1.43351 0
M  V30 6800 C 638.307 -0.169142 -2.02093 0
M  V30 6801 C 638.64 1.21431 -1.51553 0
M  V30 6802 O 637.915 1.81105 -0.709317 0
M  V30 6803 C 638.198 -0.181775 -3.59641 0
M  V30 6804 C 638.051 -1.59926 -4.20409 0
M  V30 6805 C 639.37 0.480945 -4.37464 0
M  V30 6806 H 636.489 -0.0629371 -0.734308 0
M  V30 6807 H 639.131 -0.835833 -1.70628 0
M  V30 6808 H 637.281 0.385918 -3.86578 0
M  V30 6809 H 638.953 -2.21766 -4.04497 0
M  V30 6810 H 637.196 -2.14605 -3.76998 0
M  V30 6811 H 637.867 -1.55994 -5.295 0
M  V30 6812 H 640.343 -0.00208273 -4.161 0
M  V30 6813 H 639.219 0.441384 -5.47122 0
M  V30 6814 H 639.48 1.55533 -4.13838 0
M  V30 6815 N 638.539 1.52521 -0.396863 0
M  V30 6816 C 639.785 2.01971 0.183169 0
M  V30 6817 C 640.118 1.2825 1.45827 0
M  V30 6818 O 639.393 0.385179 1.90648 0
M  V30 6819 C 639.676 3.5736 0.443391 0
M  V30 6820 C 639.529 4.41743 -0.84753 0
M  V30 6821 C 640.848 4.22539 1.2308 0
M  V30 6822 H 637.967 0.734119 0.0650976 0
M  V30 6823 H 640.609 1.82519 -0.527918 0
M  V30 6824 H 638.759 3.74066 1.04914 0
M  V30 6825 H 640.431 4.36773 -1.48414 0
M  V30 6826 H 638.674 4.0845 -1.4612 0
M  V30 6827 H 639.345 5.48507 -0.620003 0
M  V30 6828 H 641.821 4.09857 0.718084 0
M  V30 6829 H 640.697 5.31227 1.38162 0
M  V30 6830 H 640.958 3.80675 2.24808 0
M  V30 6831 N 640.017 0.126909 1.57088 0
M  V30 6832 C 641.263 -0.529952 1.95753 0
M  V30 6833 C 641.596 -1.65823 1.01077 0
M  V30 6834 O 640.871 -1.94437 0.0494162 0
M  V30 6835 C 641.154 -1.05517 3.44294 0
M  V30 6836 C 641.007 0.0702253 4.49745 0
M  V30 6837 C 642.326 -1.9435 3.94862 0
M  V30 6838 H 639.445 -0.191168 0.711775 0
M  V30 6839 H 642.087 0.204071 1.88901 0
M  V30 6840 H 640.237 -1.68069 3.50264 0
M  V30 6841 H 641.909 0.705834 4.55868 0
M  V30 6842 H 640.152 0.732259 4.27575 0
M  V30 6843 H 640.823 -0.338642 5.5096 0
M  V30 6844 H 643.299 -1.41658 3.91244 0
M  V30 6845 H 642.175 -2.28015 4.993 0
M  V30 6846 H 642.436 -2.87299 3.36024 0
M  V30 6847 N 641.495 -1.56914 -0.146875 0
M  V30 6848 C 642.772 -1.74273 -0.888165 0
M  V30 6849 C 643.152 -0.69496 -1.99333 0
M  V30 6850 O 642.5 0.286093 -2.26702 0
M  V30 6851 C 642.71 -3.18336 -1.43051 0
M  V30 6852 C 644.058 -3.80024 -1.89387 0
M  V30 6853 O 645.082 -3.21765 -1.52792 0
M  V30 6854 O 643.941 -4.82367 -2.56874 0
M  V30 6855 H 641.035 -0.712565 -0.419738 0
M  V30 6856 H 643.581 -1.6918 -0.132791 0
M  V30 6857 H 642.353 -3.86092 -0.636274 0
M  V30 6858 H 641.976 -3.27854 -2.24938 0
M  V30 6859 N 642.974 0.416227 -1.52004 0
M  V30 6860 C 643.907 1.52736 -1.6955 0
M  V30 6861 C 644.885 1.53264 -0.54305 0
M  V30 6862 O 646.069 1.72077 -0.769527 0
M  V30 6863 C 643.196 2.91283 -1.72835 0
M  V30 6864 C 642.242 3.08695 -2.94295 0
M  V30 6865 S 643.075 2.82758 -4.54762 0
M  V30 6866 C 644.231 4.23548 -4.60823 0
M  V30 6867 H 644.464 1.37623 -2.63528 0
M  V30 6868 H 641.997 0.607335 -1.41954 0
M  V30 6869 H 643.955 3.71134 -1.75413 0
M  V30 6870 H 642.616 3.03742 -0.799966 0
M  V30 6871 H 641.809 4.10042 -2.93056 0
M  V30 6872 H 641.411 2.36699 -2.89568 0
M  V30 6873 H 643.703 5.17078 -4.37763 0
M  V30 6874 H 644.646 4.29813 -5.62731 0
M  V30 6875 H 645.054 4.08188 -3.89927 0
M  V30 6876 N 644.452 1.42507 0.673017 0
M  V30 6877 C 645.863 1.38347 1.25367 0
M  V30 6878 C 646.214 0.0776327 1.96046 0
M  V30 6879 O 645.339 -0.823571 2.00116 0
M  V30 6880 C 645.934 2.506 2.28002 0
M  V30 6881 C 644.493 2.49767 2.81591 0
M  V30 6882 C 643.64 2.293 1.55938 0
M  V30 6883 H 646.591 1.51695 0.466288 0
M  V30 6884 H 646.612 2.20953 3.09774 0
M  V30 6885 H 646.124 3.45627 1.76532 0
M  V30 6886 H 644.225 1.58563 3.37177 0
M  V30 6887 H 644.338 3.46867 3.30485 0
M  V30 6888 H 642.702 1.77594 1.82572 0
M  V30 6889 H 643.485 3.26385 1.06431 0
M  V30 6890 N 645.93 -0.909495 1.28709 0
M  V30 6891 C 646.84 -2.04558 1.14861 0
M  V30 6892 C 647.856 -1.73842 0.0741621 0
M  V30 6893 O 649.032 -1.99383 0.2843 0
M  V30 6894 C 646.097 -3.36957 0.816148 0
M  V30 6895 C 645.158 -3.81255 1.97341 0
M  V30 6896 C 644.391 -5.07335 1.65671 0
M  V30 6897 O 644.614 -5.67514 0.573053 0
M  V30 6898 O 643.548 -5.47449 2.50167 0
M  V30 6899 H 647.374 -2.19161 2.10243 0
M  V30 6900 H 644.959 -1.03159 1.08068 0
M  V30 6901 H 646.841 -4.16436 0.644873 0
M  V30 6902 H 645.516 -3.2352 -0.107983 0
M  V30 6903 H 644.423 -3.02584 2.19986 0
M  V30 6904 H 645.756 -3.99261 2.87839 0
M  V30 6905 N 647.408 -1.11026 -1.11852 0
M  V30 6906 C 648.358 -0.733836 -2.15868 0
M  V30 6907 C 649.342 0.26001 -1.58785 0
M  V30 6908 O 650.534 0.0677901 -1.7687 0
M  V30 6909 C 647.663 -0.173948 -3.42859 0
M  V30 6910 C 646.749 -1.1952 -4.0691 0
M  V30 6911 N 647.14 -2.38797 -4.45881 0
M  V30 6912 C 645.438 -1.03714 -4.33773 0
M  V30 6913 C 646.139 -3.03894 -4.96007 0
M  V30 6914 N 645.115 -2.31389 -4.91894 0
M  V30 6915 H 648.917 -1.64171 -2.43773 0
M  V30 6916 H 646.431 -0.988877 -1.28822 0
M  V30 6917 H 648.428 0.113836 -4.16745 0
M  V30 6918 H 647.088 0.728568 -3.16421 0
M  V30 6919 H 648.099 -2.76281 -4.38051 0
M  V30 6920 H 644.776 -0.190694 -4.17064 0
M  V30 6921 H 646.166 -4.05389 -5.35826 0
M  V30 6922 N 648.886 1.2938 -0.899927 0
M  V30 6923 C 649.834 2.29675 -0.367698 0
M  V30 6924 C 650.828 1.60787 0.533282 0
M  V30 6925 O 652.034 1.75126 0.416058 0
M  V30 6926 H 648.409 0.745284 -0.100279 0
M  V30 6927 H 650.38 2.72008 -1.22696 0
M  V30 6928 C 649.129 3.45512 0.389483 0
M  V30 6929 H 648.452 3.98713 -0.294575 0
M  V30 6930 H 649.892 4.17725 0.726744 0
M  V30 6931 C 648.351 2.969 1.59223 0
M  V30 6932 O 648.881 2.98195 2.69152 0
M  V30 6933 N 647.087 2.52728 1.43447 0
M  V30 6934 H 646.634 2.51873 0.540148 0
M  V30 6935 H 646.592 2.20561 2.24054 0
M  V30 6936 N 650.364 0.662433 1.43002 0
M  V30 6937 C 651.775 0.258315 1.84904 0
M  V30 6938 C 652.126 -1.19703 1.55453 0
M  V30 6939 O 651.251 -1.91484 1.00811 0
M  V30 6940 C 651.846 0.462047 3.35635 0
M  V30 6941 C 650.405 0.112165 3.76233 0
M  V30 6942 C 649.552 0.760479 2.66668 0
M  V30 6943 H 652.503 0.865467 1.33024 0
M  V30 6944 H 652.524 -0.289646 3.79396 0
M  V30 6945 H 652.036 1.52135 3.57039 0
M  V30 6946 H 650.137 -0.944179 3.60439 0
M  V30 6947 H 650.25 0.544058 4.76001 0
M  V30 6948 H 648.614 0.192887 2.53969 0
M  V30 6949 H 649.397 1.82299 2.90898 0
M  V30 6950 N 651.842 -1.52309 0.404946 0
M  V30 6951 C 653.09 -2.01368 -0.17186 0
M  V30 6952 C 653.411 -1.29261 -1.46002 0
M  V30 6953 O 652.681 -0.41729 -1.91404 0
M  V30 6954 H 651.261 -0.744034 -0.0664993 0
M  V30 6955 H 653.923 -1.87263 0.540228 0
M  V30 6956 H 653.019 -3.09888 -0.370957 0
M  V30 6957 N 653.32 -0.135238 -1.57019 0
M  V30 6958 C 654.252 0.839675 -2.13265 0
M  V30 6959 C 655.265 1.21887 -1.07923 0
M  V30 6960 O 656.454 1.16499 -1.35241 0
M  V30 6961 C 653.554 2.13647 -2.63075 0
M  V30 6962 C 652.727 1.92646 -3.92691 0
M  V30 6963 C 651.786 3.06205 -4.27931 0
M  V30 6964 O 650.812 2.78409 -4.96465 0
M  V30 6965 N 652.014 4.33072 -3.86561 0
M  V30 6966 H 654.779 0.359026 -2.97542 0
M  V30 6967 H 652.34 0.0486979 -1.61827 0
M  V30 6968 H 654.332 2.88641 -2.8367 0
M  V30 6969 H 652.902 2.5301 -1.83588 0
M  V30 6970 H 652.122 1.01754 -3.80841 0
M  V30 6971 H 653.41 1.75939 -4.77413 0
M  V30 6972 H 652.808 4.58526 -3.31316 0
M  V30 6973 H 651.365 5.04885 -4.12231 0
M  V30 6974 N 654.798 1.5699 0.138552 0
M  V30 6975 C 655.731 1.94064 1.2006 0
M  V30 6976 C 656.709 0.807601 1.41126 0
M  V30 6977 O 657.893 1.06399 1.556 0
M  V30 6978 C 655.02 2.21999 2.55801 0
M  V30 6979 C 654.066 3.44617 2.5128 0
M  V30 6980 S 654.899 4.97888 1.97149 0
M  V30 6981 C 656.055 5.28954 3.34602 0
M  V30 6982 H 656.288 2.83843 0.884337 0
M  V30 6983 H 653.821 1.50507 0.344517 0
M  V30 6984 H 655.779 2.38772 3.33914 0
M  V30 6985 H 654.44 1.32869 2.84613 0
M  V30 6986 H 653.633 3.61466 3.51224 0
M  V30 6987 H 653.235 3.27129 1.8128 0
M  V30 6988 H 655.527 5.22938 4.30745 0
M  V30 6989 H 656.47 6.30346 3.22598 0
M  V30 6990 H 656.878 4.56455 3.32128 0
M  V30 6991 N 656.276 -0.40816 1.52223 0
M  V30 6992 C 657.524 -1.15274 1.66001 0
M  V30 6993 C 657.845 -1.91003 0.392803 0
M  V30 6994 O 657.115 -1.8673 -0.592336 0
M  V30 6995 H 655.695 -0.428526 0.611861 0
M  V30 6996 H 658.357 -0.46512 1.89269 0
M  V30 6997 H 657.453 -1.86628 2.50153 0
M  V30 6998 N 657.755 -1.42862 -0.66545 0
M  V30 6999 C 659.003 -1.43546 -1.42264 0
M  V30 7000 C 659.324 -0.0563116 -1.94919 0
M  V30 7001 O 658.594 0.906568 -1.73661 0
M  V30 7002 H 657.174 -0.528464 -0.527953 0
M  V30 7003 H 659.836 -1.78363 -0.785665 0
M  V30 7004 H 658.932 -2.14079 -2.27105 0
M  V30 7005 N 659.233 0.902656 -1.29189 0
M  V30 7006 C 660.461 1.68639 -1.19869 0
M  V30 7007 C 660.876 1.87254 0.241121 0
M  V30 7008 O 660.233 1.40745 1.16177 0
M  V30 7009 C 660.284 3.07251 -1.90471 0
M  V30 7010 O 660.005 2.89488 -3.28829 0
M  V30 7011 C 661.506 4.01653 -1.8759 0
M  V30 7012 H 658.726 0.526802 -0.415596 0
M  V30 7013 H 661.27 1.12901 -1.7051 0
M  V30 7014 H 659.425 3.59774 -1.43672 0
M  V30 7015 H 659.839 3.77296 -3.64346 0
M  V30 7016 H 661.313 4.96339 -2.4156 0
M  V30 7017 H 661.79 4.30881 -0.850756 0
M  V30 7018 H 662.396 3.55061 -2.34119 0
M  V30 7019 N 660.711 1.11618 1.11262 0
M  V30 7020 C 661.644 0.719995 2.16544 0
M  V30 7021 C 662.622 -0.28471 1.60088 0
M  V30 7022 O 663.806 -0.180693 1.87632 0
M  V30 7023 C 660.933 0.0643302 3.38639 0
M  V30 7024 C 659.979 1.03448 4.13764 0
M  V30 7025 S 660.812 2.55789 4.70459 0
M  V30 7026 C 661.968 1.91529 5.95875 0
M  V30 7027 H 662.201 1.61181 2.49816 0
M  V30 7028 H 659.734 0.934401 1.22916 0
M  V30 7029 H 661.692 -0.307609 4.09346 0
M  V30 7030 H 660.353 -0.804471 3.03623 0
M  V30 7031 H 659.546 0.523188 5.01277 0
M  V30 7032 H 659.148 1.34893 3.48826 0
M  V30 7033 H 661.44 1.25286 6.65815 0
M  V30 7034 H 662.383 2.77047 6.51652 0
M  V30 7035 H 662.791 1.37468 5.47506 0
M  V30 7036 N 662.189 -1.289 0.906776 0
M  V30 7037 C 663.605 -1.47733 0.603902 0
M  V30 7038 C 663.805 -1.82568 -0.852702 0
M  V30 7039 O 662.861 -1.92642 -1.63234 0
M  V30 7040 C 664.174 -2.58522 1.53581 0
M  V30 7041 C 665.722 -2.72394 1.54177 0
M  V30 7042 C 666.197 -3.86318 2.46013 0
M  V30 7043 N 667.688 -3.93661 2.441 0
M  V30 7044 C 668.423 -4.81177 3.11859 0
M  V30 7045 N 667.919 -5.73333 3.88923 0
M  V30 7046 N 669.712 -4.74728 3.00981 0
M  V30 7047 H 661.863 -1.04567 1.84877 0
M  V30 7048 H 664.126 -0.520118 0.792579 0
M  V30 7049 H 663.832 -2.39667 2.57396 0
M  V30 7050 H 663.706 -3.55475 1.26165 0
M  V30 7051 H 666.093 -2.90641 0.511034 0
M  V30 7052 H 666.174 -1.75993 1.85634 0
M  V30 7053 H 665.818 -3.68826 3.49185 0
M  V30 7054 H 665.748 -4.82102 2.11862 0
M  V30 7055 H 668.239 -3.27751 1.88115 0
M  V30 7056 H 668.552 -6.36923 4.37663 0
M  V30 7057 H 666.897 -5.73196 3.93029 0
M  V30 7058 H 670.088 -4.01722 2.40286 0
M  V30 7059 H 670.261 -5.42719 3.54062 0
M  V30 7060 N 663.667 -0.670007 -1.42649 0
M  V30 7061 C 664.597 -0.00258501 -2.335 0
M  V30 7062 C 665.578 0.794364 -1.50412 0
M  V30 7063 O 666.763 0.75248 -1.79029 0
M  V30 7064 C 663.893 0.952748 -3.33976 0
M  V30 7065 C 662.847 0.264733 -4.2718 0
M  V30 7066 C 662.173 1.33267 -5.17826 0
M  V30 7067 C 663.473 -0.853289 -5.15283 0
M  V30 7068 H 665.167 -0.761326 -2.89559 0
M  V30 7069 H 662.713 -0.367561 -1.3923 0
M  V30 7070 H 664.666 1.4287 -3.96442 0
M  V30 7071 H 663.39 1.74285 -2.7621 0
M  V30 7072 H 662.049 -0.190938 -3.66102 0
M  V30 7073 H 661.697 2.11464 -4.5639 0
M  V30 7074 H 661.397 0.877476 -5.81011 0
M  V30 7075 H 662.921 1.80965 -5.83167 0
M  V30 7076 H 664.335 -0.458763 -5.71462 0
M  V30 7077 H 662.732 -1.23398 -5.87276 0
M  V30 7078 H 663.802 -1.70412 -4.53969 0
M  V30 7079 N 665.145 1.52092 -0.413018 0
M  V30 7080 C 666.393 2.01456 0.161178 0
M  V30 7081 C 666.714 1.30034 1.45314 0
M  V30 7082 O 665.984 0.427435 1.9118 0
M  V30 7083 H 664.564 0.744376 0.0625526 0
M  V30 7084 H 667.226 1.86974 -0.550151 0
M  V30 7085 H 666.322 3.1008 0.354517 0
M  V30 7086 N 666.623 0.143563 1.56945 0
M  V30 7087 C 667.57 -0.797433 2.16586 0
M  V30 7088 C 668.54 -1.24654 1.09775 0
M  V30 7089 O 669.725 -1.31968 1.37801 0
M  V30 7090 C 666.865 -2.03253 2.78895 0
M  V30 7091 C 665.978 -1.62954 4.00087 0
M  V30 7092 C 665.113 -2.81617 4.50406 0
M  V30 7093 C 664.152 -2.37675 5.64072 0
M  V30 7094 N 663.289 -3.49335 6.09023 0
M  V30 7095 H 668.129 -0.282023 2.96662 0
M  V30 7096 H 665.666 -0.127494 1.46546 0
M  V30 7097 H 667.624 -2.75653 3.13163 0
M  V30 7098 H 666.254 -2.52211 2.01469 0
M  V30 7099 H 665.306 -0.803322 3.71821 0
M  V30 7100 H 666.618 -1.26679 4.82446 0
M  V30 7101 H 665.772 -3.62212 4.86711 0
M  V30 7102 H 664.511 -3.21134 3.67048 0
M  V30 7103 H 663.516 -1.55519 5.27346 0
M  V30 7104 H 664.741 -1.99247 6.49213 0
M  V30 7105 H 662.687 -3.8848 5.28601 0
M  V30 7106 H 662.604 -3.17064 6.86299 0
M  V30 7107 H 663.872 -4.30297 6.49973 0
M  V30 7108 N 668.101 -1.57061 -0.130224 0
M  V30 7109 C 669.517 -1.52103 -0.483413 0
M  V30 7110 C 669.717 -0.854752 -1.82473 0
M  V30 7111 O 668.773 -0.432342 -2.48771 0
M  V30 7112 C 670.086 -2.96872 -0.47825 0
M  V30 7113 C 671.634 -3.07902 -0.562592 0
M  V30 7114 C 672.109 -4.54211 -0.587929 0
M  V30 7115 N 673.6 -4.58621 -0.649684 0
M  V30 7116 C 674.335 -5.69227 -0.690551 0
M  V30 7117 N 673.831 -6.89358 -0.689743 0
M  V30 7118 N 675.624 -5.57304 -0.732708 0
M  V30 7119 H 667.775 -1.98764 0.748779 0
M  V30 7120 H 670.038 -0.907248 0.274965 0
M  V30 7121 H 669.744 -3.48944 0.439444 0
M  V30 7122 H 669.618 -3.53716 -1.31013 0
M  V30 7123 H 672.005 -2.5584 -1.47071 0
M  V30 7124 H 672.086 -2.54073 0.296764 0
M  V30 7125 H 671.73 -5.06915 0.316096 0
M  V30 7126 H 671.66 -5.0584 -1.46401 0
M  V30 7127 H 674.151 -3.72146 -0.656927 0
M  V30 7128 H 674.464 -7.69408 -0.723239 0
M  V30 7129 H 672.809 -6.91884 -0.657347 0
M  V30 7130 H 676 -4.62363 -0.730625 0
M  V30 7131 H 676.173 -6.43515 -0.76109 0
M  V30 7132 N 669.579 0.400081 -1.52437 0
M  V30 7133 C 670.995 0.739359 -1.41441 0
M  V30 7134 C 671.195 1.94512 -0.526053 0
M  V30 7135 O 670.251 2.525 0.00472502 0
M  V30 7136 C 671.564 0.984824 -2.84116 0
M  V30 7137 C 673.112 1.08698 -2.93519 0
M  V30 7138 C 673.587 1.36515 -4.37181 0
M  V30 7139 N 675.078 1.43361 -4.40457 0
M  V30 7140 C 675.813 1.66528 -5.48686 0
M  V30 7141 N 675.309 1.87239 -6.67018 0
M  V30 7142 N 677.102 1.68617 -5.36213 0
M  V30 7143 H 669.253 -0.393484 -2.08723 0
M  V30 7144 H 671.516 -0.1138 -0.941145 0
M  V30 7145 H 671.222 0.171096 -3.51284 0
M  V30 7146 H 671.096 1.90253 -3.25705 0
M  V30 7147 H 673.483 1.89129 -2.26526 0
M  V30 7148 H 673.564 0.147432 -2.55375 0
M  V30 7149 H 673.208 0.565982 -5.04737 0
M  V30 7150 H 673.138 2.31737 -4.7287 0
M  V30 7151 H 675.629 1.29108 -3.55161 0
M  V30 7152 H 675.942 2.04392 -7.45281 0
M  V30 7153 H 674.287 1.84486 -6.70067 0
M  V30 7154 H 677.478 1.5198 -4.42741 0
M  V30 7155 H 677.651 1.86332 -6.20632 0
M  V30 7156 N 671.057 1.43213 0.657864 0
M  V30 7157 C 672.285 1.48015 1.44566 0
M  V30 7158 C 672.7 0.0965951 1.88553 0
M  V30 7159 O 672.057 -0.892221 1.59203 0
M  V30 7160 C 672.108 2.42199 2.68369 0
M  V30 7161 O 671.829 3.75173 2.26223 0
M  V30 7162 C 673.33 2.56195 3.61772 0
M  V30 7163 H 670.55 0.502861 0.444266 0
M  V30 7164 H 673.094 1.87907 0.806917 0
M  V30 7165 H 671.249 2.05514 3.28394 0
M  V30 7166 H 671.663 4.25776 3.06293 0
M  V30 7167 H 673.137 3.26182 4.4532 0
M  V30 7168 H 673.614 1.60534 4.0881 0
M  V30 7169 H 674.22 2.93671 3.07632 0
M  V30 7170 N 672.536 -0.895792 1.29666 0
M  V30 7171 C 673.466 -2.01673 1.17688 0
M  V30 7172 C 674.447 -1.69955 0.0701317 0
M  V30 7173 O 675.632 -1.9258 0.250289 0
M  V30 7174 C 672.762 -3.36568 0.856681 0
M  V30 7175 C 671.716 -3.82509 1.92017 0
M  V30 7176 C 671.042 -5.14574 1.4532 0
M  V30 7177 C 672.342 -4.02409 3.32963 0
M  V30 7178 H 674.036 -2.11953 2.11463 0
M  V30 7179 H 671.582 -1.01839 1.01807 0
M  V30 7180 H 673.535 -4.14498 0.759577 0
M  V30 7181 H 672.259 -3.26391 -0.116763 0
M  V30 7182 H 670.918 -3.068 2.00673 0
M  V30 7183 H 670.566 -5.00815 0.468325 0
M  V30 7184 H 670.266 -5.46283 2.16447 0
M  V30 7185 H 671.79 -5.9504 1.36968 0
M  V30 7186 H 673.204 -4.70808 3.27127 0
M  V30 7187 H 671.601 -4.45478 4.02082 0
M  V30 7188 H 672.671 -3.06616 3.75652 0
M  V30 7189 N 674.014 -1.12206 -1.10668 0
M  V30 7190 C 675.261 -0.875875 -1.82578 0
M  V30 7191 C 675.589 0.598342 -1.85068 0
M  V30 7192 O 674.844 1.45818 -1.3052 0
M  V30 7193 C 675.143 -1.39276 -3.29146 0
M  V30 7194 C 674.809 -2.8816 -3.46806 0
M  V30 7195 C 673.471 -3.28813 -3.51334 0
M  V30 7196 C 675.823 -3.8401 -3.52399 0
M  V30 7197 C 673.151 -4.64028 -3.59019 0
M  V30 7198 C 675.503 -5.19053 -3.61617 0
M  V30 7199 C 674.167 -5.59252 -3.64408 0
M  V30 7200 H 673.437 -0.320505 -0.6681 0
M  V30 7201 H 676.084 -1.40184 -1.30464 0
M  V30 7202 H 674.389 -0.787207 -3.8381 0
M  V30 7203 H 676.086 -1.17851 -3.83291 0
M  V30 7204 H 672.676 -2.55716 -3.43958 0
M  V30 7205 H 676.86 -3.53698 -3.48154 0
M  V30 7206 H 672.116 -4.94568 -3.59461 0
M  V30 7207 H 676.29 -5.93152 -3.64889 0
M  V30 7208 H 673.917 -6.64017 -3.70116 0
M  V30 7209 N 675.492 1.28418 -0.913599 0
M  V30 7210 C 676.424 2.26368 -0.359169 0
M  V30 7211 C 677.437 1.54858 0.502285 0
M  V30 7212 O 678.626 1.75659 0.31719 0
M  V30 7213 C 675.726 3.35112 0.50526 0
M  V30 7214 C 674.899 4.36126 -0.333648 0
M  V30 7215 C 673.958 5.24134 0.465845 0
M  V30 7216 O 672.984 5.6907 -0.121538 0
M  V30 7217 N 674.186 5.52892 1.76891 0
M  V30 7218 H 676.951 2.74579 -1.2011 0
M  V30 7219 H 674.512 1.41898 -0.779532 0
M  V30 7220 H 676.504 3.90926 1.04684 0
M  V30 7221 H 675.074 2.86611 1.2479 0
M  V30 7222 H 674.294 3.79776 -1.0566 0
M  V30 7223 H 675.582 5.00638 -0.907669 0
M  V30 7224 H 674.98 5.18217 2.26865 0
M  V30 7225 H 673.537 6.11464 2.25732 0
M  V30 7226 N 676.97 0.677563 1.42291 0
M  V30 7227 C 678.198 0.209459 2.05837 0
M  V30 7228 C 678.613 -1.13444 1.50917 0
M  V30 7229 O 677.97 -1.70529 0.65008 0
M  V30 7230 C 678.021 0.138819 3.61233 0
M  V30 7231 O 677.742 1.42962 4.14118 0
M  V30 7232 C 679.243 -0.352449 4.41897 0
M  V30 7233 H 676.463 0.101209 0.663323 0
M  V30 7234 H 679.007 0.925077 1.8238 0
M  V30 7235 H 677.162 -0.527505 3.83792 0
M  V30 7236 H 677.576 1.3048 5.08011 0
M  V30 7237 H 679.05 -0.350778 5.50884 0
M  V30 7238 H 679.527 -1.3882 4.16684 0
M  V30 7239 H 680.133 0.282236 4.24362 0
M  V30 7240 N 678.448 -1.51871 0.421078 0
M  V30 7241 C 679.395 -2.27334 -0.398508 0
M  V30 7242 C 680.365 -1.30241 -1.03085 0
M  V30 7243 O 681.55 -1.59121 -1.05285 0
M  V30 7244 C 678.69 -3.10664 -1.50272 0
M  V30 7245 C 677.803 -4.2273 -0.890122 0
M  V30 7246 C 676.938 -4.93399 -1.96803 0
M  V30 7247 C 675.977 -5.97409 -1.333 0
M  V30 7248 N 675.114 -6.61548 -2.35156 0
M  V30 7249 H 679.954 -2.96938 0.251411 0
M  V30 7250 H 677.491 -1.46472 0.135825 0
M  V30 7251 H 679.449 -3.57292 -2.15403 0
M  V30 7252 H 678.079 -2.43207 -2.1225 0
M  V30 7253 H 677.131 -3.80186 -0.127537 0
M  V30 7254 H 678.443 -4.97302 -0.386349 0
M  V30 7255 H 677.597 -5.43491 -2.69633 0
M  V30 7256 H 676.336 -4.18421 -2.50549 0
M  V30 7257 H 675.341 -5.46624 -0.59008 0
M  V30 7258 H 676.566 -6.74335 -0.803076 0
M  V30 7259 H 674.512 -5.89394 -2.88012 0
M  V30 7260 H 674.429 -7.31832 -1.89624 0
M  V30 7261 H 675.697 -7.16276 -3.0752 0
M  V30 7262 N 679.926 -0.151884 -1.56866 0
M  V30 7263 C 680.874 0.80299 -2.183 0
M  V30 7264 C 681.868 1.25174 -1.14139 0
M  V30 7265 O 683.074 1.21966 -1.3238 0
M  V30 7266 H 679.449 0.277169 -0.699057 0
M  V30 7267 H 681.42 0.260699 -2.97259 0
M  V30 7268 C 680.169 2.03009 -2.82281 0
M  V30 7269 H 679.492 1.69377 -3.62148 0
M  V30 7270 H 680.932 2.67753 -3.28762 0
M  V30 7271 C 679.391 2.84123 -1.81041 0
M  V30 7272 O 679.921 3.8063 -1.28388 0
M  V30 7273 N 678.127 2.48753 -1.50234 0
M  V30 7274 H 677.674 1.70337 -1.93244 0
M  V30 7275 H 677.632 3.03316 -0.827445 0
M  V30 7276 N 681.404 1.57128 0.121893 0
M  V30 7277 C 682.629 1.89254 0.848385 0
M  V30 7278 C 683.054 0.743527 1.72781 0
M  V30 7279 O 682.412 -0.306056 1.78698 0
M  V30 7280 C 682.46 3.20113 1.66012 0
M  V30 7281 O 681.564 3.05815 2.76679 0
M  V30 7282 H 680.905 0.621103 0.234793 0
M  V30 7283 H 683.435 2.0433 0.10516 0
M  V30 7284 H 683.445 3.52761 2.04996 0
M  V30 7285 H 682.12 4.03336 1.01452 0
M  V30 7286 H 680.697 2.84627 2.40918 0
M  V30 7287 N 682.882 -0.391992 1.52647 0
M  V30 7288 C 684.128 -1.139 1.67793 0
M  V30 7289 C 684.461 -1.89711 0.41514 0
M  V30 7290 O 683.736 -1.85431 -0.586979 0
M  V30 7291 C 684.019 -2.11966 2.91105 0
M  V30 7292 C 683.872 -1.39939 4.27478 0
M  V30 7293 C 685.191 -3.1243 3.09961 0
M  V30 7294 H 682.31 -0.412707 0.610608 0
M  V30 7295 H 684.952 -0.422725 1.85238 0
M  V30 7296 H 683.102 -2.73048 2.76364 0
M  V30 7297 H 684.774 -0.818439 4.53982 0
M  V30 7298 H 683.017 -0.701246 4.28095 0
M  V30 7299 H 683.688 -2.1158 5.09841 0
M  V30 7300 H 686.164 -2.61435 3.23714 0
M  V30 7301 H 685.04 -3.78294 3.97725 0
M  V30 7302 H 685.301 -3.81127 2.24042 0
M  V30 7303 N 684.36 -1.4356 -0.65026 0
M  V30 7304 C 685.293 -1.434 -1.77515 0
M  V30 7305 C 686.271 -0.295082 -1.599 0
M  V30 7306 O 687.455 -0.489128 -1.82043 0
M  V30 7307 C 684.582 -1.2484 -3.14853 0
M  V30 7308 C 683.628 -2.42046 -3.51163 0
M  V30 7309 S 684.461 -4.04595 -3.50803 0
M  V30 7310 C 685.617 -3.88424 -4.90793 0
M  V30 7311 H 685.85 -2.38586 -1.77381 0
M  V30 7312 H 683.383 -1.30627 -0.823169 0
M  V30 7313 H 685.341 -1.14819 -3.94115 0
M  V30 7314 H 684.002 -0.311977 -3.12547 0
M  V30 7315 H 683.195 -2.24873 -4.51052 0
M  V30 7316 H 682.797 -2.48708 -2.79321 0
M  V30 7317 H 685.089 -3.50932 -5.79528 0
M  V30 7318 H 686.032 -4.88076 -5.13018 0
M  V30 7319 H 686.44 -3.20829 -4.64467 0
M  V30 7320 N 685.838 0.888903 -1.30139 0
M  V30 7321 C 687.254 1.17153 -1.08385 0
M  V30 7322 C 687.454 2.0088 0.157925 0
M  V30 7323 O 686.51 2.37668 0.852652 0
M  V30 7324 C 687.823 1.882 -2.34523 0
M  V30 7325 C 689.371 2.00981 -2.39949 0
M  V30 7326 C 689.846 2.75441 -3.65918 0
M  V30 7327 N 691.337 2.82989 -3.66704 0
M  V30 7328 C 692.072 3.41167 -4.60861 0
M  V30 7329 N 691.568 4.00425 -5.6536 0
M  V30 7330 N 693.361 3.38944 -4.48412 0
M  V30 7331 H 685.512 0.33053 -2.09812 0
M  V30 7332 H 687.775 0.208964 -0.924683 0
M  V30 7333 H 687.481 1.34119 -3.25123 0
M  V30 7334 H 687.355 2.88609 -2.42868 0
M  V30 7335 H 689.742 2.54234 -1.4983 0
M  V30 7336 H 689.823 0.996725 -2.35582 0
M  V30 7337 H 689.467 2.22861 -4.56394 0
M  V30 7338 H 689.397 3.77118 -3.67546 0
M  V30 7339 H 691.888 2.40912 -2.91153 0
M  V30 7340 H 692.201 4.42871 -6.33313 0
M  V30 7341 H 690.546 3.98856 -5.69157 0
M  V30 7342 H 693.737 2.91875 -3.6596 0
M  V30 7343 H 693.91 3.83989 -5.21974 0
M  V30 7344 N 687.317 1.12792 1.10072 0
M  V30 7345 C 688.264 0.79921 2.16521 0
M  V30 7346 C 689.234 -0.235726 1.64419 0
M  V30 7347 O 690.419 -0.109457 1.90486 0
M  V30 7348 C 687.559 0.264091 3.44088 0
M  V30 7349 C 686.672 1.35729 4.10124 0
M  V30 7350 C 685.807 0.781212 5.25424 0
M  V30 7351 C 684.846 1.85327 5.8337 0
M  V30 7352 N 683.983 1.29564 6.90042 0
M  V30 7353 H 688.823 1.71105 2.43981 0
M  V30 7354 H 686.36 0.854225 1.19756 0
M  V30 7355 H 688.318 -0.0642423 4.17151 0
M  V30 7356 H 686.948 -0.610901 3.16967 0
M  V30 7357 H 686 1.80234 3.34993 0
M  V30 7358 H 687.312 2.16782 4.4923 0
M  V30 7359 H 686.466 0.403769 6.05355 0
M  V30 7360 H 685.205 -0.0604686 4.87663 0
M  V30 7361 H 684.21 2.23986 5.02106 0
M  V30 7362 H 685.435 2.69824 6.23195 0
M  V30 7363 H 683.381 0.475844 6.54272 0
M  V30 7364 H 683.298 2.04271 7.2788 0
M  V30 7365 H 684.566 0.945545 7.73744 0
M  V30 7366 N 688.795 -1.27931 0.920396 0
M  V30 7367 C 689.725 -2.29487 0.431024 0
M  V30 7368 C 690.706 -1.62435 -0.504861 0
M  V30 7369 O 691.891 -1.89797 -0.411176 0
M  V30 7370 C 689.021 -3.45788 -0.323709 0
M  V30 7371 C 687.975 -4.24784 0.523658 0
M  V30 7372 C 687.301 -5.33488 -0.359809 0
M  V30 7373 C 688.601 -4.90874 1.78437 0
M  V30 7374 H 690.295 -2.70671 1.27975 0
M  V30 7375 H 687.841 -1.30121 0.616813 0
M  V30 7376 H 689.794 -4.15927 -0.676952 0
M  V30 7377 H 688.518 -3.03502 -1.2064 0
M  V30 7378 H 687.177 -3.56382 0.85951 0
M  V30 7379 H 686.825 -4.87445 -1.24124 0
M  V30 7380 H 686.525 -5.87247 0.203605 0
M  V30 7381 H 688.049 -6.06472 -0.708787 0
M  V30 7382 H 689.463 -5.53339 1.49963 0
M  V30 7383 H 687.86 -5.54659 2.29071 0
M  V30 7384 H 688.93 -4.14988 2.50824 0
M  V30 7385 N 690.273 -0.685099 -1.4193 0
M  V30 7386 C 691.503 -0.220052 -2.05425 0
M  V30 7387 C 691.911 1.13185 -1.51611 0
M  V30 7388 O 691.254 1.71631 -0.654875 0
M  V30 7389 C 691.316 -0.0888364 -3.5939 0
M  V30 7390 C 690.98 -1.37109 -4.35947 0
M  V30 7391 C 691.977 -2.30675 -4.65924 0
M  V30 7392 C 689.662 -1.62155 -4.75406 0
M  V30 7393 C 691.656 -3.47556 -5.34306 0
M  V30 7394 C 689.343 -2.79324 -5.43527 0
M  V30 7395 C 690.341 -3.71848 -5.72903 0
M  V30 7396 O 690.029 -4.86966 -6.39624 0
M  V30 7397 H 689.761 -0.102165 -0.668235 0
M  V30 7398 H 692.315 -0.935194 -1.82875 0
M  V30 7399 H 690.545 0.681981 -3.80639 0
M  V30 7400 H 692.234 0.337669 -4.04493 0
M  V30 7401 H 693 -2.12579 -4.3593 0
M  V30 7402 H 688.879 -0.910053 -4.51928 0
M  V30 7403 H 692.423 -4.19794 -5.57153 0
M  V30 7404 H 688.32 -2.97342 -5.72938 0
M  V30 7405 H 689.088 -4.86644 -6.58118 0
M  V30 7406 N 691.751 1.51645 -0.429126 0
M  V30 7407 C 692.999 2.01616 0.139802 0
M  V30 7408 C 693.32 1.31568 1.43927 0
M  V30 7409 O 692.59 0.447688 1.90716 0
M  V30 7410 H 691.17 0.744998 0.054654 0
M  V30 7411 H 693.832 1.8638 -0.569952 0
M  V30 7412 H 692.928 3.10439 0.321609 0
M  V30 7413 N 693.229 0.160201 1.56784 0
M  V30 7414 C 694.506 -0.533355 1.88188 0
M  V30 7415 C 694.886 -1.82072 1.06831 0
M  V30 7416 O 694.234 -2.27946 0.158959 0
M  V30 7417 C 694.444 -0.786034 3.40033 0
M  V30 7418 C 695.792 -1.12097 4.09536 0
M  V30 7419 O 696.816 -0.874949 3.45287 0
M  V30 7420 O 695.675 -1.58457 5.23023 0
M  V30 7421 H 692.769 -0.273589 0.780434 0
M  V30 7422 H 695.315 0.197803 1.68543 0
M  V30 7423 H 694.087 0.124515 3.91102 0
M  V30 7424 H 693.71 -1.57091 3.65251 0
M  V30 7425 N 694.707 -1.5719 -0.113559 0
M  V30 7426 C 695.67 -1.99796 -1.12314 0
M  V30 7427 C 696.67 -0.888847 -1.34001 0
M  V30 7428 O 697.86 -1.15476 -1.30426 0
M  V30 7429 C 694.992 -2.34279 -2.47641 0
M  V30 7430 H 696.185 -2.90193 -0.756825 0
M  V30 7431 H 693.738 -1.52144 -0.358029 0
M  V30 7432 H 694.473 -1.46778 -2.89183 0
M  V30 7433 H 694.258 -3.15175 -2.33253 0
M  V30 7434 H 695.748 -2.67963 -3.2029 0
M  V30 7435 N 696.185 0.383891 -1.52853 0
M  V30 7436 C 697.462 1.14296 -1.58732 0
M  V30 7437 C 697.842 2.07585 -0.383611 0
M  V30 7438 O 697.19 2.1971 0.627661 0
M  V30 7439 C 697.4 1.89816 -2.92867 0
M  V30 7440 C 698.748 2.44998 -3.46787 0
M  V30 7441 O 699.772 1.99966 -2.94774 0
M  V30 7442 O 698.631 3.2727 -4.37672 0
M  V30 7443 H 695.725 0.52326 -0.640413 0
M  V30 7444 H 698.271 0.388631 -1.6519 0
M  V30 7445 H 697.043 1.21626 -3.71918 0
M  V30 7446 H 696.666 2.72199 -2.89816 0
M  V30 7447 N 697.663 1.43903 0.642637 0
M  V30 7448 C 698.893 1.49323 1.4278 0
M  V30 7449 C 699.301 0.113058 1.88862 0
M  V30 7450 O 698.644 -0.889089 1.60751 0
M  V30 7451 C 698.706 2.3861 2.68897 0
M  V30 7452 C 698.37 3.85976 2.44687 0
M  V30 7453 C 699.367 4.7681 2.07239 0
M  V30 7454 C 697.052 4.30567 2.58683 0
M  V30 7455 C 699.046 6.10234 1.841 0
M  V30 7456 C 696.733 5.64042 2.35159 0
M  V30 7457 C 697.731 6.53693 1.97925 0
M  V30 7458 O 697.419 7.84698 1.74654 0
M  V30 7459 H 697.151 0.509109 0.444729 0
M  V30 7460 H 699.705 1.89425 0.794195 0
M  V30 7461 H 697.935 1.93415 3.34855 0
M  V30 7462 H 699.624 2.35112 3.30873 0
M  V30 7463 H 700.39 4.43635 1.95993 0
M  V30 7464 H 696.269 3.61054 2.86637 0
M  V30 7465 H 699.813 6.80171 1.54962 0
M  V30 7466 H 695.71 5.96782 2.46011 0
M  V30 7467 H 696.478 7.96382 1.88993 0
M  V30 7468 N 699.141 -0.881989 1.30609 0
M  V30 7469 C 700.071 -2.00413 1.1982 0
M  V30 7470 C 701.052 -1.69871 0.0881538 0
M  V30 7471 O 702.237 -1.92304 0.2707 0
M  V30 7472 C 699.367 -3.35641 0.89233 0
M  V30 7473 C 698.321 -3.80451 1.96064 0
M  V30 7474 C 697.647 -5.13003 1.5077 0
M  V30 7475 C 698.947 -3.98855 3.37213 0
M  V30 7476 H 700.641 -2.09698 2.13699 0
M  V30 7477 H 698.187 -1.00754 1.02882 0
M  V30 7478 H 700.14 -4.13669 0.803497 0
M  V30 7479 H 698.864 -3.26497 -0.0821381 0
M  V30 7480 H 697.523 -3.04654 2.03916 0
M  V30 7481 H 697.171 -5.0029 0.521417 0
M  V30 7482 H 696.871 -5.43956 2.22229 0
M  V30 7483 H 698.395 -5.93554 1.43271 0
M  V30 7484 H 699.809 -4.67312 3.32103 0
M  V30 7485 H 698.206 -4.41188 4.06784 0
M  V30 7486 H 699.276 -3.02614 3.78883 0
M  V30 7487 N 700.619 -1.13374 -1.09472 0
M  V30 7488 C 701.529 -0.824029 -2.19652 0
M  V30 7489 C 702.545 0.19118 -1.72947 0
M  V30 7490 O 703.721 0.0223464 -2.01388 0
M  V30 7491 C 700.786 -0.294009 -3.45451 0
M  V30 7492 C 699.847 -1.3704 -4.0684 0
M  V30 7493 C 699.08 -0.86558 -5.26634 0
M  V30 7494 O 699.303 0.29702 -5.69626 0
M  V30 7495 O 698.237 -1.63968 -5.79136 0
M  V30 7496 H 702.063 -1.74454 -2.48595 0
M  V30 7497 H 699.648 -0.911155 -1.18399 0
M  V30 7498 H 701.53 -0.00381039 -4.214 0
M  V30 7499 H 700.205 0.598921 -3.18111 0
M  V30 7500 H 699.112 -1.71391 -3.3253 0
M  V30 7501 H 700.445 -2.23746 -4.38405 0
M  V30 7502 N 702.098 1.27442 -0.927168 0
M  V30 7503 C 703.008 2.30599 -0.431448 0
M  V30 7504 C 704.024 1.67028 0.48761 0
M  V30 7505 O 705.2 1.97962 0.370546 0
M  V30 7506 C 702.265 3.45327 0.308292 0
M  V30 7507 C 701.326 4.24418 -0.645615 0
M  V30 7508 C 700.559 5.33667 0.0589164 0
M  V30 7509 O 700.782 5.5589 1.27838 0
M  V30 7510 O 699.716 5.98774 -0.612638 0
M  V30 7511 H 703.542 2.75036 -1.28797 0
M  V30 7512 H 701.127 1.32382 -0.692495 0
M  V30 7513 H 703.009 4.15107 0.725555 0
M  V30 7514 H 701.684 3.02945 1.14043 0
M  V30 7515 H 700.591 3.57174 -1.11255 0
M  V30 7516 H 701.924 4.70512 -1.44496 0
M  V30 7517 N 703.576 0.692616 1.41565 0
M  V30 7518 C 704.992 0.363878 1.55397 0
M  V30 7519 C 705.192 -1.1294 1.66874 0
M  V30 7520 O 704.248 -1.91517 1.64552 0
M  V30 7521 C 705.561 1.10982 2.7947 0
M  V30 7522 C 707.109 1.09387 2.93263 0
M  V30 7523 C 707.584 1.8215 4.20221 0
M  V30 7524 N 709.075 1.79105 4.27172 0
M  V30 7525 C 709.81 2.32247 5.2426 0
M  V30 7526 N 709.306 2.93847 6.27396 0
M  V30 7527 N 711.099 2.22519 5.1618 0
M  V30 7528 H 703.25 1.66116 1.3236 0
M  V30 7529 H 705.513 0.700848 0.63837 0
M  V30 7530 H 705.219 2.1647 2.77188 0
M  V30 7531 H 705.093 0.686492 3.709 0
M  V30 7532 H 707.48 0.0472638 2.95062 0
M  V30 7533 H 707.561 1.55623 2.03015 0
M  V30 7534 H 707.205 2.86789 4.19183 0
M  V30 7535 H 707.135 1.33351 5.09436 0
M  V30 7536 H 709.626 1.34191 3.53272 0
M  V30 7537 H 709.939 3.31972 6.97864 0
M  V30 7538 H 708.284 2.97924 6.27906 0
M  V30 7539 H 711.475 1.7407 4.34531 0
M  V30 7540 H 711.648 2.64239 5.91677 0
M  V30 7541 N 705.054 -1.51416 0.437162 0
M  V30 7542 C 706.004 -2.24599 -0.392311 0
M  V30 7543 C 706.988 -1.2682 -0.990221 0
M  V30 7544 O 708.18 -1.51912 -0.908391 0
M  V30 7545 C 705.309 -3.09134 -1.49301 0
M  V30 7546 C 704.395 -4.14342 -0.904503 0
M  V30 7547 N 704.786 -5.0578 -0.0451511 0
M  V30 7548 C 703.084 -4.30323 -1.1721 0
M  V30 7549 C 703.785 -5.81 0.285344 0
M  V30 7550 N 702.761 -5.42591 -0.330993 0
M  V30 7551 H 706.563 -2.92655 0.270221 0
M  V30 7552 H 704.077 -1.60476 0.249226 0
M  V30 7553 H 706.074 -3.6014 -2.10011 0
M  V30 7554 H 704.734 -2.42622 -2.15788 0
M  V30 7555 H 705.745 -5.16903 0.321271 0
M  V30 7556 H 702.422 -3.75037 -1.83448 0
M  V30 7557 H 703.812 -6.64646 0.984626 0
M  V30 7558 N 706.532 -0.168513 -1.56696 0
M  V30 7559 C 707.948 0.187686 -1.58493 0
M  V30 7560 C 708.148 1.63063 -1.18375 0
M  V30 7561 O 707.204 2.36142 -0.894042 0
M  V30 7562 C 708.517 -0.0905858 -3.00564 0
M  V30 7563 C 710.065 -0.028575 -3.12987 0
M  V30 7564 C 710.54 -0.279799 -4.57145 0
M  V30 7565 N 712.031 -0.227476 -4.62641 0
M  V30 7566 C 712.766 -0.396073 -5.7203 0
M  V30 7567 N 712.262 -0.623572 -6.89988 0
M  V30 7568 N 714.055 -0.332173 -5.61118 0
M  V30 7569 H 706.206 -1.11042 -1.81062 0
M  V30 7570 H 708.469 -0.441235 -0.839056 0
M  V30 7571 H 708.175 -1.09006 -3.34381 0
M  V30 7572 H 708.049 0.619078 -3.72085 0
M  V30 7573 H 710.436 0.961471 -2.78998 0
M  V30 7574 H 710.517 -0.770905 -2.43907 0
M  V30 7575 H 710.161 -1.26704 -4.91842 0
M  V30 7576 H 710.091 0.48311 -5.24379 0
M  V30 7577 H 712.582 -0.0571723 -3.77857 0
M  V30 7578 H 712.895 -0.741745 -7.69232 0
M  V30 7579 H 711.24 -0.660153 -6.91858 0
M  V30 7580 H 714.431 -0.155051 -4.67843 0
M  V30 7581 H 714.604 -0.466994 -6.46315 0
M  V30 7582 N 708.01 1.57248 0.105221 0
M  V30 7583 C 708.96 1.9777 1.1345 0
M  V30 7584 C 709.944 0.854654 1.36325 0
M  V30 7585 O 711.136 1.11844 1.37186 0
M  V30 7586 C 708.265 2.39717 2.45745 0
M  V30 7587 C 707.351 3.58686 2.26286 0
M  V30 7588 N 707.742 4.73942 1.76671 0
M  V30 7589 C 706.04 3.64586 2.56891 0
M  V30 7590 C 706.741 5.55923 1.71245 0
M  V30 7591 N 705.717 4.98803 2.16093 0
M  V30 7592 H 709.519 2.84336 0.743664 0
M  V30 7593 H 707.033 1.59359 0.312787 0
M  V30 7594 H 709.03 2.66971 3.20206 0
M  V30 7595 H 707.69 1.54523 2.85574 0
M  V30 7596 H 708.701 4.9689 1.46016 0
M  V30 7597 H 705.378 2.90031 3.00314 0
M  V30 7598 H 706.768 6.58398 1.34022 0
M  V30 7599 N 709.488 -0.375779 1.53054 0
M  V30 7600 C 710.904 -0.716764 1.426 0
M  V30 7601 C 711.104 -1.93651 0.556931 0
M  V30 7602 O 710.16 -2.52475 0.0354461 0
M  V30 7603 C 711.473 -0.939499 2.85646 0
M  V30 7604 C 713.021 -1.04015 2.95212 0
M  V30 7605 C 713.496 -1.29543 4.39298 0
M  V30 7606 N 714.987 -1.36335 4.42682 0
M  V30 7607 C 715.722 -1.57778 5.51266 0
M  V30 7608 N 715.218 -1.76604 6.69913 0
M  V30 7609 N 717.011 -1.60065 5.38828 0
M  V30 7610 H 709.162 0.42664 2.08071 0
M  V30 7611 H 711.425 0.128758 0.939215 0
M  V30 7612 H 711.131 -0.115189 3.51511 0
M  V30 7613 H 711.005 -1.85048 3.2869 0
M  V30 7614 H 713.392 -1.85501 2.29507 0
M  V30 7615 H 713.473 -0.106785 2.55577 0
M  V30 7616 H 713.117 -0.485611 5.05573 0
M  V30 7617 H 713.047 -2.24184 4.76497 0
M  V30 7618 H 715.538 -1.23441 3.5717 0
M  V30 7619 H 715.851 -1.9251 7.48438 0
M  V30 7620 H 714.196 -1.73802 6.72917 0
M  V30 7621 H 717.387 -1.44917 4.45103 0
M  V30 7622 H 717.56 -1.76435 6.23518 0
M  V30 7623 N 710.966 -1.44241 -0.634997 0
M  V30 7624 C 712.213 -1.46821 -1.39463 0
M  V30 7625 C 712.541 -0.0993362 -1.94246 0
M  V30 7626 O 711.796 0.898325 -1.73864 0
M  V30 7627 C 712.095 -2.47279 -2.58046 0
M  V30 7628 C 711.761 -3.92703 -2.21574 0
M  V30 7629 C 710.423 -4.32306 -2.1134 0
M  V30 7630 C 712.775 -4.84271 -1.92695 0
M  V30 7631 C 710.103 -5.61407 -1.70409 0
M  V30 7632 C 712.455 -6.13755 -1.53258 0
M  V30 7633 C 711.119 -6.52316 -1.41562 0
M  V30 7634 H 710.389 -0.537256 -0.51033 0
M  V30 7635 H 713.036 -1.77431 -0.720441 0
M  V30 7636 H 711.341 -2.10138 -3.3068 0
M  V30 7637 H 713.038 -2.46523 -3.16271 0
M  V30 7638 H 709.628 -3.61369 -2.30456 0
M  V30 7639 H 713.812 -4.54432 -1.99513 0
M  V30 7640 H 709.068 -5.90105 -1.59955 0
M  V30 7641 H 713.242 -6.84168 -1.29949 0
M  V30 7642 H 710.869 -7.52255 -1.09619 0
M  V30 7643 N 712.444 0.87505 -1.31075 0
M  V30 7644 C 713.354 2.01441 -1.20244 0
M  V30 7645 C 714.37 1.73584 -0.120227 0
M  V30 7646 O 715.546 1.98559 -0.337063 0
M  V30 7647 C 712.611 3.34675 -0.905199 0
M  V30 7648 C 711.672 3.75889 -2.0738 0
M  V30 7649 C 710.905 5.02764 -1.79064 0
M  V30 7650 O 711.128 5.65795 -0.723318 0
M  V30 7651 O 710.062 5.40623 -2.64594 0
M  V30 7652 H 713.888 2.13509 -2.1598 0
M  V30 7653 H 711.473 1.00257 -1.10765 0
M  V30 7654 H 713.355 4.1458 -0.755057 0
M  V30 7655 H 712.03 3.23692 0.0221695 0
M  V30 7656 H 710.937 2.96645 -2.27931 0
M  V30 7657 H 712.27 3.91489 -2.98324 0
M  V30 7658 N 713.922 1.13953 1.08869 0
M  V30 7659 C 715.168 0.906151 1.8143 0
M  V30 7660 C 715.501 -0.566089 1.85766 0
M  V30 7661 O 714.776 -1.41915 1.33006 0
M  V30 7662 C 715.059 1.50183 3.27287 0
M  V30 7663 C 714.912 3.04359 3.31189 0
M  V30 7664 C 716.231 1.17477 4.24131 0
M  V30 7665 H 713.35 0.330624 0.658678 0
M  V30 7666 H 715.992 1.40873 1.27495 0
M  V30 7667 H 714.142 1.07442 3.73348 0
M  V30 7668 H 715.814 3.55896 2.93488 0
M  V30 7669 H 714.057 3.39053 2.70602 0
M  V30 7670 H 714.728 3.41141 4.33966 0
M  V30 7671 H 717.204 1.5442 3.86385 0
M  V30 7672 H 716.08 1.61795 5.24513 0
M  V30 7673 H 716.341 0.0893312 4.4201 0
M  V30 7674 N 715.4 -1.26948 0.933913 0
M  V30 7675 C 716.348 -2.2862 0.428463 0
M  V30 7676 C 717.342 -1.62144 -0.490464 0
M  V30 7677 O 718.548 -1.76167 -0.36948 0
M  V30 7678 H 714.923 -0.742363 0.120003 0
M  V30 7679 H 716.894 -2.68659 1.29865 0
M  V30 7680 C 715.643 -3.46423 -0.29774 0
M  V30 7681 H 714.966 -3.97792 0.400183 0
M  V30 7682 H 716.406 -4.19505 -0.615736 0
M  V30 7683 C 714.865 -3.01017 -1.51295 0
M  V30 7684 O 715.395 -3.05226 -2.61151 0
M  V30 7685 N 713.601 -2.56442 -1.36696 0
M  V30 7686 H 713.148 -2.53217 -0.473178 0
M  V30 7687 H 713.106 -2.26424 -2.18127 0
M  V30 7688 N 716.879 -0.700114 -1.41195 0
M  V30 7689 C 718.29 -0.307249 -1.84154 0
M  V30 7690 C 718.641 1.15539 -1.58572 0
M  V30 7691 O 717.766 1.88744 -1.05852 0
M  V30 7692 C 718.361 -0.550872 -3.34292 0
M  V30 7693 C 716.92 -0.211877 -3.75803 0
M  V30 7694 C 716.067 -0.830915 -2.64558 0
M  V30 7695 H 719.018 -0.900431 -1.30683 0
M  V30 7696 H 719.039 0.188954 -3.80031 0
M  V30 7697 H 718.551 -1.61548 -3.5288 0
M  V30 7698 H 716.652 0.848283 -3.62815 0
M  V30 7699 H 716.765 -0.67007 -4.74391 0
M  V30 7700 H 715.129 -0.260155 -2.53368 0
M  V30 7701 H 715.912 -1.89948 -2.85963 0
M  V30 7702 N 718.357 1.51182 -0.445186 0
M  V30 7703 C 719.603 2.02452 0.11882 0
M  V30 7704 C 719.936 1.32824 1.41673 0
M  V30 7705 O 719.211 0.445637 1.89326 0
M  V30 7706 C 719.494 3.5859 0.329475 0
M  V30 7707 C 719.347 4.38823 -0.987638 0
M  V30 7708 C 720.666 4.26241 1.09575 0
M  V30 7709 H 717.785 0.735819 0.0417092 0
M  V30 7710 H 720.427 1.80747 -0.585718 0
M  V30 7711 H 718.577 3.77214 0.9296 0
M  V30 7712 H 720.249 4.3183 -1.62235 0
M  V30 7713 H 718.492 4.03594 -1.59041 0
M  V30 7714 H 719.163 5.46257 -0.794192 0
M  V30 7715 H 721.639 4.11934 0.587328 0
M  V30 7716 H 720.515 5.35354 1.21191 0
M  V30 7717 H 720.776 3.87635 2.12584 0
M  V30 7718 N 719.835 0.176821 1.56605 0
M  V30 7719 C 721.081 -0.460868 1.9811 0
M  V30 7720 C 721.436 -1.60488 1.06119 0
M  V30 7721 O 720.729 -1.91329 0.101939 0
M  V30 7722 C 720.923 -0.986208 3.43524 0
M  V30 7723 C 720.752 0.105368 4.49577 0
M  V30 7724 C 719.522 0.556883 5.02222 0
M  V30 7725 C 721.72 0.907756 5.06226 0
M  V30 7726 N 719.702 1.62819 5.91915 0
M  V30 7727 C 721.073 1.82887 5.92412 0
M  V30 7728 C 723.128 0.952221 4.8871 0
M  V30 7729 C 721.831 2.7907 6.62957 0
M  V30 7730 C 723.857 1.90202 5.5998 0
M  V30 7731 C 723.219 2.8106 6.45898 0
M  V30 7732 H 719.318 -0.136589 0.769979 0
M  V30 7733 H 721.902 0.278307 1.92701 0
M  V30 7734 H 720.073 -1.69489 3.49468 0
M  V30 7735 H 721.805 -1.59298 3.7203 0
M  V30 7736 H 718.56 0.153575 4.73351 0
M  V30 7737 H 718.984 2.1645 6.41466 0
M  V30 7738 H 723.626 0.263794 4.21976 0
M  V30 7739 H 721.344 3.48898 7.28901 0
M  V30 7740 H 724.93 1.9426 5.48411 0
M  V30 7741 H 723.81 3.53357 7.00077 0
M  V30 7742 N 721.313 -1.57302 -0.09688 0
M  V30 7743 C 722.26 -2.01933 -1.11766 0
M  V30 7744 C 723.23 -0.895329 -1.39904 0
M  V30 7745 O 724.415 -1.16119 -1.51397 0
M  V30 7746 C 721.555 -2.44726 -2.43317 0
M  V30 7747 C 720.668 -3.70639 -2.21925 0
M  V30 7748 C 719.803 -4.02318 -3.46862 0
M  V30 7749 C 718.842 -5.21346 -3.20725 0
M  V30 7750 N 717.979 -5.48787 -4.37924 0
M  V30 7751 H 722.819 -2.88919 -0.730075 0
M  V30 7752 H 720.356 -1.42901 -0.348962 0
M  V30 7753 H 722.314 -2.6758 -3.20088 0
M  V30 7754 H 720.944 -1.60753 -2.79926 0
M  V30 7755 H 719.996 -3.55271 -1.35965 0
M  V30 7756 H 721.308 -4.57557 -1.98603 0
M  V30 7757 H 720.462 -4.25939 -4.32042 0
M  V30 7758 H 719.201 -3.13918 -3.73238 0
M  V30 7759 H 718.206 -4.97547 -2.33938 0
M  V30 7760 H 719.431 -6.11343 -2.95697 0
M  V30 7761 H 717.377 -4.63346 -4.64378 0
M  V30 7762 H 717.294 -6.30073 -4.17785 0
M  V30 7763 H 718.562 -5.76943 -5.24173 0
M  V30 7764 N 722.791 0.367657 -1.53252 0
M  V30 7765 C 723.738 1.45028 -1.79543 0
M  V30 7766 C 724.708 1.53288 -0.63969 0
M  V30 7767 O 725.893 1.69209 -0.881653 0
M  V30 7768 C 723.033 2.82 -1.98923 0
M  V30 7769 C 722.146 2.82722 -3.26638 0
M  V30 7770 C 721.281 4.11257 -3.36216 0
M  V30 7771 C 720.32 4.06113 -4.57972 0
M  V30 7772 N 719.457 5.26293 -4.64715 0
M  V30 7773 H 724.297 1.21908 -2.71923 0
M  V30 7774 H 721.834 0.591011 -1.34705 0
M  V30 7775 H 723.792 3.61568 -2.08146 0
M  V30 7776 H 722.422 3.03523 -1.09881 0
M  V30 7777 H 721.474 1.95399 -3.26379 0
M  V30 7778 H 722.786 2.74794 -4.16281 0
M  V30 7779 H 721.94 4.99239 -3.44739 0
M  V30 7780 H 720.679 4.21935 -2.44586 0
M  V30 7781 H 719.684 3.16517 -4.49552 0
M  V30 7782 H 720.909 3.97039 -5.50942 0
M  V30 7783 H 718.855 5.37561 -3.75985 0
M  V30 7784 H 718.772 5.20526 -5.4826 0
M  V30 7785 H 720.04 6.16113 -4.77519 0
M  V30 7786 N 724.269 1.44576 0.627338 0
M  V30 7787 C 725.509 1.49083 1.39834 0
M  V30 7788 C 725.873 0.121643 1.91614 0
M  V30 7789 O 727.074 0.0413885 2.68768 0
M  V30 7790 C 725.345 2.52467 2.52973 0
M  V30 7791 S 726.904 2.7605 3.41089 0
M  V30 7792 H 723.722 0.527252 0.476997 0
M  V30 7793 H 726.324 1.81525 0.725872 0
M  V30 7794 H 725.028 3.50646 2.13249 0
M  V30 7795 H 724.559 2.2161 3.25042 0
M  V30 7796 H 726.574 2.07932 4.50531 0
M  V30 7797 N 725.747 -0.868086 1.31537 0
M  V30 7798 C 726.677 -1.99131 1.21939 0
M  V30 7799 C 727.658 -1.69768 0.106166 0
M  V30 7800 O 728.843 -1.92006 0.291081 0
M  V30 7801 C 725.973 -3.34676 0.927879 0
M  V30 7802 C 724.927 -3.7835 2.00088 0
M  V30 7803 C 724.253 -5.11375 1.56203 0
M  V30 7804 C 725.553 -3.95256 3.41424 0
M  V30 7805 H 727.247 -2.07419 2.15911 0
M  V30 7806 H 724.793 -0.996569 1.03945 0
M  V30 7807 H 726.746 -4.12793 0.847327 0
M  V30 7808 H 725.47 -3.26565 -0.0475042 0
M  V30 7809 H 724.129 -3.02474 2.07135 0
M  V30 7810 H 723.777 -4.99709 0.57445 0
M  V30 7811 H 723.477 -5.41568 2.27985 0
M  V30 7812 H 725.001 -5.92001 1.49558 0
M  V30 7813 H 726.415 -4.63764 3.3704 0
M  V30 7814 H 724.812 -4.36849 4.1144 0
M  V30 7815 H 725.882 -2.98579 3.82072 0
M  V30 7816 N 727.225 -1.14528 -1.08264 0
M  V30 7817 C 728.135 -0.84728 -2.18765 0
M  V30 7818 C 729.151 0.172826 -1.7314 0
M  V30 7819 O 730.327 0.000985336 -2.014 0
M  V30 7820 C 727.392 -0.330633 -3.4512 0
M  V30 7821 C 726.453 -1.41348 -4.05363 0
M  V30 7822 C 725.686 -0.921387 -5.25686 0
M  V30 7823 O 725.909 0.236587 -5.69909 0
M  V30 7824 O 724.843 -1.70101 -5.77364 0
M  V30 7825 H 728.669 -1.7708 -2.46731 0
M  V30 7826 H 726.254 -0.923661 -1.17426 0
M  V30 7827 H 728.136 -0.0485053 -4.21372 0
M  V30 7828 H 726.811 0.565147 -3.18728 0
M  V30 7829 H 725.718 -1.74908 -3.30693 0
M  V30 7830 H 727.051 -2.28383 -4.36007 0
M  V30 7831 N 728.703 1.26451 -0.940633 0
M  V30 7832 C 729.613 2.30128 -0.455881 0
M  V30 7833 C 730.629 1.67536 0.469867 0
M  V30 7834 O 731.805 1.98344 0.349529 0
M  V30 7835 C 728.87 3.45634 0.271648 0
M  V30 7836 C 727.931 4.23709 -0.690594 0
M  V30 7837 C 727.164 5.337 0.00231047 0
M  V30 7838 O 727.387 5.57215 1.21935 0
M  V30 7839 O 726.321 5.98091 -0.676111 0
M  V30 7840 H 730.147 2.73655 -1.31707 0
M  V30 7841 H 727.732 1.3164 -0.706497 0
M  V30 7842 H 729.614 4.15853 0.681486 0
M  V30 7843 H 728.289 3.04138 1.10824 0
M  V30 7844 H 727.196 3.55974 -1.15037 0
M  V30 7845 H 728.529 4.68953 -1.49478 0
M  V30 7846 N 730.181 0.707592 1.40822 0
M  V30 7847 C 731.113 0.0105968 2.29198 0
M  V30 7848 C 732.126 -0.732035 1.45414 0
M  V30 7849 O 733.315 -0.580741 1.68789 0
M  V30 7850 C 730.415 -1.00921 3.23525 0
M  V30 7851 C 729.588 -0.333747 4.36125 0
M  V30 7852 C 728.647 -1.25783 5.10945 0
M  V30 7853 O 727.673 -0.745646 5.64295 0
M  V30 7854 N 728.875 -2.58947 5.19545 0
M  V30 7855 H 731.64 0.76938 2.89656 0
M  V30 7856 H 729.201 0.554579 1.52105 0
M  V30 7857 H 731.193 -1.6294 3.70449 0
M  V30 7858 H 729.763 -1.66942 2.6429 0
M  V30 7859 H 728.983 0.466518 3.9143 0
M  V30 7860 H 730.271 0.135444 5.0862 0
M  V30 7861 H 729.669 -3.03065 4.7767 0
M  V30 7862 H 728.226 -3.16131 5.70004 0
M  V30 7863 N 731.66 -1.50943 0.453197 0
M  V30 7864 C 732.908 -2.01813 -0.107709 0
M  V30 7865 C 733.229 -1.33841 -1.41816 0
M  V30 7866 O 732.499 -0.477973 -1.8998 0
M  V30 7867 H 731.079 -0.745773 -0.0427948 0
M  V30 7868 H 733.741 -1.8545 0.599531 0
M  V30 7869 H 732.837 -3.10911 -0.27218 0
M  V30 7870 N 733.138 -0.185124 -1.56509 0
M  V30 7871 C 734.068 0.735098 -2.21627 0
M  V30 7872 C 735.049 1.2288 -1.1762 0
M  V30 7873 O 736.234 1.27945 -1.46095 0
M  V30 7874 C 733.364 1.95889 -2.86783 0
M  V30 7875 C 732.318 1.6005 -3.96948 0
M  V30 7876 C 731.644 2.90009 -4.4922 0
M  V30 7877 C 732.944 0.818008 -5.15855 0
M  V30 7878 H 734.638 0.192274 -2.98782 0
M  V30 7879 H 732.184 0.0910393 -1.43712 0
M  V30 7880 H 734.137 2.60779 -3.31017 0
M  V30 7881 H 732.861 2.52608 -2.07018 0
M  V30 7882 H 731.52 0.975237 -3.5339 0
M  V30 7883 H 731.168 3.44797 -3.6623 0
M  V30 7884 H 730.868 2.66778 -5.23549 0
M  V30 7885 H 732.392 3.55904 -4.9615 0
M  V30 7886 H 733.806 1.36979 -5.56695 0
M  V30 7887 H 732.203 0.684207 -5.96187 0
M  V30 7888 H 733.273 -0.182939 -4.84555 0
M  V30 7889 N 734.616 1.57351 0.0885366 0
M  V30 7890 C 735.563 2.02523 1.10693 0
M  V30 7891 C 736.533 0.902736 1.39427 0
M  V30 7892 O 737.718 1.16921 1.50779 0
M  V30 7893 C 734.858 2.46013 2.42016 0
M  V30 7894 C 733.971 3.7181 2.19957 0
M  V30 7895 C 733.106 4.04152 3.44724 0
M  V30 7896 C 732.145 5.2304 3.17956 0
M  V30 7897 N 731.282 5.51102 4.35007 0
M  V30 7898 H 736.122 2.89302 0.714742 0
M  V30 7899 H 733.659 1.43084 0.341378 0
M  V30 7900 H 735.617 2.69274 3.18665 0
M  V30 7901 H 734.247 1.62235 2.79069 0
M  V30 7902 H 733.299 3.55987 1.34079 0
M  V30 7903 H 734.611 4.58604 1.96173 0
M  V30 7904 H 733.765 4.28225 4.29777 0
M  V30 7905 H 732.504 3.15893 3.71568 0
M  V30 7906 H 731.509 4.98781 2.31296 0
M  V30 7907 H 732.734 6.12902 2.92451 0
M  V30 7908 H 730.68 4.65802 4.61914 0
M  V30 7909 H 730.597 6.3228 4.14437 0
M  V30 7910 H 731.865 5.79714 5.21106 0
M  V30 7911 N 736.094 -0.359525 1.53444 0
M  V30 7912 C 737.341 -1.10152 1.6992 0
M  V30 7913 C 737.669 -1.89125 0.4541 0
M  V30 7914 O 736.924 -1.87396 -0.564023 0
M  V30 7915 C 737.223 -2.08287 2.90433 0
M  V30 7916 C 736.889 -1.45749 4.26694 0
M  V30 7917 C 735.551 -1.28421 4.63747 0
M  V30 7918 C 737.903 -1.00557 5.11408 0
M  V30 7919 C 735.231 -0.644951 5.83144 0
M  V30 7920 C 737.583 -0.380288 6.31456 0
M  V30 7921 C 736.247 -0.194557 6.67216 0
M  V30 7922 H 735.517 -0.403076 0.621781 0
M  V30 7923 H 738.164 -0.382612 1.87639 0
M  V30 7924 H 736.469 -2.86503 2.67251 0
M  V30 7925 H 738.166 -2.65662 3.00374 0
M  V30 7926 H 734.756 -1.6023 3.97523 0
M  V30 7927 H 738.94 -1.12735 4.83326 0
M  V30 7928 H 734.196 -0.48952 6.09437 0
M  V30 7929 H 738.37 -0.0219455 6.96397 0
M  V30 7930 H 735.997 0.30285 7.59597 0
M  V30 7931 N 737.572 -1.44907 -0.619662 0
M  V30 7932 C 738.818 -1.48512 -1.38102 0
M  V30 7933 C 739.151 -0.121686 -1.93818 0
M  V30 7934 O 738.426 0.862256 -1.74343 0
M  V30 7935 C 738.709 -2.55469 -2.53787 0
M  V30 7936 C 738.562 -4.01212 -2.03345 0
M  V30 7937 C 739.881 -2.58821 -3.55949 0
M  V30 7938 H 737 -0.540712 -0.500799 0
M  V30 7939 H 739.642 -1.7665 -0.69962 0
M  V30 7940 H 737.792 -2.31606 -3.11915 0
M  V30 7941 H 739.464 -4.36245 -1.49959 0
M  V30 7942 H 737.707 -4.12443 -1.34438 0
M  V30 7943 H 738.378 -4.71717 -2.86683 0
M  V30 7944 H 740.854 -2.80172 -3.07641 0
M  V30 7945 H 739.73 -3.35542 -4.34399 0
M  V30 7946 H 739.991 -1.63451 -4.10775 0
M  V30 7947 N 739.05 0.861098 -1.31996 0
M  V30 7948 C 740.298 1.61162 -1.21947 0
M  V30 7949 C 740.619 1.93751 0.220351 0
M  V30 7950 O 739.889 1.59069 1.14341 0
M  V30 7951 H 738.469 0.597485 -0.448353 0
M  V30 7952 H 741.131 1.03039 -1.65436 0
M  V30 7953 H 740.227 2.55138 -1.79752 0
M  V30 7954 N 740.528 1.15101 1.07655 0
M  V30 7955 C 741.46 0.802722 2.14684 0
M  V30 7956 C 742.473 -0.183874 1.61758 0
M  V30 7957 O 743.662 0.0389349 1.78458 0
M  V30 7958 C 740.762 0.172135 3.38463 0
M  V30 7959 C 739.935 1.19538 4.20749 0
M  V30 7960 C 738.994 0.58714 5.22914 0
M  V30 7961 O 738.02 1.25224 5.55255 0
M  V30 7962 N 739.222 -0.632566 5.77043 0
M  V30 7963 H 741.987 1.72379 2.45164 0
M  V30 7964 H 739.548 1.04647 1.23534 0
M  V30 7965 H 741.54 -0.247465 4.03943 0
M  V30 7966 H 740.11 -0.652214 3.0572 0
M  V30 7967 H 739.33 1.79165 3.51132 0
M  V30 7968 H 740.618 1.88636 4.7254 0
M  V30 7969 H 740.016 -1.19135 5.53013 0
M  V30 7970 H 738.573 -0.994566 6.44167 0
M  V30 7971 N 742.006 -1.2595 0.947325 0
M  V30 7972 C 743.283 -1.88676 0.515824 0
M  V30 7973 C 743.663 -1.85547 -1.00675 0
M  V30 7974 O 743.011 -1.31399 -1.8694 0
M  V30 7975 C 743.221 -3.31734 1.08415 0
M  V30 7976 C 744.569 -4.08545 1.15654 0
M  V30 7977 O 745.593 -3.40826 1.03517 0
M  V30 7978 O 744.452 -5.29663 1.34608 0
M  V30 7979 H 741.546 -0.809537 0.169055 0
M  V30 7980 H 744.092 -1.34075 1.04029 0
M  V30 7981 H 742.864 -3.28404 2.1276 0
M  V30 7982 H 742.487 -3.93882 0.542499 0
M  V30 7983 N 743.484 -0.715051 -1.40445 0
M  V30 7984 C 744.73 -0.254705 -2.01194 0
M  V30 7985 C 745.063 1.14894 -1.56567 0
M  V30 7986 O 744.338 1.77933 -0.785491 0
M  V30 7987 C 744.621 -0.334148 -3.58546 0
M  V30 7988 C 744.474 -1.77613 -4.13248 0
M  V30 7989 C 745.793 0.294968 -4.3911 0
M  V30 7990 H 742.912 -0.094025 -0.730978 0
M  V30 7991 H 745.554 -0.907449 -1.66929 0
M  V30 7992 H 743.704 0.221609 -3.87867 0
M  V30 7993 H 745.376 -2.38723 -3.94727 0
M  V30 7994 H 743.619 -2.30402 -3.67556 0
M  V30 7995 H 744.29 -1.78311 -5.22407 0
M  V30 7996 H 746.766 -0.178563 -4.15717 0
M  V30 7997 H 745.642 0.208934 -5.48502 0
M  V30 7998 H 745.903 1.37841 -4.20062 0
M  V30 7999 N 744.962 1.50701 -0.461195 0
M  V30 8000 C 745.872 2.32069 0.343661 0
M  V30 8001 C 746.888 1.42016 1.00535 0
M  V30 8002 O 748.064 1.75077 0.995498 0
M  V30 8003 C 745.129 3.16424 1.41692 0
M  V30 8004 C 744.19 4.22286 0.772869 0
M  V30 8005 C 743.423 5.02609 1.79499 0
M  V30 8006 O 743.646 4.83874 3.0203 0
M  V30 8007 O 742.58 5.86047 1.3723 0
M  V30 8008 H 746.406 3.01996 -0.321268 0
M  V30 8009 H 743.991 1.47723 -0.223235 0
M  V30 8010 H 745.873 3.68795 2.03883 0
M  V30 8011 H 744.548 2.49236 2.0655 0
M  V30 8012 H 743.455 3.73931 0.112277 0
M  V30 8013 H 744.788 4.91915 0.167399 0
M  V30 8014 N 746.441 0.193421 1.56409 0
M  V30 8015 C 747.689 -0.444908 1.97142 0
M  V30 8016 C 748.01 -1.62268 1.08139 0
M  V30 8017 O 747.28 -1.95307 0.152326 0
M  V30 8018 H 745.86 -0.16736 0.728011 0
M  V30 8019 H 748.522 0.279763 1.92882 0
M  V30 8020 H 747.618 -0.790159 3.01932 0
M  V30 8021 N 747.919 -1.57396 -0.0801906 0
M  V30 8022 C 748.829 -2.06451 -1.11423 0
M  V30 8023 C 749.845 -0.992352 -1.42928 0
M  V30 8024 O 751.021 -1.30651 -1.53272 0
M  V30 8025 C 748.086 -2.49164 -2.41077 0
M  V30 8026 C 747.147 -3.70641 -2.16619 0
M  V30 8027 C 746.38 -4.11307 -3.40092 0
M  V30 8028 O 746.603 -3.51922 -4.48895 0
M  V30 8029 O 745.537 -5.04157 -3.288 0
M  V30 8030 H 749.363 -2.94857 -0.727519 0
M  V30 8031 H 746.948 -1.46484 -0.293743 0
M  V30 8032 H 748.83 -2.77196 -3.17396 0
M  V30 8033 H 747.505 -1.6389 -2.79145 0
M  V30 8034 H 746.412 -3.47703 -1.38033 0
M  V30 8035 H 747.745 -4.5674 -1.83437 0
M  V30 8036 N 749.397 0.351382 -1.53633 0
M  V30 8037 C 750.813 0.693987 -1.43722 0
M  V30 8038 C 751.013 1.9274 -0.587669 0
M  V30 8039 O 750.069 2.52387 -0.0756082 0
M  V30 8040 C 751.382 0.893937 -2.87105 0
M  V30 8041 C 752.93 0.993051 -2.96829 0
M  V30 8042 C 753.405 1.22537 -4.41303 0
M  V30 8043 N 754.896 1.29275 -4.44795 0
M  V30 8044 C 755.631 1.48988 -5.53706 0
M  V30 8045 N 755.127 1.65924 -6.72637 0
M  V30 8046 N 756.92 1.51472 -5.41306 0
M  V30 8047 H 749.071 -0.459688 -2.07366 0
M  V30 8048 H 751.334 -0.143684 -0.937048 0
M  V30 8049 H 751.04 0.0592517 -3.5165 0
M  V30 8050 H 750.914 1.79795 -3.31592 0
M  V30 8051 H 753.301 1.81827 -2.32429 0
M  V30 8052 H 753.382 0.0661119 -2.55715 0
M  V30 8053 H 753.026 0.405117 -5.06282 0
M  V30 8054 H 752.956 2.16575 -4.80003 0
M  V30 8055 H 755.447 1.17743 -3.59089 0
M  V30 8056 H 755.76 1.80578 -7.51406 0
M  V30 8057 H 754.105 1.63075 -6.75597 0
M  V30 8058 H 757.296 1.37818 -4.47352 0
M  V30 8059 H 757.469 1.66493 -6.26246 0
M  V30 8060 N 750.875 1.45233 0.611969 0
M  V30 8061 C 751.808 1.48056 1.73651 0
M  V30 8062 C 752.786 0.337373 1.59061 0
M  V30 8063 O 753.97 0.537222 1.80683 0
M  V30 8064 C 751.097 1.33144 3.11433 0
M  V30 8065 C 750.143 2.51272 3.44623 0
M  V30 8066 S 750.976 4.13754 3.39953 0
M  V30 8067 C 752.132 4.013 4.80322 0
M  V30 8068 H 752.365 2.43205 1.70993 0
M  V30 8069 H 749.898 1.32763 0.788246 0
M  V30 8070 H 751.856 1.25228 3.90932 0
M  V30 8071 H 750.517 0.394734 3.1161 0
M  V30 8072 H 749.71 2.36753 4.44932 0
M  V30 8073 H 749.312 2.56027 2.72629 0
M  V30 8074 H 751.604 3.66174 5.7002 0
M  V30 8075 H 752.547 5.01506 4.99897 0
M  V30 8076 H 752.955 3.3303 4.55797 0
M  V30 8077 N 752.353 -0.854086 1.3245 0
M  V30 8078 C 753.263 -1.99503 1.23434 0
M  V30 8079 C 754.279 -1.73371 0.147828 0
M  V30 8080 O 755.455 -1.97998 0.368609 0
M  V30 8081 C 752.52 -3.33192 0.958328 0
M  V30 8082 C 751.581 -3.72542 2.13333 0
M  V30 8083 C 750.814 -4.99852 1.8704 0
M  V30 8084 O 751.037 -5.64573 0.813239 0
M  V30 8085 O 749.971 -5.36345 2.73161 0
M  V30 8086 H 753.797 -2.10046 2.1935 0
M  V30 8087 H 751.382 -0.984823 1.12346 0
M  V30 8088 H 753.264 -4.13327 0.820918 0
M  V30 8089 H 751.939 -3.23687 0.0293299 0
M  V30 8090 H 750.846 -2.92981 2.32622 0
M  V30 8091 H 752.179 -3.86694 3.04514 0
M  V30 8092 N 753.831 -1.1567 -1.07043 0
M  V30 8093 C 755.08 -0.928039 -1.79082 0
M  V30 8094 C 755.393 0.545968 -1.87826 0
M  V30 8095 O 756.599 0.892308 -2.56418 0
M  V30 8096 C 755.055 -1.61103 -3.21829 0
M  V30 8097 C 754.663 -3.12228 -3.21275 0
M  V30 8098 C 756.407 -1.46404 -3.98455 0
M  V30 8099 C 754.314 -3.733 -4.58695 0
M  V30 8100 H 753.244 -0.34357 -0.671175 0
M  V30 8101 H 755.895 -1.38718 -1.20123 0
M  V30 8102 H 754.277 -1.07958 -3.81 0
M  V30 8103 H 755.451 -3.72155 -2.71731 0
M  V30 8104 H 753.766 -3.26725 -2.58147 0
M  V30 8105 H 756.363 -1.8942 -5.00024 0
M  V30 8106 H 756.706 -0.41195 -4.14257 0
M  V30 8107 H 757.239 -1.96663 -3.45787 0
M  V30 8108 H 753.978 -4.78423 -4.48098 0
M  V30 8109 H 753.498 -3.18157 -5.08465 0
M  V30 8110 H 755.177 -3.7441 -5.27661 0
M  V30 8111 N 755.309 1.25446 -0.953992 0
M  V30 8112 C 756.555 1.9343 -0.60933 0
M  V30 8113 C 756.888 1.74542 0.851388 0
M  V30 8114 O 756.163 1.09014 1.61078 0
M  V30 8115 C 756.446 3.46844 -0.968041 0
M  V30 8116 C 756.299 3.74961 -2.48444 0
M  V30 8117 C 757.618 4.37334 -0.492641 0
M  V30 8118 H 754.737 0.702502 -0.222844 0
M  V30 8119 H 757.379 1.48076 -1.19053 0
M  V30 8120 H 755.529 3.85604 -0.473465 0
M  V30 8121 H 757.201 3.45841 -3.05273 0
M  V30 8122 H 755.444 3.20589 -2.92241 0
M  V30 8123 H 756.115 4.82246 -2.68594 0
M  V30 8124 H 758.591 4.05873 -0.916878 0
M  V30 8125 H 757.467 5.43439 -0.772331 0
M  V30 8126 H 757.728 4.37908 0.607403 0
M  V30 8127 N 756.787 0.722489 1.40064 0
M  V30 8128 C 757.697 0.0755984 2.34478 0
M  V30 8129 C 758.713 -0.736046 1.57665 0
M  V30 8130 O 759.889 -0.667407 1.9002 0
M  V30 8131 C 756.954 -0.830075 3.36616 0
M  V30 8132 C 756.015 -0.00759884 4.29299 0
M  V30 8133 C 755.248 -0.870139 5.26559 0
M  V30 8134 O 755.471 -2.10921 5.2997 0
M  V30 8135 O 754.405 -0.305454 6.01124 0
M  V30 8136 H 758.231 0.854545 2.9143 0
M  V30 8137 H 755.816 0.483032 1.41376 0
M  V30 8138 H 757.698 -1.34864 3.99236 0
M  V30 8139 H 756.373 -1.58805 2.82069 0
M  V30 8140 H 755.28 0.556199 3.69942 0
M  V30 8141 H 756.613 0.712312 4.87018 0
M  V30 8142 N 758.265 -1.50454 0.469181 0
M  V30 8143 C 759.195 -2.31353 -0.31592 0
M  V30 8144 C 760.176 -1.38172 -0.992094 0
M  V30 8145 O 761.361 -1.67093 -0.989633 0
M  V30 8146 C 758.491 -3.1786 -1.39937 0
M  V30 8147 C 757.445 -4.19578 -0.844909 0
M  V30 8148 C 756.771 -4.9481 -2.0265 0
M  V30 8149 C 758.071 -5.22106 0.142499 0
M  V30 8150 H 759.765 -2.97237 0.359269 0
M  V30 8151 H 757.311 -1.42942 0.174224 0
M  V30 8152 H 759.264 -3.7325 -1.95607 0
M  V30 8153 H 757.988 -2.49858 -2.1033 0
M  V30 8154 H 756.647 -3.65285 -0.310189 0
M  V30 8155 H 756.295 -4.23282 -2.71737 0
M  V30 8156 H 755.995 -5.63613 -1.66174 0
M  V30 8157 H 757.519 -5.53035 -2.58815 0
M  V30 8158 H 758.933 -5.72378 -0.324966 0
M  V30 8159 H 757.33 -5.98618 0.421441 0
M  V30 8160 H 758.4 -4.7297 1.06901 0
M  V30 8161 N 759.743 -0.201713 -1.56304 0
M  V30 8162 C 760.653 0.728296 -2.23009 0
M  V30 8163 C 761.669 1.22945 -1.23128 0
M  V30 8164 O 762.845 1.27523 -1.55884 0
M  V30 8165 C 759.91 1.92792 -2.88153 0
M  V30 8166 C 758.971 1.47068 -4.03323 0
M  V30 8167 C 758.204 2.61312 -4.65351 0
M  V30 8168 O 758.427 3.7896 -4.26317 0
M  V30 8169 O 757.361 2.33646 -5.54701 0
M  V30 8170 H 761.187 0.190166 -3.03104 0
M  V30 8171 H 758.772 0.0278725 -1.49374 0
M  V30 8172 H 760.654 2.6289 -3.29343 0
M  V30 8173 H 759.329 2.45452 -2.11033 0
M  V30 8174 H 758.236 0.738299 -3.66742 0
M  V30 8175 H 759.569 0.990666 -4.82127 0
M  V30 8176 N 761.222 1.57436 0.0718424 0
M  V30 8177 C 762.499 1.78312 0.804006 0
M  V30 8178 C 762.879 0.789273 1.9579 0
M  V30 8179 O 762.227 -0.177605 2.27809 0
M  V30 8180 C 762.437 3.24798 1.277 0
M  V30 8181 C 763.785 3.88627 1.71039 0
M  V30 8182 O 764.809 3.28689 1.37266 0
M  V30 8183 O 763.668 4.94073 2.33567 0
M  V30 8184 H 760.762 0.73178 0.385262 0
M  V30 8185 H 763.308 1.69621 0.0519219 0
M  V30 8186 H 762.08 3.88688 0.45134 0
M  V30 8187 H 761.703 3.38213 2.0904 0
M  V30 8188 N 762.7 -0.34323 1.53817 0
M  V30 8189 C 763.65 -1.42217 1.78208 0
M  V30 8190 C 764.634 -1.4774 0.637304 0
M  V30 8191 O 765.826 -1.52605 0.896705 0
M  V30 8192 C 762.955 -2.79354 1.9954 0
M  V30 8193 C 762.041 -2.78222 3.20084 0
M  V30 8194 N 762.432 -2.46719 4.41547 0
M  V30 8195 C 760.73 -3.09368 3.21259 0
M  V30 8196 C 761.431 -2.53828 5.23399 0
M  V30 8197 N 760.407 -2.89464 4.60121 0
M  V30 8198 H 764.209 -1.16759 2.69712 0
M  V30 8199 H 761.723 -0.551592 1.52746 0
M  V30 8200 H 763.72 -3.57095 2.15148 0
M  V30 8201 H 762.38 -3.05759 1.09278 0
M  V30 8202 H 763.391 -2.19912 4.68891 0
M  V30 8203 H 760.068 -3.40942 2.40966 0
M  V30 8204 H 761.458 -2.32629 6.30344 0
M  V30 8205 N 764.178 -1.45556 -0.604258 0
M  V30 8206 C 765.589 -1.44171 -1.18624 0
M  V30 8207 C 765.94 -0.171081 -1.95453 0
M  V30 8208 O 765.065 0.727156 -2.03817 0
M  V30 8209 C 765.66 -2.61193 -2.15786 0
M  V30 8210 C 764.219 -2.62918 -2.69353 0
M  V30 8211 C 763.366 -2.36479 -1.4482 0
M  V30 8212 H 766.317 -1.53747 -0.393381 0
M  V30 8213 H 766.338 -2.35481 -2.98879 0
M  V30 8214 H 765.85 -3.53656 -1.59841 0
M  V30 8215 H 763.951 -1.7447 -3.29228 0
M  V30 8216 H 764.064 -3.6224 -3.13559 0
M  V30 8217 H 762.428 -1.86103 -1.73891 0
M  V30 8218 H 763.211 -3.31091 -0.907376 0
M  V30 8219 N 765.656 0.84705 -1.32902 0
M  V30 8220 C 766.903 1.60176 -1.23894 0
M  V30 8221 C 767.231 1.93496 0.197341 0
M  V30 8222 O 766.486 1.58173 1.15238 0
M  V30 8223 C 766.785 2.92663 -2.05142 0
M  V30 8224 C 766.451 2.7874 -3.54422 0
M  V30 8225 C 765.113 2.7465 -3.95121 0
M  V30 8226 C 767.465 2.64128 -4.49317 0
M  V30 8227 C 764.793 2.53837 -5.28946 0
M  V30 8228 C 767.145 2.44849 -5.83294 0
M  V30 8229 C 765.809 2.39156 -6.23186 0
M  V30 8230 H 765.079 0.586127 -0.453361 0
M  V30 8231 H 767.726 0.981994 -1.64405 0
M  V30 8232 H 766.031 3.588 -1.57383 0
M  V30 8233 H 767.728 3.50095 -1.95537 0
M  V30 8234 H 764.318 2.82751 -3.22102 0
M  V30 8235 H 768.502 2.66327 -4.18788 0
M  V30 8236 H 763.758 2.4787 -5.58901 0
M  V30 8237 H 767.932 2.32524 -6.56434 0
M  V30 8238 H 765.559 2.22789 -7.26821 0
M  V30 8239 N 767.134 1.16236 1.06428 0
M  V30 8240 C 768.381 0.943034 1.79201 0
M  V30 8241 C 768.709 -0.529243 1.87161 0
M  V30 8242 O 767.964 -1.40874 1.35842 0
M  V30 8243 C 768.263 1.51396 3.2375 0
M  V30 8244 C 767.929 3.00833 3.35873 0
M  V30 8245 C 766.591 3.41626 3.38888 0
M  V30 8246 C 768.943 3.96825 3.37904 0
M  V30 8247 C 766.271 4.77033 3.4155 0
M  V30 8248 C 768.623 5.32116 3.42104 0
M  V30 8249 C 767.287 5.72392 3.43401 0
M  V30 8250 H 766.557 0.34508 0.655744 0
M  V30 8251 H 769.204 1.44929 1.25171 0
M  V30 8252 H 767.509 0.929114 3.80624 0
M  V30 8253 H 769.206 1.31996 3.78653 0
M  V30 8254 H 765.796 2.68306 3.3423 0
M  V30 8255 H 769.98 3.66376 3.34787 0
M  V30 8256 H 765.236 5.07569 3.40858 0
M  V30 8257 H 769.41 6.06286 3.42623 0
M  V30 8258 H 767.037 6.77296 3.45216 0
M  V30 8259 N 768.612 -1.24939 0.960631 0
M  V30 8260 C 769.858 -1.93104 0.61958 0
M  V30 8261 C 770.191 -1.74991 -0.84212 0
M  V30 8262 O 769.466 -1.09867 -1.60498 0
M  V30 8263 C 769.749 -3.46326 0.986422 0
M  V30 8264 C 769.602 -3.73638 2.50429 0
M  V30 8265 C 770.921 -4.37067 0.515827 0
M  V30 8266 H 768.04 -0.701311 0.226566 0
M  V30 8267 H 770.682 -1.47442 1.19836 0
M  V30 8268 H 768.832 -3.85348 0.493907 0
M  V30 8269 H 770.504 -3.44217 3.07103 0
M  V30 8270 H 768.747 -3.19035 2.93937 0
M  V30 8271 H 769.418 -4.80815 2.71147 0
M  V30 8272 H 771.894 -4.05381 0.938389 0
M  V30 8273 H 770.77 -5.43022 0.80114 0
M  V30 8274 H 771.031 -4.38224 -0.584171 0
M  V30 8275 N 770.09 -0.729906 -1.39679 0
M  V30 8276 C 771.338 -0.275077 -2.00219 0
M  V30 8277 C 771.659 1.1401 -1.58199 0
M  V30 8278 O 770.929 1.77546 -0.827904 0
M  V30 8279 H 769.509 -0.0987127 -0.740449 0
M  V30 8280 H 772.171 -0.93873 -1.70804 0
M  V30 8281 H 771.267 -0.319446 -3.10461 0
M  V30 8282 N 771.568 1.50203 -0.477153 0
M  V30 8283 C 772.814 2.02658 0.0758507 0
M  V30 8284 C 773.147 1.358 1.38824 0
M  V30 8285 O 772.422 0.485696 1.88338 0
M  V30 8286 C 772.705 3.59208 0.253339 0
M  V30 8287 C 772.558 4.36629 -1.0805 0
M  V30 8288 C 773.877 4.28469 1.00509 0
M  V30 8289 H 770.996 0.736538 0.0260921 0
M  V30 8290 H 773.638 1.79464 -0.623925 0
M  V30 8291 H 771.788 3.79101 0.849378 0
M  V30 8292 H 773.46 4.28292 -1.71358 0
M  V30 8293 H 771.703 4.0013 -1.67566 0
M  V30 8294 H 772.374 5.44449 -0.909883 0
M  V30 8295 H 774.85 4.13087 0.499818 0
M  V30 8296 H 773.726 5.37804 1.09808 0
M  V30 8297 H 773.987 3.92057 2.04314 0
M  V30 8298 N 773.046 0.209999 1.56195 0
M  V30 8299 C 773.978 -0.736967 2.17029 0
M  V30 8300 C 774.991 -1.16599 1.13616 0
M  V30 8301 O 776.18 -1.09914 1.40646 0
M  V30 8302 C 773.28 -2.00852 2.72969 0
M  V30 8303 C 772.453 -1.73691 4.01435 0
M  V30 8304 C 771.512 -2.85439 4.42053 0
M  V30 8305 O 770.538 -2.54405 5.09183 0
M  V30 8306 N 771.74 -4.14135 4.06783 0
M  V30 8307 H 774.505 -0.216656 2.98916 0
M  V30 8308 H 772.066 0.0285672 1.61875 0
M  V30 8309 H 774.058 -2.74778 2.97118 0
M  V30 8310 H 772.628 -2.43963 1.95451 0
M  V30 8311 H 771.848 -0.834676 3.85262 0
M  V30 8312 H 773.136 -1.52961 4.85263 0
M  V30 8313 H 772.534 -4.42196 3.52816 0
M  V30 8314 H 771.091 -4.84642 4.35851 0
M  V30 8315 N 774.524 -1.57472 -0.0634922 0
M  V30 8316 C 775.754 -1.91608 -0.772645 0
M  V30 8317 C 776.162 -0.805019 -1.71219 0
M  V30 8318 O 775.505 0.229941 -1.82255 0
M  V30 8319 C 775.567 -3.21281 -1.61304 0
M  V30 8320 C 775.231 -4.49177 -0.841973 0
M  V30 8321 C 776.228 -5.19661 -0.157494 0
M  V30 8322 C 773.913 -4.9578 -0.80669 0
M  V30 8323 C 775.907 -6.35006 0.551948 0
M  V30 8324 C 773.594 -6.11028 -0.0934812 0
M  V30 8325 C 774.592 -6.80493 0.58463 0
M  V30 8326 O 774.28 -7.93542 1.28633 0
M  V30 8327 H 774.012 -0.637685 -0.224352 0
M  V30 8328 H 776.566 -2.05369 -0.0355279 0
M  V30 8329 H 774.796 -3.03752 -2.39315 0
M  V30 8330 H 776.485 -3.41003 -2.20162 0
M  V30 8331 H 777.251 -4.84681 -0.176006 0
M  V30 8332 H 773.13 -4.41579 -1.32397 0
M  V30 8333 H 776.674 -6.89161 1.0818 0
M  V30 8334 H 772.571 -6.45459 -0.0729258 0
M  V30 8335 H 773.339 -8.09708 1.19646 0
M  V30 8336 N 776.003 0.335068 -1.53997 0
M  V30 8337 C 776.953 1.4127 -1.7896 0
M  V30 8338 C 777.937 1.474 -0.64513 0
M  V30 8339 O 779.129 1.52127 -0.904785 0
M  V30 8340 C 776.258 2.78292 -2.01018 0
M  V30 8341 C 775.344 2.7652 -3.21555 0
M  V30 8342 N 775.735 2.44374 -4.42849 0
M  V30 8343 C 774.033 3.0766 -3.22895 0
M  V30 8344 C 774.734 2.51049 -5.24737 0
M  V30 8345 N 773.71 2.8702 -4.6165 0
M  V30 8346 H 777.512 1.15327 -2.70327 0
M  V30 8347 H 775.026 0.543483 -1.53036 0
M  V30 8348 H 777.023 3.55949 -2.17039 0
M  V30 8349 H 775.683 3.05175 -1.10898 0
M  V30 8350 H 776.694 2.17422 -4.70051 0
M  V30 8351 H 773.371 3.3966 -2.42771 0
M  V30 8352 H 774.761 2.29283 -6.31569 0
M  V30 8353 N 777.481 1.45874 0.596531 0
M  V30 8354 C 778.892 1.44798 1.17857 0
M  V30 8355 C 779.243 0.181443 1.95359 0
M  V30 8356 O 778.368 -0.716336 2.042 0
M  V30 8357 C 778.963 2.62333 2.14398 0
M  V30 8358 C 777.522 2.64342 2.67955 0
M  V30 8359 C 776.669 2.37244 1.43564 0
M  V30 8360 H 779.62 1.53954 0.385222 0
M  V30 8361 H 779.641 2.37063 2.97626 0
M  V30 8362 H 779.153 3.54499 1.57963 0
M  V30 8363 H 777.254 1.76213 3.28298 0
M  V30 8364 H 777.367 3.63897 3.11634 0
M  V30 8365 H 775.731 1.87022 1.72901 0
M  V30 8366 H 776.514 3.31568 0.889805 0
M  V30 8367 N 778.959 -0.83999 1.33349 0
M  V30 8368 C 779.869 -1.98182 1.25543 0
M  V30 8369 C 780.885 -1.73204 0.166208 0
M  V30 8370 O 782.061 -1.97596 0.389589 0
M  V30 8371 C 779.126 -3.32157 0.993614 0
M  V30 8372 C 778.187 -3.70258 2.17273 0
M  V30 8373 C 777.42 -4.9784 1.92331 0
M  V30 8374 O 777.643 -5.63679 0.873074 0
M  V30 8375 O 776.577 -5.33418 2.78835 0
M  V30 8376 H 780.403 -2.07708 2.21565 0
M  V30 8377 H 777.988 -0.972852 1.13384 0
M  V30 8378 H 779.87 -4.12433 0.864711 0
M  V30 8379 H 778.545 -3.23637 0.0636596 0
M  V30 8380 H 777.452 -2.90497 2.35716 0
M  V30 8381 H 778.785 -3.83442 3.08598 0
M  V30 8382 N 780.437 -1.16799 -1.0581 0
M  V30 8383 C 781.684 -0.952524 -1.78699 0
M  V30 8384 C 782.012 0.51931 -1.87439 0
M  V30 8385 O 781.267 1.40151 -1.36587 0
M  V30 8386 C 781.566 -1.53111 -3.22942 0
M  V30 8387 C 781.232 -3.0261 -3.34273 0
M  V30 8388 C 779.894 -3.43418 -3.37072 0
M  V30 8389 C 782.246 -3.98611 -3.35795 0
M  V30 8390 C 779.574 -4.78838 -3.39015 0
M  V30 8391 C 781.926 -5.33923 -3.39277 0
M  V30 8392 C 780.59 -5.74205 -3.40361 0
M  V30 8393 H 779.86 -0.348553 -0.653905 0
M  V30 8394 H 782.507 -1.45591 -1.244 0
M  V30 8395 H 780.812 -0.949286 -3.80126 0
M  V30 8396 H 782.509 -1.34002 -3.77948 0
M  V30 8397 H 779.099 -2.70075 -3.32803 0
M  V30 8398 H 783.283 -3.68146 -3.32839 0
M  V30 8399 H 778.539 -5.09369 -3.38161 0
M  V30 8400 H 782.713 -6.08094 -3.39403 0
M  V30 8401 H 780.34 -6.79117 -3.4162 0
M  V30 8402 N 781.915 1.24427 -0.967243 0
M  V30 8403 C 782.845 2.2773 -0.515899 0
M  V30 8404 C 783.826 1.64197 0.444227 0
M  V30 8405 O 785.011 1.91193 0.340451 0
M  V30 8406 C 782.141 3.46751 0.195149 0
M  V30 8407 C 781.095 4.22548 -0.680953 0
M  V30 8408 C 780.421 5.34456 0.161561 0
M  V30 8409 C 781.721 4.83914 -1.96532 0
M  V30 8410 H 783.415 2.65735 -1.37933 0
M  V30 8411 H 780.961 1.27742 -0.664681 0
M  V30 8412 H 782.914 4.18153 0.522117 0
M  V30 8413 H 781.638 3.07771 1.09292 0
M  V30 8414 H 780.297 3.52946 -0.991186 0
M  V30 8415 H 779.945 4.91716 1.05947 0
M  V30 8416 H 779.645 5.86087 -0.421418 0
M  V30 8417 H 781.169 6.08685 0.483211 0
M  V30 8418 H 782.583 5.47392 -1.70396 0
M  V30 8419 H 780.98 5.45775 -2.49499 0
M  V30 8420 H 782.05 4.05393 -2.66053 0
M  V30 8421 N 783.393 0.737304 1.3929 0
M  V30 8422 C 784.618 0.295237 2.05288 0
M  V30 8423 C 785.043 -1.06235 1.55228 0
M  V30 8424 O 784.401 -1.67365 0.697043 0
M  V30 8425 C 784.449 0.309146 3.59272 0
M  V30 8426 O 783.553 -0.702437 4.06374 0
M  V30 8427 H 782.894 0.133762 0.650387 0
M  V30 8428 H 785.424 1.00387 1.78279 0
M  V30 8429 H 785.434 0.154336 4.07708 0
M  V30 8430 H 784.109 1.29974 3.95069 0
M  V30 8431 H 782.686 -0.513574 3.69346 0
M  V30 8432 N 784.871 -1.49948 0.485112 0
M  V30 8433 C 786.287 -1.58984 0.140096 0
M  V30 8434 C 786.487 -1.49194 -1.35438 0
M  V30 8435 O 785.543 -1.35765 -2.12894 0
M  V30 8436 C 786.856 -2.92372 0.702769 0
M  V30 8437 C 788.404 -3.05801 0.66745 0
M  V30 8438 C 788.879 -4.41785 1.20791 0
M  V30 8439 N 790.37 -4.48234 1.16792 0
M  V30 8440 C 791.105 -5.51871 1.55646 0
M  V30 8441 N 790.601 -6.62692 2.02016 0
M  V30 8442 N 792.394 -5.42494 1.47161 0
M  V30 8443 H 784.545 -1.54555 1.45693 0
M  V30 8444 H 786.808 -0.731206 0.603359 0
M  V30 8445 H 786.514 -3.05056 1.75025 0
M  V30 8446 H 786.388 -3.76885 0.154205 0
M  V30 8447 H 788.775 -2.92757 -0.371157 0
M  V30 8448 H 788.856 -2.23011 1.25298 0
M  V30 8449 H 788.5 -4.55579 2.24522 0
M  V30 8450 H 788.43 -5.23188 0.598464 0
M  V30 8451 H 790.921 -3.68718 0.827982 0
M  V30 8452 H 791.234 -7.3785 2.29775 0
M  V30 8453 H 789.579 -6.63775 2.05979 0
M  V30 8454 H 792.77 -4.54806 1.10765 0
M  V30 8455 H 792.943 -6.2314 1.77766 0
M  V30 8456 N 786.349 -0.21828 -1.56081 0
M  V30 8457 C 787.76 0.290166 -1.84431 0
M  V30 8458 C 788.111 1.59712 -1.13958 0
M  V30 8459 O 787.236 2.12516 -0.40815 0
M  V30 8460 C 787.831 0.53325 -3.34577 0
M  V30 8461 C 786.39 0.986011 -3.63256 0
M  V30 8462 C 785.537 0.0472798 -2.7726 0
M  V30 8463 H 788.488 -0.441548 -1.52434 0
M  V30 8464 H 788.509 1.37967 -3.54606 0
M  V30 8465 H 788.021 -0.418137 -3.85841 0
M  V30 8466 H 786.122 1.95087 -3.17446 0
M  V30 8467 H 786.235 0.862684 -4.71269 0
M  V30 8468 H 784.599 0.553471 -2.48614 0
M  V30 8469 H 785.382 -0.898966 -3.31321 0
M  V30 8470 N 787.827 1.57504 0.0551401 0
M  V30 8471 C 789.076 1.87237 0.750009 0
M  V30 8472 C 789.389 0.813268 1.77891 0
M  V30 8473 O 790.595 0.99898 2.52453 0
M  V30 8474 C 789.051 3.32187 1.38491 0
M  V30 8475 C 788.659 4.46267 0.393707 0
M  V30 8476 C 790.403 3.71101 2.06117 0
M  V30 8477 C 788.31 5.82265 1.03547 0
M  V30 8478 H 787.24 0.698524 0.283866 0
M  V30 8479 H 789.891 1.835 0.00365997 0
M  V30 8480 H 788.273 3.30588 2.18008 0
M  V30 8481 H 789.447 4.59289 -0.372865 0
M  V30 8482 H 787.762 4.16015 -0.17902 0
M  V30 8483 H 790.359 4.70012 2.54937 0
M  V30 8484 H 790.702 3.01751 2.86796 0
M  V30 8485 H 791.235 3.74762 1.33409 0
M  V30 8486 H 787.974 6.54949 0.268644 0
M  V30 8487 H 787.494 5.73012 1.7725 0
M  V30 8488 H 789.173 6.28148 1.55047 0
M  V30 8489 N 789.305 -0.326896 1.54172 0
M  V30 8490 C 790.252 -1.40216 1.83325 0
M  V30 8491 C 791.222 -1.51538 0.680107 0
M  V30 8492 O 792.407 -1.66811 0.926206 0
M  V30 8493 C 789.547 -2.76626 2.0633 0
M  V30 8494 C 788.66 -2.73963 3.34019 0
M  V30 8495 C 787.795 -4.02198 3.47002 0
M  V30 8496 C 786.834 -3.93828 4.68578 0
M  V30 8497 N 785.971 -5.13787 4.78506 0
M  V30 8498 H 790.811 -1.14656 2.7506 0
M  V30 8499 H 788.348 -0.555089 1.36225 0
M  V30 8500 H 790.306 -3.55922 2.17659 0
M  V30 8501 H 788.936 -3.00503 1.1789 0
M  V30 8502 H 787.988 -1.86677 3.31445 0
M  V30 8503 H 789.3 -2.6366 4.2342 0
M  V30 8504 H 788.454 -4.89923 3.57855 0
M  V30 8505 H 787.193 -4.15302 2.55687 0
M  V30 8506 H 786.198 -3.04487 4.57786 0
M  V30 8507 H 787.423 -3.82292 5.61275 0
M  V30 8508 H 785.369 -5.27403 3.90105 0
M  V30 8509 H 785.286 -5.05807 5.61868 0
M  V30 8510 H 786.554 -6.03236 4.93686 0
M  V30 8511 N 790.784 -1.46188 -0.588786 0
M  V30 8512 C 792.195 -1.45421 -1.17088 0
M  V30 8513 C 792.546 -0.191801 -1.9526 0
M  V30 8514 O 791.671 0.705497 -2.04577 0
M  V30 8515 C 792.266 -2.63467 -2.13004 0
M  V30 8516 C 790.825 -2.6576 -2.6655 0
M  V30 8517 C 789.972 -2.38002 -1.42304 0
M  V30 8518 H 792.923 -1.54156 -0.377052 0
M  V30 8519 H 792.944 -2.38638 -2.96365 0
M  V30 8520 H 792.456 -3.55331 -1.56081 0
M  V30 8521 H 790.557 -1.77952 -3.27359 0
M  V30 8522 H 790.67 -3.65545 -3.09699 0
M  V30 8523 H 789.034 -1.87936 -1.71907 0
M  V30 8524 H 789.817 -3.32035 -0.872209 0
M  V30 8525 N 792.262 0.832906 -1.33792 0
M  V30 8526 C 793.487 1.62568 -1.28788 0
M  V30 8527 C 793.912 1.87599 0.137246 0
M  V30 8528 O 793.27 1.44436 1.0958 0
M  V30 8529 C 793.318 2.9495 -2.07453 0
M  V30 8530 O 792.422 3.86546 -1.43722 0
M  V30 8531 H 791.763 0.494809 -0.442787 0
M  V30 8532 H 794.293 1.03578 -1.76445 0
M  V30 8533 H 794.303 3.44599 -2.1844 0
M  V30 8534 H 792.978 2.76055 -3.11073 0
M  V30 8535 H 791.555 3.45044 -1.41417 0
M  V30 8536 N 793.74 1.17359 1.05189 0
M  V30 8537 C 795.151 0.96793 1.5965 0
M  V30 8538 C 795.502 -0.485355 1.90102 0
M  V30 8539 O 794.627 -1.36066 1.6827 0
M  V30 8540 C 795.222 1.75068 2.90063 0
M  V30 8541 C 793.781 1.58969 3.41183 0
M  V30 8542 C 792.928 1.75231 2.14917 0
M  V30 8543 H 795.879 1.32067 0.880001 0
M  V30 8544 H 795.9 1.23308 3.59966 0
M  V30 8545 H 795.412 2.80835 2.67868 0
M  V30 8546 H 793.513 0.556906 3.68415 0
M  V30 8547 H 793.626 2.38067 4.15766 0
M  V30 8548 H 791.99 1.18073 2.25679 0
M  V30 8549 H 792.773 2.8241 1.95191 0
M  V30 8550 N 795.218 -1.23913 0.973828 0
M  V30 8551 C 796.629 -1.73992 0.677021 0
M  V30 8552 C 796.98 -1.78833 -0.807036 0
M  V30 8553 O 796.105 -1.42183 -1.63135 0
M  V30 8554 C 796.7 -3.15985 1.22226 0
M  V30 8555 C 795.259 -3.63547 0.975228 0
M  V30 8556 C 794.406 -2.42001 1.35392 0
M  V30 8557 H 797.357 -1.09529 1.14844 0
M  V30 8558 H 797.378 -3.75875 0.591489 0
M  V30 8559 H 796.89 -3.12429 2.30238 0
M  V30 8560 H 794.991 -3.72493 -0.0891047 0
M  V30 8561 H 795.104 -4.50693 1.62518 0
M  V30 8562 H 793.468 -2.42708 0.772334 0
M  V30 8563 H 794.251 -2.41122 2.44367 0
M  V30 8564 N 796.696 -0.74468 -1.38897 0
M  V30 8565 C 797.926 -0.306982 -2.04307 0
M  V30 8566 C 798.334 1.06652 -1.56275 0
M  V30 8567 O 797.677 1.68699 -0.72708 0
M  V30 8568 C 797.739 -0.241186 -3.5869 0
M  V30 8569 C 797.403 -1.55476 -4.2974 0
M  V30 8570 C 798.4 -2.50229 -4.55721 0
M  V30 8571 C 796.085 -1.82173 -4.68101 0
M  V30 8572 C 798.079 -3.69905 -5.19085 0
M  V30 8573 C 795.766 -3.02125 -5.31191 0
M  V30 8574 C 796.764 -3.95812 -5.56616 0
M  V30 8575 O 796.452 -5.13656 -6.18395 0
M  V30 8576 H 796.184 -0.130416 -0.663301 0
M  V30 8577 H 798.738 -1.01192 -1.78744 0
M  V30 8578 H 796.968 0.519925 -3.83189 0
M  V30 8579 H 798.657 0.165806 -4.05561 0
M  V30 8580 H 799.423 -2.30877 -4.26522 0
M  V30 8581 H 795.302 -1.10091 -4.47662 0
M  V30 8582 H 798.846 -4.43047 -5.38846 0
M  V30 8583 H 794.743 -3.21374 -5.59811 0
M  V30 8584 H 795.511 -5.14119 -6.36886 0
M  V30 8585 N 798.174 1.49689 -0.493057 0
M  V30 8586 C 799.421 2.02427 0.0542714 0
M  V30 8587 C 799.749 1.37339 1.37725 0
M  V30 8588 O 799.004 0.495523 1.89323 0
M  V30 8589 C 799.303 3.56427 0.263536 0
M  V30 8590 C 798.969 4.40111 -0.98046 0
M  V30 8591 C 797.631 4.62699 -1.32148 0
M  V30 8592 C 799.983 4.88847 -1.80771 0
M  V30 8593 C 797.311 5.31268 -2.48941 0
M  V30 8594 C 799.663 5.587 -2.96711 0
M  V30 8595 C 798.327 5.79536 -3.31202 0
M  V30 8596 H 797.597 0.740734 0.0198593 0
M  V30 8597 H 800.244 1.80073 -0.651603 0
M  V30 8598 H 798.549 3.77416 1.05186 0
M  V30 8599 H 800.246 3.94819 0.701348 0
M  V30 8600 H 796.836 4.22765 -0.704814 0
M  V30 8601 H 801.02 4.71231 -1.55741 0
M  V30 8602 H 796.276 5.45603 -2.75911 0
M  V30 8603 H 800.45 5.9544 -3.61143 0
M  V30 8604 H 798.077 6.32443 -4.21805 0
M  V30 8605 N 799.652 0.226554 1.55963 0
M  V30 8606 C 800.9 -0.402991 1.98041 0
M  V30 8607 C 801.221 -1.59938 1.11557 0
M  V30 8608 O 800.491 -1.9494 0.193719 0
M  V30 8609 H 799.071 -0.15188 0.731397 0
M  V30 8610 H 801.733 0.320613 1.92245 0
M  V30 8611 H 800.829 -0.725937 3.0354 0
M  V30 8612 N 801.13 -1.57531 -0.0467866 0
M  V30 8613 C 802.06 -2.08425 -1.05268 0
M  V30 8614 C 803.041 -0.982941 -1.38825 0
M  V30 8615 O 804.226 -1.25716 -1.48018 0
M  V30 8616 C 801.356 -2.54897 -2.35891 0
M  V30 8617 C 800.31 -3.69132 -2.16623 0
M  V30 8618 C 799.636 -4.01747 -3.52851 0
M  V30 8619 C 800.936 -4.98243 -1.56689 0
M  V30 8620 H 802.63 -2.92716 -0.62908 0
M  V30 8621 H 800.176 -1.40816 -0.301156 0
M  V30 8622 H 802.129 -2.8912 -3.06574 0
M  V30 8623 H 800.853 -1.67666 -2.80278 0
M  V30 8624 H 799.512 -3.35231 -1.48377 0
M  V30 8625 H 799.16 -3.11608 -3.94853 0
M  V30 8626 H 798.86 -4.78681 -3.4079 0
M  V30 8627 H 800.384 -4.38487 -4.24925 0
M  V30 8628 H 801.798 -5.30535 -2.17268 0
M  V30 8629 H 800.195 -5.79669 -1.55255 0
M  V30 8630 H 801.265 -4.81986 -0.530827 0
M  V30 8631 N 802.608 0.318715 -1.54344 0
M  V30 8632 C 803.538 1.39751 -1.87061 0
M  V30 8633 C 804.519 1.53741 -0.727848 0
M  V30 8634 O 805.704 1.67541 -0.982016 0
M  V30 8635 C 802.834 2.76446 -2.10226 0
M  V30 8636 C 801.788 2.77239 -3.26071 0
M  V30 8637 C 801.114 4.17056 -3.34617 0
M  V30 8638 C 802.414 2.40555 -4.63606 0
M  V30 8639 H 804.108 1.12619 -2.77412 0
M  V30 8640 H 801.654 0.540318 -1.33479 0
M  V30 8641 H 803.607 3.51985 -2.31699 0
M  V30 8642 H 802.331 3.05066 -1.16629 0
M  V30 8643 H 800.99 2.04155 -3.04493 0
M  V30 8644 H 800.638 4.42824 -2.3857 0
M  V30 8645 H 800.338 4.18492 -4.12478 0
M  V30 8646 H 801.862 4.94401 -3.5833 0
M  V30 8647 H 803.276 3.05808 -4.84927 0
M  V30 8648 H 801.673 2.53234 -5.44052 0
M  V30 8649 H 802.743 1.35698 -4.65526 0
M  V30 8650 N 804.086 1.46499 0.581025 0
M  V30 8651 C 805.016 1.60052 1.70017 0
M  V30 8652 C 805.997 0.450788 1.64018 0
M  V30 8653 O 807.182 0.677237 1.82009 0
M  V30 8654 C 804.312 1.5921 3.08658 0
M  V30 8655 C 803.266 2.73169 3.29488 0
M  V30 8656 C 802.592 2.57389 4.68674 0
M  V30 8657 C 803.892 4.14978 3.1716 0
M  V30 8658 H 805.586 2.53735 1.5893 0
M  V30 8659 H 803.132 1.22113 0.763173 0
M  V30 8660 H 805.085 1.67285 3.86773 0
M  V30 8661 H 803.809 0.620718 3.20647 0
M  V30 8662 H 802.468 2.64566 2.53773 0
M  V30 8663 H 802.116 1.58331 4.77431 0
M  V30 8664 H 801.816 3.33826 4.83564 0
M  V30 8665 H 803.34 2.67358 5.48956 0
M  V30 8666 H 804.754 4.24684 3.85119 0
M  V30 8667 H 803.151 4.92016 3.4357 0
M  V30 8668 H 804.221 4.35016 2.14218 0
M  V30 8669 N 805.565 -0.825799 1.34232 0
M  V30 8670 C 806.528 -1.91808 1.25468 0
M  V30 8671 C 807.528 -1.59893 0.170567 0
M  V30 8672 O 808.718 -1.68986 0.422996 0
M  V30 8673 C 805.85 -3.27786 0.93644 0
M  V30 8674 H 807.043 -2.01003 2.22571 0
M  V30 8675 H 804.596 -1.01944 1.18479 0
M  V30 8676 H 805.331 -3.24285 -0.0315408 0
M  V30 8677 H 805.116 -3.52333 1.72057 0
M  V30 8678 H 806.606 -4.07782 0.900214 0
M  V30 8679 N 807.043 -1.17915 -1.04565 0
M  V30 8680 C 808.268 -0.996749 -1.81878 0
M  V30 8681 C 808.693 0.450169 -1.82634 0
M  V30 8682 O 808.051 1.32268 -1.23995 0
M  V30 8683 C 808.099 -1.55005 -3.25585 0
M  V30 8684 O 807.203 -0.76804 -4.05185 0
M  V30 8685 H 806.544 -0.353456 -0.562108 0
M  V30 8686 H 809.074 -1.56557 -1.31723 0
M  V30 8687 H 809.084 -1.57503 -3.76373 0
M  V30 8688 H 807.759 -2.60327 -3.2435 0
M  V30 8689 H 806.336 -0.81498 -3.63885 0
M  V30 8690 N 808.521 1.23394 -0.980386 0
M  V30 8691 C 809.767 1.92094 -0.650223 0
M  V30 8692 C 810.1 1.76309 0.814173 0
M  V30 8693 O 809.375 1.12406 1.5873 0
M  V30 8694 C 809.658 3.44713 -1.04139 0
M  V30 8695 C 809.511 3.69606 -2.56342 0
M  V30 8696 C 810.83 4.36191 -0.585296 0
M  V30 8697 H 807.949 0.697618 -0.237695 0
M  V30 8698 H 810.591 1.45517 -1.22167 0
M  V30 8699 H 808.741 3.84513 -0.55515 0
M  V30 8700 H 810.413 3.39288 -3.1254 0
M  V30 8701 H 808.656 3.14318 -2.98976 0
M  V30 8702 H 809.327 4.76441 -2.78762 0
M  V30 8703 H 811.803 4.03836 -1.00276 0
M  V30 8704 H 810.679 5.41679 -0.887428 0
M  V30 8705 H 810.94 4.39097 0.51438 0
M  V30 8706 N 809.999 0.752036 1.385 0
M  V30 8707 C 811.247 0.306895 1.99756 0
M  V30 8708 C 811.568 -1.11478 1.59992 0
M  V30 8709 O 810.838 -1.76206 0.856045 0
M  V30 8710 H 809.418 0.11048 0.738785 0
M  V30 8711 H 812.08 0.965785 1.69289 0
M  V30 8712 H 811.176 0.368797 3.09913 0
M  V30 8713 N 811.477 -1.49425 0.500989 0
M  V30 8714 C 812.893 -1.58826 0.156951 0
M  V30 8715 C 813.093 -1.50622 -1.33848 0
M  V30 8716 O 812.149 -1.38016 -2.11442 0
M  V30 8717 C 813.462 -2.91611 0.73374 0
M  V30 8718 C 815.01 -3.05076 0.699846 0
M  V30 8719 C 815.485 -4.40479 1.2547 0
M  V30 8720 N 816.976 -4.4697 1.2154 0
M  V30 8721 C 817.711 -5.50189 1.6149 0
M  V30 8722 N 817.207 -6.60512 2.09034 0
M  V30 8723 N 819 -5.40903 1.52907 0
M  V30 8724 H 811.151 -1.53001 1.47324 0
M  V30 8725 H 813.414 -0.724765 0.61108 0
M  V30 8726 H 813.12 -3.03182 1.78251 0
M  V30 8727 H 812.994 -3.767 0.19417 0
M  V30 8728 H 815.381 -2.93134 -0.340085 0
M  V30 8729 H 815.462 -2.2167 1.27656 0
M  V30 8730 H 815.106 -4.53172 2.29341 0
M  V30 8731 H 815.036 -5.22524 0.653921 0
M  V30 8732 H 817.527 -3.67819 0.867043 0
M  V30 8733 H 817.84 -7.35372 2.37588 0
M  V30 8734 H 816.185 -6.61553 2.13008 0
M  V30 8735 H 819.376 -4.53606 1.15583 0
M  V30 8736 H 819.549 -6.21219 1.84365 0
M  V30 8737 N 812.955 -0.234822 -1.55841 0
M  V30 8738 C 813.885 0.664217 -2.23854 0
M  V30 8739 C 814.866 1.19076 -1.2147 0
M  V30 8740 O 816.051 1.23232 -1.50091 0
M  V30 8741 C 813.181 1.86666 -2.9287 0
M  V30 8742 C 812.135 1.47341 -4.01839 0
M  V30 8743 C 811.461 2.75571 -4.58219 0
M  V30 8744 C 812.761 0.653479 -5.18196 0
M  V30 8745 H 814.455 0.0971213 -2.99242 0
M  V30 8746 H 812.001 0.0452724 -1.43929 0
M  V30 8747 H 813.954 2.50116 -3.39146 0
M  V30 8748 H 812.678 2.45894 -2.1495 0
M  V30 8749 H 811.337 0.862314 -3.56314 0
M  V30 8750 H 810.985 3.32971 -3.77014 0
M  V30 8751 H 810.685 2.49987 -5.31771 0
M  V30 8752 H 812.209 3.39939 -5.07221 0
M  V30 8753 H 813.623 1.19198 -5.60771 0
M  V30 8754 H 812.02 0.494188 -5.98062 0
M  V30 8755 H 813.09 -0.337004 -4.83728 0
M  V30 8756 N 814.433 1.57553 0.0384317 0
M  V30 8757 C 815.658 1.93485 0.746872 0
M  V30 8758 C 816.083 0.834069 1.68597 0
M  V30 8759 O 815.441 -0.210902 1.80069 0
M  V30 8760 C 815.489 3.28463 1.4881 0
M  V30 8761 O 814.593 3.20051 2.60079 0
M  V30 8762 H 813.934 0.632675 0.201539 0
M  V30 8763 H 816.464 2.046 -0.00329815 0
M  V30 8764 H 816.474 3.63132 1.86009 0
M  V30 8765 H 815.149 4.08147 0.799297 0
M  V30 8766 H 813.726 2.96998 2.25492 0
M  V30 8767 N 815.911 -0.310526 1.54511 0
M  V30 8768 C 816.861 -1.38405 1.81185 0
M  V30 8769 C 817.845 -1.46355 0.668499 0
M  V30 8770 O 819.037 -1.50668 0.928873 0
M  V30 8771 C 816.166 -2.75059 2.0542 0
M  V30 8772 C 815.252 -2.7137 3.25913 0
M  V30 8773 N 815.643 -2.37298 4.4668 0
M  V30 8774 C 813.941 -3.02484 3.27749 0
M  V30 8775 C 814.642 -2.42669 5.28665 0
M  V30 8776 N 813.618 -2.79639 4.66158 0
M  V30 8777 H 817.42 -1.11012 2.72128 0
M  V30 8778 H 814.934 -0.519068 1.53881 0
M  V30 8779 H 816.931 -3.52451 2.22674 0
M  V30 8780 H 815.591 -3.03372 1.15739 0
M  V30 8781 H 816.602 -2.09917 4.73451 0
M  V30 8782 H 813.279 -3.35754 2.48144 0
M  V30 8783 H 814.669 -2.19206 6.35136 0
M  V30 8784 N 817.389 -1.46805 -0.573248 0
M  V30 8785 C 818.619 -1.55965 -1.35494 0
M  V30 8786 C 819.027 -0.203038 -1.88107 0
M  V30 8787 O 818.37 0.81138 -1.6481 0
M  V30 8788 C 818.432 -2.51168 -2.57206 0
M  V30 8789 C 818.096 -3.97211 -2.25993 0
M  V30 8790 C 819.093 -4.86155 -1.84254 0
M  V30 8791 C 816.778 -4.42419 -2.37846 0
M  V30 8792 C 818.772 -6.18323 -1.54776 0
M  V30 8793 C 816.459 -5.74619 -2.0798 0
M  V30 8794 C 817.457 -6.62392 -1.66511 0
M  V30 8795 O 817.145 -7.92137 -1.37016 0
M  V30 8796 H 816.877 -0.529748 -0.419932 0
M  V30 8797 H 819.431 -1.92998 -0.702914 0
M  V30 8798 H 817.661 -2.09171 -3.25245 0
M  V30 8799 H 819.35 -2.50631 -3.19279 0
M  V30 8800 H 820.116 -4.52481 -1.74603 0
M  V30 8801 H 815.995 -3.74319 -2.69085 0
M  V30 8802 H 819.539 -6.8679 -1.22334 0
M  V30 8803 H 815.436 -6.0784 -2.17258 0
M  V30 8804 H 816.204 -8.04492 -1.50782 0
M  V30 8805 N 818.867 0.818669 -1.34668 0
M  V30 8806 C 819.797 1.94468 -1.29245 0
M  V30 8807 C 820.778 1.69257 -0.169101 0
M  V30 8808 O 821.963 1.90794 -0.362143 0
M  V30 8809 C 819.093 3.31001 -1.05145 0
M  V30 8810 C 818.047 3.70663 -2.13992 0
M  V30 8811 C 817.373 5.05226 -1.75074 0
M  V30 8812 C 818.673 3.82312 -3.55858 0
M  V30 8813 H 820.367 1.99263 -2.2346 0
M  V30 8814 H 817.913 0.957304 -1.07572 0
M  V30 8815 H 819.866 4.09364 -0.999949 0
M  V30 8816 H 818.59 3.26517 -0.0737312 0
M  V30 8817 H 817.249 2.94578 -2.18219 0
M  V30 8818 H 816.897 4.97233 -0.759518 0
M  V30 8819 H 816.597 5.32734 -2.47928 0
M  V30 8820 H 818.121 5.86042 -1.71427 0
M  V30 8821 H 819.535 4.50935 -3.5402 0
M  V30 8822 H 817.932 4.21278 -4.2737 0
M  V30 8823 H 819.002 2.84193 -3.9289 0
M  V30 8824 N 820.346 1.18468 1.03938 0
M  V30 8825 C 821.278 0.870615 2.12021 0
M  V30 8826 C 822.291 -0.132318 1.62261 0
M  V30 8827 O 823.48 0.0956901 1.78243 0
M  V30 8828 C 820.58 0.279727 3.37744 0
M  V30 8829 C 819.753 1.32863 4.16733 0
M  V30 8830 C 818.812 0.753204 5.20781 0
M  V30 8831 O 817.838 1.42825 5.5099 0
M  V30 8832 N 819.04 -0.448664 5.78764 0
M  V30 8833 H 821.805 1.80091 2.39556 0
M  V30 8834 H 819.366 1.08524 1.20142 0
M  V30 8835 H 821.358 -0.118829 4.04526 0
M  V30 8836 H 819.928 -0.554621 3.07641 0
M  V30 8837 H 819.148 1.90245 3.45254 0
M  V30 8838 H 820.436 2.03574 4.66299 0
M  V30 8839 H 819.834 -1.01481 5.56523 0
M  V30 8840 H 818.391 -0.789125 6.47005 0
M  V30 8841 N 821.824 -1.22873 0.986916 0
M  V30 8842 C 822.771 -2.2458 0.532215 0
M  V30 8843 C 823.741 -1.60375 -0.432322 0
M  V30 8844 O 824.926 -1.87775 -0.338416 0
M  V30 8845 C 822.066 -3.44761 -0.152864 0
M  V30 8846 C 821.179 -4.23501 0.852704 0
M  V30 8847 C 820.314 -5.31011 0.14176 0
M  V30 8848 C 819.353 -6.01464 1.1361 0
M  V30 8849 N 818.49 -7.00631 0.453871 0
M  V30 8850 H 823.33 -2.62838 1.40428 0
M  V30 8851 H 820.867 -1.29185 0.703543 0
M  V30 8852 H 822.825 -4.1333 -0.566926 0
M  V30 8853 H 821.455 -3.07284 -0.988756 0
M  V30 8854 H 820.507 -3.54286 1.38512 0
M  V30 8855 H 821.819 -4.72097 1.61014 0
M  V30 8856 H 820.973 -6.05805 -0.329337 0
M  V30 8857 H 819.712 -4.83373 -0.648229 0
M  V30 8858 H 818.717 -5.25456 1.61789 0
M  V30 8859 H 819.942 -6.5119 1.92686 0
M  V30 8860 H 817.888 -6.55235 -0.316791 0
M  V30 8861 H 817.805 -7.47204 1.14986 0
M  V30 8862 H 819.073 -7.795 0.00537823 0
M  V30 8863 N 823.302 -0.75937 -1.38099 0
M  V30 8864 C 824.55 -0.317485 -1.99591 0
M  V30 8865 C 824.871 1.10628 -1.60581 0
M  V30 8866 O 824.141 1.7575 -0.865378 0
M  V30 8867 H 822.721 -0.114397 -0.738189 0
M  V30 8868 H 825.383 -0.974749 -1.68774 0
M  V30 8869 H 824.479 -0.385227 -3.09713 0
M  V30 8870 N 824.78 1.49157 -0.508906 0
M  V30 8871 C 826.02 2.04376 0.0310623 0
M  V30 8872 C 826.384 1.37946 1.33547 0
M  V30 8873 O 827.585 1.83931 1.96017 0
M  V30 8874 C 825.856 3.56985 0.172191 0
M  V30 8875 S 827.415 4.33728 0.665267 0
M  V30 8876 H 824.233 0.710997 -0.00199266 0
M  V30 8877 H 826.835 1.83119 -0.684674 0
M  V30 8878 H 825.539 4.02874 -0.78234 0
M  V30 8879 H 825.07 3.82661 0.912933 0
M  V30 8880 H 827.085 4.56992 1.9332 0
M  V30 8881 N 826.258 0.243083 1.55714 0
M  V30 8882 C 827.674 -0.111853 1.59208 0
M  V30 8883 C 827.874 -1.5723 1.2602 0
M  V30 8884 O 826.93 -2.31608 1.00569 0
M  V30 8885 C 828.243 0.233885 2.99789 0
M  V30 8886 C 829.791 0.177873 3.12494 0
M  V30 8887 C 830.266 0.49759 4.55289 0
M  V30 8888 N 831.757 0.447949 4.61029 0
M  V30 8889 C 832.492 0.668545 5.69489 0
M  V30 8890 N 831.988 0.952064 6.86227 0
M  V30 8891 N 833.781 0.599512 5.58894 0
M  V30 8892 H 825.932 1.19554 1.75558 0
M  V30 8893 H 828.195 0.480765 0.817049 0
M  V30 8894 H 827.901 1.24835 3.28799 0
M  V30 8895 H 827.775 -0.440846 3.74615 0
M  V30 8896 H 830.162 -0.827263 2.83267 0
M  V30 8897 H 830.243 0.886399 2.39951 0
M  V30 8898 H 829.887 1.50026 4.85237 0
M  V30 8899 H 829.817 -0.232371 5.26087 0
M  V30 8900 H 832.308 0.237388 3.77154 0
M  V30 8901 H 832.621 1.10791 7.64817 0
M  V30 8902 H 830.966 0.989496 6.8792 0
M  V30 8903 H 834.157 0.378088 4.66571 0
M  V30 8904 H 834.33 0.774828 6.43351 0
M  V30 8905 N 827.736 -1.57571 -0.0300757 0
M  V30 8906 C 828.666 -2.0953 -1.03051 0
M  V30 8907 C 829.647 -0.99761 -1.37774 0
M  V30 8908 O 830.832 -1.27279 -1.46676 0
M  V30 8909 C 827.962 -2.57385 -2.33174 0
M  V30 8910 C 826.916 -3.71409 -2.12696 0
M  V30 8911 C 826.242 -4.05467 -3.4857 0
M  V30 8912 C 827.542 -4.99877 -1.51396 0
M  V30 8913 H 829.236 -2.93367 -0.597999 0
M  V30 8914 H 826.782 -1.41127 -0.286203 0
M  V30 8915 H 828.735 -2.92355 -3.03491 0
M  V30 8916 H 827.459 -1.70629 -2.78484 0
M  V30 8917 H 826.118 -3.36786 -1.44813 0
M  V30 8918 H 825.766 -3.15779 -3.91526 0
M  V30 8919 H 825.466 -4.82269 -3.35694 0
M  V30 8920 H 826.99 -4.4297 -4.2025 0
M  V30 8921 H 828.404 -5.3281 -2.11629 0
M  V30 8922 H 826.801 -5.81283 -1.49098 0
M  V30 8923 H 827.871 -4.82522 -0.479676 0
M  V30 8924 N 829.214 0.302327 -1.54673 0
M  V30 8925 C 830.439 1.06103 -1.78205 0
M  V30 8926 C 830.864 1.80204 -0.53926 0
M  V30 8927 O 830.222 1.73975 0.510142 0
M  V30 8928 C 830.27 2.01829 -2.98827 0
M  V30 8929 O 829.374 3.10108 -2.71858 0
M  V30 8930 H 828.715 0.30487 -0.589873 0
M  V30 8931 H 831.245 0.340153 -2.01753 0
M  V30 8932 H 831.255 2.44319 -3.2676 0
M  V30 8933 H 829.93 1.473 -3.88942 0
M  V30 8934 H 828.507 2.72142 -2.54937 0
M  V30 8935 N 830.692 1.47107 0.565454 0
M  V30 8936 C 832.103 1.47266 1.1476 0
M  V30 8937 C 832.454 0.222841 1.9493 0
M  V30 8938 O 831.579 -0.672862 2.05673 0
M  V30 8939 C 832.174 2.66822 2.08785 0
M  V30 8940 C 830.733 2.69967 2.62288 0
M  V30 8941 C 829.88 2.40236 1.38499 0
M  V30 8942 H 832.831 1.54736 0.352479 0
M  V30 8943 H 832.852 2.43323 2.92531 0
M  V30 8944 H 832.364 3.5777 1.50408 0
M  V30 8945 H 830.465 1.83137 3.24487 0
M  V30 8946 H 830.578 3.70426 3.03845 0
M  V30 8947 H 828.942 1.90648 1.68895 0
M  V30 8948 H 829.725 3.33381 0.819274 0
M  V30 8949 N 832.17 -0.811516 1.35101 0
M  V30 8950 C 833.586 -1.10634 1.15031 0
M  V30 8951 C 833.786 -2.01459 -0.0405379 0
M  V30 8952 O 832.842 -2.42235 -0.712635 0
M  V30 8953 C 834.155 -1.74207 2.45097 0
M  V30 8954 C 835.703 -1.8665 2.51258 0
M  V30 8955 C 836.178 -2.53638 3.81355 0
M  V30 8956 N 837.669 -2.61128 3.82579 0
M  V30 8957 C 838.404 -3.13717 4.79968 0
M  V30 8958 N 837.9 -3.66782 5.87744 0
M  V30 8959 N 839.693 -3.12224 4.67411 0
M  V30 8960 H 831.844 -0.207641 2.11383 0
M  V30 8961 H 834.107 -0.154697 0.935293 0
M  V30 8962 H 833.813 -1.14936 3.32389 0
M  V30 8963 H 833.687 -2.73958 2.59281 0
M  V30 8964 H 836.074 -2.45066 1.64398 0
M  V30 8965 H 836.155 -0.857678 2.40993 0
M  V30 8966 H 835.799 -1.95873 4.68611 0
M  V30 8967 H 835.729 -3.55047 3.88907 0
M  V30 8968 H 838.22 -2.23527 3.04703 0
M  V30 8969 H 838.533 -4.05194 6.58056 0
M  V30 8970 H 836.878 -3.64994 5.91443 0
M  V30 8971 H 840.069 -2.70042 3.82354 0
M  V30 8972 H 840.242 -3.52903 5.43474 0
M  V30 8973 N 833.648 -1.19017 -1.03309 0
M  V30 8974 C 834.925 -0.899659 -1.73682 0
M  V30 8975 C 835.305 0.595677 -2.02521 0
M  V30 8976 O 834.653 1.55263 -1.67648 0
M  V30 8977 C 834.863 -1.75508 -3.01659 0
M  V30 8978 C 836.211 -1.98679 -3.75249 0
M  V30 8979 O 837.235 -1.72624 -3.11576 0
M  V30 8980 O 836.094 -2.42587 -4.89708 0
M  V30 8981 H 833.188 -0.334903 -0.756154 0
M  V30 8982 H 835.734 -1.29809 -1.09305 0
M  V30 8983 H 834.506 -2.7684 -2.76542 0
M  V30 8984 H 834.129 -1.35565 -3.73775 0
M  V30 8985 N 835.127 1.22348 -0.993418 0
M  V30 8986 C 836.355 1.95125 -0.688021 0
M  V30 8987 C 836.77 1.73377 0.747388 0
M  V30 8988 O 836.127 1.03317 1.50439 0
M  V30 8989 C 836.178 3.47819 -0.985097 0
M  V30 8990 O 835.899 3.68838 -2.3641 0
M  V30 8991 C 837.4 4.37779 -0.697474 0
M  V30 8992 H 834.62 0.62087 -0.254481 0
M  V30 8993 H 837.164 1.55485 -1.32833 0
M  V30 8994 H 835.319 3.85426 -0.390583 0
M  V30 8995 H 835.733 4.63032 -2.46377 0
M  V30 8996 H 837.207 5.43666 -0.955604 0
M  V30 8997 H 837.684 4.37651 0.368524 0
M  V30 8998 H 838.29 4.05799 -1.27306 0
M  V30 8999 N 836.605 0.766683 1.37694 0
M  V30 9000 C 837.835 0.339446 2.03792 0
M  V30 9001 C 838.243 -1.04153 1.57952 0
M  V30 9002 O 837.586 -1.67521 0.753826 0
M  V30 9003 C 837.648 0.29822 3.58261 0
M  V30 9004 C 837.312 1.62293 4.27212 0
M  V30 9005 C 838.309 2.57447 4.51682 0
M  V30 9006 C 835.994 1.89597 4.65143 0
M  V30 9007 C 837.988 3.78117 5.13134 0
M  V30 9008 C 835.675 3.10538 5.26317 0
M  V30 9009 C 836.673 4.04617 5.50249 0
M  V30 9010 O 836.361 5.23429 6.10145 0
M  V30 9011 H 836.093 0.140952 0.661142 0
M  V30 9012 H 838.647 1.04022 1.77111 0
M  V30 9013 H 836.877 -0.458897 3.83967 0
M  V30 9014 H 838.566 -0.101263 4.05774 0
M  V30 9015 H 839.332 2.37633 4.22795 0
M  V30 9016 H 835.211 1.17199 4.45854 0
M  V30 9017 H 838.755 4.51563 5.3173 0
M  V30 9018 H 834.652 3.3024 5.54628 0
M  V30 9019 H 835.42 5.24187 6.28626 0
M  V30 9020 N 838.083 -1.48885 0.516809 0
M  V30 9021 C 839.308 -2.0739 -0.0205201 0
M  V30 9022 C 839.733 -1.37259 -1.28614 0
M  V30 9023 O 839.091 -0.434304 -1.76021 0
M  V30 9024 C 839.139 -3.59793 -0.24104 0
M  V30 9025 O 838.243 -3.90957 -1.31251 0
M  V30 9026 H 837.584 -0.663167 0.0332564 0
M  V30 9027 H 840.114 -1.91477 0.720956 0
M  V30 9028 H 840.124 -4.0531 -0.467737 0
M  V30 9029 H 838.799 -4.10244 0.68356 0
M  V30 9030 H 837.376 -3.57234 -1.06951 0
M  V30 9031 N 839.561 -0.251338 -1.55583 0
M  V30 9032 C 840.838 0.422729 -1.90977 0
M  V30 9033 C 841.218 1.75534 -1.17265 0
M  V30 9034 O 840.566 2.26632 -0.291588 0
M  V30 9035 C 840.776 0.586448 -3.44037 0
M  V30 9036 C 842.124 0.880294 -4.15375 0
M  V30 9037 O 843.148 0.672148 -3.49801 0
M  V30 9038 O 842.007 1.27694 -5.31372 0
M  V30 9039 H 839.101 0.227622 -0.795058 0
M  V30 9040 H 841.647 -0.295733 -1.67103 0
M  V30 9041 H 840.419 -0.352327 -3.89711 0
M  V30 9042 H 840.042 1.35528 -3.73789 0
M  V30 9043 N 841.039 1.57585 0.0217189 0
M  V30 9044 C 842.455 1.55072 0.377484 0
M  V30 9045 C 842.655 0.978423 1.76151 0
M  V30 9046 O 841.711 0.602688 2.45202 0
M  V30 9047 C 843.024 2.99462 0.272605 0
M  V30 9048 C 844.572 3.11047 0.349148 0
M  V30 9049 C 845.047 4.57182 0.273636 0
M  V30 9050 N 846.538 4.62007 0.332206 0
M  V30 9051 C 847.273 5.72631 0.296782 0
M  V30 9052 N 846.769 6.92472 0.21322 0
M  V30 9053 N 848.562 5.61028 0.347053 0
M  V30 9054 H 840.713 1.93133 -0.883925 0
M  V30 9055 H 842.976 0.886151 -0.33681 0
M  V30 9056 H 842.682 3.45088 -0.67878 0
M  V30 9057 H 842.556 3.61901 1.06335 0
M  V30 9058 H 844.943 2.65364 1.29097 0
M  V30 9059 H 845.024 2.51425 -0.471085 0
M  V30 9060 H 844.668 5.03534 -0.664548 0
M  V30 9061 H 844.598 5.14724 1.11207 0
M  V30 9062 H 847.089 3.75788 0.399003 0
M  V30 9063 H 847.402 7.72563 0.191492 0
M  V30 9064 H 845.747 6.94769 0.179161 0
M  V30 9065 H 848.938 4.66298 0.410378 0
M  V30 9066 H 849.111 6.47229 0.315979 0
M  V30 9067 N 842.517 -0.29412 1.54831 0
M  V30 9068 C 843.742 -1.05156 1.78765 0
M  V30 9069 C 844.167 -1.79916 0.548809 0
M  V30 9070 O 843.525 -1.74243 -0.500909 0
M  V30 9071 C 843.573 -2.00242 2.99893 0
M  V30 9072 O 842.677 -3.08662 2.73499 0
M  V30 9073 H 842.018 -0.301737 0.591482 0
M  V30 9074 H 844.548 -0.329449 2.0193 0
M  V30 9075 H 844.558 -2.42583 3.28051 0
M  V30 9076 H 843.233 -1.45235 3.89717 0
M  V30 9077 H 841.81 -2.70786 2.56377 0
M  V30 9078 N 843.995 -1.47404 -0.557645 0
M  V30 9079 C 845.243 -1.53703 -1.31224 0
M  V30 9080 C 845.564 -0.200742 -1.93964 0
M  V30 9081 O 844.834 0.775253 -1.79907 0
M  V30 9082 H 843.414 -0.566171 -0.487299 0
M  V30 9083 H 846.076 -1.83699 -0.651195 0
M  V30 9084 H 845.172 -2.30335 -2.10599 0
M  V30 9085 N 845.473 0.80434 -1.35529 0
M  V30 9086 C 846.698 1.598 -1.32207 0
M  V30 9087 C 847.123 1.87848 0.0974226 0
M  V30 9088 O 846.481 1.46728 1.06492 0
M  V30 9089 C 846.529 2.90483 -2.13663 0
M  V30 9090 O 845.633 3.83411 -1.51888 0
M  V30 9091 H 844.974 0.485305 -0.453183 0
M  V30 9092 H 847.504 0.998119 -1.78602 0
M  V30 9093 H 847.514 3.39888 -2.257 0
M  V30 9094 H 846.189 2.69395 -3.16859 0
M  V30 9095 H 844.766 3.41967 -1.48704 0
M  V30 9096 N 846.951 1.19563 1.02676 0
M  V30 9097 C 848.176 1.02556 1.80269 0
M  V30 9098 C 848.601 -0.421056 1.83327 0
M  V30 9099 O 847.959 -1.30279 1.26084 0
M  V30 9100 C 848.007 1.60165 3.23078 0
M  V30 9101 O 847.111 0.832404 4.03912 0
M  V30 9102 H 846.452 0.362354 0.556413 0
M  V30 9103 H 848.982 1.58633 1.29216 0
M  V30 9104 H 848.992 1.6347 3.7382 0
M  V30 9105 H 847.667 2.65454 3.20167 0
M  V30 9106 H 846.244 0.872768 3.62543 0
M  V30 9107 N 848.429 -1.21819 0.999893 0
M  V30 9108 C 849.654 -1.95298 0.698094 0
M  V30 9109 C 850.079 -1.73273 -0.731982 0
M  V30 9110 O 849.437 -1.01634 -1.50134 0
M  V30 9111 C 849.485 -3.45922 1.01834 0
M  V30 9112 O 848.589 -4.12223 0.120801 0
M  V30 9113 H 847.93 -0.610729 0.260588 0
M  V30 9114 H 850.46 -1.5472 1.33876 0
M  V30 9115 H 850.47 -3.96471 0.963074 0
M  V30 9116 H 849.145 -3.61278 2.06037 0
M  V30 9117 H 847.722 -3.72177 0.232153 0
M  V30 9118 N 849.908 -0.773975 -1.37286 0
M  V30 9119 C 851.319 -0.404433 -1.82267 0
M  V30 9120 C 851.67 1.06971 -1.64474 0
M  V30 9121 O 850.795 1.82867 -1.15708 0
M  V30 9122 C 851.39 -0.727298 -3.30902 0
M  V30 9123 C 849.949 -0.410784 -3.74152 0
M  V30 9124 C 849.096 -0.969983 -2.59782 0
M  V30 9125 H 852.047 -0.968437 -1.25726 0
M  V30 9126 H 852.068 -0.0127575 -3.80498 0
M  V30 9127 H 851.58 -1.80026 -3.4382 0
M  V30 9128 H 849.681 0.65477 -3.66802 0
M  V30 9129 H 849.794 -0.920592 -4.70172 0
M  V30 9130 H 848.158 -0.394094 -2.51633 0
M  V30 9131 H 848.941 -2.04839 -2.75492 0
M  V30 9132 N 851.386 1.48609 -0.524698 0
M  V30 9133 C 852.663 1.95454 0.075465 0
M  V30 9134 C 853.043 1.46682 1.51814 0
M  V30 9135 O 852.391 0.690975 2.17802 0
M  V30 9136 C 852.601 3.48981 -0.0363273 0
M  V30 9137 C 853.949 4.24414 0.125624 0
M  V30 9138 O 854.973 3.5618 0.0377239 0
M  V30 9139 O 853.832 5.45625 0.309104 0
M  V30 9140 H 850.926 0.822902 0.0822256 0
M  V30 9141 H 853.472 1.59153 -0.588921 0
M  V30 9142 H 852.244 3.77185 -1.04149 0
M  V30 9143 H 851.867 3.91963 0.667146 0
M  V30 9144 N 852.864 0.259585 1.55447 0
M  V30 9145 C 854.089 -0.368317 2.04103 0
M  V30 9146 C 854.514 -1.49827 1.13725 0
M  V30 9147 O 853.872 -1.80814 0.132705 0
M  V30 9148 C 853.92 -0.841506 3.50644 0
M  V30 9149 O 853.024 -1.95008 3.63381 0
M  V30 9150 H 852.365 -0.0785227 0.659341 0
M  V30 9151 H 854.895 0.389349 2.00861 0
M  V30 9152 H 854.905 -1.14138 3.9171 0
M  V30 9153 H 853.58 -0.0147001 4.15897 0
M  V30 9154 H 852.157 -1.65393 3.34215 0
M  V30 9155 N 854.342 -1.57594 -0.0133615 0
M  V30 9156 C 855.252 -2.10991 -1.02566 0
M  V30 9157 C 856.268 -1.05208 -1.3859 0
M  V30 9158 O 857.444 -1.37034 -1.47593 0
M  V30 9159 C 854.509 -2.59165 -2.30292 0
M  V30 9160 C 853.57 -3.79495 -2.00704 0
M  V30 9161 C 852.803 -4.25361 -3.22341 0
M  V30 9162 O 853.026 -3.70645 -4.33565 0
M  V30 9163 O 851.96 -5.17649 -3.07121 0
M  V30 9164 H 855.786 -2.97678 -0.601806 0
M  V30 9165 H 853.371 -1.47598 -0.23135 0
M  V30 9166 H 855.253 -2.90409 -3.05354 0
M  V30 9167 H 853.928 -1.75582 -2.71942 0
M  V30 9168 H 852.835 -3.53245 -1.23161 0
M  V30 9169 H 854.168 -4.64109 -1.639 0
M  V30 9170 N 855.82 0.285905 -1.54985 0
M  V30 9171 C 857.069 1.01691 -1.74189 0
M  V30 9172 C 857.382 1.87908 -0.543135 0
M  V30 9173 O 858.588 2.64389 -0.617305 0
M  V30 9174 C 857.044 1.85785 -3.0824 0
M  V30 9175 C 856.652 1.04497 -4.35642 0
M  V30 9176 C 858.396 2.58393 -3.36798 0
M  V30 9177 C 856.303 1.87955 -5.60738 0
M  V30 9178 H 855.233 0.383396 -0.649248 0
M  V30 9179 H 857.884 0.27317 -1.81455 0
M  V30 9180 H 856.266 2.64205 -2.94978 0
M  V30 9181 H 857.44 0.305847 -4.59784 0
M  V30 9182 H 855.755 0.434023 -4.14132 0
M  V30 9183 H 858.352 3.21214 -4.27464 0
M  V30 9184 H 858.695 3.28011 -2.56349 0
M  V30 9185 H 859.228 1.87012 -3.511 0
M  V30 9186 H 855.967 1.22781 -6.43898 0
M  V30 9187 H 855.487 2.59499 -5.40759 0
M  V30 9188 H 857.166 2.45636 -5.98558 0
M  V30 9189 N 857.298 1.47698 0.54982 0
M  V30 9190 C 858.526 1.5833 1.33188 0
M  V30 9191 C 858.941 0.236193 1.87317 0
M  V30 9192 O 858.298 -0.77167 1.65383 0
M  V30 9193 C 858.349 2.61438 2.49664 0
M  V30 9194 O 858.07 3.9092 1.97771 0
M  V30 9195 C 859.571 2.82324 3.41772 0
M  V30 9196 H 856.791 0.53443 0.405741 0
M  V30 9197 H 859.335 1.93375 0.665309 0
M  V30 9198 H 857.49 2.29307 3.12245 0
M  V30 9199 H 857.904 4.47323 2.73866 0
M  V30 9200 H 859.378 3.58316 4.19897 0
M  V30 9201 H 859.855 1.90416 3.95776 0
M  V30 9202 H 860.461 3.15682 2.85 0
M  V30 9203 N 858.776 -0.797141 1.35954 0
M  V30 9204 C 859.686 -1.94088 1.31784 0
M  V30 9205 C 860.702 -1.72588 0.221227 0
M  V30 9206 O 861.878 -1.96256 0.452255 0
M  V30 9207 C 858.943 -3.28828 1.09878 0
M  V30 9208 C 858.004 -3.63158 2.28942 0
M  V30 9209 C 857.237 -4.91469 2.08072 0
M  V30 9210 O 857.46 -5.60616 1.05196 0
M  V30 9211 O 856.394 -5.24277 2.95664 0
M  V30 9212 H 860.22 -2.00554 2.28061 0
M  V30 9213 H 857.805 -0.936288 1.16422 0
M  V30 9214 H 859.687 -4.09473 0.995485 0
M  V30 9215 H 858.362 -3.23271 0.16659 0
M  V30 9216 H 857.269 -2.82851 2.44839 0
M  V30 9217 H 858.602 -3.7343 3.20641 0
M  V30 9218 N 860.254 -1.20106 -1.0204 0
M  V30 9219 C 861.184 -0.970301 -2.12385 0
M  V30 9220 C 862.165 0.099378 -1.69809 0
M  V30 9221 O 863.35 -0.057365 -1.94115 0
M  V30 9222 C 860.48 -0.517431 -3.43424 0
M  V30 9223 C 859.434 -1.52992 -3.99722 0
M  V30 9224 C 858.76 -0.933817 -5.26483 0
M  V30 9225 C 860.06 -2.91257 -4.33551 0
M  V30 9226 H 861.754 -1.89316 -2.31948 0
M  V30 9227 H 859.3 -0.911655 -1.11467 0
M  V30 9228 H 861.253 -0.343243 -4.2 0
M  V30 9229 H 859.977 0.441049 -3.23608 0
M  V30 9230 H 858.636 -1.6914 -3.2525 0
M  V30 9231 H 858.284 0.0324763 -5.0299 0
M  V30 9232 H 857.984 -1.60999 -5.65113 0
M  V30 9233 H 859.508 -0.770614 -6.05718 0
M  V30 9234 H 860.922 -2.78642 -5.0103 0
M  V30 9235 H 859.319 -3.55745 -4.83286 0
M  V30 9236 H 860.389 -3.43269 -3.42483 0
M  V30 9237 N 861.732 1.21287 -1.00634 0
M  V30 9238 C 862.679 2.23705 -0.567876 0
M  V30 9239 C 863.649 1.61043 0.406753 0
M  V30 9240 O 864.834 1.88289 0.308499 0
M  V30 9241 C 861.974 3.44961 0.097996 0
M  V30 9242 C 861.087 4.22091 -0.919972 0
M  V30 9243 C 860.222 5.30718 -0.226222 0
M  V30 9244 C 859.261 5.99581 -1.23165 0
M  V30 9245 N 858.398 6.99821 -0.565278 0
M  V30 9246 H 863.238 2.60571 -1.44592 0
M  V30 9247 H 860.775 1.28049 -0.724006 0
M  V30 9248 H 862.733 4.1418 0.501097 0
M  V30 9249 H 861.363 3.08818 0.939744 0
M  V30 9250 H 860.415 3.52038 -1.44131 0
M  V30 9251 H 861.727 4.69476 -1.68505 0
M  V30 9252 H 860.881 6.06253 0.232917 0
M  V30 9253 H 859.62 4.84343 0.571247 0
M  V30 9254 H 858.625 5.22816 -1.70128 0
M  V30 9255 H 859.85 6.48042 -2.03022 0
M  V30 9256 H 857.796 6.55656 0.212508 0
M  V30 9257 H 857.713 7.4528 -1.26858 0
M  V30 9258 H 858.981 7.79393 -0.129389 0
M  V30 9259 N 863.21 0.781244 1.36873 0
M  V30 9260 C 864.457 0.349889 1.99454 0
M  V30 9261 C 864.785 -1.07621 1.62013 0
M  V30 9262 O 864.04 -1.75665 0.86258 0
M  V30 9263 C 864.339 0.45146 3.54537 0
M  V30 9264 C 864.005 1.83718 4.11775 0
M  V30 9265 C 862.667 2.21634 4.2712 0
M  V30 9266 C 865.019 2.7449 4.43063 0
M  V30 9267 C 862.347 3.49742 4.7106 0
M  V30 9268 C 864.699 4.02017 4.88431 0
M  V30 9269 C 863.363 4.39967 5.01982 0
M  V30 9270 H 862.633 0.128033 0.729855 0
M  V30 9271 H 865.28 0.997117 1.63493 0
M  V30 9272 H 863.585 -0.279288 3.90803 0
M  V30 9273 H 865.282 0.0988609 4.00878 0
M  V30 9274 H 861.872 1.53251 4.00265 0
M  V30 9275 H 866.056 2.46453 4.30783 0
M  V30 9276 H 861.312 3.79026 4.79738 0
M  V30 9277 H 865.486 4.72475 5.11605 0
M  V30 9278 H 863.113 5.39291 5.35788 0
M  V30 9279 N 864.689 -1.48329 0.532571 0
M  V30 9280 C 866.1 -1.86469 0.0927749 0
M  V30 9281 C 866.451 -1.44186 -1.3306 0
M  V30 9282 O 865.576 -0.833741 -1.99694 0
M  V30 9283 C 866.171 -3.38414 0.161588 0
M  V30 9284 C 864.73 -3.75739 -0.223028 0
M  V30 9285 C 863.877 -2.72377 0.520199 0
M  V30 9286 H 866.828 -1.40197 0.743678 0
M  V30 9287 H 866.849 -3.75314 -0.626059 0
M  V30 9288 H 866.361 -3.69159 1.19765 0
M  V30 9289 H 864.462 -3.50608 -1.26113 0
M  V30 9290 H 864.575 -4.78954 0.118385 0
M  V30 9291 H 862.939 -2.54678 -0.0338425 0
M  V30 9292 H 863.722 -3.05965 1.55694 0
M  V30 9293 N 866.167 -0.267825 -1.55308 0
M  V30 9294 C 867.392 0.357487 -2.04296 0
M  V30 9295 C 867.817 1.49222 -1.14518 0
M  V30 9296 O 867.175 1.80741 -0.142292 0
M  V30 9297 C 867.223 0.822899 -3.51085 0
M  V30 9298 O 866.327 1.93078 -3.6441 0
M  V30 9299 H 865.668 0.075025 -0.659748 0
M  V30 9300 H 868.198 -0.399996 -2.00652 0
M  V30 9301 H 868.208 1.12059 -3.92309 0
M  V30 9302 H 866.883 -0.0073562 -4.15899 0
M  V30 9303 H 865.46 1.63618 -3.35087 0
M  V30 9304 N 867.645 1.57599 0.00500368 0
M  V30 9305 C 868.894 1.89528 0.690061 0
M  V30 9306 C 869.207 0.869451 1.75214 0
M  V30 9307 O 870.413 1.07879 2.49147 0
M  V30 9308 C 868.869 3.36425 1.27852 0
M  V30 9309 C 868.477 4.47293 0.251531 0
M  V30 9310 C 870.221 3.77471 1.94206 0
M  V30 9311 C 868.128 5.85264 0.8497 0
M  V30 9312 H 867.058 0.707201 0.2615 0
M  V30 9313 H 869.709 1.83418 -0.0547209 0
M  V30 9314 H 868.091 3.37356 2.07381 0
M  V30 9315 H 869.265 4.5787 -0.518796 0
M  V30 9316 H 867.58 4.15235 -0.311281 0
M  V30 9317 H 870.177 4.77884 2.39855 0
M  V30 9318 H 870.52 3.10722 2.77051 0
M  V30 9319 H 871.053 3.78817 1.21419 0
M  V30 9320 H 867.792 6.55472 0.0601408 0
M  V30 9321 H 867.312 5.78361 1.5893 0
M  V30 9322 H 868.991 6.32762 1.34984 0
M  V30 9323 N 869.123 -0.277682 1.55134 0
M  V30 9324 C 870.071 -1.36305 1.88478 0
M  V30 9325 C 871.065 -1.51362 0.760654 0
M  V30 9326 O 872.271 -1.53202 0.944943 0
M  V30 9327 H 868.646 -0.45577 0.598146 0
M  V30 9328 H 870.617 -1.05431 2.79154 0
M  V30 9329 C 869.366 -2.71739 2.16918 0
M  V30 9330 H 868.689 -2.60942 3.02901 0
M  V30 9331 H 870.129 -3.46635 2.44172 0
M  V30 9332 C 868.588 -3.22476 0.975239 0
M  V30 9333 O 869.118 -4.01164 0.207497 0
M  V30 9334 N 867.324 -2.80097 0.774219 0
M  V30 9335 H 866.871 -2.16221 1.40022 0
M  V30 9336 H 866.829 -3.14392 -0.023021 0
M  V30 9337 N 870.601 -1.47988 -0.541979 0
M  V30 9338 C 871.551 -1.58019 -1.64359 0
M  V30 9339 C 872.535 -0.438056 -1.54822 0
M  V30 9340 O 873.727 -0.688837 -1.63046 0
M  V30 9341 C 870.856 -1.61182 -3.03109 0
M  V30 9342 C 869.942 -2.80834 -3.17794 0
M  V30 9343 N 870.333 -4.05379 -3.02492 0
M  V30 9344 C 868.631 -2.77914 -3.48826 0
M  V30 9345 C 869.332 -4.85592 -3.20274 0
M  V30 9346 N 868.308 -4.18188 -3.47304 0
M  V30 9347 H 872.11 -2.52071 -1.5112 0
M  V30 9348 H 869.624 -1.44193 -0.747137 0
M  V30 9349 H 871.621 -1.66461 -3.82226 0
M  V30 9350 H 870.281 -0.682375 -3.17449 0
M  V30 9351 H 871.292 -4.36003 -2.79503 0
M  V30 9352 H 867.969 -1.94174 -3.69598 0
M  V30 9353 H 869.359 -5.94394 -3.13282 0
M  V30 9354 N 872.079 0.78992 -1.36375 0
M  V30 9355 C 873.356 1.53584 -1.21126 0
M  V30 9356 C 873.736 2.10124 0.202785 0
M  V30 9357 O 873.084 1.93936 1.20835 0
M  V30 9358 C 873.294 2.63117 -2.29282 0
M  V30 9359 C 874.642 3.31013 -2.65924 0
M  V30 9360 O 875.666 2.734 -2.28321 0
M  V30 9361 O 874.525 4.35129 -3.30643 0
M  V30 9362 H 871.619 0.679366 -0.471583 0
M  V30 9363 H 874.165 0.828446 -1.48104 0
M  V30 9364 H 872.937 2.19329 -3.24053 0
M  V30 9365 H 872.56 3.41476 -2.03666 0
M  V30 9366 O 873.596 1.32076 0.929425 0
M  V30 9367 H 874.287 1.14678 1.56105 0
M  V30 END ATOM
M  V30 BEGIN BOND
M  V30 END BOND
M  V30 END CTAB
M  END
$$$$
