drugbank_target|P18177 Toxin B (DB13140)
 OpenBabel12092121043D

  0  0  0     0  0            999 V3000
M  V30 BEGIN CTAB
M  V30 COUNTS 37417 37789 0 0 0
M  V30 BEGIN ATOM
M  V30 1 H -0.908 1.98254 -0.117106 0
M  V30 2 N 0 1.576 0 0
M  V30 3 C 0.933 2.03868 1.02534 0
M  V30 4 C 1.911 0.928543 1.3348 0
M  V30 5 O 3.095 1.19667 1.45644 0
M  V30 6 C 0.222 2.43627 2.35294 0
M  V30 7 C -0.732 3.65373 2.2001 0
M  V30 8 S 0.101 5.13292 1.52614 0
M  V30 9 C 1.257 5.56322 2.86805 0
M  V30 10 H 1.49 2.90518 0.631377 0
M  V30 11 H -0.977 1.52953 0.210867 0
M  V30 12 H 0.981 2.67203 3.11629 0
M  V30 13 H -0.358 1.57376 2.7183 0
M  V30 14 H -1.165 3.90944 3.18086 0
M  V30 15 H -1.563 3.418 1.51819 0
M  V30 16 H 0.729 5.58782 3.83104 0
M  V30 17 H 1.672 6.56266 2.65933 0
M  V30 18 H 2.08 4.83886 2.90714 0
M  V30 19 N 1.4781 -0.272755 1.55222 0
M  V30 20 C 2.7031 -1.02683 1.80197 0
M  V30 21 C 3.1281 -1.79142 0.573551 0
M  V30 22 O 2.4861 -1.74917 -0.476849 0
M  V30 23 C 2.5341 -1.9609 3.02624 0
M  V30 24 O 1.6381 -3.04863 2.77727 0
M  V30 25 H 0.9791 -0.293557 0.595584 0
M  V30 26 H 3.5091 -0.30159 2.02365 0
M  V30 27 H 3.5191 -2.38039 3.31363 0
M  V30 28 H 2.1941 -1.39851 3.91682 0
M  V30 29 H 0.7711 -2.67228 2.60084 0
M  V30 30 N 2.9562 -1.48159 -0.537278 0
M  V30 31 C 3.8862 -1.65029 -1.6519 0
M  V30 32 C 4.8672 -0.499281 -1.62607 0
M  V30 33 O 6.0522 -0.730972 -1.79918 0
M  V30 34 C 3.1822 -1.68303 -3.03795 0
M  V30 35 C 2.1362 -2.8283 -3.21234 0
M  V30 36 C 1.4622 -2.71189 -4.60826 0
M  V30 37 C 2.7622 -4.24211 -3.04701 0
M  V30 38 H 4.4562 -2.58341 -1.51328 0
M  V30 39 H 2.0022 -1.24325 -0.726585 0
M  V30 40 H 3.9552 -1.78693 -3.81637 0
M  V30 41 H 2.6792 -0.715635 -3.18663 0
M  V30 42 H 1.3382 -2.71983 -2.45807 0
M  V30 43 H 0.9862 -1.72435 -4.7252 0
M  V30 44 H 0.6862 -3.48035 -4.7344 0
M  V30 45 H 2.2102 -2.83537 -5.40777 0
M  V30 46 H 3.6242 -4.3593 -3.72341 0
M  V30 47 H 2.0212 -5.01998 -3.28813 0
M  V30 48 H 3.0912 -4.41184 -2.01209 0
M  V30 49 N 4.4343 0.785586 -1.36625 0
M  V30 50 C 5.6803 1.54591 -1.31261 0
M  V30 51 C 6.0133 1.93906 0.106823 0
M  V30 52 O 5.2883 1.63007 1.06108 0
M  V30 53 C 5.5713 2.82038 -2.23889 0
M  V30 54 C 5.4243 2.49066 -3.74548 0
M  V30 55 C 6.7433 3.83887 -2.15217 0
M  V30 56 H 3.8623 0.560846 -0.478143 0
M  V30 57 H 6.5043 0.902278 -1.67209 0
M  V30 58 H 4.6543 3.36961 -1.93363 0
M  V30 59 H 6.3263 2.00164 -4.15611 0
M  V30 60 H 4.5693 1.81954 -3.93796 0
M  V30 61 H 5.2403 3.40109 -4.34776 0
M  V30 62 H 7.7163 3.38421 -2.42096 0
M  V30 63 H 6.5923 4.70806 -2.82193 0
M  V30 64 H 6.8533 4.27131 -1.14068 0
M  V30 65 N 5.9124 1.20967 1.01018 0
M  V30 66 C 6.8604 0.961223 2.1181 0
M  V30 67 C 7.8544 -0.0897034 1.69162 0
M  V30 68 O 9.0604 0.0612271 1.79896 0
M  V30 69 H 5.4354 0.29355 0.692338 0
M  V30 70 H 7.4064 1.90178 2.29946 0
M  V30 71 C 6.1554 0.536854 3.4353 0
M  V30 72 H 5.4784 1.33713 3.76777 0
M  V30 73 H 6.9184 0.402286 4.22087 0
M  V30 74 C 5.3774 -0.751574 3.2841 0
M  V30 75 O 5.9074 -1.80841 3.58691 0
M  V30 76 N 4.1134 -0.716079 2.81639 0
M  V30 77 H 3.6604 0.144236 2.57196 0
M  V30 78 H 3.6184 -1.57847 2.71904 0
M  V30 79 N 7.3905 -1.2043 1.01659 0
M  V30 80 C 8.8065 -1.41852 0.731442 0
M  V30 81 C 9.0065 -1.89358 -0.688898 0
M  V30 82 O 8.0625 -2.06247 -1.45666 0
M  V30 83 C 9.3755 -2.44019 1.75714 0
M  V30 84 C 10.9235 -2.57785 1.77527 0
M  V30 85 C 11.3985 -3.63194 2.79023 0
M  V30 86 N 12.8895 -3.70678 2.77763 0
M  V30 87 C 13.6245 -4.51897 3.52954 0
M  V30 88 N 13.1205 -5.36921 4.37821 0
M  V30 89 N 14.9135 -4.4643 3.41551 0
M  V30 90 H 7.0645 -0.879093 1.93354 0
M  V30 91 H 9.3275 -0.448425 0.835236 0
M  V30 92 H 9.0335 -2.1611 2.77469 0
M  V30 93 H 8.9075 -3.43007 1.56927 0
M  V30 94 H 11.2945 -2.85023 0.764569 0
M  V30 95 H 11.3755 -1.58992 2.00387 0
M  V30 96 H 11.0195 -3.36699 3.80258 0
M  V30 97 H 10.9495 -4.61609 2.53425 0
M  V30 98 H 13.4405 -3.09944 2.16201 0
M  V30 99 H 13.7535 -5.95981 4.91962 0
M  V30 100 H 12.0985 -5.36424 4.41899 0
M  V30 101 H 15.2895 -3.79042 2.74672 0
M  V30 102 H 15.4625 -5.09491 4.00404 0
M  V30 103 N 8.8686 -0.792821 -1.36206 0
M  V30 104 C 9.8156 -0.191653 -2.30003 0
M  V30 105 C 10.7856 0.666453 -1.52143 0
M  V30 106 O 11.9706 0.61442 -1.80636 0
M  V30 107 C 9.1106 0.664848 -3.38635 0
M  V30 108 C 8.2236 -0.212175 -4.31479 0
M  V30 109 C 7.3586 0.651022 -5.27196 0
M  V30 110 C 6.3976 -0.227247 -6.11678 0
M  V30 111 N 5.5346 0.595127 -6.99573 0
M  V30 112 H 10.3746 -0.996978 -2.80828 0
M  V30 113 H 7.9116 -0.503206 -1.38225 0
M  V30 114 H 9.8696 1.17645 -4.00269 0
M  V30 115 H 8.4996 1.43557 -2.89122 0
M  V30 116 H 7.5516 -0.841777 -3.70969 0
M  V30 117 H 8.8636 -0.888751 -4.90818 0
M  V30 118 H 8.0176 1.2283 -5.94136 0
M  V30 119 H 6.7566 1.36121 -4.68319 0
M  V30 120 H 5.7616 -0.816904 -5.43697 0
M  V30 121 H 6.9866 -0.93509 -6.72631 0
M  V30 122 H 4.9326 1.28955 -6.432 0
M  V30 123 H 4.8496 -0.0236952 -7.55996 0
M  V30 124 H 6.1176 1.15613 -7.70879 0
M  V30 125 N 10.3467 1.47872 -0.545128 0
M  V30 126 C 11.2787 2.27869 0.246621 0
M  V30 127 C 12.2917 1.36282 0.890561 0
M  V30 128 O 13.4807 1.61207 0.766449 0
M  V30 129 C 10.5807 3.10159 1.36582 0
M  V30 130 C 9.7537 4.29627 0.820954 0
M  V30 131 C 8.8127 4.93607 1.82314 0
M  V30 132 O 7.8387 5.52366 1.37406 0
M  V30 133 N 9.0407 4.87211 3.15603 0
M  V30 134 H 11.8057 2.96459 -0.439539 0
M  V30 135 H 9.3667 1.57367 -0.380421 0
M  V30 136 H 11.3587 3.49829 2.03474 0
M  V30 137 H 9.9287 2.43891 1.9554 0
M  V30 138 H 9.1487 3.94192 -0.0244032 0
M  V30 139 H 10.4367 5.06928 0.436063 0
M  V30 140 H 9.8347 4.40651 3.54744 0
M  V30 141 H 8.3917 5.30937 3.78087 0
M  V30 142 N 11.8248 0.280983 1.55075 0
M  V30 143 C 12.7548 -0.597469 2.25727 0
M  V30 144 C 13.7358 -1.15417 1.24952 0
M  V30 145 O 14.9208 -1.18722 1.53684 0
M  V30 146 C 12.0508 -1.7789 2.98283 0
M  V30 147 C 11.0048 -1.35347 4.06036 0
M  V30 148 C 10.3308 -2.61846 4.66198 0
M  V30 149 C 11.6308 -0.499354 5.19907 0
M  V30 150 H 13.3248 -0.00824265 2.99399 0
M  V30 151 H 10.8708 -0.0025244 1.44 0
M  V30 152 H 12.8238 -2.39937 3.46422 0
M  V30 153 H 11.5478 -2.39405 2.22155 0
M  V30 154 H 10.2068 -0.756156 3.58717 0
M  V30 155 H 9.8548 -3.21632 3.86732 0
M  V30 156 H 9.5548 -2.3409 5.38958 0
M  V30 157 H 11.0788 -3.24732 5.1709 0
M  V30 158 H 12.4928 -1.02498 5.64063 0
M  V30 159 H 10.8898 -0.316424 5.99265 0
M  V30 160 H 11.9598 0.480459 4.82514 0
M  V30 161 N 13.3029 -1.57598 0.00835791 0
M  V30 162 C 14.2129 -2.12385 -0.996487 0
M  V30 163 C 15.2289 -1.07108 -1.37127 0
M  V30 164 O 16.4049 -1.39055 -1.4569 0
M  V30 165 C 13.4699 -2.62314 -2.26699 0
M  V30 166 C 12.5309 -3.82225 -1.95456 0
M  V30 167 C 11.7639 -4.29763 -3.16449 0
M  V30 168 O 11.9869 -3.76584 -4.28416 0
M  V30 169 O 10.9209 -5.21832 -2.99958 0
M  V30 170 H 14.7469 -2.98479 -0.560725 0
M  V30 171 H 12.3319 -1.47903 -0.210987 0
M  V30 172 H 14.2139 -2.94589 -3.01322 0
M  V30 173 H 12.8889 -1.79313 -2.69497 0
M  V30 174 H 11.7959 -3.54909 -1.18282 0
M  V30 175 H 13.1289 -4.66324 -1.57489 0
M  V30 176 N 14.781 0.264519 -1.55364 0
M  V30 177 C 15.728 1.32717 -1.88825 0
M  V30 178 C 16.698 1.48675 -0.740605 0
M  V30 179 O 17.883 1.62945 -0.992657 0
M  V30 180 C 15.023 2.68089 -2.17307 0
M  V30 181 C 14.136 2.60284 -3.44785 0
M  V30 182 C 13.271 3.87892 -3.62924 0
M  V30 183 C 12.31 3.74631 -4.84064 0
M  V30 184 N 11.447 4.94092 -4.98816 0
M  V30 185 H 16.287 1.03481 -2.79456 0
M  V30 186 H 13.824 0.499757 -1.3835 0
M  V30 187 H 15.782 3.46864 -2.31821 0
M  V30 188 H 14.412 2.95509 -1.299 0
M  V30 189 H 13.464 1.73173 -3.38697 0
M  V30 190 H 14.776 2.46388 -4.33698 0
M  V30 191 H 13.93 4.75109 -3.77302 0
M  V30 192 H 12.669 4.04664 -2.7221 0
M  V30 193 H 11.674 2.85797 -4.69681 0
M  V30 194 H 12.899 3.5937 -5.76221 0
M  V30 195 H 10.845 5.11259 -4.11036 0
M  V30 196 H 10.762 4.8276 -5.81789 0
M  V30 197 H 12.03 5.82857 -5.17588 0
M  V30 198 N 16.2591 1.48442 0.529413 0
M  V30 199 C 17.1921 1.57577 1.65059 0
M  V30 200 C 18.1701 0.426198 1.56915 0
M  V30 201 O 19.3541 0.637877 1.77379 0
M  V30 202 C 16.4811 1.5043 3.03461 0
M  V30 203 C 15.5271 2.70235 3.29962 0
M  V30 204 S 16.3601 4.32198 3.16172 0
M  V30 205 C 17.5161 4.2765 4.57019 0
M  V30 206 H 17.7491 2.52427 1.5706 0
M  V30 207 H 15.2821 1.36982 0.712417 0
M  V30 208 H 17.2401 1.46992 3.8328 0
M  V30 209 H 15.9011 0.569167 3.089 0
M  V30 210 H 15.0941 2.61374 4.30929 0
M  V30 211 H 14.6961 2.70938 2.57815 0
M  V30 212 H 16.9881 3.97618 5.48549 0
M  V30 213 H 17.9311 5.28797 4.70934 0
M  V30 214 H 18.3391 3.5811 4.36368 0
M  V30 215 N 17.7372 -0.778329 1.37039 0
M  V30 216 C 18.7002 -1.87301 1.32102 0
M  V30 217 C 19.7002 -1.59198 0.226405 0
M  V30 218 O 20.8902 -1.67403 0.481861 0
M  V30 219 C 18.0222 -3.24309 1.05055 0
M  V30 220 H 19.2152 -1.93093 2.29467 0
M  V30 221 H 16.7682 -0.977358 1.21973 0
M  V30 222 H 17.5032 -3.24196 0.0819373 0
M  V30 223 H 17.2882 -3.46098 1.84279 0
M  V30 224 H 18.7782 -4.04382 1.04234 0
M  V30 225 N 19.2153 -1.21501 -1.00376 0
M  V30 226 C 20.1633 -0.972442 -2.11297 0
M  V30 227 C 21.1573 0.080731 -1.69208 0
M  V30 228 O 22.3633 -0.0707666 -1.79861 0
M  V30 229 H 18.7383 -0.297218 -0.690772 0
M  V30 230 H 20.7093 -1.91394 -2.28934 0
M  V30 231 C 19.4583 -0.555065 -3.43241 0
M  V30 232 H 18.7813 -1.35709 -3.76062 0
M  V30 233 H 20.2213 -0.424664 -4.21868 0
M  V30 234 C 18.6803 0.734147 -3.28804 0
M  V30 235 O 19.2103 1.78937 -3.59645 0
M  V30 236 N 17.4163 0.701133 -2.82015 0
M  V30 237 H 16.9633 -0.157874 -2.57116 0
M  V30 238 H 16.9213 1.56403 -2.72737 0
M  V30 239 N 20.6934 1.19889 -1.02296 0
M  V30 240 C 21.9394 1.89701 -0.717033 0
M  V30 241 C 22.2724 1.7905 0.751989 0
M  V30 242 O 21.5474 1.17891 1.547 0
M  V30 243 C 21.8304 3.40858 -1.16136 0
M  V30 244 C 21.6834 3.60411 -2.69117 0
M  V30 245 C 23.0024 4.33876 -0.737549 0
M  V30 246 H 20.1214 0.688874 -0.261957 0
M  V30 247 H 22.7634 1.41154 -1.27183 0
M  V30 248 H 20.9134 3.82335 -0.689342 0
M  V30 249 H 22.5854 3.28145 -3.2422 0
M  V30 250 H 20.8284 3.03665 -3.0979 0
M  V30 251 H 21.4994 4.66396 -2.95261 0
M  V30 252 H 23.9754 4.00081 -1.14344 0
M  V30 253 H 22.8514 5.38242 -1.0764 0
M  V30 254 H 23.1124 4.40628 0.360436 0
M  V30 255 N 22.1715 0.800033 1.35784 0
M  V30 256 C 23.5875 0.482977 1.52117 0
M  V30 257 C 23.7875 -0.996948 1.75109 0
M  V30 258 O 22.8435 -1.78216 1.78872 0
M  V30 259 C 24.1565 1.32264 2.70049 0
M  V30 260 C 25.7045 1.31742 2.83924 0
M  V30 261 C 26.1795 2.14106 4.04874 0
M  V30 262 N 27.6705 2.11607 4.12039 0
M  V30 263 C 28.4055 2.72099 5.04727 0
M  V30 264 N 27.9015 3.41492 6.02789 0
M  V30 265 N 29.6945 2.61776 4.97423 0
M  V30 266 H 21.8455 1.75856 1.19115 0
M  V30 267 H 24.1085 0.748122 0.582252 0
M  V30 268 H 23.8145 2.37261 2.59616 0
M  V30 269 H 23.6885 0.971303 3.6448 0
M  V30 270 H 26.0755 0.275333 2.93813 0
M  V30 271 H 26.1565 1.70859 1.9037 0
M  V30 272 H 25.8005 3.18351 3.95746 0
M  V30 273 H 25.7305 1.72353 4.97596 0
M  V30 274 H 28.2215 1.61112 3.41835 0
M  V30 275 H 28.5345 3.84953 6.70098 0
M  V30 276 H 26.8795 3.45596 6.02983 0
M  V30 277 H 30.0705 2.07157 4.19766 0
M  V30 278 H 30.2435 3.0921 5.69468 0
M  V30 279 N 23.6496 -1.47581 0.552962 0
M  V30 280 C 24.8966 -2.02482 0.0273243 0
M  V30 281 C 25.2246 -1.42776 -1.32081 0
M  V30 282 O 24.4796 -0.571393 -1.87173 0
M  V30 283 C 24.7786 -3.57199 -0.119728 0
M  V30 284 C 24.4446 -4.35804 1.15697 0
M  V30 285 C 23.1066 -4.57 1.50681 0
M  V30 286 C 25.4586 -4.81167 2.00319 0
M  V30 287 C 22.7866 -5.20807 2.70142 0
M  V30 288 C 25.1386 -5.46293 3.18978 0
M  V30 289 C 23.8026 -5.65722 3.54281 0
M  V30 290 H 23.0726 -0.740933 0.00999866 0
M  V30 291 H 25.7196 -1.77302 0.72362 0
M  V30 292 H 24.0246 -3.81348 -0.89896 0
M  V30 293 H 25.7216 -3.97324 -0.541718 0
M  V30 294 H 22.3116 -4.19582 0.874561 0
M  V30 295 H 26.4956 -4.64574 1.74599 0
M  V30 296 H 21.7516 -5.34045 2.97668 0
M  V30 297 H 25.9256 -5.80407 3.84838 0
M  V30 298 H 23.5526 -6.14936 4.46942 0
M  V30 299 N 25.1277 -0.289203 -1.54924 0
M  V30 300 C 26.5437 0.0645403 -1.59469 0
M  V30 301 C 26.7437 1.53419 -1.30632 0
M  V30 302 O 25.7997 2.2852 -1.074 0
M  V30 303 C 27.1127 -0.32278 -2.98963 0
M  V30 304 C 28.6607 -0.270564 -3.11828 0
M  V30 305 C 29.1357 -0.632532 -4.53611 0
M  V30 306 N 30.6267 -0.584617 -4.59496 0
M  V30 307 C 31.3617 -0.837314 -5.67254 0
M  V30 308 N 30.8577 -1.15536 -6.83098 0
M  V30 309 N 32.6507 -0.765166 -5.56868 0
M  V30 310 H 24.8017 -1.24714 -1.71931 0
M  V30 311 H 27.0647 -0.504809 -0.802416 0
M  V30 312 H 26.7707 -1.34541 -3.24948 0
M  V30 313 H 26.6447 0.32944 -3.75759 0
M  V30 314 H 29.0317 0.742805 -2.85598 0
M  V30 315 H 29.1127 -0.957242 -2.37214 0
M  V30 316 H 28.7567 -1.64365 -4.80569 0
M  V30 317 H 28.6867 0.07609 -5.26545 0
M  V30 318 H 31.1777 -0.349248 -3.76283 0
M  V30 319 H 31.4907 -1.33447 -7.61191 0
M  V30 320 H 29.8357 -1.19328 -6.84679 0
M  V30 321 H 33.0267 -0.516432 -4.65243 0
M  V30 322 H 33.1997 -0.965477 -6.40767 0
M  V30 323 N 26.6058 1.57591 -0.0167156 0
M  V30 324 C 27.8338 1.95575 0.675128 0
M  V30 325 C 28.2488 0.892542 1.6637 0
M  V30 326 O 27.6058 -0.126912 1.82058 0
M  V30 327 C 27.6568 3.33608 1.39239 0
M  V30 328 O 27.3778 4.3585 0.443444 0
M  V30 329 C 28.8788 3.86151 2.17721 0
M  V30 330 H 26.0988 0.644423 0.186978 0
M  V30 331 H 28.6428 2.0437 -0.0728 0
M  V30 332 H 26.7978 3.2607 2.09182 0
M  V30 333 H 27.2118 5.158 0.951358 0
M  V30 334 H 28.6858 4.85114 2.63379 0
M  V30 335 H 29.1628 3.19738 3.01105 0
M  V30 336 H 29.7688 3.96918 1.52761 0
M  V30 337 N 28.0839 -0.256276 1.55502 0
M  V30 338 C 29.0159 -1.33981 1.85962 0
M  V30 339 C 30.0289 -1.44743 0.745212 0
M  V30 340 O 31.2179 -1.4626 1.02324 0
M  V30 341 C 28.3179 -2.7194 2.02242 0
M  V30 342 C 27.4909 -2.83562 3.33033 0
M  V30 343 C 26.5499 -4.02304 3.39172 0
M  V30 344 O 25.5759 -3.92273 4.12444 0
M  V30 345 N 26.7779 -5.15045 2.67784 0
M  V30 346 H 29.5429 -1.08191 2.7949 0
M  V30 347 H 27.1039 -0.446388 1.55624 0
M  V30 348 H 29.0959 -3.49697 2.03701 0
M  V30 349 H 27.6659 -2.90479 1.15502 0
M  V30 350 H 26.8859 -1.92555 3.43971 0
M  V30 351 H 28.1739 -2.88271 4.19258 0
M  V30 352 H 27.5719 -5.26085 2.07968 0
M  V30 353 H 26.1289 -5.90972 2.74947 0
M  V30 354 N 29.562 -1.4872 -0.521534 0
M  V30 355 C 30.472 -1.66569 -1.65203 0
M  V30 356 C 31.488 -0.548197 -1.65139 0
M  V30 357 O 32.664 -0.820339 -1.83936 0
M  V30 358 C 29.729 -1.70917 -3.01642 0
M  V30 359 C 28.79 -2.94356 -3.12495 0
M  V30 360 C 28.023 -2.98487 -4.42426 0
M  V30 361 O 28.246 -2.10786 -5.30024 0
M  V30 362 O 27.18 -3.90746 -4.57822 0
M  V30 363 H 31.006 -2.62298 -1.5308 0
M  V30 364 H 28.591 -1.3222 -0.695565 0
M  V30 365 H 30.473 -1.7625 -3.82771 0
M  V30 366 H 29.148 -0.783633 -3.14071 0
M  V30 367 H 28.055 -2.94552 -2.3063 0
M  V30 368 H 29.388 -3.86322 -3.04986 0
M  V30 369 N 31.0401 0.771051 -1.3745 0
M  V30 370 C 32.3171 1.519 -1.23231 0
M  V30 371 C 32.6971 2.10383 0.173809 0
M  V30 372 O 32.0451 1.95583 1.18151 0
M  V30 373 C 32.2551 2.59933 -2.32886 0
M  V30 374 C 33.6031 3.27316 -2.70461 0
M  V30 375 O 34.6271 2.70228 -2.32068 0
M  V30 376 O 33.4861 4.30531 -3.36608 0
M  V30 377 H 30.5801 0.672803 -0.480901 0
M  V30 378 H 33.1261 0.807957 -1.49232 0
M  V30 379 H 31.8981 2.14842 -3.27045 0
M  V30 380 H 31.5211 3.38637 -2.08353 0
M  V30 381 N 32.5182 1.22032 0.997298 0
M  V30 382 C 33.4282 1.00271 2.12092 0
M  V30 383 C 34.4442 -0.047621 1.73935 0
M  V30 384 O 35.6202 0.144136 2.00884 0
M  V30 385 C 32.6852 0.578449 3.4184 0
M  V30 386 C 31.7462 1.70189 3.94125 0
M  V30 387 C 30.9792 1.29778 5.17681 0
M  V30 388 O 31.2022 0.174676 5.70132 0
M  V30 389 O 30.1362 2.11261 5.63607 0
M  V30 390 H 33.9622 1.94398 2.3333 0
M  V30 391 H 31.5472 1.00587 1.10465 0
M  V30 392 H 33.4292 0.351998 4.19927 0
M  V30 393 H 32.1042 -0.334019 3.21972 0
M  V30 394 H 31.0112 1.98282 3.1723 0
M  V30 395 H 32.3442 2.59206 4.18417 0
M  V30 396 N 33.9963 -1.19345 1.0293 0
M  V30 397 C 35.2263 -1.92717 0.744563 0
M  V30 398 C 35.6343 -1.75751 -0.700579 0
M  V30 399 O 34.9773 -1.07703 -1.48815 0
M  V30 400 C 35.0393 -3.44828 1.01657 0
M  V30 401 C 34.7033 -3.85564 2.45335 0
M  V30 402 C 35.7003 -3.90286 3.43472 0
M  V30 403 C 33.3853 -4.1719 2.79746 0
M  V30 404 C 35.3793 -4.26065 4.74075 0
M  V30 405 C 33.0663 -4.52642 4.10559 0
M  V30 406 C 34.0643 -4.57054 5.07534 0
M  V30 407 O 33.7523 -4.91685 6.36004 0
M  V30 408 H 33.4843 -0.618977 0.271742 0
M  V30 409 H 36.0383 -1.52415 1.37691 0
M  V30 410 H 34.2683 -3.85314 0.327084 0
M  V30 411 H 35.9573 -3.99437 0.721427 0
M  V30 412 H 36.7233 -3.66002 3.18225 0
M  V30 413 H 32.6023 -4.1294 2.04943 0
M  V30 414 H 36.1463 -4.29423 5.49765 0
M  V30 415 H 32.0433 -4.76383 4.35579 0
M  V30 416 H 32.8113 -5.09631 6.40483 0
M  V30 417 N 35.4744 -0.807222 -1.35358 0
M  V30 418 C 36.7204 -0.388463 -1.99045 0
M  V30 419 C 37.0534 1.04184 -1.63888 0
M  V30 420 O 36.3284 1.72292 -0.902535 0
M  V30 421 C 36.6114 -0.572783 -3.55515 0
M  V30 422 C 36.4644 -2.04807 -4.00468 0
M  V30 423 C 37.7834 0.00114064 -4.401 0
M  V30 424 H 34.9024 -0.142619 -0.723069 0
M  V30 425 H 37.5444 -1.01687 -1.60498 0
M  V30 426 H 35.6944 -0.0378425 -3.88482 0
M  V30 427 H 37.3664 -2.64544 -3.77908 0
M  V30 428 H 35.6094 -2.54427 -3.51353 0
M  V30 429 H 36.2804 -2.12792 -5.09337 0
M  V30 430 H 38.7564 -0.455716 -4.13597 0
M  V30 431 H 37.6324 -0.157737 -5.48673 0
M  V30 432 H 37.8934 1.09488 -4.28328 0
M  V30 433 N 36.9525 1.47285 -0.560781 0
M  V30 434 C 37.9155 2.28535 0.174488 0
M  V30 435 C 38.9155 1.37153 0.839388 0
M  V30 436 O 40.1055 1.59748 0.694702 0
M  V30 437 C 37.2375 3.16934 1.25561 0
M  V30 438 H 38.4305 2.95012 -0.539262 0
M  V30 439 H 35.9835 1.53034 -0.317865 0
M  V30 440 H 36.7185 2.55157 2.00164 0
M  V30 441 H 36.5035 3.8419 0.783604 0
M  V30 442 H 37.9935 3.78143 1.77193 0
M  V30 443 N 38.4306 0.297415 1.54768 0
M  V30 444 C 39.6796 -0.313669 1.99246 0
M  V30 445 C 39.9926 -1.55281 1.18942 0
M  V30 446 O 41.1986 -2.23825 1.5367 0
M  V30 447 C 39.6546 -0.609407 3.54703 0
M  V30 448 C 39.2626 0.611192 4.43811 0
M  V30 449 C 41.0066 -1.18188 4.07715 0
M  V30 450 C 38.9136 0.288805 5.90694 0
M  V30 451 H 37.8436 -0.120979 0.744231 0
M  V30 452 H 40.4946 0.40556 1.78962 0
M  V30 453 H 38.8766 -1.38813 3.70873 0
M  V30 454 H 40.0506 1.3875 4.39414 0
M  V30 455 H 38.3656 1.10205 4.01552 0
M  V30 456 H 40.9626 -1.43727 5.15021 0
M  V30 457 H 41.3056 -2.12299 3.58099 0
M  V30 458 H 41.8386 -0.464944 3.95074 0
M  V30 459 H 38.5776 1.19838 6.44453 0
M  V30 460 H 38.0976 -0.450305 5.98107 0
M  V30 461 H 39.7766 -0.110933 6.46905 0
M  V30 462 N 39.9087 -1.5758 0.0250728 0
M  V30 463 C 40.8387 -2.13007 -0.956575 0
M  V30 464 C 41.8197 -1.0452 -1.342 0
M  V30 465 O 43.0047 -1.32332 -1.42133 0
M  V30 466 C 40.1347 -2.65386 -2.24026 0
M  V30 467 C 39.0887 -3.78623 -1.99571 0
M  V30 468 C 38.4147 -4.17414 -3.3417 0
M  V30 469 C 39.7147 -5.04867 -1.33814 0
M  V30 470 H 41.4087 -2.9528 -0.494991 0
M  V30 471 H 38.9547 -1.42042 -0.236651 0
M  V30 472 H 40.9077 -3.02794 -2.93076 0
M  V30 473 H 39.6317 -1.80268 -2.72343 0
M  V30 474 H 38.2907 -3.41646 -1.32941 0
M  V30 475 H 37.9387 -3.29284 -3.80238 0
M  V30 476 H 37.6387 -4.93719 -3.18615 0
M  V30 477 H 39.1627 -4.57402 -4.04495 0
M  V30 478 H 40.5767 -5.39888 -1.92857 0
M  V30 479 H 38.9737 -5.86144 -1.28669 0
M  V30 480 H 40.0437 -4.83904 -0.310561 0
M  V30 481 N 41.3868 0.248026 -1.55636 0
M  V30 482 C 42.6638 0.998988 -1.68165 0
M  V30 483 C 43.0438 2.03409 -0.564621 0
M  V30 484 O 42.3918 2.24378 0.432076 0
M  V30 485 C 42.6018 1.63334 -3.0842 0
M  V30 486 C 43.9498 2.13562 -3.66983 0
M  V30 487 O 44.9738 1.73277 -3.11213 0
M  V30 488 O 43.8328 2.87526 -4.64749 0
M  V30 489 H 40.9268 0.464933 -0.683935 0
M  V30 490 H 43.4728 0.241902 -1.67967 0
M  V30 491 H 42.2448 0.884583 -3.8117 0
M  V30 492 H 41.8678 2.45666 -3.12624 0
M  V30 493 N 42.8649 1.48995 0.513639 0
M  V30 494 C 43.8279 1.64229 1.59879 0
M  V30 495 C 44.8279 0.514696 1.5234 0
M  V30 496 O 46.0179 0.78087 1.55718 0
M  V30 497 C 43.1499 1.62783 2.99524 0
M  V30 498 H 44.3429 2.61004 1.47705 0
M  V30 499 H 41.8959 1.37837 0.736936 0
M  V30 500 H 42.6309 0.675461 3.17188 0
M  V30 501 H 42.4159 2.4466 3.06404 0
M  V30 502 H 43.9059 1.76669 3.78388 0
M  V30 503 N 44.343 -0.763751 1.37857 0
M  V30 504 C 45.273 -1.89103 1.36975 0
M  V30 505 C 46.254 -1.68439 0.237152 0
M  V30 506 O 47.439 -1.8918 0.438713 0
M  V30 507 C 44.569 -3.26496 1.18395 0
M  V30 508 C 43.523 -3.61741 2.28751 0
M  V30 509 C 42.849 -4.97762 1.95286 0
M  V30 510 C 44.149 -3.67665 3.70972 0
M  V30 511 H 45.843 -1.90099 2.31307 0
M  V30 512 H 43.389 -0.91319 1.11341 0
M  V30 513 H 45.342 -4.05003 1.16406 0
M  V30 514 H 44.066 -3.25955 0.205215 0
M  V30 515 H 42.725 -2.85547 2.29909 0
M  V30 516 H 42.373 -4.93769 0.959221 0
M  V30 517 H 42.073 -5.22313 2.69189 0
M  V30 518 H 43.597 -5.7866 1.94898 0
M  V30 519 H 45.011 -4.36307 3.719 0
M  V30 520 H 43.408 -4.03718 4.43995 0
M  V30 521 H 44.478 -2.68134 4.0402 0
M  V30 522 N 45.8211 -1.22559 -0.990812 0
M  V30 523 C 46.7311 -1.01394 -2.11557 0
M  V30 524 C 47.7471 0.0383962 -1.73958 0
M  V30 525 O 48.9231 -0.154787 -2.00804 0
M  V30 526 C 45.9881 -0.596569 -3.41529 0
M  V30 527 C 45.0491 -1.72276 -3.93217 0
M  V30 528 C 44.2821 -1.32521 -5.16985 0
M  V30 529 O 44.5051 -0.204909 -5.70032 0
M  V30 530 O 43.4391 -2.14247 -5.62478 0
M  V30 531 H 47.2651 -1.95633 -2.32296 0
M  V30 532 H 44.8501 -1.01172 -1.0993 0
M  V30 533 H 46.7321 -0.374263 -4.19735 0
M  V30 534 H 45.4071 0.316939 -3.22145 0
M  V30 535 H 44.3141 -1.99961 -3.16174 0
M  V30 536 H 45.6471 -2.61421 -4.17037 0
M  V30 537 N 47.2992 1.18797 -1.03562 0
M  V30 538 C 48.2092 2.25913 -0.632505 0
M  V30 539 C 49.2252 1.70668 0.338882 0
M  V30 540 O 50.4012 2.00453 0.195076 0
M  V30 541 C 47.4662 3.467 0.00350942 0
M  V30 542 C 46.5272 4.17098 -1.01624 0
M  V30 543 C 45.7602 5.32119 -0.410478 0
M  V30 544 O 45.9832 5.64976 0.784725 0
M  V30 545 O 44.9172 5.9107 -1.13667 0
M  V30 546 H 48.7432 2.62648 -1.52478 0
M  V30 547 H 46.3282 1.25781 -0.806195 0
M  V30 548 H 48.2102 4.19878 0.35781 0
M  V30 549 H 46.8852 3.11798 0.869686 0
M  V30 550 H 45.7922 3.4601 -1.42224 0
M  V30 551 H 47.1252 4.55987 -1.85301 0
M  V30 552 N 48.7773 0.814389 1.34928 0
M  V30 553 C 50.0073 0.41054 2.0248 0
M  V30 554 C 50.4153 -0.985625 1.61499 0
M  V30 555 O 49.7583 -1.64781 0.811976 0
M  V30 556 C 49.8203 0.423384 3.56998 0
M  V30 557 C 49.4843 1.77141 4.21272 0
M  V30 558 C 50.4813 2.73093 4.42398 0
M  V30 559 C 48.1663 2.05755 4.58225 0
M  V30 560 C 50.1603 3.95838 4.9959 0
M  V30 561 C 47.8473 3.28762 5.1513 0
M  V30 562 C 48.8453 4.23621 5.35755 0
M  V30 563 O 48.5333 5.44456 5.91458 0
M  V30 564 H 48.2653 0.163997 0.655806 0
M  V30 565 H 50.8193 1.10155 1.73364 0
M  V30 566 H 49.0493 -0.324276 3.85338 0
M  V30 567 H 50.7383 0.0407683 4.0588 0
M  V30 568 H 51.5043 2.5228 4.14222 0
M  V30 569 H 47.3833 1.32727 4.4148 0
M  V30 570 H 50.9273 4.69891 5.15605 0
M  V30 571 H 46.8243 3.49443 5.42734 0
M  V30 572 H 47.5923 5.4586 6.09901 0
M  V30 573 N 50.2554 -1.46986 0.568584 0
M  V30 574 C 51.2054 -2.27179 -0.193339 0
M  V30 575 C 52.1894 -1.35035 -0.874895 0
M  V30 576 O 53.3814 -1.5931 -0.771322 0
M  V30 577 C 50.5104 -3.21063 -1.21546 0
M  V30 578 C 49.5964 -4.2069 -0.536738 0
M  V30 579 N 49.9874 -5.04218 0.399673 0
M  V30 580 C 48.2854 -4.38961 -0.789254 0
M  V30 581 C 48.9864 -5.76242 0.795017 0
M  V30 582 N 47.9624 -5.434 0.1473 0
M  V30 583 H 51.7644 -2.89146 0.526458 0
M  V30 584 H 49.2784 -1.57664 0.389342 0
M  V30 585 H 51.2754 -3.77209 -1.77536 0
M  V30 586 H 49.9354 -2.60654 -1.93623 0
M  V30 587 H 50.9464 -5.12077 0.774454 0
M  V30 588 H 47.6234 -3.89713 -1.49767 0
M  V30 589 H 49.0134 -6.53417 1.56513 0
M  V30 590 N 51.7335 -0.305618 -1.54608 0
M  V30 591 C 52.6815 0.584119 -2.25146 0
M  V30 592 C 53.6755 1.13326 -1.25911 0
M  V30 593 O 54.8815 1.08337 -1.43747 0
M  V30 594 H 51.2565 0.206983 -0.722954 0
M  V30 595 H 53.2275 -0.033291 -2.98381 0
M  V30 596 C 51.9765 1.74225 -3.009 0
M  V30 597 H 51.2995 1.32892 -3.77067 0
M  V30 598 H 52.7395 2.34077 -3.53531 0
M  V30 599 C 51.1985 2.64914 -2.0814 0
M  V30 600 O 51.7285 3.66137 -1.65246 0
M  V30 601 N 49.9345 2.3275 -1.74 0
M  V30 602 H 49.4815 1.50479 -2.09078 0
M  V30 603 H 49.4395 2.93694 -1.12211 0
M  V30 604 N 53.2116 1.57565 -0.0334293 0
M  V30 605 C 54.1446 2.05997 0.981866 0
M  V30 606 C 55.1226 0.956647 1.3148 0
M  V30 607 O 56.3066 1.22729 1.43073 0
M  V30 608 C 53.4336 2.48564 2.30074 0
M  V30 609 C 52.4796 3.69958 2.12211 0
M  V30 610 S 53.3126 5.16414 1.41692 0
M  V30 611 C 54.4686 5.6228 2.7494 0
M  V30 612 H 54.7016 2.91792 0.569612 0
M  V30 613 H 52.2346 1.53366 0.178376 0
M  V30 614 H 54.1926 2.73753 3.05892 0
M  V30 615 H 52.8536 1.63106 2.68431 0
M  V30 616 H 52.0466 3.97603 3.09722 0
M  V30 617 H 51.6486 3.44943 1.44535 0
M  V30 618 H 53.9406 5.66783 3.71165 0
M  V30 619 H 54.8836 6.61759 2.51953 0
M  V30 620 H 55.2916 4.89944 2.80384 0
M  V30 621 N 54.6897 -0.239769 1.55765 0
M  V30 622 C 55.9147 -0.988373 1.82335 0
M  V30 623 C 56.3397 -1.77886 0.611421 0
M  V30 624 O 55.6977 -1.75889 -0.439639 0
M  V30 625 C 55.7457 -1.89627 3.06715 0
M  V30 626 O 54.8497 -2.98904 2.84131 0
M  V30 627 H 54.1907 -0.280858 0.601677 0
M  V30 628 H 56.7207 -0.258597 2.02959 0
M  V30 629 H 56.7307 -2.30957 3.36338 0
M  V30 630 H 55.4057 -1.31511 3.9456 0
M  V30 631 H 53.9827 -2.61651 2.65694 0
M  V30 632 N 56.1678 -1.49265 -0.50573 0
M  V30 633 C 57.0778 -1.68312 -1.63427 0
M  V30 634 C 58.0938 -0.565682 -1.64548 0
M  V30 635 O 59.2698 -0.839801 -1.83055 0
M  V30 636 C 56.3348 -1.74107 -2.99813 0
M  V30 637 C 55.3958 -2.97653 -3.09356 0
M  V30 638 C 54.6288 -3.03163 -4.39236 0
M  V30 639 O 54.8518 -2.16396 -5.27758 0
M  V30 640 O 53.7858 -3.9558 -4.53652 0
M  V30 641 H 57.6118 -2.63907 -1.50289 0
M  V30 642 H 55.1968 -1.32951 -0.681502 0
M  V30 643 H 57.0788 -1.803 -3.80881 0
M  V30 644 H 55.7538 -0.816901 -3.13223 0
M  V30 645 H 54.6608 -2.96981 -2.27493 0
M  V30 646 H 55.9938 -3.89535 -3.00871 0
M  V30 647 N 57.6459 0.756429 -1.3826 0
M  V30 648 C 58.5939 1.89149 -1.35372 0
M  V30 649 C 59.5879 1.67691 -0.24004 0
M  V30 650 O 60.7939 1.75294 -0.408919 0
M  V30 651 H 57.1689 0.622271 -0.422236 0
M  V30 652 H 59.1399 1.88701 -2.31159 0
M  V30 653 C 57.8889 3.26599 -1.19284 0
M  V30 654 H 57.2119 3.43695 -2.0424 0
M  V30 655 H 58.6519 4.06274 -1.21316 0
M  V30 656 C 57.1109 3.3675 0.100454 0
M  V30 657 O 57.6409 3.86951 1.07851 0
M  V30 658 N 55.8469 2.90179 0.15633 0
M  V30 659 H 55.3939 2.49517 -0.640253 0
M  V30 660 H 55.3519 2.97352 1.02123 0
M  V30 661 N 59.124 1.23083 0.984299 0
M  V30 662 C 60.352 1.08714 1.76037 0
M  V30 663 C 60.767 -0.361691 1.85303 0
M  V30 664 O 60.124 -1.25034 1.32939 0
M  V30 665 C 60.175 1.70206 3.18923 0
M  V30 666 O 59.896 3.09423 3.10144 0
M  V30 667 C 61.397 1.61227 4.12941 0
M  V30 668 H 58.617 0.380664 0.552572 0
M  V30 669 H 61.161 1.62853 1.23689 0
M  V30 670 H 59.316 1.20109 3.6831 0
M  V30 671 H 59.73 3.39188 4.00065 0
M  V30 672 H 61.204 2.08962 5.10919 0
M  V30 673 H 61.681 0.570375 4.35481 0
M  V30 674 H 62.287 2.10671 3.69456 0
M  V30 675 N 60.6021 -1.18246 1.0419 0
M  V30 676 C 61.8481 -1.88536 0.747122 0
M  V30 677 C 62.1811 -1.80223 -0.723409 0
M  V30 678 O 61.4561 -1.20337 -1.52804 0
M  V30 679 C 61.7391 -3.38968 1.21544 0
M  V30 680 C 61.5921 -3.56084 2.74816 0
M  V30 681 C 62.9111 -4.32648 0.806482 0
M  V30 682 H 60.0301 -0.684619 0.272883 0
M  V30 683 H 62.6721 -1.39113 1.29413 0
M  V30 684 H 60.8221 -3.8119 0.750081 0
M  V30 685 H 62.4941 -3.22946 3.29399 0
M  V30 686 H 60.7371 -2.98699 3.14582 0
M  V30 687 H 61.4081 -4.61639 3.02644 0
M  V30 688 H 63.8841 -3.98211 1.20695 0
M  V30 689 H 62.7601 -5.36462 1.1619 0
M  V30 690 H 63.0211 -4.41146 -0.29029 0
M  V30 691 N 62.0802 -0.821533 -1.34494 0
M  V30 692 C 63.3262 -0.409552 -1.98622 0
M  V30 693 C 63.6592 1.0244 -1.64984 0
M  V30 694 O 62.9342 1.71325 -0.920758 0
M  V30 695 C 63.2172 -0.610458 -3.54888 0
M  V30 696 C 63.0702 -2.09043 -3.98273 0
M  V30 697 C 64.3892 -0.0455379 -4.40076 0
M  V30 698 H 61.5082 -0.15028 -0.721516 0
M  V30 699 H 64.1502 -1.03384 -1.59411 0
M  V30 700 H 62.3002 -0.079044 -3.8842 0
M  V30 701 H 63.9722 -2.68537 -3.75081 0
M  V30 702 H 62.2152 -2.58139 -3.48635 0
M  V30 703 H 62.8862 -2.18182 -5.07051 0
M  V30 704 H 65.3622 -0.499557 -4.1309 0
M  V30 705 H 64.2382 -0.215922 -5.48475 0
M  V30 706 H 64.4992 1.04939 -4.29465 0
M  V30 707 N 63.5583 1.46682 -0.576371 0
M  V30 708 C 64.4683 2.34032 0.163141 0
M  V30 709 C 65.4843 1.49367 0.892501 0
M  V30 710 O 66.6603 1.82252 0.857106 0
M  V30 711 C 63.7253 3.26435 1.16795 0
M  V30 712 C 62.7863 4.26998 0.443944 0
M  V30 713 C 62.0193 5.14986 1.40088 0
M  V30 714 O 62.2423 5.05785 2.637 0
M  V30 715 O 61.1763 5.94906 0.914917 0
M  V30 716 H 65.0023 2.98607 -0.55388 0
M  V30 717 H 62.5873 1.45554 -0.336821 0
M  V30 718 H 64.4693 3.83459 1.74748 0
M  V30 719 H 63.1443 2.64465 1.86655 0
M  V30 720 H 62.0513 3.7368 -0.177271 0
M  V30 721 H 63.3843 4.91736 -0.213566 0
M  V30 722 N 65.0364 0.313813 1.54444 0
M  V30 723 C 65.9834 -0.55655 2.23989 0
M  V30 724 C 66.9534 -1.11943 1.22711 0
M  V30 725 O 68.1384 -1.16158 1.51367 0
M  V30 726 C 65.2784 -1.71635 2.99392 0
M  V30 727 C 64.3914 -1.18364 4.15468 0
M  V30 728 C 63.5264 -2.30834 4.78424 0
M  V30 729 C 62.5654 -1.74762 5.86622 0
M  V30 730 N 61.7024 -2.80855 6.43479 0
M  V30 731 H 66.5424 0.0430893 2.97969 0
M  V30 732 H 64.0794 0.0330359 1.47063 0
M  V30 733 H 66.0374 -2.39868 3.41349 0
M  V30 734 H 64.6674 -2.28742 2.27765 0
M  V30 735 H 63.7194 -0.393163 3.78363 0
M  V30 736 H 65.0314 -0.733262 4.93381 0
M  V30 737 H 64.1854 -3.0699 5.23299 0
M  V30 738 H 62.9244 -2.79204 3.99871 0
M  V30 739 H 61.9294 -0.970995 5.41158 0
M  V30 740 H 63.1544 -1.2728 6.67066 0
M  V30 741 H 61.1004 -3.28535 5.67804 0
M  V30 742 H 61.0174 -2.40351 7.16776 0
M  V30 743 H 62.2854 -3.5687 6.93011 0
M  V30 744 N 66.5145 -1.57545 0.0417849 0
M  V30 745 C 67.7445 -1.96339 -0.642995 0
M  V30 746 C 68.1525 -0.917536 -1.65463 0
M  V30 747 O 67.4955 0.107747 -1.83384 0
M  V30 748 C 67.5575 -3.31333 -1.39494 0
M  V30 749 C 67.2215 -4.53796 -0.540204 0
M  V30 750 C 68.2185 -5.19553 0.189806 0
M  V30 751 C 65.9035 -5.0006 -0.473886 0
M  V30 752 C 67.8975 -6.29904 0.974674 0
M  V30 753 C 65.5845 -6.10289 0.314677 0
M  V30 754 C 66.5825 -6.75072 1.03765 0
M  V30 755 O 66.2705 -7.83183 1.81327 0
M  V30 756 H 66.0025 -0.651241 -0.181277 0
M  V30 757 H 68.5565 -2.05148 0.101665 0
M  V30 758 H 66.7865 -3.19052 -2.18502 0
M  V30 759 H 68.4755 -3.54942 -1.96904 0
M  V30 760 H 69.2415 -4.84774 0.147981 0
M  V30 761 H 65.1205 -4.49433 -1.0262 0
M  V30 762 H 68.6645 -6.80401 1.5395 0
M  V30 763 H 64.5615 -6.44506 0.358174 0
M  V30 764 H 65.3295 -7.99913 1.73438 0
M  V30 765 N 67.9926 0.231505 -1.5589 0
M  V30 766 C 68.9226 1.29022 -1.94617 0
M  V30 767 C 69.9036 1.4941 -0.813067 0
M  V30 768 O 71.0886 1.6176 -1.07459 0
M  V30 769 C 68.2186 2.64199 -2.25424 0
M  V30 770 C 67.1726 2.58484 -3.41131 0
M  V30 771 C 66.4986 3.97599 -3.57518 0
M  V30 772 C 67.7986 2.1413 -4.76388 0
M  V30 773 H 69.4926 0.968563 -2.83301 0
M  V30 774 H 67.0386 0.464479 -1.36303 0
M  V30 775 H 68.9916 3.38413 -2.51107 0
M  V30 776 H 67.7156 2.98032 -1.33583 0
M  V30 777 H 66.3746 1.86727 -3.15481 0
M  V30 778 H 66.0226 4.28723 -2.6307 0
M  V30 779 H 65.7226 3.94659 -4.35337 0
M  V30 780 H 67.2466 4.7349 -3.85538 0
M  V30 781 H 68.6606 2.78083 -5.01341 0
M  V30 782 H 67.0576 2.2227 -5.57419 0
M  V30 783 H 68.1276 1.09331 -4.72414 0
M  V30 784 N 69.4707 1.49531 0.497807 0
M  V30 785 C 70.4177 1.66436 1.59899 0
M  V30 786 C 71.3877 0.505793 1.58212 0
M  V30 787 O 72.5727 0.733202 1.7615 0
M  V30 788 C 69.7127 1.7399 2.98029 0
M  V30 789 C 68.8257 3.01172 3.09708 0
M  V30 790 C 67.9607 2.99686 4.38591 0
M  V30 791 C 66.9997 4.21434 4.43914 0
M  V30 792 N 66.1367 4.1784 5.64229 0
M  V30 793 H 70.9767 2.60459 1.44793 0
M  V30 794 H 68.5137 1.29137 0.704423 0
M  V30 795 H 70.4717 1.76352 3.78095 0
M  V30 796 H 69.1017 0.834301 3.11832 0
M  V30 797 H 68.1537 3.08408 2.22685 0
M  V30 798 H 69.4657 3.91165 3.09502 0
M  V30 799 H 68.6197 3.00628 5.2698 0
M  V30 800 H 67.3587 2.07477 4.41367 0
M  V30 801 H 66.3637 4.20733 3.53926 0
M  V30 802 H 67.5887 5.14839 4.42851 0
M  V30 803 H 65.5347 3.28469 5.67841 0
M  V30 804 H 65.4517 5.01571 5.65652 0
M  V30 805 H 66.7197 4.22889 6.54817 0
M  V30 806 N 70.9488 -0.749086 1.3866 0
M  V30 807 C 71.8788 -1.8764 1.38973 0
M  V30 808 C 72.8598 -1.68178 0.255004 0
M  V30 809 O 74.0448 -1.88704 0.458754 0
M  V30 810 C 71.1748 -3.25222 1.21851 0
M  V30 811 C 70.1288 -3.59295 2.32575 0
M  V30 812 C 69.4548 -4.95663 2.00555 0
M  V30 813 C 70.7548 -3.63709 3.7485 0
M  V30 814 H 72.4488 -1.87635 2.3331 0
M  V30 815 H 69.9948 -0.901329 1.12303 0
M  V30 816 H 71.9478 -4.03746 1.20695 0
M  V30 817 H 70.6718 -3.25719 0.239775 0
M  V30 818 H 69.3308 -2.83093 2.32925 0
M  V30 819 H 68.9788 -4.92724 1.01154 0
M  V30 820 H 68.6788 -5.19429 2.74714 0
M  V30 821 H 70.2028 -5.7656 2.01024 0
M  V30 822 H 71.6168 -4.32338 3.76506 0
M  V30 823 H 70.0138 -3.98986 4.48252 0
M  V30 824 H 71.0838 -2.63834 4.06841 0
M  V30 825 N 72.4269 -1.23603 -0.977757 0
M  V30 826 C 73.3739 -1.01954 -2.07061 0
M  V30 827 C 74.3439 0.0638697 -1.65977 0
M  V30 828 O 75.5289 -0.0887624 -1.90593 0
M  V30 829 C 72.6689 -0.619658 -3.39491 0
M  V30 830 C 71.7819 -1.77547 -3.93829 0
M  V30 831 C 70.9169 -1.32212 -5.14484 0
M  V30 832 C 69.9559 -2.44852 -5.60994 0
M  V30 833 N 69.0929 -2.00456 -6.72876 0
M  V30 834 H 73.9329 -1.95495 -2.24913 0
M  V30 835 H 71.4699 -0.973861 -1.10247 0
M  V30 836 H 73.4279 -0.368898 -4.15566 0
M  V30 837 H 72.0579 0.278752 -3.21594 0
M  V30 838 H 71.1099 -2.14016 -3.14486 0
M  V30 839 H 72.4219 -2.62219 -4.24314 0
M  V30 840 H 71.5759 -1.02965 -5.97899 0
M  V30 841 H 70.3149 -0.445808 -4.85658 0
M  V30 842 H 69.3199 -2.74871 -4.76157 0
M  V30 843 H 70.5449 -3.33024 -5.91837 0
M  V30 844 H 68.4909 -1.15208 -6.45804 0
M  V30 845 H 68.4079 -2.78687 -7.02759 0
M  V30 846 H 69.6759 -1.7432 -7.59758 0
M  V30 847 N 73.905 1.17692 -1.04816 0
M  V30 848 C 75.182 1.83768 -0.669963 0
M  V30 849 C 75.562 1.93232 0.849986 0
M  V30 850 O 74.91 1.46397 1.75443 0
M  V30 851 C 75.12 3.21641 -1.35455 0
M  V30 852 C 76.468 3.97592 -1.49017 0
M  V30 853 O 77.492 3.31107 -1.31326 0
M  V30 854 O 76.351 5.16729 -1.77914 0
M  V30 855 H 73.445 0.792799 -0.235368 0
M  V30 856 H 75.991 1.25021 -1.14751 0
M  V30 857 H 74.763 3.097 -2.39168 0
M  V30 858 H 74.386 3.88052 -0.866107 0
M  V30 859 N 75.3831 0.828654 1.34056 0
M  V30 860 C 76.6321 0.415828 1.97367 0
M  V30 861 C 76.9451 -1.02796 1.6641 0
M  V30 862 O 78.1511 -1.54497 2.23255 0
M  V30 863 C 76.6071 0.692601 3.53173 0
M  V30 864 C 76.2151 2.15038 3.93017 0
M  V30 865 C 77.9591 0.346222 4.23086 0
M  V30 866 C 75.8661 2.37174 5.41758 0
M  V30 867 H 74.7961 0.151755 0.738571 0
M  V30 868 H 77.4471 1.01581 1.52819 0
M  V30 869 H 75.8291 0.0223764 3.95994 0
M  V30 870 H 77.0031 2.86024 3.61285 0
M  V30 871 H 75.3181 2.45875 3.36057 0
M  V30 872 H 77.9151 0.48937 5.32456 0
M  V30 873 H 78.2581 -0.709842 4.10204 0
M  V30 874 H 78.7911 0.971258 3.85761 0
M  V30 875 H 75.5301 3.41308 5.59633 0
M  V30 876 H 75.0501 1.70738 5.74986 0
M  V30 877 H 76.7291 2.19818 6.08514 0
M  V30 878 N 76.8612 -1.46375 0.584142 0
M  V30 879 C 77.8092 -2.32042 -0.161047 0
M  V30 880 C 78.8032 -1.44569 -0.882966 0
M  V30 881 O 80.0092 -1.61186 -0.801191 0
M  V30 882 H 76.3842 -0.748659 -0.0708033 0
M  V30 883 H 78.3552 -2.92704 0.580269 0
M  V30 884 C 77.1042 -3.27762 -1.1605 0
M  V30 885 H 76.4272 -3.95051 -0.614419 0
M  V30 886 H 77.8672 -3.90481 -1.65228 0
M  V30 887 C 76.3262 -2.53218 -2.22221 0
M  V30 888 O 76.8562 -2.29628 -3.29597 0
M  V30 889 N 75.0622 -2.13756 -1.96868 0
M  V30 890 H 74.6092 -2.33142 -1.09557 0
M  V30 891 H 74.5672 -1.642 -2.68115 0
M  V30 892 N 78.3393 -0.321999 -1.54275 0
M  V30 893 C 79.5643 0.285791 -2.05422 0
M  V30 894 C 79.9893 1.45124 -1.19669 0
M  V30 895 O 79.3473 1.80132 -0.205441 0
M  V30 896 C 79.3953 0.69956 -3.53749 0
M  V30 897 O 78.4993 1.8021 -3.70942 0
M  V30 898 H 77.8403 0.0518962 -0.661969 0
M  V30 899 H 80.3703 -0.469954 -1.9913 0
M  V30 900 H 80.3803 0.982649 -3.9599 0
M  V30 901 H 79.0553 -0.152864 -4.15619 0
M  V30 902 H 77.6323 1.51794 -3.40607 0
M  V30 903 N 79.8174 1.5752 -0.0501392 0
M  V30 904 C 80.7474 2.14502 0.922566 0
M  V30 905 C 81.7284 1.06642 1.3252 0
M  V30 906 O 82.9134 1.34577 1.4001 0
M  V30 907 C 80.0434 2.68916 2.19776 0
M  V30 908 C 78.9974 3.8175 1.93523 0
M  V30 909 C 78.3234 4.22677 3.27487 0
M  V30 910 C 79.6234 5.06932 1.25765 0
M  V30 911 H 81.3174 2.9603 0.447952 0
M  V30 912 H 78.8634 1.42401 0.214024 0
M  V30 913 H 80.8164 3.07419 2.88222 0
M  V30 914 H 79.5404 1.84578 2.69441 0
M  V30 915 H 78.1994 3.43718 1.27489 0
M  V30 916 H 77.8474 3.35291 3.74952 0
M  V30 917 H 77.5474 4.98725 3.1072 0
M  V30 918 H 79.0714 4.63779 3.97166 0
M  V30 919 H 80.4854 5.42888 1.84244 0
M  V30 920 H 78.8824 5.88116 1.19328 0
M  V30 921 H 79.9524 4.84337 0.233536 0
M  V30 922 N 81.2955 -0.223234 1.56011 0
M  V30 923 C 82.5235 -0.964812 1.83027 0
M  V30 924 C 82.9385 -1.78013 0.62904 0
M  V30 925 O 82.2955 -1.78008 -0.402414 0
M  V30 926 C 82.3465 -1.88373 3.08542 0
M  V30 927 O 82.0675 -1.10137 4.2403 0
M  V30 928 C 83.5685 -2.73934 3.48533 0
M  V30 929 H 80.7885 -0.282842 0.608475 0
M  V30 930 H 83.3325 -0.238971 2.03099 0
M  V30 931 H 81.4875 -2.56354 2.9045 0
M  V30 932 H 81.9015 -1.72501 4.95322 0
M  V30 933 H 83.3755 -3.34117 4.39397 0
M  V30 934 H 83.8525 -3.46244 2.70207 0
M  V30 935 H 84.4585 -2.11369 3.69057 0
M  V30 936 N 82.7736 -1.49793 -0.48987 0
M  V30 937 C 84.0506 -1.50348 -1.25119 0
M  V30 938 C 84.4306 -0.237466 -2.0976 0
M  V30 939 O 83.7786 0.77981 -2.14782 0
M  V30 940 C 83.9886 -2.78872 -2.09837 0
M  V30 941 C 85.3366 -3.288 -2.68655 0
M  V30 942 O 86.3606 -2.80065 -2.20096 0
M  V30 943 O 85.2196 -4.13707 -3.57083 0
M  V30 944 H 82.3136 -0.602242 -0.566775 0
M  V30 945 H 84.8596 -1.62067 -0.503229 0
M  V30 946 H 83.6316 -3.62499 -1.47343 0
M  V30 947 H 83.2546 -2.70066 -2.91805 0
M  V30 948 N 84.2517 0.741722 -1.39055 0
M  V30 949 C 85.5007 1.49656 -1.35225 0
M  V30 950 C 85.8137 1.95533 0.0512708 0
M  V30 951 O 87.0197 2.7067 0.212138 0
M  V30 952 C 85.4757 2.70389 -2.37525 0
M  V30 953 C 85.0837 2.31489 -3.83558 0
M  V30 954 C 86.8277 3.48236 -2.42759 0
M  V30 955 C 84.7347 3.48903 -4.77515 0
M  V30 956 H 83.6647 0.56197 -0.502699 0
M  V30 957 H 86.3157 0.809727 -1.64668 0
M  V30 958 H 84.6977 3.41113 -2.01142 0
M  V30 959 H 85.8717 1.68354 -4.28945 0
M  V30 960 H 84.1867 1.66749 -3.81554 0
M  V30 961 H 86.7837 4.35558 -3.1015 0
M  V30 962 H 87.1267 3.90229 -1.45008 0
M  V30 963 H 87.6597 2.84535 -2.78002 0
M  V30 964 H 84.3987 3.11966 -5.76504 0
M  V30 965 H 83.9187 4.11041 -4.36813 0
M  V30 966 H 85.5977 4.15328 -4.96096 0
M  V30 967 N 85.7298 1.2412 0.971189 0
M  V30 968 C 86.9598 1.10415 1.7462 0
M  V30 969 C 87.3678 -0.346462 1.86001 0
M  V30 970 O 86.7108 -1.25104 1.34517 0
M  V30 971 C 86.7728 1.66596 3.18568 0
M  V30 972 C 86.4368 3.15446 3.3067 0
M  V30 973 C 87.4338 4.12636 3.16271 0
M  V30 974 C 85.1188 3.55337 3.55022 0
M  V30 975 C 87.1128 5.47699 3.26044 0
M  V30 976 C 84.7998 4.90542 3.64434 0
M  V30 977 C 85.7978 5.86532 3.49956 0
M  V30 978 O 85.4858 7.19279 3.59017 0
M  V30 979 H 85.2178 0.386616 0.55453 0
M  V30 980 H 87.7718 1.64633 1.22821 0
M  V30 981 H 86.0018 1.06808 3.71657 0
M  V30 982 H 87.6908 1.48232 3.77865 0
M  V30 983 H 88.4568 3.8316 2.97344 0
M  V30 984 H 84.3358 2.8113 3.65359 0
M  V30 985 H 87.8798 6.22603 3.14661 0
M  V30 986 H 83.7768 5.19691 3.82873 0
M  V30 987 H 84.5448 7.27153 3.75754 0
M  V30 988 N 87.2079 -1.17134 1.05439 0
M  V30 989 C 88.4569 -1.86791 0.761049 0
M  V30 990 C 88.7699 -1.82072 -0.714795 0
M  V30 991 O 89.9759 -2.47223 -1.12218 0
M  V30 992 C 88.4319 -3.35166 1.31117 0
M  V30 993 C 88.0399 -3.48381 2.81664 0
M  V30 994 C 89.7839 -4.10134 1.09499 0
M  V30 995 C 87.6909 -4.90793 3.29964 0
M  V30 996 H 86.6209 -0.699681 0.281002 0
M  V30 997 H 89.2719 -1.3226 1.27199 0
M  V30 998 H 87.6539 -3.8925 0.72803 0
M  V30 999 H 88.8279 -3.04502 3.45855 0
M  V30 1000 H 87.1429 -2.86836 3.01851 0
M  V30 1001 H 89.7399 -5.152 1.43084 0
M  V30 1002 H 90.0829 -4.16287 0.0328772 0
M  V30 1003 H 90.6159 -3.62264 1.64346 0
M  V30 1004 H 87.3549 -4.89816 4.35616 0
M  V30 1005 H 86.8749 -5.35333 2.70516 0
M  V30 1006 H 88.5539 -5.59573 3.24787 0
M  V30 1007 N 88.686 -0.835752 -1.33615 0
M  V30 1008 C 89.963 -0.352017 -1.92406 0
M  V30 1009 C 90.343 1.16225 -1.76224 0
M  V30 1010 O 89.691 1.97526 -1.14873 0
M  V30 1011 C 89.901 -0.795485 -3.39813 0
M  V30 1012 C 91.249 -0.801703 -4.16963 0
M  V30 1013 O 92.273 -0.738889 -3.48452 0
M  V30 1014 O 91.132 -0.886607 -5.3926 0
M  V30 1015 H 88.226 -0.0989641 -0.821057 0
M  V30 1016 H 90.772 -0.921397 -1.42507 0
M  V30 1017 H 89.544 -1.83795 -3.45449 0
M  V30 1018 H 89.167 -0.202505 -3.97084 0
M  V30 1019 N 90.1641 1.46063 -0.591896 0
M  V30 1020 C 91.3921 2.06717 -0.0868936 0
M  V30 1021 C 91.8071 1.43916 1.22203 0
M  V30 1022 O 91.1641 0.547698 1.74088 0
M  V30 1023 C 91.2151 3.6142 0.0758725 0
M  V30 1024 O 90.9361 4.21874 -1.18126 0
M  V30 1025 C 92.4371 4.39025 0.61416 0
M  V30 1026 H 89.6571 0.668162 -0.0616518 0
M  V30 1027 H 92.2011 1.8755 -0.815175 0
M  V30 1028 H 90.3561 3.79983 0.754413 0
M  V30 1029 H 90.7701 5.14861 -1.00092 0
M  V30 1030 H 92.2441 5.4783 0.677193 0
M  V30 1031 H 92.7211 4.07708 1.63312 0
M  V30 1032 H 93.3271 4.2529 -0.0298142 0
M  V30 1033 N 91.6422 0.330177 1.54103 0
M  V30 1034 C 92.8722 -0.271784 2.04805 0
M  V30 1035 C 93.2802 -1.45816 1.20559 0
M  V30 1036 O 92.6232 -1.82247 0.2306 0
M  V30 1037 C 92.6852 -0.763238 3.51305 0
M  V30 1038 C 92.3492 0.301705 4.56003 0
M  V30 1039 C 93.3462 1.13999 5.07248 0
M  V30 1040 C 91.0312 0.451793 5.00264 0
M  V30 1041 C 93.0252 2.11402 6.01322 0
M  V30 1042 C 90.7122 1.42924 5.94151 0
M  V30 1043 C 91.7102 2.25882 6.44567 0
M  V30 1044 O 91.3982 3.21965 7.3661 0
M  V30 1045 H 91.1302 -0.058693 0.673447 0
M  V30 1046 H 93.6842 0.476395 1.99799 0
M  V30 1047 H 91.9142 -1.56244 3.5373 0
M  V30 1048 H 93.6032 -1.28427 3.85047 0
M  V30 1049 H 94.3692 1.03505 4.73827 0
M  V30 1050 H 90.2482 -0.184044 4.60632 0
M  V30 1051 H 93.7922 2.76192 6.40596 0
M  V30 1052 H 89.6892 1.53479 6.26988 0
M  V30 1053 H 90.4572 3.17281 7.54503 0
M  V30 1054 N 93.1203 -1.57491 0.0584922 0
M  V30 1055 C 94.0673 -2.11958 -0.913376 0
M  V30 1056 C 95.0373 -1.02875 -1.30407 0
M  V30 1057 O 96.2223 -1.30464 -1.39226 0
M  V30 1058 C 93.3623 -2.67497 -2.18035 0
M  V30 1059 C 92.4753 -3.90691 -1.84349 0
M  V30 1060 C 91.6103 -4.3452 -3.05559 0
M  V30 1061 C 90.6493 -5.50395 -2.67827 0
M  V30 1062 N 89.7863 -5.89244 -3.81754 0
M  V30 1063 H 94.6263 -2.94704 -0.442017 0
M  V30 1064 H 92.1633 -1.45643 -0.206545 0
M  V30 1065 H 94.1213 -2.978 -2.92183 0
M  V30 1066 H 92.7513 -1.87537 -2.62735 0
M  V30 1067 H 91.8033 -3.66934 -1.00319 0
M  V30 1068 H 93.1153 -4.7489 -1.5258 0
M  V30 1069 H 92.2693 -4.66414 -3.87998 0
M  V30 1070 H 91.0083 -3.49147 -3.40511 0
M  V30 1071 H 90.0133 -5.18165 -1.83806 0
M  V30 1072 H 91.2383 -6.3749 -2.34059 0
M  V30 1073 H 89.1843 -5.06823 -4.16493 0
M  V30 1074 H 89.1013 -6.68151 -3.53708 0
M  V30 1075 H 90.3693 -6.25756 -4.64811 0
M  V30 1076 N 94.5984 0.214957 -1.56127 0
M  V30 1077 C 95.5454 1.26642 -1.92952 0
M  V30 1078 C 96.5154 1.46244 -0.78753 0
M  V30 1079 O 97.7004 1.59704 -1.04399 0
M  V30 1080 C 94.8404 2.6104 -2.25726 0
M  V30 1081 C 93.9534 2.49183 -3.52891 0
M  V30 1082 C 93.0884 3.76149 -3.7508 0
M  V30 1083 C 92.1274 3.59041 -4.95738 0
M  V30 1084 N 91.2644 4.77972 -5.14283 0
M  V30 1085 H 96.1044 0.945384 -2.82607 0
M  V30 1086 H 93.6414 0.455489 -1.3987 0
M  V30 1087 H 95.5994 3.39313 -2.42739 0
M  V30 1088 H 94.2294 2.91227 -1.39236 0
M  V30 1089 H 93.2814 1.6231 -3.44034 0
M  V30 1090 H 94.5934 2.32466 -4.41318 0
M  V30 1091 H 93.7474 4.62865 -3.92226 0
M  V30 1092 H 92.4864 3.95799 -2.84947 0
M  V30 1093 H 91.4914 2.7071 -4.78535 0
M  V30 1094 H 92.7164 3.40856 -5.87362 0
M  V30 1095 H 90.6624 4.97923 -4.27093 0
M  V30 1096 H 90.5794 4.64006 -5.96853 0
M  V30 1097 H 91.8474 5.66096 -5.35869 0
M  V30 1098 N 96.0765 1.50051 0.48192 0
M  V30 1099 C 97.3015 1.64508 1.26301 0
M  V30 1100 C 97.7265 0.323851 1.85291 0
M  V30 1101 O 97.0845 -0.710969 1.66778 0
M  V30 1102 C 97.1325 2.7305 2.35533 0
M  V30 1103 O 96.2365 2.3355 3.39895 0
M  V30 1104 H 95.5775 0.549978 0.372048 0
M  V30 1105 H 98.1075 1.9636 0.574786 0
M  V30 1106 H 98.1175 2.95799 2.8101 0
M  V30 1107 H 96.7925 3.68946 1.91967 0
M  V30 1108 H 95.3695 2.21205 3.00204 0
M  V30 1109 N 97.5546 -0.734337 1.39446 0
M  V30 1110 C 98.8026 -1.49096 1.36436 0
M  V30 1111 C 99.1236 -1.94961 -0.0388255 0
M  V30 1112 O 98.3936 -1.69033 -0.990191 0
M  V30 1113 H 96.9736 -0.5531 0.502085 0
M  V30 1114 H 99.6356 -0.871725 1.74319 0
M  V30 1115 H 98.7316 -2.37276 2.02747 0
M  V30 1116 N 99.0327 -1.24633 -0.964593 0
M  V30 1117 C 100.449 -1.01239 -1.2338 0
M  V30 1118 C 100.649 0.2769 -1.99588 0
M  V30 1119 O 99.7047 0.992241 -2.32187 0
M  V30 1120 C 101.018 -2.22937 -2.01791 0
M  V30 1121 C 102.566 -2.27594 -2.14872 0
M  V30 1122 C 103.041 -3.48921 -2.96678 0
M  V30 1123 N 104.532 -3.49257 -3.04259 0
M  V30 1124 C 105.267 -4.39795 -3.67924 0
M  V30 1125 N 104.763 -5.40591 -4.33281 0
M  V30 1126 N 106.556 -4.275 -3.64966 0
M  V30 1127 H 98.7067 -2.0748 -0.454502 0
M  V30 1128 H 100.97 -0.910647 -0.26349 0
M  V30 1129 H 100.676 -3.16587 -1.53184 0
M  V30 1130 H 100.55 -2.25306 -3.02518 0
M  V30 1131 H 102.937 -1.34473 -2.6268 0
M  V30 1132 H 103.018 -2.2925 -1.13482 0
M  V30 1133 H 102.662 -4.42359 -2.49562 0
M  V30 1134 H 102.592 -3.4451 -3.98272 0
M  V30 1135 H 105.083 -2.76337 -2.57771 0
M  V30 1136 H 105.396 -6.05904 -4.79687 0
M  V30 1137 H 103.741 -5.44475 -4.3194 0
M  V30 1138 H 106.932 -3.47987 -3.13086 0
M  V30 1139 H 107.105 -4.98258 -4.14298 0
M  V30 1140 N 100.511 1.16574 -1.06058 0
M  V30 1141 C 101.459 2.22941 -0.663343 0
M  V30 1142 C 102.453 1.66358 0.319593 0
M  V30 1143 O 103.659 1.7905 0.184713 0
M  V30 1144 H 100.034 0.725907 -0.196376 0
M  V30 1145 H 102.005 2.53736 -1.57037 0
M  V30 1146 C 100.754 3.47642 -0.0632808 0
M  V30 1147 H 100.077 3.91493 -0.810733 0
M  V30 1148 H 101.517 4.2363 0.177177 0
M  V30 1149 C 99.9758 3.1509 1.19248 0
M  V30 1150 O 100.506 3.30673 2.28075 0
M  V30 1151 N 98.7118 2.6924 1.09353 0
M  V30 1152 H 98.2588 2.5676 0.207912 0
M  V30 1153 H 98.2168 2.47833 1.93458 0
M  V30 1154 N 101.989 0.842826 1.3317 0
M  V30 1155 C 102.936 0.276885 2.29133 0
M  V30 1156 C 103.906 -0.609527 1.54512 0
M  V30 1157 O 105.091 -0.546955 1.82792 0
M  V30 1158 C 102.231 -0.538707 3.40869 0
M  V30 1159 C 101.344 0.372169 4.30394 0
M  V30 1160 C 100.479 -0.454908 5.29249 0
M  V30 1161 C 99.5179 0.45411 6.10413 0
M  V30 1162 N 98.6549 -0.335075 7.013 0
M  V30 1163 H 103.495 1.10052 2.76934 0
M  V30 1164 H 101.032 0.554161 1.36262 0
M  V30 1165 H 102.99 -1.02709 4.0436 0
M  V30 1166 H 101.62 -1.32727 2.9425 0
M  V30 1167 H 100.672 0.97888 3.6759 0
M  V30 1168 H 101.984 1.0703 4.87182 0
M  V30 1169 H 101.138 -1.00695 5.98285 0
M  V30 1170 H 99.8769 -1.18646 4.73048 0
M  V30 1171 H 98.8819 1.01813 5.40291 0
M  V30 1172 H 100.107 1.18409 6.68697 0
M  V30 1173 H 98.0529 -1.04994 6.47543 0
M  V30 1174 H 97.9699 0.304262 7.55387 0
M  V30 1175 H 99.2379 -0.869224 7.74638 0
M  V30 1176 N 103.467 -1.45747 0.599634 0
M  V30 1177 C 104.43 -2.28917 -0.113835 0
M  V30 1178 C 105.43 -1.3933 -0.802729 0
M  V30 1179 O 106.62 -1.61534 -0.652103 0
M  V30 1180 C 103.752 -3.20152 -1.17114 0
M  V30 1181 H 104.945 -2.93478 0.617289 0
M  V30 1182 H 102.498 -1.52137 0.358327 0
M  V30 1183 H 103.233 -2.60374 -1.93329 0
M  V30 1184 H 103.018 -3.86133 -0.681468 0
M  V30 1185 H 104.508 -3.82708 -1.67105 0
M  V30 1186 N 104.945 -0.338344 -1.53925 0
M  V30 1187 C 105.875 0.51328 -2.27789 0
M  V30 1188 C 106.856 1.107 -1.29149 0
M  V30 1189 O 108.041 1.12937 -1.57984 0
M  V30 1190 C 105.171 1.66697 -3.04679 0
M  V30 1191 C 104.125 1.20183 -4.1078 0
M  V30 1192 C 103.451 2.44363 -4.75595 0
M  V30 1193 C 104.751 0.30605 -5.21403 0
M  V30 1194 H 106.445 -0.102883 -2.99223 0
M  V30 1195 H 103.991 -0.0509219 -1.4391 0
M  V30 1196 H 105.944 2.26915 -3.55088 0
M  V30 1197 H 104.668 2.30995 -2.30887 0
M  V30 1198 H 103.327 0.622499 -3.61276 0
M  V30 1199 H 102.975 3.07057 -3.98403 0
M  V30 1200 H 102.675 2.13925 -5.47275 0
M  V30 1201 H 104.199 3.05317 -5.28786 0
M  V30 1202 H 105.613 0.814929 -5.67478 0
M  V30 1203 H 104.01 0.0937929 -6.00027 0
M  V30 1204 H 105.08 -0.65921 -4.80398 0
M  V30 1205 N 106.423 1.57458 -0.0668435 0
M  V30 1206 C 107.37 2.12439 0.902122 0
M  V30 1207 C 108.34 1.03565 1.2986 0
M  V30 1208 O 109.525 1.312 1.38532 0
M  V30 1209 C 106.665 2.6865 2.16614 0
M  V30 1210 C 105.778 3.91663 1.82274 0
M  V30 1211 C 104.913 4.36134 3.0325 0
M  V30 1212 C 103.952 5.51808 2.64904 0
M  V30 1213 N 103.089 5.9126 3.78624 0
M  V30 1214 H 107.929 2.94934 0.426382 0
M  V30 1215 H 105.466 1.4575 0.198819 0
M  V30 1216 H 107.424 2.99346 2.90599 0
M  V30 1217 H 106.054 1.88928 2.61737 0
M  V30 1218 H 105.106 3.6746 0.983719 0
M  V30 1219 H 106.418 4.75693 1.50059 0
M  V30 1220 H 105.572 4.68465 3.85519 0
M  V30 1221 H 104.311 3.50948 3.38655 0
M  V30 1222 H 103.316 5.19133 1.81055 0
M  V30 1223 H 104.541 6.38722 2.30675 0
M  V30 1224 H 102.487 5.09024 4.138 0
M  V30 1225 H 102.404 6.70018 3.5016 0
M  V30 1226 H 103.672 6.28212 4.61486 0
M  V30 1227 N 107.901 -0.206675 1.56239 0
M  V30 1228 C 108.848 -1.25617 1.93621 0
M  V30 1229 C 109.818 -1.45824 0.795274 0
M  V30 1230 O 111.003 -1.59148 1.05245 0
M  V30 1231 C 108.143 -2.59839 2.27107 0
M  V30 1232 C 107.256 -2.47308 3.54207 0
M  V30 1233 C 106.391 -3.74155 3.7707 0
M  V30 1234 C 105.43 -3.56407 4.97635 0
M  V30 1235 N 104.567 -4.75238 5.1681 0
M  V30 1236 H 109.407 -0.930383 2.83104 0
M  V30 1237 H 106.944 -0.448065 1.4011 0
M  V30 1238 H 108.902 -3.38021 2.44535 0
M  V30 1239 H 107.532 -2.90485 1.40778 0
M  V30 1240 H 106.584 -1.60483 3.4489 0
M  V30 1241 H 107.896 -2.30122 4.42544 0
M  V30 1242 H 107.05 -4.60778 3.94675 0
M  V30 1243 H 105.789 -3.94282 2.87042 0
M  V30 1244 H 104.794 -2.68168 4.79964 0
M  V30 1245 H 106.019 -3.37736 5.89161 0
M  V30 1246 H 103.965 -4.95651 4.29728 0
M  V30 1247 H 103.882 -4.60835 5.99306 0
M  V30 1248 H 105.15 -5.63246 5.38864 0
M  V30 1249 N 109.379 -1.50304 -0.473955 0
M  V30 1250 C 110.626 -1.6115 -1.22625 0
M  V30 1251 C 110.954 -0.310517 -1.92005 0
M  V30 1252 O 110.209 0.703419 -1.82621 0
M  V30 1253 C 110.508 -2.73938 -2.29549 0
M  V30 1254 C 110.174 -4.14519 -1.7744 0
M  V30 1255 C 108.836 -4.5277 -1.62949 0
M  V30 1256 C 111.188 -5.02392 -1.3875 0
M  V30 1257 C 108.516 -5.76639 -1.08187 0
M  V30 1258 C 110.868 -6.26805 -0.854309 0
M  V30 1259 C 109.532 -6.63861 -0.696011 0
M  V30 1260 H 108.802 -0.589691 -0.448715 0
M  V30 1261 H 111.449 -1.84228 -0.522705 0
M  V30 1262 H 109.754 -2.44937 -3.05799 0
M  V30 1263 H 111.451 -2.79534 -2.87509 0
M  V30 1264 H 108.041 -3.8434 -1.89685 0
M  V30 1265 H 112.225 -4.73474 -1.4878 0
M  V30 1266 H 107.481 -6.04027 -0.946666 0
M  V30 1267 H 111.655 -6.94258 -0.545843 0
M  V30 1268 H 109.282 -7.59722 -0.26952 0
M  V30 1269 N 110.857 0.726932 -1.39834 0
M  V30 1270 C 111.804 1.841 -1.39197 0
M  V30 1271 C 112.774 1.642 -0.250502 0
M  V30 1272 O 113.959 1.85494 -0.446846 0
M  V30 1273 C 111.099 3.21697 -1.24919 0
M  V30 1274 C 110.212 3.53247 -2.48678 0
M  V30 1275 C 109.347 4.80289 -2.26928 0
M  V30 1276 C 108.386 5.04707 -3.4632 0
M  V30 1277 N 107.523 6.22956 -3.23836 0
M  V30 1278 H 112.363 1.83979 -2.34427 0
M  V30 1279 H 109.9 0.898876 -1.16442 0
M  V30 1280 H 111.858 4.01137 -1.1465 0
M  V30 1281 H 110.488 3.21076 -0.333153 0
M  V30 1282 H 109.54 2.68447 -2.69519 0
M  V30 1283 H 110.852 3.67205 -3.37582 0
M  V30 1284 H 110.006 5.67725 -2.13947 0
M  V30 1285 H 108.745 4.68519 -1.35431 0
M  V30 1286 H 107.75 4.1573 -3.5979 0
M  V30 1287 H 108.975 5.18357 -4.38729 0
M  V30 1288 H 106.921 6.12459 -2.35011 0
M  V30 1289 H 106.838 6.37539 -4.063 0
M  V30 1290 H 108.106 7.1321 -3.14566 0
M  V30 1291 N 112.336 1.25143 0.95797 0
M  V30 1292 C 113.246 1.06968 2.08794 0
M  V30 1293 C 114.262 0.00773911 1.73998 0
M  V30 1294 O 115.438 0.207972 2.00323 0
M  V30 1295 C 112.503 0.68691 3.39827 0
M  V30 1296 C 111.564 1.82641 3.88511 0
M  V30 1297 C 110.797 1.46181 5.1329 0
M  V30 1298 O 111.02 0.355971 5.69288 0
M  V30 1299 O 109.954 2.29085 5.566 0
M  V30 1300 H 113.78 2.01723 2.27027 0
M  V30 1301 H 111.365 1.04051 1.07209 0
M  V30 1302 H 113.247 0.485417 4.18595 0
M  V30 1303 H 111.922 -0.231417 3.22872 0
M  V30 1304 H 110.829 2.08274 3.10762 0
M  V30 1305 H 112.162 2.72386 4.09959 0
M  V30 1306 N 113.814 -1.1601 1.06675 0
M  V30 1307 C 115.044 -1.90251 0.805497 0
M  V30 1308 C 115.452 -1.77891 -0.64431 0
M  V30 1309 O 114.795 -1.12383 -1.45313 0
M  V30 1310 C 114.857 -3.41419 1.12576 0
M  V30 1311 C 114.521 -3.77564 2.57477 0
M  V30 1312 C 115.518 -3.79161 3.55715 0
M  V30 1313 C 113.203 -4.08079 2.92877 0
M  V30 1314 C 115.197 -4.10767 4.8739 0
M  V30 1315 C 112.884 -4.39351 4.24751 0
M  V30 1316 C 113.882 -4.40675 5.21818 0
M  V30 1317 O 113.57 -4.71202 6.51325 0
M  V30 1318 H 113.302 -0.610018 0.291297 0
M  V30 1319 H 115.856 -1.47958 1.4247 0
M  V30 1320 H 114.086 -3.84079 0.449503 0
M  V30 1321 H 115.775 -3.9694 0.84814 0
M  V30 1322 H 116.541 -3.55693 3.29708 0
M  V30 1323 H 112.42 -4.06211 2.17976 0
M  V30 1324 H 115.964 -4.11715 5.63148 0
M  V30 1325 H 111.861 -4.62285 4.50514 0
M  V30 1326 H 112.629 -4.88996 6.56373 0
M  V30 1327 N 115.292 -0.849877 -1.32721 0
M  V30 1328 C 116.222 -0.306308 -2.31482 0
M  V30 1329 C 117.203 0.591952 -1.59468 0
M  V30 1330 O 118.388 0.513199 -1.87296 0
M  V30 1331 C 115.518 0.510204 -3.43532 0
M  V30 1332 C 114.472 -0.293209 -4.26994 0
M  V30 1333 C 113.798 0.647743 -5.30762 0
M  V30 1334 C 115.098 -1.51634 -4.99804 0
M  V30 1335 H 116.792 -1.13153 -2.77195 0
M  V30 1336 H 114.338 -0.545553 -1.33266 0
M  V30 1337 H 116.291 0.900856 -4.11658 0
M  V30 1338 H 115.015 1.36874 -2.96535 0
M  V30 1339 H 113.674 -0.665555 -3.60508 0
M  V30 1340 H 113.322 1.50299 -4.8002 0
M  V30 1341 H 113.022 0.11422 -5.87489 0
M  V30 1342 H 114.546 1.03567 -6.01753 0
M  V30 1343 H 115.96 -1.19824 -5.60638 0
M  V30 1344 H 114.357 -1.98745 -5.66234 0
M  V30 1345 H 115.427 -2.28018 -4.27943 0
M  V30 1346 N 116.77 1.45427 -0.607355 0
M  V30 1347 C 118.016 2.0254 -0.102607 0
M  V30 1348 C 118.349 1.47478 1.26348 0
M  V30 1349 O 117.624 0.64939 1.83339 0
M  V30 1350 C 117.907 3.60044 -0.0634347 0
M  V30 1351 C 117.76 4.2544 -1.46017 0
M  V30 1352 C 119.079 4.35646 0.624514 0
M  V30 1353 H 116.198 0.73598 -0.0387607 0
M  V30 1354 H 118.84 1.73284 -0.779282 0
M  V30 1355 H 116.99 3.85101 0.512808 0
M  V30 1356 H 118.662 4.11569 -2.08347 0
M  V30 1357 H 116.905 3.83849 -2.02094 0
M  V30 1358 H 117.576 5.34342 -1.385 0
M  V30 1359 H 120.052 4.15882 0.134723 0
M  V30 1360 H 118.928 5.45376 0.621028 0
M  V30 1361 H 119.189 4.08501 1.69055 0
M  V30 1362 N 118.248 0.346503 1.53744 0
M  V30 1363 C 119.476 -0.25041 2.05379 0
M  V30 1364 C 119.891 -1.43979 1.22129 0
M  V30 1365 O 119.248 -1.80677 0.257321 0
M  V30 1366 C 119.299 -0.662575 3.55376 0
M  V30 1367 O 119.02 0.479515 4.35468 0
M  V30 1368 C 120.521 -1.31989 4.23195 0
M  V30 1369 H 117.741 -0.0478198 0.669294 0
M  V30 1370 H 120.285 0.499346 1.9831 0
M  V30 1371 H 118.44 -1.36227 3.62658 0
M  V30 1372 H 118.854 0.15037 5.24284 0
M  V30 1373 H 120.328 -1.55902 5.29527 0
M  V30 1374 H 120.805 -2.27436 3.75725 0
M  V30 1375 H 121.411 -0.662154 4.20114 0
M  V30 1376 N 119.726 -1.57421 0.075193 0
M  V30 1377 C 120.636 -2.1642 -0.905511 0
M  V30 1378 C 121.652 -1.12828 -1.32461 0
M  V30 1379 O 122.828 -1.45109 -1.39661 0
M  V30 1380 C 119.893 -2.71693 -2.15369 0
M  V30 1381 C 118.954 -3.90171 -1.79068 0
M  V30 1382 C 118.187 -4.42798 -2.97936 0
M  V30 1383 O 118.41 -3.94416 -4.12058 0
M  V30 1384 O 117.344 -5.34085 -2.77555 0
M  V30 1385 H 121.17 -3.00588 -0.433626 0
M  V30 1386 H 118.755 -1.48664 -0.148067 0
M  V30 1387 H 120.637 -3.07104 -2.88557 0
M  V30 1388 H 119.312 -1.90582 -2.61649 0
M  V30 1389 H 118.219 -3.59606 -1.03122 0
M  V30 1390 H 119.552 -4.72584 -1.37569 0
M  V30 1391 N 121.204 0.198386 -1.56346 0
M  V30 1392 C 122.45 0.920648 -1.80698 0
M  V30 1393 C 122.783 1.83045 -0.648697 0
M  V30 1394 O 122.058 1.91308 0.350925 0
M  V30 1395 C 122.341 1.73971 -3.15287 0
M  V30 1396 C 122.194 0.85485 -4.41602 0
M  V30 1397 C 123.513 2.71296 -3.46535 0
M  V30 1398 H 120.632 0.333261 -0.657348 0
M  V30 1399 H 123.274 0.188198 -1.89066 0
M  V30 1400 H 121.424 2.36416 -3.08285 0
M  V30 1401 H 123.096 0.245362 -4.60647 0
M  V30 1402 H 121.339 0.161398 -4.335 0
M  V30 1403 H 122.01 1.46286 -5.32264 0
M  V30 1404 H 124.486 2.18983 -3.53816 0
M  V30 1405 H 123.362 3.2569 -4.41834 0
M  V30 1406 H 123.623 3.5018 -2.69864 0
M  V30 1407 N 122.682 1.50554 0.465978 0
M  V30 1408 C 123.612 1.72722 1.57128 0
M  V30 1409 C 124.593 0.576294 1.6004 0
M  V30 1410 O 125.778 0.81598 1.76225 0
M  V30 1411 C 122.908 1.82605 2.95419 0
M  V30 1412 C 121.862 2.97835 3.07373 0
M  V30 1413 C 121.188 2.92867 4.47363 0
M  V30 1414 C 122.488 4.38265 2.84114 0
M  V30 1415 H 124.182 2.65267 1.38829 0
M  V30 1416 H 121.728 1.2765 0.666441 0
M  V30 1417 H 123.681 1.96698 3.72677 0
M  V30 1418 H 122.405 0.866858 3.14886 0
M  V30 1419 H 121.064 2.83401 2.3255 0
M  V30 1420 H 120.712 1.94783 4.63755 0
M  V30 1421 H 120.412 3.70227 4.56296 0
M  V30 1422 H 121.936 3.09015 5.26633 0
M  V30 1423 H 123.35 4.53198 3.51118 0
M  V30 1424 H 121.747 5.17115 3.04487 0
M  V30 1425 H 122.817 4.50281 1.7993 0
M  V30 1426 N 124.16 -0.719506 1.40217 0
M  V30 1427 C 125.07 -1.86378 1.42479 0
M  V30 1428 C 126.086 -1.71073 0.317834 0
M  V30 1429 O 127.262 -1.93406 0.561794 0
M  V30 1430 C 124.327 -3.22136 1.28178 0
M  V30 1431 C 123.388 -3.49723 2.48982 0
M  V30 1432 C 122.621 -4.79004 2.35353 0
M  V30 1433 O 122.844 -5.53821 1.36524 0
M  V30 1434 O 121.778 -5.06839 3.2465 0
M  V30 1435 H 125.604 -1.87425 2.38968 0
M  V30 1436 H 123.189 -0.869405 1.21498 0
M  V30 1437 H 125.071 -4.03234 1.22395 0
M  V30 1438 H 123.746 -3.21825 0.347934 0
M  V30 1439 H 122.653 -2.6865 2.60342 0
M  V30 1440 H 123.986 -3.54828 3.41113 0
M  V30 1441 N 125.638 -1.25649 -0.95132 0
M  V30 1442 C 126.568 -1.08808 -2.06599 0
M  V30 1443 C 127.549 0.00382547 -1.701 0
M  V30 1444 O 128.734 -0.166325 -1.93486 0
M  V30 1445 C 125.864 -0.709542 -3.39975 0
M  V30 1446 C 124.818 -1.75206 -3.90496 0
M  V30 1447 C 124.144 -1.22811 -5.20405 0
M  V30 1448 C 125.444 -3.15153 -4.16504 0
M  V30 1449 H 127.138 -2.02048 -2.20946 0
M  V30 1450 H 124.684 -0.972835 -1.06169 0
M  V30 1451 H 126.637 -0.578649 -4.17408 0
M  V30 1452 H 125.361 0.258556 -3.25575 0
M  V30 1453 H 124.02 -1.87145 -3.15234 0
M  V30 1454 H 123.668 -0.250145 -5.02378 0
M  V30 1455 H 123.368 -1.92492 -5.55176 0
M  V30 1456 H 124.892 -1.10968 -6.00432 0
M  V30 1457 H 126.306 -3.06349 -4.84586 0
M  V30 1458 H 124.703 -3.82333 -4.62538 0
M  V30 1459 H 125.773 -3.61966 -3.22658 0
M  V30 1460 N 127.117 1.15442 -1.07289 0
M  V30 1461 C 128.064 2.20161 -0.692653 0
M  V30 1462 C 129.034 1.63073 0.31564 0
M  V30 1463 O 130.219 1.89725 0.202235 0
M  V30 1464 C 127.359 3.44967 -0.0959509 0
M  V30 1465 C 126.472 4.16256 -1.15564 0
M  V30 1466 C 125.607 5.28609 -0.524011 0
M  V30 1467 C 124.646 5.91715 -1.56653 0
M  V30 1468 N 123.783 6.9554 -0.957531 0
M  V30 1469 H 128.623 2.52037 -1.59002 0
M  V30 1470 H 126.16 1.2378 -0.794798 0
M  V30 1471 H 128.118 4.16341 0.267628 0
M  V30 1472 H 126.748 3.1361 0.764772 0
M  V30 1473 H 125.8 3.43385 -1.6368 0
M  V30 1474 H 127.112 4.59268 -1.94613 0
M  V30 1475 H 126.266 6.06604 -0.108032 0
M  V30 1476 H 125.005 4.86787 0.29825 0
M  V30 1477 H 124.01 5.12433 -1.9923 0
M  V30 1478 H 125.235 6.35614 -2.39107 0
M  V30 1479 H 123.181 6.55814 -0.156162 0
M  V30 1480 H 123.098 7.36977 -1.68526 0
M  V30 1481 H 124.366 7.77435 -0.567032 0
M  V30 1482 N 128.595 0.856903 1.32268 0
M  V30 1483 C 129.543 0.291987 2.3076 0
M  V30 1484 C 130.537 -0.585857 1.58947 0
M  V30 1485 O 131.743 -0.47341 1.73663 0
M  V30 1486 H 128.118 0.075721 0.748178 0
M  V30 1487 H 130.089 1.13687 2.75895 0
M  V30 1488 C 128.838 -0.502869 3.44044 0
M  V30 1489 H 128.161 0.163328 3.99466 0
M  V30 1490 H 129.601 -0.863691 4.1511 0
M  V30 1491 C 128.06 -1.68898 2.91505 0
M  V30 1492 O 128.59 -2.78811 2.89184 0
M  V30 1493 N 126.796 -1.51679 2.47875 0
M  V30 1494 H 126.343 -0.622666 2.49961 0
M  V30 1495 H 126.301 -2.31184 2.13076 0
M  V30 1496 N 130.073 -1.45103 0.615059 0
M  V30 1497 C 131.021 -2.32331 -0.111791 0
M  V30 1498 C 132.015 -1.46409 -0.852102 0
M  V30 1499 O 133.221 -1.62849 -0.766821 0
M  V30 1500 H 129.596 -0.749993 -0.0549072 0
M  V30 1501 H 131.567 -2.91407 0.642225 0
M  V30 1502 C 130.316 -3.3015 -1.09071 0
M  V30 1503 H 129.639 -3.96265 -0.530485 0
M  V30 1504 H 131.079 -3.93898 -1.56908 0
M  V30 1505 C 129.538 -2.57875 -2.168 0
M  V30 1506 O 130.068 -2.36567 -3.24652 0
M  V30 1507 N 128.274 -2.17884 -1.92289 0
M  V30 1508 H 127.821 -2.35413 -1.04587 0
M  V30 1509 H 127.779 -1.6985 -2.64572 0
M  V30 1510 N 131.551 -0.354651 -1.53558 0
M  V30 1511 C 132.499 0.512195 -2.26891 0
M  V30 1512 C 133.493 1.09263 -1.29452 0
M  V30 1513 O 134.699 1.03709 -1.47121 0
M  V30 1514 H 131.074 0.183878 -0.729173 0
M  V30 1515 H 133.045 -0.128202 -2.98124 0
M  V30 1516 C 131.794 1.64563 -3.06291 0
M  V30 1517 H 131.117 1.20829 -3.81104 0
M  V30 1518 H 132.557 2.22711 -3.60799 0
M  V30 1519 C 131.016 2.58158 -2.16462 0
M  V30 1520 O 131.546 3.60695 -1.76811 0
M  V30 1521 N 129.752 2.27096 -1.81317 0
M  V30 1522 H 129.299 1.43751 -2.1376 0
M  V30 1523 H 129.257 2.89975 -1.21498 0
M  V30 1524 N 133.029 1.57378 -0.0835403 0
M  V30 1525 C 133.959 2.1641 0.87686 0
M  V30 1526 C 134.94 1.09429 1.30228 0
M  V30 1527 O 136.125 1.37516 1.37124 0
M  V30 1528 C 133.255 2.73517 2.14022 0
M  V30 1529 C 132.209 3.85769 1.85381 0
M  V30 1530 C 131.535 4.29529 3.18448 0
M  V30 1531 C 132.835 5.09486 1.14984 0
M  V30 1532 H 134.529 2.96914 0.385059 0
M  V30 1533 H 132.075 1.42823 0.18377 0
M  V30 1534 H 134.028 3.13463 2.81636 0
M  V30 1535 H 132.752 1.90252 2.65465 0
M  V30 1536 H 131.411 3.46345 1.20169 0
M  V30 1537 H 131.059 3.43169 3.67755 0
M  V30 1538 H 130.759 5.05204 3.00071 0
M  V30 1539 H 132.283 4.72099 3.8724 0
M  V30 1540 H 133.697 5.46674 1.72687 0
M  V30 1541 H 132.094 5.90515 1.06826 0
M  V30 1542 H 133.164 4.84724 0.130749 0
M  V30 1543 N 134.507 -0.190092 1.56449 0
M  V30 1544 C 135.735 -0.925772 1.85033 0
M  V30 1545 C 136.15 -1.76638 0.666658 0
M  V30 1546 O 135.507 -1.78822 -0.364565 0
M  V30 1547 C 135.558 -1.81786 3.12468 0
M  V30 1548 O 135.279 -1.01118 4.26271 0
M  V30 1549 C 136.78 -2.6648 3.54265 0
M  V30 1550 H 134 -0.269872 0.614337 0
M  V30 1551 H 136.544 -0.195837 2.0356 0
M  V30 1552 H 134.699 -2.50136 2.95822 0
M  V30 1553 H 135.113 -1.61956 4.98869 0
M  V30 1554 H 136.587 -3.24722 4.46385 0
M  V30 1555 H 137.064 -3.40434 2.77491 0
M  V30 1556 H 137.67 -2.03493 3.73458 0
M  V30 1557 N 135.985 -1.50799 -0.457987 0
M  V30 1558 C 137.396 -1.55152 -1.0385 0
M  V30 1559 C 137.747 -0.362719 -1.92818 0
M  V30 1560 O 136.872 0.522915 -2.09987 0
M  V30 1561 C 137.467 -2.81173 -1.89017 0
M  V30 1562 C 136.026 -2.88164 -2.42154 0
M  V30 1563 C 135.173 -2.49591 -1.20829 0
M  V30 1564 H 138.124 -1.56874 -0.240068 0
M  V30 1565 H 138.145 -2.63769 -2.74238 0
M  V30 1566 H 137.657 -3.67677 -1.24238 0
M  V30 1567 H 135.758 -2.06042 -3.10447 0
M  V30 1568 H 135.871 -3.91356 -2.76364 0
M  V30 1569 H 134.235 -2.02322 -1.54719 0
M  V30 1570 H 135.018 -3.38418 -0.576927 0
M  V30 1571 N 137.463 0.71206 -1.40597 0
M  V30 1572 C 138.709 1.47416 -1.39271 0
M  V30 1573 C 139.042 1.942 0.00388791 0
M  V30 1574 O 138.317 1.68403 0.973179 0
M  V30 1575 C 138.6 2.69774 -2.38525 0
M  V30 1576 C 138.453 2.28861 -3.87224 0
M  V30 1577 C 139.772 3.71939 -2.35264 0
M  V30 1578 H 136.891 0.534713 -0.5072 0
M  V30 1579 H 139.533 0.812375 -1.71757 0
M  V30 1580 H 137.683 3.26238 -2.10953 0
M  V30 1581 H 139.355 1.77852 -4.25636 0
M  V30 1582 H 137.598 1.60824 -4.02887 0
M  V30 1583 H 138.269 3.16584 -4.52193 0
M  V30 1584 H 140.745 3.25113 -2.59694 0
M  V30 1585 H 139.621 4.55186 -3.06753 0
M  V30 1586 H 139.882 4.20484 -1.36549 0
M  V30 1587 N 138.941 1.26152 0.944643 0
M  V30 1588 C 139.851 1.09176 2.07648 0
M  V30 1589 C 140.867 0.0261935 1.7398 0
M  V30 1590 O 142.043 0.229208 2.00091 0
M  V30 1591 C 139.108 0.722915 3.39079 0
M  V30 1592 C 138.169 1.86752 3.86552 0
M  V30 1593 C 137.402 1.51617 5.11711 0
M  V30 1594 O 137.625 0.416331 5.68879 0
M  V30 1595 O 136.559 2.34975 5.54139 0
M  V30 1596 H 140.385 2.0412 2.24875 0
M  V30 1597 H 137.97 1.05182 1.061 0
M  V30 1598 H 139.852 0.529787 4.18056 0
M  V30 1599 H 138.527 -0.197159 3.23099 0
M  V30 1600 H 137.434 2.11558 3.08535 0
M  V30 1601 H 138.767 2.76719 4.07047 0
M  V30 1602 N 140.419 -1.14872 1.07899 0
M  V30 1603 C 141.366 -2.19791 0.704319 0
M  V30 1604 C 142.336 -1.63238 -0.306987 0
M  V30 1605 O 143.521 -1.8983 -0.192171 0
M  V30 1606 C 140.661 -3.44911 0.114244 0
M  V30 1607 C 139.774 -4.15637 1.1777 0
M  V30 1608 C 138.909 -5.28324 0.552037 0
M  V30 1609 C 137.948 -5.90875 1.59789 0
M  V30 1610 N 137.085 -6.95022 0.994404 0
M  V30 1611 H 141.925 -2.5119 1.60336 0
M  V30 1612 H 139.462 -1.23356 0.801352 0
M  V30 1613 H 141.42 -4.16477 -0.245544 0
M  V30 1614 H 140.05 -3.14011 -0.74813 0
M  V30 1615 H 139.102 -3.42512 1.65499 0
M  V30 1616 H 140.414 -4.5823 1.97046 0
M  V30 1617 H 139.568 -6.06538 0.1402 0
M  V30 1618 H 138.307 -4.86939 -0.272431 0
M  V30 1619 H 137.312 -5.11369 2.01945 0
M  V30 1620 H 138.537 -6.34337 2.42474 0
M  V30 1621 H 136.483 -6.55722 0.190939 0
M  V30 1622 H 136.4 -7.36073 1.72432 0
M  V30 1623 H 137.668 -7.77123 0.608253 0
M  V30 1624 N 141.898 -0.863906 -1.31812 0
M  V30 1625 C 142.846 -0.30422 -2.30602 0
M  V30 1626 C 143.84 0.577419 -1.59255 0
M  V30 1627 O 145.046 0.464194 -1.73912 0
M  V30 1628 H 141.421 -0.0796877 -0.747766 0
M  V30 1629 H 143.392 -1.15148 -2.75288 0
M  V30 1630 C 142.141 0.484617 -3.44306 0
M  V30 1631 H 141.464 -0.18451 -3.99374 0
M  V30 1632 H 142.904 0.841664 -4.15562 0
M  V30 1633 C 141.363 1.6735 -2.92396 0
M  V30 1634 O 141.893 2.77273 -2.90659 0
M  V30 1635 N 140.099 1.50362 -2.48676 0
M  V30 1636 H 139.646 0.609402 -2.50288 0
M  V30 1637 H 139.604 2.30051 -2.14299 0
M  V30 1638 N 143.376 1.44774 -0.622745 0
M  V30 1639 C 144.306 2.33382 0.0741861 0
M  V30 1640 C 145.287 1.47719 0.843387 0
M  V30 1641 O 146.472 1.76458 0.810934 0
M  V30 1642 C 143.602 3.30663 1.06204 0
M  V30 1643 C 142.556 4.26079 0.405037 0
M  V30 1644 C 141.882 5.13165 1.5022 0
M  V30 1645 C 143.182 5.1781 -0.683414 0
M  V30 1646 H 144.876 2.91905 -0.665713 0
M  V30 1647 H 142.422 1.40363 -0.321587 0
M  V30 1648 H 144.375 3.9153 1.55827 0
M  V30 1649 H 143.099 2.70331 1.83272 0
M  V30 1650 H 141.758 3.66532 -0.0704683 0
M  V30 1651 H 141.406 4.49191 2.26355 0
M  V30 1652 H 141.106 5.77812 1.06803 0
M  V30 1653 H 142.63 5.76902 2.00041 0
M  V30 1654 H 144.044 5.72661 -0.270631 0
M  V30 1655 H 142.441 5.91015 -1.04023 0
M  V30 1656 H 143.511 4.59326 -1.55395 0
M  V30 1657 N 144.854 0.36279 1.53368 0
M  V30 1658 C 145.804 -0.501391 2.22419 0
M  V30 1659 C 146.788 -1.0509 1.2184 0
M  V30 1660 O 147.98 -0.981404 1.47301 0
M  V30 1661 C 145.109 -1.64201 3.01484 0
M  V30 1662 C 144.195 -1.10552 4.09438 0
M  V30 1663 N 144.586 -0.291788 5.04958 0
M  V30 1664 C 142.884 -1.3806 4.24094 0
M  V30 1665 C 143.585 0.00162655 5.817 0
M  V30 1666 N 142.561 -0.595244 5.40331 0
M  V30 1667 H 146.363 0.127159 2.93625 0
M  V30 1668 H 143.877 0.170658 1.61501 0
M  V30 1669 H 145.874 -2.27326 3.49469 0
M  V30 1670 H 144.534 -2.27365 2.31809 0
M  V30 1671 H 145.545 0.0687731 5.17854 0
M  V30 1672 H 142.222 -2.01522 3.65644 0
M  V30 1673 H 143.612 0.659278 6.68658 0
M  V30 1674 N 146.332 -1.57332 0.0918853 0
M  V30 1675 C 147.579 -1.94236 -0.572577 0
M  V30 1676 C 147.907 -0.973398 -1.6839 0
M  V30 1677 O 147.162 0.00756912 -1.95699 0
M  V30 1678 C 147.461 -3.37689 -1.17051 0
M  V30 1679 C 147.127 -4.50527 -0.183304 0
M  V30 1680 C 145.789 -4.81119 0.0882276 0
M  V30 1681 C 148.141 -5.18883 0.49095 0
M  V30 1682 C 145.469 -5.77395 1.04076 0
M  V30 1683 C 147.821 -6.1618 1.43193 0
M  V30 1684 C 146.485 -6.45179 1.71173 0
M  V30 1685 H 145.755 -0.710762 -0.209521 0
M  V30 1686 H 148.402 -1.9077 0.167036 0
M  V30 1687 H 146.707 -3.37718 -1.9863 0
M  V30 1688 H 148.404 -3.63543 -1.69227 0
M  V30 1689 H 144.994 -4.26681 -0.405124 0
M  V30 1690 H 149.178 -4.95427 0.294312 0
M  V30 1691 H 144.434 -5.98179 1.26457 0
M  V30 1692 H 148.608 -6.68243 1.96023 0
M  V30 1693 H 146.235 -7.1959 2.4514 0
M  V30 1694 N 147.81 0.181792 -1.56548 0
M  V30 1695 C 149.056 0.901431 -1.81665 0
M  V30 1696 C 149.389 1.82347 -0.668075 0
M  V30 1697 O 148.664 1.91669 0.330615 0
M  V30 1698 C 148.947 1.70618 -3.17115 0
M  V30 1699 C 148.8 0.807964 -4.42484 0
M  V30 1700 C 150.119 2.67605 -3.49393 0
M  V30 1701 H 147.238 0.32627 -0.660846 0
M  V30 1702 H 149.88 0.168134 -1.89255 0
M  V30 1703 H 148.03 2.33133 -3.10775 0
M  V30 1704 H 149.702 0.19649 -4.60881 0
M  V30 1705 H 147.945 0.115411 -4.33646 0
M  V30 1706 H 148.616 1.40632 -5.33785 0
M  V30 1707 H 151.092 2.15218 -3.56118 0
M  V30 1708 H 149.968 3.20985 -4.45264 0
M  V30 1709 H 150.229 3.47298 -2.73563 0
M  V30 1710 N 149.288 1.51039 0.449983 0
M  V30 1711 C 150.534 1.64287 1.19923 0
M  V30 1712 C 150.889 0.348701 1.89214 0
M  V30 1713 O 150.182 -0.654751 1.80065 0
M  V30 1714 C 150.376 2.77556 2.25161 0
M  V30 1715 C 150.205 4.17862 1.66198 0
M  V30 1716 C 148.975 4.83976 1.45243 0
M  V30 1717 C 151.173 5.01388 1.14519 0
M  V30 1718 N 149.155 6.08433 0.817437 0
M  V30 1719 C 150.526 6.16743 0.634705 0
M  V30 1720 C 152.581 4.87008 1.03574 0
M  V30 1721 C 151.284 7.19295 0.0255452 0
M  V30 1722 C 153.31 5.89757 0.440489 0
M  V30 1723 C 152.672 7.04375 -0.0595112 0
M  V30 1724 H 148.771 0.655161 0.426952 0
M  V30 1725 H 151.355 1.88228 0.49781 0
M  V30 1726 H 149.526 2.553 2.92706 0
M  V30 1727 H 151.258 2.80049 2.92155 0
M  V30 1728 H 148.013 4.41627 1.71063 0
M  V30 1729 H 148.437 6.75017 0.517747 0
M  V30 1730 H 153.079 3.9866 1.4082 0
M  V30 1731 H 150.797 8.07302 -0.359071 0
M  V30 1732 H 154.383 5.80698 0.35788 0
M  V30 1733 H 153.263 7.82521 -0.512882 0
M  V30 1734 N 150.766 -0.704594 1.40972 0
M  V30 1735 C 152.015 -1.46018 1.39146 0
M  V30 1736 C 152.328 -1.956 0.000589254 0
M  V30 1737 O 153.534 -2.71137 -0.1403 0
M  V30 1738 C 151.99 -2.63996 2.4461 0
M  V30 1739 C 151.598 -2.21238 3.89561 0
M  V30 1740 C 153.342 -3.41677 2.51907 0
M  V30 1741 C 151.249 -3.3612 4.86598 0
M  V30 1742 H 150.179 -0.548444 0.517422 0
M  V30 1743 H 152.83 -0.765784 1.66757 0
M  V30 1744 H 151.212 -3.3566 2.10115 0
M  V30 1745 H 152.386 -1.56923 4.33257 0
M  V30 1746 H 150.701 -1.56574 3.85841 0
M  V30 1747 H 153.298 -4.27182 3.2159 0
M  V30 1748 H 153.641 -3.86247 1.55303 0
M  V30 1749 H 154.174 -2.77064 2.85448 0
M  V30 1750 H 150.913 -2.96572 5.84573 0
M  V30 1751 H 150.433 -3.99315 4.47557 0
M  V30 1752 H 152.112 -4.02029 5.06934 0
M  V30 1753 N 152.244 -1.26651 -0.937939 0
M  V30 1754 C 153.492 -1.12165 -1.68118 0
M  V30 1755 C 153.813 0.334983 -1.92101 0
M  V30 1756 O 153.083 1.23583 -1.52 0
M  V30 1757 H 151.663 -0.412093 -0.623048 0
M  V30 1758 H 154.325 -1.59027 -1.12678 0
M  V30 1759 H 153.421 -1.64289 -2.6536 0
M  V30 1760 N 153.722 1.14298 -1.08507 0
M  V30 1761 C 154.97 1.84993 -0.813763 0
M  V30 1762 C 155.291 1.83405 0.662393 0
M  V30 1763 O 154.561 1.28319 1.48024 0
M  V30 1764 H 153.141 0.684966 -0.298045 0
M  V30 1765 H 155.803 1.385 -1.37126 0
M  V30 1766 H 154.899 2.89788 -1.15884 0
M  V30 1767 N 155.201 0.870884 1.31352 0
M  V30 1768 C 156.133 0.28455 2.27427 0
M  V30 1769 C 157.146 -0.552927 1.53123 0
M  V30 1770 O 158.335 -0.374771 1.74521 0
M  V30 1771 C 155.435 -0.615164 3.3327 0
M  V30 1772 C 154.608 0.190079 4.36987 0
M  V30 1773 C 153.667 -0.637917 5.22319 0
M  V30 1774 O 152.693 -0.065626 5.69162 0
M  V30 1775 N 153.895 -1.94973 5.46778 0
M  V30 1776 H 156.66 1.11017 2.7838 0
M  V30 1777 H 154.221 0.732458 1.44384 0
M  V30 1778 H 156.213 -1.1748 3.87273 0
M  V30 1779 H 154.783 -1.34146 2.82354 0
M  V30 1780 H 154.003 0.931165 3.83044 0
M  V30 1781 H 155.291 0.742579 5.03352 0
M  V30 1782 H 154.689 -2.4378 5.10478 0
M  V30 1783 H 153.246 -2.45713 6.03712 0
M  V30 1784 N 156.679 -1.44442 0.630414 0
M  V30 1785 C 157.928 -2.01267 0.132073 0
M  V30 1786 C 158.241 -1.50172 -1.25331 0
M  V30 1787 O 159.447 -1.9912 -1.84562 0
M  V30 1788 C 157.903 -3.59422 0.185362 0
M  V30 1789 C 157.511 -4.19514 1.57201 0
M  V30 1790 C 159.255 -4.23724 -0.256553 0
M  V30 1791 C 157.162 -5.69891 1.58045 0
M  V30 1792 H 156.092 -0.752619 0.0456092 0
M  V30 1793 H 158.743 -1.65666 0.789106 0
M  V30 1794 H 157.125 -3.92318 -0.538759 0
M  V30 1795 H 158.299 -3.98156 2.31966 0
M  V30 1796 H 156.614 -3.67496 1.95795 0
M  V30 1797 H 159.211 -5.34019 -0.269767 0
M  V30 1798 H 159.554 -3.96013 -1.28372 0
M  V30 1799 H 160.087 -3.95629 0.41505 0
M  V30 1800 H 156.826 -6.02336 2.58597 0
M  V30 1801 H 156.346 -5.93373 0.875725 0
M  V30 1802 H 158.025 -6.33515 1.31408 0
M  V30 1803 N 158.157 -0.370918 -1.53173 0
M  V30 1804 C 159.105 0.488101 -2.27421 0
M  V30 1805 C 160.099 1.07884 -1.30604 0
M  V30 1806 O 161.305 1.02143 -1.48212 0
M  V30 1807 H 157.68 0.176134 -0.731082 0
M  V30 1808 H 159.651 -0.159815 -2.97972 0
M  V30 1809 C 158.4 1.61306 -3.08019 0
M  V30 1810 H 157.723 1.1678 -3.82364 0
M  V30 1811 H 159.163 2.18872 -3.63141 0
M  V30 1812 C 157.622 2.55848 -2.19188 0
M  V30 1813 O 158.152 3.58799 -1.80626 0
M  V30 1814 N 156.358 2.2516 -1.83715 0
M  V30 1815 H 155.905 1.41476 -2.15273 0
M  V30 1816 H 155.863 2.8867 -1.24567 0
M  V30 1817 N 159.635 1.57281 -0.100228 0
M  V30 1818 C 160.912 1.86014 0.604812 0
M  V30 1819 C 161.292 0.998025 1.86018 0
M  V30 1820 O 160.64 0.0718184 2.28387 0
M  V30 1821 C 160.85 3.36784 0.915278 0
M  V30 1822 C 162.198 4.04957 1.27651 0
M  V30 1823 O 163.222 3.41695 1.00613 0
M  V30 1824 O 162.081 5.16593 1.7831 0
M  V30 1825 H 159.175 0.76942 0.303185 0
M  V30 1826 H 161.721 1.69176 -0.133313 0
M  V30 1827 H 160.493 3.91292 0.0248896 0
M  V30 1828 H 160.116 3.58987 1.70921 0
M  V30 1829 N 161.113 -0.173488 1.56642 0
M  V30 1830 C 162.341 -0.906095 1.86004 0
M  V30 1831 C 162.756 -1.75921 0.685355 0
M  V30 1832 O 162.113 -1.79198 -0.345578 0
M  V30 1833 C 162.164 -1.78462 3.14378 0
M  V30 1834 O 161.885 -0.965914 4.27319 0
M  V30 1835 C 163.386 -2.62707 3.57071 0
M  V30 1836 H 160.606 -0.263341 0.617165 0
M  V30 1837 H 163.15 -0.174236 2.03756 0
M  V30 1838 H 161.305 -2.46984 2.98459 0
M  V30 1839 H 161.719 -1.56655 5.00559 0
M  V30 1840 H 163.193 -3.19969 4.49804 0
M  V30 1841 H 163.67 -3.37472 2.81086 0
M  V30 1842 H 164.276 -1.99521 3.75595 0
M  V30 1843 N 162.591 -1.51276 -0.441967 0
M  V30 1844 C 163.554 -1.7167 -1.51862 0
M  V30 1845 C 164.554 -0.586793 -1.49711 0
M  V30 1846 O 165.744 -0.854276 -1.51815 0
M  V30 1847 C 162.876 -1.76889 -2.91416 0
M  V30 1848 H 164.069 -2.67754 -1.35084 0
M  V30 1849 H 161.622 -1.41196 -0.670333 0
M  V30 1850 H 162.357 -0.826026 -3.13604 0
M  V30 1851 H 162.142 -2.59001 -2.94382 0
M  V30 1852 H 163.632 -1.94522 -3.69528 0
M  V30 1853 N 164.069 0.697108 -1.41344 0
M  V30 1854 C 165.318 1.45279 -1.39918 0
M  V30 1855 C 165.631 1.95597 -0.0109624 0
M  V30 1856 O 166.837 2.71208 0.125919 0
M  V30 1857 C 165.293 2.62695 -2.46007 0
M  V30 1858 C 164.901 2.19169 -3.90729 0
M  V30 1859 C 166.645 3.40336 -2.53715 0
M  V30 1860 C 164.552 3.33535 -4.88373 0
M  V30 1861 H 163.482 0.545692 -0.520323 0
M  V30 1862 H 166.133 0.756929 -1.67161 0
M  V30 1863 H 164.515 3.34541 -2.11892 0
M  V30 1864 H 165.689 1.54623 -4.34083 0
M  V30 1865 H 164.004 1.54525 -3.86666 0
M  V30 1866 H 166.601 4.2547 -3.2385 0
M  V30 1867 H 166.944 3.85418 -1.5735 0
M  V30 1868 H 167.477 2.75546 -2.86913 0
M  V30 1869 H 164.216 2.93468 -5.86137 0
M  V30 1870 H 163.736 3.96936 -4.49668 0
M  V30 1871 H 165.415 3.99335 -5.09059 0
M  V30 1872 N 165.547 1.27147 0.931209 0
M  V30 1873 C 166.495 1.09398 2.05268 0
M  V30 1874 C 167.489 0.0180591 1.6939 0
M  V30 1875 O 168.695 0.17551 1.79142 0
M  V30 1876 H 165.07 0.336986 0.672268 0
M  V30 1877 H 167.041 2.04416 2.17386 0
M  V30 1878 C 165.79 0.75424 3.39421 0
M  V30 1879 H 165.113 1.57404 3.67511 0
M  V30 1880 H 166.553 0.669903 4.18674 0
M  V30 1881 C 165.012 -0.541197 3.32525 0
M  V30 1882 O 165.542 -1.57664 3.69466 0
M  V30 1883 N 163.748 -0.535517 2.85623 0
M  V30 1884 H 163.295 0.307511 2.55758 0
M  V30 1885 H 163.253 -1.40236 2.81392 0
M  V30 1886 N 167.025 -1.13721 1.09112 0
M  V30 1887 C 168.255 -1.88499 0.845671 0
M  V30 1888 C 168.663 -1.79218 -0.606432 0
M  V30 1889 O 168.006 -1.1544 -1.42896 0
M  V30 1890 C 168.068 -3.38954 1.19793 0
M  V30 1891 C 167.732 -3.72018 2.65428 0
M  V30 1892 C 168.729 -3.7153 3.63677 0
M  V30 1893 C 166.414 -4.01775 3.01467 0
M  V30 1894 C 168.408 -4.00336 4.95994 0
M  V30 1895 C 166.095 -4.30243 4.33975 0
M  V30 1896 C 167.093 -4.29508 5.31048 0
M  V30 1897 O 166.781 -4.5728 6.61173 0
M  V30 1898 H 166.513 -0.603702 0.304171 0
M  V30 1899 H 169.067 -1.44903 1.45576 0
M  V30 1900 H 167.297 -3.83039 0.530871 0
M  V30 1901 H 168.986 -3.95052 0.932146 0
M  V30 1902 H 169.752 -3.4862 3.37179 0
M  V30 1903 H 165.631 -4.01496 2.26544 0
M  V30 1904 H 169.175 -3.99678 5.71755 0
M  V30 1905 H 165.072 -4.52625 4.60219 0
M  V30 1906 H 165.84 -4.74964 6.66597 0
M  V30 1907 N 168.503 -0.877838 -1.30888 0
M  V30 1908 C 169.752 -0.488793 -1.95688 0
M  V30 1909 C 170.065 0.965485 -1.70111 0
M  V30 1910 O 171.271 1.46104 -2.28836 0
M  V30 1911 C 169.727 -0.823201 -3.50359 0
M  V30 1912 C 169.335 -2.29477 -3.84765 0
M  V30 1913 C 171.079 -0.503009 -4.21509 0
M  V30 1914 C 168.986 -2.57118 -5.32583 0
M  V30 1915 H 167.916 -0.179062 -0.732429 0
M  V30 1916 H 170.567 -1.07183 -1.48943 0
M  V30 1917 H 168.949 -0.169331 -3.95638 0
M  V30 1918 H 170.123 -2.99236 -3.5042 0
M  V30 1919 H 168.438 -2.58178 -3.267 0
M  V30 1920 H 171.035 -0.68665 -5.30273 0
M  V30 1921 H 171.378 0.557109 -4.12555 0
M  V30 1922 H 171.911 -1.11376 -3.8189 0
M  V30 1923 H 168.65 -3.61843 -5.4658 0
M  V30 1924 H 168.17 -1.91961 -5.68253 0
M  V30 1925 H 169.849 -2.42251 -5.99936 0
M  V30 1926 N 169.982 1.44106 -0.638065 0
M  V30 1927 C 170.93 2.3248 0.0748149 0
M  V30 1928 C 171.924 1.47746 0.828702 0
M  V30 1929 O 173.13 1.64049 0.740816 0
M  V30 1930 H 169.505 0.750771 0.0429686 0
M  V30 1931 H 171.476 2.90348 -0.688504 0
M  V30 1932 C 170.225 3.31843 1.03805 0
M  V30 1933 H 169.548 3.97059 0.467375 0
M  V30 1934 H 170.988 3.96345 1.50622 0
M  V30 1935 C 169.447 2.61291 2.1267 0
M  V30 1936 O 169.977 2.41702 3.20847 0
M  V30 1937 N 168.183 2.20915 1.88798 0
M  V30 1938 H 167.73 2.37047 1.00829 0
M  V30 1939 H 167.688 1.74038 2.61836 0
M  V30 1940 N 171.46 0.379036 1.52974 0
M  V30 1941 C 172.392 -0.495963 2.2377 0
M  V30 1942 C 173.405 -1.03517 1.25651 0
M  V30 1943 O 174.594 -0.939249 1.51791 0
M  V30 1944 C 171.694 -1.69894 2.93239 0
M  V30 1945 C 170.867 -1.2889 4.17979 0
M  V30 1946 C 169.926 -2.35543 4.70538 0
M  V30 1947 O 168.952 -1.97375 5.33883 0
M  V30 1948 N 170.154 -3.67318 4.49508 0
M  V30 1949 H 172.919 0.110523 2.99496 0
M  V30 1950 H 170.48 0.204878 1.60598 0
M  V30 1951 H 172.472 -2.40747 3.25304 0
M  V30 1952 H 171.042 -2.212 2.20883 0
M  V30 1953 H 170.262 -0.409676 3.92065 0
M  V30 1954 H 171.55 -0.991443 4.99047 0
M  V30 1955 H 170.948 -4.01095 3.98923 0
M  V30 1956 H 169.505 -4.34235 4.8609 0
M  V30 1957 N 172.938 -1.57226 0.108567 0
M  V30 1958 C 174.184 -1.95919 -0.546564 0
M  V30 1959 C 174.539 -0.990417 -1.6495 0
M  V30 1960 O 173.832 -0.0186593 -1.91591 0
M  V30 1961 C 174.026 -3.38911 -1.13463 0
M  V30 1962 C 173.855 -4.4961 -0.0901926 0
M  V30 1963 C 172.625 -5.04168 0.338008 0
M  V30 1964 C 174.823 -5.09693 0.686808 0
M  V30 1965 N 172.805 -5.98434 1.36931 0
M  V30 1966 C 174.176 -5.99804 1.56958 0
M  V30 1967 C 176.231 -4.92388 0.738846 0
M  V30 1968 C 174.934 -6.74463 2.49983 0
M  V30 1969 C 176.96 -5.67719 1.65676 0
M  V30 1970 C 176.322 -6.57507 2.52713 0
M  V30 1971 H 172.421 -0.763312 -0.169936 0
M  V30 1972 H 175.005 -1.93728 0.194264 0
M  V30 1973 H 173.176 -3.41769 -1.84522 0
M  V30 1974 H 174.908 -3.64752 -1.75322 0
M  V30 1975 H 171.663 -4.73571 -0.0523673 0
M  V30 1976 H 172.087 -6.5027 1.88356 0
M  V30 1977 H 176.729 -4.22724 0.080084 0
M  V30 1978 H 174.447 -7.4338 3.16878 0
M  V30 1979 H 178.033 -5.56338 1.70233 0
M  V30 1980 H 176.913 -7.14778 3.22586 0
M  V30 1981 N 174.416 0.165178 -1.56732 0
M  V30 1982 C 175.363 1.2044 -1.96883 0
M  V30 1983 C 176.333 1.43664 -0.833657 0
M  V30 1984 O 177.518 1.56302 -1.09427 0
M  V30 1985 C 174.658 2.53727 -2.33916 0
M  V30 1986 C 173.771 2.3783 -3.6064 0
M  V30 1987 C 172.906 3.64026 -3.86857 0
M  V30 1988 C 171.945 3.43088 -5.06909 0
M  V30 1989 N 171.082 4.61369 -5.29229 0
M  V30 1990 H 175.922 0.854996 -2.85471 0
M  V30 1991 H 173.459 0.41076 -1.41249 0
M  V30 1992 H 175.417 3.31419 -2.53411 0
M  V30 1993 H 174.047 2.8665 -1.48431 0
M  V30 1994 H 173.099 1.51282 -3.49024 0
M  V30 1995 H 174.411 2.18308 -4.4849 0
M  V30 1996 H 173.565 4.50152 -4.06753 0
M  V30 1997 H 172.304 3.86533 -2.97394 0
M  V30 1998 H 171.309 2.55349 -4.86906 0
M  V30 1999 H 172.534 3.21997 -5.97909 0
M  V30 2000 H 170.48 4.84084 -4.42718 0
M  V30 2001 H 170.397 4.44783 -6.11313 0
M  V30 2002 H 171.665 5.48761 -5.53608 0
M  V30 2003 N 175.894 1.51508 0.433938 0
M  V30 2004 C 177.171 1.54888 1.19453 0
M  V30 2005 C 177.551 0.315154 2.08734 0
M  V30 2006 O 176.899 -0.699558 2.17528 0
M  V30 2007 C 177.109 2.86467 1.99342 0
M  V30 2008 C 178.457 3.38545 2.56267 0
M  V30 2009 O 179.481 2.88041 2.0955 0
M  V30 2010 O 178.34 4.26675 3.41483 0
M  V30 2011 H 175.434 0.622863 0.544032 0
M  V30 2012 H 177.98 1.63823 0.442732 0
M  V30 2013 H 176.752 3.67718 1.33788 0
M  V30 2014 H 176.375 2.8071 2.8158 0
M  V30 2015 N 177.372 -0.689602 1.41712 0
M  V30 2016 C 178.618 -1.45181 1.41599 0
M  V30 2017 C 178.951 -1.94181 0.0270081 0
M  V30 2018 O 178.226 -1.6993 -0.946265 0
M  V30 2019 C 178.509 -2.65945 2.42787 0
M  V30 2020 C 178.362 -2.22672 3.90816 0
M  V30 2021 C 179.681 -3.68149 2.41151 0
M  V30 2022 H 176.8 -0.526576 0.515642 0
M  V30 2023 H 179.442 -0.784947 1.73028 0
M  V30 2024 H 177.592 -3.2284 2.16116 0
M  V30 2025 H 179.264 -1.71058 4.28412 0
M  V30 2026 H 177.507 -1.54394 4.05395 0
M  V30 2027 H 178.178 -3.0935 4.57172 0
M  V30 2028 H 180.654 -3.2094 2.64834 0
M  V30 2029 H 179.53 -4.50248 3.13955 0
M  V30 2030 H 179.791 -4.18259 1.43221 0
M  V30 2031 N 178.85 -1.27639 -0.924453 0
M  V30 2032 C 179.798 -1.10485 -2.04685 0
M  V30 2033 C 180.792 -0.0270421 -1.69378 0
M  V30 2034 O 181.998 -0.185008 -1.79047 0
M  V30 2035 H 178.373 -0.340546 -0.670472 0
M  V30 2036 H 180.344 -2.05566 -2.16298 0
M  V30 2037 C 179.093 -0.772229 -3.39016 0
M  V30 2038 H 178.416 -1.59351 -3.66671 0
M  V30 2039 H 179.856 -0.692097 -4.18313 0
M  V30 2040 C 178.315 0.523554 -3.32807 0
M  V30 2041 O 178.845 1.55702 -3.70297 0
M  V30 2042 N 177.051 0.520363 -2.85903 0
M  V30 2043 H 176.598 -0.32107 -2.55591 0
M  V30 2044 H 176.556 1.38742 -2.82131 0
M  V30 2045 N 180.328 1.1314 -1.09713 0
M  V30 2046 C 181.553 1.88862 -0.857081 0
M  V30 2047 C 181.978 1.78729 0.586304 0
M  V30 2048 O 181.336 1.13692 1.41222 0
M  V30 2049 C 181.384 3.36325 -1.30069 0
M  V30 2050 O 180.488 4.09815 -0.461007 0
M  V30 2051 H 179.829 0.587108 -0.310162 0
M  V30 2052 H 182.359 1.43129 -1.46203 0
M  V30 2053 H 182.369 3.87157 -1.28738 0
M  V30 2054 H 181.044 3.43017 -2.35185 0
M  V30 2055 H 179.621 3.68986 -0.538888 0
M  V30 2056 N 181.806 0.884767 1.30421 0
M  V30 2057 C 183.083 0.423185 1.90967 0
M  V30 2058 C 183.463 -1.09605 1.80416 0
M  V30 2059 O 182.811 -1.93126 1.22125 0
M  V30 2060 C 183.021 0.921056 3.36627 0
M  V30 2061 C 184.369 0.955903 4.137 0
M  V30 2062 O 185.393 0.867706 3.4547 0
M  V30 2063 O 184.252 1.08614 5.35598 0
M  V30 2064 H 181.346 0.129369 0.816819 0
M  V30 2065 H 183.892 0.973653 1.3899 0
M  V30 2066 H 182.664 1.96489 3.3839 0
M  V30 2067 H 182.287 0.349741 3.96059 0
M  V30 2068 N 183.284 -1.43765 0.645699 0
M  V30 2069 C 184.514 -2.05953 0.163318 0
M  V30 2070 C 184.922 -1.48432 -1.17322 0
M  V30 2071 O 184.265 -0.607295 -1.73371 0
M  V30 2072 C 184.327 -3.59499 -0.0103065 0
M  V30 2073 C 183.991 -4.39563 1.25035 0
M  V30 2074 C 184.988 -4.72108 2.17739 0
M  V30 2075 C 182.673 -4.79697 1.48983 0
M  V30 2076 C 184.667 -5.43688 3.3269 0
M  V30 2077 C 182.354 -5.51023 2.64229 0
M  V30 2078 C 183.352 -5.8294 3.55908 0
M  V30 2079 O 183.04 -6.5281 4.69142 0
M  V30 2080 H 182.772 -0.670798 0.0836986 0
M  V30 2081 H 185.326 -1.85384 0.884407 0
M  V30 2082 H 183.556 -3.78613 -0.78669 0
M  V30 2083 H 185.245 -4.03408 -0.449087 0
M  V30 2084 H 186.011 -4.41627 2.00476 0
M  V30 2085 H 181.89 -4.54266 0.785078 0
M  V30 2086 H 185.434 -5.68517 4.04269 0
M  V30 2087 H 181.331 -5.8092 2.81429 0
M  V30 2088 H 182.099 -6.71288 4.6831 0
M  V30 2089 N 184.763 -0.387143 -1.52771 0
M  V30 2090 C 185.711 0.463953 -2.27926 0
M  V30 2091 C 186.705 1.06493 -1.31741 0
M  V30 2092 O 187.911 1.00565 -1.49287 0
M  V30 2093 H 184.286 0.16837 -0.732909 0
M  V30 2094 H 186.257 -0.19141 -2.97785 0
M  V30 2095 C 185.006 1.5803 -3.09713 0
M  V30 2096 H 184.329 1.12718 -3.83581 0
M  V30 2097 H 185.769 2.15008 -3.65442 0
M  V30 2098 C 184.228 2.53509 -2.2189 0
M  V30 2099 O 184.758 3.56863 -1.84422 0
M  V30 2100 N 182.964 2.23199 -1.86093 0
M  V30 2101 H 182.511 1.39185 -2.16761 0
M  V30 2102 H 182.469 2.87333 -1.27621 0
M  V30 2103 N 186.241 1.57166 -0.116904 0
M  V30 2104 C 187.487 1.95412 0.542405 0
M  V30 2105 C 187.82 1.00019 1.66463 0
M  V30 2106 O 187.095 0.0370346 1.94465 0
M  V30 2107 C 187.378 3.43615 1.07708 0
M  V30 2108 C 187.231 4.49781 -0.0415868 0
M  V30 2109 C 188.55 3.93616 1.96861 0
M  V30 2110 H 185.669 0.710543 0.195696 0
M  V30 2111 H 188.311 1.89027 -0.192038 0
M  V30 2112 H 186.461 3.49187 1.70296 0
M  V30 2113 H 188.133 4.56308 -0.676793 0
M  V30 2114 H 186.376 4.28033 -0.705019 0
M  V30 2115 H 187.047 5.50733 0.373717 0
M  V30 2116 H 189.523 3.90335 1.44146 0
M  V30 2117 H 188.399 4.97838 2.3119 0
M  V30 2118 H 188.66 3.34188 2.89432 0
M  V30 2119 N 187.719 -0.156864 1.56817 0
M  V30 2120 C 188.667 -1.21319 1.98455 0
M  V30 2121 C 189.661 -1.45025 0.875444 0
M  V30 2122 O 190.867 -1.45435 1.0606 0
M  V30 2123 H 187.242 -0.408142 0.631605 0
M  V30 2124 H 189.213 -0.835244 2.86472 0
M  V30 2125 C 187.962 -2.54148 2.37285 0
M  V30 2126 H 187.285 -2.36733 3.22176 0
M  V30 2127 H 188.725 -3.26712 2.70251 0
M  V30 2128 C 187.184 -3.13967 1.22173 0
M  V30 2129 O 187.714 -3.98357 0.517149 0
M  V30 2130 N 185.92 -2.7327 0.988536 0
M  V30 2131 H 185.467 -2.04744 1.56326 0
M  V30 2132 H 185.425 -3.13628 0.220209 0
M  V30 2133 N 189.197 -1.51736 -0.425897 0
M  V30 2134 C 190.443 -1.65214 -1.1761 0
M  V30 2135 C 190.776 -0.372778 -1.90589 0
M  V30 2136 O 190.051 0.628139 -1.84078 0
M  V30 2137 C 190.334 -2.86312 -2.18398 0
M  V30 2138 C 190.187 -4.24254 -1.49426 0
M  V30 2139 C 191.506 -3.02925 -3.19256 0
M  V30 2140 H 188.625 -0.601263 -0.426206 0
M  V30 2141 H 191.267 -1.8425 -0.463882 0
M  V30 2142 H 189.417 -2.70213 -2.79137 0
M  V30 2143 H 191.089 -4.52046 -0.919362 0
M  V30 2144 H 189.332 -4.26426 -0.796432 0
M  V30 2145 H 190.003 -5.05001 -2.22885 0
M  V30 2146 H 192.479 -3.1781 -2.68581 0
M  V30 2147 H 191.355 -3.89199 -3.8706 0
M  V30 2148 H 191.616 -2.15497 -3.86023 0
M  V30 2149 N 190.675 0.682077 -1.42076 0
M  V30 2150 C 191.922 1.44215 -1.42156 0
M  V30 2151 C 192.25 1.94468 -0.0354186 0
M  V30 2152 O 191.505 1.70816 0.955002 0
M  V30 2153 C 191.804 2.66036 -2.38662 0
M  V30 2154 C 191.47 2.34366 -3.85206 0
M  V30 2155 C 190.132 2.25439 -4.25124 0
M  V30 2156 C 192.484 2.08513 -4.77673 0
M  V30 2157 C 189.812 1.88775 -5.55501 0
M  V30 2158 C 192.164 1.73354 -6.08384 0
M  V30 2159 C 190.828 1.62933 -6.47309 0
M  V30 2160 H 190.098 0.527718 -0.520187 0
M  V30 2161 H 192.745 0.778387 -1.74967 0
M  V30 2162 H 191.05 3.3741 -1.99152 0
M  V30 2163 H 192.747 3.24205 -2.35991 0
M  V30 2164 H 189.337 2.42213 -3.53597 0
M  V30 2165 H 193.521 2.14346 -4.47626 0
M  V30 2166 H 188.777 1.7927 -5.84527 0
M  V30 2167 H 192.951 1.52373 -6.79526 0
M  V30 2168 H 190.578 1.34292 -7.48244 0
M  V30 2169 N 192.153 1.28127 0.917671 0
M  V30 2170 C 193.383 1.17722 1.6978 0
M  V30 2171 C 193.791 -0.267261 1.87303 0
M  V30 2172 O 193.134 -1.19286 1.39702 0
M  V30 2173 C 193.196 1.79958 3.11216 0
M  V30 2174 C 192.86 3.29187 3.16993 0
M  V30 2175 C 193.857 4.25679 2.98485 0
M  V30 2176 C 191.542 3.70075 3.39632 0
M  V30 2177 C 193.536 5.61035 3.02521 0
M  V30 2178 C 191.223 5.05557 3.433 0
M  V30 2179 C 192.221 6.00847 3.24764 0
M  V30 2180 O 191.909 7.33859 3.28187 0
M  V30 2181 H 191.641 0.409788 0.537634 0
M  V30 2182 H 194.195 1.69694 1.15728 0
M  V30 2183 H 192.425 1.22475 3.66793 0
M  V30 2184 H 194.114 1.64125 3.71238 0
M  V30 2185 H 194.88 3.95426 2.80826 0
M  V30 2186 H 190.759 2.96373 3.53106 0
M  V30 2187 H 194.303 6.35388 2.87971 0
M  V30 2188 H 190.2 5.35462 3.60486 0
M  V30 2189 H 190.968 7.42436 3.44575 0
M  V30 2190 N 193.631 -1.12557 1.10312 0
M  V30 2191 C 194.908 -1.80363 0.756878 0
M  V30 2192 C 195.288 -1.97067 -0.756824 0
M  V30 2193 O 194.636 -1.54601 -1.68259 0
M  V30 2194 C 194.846 -3.14812 1.50647 0
M  V30 2195 C 196.194 -3.90029 1.67817 0
M  V30 2196 O 197.218 -3.24464 1.46974 0
M  V30 2197 O 196.077 -5.07652 2.02365 0
M  V30 2198 H 193.171 -0.780667 0.272926 0
M  V30 2199 H 195.717 -1.19404 1.20586 0
M  V30 2200 H 194.489 -2.97936 2.53672 0
M  V30 2201 H 194.112 -3.83478 1.05026 0
M  V30 2202 N 195.109 -0.891671 -1.2995 0
M  V30 2203 C 196.334 -0.527932 -2.00568 0
M  V30 2204 C 196.759 0.877969 -1.66353 0
M  V30 2205 O 196.117 1.58301 -0.883762 0
M  V30 2206 C 196.165 -0.717745 -3.53385 0
M  V30 2207 O 195.269 0.233376 -4.11739 0
M  V30 2208 H 194.61 -0.20722 -0.630837 0
M  V30 2209 H 197.14 -1.20105 -1.65638 0
M  V30 2210 H 197.15 -0.619307 -4.03272 0
M  V30 2211 H 195.825 -1.74276 -3.77625 0
M  V30 2212 H 194.402 0.0880706 -3.72796 0
M  V30 2213 N 196.587 1.43421 -0.653314 0
M  V30 2214 C 197.535 2.32546 0.0501531 0
M  V30 2215 C 198.529 1.48617 0.812985 0
M  V30 2216 O 199.735 1.64825 0.723375 0
M  V30 2217 H 196.11 0.751185 0.0350032 0
M  V30 2218 H 198.081 2.89602 -0.719261 0
M  V30 2219 C 196.83 3.32925 1.00279 0
M  V30 2220 H 196.153 3.97532 0.425236 0
M  V30 2221 H 197.593 3.9792 1.46409 0
M  V30 2222 C 196.052 2.63532 2.09886 0
M  V30 2223 O 196.582 2.45092 3.18265 0
M  V30 2224 N 194.788 2.22905 1.86445 0
M  V30 2225 H 194.335 2.38103 0.98309 0
M  V30 2226 H 194.293 1.76805 2.59976 0
M  V30 2227 N 198.065 0.39524 1.52563 0
M  V30 2228 C 199.028 -0.425001 2.25225 0
M  V30 2229 C 200.028 -0.985266 1.27079 0
M  V30 2230 O 201.218 -0.866332 1.5113 0
M  V30 2231 C 198.35 -1.59686 3.01186 0
M  V30 2232 H 199.543 0.211233 2.99155 0
M  V30 2233 H 197.096 0.147472 1.55603 0
M  V30 2234 H 197.831 -2.27035 2.31572 0
M  V30 2235 H 197.616 -1.20176 3.73229 0
M  V30 2236 H 199.106 -2.17743 3.5634 0
M  V30 2237 N 199.544 -1.57102 0.125237 0
M  V30 2238 C 200.791 -1.95407 -0.531248 0
M  V30 2239 C 201.119 -1.0089 -1.66287 0
M  V30 2240 O 200.374 -0.0339431 -1.95671 0
M  V30 2241 C 200.673 -3.40096 -1.09862 0
M  V30 2242 C 200.339 -4.50815 -0.0876989 0
M  V30 2243 C 199.001 -4.80824 0.19026 0
M  V30 2244 C 201.353 -5.17724 0.600902 0
M  V30 2245 C 198.681 -5.75058 1.163 0
M  V30 2246 C 201.033 -6.13005 1.56231 0
M  V30 2247 C 199.697 -6.41403 1.8482 0
M  V30 2248 H 198.967 -0.715046 -0.194397 0
M  V30 2249 H 201.614 -1.90373 0.207463 0
M  V30 2250 H 199.919 -3.41855 -1.91422 0
M  V30 2251 H 201.616 -3.6705 -1.61478 0
M  V30 2252 H 198.206 -4.27444 -0.314528 0
M  V30 2253 H 202.39 -4.94691 0.399333 0
M  V30 2254 H 197.646 -5.95362 1.39117 0
M  V30 2255 H 201.82 -6.63934 2.10153 0
M  V30 2256 H 199.447 -7.14229 2.60349 0
M  V30 2257 N 201.022 0.148545 -1.56898 0
M  V30 2258 C 201.952 1.18524 -2.01182 0
M  V30 2259 C 202.933 1.4489 -0.891123 0
M  V30 2260 O 204.118 1.55836 -1.15882 0
M  V30 2261 C 201.248 2.51879 -2.39112 0
M  V30 2262 C 200.202 2.40038 -3.54353 0
M  V30 2263 C 199.528 3.78089 -3.78091 0
M  V30 2264 C 200.828 1.88577 -4.87069 0
M  V30 2265 H 202.522 0.817029 -2.88036 0
M  V30 2266 H 200.068 0.391575 -1.38574 0
M  V30 2267 H 202.021 3.24627 -2.68692 0
M  V30 2268 H 200.745 2.90532 -1.49193 0
M  V30 2269 H 199.404 1.69742 -3.24936 0
M  V30 2270 H 199.052 4.14175 -2.85426 0
M  V30 2271 H 198.752 3.71028 -4.55645 0
M  V30 2272 H 200.276 4.52387 -4.10095 0
M  V30 2273 H 201.69 2.51117 -5.15377 0
M  V30 2274 H 200.087 1.9241 -5.68417 0
M  V30 2275 H 201.157 0.84136 -4.77545 0
M  V30 2276 N 202.5 1.5196 0.417844 0
M  V30 2277 C 203.749 1.6482 1.16264 0
M  V30 2278 C 204.062 0.379886 1.91876 0
M  V30 2279 O 205.268 0.388154 2.68711 0
M  V30 2280 C 203.724 2.91161 2.1155 0
M  V30 2281 C 203.332 4.25068 1.41495 0
M  V30 2282 C 205.076 3.13383 2.86341 0
M  V30 2283 C 202.983 5.42541 2.35379 0
M  V30 2284 H 201.913 0.613954 0.437694 0
M  V30 2285 H 204.564 1.78442 0.427871 0
M  V30 2286 H 202.946 2.71218 2.88543 0
M  V30 2287 H 204.12 4.55463 0.699263 0
M  V30 2288 H 202.435 4.0888 0.787792 0
M  V30 2289 H 205.032 3.98324 3.5671 0
M  V30 2290 H 205.375 2.27256 3.48798 0
M  V30 2291 H 205.908 3.33757 2.1645 0
M  V30 2292 H 202.647 6.30987 1.77582 0
M  V30 2293 H 202.167 5.16497 3.04945 0
M  V30 2294 H 203.846 5.75272 2.96093 0
M  V30 2295 N 203.978 -0.674533 1.42435 0
M  V30 2296 C 204.926 -1.80934 1.46169 0
M  V30 2297 C 205.92 -1.66006 0.3374 0
M  V30 2298 O 207.126 -1.72611 0.510425 0
M  V30 2299 H 203.501 -0.596594 0.457798 0
M  V30 2300 H 205.472 -1.74903 2.41767 0
M  V30 2301 C 204.221 -3.19088 1.38123 0
M  V30 2302 H 203.544 -3.31203 2.23931 0
M  V30 2303 H 204.984 -3.9851 1.44797 0
M  V30 2304 C 203.443 -3.36763 0.0960517 0
M  V30 2305 O 203.973 -3.92581 -0.851073 0
M  V30 2306 N 202.179 -2.90597 0.0131186 0
M  V30 2307 H 201.726 -2.45359 0.784639 0
M  V30 2308 H 201.684 -3.028 -0.846133 0
M  V30 2309 N 205.456 -1.28612 -0.910864 0
M  V30 2310 C 206.684 -1.18792 -1.69399 0
M  V30 2311 C 207.099 0.253039 -1.87097 0
M  V30 2312 O 206.456 1.17071 -1.40003 0
M  V30 2313 C 206.507 -1.88511 -3.08457 0
M  V30 2314 O 206.228 -3.26979 -2.91576 0
M  V30 2315 C 207.729 -1.85029 -4.02839 0
M  V30 2316 H 204.949 -0.412233 -0.529438 0
M  V30 2317 H 207.493 -1.69788 -1.13984 0
M  V30 2318 H 205.648 -1.41379 -3.60681 0
M  V30 2319 H 206.062 -3.61936 -3.79608 0
M  V30 2320 H 207.536 -2.38395 -4.97867 0
M  V30 2321 H 208.013 -0.823303 -4.31414 0
M  V30 2322 H 208.619 -2.31853 -3.56545 0
M  V30 2323 N 206.934 1.1197 -1.10907 0
M  V30 2324 C 207.864 2.19928 -0.784473 0
M  V30 2325 C 208.845 1.6833 0.244726 0
M  V30 2326 O 210.03 1.93892 0.109418 0
M  V30 2327 C 207.16 3.46597 -0.220827 0
M  V30 2328 C 206.114 4.11376 -1.18127 0
M  V30 2329 C 205.44 5.32554 -0.478594 0
M  V30 2330 C 206.74 4.56945 -2.52979 0
M  V30 2331 H 208.434 2.47337 -1.68715 0
M  V30 2332 H 205.98 1.18879 -0.812642 0
M  V30 2333 H 207.933 4.21396 0.0184278 0
M  V30 2334 H 206.657 3.1863 0.717113 0
M  V30 2335 H 205.316 3.38564 -1.40606 0
M  V30 2336 H 204.964 5.00856 0.463976 0
M  V30 2337 H 204.664 5.76844 -1.11912 0
M  V30 2338 H 206.188 6.10096 -0.248 0
M  V30 2339 H 207.602 5.23093 -2.3462 0
M  V30 2340 H 205.999 5.1203 -3.12962 0
M  V30 2341 H 207.069 3.70676 -3.12614 0
M  V30 2342 N 208.412 0.89855 1.29475 0
M  V30 2343 C 209.359 0.373819 2.27753 0
M  V30 2344 C 210.329 -0.543444 1.56958 0
M  V30 2345 O 211.514 -0.468934 1.84948 0
M  V30 2346 C 208.654 -0.393648 3.42848 0
M  V30 2347 C 207.767 0.554379 4.28428 0
M  V30 2348 C 206.902 -0.230026 5.30702 0
M  V30 2349 C 205.941 0.712599 6.07938 0
M  V30 2350 N 205.078 -0.0373283 7.0209 0
M  V30 2351 H 209.918 1.21699 2.72017 0
M  V30 2352 H 207.455 0.611456 1.33789 0
M  V30 2353 H 209.413 -0.85466 4.08352 0
M  V30 2354 H 208.043 -1.20128 2.99615 0
M  V30 2355 H 207.095 1.13391 3.63107 0
M  V30 2356 H 208.407 1.27597 4.82204 0
M  V30 2357 H 207.561 -0.752288 6.02018 0
M  V30 2358 H 206.3 -0.984758 4.77654 0
M  V30 2359 H 205.305 1.24637 5.35486 0
M  V30 2360 H 206.53 1.46664 6.63074 0
M  V30 2361 H 204.476 -0.774348 6.51414 0
M  V30 2362 H 204.393 0.624374 7.53417 0
M  V30 2363 H 205.661 -0.539891 7.77628 0
M  V30 2364 N 209.89 -1.43072 0.660911 0
M  V30 2365 C 210.837 -2.30785 -0.0259884 0
M  V30 2366 C 211.807 -1.45184 -0.806888 0
M  V30 2367 O 212.992 -1.74041 -0.781943 0
M  V30 2368 C 210.132 -3.30861 -0.981067 0
M  V30 2369 C 209.245 -4.31558 -0.195458 0
M  V30 2370 C 208.38 -5.18712 -1.14503 0
M  V30 2371 C 207.419 -6.11097 -0.350299 0
M  V30 2372 N 206.556 -6.90849 -1.25186 0
M  V30 2373 H 211.396 -2.88975 0.727846 0
M  V30 2374 H 208.933 -1.42353 0.370682 0
M  V30 2375 H 210.891 -3.87399 -1.54849 0
M  V30 2376 H 209.521 -2.74304 -1.70169 0
M  V30 2377 H 208.573 -3.77252 0.488374 0
M  V30 2378 H 209.885 -4.9701 0.422176 0
M  V30 2379 H 209.039 -5.79914 -1.78284 0
M  V30 2380 H 207.778 -4.53404 -1.79656 0
M  V30 2381 H 206.783 -5.48976 0.300808 0
M  V30 2382 H 208.008 -6.7845 0.296941 0
M  V30 2383 H 205.954 -6.28182 -1.89005 0
M  V30 2384 H 205.871 -7.52854 -0.688971 0
M  V30 2385 H 207.139 -7.5655 -1.87757 0
M  V30 2386 N 211.368 -0.403325 -1.52352 0
M  V30 2387 C 212.596 0.174012 -2.06167 0
M  V30 2388 C 213.011 1.39347 -1.27388 0
M  V30 2389 O 212.368 1.79597 -0.324201 0
M  V30 2390 C 212.419 0.530223 -3.5759 0
M  V30 2391 O 212.14 -0.640806 -4.33388 0
M  V30 2392 C 213.641 1.16192 -4.27802 0
M  V30 2393 H 210.861 0.0229464 -0.670608 0
M  V30 2394 H 213.405 -0.572604 -1.9632 0
M  V30 2395 H 211.56 1.22673 -3.67464 0
M  V30 2396 H 211.974 -0.344851 -5.23365 0
M  V30 2397 H 213.448 1.36141 -5.34948 0
M  V30 2398 H 213.925 2.13335 -3.83907 0
M  V30 2399 H 214.531 0.505775 -4.22282 0
M  V30 2400 N 212.846 1.57033 -0.133567 0
M  V30 2401 C 214.092 1.95976 0.521649 0
M  V30 2402 C 214.425 1.01779 1.65393 0
M  V30 2403 O 213.7 0.0576581 1.94415 0
M  V30 2404 C 213.983 3.44738 1.04057 0
M  V30 2405 C 213.836 4.49711 -0.0892897 0
M  V30 2406 C 215.155 3.95682 1.92675 0
M  V30 2407 H 212.274 0.712579 0.188149 0
M  V30 2408 H 214.916 1.88813 -0.212076 0
M  V30 2409 H 213.066 3.50973 1.66583 0
M  V30 2410 H 214.738 4.55565 -0.725152 0
M  V30 2411 H 212.981 4.27261 -0.750378 0
M  V30 2412 H 213.652 5.51099 0.315284 0
M  V30 2413 H 216.128 3.91841 1.39998 0
M  V30 2414 H 215.004 5.00262 2.25897 0
M  V30 2415 H 215.265 3.37239 2.85872 0
M  V30 2416 N 214.325 -0.140222 1.56975 0
M  V30 2417 C 215.571 -0.852949 1.83991 0
M  V30 2418 C 215.904 -1.80512 0.716187 0
M  V30 2419 O 215.179 -1.92479 -0.279681 0
M  V30 2420 C 215.462 -1.6215 3.21527 0
M  V30 2421 C 215.315 -0.690363 4.4447 0
M  V30 2422 C 216.634 -2.58247 3.56366 0
M  V30 2423 H 213.753 -0.308634 0.669264 0
M  V30 2424 H 216.395 -0.117898 1.89634 0
M  V30 2425 H 214.545 -2.24812 3.16847 0
M  V30 2426 H 216.217 -0.0742264 4.6124 0
M  V30 2427 H 214.46 -0.000396433 4.338 0
M  V30 2428 H 215.131 -1.2643 5.37326 0
M  V30 2429 H 217.607 -2.05701 3.61699 0
M  V30 2430 H 216.483 -3.09067 4.53617 0
M  V30 2431 H 216.744 -3.39923 2.82674 0
M  V30 2432 N 215.803 -1.52179 -0.40978 0
M  V30 2433 C 216.713 -1.78364 -1.52392 0
M  V30 2434 C 217.729 -0.669183 -1.60617 0
M  V30 2435 O 218.905 -0.954518 -1.77344 0
M  V30 2436 C 215.97 -1.92822 -2.88133 0
M  V30 2437 C 215.031 -3.16725 -2.898 0
M  V30 2438 C 214.264 -3.30483 -4.19067 0
M  V30 2439 O 214.487 -2.49522 -5.12928 0
M  V30 2440 O 213.421 -4.2363 -4.27576 0
M  V30 2441 H 217.247 -2.72931 -1.33201 0
M  V30 2442 H 214.832 -1.37016 -0.59557 0
M  V30 2443 H 216.714 -2.04157 -3.68643 0
M  V30 2444 H 215.389 -1.01444 -3.07393 0
M  V30 2445 H 214.296 -3.10848 -2.08146 0
M  V30 2446 H 215.629 -4.07881 -2.75489 0
M  V30 2447 N 217.281 0.66697 -1.42791 0
M  V30 2448 C 218.506 1.46004 -1.47301 0
M  V30 2449 C 218.931 1.87894 -0.0880317 0
M  V30 2450 O 218.289 1.56502 0.915253 0
M  V30 2451 C 218.337 2.68031 -2.41229 0
M  V30 2452 O 217.441 3.6659 -1.88906 0
M  V30 2453 H 216.782 0.43832 -0.49877 0
M  V30 2454 H 219.312 0.817391 -1.87563 0
M  V30 2455 H 219.322 3.1601 -2.58073 0
M  V30 2456 H 217.997 2.36883 -3.41847 0
M  V30 2457 H 216.574 3.25661 -1.81656 0
M  V30 2458 N 218.759 1.29093 0.90403 0
M  V30 2459 C 219.722 1.1386 1.98919 0
M  V30 2460 C 220.722 0.0753457 1.60623 0
M  V30 2461 O 221.912 0.321931 1.71199 0
M  V30 2462 C 219.044 0.740198 3.32767 0
M  V30 2463 H 220.237 2.10246 2.13861 0
M  V30 2464 H 217.79 1.12218 1.08797 0
M  V30 2465 H 218.525 -0.223997 3.23525 0
M  V30 2466 H 218.31 1.50838 3.61926 0
M  V30 2467 H 219.8 0.656546 4.12407 0
M  V30 2468 N 220.237 -1.11381 1.11499 0
M  V30 2469 C 221.486 -1.82494 0.858993 0
M  V30 2470 C 221.799 -1.85605 -0.617278 0
M  V30 2471 O 223.005 -2.52824 -0.989552 0
M  V30 2472 C 221.461 -3.27745 1.48699 0
M  V30 2473 C 221.069 -3.32961 2.99735 0
M  V30 2474 C 222.813 -4.03754 1.31085 0
M  V30 2475 C 220.72 -4.72612 3.55516 0
M  V30 2476 H 219.65 -0.683802 0.317696 0
M  V30 2477 H 222.301 -1.25331 1.34031 0
M  V30 2478 H 220.683 -3.84844 0.933339 0
M  V30 2479 H 221.857 -2.85741 3.61509 0
M  V30 2480 H 220.172 -2.70433 3.16631 0
M  V30 2481 H 222.769 -5.06891 1.70192 0
M  V30 2482 H 223.112 -4.15527 0.253496 0
M  V30 2483 H 223.645 -3.53043 1.83318 0
M  V30 2484 H 220.384 -4.66036 4.60967 0
M  V30 2485 H 219.904 -5.2024 2.98513 0
M  V30 2486 H 221.583 -5.4157 3.53992 0
M  V30 2487 N 221.715 -0.905404 -1.28997 0
M  V30 2488 C 222.663 -0.377431 -2.29517 0
M  V30 2489 C 223.657 0.526461 -1.61012 0
M  V30 2490 O 224.863 0.40863 -1.753 0
M  V30 2491 H 221.238 -0.103437 -0.744852 0
M  V30 2492 H 223.209 -1.23848 -2.71485 0
M  V30 2493 C 221.958 0.374833 -3.45674 0
M  V30 2494 H 221.281 -0.311474 -3.98585 0
M  V30 2495 H 222.721 0.70903 -4.1803 0
M  V30 2496 C 221.18 1.57963 -2.97572 0
M  V30 2497 O 221.71 2.67886 -2.99333 0
M  V30 2498 N 219.916 1.42375 -2.53333 0
M  V30 2499 H 219.463 0.529466 -2.521 0
M  V30 2500 H 219.421 2.23117 -2.21509 0
M  V30 2501 N 223.193 1.4272 -0.668489 0
M  V30 2502 C 224.47 1.95248 -0.117373 0
M  V30 2503 C 224.85 1.60919 1.36632 0
M  V30 2504 O 224.198 0.902095 2.09939 0
M  V30 2505 C 224.408 3.46927 -0.379806 0
M  V30 2506 C 225.756 4.23588 -0.292923 0
M  V30 2507 O 226.78 3.5482 -0.313204 0
M  V30 2508 O 225.639 5.46017 -0.229697 0
M  V30 2509 H 222.733 0.827 0.00079152 0
M  V30 2510 H 225.279 1.52581 -0.742783 0
M  V30 2511 H 224.051 3.65096 -1.40786 0
M  V30 2512 H 223.674 3.96627 0.277923 0
M  V30 2513 N 224.671 0.411399 1.52136 0
M  V30 2514 C 225.899 -0.163076 2.06256 0
M  V30 2515 C 226.314 -1.3867 1.28125 0
M  V30 2516 O 225.671 -1.79423 0.333721 0
M  V30 2517 C 225.722 -0.511252 3.57867 0
M  V30 2518 O 225.443 0.66378 4.33042 0
M  V30 2519 C 226.944 -1.13921 4.28412 0
M  V30 2520 H 224.164 -0.0193897 0.67072 0
M  V30 2521 H 226.708 0.583007 1.96013 0
M  V30 2522 H 224.863 -1.20723 3.6811 0
M  V30 2523 H 225.277 0.372601 5.23175 0
M  V30 2524 H 226.751 -1.33302 5.35663 0
M  V30 2525 H 227.228 -2.11296 3.85033 0
M  V30 2526 H 227.834 -0.483373 4.22544 0
M  V30 2527 N 226.149 -1.5696 0.141893 0
M  V30 2528 C 227.079 -2.19516 -0.795936 0
M  V30 2529 C 228.06 -1.14187 -1.26077 0
M  V30 2530 O 229.245 -1.42511 -1.31925 0
M  V30 2531 C 226.375 -2.81272 -2.03723 0
M  V30 2532 C 225.329 -3.92384 -1.70936 0
M  V30 2533 C 224.655 -4.41052 -3.02287 0
M  V30 2534 C 225.955 -5.13403 -0.959954 0
M  V30 2535 H 227.649 -2.98138 -0.274596 0
M  V30 2536 H 225.195 -1.43406 -0.130636 0
M  V30 2537 H 227.148 -3.237 -2.69808 0
M  V30 2538 H 225.872 -1.99973 -2.58221 0
M  V30 2539 H 224.531 -3.50566 -1.07232 0
M  V30 2540 H 224.179 -3.56582 -3.54765 0
M  V30 2541 H 223.879 -5.15993 -2.81114 0
M  V30 2542 H 225.403 -4.86146 -3.69451 0
M  V30 2543 H 226.817 -5.52706 -1.52279 0
M  V30 2544 H 225.214 -5.94073 -0.848357 0
M  V30 2545 H 226.284 -4.84875 0.0492434 0
M  V30 2546 N 227.627 0.131896 -1.57047 0
M  V30 2547 C 228.537 1.1815 -2.02676 0
M  V30 2548 C 229.553 1.46113 -0.944824 0
M  V30 2549 O 230.729 1.57485 -1.25541 0
M  V30 2550 C 227.794 2.49139 -2.41103 0
M  V30 2551 C 226.855 2.28688 -3.63318 0
M  V30 2552 C 226.088 3.53431 -3.99903 0
M  V30 2553 O 226.311 4.60223 -3.36973 0
M  V30 2554 O 225.245 3.45198 -4.93074 0
M  V30 2555 H 229.071 0.824069 -2.92306 0
M  V30 2556 H 226.656 0.341745 -1.45439 0
M  V30 2557 H 228.538 3.26338 -2.66611 0
M  V30 2558 H 227.213 2.84382 -1.54624 0
M  V30 2559 H 226.12 1.4939 -3.42977 0
M  V30 2560 H 227.453 1.98355 -4.50462 0
M  V30 2561 N 229.106 1.52395 0.401703 0
M  V30 2562 C 230.331 1.70972 1.17403 0
M  V30 2563 C 230.756 0.421615 1.83314 0
M  V30 2564 O 230.114 -0.621564 1.70312 0
M  V30 2565 C 230.162 2.85151 2.20728 0
M  V30 2566 O 229.266 2.51238 3.27037 0
M  V30 2567 H 228.607 0.568927 0.342372 0
M  V30 2568 H 231.137 1.99131 0.469891 0
M  V30 2569 H 231.147 3.10279 2.64936 0
M  V30 2570 H 229.822 3.78603 1.7214 0
M  V30 2571 H 228.399 2.36808 2.88057 0
M  V30 2572 N 230.584 -0.659388 1.43143 0
M  V30 2573 C 231.831 -1.41935 1.44433 0
M  V30 2574 C 232.159 -1.94387 0.0663522 0
M  V30 2575 O 231.414 -1.72314 -0.927706 0
M  V30 2576 C 231.713 -2.62206 2.42864 0
M  V30 2577 C 231.379 -2.28208 3.88886 0
M  V30 2578 C 230.041 -2.18647 4.28657 0
M  V30 2579 C 232.393 -2.00887 4.8093 0
M  V30 2580 C 229.721 -1.79914 5.58433 0
M  V30 2581 C 232.073 -1.63653 6.11065 0
M  V30 2582 C 230.737 -1.52614 6.49819 0
M  V30 2583 H 230.007 -0.519376 0.528517 0
M  V30 2584 H 232.654 -0.750453 1.76183 0
M  V30 2585 H 230.959 -3.34199 2.04495 0
M  V30 2586 H 232.656 -3.2041 2.41119 0
M  V30 2587 H 229.246 -2.36557 3.57406 0
M  V30 2588 H 233.43 -2.07198 4.5098 0
M  V30 2589 H 228.686 -1.69948 5.87305 0
M  V30 2590 H 232.86 -1.41543 6.81864 0
M  V30 2591 H 230.487 -1.22371 7.50286 0
M  V30 2592 N 232.062 -1.29571 -0.897171 0
M  V30 2593 C 233.478 -1.07637 -1.17841 0
M  V30 2594 C 233.678 0.170713 -2.00776 0
M  V30 2595 O 232.734 0.867768 -2.3712 0
M  V30 2596 C 234.047 -2.3332 -1.8969 0
M  V30 2597 C 235.595 -2.38664 -2.02505 0
M  V30 2598 C 236.07 -3.64157 -2.77765 0
M  V30 2599 N 237.561 -3.64894 -2.85318 0
M  V30 2600 C 238.296 -4.58679 -3.44094 0
M  V30 2601 N 237.792 -5.62799 -4.04017 0
M  V30 2602 N 239.585 -4.46245 -3.41793 0
M  V30 2603 H 231.736 -2.09598 -0.343883 0
M  V30 2604 H 233.999 -0.923333 -0.214848 0
M  V30 2605 H 233.705 -3.24262 -1.36187 0
M  V30 2606 H 233.579 -2.41025 -2.9015 0
M  V30 2607 H 235.966 -1.48208 -2.55183 0
M  V30 2608 H 236.047 -2.34943 -1.01171 0
M  V30 2609 H 235.691 -4.54965 -2.25763 0
M  V30 2610 H 235.621 -3.65137 -3.7945 0
M  V30 2611 H 238.112 -2.89613 -2.42761 0
M  V30 2612 H 238.425 -6.3048 -4.46895 0
M  V30 2613 H 236.77 -5.66605 -4.02472 0
M  V30 2614 H 239.961 -3.64094 -2.94199 0
M  V30 2615 H 240.134 -5.19518 -3.87304 0
M  V30 2616 N 233.54 1.10788 -1.12088 0
M  V30 2617 C 234.45 2.20599 -0.798338 0
M  V30 2618 C 235.466 1.72712 0.21135 0
M  V30 2619 O 236.642 2.01348 0.0458477 0
M  V30 2620 C 233.707 3.45771 -0.253674 0
M  V30 2621 C 232.768 4.08411 -1.32283 0
M  V30 2622 C 232.001 5.27608 -0.80406 0
M  V30 2623 O 232.224 5.69241 0.363478 0
M  V30 2624 O 231.158 5.8101 -1.57198 0
M  V30 2625 H 234.984 2.50614 -1.7154 0
M  V30 2626 H 232.569 1.19454 -0.897275 0
M  V30 2627 H 234.451 4.21376 0.0453691 0
M  V30 2628 H 233.126 3.1739 0.636005 0
M  V30 2629 H 232.033 3.34507 -1.67499 0
M  V30 2630 H 233.366 4.40986 -2.18614 0
M  V30 2631 N 235.018 0.912232 1.28515 0
M  V30 2632 C 235.966 0.389597 2.29314 0
M  V30 2633 C 236.96 -0.517915 1.61289 0
M  V30 2634 O 238.166 -0.399328 1.75515 0
M  V30 2635 H 234.541 0.107386 0.744293 0
M  V30 2636 H 236.512 1.25286 2.70825 0
M  V30 2637 C 235.261 -0.356496 3.45868 0
M  V30 2638 H 234.584 0.332608 3.98414 0
M  V30 2639 H 236.024 -0.686851 4.184 0
M  V30 2640 C 234.483 -1.56383 2.98406 0
M  V30 2641 O 235.013 -2.66294 3.00749 0
M  V30 2642 N 233.219 -1.41029 2.54085 0
M  V30 2643 H 232.766 -0.516089 2.52377 0
M  V30 2644 H 232.724 -2.21939 2.22689 0
M  V30 2645 N 236.496 -1.42363 0.676048 0
M  V30 2646 C 237.426 -2.33497 0.0124832 0
M  V30 2647 C 238.407 -1.50748 -0.787981 0
M  V30 2648 O 239.592 -1.79346 -0.744884 0
M  V30 2649 C 236.722 -3.34377 -0.938582 0
M  V30 2650 C 235.676 -4.27289 -0.246622 0
M  V30 2651 C 235.002 -5.18386 -1.31071 0
M  V30 2652 C 236.302 -5.14916 0.875125 0
M  V30 2653 H 237.996 -2.89233 0.773593 0
M  V30 2654 H 235.542 -1.39073 0.37346 0
M  V30 2655 H 237.495 -3.97044 -1.41188 0
M  V30 2656 H 236.219 -2.76947 -1.73113 0
M  V30 2657 H 234.878 -3.66018 0.206456 0
M  V30 2658 H 234.526 -4.57282 -2.09528 0
M  V30 2659 H 234.226 -5.81378 -0.852839 0
M  V30 2660 H 235.75 -5.83929 -1.78492 0
M  V30 2661 H 237.164 -5.71262 0.482983 0
M  V30 2662 H 235.561 -5.86747 1.25887 0
M  V30 2663 H 236.631 -4.53242 1.72335 0
M  V30 2664 N 237.974 -0.419461 -1.51915 0
M  V30 2665 C 238.922 0.415502 -2.28859 0
M  V30 2666 C 239.916 1.03674 -1.3397 0
M  V30 2667 O 241.122 0.973757 -1.51387 0
M  V30 2668 H 237.497 0.152786 -0.736315 0
M  V30 2669 H 239.468 -0.254531 -2.97312 0
M  V30 2670 C 238.217 1.51425 -3.12995 0
M  V30 2671 H 237.54 1.04556 -3.85886 0
M  V30 2672 H 238.98 2.07208 -3.6992 0
M  V30 2673 C 237.439 2.48745 -2.27217 0
M  V30 2674 O 237.969 3.52871 -1.9195 0
M  V30 2675 N 236.175 2.19202 -1.90785 0
M  V30 2676 H 235.722 1.34556 -2.19664 0
M  V30 2677 H 235.68 2.84561 -1.33687 0
M  V30 2678 N 239.452 1.56882 -0.150215 0
M  V30 2679 C 240.729 1.87844 0.545327 0
M  V30 2680 C 241.109 1.0567 1.82749 0
M  V30 2681 O 240.457 0.144442 2.28043 0
M  V30 2682 C 240.667 3.39526 0.80767 0
M  V30 2683 C 242.015 4.08814 1.14703 0
M  V30 2684 O 243.039 3.44723 0.896917 0
M  V30 2685 O 241.898 5.22004 1.61784 0
M  V30 2686 H 238.992 0.778677 0.278553 0
M  V30 2687 H 241.538 1.68666 -0.187068 0
M  V30 2688 H 240.31 3.91173 -0.0996096 0
M  V30 2689 H 239.933 3.64243 1.59413 0
M  V30 2690 N 240.93 -0.123565 1.57115 0
M  V30 2691 C 242.341 -0.681198 1.73829 0
M  V30 2692 C 242.692 -1.80535 0.768214 0
M  V30 2693 O 241.817 -2.16317 -0.0599103 0
M  V30 2694 C 242.412 -1.24246 3.15196 0
M  V30 2695 C 240.971 -1.74643 3.33432 0
M  V30 2696 C 240.118 -0.644284 2.69711 0
M  V30 2697 H 243.069 0.102315 1.5837 0
M  V30 2698 H 243.09 -2.11216 3.16493 0
M  V30 2699 H 242.602 -0.424062 3.85776 0
M  V30 2700 H 240.703 -2.58974 2.67886 0
M  V30 2701 H 240.816 -1.85902 4.41562 0
M  V30 2702 H 239.18 -1.07676 2.3082 0
M  V30 2703 H 239.963 0.163058 3.42913 0
M  V30 2704 N 242.408 -1.52605 -0.393616 0
M  V30 2705 C 243.824 -1.41753 -0.733357 0
M  V30 2706 C 244.024 -0.534293 -1.94287 0
M  V30 2707 O 243.08 -0.0059787 -2.52499 0
M  V30 2708 C 244.393 -2.84531 -0.972772 0
M  V30 2709 C 245.941 -2.93978 -1.07453 0
M  V30 2710 C 246.416 -4.37756 -1.3466 0
M  V30 2711 N 247.907 -4.4106 -1.41492 0
M  V30 2712 C 248.642 -5.49387 -1.642 0
M  V30 2713 N 248.138 -6.67806 -1.8441 0
M  V30 2714 N 249.931 -5.36923 -1.66342 0
M  V30 2715 H 242.082 -2.08555 0.402328 0
M  V30 2716 H 244.345 -0.940654 0.117789 0
M  V30 2717 H 244.051 -3.51353 -0.156204 0
M  V30 2718 H 243.925 -3.26508 -1.88871 0
M  V30 2719 H 246.312 -2.27326 -1.88167 0
M  V30 2720 H 246.393 -2.55435 -0.136605 0
M  V30 2721 H 246.037 -5.04972 -0.544581 0
M  V30 2722 H 245.967 -4.73848 -2.2973 0
M  V30 2723 H 248.458 -3.55705 -1.27601 0
M  V30 2724 H 248.771 -7.46141 -2.01231 0
M  V30 2725 H 247.116 -6.70843 -1.81644 0
M  V30 2726 H 250.307 -4.43381 -1.50102 0
M  V30 2727 H 250.48 -6.21416 -1.837 0
M  V30 2728 N 243.887 0.651787 -1.4349 0
M  V30 2729 C 245.134 1.41167 -1.45183 0
M  V30 2730 C 245.462 1.94349 -0.0766601 0
M  V30 2731 O 244.717 1.72804 0.918555 0
M  V30 2732 C 245.016 2.60914 -2.44251 0
M  V30 2733 C 244.682 2.26142 -3.9009 0
M  V30 2734 C 243.344 2.16371 -4.2981 0
M  V30 2735 C 245.696 1.98334 -4.81989 0
M  V30 2736 C 243.024 1.7695 -5.5938 0
M  V30 2737 C 245.376 1.6041 -6.11924 0
M  V30 2738 C 244.04 1.49166 -6.5062 0
M  V30 2739 H 243.31 0.516566 -0.531263 0
M  V30 2740 H 245.957 0.741099 -1.76579 0
M  V30 2741 H 244.262 3.3311 -2.06265 0
M  V30 2742 H 245.959 3.19127 -2.42815 0
M  V30 2743 H 242.549 2.34658 -3.58655 0
M  V30 2744 H 246.733 2.04803 -4.52072 0
M  V30 2745 H 241.989 1.66831 -5.88198 0
M  V30 2746 H 246.163 1.37925 -6.82605 0
M  V30 2747 H 243.79 1.1839 -7.50925 0
M  V30 2748 N 245.365 1.30045 0.890287 0
M  V30 2749 C 246.642 1.09227 1.62262 0
M  V30 2750 C 247.022 -0.360305 2.08002 0
M  V30 2751 O 246.37 -1.35084 1.84295 0
M  V30 2752 C 246.58 2.08835 2.79623 0
M  V30 2753 C 247.928 2.40266 3.50082 0
M  V30 2754 O 248.952 2.07104 2.89804 0
M  V30 2755 O 247.811 2.96967 4.58773 0
M  V30 2756 H 244.905 0.419132 0.712922 0
M  V30 2757 H 247.451 1.41451 0.937529 0
M  V30 2758 H 246.223 3.06633 2.43089 0
M  V30 2759 H 245.846 1.77397 3.55832 0
M  V30 2760 N 246.843 -1.10192 1.12674 0
M  V30 2761 C 248.073 -1.85713 0.905213 0
M  V30 2762 C 248.481 -1.81056 -0.549108 0
M  V30 2763 O 247.824 -1.19927 -1.39151 0
M  V30 2764 C 247.886 -3.34972 1.30516 0
M  V30 2765 C 247.55 -3.63385 2.77129 0
M  V30 2766 C 248.547 -3.59772 3.75313 0
M  V30 2767 C 246.232 -3.91981 3.14096 0
M  V30 2768 C 248.226 -3.84354 5.08479 0
M  V30 2769 C 245.913 -4.16218 4.47443 0
M  V30 2770 C 246.911 -4.12395 5.44444 0
M  V30 2771 O 246.599 -4.36014 6.75387 0
M  V30 2772 H 246.331 -0.593719 0.323223 0
M  V30 2773 H 248.885 -1.40198 1.50112 0
M  V30 2774 H 247.115 -3.81156 0.652463 0
M  V30 2775 H 248.804 -3.91886 1.05736 0
M  V30 2776 H 249.57 -3.37716 3.48099 0
M  V30 2777 H 245.449 -3.94085 2.39202 0
M  V30 2778 H 248.993 -3.81285 5.84181 0
M  V30 2779 H 244.89 -4.37754 4.74386 0
M  V30 2780 H 245.658 -4.53516 6.8137 0
M  V30 2781 N 248.321 -0.919034 -1.28029 0
M  V30 2782 C 249.269 -0.401753 -2.29104 0
M  V30 2783 C 250.263 0.509354 -1.61561 0
M  V30 2784 O 251.469 0.390014 -1.75724 0
M  V30 2785 H 247.844 -0.111331 -0.743713 0
M  V30 2786 H 249.815 -1.2672 -2.70156 0
M  V30 2787 C 248.564 0.338148 -3.46052 0
M  V30 2788 H 247.887 -0.353732 -3.98232 0
M  V30 2789 H 249.327 0.664653 -4.18758 0
M  V30 2790 C 247.786 1.54798 -2.99231 0
M  V30 2791 O 248.316 2.64696 -3.02157 0
M  V30 2792 N 246.522 1.3968 -2.54829 0
M  V30 2793 H 246.069 0.502698 -2.52647 0
M  V30 2794 H 246.027 2.20755 -2.23863 0
M  V30 2795 N 249.799 1.42003 -0.683588 0
M  V30 2796 C 250.746 2.30798 -0.0107309 0
M  V30 2797 C 251.716 1.4645 0.783688 0
M  V30 2798 O 252.901 1.75263 0.754156 0
M  V30 2799 C 250.041 3.3238 0.928306 0
M  V30 2800 C 249.154 4.31814 0.126776 0
M  V30 2801 C 248.289 5.20468 1.06236 0
M  V30 2802 C 247.328 6.11577 0.253035 0
M  V30 2803 N 246.465 6.92754 1.14179 0
M  V30 2804 H 251.305 2.8778 -0.773727 0
M  V30 2805 H 248.842 1.41745 -0.393283 0
M  V30 2806 H 250.8 3.89813 1.48666 0
M  V30 2807 H 249.43 2.76976 1.65783 0
M  V30 2808 H 248.482 3.76427 -0.54833 0
M  V30 2809 H 249.794 4.96276 -0.501192 0
M  V30 2810 H 248.948 5.82677 1.69035 0
M  V30 2811 H 247.687 4.56204 1.7242 0
M  V30 2812 H 246.692 5.48428 -0.388108 0
M  V30 2813 H 247.917 6.77892 -0.404839 0
M  V30 2814 H 245.863 6.3111 1.78987 0
M  V30 2815 H 245.78 7.53855 0.569111 0
M  V30 2816 H 247.048 7.59441 1.75697 0
M  V30 2817 N 251.277 0.427512 1.51691 0
M  V30 2818 C 252.524 -0.142229 2.02 0
M  V30 2819 C 252.852 -1.43566 1.31221 0
M  V30 2820 O 252.107 -1.91298 0.412744 0
M  V30 2821 C 252.406 -0.418249 3.54944 0
M  V30 2822 C 252.072 0.788187 4.43958 0
M  V30 2823 C 250.734 1.11906 4.68007 0
M  V30 2824 C 253.086 1.59347 4.96244 0
M  V30 2825 C 250.414 2.25608 5.41588 0
M  V30 2826 C 252.766 2.7214 5.71072 0
M  V30 2827 C 251.43 3.05692 5.93387 0
M  V30 2828 H 250.7 -0.0520451 0.73917 0
M  V30 2829 H 253.347 0.572697 1.82736 0
M  V30 2830 H 251.652 -1.21496 3.72486 0
M  V30 2831 H 253.349 -0.872339 3.91397 0
M  V30 2832 H 249.939 0.520344 4.2543 0
M  V30 2833 H 254.123 1.35106 4.77556 0
M  V30 2834 H 249.379 2.51929 5.57083 0
M  V30 2835 H 253.553 3.34914 6.10578 0
M  V30 2836 H 251.18 3.9391 6.50184 0
M  V30 2837 N 252.755 -1.56801 0.158532 0
M  V30 2838 C 254.002 -1.9649 -0.489679 0
M  V30 2839 C 254.33 -1.04394 -1.6411 0
M  V30 2840 O 253.585 -0.0754401 -1.95555 0
M  V30 2841 C 253.884 -3.4235 -1.02623 0
M  V30 2842 C 253.55 -4.50899 0.00794526 0
M  V30 2843 C 252.212 -4.80312 0.292207 0
M  V30 2844 C 254.564 -5.16333 0.710584 0
M  V30 2845 C 251.892 -5.72461 1.28472 0
M  V30 2846 C 254.244 -6.09553 1.69199 0
M  V30 2847 C 252.908 -6.37339 1.98383 0
M  V30 2848 H 252.178 -0.719009 -0.179186 0
M  V30 2849 H 254.825 -1.8989 0.247798 0
M  V30 2850 H 253.13 -3.45838 -1.84128 0
M  V30 2851 H 254.827 -3.70393 -1.53656 0
M  V30 2852 H 251.417 -4.28015 -0.22379 0
M  V30 2853 H 255.601 -4.93732 0.504174 0
M  V30 2854 H 250.857 -5.92278 1.51714 0
M  V30 2855 H 255.031 -6.59327 2.24189 0
M  V30 2856 H 252.658 -7.08546 2.7544 0
M  V30 2857 N 254.233 0.115231 -1.57178 0
M  V30 2858 C 255.649 0.468877 -1.52557 0
M  V30 2859 C 255.849 1.81649 -0.872125 0
M  V30 2860 O 254.905 2.48347 -0.45606 0
M  V30 2861 C 256.218 0.4499 -2.97315 0
M  V30 2862 C 257.766 0.533185 -3.08425 0
M  V30 2863 C 258.241 0.54456 -4.54751 0
M  V30 2864 N 259.732 0.605892 -4.5922 0
M  V30 2865 C 260.467 0.636203 -5.6986 0
M  V30 2866 N 259.963 0.623931 -6.89985 0
M  V30 2867 N 261.756 0.679496 -5.57978 0
M  V30 2868 H 253.907 -0.767712 -1.9804 0
M  V30 2869 H 256.17 -0.283609 -0.904583 0
M  V30 2870 H 255.876 -0.472721 -3.48509 0
M  V30 2871 H 255.75 1.27632 -3.5495 0
M  V30 2872 H 258.137 1.44623 -2.57232 0
M  V30 2873 H 258.218 -0.320995 -2.53778 0
M  V30 2874 H 257.862 -0.364452 -5.06591 0
M  V30 2875 H 257.792 1.41568 -5.07214 0
M  V30 2876 H 260.283 0.621386 -3.72756 0
M  V30 2877 H 260.596 0.649787 -7.70063 0
M  V30 2878 H 258.941 0.591296 -6.9248 0
M  V30 2879 H 262.132 0.686472 -4.63039 0
M  V30 2880 H 262.305 0.69965 -6.44212 0
M  V30 2881 N 255.711 1.52812 0.385517 0
M  V30 2882 C 256.658 1.77838 1.47113 0
M  V30 2883 C 257.628 0.621757 1.54024 0
M  V30 2884 O 258.813 0.861846 1.70226 0
M  V30 2885 C 255.953 1.95618 2.84302 0
M  V30 2886 C 255.066 3.23316 2.86515 0
M  V30 2887 C 254.201 3.31394 4.15152 0
M  V30 2888 C 253.24 4.53201 4.1143 0
M  V30 2889 N 252.377 4.58542 5.3168 0
M  V30 2890 H 257.217 2.70482 1.25073 0
M  V30 2891 H 254.754 1.34006 0.606692 0
M  V30 2892 H 256.712 2.03912 3.63972 0
M  V30 2893 H 255.342 1.06331 3.04784 0
M  V30 2894 H 254.394 3.24076 1.99195 0
M  V30 2895 H 255.706 4.13045 2.79634 0
M  V30 2896 H 254.86 3.3889 5.03228 0
M  V30 2897 H 253.599 2.39645 4.24761 0
M  V30 2898 H 252.604 4.45827 3.21742 0
M  V30 2899 H 253.829 5.46271 4.03442 0
M  V30 2900 H 251.775 3.69686 5.41912 0
M  V30 2901 H 251.692 5.42148 5.26889 0
M  V30 2902 H 252.96 4.70296 6.21644 0
M  V30 2903 N 257.189 -0.644168 1.43834 0
M  V30 2904 C 258.605 -0.960875 1.27434 0
M  V30 2905 C 258.805 -2.00499 0.200618 0
M  V30 2906 O 257.861 -2.49018 -0.417906 0
M  V30 2907 C 259.174 -1.43653 2.64167 0
M  V30 2908 C 260.722 -1.55271 2.71772 0
M  V30 2909 C 261.197 -2.06224 4.08944 0
M  V30 2910 N 262.688 -2.13513 4.11055 0
M  V30 2911 C 263.423 -2.54081 5.14033 0
M  V30 2912 N 262.919 -2.9388 6.27381 0
M  V30 2913 N 264.712 -2.54101 5.01387 0
M  V30 2914 H 256.863 0.0465779 2.12349 0
M  V30 2915 H 259.126 -0.0417638 0.94708 0
M  V30 2916 H 258.832 -0.743706 3.43747 0
M  V30 2917 H 258.706 -2.40993 2.90176 0
M  V30 2918 H 261.093 -2.23653 1.92519 0
M  V30 2919 H 261.174 -0.563395 2.49519 0
M  V30 2920 H 260.818 -1.38441 4.88668 0
M  V30 2921 H 260.748 -3.06003 4.28567 0
M  V30 2922 H 263.239 -1.85493 3.29242 0
M  V30 2923 H 263.552 -3.2361 7.01781 0
M  V30 2924 H 261.897 -2.91663 6.30839 0
M  V30 2925 H 265.088 -2.22391 4.11898 0
M  V30 2926 H 265.261 -2.85394 5.81768 0
M  V30 2927 N 258.668 -1.30515 -0.883378 0
M  V30 2928 C 259.601 -1.11359 -1.99184 0
M  V30 2929 C 260.579 -0.0207858 -1.62587 0
M  V30 2930 O 261.763 -0.174646 -1.87689 0
M  V30 2931 C 258.89 -0.69871 -3.31415 0
M  V30 2932 C 257.936 -1.79261 -3.86998 0
M  V30 2933 S 258.769 -3.39536 -4.14096 0
M  V30 2934 C 259.925 -2.99954 -5.49344 0
M  V30 2935 H 260.158 -2.052 -2.15128 0
M  V30 2936 H 257.691 -1.14847 -1.03196 0
M  V30 2937 H 259.649 -0.466075 -4.07846 0
M  V30 2938 H 258.31 0.220368 -3.13326 0
M  V30 2939 H 257.503 -1.45464 -4.82552 0
M  V30 2940 H 257.105 -1.97961 -3.17313 0
M  V30 2941 H 259.397 -2.48013 -6.30473 0
M  V30 2942 H 260.34 -3.9442 -5.8808 0
M  V30 2943 H 260.748 -2.37775 -5.1198 0
M  V30 2944 N 260.146 1.09593 -1.13257 0
M  V30 2945 C 261.056 2.19739 -0.821691 0
M  V30 2946 C 262.072 1.72926 0.19302 0
M  V30 2947 O 263.248 2.01385 0.0244895 0
M  V30 2948 C 260.313 3.45482 -0.290333 0
M  V30 2949 C 259.374 4.06985 -1.36607 0
M  V30 2950 C 258.607 5.26726 -0.859975 0
M  V30 2951 O 258.83 5.69594 0.303082 0
M  V30 2952 O 257.764 5.7931 -1.63351 0
M  V30 2953 H 261.59 2.48781 -1.74189 0
M  V30 2954 H 259.175 1.18496 -0.909894 0
M  V30 2955 H 261.057 4.214 0.000674022 0
M  V30 2956 H 259.732 3.18047 0.602306 0
M  V30 2957 H 258.639 3.32712 -1.71037 0
M  V30 2958 H 259.972 4.38643 -2.23279 0
M  V30 2959 N 261.624 0.925811 1.2754 0
M  V30 2960 C 262.873 0.561084 1.93739 0
M  V30 2961 C 263.186 -0.901685 1.73577 0
M  V30 2962 O 264.392 -1.37511 2.34101 0
M  V30 2963 C 262.848 0.952668 3.47062 0
M  V30 2964 C 262.456 2.43599 3.75983 0
M  V30 2965 C 264.2 0.659103 4.19352 0
M  V30 2966 C 262.107 2.76707 5.22673 0
M  V30 2967 H 261.037 0.206122 0.725279 0
M  V30 2968 H 263.688 1.12637 1.44863 0
M  V30 2969 H 262.07 0.316053 3.94737 0
M  V30 2970 H 263.244 3.12035 3.39073 0
M  V30 2971 H 261.559 2.70125 3.16893 0
M  V30 2972 H 264.156 0.882985 5.27359 0
M  V30 2973 H 264.499 -0.403607 4.14339 0
M  V30 2974 H 265.032 1.25473 3.77494 0
M  V30 2975 H 261.771 3.8188 5.32774 0
M  V30 2976 H 261.291 2.12919 5.60737 0
M  V30 2977 H 262.97 2.6435 5.90532 0
M  V30 2978 N 263.102 -1.41638 0.69111 0
M  V30 2979 C 264.351 -2.00526 0.217318 0
M  V30 2980 C 264.664 -1.55353 -1.18848 0
M  V30 2981 O 265.87 -2.06769 -1.75951 0
M  V30 2982 C 264.326 -3.58313 0.337639 0
M  V30 2983 C 263.934 -4.12469 1.74852 0
M  V30 2984 C 265.678 -4.24431 -0.0766066 0
M  V30 2985 C 263.585 -5.62675 1.82074 0
M  V30 2986 H 262.515 -0.750008 0.0774893 0
M  V30 2987 H 265.166 -1.6217 0.858661 0
M  V30 2988 H 263.548 -3.9425 -0.371879 0
M  V30 2989 H 264.722 -3.8796 2.48644 0
M  V30 2990 H 263.037 -3.58861 2.11205 0
M  V30 2991 H 265.634 -5.34683 -0.0430284 0
M  V30 2992 H 265.977 -4.01101 -1.1146 0
M  V30 2993 H 266.51 -3.93512 0.582476 0
M  V30 2994 H 263.249 -5.90826 2.83911 0
M  V30 2995 H 262.769 -5.89124 1.12661 0
M  V30 2996 H 264.448 -6.27371 1.58159 0
M  V30 2997 N 264.58 -0.43555 -1.51462 0
M  V30 2998 C 265.81 0.130053 -2.0619 0
M  V30 2999 C 266.218 1.37164 -1.30317 0
M  V30 3000 O 265.561 1.80225 -0.355598 0
M  V30 3001 C 265.623 0.519418 -3.55728 0
M  V30 3002 C 265.287 -0.615119 -4.52841 0
M  V30 3003 C 266.284 -1.48671 -4.9819 0
M  V30 3004 C 263.969 -0.795341 -4.95963 0
M  V30 3005 C 265.963 -2.52324 -5.8533 0
M  V30 3006 C 263.65 -1.83514 -5.82894 0
M  V30 3007 C 264.648 -2.69748 -6.27475 0
M  V30 3008 O 264.336 -3.71944 -7.1268 0
M  V30 3009 H 264.068 0.0121612 -0.675891 0
M  V30 3010 H 266.622 -0.6129 -1.96043 0
M  V30 3011 H 264.852 1.31505 -3.63653 0
M  V30 3012 H 266.541 1.01597 -3.92979 0
M  V30 3013 H 267.307 -1.359 -4.65571 0
M  V30 3014 H 263.186 -0.133713 -4.60806 0
M  V30 3015 H 266.73 -3.19665 -6.20048 0
M  V30 3016 H 262.627 -1.96306 -6.14926 0
M  V30 3017 H 263.395 -3.68503 -7.30854 0
M  V30 3018 N 266.058 1.56714 -0.166846 0
M  V30 3019 C 267.335 1.88412 0.525373 0
M  V30 3020 C 267.715 1.07602 1.81618 0
M  V30 3021 O 267.063 0.168621 2.27877 0
M  V30 3022 C 267.273 3.40363 0.771613 0
M  V30 3023 C 268.621 4.10007 1.1036 0
M  V30 3024 O 269.645 3.45655 0.860304 0
M  V30 3025 O 268.504 5.2369 1.56239 0
M  V30 3026 H 265.598 0.781587 0.270278 0
M  V30 3027 H 268.144 1.68458 -0.204946 0
M  V30 3028 H 266.916 3.91046 -0.141093 0
M  V30 3029 H 266.539 3.65914 1.55541 0
M  V30 3030 N 267.536 -0.106894 1.57237 0
M  V30 3031 C 268.483 -1.13049 2.01217 0
M  V30 3032 C 269.453 -1.40471 0.886403 0
M  V30 3033 O 270.638 -1.52133 1.15153 0
M  V30 3034 C 267.778 -2.4487 2.43172 0
M  V30 3035 C 266.891 -2.24281 3.69218 0
M  V30 3036 C 266.026 -3.49417 4.00101 0
M  V30 3037 C 265.065 -3.24038 5.19294 0
M  V30 3038 N 264.202 -4.41409 5.45988 0
M  V30 3039 H 269.042 -0.748456 2.88448 0
M  V30 3040 H 266.579 -0.358054 1.42676 0
M  V30 3041 H 268.537 -3.21786 2.65537 0
M  V30 3042 H 267.167 -2.80944 1.58967 0
M  V30 3043 H 266.219 -1.38224 3.54398 0
M  V30 3044 H 267.531 -2.01512 4.56283 0
M  V30 3045 H 266.685 -4.34746 4.2318 0
M  V30 3046 H 265.424 -3.75229 3.11535 0
M  V30 3047 H 264.429 -2.37102 4.96047 0
M  V30 3048 H 265.654 -2.99584 6.09447 0
M  V30 3049 H 263.6 -4.67319 4.60379 0
M  V30 3050 H 263.517 -4.21788 6.274 0
M  V30 3051 H 264.785 -5.27836 5.73593 0
M  V30 3052 N 269.014 -1.53014 -0.377408 0
M  V30 3053 C 269.946 -1.74884 -1.48149 0
M  V30 3054 C 270.959 -0.629433 -1.5014 0
M  V30 3055 O 272.148 -0.905416 -1.53833 0
M  V30 3056 C 269.248 -1.80299 -2.86959 0
M  V30 3057 C 268.421 -3.09776 -3.08801 0
M  V30 3058 C 267.48 -3.06586 -4.27658 0
M  V30 3059 O 266.506 -3.80419 -4.23403 0
M  V30 3060 N 267.708 -2.26578 -5.34455 0
M  V30 3061 H 270.473 -2.70147 -1.29771 0
M  V30 3062 H 268.034 -1.51646 -0.56703 0
M  V30 3063 H 270.026 -1.75657 -3.64591 0
M  V30 3064 H 268.596 -0.92372 -2.98641 0
M  V30 3065 H 267.816 -3.27815 -2.18931 0
M  V30 3066 H 269.104 -3.95366 -3.20255 0
M  V30 3067 H 268.502 -1.66081 -5.40771 0
M  V30 3068 H 267.059 -2.27766 -6.10709 0
M  V30 3069 N 270.492 0.636531 -1.44174 0
M  V30 3070 C 271.439 1.74875 -1.50624 0
M  V30 3071 C 272.409 1.62275 -0.35442 0
M  V30 3072 O 273.594 1.82276 -0.563908 0
M  V30 3073 C 270.734 3.13102 -1.45125 0
M  V30 3074 C 269.847 3.36717 -2.7064 0
M  V30 3075 C 268.982 4.64885 -2.57013 0
M  V30 3076 C 268.021 4.8166 -3.77717 0
M  V30 3077 N 267.158 6.01101 -3.62798 0
M  V30 3078 H 271.998 1.68697 -2.45653 0
M  V30 3079 H 269.535 0.823004 -1.21922 0
M  V30 3080 H 271.493 3.93034 -1.39929 0
M  V30 3081 H 270.123 3.18308 -0.536671 0
M  V30 3082 H 269.175 2.50763 -2.86046 0
M  V30 3083 H 270.487 3.44993 -3.60252 0
M  V30 3084 H 269.641 5.52969 -2.49619 0
M  V30 3085 H 268.38 4.58957 -1.64953 0
M  V30 3086 H 267.385 3.92007 -3.85501 0
M  V30 3087 H 268.61 4.89406 -4.70807 0
M  V30 3088 H 266.556 5.96273 -2.73486 0
M  V30 3089 H 266.473 6.10409 -4.46023 0
M  V30 3090 H 267.741 6.91761 -3.59286 0
M  V30 3091 N 271.97 1.30982 0.876444 0
M  V30 3092 C 272.918 1.18006 2.00443 0
M  V30 3093 C 273.912 0.0898871 1.69161 0
M  V30 3094 O 275.118 0.251333 1.78237 0
M  V30 3095 H 271.493 0.365196 0.65737 0
M  V30 3096 H 273.464 2.13453 2.0852 0
M  V30 3097 C 272.213 0.897521 3.35916 0
M  V30 3098 H 271.536 1.7285 3.60504 0
M  V30 3099 H 272.976 0.846874 4.15456 0
M  V30 3100 C 271.435 -0.399674 3.34521 0
M  V30 3101 O 271.965 -1.41852 3.7582 0
M  V30 3102 N 270.171 -0.413893 2.87637 0
M  V30 3103 H 269.718 0.41571 2.54224 0
M  V30 3104 H 269.676 -1.28175 2.87086 0
M  V30 3105 N 273.449 -1.08991 1.13837 0
M  V30 3106 C 274.696 -1.81258 0.902882 0
M  V30 3107 C 275.024 -1.85936 -0.570803 0
M  V30 3108 O 274.279 -1.3267 -1.43865 0
M  V30 3109 C 274.578 -3.27042 1.44147 0
M  V30 3110 C 274.244 -3.4249 2.93276 0
M  V30 3111 C 272.906 -3.46414 3.33992 0
M  V30 3112 C 275.258 -3.4666 3.892 0
M  V30 3113 C 272.586 -3.52091 4.69307 0
M  V30 3114 C 274.938 -3.53872 5.24364 0
M  V30 3115 C 273.602 -3.56066 5.646 0
M  V30 3116 H 272.872 -0.663268 0.330388 0
M  V30 3117 H 275.519 -1.28368 1.42105 0
M  V30 3118 H 273.824 -3.82599 0.844097 0
M  V30 3119 H 275.521 -3.81499 1.23528 0
M  V30 3120 H 272.111 -3.40124 2.60794 0
M  V30 3121 H 276.295 -3.42865 3.58828 0
M  V30 3122 H 271.551 -3.52079 4.9985 0
M  V30 3123 H 275.725 -3.56043 5.98503 0
M  V30 3124 H 273.352 -3.60218 6.69438 0
M  V30 3125 N 274.927 -0.932562 -1.27047 0
M  V30 3126 C 276.176 -0.571351 -1.93439 0
M  V30 3127 C 276.489 0.892467 -1.74053 0
M  V30 3128 O 277.695 1.36267 -2.34826 0
M  V30 3129 C 276.151 -0.97106 -3.46552 0
M  V30 3130 C 275.759 -2.4559 -3.74686 0
M  V30 3131 C 277.503 -0.681333 -4.18997 0
M  V30 3132 C 275.41 -2.79475 -5.21198 0
M  V30 3133 H 274.34 -0.209966 -0.724176 0
M  V30 3134 H 276.991 -1.13403 -1.44263 0
M  V30 3135 H 275.373 -0.336983 -3.94564 0
M  V30 3136 H 276.547 -3.13829 -3.37414 0
M  V30 3137 H 274.862 -2.71802 -3.15456 0
M  V30 3138 H 277.459 -0.910939 -5.26883 0
M  V30 3139 H 277.802 0.381628 -4.14547 0
M  V30 3140 H 278.335 -1.27473 -3.76823 0
M  V30 3141 H 275.074 -3.847 -5.30741 0
M  V30 3142 H 274.594 -2.1589 -5.596 0
M  V30 3143 H 276.273 -2.67478 -5.89122 0
M  V30 3144 N 276.405 1.4127 -0.698611 0
M  V30 3145 C 277.353 2.32588 -0.023855 0
M  V30 3146 C 278.347 1.51128 0.765292 0
M  V30 3147 O 279.553 1.67043 0.670571 0
M  V30 3148 H 275.928 0.751918 0.0110871 0
M  V30 3149 H 277.899 2.87167 -0.811031 0
M  V30 3150 C 276.648 3.35947 0.896369 0
M  V30 3151 H 275.971 3.98684 0.298548 0
M  V30 3152 H 277.411 4.02376 1.33676 0
M  V30 3153 C 275.87 2.70076 2.01396 0
M  V30 3154 O 276.4 2.55093 3.10307 0
M  V30 3155 N 274.606 2.28724 1.79259 0
M  V30 3156 H 274.153 2.4111 0.906841 0
M  V30 3157 H 274.111 1.84986 2.54219 0
M  V30 3158 N 277.883 0.443576 1.51229 0
M  V30 3159 C 279.113 -0.119117 2.06256 0
M  V30 3160 C 279.521 -1.36471 1.31043 0
M  V30 3161 O 278.864 -1.80034 0.365151 0
M  V30 3162 C 278.926 -0.500546 3.55998 0
M  V30 3163 C 278.59 0.639125 4.52509 0
M  V30 3164 C 279.587 1.51311 4.97394 0
M  V30 3165 C 277.272 0.821632 4.95535 0
M  V30 3166 C 279.266 2.55425 5.83984 0
M  V30 3167 C 276.953 1.86603 5.81913 0
M  V30 3168 C 277.951 2.73072 6.26036 0
M  V30 3169 O 277.639 3.75718 7.10698 0
M  V30 3170 H 277.371 -0.00857665 0.675946 0
M  V30 3171 H 279.925 0.623288 1.95715 0
M  V30 3172 H 278.155 -1.29575 3.64345 0
M  V30 3173 H 279.844 -0.995116 3.93513 0
M  V30 3174 H 280.61 1.38367 4.64844 0
M  V30 3175 H 276.489 0.158149 4.60729 0
M  V30 3176 H 280.033 3.22949 6.18344 0
M  V30 3177 H 275.93 1.99564 6.13876 0
M  V30 3178 H 276.698 3.72374 7.2889 0
M  V30 3179 N 279.361 -1.56624 0.175154 0
M  V30 3180 C 280.591 -2.01082 -0.474283 0
M  V30 3181 C 280.999 -1.05447 -1.57091 0
M  V30 3182 O 280.342 -0.0480595 -1.83637 0
M  V30 3183 C 280.404 -3.41963 -1.10911 0
M  V30 3184 C 280.068 -4.56742 -0.153666 0
M  V30 3185 C 281.065 -5.16076 0.629448 0
M  V30 3186 C 278.75 -5.02277 -0.0483776 0
M  V30 3187 C 280.744 -6.19377 1.50501 0
M  V30 3188 C 278.431 -6.05427 0.830768 0
M  V30 3189 C 279.429 -6.63849 1.60605 0
M  V30 3190 O 279.117 -7.64998 2.47049 0
M  V30 3191 H 278.849 -0.664261 -0.125432 0
M  V30 3192 H 281.403 -2.03549 0.275163 0
M  V30 3193 H 279.633 -3.36422 -1.90676 0
M  V30 3194 H 281.322 -3.70352 -1.66114 0
M  V30 3195 H 282.088 -4.81776 0.558297 0
M  V30 3196 H 277.967 -4.56513 -0.641611 0
M  V30 3197 H 281.511 -6.64906 2.1106 0
M  V30 3198 H 277.408 -6.39151 0.903107 0
M  V30 3199 H 278.176 -7.82336 2.40607 0
M  V30 3200 N 280.839 0.0985539 -1.57292 0
M  V30 3201 C 281.786 1.11981 -2.01814 0
M  V30 3202 C 282.756 1.39999 -0.89384 0
M  V30 3203 O 283.941 1.5152 -1.15958 0
M  V30 3204 C 281.081 2.43577 -2.44467 0
M  V30 3205 C 280.194 2.2232 -3.70402 0
M  V30 3206 C 279.329 3.4729 -4.01949 0
M  V30 3207 C 278.368 3.2128 -5.21005 0
M  V30 3208 N 277.505 4.38507 -5.48321 0
M  V30 3209 H 282.345 0.733149 -2.88841 0
M  V30 3210 H 279.882 0.350482 -1.42864 0
M  V30 3211 H 281.84 3.20373 -2.6724 0
M  V30 3212 H 280.47 2.80097 -1.60455 0
M  V30 3213 H 279.522 1.36343 -3.55126 0
M  V30 3214 H 280.834 1.99089 -4.57345 0
M  V30 3215 H 279.988 4.32495 -4.25479 0
M  V30 3216 H 278.727 3.73572 -3.13521 0
M  V30 3217 H 277.732 2.34468 -4.97298 0
M  V30 3218 H 278.957 2.96348 -6.11028 0
M  V30 3219 H 276.903 4.64871 -4.62851 0
M  V30 3220 H 276.82 4.18455 -6.29628 0
M  V30 3221 H 278.088 5.24787 -5.76385 0
M  V30 3222 N 282.317 1.53212 0.369288 0
M  V30 3223 C 283.28 1.7872 1.43498 0
M  V30 3224 C 284.28 0.657554 1.46741 0
M  V30 3225 O 285.47 0.925736 1.47566 0
M  V30 3226 C 282.602 1.90591 2.82645 0
M  V30 3227 H 283.795 2.73894 1.22156 0
M  V30 3228 H 281.348 1.44233 0.602203 0
M  V30 3229 H 282.083 0.974709 3.09306 0
M  V30 3230 H 281.868 2.72751 2.8169 0
M  V30 3231 H 283.358 2.11931 3.59826 0
M  V30 3232 N 283.795 -0.628877 1.44509 0
M  V30 3233 C 284.727 -1.754 1.47538 0
M  V30 3234 C 285.74 -1.58575 0.368506 0
M  V30 3235 O 286.929 -1.66847 0.634376 0
M  V30 3236 C 284.029 -3.1315 1.29577 0
M  V30 3237 C 283.202 -3.56413 2.53551 0
M  V30 3238 C 282.261 -4.7305 2.30457 0
M  V30 3239 O 281.287 -4.81247 3.03957 0
M  V30 3240 N 282.489 -5.64903 1.3366 0
M  V30 3241 H 285.254 -1.73272 2.44534 0
M  V30 3242 H 282.815 -0.813512 1.39977 0
M  V30 3243 H 284.807 -3.88902 1.11971 0
M  V30 3244 H 283.377 -3.09908 0.409371 0
M  V30 3245 H 282.597 -2.70847 2.86419 0
M  V30 3246 H 283.885 -3.82071 3.36005 0
M  V30 3247 H 283.283 -5.60975 0.729604 0
M  V30 3248 H 281.84 -6.40275 1.22032 0
M  V30 3249 N 285.273 -1.31445 -0.869486 0
M  V30 3250 C 286.689 -1.10113 -1.15531 0
M  V30 3251 C 286.889 0.128087 -2.01092 0
M  V30 3252 O 285.945 0.817276 -2.38908 0
M  V30 3253 C 287.258 -2.37291 -1.84698 0
M  V30 3254 C 288.806 -2.42906 -1.97397 0
M  V30 3255 C 289.281 -3.69967 -2.69979 0
M  V30 3256 N 290.772 -3.70864 -2.77514 0
M  V30 3257 C 291.507 -4.65875 -3.34287 0
M  V30 3258 N 291.003 -5.71242 -3.91988 0
M  V30 3259 N 292.796 -4.53394 -3.3225 0
M  V30 3260 H 284.947 -2.1028 -0.299347 0
M  V30 3261 H 287.21 -0.927683 -0.195214 0
M  V30 3262 H 286.916 -3.27078 -1.29278 0
M  V30 3263 H 286.79 -2.47125 -2.84972 0
M  V30 3264 H 289.177 -1.53588 -2.51982 0
M  V30 3265 H 289.258 -2.37036 -0.961643 0
M  V30 3266 H 288.902 -4.59652 -2.16062 0
M  V30 3267 H 288.832 -3.73103 -3.7162 0
M  V30 3268 H 291.323 -2.94697 -2.36563 0
M  V30 3269 H 291.636 -6.39817 -4.33421 0
M  V30 3270 H 289.981 -5.75015 -3.90362 0
M  V30 3271 H 293.172 -3.70252 -2.8641 0
M  V30 3272 H 293.345 -5.27617 -3.76197 0
M  V30 3273 N 286.751 1.08385 -1.14413 0
M  V30 3274 C 287.661 2.18856 -0.844951 0
M  V30 3275 C 288.677 1.73121 0.174668 0
M  V30 3276 O 289.853 2.014 0.00312857 0
M  V30 3277 C 286.918 3.45155 -0.32696 0
M  V30 3278 C 285.979 4.05513 -1.40916 0
M  V30 3279 C 285.212 5.25784 -0.915793 0
M  V30 3280 O 285.435 5.69884 0.242651 0
M  V30 3281 O 284.369 5.77545 -1.69487 0
M  V30 3282 H 288.195 2.46919 -1.76818 0
M  V30 3283 H 285.78 1.17524 -0.922411 0
M  V30 3284 H 287.662 4.21377 -0.0440211 0
M  V30 3285 H 286.337 3.18668 0.568539 0
M  V30 3286 H 285.244 3.30879 -1.74556 0
M  V30 3287 H 286.577 4.3625 -2.27919 0
M  V30 3288 N 288.23 0.939286 1.26551 0
M  V30 3289 C 289.14 0.453432 2.30176 0
M  V30 3290 C 290.156 -0.471649 1.67486 0
M  V30 3291 O 291.332 -0.35164 1.98306 0
M  V30 3292 C 288.397 -0.275326 3.45605 0
M  V30 3293 C 287.458 0.686084 4.23782 0
M  V30 3294 C 286.691 -0.00798994 5.33699 0
M  V30 3295 O 286.914 -1.22528 5.57085 0
M  V30 3296 O 285.848 0.669746 5.98162 0
M  V30 3297 H 289.674 1.31416 2.73795 0
M  V30 3298 H 287.259 0.705095 1.31715 0
M  V30 3299 H 289.141 -0.685911 4.1578 0
M  V30 3300 H 287.816 -1.11147 3.0402 0
M  V30 3301 H 286.723 1.14658 3.56096 0
M  V30 3302 H 288.056 1.48979 4.69112 0
M  V30 3303 N 289.708 -1.40897 0.706093 0
M  V30 3304 C 290.656 -2.32572 0.0361893 0
M  V30 3305 C 291.65 -1.51532 -0.757266 0
M  V30 3306 O 292.856 -1.67396 -0.661703 0
M  V30 3307 H 289.231 -0.751966 -0.00709935 0
M  V30 3308 H 291.202 -2.86733 0.826249 0
M  V30 3309 C 289.951 -3.36418 -0.87854 0
M  V30 3310 H 289.274 -3.98836 -0.277401 0
M  V30 3311 H 290.714 -4.0308 -1.3154 0
M  V30 3312 C 289.173 -2.71141 -1.99961 0
M  V30 3313 O 289.703 -2.56735 -3.0895 0
M  V30 3314 N 287.909 -2.29671 -1.78043 0
M  V30 3315 H 287.456 -2.41588 -0.894042 0
M  V30 3316 H 287.414 -1.86332 -2.53235 0
M  V30 3317 N 291.186 -0.45159 -1.50991 0
M  V30 3318 C 292.597 0.00818571 -1.86698 0
M  V30 3319 C 292.948 1.40661 -1.3678 0
M  V30 3320 O 292.073 2.0391 -0.724546 0
M  V30 3321 C 292.668 0.0216303 -3.38793 0
M  V30 3322 C 291.227 0.425865 -3.73983 0
M  V30 3323 C 290.374 -0.372163 -2.74791 0
M  V30 3324 H 293.325 -0.666785 -1.44013 0
M  V30 3325 H 293.346 0.828078 -3.7138 0
M  V30 3326 H 292.858 -0.996288 -3.75094 0
M  V30 3327 H 290.959 1.44886 -3.43277 0
M  V30 3328 H 291.072 0.140761 -4.78893 0
M  V30 3329 H 289.436 0.171498 -2.54122 0
M  V30 3330 H 290.219 -1.38922 -3.13935 0
M  V30 3331 N 292.664 1.56529 -0.183458 0
M  V30 3332 C 293.574 2.22144 0.754272 0
M  V30 3333 C 294.59 1.21684 1.24374 0
M  V30 3334 O 295.766 1.54385 1.29333 0
M  V30 3335 C 292.831 2.85884 1.96141 0
M  V30 3336 C 291.892 4.01579 1.51765 0
M  V30 3337 C 291.125 4.6227 2.66725 0
M  V30 3338 O 291.348 4.21865 3.83909 0
M  V30 3339 O 290.282 5.51936 2.40104 0
M  V30 3340 H 294.108 3.02861 0.225527 0
M  V30 3341 H 291.693 1.49331 0.0453032 0
M  V30 3342 H 293.575 3.26253 2.66715 0
M  V30 3343 H 292.25 2.08154 2.47899 0
M  V30 3344 H 291.157 3.65856 0.781049 0
M  V30 3345 H 292.49 4.80938 1.04686 0
M  V30 3346 N 294.142 -0.090211 1.57342 0
M  V30 3347 C 295.072 -1.10976 2.05443 0
M  V30 3348 C 296.053 -1.41482 0.944284 0
M  V30 3349 O 297.238 -1.51428 1.21586 0
M  V30 3350 C 294.368 -2.42831 2.48295 0
M  V30 3351 C 293.322 -2.26721 3.63018 0
M  V30 3352 C 292.648 -3.63796 3.91863 0
M  V30 3353 C 293.948 -1.7037 4.93732 0
M  V30 3354 H 295.642 -0.709564 2.9087 0
M  V30 3355 H 293.188 -0.339874 1.39932 0
M  V30 3356 H 295.141 -3.14431 2.80555 0
M  V30 3357 H 293.865 -2.84795 1.59873 0
M  V30 3358 H 292.524 -1.57565 3.31012 0
M  V30 3359 H 292.172 -4.03297 3.00601 0
M  V30 3360 H 291.872 -3.53861 4.69101 0
M  V30 3361 H 293.396 -4.36855 4.26603 0
M  V30 3362 H 294.81 -2.31816 5.24342 0
M  V30 3363 H 293.207 -1.71181 5.75167 0
M  V30 3364 H 294.277 -0.663542 4.80339 0
M  V30 3365 N 295.62 -1.53406 -0.361157 0
M  V30 3366 C 296.869 -1.69022 -1.10066 0
M  V30 3367 C 297.182 -0.450838 -1.90333 0
M  V30 3368 O 298.388 -0.487617 -2.67085 0
M  V30 3369 C 296.844 -2.98812 -2.00598 0
M  V30 3370 C 296.452 -4.30027 -1.25621 0
M  V30 3371 C 298.196 -3.23795 -2.74513 0
M  V30 3372 C 296.103 -5.50903 -2.1508 0
M  V30 3373 H 295.033 -0.629776 -0.414606 0
M  V30 3374 H 297.684 -1.79907 -0.361348 0
M  V30 3375 H 296.066 -2.8174 -2.78278 0
M  V30 3376 H 297.24 -4.57745 -0.529739 0
M  V30 3377 H 295.555 -4.11522 -0.635496 0
M  V30 3378 H 298.152 -4.11289 -3.41681 0
M  V30 3379 H 298.495 -2.40045 -3.40123 0
M  V30 3380 H 299.028 -3.41561 -2.03914 0
M  V30 3381 H 295.767 -6.37143 -1.54041 0
M  V30 3382 H 295.287 -5.27459 -2.85565 0
M  V30 3383 H 296.966 -5.85865 -2.74538 0
M  V30 3384 N 297.098 0.621204 -1.44841 0
M  V30 3385 C 298.347 1.37658 -1.47422 0
M  V30 3386 C 298.66 1.95264 -0.114629 0
M  V30 3387 O 299.866 2.71494 -0.0180199 0
M  V30 3388 C 298.322 2.49285 -2.59586 0
M  V30 3389 C 297.93 1.98149 -4.01797 0
M  V30 3390 C 299.674 3.26409 -2.71399 0
M  V30 3391 C 297.581 3.07178 -5.05367 0
M  V30 3392 H 296.511 0.517344 -0.548517 0
M  V30 3393 H 299.162 0.667257 -1.70938 0
M  V30 3394 H 297.544 3.22839 -2.29328 0
M  V30 3395 H 298.718 1.31395 -4.41669 0
M  V30 3396 H 297.033 1.33812 -3.94314 0
M  V30 3397 H 299.63 4.07706 -3.45948 0
M  V30 3398 H 299.973 3.76535 -1.77559 0
M  V30 3399 H 300.506 2.5995 -3.01116 0
M  V30 3400 H 297.245 2.61985 -6.00869 0
M  V30 3401 H 296.765 3.72542 -4.70077 0
M  V30 3402 H 298.444 3.71789 -5.29511 0
M  V30 3403 N 298.576 1.31904 0.862503 0
M  V30 3404 C 299.853 1.12644 1.59908 0
M  V30 3405 C 300.233 -0.316104 2.0872 0
M  V30 3406 O 299.581 -1.31145 1.87118 0
M  V30 3407 C 299.791 2.1472 2.7513 0
M  V30 3408 C 301.139 2.47637 3.44907 0
M  V30 3409 O 302.163 2.13205 2.85346 0
M  V30 3410 O 301.022 3.06632 4.52371 0
M  V30 3411 H 298.116 0.43416 0.703871 0
M  V30 3412 H 300.662 1.43408 0.907314 0
M  V30 3413 H 299.434 3.1172 2.3653 0
M  V30 3414 H 299.057 1.84905 3.51989 0
M  V30 3415 N 300.054 -1.07777 1.14986 0
M  V30 3416 C 301.331 -1.7699 0.832695 0
M  V30 3417 C 301.711 -2.001 -0.672561 0
M  V30 3418 O 301.059 -1.61598 -1.6155 0
M  V30 3419 C 301.269 -3.08139 1.63863 0
M  V30 3420 C 302.617 -3.8256 1.84208 0
M  V30 3421 O 303.641 -3.17939 1.60603 0
M  V30 3422 O 302.5 -4.98612 2.23714 0
M  V30 3423 H 299.594 -0.768389 0.305791 0
M  V30 3424 H 302.14 -1.14182 1.25541 0
M  V30 3425 H 300.912 -2.86909 2.6608 0
M  V30 3426 H 300.535 -3.78678 1.21197 0
M  V30 3427 N 301.532 -0.945985 -1.26051 0
M  V30 3428 C 302.781 -0.591836 -1.92822 0
M  V30 3429 C 303.094 0.873956 -1.7499 0
M  V30 3430 O 304.3 1.33769 -2.36259 0
M  V30 3431 C 302.756 -1.00776 -3.45503 0
M  V30 3432 C 302.364 -2.4955 -3.7206 0
M  V30 3433 C 304.108 -0.725735 -4.1825 0
M  V30 3434 C 302.015 -2.84988 -5.18205 0
M  V30 3435 H 300.945 -0.217635 -0.721908 0
M  V30 3436 H 303.596 -1.14927 -1.43052 0
M  V30 3437 H 301.978 -0.378812 -3.94184 0
M  V30 3438 H 303.152 -3.1739 -3.34066 0
M  V30 3439 H 301.467 -2.75133 -3.12555 0
M  V30 3440 H 304.064 -0.966771 -5.25887 0
M  V30 3441 H 304.407 0.337639 -4.14929 0
M  V30 3442 H 304.94 -1.31463 -3.7545 0
M  V30 3443 H 301.679 -3.90307 -5.26631 0
M  V30 3444 H 301.199 -2.21813 -5.57278 0
M  V30 3445 H 302.878 -2.73712 -5.86252 0
M  V30 3446 N 303.011 1.40521 -0.713556 0
M  V30 3447 C 304.257 2.01221 -0.252564 0
M  V30 3448 C 304.59 1.56444 1.1506 0
M  V30 3449 O 303.865 0.783597 1.78017 0
M  V30 3450 C 304.148 3.58582 -0.330332 0
M  V30 3451 C 304.001 4.13437 -1.77173 0
M  V30 3452 C 305.32 4.39079 0.299641 0
M  V30 3453 H 302.439 0.731077 -0.0932471 0
M  V30 3454 H 305.081 1.67026 -0.905673 0
M  V30 3455 H 303.231 3.87844 0.225737 0
M  V30 3456 H 304.903 3.9498 -2.38303 0
M  V30 3457 H 303.146 3.67801 -2.3001 0
M  V30 3458 H 303.817 5.22597 -1.77755 0
M  V30 3459 H 306.293 4.15735 -0.174139 0
M  V30 3460 H 305.169 5.4848 0.214771 0
M  V30 3461 H 305.43 4.19915 1.38288 0
M  V30 3462 N 304.489 0.459591 1.5075 0
M  V30 3463 C 305.436 -0.340524 2.28274 0
M  V30 3464 C 306.406 -0.997371 1.32822 0
M  V30 3465 O 307.591 -1.01202 1.61749 0
M  V30 3466 C 304.731 -1.42317 3.14388 0
M  V30 3467 C 303.844 -0.782251 4.24859 0
M  V30 3468 C 302.979 -1.84182 4.98247 0
M  V30 3469 C 302.018 -1.18053 6.00608 0
M  V30 3470 N 301.155 -2.18244 6.67319 0
M  V30 3471 H 305.995 0.326899 2.96202 0
M  V30 3472 H 303.532 0.173057 1.46078 0
M  V30 3473 H 305.49 -2.06241 3.62658 0
M  V30 3474 H 304.12 -2.05992 2.4853 0
M  V30 3475 H 303.172 -0.0307404 3.80388 0
M  V30 3476 H 304.484 -0.259663 4.98124 0
M  V30 3477 H 303.638 -2.55714 5.50177 0
M  V30 3478 H 302.377 -2.39819 4.24662 0
M  V30 3479 H 301.382 -0.450776 5.47949 0
M  V30 3480 H 302.607 -0.631202 6.7616 0
M  V30 3481 H 300.553 -2.72919 5.96533 0
M  V30 3482 H 300.47 -1.70938 7.36421 0
M  V30 3483 H 301.738 -2.89191 7.23871 0
M  V30 3484 N 305.967 -1.56429 0.191757 0
M  V30 3485 C 307.195 -2.01867 -0.453586 0
M  V30 3486 C 307.61 -1.07191 -1.5542 0
M  V30 3487 O 306.967 -0.0762108 -1.82341 0
M  V30 3488 C 307.018 -3.47017 -1.013 0
M  V30 3489 O 306.739 -4.38078 0.0437005 0
M  V30 3490 C 308.24 -4.07956 -1.73456 0
M  V30 3491 H 305.46 -0.661211 -0.114199 0
M  V30 3492 H 308.004 -2.02295 0.299483 0
M  V30 3493 H 306.159 -3.47298 -1.71647 0
M  V30 3494 H 306.573 -5.23178 -0.372212 0
M  V30 3495 H 308.047 -5.1138 -2.07833 0
M  V30 3496 H 308.524 -3.51222 -2.63704 0
M  V30 3497 H 309.13 -4.11437 -1.07702 0
M  V30 3498 N 307.445 0.0818655 -1.57387 0
M  V30 3499 C 308.675 0.794954 -1.90694 0
M  V30 3500 C 309.083 1.72147 -0.784982 0
M  V30 3501 O 308.426 1.81974 0.251196 0
M  V30 3502 C 308.488 1.65042 -3.19376 0
M  V30 3503 C 308.152 0.894337 -4.48164 0
M  V30 3504 C 309.149 0.21813 -5.19442 0
M  V30 3505 C 306.834 0.864495 -4.94805 0
M  V30 3506 C 308.828 -0.477802 -6.35607 0
M  V30 3507 C 306.515 0.164785 -6.10878 0
M  V30 3508 C 307.513 -0.505173 -6.81129 0
M  V30 3509 O 307.201 -1.19363 -7.94989 0
M  V30 3510 H 306.933 0.231779 -0.635023 0
M  V30 3511 H 309.487 0.059493 -2.05314 0
M  V30 3512 H 307.717 2.42844 -3.00938 0
M  V30 3513 H 309.406 2.24127 -3.38411 0
M  V30 3514 H 310.172 0.232558 -4.84442 0
M  V30 3515 H 306.051 1.37542 -4.40004 0
M  V30 3516 H 309.595 -1.00129 -6.90377 0
M  V30 3517 H 305.492 0.148249 -6.4533 0
M  V30 3518 H 306.26 -1.10188 -8.11049 0
M  V30 3519 N 308.923 1.53595 0.353017 0
M  V30 3520 C 309.853 1.83902 1.43883 0
M  V30 3521 C 310.834 0.693421 1.55324 0
M  V30 3522 O 312.019 0.944452 1.69687 0
M  V30 3523 C 309.149 2.04016 2.8106 0
M  V30 3524 C 308.103 3.19814 2.84434 0
M  V30 3525 C 307.429 3.25244 4.24406 0
M  V30 3526 C 308.729 4.58133 2.50822 0
M  V30 3527 H 310.423 2.74835 1.1877 0
M  V30 3528 H 307.969 1.32242 0.569917 0
M  V30 3529 H 309.922 2.238 3.57059 0
M  V30 3530 H 308.646 1.09804 3.07588 0
M  V30 3531 H 307.305 2.9987 2.10887 0
M  V30 3532 H 306.953 2.28646 4.48029 0
M  V30 3533 H 306.653 4.03054 4.27576 0
M  V30 3534 H 308.177 3.47228 5.0226 0
M  V30 3535 H 309.591 4.77995 3.16534 0
M  V30 3536 H 307.988 5.38276 2.6529 0
M  V30 3537 H 309.058 4.62387 1.46034 0
M  V30 3538 N 310.401 -0.613514 1.45168 0
M  V30 3539 C 311.626 -1.40437 1.52618 0
M  V30 3540 C 312.051 -1.87438 0.157707 0
M  V30 3541 O 311.409 -1.59791 -0.856537 0
M  V30 3542 C 311.457 -2.58894 2.51011 0
M  V30 3543 O 310.561 -3.59326 2.02382 0
M  V30 3544 H 309.902 -0.419506 0.514695 0
M  V30 3545 H 312.432 -0.747215 1.90467 0
M  V30 3546 H 312.442 -3.06214 2.69624 0
M  V30 3547 H 311.117 -2.24032 3.50403 0
M  V30 3548 H 309.694 -3.18695 1.93618 0
M  V30 3549 N 311.879 -1.3236 -0.855495 0
M  V30 3550 C 312.827 -1.2118 -1.9854 0
M  V30 3551 C 313.821 -0.116788 -1.68997 0
M  V30 3552 O 315.027 -0.279657 -1.77814 0
M  V30 3553 H 311.402 -0.375608 -0.651477 0
M  V30 3554 H 313.373 -2.16743 -2.05098 0
M  V30 3555 C 312.122 -0.950849 -3.34446 0
M  V30 3556 H 311.445 -1.78563 -3.57708 0
M  V30 3557 H 312.885 -0.912863 -4.14057 0
M  V30 3558 C 311.344 0.346404 -3.35114 0
M  V30 3559 O 311.874 1.35855 -3.7803 0
M  V30 3560 N 310.08 0.36808 -2.88259 0
M  V30 3561 H 309.627 -0.456102 -2.5353 0
M  V30 3562 H 309.585 1.23591 -2.89089 0
M  V30 3563 N 313.357 1.07166 -1.15556 0
M  V30 3564 C 314.267 2.17947 -0.868116 0
M  V30 3565 C 315.283 1.73297 0.156297 0
M  V30 3566 O 316.459 2.01392 -0.0182327 0
M  V30 3567 C 313.524 3.44789 -0.36355 0
M  V30 3568 C 312.585 4.03996 -1.45209 0
M  V30 3569 C 311.818 5.24783 -0.971508 0
M  V30 3570 O 312.041 5.70109 0.182194 0
M  V30 3571 O 310.975 5.75715 -1.75603 0
M  V30 3572 H 314.801 2.4503 -1.79427 0
M  V30 3573 H 312.386 1.16539 -0.934824 0
M  V30 3574 H 314.268 4.21307 -0.0887113 0
M  V30 3575 H 312.943 3.19253 0.534708 0
M  V30 3576 H 311.85 3.29009 -1.78056 0
M  V30 3577 H 313.183 4.33808 -2.32533 0
M  V30 3578 N 314.835 0.952656 1.25548 0
M  V30 3579 C 316.065 0.622592 1.96996 0
M  V30 3580 C 316.473 -0.809112 1.71026 0
M  V30 3581 O 315.816 -1.55258 0.981861 0
M  V30 3582 C 315.878 0.798946 3.5051 0
M  V30 3583 C 315.542 2.20744 4.00151 0
M  V30 3584 C 316.539 3.18394 4.11001 0
M  V30 3585 C 314.224 2.5311 4.33867 0
M  V30 3586 C 316.218 4.46504 4.54877 0
M  V30 3587 C 313.905 3.8145 4.7743 0
M  V30 3588 C 314.903 4.77959 4.87897 0
M  V30 3589 O 314.591 6.04012 5.30494 0
M  V30 3590 H 314.323 0.232503 0.634758 0
M  V30 3591 H 316.877 1.2789 1.60728 0
M  V30 3592 H 315.107 0.0854903 3.86605 0
M  V30 3593 H 316.796 0.47023 4.03167 0
M  V30 3594 H 317.562 2.94715 3.85186 0
M  V30 3595 H 313.441 1.78719 4.24948 0
M  V30 3596 H 316.985 5.21835 4.62962 0
M  V30 3597 H 312.882 4.04936 5.0269 0
M  V30 3598 H 313.65 6.0736 5.48685 0
M  V30 3599 N 316.313 -1.40141 0.720998 0
M  V30 3600 C 317.538 -2.05618 0.271258 0
M  V30 3601 C 317.963 -1.53978 -1.08039 0
M  V30 3602 O 317.321 -0.677463 -1.68167 0
M  V30 3603 C 317.369 -3.59609 0.267197 0
M  V30 3604 O 316.473 -4.05526 -0.749814 0
M  V30 3605 H 315.814 -0.651904 0.126162 0
M  V30 3606 H 318.344 -1.79439 0.982997 0
M  V30 3607 H 318.354 -4.0786 0.106744 0
M  V30 3608 H 317.029 -3.96559 1.25354 0
M  V30 3609 H 315.606 -3.68722 -0.556644 0
M  V30 3610 N 317.792 -0.46758 -1.50504 0
M  V30 3611 C 318.739 0.328413 -2.28452 0
M  V30 3612 C 319.709 0.990313 -1.33349 0
M  V30 3613 O 320.894 1.00343 -1.62284 0
M  V30 3614 C 318.034 1.40648 -3.15138 0
M  V30 3615 C 317.147 0.759709 -4.25267 0
M  V30 3616 C 316.282 1.81537 -4.99217 0
M  V30 3617 C 315.321 1.14866 -6.01226 0
M  V30 3618 N 314.458 2.14702 -6.68467 0
M  V30 3619 H 319.298 -0.342603 -2.96024 0
M  V30 3620 H 316.835 -0.180801 -1.45985 0
M  V30 3621 H 318.793 2.04315 -3.63746 0
M  V30 3622 H 317.423 2.04671 -2.49619 0
M  V30 3623 H 316.475 0.0105671 -3.80399 0
M  V30 3624 H 317.787 0.233243 -4.98254 0
M  V30 3625 H 316.941 2.52793 -5.51526 0
M  V30 3626 H 315.68 2.37564 -4.25928 0
M  V30 3627 H 314.685 0.42171 -5.4818 0
M  V30 3628 H 315.91 0.595334 -6.76485 0
M  V30 3629 H 313.856 2.69752 -5.97972 0
M  V30 3630 H 313.773 1.6703 -7.37317 0
M  V30 3631 H 315.041 2.85348 -7.25394 0
M  V30 3632 N 319.27 1.56325 -0.20005 0
M  V30 3633 C 320.18 2.22931 0.730668 0
M  V30 3634 C 321.196 1.22997 1.23076 0
M  V30 3635 O 322.372 1.55748 1.27689 0
M  V30 3636 C 319.437 2.87948 1.93098 0
M  V30 3637 C 318.498 4.03166 1.47497 0
M  V30 3638 C 317.731 4.65073 2.61807 0
M  V30 3639 O 317.954 4.25913 3.79413 0
M  V30 3640 O 316.888 5.54452 2.34237 0
M  V30 3641 H 320.714 3.03084 0.193391 0
M  V30 3642 H 318.299 1.49371 0.0294621 0
M  V30 3643 H 320.181 3.29063 2.6324 0
M  V30 3644 H 318.856 2.10771 2.45677 0
M  V30 3645 H 317.763 3.66664 0.742201 0
M  V30 3646 H 319.096 4.82022 0.995796 0
M  V30 3647 N 320.748 -0.0735177 1.57428 0
M  V30 3648 C 321.997 -0.771809 1.86349 0
M  V30 3649 C 322.31 -1.78828 0.792452 0
M  V30 3650 O 323.516 -2.53602 0.96945 0
M  V30 3651 C 321.972 -1.42358 3.30548 0
M  V30 3652 C 321.58 -0.445761 4.45777 0
M  V30 3653 C 323.324 -2.10434 3.6867 0
M  V30 3654 C 321.231 -1.10335 5.81016 0
M  V30 3655 H 320.161 -0.291999 0.695164 0
M  V30 3656 H 322.812 -0.0250749 1.83483 0
M  V30 3657 H 321.194 -2.21852 3.28021 0
M  V30 3658 H 322.368 0.319239 4.59693 0
M  V30 3659 H 320.683 0.130457 4.16196 0
M  V30 3660 H 323.28 -2.60405 4.67004 0
M  V30 3661 H 323.623 -2.90298 2.98383 0
M  V30 3662 H 324.156 -1.37773 3.7318 0
M  V30 3663 H 320.895 -0.345061 6.54591 0
M  V30 3664 H 320.415 -1.83925 5.70904 0
M  V30 3665 H 322.094 -1.62367 6.26295 0
M  V30 3666 N 322.226 -1.5378 -0.344866 0
M  V30 3667 C 323.503 -1.61589 -1.10219 0
M  V30 3668 C 323.883 -0.436316 -2.06542 0
M  V30 3669 O 323.231 0.571543 -2.21237 0
M  V30 3670 C 323.441 -2.97602 -1.82301 0
M  V30 3671 C 324.789 -3.5291 -2.36093 0
M  V30 3672 O 325.813 -2.99768 -1.924 0
M  V30 3673 O 324.672 -4.45859 -3.16026 0
M  V30 3674 H 321.766 -0.653522 -0.506792 0
M  V30 3675 H 324.312 -1.66126 -0.346465 0
M  V30 3676 H 323.084 -3.74893 -1.12121 0
M  V30 3677 H 322.707 -2.9665 -2.64735 0
M  V30 3678 N 323.704 0.605807 -1.45491 0
M  V30 3679 C 324.614 1.74466 -1.56839 0
M  V30 3680 C 325.63 1.68006 -0.452772 0
M  V30 3681 O 326.806 1.8833 -0.713708 0
M  V30 3682 C 323.871 3.10931 -1.53371 0
M  V30 3683 C 322.932 3.28832 -2.75986 0
M  V30 3684 C 322.165 4.58787 -2.72673 0
M  V30 3685 O 322.388 5.4122 -1.80102 0
M  V30 3686 O 321.322 4.79438 -3.63899 0
M  V30 3687 H 325.148 1.67843 -2.53106 0
M  V30 3688 H 322.733 0.770108 -1.28022 0
M  V30 3689 H 324.615 3.92233 -1.54051 0
M  V30 3690 H 323.29 3.18042 -0.602572 0
M  V30 3691 H 322.197 2.47112 -2.80867 0
M  V30 3692 H 323.53 3.26599 -3.68231 0
M  V30 3693 N 325.182 1.32811 0.848464 0
M  V30 3694 C 326.112 1.24882 1.97299 0
M  V30 3695 C 327.093 0.131357 1.69592 0
M  V30 3696 O 328.278 0.319553 1.91553 0
M  V30 3697 C 325.408 0.97746 3.33261 0
M  V30 3698 C 324.362 2.05682 3.75338 0
M  V30 3699 C 323.688 1.63777 5.09 0
M  V30 3700 C 324.988 3.47254 3.90144 0
M  V30 3701 H 326.682 2.18966 2.04191 0
M  V30 3702 H 324.228 1.05413 0.981029 0
M  V30 3703 H 326.181 0.908513 4.1149 0
M  V30 3704 H 324.905 0.000980011 3.266 0
M  V30 3705 H 323.564 2.11603 2.99366 0
M  V30 3706 H 323.212 0.648569 4.98801 0
M  V30 3707 H 322.912 2.36 5.38124 0
M  V30 3708 H 324.436 1.5833 5.89715 0
M  V30 3709 H 325.85 3.43888 4.58709 0
M  V30 3710 H 324.247 4.1788 4.30693 0
M  V30 3711 H 325.317 3.86462 2.92874 0
M  V30 3712 N 326.66 -1.06551 1.16123 0
M  V30 3713 C 327.608 -2.16063 0.861371 0
M  V30 3714 C 328.602 -1.6856 -0.168517 0
M  V30 3715 O 329.808 -1.79986 -0.0227579 0
M  V30 3716 H 326.183 -0.705278 0.260934 0
M  V30 3717 H 328.154 -2.38567 1.79244 0
M  V30 3718 C 326.903 -3.45661 0.376018 0
M  V30 3719 H 326.226 -3.82604 1.15992 0
M  V30 3720 H 327.666 -4.23504 0.204951 0
M  V30 3721 C 326.125 -3.24546 -0.903954 0
M  V30 3722 O 326.655 -3.49865 -1.97377 0
M  V30 3723 N 324.861 -2.77992 -0.846679 0
M  V30 3724 H 324.408 -2.57589 0.0241017 0
M  V30 3725 H 324.366 -2.64244 -1.70359 0
M  V30 3726 N 328.138 -0.959301 -1.25041 0
M  V30 3727 C 329.366 -0.633949 -1.96948 0
M  V30 3728 C 329.781 0.794916 -1.7125 0
M  V30 3729 O 329.138 1.53231 -0.991287 0
M  V30 3730 C 329.189 -0.888805 -3.50403 0
M  V30 3731 O 328.91 -2.26149 -3.75218 0
M  V30 3732 C 330.411 -0.576482 -4.39536 0
M  V30 3733 H 327.631 -0.237263 -0.627652 0
M  V30 3734 H 330.175 -1.28495 -1.59089 0
M  V30 3735 H 328.33 -0.284145 -3.86357 0
M  V30 3736 H 328.744 -2.33514 -4.6965 0
M  V30 3737 H 330.218 -0.805314 -5.46094 0
M  V30 3738 H 330.695 0.489075 -4.36468 0
M  V30 3739 H 331.301 -1.16067 -4.09156 0
M  V30 3740 N 329.616 1.39756 -0.72842 0
M  V30 3741 C 330.846 2.04651 -0.283117 0
M  V30 3742 C 331.254 1.5502 1.08469 0
M  V30 3743 O 330.597 0.707343 1.69536 0
M  V30 3744 C 330.659 3.58947 -0.199309 0
M  V30 3745 C 330.323 4.31525 -1.5045 0
M  V30 3746 C 331.32 4.5861 -2.44894 0
M  V30 3747 C 329.005 4.70195 -1.76698 0
M  V30 3748 C 330.999 5.23366 -3.63822 0
M  V30 3749 C 328.686 5.3468 -2.95906 0
M  V30 3750 C 329.684 5.61198 -3.89289 0
M  V30 3751 O 329.372 6.24347 -5.06404 0
M  V30 3752 H 329.104 0.664777 -0.122666 0
M  V30 3753 H 331.658 1.79913 -0.990987 0
M  V30 3754 H 329.888 3.82556 0.56461 0
M  V30 3755 H 331.577 4.0534 0.213125 0
M  V30 3756 H 332.343 4.29187 -2.25883 0
M  V30 3757 H 328.222 4.48916 -1.04859 0
M  V30 3758 H 331.766 5.4398 -4.36728 0
M  V30 3759 H 327.663 5.63524 -3.14819 0
M  V30 3760 H 328.431 6.42842 -5.06652 0
M  V30 3761 N 331.094 0.475555 1.50254 0
M  V30 3762 C 332.343 -0.0795996 2.01543 0
M  V30 3763 C 332.656 -1.4038 1.36209 0
M  V30 3764 O 333.862 -2.04415 1.7868 0
M  V30 3765 C 332.318 -0.192363 3.59386 0
M  V30 3766 C 331.926 1.12367 4.33679 0
M  V30 3767 C 333.67 -0.699238 4.18701 0
M  V30 3768 C 331.577 0.974453 5.83317 0
M  V30 3769 H 330.507 -0.0335228 0.753254 0
M  V30 3770 H 333.158 0.611128 1.73025 0
M  V30 3771 H 331.54 -0.946974 3.84511 0
M  V30 3772 H 332.714 1.88958 4.20276 0
M  V30 3773 H 331.029 1.562 3.85993 0
M  V30 3774 H 333.626 -0.827978 5.28251 0
M  V30 3775 H 333.969 -1.69171 3.80377 0
M  V30 3776 H 334.502 -0.00188807 3.978 0
M  V30 3777 H 331.241 1.94042 6.26121 0
M  V30 3778 H 330.761 0.248998 5.99283 0
M  V30 3779 H 332.44 0.642867 6.43798 0
M  V30 3780 N 332.573 -1.56217 0.208337 0
M  V30 3781 C 333.483 -2.23316 -0.718836 0
M  V30 3782 C 334.499 -1.23648 -1.22422 0
M  V30 3783 O 335.675 -1.56423 -1.26861 0
M  V30 3784 C 332.74 -2.88968 -1.91568 0
M  V30 3785 C 331.801 -4.03943 -1.45357 0
M  V30 3786 C 331.034 -4.66455 -2.59337 0
M  V30 3787 O 331.257 -4.27919 -3.77149 0
M  V30 3788 O 330.191 -5.55686 -2.31293 0
M  V30 3789 H 334.017 -3.03182 -0.177315 0
M  V30 3790 H 331.602 -1.49384 -0.0215402 0
M  V30 3791 H 333.484 -3.30455 -2.61491 0
M  V30 3792 H 332.159 -2.12071 -2.44556 0
M  V30 3793 H 331.066 -3.67052 -0.722746 0
M  V30 3794 H 332.399 -4.82543 -0.970219 0
M  V30 3795 N 334.051 0.0651679 -1.57465 0
M  V30 3796 C 334.961 1.09448 -2.07505 0
M  V30 3797 C 335.977 1.41974 -1.00595 0
M  V30 3798 O 337.153 1.52018 -1.32107 0
M  V30 3799 C 334.218 2.38689 -2.51453 0
M  V30 3800 C 333.279 2.13073 -3.72691 0
M  V30 3801 C 332.512 3.36152 -4.14533 0
M  V30 3802 O 332.735 4.45517 -3.56189 0
M  V30 3803 O 331.669 3.23974 -5.07272 0
M  V30 3804 H 335.495 0.69935 -2.95538 0
M  V30 3805 H 333.08 0.279752 -1.46757 0
M  V30 3806 H 334.962 3.14736 -2.80212 0
M  V30 3807 H 333.637 2.77568 -1.66546 0
M  V30 3808 H 332.544 1.34709 -3.49005 0
M  V30 3809 H 333.877 1.79071 -4.5847 0
M  V30 3810 N 335.529 1.53961 0.336706 0
M  V30 3811 C 336.754 1.75797 1.10046 0
M  V30 3812 C 337.179 0.498985 1.81361 0
M  V30 3813 O 336.537 -0.548769 1.72795 0
M  V30 3814 C 336.585 2.94257 2.08436 0
M  V30 3815 O 335.689 2.64883 3.16087 0
M  V30 3816 H 335.03 0.582936 0.317934 0
M  V30 3817 H 337.56 2.00945 0.38501 0
M  V30 3818 H 337.57 3.21237 2.51537 0
M  V30 3819 H 336.245 3.85564 1.55927 0
M  V30 3820 H 334.822 2.48812 2.77753 0
M  V30 3821 N 337.007 -0.598083 1.45811 0
M  V30 3822 C 337.937 -1.71873 1.58057 0
M  V30 3823 C 338.918 -1.64533 0.431615 0
M  V30 3824 O 340.103 -1.82787 0.65595 0
M  V30 3825 C 337.233 -3.10495 1.55597 0
M  V30 3826 C 336.187 -3.32654 2.69305 0
M  V30 3827 C 335.513 -4.71646 2.51902 0
M  V30 3828 C 336.813 -3.21981 4.11248 0
M  V30 3829 H 338.507 -1.61881 2.51863 0
M  V30 3830 H 336.053 -0.777372 1.21214 0
M  V30 3831 H 338.006 -3.88699 1.6276 0
M  V30 3832 H 336.73 -3.2135 0.583255 0
M  V30 3833 H 335.389 -2.56843 2.61586 0
M  V30 3834 H 335.037 -4.79246 1.52748 0
M  V30 3835 H 334.737 -4.87426 3.2816 0
M  V30 3836 H 336.261 -5.52038 2.60933 0
M  V30 3837 H 337.675 -3.90049 4.20161 0
M  V30 3838 H 336.072 -3.49289 4.87972 0
M  V30 3839 H 337.142 -2.1928 4.32486 0
M  V30 3840 N 338.485 -1.33259 -0.841409 0
M  V30 3841 C 339.433 -1.23279 -1.97244 0
M  V30 3842 C 340.427 -0.134706 -1.68864 0
M  V30 3843 O 341.633 -0.298501 -1.77508 0
M  V30 3844 H 338.008 -0.382497 -0.647457 0
M  V30 3845 H 339.979 -2.18906 -2.02787 0
M  V30 3846 C 338.728 -0.986268 -3.33419 0
M  V30 3847 H 338.051 -1.82347 -3.55794 0
M  V30 3848 H 339.491 -0.956728 -4.13065 0
M  V30 3849 C 337.95 0.310842 -3.35463 0
M  V30 3850 O 338.48 1.31838 -3.79449 0
M  V30 3851 N 336.686 0.337485 -2.88634 0
M  V30 3852 H 336.233 -0.482967 -2.53032 0
M  V30 3853 H 336.191 1.20518 -2.90384 0
M  V30 3854 N 339.963 1.05934 -1.16686 0
M  V30 3855 C 340.91 2.13499 -0.876748 0
M  V30 3856 C 341.88 1.65162 0.176299 0
M  V30 3857 O 343.065 1.90757 0.0407143 0
M  V30 3858 C 340.205 3.42912 -0.387967 0
M  V30 3859 C 339.318 4.04964 -1.50426 0
M  V30 3860 C 338.453 5.22266 -0.970125 0
M  V30 3861 C 337.492 5.76309 -2.06238 0
M  V30 3862 N 336.629 6.84922 -1.54356 0
M  V30 3863 H 341.469 2.37654 -1.7979 0
M  V30 3864 H 339.006 1.16598 -0.896843 0
M  V30 3865 H 340.964 4.17111 -0.086186 0
M  V30 3866 H 339.594 3.18963 0.496235 0
M  V30 3867 H 338.646 3.28277 -1.92193 0
M  V30 3868 H 339.958 4.41122 -2.32836 0
M  V30 3869 H 339.112 6.03506 -0.621743 0
M  V30 3870 H 337.851 4.87564 -0.115377 0
M  V30 3871 H 336.856 4.93704 -2.41942 0
M  V30 3872 H 338.081 6.13062 -2.92115 0
M  V30 3873 H 336.027 6.52131 -0.711406 0
M  V30 3874 H 335.944 7.20043 -2.30379 0
M  V30 3875 H 337.212 7.69832 -1.22387 0
M  V30 3876 N 341.441 0.965919 1.2453 0
M  V30 3877 C 342.69 0.622437 1.91856 0
M  V30 3878 C 343.003 -0.846006 1.76358 0
M  V30 3879 O 344.209 -1.29993 2.38357 0
M  V30 3880 C 342.665 1.0626 3.43856 0
M  V30 3881 C 342.273 2.55437 3.68043 0
M  V30 3882 C 344.017 0.792183 4.17043 0
M  V30 3883 C 341.924 2.93196 5.13605 0
M  V30 3884 H 340.854 0.229092 0.718354 0
M  V30 3885 H 343.505 1.17189 1.41206 0
M  V30 3886 H 341.887 0.441476 3.93531 0
M  V30 3887 H 343.061 3.22665 3.28974 0
M  V30 3888 H 341.376 2.8007 3.08139 0
M  V30 3889 H 343.973 1.05031 5.24283 0
M  V30 3890 H 344.316 -0.271584 4.15413 0
M  V30 3891 H 344.849 1.37419 3.73311 0
M  V30 3892 H 341.588 3.98636 5.20355 0
M  V30 3893 H 341.108 2.30651 5.53679 0
M  V30 3894 H 342.787 2.83004 5.81823 0
M  V30 3895 N 342.919 -1.39368 0.735821 0
M  V30 3896 C 344.147 -2.04795 0.294393 0
M  V30 3897 C 344.562 -1.55478 -1.07107 0
M  V30 3898 O 343.919 -0.720038 -1.67695 0
M  V30 3899 C 343.97 -3.6035 0.288071 0
M  V30 3900 O 343.691 -4.07852 1.59963 0
M  V30 3901 C 345.192 -4.42976 -0.169422 0
M  V30 3902 H 342.412 -0.658571 0.128551 0
M  V30 3903 H 344.956 -1.78399 0.999701 0
M  V30 3904 H 343.111 -3.85645 -0.368355 0
M  V30 3905 H 343.525 -5.02181 1.51375 0
M  V30 3906 H 344.999 -5.51864 -0.122687 0
M  V30 3907 H 345.476 -4.22068 -1.21472 0
M  V30 3908 H 346.082 -4.22832 0.457469 0
M  V30 3909 N 344.397 -0.483516 -1.5 0
M  V30 3910 C 345.329 0.340634 -2.26655 0
M  V30 3911 C 346.342 0.946152 -1.32483 0
M  V30 3912 O 347.531 0.832453 -1.579 0
M  V30 3913 C 344.631 1.4929 -3.04246 0
M  V30 3914 C 343.804 0.997903 -4.25865 0
M  V30 3915 C 342.863 2.02569 -4.85646 0
M  V30 3916 O 341.889 1.60128 -5.46212 0
M  V30 3917 N 343.091 3.3548 -4.73744 0
M  V30 3918 H 345.856 -0.316577 -2.98023 0
M  V30 3919 H 343.417 -0.315024 -1.58806 0
M  V30 3920 H 345.409 2.17766 -3.41116 0
M  V30 3921 H 343.979 2.05458 -2.35597 0
M  V30 3922 H 343.199 0.138617 -3.93956 0
M  V30 3923 H 344.487 0.645305 -5.04691 0
M  V30 3924 H 343.885 3.72661 -4.25605 0
M  V30 3925 H 342.442 3.99718 -5.14848 0
M  V30 3926 N 345.875 1.56104 -0.216619 0
M  V30 3927 C 346.823 2.21434 0.712036 0
M  V30 3928 C 347.817 1.19218 1.20348 0
M  V30 3929 O 349.023 1.3731 1.16387 0
M  V30 3930 H 345.398 0.70992 0.248026 0
M  V30 3931 H 347.369 2.98083 0.137558 0
M  V30 3932 C 346.118 2.90434 1.91163 0
M  V30 3933 H 345.441 3.68842 1.54258 0
M  V30 3934 H 346.881 3.39552 2.5393 0
M  V30 3935 C 345.34 1.92635 2.76394 0
M  V30 3936 O 345.87 1.44017 3.74996 0
M  V30 3937 N 344.076 1.60392 2.42328 0
M  V30 3938 H 343.623 2.00122 1.622 0
M  V30 3939 H 343.581 0.952159 2.99635 0
M  V30 3940 N 347.353 -0.0568162 1.57498 0
M  V30 3941 C 348.578 -0.769402 1.92601 0
M  V30 3942 C 349.003 -1.69559 0.814336 0
M  V30 3943 O 348.361 -1.79811 -0.231903 0
M  V30 3944 C 348.409 -1.52634 3.26704 0
M  V30 3945 O 347.513 -2.63797 3.16994 0
M  V30 3946 H 346.854 -0.208909 0.63028 0
M  V30 3947 H 349.384 -0.0205798 2.0459 0
M  V30 3948 H 349.394 -1.90234 3.60936 0
M  V30 3949 H 348.069 -0.846875 4.07186 0
M  V30 3950 H 346.646 -2.28943 2.94346 0
M  V30 3951 N 348.832 -1.54138 -0.328536 0
M  V30 3952 C 350.08 -1.71765 -1.06496 0
M  V30 3953 C 350.401 -0.49149 -1.88704 0
M  V30 3954 O 349.671 0.494539 -1.89555 0
M  V30 3955 H 348.251 -0.633295 -0.396164 0
M  V30 3956 H 350.913 -1.91429 -0.366176 0
M  V30 3957 H 350.009 -2.5951 -1.73381 0
M  V30 3958 N 350.31 0.590341 -1.46126 0
M  V30 3959 C 351.258 1.72105 -1.5647 0
M  V30 3960 C 352.252 1.63756 -0.433612 0
M  V30 3961 O 353.458 1.69342 -0.610194 0
M  V30 3962 H 349.833 0.568889 -0.491802 0
M  V30 3963 H 351.804 1.6051 -2.51553 0
M  V30 3964 C 350.553 3.10493 -1.56491 0
M  V30 3965 H 349.876 3.17583 -2.4286 0
M  V30 3966 H 351.316 3.8939 -1.67785 0
M  V30 3967 C 349.775 3.3563 -0.292231 0
M  V30 3968 O 350.305 3.96875 0.620739 0
M  V30 3969 N 348.511 2.90026 -0.182523 0
M  V30 3970 H 348.058 2.40367 -0.926356 0
M  V30 3971 H 348.016 3.07218 0.668152 0
M  V30 3972 N 351.788 1.33704 0.83433 0
M  V30 3973 C 353.065 1.16011 1.57483 0
M  V30 3974 C 353.445 -0.27176 2.09343 0
M  V30 3975 O 352.793 -1.27146 1.89858 0
M  V30 3976 C 353.003 2.20507 2.70514 0
M  V30 3977 C 354.351 2.54898 3.39577 0
M  V30 3978 O 355.375 2.19209 2.80759 0
M  V30 3979 O 354.234 3.16158 4.45765 0
M  V30 3980 H 351.328 0.448992 0.694503 0
M  V30 3981 H 353.874 1.453 0.876691 0
M  V30 3982 H 352.646 3.16667 2.29865 0
M  V30 3983 H 352.269 1.92329 3.47987 0
M  V30 3984 N 353.266 -1.05314 1.17247 0
M  V30 3985 C 354.512 -1.78557 0.961513 0
M  V30 3986 C 354.845 -1.87419 -0.508697 0
M  V30 3987 O 354.12 -1.37307 -1.37757 0
M  V30 3988 C 354.403 -3.22514 1.60176 0
M  V30 3989 C 354.256 -3.21673 3.14399 0
M  V30 3990 C 355.575 -4.20318 1.30463 0
M  V30 3991 H 352.694 -0.6482 0.350723 0
M  V30 3992 H 355.336 -1.23102 1.44727 0
M  V30 3993 H 353.486 -3.69867 1.18871 0
M  V30 3994 H 355.158 -2.82405 3.64753 0
M  V30 3995 H 353.401 -2.60048 3.47214 0
M  V30 3996 H 354.072 -4.23271 3.54324 0
M  V30 3997 H 356.548 -3.81454 1.66229 0
M  V30 3998 H 355.424 -5.19289 1.77848 0
M  V30 3999 H 355.685 -4.41526 0.22521 0
M  V30 4000 N 354.744 -0.972509 -1.24016 0
M  V30 4001 C 356.16 -0.679827 -1.44397 0
M  V30 4002 C 356.36 0.756716 -1.86751 0
M  V30 4003 O 355.416 1.53007 -2.00861 0
M  V30 4004 C 356.729 -1.66803 -2.50195 0
M  V30 4005 C 358.277 -1.68119 -2.64017 0
M  V30 4006 C 358.752 -2.65748 -3.73017 0
M  V30 4007 N 360.243 -2.64219 -3.8045 0
M  V30 4008 C 360.978 -3.36433 -4.64328 0
M  V30 4009 N 360.474 -4.1818 -5.52356 0
M  V30 4010 N 362.267 -3.25235 -4.58453 0
M  V30 4011 H 354.418 -1.90059 -0.948228 0
M  V30 4012 H 356.681 -0.818527 -0.478245 0
M  V30 4013 H 356.387 -2.69498 -2.25973 0
M  V30 4014 H 356.261 -1.4446 -3.48441 0
M  V30 4015 H 358.648 -0.661319 -2.87594 0
M  V30 4016 H 358.729 -1.94525 -1.66113 0
M  V30 4017 H 358.373 -3.67872 -3.50189 0
M  V30 4018 H 358.303 -2.36619 -4.70446 0
M  V30 4019 H 360.794 -2.04887 -3.17537 0
M  V30 4020 H 361.107 -4.70157 -6.13329 0
M  V30 4021 H 359.452 -4.22273 -5.52006 0
M  V30 4022 H 362.643 -2.60829 -3.88698 0
M  V30 4023 H 362.816 -3.81776 -5.23594 0
M  V30 4024 N 356.222 1.38976 -0.743202 0
M  V30 4025 C 357.17 2.32394 -0.0978389 0
M  V30 4026 C 358.164 1.53486 0.716824 0
M  V30 4027 O 359.37 1.69092 0.617088 0
M  V30 4028 H 355.745 0.75189 -0.0128402 0
M  V30 4029 H 357.716 2.84441 -0.901981 0
M  V30 4030 C 356.465 3.38629 0.789036 0
M  V30 4031 H 355.788 3.99432 0.171559 0
M  V30 4032 H 357.228 4.06426 1.20807 0
M  V30 4033 C 355.687 2.76347 1.92702 0
M  V30 4034 O 356.217 2.64836 3.02034 0
M  V30 4035 N 354.423 2.34311 1.71891 0
M  V30 4036 H 353.97 2.43873 0.829675 0
M  V30 4037 H 353.928 1.9298 2.48205 0
M  V30 4038 N 357.7 0.491464 1.49741 0
M  V30 4039 C 358.947 -0.0564256 2.02421 0
M  V30 4040 C 359.275 -1.37872 1.37192 0
M  V30 4041 O 358.53 -1.89375 0.493508 0
M  V30 4042 C 358.829 -0.267329 3.56399 0
M  V30 4043 C 358.495 0.975775 4.40215 0
M  V30 4044 C 357.157 1.31655 4.62839 0
M  V30 4045 C 359.509 1.80251 4.89039 0
M  V30 4046 C 356.837 2.48375 5.31532 0
M  V30 4047 C 359.189 2.96116 5.59015 0
M  V30 4048 C 357.853 3.30585 5.79888 0
M  V30 4049 H 357.123 -0.0206476 0.740712 0
M  V30 4050 H 359.77 0.649686 1.80143 0
M  V30 4051 H 358.075 -1.05588 3.77304 0
M  V30 4052 H 359.772 -0.705549 3.94744 0
M  V30 4053 H 356.362 0.700315 4.2284 0
M  V30 4054 H 360.546 1.55239 4.71396 0
M  V30 4055 H 355.802 2.7533 5.45897 0
M  V30 4056 H 359.976 3.60509 5.95824 0
M  V30 4057 H 357.603 4.21132 6.32892 0
M  V30 4058 N 359.178 -1.55987 0.224894 0
M  V30 4059 C 360.088 -2.24066 -0.69511 0
M  V30 4060 C 361.104 -1.24939 -1.21104 0
M  V30 4061 O 362.28 -1.5776 -1.25195 0
M  V30 4062 C 359.345 -2.90983 -1.88493 0
M  V30 4063 C 358.406 -4.05462 -1.41064 0
M  V30 4064 C 357.639 -4.69179 -2.54375 0
M  V30 4065 O 357.862 -4.31895 -3.72589 0
M  V30 4066 O 356.796 -5.58108 -2.25386 0
M  V30 4067 H 360.622 -3.03353 -0.145149 0
M  V30 4068 H 358.207 -1.49399 -0.00569476 0
M  V30 4069 H 360.089 -3.33209 -2.57972 0
M  V30 4070 H 358.764 -2.14653 -2.42293 0
M  V30 4071 H 357.671 -3.67798 -0.683774 0
M  V30 4072 H 359.004 -4.83545 -0.918985 0
M  V30 4073 N 360.656 0.0484629 -1.57525 0
M  V30 4074 C 361.566 1.07241 -2.08654 0
M  V30 4075 C 362.582 1.409 -1.02095 0
M  V30 4076 O 363.758 1.50609 -1.33712 0
M  V30 4077 C 360.823 2.36008 -2.5397 0
M  V30 4078 C 359.884 2.09108 -3.7493 0
M  V30 4079 C 359.117 3.31736 -4.18075 0
M  V30 4080 O 359.34 4.41714 -3.60895 0
M  V30 4081 O 358.274 3.18576 -5.10679 0
M  V30 4082 H 362.1 0.667965 -2.96263 0
M  V30 4083 H 359.685 0.26417 -1.47046 0
M  V30 4084 H 361.567 3.11747 -2.83535 0
M  V30 4085 H 360.242 2.75786 -1.69481 0
M  V30 4086 H 359.149 1.31 -3.50414 0
M  V30 4087 H 360.482 1.74198 -4.60343 0
M  V30 4088 N 362.134 1.5431 0.320358 0
M  V30 4089 C 363.381 1.72668 1.05792 0
M  V30 4090 C 363.709 0.502084 1.87908 0
M  V30 4091 O 362.964 -0.516149 1.88771 0
M  V30 4092 C 363.263 2.95639 2.00828 0
M  V30 4093 C 362.929 4.30265 1.34843 0
M  V30 4094 C 361.591 4.66865 1.16578 0
M  V30 4095 C 363.943 5.13801 0.875095 0
M  V30 4096 C 361.271 5.84597 0.496336 0
M  V30 4097 C 363.623 6.32219 0.219463 0
M  V30 4098 C 362.287 6.67495 0.0246915 0
M  V30 4099 H 361.557 0.631837 0.387121 0
M  V30 4100 H 364.204 1.88552 0.334735 0
M  V30 4101 H 362.509 2.74456 2.79609 0
M  V30 4102 H 364.206 3.07038 2.57932 0
M  V30 4103 H 360.796 4.01472 1.50061 0
M  V30 4104 H 364.98 4.86039 1.00398 0
M  V30 4105 H 360.236 6.10486 0.334264 0
M  V30 4106 H 364.41 6.96227 -0.155291 0
M  V30 4107 H 362.037 7.5858 -0.496065 0
M  V30 4108 N 363.613 -0.582584 1.46437 0
M  V30 4109 C 364.56 -1.69164 1.5701 0
M  V30 4110 C 365.53 -1.60847 0.414403 0
M  V30 4111 O 366.715 -1.80058 0.631171 0
M  V30 4112 C 363.855 -3.075 1.56646 0
M  V30 4113 C 362.968 -3.2644 2.82951 0
M  V30 4114 C 362.103 -4.55026 2.7409 0
M  V30 4115 C 361.142 -4.6731 3.95333 0
M  V30 4116 N 360.279 -5.87221 3.84858 0
M  V30 4117 H 365.119 -1.59464 2.51744 0
M  V30 4118 H 362.656 -0.777186 1.24893 0
M  V30 4119 H 364.614 -3.8757 1.5442 0
M  V30 4120 H 363.244 -3.16096 0.654439 0
M  V30 4121 H 362.296 -2.39974 2.95155 0
M  V30 4122 H 363.608 -3.31385 3.72808 0
M  V30 4123 H 362.762 -5.43324 2.6997 0
M  V30 4124 H 361.501 -4.52519 1.81873 0
M  V30 4125 H 360.506 -3.77429 3.99784 0
M  V30 4126 H 361.731 -4.71595 4.88646 0
M  V30 4127 H 359.677 -5.85712 2.95427 0
M  V30 4128 H 359.594 -5.93435 4.6837 0
M  V30 4129 H 360.862 -6.7795 3.84713 0
M  V30 4130 N 365.091 -1.34144 -0.827227 0
M  V30 4131 C 366.039 -1.25364 -1.95925 0
M  V30 4132 C 367.033 -0.152608 -1.68711 0
M  V30 4133 O 368.239 -0.317311 -1.77181 0
M  V30 4134 H 364.614 -0.389342 -0.643364 0
M  V30 4135 H 366.585 -2.21045 -2.00454 0
M  V30 4136 C 365.334 -1.02158 -3.32354 0
M  V30 4137 H 364.657 -1.86111 -3.5384 0
M  V30 4138 H 366.097 -1.00048 -4.12027 0
M  V30 4139 C 364.556 0.275244 -3.35774 0
M  V30 4140 O 365.086 1.27806 -3.80826 0
M  V30 4141 N 363.292 0.306853 -2.88975 0
M  V30 4142 H 362.839 -0.509777 -2.52506 0
M  V30 4143 H 362.797 1.17432 -2.91646 0
M  V30 4144 N 366.569 1.04691 -1.17803 0
M  V30 4145 C 367.817 1.7743 -0.967617 0
M  V30 4146 C 368.138 1.88359 0.504574 0
M  V30 4147 O 367.408 1.40402 1.36617 0
M  V30 4148 H 365.988 0.657242 -0.355024 0
M  V30 4149 H 368.65 1.2638 -1.48371 0
M  V30 4150 H 367.746 2.78924 -1.40027 0
M  V30 4151 N 368.047 0.979072 1.23499 0
M  V30 4152 C 368.957 0.526431 2.28617 0
M  V30 4153 C 369.973 -0.418126 1.68901 0
M  V30 4154 O 371.149 -0.288372 1.99325 0
M  V30 4155 C 368.214 -0.165235 3.46306 0
M  V30 4156 C 367.275 0.82056 4.21385 0
M  V30 4157 C 366.508 0.161807 5.33455 0
M  V30 4158 O 366.731 -1.04742 5.60701 0
M  V30 4159 O 365.665 0.859708 5.95729 0
M  V30 4160 H 369.491 1.4006 2.69475 0
M  V30 4161 H 367.076 0.746643 1.29405 0
M  V30 4162 H 368.958 -0.553287 4.17752 0
M  V30 4163 H 367.633 -1.01419 3.07402 0
M  V30 4164 H 366.54 1.25929 3.52268 0
M  V30 4165 H 367.873 1.63828 4.64135 0
M  V30 4166 N 369.525 -1.3858 0.750561 0
M  V30 4167 C 370.75 -2.04997 0.314812 0
M  V30 4168 C 371.175 -1.56235 -1.04749 0
M  V30 4169 O 370.533 -0.712981 -1.66692 0
M  V30 4170 C 370.581 -3.58961 0.343415 0
M  V30 4171 O 369.685 -4.07025 -0.663628 0
M  V30 4172 H 369.026 -0.649081 0.139962 0
M  V30 4173 H 371.556 -1.77313 1.02084 0
M  V30 4174 H 371.566 -4.07542 0.193233 0
M  V30 4175 H 370.241 -3.93811 1.33738 0
M  V30 4176 H 368.818 -3.6982 -0.478307 0
M  V30 4177 N 371.003 -0.499398 -1.49478 0
M  V30 4178 C 372.25 0.0456899 -2.02448 0
M  V30 4179 C 372.578 1.37142 -1.37921 0
M  V30 4180 O 371.833 1.89111 -0.503544 0
M  V30 4181 C 372.132 0.248424 -3.56536 0
M  V30 4182 C 371.798 -0.999107 -4.39692 0
M  V30 4183 C 370.46 -1.34108 -4.62135 0
M  V30 4184 C 372.812 -1.82842 -4.88076 0
M  V30 4185 C 370.14 -2.51191 -5.30208 0
M  V30 4186 C 372.492 -2.99076 -5.57437 0
M  V30 4187 C 371.156 -3.33655 -5.78127 0
M  V30 4188 H 370.426 0.0167191 -0.740811 0
M  V30 4189 H 373.073 -0.65923 -1.79795 0
M  V30 4190 H 371.378 1.03586 -3.77859 0
M  V30 4191 H 373.075 0.684605 -3.95113 0
M  V30 4192 H 369.665 -0.722729 -4.22463 0
M  V30 4193 H 373.849 -1.57737 -4.70566 0
M  V30 4194 H 369.105 -2.78221 -5.44429 0
M  V30 4195 H 373.279 -3.63664 -5.93904 0
M  V30 4196 H 370.906 -4.24483 -6.30649 0
M  V30 4197 N 372.481 1.55866 -0.233164 0
M  V30 4198 C 373.429 2.22176 0.68851 0
M  V30 4199 C 374.423 1.20487 1.19076 0
M  V30 4200 O 375.629 1.38536 1.14925 0
M  V30 4201 H 372.004 0.712511 0.240483 0
M  V30 4202 H 373.975 2.98212 0.105935 0
M  V30 4203 C 372.724 2.92446 1.88071 0
M  V30 4204 H 372.047 3.70458 1.50337 0
M  V30 4205 H 373.487 3.42226 2.50314 0
M  V30 4206 C 371.946 1.95555 2.74335 0
M  V30 4207 O 372.476 1.47986 3.73447 0
M  V30 4208 N 370.682 1.62953 2.40613 0
M  V30 4209 H 370.229 2.01831 1.60069 0
M  V30 4210 H 370.187 0.983886 2.98609 0
M  V30 4211 N 373.959 -0.0401083 1.57549 0
M  V30 4212 C 374.889 -1.04384 2.08869 0
M  V30 4213 C 375.87 -1.38407 0.988817 0
M  V30 4214 O 377.055 -1.47483 1.26342 0
M  V30 4215 C 374.185 -2.34808 2.55895 0
M  V30 4216 C 373.139 -2.15057 3.70047 0
M  V30 4217 C 372.465 -3.51145 4.03239 0
M  V30 4218 C 373.765 -1.54576 4.98902 0
M  V30 4219 H 375.459 -0.616666 2.92981 0
M  V30 4220 H 373.005 -0.295184 1.40942 0
M  V30 4221 H 374.958 -3.05346 2.90417 0
M  V30 4222 H 373.682 -2.79565 1.68853 0
M  V30 4223 H 372.341 -1.46954 3.35857 0
M  V30 4224 H 371.989 -3.93529 3.13279 0
M  V30 4225 H 371.689 -3.38758 4.80122 0
M  V30 4226 H 373.213 -4.23062 4.40285 0
M  V30 4227 H 374.627 -2.15017 5.31451 0
M  V30 4228 H 373.024 -1.52796 5.80322 0
M  V30 4229 H 374.094 -0.51039 4.82206 0
M  V30 4230 N 375.437 -1.54477 -0.31217 0
M  V30 4231 C 376.667 -1.76948 -1.06645 0
M  V30 4232 C 377.075 -0.523593 -1.81811 0
M  V30 4233 O 376.418 0.51578 -1.76311 0
M  V30 4234 C 376.48 -2.91668 -2.10166 0
M  V30 4235 C 376.144 -4.30165 -1.54296 0
M  V30 4236 C 377.141 -5.10603 -0.978793 0
M  V30 4237 C 374.826 -4.76738 -1.58196 0
M  V30 4238 C 376.82 -6.3573 -0.461048 0
M  V30 4239 C 374.507 -6.01831 -1.06034 0
M  V30 4240 C 375.505 -6.81161 -0.500844 0
M  V30 4241 O 375.193 -8.03899 0.0128958 0
M  V30 4242 H 374.925 -0.594088 -0.322546 0
M  V30 4243 H 377.479 -2.02213 -0.360441 0
M  V30 4244 H 375.709 -2.62001 -2.84416 0
M  V30 4245 H 377.398 -3.01817 -2.71406 0
M  V30 4246 H 378.164 -4.75771 -0.941651 0
M  V30 4247 H 374.043 -4.15027 -2.00683 0
M  V30 4248 H 377.587 -6.97596 -0.0236894 0
M  V30 4249 H 373.484 -6.36152 -1.09459 0
M  V30 4250 H 374.252 -8.18437 -0.101457 0
M  V30 4251 N 376.915 0.57481 -1.46744 0
M  V30 4252 C 377.825 1.711 -1.60505 0
M  V30 4253 C 378.841 1.67008 -0.488307 0
M  V30 4254 O 380.017 1.86774 -0.753495 0
M  V30 4255 C 377.082 3.07608 -1.59932 0
M  V30 4256 C 376.143 3.22904 -2.82898 0
M  V30 4257 C 375.376 4.529 -2.82343 0
M  V30 4258 O 375.599 5.37278 -1.91542 0
M  V30 4259 O 374.533 4.71611 -3.73987 0
M  V30 4260 H 378.359 1.62436 -2.56609 0
M  V30 4261 H 375.944 0.742779 -1.29627 0
M  V30 4262 H 377.826 3.88877 -1.62336 0
M  V30 4263 H 376.501 3.16692 -0.669898 0
M  V30 4264 H 375.408 2.41099 -2.86046 0
M  V30 4265 H 376.741 3.18715 -3.75076 0
M  V30 4266 N 378.394 1.34581 0.820102 0
M  V30 4267 C 379.326 1.22236 1.93884 0
M  V30 4268 C 380.339 0.148776 1.62119 0
M  V30 4269 O 381.528 0.400877 1.7394 0
M  V30 4270 C 378.628 0.856542 3.27897 0
M  V30 4271 C 377.801 2.02569 3.87666 0
M  V30 4272 C 376.86 1.63782 5.00062 0
M  V30 4273 O 375.886 2.35477 5.18208 0
M  V30 4274 N 377.088 0.553611 5.77854 0
M  V30 4275 H 379.853 2.18615 2.05006 0
M  V30 4276 H 377.414 1.27573 0.99683 0
M  V30 4277 H 379.406 0.578806 4.0054 0
M  V30 4278 H 377.976 -0.0171518 3.12595 0
M  V30 4279 H 377.196 2.468 3.07382 0
M  V30 4280 H 378.484 2.80752 4.24329 0
M  V30 4281 H 377.882 -0.0423528 5.65684 0
M  V30 4282 H 376.439 0.335614 6.50935 0
M  V30 4283 N 379.872 -1.04064 1.18357 0
M  V30 4284 C 380.782 -2.15569 0.925596 0
M  V30 4285 C 381.798 -1.7365 -0.110295 0
M  V30 4286 O 382.974 -2.01273 0.0716218 0
M  V30 4287 C 380.039 -3.43704 0.454836 0
M  V30 4288 C 379.1 -4.00004 1.55869 0
M  V30 4289 C 378.333 -5.22023 1.1103 0
M  V30 4290 O 378.556 -5.70392 -0.0309756 0
M  V30 4291 O 377.49 -5.70856 1.90805 0
M  V30 4292 H 381.316 -2.40187 1.8586 0
M  V30 4293 H 378.901 -1.1402 0.965394 0
M  V30 4294 H 380.783 -4.20923 0.200382 0
M  V30 4295 H 379.458 -3.20559 -0.449876 0
M  V30 4296 H 378.365 -3.24172 1.86716 0
M  V30 4297 H 379.698 -4.2749 2.43953 0
M  V30 4298 N 381.35 -0.985608 -1.22978 0
M  V30 4299 C 382.28 -0.549649 -2.26939 0
M  V30 4300 C 383.261 0.419803 -1.64838 0
M  V30 4301 O 384.446 0.31203 -1.91677 0
M  V30 4302 C 381.576 0.143652 -3.47003 0
M  V30 4303 C 380.53 -0.743606 -4.21491 0
M  V30 4304 C 379.856 0.0822027 -5.34637 0
M  V30 4305 C 381.156 -2.03694 -4.80943 0
M  V30 4306 H 382.85 -1.41862 -2.63658 0
M  V30 4307 H 380.396 -0.683571 -1.26741 0
M  V30 4308 H 382.349 0.459985 -4.18882 0
M  V30 4309 H 381.073 1.04711 -3.09359 0
M  V30 4310 H 379.732 -1.04347 -3.51436 0
M  V30 4311 H 379.38 0.986359 -4.93234 0
M  V30 4312 H 379.08 -0.508377 -5.85397 0
M  V30 4313 H 380.604 0.392797 -6.09335 0
M  V30 4314 H 382.018 -1.78504 -5.44802 0
M  V30 4315 H 380.415 -2.57573 -5.42011 0
M  V30 4316 H 381.485 -2.72042 -4.01399 0
M  V30 4317 N 382.828 1.3818 -0.7579 0
M  V30 4318 C 384.074 2.00316 -0.316453 0
M  V30 4319 C 384.407 1.60026 1.10025 0
M  V30 4320 O 383.682 0.839835 1.75434 0
M  V30 4321 C 383.965 3.57349 -0.444245 0
M  V30 4322 C 383.818 4.07591 -1.90236 0
M  V30 4323 C 385.137 4.3981 0.1598 0
M  V30 4324 H 382.256 0.727741 -0.116459 0
M  V30 4325 H 384.898 1.6406 -0.958352 0
M  V30 4326 H 383.048 3.88365 0.102233 0
M  V30 4327 H 384.72 3.87199 -2.50748 0
M  V30 4328 H 382.963 3.60297 -2.41595 0
M  V30 4329 H 383.634 5.16677 -1.94291 0
M  V30 4330 H 386.11 4.14971 -0.306314 0
M  V30 4331 H 384.986 5.48885 0.0401675 0
M  V30 4332 H 385.247 4.24102 1.24859 0
M  V30 4333 N 384.306 0.507319 1.49211 0
M  V30 4334 C 385.216 -0.272136 2.33016 0
M  V30 4335 C 386.232 -0.961206 1.45041 0
M  V30 4336 O 387.408 -0.941191 1.78055 0
M  V30 4337 C 384.473 -1.31895 3.20631 0
M  V30 4338 C 383.534 -0.642648 4.24463 0
M  V30 4339 C 382.767 -1.63959 5.07891 0
M  V30 4340 O 382.99 -2.87007 4.92933 0
M  V30 4341 O 381.924 -1.19143 5.8999 0
M  V30 4342 H 385.75 0.413982 3.00865 0
M  V30 4343 H 383.335 0.268556 1.46966 0
M  V30 4344 H 385.217 -1.92446 3.7489 0
M  V30 4345 H 383.892 -1.98788 2.5547 0
M  V30 4346 H 382.799 0.00276252 3.741 0
M  V30 4347 H 384.132 -0.0160534 4.92197 0
M  V30 4348 N 385.784 -1.5574 0.241426 0
M  V30 4349 C 387.2 -1.59196 -0.113548 0
M  V30 4350 C 387.4 -1.25852 -1.57364 0
M  V30 4351 O 386.456 -1.00322 -2.31715 0
M  V30 4352 C 387.769 -2.99814 0.230695 0
M  V30 4353 C 389.317 -3.12513 0.174547 0
M  V30 4354 C 389.792 -4.55342 0.492744 0
M  V30 4355 N 391.283 -4.61076 0.443043 0
M  V30 4356 C 392.018 -5.6956 0.662484 0
M  V30 4357 N 391.514 -6.86328 0.944761 0
M  V30 4358 N 393.307 -5.58957 0.593564 0
M  V30 4359 H 385.458 -1.75685 1.19368 0
M  V30 4360 H 387.721 -0.81756 0.479896 0
M  V30 4361 H 387.427 -3.28932 1.24485 0
M  V30 4362 H 387.301 -3.74568 -0.444833 0
M  V30 4363 H 389.688 -2.83179 -0.830277 0
M  V30 4364 H 389.769 -2.40045 0.883845 0
M  V30 4365 H 389.413 -4.85396 1.4951 0
M  V30 4366 H 389.343 -5.26062 -0.23797 0
M  V30 4367 H 391.834 -3.77179 0.233374 0
M  V30 4368 H 392.147 -7.64935 1.09977 0
M  V30 4369 H 390.492 -6.88025 0.982175 0
M  V30 4370 H 393.683 -4.66611 0.373123 0
M  V30 4371 H 393.856 -6.43433 0.767981 0
M  V30 4372 N 387.262 0.0317525 -1.57568 0
M  V30 4373 C 388.508 0.718712 -1.90279 0
M  V30 4374 C 388.863 1.73108 -0.839727 0
M  V30 4375 O 388.156 1.90997 0.15188 0
M  V30 4376 C 388.35 1.43167 -3.27472 0
M  V30 4377 C 388.179 0.489869 -4.47024 0
M  V30 4378 C 386.949 0.111909 -5.05176 0
M  V30 4379 C 389.147 -0.230592 -5.13783 0
M  V30 4380 N 387.129 -0.831427 -6.08244 0
M  V30 4381 C 388.5 -1.02968 -6.1139 0
M  V30 4382 C 390.555 -0.297821 -4.97008 0
M  V30 4383 C 389.258 -1.88982 -6.9403 0
M  V30 4384 C 391.284 -1.14507 -5.80209 0
M  V30 4385 C 390.646 -1.9321 -6.77384 0
M  V30 4386 H 386.745 0.237177 -0.745165 0
M  V30 4387 H 389.329 -0.0211267 -1.94689 0
M  V30 4388 H 387.5 2.14199 -3.23996 0
M  V30 4389 H 389.232 2.0708 -3.47707 0
M  V30 4390 H 385.987 0.473513 -4.71227 0
M  V30 4391 H 386.411 -1.29752 -6.6445 0
M  V30 4392 H 391.053 0.296346 -4.2176 0
M  V30 4393 H 388.771 -2.4948 -7.68626 0
M  V30 4394 H 392.357 -1.20059 -5.69278 0
M  V30 4395 H 391.237 -2.57711 -7.40645 0
M  V30 4396 N 388.74 1.54641 0.303973 0
M  V30 4397 C 389.688 1.86137 1.39484 0
M  V30 4398 C 390.682 0.734854 1.52631 0
M  V30 4399 O 391.888 0.918803 1.54784 0
M  V30 4400 H 388.263 0.590324 0.465856 0
M  V30 4401 H 390.234 2.77324 1.10154 0
M  V30 4402 C 388.983 2.12274 2.75382 0
M  V30 4403 H 388.306 2.98429 2.66046 0
M  V30 4404 H 389.746 2.38254 3.5073 0
M  V30 4405 C 388.205 0.920365 3.24085 0
M  V30 4406 O 388.735 0.139377 4.01458 0
M  V30 4407 N 386.941 0.726566 2.81371 0
M  V30 4408 H 386.488 1.36332 2.18567 0
M  V30 4409 H 386.446 -0.0763799 3.14307 0
M  V30 4410 N 390.218 -0.567019 1.47046 0
M  V30 4411 C 391.148 -1.68482 1.61667 0
M  V30 4412 C 392.129 -1.6358 0.466418 0
M  V30 4413 O 393.314 -1.81354 0.694574 0
M  V30 4414 C 390.444 -3.07124 1.62148 0
M  V30 4415 C 389.398 -3.26867 2.76301 0
M  V30 4416 C 388.724 -4.66196 2.61849 0
M  V30 4417 C 390.024 -3.13186 4.17986 0
M  V30 4418 H 391.718 -1.56502 2.5524 0
M  V30 4419 H 389.264 -0.751486 1.22836 0
M  V30 4420 H 391.217 -3.8516 1.70968 0
M  V30 4421 H 389.941 -3.2004 0.651287 0
M  V30 4422 H 388.6 -2.51237 2.66975 0
M  V30 4423 H 388.248 -4.75898 1.62879 0
M  V30 4424 H 387.948 -4.80356 3.38425 0
M  V30 4425 H 389.472 -5.46379 2.72584 0
M  V30 4426 H 390.886 -3.81049 4.2834 0
M  V30 4427 H 389.283 -3.3886 4.95272 0
M  V30 4428 H 390.353 -2.10057 4.3704 0
M  V30 4429 N 391.696 -1.35014 -0.812953 0
M  V30 4430 C 392.659 -1.27292 -1.90602 0
M  V30 4431 C 393.659 -0.185817 -1.59723 0
M  V30 4432 O 394.849 -0.439102 -1.68575 0
M  V30 4433 C 391.981 -0.967676 -3.26877 0
M  V30 4434 H 393.174 -2.24479 -1.9887 0
M  V30 4435 H 390.727 -1.19446 -1.00808 0
M  V30 4436 H 391.462 0.0005954 -3.243 0
M  V30 4437 H 391.247 -1.75412 -3.50675 0
M  V30 4438 H 392.737 -0.939085 -4.06904 0
M  V30 4439 N 393.175 1.03435 -1.18907 0
M  V30 4440 C 394.138 2.09756 -0.923844 0
M  V30 4441 C 395.138 1.60528 0.093416 0
M  V30 4442 O 396.328 1.73631 -0.140727 0
M  V30 4443 C 393.46 3.38692 -0.387354 0
M  V30 4444 H 394.653 2.34719 -1.86674 0
M  V30 4445 H 392.206 1.19959 -1.00197 0
M  V30 4446 H 392.941 3.19396 0.561845 0
M  V30 4447 H 392.726 3.75742 -1.12074 0
M  V30 4448 H 394.216 4.17016 -0.220694 0
M  V30 4449 N 394.653 0.992116 1.22453 0
M  V30 4450 C 395.616 0.546883 2.2258 0
M  V30 4451 C 396.616 -0.369829 1.56489 0
M  V30 4452 O 397.806 -0.161896 1.73446 0
M  V30 4453 C 394.938 -0.204659 3.40285 0
M  V30 4454 H 396.131 1.43234 2.63484 0
M  V30 4455 H 393.684 0.779239 1.3549 0
M  V30 4456 H 394.419 -1.10614 3.04853 0
M  V30 4457 H 394.204 0.45354 3.89468 0
M  V30 4458 H 395.694 -0.504358 4.14543 0
M  V30 4459 N 396.131 -1.37776 0.765217 0
M  V30 4460 C 397.356 -2.04651 0.336537 0
M  V30 4461 C 397.781 -1.57337 -1.03086 0
M  V30 4462 O 397.139 -0.730621 -1.65927 0
M  V30 4463 C 397.187 -3.58577 0.381468 0
M  V30 4464 O 396.291 -4.07706 -0.62042 0
M  V30 4465 H 395.632 -0.64756 0.146838 0
M  V30 4466 H 398.162 -1.76221 1.03959 0
M  V30 4467 H 398.172 -4.07314 0.236448 0
M  V30 4468 H 396.847 -3.9237 1.37907 0
M  V30 4469 H 395.424 -3.70306 -0.439056 0
M  V30 4470 N 397.609 -0.515225 -1.4894 0
M  V30 4471 C 398.886 0.0879088 -1.95402 0
M  V30 4472 C 399.266 1.52745 -1.45712 0
M  V30 4473 O 398.614 2.18238 -0.677093 0
M  V30 4474 C 398.824 -0.0141055 -3.48997 0
M  V30 4475 C 400.172 0.152646 -4.24326 0
M  V30 4476 O 401.196 0.0604025 -3.56149 0
M  V30 4477 O 400.055 0.34384 -5.45417 0
M  V30 4478 H 397.149 0.0874636 -0.822362 0
M  V30 4479 H 399.695 -0.578775 -1.59525 0
M  V30 4480 H 398.467 -1.01745 -3.77841 0
M  V30 4481 H 398.09 0.692091 -3.9153 0
M  V30 4482 N 399.087 1.5561 -0.249682 0
M  V30 4483 C 400.336 1.98187 0.37479 0
M  V30 4484 C 400.649 1.14111 1.58865 0
M  V30 4485 O 401.855 1.46714 2.28445 0
M  V30 4486 C 400.311 3.52661 0.718192 0
M  V30 4487 C 399.919 4.45481 -0.474428 0
M  V30 4488 C 401.663 4.03888 1.3067 0
M  V30 4489 C 399.57 5.91303 -0.107026 0
M  V30 4490 H 398.5 0.740159 0.143808 0
M  V30 4491 H 401.151 1.80125 -0.350336 0
M  V30 4492 H 399.533 3.66429 1.50152 0
M  V30 4493 H 400.707 4.43473 -1.25172 0
M  V30 4494 H 399.022 4.04751 -0.978052 0
M  V30 4495 H 401.619 5.10358 1.59496 0
M  V30 4496 H 401.962 3.51401 2.23211 0
M  V30 4497 H 402.495 3.93457 0.586211 0
M  V30 4498 H 399.234 6.47833 -0.999642 0
M  V30 4499 H 398.754 5.9644 0.634013 0
M  V30 4500 H 400.433 6.46258 0.309807 0
M  V30 4501 N 400.565 -0.0233959 1.57583 0
M  V30 4502 C 401.495 -1.02162 2.09965 0
M  V30 4503 C 402.476 -1.3735 1.00344 0
M  V30 4504 O 403.661 -1.46135 1.27899 0
M  V30 4505 C 400.791 -2.32081 2.58371 0
M  V30 4506 C 399.745 -2.1112 3.72307 0
M  V30 4507 C 399.071 -3.46848 4.06941 0
M  V30 4508 C 400.371 -1.49276 5.00514 0
M  V30 4509 H 402.065 -0.585557 2.93618 0
M  V30 4510 H 399.611 -0.280218 1.41247 0
M  V30 4511 H 401.564 -3.02249 2.93639 0
M  V30 4512 H 400.288 -2.77758 1.71808 0
M  V30 4513 H 398.947 -1.43384 3.37397 0
M  V30 4514 H 398.595 -3.90184 3.17436 0
M  V30 4515 H 398.295 -3.33646 4.83688 0
M  V30 4516 H 399.819 -4.18369 4.44747 0
M  V30 4517 H 401.233 -2.09368 5.33702 0
M  V30 4518 H 399.63 -1.46632 5.8191 0
M  V30 4519 H 400.7 -0.459217 4.82721 0
M  V30 4520 N 402.043 -1.548 -0.295768 0
M  V30 4521 C 403.459 -1.4613 -0.641722 0
M  V30 4522 C 403.659 -0.656771 -1.90496 0
M  V30 4523 O 402.715 -0.166547 -2.5195 0
M  V30 4524 C 404.028 -2.90141 -0.789852 0
M  V30 4525 C 405.576 -3.00216 -0.885396 0
M  V30 4526 C 406.051 -4.45434 -1.06548 0
M  V30 4527 N 407.542 -4.49166 -1.13156 0
M  V30 4528 C 408.277 -5.58717 -1.28929 0
M  V30 4529 N 407.773 -6.78182 -1.41567 0
M  V30 4530 N 409.566 -5.46415 -1.31859 0
M  V30 4531 H 401.717 -2.05574 0.534147 0
M  V30 4532 H 403.98 -0.931259 0.177372 0
M  V30 4533 H 403.686 -3.51635 0.0675598 0
M  V30 4534 H 403.56 -3.37859 -1.67724 0
M  V30 4535 H 405.947 -2.38833 -1.73329 0
M  V30 4536 H 406.028 -2.55787 0.0261185 0
M  V30 4537 H 405.672 -5.07413 -0.222335 0
M  V30 4538 H 405.602 -4.87499 -1.9913 0
M  V30 4539 H 408.093 -3.631 -1.04721 0
M  V30 4540 H 408.406 -7.57428 -1.53372 0
M  V30 4541 H 406.751 -6.81037 -1.38613 0
M  V30 4542 H 409.942 -4.5203 -1.21601 0
M  V30 4543 H 410.115 -6.31841 -1.43808 0
M  V30 4544 N 403.521 0.559213 -1.47345 0
M  V30 4545 C 404.77 1.31281 -1.53128 0
M  V30 4546 C 405.083 1.94602 -0.197344 0
M  V30 4547 O 406.289 2.71173 -0.133154 0
M  V30 4548 C 404.745 2.38051 -2.69925 0
M  V30 4549 C 404.353 1.8093 -4.0984 0
M  V30 4550 C 406.097 3.14604 -2.84999 0
M  V30 4551 C 404.004 2.85468 -5.1794 0
M  V30 4552 H 402.934 0.493614 -0.569966 0
M  V30 4553 H 405.585 0.594155 -1.73615 0
M  V30 4554 H 403.967 3.12822 -2.42814 0
M  V30 4555 H 405.141 1.12544 -4.46845 0
M  V30 4556 H 403.456 1.16967 -3.99634 0
M  V30 4557 H 406.053 3.92666 -3.62929 0
M  V30 4558 H 406.396 3.68665 -1.93369 0
M  V30 4559 H 406.929 2.46945 -3.1187 0
M  V30 4560 H 403.668 2.36264 -6.1144 0
M  V30 4561 H 403.188 3.52269 -4.85455 0
M  V30 4562 H 404.867 3.48996 -5.44803 0
M  V30 4563 N 404.999 1.35443 0.805782 0
M  V30 4564 C 406.224 1.32037 1.59941 0
M  V30 4565 C 406.649 -0.0994215 1.87837 0
M  V30 4566 O 406.007 -1.06648 1.46615 0
M  V30 4567 C 406.055 2.13354 2.90711 0
M  V30 4568 O 405.159 1.5148 3.83572 0
M  V30 4569 H 404.5 0.452666 0.485787 0
M  V30 4570 H 407.03 1.78496 1.00002 0
M  V30 4571 H 407.04 2.25338 3.40128 0
M  V30 4572 H 405.715 3.16572 2.69732 0
M  V30 4573 H 404.292 1.4834 3.42125 0
M  V30 4574 N 406.477 -1.02803 1.19454 0
M  V30 4575 C 407.44 -2.09264 0.934955 0
M  V30 4576 C 408.44 -1.60576 -0.0849015 0
M  V30 4577 O 409.63 -1.73554 0.149933 0
M  V30 4578 C 406.762 -3.38482 0.40531 0
M  V30 4579 H 407.955 -2.33726 1.87916 0
M  V30 4580 H 405.508 -1.19426 1.00832 0
M  V30 4581 H 406.243 -3.19689 -0.544899 0
M  V30 4582 H 406.028 -3.75142 1.14065 0
M  V30 4583 H 407.518 -4.16894 0.242806 0
M  V30 4584 N 407.956 -0.998596 -1.21925 0
M  V30 4585 C 408.886 -0.573688 -2.26343 0
M  V30 4586 C 409.867 0.402296 -1.65274 0
M  V30 4587 O 411.052 0.291683 -1.91997 0
M  V30 4588 C 408.182 0.106839 -3.47136 0
M  V30 4589 C 407.136 -0.788269 -4.20678 0
M  V30 4590 C 406.462 0.0254927 -5.34694 0
M  V30 4591 C 407.762 -2.08784 -4.78755 0
M  V30 4592 H 409.456 -1.44651 -2.62138 0
M  V30 4593 H 407.002 -0.696975 -1.26009 0
M  V30 4594 H 408.955 0.415531 -4.19346 0
M  V30 4595 H 407.679 1.01424 -3.10452 0
M  V30 4596 H 406.338 -1.08069 -3.50309 0
M  V30 4597 H 405.986 0.933989 -4.94253 0
M  V30 4598 H 405.686 -0.570437 -5.84825 0
M  V30 4599 H 407.21 0.328147 -6.09718 0
M  V30 4600 H 408.624 -1.84272 -5.42878 0
M  V30 4601 H 407.021 -2.63307 -5.39249 0
M  V30 4602 H 408.091 -2.76284 -3.98491 0
M  V30 4603 N 409.434 1.37368 -0.772513 0
M  V30 4604 C 410.381 2.30262 -0.157488 0
M  V30 4605 C 411.351 1.51137 0.688965 0
M  V30 4606 O 412.536 1.79704 0.641168 0
M  V30 4607 C 409.676 3.37611 0.715045 0
M  V30 4608 C 408.789 4.31746 -0.148098 0
M  V30 4609 C 407.924 5.26171 0.729213 0
M  V30 4610 C 406.963 6.11948 -0.136418 0
M  V30 4611 N 406.1 6.98613 0.698914 0
M  V30 4612 H 410.94 2.82277 -0.955179 0
M  V30 4613 H 408.477 1.38957 -0.482631 0
M  V30 4614 H 410.435 3.98479 1.23575 0
M  V30 4615 H 409.065 2.86959 1.47833 0
M  V30 4616 H 408.117 3.72178 -0.786613 0
M  V30 4617 H 409.429 4.92084 -0.81579 0
M  V30 4618 H 408.583 5.92247 1.31637 0
M  V30 4619 H 407.322 4.66246 1.43059 0
M  V30 4620 H 406.327 5.4485 -0.736102 0
M  V30 4621 H 407.552 6.73945 -0.835134 0
M  V30 4622 H 405.498 6.41215 1.38489 0
M  V30 4623 H 405.415 7.55948 0.0885358 0
M  V30 4624 H 406.683 7.69077 1.27044 0
M  V30 4625 N 410.912 0.523116 1.48665 0
M  V30 4626 C 411.822 -0.247406 2.33292 0
M  V30 4627 C 412.838 -0.945769 1.46052 0
M  V30 4628 O 414.014 -0.922253 1.79043 0
M  V30 4629 C 411.079 -1.28487 3.22012 0
M  V30 4630 C 410.14 -0.597592 4.2512 0
M  V30 4631 C 409.373 -1.58563 5.09601 0
M  V30 4632 O 409.596 -2.81763 4.95949 0
M  V30 4633 O 408.53 -1.12879 5.91221 0
M  V30 4634 H 412.356 0.445869 3.00409 0
M  V30 4635 H 409.941 0.284128 1.46673 0
M  V30 4636 H 411.823 -1.88459 3.7691 0
M  V30 4637 H 410.498 -1.96068 2.57564 0
M  V30 4638 H 409.405 0.0424407 3.74076 0
M  V30 4639 H 410.738 0.0361517 4.92187 0
M  V30 4640 N 412.39 -1.55475 0.257931 0
M  V30 4641 C 413.639 -1.98383 -0.364275 0
M  V30 4642 C 413.952 -1.14952 -1.58258 0
M  V30 4643 O 415.158 -1.47924 -2.27664 0
M  V30 4644 C 413.614 -3.53037 -0.699479 0
M  V30 4645 C 413.222 -4.45223 0.498046 0
M  V30 4646 C 414.966 -4.04575 -1.28526 0
M  V30 4647 C 412.873 -5.91238 0.138383 0
M  V30 4648 H 411.803 -0.740911 -0.13988 0
M  V30 4649 H 414.454 -1.79936 0.359883 0
M  V30 4650 H 412.836 -3.6722 -1.48207 0
M  V30 4651 H 414.01 -4.42803 1.27522 0
M  V30 4652 H 412.325 -4.04226 0.999503 0
M  V30 4653 H 414.922 -5.11196 -1.56788 0
M  V30 4654 H 415.265 -3.5258 -2.21344 0
M  V30 4655 H 415.798 -3.93762 -0.565337 0
M  V30 4656 H 412.537 -6.47294 1.03398 0
M  V30 4657 H 412.057 -5.96768 -0.602374 0
M  V30 4658 H 413.736 -6.46413 -0.27553 0
M  V30 4659 N 413.868 0.0150385 -1.57593 0
M  V30 4660 C 415.116 0.701613 -1.8953 0
M  V30 4661 C 415.437 1.75139 -0.857396 0
M  V30 4662 O 414.707 1.95607 0.107194 0
M  V30 4663 H 413.287 0.26213 -0.699498 0
M  V30 4664 H 415.949 -0.0223304 -1.94887 0
M  V30 4665 H 415.045 1.18236 -2.88837 0
M  V30 4666 N 415.346 1.54954 0.287554 0
M  V30 4667 C 416.594 1.74528 1.01904 0
M  V30 4668 C 416.915 0.541349 1.87335 0
M  V30 4669 O 416.185 -0.444108 1.908 0
M  V30 4670 H 414.765 0.643576 0.379235 0
M  V30 4671 H 417.427 1.92333 0.315294 0
M  V30 4672 H 416.523 2.64015 1.6644 0
M  V30 4673 N 416.824 -0.551391 1.4764 0
M  V30 4674 C 417.757 -1.6738 1.5511 0
M  V30 4675 C 418.735 -1.5753 0.402856 0
M  V30 4676 O 419.919 -1.78307 0.611475 0
M  V30 4677 C 417.046 -3.05661 1.45908 0
M  V30 4678 C 416.092 -3.33938 2.65307 0
M  V30 4679 S 416.925 -3.22553 4.27457 0
M  V30 4680 C 418.081 -4.63317 4.20818 0
M  V30 4681 H 418.314 -1.6079 2.50068 0
M  V30 4682 H 415.847 -0.732674 1.35909 0
M  V30 4683 H 417.805 -3.8542 1.41286 0
M  V30 4684 H 416.466 -3.09711 0.523248 0
M  V30 4685 H 415.659 -4.34761 2.54948 0
M  V30 4686 H 415.261 -2.61809 2.67081 0
M  V30 4687 H 417.553 -5.54391 3.89431 0
M  V30 4688 H 418.496 -4.78732 5.21748 0
M  V30 4689 H 418.904 -4.41636 3.51593 0
M  V30 4690 N 418.302 -1.35869 -0.798587 0
M  V30 4691 C 419.532 -1.32529 -1.58491 0
M  V30 4692 C 419.94 0.0975405 -1.88948 0
M  V30 4693 O 419.283 1.06224 -1.49874 0
M  V30 4694 C 419.345 -2.07247 -2.9375 0
M  V30 4695 C 419.009 -3.56391 -2.86068 0
M  V30 4696 C 420.006 -4.50824 -2.58947 0
M  V30 4697 C 417.691 -3.9915 -3.04933 0
M  V30 4698 C 419.685 -5.85993 -2.5078 0
M  V30 4699 C 417.372 -5.34413 -2.96389 0
M  V30 4700 C 418.37 -6.27646 -2.69349 0
M  V30 4701 O 418.058 -7.60426 -2.60782 0
M  V30 4702 H 417.79 -0.456529 -0.498556 0
M  V30 4703 H 420.344 -1.79425 -0.999799 0
M  V30 4704 H 418.574 -1.55001 -3.54276 0
M  V30 4705 H 420.263 -1.96883 -3.54954 0
M  V30 4706 H 421.029 -4.19104 -2.44084 0
M  V30 4707 H 416.908 -3.26961 -3.24989 0
M  V30 4708 H 420.452 -6.58735 -2.29595 0
M  V30 4709 H 416.349 -5.65743 -3.10813 0
M  V30 4710 H 417.117 -7.70444 -2.76331 0
M  V30 4711 N 419.78 1.02168 -1.19998 0
M  V30 4712 C 420.71 2.12488 -0.96804 0
M  V30 4713 C 421.691 1.69799 0.101185 0
M  V30 4714 O 422.876 1.94121 -0.0552993 0
M  V30 4715 C 420.006 3.43479 -0.513776 0
M  V30 4716 C 418.96 3.99884 -1.52566 0
M  V30 4717 C 418.286 5.26582 -0.928214 0
M  V30 4718 C 419.586 4.33861 -2.90795 0
M  V30 4719 H 421.28 2.32149 -1.89069 0
M  V30 4720 H 418.826 1.11564 -0.910468 0
M  V30 4721 H 420.779 4.20036 -0.338774 0
M  V30 4722 H 419.503 3.23561 0.444493 0
M  V30 4723 H 418.162 3.25429 -1.68794 0
M  V30 4724 H 417.81 5.02986 0.0378289 0
M  V30 4725 H 417.51 5.65284 -1.60397 0
M  V30 4726 H 419.034 6.05799 -0.764167 0
M  V30 4727 H 420.448 5.01327 -2.78109 0
M  V30 4728 H 418.845 4.83664 -3.55231 0
M  V30 4729 H 419.915 3.42848 -3.42904 0
M  V30 4730 N 421.258 1.00505 1.21394 0
M  V30 4731 C 422.535 0.603277 1.86064 0
M  V30 4732 C 422.915 -0.919095 1.90042 0
M  V30 4733 O 422.263 -1.80607 1.39977 0
M  V30 4734 C 422.473 1.23772 3.26315 0
M  V30 4735 C 423.821 1.34586 4.02705 0
M  V30 4736 O 424.845 1.19304 3.35626 0
M  V30 4737 O 423.704 1.59169 5.22807 0
M  V30 4738 H 420.798 0.206634 0.800769 0
M  V30 4739 H 423.344 1.1017 1.29076 0
M  V30 4740 H 422.116 2.27848 3.18121 0
M  V30 4741 H 421.739 0.725648 3.90922 0
M  V30 4742 N 422.737 -1.36956 0.779787 0
M  V30 4743 C 423.983 -1.99787 0.348281 0
M  V30 4744 C 424.316 -1.61756 -1.07465 0
M  V30 4745 O 423.591 -0.867639 -1.74075 0
M  V30 4746 C 423.874 -3.56597 0.50104 0
M  V30 4747 C 423.727 -4.04513 1.96697 0
M  V30 4748 C 425.046 -4.40008 -0.0898097 0
M  V30 4749 H 422.165 -0.725796 0.128022 0
M  V30 4750 H 424.807 -1.62514 0.984331 0
M  V30 4751 H 422.957 -3.88479 -0.0404347 0
M  V30 4752 H 424.629 -3.83161 2.56876 0
M  V30 4753 H 422.872 -3.56408 2.47297 0
M  V30 4754 H 423.543 -5.1352 2.02486 0
M  V30 4755 H 426.019 -4.14431 0.372293 0
M  V30 4756 H 424.895 -5.4888 0.0471605 0
M  V30 4757 H 425.156 -4.26035 -1.18096 0
M  V30 4758 N 424.215 -0.530993 -1.48385 0
M  V30 4759 C 425.492 0.0671788 -1.95485 0
M  V30 4760 C 425.872 1.51191 -1.47324 0
M  V30 4761 O 425.22 2.17507 -0.700202 0
M  V30 4762 C 425.43 -0.0511206 -3.48963 0
M  V30 4763 C 426.778 0.107632 -4.24464 0
M  V30 4764 O 427.802 0.0226248 -3.56193 0
M  V30 4765 O 426.661 0.285972 -5.45751 0
M  V30 4766 H 423.755 0.0787365 -0.823243 0
M  V30 4767 H 426.301 -0.595662 -1.58902 0
M  V30 4768 H 425.073 -1.05747 -3.7674 0
M  V30 4769 H 424.696 0.650525 -3.92242 0
M  V30 4770 N 425.693 1.55336 -0.266172 0
M  V30 4771 C 426.626 2.18256 0.666296 0
M  V30 4772 C 427.604 1.14064 1.1588 0
M  V30 4773 O 428.788 1.42546 1.23341 0
M  V30 4774 C 425.915 2.79867 1.90768 0
M  V30 4775 C 424.961 3.97283 1.55141 0
M  V30 4776 S 425.794 5.31694 0.637313 0
M  V30 4777 C 426.95 5.96769 1.88727 0
M  V30 4778 H 427.183 2.97008 0.131647 0
M  V30 4779 H 424.716 1.54317 -0.0504869 0
M  V30 4780 H 426.674 3.15996 2.62025 0
M  V30 4781 H 425.335 2.01025 2.41346 0
M  V30 4782 H 424.528 4.3905 2.4749 0
M  V30 4783 H 424.13 3.6253 0.919113 0
M  V30 4784 H 426.422 6.15458 2.83227 0
M  V30 4785 H 427.365 6.91752 1.51276 0
M  V30 4786 H 427.773 5.26034 2.04814 0
M  V30 4787 N 427.171 -0.0066808 1.57599 0
M  V30 4788 C 428.101 -0.999296 2.11036 0
M  V30 4789 C 429.082 -1.36278 1.01795 0
M  V30 4790 O 430.267 -1.4477 1.29442 0
M  V30 4791 C 427.397 -2.29328 2.60818 0
M  V30 4792 C 426.351 -2.07159 3.74525 0
M  V30 4793 C 425.677 -3.42512 4.10596 0
M  V30 4794 C 426.977 -1.43959 5.02069 0
M  V30 4795 H 428.671 -0.554382 2.94223 0
M  V30 4796 H 426.217 -0.265221 1.41536 0
M  V30 4797 H 428.17 -2.99117 2.96828 0
M  V30 4798 H 426.894 -2.7592 1.74745 0
M  V30 4799 H 425.553 -1.39797 3.38899 0
M  V30 4800 H 425.201 -3.86795 3.21556 0
M  V30 4801 H 424.901 -3.28498 4.87199 0
M  V30 4802 H 426.425 -4.13628 4.4916 0
M  V30 4803 H 427.839 -2.03696 5.35893 0
M  V30 4804 H 426.236 -1.40452 5.83432 0
M  V30 4805 H 427.306 -0.407992 4.83181 0
M  V30 4806 N 428.649 -1.55105 -0.279332 0
M  V30 4807 C 430.06 -1.66186 -0.850832 0
M  V30 4808 C 430.411 -0.584707 -1.87285 0
M  V30 4809 O 429.536 0.274919 -2.14647 0
M  V30 4810 C 430.131 -3.01264 -1.55001 0
M  V30 4811 C 428.69 -3.14394 -2.06963 0
M  V30 4812 C 427.837 -2.61959 -0.909536 0
M  V30 4813 H 430.788 -1.58602 -0.0558235 0
M  V30 4814 H 430.809 -2.93899 -2.41669 0
M  V30 4815 H 430.321 -3.7964 -0.805931 0
M  V30 4816 H 428.422 -2.4078 -2.84352 0
M  V30 4817 H 428.535 -4.20867 -2.28928 0
M  V30 4818 H 426.899 -2.18957 -1.30116 0
M  V30 4819 H 427.682 -3.42833 -0.179062 0
M  V30 4820 N 430.127 0.543554 -1.4793 0
M  V30 4821 C 431.375 1.29752 -1.54948 0
M  V30 4822 C 431.696 1.93764 -0.219242 0
M  V30 4823 O 430.966 1.80639 0.75805 0
M  V30 4824 H 429.546 0.481874 -0.570795 0
M  V30 4825 H 432.208 0.633636 -1.84312 0
M  V30 4826 H 431.304 2.08392 -2.32334 0
M  V30 4827 N 431.605 1.3629 0.791371 0
M  V30 4828 C 432.854 1.29742 1.54434 0
M  V30 4829 C 433.167 -0.121729 1.95221 0
M  V30 4830 O 434.373 -0.309579 2.69729 0
M  V30 4831 C 432.829 2.27623 2.78776 0
M  V30 4832 C 432.437 3.74963 2.45166 0
M  V30 4833 C 434.181 2.30047 3.56761 0
M  V30 4834 C 432.088 4.64626 3.65891 0
M  V30 4835 H 431.018 0.482113 0.579727 0
M  V30 4836 H 433.669 1.61642 0.868565 0
M  V30 4837 H 432.051 1.88714 3.48142 0
M  V30 4838 H 433.225 4.22596 1.83709 0
M  V30 4839 H 431.54 3.75295 1.80396 0
M  V30 4840 H 434.137 2.94247 4.46456 0
M  V30 4841 H 434.48 1.30846 3.95203 0
M  V30 4842 H 435.013 2.67563 2.94372 0
M  V30 4843 H 431.752 5.64883 3.32547 0
M  V30 4844 H 431.272 4.2171 4.26521 0
M  V30 4845 H 432.951 4.80801 4.32943 0
M  V30 4846 N 433.083 -1.0153 1.20538 0
M  V30 4847 C 434.015 -2.10224 0.913155 0
M  V30 4848 C 435.028 -1.62495 -0.0995998 0
M  V30 4849 O 436.217 -1.78014 0.131582 0
M  V30 4850 C 433.317 -3.37111 0.347717 0
M  V30 4851 C 432.49 -4.13971 1.41233 0
M  V30 4852 C 431.549 -5.19158 0.857976 0
M  V30 4853 O 430.575 -5.48 1.53897 0
M  V30 4854 N 431.777 -5.7955 -0.331966 0
M  V30 4855 H 434.542 -2.35879 1.84881 0
M  V30 4856 H 432.103 -1.17931 1.10923 0
M  V30 4857 H 434.095 -4.04683 -0.0373026 0
M  V30 4858 H 432.665 -3.08696 -0.492527 0
M  V30 4859 H 431.885 -3.41351 1.97163 0
M  V30 4860 H 433.173 -4.62103 2.12928 0
M  V30 4861 H 432.571 -5.58455 -0.902478 0
M  V30 4862 H 431.128 -6.48464 -0.65861 0
M  V30 4863 N 434.561 -1.01147 -1.20859 0
M  V30 4864 C 435.972 -0.730205 -1.71828 0
M  V30 4865 C 436.323 0.751662 -1.8123 0
M  V30 4866 O 435.448 1.58686 -1.47132 0
M  V30 4867 C 436.043 -1.31885 -3.12077 0
M  V30 4868 C 434.602 -1.08656 -3.60376 0
M  V30 4869 C 433.749 -1.42769 -2.37723 0
M  V30 4870 H 436.7 -1.18158 -1.05945 0
M  V30 4871 H 436.721 -0.706793 -3.73878 0
M  V30 4872 H 436.233 -2.39737 -3.05201 0
M  V30 4873 H 434.334 -0.0254814 -3.72591 0
M  V30 4874 H 434.447 -1.76301 -4.45483 0
M  V30 4875 H 432.811 -0.846603 -2.40218 0
M  V30 4876 H 433.594 -2.51666 -2.33493 0
M  V30 4877 N 436.039 1.36541 -0.78704 0
M  V30 4878 C 437.316 1.9355 -0.282424 0
M  V30 4879 C 437.696 1.71919 1.22503 0
M  V30 4880 O 437.044 1.07677 2.01539 0
M  V30 4881 C 437.254 3.4246 -0.672462 0
M  V30 4882 C 438.602 4.19582 -0.650863 0
M  V30 4883 O 439.626 3.50889 -0.612789 0
M  V30 4884 O 438.485 5.42106 -0.691623 0
M  V30 4885 H 435.579 0.824091 -0.0693 0
M  V30 4886 H 438.125 1.45736 -0.869423 0
M  V30 4887 H 436.897 3.51851 -1.71221 0
M  V30 4888 H 436.52 3.97556 -0.0592211 0
M  V30 4889 N 437.518 0.538854 1.48102 0
M  V30 4890 C 438.448 -0.207654 2.32575 0
M  V30 4891 C 439.429 -0.926559 1.4265 0
M  V30 4892 O 440.614 -0.91061 1.71527 0
M  V30 4893 C 437.744 -1.24957 3.24042 0
M  V30 4894 C 436.698 -0.648263 4.23062 0
M  V30 4895 C 436.024 -1.79348 5.03725 0
M  V30 4896 C 437.324 0.385897 5.20872 0
M  V30 4897 H 439.018 0.497534 2.95237 0
M  V30 4898 H 436.564 0.240715 1.41974 0
M  V30 4899 H 438.517 -1.77983 3.81969 0
M  V30 4900 H 437.241 -1.98446 2.59397 0
M  V30 4901 H 435.9 -0.139452 3.66335 0
M  V30 4902 H 435.548 -2.51696 4.35498 0
M  V30 4903 H 435.248 -1.39702 5.70751 0
M  V30 4904 H 436.772 -2.32735 5.64506 0
M  V30 4905 H 438.186 -0.057607 5.73271 0
M  V30 4906 H 436.583 0.700227 5.96001 0
M  V30 4907 H 437.653 1.28848 4.67468 0
M  V30 4908 N 438.996 -1.55193 0.274407 0
M  V30 4909 C 440.243 -1.99581 -0.342579 0
M  V30 4910 C 440.571 -1.1628 -1.55914 0
M  V30 4911 O 439.826 -0.22029 -1.94456 0
M  V30 4912 C 440.125 -3.49019 -0.769458 0
M  V30 4913 C 439.791 -4.49598 0.342389 0
M  V30 4914 C 438.453 -4.76821 0.647686 0
M  V30 4915 C 440.805 -5.0964 1.09163 0
M  V30 4916 C 438.133 -5.61354 1.70581 0
M  V30 4917 C 440.485 -5.95323 2.13948 0
M  V30 4918 C 439.149 -6.20867 2.45113 0
M  V30 4919 H 438.419 -0.730319 -0.125358 0
M  V30 4920 H 441.066 -1.87529 0.387971 0
M  V30 4921 H 439.371 -3.58544 -1.57967 0
M  V30 4922 H 441.068 -3.8077 -1.25757 0
M  V30 4923 H 437.658 -4.28496 0.094318 0
M  V30 4924 H 441.842 -4.88632 0.869024 0
M  V30 4925 H 437.098 -5.79392 1.9523 0
M  V30 4926 H 441.272 -6.40881 2.72478 0
M  V30 4927 H 438.899 -6.86162 3.27239 0
M  V30 4928 N 440.474 -0.00167713 -1.576 0
M  V30 4929 C 441.384 1.00548 -2.1196 0
M  V30 4930 C 442.4 1.3758 -1.06526 0
M  V30 4931 O 443.576 1.46278 -1.38436 0
M  V30 4932 C 440.641 2.27809 -2.6135 0
M  V30 4933 C 439.702 1.97074 -3.81393 0
M  V30 4934 C 438.935 3.18267 -4.28417 0
M  V30 4935 O 439.158 4.30009 -3.74765 0
M  V30 4936 O 438.092 3.02167 -5.20556 0
M  V30 4937 H 441.918 0.573373 -2.98238 0
M  V30 4938 H 439.503 0.217255 -1.47812 0
M  V30 4939 H 441.385 3.02568 -2.93309 0
M  V30 4940 H 440.06 2.70254 -1.78169 0
M  V30 4941 H 438.967 1.19785 -3.54404 0
M  V30 4942 H 440.3 1.59464 -4.65652 0
M  V30 4943 N 441.952 1.55251 0.271103 0
M  V30 4944 C 443.177 1.80306 1.02491 0
M  V30 4945 C 443.602 0.575457 1.79081 0
M  V30 4946 O 442.96 -0.474987 1.74967 0
M  V30 4947 C 443.008 3.02832 1.95768 0
M  V30 4948 O 442.112 2.78051 3.04568 0
M  V30 4949 H 441.453 0.595896 0.292923 0
M  V30 4950 H 443.983 2.02397 0.299436 0
M  V30 4951 H 443.993 3.31616 2.37686 0
M  V30 4952 H 442.668 3.9183 1.39434 0
M  V30 4953 H 441.245 2.60369 2.66951 0
M  V30 4954 N 443.43 -0.535701 1.48216 0
M  V30 4955 C 444.679 -1.28828 1.55197 0
M  V30 4956 C 444.992 -1.94263 0.228278 0
M  V30 4957 O 446.198 -2.70927 0.176278 0
M  V30 4958 C 444.654 -2.33727 2.73678 0
M  V30 4959 C 444.262 -1.74386 4.12666 0
M  V30 4960 C 446.006 -3.1003 2.89968 0
M  V30 4961 C 443.913 -2.77192 5.22416 0
M  V30 4962 H 442.843 -0.484484 0.577747 0
M  V30 4963 H 445.494 -0.56646 1.74538 0
M  V30 4964 H 443.876 -3.08919 2.4776 0
M  V30 4965 H 445.05 -1.05421 4.48579 0
M  V30 4966 H 443.365 -1.10595 4.01445 0
M  V30 4967 H 445.962 -3.86842 3.6913 0
M  V30 4968 H 446.305 -3.65542 1.9921 0
M  V30 4969 H 446.838 -2.41952 3.15759 0
M  V30 4970 H 443.577 -2.26507 6.15122 0
M  V30 4971 H 443.097 -3.44502 4.90998 0
M  V30 4972 H 444.776 -3.40285 5.50286 0
M  V30 4973 N 444.908 -1.36708 -0.784132 0
M  V30 4974 C 445.818 -1.3363 -1.92822 0
M  V30 4975 C 446.834 -0.237686 -1.72369 0
M  V30 4976 O 448.01 -0.470962 -1.95816 0
M  V30 4977 C 445.075 -1.13011 -3.27764 0
M  V30 4978 C 444.136 -2.32397 -3.60957 0
M  V30 4979 C 443.369 -2.12752 -4.89461 0
M  V30 4980 O 443.592 -1.10541 -5.59586 0
M  V30 4981 O 442.526 -3.00653 -5.21432 0
M  V30 4982 H 446.352 -2.29964 -1.98369 0
M  V30 4983 H 443.937 -1.1731 -0.925136 0
M  V30 4984 H 445.819 -1.03451 -4.08504 0
M  V30 4985 H 444.494 -0.19743 -3.23097 0
M  V30 4986 H 443.401 -2.47527 -2.80502 0
M  V30 4987 H 444.734 -3.2419 -3.70354 0
M  V30 4988 N 446.386 1.0089 -1.21074 0
M  V30 4989 C 447.333 2.09588 -0.966512 0
M  V30 4990 C 448.303 1.65761 0.106089 0
M  V30 4991 O 449.488 1.90758 -0.0402287 0
M  V30 4992 C 446.628 3.40958 -0.533058 0
M  V30 4993 C 445.741 3.9822 -1.67467 0
M  V30 4994 C 444.876 5.17682 -1.19076 0
M  V30 4995 C 443.915 5.67043 -2.30496 0
M  V30 4996 N 443.052 6.77759 -1.83267 0
M  V30 4997 H 447.892 2.29815 -1.89708 0
M  V30 4998 H 445.429 1.12689 -0.945489 0
M  V30 4999 H 447.387 4.1637 -0.263019 0
M  V30 5000 H 446.017 3.20781 0.360505 0
M  V30 5001 H 445.069 3.1983 -2.05944 0
M  V30 5002 H 446.381 4.3085 -2.51336 0
M  V30 5003 H 445.535 6.00326 -0.877151 0
M  V30 5004 H 444.274 4.86635 -0.322066 0
M  V30 5005 H 443.279 4.82999 -2.62664 0
M  V30 5006 H 444.504 6.00121 -3.17855 0
M  V30 5007 H 442.45 6.48527 -0.987356 0
M  V30 5008 H 442.367 7.09624 -2.60711 0
M  V30 5009 H 443.635 7.63949 -1.54928 0
M  V30 5010 N 447.864 1.01787 1.20321 0
M  V30 5011 C 449.275 0.739307 1.71438 0
M  V30 5012 C 449.626 -0.742041 1.81627 0
M  V30 5013 O 448.751 -1.57903 1.47971 0
M  V30 5014 C 449.346 1.33538 3.11373 0
M  V30 5015 C 447.905 1.10566 3.59795 0
M  V30 5016 C 447.052 1.44028 2.36962 0
M  V30 5017 H 450.003 1.18718 1.05317 0
M  V30 5018 H 450.024 0.726611 3.73498 0
M  V30 5019 H 449.536 2.41352 3.03926 0
M  V30 5020 H 447.637 0.0452405 3.72573 0
M  V30 5021 H 447.75 1.78661 4.44542 0
M  V30 5022 H 446.114 0.85933 2.39766 0
M  V30 5023 H 446.897 2.52901 2.32155 0
M  V30 5024 N 449.342 -1.36122 0.79427 0
M  V30 5025 C 450.567 -2.03891 0.379871 0
M  V30 5026 C 450.992 -1.59488 -0.997251 0
M  V30 5027 O 450.35 -0.765652 -1.64339 0
M  V30 5028 C 450.398 -3.57687 0.457442 0
M  V30 5029 O 449.502 -4.08931 -0.5338 0
M  V30 5030 H 448.843 -0.6443 0.160541 0
M  V30 5031 H 451.373 -1.73976 1.07673 0
M  V30 5032 H 451.383 -4.06721 0.322792 0
M  V30 5033 H 450.058 -3.89357 1.46199 0
M  V30 5034 H 448.635 -3.71154 -0.360409 0
M  V30 5035 N 450.82 -0.546701 -1.47814 0
M  V30 5036 C 452.045 -0.021268 -2.07389 0
M  V30 5037 C 452.47 1.25822 -1.39822 0
M  V30 5038 O 451.828 1.75111 -0.46968 0
M  V30 5039 C 451.876 0.168502 -3.60206 0
M  V30 5040 O 450.98 1.23347 -3.93522 0
M  V30 5041 H 450.321 -0.0466108 -0.662362 0
M  V30 5042 H 452.851 -0.759387 -1.89985 0
M  V30 5043 H 452.861 0.385982 -4.0617 0
M  V30 5044 H 451.536 -0.766075 -4.08784 0
M  V30 5045 H 450.113 0.997319 -3.59316 0
M  V30 5046 N 452.299 1.55045 -0.282633 0
M  V30 5047 C 453.545 2.00056 0.332481 0
M  V30 5048 C 453.878 1.1708 1.54939 0
M  V30 5049 O 453.153 0.2427 1.9298 0
M  V30 5050 C 453.436 3.53086 0.70725 0
M  V30 5051 C 453.289 4.46813 -0.517521 0
M  V30 5052 C 454.608 4.12245 1.54084 0
M  V30 5053 H 451.727 0.727268 0.119373 0
M  V30 5054 H 454.369 1.85932 -0.391076 0
M  V30 5055 H 452.519 3.65253 1.32372 0
M  V30 5056 H 454.191 4.46579 -1.15607 0
M  V30 5057 H 452.434 4.18163 -1.1542 0
M  V30 5058 H 453.105 5.51595 -0.211426 0
M  V30 5059 H 455.581 4.03401 1.02013 0
M  V30 5060 H 454.457 5.19515 1.77186 0
M  V30 5061 H 454.718 3.62951 2.52427 0
M  V30 5062 N 453.777 0.010035 1.57597 0
M  V30 5063 C 455.005 -0.683413 1.95287 0
M  V30 5064 C 455.42 -1.66747 0.885481 0
M  V30 5065 O 454.777 -1.82003 -0.134629 0
M  V30 5066 C 454.828 -1.40652 3.33015 0
M  V30 5067 O 454.549 -0.461916 4.35658 0
M  V30 5068 C 456.05 -2.19356 3.85225 0
M  V30 5069 H 453.27 -0.189708 0.643624 0
M  V30 5070 H 455.814 0.0641359 2.04399 0
M  V30 5071 H 453.969 -2.10562 3.2518 0
M  V30 5072 H 454.383 -0.973215 5.15392 0
M  V30 5073 H 455.857 -2.65433 4.83993 0
M  V30 5074 H 456.334 -3.02457 3.18459 0
M  V30 5075 H 456.94 -1.54442 3.96267 0
M  V30 5076 N 455.255 -1.55392 -0.262866 0
M  V30 5077 C 456.501 -1.76737 -0.99458 0
M  V30 5078 C 456.834 -0.572453 -1.85571 0
M  V30 5079 O 456.109 0.429732 -1.89693 0
M  V30 5080 C 456.392 -3.07824 -1.8686 0
M  V30 5081 C 456.245 -4.3769 -1.03672 0
M  V30 5082 C 457.564 -3.35021 -2.85393 0
M  V30 5083 H 454.683 -0.643005 -0.360157 0
M  V30 5084 H 457.325 -1.88126 -0.266216 0
M  V30 5085 H 455.475 -2.98245 -2.48962 0
M  V30 5086 H 457.147 -4.59238 -0.43563 0
M  V30 5087 H 455.39 -4.32461 -0.340513 0
M  V30 5088 H 456.061 -5.25759 -1.6817 0
M  V30 5089 H 458.537 -3.44458 -2.33426 0
M  V30 5090 H 457.413 -4.27989 -3.43681 0
M  V30 5091 H 457.674 -2.55153 -3.61039 0
M  V30 5092 N 456.733 0.527833 -1.48498 0
M  V30 5093 C 458.01 1.28905 -1.47115 0
M  V30 5094 C 458.39 2.10297 -0.184007 0
M  V30 5095 O 457.738 2.12728 0.834218 0
M  V30 5096 C 457.948 2.16866 -2.73441 0
M  V30 5097 C 459.296 2.76936 -3.21857 0
M  V30 5098 O 460.32 2.27152 -2.74373 0
M  V30 5099 O 459.179 3.67496 -4.04486 0
M  V30 5100 H 456.273 0.581918 -0.587623 0
M  V30 5101 H 458.819 0.544311 -1.60734 0
M  V30 5102 H 457.591 1.56521 -3.58632 0
M  V30 5103 H 457.214 2.98583 -2.62553 0
M  V30 5104 N 458.211 1.37122 0.776871 0
M  V30 5105 C 459.458 1.32047 1.53524 0
M  V30 5106 C 459.786 -0.0965631 1.9426 0
M  V30 5107 O 459.041 -1.06866 1.63945 0
M  V30 5108 C 459.34 2.20068 2.81611 0
M  V30 5109 C 459.006 3.68423 2.59953 0
M  V30 5110 C 457.668 4.08854 2.53755 0
M  V30 5111 C 460.02 4.62431 2.40431 0
M  V30 5112 C 457.348 5.41417 2.26018 0
M  V30 5113 C 459.7 5.95225 2.14219 0
M  V30 5114 C 458.364 6.34767 2.06462 0
M  V30 5115 H 457.634 0.483196 0.561785 0
M  V30 5116 H 460.281 1.69284 0.895268 0
M  V30 5117 H 458.586 1.75809 3.50141 0
M  V30 5118 H 460.283 2.13458 3.39465 0
M  V30 5119 H 456.873 3.36354 2.65638 0
M  V30 5120 H 461.057 4.32057 2.44213 0
M  V30 5121 H 456.313 5.71022 2.18504 0
M  V30 5122 H 460.487 6.67626 1.98112 0
M  V30 5123 H 458.114 7.37413 1.84733 0
M  V30 5124 N 459.689 -1.00246 1.21608 0
M  V30 5125 C 460.935 -1.74417 1.04643 0
M  V30 5126 C 461.29 -1.87862 -0.415387 0
M  V30 5127 O 460.583 -1.40373 -1.30407 0
M  V30 5128 C 460.777 -3.15448 1.68009 0
M  V30 5129 C 460.606 -3.15755 3.20201 0
M  V30 5130 C 459.376 -3.2219 3.89258 0
M  V30 5131 C 461.574 -3.00668 4.17257 0
M  V30 5132 N 459.556 -3.1215 5.28617 0
M  V30 5133 C 460.927 -2.98553 5.43384 0
M  V30 5134 C 462.982 -2.84989 4.08272 0
M  V30 5135 C 461.685 -2.82364 6.61561 0
M  V30 5136 C 463.711 -2.70158 5.26088 0
M  V30 5137 C 463.073 -2.68721 6.51128 0
M  V30 5138 H 459.172 -0.648317 0.437274 0
M  V30 5139 H 461.756 -1.19129 1.54001 0
M  V30 5140 H 459.927 -3.69001 1.21215 0
M  V30 5141 H 461.659 -3.78128 1.44226 0
M  V30 5142 H 458.414 -3.29488 3.40198 0
M  V30 5143 H 458.838 -3.10465 6.01615 0
M  V30 5144 H 463.48 -2.84904 3.12393 0
M  V30 5145 H 461.198 -2.81196 7.57598 0
M  V30 5146 H 464.784 -2.59022 5.20959 0
M  V30 5147 H 463.664 -2.57382 7.40759 0
M  V30 5148 N 461.167 -1.02423 -1.1978 0
M  V30 5149 C 462.077 -0.610919 -2.26506 0
M  V30 5150 C 463.093 0.355152 -1.70337 0
M  V30 5151 O 464.269 0.214195 -2.00258 0
M  V30 5152 C 461.334 0.0365921 -3.46681 0
M  V30 5153 C 460.395 -0.976389 -4.18049 0
M  V30 5154 C 459.628 -0.359683 -5.32487 0
M  V30 5155 O 459.851 0.838601 -5.64202 0
M  V30 5156 O 458.785 -1.08022 -5.92127 0
M  V30 5157 H 462.611 -1.49965 -2.64091 0
M  V30 5158 H 460.196 -0.794156 -1.26545 0
M  V30 5159 H 462.078 0.39786 -4.19518 0
M  V30 5160 H 460.753 0.899398 -3.10954 0
M  V30 5161 H 459.66 -1.38916 -3.47352 0
M  V30 5162 H 460.993 -1.80941 -4.57735 0
M  V30 5163 N 462.645 1.35699 -0.801477 0
M  V30 5164 C 463.578 2.2768 -0.153922 0
M  V30 5165 C 464.556 1.47832 0.67709 0
M  V30 5166 O 465.74 1.77104 0.645474 0
M  V30 5167 C 462.867 3.2943 0.786986 0
M  V30 5168 C 461.913 4.26485 0.0362447 0
M  V30 5169 S 462.746 5.19573 -1.2963 0
M  V30 5170 C 463.902 6.24866 -0.359705 0
M  V30 5171 H 464.135 2.82254 -0.9338 0
M  V30 5172 H 461.668 1.42421 -0.596283 0
M  V30 5173 H 463.626 3.8855 1.32436 0
M  V30 5174 H 462.287 2.73745 1.54021 0
M  V30 5175 H 461.48 4.98378 0.750668 0
M  V30 5176 H 461.082 3.71508 -0.431017 0
M  V30 5177 H 463.374 6.75957 0.456954 0
M  V30 5178 H 464.317 7.00307 -1.04768 0
M  V30 5179 H 464.725 5.64484 0.0423274 0
M  V30 5180 N 464.123 0.554532 1.47522 0
M  V30 5181 C 465.351 0.034257 2.06872 0
M  V30 5182 C 465.766 -1.25826 1.40759 0
M  V30 5183 O 465.123 -1.75425 0.503217 0
M  V30 5184 C 465.174 -0.167827 3.6111 0
M  V30 5185 O 464.895 1.07351 4.24744 0
M  V30 5186 C 466.396 -0.72569 4.3732 0
M  V30 5187 H 463.616 0.0446275 0.669514 0
M  V30 5188 H 466.16 0.767181 1.89564 0
M  V30 5189 H 464.315 -0.850872 3.7794 0
M  V30 5190 H 464.729 0.869563 5.17242 0
M  V30 5191 H 466.203 -0.816394 5.45929 0
M  V30 5192 H 466.68 -1.73635 4.0342 0
M  V30 5193 H 467.286 -0.0784292 4.25228 0
M  V30 5194 N 465.601 -1.54893 0.290851 0
M  V30 5195 C 466.548 -2.23138 -0.58974 0
M  V30 5196 C 467.518 -1.21036 -1.13752 0
M  V30 5197 O 468.703 -1.49626 -1.18392 0
M  V30 5198 C 465.843 -2.96811 -1.76061 0
M  V30 5199 C 464.956 -4.13665 -1.24519 0
M  V30 5200 C 464.091 -4.74944 -2.3791 0
M  V30 5201 C 463.13 -5.83963 -1.83451 0
M  V30 5202 N 462.267 -6.39239 -2.90376 0
M  V30 5203 H 467.107 -2.98 -0.00114915 0
M  V30 5204 H 464.644 -1.47096 0.0112006 0
M  V30 5205 H 466.602 -3.37751 -2.44909 0
M  V30 5206 H 465.232 -2.24344 -2.32098 0
M  V30 5207 H 464.284 -3.77737 -0.449288 0
M  V30 5208 H 465.596 -4.92238 -0.806424 0
M  V30 5209 H 464.75 -5.18684 -3.14724 0
M  V30 5210 H 463.489 -3.95682 -2.85109 0
M  V30 5211 H 462.494 -5.39657 -1.05122 0
M  V30 5212 H 463.719 -6.65103 -1.37169 0
M  V30 5213 H 461.665 -5.62864 -3.36927 0
M  V30 5214 H 461.582 -7.13129 -2.50965 0
M  V30 5215 H 462.85 -6.87637 -3.67118 0
M  V30 5216 N 467.08 -0.0183926 -1.57589 0
M  V30 5217 C 468.01 0.965596 -2.12599 0
M  V30 5218 C 468.991 1.34641 -1.0395 0
M  V30 5219 O 470.176 1.42693 -1.31729 0
M  V30 5220 C 467.306 2.25149 -2.64434 0
M  V30 5221 C 466.26 2.01175 -3.77773 0
M  V30 5222 C 465.586 3.35937 -4.15994 0
M  V30 5223 C 466.886 1.35953 -5.04296 0
M  V30 5224 H 468.58 0.507504 -2.95067 0
M  V30 5225 H 466.126 0.242671 -1.41941 0
M  V30 5226 H 468.079 2.94357 -3.01549 0
M  V30 5227 H 466.803 2.73105 -1.79112 0
M  V30 5228 H 465.462 1.34388 -3.4108 0
M  V30 5229 H 465.11 3.81631 -3.27669 0
M  V30 5230 H 464.81 3.20705 -4.92364 0
M  V30 5231 H 466.334 4.0643 -4.55683 0
M  V30 5232 H 467.748 1.95144 -5.39065 0
M  V30 5233 H 466.145 1.31152 -5.85593 0
M  V30 5234 H 467.215 0.331071 -4.83768 0
M  V30 5235 N 468.558 1.5553 0.254621 0
M  V30 5236 C 469.468 1.92789 1.33677 0
M  V30 5237 C 470.484 0.827356 1.53071 0
M  V30 5238 O 471.66 1.12807 1.66843 0
M  V30 5239 C 468.725 2.20827 2.67275 0
M  V30 5240 C 467.786 3.4427 2.5647 0
M  V30 5241 C 467.019 3.70961 3.83697 0
M  V30 5242 O 467.242 2.99852 4.85227 0
M  V30 5243 O 466.176 4.64491 3.82794 0
M  V30 5244 H 470.002 2.84945 1.05071 0
M  V30 5245 H 467.587 1.42312 0.454723 0
M  V30 5246 H 469.469 2.40204 3.46237 0
M  V30 5247 H 468.144 1.31851 2.9563 0
M  V30 5248 H 467.051 3.30209 1.75821 0
M  V30 5249 H 468.384 4.33524 2.33062 0
M  V30 5250 N 470.036 -0.519951 1.48776 0
M  V30 5251 C 470.999 -1.60574 1.6355 0
M  V30 5252 C 471.999 -1.52557 0.508234 0
M  V30 5253 O 473.189 -1.56047 0.774262 0
M  V30 5254 C 470.321 -3.00211 1.61512 0
M  V30 5255 H 471.514 -1.4881 2.60376 0
M  V30 5256 H 469.067 -0.742772 1.37523 0
M  V30 5257 H 469.802 -3.17471 0.662009 0
M  V30 5258 H 469.587 -3.07439 2.43359 0
M  V30 5259 H 471.077 -3.79134 1.75064 0
M  V30 5260 N 471.514 -1.37532 -0.769588 0
M  V30 5261 C 472.763 -1.32183 -1.5235 0
M  V30 5262 C 473.076 0.0906555 -1.9539 0
M  V30 5263 O 474.282 0.266628 -2.70188 0
M  V30 5264 C 472.738 -2.32029 -2.75119 0
M  V30 5265 C 472.346 -3.78816 -2.3917 0
M  V30 5266 C 474.09 -2.35694 -3.53056 0
M  V30 5267 C 471.997 -4.70388 -3.58453 0
M  V30 5268 H 470.927 -0.491275 -0.571984 0
M  V30 5269 H 473.578 -1.63004 -0.842739 0
M  V30 5270 H 471.96 -1.94229 -3.45096 0
M  V30 5271 H 473.134 -4.25466 -1.76962 0
M  V30 5272 H 471.449 -3.78117 -1.74402 0
M  V30 5273 H 474.046 -3.01312 -4.41718 0
M  V30 5274 H 474.389 -1.37117 -3.93071 0
M  V30 5275 H 474.922 -2.72212 -2.90078 0
M  V30 5276 H 471.661 -5.70102 -3.23518 0
M  V30 5277 H 471.181 -4.28442 -4.19758 0
M  V30 5278 H 472.86 -4.87628 -4.25239 0
M  V30 5279 N 472.992 0.995999 -1.22138 0
M  V30 5280 C 473.925 2.08302 -0.931952 0
M  V30 5281 C 474.903 1.62127 0.123956 0
M  V30 5282 O 476.087 1.88499 -0.00696004 0
M  V30 5283 C 473.214 3.36317 -0.401068 0
M  V30 5284 C 472.26 4.01413 -1.44117 0
M  V30 5285 S 473.093 4.42664 -3.01345 0
M  V30 5286 C 474.249 5.73853 -2.49887 0
M  V30 5287 H 474.482 2.32532 -1.85246 0
M  V30 5288 H 472.015 1.13005 -1.0521 0
M  V30 5289 H 473.973 4.10375 -0.101352 0
M  V30 5290 H 472.634 3.10123 0.498272 0
M  V30 5291 H 471.827 4.9358 -1.01952 0
M  V30 5292 H 471.429 3.33668 -1.68943 0
M  V30 5293 H 473.721 6.50039 -1.90934 0
M  V30 5294 H 474.664 6.20841 -3.40532 0
M  V30 5295 H 475.072 5.31105 -1.9128 0
M  V30 5296 N 474.47 1.03057 1.19235 0
M  V30 5297 C 475.417 0.612832 2.22515 0
M  V30 5298 C 476.387 -0.374224 1.61829 0
M  V30 5299 O 477.572 -0.270501 1.88873 0
M  V30 5300 C 474.712 -0.028475 3.45088 0
M  V30 5301 C 473.825 1.00483 4.20151 0
M  V30 5302 C 472.96 0.333102 5.30155 0
M  V30 5303 C 471.999 1.3522 5.96977 0
M  V30 5304 N 471.136 0.70616 6.9854 0
M  V30 5305 H 475.976 1.49812 2.57605 0
M  V30 5306 H 473.513 0.749658 1.26564 0
M  V30 5307 H 475.471 -0.417548 4.15105 0
M  V30 5308 H 474.101 -0.877334 3.10649 0
M  V30 5309 H 473.153 1.51194 3.49062 0
M  V30 5310 H 474.465 1.77929 4.65986 0
M  V30 5311 H 473.619 -0.110725 6.06599 0
M  V30 5312 H 472.358 -0.473547 4.85396 0
M  V30 5313 H 471.363 1.80627 5.19282 0
M  V30 5314 H 472.588 2.16037 6.4382 0
M  V30 5315 H 470.534 -0.0803667 6.55951 0
M  V30 5316 H 470.451 1.41848 7.42573 0
M  V30 5317 H 471.719 0.286391 7.78974 0
M  V30 5318 N 475.948 -1.35272 0.808662 0
M  V30 5319 C 477.178 -2.02652 0.401953 0
M  V30 5320 C 477.586 -1.6108 -0.992462 0
M  V30 5321 O 476.929 -0.804984 -1.65123 0
M  V30 5322 C 476.991 -3.57174 0.408246 0
M  V30 5323 C 476.655 -4.22019 1.75353 0
M  V30 5324 C 477.652 -4.43552 2.71215 0
M  V30 5325 C 475.337 -4.59093 2.03811 0
M  V30 5326 C 477.331 -5.01264 3.93717 0
M  V30 5327 C 475.018 -5.16519 3.26576 0
M  V30 5328 C 476.016 -5.37546 4.21347 0
M  V30 5329 O 475.704 -5.93761 5.41944 0
M  V30 5330 H 475.436 -0.656495 0.161216 0
M  V30 5331 H 477.99 -1.73829 1.0942 0
M  V30 5332 H 476.22 -3.85197 -0.340608 0
M  V30 5333 H 477.909 -4.05893 0.0235623 0
M  V30 5334 H 478.675 -4.15288 2.50522 0
M  V30 5335 H 474.554 -4.42039 1.30854 0
M  V30 5336 H 478.098 -5.17592 4.67701 0
M  V30 5337 H 473.995 -5.4421 3.47139 0
M  V30 5338 H 474.763 -6.1221 5.43269 0
M  V30 5339 N 477.426 -0.562348 -1.47226 0
M  V30 5340 C 478.373 0.182461 -2.30078 0
M  V30 5341 C 479.343 0.903503 -1.39377 0
M  V30 5342 O 480.528 0.898188 -1.68337 0
M  V30 5343 C 477.668 1.20322 -3.23445 0
M  V30 5344 C 476.781 0.487717 -4.29238 0
M  V30 5345 C 475.916 1.49422 -5.09752 0
M  V30 5346 C 474.955 0.763976 -6.07314 0
M  V30 5347 N 474.092 1.71755 -6.80768 0
M  V30 5348 H 478.932 -0.530169 -2.93246 0
M  V30 5349 H 476.469 -0.273276 -1.44539 0
M  V30 5350 H 478.427 1.80768 -3.76004 0
M  V30 5351 H 477.057 1.88382 -2.6213 0
M  V30 5352 H 476.109 -0.231374 -3.79696 0
M  V30 5353 H 477.421 -0.0841003 -4.98729 0
M  V30 5354 H 476.575 2.17206 -5.66486 0
M  V30 5355 H 475.314 2.09995 -4.40174 0
M  V30 5356 H 474.319 0.0722344 -5.49753 0
M  V30 5357 H 475.544 0.16391 -6.78902 0
M  V30 5358 H 473.49 2.31177 -6.13916 0
M  V30 5359 H 473.407 1.19802 -7.46447 0
M  V30 5360 H 474.675 2.38638 -7.42073 0
M  V30 5361 N 478.904 1.54736 -0.299062 0
M  V30 5362 C 479.814 2.27127 0.587413 0
M  V30 5363 C 480.83 1.30575 1.15005 0
M  V30 5364 O 482.006 1.63554 1.17525 0
M  V30 5365 C 479.071 2.99645 1.74395 0
M  V30 5366 C 478.132 4.11731 1.21559 0
M  V30 5367 C 477.365 4.80781 2.317 0
M  V30 5368 O 477.588 4.4918 3.51558 0
M  V30 5369 O 476.522 5.68226 1.98501 0
M  V30 5370 H 480.348 3.037 0.000250109 0
M  V30 5371 H 477.933 1.49256 -0.0655919 0
M  V30 5372 H 479.815 3.45138 2.4178 0
M  V30 5373 H 478.49 2.25969 2.31775 0
M  V30 5374 H 477.397 3.70641 0.507514 0
M  V30 5375 H 478.73 4.87379 0.687233 0
M  V30 5376 N 480.382 0.0267497 1.57577 0
M  V30 5377 C 481.612 -0.6617 1.95717 0
M  V30 5378 C 482.02 -1.66331 0.901706 0
M  V30 5379 O 481.363 -1.83273 -0.125241 0
M  V30 5380 C 481.425 -1.42649 3.29987 0
M  V30 5381 C 481.089 -0.583482 4.5326 0
M  V30 5382 C 482.086 0.140221 5.19711 0
M  V30 5383 C 479.771 -0.521581 4.99585 0
M  V30 5384 C 481.765 0.914523 6.30805 0
M  V30 5385 C 479.452 0.256428 6.10562 0
M  V30 5386 C 480.45 0.973189 6.76031 0
M  V30 5387 O 480.138 1.73845 7.84878 0
M  V30 5388 H 479.87 -0.187483 0.649481 0
M  V30 5389 H 482.424 0.0820847 2.05236 0
M  V30 5390 H 480.654 -2.21536 3.16952 0
M  V30 5391 H 482.343 -2.00282 3.53047 0
M  V30 5392 H 483.109 0.101716 4.84893 0
M  V30 5393 H 478.988 -1.06904 4.48433 0
M  V30 5394 H 482.532 1.4745 6.81839 0
M  V30 5395 H 478.429 0.296657 6.44818 0
M  V30 5396 H 479.197 1.65797 8.01532 0
M  V30 5397 N 481.861 -1.55662 -0.24637 0
M  V30 5398 C 483.11 -1.7672 -0.972254 0
M  V30 5399 C 483.423 -0.59078 -1.86465 0
M  V30 5400 O 484.629 -0.684391 -2.62732 0
M  V30 5401 C 483.085 -3.12869 -1.7788 0
M  V30 5402 C 482.693 -4.38161 -0.933768 0
M  V30 5403 C 484.437 -3.43265 -2.49738 0
M  V30 5404 C 482.344 -5.6534 -1.73623 0
M  V30 5405 H 481.274 -0.658795 -0.366749 0
M  V30 5406 H 483.925 -1.82092 -0.226902 0
M  V30 5407 H 482.307 -3.01606 -2.56612 0
M  V30 5408 H 483.481 -4.60413 -0.188736 0
M  V30 5409 H 481.796 -4.15102 -0.328488 0
M  V30 5410 H 484.393 -4.35501 -3.10231 0
M  V30 5411 H 484.736 -2.64614 -3.2138 0
M  V30 5412 H 485.269 -3.55746 -1.78016 0
M  V30 5413 H 482.008 -6.46814 -1.06354 0
M  V30 5414 H 481.528 -5.47188 -2.45653 0
M  V30 5415 H 483.207 -6.04616 -2.30323 0
M  V30 5416 N 483.339 0.512053 -1.4905 0
M  V30 5417 C 484.75 1.09376 -1.51307 0
M  V30 5418 C 485.101 1.94 -0.292971 0
M  V30 5419 O 484.226 2.07965 0.598277 0
M  V30 5420 C 484.821 1.99031 -2.74176 0
M  V30 5421 C 483.38 2.52385 -2.79247 0
M  V30 5422 C 482.527 1.29749 -2.45073 0
M  V30 5423 H 485.478 0.296467 -1.55906 0
M  V30 5424 H 485.499 2.83569 -2.53711 0
M  V30 5425 H 485.011 1.37412 -3.62959 0
M  V30 5426 H 483.112 3.17673 -1.94716 0
M  V30 5427 H 483.225 2.90293 -3.81139 0
M  V30 5428 H 481.589 1.61912 -1.96612 0
M  V30 5429 H 482.372 0.698555 -3.36118 0
M  V30 5430 N 484.817 1.37938 0.762283 0
M  V30 5431 C 485.727 1.36681 1.90671 0
M  V30 5432 C 486.743 0.265078 1.71969 0
M  V30 5433 O 487.919 0.502055 1.95042 0
M  V30 5434 C 484.984 1.18211 3.25925 0
M  V30 5435 C 484.045 2.3811 3.57214 0
M  V30 5436 C 483.278 2.20512 4.86014 0
M  V30 5437 O 483.501 1.19429 5.57757 0
M  V30 5438 O 482.435 3.08911 5.16583 0
M  V30 5439 H 486.261 2.33091 1.94685 0
M  V30 5440 H 483.846 1.18767 0.906356 0
M  V30 5441 H 485.728 1.09937 4.06807 0
M  V30 5442 H 484.403 0.248807 3.22742 0
M  V30 5443 H 483.31 2.51958 2.76529 0
M  V30 5444 H 484.643 3.30041 3.65149 0
M  V30 5445 N 486.295 -0.989507 1.22664 0
M  V30 5446 C 487.525 -1.7624 1.0781 0
M  V30 5447 C 487.933 -1.85466 -0.374036 0
M  V30 5448 O 487.276 -1.32645 -1.27087 0
M  V30 5449 C 487.338 -3.21007 1.61849 0
M  V30 5450 C 487.002 -3.35316 3.10503 0
M  V30 5451 C 487.999 -3.22362 4.07896 0
M  V30 5452 C 485.684 -3.60258 3.50028 0
M  V30 5453 C 487.678 -3.34139 5.42798 0
M  V30 5454 C 485.365 -3.71676 4.85078 0
M  V30 5455 C 486.363 -3.58625 5.81272 0
M  V30 5456 O 486.051 -3.69655 7.1387 0
M  V30 5457 H 485.783 -0.560209 0.378341 0
M  V30 5458 H 488.337 -1.25252 1.62792 0
M  V30 5459 H 486.567 -3.73202 1.01279 0
M  V30 5460 H 488.256 -3.80024 1.42606 0
M  V30 5461 H 489.022 -3.03 3.78703 0
M  V30 5462 H 484.901 -3.69492 2.75675 0
M  V30 5463 H 488.445 -3.23869 6.17863 0
M  V30 5464 H 484.342 -3.90545 5.1395 0
M  V30 5465 H 485.11 -3.86507 7.21495 0
M  V30 5466 N 487.773 -1.03688 -1.18687 0
M  V30 5467 C 489.001 -0.757918 -1.92518 0
M  V30 5468 C 489.416 0.684398 -1.75959 0
M  V30 5469 O 488.773 1.46617 -1.08673 0
M  V30 5470 C 488.824 -1.10985 -3.44042 0
M  V30 5471 O 488.545 -2.49554 -3.60076 0
M  V30 5472 C 490.046 -0.854844 -4.3498 0
M  V30 5473 H 487.266 -0.276699 -0.611293 0
M  V30 5474 H 489.81 -1.38352 -1.50595 0
M  V30 5475 H 487.965 -0.529279 -3.83767 0
M  V30 5476 H 488.379 -2.6291 -4.53849 0
M  V30 5477 H 489.853 -1.15098 -5.39867 0
M  V30 5478 H 490.33 0.210507 -4.38695 0
M  V30 5479 H 490.936 -1.41853 -4.00946 0
M  V30 5480 N 489.251 1.34841 -0.815825 0
M  V30 5481 C 490.476 2.03261 -0.41226 0
M  V30 5482 C 490.901 1.61055 0.971751 0
M  V30 5483 O 490.259 0.7917 1.63101 0
M  V30 5484 C 490.307 3.56914 -0.514289 0
M  V30 5485 O 489.411 4.09728 0.468675 0
M  V30 5486 H 488.752 0.641664 -0.170771 0
M  V30 5487 H 491.282 1.72241 -1.10427 0
M  V30 5488 H 491.292 4.06156 -0.387457 0
M  V30 5489 H 489.967 3.86982 -1.52375 0
M  V30 5490 H 488.544 3.71681 0.301316 0
M  V30 5491 N 490.729 0.570148 1.46925 0
M  V30 5492 C 491.639 -0.173061 2.33961 0
M  V30 5493 C 492.655 -0.898825 1.48987 0
M  V30 5494 O 493.831 -0.864825 1.81887 0
M  V30 5495 C 490.896 -1.18177 3.25937 0
M  V30 5496 C 489.957 -0.462041 4.26806 0
M  V30 5497 C 489.19 -1.4227 5.14388 0
M  V30 5498 O 489.413 -2.65842 5.04662 0
M  V30 5499 O 488.347 -0.940127 5.94513 0
M  V30 5500 H 492.173 0.541216 2.98839 0
M  V30 5501 H 489.758 0.330647 1.45695 0
M  V30 5502 H 491.64 -1.76372 3.82715 0
M  V30 5503 H 490.315 -1.87774 2.63671 0
M  V30 5504 H 489.222 0.161429 3.73752 0
M  V30 5505 H 490.555 0.192719 4.91823 0
M  V30 5506 N 492.207 -1.54576 0.307264 0
M  V30 5507 C 493.157 -2.20467 -0.581249 0
M  V30 5508 C 494.141 -1.17972 -1.09414 0
M  V30 5509 O 495.333 -1.43667 -1.03387 0
M  V30 5510 C 492.462 -2.95369 -1.74963 0
M  V30 5511 C 491.548 -4.05186 -1.25241 0
M  V30 5512 N 491.939 -5.03577 -0.47364 0
M  V30 5513 C 490.237 -4.18841 -1.53259 0
M  V30 5514 C 490.938 -5.81328 -0.208083 0
M  V30 5515 N 489.914 -5.37834 -0.789651 0
M  V30 5516 H 493.716 -2.93892 0.0212221 0
M  V30 5517 H 491.23 -1.62011 0.112325 0
M  V30 5518 H 493.227 -3.41046 -2.39777 0
M  V30 5519 H 491.887 -2.23461 -2.35574 0
M  V30 5520 H 492.898 -5.17766 -0.117963 0
M  V30 5521 H 489.575 -3.58141 -2.14573 0
M  V30 5522 H 490.965 -6.706 0.417793 0
M  V30 5523 N 493.685 -0.035106 -1.57561 0
M  V30 5524 C 494.932 0.642229 -1.92046 0
M  V30 5525 C 495.26 1.7179 -0.91206 0
M  V30 5526 O 494.515 1.95544 0.0781153 0
M  V30 5527 C 494.814 1.29149 -3.3325 0
M  V30 5528 C 494.48 0.345604 -4.49574 0
M  V30 5529 C 493.142 0.0852775 -4.81124 0
M  V30 5530 C 495.494 -0.303569 -5.20315 0
M  V30 5531 C 492.822 -0.831927 -5.80772 0
M  V30 5532 C 495.174 -1.20886 -6.20942 0
M  V30 5533 C 493.838 -1.47802 -6.50931 0
M  V30 5534 H 493.108 0.235008 -0.702746 0
M  V30 5535 H 495.755 -0.0981529 -1.91248 0
M  V30 5536 H 494.06 2.10676 -3.30337 0
M  V30 5537 H 495.757 1.82223 -3.57205 0
M  V30 5538 H 492.347 0.558683 -4.24943 0
M  V30 5539 H 496.531 -0.115515 -4.96166 0
M  V30 5540 H 491.787 -1.0481 -6.02349 0
M  V30 5541 H 495.961 -1.71804 -6.74875 0
M  V30 5542 H 493.588 -2.19039 -7.2796 0
M  V30 5543 N 495.163 1.55791 0.238111 0
M  V30 5544 C 496.44 1.68798 0.98826 0
M  V30 5545 C 496.82 0.577562 2.03045 0
M  V30 5546 O 496.168 -0.41778 2.24648 0
M  V30 5547 C 496.378 3.09454 1.61367 0
M  V30 5548 C 497.726 3.68335 2.11221 0
M  V30 5549 O 498.75 3.1231 1.71292 0
M  V30 5550 O 497.609 4.6657 2.84561 0
M  V30 5551 H 494.703 0.686881 0.460568 0
M  V30 5552 H 497.249 1.68118 0.231202 0
M  V30 5553 H 496.021 3.81726 0.860295 0
M  V30 5554 H 495.644 3.14182 2.4367 0
M  V30 5555 N 496.642 -0.504142 1.49319 0
M  V30 5556 C 497.575 -1.62361 1.60356 0
M  V30 5557 C 498.553 -1.56169 0.45277 0
M  V30 5558 O 499.737 -1.76271 0.667892 0
M  V30 5559 C 496.864 -3.00864 1.55559 0
M  V30 5560 C 495.91 -3.25328 2.75797 0
M  V30 5561 S 496.743 -3.08791 4.37503 0
M  V30 5562 C 497.899 -4.49695 4.35345 0
M  V30 5563 H 498.132 -1.52753 2.55056 0
M  V30 5564 H 495.665 -0.689065 1.38171 0
M  V30 5565 H 497.623 -3.8073 1.53477 0
M  V30 5566 H 496.284 -3.0789 0.621515 0
M  V30 5567 H 495.477 -4.2643 2.68651 0
M  V30 5568 H 495.079 -2.53179 2.75275 0
M  V30 5569 H 497.371 -5.41721 4.06871 0
M  V30 5570 H 498.314 -4.61891 5.36714 0
M  V30 5571 H 498.722 -4.30227 3.65465 0
M  V30 5572 N 498.12 -1.38341 -0.754957 0
M  V30 5573 C 499.05 -1.38176 -1.88227 0
M  V30 5574 C 500.031 -0.247873 -1.68284 0
M  V30 5575 O 501.216 -0.45075 -1.88896 0
M  V30 5576 C 498.346 -1.20471 -3.25736 0
M  V30 5577 C 497.3 -2.3105 -3.60278 0
M  V30 5578 C 496.626 -1.98452 -4.96509 0
M  V30 5579 C 497.926 -3.73305 -3.65295 0
M  V30 5580 H 499.62 -2.32512 -1.88622 0
M  V30 5581 H 497.166 -1.1192 -0.906082 0
M  V30 5582 H 499.119 -1.18982 -4.04254 0
M  V30 5583 H 497.843 -0.225965 -3.25817 0
M  V30 5584 H 496.502 -2.31723 -2.84078 0
M  V30 5585 H 496.15 -0.990641 -4.93148 0
M  V30 5586 H 495.85 -2.7251 -5.20588 0
M  V30 5587 H 497.374 -1.98578 -5.77407 0
M  V30 5588 H 498.788 -3.7467 -4.3393 0
M  V30 5589 H 497.185 -4.46557 -4.00883 0
M  V30 5590 H 498.255 -4.05719 -2.65556 0
M  V30 5591 N 499.598 0.982988 -1.23187 0
M  V30 5592 C 500.875 1.69814 -0.970707 0
M  V30 5593 C 501.255 2.04811 0.511424 0
M  V30 5594 O 500.603 1.73924 1.48198 0
M  V30 5595 C 500.813 2.94143 -1.87831 0
M  V30 5596 C 502.161 3.66712 -2.14026 0
M  V30 5597 O 503.185 3.04171 -1.8536 0
M  V30 5598 O 502.044 4.79258 -2.62629 0
M  V30 5599 H 499.138 0.741659 -0.365884 0
M  V30 5600 H 501.684 1.03844 -1.34218 0
M  V30 5601 H 500.456 2.64858 -2.88038 0
M  V30 5602 H 500.079 3.6785 -1.50905 0
M  V30 5603 N 501.076 1.04316 1.18135 0
M  V30 5604 C 501.986 0.646876 2.25505 0
M  V30 5605 C 503.002 -0.328008 1.7088 0
M  V30 5606 O 504.178 -0.182309 2.00573 0
M  V30 5607 C 501.243 0.0185664 3.46695 0
M  V30 5608 C 500.304 1.04277 4.16443 0
M  V30 5609 C 499.537 0.444352 5.31847 0
M  V30 5610 O 499.76 -0.748735 5.65465 0
M  V30 5611 O 498.694 1.17428 5.90334 0
M  V30 5612 H 502.52 1.54147 2.61672 0
M  V30 5613 H 500.105 0.814188 1.25265 0
M  V30 5614 H 501.987 -0.331068 4.20097 0
M  V30 5615 H 500.662 -0.849814 3.12346 0
M  V30 5616 H 499.569 1.44425 3.45098 0
M  V30 5617 H 500.902 1.882 4.54798 0
M  V30 5618 N 502.554 -1.34406 0.822964 0
M  V30 5619 C 503.464 -2.33298 0.246838 0
M  V30 5620 C 504.48 -1.62625 -0.618797 0
M  V30 5621 O 505.656 -1.94391 -0.526685 0
M  V30 5622 C 502.721 -3.41785 -0.581731 0
M  V30 5623 C 501.782 -4.28206 0.306309 0
M  V30 5624 C 501.015 -5.31512 -0.48281 0
M  V30 5625 O 501.238 -5.43973 -1.71607 0
M  V30 5626 O 500.172 -6.01749 0.134884 0
M  V30 5627 H 503.998 -2.84401 1.06534 0
M  V30 5628 H 501.583 -1.37466 0.585108 0
M  V30 5629 H 503.465 -4.08028 -1.05313 0
M  V30 5630 H 502.14 -2.92925 -1.37756 0
M  V30 5631 H 501.047 -3.64885 0.825199 0
M  V30 5632 H 502.38 -4.80507 1.06649 0
M  V30 5633 N 504.032 -0.577932 -1.46621 0
M  V30 5634 C 505.278 -0.0617793 -2.02706 0
M  V30 5635 C 505.611 1.29294 -1.44903 0
M  V30 5636 O 504.886 1.8461 -0.61232 0
M  V30 5637 C 505.169 0.00911824 -3.60099 0
M  V30 5638 C 505.022 -1.37416 -4.28295 0
M  V30 5639 C 506.341 0.712159 -4.343 0
M  V30 5640 H 503.46 -0.0239246 -0.736612 0
M  V30 5641 H 506.102 -0.744211 -1.74818 0
M  V30 5642 H 504.252 0.590292 -3.83989 0
M  V30 5643 H 505.924 -2.00013 -4.15683 0
M  V30 5644 H 504.167 -1.94319 -3.87843 0
M  V30 5645 H 504.838 -1.27707 -5.37024 0
M  V30 5646 H 507.314 0.218486 -4.15526 0
M  V30 5647 H 506.19 0.730782 -5.44014 0
M  V30 5648 H 506.451 1.77251 -4.05012 0
M  V30 5649 N 505.51 1.54411 -0.315457 0
M  V30 5650 C 506.442 2.21527 0.588067 0
M  V30 5651 C 507.455 1.21263 1.08624 0
M  V30 5652 O 508.644 1.47777 1.00121 0
M  V30 5653 C 505.744 2.85963 1.81875 0
M  V30 5654 C 504.917 4.12291 1.46063 0
M  V30 5655 C 503.976 4.60396 2.54799 0
M  V30 5656 O 503.002 5.25265 2.19283 0
M  V30 5657 N 504.204 4.33935 3.85591 0
M  V30 5658 H 506.969 2.99697 0.013414 0
M  V30 5659 H 504.53 1.61308 -0.138295 0
M  V30 5660 H 506.522 3.15071 2.53993 0
M  V30 5661 H 505.092 2.11548 2.30144 0
M  V30 5662 H 504.312 3.90036 0.571445 0
M  V30 5663 H 505.6 4.9452 1.19695 0
M  V30 5664 H 504.998 3.81996 4.17248 0
M  V30 5665 H 503.555 4.67718 4.53964 0
M  V30 5666 N 506.988 0.0434614 1.5754 0
M  V30 5667 C 508.213 -0.645358 1.97104 0
M  V30 5668 C 508.638 -1.64037 0.920521 0
M  V30 5669 O 507.996 -1.80922 -0.11708 0
M  V30 5670 C 508.044 -1.31547 3.35749 0
M  V30 5671 O 507.148 -2.43103 3.33129 0
M  V30 5672 H 506.489 -0.168403 0.64229 0
M  V30 5673 H 509.019 0.109573 2.04306 0
M  V30 5674 H 509.029 -1.66895 3.72304 0
M  V30 5675 H 507.704 -0.586205 4.11748 0
M  V30 5676 H 506.281 -2.0976 3.0831 0
M  V30 5677 N 508.466 -1.55915 -0.229846 0
M  V30 5678 C 509.691 -1.8296 -0.976743 0
M  V30 5679 C 510.116 -0.622735 -1.77493 0
M  V30 5680 O 509.474 0.428431 -1.76165 0
M  V30 5681 C 509.522 -3.07916 -1.8767 0
M  V30 5682 O 508.626 -2.86028 -2.97088 0
M  V30 5683 H 507.967 -0.603453 -0.277021 0
M  V30 5684 H 510.497 -2.0312 -0.245669 0
M  V30 5685 H 510.507 -3.37802 -2.2881 0
M  V30 5686 H 509.182 -3.95389 -1.28996 0
M  V30 5687 H 507.759 -2.67355 -2.59954 0
M  V30 5688 N 509.944 0.496216 -1.49584 0
M  V30 5689 C 511.191 1.25003 -1.59312 0
M  V30 5690 C 511.519 1.92445 -0.28198 0
M  V30 5691 O 510.774 1.81557 0.730452 0
M  V30 5692 C 511.073 2.3359 -2.705 0
M  V30 5693 C 510.739 1.83574 -4.11839 0
M  V30 5694 C 509.401 1.69653 -4.50302 0
M  V30 5695 C 511.753 1.46193 -5.00277 0
M  V30 5696 C 509.081 1.16736 -5.74969 0
M  V30 5697 C 511.433 0.947265 -6.25468 0
M  V30 5698 C 510.097 0.794485 -6.62755 0
M  V30 5699 H 509.367 0.45742 -0.582965 0
M  V30 5700 H 512.014 0.549996 -1.83432 0
M  V30 5701 H 510.319 3.09401 -2.40371 0
M  V30 5702 H 512.016 2.91627 -2.75235 0
M  V30 5703 H 508.606 1.9537 -3.81482 0
M  V30 5704 H 512.79 1.55793 -4.71214 0
M  V30 5705 H 508.046 1.03623 -6.02555 0
M  V30 5706 H 512.22 0.648846 -6.93371 0
M  V30 5707 H 509.847 0.382271 -7.59238 0
M  V30 5708 N 511.423 1.38739 0.74761 0
M  V30 5709 C 512.333 1.38696 1.89211 0
M  V30 5710 C 513.349 0.283303 1.71678 0
M  V30 5711 O 514.525 0.522713 1.94498 0
M  V30 5712 C 511.59 1.21662 3.24653 0
M  V30 5713 C 510.651 2.41886 3.54669 0
M  V30 5714 C 509.884 2.25655 4.83648 0
M  V30 5715 O 510.107 1.25339 5.56459 0
M  V30 5716 O 509.041 3.14372 5.13277 0
M  V30 5717 H 512.867 2.35143 1.92202 0
M  V30 5718 H 510.452 1.19721 0.893708 0
M  V30 5719 H 512.334 1.14246 4.05618 0
M  V30 5720 H 511.009 0.283024 3.2246 0
M  V30 5721 H 509.916 2.54877 2.73841 0
M  V30 5722 H 511.249 3.33895 3.61628 0
M  V30 5723 N 512.901 -0.976442 1.23707 0
M  V30 5724 C 514.126 -1.75875 1.09922 0
M  V30 5725 C 514.551 -1.84911 -0.34489 0
M  V30 5726 O 513.909 -1.31363 -1.24954 0
M  V30 5727 C 513.957 -3.16179 1.73388 0
M  V30 5728 O 513.061 -4.00124 0.99871 0
M  V30 5729 H 512.402 -0.540954 0.385052 0
M  V30 5730 H 514.932 -1.22546 1.6384 0
M  V30 5731 H 514.942 -3.66741 1.78788 0
M  V30 5732 H 513.617 -3.08917 2.78466 0
M  V30 5733 H 512.194 -3.58624 1.02193 0
M  V30 5734 N 514.379 -1.04941 -1.1758 0
M  V30 5735 C 515.625 -0.759112 -1.88057 0
M  V30 5736 C 515.958 0.711918 -1.8068 0
M  V30 5737 O 515.233 1.52035 -1.21308 0
M  V30 5738 C 515.516 -1.237 -3.38187 0
M  V30 5739 C 515.369 -2.77078 -3.54327 0
M  V30 5740 C 516.688 -0.834014 -4.32125 0
M  V30 5741 H 513.807 -0.277237 -0.682868 0
M  V30 5742 H 516.449 -1.30296 -1.38286 0
M  V30 5743 H 514.599 -0.774337 -3.80705 0
M  V30 5744 H 516.271 -3.31449 -3.20842 0
M  V30 5745 H 514.514 -3.16477 -2.96689 0
M  V30 5746 H 515.185 -3.05577 -4.59703 0
M  V30 5747 H 517.661 -1.23228 -3.97434 0
M  V30 5748 H 516.537 -1.19603 -5.35711 0
M  V30 5749 H 516.798 0.262195 -4.41322 0
M  V30 5750 N 515.857 1.33968 -0.830081 0
M  V30 5751 C 516.787 2.31911 -0.271911 0
M  V30 5752 C 517.768 1.58571 0.61556 0
M  V30 5753 O 518.953 1.86514 0.540946 0
M  V30 5754 C 516.083 3.42737 0.561146 0
M  V30 5755 C 515.037 4.27383 -0.229789 0
M  V30 5756 C 514.363 5.29742 0.726463 0
M  V30 5757 C 515.663 5.02 -1.44197 0
M  V30 5758 H 517.357 2.78844 -1.09025 0
M  V30 5759 H 514.903 1.34061 -0.52571 0
M  V30 5760 H 516.856 4.10276 0.961867 0
M  V30 5761 H 515.58 2.94471 1.41261 0
M  V30 5762 H 514.239 3.61456 -0.611964 0
M  V30 5763 H 513.887 4.77736 1.57408 0
M  V30 5764 H 513.587 5.87255 0.20142 0
M  V30 5765 H 515.111 6.00149 1.12489 0
M  V30 5766 H 516.525 5.62355 -1.11488 0
M  V30 5767 H 514.922 5.69122 -1.90317 0
M  V30 5768 H 515.992 4.31281 -2.2164 0
M  V30 5769 N 517.335 0.585699 1.46312 0
M  V30 5770 C 518.298 -0.135673 2.28798 0
M  V30 5771 C 519.298 -0.815988 1.38558 0
M  V30 5772 O 520.488 -0.667487 1.60904 0
M  V30 5773 C 517.62 -1.20163 3.1902 0
M  V30 5774 H 518.813 0.589257 2.94054 0
M  V30 5775 H 516.366 0.343794 1.52472 0
M  V30 5776 H 517.101 -1.95804 2.58517 0
M  V30 5777 H 516.886 -0.718282 3.85465 0
M  V30 5778 H 518.376 -1.70749 3.81096 0
M  V30 5779 N 518.813 -1.54241 0.323641 0
M  V30 5780 C 520.038 -2.05452 -0.283605 0
M  V30 5781 C 520.463 -1.19823 -1.44997 0
M  V30 5782 O 519.821 -0.207358 -1.8011 0
M  V30 5783 C 519.869 -3.53823 -0.695795 0
M  V30 5784 O 518.973 -3.71134 -1.79815 0
M  V30 5785 H 518.314 -0.662024 -0.0511917 0
M  V30 5786 H 520.844 -1.99079 0.472073 0
M  V30 5787 H 520.854 -3.96094 -0.978434 0
M  V30 5788 H 519.529 -4.15602 0.157287 0
M  V30 5789 H 518.106 -3.40768 -1.51431 0
M  V30 5790 N 520.291 -0.0518155 -1.57515 0
M  V30 5791 C 521.238 0.922352 -2.11569 0
M  V30 5792 C 522.208 1.30842 -1.02321 0
M  V30 5793 O 523.393 1.39778 -1.29872 0
M  V30 5794 C 520.533 2.19167 -2.6657 0
M  V30 5795 C 519.646 1.86003 -3.89906 0
M  V30 5796 C 518.781 3.07398 -4.33221 0
M  V30 5797 C 517.82 2.70158 -5.49255 0
M  V30 5798 N 516.957 3.84248 -5.8762 0
M  V30 5799 H 521.797 0.454506 -2.94514 0
M  V30 5800 H 519.334 0.212718 -1.45554 0
M  V30 5801 H 521.292 2.93443 -2.96559 0
M  V30 5802 H 519.922 2.63528 -1.86421 0
M  V30 5803 H 518.974 1.01874 -3.66505 0
M  V30 5804 H 520.286 1.54592 -4.74239 0
M  V30 5805 H 519.44 3.89972 -4.64765 0
M  V30 5806 H 518.179 3.41988 -3.477 0
M  V30 5807 H 517.184 1.86001 -5.17382 0
M  V30 5808 H 518.409 2.36759 -6.36492 0
M  V30 5809 H 516.355 4.18638 -5.05053 0
M  V30 5810 H 516.272 3.56538 -6.66646 0
M  V30 5811 H 517.54 4.6746 -6.2378 0
M  V30 5812 N 521.769 1.56035 0.221574 0
M  V30 5813 C 522.994 1.83476 0.967026 0
M  V30 5814 C 523.419 0.632139 1.7716 0
M  V30 5815 O 522.777 -0.419082 1.7639 0
M  V30 5816 C 522.825 3.08907 1.86034 0
M  V30 5817 O 521.929 2.876 2.95567 0
M  V30 5818 H 521.27 0.604913 0.273817 0
M  V30 5819 H 523.8 2.03247 0.234893 0
M  V30 5820 H 523.81 3.3901 2.27016 0
M  V30 5821 H 522.485 3.96068 1.26898 0
M  V30 5822 H 521.062 2.6873 2.58532 0
M  V30 5823 N 523.247 -0.488276 1.49845 0
M  V30 5824 C 524.524 -1.24959 1.50481 0
M  V30 5825 C 524.904 -2.09735 0.239698 0
M  V30 5826 O 524.252 -2.14865 -0.777524 0
M  V30 5827 C 524.462 -2.0954 2.79095 0
M  V30 5828 C 525.81 -2.68305 3.29086 0
M  V30 5829 O 526.834 -2.19797 2.80299 0
M  V30 5830 O 525.693 -3.56643 4.14087 0
M  V30 5831 H 522.787 -0.566133 0.602845 0
M  V30 5832 H 525.333 -0.501504 1.6212 0
M  V30 5833 H 524.105 -1.46958 3.62656 0
M  V30 5834 H 523.728 -2.91517 2.70377 0
M  V30 5835 N 524.725 -1.39134 -0.740242 0
M  V30 5836 C 525.672 -1.37434 -1.8542 0
M  V30 5837 C 526.642 -0.234822 -1.64432 0
M  V30 5838 O 527.827 -0.429125 -1.85912 0
M  V30 5839 C 524.967 -1.21844 -3.22875 0
M  V30 5840 C 524.08 -2.45296 -3.55603 0
M  V30 5841 C 523.215 -2.22334 -4.82432 0
M  V30 5842 C 522.254 -3.41488 -5.07988 0
M  V30 5843 N 521.391 -3.17877 -6.26018 0
M  V30 5844 H 526.231 -2.3266 -1.86207 0
M  V30 5845 H 523.768 -1.15578 -0.909946 0
M  V30 5846 H 525.726 -1.10818 -4.02213 0
M  V30 5847 H 524.356 -0.3025 -3.21379 0
M  V30 5848 H 523.408 -2.66945 -2.71006 0
M  V30 5849 H 524.72 -3.34063 -3.7041 0
M  V30 5850 H 523.874 -2.0852 -5.69741 0
M  V30 5851 H 522.613 -1.30954 -4.6979 0
M  V30 5852 H 521.618 -3.55807 -4.19144 0
M  V30 5853 H 522.843 -4.33763 -5.22519 0
M  V30 5854 H 520.789 -2.29156 -6.14673 0
M  V30 5855 H 520.706 -4.00198 -6.41387 0
M  V30 5856 H 521.974 -3.07746 -7.16179 0
M  V30 5857 N 526.204 0.969867 -1.24223 0
M  V30 5858 C 527.429 1.75289 -1.10853 0
M  V30 5859 C 527.854 1.85091 0.335079 0
M  V30 5860 O 527.212 1.32024 1.24255 0
M  V30 5861 C 527.26 3.15255 -1.75062 0
M  V30 5862 O 526.364 3.99589 -1.01992 0
M  V30 5863 H 525.705 0.538904 -0.387915 0
M  V30 5864 H 528.235 1.21675 -1.64488 0
M  V30 5865 H 528.245 3.65787 -1.80731 0
M  V30 5866 H 526.92 3.07436 -2.801 0
M  V30 5867 H 525.497 3.58077 -1.04094 0
M  V30 5868 N 527.682 1.05563 1.17022 0
M  V30 5869 C 528.592 0.670758 2.24807 0
M  V30 5870 C 529.608 -0.309865 1.71219 0
M  V30 5871 O 530.784 -0.161025 2.00755 0
M  V30 5872 C 527.849 0.055337 3.46656 0
M  V30 5873 C 526.91 1.08688 4.15314 0
M  V30 5874 C 526.143 0.500736 5.31346 0
M  V30 5875 O 526.366 -0.688718 5.66227 0
M  V30 5876 O 525.3 1.23683 5.89055 0
M  V30 5877 H 529.126 1.56914 2.60023 0
M  V30 5878 H 526.711 0.827428 1.24395 0
M  V30 5879 H 528.593 -0.286492 4.20425 0
M  V30 5880 H 527.268 -0.816638 3.13229 0
M  V30 5881 H 526.175 1.48077 3.43546 0
M  V30 5882 H 527.508 1.93014 4.52777 0
M  V30 5883 N 529.16 -1.33526 0.837174 0
M  V30 5884 C 530.409 -1.97098 0.428387 0
M  V30 5885 C 530.722 -1.67062 -1.01734 0
M  V30 5886 O 531.928 -2.24235 -1.53072 0
M  V30 5887 C 530.384 -3.52725 0.715075 0
M  V30 5888 C 529.992 -3.9164 2.17537 0
M  V30 5889 C 531.736 -4.22857 0.373154 0
M  V30 5890 C 529.643 -5.40237 2.40619 0
M  V30 5891 H 528.573 -0.737589 0.156455 0
M  V30 5892 H 531.224 -1.52169 1.02552 0
M  V30 5893 H 529.606 -3.95971 0.0475904 0
M  V30 5894 H 530.78 -3.59456 2.88319 0
M  V30 5895 H 529.095 -3.34485 2.4801 0
M  V30 5896 H 531.692 -5.32133 0.523264 0
M  V30 5897 H 532.035 -4.10647 -0.683708 0
M  V30 5898 H 532.568 -3.85135 0.995801 0
M  V30 5899 H 529.307 -5.57449 3.44864 0
M  V30 5900 H 528.827 -5.73887 1.74396 0
M  V30 5901 H 530.506 -6.07102 2.23688 0
M  V30 5902 N 530.638 -0.59345 -1.46 0
M  V30 5903 C 531.885 -0.0831523 -2.02329 0
M  V30 5904 C 532.213 1.28093 -1.46364 0
M  V30 5905 O 531.468 1.85526 -0.622793 0
M  V30 5906 C 531.767 0.021178 -3.57394 0
M  V30 5907 C 531.433 -1.27671 -4.32448 0
M  V30 5908 C 530.095 -1.63227 -4.5267 0
M  V30 5909 C 532.447 -2.13511 -4.7546 0
M  V30 5910 C 529.775 -2.84401 -5.1316 0
M  V30 5911 C 532.127 -3.33922 -5.37289 0
M  V30 5912 C 530.791 -3.69747 -5.55737 0
M  V30 5913 H 530.061 -0.0304276 -0.740375 0
M  V30 5914 H 532.708 -0.772239 -1.75239 0
M  V30 5915 H 531.013 0.793454 -3.83682 0
M  V30 5916 H 532.71 0.431942 -3.98667 0
M  V30 5917 H 529.3 -0.989937 -4.17011 0
M  V30 5918 H 533.484 -1.87344 -4.59582 0
M  V30 5919 H 528.74 -3.12282 -5.25633 0
M  V30 5920 H 532.914 -4.00698 -5.69574 0
M  V30 5921 H 530.541 -4.6373 -6.02377 0
M  V30 5922 N 532.116 1.54067 -0.331816 0
M  V30 5923 C 533.341 2.05599 0.272705 0
M  V30 5924 C 533.766 1.2059 1.44359 0
M  V30 5925 O 533.124 0.216907 1.79998 0
M  V30 5926 C 533.172 3.54188 0.677021 0
M  V30 5927 O 532.276 3.72082 1.77844 0
M  V30 5928 H 531.617 0.662286 0.0476801 0
M  V30 5929 H 534.147 1.98826 -0.482624 0
M  V30 5930 H 534.157 3.96608 0.957415 0
M  V30 5931 H 532.832 4.15513 -0.179325 0
M  V30 5932 H 531.409 3.41566 1.49622 0
M  V30 5933 N 533.594 0.0601682 1.57485 0
M  V30 5934 C 534.819 -0.624416 1.97777 0
M  V30 5935 C 535.244 -1.63051 0.937867 0
M  V30 5936 O 534.602 -1.81036 -0.0978845 0
M  V30 5937 C 534.65 -1.27979 3.37126 0
M  V30 5938 O 533.754 -2.39556 3.35688 0
M  V30 5939 H 533.095 -0.161581 0.64404 0
M  V30 5940 H 535.625 0.131237 2.04179 0
M  V30 5941 H 535.635 -1.62937 3.74053 0
M  V30 5942 H 534.31 -0.542501 4.12347 0
M  V30 5943 H 532.887 -2.06478 3.10517 0
M  V30 5944 N 535.072 -1.5615 -0.213296 0
M  V30 5945 C 536.002 -1.96109 -1.26742 0
M  V30 5946 C 536.983 -0.830448 -1.48451 0
M  V30 5947 O 538.168 -1.09339 -1.60495 0
M  V30 5948 C 535.298 -2.28492 -2.61551 0
M  V30 5949 C 534.252 -3.44124 -2.54485 0
M  V30 5950 C 533.578 -3.62134 -3.93399 0
M  V30 5951 C 534.878 -4.78855 -2.08556 0
M  V30 5952 H 536.572 -2.84412 -0.935434 0
M  V30 5953 H 534.118 -1.36836 -0.44854 0
M  V30 5954 H 536.071 -2.55039 -3.3546 0
M  V30 5955 H 534.795 -1.37052 -2.96453 0
M  V30 5956 H 533.454 -3.17639 -1.83033 0
M  V30 5957 H 533.102 -2.68055 -4.25623 0
M  V30 5958 H 532.802 -4.39913 -3.89551 0
M  V30 5959 H 534.326 -3.91038 -4.68958 0
M  V30 5960 H 535.74 -5.04552 -2.72213 0
M  V30 5961 H 534.137 -5.59975 -2.1575 0
M  V30 5962 H 535.207 -4.73657 -1.03811 0
M  V30 5963 N 536.55 0.480323 -1.50102 0
M  V30 5964 C 537.798 1.23063 -1.60312 0
M  V30 5965 C 538.119 1.92659 -0.301226 0
M  V30 5966 O 537.389 1.83691 0.680753 0
M  V30 5967 H 535.969 0.457231 -0.590719 0
M  V30 5968 H 538.631 0.554893 -1.86834 0
M  V30 5969 H 537.727 1.9835 -2.40964 0
M  V30 5970 N 538.028 1.39524 0.732853 0
M  V30 5971 C 539.305 1.27373 1.48444 0
M  V30 5972 C 539.685 -0.115725 2.10783 0
M  V30 5973 O 539.033 -1.12713 1.98766 0
M  V30 5974 C 539.243 2.39966 2.53412 0
M  V30 5975 C 540.591 2.79384 3.19733 0
M  V30 5976 O 541.615 2.39431 2.63725 0
M  V30 5977 O 540.474 3.48353 4.21085 0
M  V30 5978 H 537.568 0.499272 0.659285 0
M  V30 5979 H 540.114 1.51403 0.766496 0
M  V30 5980 H 538.886 3.32845 2.05742 0
M  V30 5981 H 538.509 2.17612 3.32762 0
M  V30 5982 N 539.506 -0.963266 1.24736 0
M  V30 5983 C 540.439 -2.05758 0.986852 0
M  V30 5984 C 541.417 -1.62398 -0.0809272 0
M  V30 5985 O 542.601 -1.88414 0.0569347 0
M  V30 5986 C 539.728 -3.35135 0.490095 0
M  V30 5987 C 538.774 -3.97451 1.54709 0
M  V30 5988 S 539.607 -4.34519 3.12976 0
M  V30 5989 C 540.763 -5.67026 2.65014 0
M  V30 5990 H 540.996 -2.27539 1.91346 0
M  V30 5991 H 538.529 -1.10176 1.08169 0
M  V30 5992 H 540.487 -4.09962 0.21012 0
M  V30 5993 H 539.148 -3.11335 -0.415873 0
M  V30 5994 H 538.341 -4.90704 1.15003 0
M  V30 5995 H 537.943 -3.29071 1.77731 0
M  V30 5996 H 540.235 -6.44748 2.08102 0
M  V30 5997 H 541.178 -6.11594 3.56873 0
M  V30 5998 H 541.586 -5.25847 2.05294 0
M  V30 5999 N 540.985 -1.06182 -1.16461 0
M  V30 6000 C 541.895 -0.682671 -2.24448 0
M  V30 6001 C 542.911 0.30078 -1.71381 0
M  V30 6002 O 544.087 0.150376 -2.00838 0
M  V30 6003 C 541.152 -0.0737202 -3.46622 0
M  V30 6004 C 540.213 -1.10889 -4.14731 0
M  V30 6005 C 539.446 -0.528908 -5.31073 0
M  V30 6006 O 539.669 0.65868 -5.66584 0
M  V30 6007 O 538.603 -1.26805 -5.88391 0
M  V30 6008 H 542.429 -1.58291 -2.59187 0
M  V30 6009 H 540.014 -0.834013 -1.23954 0
M  V30 6010 H 541.896 0.264192 -4.20571 0
M  V30 6011 H 540.571 0.800015 -3.13658 0
M  V30 6012 H 539.478 -1.49896 -3.42756 0
M  V30 6013 H 540.811 -1.95412 -4.51747 0
M  V30 6014 N 542.463 1.3308 -0.844243 0
M  V30 6015 C 543.426 2.27403 -0.286485 0
M  V30 6016 C 544.426 1.51179 0.547872 0
M  V30 6017 O 545.616 1.70421 0.360886 0
M  V30 6018 C 542.748 3.35653 0.595813 0
M  V30 6019 H 543.941 2.78248 -1.11885 0
M  V30 6020 H 541.494 1.43574 -0.617749 0
M  V30 6021 H 542.229 2.90058 1.4504 0
M  V30 6022 H 542.014 3.921 -0.00125994 0
M  V30 6023 H 543.504 4.05958 0.979168 0
M  V30 6024 N 543.941 0.601185 1.45683 0
M  V30 6025 C 545.166 0.0982245 2.07167 0
M  V30 6026 C 545.591 -1.20546 1.44396 0
M  V30 6027 O 544.949 -1.73247 0.534347 0
M  V30 6028 C 544.997 -0.0346976 3.60583 0
M  V30 6029 O 544.101 -1.08657 3.97828 0
M  V30 6030 H 543.442 0.0711618 0.660176 0
M  V30 6031 H 545.972 0.829376 1.87036 0
M  V30 6032 H 545.982 -0.234969 4.07323 0
M  V30 6033 H 544.657 0.917265 4.05659 0
M  V30 6034 H 543.234 -0.863275 3.6277 0
M  V30 6035 N 545.419 -1.53889 0.339982 0
M  V30 6036 C 546.83 -1.86139 -0.144671 0
M  V30 6037 C 547.181 -1.2613 -1.50285 0
M  V30 6038 O 546.306 -0.573515 -2.08662 0
M  V30 6039 C 546.901 -3.37728 -0.269285 0
M  V30 6040 C 545.46 -3.69868 -0.698168 0
M  V30 6041 C 544.607 -2.76777 0.170249 0
M  V30 6042 H 547.558 -1.48503 0.559704 0
M  V30 6043 H 547.579 -3.64331 -1.0974 0
M  V30 6044 H 547.091 -3.81375 0.719366 0
M  V30 6045 H 545.192 -3.31764 -1.69597 0
M  V30 6046 H 545.305 -4.76582 -0.490533 0
M  V30 6047 H 543.669 -2.52188 -0.356844 0
M  V30 6048 H 544.452 -3.23253 1.15597 0
M  V30 6049 N 546.897 -0.0685191 -1.57451 0
M  V30 6050 C 547.827 0.89747 -2.15564 0
M  V30 6051 C 548.808 1.31266 -1.08181 0
M  V30 6052 O 549.993 1.38429 -1.36202 0
M  V30 6053 C 547.123 2.16623 -2.71463 0
M  V30 6054 C 546.077 1.89054 -3.83982 0
M  V30 6055 C 545.403 3.22532 -4.26471 0
M  V30 6056 C 546.703 1.1984 -5.08366 0
M  V30 6057 H 548.397 0.413373 -2.96533 0
M  V30 6058 H 545.943 0.197391 -1.42641 0
M  V30 6059 H 547.896 2.84614 -3.10761 0
M  V30 6060 H 546.62 2.67269 -1.8771 0
M  V30 6061 H 545.279 1.23469 -3.45183 0
M  V30 6062 H 544.927 3.71013 -3.39644 0
M  V30 6063 H 544.627 3.04879 -5.02317 0
M  V30 6064 H 546.151 3.91727 -4.68383 0
M  V30 6065 H 547.565 1.77896 -5.45001 0
M  V30 6066 H 545.962 1.12456 -5.89469 0
M  V30 6067 H 547.032 0.176996 -4.84577 0
M  V30 6068 N 548.375 1.56261 0.205012 0
M  V30 6069 C 549.285 1.96944 1.27476 0
M  V30 6070 C 550.301 0.875636 1.50362 0
M  V30 6071 O 551.477 1.18058 1.6317 0
M  V30 6072 C 548.542 2.29219 2.60115 0
M  V30 6073 C 547.603 3.52255 2.45387 0
M  V30 6074 C 546.836 3.8298 3.71701 0
M  V30 6075 O 547.059 3.15138 4.75441 0
M  V30 6076 O 545.993 4.76435 3.67823 0
M  V30 6077 H 549.819 2.88144 0.959527 0
M  V30 6078 H 547.404 1.43686 0.409217 0
M  V30 6079 H 549.286 2.51098 3.3842 0
M  V30 6080 H 547.961 1.4119 2.91285 0
M  V30 6081 H 546.868 3.35635 1.65227 0
M  V30 6082 H 548.201 4.40719 2.19152 0
M  V30 6083 N 549.853 -0.472356 1.50355 0
M  V30 6084 C 551.099 -1.22634 1.6152 0
M  V30 6085 C 551.432 -1.91645 0.313995 0
M  V30 6086 O 550.707 -1.82059 -0.684446 0
M  V30 6087 C 550.99 -2.27099 2.7946 0
M  V30 6088 C 550.843 -1.62402 4.19459 0
M  V30 6089 C 552.162 -3.28421 2.92964 0
M  V30 6090 H 549.281 -0.444494 0.587873 0
M  V30 6091 H 551.923 -0.520321 1.82737 0
M  V30 6092 H 550.073 -2.87314 2.61501 0
M  V30 6093 H 551.745 -1.05793 4.49005 0
M  V30 6094 H 549.988 -0.927184 4.23776 0
M  V30 6095 H 550.659 -2.38309 4.97909 0
M  V30 6096 H 553.135 -2.78227 3.09401 0
M  V30 6097 H 552.011 -3.98845 3.77113 0
M  V30 6098 H 552.272 -3.92467 2.03525 0
M  V30 6099 N 551.331 -1.39911 -0.725443 0
M  V30 6100 C 552.278 -1.39393 -1.83952 0
M  V30 6101 C 553.248 -0.252249 -1.64173 0
M  V30 6102 O 554.433 -0.44882 -1.85446 0
M  V30 6103 C 551.573 -1.25262 -3.21564 0
M  V30 6104 C 550.686 -2.49054 -3.52982 0
M  V30 6105 C 549.821 -2.27439 -4.80047 0
M  V30 6106 C 548.86 -3.46857 -5.04338 0
M  V30 6107 N 547.997 -3.24499 -6.22611 0
M  V30 6108 H 552.837 -2.34622 -1.83729 0
M  V30 6109 H 550.374 -1.16537 -0.897636 0
M  V30 6110 H 552.332 -1.15077 -4.01015 0
M  V30 6111 H 550.962 -0.33657 -3.21041 0
M  V30 6112 H 550.014 -2.69805 -2.6816 0
M  V30 6113 H 551.326 -3.37973 -3.66846 0
M  V30 6114 H 550.48 -2.14551 -5.67497 0
M  V30 6115 H 549.219 -1.35929 -4.68374 0
M  V30 6116 H 548.224 -3.60232 -4.15346 0
M  V30 6117 H 549.449 -4.3928 -5.17889 0
M  V30 6118 H 547.395 -2.35663 -6.12208 0
M  V30 6119 H 547.312 -4.06978 -6.37106 0
M  V30 6120 H 548.58 -3.15325 -7.12875 0
M  V30 6121 N 552.809 0.956637 -1.25245 0
M  V30 6122 C 554.058 1.69537 -1.0927 0
M  V30 6123 C 554.371 1.92136 0.366503 0
M  V30 6124 O 555.577 2.63687 0.64665 0
M  V30 6125 C 554.033 3.05211 -1.9072 0
M  V30 6126 C 553.641 2.90416 -3.41119 0
M  V30 6127 C 555.385 3.82882 -1.83308 0
M  V30 6128 C 553.292 4.21468 -4.14872 0
M  V30 6129 H 552.222 0.635804 -0.405302 0
M  V30 6130 H 554.873 1.06513 -1.49423 0
M  V30 6131 H 553.255 3.69128 -1.43389 0
M  V30 6132 H 554.429 2.35444 -3.9611 0
M  V30 6133 H 552.744 2.26203 -3.49602 0
M  V30 6134 H 555.341 4.79944 -2.35706 0
M  V30 6135 H 555.684 4.0853 -0.800572 0
M  V30 6136 H 556.217 3.25711 -2.28379 0
M  V30 6137 H 552.956 4.01009 -5.18529 0
M  V30 6138 H 552.476 4.76213 -3.64665 0
M  V30 6139 H 554.155 4.90022 -4.22478 0
M  V30 6140 N 554.287 1.06798 1.15896 0
M  V30 6141 C 555.25 0.687328 2.18651 0
M  V30 6142 C 556.25 -0.269559 1.58524 0
M  V30 6143 O 557.44 -0.0512627 1.74125 0
M  V30 6144 C 554.572 0.0121642 3.40898 0
M  V30 6145 H 555.765 1.59701 2.53842 0
M  V30 6146 H 553.318 0.863828 1.3026 0
M  V30 6147 H 554.053 -0.910025 3.1127 0
M  V30 6148 H 553.838 0.700309 3.85795 0
M  V30 6149 H 555.328 -0.239703 4.16911 0
M  V30 6150 N 555.766 -1.3263 0.851289 0
M  V30 6151 C 557.013 -1.97368 0.453023 0
M  V30 6152 C 557.341 -1.67384 -0.990596 0
M  V30 6153 O 556.596 -0.952665 -1.70947 0
M  V30 6154 C 556.895 -3.51713 0.635015 0
M  V30 6155 C 556.561 -4.01676 2.04859 0
M  V30 6156 C 555.223 -4.15031 2.43522 0
M  V30 6157 C 557.575 -4.28206 2.97135 0
M  V30 6158 C 554.903 -4.52257 3.73739 0
M  V30 6159 C 557.255 -4.66889 4.26846 0
M  V30 6160 C 555.919 -4.7845 4.65448 0
M  V30 6161 H 555.189 -0.722219 0.165773 0
M  V30 6162 H 557.836 -1.58092 1.0807 0
M  V30 6163 H 556.141 -3.91726 -0.0759081 0
M  V30 6164 H 557.838 -3.99823 0.306964 0
M  V30 6165 H 554.428 -3.91764 1.73836 0
M  V30 6166 H 558.612 -4.174 2.68498 0
M  V30 6167 H 553.868 -4.59402 4.03435 0
M  V30 6168 H 558.042 -4.86372 4.98413 0
M  V30 6169 H 555.669 -5.07052 5.66395 0
M  V30 6170 N 557.244 -0.608902 -1.45362 0
M  V30 6171 C 558.192 0.121639 -2.32282 0
M  V30 6172 C 559.186 0.858301 -1.46046 0
M  V30 6173 O 560.392 0.773718 -1.62523 0
M  V30 6174 H 556.767 0.058086 -0.749753 0
M  V30 6175 H 558.738 -0.629866 -2.91677 0
M  V30 6176 C 557.487 1.1047 -3.29684 0
M  V30 6177 H 556.81 0.547278 -3.96036 0
M  V30 6178 H 558.25 1.58576 -3.9323 0
M  V30 6179 C 556.709 2.17891 -2.56954 0
M  V30 6180 O 557.239 3.25652 -2.35189 0
M  V30 6181 N 555.445 1.93211 -2.17066 0
M  V30 6182 H 554.992 1.05584 -2.34967 0
M  V30 6183 H 554.95 2.6529 -1.68727 0
M  V30 6184 N 558.722 1.53707 -0.348139 0
M  V30 6185 C 559.947 2.05877 0.250883 0
M  V30 6186 C 560.372 1.22115 1.43072 0
M  V30 6187 O 559.73 0.235986 1.79758 0
M  V30 6188 C 559.778 3.54886 0.639416 0
M  V30 6189 O 558.882 3.73948 1.73888 0
M  V30 6190 H 558.223 0.662754 0.040653 0
M  V30 6191 H 560.753 1.98303 -0.503685 0
M  V30 6192 H 560.763 3.97601 0.915295 0
M  V30 6193 H 559.438 4.153 -0.223386 0
M  V30 6194 H 558.015 3.43134 1.45991 0
M  V30 6195 N 560.2 0.0768682 1.57412 0
M  V30 6196 C 561.147 -0.888577 2.13009 0
M  V30 6197 C 562.117 -1.29198 1.0439 0
M  V30 6198 O 563.302 -1.37694 1.3208 0
M  V30 6199 C 560.442 -2.14899 2.70023 0
M  V30 6200 C 559.555 -1.79777 3.92816 0
M  V30 6201 C 558.69 -3.00467 4.38056 0
M  V30 6202 C 557.729 -2.61385 5.53484 0
M  V30 6203 N 556.866 -3.74851 5.93659 0
M  V30 6204 H 561.706 -0.407593 2.95199 0
M  V30 6205 H 559.243 -0.189534 1.45874 0
M  V30 6206 H 561.201 -2.88688 3.0119 0
M  V30 6207 H 559.831 -2.60529 1.9059 0
M  V30 6208 H 558.883 -0.960301 3.68079 0
M  V30 6209 H 560.195 -1.47027 4.76639 0
M  V30 6210 H 559.349 -3.82529 4.7091 0
M  V30 6211 H 558.088 -3.36413 3.53097 0
M  V30 6212 H 557.093 -1.77746 5.20275 0
M  V30 6213 H 558.318 -2.26603 6.40178 0
M  V30 6214 H 556.264 -4.1055 5.11649 0
M  V30 6215 H 556.181 -3.45887 6.72234 0
M  V30 6216 H 557.449 -4.57477 6.31138 0
M  V30 6217 N 561.678 -1.56367 -0.196722 0
M  V30 6218 C 562.926 -1.80172 -0.915554 0
M  V30 6219 C 563.247 -0.649649 -1.8386 0
M  V30 6220 O 562.517 0.332111 -1.93064 0
M  V30 6221 H 561.097 -0.664592 -0.341067 0
M  V30 6222 H 563.759 -1.93844 -0.202622 0
M  V30 6223 H 562.855 -2.7327 -1.50764 0
M  V30 6224 N 563.156 0.464375 -1.50603 0
M  V30 6225 C 564.405 1.21277 -1.61167 0
M  V30 6226 C 564.718 1.92953 -0.320704 0
M  V30 6227 O 565.924 2.69778 -0.30534 0
M  V30 6228 C 564.38 2.20403 -2.84518 0
M  V30 6229 C 563.988 1.54499 -4.20516 0
M  V30 6230 C 565.732 2.95843 -3.0443 0
M  V30 6231 C 563.639 2.51951 -5.35047 0
M  V30 6232 H 562.569 0.456367 -0.600204 0
M  V30 6233 H 565.22 0.48254 -1.77042 0
M  V30 6234 H 563.602 2.96746 -2.62217 0
M  V30 6235 H 564.776 0.83899 -4.53098 0
M  V30 6236 H 563.091 0.913152 -4.06264 0
M  V30 6237 H 565.688 3.6879 -3.87167 0
M  V30 6238 H 566.031 3.55622 -2.16423 0
M  V30 6239 H 566.564 2.26611 -3.26944 0
M  V30 6240 H 563.303 1.96901 -6.25228 0
M  V30 6241 H 562.823 3.20683 -5.06875 0
M  V30 6242 H 564.502 3.13643 -5.65895 0
M  V30 6243 N 564.634 1.40294 0.718013 0
M  V30 6244 C 565.883 1.37746 1.4734 0
M  V30 6245 C 566.196 -0.0180754 1.95592 0
M  V30 6246 O 567.402 -0.166166 2.70991 0
M  V30 6247 C 565.858 2.4208 2.66318 0
M  V30 6248 C 565.466 3.87432 2.24945 0
M  V30 6249 C 567.21 2.48635 3.44065 0
M  V30 6250 C 565.117 4.83368 3.40748 0
M  V30 6251 H 564.047 0.512165 0.553356 0
M  V30 6252 H 566.698 1.66019 0.781661 0
M  V30 6253 H 565.08 2.06903 3.3765 0
M  V30 6254 H 566.254 4.3174 1.6105 0
M  V30 6255 H 564.569 3.8433 1.60249 0
M  V30 6256 H 567.166 3.17499 4.30231 0
M  V30 6257 H 567.509 1.51611 3.87711 0
M  V30 6258 H 568.042 2.82791 2.79775 0
M  V30 6259 H 564.781 5.81716 3.02136 0
M  V30 6260 H 564.301 4.43726 4.03568 0
M  V30 6261 H 565.98 5.03074 4.06848 0
M  V30 6262 N 566.112 -0.949982 1.2575 0
M  V30 6263 C 567.06 -2.06869 1.06339 0
M  V30 6264 C 568.054 -1.69399 -0.00708901 0
M  V30 6265 O 569.26 -1.79383 0.148897 0
M  V30 6266 H 565.635 -0.677197 0.326969 0
M  V30 6267 H 567.606 -2.20396 2.01167 0
M  V30 6268 C 566.355 -3.40503 0.703769 0
M  V30 6269 H 565.678 -3.69807 1.51931 0
M  V30 6270 H 567.118 -4.19623 0.607677 0
M  V30 6271 C 565.577 -3.31685 -0.5905 0
M  V30 6272 O 566.107 -3.67085 -1.63131 0
M  V30 6273 N 564.313 -2.84797 -0.577859 0
M  V30 6274 H 563.86 -2.56186 0.26951 0
M  V30 6275 H 563.818 -2.79279 -1.44398 0
M  V30 6276 N 567.59 -1.07411 -1.15328 0
M  V30 6277 C 568.522 -0.652924 -2.19703 0
M  V30 6278 C 569.535 0.294869 -1.60107 0
M  V30 6279 O 570.724 0.0840932 -1.78302 0
M  V30 6280 C 567.824 0.061434 -3.38844 0
M  V30 6281 C 566.997 -0.902696 -4.27984 0
M  V30 6282 C 566.056 -0.225521 -5.25717 0
M  V30 6283 O 565.082 -0.86676 -5.62562 0
M  V30 6284 N 566.284 1.02858 -5.71315 0
M  V30 6285 H 569.049 -1.55081 -2.56457 0
M  V30 6286 H 566.61 -0.958883 -1.30449 0
M  V30 6287 H 568.602 0.525145 -4.01278 0
M  V30 6288 H 567.172 0.861269 -3.00501 0
M  V30 6289 H 566.392 -1.54551 -3.6264 0
M  V30 6290 H 567.68 -1.55636 -4.84412 0
M  V30 6291 H 567.078 1.56948 -5.43492 0
M  V30 6292 H 565.635 1.43596 -6.35786 0
M  V30 6293 N 569.068 1.32177 -0.85831 0
M  V30 6294 C 570.316 1.96735 -0.462568 0
M  V30 6295 C 570.637 1.6824 0.985911 0
M  V30 6296 O 569.907 0.991564 1.68952 0
M  V30 6297 H 568.487 0.727849 -0.168064 0
M  V30 6298 H 571.149 1.61195 -1.09554 0
M  V30 6299 H 570.245 3.06068 -0.610647 0
M  V30 6300 N 570.547 0.616602 1.45037 0
M  V30 6301 C 571.477 -0.0840787 2.33349 0
M  V30 6302 C 572.458 -0.849641 1.4736 0
M  V30 6303 O 573.643 -0.818407 1.76113 0
M  V30 6304 C 570.773 -1.07604 3.3021 0
M  V30 6305 C 569.727 -0.423096 4.25904 0
M  V30 6306 C 569.053 -1.52394 5.12523 0
M  V30 6307 C 570.353 0.661457 5.18095 0
M  V30 6308 H 572.047 0.653333 2.92185 0
M  V30 6309 H 569.593 0.315634 1.40498 0
M  V30 6310 H 571.546 -1.57485 3.90866 0
M  V30 6311 H 570.27 -1.84416 2.69552 0
M  V30 6312 H 568.929 0.05493 3.66559 0
M  V30 6313 H 568.577 -2.28257 4.48227 0
M  V30 6314 H 568.277 -1.09251 5.77354 0
M  V30 6315 H 569.801 -2.02485 5.76049 0
M  V30 6316 H 571.215 0.246353 5.7277 0
M  V30 6317 H 569.612 1.01517 5.91451 0
M  V30 6318 H 570.682 1.53446 4.59981 0
M  V30 6319 N 572.025 -1.5352 0.356285 0
M  V30 6320 C 573.274 -2.00298 -0.237373 0
M  V30 6321 C 573.587 -1.24784 -1.50627 0
M  V30 6322 O 574.793 -1.62103 -2.17795 0
M  V30 6323 C 573.249 -3.56771 -0.473545 0
M  V30 6324 C 572.857 -4.41154 0.780183 0
M  V30 6325 C 574.601 -4.1193 -1.02537 0
M  V30 6326 C 572.508 -5.89161 0.514108 0
M  V30 6327 H 571.438 -0.748307 -0.092478 0
M  V30 6328 H 574.089 -1.77283 0.473588 0
M  V30 6329 H 572.471 -3.75902 -1.24553 0
M  V30 6330 H 573.645 -4.33797 1.55425 0
M  V30 6331 H 571.96 -3.97052 1.25455 0
M  V30 6332 H 574.557 -5.20133 -1.2396 0
M  V30 6333 H 574.9 -3.65943 -1.98473 0
M  V30 6334 H 575.433 -3.96561 -0.313775 0
M  V30 6335 H 572.172 -6.39408 1.44355 0
M  V30 6336 H 571.692 -5.9939 -0.221632 0
M  V30 6337 H 573.371 -6.46857 0.136122 0
M  V30 6338 N 573.503 -0.0852151 -1.57369 0
M  V30 6339 C 574.728 0.592872 -1.98746 0
M  V30 6340 C 575.153 1.61538 -0.963689 0
M  V30 6341 O 574.511 1.81168 0.069071 0
M  V30 6342 C 574.559 1.22599 -3.39119 0
M  V30 6343 O 573.663 2.34185 -3.39457 0
M  V30 6344 H 573.004 0.151314 -0.646529 0
M  V30 6345 H 575.534 -0.163703 -2.03944 0
M  V30 6346 H 575.544 1.56965 -3.76598 0
M  V30 6347 H 574.219 0.476831 -4.13158 0
M  V30 6348 H 572.796 2.01512 -3.13763 0
M  V30 6349 N 574.981 1.5647 0.188427 0
M  V30 6350 C 576.227 1.81281 0.909124 0
M  V30 6351 C 576.56 0.66034 1.82628 0
M  V30 6352 O 575.835 -0.338737 1.91528 0
M  V30 6353 C 576.118 3.16388 1.7196 0
M  V30 6354 C 575.971 4.42137 0.826714 0
M  V30 6355 C 577.29 3.48256 2.69083 0
M  V30 6356 H 574.409 0.659457 0.329068 0
M  V30 6357 H 577.051 1.89182 0.176156 0
M  V30 6358 H 575.201 3.09784 2.34448 0
M  V30 6359 H 576.873 4.60794 0.216025 0
M  V30 6360 H 575.116 4.33594 0.133792 0
M  V30 6361 H 575.787 5.33184 1.42893 0
M  V30 6362 H 578.263 3.55203 2.16726 0
M  V30 6363 H 577.139 4.43899 3.2287 0
M  V30 6364 H 577.4 2.72088 3.48455 0
M  V30 6365 N 576.459 -0.456382 1.50847 0
M  V30 6366 C 577.406 -1.55249 1.70782 0
M  V30 6367 C 578.376 -1.56757 0.549231 0
M  V30 6368 O 579.561 -1.74061 0.7815 0
M  V30 6369 C 576.701 -2.93118 1.82143 0
M  V30 6370 C 575.814 -3.01285 3.09598 0
M  V30 6371 C 574.949 -4.30159 3.11667 0
M  V30 6372 C 573.988 -4.32124 4.33515 0
M  V30 6373 N 573.125 -5.52492 4.3324 0
M  V30 6374 H 577.965 -1.37555 2.64353 0
M  V30 6375 H 575.502 -0.668543 1.3103 0
M  V30 6376 H 577.46 -3.73088 1.86711 0
M  V30 6377 H 576.09 -3.09413 0.919978 0
M  V30 6378 H 575.142 -2.14096 3.14431 0
M  V30 6379 H 576.454 -2.98597 3.99551 0
M  V30 6380 H 575.608 -5.18489 3.15046 0
M  V30 6381 H 574.347 -4.35477 2.1957 0
M  V30 6382 H 573.352 -3.42189 4.30333 0
M  V30 6383 H 574.577 -4.28485 5.26856 0
M  V30 6384 H 572.523 -5.58567 3.44004 0
M  V30 6385 H 572.44 -5.51605 5.16979 0
M  V30 6386 H 573.708 -6.42906 4.40786 0
M  V30 6387 N 577.937 -1.40673 -0.710563 0
M  V30 6388 C 579.214 -1.29718 -1.46398 0
M  V30 6389 C 579.594 0.082177 -2.1094 0
M  V30 6390 O 578.942 1.09536 -2.00534 0
M  V30 6391 C 579.152 -2.43967 -2.49562 0
M  V30 6392 C 580.5 -2.84436 -3.15248 0
M  V30 6393 O 581.524 -2.43597 -2.59883 0
M  V30 6394 O 580.383 -3.55008 -4.1549 0
M  V30 6395 H 577.477 -0.509697 -0.651258 0
M  V30 6396 H 580.023 -1.52603 -0.742312 0
M  V30 6397 H 578.795 -3.36076 -2.0042 0
M  V30 6398 H 578.418 -2.22879 -3.29258 0
M  V30 6399 N 579.415 0.9433 -1.26252 0
M  V30 6400 C 580.64 1.72898 -1.14547 0
M  V30 6401 C 581.065 1.85761 0.295743 0
M  V30 6402 O 580.423 1.3463 1.21427 0
M  V30 6403 C 580.471 3.11471 -1.8171 0
M  V30 6404 O 579.575 3.97336 -1.10445 0
M  V30 6405 H 578.916 0.530555 -0.399259 0
M  V30 6406 H 581.446 1.18159 -1.67032 0
M  V30 6407 H 581.456 3.61872 -1.88449 0
M  V30 6408 H 580.131 3.01425 -2.86558 0
M  V30 6409 H 578.708 3.55788 -1.11666 0
M  V30 6410 N 580.893 1.08022 1.14757 0
M  V30 6411 C 582.123 0.827646 1.89298 0
M  V30 6412 C 582.531 -0.623506 1.78631 0
M  V30 6413 O 581.874 -1.43991 1.14071 0
M  V30 6414 C 581.936 1.16553 3.40082 0
M  V30 6415 C 581.6 2.61866 3.74533 0
M  V30 6416 C 582.597 3.60116 3.74984 0
M  V30 6417 C 580.282 2.97619 4.04633 0
M  V30 6418 C 582.276 4.92151 4.05051 0
M  V30 6419 C 579.963 4.2985 4.34364 0
M  V30 6420 C 580.961 5.26926 4.34555 0
M  V30 6421 O 580.649 6.5678 4.63568 0
M  V30 6422 H 580.381 0.298396 0.606577 0
M  V30 6423 H 582.935 1.44187 1.46285 0
M  V30 6424 H 581.165 0.494296 3.83528 0
M  V30 6425 H 582.854 0.894407 3.95923 0
M  V30 6426 H 583.62 3.33837 3.51821 0
M  V30 6427 H 579.499 2.22702 4.03639 0
M  V30 6428 H 583.043 5.67915 4.05115 0
M  V30 6429 H 578.94 4.55879 4.56995 0
M  V30 6430 H 579.708 6.62035 4.81303 0
M  V30 6431 N 582.371 -1.3172 0.865308 0
M  V30 6432 C 583.611 -1.98675 0.480365 0
M  V30 6433 C 583.975 -1.66929 -0.948621 0
M  V30 6434 O 585.176 -2.27059 -1.43867 0
M  V30 6435 C 583.447 -3.49972 0.724858 0
M  V30 6436 S 585.006 -4.36598 0.439078 0
M  V30 6437 H 581.824 -0.687967 0.179506 0
M  V30 6438 H 584.426 -1.60215 1.12033 0
M  V30 6439 H 583.13 -3.70567 1.76375 0
M  V30 6440 H 582.661 -3.93335 0.0717173 0
M  V30 6441 H 584.676 -4.90792 -0.730564 0
M  V30 6442 N 583.85 -0.624285 -1.44708 0
M  V30 6443 C 585.075 -0.131171 -2.06985 0
M  V30 6444 C 585.5 1.18234 -1.46295 0
M  V30 6445 O 584.858 1.72375 -0.561842 0
M  V30 6446 C 584.906 -0.0226724 -3.60593 0
M  V30 6447 O 584.01 1.02314 -3.99507 0
M  V30 6448 H 583.351 -0.0816556 -0.65896 0
M  V30 6449 H 585.88 -0.859027 -1.85693 0
M  V30 6450 H 585.891 0.170138 -4.07645 0
M  V30 6451 H 584.566 -0.981685 -4.04148 0
M  V30 6452 H 583.143 0.805452 -3.64097 0
M  V30 6453 N 585.328 1.53329 -0.364422 0
M  V30 6454 C 586.276 2.27212 0.497737 0
M  V30 6455 C 587.27 1.30146 1.08437 0
M  V30 6456 O 588.476 1.47778 1.0277 0
M  V30 6457 H 584.851 0.730329 0.179232 0
M  V30 6458 H 586.822 2.98037 -0.147182 0
M  V30 6459 C 585.571 3.07333 1.6261 0
M  V30 6460 H 584.894 3.81866 1.184 0
M  V30 6461 H 586.334 3.62209 2.20409 0
M  V30 6462 C 584.793 2.18102 2.56775 0
M  V30 6463 O 585.323 1.79104 3.59562 0
M  V30 6464 N 583.529 1.82759 2.25937 0
M  V30 6465 H 583.076 2.14671 1.42387 0
M  V30 6466 H 583.034 1.23342 2.89196 0
M  V30 6467 N 586.806 0.0935595 1.57322 0
M  V30 6468 C 587.736 -0.863062 2.16964 0
M  V30 6469 C 588.717 -1.29528 1.10256 0
M  V30 6470 O 589.902 -1.36245 1.38387 0
M  V30 6471 C 587.032 -2.12276 2.74875 0
M  V30 6472 C 585.986 -1.82921 3.86942 0
M  V30 6473 C 585.312 -3.15707 4.31548 0
M  V30 6474 C 586.612 -1.11737 5.10208 0
M  V30 6475 H 588.306 -0.366145 2.97153 0
M  V30 6476 H 585.852 -0.174673 1.42937 0
M  V30 6477 H 587.805 -2.79634 3.1525 0
M  V30 6478 H 586.529 -2.64248 1.91938 0
M  V30 6479 H 585.188 -1.17961 3.47103 0
M  V30 6480 H 584.836 -3.65563 3.45504 0
M  V30 6481 H 584.536 -2.96849 5.07104 0
M  V30 6482 H 586.06 -3.84226 4.74555 0
M  V30 6483 H 587.474 -1.69203 5.47762 0
M  V30 6484 H 585.871 -1.03064 5.91183 0
M  V30 6485 H 586.941 -0.0998818 4.84797 0
M  V30 6486 N 588.284 -1.56567 -0.180126 0
M  V30 6487 C 589.533 -1.80685 -0.896426 0
M  V30 6488 C 589.846 -0.669335 -1.83791 0
M  V30 6489 O 591.052 -0.795209 -2.59593 0
M  V30 6490 C 589.508 -3.20132 -1.6445 0
M  V30 6491 C 589.116 -4.41727 -0.747088 0
M  V30 6492 C 590.86 -3.53549 -2.34955 0
M  V30 6493 C 588.767 -5.72195 -1.49489 0
M  V30 6494 H 587.697 -0.673758 -0.338477 0
M  V30 6495 H 590.348 -1.8289 -0.149467 0
M  V30 6496 H 588.73 -3.12218 -2.43589 0
M  V30 6497 H 589.904 -4.608 0.00671129 0
M  V30 6498 H 588.219 -4.16122 -0.152134 0
M  V30 6499 H 590.816 -4.48267 -2.91481 0
M  V30 6500 H 591.159 -2.78006 -3.09868 0
M  V30 6501 H 591.692 -3.62976 -1.62768 0
M  V30 6502 H 588.431 -6.50743 -0.788251 0
M  V30 6503 H 587.951 -5.57115 -2.22224 0
M  V30 6504 H 589.63 -6.1384 -2.04472 0
M  V30 6505 N 589.762 0.448376 -1.51087 0
M  V30 6506 C 591.008 1.20049 -1.6345 0
M  V30 6507 C 591.341 1.91121 -0.344444 0
M  V30 6508 O 590.616 1.83125 0.655396 0
M  V30 6509 C 590.899 2.22624 -2.83038 0
M  V30 6510 C 590.752 1.55708 -4.21989 0
M  V30 6511 C 592.071 3.23718 -2.98152 0
M  V30 6512 H 589.19 0.435085 -0.59487 0
M  V30 6513 H 591.832 0.491183 -1.83541 0
M  V30 6514 H 589.982 2.83117 -2.66039 0
M  V30 6515 H 591.654 0.986367 -4.50631 0
M  V30 6516 H 589.897 0.859647 -4.25197 0
M  V30 6517 H 590.568 2.30357 -5.01637 0
M  V30 6518 H 593.044 2.73269 -3.13788 0
M  V30 6519 H 591.92 3.92795 -3.83411 0
M  V30 6520 H 592.181 3.89179 -2.09743 0
M  V30 6521 N 591.24 1.41047 0.703093 0
M  V30 6522 C 592.187 1.42302 1.81711 0
M  V30 6523 C 593.157 0.278336 1.63751 0
M  V30 6524 O 594.342 0.478266 1.84709 0
M  V30 6525 C 591.482 1.30362 3.19531 0
M  V30 6526 C 590.595 2.54638 3.48975 0
M  V30 6527 C 589.73 2.35047 4.76368 0
M  V30 6528 C 588.769 3.54837 4.98756 0
M  V30 6529 N 587.906 3.34363 6.1737 0
M  V30 6530 H 592.746 2.37516 1.79973 0
M  V30 6531 H 590.283 1.1795 0.878983 0
M  V30 6532 H 592.241 1.21443 3.99134 0
M  V30 6533 H 590.871 0.387602 3.20464 0
M  V30 6534 H 589.923 2.74037 2.63833 0
M  V30 6535 H 591.235 3.43766 3.61423 0
M  V30 6536 H 590.389 2.23552 5.64012 0
M  V30 6537 H 589.128 1.43363 4.66153 0
M  V30 6538 H 588.133 3.66795 4.09563 0
M  V30 6539 H 589.358 4.47464 5.10835 0
M  V30 6540 H 587.304 2.45373 6.08382 0
M  V30 6541 H 587.221 4.17063 6.30551 0
M  V30 6542 H 588.489 3.26626 7.07768 0
M  V30 6543 N 592.718 -0.936591 1.26751 0
M  V30 6544 C 593.65 -2.03991 1.045 0
M  V30 6545 C 594.663 -1.628 0.00394261 0
M  V30 6546 O 595.852 -1.76817 0.244526 0
M  V30 6547 C 592.952 -3.34218 0.561403 0
M  V30 6548 C 592.125 -4.04151 1.67274 0
M  V30 6549 C 591.184 -5.12651 1.1864 0
M  V30 6550 O 590.21 -5.37104 1.88437 0
M  V30 6551 N 591.412 -5.80488 0.037278 0
M  V30 6552 H 594.177 -2.23644 1.99508 0
M  V30 6553 H 591.738 -1.10638 1.18198 0
M  V30 6554 H 593.73 -4.04101 0.220136 0
M  V30 6555 H 592.3 -3.11203 -0.295211 0
M  V30 6556 H 591.52 -3.28121 2.18472 0
M  V30 6557 H 592.808 -4.47626 2.41885 0
M  V30 6558 H 592.206 -5.63064 -0.545494 0
M  V30 6559 H 590.763 -6.5134 -0.244877 0
M  V30 6560 N 594.196 -1.08629 -1.14182 0
M  V30 6561 C 595.445 -0.812271 -1.84621 0
M  V30 6562 C 595.758 0.664313 -1.83973 0
M  V30 6563 O 596.964 1.05357 -2.50224 0
M  V30 6564 C 595.42 -1.4031 -3.31423 0
M  V30 6565 C 595.028 -2.91164 -3.40481 0
M  V30 6566 C 596.772 -1.20767 -4.06959 0
M  V30 6567 C 594.679 -3.43373 -4.81507 0
M  V30 6568 H 593.609 -0.30019 -0.691666 0
M  V30 6569 H 596.26 -1.30798 -1.28701 0
M  V30 6570 H 594.642 -0.835096 -3.87094 0
M  V30 6571 H 595.816 -3.5412 -2.94848 0
M  V30 6572 H 594.131 -3.09646 -2.78403 0
M  V30 6573 H 596.728 -1.57237 -5.11058 0
M  V30 6574 H 597.071 -0.147664 -4.16038 0
M  V30 6575 H 597.604 -1.74274 -3.57594 0
M  V30 6576 H 594.343 -4.48958 -4.77616 0
M  V30 6577 H 593.863 -2.85176 -5.27669 0
M  V30 6578 H 595.542 -3.40095 -5.50404 0
M  V30 6579 N 595.674 1.31259 -0.872281 0
M  V30 6580 C 596.584 2.32221 -0.333255 0
M  V30 6581 C 597.6 1.6481 0.558013 0
M  V30 6582 O 598.776 1.96212 0.454175 0
M  V30 6583 C 595.841 3.43708 0.454479 0
M  V30 6584 C 594.902 4.26774 -0.465024 0
M  V30 6585 C 594.135 5.32937 0.28521 0
M  V30 6586 O 594.358 5.49968 1.513 0
M  V30 6587 O 593.292 6.00834 -0.358126 0
M  V30 6588 H 597.118 2.80252 -1.17016 0
M  V30 6589 H 594.703 1.352 -0.635724 0
M  V30 6590 H 596.585 4.11656 0.900963 0
M  V30 6591 H 595.26 2.97836 1.26789 0
M  V30 6592 H 594.167 3.61571 -0.960055 0
M  V30 6593 H 595.5 4.76217 -1.2441 0
M  V30 6594 N 597.152 0.631951 1.44375 0
M  V30 6595 C 598.1 -0.0846693 2.32446 0
M  V30 6596 C 599.094 -0.834957 1.47393 0
M  V30 6597 O 600.3 -0.747764 1.63733 0
M  V30 6598 H 596.675 -0.0461508 0.750583 0
M  V30 6599 H 598.646 0.67619 2.90638 0
M  V30 6600 C 597.395 -1.05211 3.314 0
M  V30 6601 H 596.718 -0.484203 3.96857 0
M  V30 6602 H 598.158 -1.523 3.95703 0
M  V30 6603 C 596.617 -2.13776 2.60387 0
M  V30 6604 O 597.147 -3.21869 2.4034 0
M  V30 6605 N 595.353 -1.89733 2.20113 0
M  V30 6606 H 594.9 -1.01833 2.36618 0
M  V30 6607 H 594.858 -2.62572 1.72926 0
M  V30 6608 N 598.631 -1.53133 0.372548 0
M  V30 6609 C 600.047 -1.59585 0.02178 0
M  V30 6610 C 600.247 -1.38736 -1.46132 0
M  V30 6611 O 599.303 -1.19599 -2.22379 0
M  V30 6612 C 600.616 -2.9678 0.483959 0
M  V30 6613 C 602.164 -3.09909 0.438775 0
M  V30 6614 C 602.639 -4.49527 0.876876 0
M  V30 6615 N 604.13 -4.55663 0.832214 0
M  V30 6616 C 604.865 -5.61896 1.14281 0
M  V30 6617 N 604.361 -6.75852 1.52303 0
M  V30 6618 N 606.154 -5.51916 1.06515 0
M  V30 6619 H 598.305 -1.64936 1.33827 0
M  V30 6620 H 600.568 -0.773947 0.547458 0
M  V30 6621 H 600.274 -3.17198 1.51915 0
M  V30 6622 H 600.148 -3.7699 -0.125784 0
M  V30 6623 H 602.535 -2.89197 -0.587294 0
M  V30 6624 H 602.616 -2.31691 1.0841 0
M  V30 6625 H 602.26 -4.70979 1.90109 0
M  V30 6626 H 602.19 -5.26186 0.208727 0
M  V30 6627 H 604.681 -3.73844 0.552195 0
M  V30 6628 H 604.994 -7.52862 1.7441 0
M  V30 6629 H 603.339 -6.77226 1.56175 0
M  V30 6630 H 606.53 -4.6177 0.767235 0
M  V30 6631 H 606.703 -6.34609 1.31053 0
M  V30 6632 N 600.109 -0.101901 -1.5727 0
M  V30 6633 C 601.339 0.567568 -1.98651 0
M  V30 6634 C 601.747 1.61839 -0.980037 0
M  V30 6635 O 601.09 1.83661 0.0376564 0
M  V30 6636 C 601.152 1.26742 -3.36417 0
M  V30 6637 C 600.816 0.366561 -4.55528 0
M  V30 6638 C 601.813 -0.388022 -5.1845 0
M  V30 6639 C 599.498 0.282629 -5.01504 0
M  V30 6640 C 601.492 -1.21445 -6.25724 0
M  V30 6641 C 599.179 -0.547443 -6.08643 0
M  V30 6642 C 600.177 -1.29462 -6.70618 0
M  V30 6643 O 599.865 -2.11095 -7.7569 0
M  V30 6644 H 599.597 0.156282 -0.657687 0
M  V30 6645 H 602.151 -0.179912 -2.04611 0
M  V30 6646 H 600.381 2.06162 -3.27161 0
M  V30 6647 H 602.07 1.8321 -3.622 0
M  V30 6648 H 602.836 -0.332949 -4.83856 0
M  V30 6649 H 598.715 0.853868 -4.53023 0
M  V30 6650 H 602.259 -1.79814 -6.74027 0
M  V30 6651 H 598.156 -0.603971 -6.42668 0
M  V30 6652 H 598.924 -2.03851 -7.92709 0
M  V30 6653 N 601.587 1.56661 0.17182 0
M  V30 6654 C 602.534 1.96371 1.21273 0
M  V30 6655 C 603.504 0.82756 1.44016 0
M  V30 6656 O 604.689 1.08764 1.56764 0
M  V30 6657 C 601.829 2.32838 2.54716 0
M  V30 6658 C 600.942 3.59628 2.39356 0
M  V30 6659 C 600.077 3.85311 3.65662 0
M  V30 6660 C 599.116 5.0545 3.45234 0
M  V30 6661 N 598.253 5.27268 4.63608 0
M  V30 6662 H 603.093 2.85106 0.86709 0
M  V30 6663 H 600.63 1.41073 0.416744 0
M  V30 6664 H 602.588 2.52004 3.3249 0
M  V30 6665 H 601.218 1.47214 2.87277 0
M  V30 6666 H 600.27 3.4838 1.52761 0
M  V30 6667 H 601.582 4.4756 2.20207 0
M  V30 6668 H 600.736 4.04841 4.51872 0
M  V30 6669 H 599.475 2.95753 3.8779 0
M  V30 6670 H 598.48 4.85819 2.5741 0
M  V30 6671 H 599.705 5.96538 3.24529 0
M  V30 6672 H 597.651 4.40662 4.85956 0
M  V30 6673 H 597.568 6.09422 4.4737 0
M  V30 6674 H 598.836 5.51277 5.51103 0
M  V30 6675 N 603.065 -0.440357 1.51323 0
M  V30 6676 C 604.314 -1.18697 1.63076 0
M  V30 6677 C 604.627 -1.92418 0.35136 0
M  V30 6678 O 605.833 -2.69258 0.348221 0
M  V30 6679 C 604.289 -2.15849 2.87988 0
M  V30 6680 C 603.897 -1.47789 4.22921 0
M  V30 6681 C 605.641 -2.90962 3.09098 0
M  V30 6682 C 603.548 -2.43407 5.38987 0
M  V30 6683 H 602.478 -0.44676 0.607389 0
M  V30 6684 H 605.129 -0.454313 1.77787 0
M  V30 6685 H 603.511 -2.92537 2.66905 0
M  V30 6686 H 604.685 -0.7668 4.54375 0
M  V30 6687 H 603 -0.848404 4.07665 0
M  V30 6688 H 605.597 -3.62584 3.92985 0
M  V30 6689 H 605.94 -3.52133 2.22053 0
M  V30 6690 H 606.473 -2.21381 3.30507 0
M  V30 6691 H 603.212 -1.86929 6.28282 0
M  V30 6692 H 602.732 -3.12579 5.11913 0
M  V30 6693 H 604.411 -3.046 5.70813 0
M  V30 6694 N 604.543 -1.41418 -0.695603 0
M  V30 6695 C 605.473 -1.46035 -1.82197 0
M  V30 6696 C 606.454 -0.319025 -1.67082 0
M  V30 6697 O 607.639 -0.530462 -1.86815 0
M  V30 6698 C 604.769 -1.34179 -3.20333 0
M  V30 6699 C 603.723 -2.46123 -3.50154 0
M  V30 6700 C 603.049 -2.19332 -4.87645 0
M  V30 6701 C 604.349 -3.88463 -3.49133 0
M  V30 6702 H 606.043 -2.40303 -1.78591 0
M  V30 6703 H 603.589 -1.15663 -0.857797 0
M  V30 6704 H 605.542 -1.36021 -3.98844 0
M  V30 6705 H 604.266 -0.363952 -3.24566 0
M  V30 6706 H 602.925 -2.43563 -2.73994 0
M  V30 6707 H 602.573 -1.19891 -4.88503 0
M  V30 6708 H 602.273 -2.94344 -5.08562 0
M  V30 6709 H 603.797 -2.22889 -5.68465 0
M  V30 6710 H 605.211 -3.92738 -4.17648 0
M  V30 6711 H 603.608 -4.63158 -3.81582 0
M  V30 6712 H 604.678 -4.16617 -2.48109 0
M  V30 6713 N 606.021 0.929856 -1.27246 0
M  V30 6714 C 606.969 2.05151 -1.09616 0
M  V30 6715 C 607.963 1.69388 -0.0198617 0
M  V30 6716 O 609.169 1.79124 -0.177417 0
M  V30 6717 H 605.544 0.671909 -0.337701 0
M  V30 6718 H 607.515 2.17168 -2.04648 0
M  V30 6719 C 606.264 3.3934 -0.757851 0
M  V30 6720 H 605.587 3.67343 -1.57795 0
M  V30 6721 H 607.027 4.18603 -0.674358 0
M  V30 6722 C 605.486 3.32582 0.537658 0
M  V30 6723 O 606.016 3.69633 1.57271 0
M  V30 6724 N 604.222 2.8568 0.532478 0
M  V30 6725 H 603.769 2.55725 -0.310233 0
M  V30 6726 H 603.727 2.81541 1.39936 0
M  V30 6727 N 607.499 1.09233 1.13605 0
M  V30 6728 C 608.447 0.724572 2.21027 0
M  V30 6729 C 609.441 -0.273595 1.67176 0
M  V30 6730 O 610.647 -0.135266 1.79491 0
M  V30 6731 H 607.022 0.216319 0.720215 0
M  V30 6732 H 608.993 1.63975 2.49309 0
M  V30 6733 C 607.742 0.159126 3.47336 0
M  V30 6734 H 607.065 0.918387 3.89109 0
M  V30 6735 H 608.505 -0.0602851 4.23957 0
M  V30 6736 C 606.964 -1.10514 3.18258 0
M  V30 6737 O 607.494 -2.18869 3.36837 0
M  V30 6738 N 605.7 -1.01886 2.72154 0
M  V30 6739 H 605.247 -0.137027 2.57235 0
M  V30 6740 H 605.205 -1.8655 2.53074 0
M  V30 6741 N 608.977 -1.30795 0.87923 0
M  V30 6742 C 610.202 -2.01063 0.508769 0
M  V30 6743 C 610.627 -1.65508 -0.893803 0
M  V30 6744 O 609.985 -0.868616 -1.59138 0
M  V30 6745 C 610.033 -3.54054 0.683991 0
M  V30 6746 O 609.137 -4.11498 -0.272654 0
M  V30 6747 H 608.478 -0.632786 0.201191 0
M  V30 6748 H 611.008 -1.66776 1.18519 0
M  V30 6749 H 611.018 -4.03845 0.580798 0
M  V30 6750 H 609.693 -3.79271 1.70665 0
M  V30 6751 H 608.27 -3.72695 -0.12364 0
M  V30 6752 N 610.455 -0.639598 -1.44038 0
M  V30 6753 C 611.385 0.0469443 -2.33453 0
M  V30 6754 C 612.366 0.82609 -1.48694 0
M  V30 6755 O 613.551 0.790285 -1.77393 0
M  V30 6756 C 610.681 1.02338 -3.3188 0
M  V30 6757 C 609.635 0.355284 -4.26523 0
M  V30 6758 C 608.961 1.44221 -5.14883 0
M  V30 6759 C 610.261 -0.743798 -5.16977 0
M  V30 6760 H 611.955 -0.699735 -2.91108 0
M  V30 6761 H 609.501 -0.337946 -1.39978 0
M  V30 6762 H 611.454 1.51247 -3.93322 0
M  V30 6763 H 610.178 1.80105 -2.72451 0
M  V30 6764 H 608.837 -0.113239 -3.66425 0
M  V30 6765 H 608.485 2.21097 -4.51802 0
M  V30 6766 H 608.185 1.00052 -5.79019 0
M  V30 6767 H 609.709 1.93295 -5.79197 0
M  V30 6768 H 611.123 -0.337444 -5.72306 0
M  V30 6769 H 609.52 -1.10914 -5.89761 0
M  V30 6770 H 610.59 -1.60745 -4.57481 0
M  V30 6771 N 611.933 1.52934 -0.380664 0
M  V30 6772 C 612.881 2.27727 0.47361 0
M  V30 6773 C 613.875 1.31288 1.0705 0
M  V30 6774 O 615.081 1.4886 1.01197 0
M  V30 6775 H 611.456 0.732189 0.171475 0
M  V30 6776 H 613.427 2.97864 -0.178785 0
M  V30 6777 C 612.176 3.0904 1.59341 0
M  V30 6778 H 611.499 3.831 1.14343 0
M  V30 6779 H 612.939 3.64527 2.16555 0
M  V30 6780 C 611.398 2.20813 2.54447 0
M  V30 6781 O 611.928 1.82907 3.57642 0
M  V30 6782 N 610.134 1.85145 2.23986 0
M  V30 6783 H 609.681 2.16169 1.40103 0
M  V30 6784 H 609.639 1.26402 2.87871 0
M  V30 6785 N 613.412 0.11024 1.57214 0
M  V30 6786 C 614.823 -0.416527 1.81994 0
M  V30 6787 C 615.174 -1.67183 1.02686 0
M  V30 6788 O 614.299 -2.14823 0.260782 0
M  V30 6789 C 614.894 -0.762466 3.30109 0
M  V30 6790 C 613.453 -1.23391 3.556 0
M  V30 6791 C 612.6 -0.238166 2.76275 0
M  V30 6792 H 615.551 0.335491 1.55113 0
M  V30 6793 H 615.572 -1.62068 3.44259 0
M  V30 6794 H 615.084 0.151346 3.87805 0
M  V30 6795 H 613.185 -2.16492 3.03253 0
M  V30 6796 H 613.298 -1.18528 4.64207 0
M  V30 6797 H 611.662 -0.723421 2.4421 0
M  V30 6798 H 612.445 0.668591 3.36727 0
M  V30 6799 N 614.89 -1.56749 -0.16351 0
M  V30 6800 C 615.853 -1.96121 -1.18613 0
M  V30 6801 C 616.853 -0.845765 -1.36761 0
M  V30 6802 O 618.043 -1.11268 -1.34033 0
M  V30 6803 C 615.175 -2.26282 -2.54969 0
M  V30 6804 H 616.368 -2.87639 -0.848764 0
M  V30 6805 H 613.921 -1.50928 -0.406251 0
M  V30 6806 H 614.656 -1.37504 -2.93706 0
M  V30 6807 H 614.441 -3.07595 -2.43162 0
M  V30 6808 H 615.931 -2.57638 -3.28653 0
M  V30 6809 N 616.368 0.432326 -1.51554 0
M  V30 6810 C 617.617 1.17831 -1.63703 0
M  V30 6811 C 617.93 1.92229 -0.36156 0
M  V30 6812 O 619.136 2.69069 -0.362495 0
M  V30 6813 C 617.592 2.14318 -2.89129 0
M  V30 6814 C 617.2 1.45544 -4.23699 0
M  V30 6815 C 618.944 2.89319 -3.10636 0
M  V30 6816 C 616.851 2.40545 -5.4027 0
M  V30 6817 H 615.781 0.443533 -0.60975 0
M  V30 6818 H 618.432 0.444878 -1.78026 0
M  V30 6819 H 616.814 2.91117 -2.68452 0
M  V30 6820 H 617.988 0.742693 -4.54775 0
M  V30 6821 H 616.303 0.826772 -4.0811 0
M  V30 6822 H 618.9 3.60495 -3.94902 0
M  V30 6823 H 619.243 3.50951 -2.23918 0
M  V30 6824 H 619.776 2.19625 -3.31677 0
M  V30 6825 H 616.515 1.83594 -6.29264 0
M  V30 6826 H 616.035 3.09859 -5.13563 0
M  V30 6827 H 617.714 3.01569 -5.72421 0
M  V30 6828 N 617.846 1.41785 0.688094 0
M  V30 6829 C 619.071 1.45117 1.48175 0
M  V30 6830 C 619.496 0.060129 1.88004 0
M  V30 6831 O 618.854 -0.938385 1.55126 0
M  V30 6832 C 618.902 2.37224 2.71583 0
M  V30 6833 O 618.006 1.83443 3.69354 0
M  V30 6834 H 617.347 0.492208 0.445676 0
M  V30 6835 H 619.877 1.86329 0.845145 0
M  V30 6836 H 619.887 2.53353 3.19806 0
M  V30 6837 H 618.562 3.38293 2.41931 0
M  V30 6838 H 617.139 1.76802 3.28322 0
M  V30 6839 N 619.324 -0.923095 1.27737 0
M  V30 6840 C 620.234 -2.05765 1.12685 0
M  V30 6841 C 621.25 -1.73911 0.0557197 0
M  V30 6842 O 622.426 -1.99674 0.263137 0
M  V30 6843 C 619.491 -3.37804 0.780363 0
M  V30 6844 C 618.552 -3.83326 1.93286 0
M  V30 6845 C 617.785 -5.09064 1.60281 0
M  V30 6846 O 618.008 -5.6809 0.512828 0
M  V30 6847 O 616.942 -5.50071 2.44347 0
M  V30 6848 H 620.768 -2.21378 2.07907 0
M  V30 6849 H 618.353 -1.04299 1.06968 0
M  V30 6850 H 620.235 -4.17097 0.600668 0
M  V30 6851 H 618.91 -3.23387 -0.142291 0
M  V30 6852 H 617.817 -3.049 2.16764 0
M  V30 6853 H 619.15 -4.02292 2.83588 0
M  V30 6854 N 620.802 -1.09834 -1.13024 0
M  V30 6855 C 622.079 -0.749225 -1.80682 0
M  V30 6856 C 622.459 0.765171 -1.96744 0
M  V30 6857 O 621.807 1.68912 -1.53886 0
M  V30 6858 C 622.017 -1.49311 -3.15448 0
M  V30 6859 C 623.365 -1.66162 -3.90737 0
M  V30 6860 O 624.389 -1.45597 -3.25085 0
M  V30 6861 O 623.248 -2.00211 -5.08505 0
M  V30 6862 H 620.342 -0.269614 -0.781817 0
M  V30 6863 H 622.888 -1.20078 -1.19914 0
M  V30 6864 H 621.66 -2.52407 -2.99009 0
M  V30 6865 H 621.283 -1.034 -3.8392 0
M  V30 6866 N 622.28 1.30327 -0.886154 0
M  V30 6867 C 623.228 2.30052 -0.343317 0
M  V30 6868 C 624.222 1.60212 0.550305 0
M  V30 6869 O 625.428 1.74674 0.434609 0
M  V30 6870 H 621.803 0.746306 -0.0923681 0
M  V30 6871 H 623.774 2.73294 -1.19804 0
M  V30 6872 C 622.523 3.45079 0.426107 0
M  V30 6873 H 621.846 3.99003 -0.25227 0
M  V30 6874 H 623.286 4.16931 0.771009 0
M  V30 6875 C 621.745 2.95195 1.62363 0
M  V30 6876 O 622.275 2.95323 2.723 0
M  V30 6877 N 620.481 2.51192 1.4612 0
M  V30 6878 H 620.028 2.51286 0.566832 0
M  V30 6879 H 619.986 2.18173 2.2638 0
M  V30 6880 N 623.758 0.647228 1.43697 0
M  V30 6881 C 625.035 0.0883758 1.954 0
M  V30 6882 C 625.415 -1.39006 1.58873 0
M  V30 6883 O 624.763 -2.11255 0.87083 0
M  V30 6884 C 624.973 0.328263 3.47453 0
M  V30 6885 C 626.321 0.230009 4.23977 0
M  V30 6886 O 627.345 0.260496 3.55246 0
M  V30 6887 O 626.204 0.148615 5.46298 0
M  V30 6888 H 623.298 -0.0130683 0.826897 0
M  V30 6889 H 625.844 0.72005 1.53666 0
M  V30 6890 H 624.616 1.3535 3.67146 0
M  V30 6891 H 624.239 -0.336772 3.96171 0
M  V30 6892 N 625.236 -1.5273 0.388769 0
M  V30 6893 C 626.483 -2.01573 -0.19359 0
M  V30 6894 C 626.811 -1.27525 -1.46859 0
M  V30 6895 O 626.066 -0.363926 -1.92286 0
M  V30 6896 C 626.365 -3.53765 -0.508445 0
M  V30 6897 C 626.031 -4.4582 0.674947 0
M  V30 6898 C 624.693 -4.70703 0.999596 0
M  V30 6899 C 627.045 -5.00138 1.46666 0
M  V30 6900 C 624.373 -5.47155 2.11751 0
M  V30 6901 C 626.725 -5.77812 2.57518 0
M  V30 6902 C 625.389 -6.00975 2.90492 0
M  V30 6903 H 624.659 -0.737606 -0.0708397 0
M  V30 6904 H 627.306 -1.84134 0.526006 0
M  V30 6905 H 625.611 -3.69274 -1.30936 0
M  V30 6906 H 627.308 -3.8905 -0.971664 0
M  V30 6907 H 623.898 -4.26616 0.411906 0
M  V30 6908 H 628.082 -4.8084 1.22909 0
M  V30 6909 H 623.338 -5.63314 2.3767 0
M  V30 6910 H 627.512 -6.18904 3.19267 0
M  V30 6911 H 625.139 -6.59998 3.77236 0
M  V30 6912 N 626.714 -0.118576 -1.57153 0
M  V30 6913 C 627.662 0.849114 -2.16547 0
M  V30 6914 C 628.656 1.27567 -1.11458 0
M  V30 6915 O 629.862 1.24746 -1.29763 0
M  V30 6916 H 626.237 0.291935 -0.693021 0
M  V30 6917 H 628.208 0.323693 -2.96639 0
M  V30 6918 C 626.957 2.08951 -2.77912 0
M  V30 6919 H 626.28 1.77021 -3.58474 0
M  V30 6920 H 627.72 2.74666 -3.23008 0
M  V30 6921 C 626.179 2.87899 -1.74974 0
M  V30 6922 O 626.709 3.83268 -1.20285 0
M  V30 6923 N 624.915 2.51884 -1.44924 0
M  V30 6924 H 624.462 1.74397 -1.89587 0
M  V30 6925 H 624.42 3.05003 -0.762921 0
M  V30 6926 N 628.193 1.56834 0.155195 0
M  V30 6927 C 629.421 1.87049 0.884326 0
M  V30 6928 C 629.836 0.705839 1.7511 0
M  V30 6929 O 629.193 -0.324641 1.79589 0
M  V30 6930 C 629.244 3.1644 1.74781 0
M  V30 6931 O 628.965 4.28417 0.915978 0
M  V30 6932 C 630.466 3.60113 2.58522 0
M  V30 6933 H 627.686 0.620196 0.25612 0
M  V30 6934 H 630.23 2.03946 0.150445 0
M  V30 6935 H 628.385 3.01321 2.43484 0
M  V30 6936 H 628.799 5.02353 1.50803 0
M  V30 6937 H 630.273 4.53508 3.14698 0
M  V30 6938 H 630.75 2.85005 3.34169 0
M  V30 6939 H 631.356 3.77898 1.95124 0
M  V30 6940 N 629.671 -0.424282 1.51781 0
M  V30 6941 C 630.899 -1.1947 1.68921 0
M  V30 6942 C 631.314 -1.84683 0.39213 0
M  V30 6943 O 630.671 -1.71261 -0.630554 0
M  V30 6944 C 630.722 -2.26909 2.81416 0
M  V30 6945 O 630.443 -1.64361 4.061 0
M  V30 6946 C 631.944 -3.16945 3.09937 0
M  V30 6947 H 629.164 -0.359591 0.566511 0
M  V30 6948 H 631.708 -0.501139 1.98265 0
M  V30 6949 H 629.863 -2.91959 2.54635 0
M  V30 6950 H 630.277 -2.35468 4.68674 0
M  V30 6951 H 631.751 -3.88437 3.922 0
M  V30 6952 H 632.228 -3.78451 2.22871 0
M  V30 6953 H 632.834 -2.57581 3.38426 0
M  V30 6954 N 631.149 -1.42148 -0.680565 0
M  V30 6955 C 632.377 -1.45696 -1.46902 0
M  V30 6956 C 632.792 -0.0665858 -1.88683 0
M  V30 6957 O 632.149 0.917436 -1.57764 0
M  V30 6958 C 632.2 -2.37898 -2.72188 0
M  V30 6959 O 631.921 -3.71526 -2.32163 0
M  V30 6960 C 633.422 -2.50407 -3.65802 0
M  V30 6961 H 630.642 -0.495729 -0.45221 0
M  V30 6962 H 633.186 -1.866 -0.836709 0
M  V30 6963 H 631.341 -2.00263 -3.31622 0
M  V30 6964 H 631.755 -4.20849 -3.13027 0
M  V30 6965 H 633.229 -3.19056 -4.50452 0
M  V30 6966 H 633.706 -1.5401 -4.11312 0
M  V30 6967 H 634.312 -2.8874 -3.12265 0
M  V30 6968 N 632.627 0.916307 -1.28225 0
M  V30 6969 C 633.575 2.03977 -1.11786 0
M  V30 6970 C 634.569 1.69358 -0.0378265 0
M  V30 6971 O 635.775 1.78925 -0.196405 0
M  V30 6972 H 632.15 0.66829 -0.344809 0
M  V30 6973 H 634.121 2.14985 -2.06939 0
M  V30 6974 C 632.87 3.38518 -0.7938 0
M  V30 6975 H 632.193 3.65649 -1.61682 0
M  V30 6976 H 633.633 4.17864 -0.718719 0
M  V30 6977 C 632.092 3.33134 0.502353 0
M  V30 6978 O 632.622 3.71281 1.53341 0
M  V30 6979 N 630.828 2.86229 0.502147 0
M  V30 6980 H 630.375 2.55382 -0.337338 0
M  V30 6981 H 630.333 2.83009 1.36942 0
M  V30 6982 N 634.105 1.10431 1.1244 0
M  V30 6983 C 635.333 0.868872 1.87772 0
M  V30 6984 C 635.748 -0.580645 1.7965 0
M  V30 6985 O 635.105 -1.40031 1.17036 0
M  V30 6986 C 635.156 1.30855 3.36986 0
M  V30 6987 O 634.877 2.70123 3.44914 0
M  V30 6988 C 636.378 1.107 4.29256 0
M  V30 6989 H 633.598 0.311868 0.59412 0
M  V30 6990 H 636.142 1.46897 1.42273 0
M  V30 6991 H 634.297 0.752126 3.80029 0
M  V30 6992 H 634.711 2.88923 4.37748 0
M  V30 6993 H 636.185 1.46378 5.32238 0
M  V30 6994 H 636.662 0.0456228 4.39176 0
M  V30 6995 H 637.268 1.64988 3.91994 0
M  V30 6996 N 635.583 -1.29855 0.893053 0
M  V30 6997 C 636.83 -1.95826 0.515585 0
M  V30 6998 C 637.158 -1.70451 -0.936842 0
M  V30 6999 O 636.413 -1.00657 -1.67829 0
M  V30 7000 C 636.712 -3.49515 0.746588 0
M  V30 7001 C 636.378 -3.94955 2.17535 0
M  V30 7002 C 635.04 -4.07073 2.56603 0
M  V30 7003 C 637.392 -4.18536 3.10607 0
M  V30 7004 C 634.72 -4.40138 3.87938 0
M  V30 7005 C 637.072 -4.53073 4.41484 0
M  V30 7006 C 635.736 -4.634 4.80434 0
M  V30 7007 H 635.006 -0.71658 0.188666 0
M  V30 7008 H 637.653 -1.54574 1.13045 0
M  V30 7009 H 635.958 -3.9177 0.0487551 0
M  V30 7010 H 637.655 -3.98644 0.434009 0
M  V30 7011 H 634.245 -3.86035 1.86212 0
M  V30 7012 H 638.429 -4.08646 2.81641 0
M  V30 7013 H 633.685 -4.46335 4.17846 0
M  V30 7014 H 637.859 -4.70269 5.13634 0
M  V30 7015 H 635.486 -4.88775 5.82239 0
M  V30 7016 N 637.061 -0.65484 -1.43351 0
M  V30 7017 C 638.31 -0.166215 -2.01014 0
M  V30 7018 C 638.623 1.22764 -1.52278 0
M  V30 7019 O 639.829 1.81156 -2.02224 0
M  V30 7020 C 638.285 -0.246341 -3.59056 0
M  V30 7021 C 637.893 -1.64299 -4.16785 0
M  V30 7022 C 639.637 0.184597 -4.24098 0
M  V30 7023 C 637.544 -1.67695 -5.67126 0
M  V30 7024 H 636.474 -0.0583769 -0.751737 0
M  V30 7025 H 639.125 -0.817111 -1.64303 0
M  V30 7026 H 637.507 0.472092 -3.93176 0
M  V30 7027 H 638.681 -2.3869 -3.94162 0
M  V30 7028 H 636.996 -2.02004 -3.6412 0
M  V30 7029 H 639.593 0.179088 -5.344 0
M  V30 7030 H 639.936 1.21632 -3.98135 0
M  V30 7031 H 640.469 -0.482141 -3.94867 0
M  V30 7032 H 637.208 -2.68783 -5.9786 0
M  V30 7033 H 636.728 -0.976313 -5.91801 0
M  V30 7034 H 638.407 -1.42142 -6.31193 0
M  V30 7035 N 638.539 1.52521 -0.396863 0
M  V30 7036 C 639.816 1.94112 0.240842 0
M  V30 7037 C 640.196 1.33288 1.637 0
M  V30 7038 O 639.544 0.503901 2.22875 0
M  V30 7039 C 639.754 3.48033 0.259567 0
M  V30 7040 C 641.102 4.21822 0.484866 0
M  V30 7041 O 642.126 3.54579 0.339453 0
M  V30 7042 O 640.985 5.41042 0.770412 0
M  V30 7043 H 638.079 0.812973 0.151671 0
M  V30 7044 H 640.625 1.63572 -0.451918 0
M  V30 7045 H 639.397 3.84655 -0.718078 0
M  V30 7046 H 639.02 3.84899 0.996937 0
M  V30 7047 N 640.017 0.126909 1.57088 0
M  V30 7048 C 641.242 -0.53997 2.00248 0
M  V30 7049 C 641.667 -1.58927 1.00618 0
M  V30 7050 O 641.025 -1.81288 -0.0210131 0
M  V30 7051 C 641.073 -1.13565 3.4225 0
M  V30 7052 O 640.177 -2.25103 3.45547 0
M  V30 7053 H 639.518 -0.13412 0.650314 0
M  V30 7054 H 642.048 0.217718 2.03438 0
M  V30 7055 H 642.058 -1.46925 3.80627 0
M  V30 7056 H 640.733 -0.367122 4.14277 0
M  V30 7057 H 639.31 -1.93123 3.18995 0
M  V30 7058 N 641.495 -1.56914 -0.146875 0
M  V30 7059 C 642.744 -1.82546 -0.857898 0
M  V30 7060 C 643.057 -0.708169 -1.8233 0
M  V30 7061 O 644.263 -0.850093 -2.57848 0
M  V30 7062 C 642.719 -3.23548 -1.57623 0
M  V30 7063 C 642.327 -4.43212 -0.653224 0
M  V30 7064 C 644.071 -3.58453 -2.27402 0
M  V30 7065 C 641.978 -5.75237 -1.37318 0
M  V30 7066 H 640.908 -0.680786 -0.32411 0
M  V30 7067 H 643.559 -1.83166 -0.110639 0
M  V30 7068 H 641.941 -3.17315 -2.36912 0
M  V30 7069 H 643.115 -4.60682 0.104452 0
M  V30 7070 H 641.43 -4.16351 -0.0638336 0
M  V30 7071 H 644.027 -4.54349 -2.81907 0
M  V30 7072 H 644.37 -2.84516 -3.03901 0
M  V30 7073 H 644.903 -3.66347 -1.55032 0
M  V30 7074 H 641.642 -6.52269 -0.650041 0
M  V30 7075 H 641.162 -5.61703 -2.10357 0
M  V30 7076 H 642.841 -6.18039 -1.91406 0
M  V30 7077 N 642.974 0.416227 -1.52004 0
M  V30 7078 C 643.907 1.52736 -1.6955 0
M  V30 7079 C 644.885 1.53264 -0.54305 0
M  V30 7080 O 646.069 1.72077 -0.769527 0
M  V30 7081 C 643.196 2.91283 -1.72835 0
M  V30 7082 C 642.242 3.08695 -2.94295 0
M  V30 7083 S 643.075 2.82758 -4.54762 0
M  V30 7084 C 644.231 4.23548 -4.60823 0
M  V30 7085 H 644.464 1.37623 -2.63528 0
M  V30 7086 H 641.997 0.607335 -1.41954 0
M  V30 7087 H 643.955 3.71134 -1.75413 0
M  V30 7088 H 642.616 3.03742 -0.799966 0
M  V30 7089 H 641.809 4.10042 -2.93056 0
M  V30 7090 H 641.411 2.36699 -2.89568 0
M  V30 7091 H 643.703 5.17078 -4.37763 0
M  V30 7092 H 644.646 4.29813 -5.62731 0
M  V30 7093 H 645.054 4.08188 -3.89927 0
M  V30 7094 N 644.452 1.42507 0.673017 0
M  V30 7095 C 645.415 1.4582 1.76831 0
M  V30 7096 C 646.415 0.345542 1.57043 0
M  V30 7097 O 647.605 0.606447 1.63303 0
M  V30 7098 C 644.737 1.29158 3.15485 0
M  V30 7099 H 645.93 2.43345 1.7528 0
M  V30 7100 H 643.483 1.28981 0.882817 0
M  V30 7101 H 644.218 0.325626 3.22661 0
M  V30 7102 H 644.003 2.09797 3.31252 0
M  V30 7103 H 645.493 1.34363 3.95394 0
M  V30 7104 N 645.93 -0.909495 1.28709 0
M  V30 7105 C 646.84 -2.04558 1.14861 0
M  V30 7106 C 647.856 -1.73842 0.0741621 0
M  V30 7107 O 649.032 -1.99383 0.2843 0
M  V30 7108 C 646.097 -3.36957 0.816148 0
M  V30 7109 C 645.158 -3.81255 1.97341 0
M  V30 7110 C 644.391 -5.07335 1.65671 0
M  V30 7111 O 644.614 -5.67514 0.573053 0
M  V30 7112 O 643.548 -5.47449 2.50167 0
M  V30 7113 H 647.374 -2.19161 2.10243 0
M  V30 7114 H 644.959 -1.03159 1.08068 0
M  V30 7115 H 646.841 -4.16436 0.644873 0
M  V30 7116 H 645.516 -3.2352 -0.107983 0
M  V30 7117 H 644.423 -3.02584 2.19986 0
M  V30 7118 H 645.756 -3.99261 2.87839 0
M  V30 7119 N 647.408 -1.11026 -1.11852 0
M  V30 7120 C 648.371 -0.768006 -2.1595 0
M  V30 7121 C 649.371 0.210538 -1.59416 0
M  V30 7122 O 650.561 -0.0133978 -1.74195 0
M  V30 7123 C 647.693 -0.138678 -3.40618 0
M  V30 7124 H 648.886 -1.69012 -2.4774 0
M  V30 7125 H 646.439 -0.911578 -1.26964 0
M  V30 7126 H 647.174 0.793872 -3.14433 0
M  V30 7127 H 646.959 -0.843012 -3.8293 0
M  V30 7128 H 648.449 0.0848039 -4.17514 0
M  V30 7129 N 648.886 1.2938 -0.899927 0
M  V30 7130 C 649.834 2.29675 -0.367698 0
M  V30 7131 C 650.828 1.60787 0.533282 0
M  V30 7132 O 652.034 1.75126 0.416058 0
M  V30 7133 H 648.409 0.745284 -0.100279 0
M  V30 7134 H 650.38 2.72008 -1.22696 0
M  V30 7135 C 649.129 3.45512 0.389483 0
M  V30 7136 H 648.452 3.98713 -0.294575 0
M  V30 7137 H 649.892 4.17725 0.726744 0
M  V30 7138 C 648.351 2.969 1.59223 0
M  V30 7139 O 648.881 2.98195 2.69152 0
M  V30 7140 N 647.087 2.52728 1.43447 0
M  V30 7141 H 646.634 2.51873 0.540148 0
M  V30 7142 H 646.592 2.20561 2.24054 0
M  V30 7143 N 650.364 0.662433 1.43002 0
M  V30 7144 C 651.327 -0.0142016 2.29196 0
M  V30 7145 C 652.327 -0.741394 1.42688 0
M  V30 7146 O 653.517 -0.581257 1.64216 0
M  V30 7147 C 650.649 -1.03084 3.24941 0
M  V30 7148 H 651.842 0.7443 2.90517 0
M  V30 7149 H 649.395 0.424133 1.50435 0
M  V30 7150 H 650.13 -1.81826 2.68533 0
M  V30 7151 H 649.915 -0.512946 3.8873 0
M  V30 7152 H 651.405 -1.50308 3.89612 0
M  V30 7153 N 651.842 -1.52309 0.404946 0
M  V30 7154 C 653.119 -1.94237 -0.230544 0
M  V30 7155 C 653.499 -1.34154 -1.6299 0
M  V30 7156 O 652.847 -0.515713 -2.22604 0
M  V30 7157 C 653.057 -3.48166 -0.241106 0
M  V30 7158 C 654.405 -4.22074 -0.462488 0
M  V30 7159 O 655.429 -3.54754 -0.320644 0
M  V30 7160 O 654.288 -5.41443 -0.741708 0
M  V30 7161 H 651.382 -0.813766 -0.147358 0
M  V30 7162 H 653.928 -1.6333 0.460587 0
M  V30 7163 H 652.7 -3.84269 0.738467 0
M  V30 7164 H 652.323 -3.85422 -0.97651 0
M  V30 7165 N 653.32 -0.135238 -1.57019 0
M  V30 7166 C 654.268 0.826099 -2.17436 0
M  V30 7167 C 655.262 1.26378 -1.12805 0
M  V30 7168 O 656.468 1.23363 -1.31079 0
M  V30 7169 H 652.843 0.284568 -0.696078 0
M  V30 7170 H 654.814 0.292212 -2.96966 0
M  V30 7171 C 653.563 2.05991 -2.80112 0
M  V30 7172 H 652.886 1.73209 -3.60331 0
M  V30 7173 H 654.326 2.71225 -3.25903 0
M  V30 7174 C 652.785 2.86027 -1.78017 0
M  V30 7175 O 653.315 3.81971 -1.24344 0
M  V30 7176 N 651.521 2.50332 -1.47588 0
M  V30 7177 H 651.068 1.72377 -1.91426 0
M  V30 7178 H 651.026 3.04177 -0.795228 0
M  V30 7179 N 654.798 1.5699 0.138552 0
M  V30 7180 C 656.046 1.83446 0.848053 0
M  V30 7181 C 656.367 0.71744 1.81322 0
M  V30 7182 O 655.637 -0.260228 1.94164 0
M  V30 7183 H 654.217 0.676792 0.316166 0
M  V30 7184 H 656.879 1.94462 0.130538 0
M  V30 7185 H 655.975 2.78677 1.40518 0
M  V30 7186 N 656.276 -0.40816 1.52223 0
M  V30 7187 C 657.692 -0.74685 1.41047 0
M  V30 7188 C 657.892 -1.94788 0.51573 0
M  V30 7189 O 656.948 -2.52494 -0.0181156 0
M  V30 7190 C 658.261 -0.999878 2.83589 0
M  V30 7191 C 659.809 -1.10253 2.92939 0
M  V30 7192 C 660.284 -1.38832 4.36451 0
M  V30 7193 N 661.775 -1.45694 4.3969 0
M  V30 7194 C 662.51 -1.69435 5.47795 0
M  V30 7195 N 662.006 -1.90774 6.66016 0
M  V30 7196 N 663.799 -1.71458 5.35312 0
M  V30 7197 H 655.95 0.382409 2.08929 0
M  V30 7198 H 658.213 0.108807 0.941735 0
M  V30 7199 H 657.919 -0.189723 3.51188 0
M  V30 7200 H 657.793 -1.91978 3.24691 0
M  V30 7201 H 660.18 -1.90328 2.2552 0
M  V30 7202 H 660.261 -0.160973 2.55293 0
M  V30 7203 H 659.905 -0.592741 5.04429 0
M  V30 7204 H 659.835 -2.34241 4.71634 0
M  V30 7205 H 662.326 -1.3099 3.54472 0
M  V30 7206 H 662.639 -2.08342 7.44186 0
M  V30 7207 H 660.984 -1.88037 6.69079 0
M  V30 7208 H 664.175 -1.54326 4.41929 0
M  V30 7209 H 664.348 -1.89621 6.19635 0
M  V30 7210 N 657.755 -1.42862 -0.66545 0
M  V30 7211 C 659.002 -1.4383 -1.42546 0
M  V30 7212 C 659.33 -0.0581114 -1.94413 0
M  V30 7213 O 658.585 0.935002 -1.71919 0
M  V30 7214 C 658.884 -2.4175 -2.63233 0
M  V30 7215 C 658.55 -3.87915 -2.29854 0
M  V30 7216 C 657.212 -4.27726 -2.20463 0
M  V30 7217 C 659.564 -4.80074 -2.02924 0
M  V30 7218 C 656.892 -5.57666 -1.82279 0
M  V30 7219 C 659.244 -6.10366 -1.66242 0
M  V30 7220 C 657.908 -6.49167 -1.55367 0
M  V30 7221 H 657.178 -0.52631 -0.521612 0
M  V30 7222 H 659.825 -1.75863 -0.757914 0
M  V30 7223 H 658.13 -2.03077 -3.35063 0
M  V30 7224 H 659.827 -2.39759 -3.21429 0
M  V30 7225 H 656.417 -3.564 -2.3807 0
M  V30 7226 H 660.601 -4.50097 -2.09108 0
M  V30 7227 H 655.857 -5.8658 -1.72436 0
M  V30 7228 H 660.031 -6.81258 -1.44432 0
M  V30 7229 H 657.658 -7.49761 -1.2555 0
M  V30 7230 N 659.233 0.902656 -1.29189 0
M  V30 7231 C 660.166 2.00816 -1.0839 0
M  V30 7232 C 661.144 1.626 0.00335266 0
M  V30 7233 O 662.328 1.87928 -0.146765 0
M  V30 7234 C 659.455 3.32415 -0.649435 0
M  V30 7235 C 658.501 3.89617 -1.73496 0
M  V30 7236 S 659.334 4.19091 -3.33351 0
M  V30 7237 C 660.49 5.53736 -2.91766 0
M  V30 7238 H 660.723 2.18151 -2.01984 0
M  V30 7239 H 658.256 1.0489 -1.13303 0
M  V30 7240 H 660.214 4.08492 -0.405479 0
M  V30 7241 H 658.875 3.12964 0.266857 0
M  V30 7242 H 658.068 4.84658 -1.38284 0
M  V30 7243 H 657.67 3.20217 -1.93229 0
M  V30 7244 H 659.962 6.34085 -2.38627 0
M  V30 7245 H 660.905 5.93871 -3.85647 0
M  V30 7246 H 661.313 5.15453 -2.30149 0
M  V30 7247 N 660.711 1.11618 1.11262 0
M  V30 7248 C 661.644 0.719995 2.16544 0
M  V30 7249 C 662.622 -0.28471 1.60088 0
M  V30 7250 O 663.806 -0.180693 1.87632 0
M  V30 7251 C 660.933 0.0643302 3.38639 0
M  V30 7252 C 659.979 1.03448 4.13764 0
M  V30 7253 S 660.812 2.55789 4.70459 0
M  V30 7254 C 661.968 1.91529 5.95875 0
M  V30 7255 H 662.201 1.61181 2.49816 0
M  V30 7256 H 659.734 0.934401 1.22916 0
M  V30 7257 H 661.692 -0.307609 4.09346 0
M  V30 7258 H 660.353 -0.804471 3.03623 0
M  V30 7259 H 659.546 0.523188 5.01277 0
M  V30 7260 H 659.148 1.34893 3.48826 0
M  V30 7261 H 661.44 1.25286 6.65815 0
M  V30 7262 H 662.383 2.77047 6.51652 0
M  V30 7263 H 662.791 1.37468 5.47506 0
M  V30 7264 N 662.189 -1.289 0.906776 0
M  V30 7265 C 663.099 -2.31256 0.394707 0
M  V30 7266 C 664.115 -1.66231 -0.514121 0
M  V30 7267 O 665.291 -1.97347 -0.401994 0
M  V30 7268 C 662.356 -3.44792 -0.363191 0
M  V30 7269 C 661.417 -4.25391 0.578012 0
M  V30 7270 C 660.65 -5.33506 -0.143811 0
M  V30 7271 O 660.873 -5.53786 -1.36665 0
M  V30 7272 O 659.807 -5.99673 0.5173 0
M  V30 7273 H 663.633 -2.77051 1.24405 0
M  V30 7274 H 661.218 -1.33466 0.671346 0
M  V30 7275 H 663.1 -4.139 -0.791503 0
M  V30 7276 H 661.775 -3.01093 -1.18848 0
M  V30 7277 H 660.682 -3.58899 1.05558 0
M  V30 7278 H 662.015 -4.72752 1.36992 0
M  V30 7279 N 663.667 -0.670007 -1.42649 0
M  V30 7280 C 664.597 -0.00258501 -2.335 0
M  V30 7281 C 665.578 0.794364 -1.50412 0
M  V30 7282 O 666.763 0.75248 -1.79029 0
M  V30 7283 C 663.893 0.952748 -3.33976 0
M  V30 7284 C 662.847 0.264733 -4.2718 0
M  V30 7285 C 662.173 1.33267 -5.17826 0
M  V30 7286 C 663.473 -0.853289 -5.15283 0
M  V30 7287 H 665.167 -0.761326 -2.89559 0
M  V30 7288 H 662.713 -0.367561 -1.3923 0
M  V30 7289 H 664.666 1.4287 -3.96442 0
M  V30 7290 H 663.39 1.74285 -2.7621 0
M  V30 7291 H 662.049 -0.190938 -3.66102 0
M  V30 7292 H 661.697 2.11464 -4.5639 0
M  V30 7293 H 661.397 0.877476 -5.81011 0
M  V30 7294 H 662.921 1.80965 -5.83167 0
M  V30 7295 H 664.335 -0.458763 -5.71462 0
M  V30 7296 H 662.732 -1.23398 -5.87276 0
M  V30 7297 H 663.802 -1.70412 -4.53969 0
M  V30 7298 N 665.145 1.52092 -0.413018 0
M  V30 7299 C 666.393 2.01456 0.161178 0
M  V30 7300 C 666.714 1.30034 1.45314 0
M  V30 7301 O 665.984 0.427435 1.9118 0
M  V30 7302 H 664.564 0.744376 0.0625526 0
M  V30 7303 H 667.226 1.86974 -0.550151 0
M  V30 7304 H 666.322 3.1008 0.354517 0
M  V30 7305 N 666.623 0.143563 1.56945 0
M  V30 7306 C 667.57 -0.797433 2.16586 0
M  V30 7307 C 668.54 -1.24654 1.09775 0
M  V30 7308 O 669.725 -1.31968 1.37801 0
M  V30 7309 C 666.865 -2.03253 2.78895 0
M  V30 7310 C 665.978 -1.62954 4.00087 0
M  V30 7311 C 665.113 -2.81617 4.50406 0
M  V30 7312 C 664.152 -2.37675 5.64072 0
M  V30 7313 N 663.289 -3.49335 6.09023 0
M  V30 7314 H 668.129 -0.282023 2.96662 0
M  V30 7315 H 665.666 -0.127494 1.46546 0
M  V30 7316 H 667.624 -2.75653 3.13163 0
M  V30 7317 H 666.254 -2.52211 2.01469 0
M  V30 7318 H 665.306 -0.803322 3.71821 0
M  V30 7319 H 666.618 -1.26679 4.82446 0
M  V30 7320 H 665.772 -3.62212 4.86711 0
M  V30 7321 H 664.511 -3.21134 3.67048 0
M  V30 7322 H 663.516 -1.55519 5.27346 0
M  V30 7323 H 664.741 -1.99247 6.49213 0
M  V30 7324 H 662.687 -3.8848 5.28601 0
M  V30 7325 H 662.604 -3.17064 6.86299 0
M  V30 7326 H 663.872 -4.30297 6.49973 0
M  V30 7327 N 668.101 -1.57061 -0.130224 0
M  V30 7328 C 669.331 -1.88159 -0.853217 0
M  V30 7329 C 669.739 -0.731675 -1.7448 0
M  V30 7330 O 669.082 0.307035 -1.81116 0
M  V30 7331 C 669.144 -3.1415 -1.74785 0
M  V30 7332 C 668.808 -4.45202 -1.03173 0
M  V30 7333 C 669.805 -5.18526 -0.377759 0
M  V30 7334 C 667.49 -4.91912 -1.01624 0
M  V30 7335 C 669.484 -6.36775 0.282123 0
M  V30 7336 C 667.171 -6.10082 -0.352555 0
M  V30 7337 C 668.169 -6.82361 0.295483 0
M  V30 7338 O 667.857 -7.98284 0.948606 0
M  V30 7339 H 667.589 -0.627596 -0.251197 0
M  V30 7340 H 670.143 -2.05034 -0.1226 0
M  V30 7341 H 668.373 -2.93328 -2.51983 0
M  V30 7342 H 670.062 -3.31359 -2.34427 0
M  V30 7343 H 670.828 -4.83498 -0.381417 0
M  V30 7344 H 666.707 -4.35566 -1.51007 0
M  V30 7345 H 670.251 -6.93129 0.788525 0
M  V30 7346 H 666.148 -6.44569 -0.346621 0
M  V30 7347 H 666.916 -8.14054 0.851954 0
M  V30 7348 N 669.579 0.400081 -1.52437 0
M  V30 7349 C 670.509 1.4947 -1.7939 0
M  V30 7350 C 671.49 1.57383 -0.645329 0
M  V30 7351 O 672.675 1.72511 -0.891826 0
M  V30 7352 C 669.805 2.87201 -1.95276 0
M  V30 7353 C 668.759 2.94134 -3.10917 0
M  V30 7354 C 668.085 4.34207 -3.1204 0
M  V30 7355 C 669.385 2.64791 -4.50203 0
M  V30 7356 H 671.079 1.27165 -2.71052 0
M  V30 7357 H 668.625 0.610312 -1.30427 0
M  V30 7358 H 670.578 3.63772 -2.12715 0
M  V30 7359 H 669.302 3.10819 -1.00294 0
M  V30 7360 H 667.961 2.20009 -2.93243 0
M  V30 7361 H 667.609 4.54848 -2.14761 0
M  V30 7362 H 667.309 4.39768 -3.89715 0
M  V30 7363 H 668.833 5.127 -3.31619 0
M  V30 7364 H 670.247 3.31083 -4.68035 0
M  V30 7365 H 668.644 2.81717 -5.29864 0
M  V30 7366 H 669.714 1.60184 -4.57678 0
M  V30 7367 N 671.057 1.43213 0.657864 0
M  V30 7368 C 672.473 1.26511 0.972992 0
M  V30 7369 C 672.673 0.181477 2.00681 0
M  V30 7370 O 671.729 -0.441649 2.48608 0
M  V30 7371 C 673.042 2.62784 1.46168 0
M  V30 7372 C 674.59 2.70278 1.57857 0
M  V30 7373 C 675.065 4.06958 2.10117 0
M  V30 7374 N 676.556 4.08999 2.17426 0
M  V30 7375 C 677.291 5.11585 2.58975 0
M  V30 7376 N 676.787 6.24548 2.99853 0
M  V30 7377 N 678.58 4.9894 2.58873 0
M  V30 7378 H 670.731 2.12384 -0.0263129 0
M  V30 7379 H 672.994 0.946638 0.0507992 0
M  V30 7380 H 672.7 3.43022 0.776474 0
M  V30 7381 H 672.574 2.87863 2.43751 0
M  V30 7382 H 674.961 1.90376 2.25479 0
M  V30 7383 H 675.042 2.4897 0.587179 0
M  V30 7384 H 674.686 4.87325 1.43098 0
M  V30 7385 H 674.616 4.25628 3.10078 0
M  V30 7386 H 677.107 3.27457 1.88627 0
M  V30 7387 H 677.42 6.98661 3.30292 0
M  V30 7388 H 675.765 6.28027 2.97669 0
M  V30 7389 H 678.956 4.09757 2.26311 0
M  V30 7390 H 679.129 5.79019 2.90932 0
M  V30 7391 N 672.536 -0.895792 1.29666 0
M  V30 7392 C 673.782 -1.64908 1.18039 0
M  V30 7393 C 674.115 -1.9236 -0.266682 0
M  V30 7394 O 673.39 -1.53682 -1.19214 0
M  V30 7395 C 673.673 -2.99574 1.99819 0
M  V30 7396 C 673.526 -2.79163 3.52687 0
M  V30 7397 C 674.845 -4.00358 1.82761 0
M  V30 7398 H 671.964 -0.598437 0.430165 0
M  V30 7399 H 674.606 -1.03736 1.59182 0
M  V30 7400 H 672.756 -3.51786 1.64859 0
M  V30 7401 H 674.428 -2.33821 3.9765 0
M  V30 7402 H 672.671 -2.13871 3.77414 0
M  V30 7403 H 673.342 -3.74871 4.05186 0
M  V30 7404 H 675.818 -3.57268 2.13304 0
M  V30 7405 H 674.694 -4.92514 2.42325 0
M  V30 7406 H 674.955 -4.35096 0.783839 0
M  V30 7407 N 674.014 -1.12206 -1.10668 0
M  V30 7408 C 675.262 -0.874144 -1.82217 0
M  V30 7409 C 675.583 0.601736 -1.85484 0
M  V30 7410 O 674.853 1.43725 -1.33116 0
M  V30 7411 H 673.433 -0.320404 -0.674797 0
M  V30 7412 H 676.095 -1.41606 -1.33917 0
M  V30 7413 H 675.191 -1.25349 -2.85822 0
M  V30 7414 N 675.492 1.28418 -0.913599 0
M  V30 7415 C 676.739 1.94981 -0.546674 0
M  V30 7416 C 677.067 1.7192 0.909606 0
M  V30 7417 O 676.322 1.03314 1.66207 0
M  V30 7418 C 676.621 3.48283 -0.802099 0
M  V30 7419 C 676.287 3.91444 -2.2379 0
M  V30 7420 C 674.949 4.02939 -2.63046 0
M  V30 7421 C 677.301 4.13542 -3.17227 0
M  V30 7422 C 674.629 4.3391 -3.94891 0
M  V30 7423 C 676.981 4.45992 -4.48636 0
M  V30 7424 C 675.645 4.55698 -4.87746 0
M  V30 7425 H 674.915 0.713487 -0.200042 0
M  V30 7426 H 677.562 1.52756 -1.15489 0
M  V30 7427 H 675.867 3.91643 -0.111076 0
M  V30 7428 H 677.564 3.97903 -0.497375 0
M  V30 7429 H 674.154 3.83024 -1.9233 0
M  V30 7430 H 678.338 4.04114 -2.88107 0
M  V30 7431 H 673.594 4.39631 -4.24894 0
M  V30 7432 H 677.768 4.62038 -5.21051 0
M  V30 7433 H 675.395 4.79451 -5.89942 0
M  V30 7434 N 676.97 0.677563 1.42291 0
M  V30 7435 C 678.217 0.200975 2.015 0
M  V30 7436 C 678.545 -1.19342 1.53583 0
M  V30 7437 O 677.8 -1.81579 0.7299 0
M  V30 7438 C 678.099 0.187229 3.56909 0
M  V30 7439 C 677.765 1.52667 4.24268 0
M  V30 7440 C 676.427 1.89341 4.42384 0
M  V30 7441 C 678.779 2.40869 4.62203 0
M  V30 7442 C 676.107 3.13836 4.95705 0
M  V30 7443 C 678.459 3.64679 5.16906 0
M  V30 7444 C 677.123 4.01519 5.33234 0
M  V30 7445 H 676.393 0.0735418 0.737342 0
M  V30 7446 H 679.04 0.873095 1.70439 0
M  V30 7447 H 677.345 -0.568407 3.87655 0
M  V30 7448 H 679.042 -0.198773 4.00507 0
M  V30 7449 H 675.632 1.23138 4.1053 0
M  V30 7450 H 679.816 2.1382 4.47878 0
M  V30 7451 H 675.072 3.42396 5.06532 0
M  V30 7452 H 679.246 4.33224 5.45243 0
M  V30 7453 H 676.873 4.98062 5.74316 0
M  V30 7454 N 678.448 -1.51871 0.421078 0
M  V30 7455 C 679.859 -1.86644 -0.0457991 0
M  V30 7456 C 680.21 -1.33919 -1.43388 0
M  V30 7457 O 679.335 -0.683316 -2.05328 0
M  V30 7458 C 679.93 -3.38681 -0.0898844 0
M  V30 7459 C 678.489 -3.73049 -0.501127 0
M  V30 7460 C 677.636 -2.75485 0.316723 0
M  V30 7461 H 680.587 -1.45327 0.637635 0
M  V30 7462 H 680.608 -3.69636 -0.902734 0
M  V30 7463 H 680.12 -3.77025 0.920513 0
M  V30 7464 H 678.221 -3.40288 -1.51773 0
M  V30 7465 H 678.334 -4.78512 -0.237217 0
M  V30 7466 H 676.698 -2.53725 -0.222663 0
M  V30 7467 H 677.481 -3.16671 1.32569 0
M  V30 7468 N 679.926 -0.151884 -1.56866 0
M  V30 7469 C 681.203 0.543328 -1.87902 0
M  V30 7470 C 681.583 1.82636 -1.05864 0
M  V30 7471 O 680.931 2.28028 -0.146868 0
M  V30 7472 C 681.141 0.804056 -3.39611 0
M  V30 7473 C 682.489 1.14267 -4.08935 0
M  V30 7474 O 683.513 0.893248 -3.44818 0
M  V30 7475 O 682.372 1.61229 -5.22176 0
M  V30 7476 H 679.466 0.277724 -0.778973 0
M  V30 7477 H 682.012 -0.188862 -1.68646 0
M  V30 7478 H 680.784 -0.103772 -3.91162 0
M  V30 7479 H 680.407 1.59025 -3.64413 0
M  V30 7480 N 681.404 1.57128 0.121893 0
M  V30 7481 C 682.65 1.84974 0.831418 0
M  V30 7482 C 682.983 0.737204 1.79663 0
M  V30 7483 O 682.258 -0.257199 1.92792 0
M  V30 7484 C 682.541 3.23397 1.58386 0
M  V30 7485 C 682.394 4.45246 0.638445 0
M  V30 7486 C 683.713 3.59355 2.54071 0
M  V30 7487 H 680.832 0.67282 0.300803 0
M  V30 7488 H 683.474 1.89759 0.0957587 0
M  V30 7489 H 681.624 3.19449 2.21098 0
M  V30 7490 H 683.296 4.61295 0.0203925 0
M  V30 7491 H 681.539 4.33771 -0.05023 0
M  V30 7492 H 682.21 5.38765 1.20151 0
M  V30 7493 H 684.686 3.64075 2.01465 0
M  V30 7494 H 683.562 4.57193 3.03752 0
M  V30 7495 H 683.823 2.86622 3.36601 0
M  V30 7496 N 682.882 -0.391992 1.52647 0
M  V30 7497 C 683.829 -1.47866 1.77213 0
M  V30 7498 C 684.799 -1.54286 0.615223 0
M  V30 7499 O 685.984 -1.7059 0.854622 0
M  V30 7500 C 683.124 -2.85129 1.94411 0
M  V30 7501 C 682.237 -2.87883 3.22098 0
M  V30 7502 C 681.372 -4.16553 3.29631 0
M  V30 7503 C 680.411 -4.13348 4.51453 0
M  V30 7504 N 679.548 -5.33619 4.56284 0
M  V30 7505 H 684.388 -1.26219 2.6995 0
M  V30 7506 H 681.925 -0.612367 1.33748 0
M  V30 7507 H 683.883 -3.64833 2.02367 0
M  V30 7508 H 682.513 -3.05232 1.05038 0
M  V30 7509 H 681.565 -2.00567 3.23229 0
M  V30 7510 H 682.877 -2.81382 4.11856 0
M  V30 7511 H 682.031 -5.0466 3.36753 0
M  V30 7512 H 680.77 -4.25773 2.37842 0
M  V30 7513 H 679.775 -3.23629 4.44459 0
M  V30 7514 H 681 -4.05754 5.44555 0
M  V30 7515 H 678.946 -5.43474 3.67385 0
M  V30 7516 H 678.863 -5.29182 5.3991 0
M  V30 7517 H 680.131 -6.23632 4.67657 0
M  V30 7518 N 684.36 -1.4356 -0.65026 0
M  V30 7519 C 685.588 -1.48779 -1.43779 0
M  V30 7520 C 686.003 -0.106593 -1.88499 0
M  V30 7521 O 685.36 0.883766 -1.59674 0
M  V30 7522 C 685.411 -2.43618 -2.67081 0
M  V30 7523 O 685.132 -3.76367 -2.24231 0
M  V30 7524 C 686.633 -2.5811 -3.60409 0
M  V30 7525 H 683.853 -0.50521 -0.441593 0
M  V30 7526 H 686.397 -1.88332 -0.796941 0
M  V30 7527 H 684.552 -2.07253 -3.273 0
M  V30 7528 H 684.966 -4.27394 -3.0403 0
M  V30 7529 H 686.44 -3.28539 -4.43583 0
M  V30 7530 H 686.917 -1.627 -4.07953 0
M  V30 7531 H 687.523 -2.95298 -3.0607 0
M  V30 7532 N 685.838 0.888903 -1.30139 0
M  V30 7533 C 687.066 1.67358 -1.21651 0
M  V30 7534 C 687.481 1.87499 0.221246 0
M  V30 7535 O 686.838 1.41969 1.14677 0
M  V30 7536 C 686.889 3.05213 -1.93719 0
M  V30 7537 O 686.61 2.85984 -3.31881 0
M  V30 7538 C 688.111 3.9964 -1.9184 0
M  V30 7539 H 685.331 0.522365 -0.42116 0
M  V30 7540 H 687.875 1.11086 -1.71698 0
M  V30 7541 H 686.03 3.5823 -1.4748 0
M  V30 7542 H 686.444 3.73411 -3.68327 0
M  V30 7543 H 687.918 4.93749 -2.46811 0
M  V30 7544 H 688.395 4.29955 -0.896409 0
M  V30 7545 H 689.001 3.52558 -2.37872 0
M  V30 7546 N 687.317 1.12792 1.10072 0
M  V30 7547 C 688.566 0.880232 1.81479 0
M  V30 7548 C 688.879 -0.595575 1.86312 0
M  V30 7549 O 690.085 -0.959979 2.53962 0
M  V30 7550 C 688.541 1.52514 3.25987 0
M  V30 7551 C 688.149 3.036 3.29441 0
M  V30 7552 C 689.893 1.35788 4.02196 0
M  V30 7553 C 687.8 3.61007 4.68431 0
M  V30 7554 H 686.73 0.325654 0.680048 0
M  V30 7555 H 689.381 1.35485 1.23758 0
M  V30 7556 H 687.763 0.978188 3.83728 0
M  V30 7557 H 688.937 3.64819 2.81502 0
M  V30 7558 H 687.252 3.19765 2.66719 0
M  V30 7559 H 689.849 1.76096 5.0487 0
M  V30 7560 H 690.192 0.301972 4.15203 0
M  V30 7561 H 690.725 1.87426 3.50879 0
M  V30 7562 H 687.464 4.66375 4.60625 0
M  V30 7563 H 686.984 3.04564 5.16721 0
M  V30 7564 H 688.663 3.60289 5.37402 0
M  V30 7565 N 688.795 -1.27931 0.920396 0
M  V30 7566 C 689.743 -2.29061 0.404191 0
M  V30 7567 C 690.737 -1.61615 -0.507634 0
M  V30 7568 O 691.943 -1.75765 -0.388144 0
M  V30 7569 H 688.318 -0.743594 0.112123 0
M  V30 7570 H 690.289 -2.70021 1.27008 0
M  V30 7571 C 689.038 -3.46088 -0.334466 0
M  V30 7572 H 688.361 -3.98194 0.35797 0
M  V30 7573 H 689.801 -4.18829 -0.660196 0
M  V30 7574 C 688.26 -2.99396 -1.54479 0
M  V30 7575 O 688.79 -3.02439 -2.64374 0
M  V30 7576 N 686.996 -2.54978 -1.39408 0
M  V30 7577 H 686.543 -2.52701 -0.500009 0
M  V30 7578 H 686.501 -2.24098 -2.20516 0
M  V30 7579 N 690.273 -0.685099 -1.4193 0
M  V30 7580 C 691.203 -0.0273506 -2.33484 0
M  V30 7581 C 692.184 0.778366 -1.51246 0
M  V30 7582 O 693.369 0.733449 -1.79817 0
M  V30 7583 C 690.499 0.917272 -3.34968 0
M  V30 7584 C 689.453 0.21941 -4.27437 0
M  V30 7585 C 688.779 1.27768 -5.1921 0
M  V30 7586 C 690.079 -0.907894 -5.14349 0
M  V30 7587 H 691.773 -0.791994 -2.88735 0
M  V30 7588 H 689.319 -0.382308 -1.38832 0
M  V30 7589 H 691.272 1.38657 -3.97935 0
M  V30 7590 H 689.996 1.71346 -2.78043 0
M  V30 7591 H 688.655 -0.229757 -3.65879 0
M  V30 7592 H 688.303 2.06612 -4.58607 0
M  V30 7593 H 688.003 0.815803 -5.81909 0
M  V30 7594 H 689.527 1.7477 -5.85054 0
M  V30 7595 H 690.941 -0.519348 -5.70943 0
M  V30 7596 H 689.338 -1.2962 -5.85934 0
M  V30 7597 H 690.408 -1.75218 -4.52136 0
M  V30 7598 N 691.751 1.51645 -0.429126 0
M  V30 7599 C 692.976 2.06917 0.141399 0
M  V30 7600 C 693.401 1.29527 1.36398 0
M  V30 7601 O 692.759 0.33094 1.78254 0
M  V30 7602 C 692.807 3.57776 0.4504 0
M  V30 7603 O 691.911 3.82639 1.53821 0
M  V30 7604 H 691.252 0.663978 0.0054647 0
M  V30 7605 H 693.782 1.95355 -0.608093 0
M  V30 7606 H 693.792 4.01894 0.703249 0
M  V30 7607 H 692.467 4.13532 -0.443213 0
M  V30 7608 H 691.044 3.5039 1.27597 0
M  V30 7609 N 693.229 0.160201 1.56784 0
M  V30 7610 C 694.477 -0.486625 1.96154 0
M  V30 7611 C 694.798 -1.64525 1.04673 0
M  V30 7612 O 694.068 -1.95586 0.110864 0
M  V30 7613 H 692.648 -0.182764 0.724297 0
M  V30 7614 H 695.31 0.238787 1.93432 0
M  V30 7615 H 694.406 -0.854025 3.00188 0
M  V30 7616 N 694.707 -1.5719 -0.113559 0
M  V30 7617 C 696.118 -1.74259 -0.670116 0
M  V30 7618 C 696.469 -0.779694 -1.80042 0
M  V30 7619 O 695.594 0.0461353 -2.16351 0
M  V30 7620 C 696.189 -3.15981 -1.22236 0
M  V30 7621 C 694.748 -3.34537 -1.72516 0
M  V30 7622 C 693.895 -2.70116 -0.627098 0
M  V30 7623 H 696.846 -1.58301 0.112396 0
M  V30 7624 H 696.867 -3.17832 -2.09197 0
M  V30 7625 H 696.379 -3.86038 -0.39949 0
M  V30 7626 H 694.48 -2.6953 -2.57263 0
M  V30 7627 H 694.593 -4.42737 -1.83086 0
M  V30 7628 H 692.957 -2.31501 -1.06204 0
M  V30 7629 H 693.74 -3.42802 0.184889 0
M  V30 7630 N 696.185 0.383891 -1.52853 0
M  V30 7631 C 697.095 1.49343 -1.80925 0
M  V30 7632 C 698.111 1.59458 -0.696348 0
M  V30 7633 O 699.287 1.75698 -0.984481 0
M  V30 7634 C 696.352 2.84819 -1.97684 0
M  V30 7635 C 695.413 2.84382 -3.21598 0
M  V30 7636 C 694.646 4.13397 -3.37548 0
M  V30 7637 O 694.869 5.08619 -2.58192 0
M  V30 7638 O 693.803 4.20325 -4.30826 0
M  V30 7639 H 697.629 1.2855 -2.75152 0
M  V30 7640 H 695.214 0.572229 -1.38007 0
M  V30 7641 H 697.096 3.65125 -2.10385 0
M  V30 7642 H 695.771 3.05627 -1.06647 0
M  V30 7643 H 694.678 2.0284 -3.14336 0
M  V30 7644 H 696.011 2.68526 -4.12498 0
M  V30 7645 N 697.663 1.43903 0.642637 0
M  V30 7646 C 698.626 1.49538 1.73698 0
M  V30 7647 C 699.626 0.378776 1.56275 0
M  V30 7648 O 700.816 0.64095 1.6198 0
M  V30 7649 C 697.948 1.35821 3.12675 0
M  V30 7650 H 699.141 2.47008 1.70079 0
M  V30 7651 H 696.694 1.30824 0.85526 0
M  V30 7652 H 697.429 0.393994 3.21898 0
M  V30 7653 H 697.214 2.16776 3.26727 0
M  V30 7654 H 698.704 1.4272 3.92455 0
M  V30 7655 N 699.141 -0.881989 1.30609 0
M  V30 7656 C 700.371 -1.66469 1.22359 0
M  V30 7657 C 700.779 -1.87969 -0.215507 0
M  V30 7658 O 700.122 -1.42938 -1.15388 0
M  V30 7659 C 700.184 -3.06135 1.88472 0
M  V30 7660 C 699.848 -3.07795 3.37804 0
M  V30 7661 C 700.845 -2.86633 4.33749 0
M  V30 7662 C 698.53 -3.29297 3.793 0
M  V30 7663 C 700.524 -2.86934 5.69164 0
M  V30 7664 C 698.211 -3.29228 5.14832 0
M  V30 7665 C 699.209 -3.08071 6.09574 0
M  V30 7666 O 698.897 -3.07824 7.4263 0
M  V30 7667 H 698.629 -0.526129 0.424458 0
M  V30 7668 H 701.183 -1.11004 1.72821 0
M  V30 7669 H 699.413 -3.63276 1.32543 0
M  V30 7670 H 701.102 -3.66571 1.74301 0
M  V30 7671 H 701.868 -2.69814 4.0302 0
M  V30 7672 H 697.747 -3.44799 3.05998 0
M  V30 7673 H 701.291 -2.70339 6.43088 0
M  V30 7674 H 697.188 -3.45583 5.452 0
M  V30 7675 H 697.956 -3.2397 7.51656 0
M  V30 7676 N 700.619 -1.13374 -1.09472 0
M  V30 7677 C 701.582 -0.813639 -2.14272 0
M  V30 7678 C 702.582 0.176677 -1.59826 0
M  V30 7679 O 703.772 -0.0503441 -1.74127 0
M  V30 7680 C 700.904 -0.210897 -3.40247 0
M  V30 7681 H 702.097 -1.74229 -2.44099 0
M  V30 7682 H 699.65 -0.938304 -1.25002 0
M  V30 7683 H 700.385 0.726998 -3.16046 0
M  V30 7684 H 700.17 -0.924048 -3.81056 0
M  V30 7685 H 701.66 -0.00377603 -4.176 0
M  V30 7686 N 702.098 1.27442 -0.927168 0
M  V30 7687 C 703.061 2.2512 -0.430525 0
M  V30 7688 C 704.061 1.54357 0.450619 0
M  V30 7689 O 705.251 1.72371 0.251774 0
M  V30 7690 C 702.383 3.38763 0.381144 0
M  V30 7691 H 703.576 2.70569 -1.29354 0
M  V30 7692 H 701.129 1.39355 -0.707806 0
M  V30 7693 H 701.864 2.98695 1.263 0
M  V30 7694 H 701.649 3.91298 -0.250618 0
M  V30 7695 H 703.139 4.11364 0.719012 0
M  V30 7696 N 703.576 0.692616 1.41565 0
M  V30 7697 C 704.539 0.0344174 2.29174 0
M  V30 7698 C 705.539 -0.710961 1.44229 0
M  V30 7699 O 706.729 -0.546293 1.65412 0
M  V30 7700 C 703.861 -0.961682 3.27054 0
M  V30 7701 H 705.054 0.805755 2.88873 0
M  V30 7702 H 702.607 0.455947 1.49502 0
M  V30 7703 H 703.342 -1.76089 2.72329 0
M  V30 7704 H 703.127 -0.430375 3.89731 0
M  V30 7705 H 704.617 -1.4201 3.92712 0
M  V30 7706 N 705.054 -1.51416 0.437162 0
M  V30 7707 C 706.284 -2.06204 -0.127859 0
M  V30 7708 C 706.692 -1.30463 -1.37026 0
M  V30 7709 O 706.035 -0.357516 -1.80187 0
M  V30 7710 C 706.097 -3.55783 -0.515632 0
M  V30 7711 C 705.761 -4.52776 0.619937 0
M  V30 7712 C 706.758 -4.98031 1.49201 0
M  V30 7713 C 704.443 -4.95878 0.800618 0
M  V30 7714 C 706.437 -5.85061 2.52947 0
M  V30 7715 C 704.124 -5.82699 1.84135 0
M  V30 7716 C 705.122 -6.27188 2.70416 0
M  V30 7717 O 704.81 -7.12284 3.72702 0
M  V30 7718 H 704.542 -0.675903 -0.011442 0
M  V30 7719 H 707.096 -1.95977 0.614986 0
M  V30 7720 H 705.326 -3.63793 -1.31118 0
M  V30 7721 H 707.015 -3.93087 -1.01179 0
M  V30 7722 H 707.781 -4.65426 1.36395 0
M  V30 7723 H 703.66 -4.60792 0.138617 0
M  V30 7724 H 707.204 -6.19708 3.20325 0
M  V30 7725 H 703.101 -6.14717 1.9696 0
M  V30 7726 H 703.869 -7.30462 3.69281 0
M  V30 7727 N 706.532 -0.168513 -1.56696 0
M  V30 7728 C 707.464 0.794249 -2.14998 0
M  V30 7729 C 708.477 1.1957 -1.10485 0
M  V30 7730 O 709.666 1.13604 -1.37682 0
M  V30 7731 C 706.766 2.08018 -2.67547 0
M  V30 7732 C 705.939 1.84274 -3.96689 0
M  V30 7733 C 704.998 2.97059 -4.3433 0
M  V30 7734 O 704.024 2.67815 -5.02259 0
M  V30 7735 N 705.226 4.24775 -3.9566 0
M  V30 7736 H 707.991 0.295832 -2.98236 0
M  V30 7737 H 705.552 0.0143611 -1.61894 0
M  V30 7738 H 707.544 2.82559 -2.89729 0
M  V30 7739 H 706.114 2.49059 -1.88914 0
M  V30 7740 H 705.334 0.936528 -3.82914 0
M  V30 7741 H 706.622 1.65773 -4.81037 0
M  V30 7742 H 706.02 4.51395 -3.40968 0
M  V30 7743 H 704.577 4.96027 -4.22848 0
M  V30 7744 N 708.01 1.57248 0.105221 0
M  V30 7745 C 709.287 1.76566 0.841647 0
M  V30 7746 C 709.667 0.747566 1.9742 0
M  V30 7747 O 709.015 -0.225886 2.27381 0
M  V30 7748 C 709.225 3.22016 1.3456 0
M  V30 7749 C 710.573 3.84911 1.79244 0
M  V30 7750 O 711.597 3.25703 1.44207 0
M  V30 7751 O 710.456 4.89008 2.43995 0
M  V30 7752 H 707.55 0.723443 0.400698 0
M  V30 7753 H 710.096 1.69472 0.0878893 0
M  V30 7754 H 708.868 3.87644 0.533685 0
M  V30 7755 H 708.491 3.33703 2.16167 0
M  V30 7756 N 709.488 -0.375779 1.53054 0
M  V30 7757 C 710.418 -1.46598 1.81745 0
M  V30 7758 C 711.399 -1.56337 0.670286 0
M  V30 7759 O 712.584 -1.71071 0.919158 0
M  V30 7760 C 709.714 -2.84058 1.99821 0
M  V30 7761 C 708.668 -2.8915 3.15557 0
M  V30 7762 C 707.994 -4.29187 3.18908 0
M  V30 7763 C 709.294 -2.57595 4.54359 0
M  V30 7764 H 710.988 -1.22837 2.73041 0
M  V30 7765 H 708.534 -0.589485 1.31381 0
M  V30 7766 H 710.487 -3.60342 2.18475 0
M  V30 7767 H 709.211 -3.09184 1.05226 0
M  V30 7768 H 707.87 -2.15316 2.96706 0
M  V30 7769 H 707.518 -4.51374 2.2197 0
M  V30 7770 H 707.218 -4.33512 3.96662 0
M  V30 7771 H 708.742 -5.07359 3.39734 0
M  V30 7772 H 710.156 -3.23595 4.73243 0
M  V30 7773 H 708.553 -2.73252 5.34279 0
M  V30 7774 H 709.623 -1.52882 4.60169 0
M  V30 7775 N 710.966 -1.44241 -0.634997 0
M  V30 7776 C 711.896 -1.53632 -1.7584 0
M  V30 7777 C 712.877 -0.389603 -1.65578 0
M  V30 7778 O 714.062 -0.609219 -1.84397 0
M  V30 7779 C 711.192 -1.47644 -3.14354 0
M  V30 7780 C 710.146 -2.60752 -3.394 0
M  V30 7781 C 709.472 -2.39817 -4.77904 0
M  V30 7782 C 710.772 -4.02921 -3.32343 0
M  V30 7783 H 712.466 -2.47662 -1.68238 0
M  V30 7784 H 710.012 -1.19197 -0.807969 0
M  V30 7785 H 711.965 -1.52815 -3.92716 0
M  V30 7786 H 710.689 -0.501284 -3.2273 0
M  V30 7787 H 709.348 -2.54965 -2.63417 0
M  V30 7788 H 708.996 -1.40502 -4.82978 0
M  V30 7789 H 708.696 -3.15649 -4.9562 0
M  V30 7790 H 710.22 -2.46799 -5.585 0
M  V30 7791 H 711.634 -4.10098 -4.00615 0
M  V30 7792 H 710.031 -4.78925 -3.61595 0
M  V30 7793 H 711.101 -4.26766 -2.30215 0
M  V30 7794 N 712.444 0.87505 -1.31075 0
M  V30 7795 C 713.377 1.98471 -1.12625 0
M  V30 7796 C 714.355 1.6257 -0.0311379 0
M  V30 7797 O 715.539 1.87574 -0.186594 0
M  V30 7798 C 712.666 3.30963 -0.719799 0
M  V30 7799 C 711.712 3.85849 -1.81722 0
M  V30 7800 S 712.545 4.11926 -3.42165 0
M  V30 7801 C 713.701 5.47423 -3.03445 0
M  V30 7802 H 713.934 2.13817 -2.06566 0
M  V30 7803 H 711.467 1.02463 -1.15502 0
M  V30 7804 H 713.425 4.07541 -0.492035 0
M  V30 7805 H 712.086 3.1346 0.200413 0
M  V30 7806 H 711.279 4.81616 -1.48533 0
M  V30 7807 H 710.881 3.16046 -1.99977 0
M  V30 7808 H 713.173 6.28881 -2.52023 0
M  V30 7809 H 714.116 5.85557 -3.98157 0
M  V30 7810 H 714.524 5.10455 -2.41031 0
M  V30 7811 N 713.922 1.13953 1.08869 0
M  V30 7812 C 715.169 0.90481 1.81161 0
M  V30 7813 C 715.497 -0.568824 1.85996 0
M  V30 7814 O 714.752 -1.43723 1.32823 0
M  V30 7815 C 715.051 1.44495 3.26888 0
M  V30 7816 C 714.717 2.93641 3.42178 0
M  V30 7817 C 713.379 3.34361 3.46059 0
M  V30 7818 C 715.731 3.89568 3.46246 0
M  V30 7819 C 713.059 4.69681 3.51592 0
M  V30 7820 C 715.411 5.2474 3.53314 0
M  V30 7821 C 714.075 5.64979 3.55465 0
M  V30 7822 H 713.345 0.331094 0.662916 0
M  V30 7823 H 715.992 1.42242 1.28217 0
M  V30 7824 H 714.297 0.848169 3.82509 0
M  V30 7825 H 715.994 1.23934 3.81368 0
M  V30 7826 H 712.584 2.61156 3.39846 0
M  V30 7827 H 716.768 3.59192 3.42483 0
M  V30 7828 H 712.024 5.00224 3.51547 0
M  V30 7829 H 716.198 5.98882 3.55406 0
M  V30 7830 H 713.825 6.69821 3.59505 0
M  V30 7831 N 715.4 -1.26948 0.933913 0
M  V30 7832 C 716.347 -2.26635 0.436484 0
M  V30 7833 C 717.317 -1.58397 -0.499953 0
M  V30 7834 O 718.502 -1.86171 -0.417753 0
M  V30 7835 C 715.642 -3.43803 -0.298951 0
M  V30 7836 C 714.755 -4.26736 0.672316 0
M  V30 7837 C 713.89 -5.31134 -0.0835872 0
M  V30 7838 C 712.929 -6.05742 0.879979 0
M  V30 7839 N 712.066 -7.01926 0.156301 0
M  V30 7840 H 716.906 -2.68558 1.29154 0
M  V30 7841 H 714.443 -1.32052 0.648118 0
M  V30 7842 H 716.401 -4.10554 -0.741723 0
M  V30 7843 H 715.031 -3.02814 -1.1182 0
M  V30 7844 H 714.083 -3.59842 1.23361 0
M  V30 7845 H 715.395 -4.78502 1.40846 0
M  V30 7846 H 714.549 -6.03863 -0.585984 0
M  V30 7847 H 713.288 -4.80188 -0.852661 0
M  V30 7848 H 712.293 -5.31846 1.39357 0
M  V30 7849 H 713.518 -6.58777 1.64894 0
M  V30 7850 H 711.464 -6.53301 -0.594413 0
M  V30 7851 H 711.381 -7.51409 0.831906 0
M  V30 7852 H 712.649 -7.78821 -0.325239 0
M  V30 7853 N 716.879 -0.700114 -1.41195 0
M  V30 7854 C 717.789 -0.0382854 -2.34569 0
M  V30 7855 C 718.805 0.761036 -1.56474 0
M  V30 7856 O 719.981 0.697553 -1.88934 0
M  V30 7857 C 717.046 0.883522 -3.35253 0
M  V30 7858 C 716.107 0.0758957 -4.29233 0
M  V30 7859 C 715.34 0.9538 -5.25108 0
M  V30 7860 O 715.563 2.19326 -5.26547 0
M  V30 7861 O 714.497 0.401049 -6.00562 0
M  V30 7862 H 718.323 -0.808073 -2.92752 0
M  V30 7863 H 715.908 -0.460479 -1.42127 0
M  V30 7864 H 717.79 1.41199 -3.9704 0
M  V30 7865 H 716.465 1.63272 -2.79506 0
M  V30 7866 H 715.372 -0.497274 -3.7078 0
M  V30 7867 H 716.705 -0.634741 -4.8809 0
M  V30 7868 N 718.357 1.51182 -0.445186 0
M  V30 7869 C 719.605 2.01753 0.11841 0
M  V30 7870 C 719.926 1.33087 1.42523 0
M  V30 7871 O 719.196 0.467891 1.9023 0
M  V30 7872 H 717.776 0.745536 0.0467492 0
M  V30 7873 H 720.438 1.85765 -0.589688 0
M  V30 7874 H 719.534 3.10762 0.288665 0
M  V30 7875 N 719.835 0.176821 1.56605 0
M  V30 7876 C 721.06 -0.47599 2.01864 0
M  V30 7877 C 721.485 -1.55645 1.05623 0
M  V30 7878 O 720.843 -1.81263 0.0366729 0
M  V30 7879 C 720.891 -1.02619 3.4569 0
M  V30 7880 O 719.995 -2.13996 3.52533 0
M  V30 7881 H 719.336 -0.113363 0.654251 0
M  V30 7882 H 721.866 0.28233 2.02643 0
M  V30 7883 H 721.876 -1.34742 3.85109 0
M  V30 7884 H 720.551 -0.235138 4.15235 0
M  V30 7885 H 719.128 -1.82876 3.24978 0
M  V30 7886 N 721.313 -1.57302 -0.09688 0
M  V30 7887 C 722.246 -1.97179 -1.14872 0
M  V30 7888 C 723.224 -0.844734 -1.38935 0
M  V30 7889 O 724.408 -1.10487 -1.52725 0
M  V30 7890 C 721.535 -2.28703 -2.49826 0
M  V30 7891 C 720.581 -3.51158 -2.42054 0
M  V30 7892 S 721.414 -5.0294 -1.83879 0
M  V30 7893 C 722.57 -5.37639 -3.2046 0
M  V30 7894 H 722.803 -2.86088 -0.808771 0
M  V30 7895 H 720.336 -1.51368 -0.304492 0
M  V30 7896 H 722.294 -2.47541 -3.27466 0
M  V30 7897 H 720.955 -1.40368 -2.8099 0
M  V30 7898 H 720.148 -3.70651 -3.41517 0
M  V30 7899 H 719.75 -3.31821 -1.72543 0
M  V30 7900 H 722.042 -5.34175 -4.16729 0
M  V30 7901 H 722.985 -6.38677 -3.05773 0
M  V30 7902 H 723.393 -4.651 -3.19909 0
M  V30 7903 N 722.791 0.367657 -1.53252 0
M  V30 7904 C 723.739 1.47061 -1.8021 0
M  V30 7905 C 724.733 1.55539 -0.671112 0
M  V30 7906 O 725.939 1.58451 -0.854014 0
M  V30 7907 H 722.314 0.489868 -0.570555 0
M  V30 7908 H 724.285 1.21527 -2.72532 0
M  V30 7909 C 723.034 2.83924 -2.00706 0
M  V30 7910 H 722.357 2.78158 -2.87172 0
M  V30 7911 H 723.797 3.60281 -2.23547 0
M  V30 7912 C 722.256 3.27613 -0.785568 0
M  V30 7913 O 722.786 4.01691 0.0267459 0
M  V30 7914 N 720.992 2.84134 -0.609597 0
M  V30 7915 H 720.539 2.24017 -1.27178 0
M  V30 7916 H 720.497 3.13723 0.206281 0
M  V30 7917 N 724.269 1.44576 0.627338 0
M  V30 7918 C 725.518 1.46837 1.38281 0
M  V30 7919 C 725.831 0.10635 1.95311 0
M  V30 7920 O 727.037 0.00651084 2.71499 0
M  V30 7921 C 725.493 2.58527 2.50384 0
M  V30 7922 C 725.101 4.00953 1.99851 0
M  V30 7923 C 726.845 2.70013 3.27557 0
M  V30 7924 C 724.752 5.0406 3.09318 0
M  V30 7925 H 723.682 0.546319 0.519664 0
M  V30 7926 H 726.333 1.70654 0.674497 0
M  V30 7927 H 724.715 2.27957 3.23808 0
M  V30 7928 H 725.889 4.41108 1.33267 0
M  V30 7929 H 724.204 3.93743 1.35482 0
M  V30 7930 H 726.801 3.44217 4.09168 0
M  V30 7931 H 727.144 1.75961 3.77284 0
M  V30 7932 H 727.677 3.00011 2.61224 0
M  V30 7933 H 724.416 5.99753 2.6453 0
M  V30 7934 H 723.936 4.68493 3.74532 0
M  V30 7935 H 725.615 5.2793 3.74031 0
M  V30 7936 N 725.747 -0.868086 1.31537 0
M  V30 7937 C 726.697 -1.96321 1.1594 0
M  V30 7938 C 727.681 -1.60748 0.0698962 0
M  V30 7939 O 728.873 -1.74524 0.295011 0
M  V30 7940 C 726.002 -3.32073 0.870789 0
M  V30 7941 C 725.088 -3.73907 2.00136 0
M  V30 7942 N 725.479 -3.87685 3.24859 0
M  V30 7943 C 723.777 -4.03433 1.90152 0
M  V30 7944 C 724.478 -4.23454 3.98825 0
M  V30 7945 N 723.454 -4.34242 3.27009 0
M  V30 7946 H 727.256 -2.05088 2.10514 0
M  V30 7947 H 724.77 -1.059 1.23122 0
M  V30 7948 H 726.767 -4.10279 0.740034 0
M  V30 7949 H 725.427 -3.24631 -0.0667068 0
M  V30 7950 H 726.438 -3.72363 3.59953 0
M  V30 7951 H 723.115 -4.0437 1.03879 0
M  V30 7952 H 724.505 -4.41696 5.06314 0
M  V30 7953 N 727.225 -1.14528 -1.08264 0
M  V30 7954 C 728.155 -0.856356 -2.1723 0
M  V30 7955 C 729.136 0.189251 -1.69044 0
M  V30 7956 O 730.321 0.0456119 -1.94146 0
M  V30 7957 C 727.451 -0.334662 -3.45684 0
M  V30 7958 C 726.405 -1.31588 -4.0727 0
M  V30 7959 C 725.731 -0.653428 -5.30692 0
M  V30 7960 C 727.031 -2.67866 -4.48381 0
M  V30 7961 H 728.725 -1.76755 -2.41657 0
M  V30 7962 H 726.271 -0.851287 -1.16143 0
M  V30 7963 H 728.224 -0.120128 -4.21229 0
M  V30 7964 H 726.948 0.611967 -3.20815 0
M  V30 7965 H 725.607 -1.51661 -3.33758 0
M  V30 7966 H 725.255 0.299054 -5.0211 0
M  V30 7967 H 724.955 -1.30817 -5.72853 0
M  V30 7968 H 726.479 -0.448453 -6.08951 0
M  V30 7969 H 727.893 -2.51692 -5.15096 0
M  V30 7970 H 726.29 -3.29627 -5.01464 0
M  V30 7971 H 727.36 -3.24632 -3.60198 0
M  V30 7972 N 728.703 1.26451 -0.940633 0
M  V30 7973 C 729.952 1.93071 -0.583656 0
M  V30 7974 C 730.265 1.74618 0.881366 0
M  V30 7975 O 731.471 2.35689 1.34769 0
M  V30 7976 C 729.927 3.45927 -0.993106 0
M  V30 7977 C 729.535 3.73115 -2.4797 0
M  V30 7978 C 731.279 4.18554 -0.707998 0
M  V30 7979 C 729.186 5.19408 -2.82788 0
M  V30 7980 H 728.116 0.722824 -0.214572 0
M  V30 7981 H 730.767 1.43538 -1.1432 0
M  V30 7982 H 729.149 3.94341 -0.362099 0
M  V30 7983 H 730.323 3.35408 -3.15971 0
M  V30 7984 H 728.638 3.13719 -2.73805 0
M  V30 7985 H 731.235 5.26293 -0.94447 0
M  V30 7986 H 731.578 4.14782 0.355225 0
M  V30 7987 H 732.111 3.76003 -1.2987 0
M  V30 7988 H 728.85 5.28281 -3.88071 0
M  V30 7989 H 728.37 5.58214 -2.19449 0
M  V30 7990 H 730.049 5.87407 -2.71224 0
M  V30 7991 N 730.181 0.707592 1.40822 0
M  V30 7992 C 731.091 0.0507246 2.34545 0
M  V30 7993 C 732.107 -0.752727 1.56876 0
M  V30 7994 O 733.283 -0.687524 1.89302 0
M  V30 7995 C 730.348 -0.865731 3.35717 0
M  V30 7996 C 729.409 -0.0531313 4.29267 0
M  V30 7997 C 728.642 -0.925939 5.25606 0
M  V30 7998 O 728.865 -2.16531 5.27703 0
M  V30 7999 O 727.799 -0.369194 6.00767 0
M  V30 8000 H 731.625 0.823587 2.9232 0
M  V30 8001 H 729.21 0.46801 1.4188 0
M  V30 8002 H 731.092 -1.39091 3.97783 0
M  V30 8003 H 729.767 -1.61788 2.80368 0
M  V30 8004 H 728.674 0.516931 3.70511 0
M  V30 8005 H 730.007 0.660617 4.87747 0
M  V30 8006 N 731.66 -1.50943 0.453197 0
M  V30 8007 C 732.623 -2.26684 -0.338705 0
M  V30 8008 C 733.623 -1.30748 -0.936032 0
M  V30 8009 O 734.813 -1.54327 -0.808002 0
M  V30 8010 C 731.945 -3.07063 -1.48071 0
M  V30 8011 H 733.138 -2.98131 0.325289 0
M  V30 8012 H 730.691 -1.54926 0.206771 0
M  V30 8013 H 731.426 -2.4007 -2.18029 0
M  V30 8014 H 731.211 -3.77545 -1.0584 0
M  V30 8015 H 732.701 -3.64393 -2.0398 0
M  V30 8016 N 733.138 -0.185124 -1.56509 0
M  V30 8017 C 734.415 0.503348 -1.89013 0
M  V30 8018 C 734.795 1.80349 -1.09715 0
M  V30 8019 O 734.143 2.27665 -0.195203 0
M  V30 8020 C 734.353 0.731839 -3.41241 0
M  V30 8021 C 735.701 1.05568 -4.11267 0
M  V30 8022 O 736.725 0.819906 -3.46635 0
M  V30 8023 O 735.584 1.50116 -5.25478 0
M  V30 8024 H 732.678 0.261139 -0.784688 0
M  V30 8025 H 735.224 -0.224592 -1.68207 0
M  V30 8026 H 733.996 -0.18672 -3.90854 0
M  V30 8027 H 733.619 1.5126 -3.67704 0
M  V30 8028 N 734.616 1.57351 0.0885366 0
M  V30 8029 C 735.546 2.05561 1.10757 0
M  V30 8030 C 736.527 0.945789 1.41382 0
M  V30 8031 O 737.712 1.21747 1.51299 0
M  V30 8032 C 734.842 2.48554 2.42566 0
M  V30 8033 C 733.796 3.63259 2.26334 0
M  V30 8034 C 733.122 3.9225 3.63378 0
M  V30 8035 C 734.422 4.93913 1.69844 0
M  V30 8036 H 736.116 2.90946 0.706468 0
M  V30 8037 H 733.662 1.39968 0.338385 0
M  V30 8038 H 735.615 2.8089 3.14132 0
M  V30 8039 H 734.339 1.60176 2.84625 0
M  V30 8040 H 732.998 3.31179 1.57213 0
M  V30 8041 H 732.646 3.0103 4.02976 0
M  V30 8042 H 732.346 4.69478 3.53362 0
M  V30 8043 H 733.87 4.27067 4.36401 0
M  V30 8044 H 735.284 5.24588 2.31258 0
M  V30 8045 H 733.681 5.75349 1.70569 0
M  V30 8046 H 734.751 4.80409 0.65843 0
M  V30 8047 N 736.094 -0.359525 1.53444 0
M  V30 8048 C 737.51 -0.701599 1.43352 0
M  V30 8049 C 737.71 -1.93049 0.577439 0
M  V30 8050 O 736.766 -2.52423 0.0622224 0
M  V30 8051 C 738.079 -0.90915 2.86627 0
M  V30 8052 C 739.627 -1.00878 2.96298 0
M  V30 8053 C 740.102 -1.24876 4.40647 0
M  V30 8054 N 741.593 -1.31632 4.44103 0
M  V30 8055 C 742.328 -1.51922 5.52908 0
M  V30 8056 N 741.824 -1.69489 6.71748 0
M  V30 8057 N 743.617 -1.54341 5.40496 0
M  V30 8058 H 735.768 0.448685 2.07607 0
M  V30 8059 H 738.031 0.138713 0.937797 0
M  V30 8060 H 737.737 -0.0778997 3.51614 0
M  V30 8061 H 737.611 -1.81551 3.30634 0
M  V30 8062 H 739.998 -1.83057 2.31461 0
M  V30 8063 H 740.079 -0.0796721 2.55676 0
M  V30 8064 H 739.723 -0.431961 5.0606 0
M  V30 8065 H 739.653 -2.19118 4.78848 0
M  V30 8066 H 742.144 -1.19646 3.5846 0
M  V30 8067 H 742.457 -1.84561 7.50438 0
M  V30 8068 H 740.802 -1.66655 6.74723 0
M  V30 8069 H 743.993 -1.40188 4.46615 0
M  V30 8070 H 744.166 -1.69812 6.25354 0
M  V30 8071 N 737.572 -1.44907 -0.619662 0
M  V30 8072 C 738.52 -1.52971 -1.75222 0
M  V30 8073 C 739.514 -0.400531 -1.64597 0
M  V30 8074 O 740.72 -0.575952 -1.70537 0
M  V30 8075 H 737.095 -0.480241 -0.578682 0
M  V30 8076 H 739.066 -2.48269 -1.65545 0
M  V30 8077 C 737.815 -1.50204 -3.13583 0
M  V30 8078 H 737.138 -2.36412 -3.22412 0
M  V30 8079 H 738.578 -1.59905 -3.92691 0
M  V30 8080 C 737.037 -0.22455 -3.36151 0
M  V30 8081 O 737.567 0.700574 -3.95544 0
M  V30 8082 N 735.773 -0.124052 -2.90335 0
M  V30 8083 H 735.32 -0.87774 -2.42185 0
M  V30 8084 H 735.278 0.729914 -3.0581 0
M  V30 8085 N 739.05 0.861098 -1.31996 0
M  V30 8086 C 740.297 1.61481 -1.22188 0
M  V30 8087 C 740.625 1.93276 0.217853 0
M  V30 8088 O 739.88 1.56942 1.16909 0
M  V30 8089 C 740.179 2.94822 -2.02027 0
M  V30 8090 C 739.845 2.82483 -3.51446 0
M  V30 8091 C 738.507 2.78825 -3.92186 0
M  V30 8092 C 740.859 2.68878 -4.46491 0
M  V30 8093 C 738.187 2.59433 -5.26224 0
M  V30 8094 C 740.539 2.51022 -5.80664 0
M  V30 8095 C 739.203 2.45753 -6.20614 0
M  V30 8096 H 738.473 0.590902 -0.447119 0
M  V30 8097 H 741.12 0.999376 -1.63355 0
M  V30 8098 H 739.425 3.6045 -1.53569 0
M  V30 8099 H 741.122 3.52149 -1.91812 0
M  V30 8100 H 737.712 2.86152 -3.19085 0
M  V30 8101 H 741.896 2.70754 -4.1594 0
M  V30 8102 H 737.152 2.53784 -5.5624 0
M  V30 8103 H 741.326 2.39473 -6.53931 0
M  V30 8104 H 738.953 2.30485 -7.24417 0
M  V30 8105 N 740.528 1.15101 1.07655 0
M  V30 8106 C 741.438 0.858869 2.18313 0
M  V30 8107 C 742.454 -0.163641 1.73229 0
M  V30 8108 O 743.63 0.00969541 2.01398 0
M  V30 8109 C 740.695 0.34893 3.4494 0
M  V30 8110 C 739.756 1.43495 4.04608 0
M  V30 8111 C 738.989 0.949253 5.2519 0
M  V30 8112 O 739.212 -0.20636 5.70027 0
M  V30 8113 O 738.146 1.73161 5.76454 0
M  V30 8114 H 741.972 1.78386 2.45788 0
M  V30 8115 H 739.557 0.929876 1.16934 0
M  V30 8116 H 741.439 0.070851 4.2134 0
M  V30 8117 H 740.114 -0.548237 3.19024 0
M  V30 8118 H 739.021 1.7666 3.29761 0
M  V30 8119 H 740.354 2.30692 4.3479 0
M  V30 8120 N 742.006 -1.2595 0.947325 0
M  V30 8121 C 743.255 -1.92759 0.593887 0
M  V30 8122 C 743.568 -1.75083 -0.872093 0
M  V30 8123 O 744.774 -2.36401 -1.33518 0
M  V30 8124 C 743.23 -3.45395 1.01144 0
M  V30 8125 C 742.838 -3.71795 2.49946 0
M  V30 8126 C 744.582 -4.18173 0.730185 0
M  V30 8127 C 742.489 -5.17901 2.85539 0
M  V30 8128 H 741.419 -0.721676 0.218403 0
M  V30 8129 H 744.07 -1.4293 1.15079 0
M  V30 8130 H 742.452 -3.94143 0.383007 0
M  V30 8131 H 743.626 -3.33728 3.17746 0
M  V30 8132 H 741.941 -3.12263 2.75465 0
M  V30 8133 H 744.538 -5.25784 0.972367 0
M  V30 8134 H 744.881 -4.14964 -0.333223 0
M  V30 8135 H 745.414 -3.75309 1.31862 0
M  V30 8136 H 742.153 -5.26216 3.90867 0
M  V30 8137 H 741.673 -5.57042 2.22406 0
M  V30 8138 H 743.352 -5.8596 2.74336 0
M  V30 8139 N 743.484 -0.715051 -1.40445 0
M  V30 8140 C 744.709 -0.26254 -2.05732 0
M  V30 8141 C 745.134 1.08691 -1.53519 0
M  V30 8142 O 744.492 1.68453 -0.670328 0
M  V30 8143 C 744.54 -0.25195 -3.59719 0
M  V30 8144 O 743.644 0.766998 -4.05205 0
M  V30 8145 H 742.985 -0.123398 -0.652433 0
M  V30 8146 H 745.515 -0.975382 -1.79854 0
M  V30 8147 H 745.525 -0.0894537 -4.07902 0
M  V30 8148 H 744.2 -1.23672 -3.97087 0
M  V30 8149 H 742.777 0.572269 -3.68483 0
M  V30 8150 N 744.962 1.50701 -0.461195 0
M  V30 8151 C 745.909 2.2831 0.338094 0
M  V30 8152 C 746.879 1.32928 0.995957 0
M  V30 8153 O 748.064 1.61857 1.0103 0
M  V30 8154 C 745.204 3.14539 1.41983 0
M  V30 8155 C 744.317 4.24942 0.77773 0
M  V30 8156 C 743.452 4.98443 1.83652 0
M  V30 8157 C 742.491 6.00733 1.17413 0
M  V30 8158 N 741.628 6.6755 2.17533 0
M  V30 8159 H 746.468 2.96167 -0.330051 0
M  V30 8160 H 744.005 1.4606 -0.174611 0
M  V30 8161 H 745.963 3.62877 2.05855 0
M  V30 8162 H 744.593 2.48749 2.05727 0
M  V30 8163 H 743.645 3.80391 0.0266924 0
M  V30 8164 H 744.957 4.98151 0.254362 0
M  V30 8165 H 744.111 5.50449 2.55129 0
M  V30 8166 H 742.85 4.24917 2.39367 0
M  V30 8167 H 741.855 5.47997 0.444944 0
M  V30 8168 H 743.08 6.76227 0.624006 0
M  V30 8169 H 741.026 5.96823 2.72284 0
M  V30 8170 H 740.943 7.36603 1.70154 0
M  V30 8171 H 742.211 7.24178 2.88421 0
M  V30 8172 N 746.441 0.193421 1.56409 0
M  V30 8173 C 747.669 -0.451438 2.01915 0
M  V30 8174 C 748.084 -1.55306 1.07357 0
M  V30 8175 O 747.441 -1.82333 0.0781512 0
M  V30 8176 C 747.492 -1.00931 3.47124 0
M  V30 8177 O 747.213 0.0483623 4.38073 0
M  V30 8178 C 748.714 -1.73021 4.0814 0
M  V30 8179 H 745.934 -0.113495 0.661332 0
M  V30 8180 H 748.478 0.301636 2.02263 0
M  V30 8181 H 746.633 -1.71277 3.47481 0
M  V30 8182 H 747.047 -0.366644 5.23217 0
M  V30 8183 H 748.521 -2.07289 5.11601 0
M  V30 8184 H 748.998 -2.6333 3.51502 0
M  V30 8185 H 749.604 -1.07264 4.11551 0
M  V30 8186 N 747.919 -1.57396 -0.0801906 0
M  V30 8187 C 748.867 -2.04136 -1.11495 0
M  V30 8188 C 749.861 -0.945137 -1.40583 0
M  V30 8189 O 751.067 -1.13028 -1.40088 0
M  V30 8190 H 747.442 -0.65076 -0.37685 0
M  V30 8191 H 749.413 -2.90205 -0.694526 0
M  V30 8192 C 748.162 -2.49399 -2.42272 0
M  V30 8193 H 747.485 -3.33339 -2.20737 0
M  V30 8194 H 748.925 -2.85864 -3.13142 0
M  V30 8195 C 747.384 -1.37341 -3.07635 0
M  V30 8196 O 747.914 -0.710829 -3.95361 0
M  V30 8197 N 746.12 -1.12064 -2.68123 0
M  V30 8198 H 745.667 -1.66126 -1.96875 0
M  V30 8199 H 745.625 -0.372916 -3.12181 0
M  V30 8200 N 749.397 0.351382 -1.53633 0
M  V30 8201 C 750.646 1.08988 -1.69719 0
M  V30 8202 C 750.959 1.90043 -0.462948 0
M  V30 8203 O 752.165 2.66769 -0.504613 0
M  V30 8204 C 750.621 1.98691 -3.00083 0
M  V30 8205 C 750.229 1.22881 -4.30818 0
M  V30 8206 C 751.973 2.72446 -3.25536 0
M  V30 8207 C 749.88 2.11568 -5.52262 0
M  V30 8208 H 748.81 0.410588 -0.632403 0
M  V30 8209 H 751.461 0.349886 -1.80133 0
M  V30 8210 H 749.843 2.76478 -2.83506 0
M  V30 8211 H 751.017 0.500582 -4.58073 0
M  V30 8212 H 749.332 0.60928 -4.11918 0
M  V30 8213 H 751.929 3.39055 -4.13456 0
M  V30 8214 H 752.272 3.38588 -2.42206 0
M  V30 8215 H 752.805 2.01735 -3.42852 0
M  V30 8216 H 749.544 1.4998 -6.38111 0
M  V30 8217 H 749.064 2.82201 -5.29266 0
M  V30 8218 H 750.743 2.70802 -5.87601 0
M  V30 8219 N 750.875 1.45233 0.611969 0
M  V30 8220 C 752.1 1.52767 1.40274 0
M  V30 8221 C 752.525 0.159701 1.87421 0
M  V30 8222 O 751.883 -0.854837 1.59882 0
M  V30 8223 C 751.931 2.51286 2.58626 0
M  V30 8224 O 751.035 2.02764 3.59111 0
M  V30 8225 H 750.376 0.515141 0.418958 0
M  V30 8226 H 752.906 1.90547 0.745188 0
M  V30 8227 H 752.916 2.69949 3.05927 0
M  V30 8228 H 751.591 3.50641 2.23659 0
M  V30 8229 H 750.168 1.93957 3.18489 0
M  V30 8230 N 752.353 -0.854086 1.3245 0
M  V30 8231 C 753.285 -1.96932 1.17262 0
M  V30 8232 C 754.298 -1.62445 0.107469 0
M  V30 8233 O 755.487 -1.74904 0.356481 0
M  V30 8234 C 752.587 -3.29971 0.772817 0
M  V30 8235 C 751.76 -3.92695 1.92638 0
M  V30 8236 C 750.819 -5.04068 1.51003 0
M  V30 8237 O 749.845 -5.24032 2.22213 0
M  V30 8238 N 751.047 -5.79076 0.406371 0
M  V30 8239 H 753.812 -2.10503 2.13327 0
M  V30 8240 H 751.373 -1.02897 1.24995 0
M  V30 8241 H 753.365 -4.01883 0.476684 0
M  V30 8242 H 751.935 -3.1245 -0.0967 0
M  V30 8243 H 751.155 -3.13563 2.38897 0
M  V30 8244 H 752.443 -4.31337 2.69863 0
M  V30 8245 H 751.841 -5.65393 -0.186302 0
M  V30 8246 H 750.398 -6.51579 0.169846 0
M  V30 8247 N 753.831 -1.1567 -1.07043 0
M  V30 8248 C 755.056 -0.957946 -1.83952 0
M  V30 8249 C 755.481 0.488807 -1.81638 0
M  V30 8250 O 754.839 1.34869 -1.21162 0
M  V30 8251 C 754.887 -1.48064 -3.288 0
M  V30 8252 O 753.991 -0.681921 -4.06723 0
M  V30 8253 H 753.332 -0.341453 -0.569479 0
M  V30 8254 H 755.862 -1.53728 -1.35015 0
M  V30 8255 H 755.872 -1.49484 -3.7963 0
M  V30 8256 H 754.547 -2.53388 -3.29799 0
M  V30 8257 H 753.124 -0.737612 -3.65532 0
M  V30 8258 N 755.309 1.25446 -0.953992 0
M  V30 8259 C 756.537 1.97215 -0.625595 0
M  V30 8260 C 756.952 1.70911 0.802168 0
M  V30 8261 O 756.309 0.984782 1.5365 0
M  V30 8262 C 756.36 3.50777 -0.873943 0
M  V30 8263 O 756.081 3.76173 -2.24556 0
M  V30 8264 C 757.582 4.39776 -0.557845 0
M  V30 8265 H 754.802 0.628652 -0.2346 0
M  V30 8266 H 757.346 1.59632 -1.27819 0
M  V30 8267 H 755.501 3.86474 -0.267765 0
M  V30 8268 H 755.915 4.70636 -2.31522 0
M  V30 8269 H 757.389 5.46431 -0.782157 0
M  V30 8270 H 757.866 4.36257 0.507573 0
M  V30 8271 H 758.472 4.09644 -1.14332 0
M  V30 8272 N 756.787 0.722489 1.40064 0
M  V30 8273 C 757.697 0.0755984 2.34478 0
M  V30 8274 C 758.713 -0.736046 1.57665 0
M  V30 8275 O 759.889 -0.667407 1.9002 0
M  V30 8276 C 756.954 -0.830075 3.36616 0
M  V30 8277 C 756.015 -0.00759884 4.29299 0
M  V30 8278 C 755.248 -0.870139 5.26559 0
M  V30 8279 O 755.471 -2.10921 5.2997 0
M  V30 8280 O 754.405 -0.305454 6.01124 0
M  V30 8281 H 758.231 0.854545 2.9143 0
M  V30 8282 H 755.816 0.483032 1.41376 0
M  V30 8283 H 757.698 -1.34864 3.99236 0
M  V30 8284 H 756.373 -1.58805 2.82069 0
M  V30 8285 H 755.28 0.556199 3.69942 0
M  V30 8286 H 756.613 0.712312 4.87018 0
M  V30 8287 N 758.265 -1.50454 0.469181 0
M  V30 8288 C 759.197 -2.26319 -0.362247 0
M  V30 8289 C 760.21 -1.31574 -0.958751 0
M  V30 8290 O 761.399 -1.57099 -0.847482 0
M  V30 8291 C 758.499 -3.02808 -1.52187 0
M  V30 8292 C 757.672 -4.24893 -1.03849 0
M  V30 8293 C 756.731 -4.83691 -2.07194 0
M  V30 8294 O 755.757 -5.44659 -1.65333 0
M  V30 8295 N 756.959 -4.70522 -3.39985 0
M  V30 8296 H 759.724 -2.98312 0.288124 0
M  V30 8297 H 757.285 -1.59099 0.299856 0
M  V30 8298 H 759.277 -3.39023 -2.21011 0
M  V30 8299 H 757.847 -2.33625 -2.07697 0
M  V30 8300 H 757.067 -3.93806 -0.176203 0
M  V30 8301 H 758.355 -5.04053 -0.693435 0
M  V30 8302 H 757.753 -4.2203 -3.76706 0
M  V30 8303 H 756.31 -5.11011 -4.04612 0
M  V30 8304 N 759.743 -0.201713 -1.56304 0
M  V30 8305 C 760.653 0.728296 -2.23009 0
M  V30 8306 C 761.669 1.22945 -1.23128 0
M  V30 8307 O 762.845 1.27523 -1.55884 0
M  V30 8308 C 759.91 1.92792 -2.88153 0
M  V30 8309 C 758.971 1.47068 -4.03323 0
M  V30 8310 C 758.204 2.61312 -4.65351 0
M  V30 8311 O 758.427 3.7896 -4.26317 0
M  V30 8312 O 757.361 2.33646 -5.54701 0
M  V30 8313 H 761.187 0.190166 -3.03104 0
M  V30 8314 H 758.772 0.0278725 -1.49374 0
M  V30 8315 H 760.654 2.6289 -3.29343 0
M  V30 8316 H 759.329 2.45452 -2.11033 0
M  V30 8317 H 758.236 0.738299 -3.66742 0
M  V30 8318 H 759.569 0.990666 -4.82127 0
M  V30 8319 N 761.222 1.57436 0.0718424 0
M  V30 8320 C 762.155 1.98982 1.11721 0
M  V30 8321 C 763.133 0.866731 1.37574 0
M  V30 8322 O 764.317 1.12903 1.50948 0
M  V30 8323 C 761.444 2.32648 2.46155 0
M  V30 8324 C 760.49 3.54964 2.36437 0
M  V30 8325 S 761.323 5.05802 1.75854 0
M  V30 8326 C 762.479 5.42669 3.11867 0
M  V30 8327 H 762.712 2.87338 0.763154 0
M  V30 8328 H 760.245 1.51833 0.280372 0
M  V30 8329 H 762.203 2.52719 3.23486 0
M  V30 8330 H 760.864 1.44821 2.78722 0
M  V30 8331 H 760.057 3.76038 3.35577 0
M  V30 8332 H 759.659 3.34524 1.67242 0
M  V30 8333 H 761.951 5.40737 4.08178 0
M  V30 8334 H 762.894 6.43461 2.95573 0
M  V30 8335 H 763.302 4.70131 3.1247 0
M  V30 8336 N 762.7 -0.34323 1.53817 0
M  V30 8337 C 763.663 -1.40444 1.8113 0
M  V30 8338 C 764.663 -1.45604 0.682366 0
M  V30 8339 O 765.853 -1.45974 0.950649 0
M  V30 8340 C 762.985 -2.79369 1.95361 0
M  V30 8341 H 764.178 -1.17489 2.75928 0
M  V30 8342 H 761.731 -0.577636 1.45234 0
M  V30 8343 H 762.466 -3.07607 1.02707 0
M  V30 8344 H 762.251 -2.7702 2.77493 0
M  V30 8345 H 763.741 -3.56178 2.18008 0
M  V30 8346 N 764.178 -1.45556 -0.604258 0
M  V30 8347 C 765.403 -1.53509 -1.39462 0
M  V30 8348 C 765.828 -0.169638 -1.87333 0
M  V30 8349 O 765.186 0.846346 -1.60333 0
M  V30 8350 C 765.234 -2.52654 -2.5729 0
M  V30 8351 O 764.338 -2.04666 -3.5803 0
M  V30 8352 H 763.679 -0.517355 -0.416221 0
M  V30 8353 H 766.209 -1.90939 -0.735072 0
M  V30 8354 H 766.219 -2.71568 -3.04491 0
M  V30 8355 H 764.894 -3.51823 -2.21797 0
M  V30 8356 H 763.471 -1.95643 -3.17456 0
M  V30 8357 N 765.656 0.84705 -1.32902 0
M  V30 8358 C 766.586 1.97166 -1.25091 0
M  V30 8359 C 767.567 1.69578 -0.133161 0
M  V30 8360 O 768.752 1.91519 -0.321591 0
M  V30 8361 C 765.882 3.33157 -0.981006 0
M  V30 8362 C 764.836 3.75119 -2.06082 0
M  V30 8363 C 764.162 5.08826 -1.64318 0
M  V30 8364 C 765.462 3.89774 -3.47669 0
M  V30 8365 H 767.156 2.03958 -2.19184 0
M  V30 8366 H 764.702 0.979907 -1.05517 0
M  V30 8367 H 766.655 4.11393 -0.912891 0
M  V30 8368 H 765.379 3.266 -0.00445559 0
M  V30 8369 H 764.038 2.9914 -2.11921 0
M  V30 8370 H 763.686 4.98732 -0.653876 0
M  V30 8371 H 763.386 5.37873 -2.36572 0
M  V30 8372 H 764.91 5.89546 -1.58958 0
M  V30 8373 H 766.324 4.58343 -3.44376 0
M  V30 8374 H 764.721 4.30248 -4.18338 0
M  V30 8375 H 765.791 2.92463 -3.86773 0
M  V30 8376 N 767.134 1.16236 1.06428 0
M  V30 8377 C 768.38 0.954417 1.79617 0
M  V30 8378 C 768.735 -0.512411 1.85451 0
M  V30 8379 O 768.028 -1.37523 1.33409 0
M  V30 8380 C 768.222 1.51396 3.2375 0
M  V30 8381 C 768.051 3.03367 3.31962 0
M  V30 8382 C 766.821 3.71996 3.41975 0
M  V30 8383 C 769.019 4.01075 3.21937 0
M  V30 8384 N 767.001 5.11688 3.39187 0
M  V30 8385 C 768.372 5.27142 3.26376 0
M  V30 8386 C 770.427 3.92917 3.05812 0
M  V30 8387 C 769.13 6.46 3.16348 0
M  V30 8388 C 771.156 5.11344 2.97121 0
M  V30 8389 C 770.518 6.36291 3.02181 0
M  V30 8390 H 766.617 0.403007 0.670156 0
M  V30 8391 H 769.201 1.47605 1.26968 0
M  V30 8392 H 767.372 1.01883 3.74799 0
M  V30 8393 H 769.104 1.2439 3.85109 0
M  V30 8394 H 765.859 3.22623 3.46715 0
M  V30 8395 H 766.283 5.84676 3.41297 0
M  V30 8396 H 770.925 2.97172 3.00746 0
M  V30 8397 H 768.643 7.41968 3.2017 0
M  V30 8398 H 772.229 5.06801 2.85734 0
M  V30 8399 H 771.109 7.26389 2.95513 0
M  V30 8400 N 768.612 -1.24939 0.960631 0
M  V30 8401 C 769.837 -1.9742 0.635608 0
M  V30 8402 C 770.262 -1.70857 -0.786737 0
M  V30 8403 O 769.62 -0.968063 -1.53291 0
M  V30 8404 C 769.668 -3.48987 0.907771 0
M  V30 8405 O 768.772 -4.12399 -0.0104053 0
M  V30 8406 H 768.113 -0.61871 0.241027 0
M  V30 8407 H 770.643 -1.58901 1.28886 0
M  V30 8408 H 770.653 -3.99334 0.836453 0
M  V30 8409 H 769.328 -3.6765 1.94439 0
M  V30 8410 H 767.905 -3.72727 0.113631 0
M  V30 8411 N 770.09 -0.729906 -1.39679 0
M  V30 8412 C 771.337 -0.275622 -2.00615 0
M  V30 8413 C 771.665 1.13559 -1.57907 0
M  V30 8414 O 770.92 1.78745 -0.796789 0
M  V30 8415 C 771.219 -0.319564 -3.55968 0
M  V30 8416 C 770.885 -1.68308 -4.1831 0
M  V30 8417 C 769.547 -2.05629 -4.35052 0
M  V30 8418 C 771.899 -2.57857 -4.52945 0
M  V30 8419 C 769.227 -3.32018 -4.83716 0
M  V30 8420 C 771.579 -3.83613 -5.03015 0
M  V30 8421 C 770.243 -4.21033 -5.17965 0
M  V30 8422 H 769.513 -0.100857 -0.734104 0
M  V30 8423 H 772.16 -0.93575 -1.67081 0
M  V30 8424 H 770.465 0.42414 -3.89497 0
M  V30 8425 H 772.162 0.0499905 -4.00969 0
M  V30 8426 H 768.752 -1.3829 -4.05677 0
M  V30 8427 H 772.936 -2.30295 -4.39634 0
M  V30 8428 H 768.192 -3.6096 -4.93475 0
M  V30 8429 H 772.366 -4.53162 -5.28788 0
M  V30 8430 H 769.993 -5.19034 -5.55435 0
M  V30 8431 N 771.568 1.50203 -0.477153 0
M  V30 8432 C 772.845 1.95115 0.137609 0
M  V30 8433 C 773.225 1.41778 1.56404 0
M  V30 8434 O 772.573 0.621333 2.1989 0
M  V30 8435 C 772.783 3.4892 0.0747168 0
M  V30 8436 C 774.131 4.238 0.260585 0
M  V30 8437 O 775.155 3.5588 0.151021 0
M  V30 8438 O 774.014 5.44366 0.482534 0
M  V30 8439 H 771.108 0.81987 0.108364 0
M  V30 8440 H 773.654 1.60946 -0.537989 0
M  V30 8441 H 772.426 3.80308 -0.920966 0
M  V30 8442 H 772.049 3.89642 0.791509 0
M  V30 8443 N 773.046 0.209999 1.56195 0
M  V30 8444 C 774.323 -0.473214 1.89789 0
M  V30 8445 C 774.703 -1.78581 1.1257 0
M  V30 8446 O 774.051 -2.27325 0.231398 0
M  V30 8447 C 774.261 -0.677458 3.42362 0
M  V30 8448 C 775.609 -0.990114 4.12895 0
M  V30 8449 O 776.633 -0.764655 3.47896 0
M  V30 8450 O 775.492 -1.41737 5.278 0
M  V30 8451 H 772.586 -0.248622 0.788743 0
M  V30 8452 H 775.132 0.251324 1.67829 0
M  V30 8453 H 773.904 0.248878 3.90508 0
M  V30 8454 H 773.527 -1.45391 3.70064 0
M  V30 8455 N 774.524 -1.57472 -0.0634922 0
M  V30 8456 C 775.487 -2.03268 -1.059 0
M  V30 8457 C 776.487 -0.931028 -1.31105 0
M  V30 8458 O 777.677 -1.19567 -1.26686 0
M  V30 8459 C 774.809 -2.42039 -2.40062 0
M  V30 8460 H 776.002 -2.92454 -0.664119 0
M  V30 8461 H 773.555 -1.53206 -0.309444 0
M  V30 8462 H 774.29 -1.55904 -2.84367 0
M  V30 8463 H 774.075 -3.22437 -2.23108 0
M  V30 8464 H 775.565 -2.78017 -3.11603 0
M  V30 8465 N 776.003 0.335068 -1.53997 0
M  V30 8466 C 777.419 0.678704 -1.4445 0
M  V30 8467 C 777.619 1.92106 -0.608078 0
M  V30 8468 O 776.675 2.52292 -0.102373 0
M  V30 8469 C 777.988 0.863435 -2.88037 0
M  V30 8470 C 779.536 0.961513 -2.97866 0
M  V30 8471 C 780.011 1.1785 -4.42578 0
M  V30 8472 N 781.502 1.2455 -4.46141 0
M  V30 8473 C 782.237 1.43106 -5.55255 0
M  V30 8474 N 781.733 1.5878 -6.74359 0
M  V30 8475 N 783.526 1.45722 -5.42883 0
M  V30 8476 H 775.677 -0.481656 -2.06867 0
M  V30 8477 H 777.94 -0.153615 -0.935471 0
M  V30 8478 H 777.646 0.0219511 -3.51693 0
M  V30 8479 H 777.52 1.76268 -3.33481 0
M  V30 8480 H 779.907 1.79351 -2.34344 0
M  V30 8481 H 779.988 0.0389862 -2.5577 0
M  V30 8482 H 779.632 0.351397 -5.06683 0
M  V30 8483 H 779.562 2.11472 -4.82273 0
M  V30 8484 H 782.053 1.13928 -3.60318 0
M  V30 8485 H 782.366 1.72599 -7.53279 0
M  V30 8486 H 780.711 1.559 -6.77289 0
M  V30 8487 H 783.902 1.33065 -4.48789 0
M  V30 8488 H 784.075 1.59841 -6.27977 0
M  V30 8489 N 777.481 1.45874 0.596531 0
M  V30 8490 C 778.444 1.54988 1.68853 0
M  V30 8491 C 779.444 0.428302 1.54991 0
M  V30 8492 O 780.634 0.692158 1.59859 0
M  V30 8493 C 777.766 1.457 3.08195 0
M  V30 8494 H 778.959 2.52294 1.62135 0
M  V30 8495 H 776.512 1.33479 0.813206 0
M  V30 8496 H 777.247 0.496204 3.20481 0
M  V30 8497 H 777.032 2.27061 3.19665 0
M  V30 8498 H 778.522 1.55133 3.87716 0
M  V30 8499 N 778.959 -0.83999 1.33349 0
M  V30 8500 C 779.906 -1.94972 1.23509 0
M  V30 8501 C 780.876 -1.65709 0.113967 0
M  V30 8502 O 782.061 -1.88552 0.292045 0
M  V30 8503 C 779.201 -3.30919 0.979105 0
M  V30 8504 C 778.314 -3.72587 2.18639 0
M  V30 8505 C 777.449 -4.97397 1.86465 0
M  V30 8506 C 776.488 -5.31597 3.03432 0
M  V30 8507 N 775.625 -6.47584 2.71254 0
M  V30 8508 H 780.465 -2.0272 2.18423 0
M  V30 8509 H 778.002 -0.992017 1.08616 0
M  V30 8510 H 779.96 -4.09239 0.811126 0
M  V30 8511 H 778.59 -3.22731 0.0667099 0
M  V30 8512 H 777.642 -2.89799 2.46416 0
M  V30 8513 H 778.954 -3.93844 3.06086 0
M  V30 8514 H 778.108 -5.83462 1.66305 0
M  V30 8515 H 776.847 -4.78107 0.96254 0
M  V30 8516 H 775.852 -4.44037 3.24208 0
M  V30 8517 H 777.077 -5.52836 3.94397 0
M  V30 8518 H 775.023 -6.29783 1.836 0
M  V30 8519 H 774.94 -6.68931 3.52231 0
M  V30 8520 H 776.208 -7.36764 2.54558 0
M  V30 8521 N 780.437 -1.16799 -1.0581 0
M  V30 8522 C 781.4 -0.881396 -2.11575 0
M  V30 8523 C 782.4 0.12574 -1.60308 0
M  V30 8524 O 783.59 -0.105716 -1.73879 0
M  V30 8525 C 780.722 -0.319037 -3.39404 0
M  V30 8526 H 781.915 -1.81907 -2.38432 0
M  V30 8527 H 779.468 -0.977597 -1.21954 0
M  V30 8528 H 780.203 0.626082 -3.18199 0
M  V30 8529 H 779.988 -1.04481 -3.77923 0
M  V30 8530 H 781.478 -0.13663 -4.17376 0
M  V30 8531 N 781.915 1.24427 -0.967243 0
M  V30 8532 C 782.847 2.24641 -0.454856 0
M  V30 8533 C 783.86 1.56849 0.436152 0
M  V30 8534 O 785.049 1.76846 0.242401 0
M  V30 8535 C 782.149 3.36954 0.362672 0
M  V30 8536 C 781.322 4.34318 -0.518324 0
M  V30 8537 C 780.381 5.25638 0.243122 0
M  V30 8538 O 779.407 5.68043 -0.362791 0
M  V30 8539 N 780.609 5.59897 1.53282 0
M  V30 8540 H 783.374 2.69238 -1.31648 0
M  V30 8541 H 780.935 1.38464 -0.839015 0
M  V30 8542 H 782.927 3.95014 0.880094 0
M  V30 8543 H 781.497 2.91646 1.12522 0
M  V30 8544 H 780.717 3.74953 -1.21672 0
M  V30 8545 H 782.005 4.96338 -1.11919 0
M  V30 8546 H 781.403 5.27373 2.04682 0
M  V30 8547 H 779.96 6.20488 1.99594 0
M  V30 8548 N 783.393 0.737304 1.3929 0
M  V30 8549 C 784.64 0.286257 2.00467 0
M  V30 8550 C 784.968 -1.1272 1.58507 0
M  V30 8551 O 784.223 -1.7832 0.806257 0
M  V30 8552 C 784.522 0.338438 3.55794 0
M  V30 8553 C 784.188 1.70524 4.17411 0
M  V30 8554 C 782.85 2.07934 4.33955 0
M  V30 8555 C 785.202 2.60256 4.51571 0
M  V30 8556 C 782.53 3.34578 4.81948 0
M  V30 8557 C 784.882 3.86275 5.00974 0
M  V30 8558 C 783.546 4.23774 5.15725 0
M  V30 8559 H 782.816 0.104749 0.733559 0
M  V30 8560 H 785.463 0.944598 1.66582 0
M  V30 8561 H 783.768 -0.403478 3.89717 0
M  V30 8562 H 785.465 -0.0287255 4.0099 0
M  V30 8563 H 782.055 1.40439 4.04938 0
M  V30 8564 H 786.239 2.32624 4.38406 0
M  V30 8565 H 781.495 3.63572 4.91554 0
M  V30 8566 H 785.669 4.5596 5.26378 0
M  V30 8567 H 783.296 5.21972 5.52674 0
M  V30 8568 N 784.871 -1.49948 0.485112 0
M  V30 8569 C 785.781 -2.32587 -0.306697 0
M  V30 8570 C 786.797 -1.43598 -0.982632 0
M  V30 8571 O 787.973 -1.76638 -0.967519 0
M  V30 8572 C 785.038 -3.18638 -1.3664 0
M  V30 8573 C 784.099 -4.23462 -0.705589 0
M  V30 8574 C 783.332 -5.05401 -1.7148 0
M  V30 8575 O 783.555 -4.88618 -2.94293 0
M  V30 8576 O 782.489 -5.88157 -1.27889 0
M  V30 8577 H 786.315 -3.01447 0.369272 0
M  V30 8578 H 783.9 -1.47349 0.246709 0
M  V30 8579 H 785.782 -3.71992 -1.9799 0
M  V30 8580 H 784.457 -2.52491 -2.02559 0
M  V30 8581 H 783.364 -3.74063 -0.0527733 0
M  V30 8582 H 784.697 -4.92119 -0.0891187 0
M  V30 8583 N 786.349 -0.21828 -1.56081 0
M  V30 8584 C 787.259 0.704602 -2.23769 0
M  V30 8585 C 788.275 1.21633 -1.24425 0
M  V30 8586 O 789.451 1.25862 -1.57228 0
M  V30 8587 C 786.516 1.89725 -2.90182 0
M  V30 8588 C 785.577 1.42782 -4.0486 0
M  V30 8589 C 784.81 2.56361 -4.68097 0
M  V30 8590 O 785.033 3.74417 -4.30312 0
M  V30 8591 O 783.967 2.2775 -5.57148 0
M  V30 8592 H 787.793 0.158007 -3.03289 0
M  V30 8593 H 785.378 0.0120279 -1.49395 0
M  V30 8594 H 787.26 2.59382 -3.32113 0
M  V30 8595 H 785.935 2.432 -2.13624 0
M  V30 8596 H 784.842 0.699359 -3.67505 0
M  V30 8597 H 786.175 0.939474 -4.83151 0
M  V30 8598 N 787.827 1.57504 0.0551401 0
M  V30 8599 C 789.057 1.92015 0.762472 0
M  V30 8600 C 789.465 0.814088 1.7079 0
M  V30 8601 O 788.808 -0.220273 1.82375 0
M  V30 8602 C 788.87 3.22132 1.59598 0
M  V30 8603 C 788.534 4.49617 0.818141 0
M  V30 8604 C 789.531 5.19738 0.129933 0
M  V30 8605 C 787.216 4.96201 0.780387 0
M  V30 8606 C 789.21 6.34704 -0.585616 0
M  V30 8607 C 786.897 6.11069 0.0610756 0
M  V30 8608 C 787.895 6.80174 -0.62071 0
M  V30 8609 O 787.583 7.92849 -1.3284 0
M  V30 8610 H 787.315 0.638866 0.220967 0
M  V30 8611 H 789.869 2.05385 0.0246362 0
M  V30 8612 H 788.099 3.05016 2.37701 0
M  V30 8613 H 789.788 3.42166 2.18351 0
M  V30 8614 H 790.554 4.84767 0.150299 0
M  V30 8615 H 786.433 4.42275 1.30054 0
M  V30 8616 H 789.977 6.88578 -1.11833 0
M  V30 8617 H 785.874 6.45488 0.0386945 0
M  V30 8618 H 786.642 8.09062 -1.23938 0
M  V30 8619 N 789.305 -0.326896 1.54172 0
M  V30 8620 C 790.252 -1.40216 1.83325 0
M  V30 8621 C 791.222 -1.51538 0.680107 0
M  V30 8622 O 792.407 -1.66811 0.926206 0
M  V30 8623 C 789.547 -2.76626 2.0633 0
M  V30 8624 C 788.66 -2.73963 3.34019 0
M  V30 8625 C 787.795 -4.02198 3.47002 0
M  V30 8626 C 786.834 -3.93828 4.68578 0
M  V30 8627 N 785.971 -5.13787 4.78506 0
M  V30 8628 H 790.811 -1.14656 2.7506 0
M  V30 8629 H 788.348 -0.555089 1.36225 0
M  V30 8630 H 790.306 -3.55922 2.17659 0
M  V30 8631 H 788.936 -3.00503 1.1789 0
M  V30 8632 H 787.988 -1.86677 3.31445 0
M  V30 8633 H 789.3 -2.6366 4.2342 0
M  V30 8634 H 788.454 -4.89923 3.57855 0
M  V30 8635 H 787.193 -4.15302 2.55687 0
M  V30 8636 H 786.198 -3.04487 4.57786 0
M  V30 8637 H 787.423 -3.82292 5.61275 0
M  V30 8638 H 785.369 -5.27403 3.90105 0
M  V30 8639 H 785.286 -5.05807 5.61868 0
M  V30 8640 H 786.554 -6.03236 4.93686 0
M  V30 8641 N 790.784 -1.46188 -0.588786 0
M  V30 8642 C 792.2 -1.31009 -0.911524 0
M  V30 8643 C 792.4 -0.277017 -1.99587 0
M  V30 8644 O 791.456 0.322532 -2.50432 0
M  V30 8645 C 792.769 -2.69459 -1.33463 0
M  V30 8646 C 794.317 -2.77502 -1.44782 0
M  V30 8647 C 794.792 -4.1652 -1.90461 0
M  V30 8648 N 796.283 -4.18907 -1.97665 0
M  V30 8649 C 797.018 -5.23359 -2.34271 0
M  V30 8650 N 796.514 -6.38143 -2.69714 0
M  V30 8651 N 798.307 -5.10723 -2.34774 0
M  V30 8652 H 790.458 -2.12016 0.127614 0
M  V30 8653 H 792.721 -0.947984 -0.00557599 0
M  V30 8654 H 792.427 -3.46336 -0.611929 0
M  V30 8655 H 792.301 -2.99165 -2.2974 0
M  V30 8656 H 794.688 -2.00917 -2.1614 0
M  V30 8657 H 794.769 -2.51488 -0.467724 0
M  V30 8658 H 794.413 -4.93597 -1.19684 0
M  V30 8659 H 794.343 -4.39937 -2.89418 0
M  V30 8660 H 796.834 -3.36084 -1.72789 0
M  V30 8661 H 797.147 -7.13624 -2.96582 0
M  V30 8662 H 795.492 -6.41514 -2.67366 0
M  V30 8663 H 798.683 -4.20088 -2.06503 0
M  V30 8664 H 798.856 -5.9224 -2.62975 0
M  V30 8665 N 792.262 0.832906 -1.33792 0
M  V30 8666 C 793.21 1.96455 -1.24532 0
M  V30 8667 C 794.204 1.68774 -0.145455 0
M  V30 8668 O 795.41 1.77314 -0.309797 0
M  V30 8669 H 791.785 0.645008 -0.386611 0
M  V30 8670 H 793.756 2.01389 -2.20193 0
M  V30 8671 C 792.505 3.32784 -1.00748 0
M  V30 8672 H 791.828 3.54626 -1.84609 0
M  V30 8673 H 793.268 4.12447 -0.98301 0
M  V30 8674 C 791.727 3.35654 0.289475 0
M  V30 8675 O 792.257 3.80281 1.29419 0
M  V30 8676 N 790.463 2.88843 0.3191 0
M  V30 8677 H 790.01 2.52719 -0.499069 0
M  V30 8678 H 789.968 2.91145 1.18667 0
M  V30 8679 N 793.74 1.17359 1.05189 0
M  V30 8680 C 794.97 0.985099 1.81602 0
M  V30 8681 C 795.378 -0.469872 1.83273 0
M  V30 8682 O 794.721 -1.33806 1.25864 0
M  V30 8683 C 794.783 1.44956 3.2898 0
M  V30 8684 C 794.447 2.92666 3.50993 0
M  V30 8685 C 795.444 3.906 3.43115 0
M  V30 8686 C 793.129 3.30841 3.77954 0
M  V30 8687 C 795.123 5.24709 3.61883 0
M  V30 8688 C 792.81 4.65116 3.96371 0
M  V30 8689 C 793.808 5.61859 3.88335 0
M  V30 8690 O 793.496 6.93704 4.06238 0
M  V30 8691 H 793.228 0.348731 0.579105 0
M  V30 8692 H 795.782 1.56066 1.33539 0
M  V30 8693 H 794.012 0.817559 3.77959 0
M  V30 8694 H 795.701 1.22674 3.86919 0
M  V30 8695 H 796.467 3.62453 3.22262 0
M  V30 8696 H 792.346 2.5611 3.83313 0
M  V30 8697 H 795.89 6.00205 3.55527 0
M  V30 8698 H 791.787 4.92969 4.16715 0
M  V30 8699 H 792.555 7.00443 4.23463 0
M  V30 8700 N 795.218 -1.23913 0.973828 0
M  V30 8701 C 796.465 -1.92151 0.639079 0
M  V30 8702 C 796.793 -1.76064 -0.826545 0
M  V30 8703 O 796.048 -1.11126 -1.61088 0
M  V30 8704 C 796.347 -3.4406 0.967356 0
M  V30 8705 C 796.013 -3.80321 2.42212 0
M  V30 8706 C 794.675 -3.8993 2.81971 0
M  V30 8707 C 797.027 -3.97935 3.36596 0
M  V30 8708 C 794.355 -4.14575 4.15144 0
M  V30 8709 C 796.707 -4.24079 4.69404 0
M  V30 8710 C 795.371 -4.31908 5.08932 0
M  V30 8711 H 794.641 -0.70313 0.233856 0
M  V30 8712 H 797.288 -1.47072 1.22646 0
M  V30 8713 H 795.593 -3.90667 0.297807 0
M  V30 8714 H 797.29 -3.95077 0.686654 0
M  V30 8715 H 793.88 -3.73411 2.10385 0
M  V30 8716 H 798.064 -3.89908 3.07059 0
M  V30 8717 H 793.32 -4.18858 4.45385 0
M  V30 8718 H 797.494 -4.36652 5.42502 0
M  V30 8719 H 795.121 -4.50758 6.12145 0
M  V30 8720 N 796.696 -0.74468 -1.38897 0
M  V30 8721 C 797.606 -0.112892 -2.34328 0
M  V30 8722 C 798.622 0.71087 -1.58816 0
M  V30 8723 O 799.798 0.637092 -1.91058 0
M  V30 8724 C 796.863 0.776417 -3.37894 0
M  V30 8725 C 795.924 -0.0606999 -4.29257 0
M  V30 8726 C 795.157 0.786258 -5.27877 0
M  V30 8727 O 795.38 2.02463 -5.33259 0
M  V30 8728 O 794.314 0.209781 -6.01534 0
M  V30 8729 H 798.14 -0.900801 -2.90033 0
M  V30 8730 H 795.725 -0.505462 -1.4059 0
M  V30 8731 H 797.607 1.28496 -4.01331 0
M  V30 8732 H 796.282 1.54297 -2.84559 0
M  V30 8733 H 795.189 -0.614984 -3.69011 0
M  V30 8734 H 796.522 -0.789702 -4.85824 0
M  V30 8735 N 798.174 1.49689 -0.493057 0
M  V30 8736 C 799.422 2.02027 0.0541642 0
M  V30 8737 C 799.743 1.37554 1.38217 0
M  V30 8738 O 799.013 0.528174 1.88646 0
M  V30 8739 H 797.593 0.746646 0.0230069 0
M  V30 8740 H 800.255 1.83795 -0.648489 0
M  V30 8741 H 799.351 3.11523 0.189652 0
M  V30 8742 N 799.652 0.226554 1.55963 0
M  V30 8743 C 800.877 -0.411527 2.03276 0
M  V30 8744 C 801.302 -1.52206 1.10521 0
M  V30 8745 O 800.66 -1.81054 0.0943217 0
M  V30 8746 C 800.708 -0.915694 3.4878 0
M  V30 8747 O 799.812 -2.02672 3.59163 0
M  V30 8748 H 799.153 -0.0924907 0.657527 0
M  V30 8749 H 801.683 0.346656 2.01642 0
M  V30 8750 H 801.693 -1.22421 3.892 0
M  V30 8751 H 800.368 -0.102915 4.15773 0
M  V30 8752 H 798.945 -1.72445 3.30632 0
M  V30 8753 N 801.13 -1.57531 -0.0467866 0
M  V30 8754 C 802.06 -2.08425 -1.05268 0
M  V30 8755 C 803.041 -0.982941 -1.38825 0
M  V30 8756 O 804.226 -1.25716 -1.48018 0
M  V30 8757 C 801.356 -2.54897 -2.35891 0
M  V30 8758 C 800.31 -3.69132 -2.16623 0
M  V30 8759 C 799.636 -4.01747 -3.52851 0
M  V30 8760 C 800.936 -4.98243 -1.56689 0
M  V30 8761 H 802.63 -2.92716 -0.62908 0
M  V30 8762 H 800.176 -1.40816 -0.301156 0
M  V30 8763 H 802.129 -2.8912 -3.06574 0
M  V30 8764 H 800.853 -1.67666 -2.80278 0
M  V30 8765 H 799.512 -3.35231 -1.48377 0
M  V30 8766 H 799.16 -3.11608 -3.94853 0
M  V30 8767 H 798.86 -4.78681 -3.4079 0
M  V30 8768 H 800.384 -4.38487 -4.24925 0
M  V30 8769 H 801.798 -5.30535 -2.17268 0
M  V30 8770 H 800.195 -5.79669 -1.55255 0
M  V30 8771 H 801.265 -4.81986 -0.530827 0
M  V30 8772 N 802.608 0.318715 -1.54344 0
M  V30 8773 C 803.856 1.054 -1.72439 0
M  V30 8774 C 804.177 1.88388 -0.503495 0
M  V30 8775 O 803.447 1.89866 0.48246 0
M  V30 8776 H 802.027 0.392124 -0.635805 0
M  V30 8777 H 804.689 0.35398 -1.91659 0
M  V30 8778 H 803.785 1.71726 -2.60608 0
M  V30 8779 N 804.086 1.46499 0.581025 0
M  V30 8780 C 804.996 1.59778 1.71779 0
M  V30 8781 C 806.012 0.481223 1.67213 0
M  V30 8782 O 807.188 0.74557 1.87091 0
M  V30 8783 C 804.253 1.58626 3.08283 0
M  V30 8784 C 803.314 2.81527 3.241 0
M  V30 8785 C 802.547 2.80421 4.54092 0
M  V30 8786 O 802.77 1.89262 5.38085 0
M  V30 8787 O 801.704 3.71984 4.73193 0
M  V30 8788 H 805.53 2.55918 1.63523 0
M  V30 8789 H 803.115 1.29311 0.748267 0
M  V30 8790 H 804.997 1.60686 3.89561 0
M  V30 8791 H 803.672 0.656467 3.16973 0
M  V30 8792 H 802.579 2.85021 2.42309 0
M  V30 8793 H 803.912 3.73721 3.20302 0
M  V30 8794 N 805.565 -0.825799 1.34232 0
M  V30 8795 C 806.842 -1.56741 1.17011 0
M  V30 8796 C 807.222 -2.09512 -0.258425 0
M  V30 8797 O 806.57 -1.90664 -1.25935 0
M  V30 8798 C 806.78 -2.69104 2.22225 0
M  V30 8799 C 808.128 -3.37947 2.57055 0
M  V30 8800 O 809.152 -2.79358 2.20992 0
M  V30 8801 O 808.011 -4.43743 3.1899 0
M  V30 8802 H 805.105 -0.69163 0.453405 0
M  V30 8803 H 807.651 -0.867422 1.45856 0
M  V30 8804 H 806.423 -2.27844 3.18124 0
M  V30 8805 H 806.046 -3.46756 1.94541 0
M  V30 8806 N 807.043 -1.17915 -1.04565 0
M  V30 8807 C 808.32 -0.881187 -1.74627 0
M  V30 8808 C 808.7 0.617123 -2.01878 0
M  V30 8809 O 808.048 1.57032 -1.65991 0
M  V30 8810 C 808.258 -1.72299 -3.03503 0
M  V30 8811 C 809.606 -1.94688 -3.77335 0
M  V30 8812 O 810.63 -1.6931 -3.13389 0
M  V30 8813 O 809.489 -2.37379 -4.92253 0
M  V30 8814 H 806.583 -0.326864 -0.759664 0
M  V30 8815 H 809.129 -1.28642 -1.10676 0
M  V30 8816 H 807.901 -2.73891 -2.79462 0
M  V30 8817 H 807.524 -1.31593 -3.75192 0
M  V30 8818 N 808.521 1.23394 -0.980386 0
M  V30 8819 C 809.469 2.26872 -0.513018 0
M  V30 8820 C 810.463 1.63853 0.429948 0
M  V30 8821 O 811.669 1.77417 0.303842 0
M  V30 8822 H 808.044 0.737398 -0.147473 0
M  V30 8823 H 810.015 2.63654 -1.39746 0
M  V30 8824 C 808.764 3.47289 0.168962 0
M  V30 8825 H 808.087 3.96033 -0.547546 0
M  V30 8826 H 809.527 4.21502 0.459616 0
M  V30 8827 C 807.986 3.06425 1.40019 0
M  V30 8828 O 808.516 3.14708 2.49643 0
M  V30 8829 N 806.722 2.61339 1.27084 0
M  V30 8830 H 806.269 2.54799 0.378872 0
M  V30 8831 H 806.227 2.34364 2.09573 0
M  V30 8832 N 809.999 0.752036 1.385 0
M  V30 8833 C 810.929 0.138718 2.33088 0
M  V30 8834 C 811.91 -0.705318 1.54788 0
M  V30 8835 O 813.095 -0.646821 1.83112 0
M  V30 8836 C 810.225 -0.75641 3.38963 0
M  V30 8837 C 809.179 -0.0152239 4.27997 0
M  V30 8838 C 808.505 -1.0285 5.24715 0
M  V30 8839 C 809.805 1.15226 5.09431 0
M  V30 8840 H 811.499 0.928852 2.84627 0
M  V30 8841 H 809.045 0.448111 1.3685 0
M  V30 8842 H 810.998 -1.19513 4.04097 0
M  V30 8843 H 809.722 -1.57885 2.85902 0
M  V30 8844 H 808.381 0.404061 3.64366 0
M  V30 8845 H 808.029 -1.84496 4.67943 0
M  V30 8846 H 807.729 -0.537238 5.85139 0
M  V30 8847 H 809.253 -1.46657 5.92726 0
M  V30 8848 H 810.667 0.791161 5.67815 0
M  V30 8849 H 809.064 1.57428 5.79082 0
M  V30 8850 H 810.134 1.9659 4.43261 0
M  V30 8851 N 811.477 -1.49425 0.500989 0
M  V30 8852 C 812.754 -1.9531 -0.106551 0
M  V30 8853 C 813.134 -1.44248 -1.54129 0
M  V30 8854 O 812.482 -0.656237 -2.18874 0
M  V30 8855 C 812.692 -3.48995 -0.0191972 0
M  V30 8856 C 814.04 -4.24161 -0.193129 0
M  V30 8857 O 815.064 -3.56075 -0.0943843 0
M  V30 8858 O 813.923 -5.45064 -0.395869 0
M  V30 8859 H 811.017 -0.82149 -0.0953068 0
M  V30 8860 H 813.563 -1.6007 0.563526 0
M  V30 8861 H 812.335 -3.78794 0.981353 0
M  V30 8862 H 811.958 -3.90852 -0.72942 0
M  V30 8863 N 812.955 -0.234822 -1.55841 0
M  V30 8864 C 814.202 0.39326 -1.98645 0
M  V30 8865 C 814.53 1.58823 -1.12274 0
M  V30 8866 O 813.785 1.94954 -0.170731 0
M  V30 8867 C 814.084 0.858032 -3.46947 0
M  V30 8868 C 813.75 -0.227858 -4.50324 0
M  V30 8869 C 812.412 -0.526128 -4.78315 0
M  V30 8870 C 814.764 -0.961576 -5.12253 0
M  V30 8871 C 812.092 -1.5624 -5.65514 0
M  V30 8872 C 814.444 -1.98728 -6.00575 0
M  V30 8873 C 813.108 -2.29233 -6.26904 0
M  V30 8874 H 812.378 0.143904 -0.726892 0
M  V30 8875 H 815.025 -0.34012 -1.88455 0
M  V30 8876 H 813.33 1.67041 -3.54408 0
M  V30 8877 H 815.027 1.35407 -3.77447 0
M  V30 8878 H 811.617 0.0147624 -4.28597 0
M  V30 8879 H 815.801 -0.744388 -4.90686 0
M  V30 8880 H 811.057 -1.80422 -5.84173 0
M  V30 8881 H 815.231 -2.5608 -6.47608 0
M  V30 8882 H 812.858 -3.09671 -6.94268 0
M  V30 8883 N 814.433 1.57553 0.0384317 0
M  V30 8884 C 815.658 1.93485 0.746872 0
M  V30 8885 C 816.083 0.834069 1.68597 0
M  V30 8886 O 815.441 -0.210902 1.80069 0
M  V30 8887 C 815.489 3.28463 1.4881 0
M  V30 8888 O 814.593 3.20051 2.60079 0
M  V30 8889 H 813.934 0.632675 0.201539 0
M  V30 8890 H 816.464 2.046 -0.00329815 0
M  V30 8891 H 816.474 3.63132 1.86009 0
M  V30 8892 H 815.149 4.08147 0.799297 0
M  V30 8893 H 813.726 2.96998 2.25492 0
M  V30 8894 N 815.911 -0.310526 1.54511 0
M  V30 8895 C 816.843 -1.40405 1.8116 0
M  V30 8896 C 817.856 -1.47261 0.694114 0
M  V30 8897 O 819.045 -1.49751 0.971441 0
M  V30 8898 C 816.145 -2.78849 1.92604 0
M  V30 8899 C 815.318 -2.95041 3.22908 0
M  V30 8900 C 814.377 -4.13925 3.24889 0
M  V30 8901 O 813.403 -4.06463 3.98467 0
M  V30 8902 N 814.605 -5.24099 2.496 0
M  V30 8903 H 817.37 -1.17903 2.75534 0
M  V30 8904 H 814.931 -0.500564 1.53967 0
M  V30 8905 H 816.923 -3.5661 1.91342 0
M  V30 8906 H 815.493 -2.94342 1.05268 0
M  V30 8907 H 814.713 -2.04472 3.37023 0
M  V30 8908 H 816.001 -3.02763 4.08916 0
M  V30 8909 H 815.399 -5.33039 1.89435 0
M  V30 8910 H 813.956 -6.0023 2.54102 0
M  V30 8911 N 817.389 -1.46805 -0.573248 0
M  V30 8912 C 818.337 -1.58468 -1.70267 0
M  V30 8913 C 819.331 -0.452694 -1.63239 0
M  V30 8914 O 820.537 -0.629915 -1.68618 0
M  V30 8915 H 816.912 -0.498408 -0.56311 0
M  V30 8916 H 818.883 -2.5341 -1.57563 0
M  V30 8917 C 817.632 -1.60104 -3.08645 0
M  V30 8918 H 816.955 -2.4655 -3.14727 0
M  V30 8919 H 818.395 -1.72318 -3.87405 0
M  V30 8920 C 816.854 -0.33138 -3.35266 0
M  V30 8921 O 817.384 0.57438 -3.97572 0
M  V30 8922 N 815.59 -0.216358 -2.89793 0
M  V30 8923 H 815.137 -0.954345 -2.3927 0
M  V30 8924 H 815.095 0.632253 -3.07977 0
M  V30 8925 N 818.867 0.818669 -1.34668 0
M  V30 8926 C 820.116 1.57017 -1.26604 0
M  V30 8927 C 820.429 1.94936 0.161036 0
M  V30 8928 O 821.635 2.69051 0.36386 0
M  V30 8929 C 820.091 2.83305 -2.2196 0
M  V30 8930 C 819.699 2.52671 -3.69948 0
M  V30 8931 C 821.443 3.61324 -2.22813 0
M  V30 8932 C 819.35 3.75178 -4.5716 0
M  V30 8933 H 818.28 0.589323 -0.470335 0
M  V30 8934 H 820.931 0.900956 -1.59859 0
M  V30 8935 H 819.313 3.51874 -1.81661 0
M  V30 8936 H 820.487 1.92186 -4.18809 0
M  V30 8937 H 818.802 1.8792 -3.71584 0
M  V30 8938 H 821.399 4.52294 -2.85192 0
M  V30 8939 H 821.742 3.97759 -1.22857 0
M  V30 8940 H 822.275 2.99703 -2.61578 0
M  V30 8941 H 819.014 3.43861 -5.58068 0
M  V30 8942 H 818.534 4.34931 -4.13031 0
M  V30 8943 H 820.213 4.42542 -4.71981 0
M  V30 8944 N 820.346 1.18468 1.03938 0
M  V30 8945 C 821.592 0.982286 1.77423 0
M  V30 8946 C 821.925 -0.48679 1.88 0
M  V30 8947 O 821.2 -1.36146 1.38905 0
M  V30 8948 C 821.483 1.63929 3.20623 0
M  V30 8949 C 821.336 3.18132 3.17982 0
M  V30 8950 C 822.655 1.3536 4.18767 0
M  V30 8951 H 819.774 0.358264 0.644062 0
M  V30 8952 H 822.416 1.46154 1.21405 0
M  V30 8953 H 820.566 1.2318 3.68455 0
M  V30 8954 H 822.238 3.68024 2.78129 0
M  V30 8955 H 820.481 3.50225 2.55978 0
M  V30 8956 H 821.152 3.5924 4.19107 0
M  V30 8957 H 823.628 1.70669 3.79488 0
M  V30 8958 H 822.504 1.83896 5.17178 0
M  V30 8959 H 822.765 0.276722 4.41233 0
M  V30 8960 N 821.824 -1.22873 0.986916 0
M  V30 8961 C 823.07 -1.91746 0.660401 0
M  V30 8962 C 823.403 -1.76738 -0.804812 0
M  V30 8963 O 822.678 -1.13246 -1.58131 0
M  V30 8964 C 822.961 -3.44156 1.05966 0
M  V30 8965 C 822.814 -3.68242 2.58298 0
M  V30 8966 C 824.133 -4.35874 0.60842 0
M  V30 8967 H 821.252 -0.696347 0.241391 0
M  V30 8968 H 823.894 -1.44867 1.22937 0
M  V30 8969 H 822.044 -3.84213 0.575534 0
M  V30 8970 H 823.716 -3.37626 3.14335 0
M  V30 8971 H 821.959 -3.12728 3.00638 0
M  V30 8972 H 822.63 -4.74956 2.81285 0
M  V30 8973 H 825.106 -4.03299 1.02417 0
M  V30 8974 H 823.982 -5.41201 0.916142 0
M  V30 8975 H 824.243 -4.39364 -0.491086 0
M  V30 8976 N 823.302 -0.75937 -1.38099 0
M  V30 8977 C 824.579 -0.243371 -1.9408 0
M  V30 8978 C 824.959 1.25942 -1.69416 0
M  V30 8979 O 824.307 2.03667 -1.03595 0
M  V30 8980 C 824.517 -0.603328 -3.43745 0
M  V30 8981 C 825.865 -0.566195 -4.20808 0
M  V30 8982 O 826.889 -0.541969 -3.52053 0
M  V30 8983 O 825.748 -0.582261 -5.43389 0
M  V30 8984 H 822.842 -0.0526825 -0.82532 0
M  V30 8985 H 825.388 -0.839884 -1.47459 0
M  V30 8986 H 824.16 -1.64098 -3.55229 0
M  V30 8987 H 823.783 0.0208887 -3.97595 0
M  V30 8988 N 824.78 1.49157 -0.508906 0
M  V30 8989 C 825.727 2.2927 0.265288 0
M  V30 8990 C 826.697 1.3603 0.953162 0
M  V30 8991 O 827.882 1.64989 0.958291 0
M  V30 8992 C 825.022 3.18897 1.31904 0
M  V30 8993 C 824.135 4.27201 0.642144 0
M  V30 8994 C 823.27 5.04033 1.67701 0
M  V30 8995 C 822.309 6.04165 0.982422 0
M  V30 8996 N 821.446 6.74133 1.96186 0
M  V30 8997 H 826.286 2.94967 -0.424107 0
M  V30 8998 H 823.823 1.45431 -0.220991 0
M  V30 8999 H 825.781 3.69242 1.94206 0
M  V30 9000 H 824.411 2.55168 1.97709 0
M  V30 9001 H 823.463 3.80283 -0.0943395 0
M  V30 9002 H 824.775 4.98708 0.0957507 0
M  V30 9003 H 823.929 5.58287 2.37487 0
M  V30 9004 H 822.668 4.32317 2.25728 0
M  V30 9005 H 821.673 5.49135 0.270378 0
M  V30 9006 H 822.898 6.7787 0.408554 0
M  V30 9007 H 820.844 6.05183 2.53159 0
M  V30 9008 H 820.761 7.41643 1.46634 0
M  V30 9009 H 822.029 7.32987 2.65236 0
M  V30 9010 N 826.258 0.243083 1.55714 0
M  V30 9011 C 827.168 -0.668913 2.24862 0
M  V30 9012 C 828.184 -1.19638 1.26344 0
M  V30 9013 O 829.36 -1.23345 1.5921 0
M  V30 9014 C 826.425 -1.85084 2.93163 0
M  V30 9015 C 825.486 -1.36323 4.07081 0
M  V30 9016 C 824.719 -2.48882 4.72116 0
M  V30 9017 O 824.942 -3.67523 4.36214 0
M  V30 9018 O 823.876 -2.18857 5.60701 0
M  V30 9019 H 827.702 -0.109737 3.03502 0
M  V30 9020 H 825.287 0.0117411 1.49395 0
M  V30 9021 H 827.169 -2.54065 3.36197 0
M  V30 9022 H 825.844 -2.39771 2.17466 0
M  V30 9023 H 824.751 -0.640804 3.68571 0
M  V30 9024 H 826.084 -0.86249 4.84584 0
M  V30 9025 N 827.736 -1.57571 -0.0300757 0
M  V30 9026 C 828.966 -1.93204 -0.731828 0
M  V30 9027 C 829.374 -0.841156 -1.69473 0
M  V30 9028 O 828.717 0.191231 -1.82702 0
M  V30 9029 C 828.779 -3.2463 -1.54453 0
M  V30 9030 C 828.443 -4.50862 -0.746507 0
M  V30 9031 C 829.44 -5.19879 -0.0472309 0
M  V30 9032 C 827.125 -4.9738 -0.701347 0
M  V30 9033 C 829.119 -6.33692 0.686518 0
M  V30 9034 C 826.806 -6.11089 0.036148 0
M  V30 9035 C 827.804 -6.791 0.728841 0
M  V30 9036 O 827.492 -7.90635 1.45436 0
M  V30 9037 H 827.224 -0.6423 -0.210775 0
M  V30 9038 H 829.778 -2.05398 0.00804194 0
M  V30 9039 H 828.008 -3.0876 -2.32818 0
M  V30 9040 H 829.697 -3.45597 -2.1288 0
M  V30 9041 H 830.463 -4.84945 -0.0731582 0
M  V30 9042 H 826.342 -4.44288 -1.23001 0
M  V30 9043 H 829.886 -6.86711 1.22773 0
M  V30 9044 H 825.783 -6.45468 0.064002 0
M  V30 9045 H 826.551 -8.06988 1.36794 0
M  V30 9046 N 829.214 0.302327 -1.54673 0
M  V30 9047 C 830.144 1.37759 -1.88533 0
M  V30 9048 C 831.125 1.52961 -0.744113 0
M  V30 9049 O 832.31 1.6649 -0.999731 0
M  V30 9050 C 829.44 2.74201 -2.13146 0
M  V30 9051 C 828.394 2.73765 -3.28993 0
M  V30 9052 C 827.72 4.13483 -3.39022 0
M  V30 9053 C 829.02 2.35624 -4.66132 0
M  V30 9054 H 830.714 1.0967 -2.78591 0
M  V30 9055 H 828.26 0.52613 -1.34044 0
M  V30 9056 H 830.213 3.49508 -2.35419 0
M  V30 9057 H 828.937 3.03812 -1.19858 0
M  V30 9058 H 827.596 2.00914 -3.06642 0
M  V30 9059 H 827.244 4.40269 -2.43253 0
M  V30 9060 H 826.944 4.14093 -4.16894 0
M  V30 9061 H 828.468 4.90572 -3.63553 0
M  V30 9062 H 829.882 3.00647 -4.88143 0
M  V30 9063 H 828.279 2.47449 -5.46707 0
M  V30 9064 H 829.349 1.30753 -4.66939 0
M  V30 9065 N 830.692 1.47107 0.565454 0
M  V30 9066 C 831.622 1.61846 1.68309 0
M  V30 9067 C 832.603 0.468159 1.63531 0
M  V30 9068 O 833.788 0.696504 1.8128 0
M  V30 9069 C 830.918 1.62474 3.06952 0
M  V30 9070 C 829.872 2.76649 3.26572 0
M  V30 9071 C 829.198 2.62345 4.65917 0
M  V30 9072 C 830.498 4.18319 3.12741 0
M  V30 9073 H 832.192 2.55407 1.5623 0
M  V30 9074 H 829.738 1.22916 0.750179 0
M  V30 9075 H 831.691 1.71378 3.84977 0
M  V30 9076 H 830.415 0.654692 3.19971 0
M  V30 9077 H 829.074 2.67242 2.50952 0
M  V30 9078 H 828.722 1.63386 4.75725 0
M  V30 9079 H 828.422 3.38936 4.79996 0
M  V30 9080 H 829.946 2.73165 5.46089 0
M  V30 9081 H 831.36 4.28745 3.80593 0
M  V30 9082 H 829.757 4.95632 3.38333 0
M  V30 9083 H 830.827 4.37263 2.09592 0
M  V30 9084 N 832.17 -0.811516 1.35101 0
M  V30 9085 C 833.08 -1.95475 1.29718 0
M  V30 9086 C 834.096 -1.72813 0.202909 0
M  V30 9087 O 835.272 -1.96725 0.431414 0
M  V30 9088 C 832.337 -3.29975 1.06385 0
M  V30 9089 C 831.398 -3.65566 2.25077 0
M  V30 9090 C 830.631 -4.93648 2.02848 0
M  V30 9091 O 830.854 -5.617 0.992442 0
M  V30 9092 O 829.788 -5.27384 2.90087 0
M  V30 9093 H 833.614 -2.02961 2.25921 0
M  V30 9094 H 831.199 -0.948583 1.15422 0
M  V30 9095 H 833.081 -4.10506 0.951999 0
M  V30 9096 H 831.756 -3.2343 0.132294 0
M  V30 9097 H 830.663 -2.85432 2.41825 0
M  V30 9098 H 831.996 -3.7681 3.16662 0
M  V30 9099 N 833.648 -1.19017 -1.03309 0
M  V30 9100 C 834.595 -0.924088 -2.11493 0
M  V30 9101 C 835.565 0.139464 -1.65513 0
M  V30 9102 O 836.75 -0.00178761 -1.908 0
M  V30 9103 C 833.89 -0.464255 -3.41963 0
M  V30 9104 C 833.003 -1.5941 -4.01513 0
M  V30 9105 C 832.138 -1.08622 -5.19976 0
M  V30 9106 C 831.177 -2.19024 -5.71572 0
M  V30 9107 N 830.314 -1.69575 -6.81314 0
M  V30 9108 H 835.154 -1.85039 -2.33591 0
M  V30 9109 H 832.691 -0.922593 -1.14572 0
M  V30 9110 H 834.649 -0.179078 -4.16815 0
M  V30 9111 H 833.279 0.425062 -3.19989 0
M  V30 9112 H 832.331 -1.99458 -3.23915 0
M  V30 9113 H 833.643 -2.42604 -4.35826 0
M  V30 9114 H 832.797 -0.756022 -6.01971 0
M  V30 9115 H 831.536 -0.223955 -4.87186 0
M  V30 9116 H 830.541 -2.5288 -4.88193 0
M  V30 9117 H 831.766 -3.05699 -6.06403 0
M  V30 9118 H 829.712 -0.856494 -6.50385 0
M  V30 9119 H 829.629 -2.46361 -7.14732 0
M  V30 9120 H 830.897 -1.39505 -7.66915 0
M  V30 9121 N 835.127 1.22348 -0.993418 0
M  V30 9122 C 836.376 1.90422 -0.665019 0
M  V30 9123 C 836.689 1.78199 0.806512 0
M  V30 9124 O 837.895 2.41193 1.24652 0
M  V30 9125 C 836.351 3.41403 -1.13893 0
M  V30 9126 C 835.959 3.62262 -2.63572 0
M  V30 9127 C 837.703 4.15175 -0.884884 0
M  V30 9128 C 835.61 5.06947 -3.04564 0
M  V30 9129 H 834.54 0.713073 -0.245037 0
M  V30 9130 H 837.191 1.3856 -1.20305 0
M  V30 9131 H 835.573 3.9245 -0.529027 0
M  V30 9132 H 836.747 3.21705 -3.29913 0
M  V30 9133 H 835.062 3.01824 -2.86865 0
M  V30 9134 H 837.659 5.21813 -1.16684 0
M  V30 9135 H 838.002 4.15915 0.178982 0
M  V30 9136 H 838.535 3.70157 -1.45701 0
M  V30 9137 H 835.274 5.11346 -4.10128 0
M  V30 9138 H 834.794 5.48404 -2.42927 0
M  V30 9139 H 836.473 5.75374 -2.95894 0
M  V30 9140 N 836.605 0.766683 1.37694 0
M  V30 9141 C 837.83 0.338715 2.04615 0
M  V30 9142 C 838.255 -1.02918 1.57447 0
M  V30 9143 O 837.613 -1.65849 0.732386 0
M  V30 9144 C 837.661 0.385284 3.58536 0
M  V30 9145 O 836.765 -0.616081 4.07772 0
M  V30 9146 H 836.106 0.147527 0.647404 0
M  V30 9147 H 838.636 1.04146 1.7611 0
M  V30 9148 H 838.646 0.240782 4.07289 0
M  V30 9149 H 837.321 1.38325 3.92223 0
M  V30 9150 H 835.898 -0.435115 3.70353 0
M  V30 9151 N 838.083 -1.48885 0.516809 0
M  V30 9152 C 839.308 -2.0739 -0.0205201 0
M  V30 9153 C 839.733 -1.37259 -1.28614 0
M  V30 9154 O 839.091 -0.434304 -1.76021 0
M  V30 9155 C 839.139 -3.59793 -0.24104 0
M  V30 9156 O 838.243 -3.90957 -1.31251 0
M  V30 9157 H 837.584 -0.663167 0.0332564 0
M  V30 9158 H 840.114 -1.91477 0.720956 0
M  V30 9159 H 840.124 -4.0531 -0.467737 0
M  V30 9160 H 838.799 -4.10244 0.68356 0
M  V30 9161 H 837.376 -3.57234 -1.06951 0
M  V30 9162 N 839.561 -0.251338 -1.55583 0
M  V30 9163 C 840.491 0.640437 -2.24545 0
M  V30 9164 C 841.472 1.17781 -1.22726 0
M  V30 9165 O 842.657 1.21633 -1.5139 0
M  V30 9166 C 839.787 1.8355 -2.94834 0
M  V30 9167 C 838.741 1.4307 -4.03379 0
M  V30 9168 C 838.067 2.70695 -4.61116 0
M  V30 9169 C 839.367 0.59848 -5.1886 0
M  V30 9170 H 841.061 0.0653772 -2.99329 0
M  V30 9171 H 838.607 0.0300042 -1.43969 0
M  V30 9172 H 840.56 2.46505 -3.4178 0
M  V30 9173 H 839.284 2.43601 -2.17546 0
M  V30 9174 H 837.943 0.824474 -3.57209 0
M  V30 9175 H 837.591 3.28954 -3.80524 0
M  V30 9176 H 837.291 2.44332 -5.34393 0
M  V30 9177 H 838.815 3.34541 -5.10798 0
M  V30 9178 H 840.229 1.13244 -5.62004 0
M  V30 9179 H 838.626 0.430728 -5.98552 0
M  V30 9180 H 839.696 -0.38829 -4.83343 0
M  V30 9181 N 841.039 1.57585 0.0217189 0
M  V30 9182 C 842.002 2.06004 1.00474 0
M  V30 9183 C 843.002 0.965461 1.2859 0
M  V30 9184 O 844.192 1.22884 1.23471 0
M  V30 9185 C 841.324 2.48319 2.33561 0
M  V30 9186 H 842.517 2.94112 0.586346 0
M  V30 9187 H 840.07 1.53973 0.268716 0
M  V30 9188 H 840.805 1.63389 2.80133 0
M  V30 9189 H 840.59 3.28239 2.1448 0
M  V30 9190 H 842.08 2.86181 3.04122 0
M  V30 9191 N 842.517 -0.29412 1.54831 0
M  V30 9192 C 843.933 -0.640167 1.46199 0
M  V30 9193 C 844.133 -1.90426 0.658798 0
M  V30 9194 O 843.189 -2.51932 0.169228 0
M  V30 9195 C 844.502 -0.786763 2.90225 0
M  V30 9196 C 846.05 -0.882201 3.0031 0
M  V30 9197 C 846.525 -1.06074 4.45547 0
M  V30 9198 N 848.016 -1.12678 4.49286 0
M  V30 9199 C 848.751 -1.28334 5.58854 0
M  V30 9200 N 848.247 -1.40845 6.78332 0
M  V30 9201 N 850.04 -1.31277 5.46555 0
M  V30 9202 H 842.191 0.536334 2.05517 0
M  V30 9203 H 844.454 0.178363 0.93107 0
M  V30 9204 H 844.16 0.0713018 3.51628 0
M  V30 9205 H 844.034 -1.67364 3.38037 0
M  V30 9206 H 846.421 -1.73075 2.39017 0
M  V30 9207 H 846.502 0.0288405 2.55784 0
M  V30 9208 H 846.146 -0.216935 5.07437 0
M  V30 9209 H 846.076 -1.98611 4.8771 0
M  V30 9210 H 848.567 -1.04335 3.63212 0
M  V30 9211 H 848.88 -1.52566 7.57591 0
M  V30 9212 H 847.225 -1.37888 6.81184 0
M  V30 9213 H 850.416 -1.2112 4.52159 0
M  V30 9214 H 850.589 -1.43136 6.31994 0
M  V30 9215 N 843.995 -1.47404 -0.557645 0
M  V30 9216 C 845.22 -1.57868 -1.34508 0
M  V30 9217 C 845.645 -0.229151 -1.86699 0
M  V30 9218 O 845.003 0.794908 -1.62944 0
M  V30 9219 C 845.051 -2.60712 -2.49122 0
M  V30 9220 O 844.155 -2.15952 -3.51338 0
M  V30 9221 H 843.496 -0.530335 -0.399551 0
M  V30 9222 H 846.026 -1.93181 -0.673954 0
M  V30 9223 H 846.036 -2.81118 -2.95697 0
M  V30 9224 H 844.711 -3.58701 -2.10491 0
M  V30 9225 H 843.288 -2.05644 -3.11071 0
M  V30 9226 N 845.473 0.80434 -1.35529 0
M  V30 9227 C 846.698 1.598 -1.32207 0
M  V30 9228 C 847.123 1.87848 0.0974226 0
M  V30 9229 O 846.481 1.46728 1.06492 0
M  V30 9230 C 846.529 2.90483 -2.13663 0
M  V30 9231 O 845.633 3.83411 -1.51888 0
M  V30 9232 H 844.974 0.485305 -0.453183 0
M  V30 9233 H 847.504 0.998119 -1.78602 0
M  V30 9234 H 847.514 3.39888 -2.257 0
M  V30 9235 H 846.189 2.69395 -3.16859 0
M  V30 9236 H 844.766 3.41967 -1.48704 0
M  V30 9237 N 846.951 1.19563 1.02676 0
M  V30 9238 C 847.861 0.950691 2.14474 0
M  V30 9239 C 848.877 -0.0900219 1.73767 0
M  V30 9240 O 850.053 0.0951063 2.01175 0
M  V30 9241 C 847.118 0.494917 3.43149 0
M  V30 9242 C 846.179 1.60527 3.98158 0
M  V30 9243 C 845.412 1.17115 5.20692 0
M  V30 9244 O 845.635 0.0355937 5.70389 0
M  V30 9245 O 844.569 1.97454 5.68591 0
M  V30 9246 H 848.395 1.88651 2.38001 0
M  V30 9247 H 845.98 0.978635 1.12885 0
M  V30 9248 H 847.862 0.249492 4.20661 0
M  V30 9249 H 846.537 -0.412434 3.21062 0
M  V30 9250 H 845.444 1.90487 3.21971 0
M  V30 9251 H 846.777 2.48925 4.24614 0
M  V30 9252 N 848.429 -1.21819 0.999893 0
M  V30 9253 C 849.845 -1.42847 0.711824 0
M  V30 9254 C 850.045 -1.88391 -0.714928 0
M  V30 9255 O 849.101 -2.0422 -1.48494 0
M  V30 9256 C 850.414 -2.46417 1.72334 0
M  V30 9257 C 851.962 -2.60207 1.73958 0
M  V30 9258 C 852.437 -3.67005 2.73992 0
M  V30 9259 N 853.928 -3.7447 2.72628 0
M  V30 9260 C 854.663 -4.56718 3.46693 0
M  V30 9261 N 854.159 -5.42904 4.3038 0
M  V30 9262 N 855.952 -4.51094 3.35366 0
M  V30 9263 H 848.103 -0.905656 1.92124 0
M  V30 9264 H 850.366 -0.459893 0.828977 0
M  V30 9265 H 850.072 -2.19914 2.74465 0
M  V30 9266 H 849.946 -3.45137 1.52186 0
M  V30 9267 H 852.333 -2.8605 0.725217 0
M  V30 9268 H 852.414 -1.61739 1.98177 0
M  V30 9269 H 852.058 -3.41908 3.75582 0
M  V30 9270 H 851.988 -4.65058 2.4704 0
M  V30 9271 H 854.479 -3.12895 2.11909 0
M  V30 9272 H 854.792 -6.02704 4.83702 0
M  V30 9273 H 853.137 -5.42463 4.34464 0
M  V30 9274 H 856.328 -3.82791 2.69423 0
M  V30 9275 H 856.501 -5.1496 3.93344 0
M  V30 9276 N 849.908 -0.773975 -1.37286 0
M  V30 9277 C 851.156 -0.338636 -1.99243 0
M  V30 9278 C 851.477 1.08919 -1.61746 0
M  V30 9279 O 850.747 1.74822 -0.88397 0
M  V30 9280 H 849.327 -0.12222 -0.736934 0
M  V30 9281 H 851.989 -0.992595 -1.67731 0
M  V30 9282 H 851.085 -0.418055 -3.09287 0
M  V30 9283 N 851.386 1.48609 -0.524698 0
M  V30 9284 C 852.616 2.06599 0.00741868 0
M  V30 9285 C 853.024 1.3823 1.29186 0
M  V30 9286 O 852.367 0.461962 1.77797 0
M  V30 9287 C 852.429 3.58184 0.307324 0
M  V30 9288 C 852.093 4.48391 -0.882864 0
M  V30 9289 C 853.09 4.88485 -1.77984 0
M  V30 9290 C 850.775 4.90367 -1.08837 0
M  V30 9291 C 852.769 5.69319 -2.86627 0
M  V30 9292 C 850.456 5.70972 -2.17794 0
M  V30 9293 C 851.454 6.10355 -3.06523 0
M  V30 9294 O 851.142 6.89343 -4.13596 0
M  V30 9295 H 850.874 0.675421 -0.0279846 0
M  V30 9296 H 853.428 1.92058 -0.7282 0
M  V30 9297 H 851.658 3.70818 1.09685 0
M  V30 9298 H 853.347 3.98318 0.780886 0
M  V30 9299 H 854.113 4.56682 -1.63299 0
M  V30 9300 H 849.992 4.592 -0.407035 0
M  V30 9301 H 853.536 5.99978 -3.55911 0
M  V30 9302 H 849.433 6.02188 -2.32465 0
M  V30 9303 H 850.201 7.07689 -4.1124 0
M  V30 9304 N 852.864 0.259585 1.55447 0
M  V30 9305 C 854.113 -0.362163 1.98422 0
M  V30 9306 C 854.426 -1.58135 1.1512 0
M  V30 9307 O 855.632 -2.27506 1.48166 0
M  V30 9308 C 854.088 -0.695722 3.53111 0
M  V30 9309 C 853.696 0.502784 4.4517 0
M  V30 9310 C 855.44 -1.28096 4.04712 0
M  V30 9311 C 853.347 0.144674 5.91223 0
M  V30 9312 H 852.277 -0.139092 0.74106 0
M  V30 9313 H 854.928 0.361798 1.79898 0
M  V30 9314 H 853.31 -1.47816 3.67378 0
M  V30 9315 H 854.484 1.27994 4.42667 0
M  V30 9316 H 852.799 1.0038 4.0412 0
M  V30 9317 H 855.396 -1.56243 5.11363 0
M  V30 9318 H 855.739 -2.20969 3.52815 0
M  V30 9319 H 856.272 -0.561146 3.93822 0
M  V30 9320 H 853.011 1.04087 6.47183 0
M  V30 9321 H 852.531 -0.596023 5.96831 0
M  V30 9322 H 854.21 -0.268651 6.46442 0
M  V30 9323 N 854.342 -1.57594 -0.0133615 0
M  V30 9324 C 855.292 -2.04048 -1.01726 0
M  V30 9325 C 856.276 -0.932682 -1.3111 0
M  V30 9326 O 857.468 -1.19652 -1.30432 0
M  V30 9327 C 854.597 -2.53637 -2.31351 0
M  V30 9328 C 853.683 -3.71269 -2.04989 0
M  V30 9329 N 854.074 -4.83436 -1.48739 0
M  V30 9330 C 852.372 -3.78943 -2.35198 0
M  V30 9331 C 853.073 -5.64961 -1.38542 0
M  V30 9332 N 852.049 -5.10554 -1.86643 0
M  V30 9333 H 855.851 -2.88188 -0.576623 0
M  V30 9334 H 853.365 -1.60912 -0.219344 0
M  V30 9335 H 855.362 -2.85186 -3.04096 0
M  V30 9336 H 854.022 -1.7091 -2.76079 0
M  V30 9337 H 855.033 -5.04558 -1.16798 0
M  V30 9338 H 851.71 -3.07047 -2.82893 0
M  V30 9339 H 853.1 -6.65092 -0.954075 0
M  V30 9340 N 855.82 0.285905 -1.54985 0
M  V30 9341 C 857.05 1.03626 -1.78732 0
M  V30 9342 C 857.458 1.80896 -0.554377 0
M  V30 9343 O 856.801 1.77161 0.48578 0
M  V30 9344 C 856.863 2.05185 -2.95193 0
M  V30 9345 C 856.527 1.46973 -4.32722 0
M  V30 9346 C 857.524 0.891986 -5.12191 0
M  V30 9347 C 855.209 1.50081 -4.79355 0
M  V30 9348 C 857.203 0.353078 -6.36421 0
M  V30 9349 C 854.89 0.958037 -6.03544 0
M  V30 9350 C 855.888 0.385157 -6.81913 0
M  V30 9351 O 855.576 -0.149341 -8.03761 0
M  V30 9352 H 855.308 0.312416 -0.599477 0
M  V30 9353 H 857.862 0.326067 -2.02795 0
M  V30 9354 H 856.092 2.79928 -2.66791 0
M  V30 9355 H 857.781 2.66244 -3.0638 0
M  V30 9356 H 858.547 0.860762 -4.77301 0
M  V30 9357 H 854.426 1.9361 -4.18373 0
M  V30 9358 H 857.97 -0.0947181 -6.97536 0
M  V30 9359 H 853.867 0.986458 -6.37918 0
M  V30 9360 H 854.635 -0.0374719 -8.18491 0
M  V30 9361 N 857.298 1.47698 0.54982 0
M  V30 9362 C 858.547 1.53961 1.30303 0
M  V30 9363 C 858.86 0.209731 1.94472 0
M  V30 9364 O 860.066 0.150418 2.71083 0
M  V30 9365 C 858.522 2.71436 2.36328 0
M  V30 9366 C 858.13 4.10983 1.78316 0
M  V30 9367 C 859.874 2.86996 3.12783 0
M  V30 9368 C 857.781 5.19747 2.82164 0
M  V30 9369 H 856.711 0.573098 0.489975 0
M  V30 9370 H 859.362 1.73989 0.583089 0
M  V30 9371 H 857.744 2.44801 3.11269 0
M  V30 9372 H 858.918 4.47552 1.09697 0
M  V30 9373 H 857.233 4.00371 1.1442 0
M  V30 9374 H 859.83 3.65422 3.90347 0
M  V30 9375 H 860.173 1.95712 3.67427 0
M  V30 9376 H 860.706 3.13436 2.44954 0
M  V30 9377 H 857.445 6.12932 2.32366 0
M  V30 9378 H 856.965 4.87688 3.49171 0
M  V30 9379 H 858.644 5.47014 3.4552 0
M  V30 9380 N 858.776 -0.797141 1.35954 0
M  V30 9381 C 860.022 -1.55698 1.29946 0
M  V30 9382 C 860.355 -1.93808 -0.123259 0
M  V30 9383 O 859.63 -1.62102 -1.07486 0
M  V30 9384 C 859.913 -2.83926 2.2149 0
M  V30 9385 C 859.766 -2.52232 3.72423 0
M  V30 9386 C 861.085 -3.85698 2.11955 0
M  V30 9387 H 858.204 -0.56488 0.47337 0
M  V30 9388 H 860.846 -0.916421 1.66438 0
M  V30 9389 H 858.996 -3.38588 1.905 0
M  V30 9390 H 860.668 -2.0368 4.13899 0
M  V30 9391 H 858.911 -1.85286 3.92239 0
M  V30 9392 H 859.582 -3.43782 4.31877 0
M  V30 9393 H 862.058 -3.40462 2.39218 0
M  V30 9394 H 860.934 -4.73182 2.78191 0
M  V30 9395 H 861.195 -4.28083 1.10442 0
M  V30 9396 N 860.254 -1.20106 -1.0204 0
M  V30 9397 C 861.186 -0.904236 -2.10609 0
M  V30 9398 C 862.199 0.106487 -1.62451 0
M  V30 9399 O 863.388 -0.124035 -1.78069 0
M  V30 9400 C 860.488 -0.333423 -3.37256 0
M  V30 9401 C 859.661 -1.39476 -4.14566 0
M  V30 9402 C 858.72 -0.835961 -5.19517 0
M  V30 9403 O 857.746 -1.51573 -5.48648 0
M  V30 9404 N 858.948 0.356531 -5.79404 0
M  V30 9405 H 861.713 -1.8388 -2.36661 0
M  V30 9406 H 859.274 -1.10422 -1.184 0
M  V30 9407 H 861.266 0.0544571 -4.04663 0
M  V30 9408 H 859.836 0.505608 -3.08484 0
M  V30 9409 H 859.056 -1.95714 -3.42184 0
M  V30 9410 H 860.344 -2.10967 -4.63001 0
M  V30 9411 H 859.742 0.926143 -5.58067 0
M  V30 9412 H 858.299 0.686093 -6.48179 0
M  V30 9413 N 861.732 1.21287 -1.00634 0
M  V30 9414 C 862.662 2.25973 -0.588089 0
M  V30 9415 C 863.643 1.65527 0.391764 0
M  V30 9416 O 864.828 1.92179 0.279452 0
M  V30 9417 C 861.958 3.47197 0.0847336 0
M  V30 9418 C 860.912 4.20168 -0.815039 0
M  V30 9419 C 860.238 5.34699 -0.00855393 0
M  V30 9420 C 861.538 4.77416 -2.11828 0
M  V30 9421 H 863.232 2.61212 -1.46317 0
M  V30 9422 H 860.778 1.25563 -0.704985 0
M  V30 9423 H 862.731 4.19602 0.388821 0
M  V30 9424 H 861.455 3.11092 0.994456 0
M  V30 9425 H 860.114 3.49614 -1.10297 0
M  V30 9426 H 859.762 4.94837 0.902499 0
M  V30 9427 H 859.462 5.84449 -0.607664 0
M  V30 9428 H 860.986 6.09914 0.289317 0
M  V30 9429 H 862.4 5.41694 -1.87725 0
M  V30 9430 H 860.797 5.37561 -2.66736 0
M  V30 9431 H 861.867 3.96724 -2.78816 0
M  V30 9432 N 863.21 0.781244 1.36873 0
M  V30 9433 C 864.142 0.132075 2.28819 0
M  V30 9434 C 865.155 -0.653925 1.49089 0
M  V30 9435 O 866.344 -0.490453 1.7163 0
M  V30 9436 C 863.444 -0.836297 3.28419 0
M  V30 9437 C 862.617 -0.102097 4.37281 0
M  V30 9438 C 861.676 -0.985217 5.16894 0
M  V30 9439 O 860.702 -0.445478 5.67454 0
M  V30 9440 N 861.904 -2.31043 5.3254 0
M  V30 9441 H 864.669 0.921838 2.85171 0
M  V30 9442 H 862.23 0.634427 1.48952 0
M  V30 9443 H 864.222 -1.43074 3.78566 0
M  V30 9444 H 862.792 -1.52698 2.72767 0
M  V30 9445 H 862.012 0.67335 3.88407 0
M  V30 9446 H 863.3 0.404862 5.07187 0
M  V30 9447 H 862.698 -2.77318 4.93063 0
M  V30 9448 H 861.255 -2.85472 5.8596 0
M  V30 9449 N 864.689 -1.48329 0.532571 0
M  V30 9450 C 865.937 -2.021 -0.000581206 0
M  V30 9451 C 866.258 -1.4117 -1.34522 0
M  V30 9452 O 865.528 -0.578005 -1.87179 0
M  V30 9453 H 864.108 -0.746993 -0.00320281 0
M  V30 9454 H 866.77 -1.82011 0.696991 0
M  V30 9455 H 865.866 -3.11917 -0.106991 0
M  V30 9456 N 866.167 -0.267825 -1.55308 0
M  V30 9457 C 867.444 0.402449 -1.91415 0
M  V30 9458 C 867.824 1.7428 -1.1912 0
M  V30 9459 O 867.172 2.2631 -0.315609 0
M  V30 9460 C 867.382 0.549926 -3.4464 0
M  V30 9461 C 868.73 0.836188 -4.16285 0
M  V30 9462 O 869.754 0.635009 -3.50494 0
M  V30 9463 O 868.613 1.22051 -5.32697 0
M  V30 9464 H 865.707 0.219177 -0.797427 0
M  V30 9465 H 868.253 -0.313439 -1.6678 0
M  V30 9466 H 867.025 -0.393641 -3.89315 0
M  V30 9467 H 866.648 1.31556 -3.75205 0
M  V30 9468 N 867.645 1.57599 0.00500368 0
M  V30 9469 C 868.592 2.08106 0.998025 0
M  V30 9470 C 869.562 0.975374 1.34446 0
M  V30 9471 O 870.747 1.24749 1.44369 0
M  V30 9472 C 867.887 2.58496 2.28635 0
M  V30 9473 C 867 3.82947 1.99939 0
M  V30 9474 C 866.135 4.21857 3.22816 0
M  V30 9475 C 865.174 5.39159 2.89783 0
M  V30 9476 N 864.311 5.73386 4.05183 0
M  V30 9477 H 869.151 2.92684 0.560385 0
M  V30 9478 H 866.688 1.44692 0.265053 0
M  V30 9479 H 868.646 2.85787 3.03943 0
M  V30 9480 H 867.276 1.768 2.70077 0
M  V30 9481 H 866.328 3.62594 1.1502 0
M  V30 9482 H 867.64 4.68358 1.71588 0
M  V30 9483 H 866.794 4.50404 4.06474 0
M  V30 9484 H 865.533 3.35145 3.54301 0
M  V30 9485 H 864.538 5.1034 2.04532 0
M  V30 9486 H 865.763 6.27543 2.59551 0
M  V30 9487 H 863.709 4.89632 4.36574 0
M  V30 9488 H 863.626 6.53359 3.80339 0
M  V30 9489 H 864.894 6.06522 4.89644 0
M  V30 9490 N 869.123 -0.277682 1.55134 0
M  V30 9491 C 870.372 -1.00766 1.74726 0
M  V30 9492 C 870.685 -1.87617 0.553092 0
M  V30 9493 O 871.891 -2.64058 0.631318 0
M  V30 9494 C 870.347 -1.84147 3.09221 0
M  V30 9495 C 869.955 -1.02186 4.3619 0
M  V30 9496 C 871.699 -2.56604 3.38164 0
M  V30 9497 C 869.606 -1.84978 5.61727 0
M  V30 9498 H 868.536 -0.379948 0.651273 0
M  V30 9499 H 871.187 -0.263543 1.81598 0
M  V30 9500 H 869.569 -2.62637 2.96375 0
M  V30 9501 H 870.743 -0.281459 4.5994 0
M  V30 9502 H 869.058 -0.412054 4.14356 0
M  V30 9503 H 871.655 -3.18942 4.29162 0
M  V30 9504 H 871.998 -3.26647 2.58085 0
M  V30 9505 H 872.531 -1.85147 3.52087 0
M  V30 9506 H 869.27 -1.19365 6.4454 0
M  V30 9507 H 868.79 -2.56628 5.42128 0
M  V30 9508 H 870.469 -2.42458 5.99853 0
M  V30 9509 N 870.601 -1.47988 -0.541979 0
M  V30 9510 C 871.826 -1.59286 -1.32826 0
M  V30 9511 C 872.251 -0.24894 -1.86445 0
M  V30 9512 O 871.609 0.777581 -1.63778 0
M  V30 9513 C 871.657 -2.6334 -2.46343 0
M  V30 9514 O 870.761 -2.19667 -3.49028 0
M  V30 9515 H 870.102 -0.534543 -0.393903 0
M  V30 9516 H 872.632 -1.93885 -0.653427 0
M  V30 9517 H 872.642 -2.84238 -2.92699 0
M  V30 9518 H 871.317 -3.60913 -2.06675 0
M  V30 9519 H 869.894 -2.08932 -3.08872 0
M  V30 9520 N 872.079 0.78992 -1.36375 0
M  V30 9521 C 873.309 1.57644 -1.33536 0
M  V30 9522 C 873.717 1.89007 0.0855075 0
M  V30 9523 O 873.06 1.50547 1.05267 0
M  V30 9524 C 873.122 2.92424 -2.09113 0
M  V30 9525 C 872.786 2.83793 -3.58205 0
M  V30 9526 C 873.783 2.56072 -4.52464 0
M  V30 9527 C 871.468 3.02386 -4.01084 0
M  V30 9528 C 873.462 2.47044 -5.87578 0
M  V30 9529 C 871.149 2.9298 -5.36289 0
M  V30 9530 C 872.147 2.65347 -6.29349 0
M  V30 9531 O 871.835 2.55935 -7.62071 0
M  V30 9532 H 871.567 0.495639 -0.459694 0
M  V30 9533 H 874.121 0.988354 -1.80058 0
M  V30 9534 H 872.351 3.53282 -1.57254 0
M  V30 9535 H 874.04 3.53693 -1.99139 0
M  V30 9536 H 874.806 2.4141 -4.2065 0
M  V30 9537 H 870.685 3.229 -3.29023 0
M  V30 9538 H 874.229 2.25396 -6.60184 0
M  V30 9539 H 870.126 3.07204 -5.67711 0
M  V30 9540 H 870.894 2.7142 -7.72187 0
M  V30 9541 N 873.557 1.20646 1.01402 0
M  V30 9542 C 874.467 0.973385 2.13453 0
M  V30 9543 C 875.483 -0.0715865 1.73853 0
M  V30 9544 O 876.659 0.116438 2.01063 0
M  V30 9545 C 873.724 0.531285 3.42605 0
M  V30 9546 C 872.785 1.64741 3.96433 0
M  V30 9547 C 872.018 1.22631 5.1942 0
M  V30 9548 O 872.241 0.0960891 5.70319 0
M  V30 9549 O 871.175 2.03474 5.66465 0
M  V30 9550 H 875.001 1.91164 2.35987 0
M  V30 9551 H 872.586 0.990553 1.11841 0
M  V30 9552 H 874.468 0.294095 4.20373 0
M  V30 9553 H 873.143 -0.378358 3.21481 0
M  V30 9554 H 872.05 1.93891 3.19933 0
M  V30 9555 H 873.383 2.53415 4.2195 0
M  V30 9556 N 875.035 -1.20752 1.01276 0
M  V30 9557 C 875.998 -2.2162 0.584583 0
M  V30 9558 C 876.998 -1.57094 -0.343215 0
M  V30 9559 O 878.188 -1.73696 -0.132433 0
M  V30 9560 C 875.32 -3.40583 -0.146872 0
M  V30 9561 H 876.513 -2.61015 1.47686 0
M  V30 9562 H 874.066 -1.34148 0.802123 0
M  V30 9563 H 874.801 -3.06686 -1.05424 0
M  V30 9564 H 874.586 -3.88642 0.51958 0
M  V30 9565 H 876.076 -4.15339 -0.433924 0
M  V30 9566 N 876.513 -0.788492 -1.36457 0
M  V30 9567 C 877.476 -0.192209 -2.28393 0
M  V30 9568 C 878.476 0.609916 -1.48784 0
M  V30 9569 O 879.666 0.431046 -1.68783 0
M  V30 9570 C 876.798 0.734096 -3.32902 0
M  V30 9571 H 877.991 -1.00284 -2.82636 0
M  V30 9572 H 875.544 -0.557852 -1.46006 0
M  V30 9573 H 876.279 1.5691 -2.83813 0
M  V30 9574 H 876.064 0.160875 -3.9177 0
M  V30 9575 H 877.554 1.1462 -4.01562 0
M  V30 9576 N 877.991 1.48044 -0.54043 0
M  V30 9577 C 879.231 2.04396 -0.012296 0
M  V30 9578 C 879.595 1.40748 1.30591 0
M  V30 9579 O 880.796 1.88048 1.92072 0
M  V30 9580 C 879.067 3.5727 0.0964302 0
M  V30 9581 S 880.626 4.35041 0.573117 0
M  V30 9582 H 877.444 0.710795 -0.0170735 0
M  V30 9583 H 880.046 1.81625 -0.723362 0
M  V30 9584 H 878.75 4.01124 -0.86762 0
M  V30 9585 H 878.281 3.84511 0.83156 0
M  V30 9586 H 880.296 4.6099 1.83583 0
M  V30 9587 N 879.47 0.276058 1.55163 0
M  V30 9588 C 880.418 -0.626978 2.2399 0
M  V30 9589 C 881.412 -1.15708 1.23725 0
M  V30 9590 O 882.618 -1.1106 1.41653 0
M  V30 9591 H 878.993 -0.220742 0.718872 0
M  V30 9592 H 880.964 -0.0236569 2.98391 0
M  V30 9593 C 879.713 -1.79935 2.97521 0
M  V30 9594 H 879.036 -1.40064 3.74463 0
M  V30 9595 H 880.476 -2.40781 3.48999 0
M  V30 9596 C 878.935 -2.68838 2.03046 0
M  V30 9597 O 879.465 -3.69224 1.58229 0
M  V30 9598 N 877.671 -2.36028 1.69527 0
M  V30 9599 H 877.218 -1.54442 2.06169 0
M  V30 9600 H 877.176 -2.95782 1.06586 0
M  V30 9601 N 880.948 -1.576 0.00335426 0
M  V30 9602 C 881.878 -2.11668 -0.985839 0
M  V30 9603 C 882.859 -1.02661 -1.35627 0
M  V30 9604 O 884.044 -1.30361 -1.43943 0
M  V30 9605 C 881.174 -2.62273 -2.27662 0
M  V30 9606 C 880.128 -3.75837 -2.0477 0
M  V30 9607 C 879.454 -4.12769 -3.39891 0
M  V30 9608 C 880.754 -5.02975 -1.40759 0
M  V30 9609 H 882.448 -2.9457 -0.535637 0
M  V30 9610 H 879.994 -1.41702 -0.256204 0
M  V30 9611 H 881.947 -2.98727 -2.97221 0
M  V30 9612 H 880.671 -1.76498 -2.74802 0
M  V30 9613 H 879.33 -3.39782 -1.37636 0
M  V30 9614 H 878.978 -3.24013 -3.8474 0
M  V30 9615 H 878.678 -4.89281 -3.25389 0
M  V30 9616 H 880.202 -4.51784 -4.1076 0
M  V30 9617 H 881.616 -5.37179 -2.00279 0
M  V30 9618 H 880.013 -5.84315 -1.36734 0
M  V30 9619 H 881.083 -4.83431 -0.377218 0
M  V30 9620 N 882.426 0.269451 -1.5528 0
M  V30 9621 C 883.673 1.00058 -1.76053 0
M  V30 9622 C 884.001 1.86156 -0.563592 0
M  V30 9623 O 883.256 1.90366 0.453806 0
M  V30 9624 C 883.555 1.91 -3.02082 0
M  V30 9625 C 883.221 1.20623 -4.34466 0
M  V30 9626 C 881.883 1.01165 -4.70446 0
M  V30 9627 C 884.235 0.705695 -5.164 0
M  V30 9628 C 881.563 0.303865 -5.85913 0
M  V30 9629 C 883.915 0.0114838 -6.32599 0
M  V30 9630 C 882.579 -0.19478 -6.67216 0
M  V30 9631 H 881.849 0.366138 -0.644223 0
M  V30 9632 H 884.496 0.272563 -1.8955 0
M  V30 9633 H 882.801 2.70435 -2.835 0
M  V30 9634 H 884.498 2.47698 -3.15352 0
M  V30 9635 H 881.088 1.36781 -4.06188 0
M  V30 9636 H 885.272 0.84364 -4.89077 0
M  V30 9637 H 880.528 0.133368 -6.11255 0
M  V30 9638 H 884.702 -0.384111 -6.9534 0
M  V30 9639 H 882.329 -0.745201 -7.56539 0
M  V30 9640 N 883.904 1.48273 0.534124 0
M  V30 9641 C 884.867 1.6201 1.62127 0
M  V30 9642 C 885.867 0.493653 1.53035 0
M  V30 9643 O 887.057 0.759337 1.56779 0
M  V30 9644 C 884.189 1.5864 3.01739 0
M  V30 9645 H 885.382 2.58944 1.51288 0
M  V30 9646 H 882.935 1.36808 0.755861 0
M  V30 9647 H 883.67 0.631685 3.18088 0
M  V30 9648 H 883.455 2.40415 3.09747 0
M  V30 9649 H 884.945 1.71438 3.80787 0
M  V30 9650 N 885.382 -0.782676 1.36792 0
M  V30 9651 C 886.329 -1.89558 1.31667 0
M  V30 9652 C 887.299 -1.65076 0.184147 0
M  V30 9653 O 888.484 -1.87143 0.371753 0
M  V30 9654 C 885.624 -3.26469 1.11858 0
M  V30 9655 C 884.737 -3.62978 2.34245 0
M  V30 9656 C 883.872 -4.89041 2.07394 0
M  V30 9657 C 882.911 -5.18249 3.25706 0
M  V30 9658 N 882.048 -6.35497 2.98476 0
M  V30 9659 H 886.888 -1.93274 2.26824 0
M  V30 9660 H 884.425 -0.945057 1.12726 0
M  V30 9661 H 886.383 -4.05431 0.983968 0
M  V30 9662 H 885.013 -3.22158 0.203531 0
M  V30 9663 H 884.065 -2.79087 2.58485 0
M  V30 9664 H 885.377 -3.80507 3.22514 0
M  V30 9665 H 884.531 -5.75883 1.90901 0
M  V30 9666 H 883.27 -4.73594 1.16446 0
M  V30 9667 H 882.275 -4.29887 3.4275 0
M  V30 9668 H 883.5 -5.35611 4.1749 0
M  V30 9669 H 881.446 -6.21429 2.10146 0
M  V30 9670 H 881.363 -6.5339 3.80286 0
M  V30 9671 H 882.631 -7.25304 2.85577 0
M  V30 9672 N 886.86 -1.21182 -1.00761 0
M  V30 9673 C 888.088 -1.05335 -1.78079 0
M  V30 9674 C 888.503 0.396988 -1.84579 0
M  V30 9675 O 887.86 1.27548 -1.30529 0
M  V30 9676 C 887.911 -1.64089 -3.22113 0
M  V30 9677 O 887.632 -3.03448 -3.15992 0
M  V30 9678 C 889.133 -1.53318 -4.15943 0
M  V30 9679 H 886.353 -0.37005 -0.559736 0
M  V30 9680 H 888.897 -1.60463 -1.26775 0
M  V30 9681 H 887.052 -1.13059 -3.70535 0
M  V30 9682 H 887.466 -3.31492 -4.06465 0
M  V30 9683 H 888.94 -1.99174 -5.14814 0
M  V30 9684 H 889.417 -0.487166 -4.3649 0
M  V30 9685 H 890.023 -2.03582 -3.73409 0
M  V30 9686 N 888.338 1.20213 -1.01915 0
M  V30 9687 C 889.749 1.7136 -0.741131 0
M  V30 9688 C 890.1 1.81705 0.740107 0
M  V30 9689 O 889.225 1.48139 1.57746 0
M  V30 9690 C 889.82 3.11231 -1.33869 0
M  V30 9691 C 888.379 3.59677 -1.10948 0
M  V30 9692 C 887.526 2.36809 -1.4428 0
M  V30 9693 H 890.477 1.05191 -1.1883 0
M  V30 9694 H 890.498 3.7342 -0.730585 0
M  V30 9695 H 890.01 3.03669 -2.41675 0
M  V30 9696 H 888.111 3.72568 -0.0492052 0
M  V30 9697 H 888.224 4.44351 -1.79134 0
M  V30 9698 H 886.588 2.39674 -0.861881 0
M  V30 9699 H 887.371 2.31886 -2.53148 0
M  V30 9700 N 889.816 0.795718 1.36037 0
M  V30 9701 C 891.046 0.382597 2.03026 0
M  V30 9702 C 891.454 -1.00779 1.60126 0
M  V30 9703 O 890.797 -1.65884 0.78919 0
M  V30 9704 C 890.859 0.374145 3.57548 0
M  V30 9705 C 890.523 1.71318 4.23673 0
M  V30 9706 C 891.52 2.6697 4.4612 0
M  V30 9707 C 889.205 1.99421 4.61017 0
M  V30 9708 C 891.199 3.88916 5.04998 0
M  V30 9709 C 888.886 3.21632 5.19611 0
M  V30 9710 C 889.884 4.16198 5.41542 0
M  V30 9711 O 889.572 5.36254 5.98905 0
M  V30 9712 H 889.304 0.154944 0.658003 0
M  V30 9713 H 891.858 1.07756 1.74865 0
M  V30 9714 H 890.088 -0.377349 3.84854 0
M  V30 9715 H 891.777 -0.01517 4.05897 0
M  V30 9716 H 892.543 2.46548 4.17659 0
M  V30 9717 H 888.422 1.2663 4.43267 0
M  V30 9718 H 891.966 4.6274 5.22032 0
M  V30 9719 H 887.863 3.4193 5.47498 0
M  V30 9720 H 888.631 5.37403 6.17366 0
M  V30 9721 N 891.294 -1.47756 0.548274 0
M  V30 9722 C 892.571 -1.9555 -0.0443603 0
M  V30 9723 C 892.951 -1.49079 -1.49462 0
M  V30 9724 O 892.299 -0.725538 -2.16675 0
M  V30 9725 C 892.509 -3.48879 0.0918425 0
M  V30 9726 C 893.857 -4.2456 -0.0580879 0
M  V30 9727 O 894.881 -3.56195 0.018946 0
M  V30 9728 O 893.74 -5.46048 -0.222261 0
M  V30 9729 H 890.834 -0.824106 -0.0691235 0
M  V30 9730 H 893.38 -1.58196 0.614166 0
M  V30 9731 H 892.152 -3.7548 1.10137 0
M  V30 9732 H 891.775 -3.92975 -0.604704 0
M  V30 9733 N 892.772 -0.284283 -1.55015 0
M  V30 9734 C 893.997 0.335799 -2.04664 0
M  V30 9735 C 894.422 1.47999 -1.16094 0
M  V30 9736 O 893.78 1.8058 -0.161454 0
M  V30 9737 C 893.828 0.785615 -3.51938 0
M  V30 9738 O 892.932 1.89202 -3.66437 0
M  V30 9739 H 892.273 0.0680233 -0.660506 0
M  V30 9740 H 894.803 -0.421255 -2.00216 0
M  V30 9741 H 894.813 1.07892 -3.93476 0
M  V30 9742 H 893.488 -0.0514675 -4.15868 0
M  V30 9743 H 892.065 1.60055 -3.36804 0
M  V30 9744 N 894.251 1.57596 -0.0117121 0
M  V30 9745 C 895.497 1.91355 0.671661 0
M  V30 9746 C 895.83 0.886818 1.72769 0
M  V30 9747 O 895.105 -0.0928813 1.94278 0
M  V30 9748 C 895.388 3.35657 1.30409 0
M  V30 9749 C 895.241 4.49055 0.2588 0
M  V30 9750 C 896.56 3.79595 2.22701 0
M  V30 9751 H 893.679 0.695893 0.242698 0
M  V30 9752 H 896.321 1.89887 -0.0654071 0
M  V30 9753 H 894.471 3.37038 1.9323 0
M  V30 9754 H 896.143 4.59809 -0.370631 0
M  V30 9755 H 894.386 4.31785 -0.417672 0
M  V30 9756 H 895.057 5.4701 0.740578 0
M  V30 9757 H 897.533 3.7984 1.69885 0
M  V30 9758 H 896.409 4.81292 2.63912 0
M  V30 9759 H 896.67 3.14118 3.11098 0
M  V30 9760 N 895.729 -0.261212 1.5542 0
M  V30 9761 C 896.659 -1.32712 1.92119 0
M  V30 9762 C 897.64 -1.50934 0.784406 0
M  V30 9763 O 898.825 -1.63781 1.04352 0
M  V30 9764 C 895.955 -2.68453 2.20341 0
M  V30 9765 C 894.909 -2.64947 3.36136 0
M  V30 9766 C 894.235 -4.04349 3.49865 0
M  V30 9767 C 895.535 -2.23182 4.72215 0
M  V30 9768 H 897.229 -1.02245 2.81401 0
M  V30 9769 H 894.775 -0.490406 1.35392 0
M  V30 9770 H 896.728 -3.43144 2.44603 0
M  V30 9771 H 895.452 -3.00527 1.27871 0
M  V30 9772 H 894.111 -1.92714 3.11861 0
M  V30 9773 H 893.759 -4.33665 2.5484 0
M  V30 9774 H 893.459 -4.02895 4.27726 0
M  V30 9775 H 894.983 -4.80761 3.76432 0
M  V30 9776 H 896.397 -2.87599 4.95943 0
M  V30 9777 H 894.794 -2.32867 5.53076 0
M  V30 9778 H 895.864 -1.18327 4.70241 0
M  V30 9779 N 897.207 -1.48554 -0.526253 0
M  V30 9780 C 898.454 -1.56761 -1.28188 0
M  V30 9781 C 898.782 -0.24315 -1.92974 0
M  V30 9782 O 898.037 0.766883 -1.80048 0
M  V30 9783 C 898.336 -2.65739 -2.38993 0
M  V30 9784 C 898.002 -4.08057 -1.91834 0
M  V30 9785 C 896.664 -4.46792 -1.78691 0
M  V30 9786 C 899.016 -4.9723 -1.56242 0
M  V30 9787 C 896.344 -5.72501 -1.28296 0
M  V30 9788 C 898.696 -6.23432 -1.07309 0
M  V30 9789 C 897.36 -6.6102 -0.927853 0
M  V30 9790 H 896.63 -0.573631 -0.469072 0
M  V30 9791 H 899.277 -1.82287 -0.586842 0
M  V30 9792 H 897.582 -2.34088 -3.14181 0
M  V30 9793 H 899.279 -2.69304 -2.97113 0
M  V30 9794 H 895.869 -3.77469 -2.03016 0
M  V30 9795 H 900.053 -4.67979 -1.65255 0
M  V30 9796 H 895.309 -6.00345 -1.15742 0
M  V30 9797 H 899.483 -6.91923 -0.788412 0
M  V30 9798 H 897.11 -7.58314 -0.535162 0
M  V30 9799 N 898.685 0.775411 -1.37205 0
M  V30 9800 C 899.617 1.89761 -1.28544 0
M  V30 9801 C 900.63 1.61542 -0.201996 0
M  V30 9802 O 901.819 1.72528 -0.457848 0
M  V30 9803 C 898.919 3.24904 -0.963885 0
M  V30 9804 C 898.092 3.80796 -2.15205 0
M  V30 9805 C 897.151 4.94407 -1.80135 0
M  V30 9806 O 896.177 5.10185 -2.52388 0
M  V30 9807 N 897.379 5.75722 -0.743298 0
M  V30 9808 H 900.144 1.97708 -2.25237 0
M  V30 9809 H 897.705 0.954348 -1.30782 0
M  V30 9810 H 899.697 3.9842 -0.710182 0
M  V30 9811 H 898.267 3.12483 -0.085632 0
M  V30 9812 H 897.487 2.99101 -2.56773 0
M  V30 9813 H 898.775 4.1487 -2.94552 0
M  V30 9814 H 898.173 5.65518 -0.143655 0
M  V30 9815 H 896.73 6.4948 -0.549446 0
M  V30 9816 N 900.163 1.21714 1.00117 0
M  V30 9817 C 901.11 0.979837 2.08968 0
M  V30 9818 C 902.08 -0.0955324 1.65825 0
M  V30 9819 O 903.265 0.0523742 1.90728 0
M  V30 9820 C 900.405 0.554758 3.40612 0
M  V30 9821 C 899.518 1.69999 3.97145 0
M  V30 9822 C 898.653 1.2237 5.16913 0
M  V30 9823 C 897.692 2.34101 5.65564 0
M  V30 9824 N 896.829 1.87579 6.76579 0
M  V30 9825 H 901.669 1.91167 2.28602 0
M  V30 9826 H 899.206 0.952645 1.12085 0
M  V30 9827 H 901.164 0.289526 4.16194 0
M  V30 9828 H 899.794 -0.340073 3.21004 0
M  V30 9829 H 898.846 2.07976 3.18512 0
M  V30 9830 H 900.158 2.54074 4.29241 0
M  V30 9831 H 899.312 0.915358 5.99755 0
M  V30 9832 H 898.051 0.353045 4.8642 0
M  V30 9833 H 897.056 2.65734 4.81316 0
M  V30 9834 H 898.281 3.21669 5.98085 0
M  V30 9835 H 896.227 1.02863 6.47885 0
M  V30 9836 H 896.144 2.65225 7.07949 0
M  V30 9837 H 897.412 1.5979 7.62947 0
M  V30 9838 N 901.641 -1.19671 1.02551 0
M  V30 9839 C 902.589 -2.24812 0.596867 0
M  V30 9840 C 903.583 -1.65336 -0.368839 0
M  V30 9841 O 904.789 -1.78422 -0.237786 0
M  V30 9842 H 901.164 -0.731417 0.174739 0
M  V30 9843 H 903.135 -2.58286 1.49435 0
M  V30 9844 C 901.884 -3.47677 -0.0399514 0
M  V30 9845 H 901.207 -3.93728 0.694153 0
M  V30 9846 H 902.647 -4.22917 -0.302861 0
M  V30 9847 C 901.106 -3.11411 -1.2855 0
M  V30 9848 O 901.636 -3.23757 -2.37791 0
M  V30 9849 N 899.842 -2.65875 -1.17297 0
M  V30 9850 H 899.389 -2.56029 -0.284045 0
M  V30 9851 H 899.347 -2.41981 -2.00731 0
M  V30 9852 N 903.119 -0.802921 -1.35613 0
M  V30 9853 C 904.368 -0.378087 -1.98125 0
M  V30 9854 C 904.681 1.05953 -1.64418 0
M  V30 9855 O 905.887 1.58729 -2.20266 0
M  V30 9856 C 904.343 -0.625077 -3.5443 0
M  V30 9857 C 903.951 -2.07499 -3.97049 0
M  V30 9858 C 905.695 -0.265419 -4.23669 0
M  V30 9859 C 903.602 -2.26793 -5.46186 0
M  V30 9860 H 902.532 -0.137633 -0.741332 0
M  V30 9861 H 905.183 -0.986461 -1.54729 0
M  V30 9862 H 903.565 0.0531975 -3.95964 0
M  V30 9863 H 904.739 -2.79077 -3.66678 0
M  V30 9864 H 903.054 -2.39417 -3.40688 0
M  V30 9865 H 905.651 -0.387669 -5.33293 0
M  V30 9866 H 905.994 0.787994 -4.08774 0
M  V30 9867 H 906.527 -0.897464 -3.87544 0
M  V30 9868 H 903.266 -3.30566 -5.66045 0
M  V30 9869 H 902.786 -1.59735 -5.78139 0
M  V30 9870 H 904.465 -2.08165 -6.12598 0
M  V30 9871 N 904.597 1.47463 -0.556102 0
M  V30 9872 C 905.507 2.33785 0.195378 0
M  V30 9873 C 906.523 1.48123 0.913 0
M  V30 9874 O 907.699 1.81053 0.882141 0
M  V30 9875 C 904.764 3.24795 1.21282 0
M  V30 9876 C 903.825 4.26346 0.502747 0
M  V30 9877 C 903.058 5.13007 1.47172 0
M  V30 9878 O 903.281 5.02103 2.70646 0
M  V30 9879 O 902.215 5.93588 0.996814 0
M  V30 9880 H 906.041 2.99341 -0.512676 0
M  V30 9881 H 903.626 1.46004 -0.31673 0
M  V30 9882 H 905.508 3.81015 1.80016 0
M  V30 9883 H 904.183 2.61868 1.90282 0
M  V30 9884 H 903.09 3.73889 -0.125757 0
M  V30 9885 H 904.423 4.91984 -0.145779 0
M  V30 9886 N 906.075 0.2925 1.54862 0
M  V30 9887 C 907.352 -0.371946 1.92031 0
M  V30 9888 C 907.732 -1.72363 1.21878 0
M  V30 9889 O 907.08 -2.25779 0.351573 0
M  V30 9890 C 907.29 -0.495027 3.45471 0
M  V30 9891 C 908.638 -0.769855 4.17562 0
M  V30 9892 O 909.662 -0.579168 3.5146 0
M  V30 9893 O 908.521 -1.13561 5.34571 0
M  V30 9894 H 905.615 -0.206463 0.800813 0
M  V30 9895 H 908.161 0.339933 1.6626 0
M  V30 9896 H 906.933 0.455528 3.88639 0
M  V30 9897 H 906.556 -1.2557 3.7725 0
M  V30 9898 N 907.553 -1.57587 0.0200696 0
M  V30 9899 C 908.778 -1.96124 -0.674547 0
M  V30 9900 C 909.203 -0.896068 -1.65385 0
M  V30 9901 O 908.561 0.143925 -1.80728 0
M  V30 9902 C 908.609 -3.3376 -1.36517 0
M  V30 9903 O 907.713 -3.29483 -2.48022 0
M  V30 9904 H 907.054 -0.639719 -0.177919 0
M  V30 9905 H 909.584 -2.04447 0.0792317 0
M  V30 9906 H 909.594 -3.69785 -1.72403 0
M  V30 9907 H 908.269 -4.10832 -0.647265 0
M  V30 9908 H 906.846 -3.05162 -2.14314 0
M  V30 9909 N 909.032 0.252966 -1.55557 0
M  V30 9910 C 909.942 1.33472 -1.92931 0
M  V30 9911 C 910.958 1.52983 -0.828985 0
M  V30 9912 O 912.134 1.66723 -1.12984 0
M  V30 9913 C 909.199 2.6704 -2.21112 0
M  V30 9914 C 908.26 2.56103 -3.44542 0
M  V30 9915 C 907.493 3.83302 -3.71369 0
M  V30 9916 O 907.716 4.84907 -3.00368 0
M  V30 9917 O 906.65 3.823 -4.64898 0
M  V30 9918 H 910.476 1.04768 -2.85057 0
M  V30 9919 H 908.061 0.453208 -1.4236 0
M  V30 9920 H 909.943 3.45981 -2.40572 0
M  V30 9921 H 908.618 2.95489 -1.32166 0
M  V30 9922 H 907.525 1.7547 -3.30396 0
M  V30 9923 H 908.858 2.32601 -4.33772 0
M  V30 9924 N 910.51 1.48831 0.518367 0
M  V30 9925 C 911.759 1.5669 1.27008 0
M  V30 9926 C 912.072 0.250934 1.93984 0
M  V30 9927 O 913.278 0.207884 2.70703 0
M  V30 9928 C 911.734 2.76387 2.30517 0
M  V30 9929 C 911.342 4.14673 1.69559 0
M  V30 9930 C 913.086 2.93566 3.06625 0
M  V30 9931 C 910.993 5.25616 2.71076 0
M  V30 9932 H 909.923 0.583362 0.477708 0
M  V30 9933 H 912.574 1.75187 0.546052 0
M  V30 9934 H 910.956 2.51348 3.06006 0
M  V30 9935 H 912.13 4.49779 1.00179 0
M  V30 9936 H 910.445 4.02708 1.05902 0
M  V30 9937 H 913.042 3.7362 3.82508 0
M  V30 9938 H 913.385 2.03462 3.63193 0
M  V30 9939 H 913.918 3.18562 2.38251 0
M  V30 9940 H 910.657 6.17723 2.19313 0
M  V30 9941 H 910.177 4.94985 3.38748 0
M  V30 9942 H 911.856 5.5422 3.3384 0
M  V30 9943 N 911.988 -0.768124 1.37614 0
M  V30 9944 C 912.951 -1.86314 1.3349 0
M  V30 9945 C 913.951 -1.59025 0.23823 0
M  V30 9946 O 915.141 -1.6704 0.494288 0
M  V30 9947 C 912.273 -3.23519 1.07462 0
M  V30 9948 H 913.466 -1.91382 2.30896 0
M  V30 9949 H 911.019 -0.968267 1.22696 0
M  V30 9950 H 911.754 -3.24127 0.106028 0
M  V30 9951 H 911.539 -3.44719 1.86846 0
M  V30 9952 H 913.029 -4.03597 1.07236 0
M  V30 9953 N 913.466 -1.22244 -0.994698 0
M  V30 9954 C 914.696 -1.07062 -1.76695 0
M  V30 9955 C 915.104 0.381895 -1.85306 0
M  V30 9956 O 914.447 1.27648 -1.32105 0
M  V30 9957 C 914.509 -1.60487 -3.2169 0
M  V30 9958 C 914.173 -3.09079 -3.36629 0
M  V30 9959 C 915.17 -4.06526 -3.24088 0
M  V30 9960 C 912.855 -3.48497 -3.61739 0
M  V30 9961 C 914.849 -5.41377 -3.36437 0
M  V30 9962 C 912.536 -4.83498 -3.73729 0
M  V30 9963 C 913.534 -5.79747 -3.61086 0
M  V30 9964 O 913.222 -7.12297 -3.72678 0
M  V30 9965 H 912.954 -0.375963 -0.561807 0
M  V30 9966 H 915.508 -1.62259 -1.25941 0
M  V30 9967 H 913.738 -0.996957 -3.73628 0
M  V30 9968 H 915.427 -1.40994 -3.80625 0
M  V30 9969 H 916.193 -3.77415 -3.04602 0
M  V30 9970 H 912.072 -2.74106 -3.70657 0
M  V30 9971 H 915.616 -6.16485 -3.26485 0
M  V30 9972 H 911.513 -5.1229 -3.92721 0
M  V30 9973 H 912.281 -7.1985 -3.89562 0
M  V30 9974 N 914.944 1.19125 -1.03184 0
M  V30 9975 C 916.174 1.92558 -0.748663 0
M  V30 9976 C 916.582 1.759 0.696837 0
M  V30 9977 O 915.925 1.08019 1.48585 0
M  V30 9978 C 915.987 3.4461 -1.02391 0
M  V30 9979 C 915.651 3.85041 -2.46155 0
M  V30 9980 C 916.648 3.89554 -3.44302 0
M  V30 9981 C 914.333 4.16594 -2.80633 0
M  V30 9982 C 916.327 4.25055 -4.74981 0
M  V30 9983 C 914.014 4.51767 -4.11521 0
M  V30 9984 C 915.012 4.55972 -5.08506 0
M  V30 9985 O 914.7 4.9033 -6.37049 0
M  V30 9986 H 914.432 0.618397 -0.273059 0
M  V30 9987 H 916.986 1.52122 -1.38015 0
M  V30 9988 H 915.216 3.85244 -0.335284 0
M  V30 9989 H 916.905 3.99283 -0.729927 0
M  V30 9990 H 917.671 3.65324 -3.19003 0
M  V30 9991 H 913.55 4.12503 -2.05821 0
M  V30 9992 H 917.094 4.28252 -5.50678 0
M  V30 9993 H 912.991 4.75455 -4.36592 0
M  V30 9994 H 913.759 5.08266 -6.41566 0
M  V30 9995 N 916.422 0.810101 1.35185 0
M  V30 9996 C 917.652 0.404109 2.02609 0
M  V30 9997 C 918.06 -0.990748 1.61186 0
M  V30 9998 O 917.403 -1.65038 0.80674 0
M  V30 9999 C 917.465 0.412047 3.57131 0
M  V30 10000 C 917.129 1.75802 4.21832 0
M  V30 10001 C 918.126 2.71687 4.43263 0
M  V30 10002 C 915.811 2.04299 4.58876 0
M  V30 10003 C 917.805 3.9425 5.00845 0
M  V30 10004 C 915.492 3.27125 5.16171 0
M  V30 10005 C 916.49 4.21918 5.37098 0
M  V30 10006 O 916.178 5.42576 5.93184 0
M  V30 10007 H 915.91 0.161914 0.656323 0
M  V30 10008 H 918.464 1.09605 1.73712 0
M  V30 10009 H 916.694 -0.336509 3.85233 0
M  V30 10010 H 918.383 0.0278817 4.0589 0
M  V30 10011 H 919.149 2.50964 4.15021 0
M  V30 10012 H 915.028 1.31324 4.41899 0
M  V30 10013 H 918.572 4.68251 5.17094 0
M  V30 10014 H 914.469 3.47718 5.43841 0
M  V30 10015 H 915.237 5.43921 6.11631 0
M  V30 10016 N 917.9 -1.47166 0.563914 0
M  V30 10017 C 918.848 -2.31798 -0.193009 0
M  V30 10018 C 919.842 -1.43338 -0.902805 0
M  V30 10019 O 921.048 -1.60067 -0.823328 0
M  V30 10020 H 917.423 -0.747613 -0.0811139 0
M  V30 10021 H 919.394 -2.93476 0.539876 0
M  V30 10022 C 918.143 -3.26131 -1.20555 0
M  V30 10023 H 917.466 -3.94166 -0.668803 0
M  V30 10024 H 918.906 -3.88167 -1.70593 0
M  V30 10025 C 917.365 -2.50132 -2.25689 0
M  V30 10026 O 917.895 -2.25064 -3.3273 0
M  V30 10027 N 916.101 -2.11022 -1.99795 0
M  V30 10028 H 915.648 -2.3161 -1.1276 0
M  V30 10029 H 915.606 -1.60489 -2.70353 0
M  V30 10030 N 919.378 -0.300708 -1.54705 0
M  V30 10031 C 920.789 0.191995 -1.8571 0
M  V30 10032 C 921.14 1.53447 -1.22264 0
M  V30 10033 O 920.265 2.10054 -0.520226 0
M  V30 10034 C 920.86 0.355148 -3.36933 0
M  V30 10035 C 919.419 0.792071 -3.67972 0
M  V30 10036 C 918.566 -0.099756 -2.77121 0
M  V30 10037 H 921.517 -0.521729 -1.49879 0
M  V30 10038 H 921.538 1.18977 -3.61421 0
M  V30 10039 H 921.05 -0.622075 -3.83082 0
M  V30 10040 H 919.151 1.77986 -3.27341 0
M  V30 10041 H 919.264 0.611661 -4.75179 0
M  V30 10042 H 917.628 0.420909 -2.51198 0
M  V30 10043 H 918.411 -1.07333 -3.2609 0
M  V30 10044 N 920.856 1.57574 -0.0284266 0
M  V30 10045 C 922.104 1.91393 0.649079 0
M  V30 10046 C 922.425 0.905368 1.72708 0
M  V30 10047 O 921.695 -0.0532107 1.95828 0
M  V30 10048 H 920.275 0.70646 0.24274 0
M  V30 10049 H 922.937 1.94752 -0.076066 0
M  V30 10050 H 922.033 2.91988 1.10226 0
M  V30 10051 N 922.334 -0.244713 1.55689 0
M  V30 10052 C 923.611 -0.995407 1.68378 0
M  V30 10053 C 923.991 -2.03288 0.568949 0
M  V30 10054 O 923.339 -2.24469 -0.427299 0
M  V30 10055 C 923.549 -1.62678 3.08767 0
M  V30 10056 C 924.897 -2.1278 3.67437 0
M  V30 10057 O 925.921 -1.72614 3.11581 0
M  V30 10058 O 924.78 -2.86536 4.65359 0
M  V30 10059 H 921.874 -0.463476 0.684923 0
M  V30 10060 H 924.42 -0.238326 1.68018 0
M  V30 10061 H 923.192 -0.876469 3.81358 0
M  V30 10062 H 922.815 -2.45 3.13146 0
M  V30 10063 N 923.813 -1.49104 -0.510467 0
M  V30 10064 C 925.061 -1.578 -1.26268 0
M  V30 10065 C 925.382 -0.262349 -1.93227 0
M  V30 10066 O 924.652 0.717624 -1.82283 0
M  V30 10067 H 923.232 -0.581387 -0.46904 0
M  V30 10068 H 925.894 -1.85678 -0.592423 0
M  V30 10069 H 924.99 -2.36919 -2.03165 0
M  V30 10070 N 925.291 0.760815 -1.38019 0
M  V30 10071 C 926.201 1.90526 -1.36884 0
M  V30 10072 C 927.217 1.71941 -0.266908 0
M  V30 10073 O 928.393 1.94988 -0.50413 0
M  V30 10074 C 925.458 3.25799 -1.18558 0
M  V30 10075 C 924.519 3.56961 -2.3849 0
M  V30 10076 C 923.752 4.8578 -2.21029 0
M  V30 10077 O 923.975 5.57629 -1.20023 0
M  V30 10078 O 922.909 5.16254 -3.0946 0
M  V30 10079 H 926.735 1.94437 -2.33298 0
M  V30 10080 H 924.32 0.905091 -1.18863 0
M  V30 10081 H 926.202 4.0669 -1.1037 0
M  V30 10082 H 924.877 3.22716 -0.252241 0
M  V30 10083 H 923.784 2.7626 -2.52252 0
M  V30 10084 H 925.117 3.64798 -3.30429 0
M  V30 10085 N 926.769 1.22769 0.988202 0
M  V30 10086 C 928.018 1.0492 1.72263 0
M  V30 10087 C 928.331 -0.415282 1.91141 0
M  V30 10088 O 929.537 -0.713547 2.61956 0
M  V30 10089 C 927.993 1.82891 3.09966 0
M  V30 10090 C 927.601 3.33618 2.99003 0
M  V30 10091 C 929.345 1.73505 3.87423 0
M  V30 10092 C 927.252 4.04012 4.3189 0
M  V30 10093 H 926.182 0.38899 0.645912 0
M  V30 10094 H 928.833 1.46664 1.10281 0
M  V30 10095 H 927.215 1.33948 3.72658 0
M  V30 10096 H 928.389 3.8999 2.45448 0
M  V30 10097 H 926.704 3.43732 2.35027 0
M  V30 10098 H 929.301 2.23416 4.85787 0
M  V30 10099 H 929.644 0.696344 4.10435 0
M  V30 10100 H 930.177 2.20016 3.31418 0
M  V30 10101 H 926.916 5.08155 4.14075 0
M  V30 10102 H 926.436 3.52428 4.8534 0
M  V30 10103 H 928.115 4.0987 5.00615 0
M  V30 10104 N 928.247 -1.18576 1.03814 0
M  V30 10105 C 929.179 -2.21607 0.585055 0
M  V30 10106 C 930.192 -1.59125 -0.343963 0
M  V30 10107 O 931.381 -1.77959 -0.138882 0
M  V30 10108 C 928.481 -3.38495 -0.165602 0
M  V30 10109 C 927.654 -4.30557 0.770662 0
M  V30 10110 C 926.713 -5.26161 0.0637534 0
M  V30 10111 O 925.739 -5.64961 0.693359 0
M  V30 10112 N 926.941 -5.67882 -1.20377 0
M  V30 10113 H 929.706 -2.61104 1.47121 0
M  V30 10114 H 927.267 -1.33336 0.918316 0
M  V30 10115 H 929.259 -3.99474 -0.648292 0
M  V30 10116 H 927.829 -2.97711 -0.953268 0
M  V30 10117 H 927.049 -3.67221 1.43326 0
M  V30 10118 H 928.337 -4.88969 1.40667 0
M  V30 10119 H 927.735 -5.38409 -1.73586 0
M  V30 10120 H 926.292 -6.31069 -1.63079 0
M  V30 10121 N 929.725 -0.817259 -1.34754 0
M  V30 10122 C 930.635 -0.236946 -2.334 0
M  V30 10123 C 931.651 0.625685 -1.62361 0
M  V30 10124 O 932.827 0.534921 -1.94166 0
M  V30 10125 C 929.892 0.596215 -3.41535 0
M  V30 10126 C 928.953 -0.288154 -4.28332 0
M  V30 10127 C 928.186 0.505337 -5.31302 0
M  V30 10128 O 928.409 1.73912 -5.43241 0
M  V30 10129 O 927.343 -0.109374 -6.01801 0
M  V30 10130 H 931.169 -1.05327 -2.84851 0
M  V30 10131 H 928.754 -0.579275 -1.37713 0
M  V30 10132 H 930.636 1.07041 -4.07578 0
M  V30 10133 H 929.311 1.38997 -2.92338 0
M  V30 10134 H 928.218 -0.809724 -3.65232 0
M  V30 10135 H 929.551 -1.04612 -4.80955 0
M  V30 10136 N 931.203 1.46865 -0.571711 0
M  V30 10137 C 932.452 2.01636 -0.050881 0
M  V30 10138 C 932.765 1.45001 1.31279 0
M  V30 10139 O 933.971 1.91523 1.92435 0
M  V30 10140 C 932.427 3.59877 -0.0404114 0
M  V30 10141 C 932.035 4.25506 -1.40172 0
M  V30 10142 C 933.779 4.22346 0.42705 0
M  V30 10143 C 931.686 5.75795 -1.34958 0
M  V30 10144 H 930.616 0.753846 -0.0152514 0
M  V30 10145 H 933.267 1.68711 -0.721723 0
M  V30 10146 H 931.649 3.89829 0.696374 0
M  V30 10147 H 932.823 4.07178 -2.15737 0
M  V30 10148 H 931.138 3.75086 -1.8083 0
M  V30 10149 H 933.735 5.32499 0.484688 0
M  V30 10150 H 934.078 3.9052 1.44222 0
M  V30 10151 H 934.611 3.9698 -0.255326 0
M  V30 10152 H 931.35 6.12265 -2.3412 0
M  V30 10153 H 930.87 5.96419 -0.635962 0
M  V30 10154 H 932.549 6.38294 -1.05779 0
M  V30 10155 N 932.681 0.308908 1.54543 0
M  V30 10156 C 933.958 -0.351558 1.92415 0
M  V30 10157 C 934.338 -1.71061 1.23699 0
M  V30 10158 O 933.686 -2.25394 0.3755 0
M  V30 10159 C 933.896 -0.458357 3.45977 0
M  V30 10160 C 935.244 -0.725524 4.18355 0
M  V30 10161 O 936.268 -0.541859 3.52054 0
M  V30 10162 O 935.127 -1.07884 5.35745 0
M  V30 10163 H 932.221 -0.197957 0.802958 0
M  V30 10164 H 934.767 0.357548 1.65891 0
M  V30 10165 H 933.539 0.496723 3.88134 0
M  V30 10166 H 933.162 -1.21562 3.78561 0
M  V30 10167 N 934.159 -1.57557 0.0367827 0
M  V30 10168 C 935.106 -2.10679 -0.942499 0
M  V30 10169 C 936.076 -1.01068 -1.31812 0
M  V30 10170 O 937.261 -1.28533 -1.41011 0
M  V30 10171 C 934.401 -2.64467 -2.21701 0
M  V30 10172 C 933.514 -3.88114 -1.89715 0
M  V30 10173 C 932.649 -4.30268 -3.11518 0
M  V30 10174 C 931.688 -5.46652 -2.75387 0
M  V30 10175 N 930.825 -5.83927 -3.89838 0
M  V30 10176 H 935.665 -2.94066 -0.482588 0
M  V30 10177 H 933.202 -1.45344 -0.226597 0
M  V30 10178 H 935.16 -2.93745 -2.96259 0
M  V30 10179 H 933.79 -1.83898 -2.65295 0
M  V30 10180 H 932.842 -3.65516 -1.05366 0
M  V30 10181 H 934.154 -4.72743 -1.5911 0
M  V30 10182 H 933.308 -4.61023 -3.94389 0
M  V30 10183 H 932.047 -3.44421 -3.4529 0
M  V30 10184 H 931.052 -5.15583 -1.90929 0
M  V30 10185 H 932.277 -6.34204 -2.42822 0
M  V30 10186 H 930.223 -5.01035 -4.23438 0
M  V30 10187 H 930.14 -6.63214 -3.62883 0
M  V30 10188 H 931.408 -6.19291 -4.73391 0
M  V30 10189 N 935.637 0.236453 -1.55816 0
M  V30 10190 C 936.867 0.978873 -1.81939 0
M  V30 10191 C 937.275 1.79041 -0.611647 0
M  V30 10192 O 936.618 1.78616 0.429172 0
M  V30 10193 C 936.68 1.9569 -3.01572 0
M  V30 10194 C 936.344 1.33131 -4.37178 0
M  V30 10195 C 937.341 0.728585 -5.1477 0
M  V30 10196 C 935.026 1.34755 -4.83887 0
M  V30 10197 C 937.02 0.150427 -6.37222 0
M  V30 10198 C 934.707 0.765539 -6.06286 0
M  V30 10199 C 935.705 0.168017 -6.82793 0
M  V30 10200 O 935.393 -0.404976 -8.02879 0
M  V30 10201 H 935.125 0.293186 -0.609113 0
M  V30 10202 H 937.679 0.261384 -2.0373 0
M  V30 10203 H 935.909 2.71298 -2.75562 0
M  V30 10204 H 937.598 2.56362 -3.14695 0
M  V30 10205 H 938.364 0.708477 -4.79797 0
M  V30 10206 H 934.243 1.80202 -4.24321 0
M  V30 10207 H 937.787 -0.316586 -6.96881 0
M  V30 10208 H 933.684 0.78301 -6.40733 0
M  V30 10209 H 934.452 -0.29785 -8.17958 0
M  V30 10210 N 937.115 1.49373 0.502552 0
M  V30 10211 C 938.062 1.65927 1.60427 0
M  V30 10212 C 939.032 0.500768 1.58371 0
M  V30 10213 O 940.217 0.727606 1.76382 0
M  V30 10214 C 937.357 1.73043 2.9858 0
M  V30 10215 C 936.47 3.00187 3.10663 0
M  V30 10216 C 935.605 2.98292 4.3954 0
M  V30 10217 C 934.644 4.20022 4.4525 0
M  V30 10218 N 933.781 4.16046 5.65553 0
M  V30 10219 H 938.621 2.59998 1.45619 0
M  V30 10220 H 936.158 1.28912 0.708519 0
M  V30 10221 H 938.116 1.7515 3.78653 0
M  V30 10222 H 936.746 0.824397 3.12095 0
M  V30 10223 H 935.798 3.07699 2.23663 0
M  V30 10224 H 937.11 3.9018 3.10742 0
M  V30 10225 H 936.264 2.98953 5.27932 0
M  V30 10226 H 935.003 2.06075 4.42023 0
M  V30 10227 H 934.008 4.19607 3.5526 0
M  V30 10228 H 935.233 5.13431 4.44484 0
M  V30 10229 H 933.179 3.26665 5.68881 0
M  V30 10230 H 933.096 4.99773 5.67242 0
M  V30 10231 H 934.364 4.20807 6.56156 0
M  V30 10232 N 938.594 -0.753485 1.38421 0
M  V30 10233 C 939.843 -1.50797 1.33952 0
M  V30 10234 C 940.156 -1.95482 -0.0678464 0
M  V30 10235 O 941.362 -2.7048 -0.235078 0
M  V30 10236 C 939.818 -2.72393 2.35224 0
M  V30 10237 C 939.426 -2.34733 3.81582 0
M  V30 10238 C 941.17 -3.50281 2.39798 0
M  V30 10239 C 939.077 -3.52939 4.7454 0
M  V30 10240 H 938.007 -0.566211 0.497916 0
M  V30 10241 H 940.658 -0.823659 1.63976 0
M  V30 10242 H 939.04 -3.42806 1.98243 0
M  V30 10243 H 940.214 -1.71985 4.27502 0
M  V30 10244 H 938.529 -1.69978 3.80127 0
M  V30 10245 H 941.126 -4.38172 3.06447 0
M  V30 10246 H 941.469 -3.91444 1.41695 0
M  V30 10247 H 942.002 -2.86881 2.75579 0
M  V30 10248 H 938.741 -3.16843 5.73839 0
M  V30 10249 H 938.261 -4.1473 4.33312 0
M  V30 10250 H 939.94 -4.19519 4.92557 0
M  V30 10251 N 940.072 -1.23292 -0.981677 0
M  V30 10252 C 941.483 -1.05936 -1.53735 0
M  V30 10253 C 941.834 0.373695 -1.92608 0
M  V30 10254 O 940.959 1.26024 -1.75917 0
M  V30 10255 C 941.554 -1.91682 -2.79363 0
M  V30 10256 C 940.113 -1.78591 -3.31334 0
M  V30 10257 C 939.26 -1.87463 -2.04335 0
M  V30 10258 H 942.211 -1.36973 -0.801505 0
M  V30 10259 H 942.232 -1.44085 -3.52164 0
M  V30 10260 H 941.744 -2.95975 -2.51039 0
M  V30 10261 H 939.845 -0.770755 -3.64541 0
M  V30 10262 H 939.958 -2.61902 -4.01179 0
M  V30 10263 H 938.322 -1.3103 -2.18411 0
M  V30 10264 H 939.105 -2.9331 -1.78394 0
M  V30 10265 N 941.55 1.18024 -1.04442 0
M  V30 10266 C 942.775 1.92573 -0.770097 0
M  V30 10267 C 943.2 1.75871 0.667169 0
M  V30 10268 O 942.558 1.07136 1.46258 0
M  V30 10269 C 942.606 3.41904 -1.14602 0
M  V30 10270 O 941.71 4.11491 -0.273712 0
M  V30 10271 H 941.051 0.600636 -0.283076 0
M  V30 10272 H 943.581 1.49645 -1.39526 0
M  V30 10273 H 943.591 3.92623 -1.10956 0
M  V30 10274 H 942.266 3.53382 -2.19304 0
M  V30 10275 H 940.843 3.71059 -0.370124 0
M  V30 10276 N 943.028 0.824394 1.34319 0
M  V30 10277 C 944.277 0.40956 1.97498 0
M  V30 10278 C 944.59 -1.03323 1.66083 0
M  V30 10279 O 945.796 -1.55205 2.22764 0
M  V30 10280 C 944.252 0.681384 3.53391 0
M  V30 10281 C 943.86 2.1379 3.93698 0
M  V30 10282 C 945.604 0.332788 4.23194 0
M  V30 10283 C 943.511 2.35453 5.42509 0
M  V30 10284 H 942.441 0.149409 0.739049 0
M  V30 10285 H 945.092 1.01095 1.5314 0
M  V30 10286 H 943.474 0.00980375 3.95999 0
M  V30 10287 H 944.648 2.84876 3.62191 0
M  V30 10288 H 942.963 2.44807 3.36836 0
M  V30 10289 H 945.56 0.472463 5.32609 0
M  V30 10290 H 945.903 -0.722862 4.09976 0
M  V30 10291 H 946.436 0.959005 3.86067 0
M  V30 10292 H 943.175 3.39529 5.60714 0
M  V30 10293 H 942.695 1.68912 5.75525 0
M  V30 10294 H 944.374 2.17885 6.09209 0
M  V30 10295 N 944.506 -1.46559 0.579492 0
M  V30 10296 C 945.755 -2.01606 0.0615735 0
M  V30 10297 C 946.068 -1.45695 -1.30508 0
M  V30 10298 O 947.274 -1.92541 -1.91416 0
M  V30 10299 C 945.73 -3.59851 0.059496 0
M  V30 10300 C 945.338 -4.24757 1.42427 0
M  V30 10301 C 947.082 -4.22567 -0.404646 0
M  V30 10302 C 944.989 -5.75072 1.38009 0
M  V30 10303 H 943.919 -0.753754 0.0192491 0
M  V30 10304 H 946.57 -1.68326 0.73066 0
M  V30 10305 H 944.952 -3.90193 -0.675691 0
M  V30 10306 H 946.126 -4.06029 2.17893 0
M  V30 10307 H 944.441 -3.74121 1.82817 0
M  V30 10308 H 947.038 -5.32748 -0.456441 0
M  V30 10309 H 947.381 -3.91279 -1.42149 0
M  V30 10310 H 947.914 -3.96839 0.276376 0
M  V30 10311 H 944.653 -6.11014 2.37364 0
M  V30 10312 H 944.173 -5.96073 0.667583 0
M  V30 10313 H 945.852 -6.37724 1.09163 0
M  V30 10314 N 945.984 -0.3171 -1.54377 0
M  V30 10315 C 947.209 0.292311 -2.0533 0
M  V30 10316 C 947.634 1.45503 -1.19207 0
M  V30 10317 O 946.992 1.80197 -0.199721 0
M  V30 10318 C 947.04 0.710787 -3.53525 0
M  V30 10319 O 946.144 1.81387 -3.70368 0
M  V30 10320 H 945.485 0.0539976 -0.661801 0
M  V30 10321 H 948.015 -0.463629 -1.99278 0
M  V30 10322 H 948.025 0.995216 -3.95676 0
M  V30 10323 H 946.7 -0.139668 -4.15665 0
M  V30 10324 H 945.277 1.52875 -3.40123 0
M  V30 10325 N 947.462 1.57535 -0.0451378 0
M  V30 10326 C 948.739 1.83785 0.669523 0
M  V30 10327 C 949.119 0.932331 1.89396 0
M  V30 10328 O 948.467 -0.00813229 2.28499 0
M  V30 10329 C 948.677 3.33376 1.03255 0
M  V30 10330 C 950.025 4.00243 1.41741 0
M  V30 10331 O 951.049 3.37965 1.12507 0
M  V30 10332 O 949.908 5.10038 1.96275 0
M  V30 10333 H 947.002 0.758342 0.329919 0
M  V30 10334 H 949.548 1.69538 -0.0740415 0
M  V30 10335 H 948.32 3.90965 0.161777 0
M  V30 10336 H 947.943 3.52787 1.83376 0
M  V30 10337 N 948.94 -0.228186 1.55939 0
M  V30 10338 C 950.356 -0.577583 1.48782 0
M  V30 10339 C 950.556 -1.87461 0.738972 0
M  V30 10340 O 949.612 -2.50988 0.275929 0
M  V30 10341 C 950.925 -0.662961 2.93301 0
M  V30 10342 C 952.473 -0.754035 3.03782 0
M  V30 10343 C 952.948 -0.870815 4.49645 0
M  V30 10344 N 954.439 -0.935208 4.53661 0
M  V30 10345 C 955.174 -1.04516 5.63794 0
M  V30 10346 N 954.67 -1.11948 6.83696 0
M  V30 10347 N 956.463 -1.07978 5.51631 0
M  V30 10348 H 948.614 0.623018 2.03057 0
M  V30 10349 H 950.877 0.217692 0.922667 0
M  V30 10350 H 950.583 0.220375 3.51009 0
M  V30 10351 H 950.457 -1.52876 3.44831 0
M  V30 10352 H 952.844 -1.62782 2.46143 0
M  V30 10353 H 952.925 0.137301 2.55431 0
M  V30 10354 H 952.569 -0.0015186 5.079 0
M  V30 10355 H 952.499 -1.77747 4.95695 0
M  V30 10356 H 954.99 -0.88836 3.6731 0
M  V30 10357 H 955.303 -1.20297 7.6338 0
M  V30 10358 H 953.648 -1.08873 6.8642 0
M  V30 10359 H 956.839 -1.01833 4.56889 0
M  V30 10360 H 957.012 -1.16202 6.37496 0
M  V30 10361 N 950.418 -1.49637 -0.494624 0
M  V30 10362 C 951.829 -1.52573 -1.07603 0
M  V30 10363 C 952.18 -0.315591 -1.93645 0
M  V30 10364 O 951.305 0.573966 -2.08649 0
M  V30 10365 C 951.9 -2.7648 -1.95817 0
M  V30 10366 C 950.459 -2.82173 -2.49109 0
M  V30 10367 C 949.606 -2.4657 -1.2688 0
M  V30 10368 H 952.557 -1.56242 -0.278251 0
M  V30 10369 H 952.578 -2.57003 -2.80588 0
M  V30 10370 H 952.09 -3.64538 -1.33167 0
M  V30 10371 H 950.191 -1.9841 -3.15379 0
M  V30 10372 H 950.304 -3.84501 -2.85825 0
M  V30 10373 H 948.668 -1.98489 -1.59607 0
M  V30 10374 H 949.451 -3.3691 -0.659281 0
M  V30 10375 N 951.896 0.746133 -1.38819 0
M  V30 10376 C 952.843 1.86001 -1.36647 0
M  V30 10377 C 953.813 1.6453 -0.227849 0
M  V30 10378 O 954.998 1.86092 -0.421241 0
M  V30 10379 C 952.138 3.23388 -1.20474 0
M  V30 10380 C 951.251 3.5664 -2.43786 0
M  V30 10381 C 950.386 4.8337 -2.20287 0
M  V30 10382 C 949.425 5.09431 -3.39332 0
M  V30 10383 N 948.562 6.2736 -3.1522 0
M  V30 10384 H 953.402 1.87192 -2.31869 0
M  V30 10385 H 950.939 0.914838 -1.15192 0
M  V30 10386 H 952.897 4.02679 -1.09112 0
M  V30 10387 H 951.527 3.21505 -0.288874 0
M  V30 10388 H 950.579 2.72135 -2.65794 0
M  V30 10389 H 951.891 3.71823 -3.3249 0
M  V30 10390 H 951.045 5.70619 -2.06103 0
M  V30 10391 H 949.784 4.70341 -1.28961 0
M  V30 10392 H 948.789 4.20648 -3.54027 0
M  V30 10393 H 950.014 5.24354 -4.31544 0
M  V30 10394 H 947.96 6.15639 -2.26549 0
M  V30 10395 H 947.877 6.43078 -3.97476 0
M  V30 10396 H 949.145 7.17477 -3.04707 0
M  V30 10397 N 953.375 1.23811 0.975125 0
M  V30 10398 C 954.624 1.06741 1.71141 0
M  V30 10399 C 954.937 -0.394986 1.9157 0
M  V30 10400 O 956.143 -0.685723 2.62698 0
M  V30 10401 C 954.599 1.86168 3.08009 0
M  V30 10402 C 954.207 3.36771 2.95448 0
M  V30 10403 C 955.951 1.77604 3.85561 0
M  V30 10404 C 953.858 4.0857 4.2758 0
M  V30 10405 H 952.788 0.395819 0.64175 0
M  V30 10406 H 955.439 1.47825 1.0872 0
M  V30 10407 H 953.821 1.37893 3.71216 0
M  V30 10408 H 954.995 3.92571 2.41298 0
M  V30 10409 H 953.31 3.46205 2.31368 0
M  V30 10410 H 955.907 2.28556 4.83391 0
M  V30 10411 H 956.25 0.739837 4.09673 0
M  V30 10412 H 956.783 2.23519 3.29065 0
M  V30 10413 H 953.522 5.12518 4.08663 0
M  V30 10414 H 953.042 3.57556 4.81574 0
M  V30 10415 H 954.721 4.15157 4.9624 0
M  V30 10416 N 954.853 -1.17469 1.05066 0
M  V30 10417 C 955.8 -2.21443 0.650512 0
M  V30 10418 C 956.77 -1.62441 -0.346702 0
M  V30 10419 O 957.955 -1.89305 -0.238404 0
M  V30 10420 C 955.095 -3.45087 0.0301014 0
M  V30 10421 C 954.208 -4.18385 1.07599 0
M  V30 10422 C 953.343 -5.29513 0.423038 0
M  V30 10423 C 952.382 -5.94596 1.45333 0
M  V30 10424 N 951.519 -6.97241 0.824623 0
M  V30 10425 H 956.359 -2.55025 1.54163 0
M  V30 10426 H 953.896 -1.25274 0.771032 0
M  V30 10427 H 955.854 -4.15754 -0.347032 0
M  V30 10428 H 954.484 -3.12093 -0.824481 0
M  V30 10429 H 953.536 -3.46446 1.57097 0
M  V30 10430 H 954.848 -4.62899 1.85813 0
M  V30 10431 H 954.002 -6.067 -0.00774975 0
M  V30 10432 H 952.741 -4.86129 -0.391092 0
M  V30 10433 H 951.746 -5.16142 1.89415 0
M  V30 10434 H 952.971 -6.40061 2.26934 0
M  V30 10435 H 950.917 -6.55993 0.0309804 0
M  V30 10436 H 950.834 -7.40059 1.54432 0
M  V30 10437 H 952.102 -7.78375 0.418567 0
M  V30 10438 N 956.331 -0.831506 -1.3388 0
M  V30 10439 C 957.261 -0.274378 -2.31882 0
M  V30 10440 C 958.242 0.613872 -1.58637 0
M  V30 10441 O 959.427 0.538961 -1.86571 0
M  V30 10442 C 956.557 0.557498 -3.42796 0
M  V30 10443 C 955.511 -0.234337 -4.27358 0
M  V30 10444 C 954.837 0.720825 -5.29819 0
M  V30 10445 C 956.137 -1.44732 -5.01847 0
M  V30 10446 H 957.831 -1.09322 -2.78728 0
M  V30 10447 H 955.377 -0.527136 -1.34005 0
M  V30 10448 H 957.33 0.957501 -4.10378 0
M  V30 10449 H 956.054 1.40947 -2.94621 0
M  V30 10450 H 954.713 -0.61581 -3.61391 0
M  V30 10451 H 954.361 1.569 -4.77903 0
M  V30 10452 H 954.061 0.195171 -5.87276 0
M  V30 10453 H 955.585 1.1185 -6.00268 0
M  V30 10454 H 956.999 -1.12087 -5.62236 0
M  V30 10455 H 955.396 -1.90923 -5.68919 0
M  V30 10456 H 956.466 -2.22099 -4.31045 0
M  V30 10457 N 957.809 1.4625 -0.587256 0
M  V30 10458 C 959.037 2.06744 -0.08033 0
M  V30 10459 C 959.452 1.43527 1.2266 0
M  V30 10460 O 958.809 0.542168 1.74261 0
M  V30 10461 C 958.86 3.61394 0.0873469 0
M  V30 10462 O 958.581 4.22247 -1.16785 0
M  V30 10463 C 960.082 4.38828 0.628095 0
M  V30 10464 H 957.302 0.668354 -0.0595301 0
M  V30 10465 H 959.846 1.87808 -0.809217 0
M  V30 10466 H 958.001 3.79742 0.766473 0
M  V30 10467 H 958.415 5.15176 -0.984565 0
M  V30 10468 H 959.889 5.47613 0.694583 0
M  V30 10469 H 960.366 4.07188 1.64606 0
M  V30 10470 H 960.972 4.25297 -0.0163115 0
M  V30 10471 N 959.287 0.325282 1.54207 0
M  V30 10472 C 960.534 -0.276775 2.006 0
M  V30 10473 C 960.862 -1.52007 1.21343 0
M  V30 10474 O 960.117 -1.93627 0.284104 0
M  V30 10475 C 960.416 -0.654292 3.5136 0
M  V30 10476 C 960.082 0.490023 4.48229 0
M  V30 10477 C 958.744 0.804104 4.74434 0
M  V30 10478 C 961.096 1.2586 5.05775 0
M  V30 10479 C 958.424 1.88945 5.55443 0
M  V30 10480 C 960.776 2.33405 5.87967 0
M  V30 10481 C 959.44 2.65393 6.12473 0
M  V30 10482 H 958.71 -0.101279 0.734046 0
M  V30 10483 H 961.357 0.449416 1.86152 0
M  V30 10484 H 959.662 -1.46093 3.63544 0
M  V30 10485 H 961.359 -1.13171 3.84699 0
M  V30 10486 H 957.949 0.235147 4.27954 0
M  V30 10487 H 962.133 1.02921 4.85511 0
M  V30 10488 H 957.389 2.14174 5.7266 0
M  V30 10489 H 961.563 2.93402 6.31576 0
M  V30 10490 H 959.19 3.49622 6.75032 0
M  V30 10491 N 960.765 -1.57509 0.0534917 0
M  V30 10492 C 962.014 -1.91959 -0.619244 0
M  V30 10493 C 962.327 -0.933882 -1.71866 0
M  V30 10494 O 963.533 -1.17052 -2.44972 0
M  V30 10495 C 961.989 -3.40938 -1.15278 0
M  V30 10496 C 961.597 -4.47919 -0.085348 0
M  V30 10497 C 963.341 -3.84419 -1.80063 0
M  V30 10498 C 961.248 -5.88014 -0.631897 0
M  V30 10499 H 960.178 -0.71642 -0.235072 0
M  V30 10500 H 962.829 -1.83089 0.122758 0
M  V30 10501 H 961.211 -3.44821 -1.94717 0
M  V30 10502 H 962.385 -4.55629 0.688374 0
M  V30 10503 H 960.7 -4.13793 0.465178 0
M  V30 10504 H 963.297 -4.86457 -2.21954 0
M  V30 10505 H 963.64 -3.20791 -2.65328 0
M  V30 10506 H 964.173 -3.83062 -1.07275 0
M  V30 10507 H 960.912 -6.55244 0.183175 0
M  V30 10508 H 960.432 -5.83861 -1.37355 0
M  V30 10509 H 962.111 -6.37336 -1.11407 0
M  V30 10510 N 962.243 0.219913 -1.56058 0
M  V30 10511 C 963.491 0.942199 -1.78793 0
M  V30 10512 C 963.812 1.84804 -0.622284 0
M  V30 10513 O 963.082 1.9255 0.360735 0
M  V30 10514 H 961.662 0.350895 -0.659455 0
M  V30 10515 H 964.324 0.231376 -1.93522 0
M  V30 10516 H 963.42 1.54804 -2.71002 0
M  V30 10517 N 963.721 1.49897 0.486681 0
M  V30 10518 C 964.671 1.6401 1.58381 0
M  V30 10519 C 965.655 0.495215 1.5309 0
M  V30 10520 O 966.847 0.748876 1.60377 0
M  V30 10521 C 963.976 1.72321 2.96918 0
M  V30 10522 C 963.062 2.92435 3.07152 0
M  V30 10523 N 963.453 4.16326 2.87238 0
M  V30 10524 C 961.751 2.90669 3.38271 0
M  V30 10525 C 962.452 4.97144 3.02031 0
M  V30 10526 N 961.428 4.3079 3.31544 0
M  V30 10527 H 965.23 2.57506 1.41661 0
M  V30 10528 H 962.744 1.46867 0.693106 0
M  V30 10529 H 964.741 1.80532 3.75784 0
M  V30 10530 H 963.401 0.799724 3.14697 0
M  V30 10531 H 964.412 4.46076 2.63128 0
M  V30 10532 H 961.089 2.07758 3.62137 0
M  V30 10533 H 962.479 6.05611 2.91006 0
M  V30 10534 N 965.199 -0.738761 1.39212 0
M  V30 10535 C 966.447 -1.49529 1.35962 0
M  V30 10536 C 966.768 -1.94948 -0.0450152 0
M  V30 10537 O 966.038 -1.68717 -0.995552 0
M  V30 10538 H 964.618 -0.554692 0.500326 0
M  V30 10539 H 967.28 -0.877255 1.74041 0
M  V30 10540 H 966.376 -2.37919 2.01993 0
M  V30 10541 N 966.677 -1.24326 -0.968545 0
M  V30 10542 C 967.624 -1.0349 -2.06297 0
M  V30 10543 C 968.594 0.0515333 -1.6602 0
M  V30 10544 O 969.779 -0.102924 -1.90522 0
M  V30 10545 C 966.919 -0.64487 -3.39021 0
M  V30 10546 C 966.032 -1.80469 -3.92498 0
M  V30 10547 C 965.167 -1.36032 -5.13487 0
M  V30 10548 C 964.206 -2.49014 -5.59159 0
M  V30 10549 N 963.343 -2.05451 -6.71367 0
M  V30 10550 H 968.183 -1.97161 -2.23454 0
M  V30 10551 H 965.72 -0.982028 -1.0952 0
M  V30 10552 H 967.678 -0.399771 -4.1528 0
M  V30 10553 H 966.308 0.254845 -3.21792 0
M  V30 10554 H 965.36 -2.16348 -3.12886 0
M  V30 10555 H 966.672 -2.65365 -4.22354 0
M  V30 10556 H 965.826 -1.07405 -5.97117 0
M  V30 10557 H 964.565 -0.481887 -4.85313 0
M  V30 10558 H 963.57 -2.78402 -4.74102 0
M  V30 10559 H 964.795 -3.37413 -5.89346 0
M  V30 10560 H 962.741 -1.20004 -6.4493 0
M  V30 10561 H 962.658 -2.83901 -7.00668 0
M  V30 10562 H 963.926 -1.79962 -7.58442 0
M  V30 10563 N 968.156 1.1691 -1.05688 0
M  V30 10564 C 969.433 1.83266 -0.683601 0
M  V30 10565 C 969.813 1.93858 0.835602 0
M  V30 10566 O 969.161 1.47696 1.7435 0
M  V30 10567 C 969.371 3.20625 -1.37842 0
M  V30 10568 C 970.719 3.96473 -1.51967 0
M  V30 10569 O 971.743 3.30122 -1.33783 0
M  V30 10570 O 970.602 5.15393 -1.81749 0
M  V30 10571 H 967.696 0.791028 -0.241254 0
M  V30 10572 H 970.242 1.24165 -1.15677 0
M  V30 10573 H 969.014 3.07914 -2.41463 0
M  V30 10574 H 968.637 3.87398 -0.894921 0
M  V30 10575 N 969.634 0.838594 1.33437 0
M  V30 10576 C 970.544 0.274048 2.32994 0
M  V30 10577 C 971.56 -0.599776 1.63336 0
M  V30 10578 O 972.736 -0.503963 1.94993 0
M  V30 10579 C 969.801 -0.541804 3.4244 0
M  V30 10580 C 968.862 0.356262 4.27819 0
M  V30 10581 C 968.095 -0.420747 5.32039 0
M  V30 10582 O 968.318 -1.65247 5.45939 0
M  V30 10583 O 967.252 0.205101 6.0155 0
M  V30 10584 H 971.078 1.09846 2.83139 0
M  V30 10585 H 968.663 0.601111 1.36774 0
M  V30 10586 H 970.545 -1.00544 4.0923 0
M  V30 10587 H 969.22 -1.34328 2.94513 0
M  V30 10588 H 968.127 0.867726 3.63897 0
M  V30 10589 H 969.46 1.1225 4.79229 0
M  V30 10590 N 971.112 -1.45937 0.595003 0
M  V30 10591 C 972.359 -2.0232 0.0853053 0
M  V30 10592 C 972.687 -1.465 -1.27937 0
M  V30 10593 O 971.942 -0.624767 -1.85459 0
M  V30 10594 C 972.241 -3.57396 -0.0173747 0
M  V30 10595 C 971.907 -4.32311 1.28131 0
M  V30 10596 C 970.569 -4.52496 1.63708 0
M  V30 10597 C 972.921 -4.75233 2.14017 0
M  V30 10598 C 970.249 -5.12857 2.84947 0
M  V30 10599 C 972.601 -5.36933 3.34493 0
M  V30 10600 C 971.265 -5.55343 3.70338 0
M  V30 10601 H 970.535 -0.740342 0.0312154 0
M  V30 10602 H 973.182 -1.75157 0.774103 0
M  V30 10603 H 971.487 -3.83766 -0.789371 0
M  V30 10604 H 973.184 -3.98713 -0.427699 0
M  V30 10605 H 969.774 -4.16905 0.994374 0
M  V30 10606 H 973.958 -4.59383 1.87833 0
M  V30 10607 H 969.214 -5.253 3.12841 0
M  V30 10608 H 973.388 -5.69147 4.01304 0
M  V30 10609 H 971.015 -6.01883 4.64371 0
M  V30 10610 N 972.59 -0.333456 -1.54032 0
M  V30 10611 C 973.538 0.543414 -2.26163 0
M  V30 10612 C 974.532 1.11037 -1.27934 0
M  V30 10613 O 975.738 1.05727 -1.45677 0
M  V30 10614 H 972.113 0.19391 -0.726569 0
M  V30 10615 H 974.084 -0.0871052 -2.98273 0
M  V30 10616 C 972.833 1.68769 -3.03994 0
M  V30 10617 H 972.156 1.26069 -3.79403 0
M  V30 10618 H 973.596 2.27662 -3.57695 0
M  V30 10619 C 972.055 2.61117 -2.12884 0
M  V30 10620 O 972.585 3.63097 -1.71823 0
M  V30 10621 N 970.791 2.29573 -1.7817 0
M  V30 10622 H 970.338 1.46684 -2.11759 0
M  V30 10623 H 970.296 2.91622 -1.1749 0
M  V30 10624 N 974.068 1.57479 -0.061844 0
M  V30 10625 C 975.296 1.97429 0.618837 0
M  V30 10626 C 975.711 0.939826 1.63746 0
M  V30 10627 O 975.068 -0.0747173 1.82347 0
M  V30 10628 C 975.119 3.3746 1.29628 0
M  V30 10629 O 974.84 4.36941 0.318431 0
M  V30 10630 C 976.341 3.92228 2.06572 0
M  V30 10631 H 973.561 0.649513 0.168444 0
M  V30 10632 H 976.105 2.04078 -0.131303 0
M  V30 10633 H 974.26 3.31928 1.99757 0
M  V30 10634 H 974.674 5.18313 0.803239 0
M  V30 10635 H 976.148 4.92458 2.49377 0
M  V30 10636 H 976.625 3.28231 2.91824 0
M  V30 10637 H 977.231 4.01131 1.4133 0
M  V30 10638 N 975.546 -0.211634 1.56173 0
M  V30 10639 C 976.823 -0.959467 1.70451 0
M  V30 10640 C 977.203 -2.02036 0.611942 0
M  V30 10641 O 976.551 -2.25325 -0.37959 0
M  V30 10642 C 976.761 -1.56092 3.12148 0
M  V30 10643 C 978.109 -2.04939 3.71867 0
M  V30 10644 O 979.133 -1.65966 3.15172 0
M  V30 10645 O 977.992 -2.766 4.71333 0
M  V30 10646 H 975.086 -0.448844 0.6946 0
M  V30 10647 H 977.632 -0.202633 1.68486 0
M  V30 10648 H 976.404 -0.79538 3.83131 0
M  V30 10649 H 976.027 -2.38303 3.18273 0
M  V30 10650 N 977.024 -1.50153 -0.478725 0
M  V30 10651 C 978.273 -1.60002 -1.22809 0
M  V30 10652 C 978.586 -0.302277 -1.9325 0
M  V30 10653 O 979.792 -0.279583 -2.70057 0
M  V30 10654 C 978.248 -2.82402 -2.23108 0
M  V30 10655 C 977.856 -4.19023 -1.58505 0
M  V30 10656 C 979.6 -3.01593 -2.98734 0
M  V30 10657 C 977.507 -5.32618 -2.57045 0
M  V30 10658 H 976.437 -0.595822 -0.462073 0
M  V30 10659 H 979.088 -1.76573 -0.499412 0
M  V30 10660 H 977.47 -2.59373 -2.99235 0
M  V30 10661 H 978.644 -4.52277 -0.882187 0
M  V30 10662 H 976.959 -4.05374 -0.951877 0
M  V30 10663 H 979.556 -3.8363 -3.72468 0
M  V30 10664 H 979.899 -2.1302 -3.57671 0
M  V30 10665 H 980.432 -3.24766 -2.29721 0
M  V30 10666 H 977.171 -6.23321 -2.02858 0
M  V30 10667 H 976.691 -5.03792 -3.25505 0
M  V30 10668 H 978.37 -5.62877 -3.19028 0
M  V30 10669 N 978.502 0.731368 -1.39602 0
M  V30 10670 C 979.749 1.491 -1.37024 0
M  V30 10671 C 980.077 1.94473 0.0326423 0
M  V30 10672 O 979.332 1.6737 1.01418 0
M  V30 10673 C 979.631 2.74224 -2.29208 0
M  V30 10674 C 979.297 2.477 -3.7677 0
M  V30 10675 C 977.959 2.40175 -4.16976 0
M  V30 10676 C 980.311 2.25098 -4.70086 0
M  V30 10677 C 977.639 2.08095 -5.48556 0
M  V30 10678 C 979.991 1.94534 -6.01946 0
M  V30 10679 C 978.655 1.85481 -6.41212 0
M  V30 10680 H 977.925 0.545595 -0.501405 0
M  V30 10681 H 980.572 0.839127 -1.72136 0
M  V30 10682 H 978.877 3.44171 -1.87225 0
M  V30 10683 H 980.574 3.32264 -2.24504 0
M  V30 10684 H 977.164 2.54436 -3.44906 0
M  V30 10685 H 981.348 2.29876 -4.39853 0
M  V30 10686 H 976.604 1.99611 -5.77897 0
M  V30 10687 H 980.778 1.76054 -6.73779 0
M  V30 10688 H 978.405 1.60389 -7.43088 0
M  V30 10689 N 979.98 1.24838 0.961938 0
M  V30 10690 C 980.943 1.04674 2.03902 0
M  V30 10691 C 981.943 0.00204674 1.608 0
M  V30 10692 O 983.133 0.243555 1.72489 0
M  V30 10693 C 980.265 0.587736 3.35795 0
M  V30 10694 H 981.458 2.00278 2.23223 0
M  V30 10695 H 979.011 1.07142 1.138 0
M  V30 10696 H 979.746 -0.371244 3.22168 0
M  V30 10697 H 979.531 1.34182 3.68426 0
M  V30 10698 H 981.021 0.467867 4.14971 0
M  V30 10699 N 981.458 -1.16348 1.06306 0
M  V30 10700 C 982.706 -1.86512 0.778311 0
M  V30 10701 C 983.027 -1.82107 -0.697273 0
M  V30 10702 O 982.297 -1.2547 -1.50446 0
M  V30 10703 H 980.877 -0.690529 0.284919 0
M  V30 10704 H 983.539 -1.41092 1.34458 0
M  V30 10705 H 982.635 -2.91947 1.10333 0
M  V30 10706 N 982.937 -0.845659 -1.3299 0
M  V30 10707 C 984.184 -0.444653 -1.97558 0
M  V30 10708 C 984.512 0.997682 -1.66963 0
M  V30 10709 O 983.767 1.71349 -0.94541 0
M  V30 10710 C 984.066 -0.6201 -3.51979 0
M  V30 10711 C 983.732 -2.03155 -4.02541 0
M  V30 10712 C 982.394 -2.4176 -4.16059 0
M  V30 10713 C 984.746 -2.95317 -4.29462 0
M  V30 10714 C 982.074 -3.71818 -4.53837 0
M  V30 10715 C 984.426 -4.24863 -4.68694 0
M  V30 10716 C 983.09 -4.63416 -4.80419 0
M  V30 10717 H 982.36 -0.16271 -0.722915 0
M  V30 10718 H 985.007 -1.07399 -1.58549 0
M  V30 10719 H 983.312 0.092513 -3.91691 0
M  V30 10720 H 985.009 -0.290012 -3.9995 0
M  V30 10721 H 981.599 -1.72174 -3.92497 0
M  V30 10722 H 985.783 -2.66726 -4.18534 0
M  V30 10723 H 981.039 -4.01484 -4.61108 0
M  V30 10724 H 985.213 -4.96347 -4.8848 0
M  V30 10725 H 982.84 -5.6424 -5.09448 0
M  V30 10726 N 984.415 1.45619 -0.602734 0
M  V30 10727 C 985.692 1.9558 -0.0282472 0
M  V30 10728 C 986.072 1.54523 1.43826 0
M  V30 10729 O 985.42 0.805456 2.13833 0
M  V30 10730 C 985.63 3.48298 -0.221263 0
M  V30 10731 C 986.978 4.24483 -0.0995249 0
M  V30 10732 O 988.002 3.55879 -0.151132 0
M  V30 10733 O 986.861 5.46497 0.0194454 0
M  V30 10734 H 983.955 0.826104 0.0384897 0
M  V30 10735 H 986.501 1.55808 -0.672456 0
M  V30 10736 H 985.273 3.71134 -1.23997 0
M  V30 10737 H 984.896 3.94948 0.458437 0
M  V30 10738 N 985.893 0.34162 1.53853 0
M  V30 10739 C 987.139 -0.255862 2.01179 0
M  V30 10740 C 987.472 -1.50356 1.22909 0
M  V30 10741 O 986.747 -1.91913 0.316198 0
M  V30 10742 C 987.03 -0.571934 3.55529 0
M  V30 10743 C 986.883 0.687727 4.44511 0
M  V30 10744 C 988.202 -1.38233 4.17827 0
M  V30 10745 H 985.321 -0.091521 0.731295 0
M  V30 10746 H 987.963 0.461775 1.84303 0
M  V30 10747 H 986.113 -1.18331 3.70041 0
M  V30 10748 H 987.785 1.32572 4.4184 0
M  V30 10749 H 986.028 1.313 4.13452 0
M  V30 10750 H 986.699 0.421858 5.50386 0
M  V30 10751 H 989.175 -0.865374 4.07002 0
M  V30 10752 H 988.051 -1.57223 5.25901 0
M  V30 10753 H 988.312 -2.38386 3.72323 0
M  V30 10754 N 987.371 -1.57444 0.0701946 0
M  V30 10755 C 988.648 -1.84826 -0.6402 0
M  V30 10756 C 989.028 -0.962344 -1.87889 0
M  V30 10757 O 988.376 -0.0282209 -2.28483 0
M  V30 10758 C 988.586 -3.34976 -0.979382 0
M  V30 10759 C 989.934 -4.02448 -1.35355 0
M  V30 10760 O 990.958 -3.39713 -1.07116 0
M  V30 10761 O 989.817 -5.13096 -1.88136 0
M  V30 10762 H 986.911 -0.763494 -0.317813 0
M  V30 10763 H 989.457 -1.69399 0.101004 0
M  V30 10764 H 988.229 -3.91173 -0.0995576 0
M  V30 10765 H 987.852 -3.5566 -1.7774 0
M  V30 10766 N 988.849 0.203349 -1.56283 0
M  V30 10767 C 990.074 0.945548 -1.84592 0
M  V30 10768 C 990.499 1.7641 -0.652772 0
M  V30 10769 O 989.857 1.76867 0.398468 0
M  V30 10770 C 989.905 1.82416 -3.11057 0
M  V30 10771 O 989.009 2.92191 -2.9103 0
M  V30 10772 H 988.35 0.266739 -0.608068 0
M  V30 10773 H 990.88 0.211158 -2.03507 0
M  V30 10774 H 990.89 2.23044 -3.41636 0
M  V30 10775 H 989.565 1.22267 -3.97522 0
M  V30 10776 H 988.142 2.55378 -2.71728 0
M  V30 10777 N 990.327 1.50405 0.470755 0
M  V30 10778 C 991.257 1.72222 1.57676 0
M  V30 10779 C 992.238 0.57121 1.60222 0
M  V30 10780 O 993.423 0.810381 1.76484 0
M  V30 10781 C 990.553 1.81666 2.95998 0
M  V30 10782 C 989.507 2.96857 3.08318 0
M  V30 10783 C 988.833 2.91445 4.4829 0
M  V30 10784 C 990.133 4.37361 2.85504 0
M  V30 10785 H 991.827 2.64825 1.39671 0
M  V30 10786 H 989.373 1.27438 0.67049 0
M  V30 10787 H 991.326 1.95514 3.73299 0
M  V30 10788 H 990.05 0.856856 3.1516 0
M  V30 10789 H 988.709 2.82661 2.33449 0
M  V30 10790 H 988.357 1.93309 4.64371 0
M  V30 10791 H 988.057 3.68776 4.57469 0
M  V30 10792 H 989.581 3.07341 5.27611 0
M  V30 10793 H 990.995 4.52081 3.52555 0
M  V30 10794 H 989.392 5.16145 3.06127 0
M  V30 10795 H 990.462 4.49708 1.81359 0
M  V30 10796 N 991.805 -0.723954 1.39988 0
M  V30 10797 C 993.03 -1.5182 1.41299 0
M  V30 10798 C 993.455 -1.88096 0.0122636 0
M  V30 10799 O 992.813 -1.52687 -0.977559 0
M  V30 10800 C 992.861 -2.77532 2.30235 0
M  V30 10801 O 991.965 -3.73903 1.73984 0
M  V30 10802 H 991.306 -0.458058 0.480707 0
M  V30 10803 H 993.836 -0.892291 1.84118 0
M  V30 10804 H 993.846 -3.2615 2.45132 0
M  V30 10805 H 992.521 -2.50462 3.32026 0
M  V30 10806 H 991.098 -3.32715 1.68389 0
M  V30 10807 N 993.283 -1.25346 -0.955304 0
M  V30 10808 C 994.511 -1.12793 -1.73451 0
M  V30 10809 C 994.926 0.318344 -1.86097 0
M  V30 10810 O 994.283 1.21897 -1.35821 0
M  V30 10811 C 994.334 -1.77603 -3.14864 0
M  V30 10812 O 994.055 -3.16577 -3.02837 0
M  V30 10813 C 995.556 -1.70821 -4.09066 0
M  V30 10814 H 992.776 -0.393457 -0.543537 0
M  V30 10815 H 995.32 -1.65696 -1.19855 0
M  V30 10816 H 993.475 -1.28673 -3.65407 0
M  V30 10817 H 993.889 -3.48433 -3.92039 0
M  V30 10818 H 995.363 -2.2083 -5.05903 0
M  V30 10819 H 995.84 -0.671858 -4.34031 0
M  V30 10820 H 996.446 -2.19237 -3.64438 0
M  V30 10821 N 994.761 1.15782 -1.06922 0
M  V30 10822 C 995.671 2.24008 -0.696948 0
M  V30 10823 C 996.687 1.71569 0.289862 0
M  V30 10824 O 997.863 2.00929 0.137585 0
M  V30 10825 C 994.928 3.46568 -0.0957895 0
M  V30 10826 C 993.989 4.14017 -1.13528 0
M  V30 10827 C 993.222 5.30725 -0.562713 0
M  V30 10828 O 993.445 5.66992 0.62259 0
M  V30 10829 O 992.379 5.87572 -1.30549 0
M  V30 10830 H 996.205 2.58174 -1.59938 0
M  V30 10831 H 993.79 1.2342 -0.841889 0
M  V30 10832 H 995.672 4.20731 0.237407 0
M  V30 10833 H 994.347 3.14161 0.780027 0
M  V30 10834 H 993.254 3.41795 -1.52076 0
M  V30 10835 H 994.587 4.50493 -1.98285 0
M  V30 10836 N 996.239 0.8527 1.3254 0
M  V30 10837 C 997.488 0.45136 1.96585 0
M  V30 10838 C 997.801 -0.997773 1.68237 0
M  V30 10839 O 999.007 -1.50445 2.26006 0
M  V30 10840 C 997.463 0.75619 3.51866 0
M  V30 10841 C 997.071 2.22092 3.89075 0
M  V30 10842 C 998.815 0.422478 4.22392 0
M  V30 10843 C 996.722 2.46908 5.37392 0
M  V30 10844 H 995.652 0.165052 0.735713 0
M  V30 10845 H 998.303 1.04321 1.50962 0
M  V30 10846 H 996.685 0.0937988 3.95889 0
M  V30 10847 H 997.859 2.92494 3.56067 0
M  V30 10848 H 996.174 2.51896 3.31568 0
M  V30 10849 H 998.771 0.58533 5.31487 0
M  V30 10850 H 999.114 -0.635737 4.11417 0
M  V30 10851 H 999.647 1.04068 3.83946 0
M  V30 10852 H 996.386 3.51346 5.53386 0
M  V30 10853 H 995.906 1.81082 5.71812 0
M  V30 10854 H 997.585 2.30758 6.0445 0
M  V30 10855 N 997.718 -1.45297 0.610449 0
M  V30 10856 C 998.628 -2.34349 -0.108475 0
M  V30 10857 C 999.644 -1.51409 -0.857397 0
M  V30 10858 O 1000.82 -1.84202 -0.814337 0
M  V30 10859 C 997.885 -3.29072 -1.09144 0
M  V30 10860 C 996.946 -4.27918 -0.344165 0
M  V30 10861 C 996.179 -5.18116 -1.28031 0
M  V30 10862 O 996.402 -5.11802 -2.51824 0
M  V30 10863 O 995.336 -5.96879 -0.775821 0
M  V30 10864 H 999.162 -2.97232 0.623421 0
M  V30 10865 H 996.747 -1.44728 0.3707 0
M  V30 10866 H 998.629 -3.87433 -1.65751 0
M  V30 10867 H 997.304 -2.68749 -1.80431 0
M  V30 10868 H 996.211 -3.73164 0.264437 0
M  V30 10869 H 997.544 -4.91104 0.328275 0
M  V30 10870 N 999.196 -0.349774 -1.5367 0
M  V30 10871 C 1000.16 0.491676 -2.23864 0
M  V30 10872 C 1001.16 1.02256 -1.24098 0
M  V30 10873 O 1002.35 0.910816 -1.48492 0
M  V30 10874 C 999.481 1.68557 -2.96313 0
M  V30 10875 H 1000.67 -0.12233 -2.9965 0
M  V30 10876 H 998.227 -0.101214 -1.55972 0
M  V30 10877 H 998.962 2.3381 -2.2473 0
M  V30 10878 H 998.747 1.31203 -3.69497 0
M  V30 10879 H 1000.24 2.28225 -3.49718 0
M  V30 10880 N 1000.67 1.57404 -0.0785433 0
M  V30 10881 C 1001.64 2.11977 0.871693 0
M  V30 10882 C 1002.64 1.04529 1.2219 0
M  V30 10883 O 1003.83 1.30488 1.15406 0
M  V30 10884 C 1000.96 2.6267 2.17296 0
M  V30 10885 H 1002.15 2.97246 0.398115 0
M  V30 10886 H 999.705 1.5537 0.170251 0
M  V30 10887 H 1000.44 1.80873 2.69175 0
M  V30 10888 H 1000.22 3.41214 1.93171 0
M  V30 10889 H 1001.71 3.04943 2.85306 0
M  V30 10890 N 1002.15 -0.195058 1.56388 0
M  V30 10891 C 1003.4 -0.913626 1.79821 0
M  V30 10892 C 1003.71 -1.84422 0.651767 0
M  V30 10893 O 1004.92 -2.6034 0.770402 0
M  V30 10894 C 1003.38 -1.67497 3.18548 0
M  V30 10895 C 1002.98 -0.789205 4.40994 0
M  V30 10896 C 1004.73 -2.38318 3.5129 0
M  V30 10897 C 1002.63 -1.54942 5.70742 0
M  V30 10898 H 1001.56 -0.344891 0.670497 0
M  V30 10899 H 1004.22 -0.166912 1.82739 0
M  V30 10900 H 1002.6 -2.46557 3.0988 0
M  V30 10901 H 1003.77 -0.0372595 4.60785 0
M  V30 10902 H 1002.09 -0.191834 4.15958 0
M  V30 10903 H 1004.68 -2.95745 4.45465 0
M  V30 10904 H 1005.03 -3.12507 2.75037 0
M  V30 10905 H 1005.56 -1.66224 3.61406 0
M  V30 10906 H 1002.3 -0.85031 6.49962 0
M  V30 10907 H 1001.82 -2.2753 5.54969 0
M  V30 10908 H 1003.5 -2.1032 6.11861 0
M  V30 10909 N 1003.63 -1.50653 -0.462772 0
M  V30 10910 C 1004.91 -1.5258 -1.22387 0
M  V30 10911 C 1005.29 -0.275263 -2.09298 0
M  V30 10912 O 1004.63 0.740943 -2.16153 0
M  V30 10913 C 1004.84 -2.82611 -2.04773 0
M  V30 10914 C 1006.19 -3.33592 -2.62681 0
M  V30 10915 O 1007.22 -2.83989 -2.15008 0
M  V30 10916 O 1006.08 -4.20081 -3.49563 0
M  V30 10917 H 1003.17 -0.612367 -0.55582 0
M  V30 10918 H 1005.72 -1.62948 -0.473914 0
M  V30 10919 H 1004.49 -3.65098 -1.40781 0
M  V30 10920 H 1004.11 -2.75286 -2.86886 0
M  V30 10921 N 1005.11 0.71652 -1.4037 0
M  V30 10922 C 1006.04 1.84345 -1.43315 0
M  V30 10923 C 1007.02 1.67537 -0.294186 0
M  V30 10924 O 1008.2 1.87582 -0.502671 0
M  V30 10925 C 1005.33 3.2229 -1.29408 0
M  V30 10926 C 1004.29 3.53769 -2.40897 0
M  V30 10927 C 1003.61 4.90847 -2.12068 0
M  V30 10928 C 1004.91 3.54862 -3.83237 0
M  V30 10929 H 1006.61 1.82138 -2.37626 0
M  V30 10930 H 1004.15 0.874873 -1.14376 0
M  V30 10931 H 1006.11 4.00819 -1.30085 0
M  V30 10932 H 1004.83 3.2507 -0.31573 0
M  V30 10933 H 1003.49 2.77579 -2.39469 0
M  V30 10934 H 1003.14 4.90229 -1.12626 0
M  V30 10935 H 1002.84 5.12875 -2.86762 0
M  V30 10936 H 1004.36 5.71711 -2.14426 0
M  V30 10937 H 1005.78 4.23432 -3.86494 0
M  V30 10938 H 1004.17 3.88416 -4.57442 0
M  V30 10939 H 1005.24 2.54266 -4.12888 0
M  V30 10940 N 1006.59 1.25851 0.948643 0
M  V30 10941 C 1007.55 1.0683 2.0278 0
M  V30 10942 C 1008.55 0.0191016 1.60789 0
M  V30 10943 O 1009.74 0.261836 1.72221 0
M  V30 10944 C 1006.87 0.623318 3.35153 0
M  V30 10945 H 1008.06 2.02635 2.21086 0
M  V30 10946 H 1005.62 1.08343 1.12657 0
M  V30 10947 H 1006.35 -0.337053 3.22544 0
M  V30 10948 H 1006.14 1.38082 3.66982 0
M  V30 10949 H 1007.63 0.511854 4.14451 0
M  V30 10950 N 1008.06 -1.15214 1.07534 0
M  V30 10951 C 1009.01 -2.20013 0.697337 0
M  V30 10952 C 1009.98 -1.6314 -0.312168 0
M  V30 10953 O 1011.17 -1.89768 -0.198196 0
M  V30 10954 C 1008.31 -3.44945 0.103293 0
M  V30 10955 C 1007.42 -4.16009 1.1645 0
M  V30 10956 C 1006.55 -5.28496 0.535261 0
M  V30 10957 C 1005.59 -5.9138 1.57912 0
M  V30 10958 N 1004.73 -6.95335 0.972332 0
M  V30 10959 H 1009.57 -2.51698 1.59538 0
M  V30 10960 H 1007.11 -1.2361 0.797431 0
M  V30 10961 H 1009.07 -4.16397 -0.258766 0
M  V30 10962 H 1007.7 -3.13772 -0.758096 0
M  V30 10963 H 1006.75 -3.43035 1.64411 0
M  V30 10964 H 1008.06 -4.58853 1.9559 0
M  V30 10965 H 1007.21 -6.06579 0.120942 0
M  V30 10966 H 1005.95 -4.8685 -0.287889 0
M  V30 10967 H 1004.96 -5.12008 2.0032 0
M  V30 10968 H 1006.18 -6.35103 2.40459 0
M  V30 10969 H 1004.13 -6.55779 0.170119 0
M  V30 10970 H 1004.05 -7.36616 1.70095 0
M  V30 10971 H 1005.31 -7.77312 0.583577 0
M  V30 10972 N 1009.54 -0.859717 -1.32086 0
M  V30 10973 C 1010.45 -0.31108 -2.32528 0
M  V30 10974 C 1011.47 0.573714 -1.6427 0
M  V30 10975 O 1012.64 0.472878 -1.9577 0
M  V30 10976 C 1009.71 0.487256 -3.43259 0
M  V30 10977 C 1008.77 -0.424279 -4.27198 0
M  V30 10978 C 1008 0.336051 -5.32641 0
M  V30 10979 O 1008.23 1.56541 -5.48499 0
M  V30 10980 O 1007.16 -0.300777 -6.01148 0
M  V30 10981 H 1010.99 -1.14336 -2.81355 0
M  V30 10982 H 1008.57 -0.622794 -1.358 0
M  V30 10983 H 1010.45 0.940203 -4.10777 0
M  V30 10984 H 1009.13 1.29626 -2.96612 0
M  V30 10985 H 1008.04 -0.925509 -3.62471 0
M  V30 10986 H 1009.37 -1.1986 -4.77383 0
M  V30 10987 N 1011.02 1.44971 -0.618145 0
M  V30 10988 C 1012.3 1.95539 -0.0489895 0
M  V30 10989 C 1012.68 1.5604 1.42179 0
M  V30 10990 O 1012.03 0.82809 2.12967 0
M  V30 10991 C 1012.24 3.48044 -0.258193 0
M  V30 10992 C 1013.58 4.24354 -0.144541 0
M  V30 10993 O 1014.61 3.55699 -0.18887 0
M  V30 10994 O 1013.47 5.46486 -0.038519 0
M  V30 10995 H 1010.56 0.826466 0.0297256 0
M  V30 10996 H 1013.11 1.55086 -0.688944 0
M  V30 10997 H 1011.88 3.69798 -1.27926 0
M  V30 10998 H 1011.5 3.95412 0.416522 0
M  V30 10999 N 1012.5 0.357919 1.53482 0
M  V30 11000 C 1013.75 -0.235241 2.00324 0
M  V30 11001 C 1014.06 -1.50494 1.24944 0
M  V30 11002 O 1015.27 -2.17623 1.62335 0
M  V30 11003 C 1013.72 -0.469748 3.56821 0
M  V30 11004 C 1013.33 0.784877 4.41071 0
M  V30 11005 C 1015.07 -1.02098 4.12039 0
M  V30 11006 C 1012.98 0.520377 5.89106 0
M  V30 11007 H 1011.91 -0.0916816 0.748405 0
M  V30 11008 H 1014.56 0.475474 1.77233 0
M  V30 11009 H 1012.94 -1.24153 3.76035 0
M  V30 11010 H 1014.12 1.55886 4.33631 0
M  V30 11011 H 1012.43 1.25878 3.96918 0
M  V30 11012 H 1015.03 -1.23406 5.20264 0
M  V30 11013 H 1015.37 -1.98084 3.66154 0
M  V30 11014 H 1015.91 -0.309554 3.96594 0
M  V30 11015 H 1012.65 1.45035 6.39254 0
M  V30 11016 H 1012.17 -0.215254 5.99414 0
M  V30 11017 H 1013.84 0.143006 6.46842 0
M  V30 11018 N 1013.98 -1.5736 0.0868897 0
M  V30 11019 C 1015.2 -1.98809 -0.590757 0
M  V30 11020 C 1015.63 -0.965407 -1.61436 0
M  V30 11021 O 1014.98 0.067143 -1.81176 0
M  V30 11022 C 1015.03 -3.39249 -1.22238 0
M  V30 11023 O 1014.14 -3.39706 -2.33824 0
M  V30 11024 H 1013.48 -0.64669 -0.150626 0
M  V30 11025 H 1016.01 -2.03927 0.165873 0
M  V30 11026 H 1016.02 -3.76765 -1.56564 0
M  V30 11027 H 1014.69 -4.13208 -0.472434 0
M  V30 11028 H 1013.27 -3.13977 -2.01178 0
M  V30 11029 N 1015.45 0.186762 -1.56489 0
M  V30 11030 C 1016.87 0.750675 -1.70944 0
M  V30 11031 C 1017.22 1.83483 -0.694858 0
M  V30 11032 O 1016.34 2.159 0.147009 0
M  V30 11033 C 1016.94 1.36843 -3.09934 0
M  V30 11034 C 1015.5 1.87934 -3.26125 0
M  V30 11035 C 1014.64 0.75242 -2.66897 0
M  V30 11036 H 1017.59 -0.0384292 -1.58653 0
M  V30 11037 H 1017.61 2.23795 -3.07727 0
M  V30 11038 H 1017.13 0.579135 -3.83755 0
M  V30 11039 H 1015.23 2.69556 -2.57235 0
M  V30 11040 H 1015.34 2.0354 -4.33715 0
M  V30 11041 H 1013.7 1.16888 -2.26295 0
M  V30 11042 H 1014.49 -0.0247769 -3.43291 0
M  V30 11043 N 1016.93 1.50896 0.454776 0
M  V30 11044 C 1017.88 1.70947 1.55067 0
M  V30 11045 C 1018.85 0.550899 1.56698 0
M  V30 11046 O 1020.03 0.783352 1.73978 0
M  V30 11047 C 1017.17 1.82455 2.92924 0
M  V30 11048 C 1016.29 3.09919 3.00956 0
M  V30 11049 C 1015.42 3.12125 4.29827 0
M  V30 11050 C 1014.46 4.33975 4.31662 0
M  V30 11051 N 1013.6 4.33828 5.5203 0
M  V30 11052 H 1018.44 2.645 1.37273 0
M  V30 11053 H 1015.98 1.31101 0.667148 0
M  V30 11054 H 1017.93 1.87108 3.72889 0
M  V30 11055 H 1016.56 0.92327 3.09315 0
M  V30 11056 H 1015.62 3.14659 2.13761 0
M  V30 11057 H 1016.93 3.99869 2.98172 0
M  V30 11058 H 1016.08 3.15598 5.18154 0
M  V30 11059 H 1014.82 2.20033 4.35243 0
M  V30 11060 H 1013.83 4.30697 3.41731 0
M  V30 11061 H 1015.05 5.27312 4.27924 0
M  V30 11062 H 1013 3.44598 5.58201 0
M  V30 11063 H 1012.91 5.17566 5.51055 0
M  V30 11064 H 1014.18 4.4147 6.42437 0
M  V30 11065 N 1018.41 -0.709066 1.40748 0
M  V30 11066 C 1019.64 -1.50313 1.42901 0
M  V30 11067 C 1020.06 -1.88072 0.032213 0
M  V30 11068 O 1019.42 -1.53716 -0.96131 0
M  V30 11069 C 1019.47 -2.75074 2.33166 0
M  V30 11070 O 1018.57 -3.72036 1.7794 0
M  V30 11071 H 1017.91 -0.452934 0.485538 0
M  V30 11072 H 1020.44 -0.872712 1.85054 0
M  V30 11073 H 1020.45 -3.23532 2.48578 0
M  V30 11074 H 1019.13 -2.46927 3.34664 0
M  V30 11075 H 1017.7 -3.30911 1.71908 0
M  V30 11076 N 1019.89 -1.26353 -0.941956 0
M  V30 11077 C 1021.14 -1.11241 -1.68251 0
M  V30 11078 C 1021.45 0.344055 -1.9255 0
M  V30 11079 O 1022.66 0.615832 -2.64423 0
M  V30 11080 C 1021.11 -1.94269 -3.02965 0
M  V30 11081 C 1020.72 -3.44485 -2.86415 0
M  V30 11082 C 1022.47 -1.87764 -3.80716 0
M  V30 11083 C 1020.37 -4.19763 -4.16597 0
M  V30 11084 H 1019.3 -0.412694 -0.63103 0
M  V30 11085 H 1021.95 -1.50656 -1.04762 0
M  V30 11086 H 1020.34 -1.47687 -3.6743 0
M  V30 11087 H 1021.51 -3.9883 -2.30805 0
M  V30 11088 H 1019.82 -3.52218 -2.22107 0
M  V30 11089 H 1022.42 -2.41292 -4.77161 0
M  V30 11090 H 1022.76 -0.848195 -4.07568 0
M  V30 11091 H 1023.3 -2.32165 -3.23024 0
M  V30 11092 H 1020.04 -5.23173 -3.9493 0
M  V30 11093 H 1019.56 -3.70198 -4.71925 0
M  V30 11094 H 1021.24 -4.28168 -4.85058 0
M  V30 11095 N 1021.37 1.14642 -1.08144 0
M  V30 11096 C 1022.28 2.23257 -0.720668 0
M  V30 11097 C 1023.29 1.71866 0.271648 0
M  V30 11098 O 1024.47 2.01064 0.116266 0
M  V30 11099 C 1021.53 3.46447 -0.132542 0
M  V30 11100 C 1020.6 4.12789 -1.17913 0
M  V30 11101 C 1019.83 5.30099 -0.618971 0
M  V30 11102 O 1020.05 5.6762 0.562418 0
M  V30 11103 O 1018.99 5.86154 -1.36774 0
M  V30 11104 H 1022.81 2.56463 -1.62667 0
M  V30 11105 H 1020.4 1.22521 -0.854932 0
M  V30 11106 H 1022.28 4.20959 0.19277 0
M  V30 11107 H 1020.95 3.14971 0.746662 0
M  V30 11108 H 1019.86 3.40163 -1.55693 0
M  V30 11109 H 1021.19 4.48365 -2.03051 0
M  V30 11110 N 1022.85 0.866709 1.31628 0
M  V30 11111 C 1024.09 0.472185 1.96095 0
M  V30 11112 C 1024.41 -0.979873 1.69286 0
M  V30 11113 O 1025.61 -1.48039 2.27589 0
M  V30 11114 C 1024.07 0.793468 3.51044 0
M  V30 11115 C 1023.68 2.26206 3.86697 0
M  V30 11116 C 1025.42 0.467255 4.21921 0
M  V30 11117 C 1023.33 2.52593 5.34743 0
M  V30 11118 H 1022.26 0.172846 0.733921 0
M  V30 11119 H 1024.91 1.05916 1.49847 0
M  V30 11120 H 1023.29 0.135783 3.95767 0
M  V30 11121 H 1024.47 2.96254 3.52945 0
M  V30 11122 H 1022.78 2.55399 3.28877 0
M  V30 11123 H 1025.38 0.641669 5.30836 0
M  V30 11124 H 1025.72 -0.592065 4.12068 0
M  V30 11125 H 1026.25 1.08134 3.82821 0
M  V30 11126 H 1022.99 3.57196 5.49628 0
M  V30 11127 H 1022.51 1.87136 5.6986 0
M  V30 11128 H 1024.19 2.37156 6.01968 0
M  V30 11129 N 1024.32 -1.44642 0.625825 0
M  V30 11130 C 1025.27 -2.32408 -0.0945221 0
M  V30 11131 C 1026.27 -1.47038 -0.841198 0
M  V30 11132 O 1027.47 -1.63415 -0.754698 0
M  V30 11133 H 1023.85 -0.75038 -0.0493321 0
M  V30 11134 H 1025.82 -2.90922 0.663863 0
M  V30 11135 C 1024.57 -3.30951 -1.06615 0
M  V30 11136 H 1023.89 -3.96648 -0.501021 0
M  V30 11137 H 1025.33 -3.95054 -1.53976 0
M  V30 11138 C 1023.79 -2.59479 -2.14877 0
M  V30 11139 O 1024.32 -2.38974 -3.22885 0
M  V30 11140 N 1022.52 -2.19307 -1.90665 0
M  V30 11141 H 1022.07 -2.36184 -1.02835 0
M  V30 11142 H 1022.03 -1.71811 -2.63303 0
M  V30 11143 N 1025.8 -0.366053 -1.5329 0
M  V30 11144 C 1026.73 0.47211 -2.28677 0
M  V30 11145 C 1027.71 1.08353 -1.31125 0
M  V30 11146 O 1028.9 1.10069 -1.59995 0
M  V30 11147 C 1026.03 1.61174 -3.07637 0
M  V30 11148 C 1024.98 1.12755 -4.12881 0
M  V30 11149 C 1024.31 2.35745 -4.79925 0
M  V30 11150 C 1025.61 0.211954 -5.2187 0
M  V30 11151 H 1027.3 -0.156838 -2.98989 0
M  V30 11152 H 1024.85 -0.0768709 -1.43795 0
M  V30 11153 H 1026.8 2.20473 -3.59123 0
M  V30 11154 H 1025.52 2.26793 -2.35016 0
M  V30 11155 H 1024.18 0.557234 -3.6234 0
M  V30 11156 H 1023.83 2.99821 -4.03877 0
M  V30 11157 H 1023.53 2.04019 -5.51044 0
M  V30 11158 H 1025.06 2.95729 -5.34207 0
M  V30 11159 H 1026.47 0.71244 -5.68856 0
M  V30 11160 H 1024.87 -0.0144501 -6.00098 0
M  V30 11161 H 1025.94 -0.745753 -4.79131 0
M  V30 11162 N 1027.28 1.57312 -0.0952337 0
M  V30 11163 C 1028.21 2.17056 0.860753 0
M  V30 11164 C 1029.19 1.10394 1.29411 0
M  V30 11165 O 1030.38 1.38532 1.36098 0
M  V30 11166 C 1027.51 2.751 2.11984 0
M  V30 11167 C 1026.46 3.87136 1.8251 0
M  V30 11168 C 1025.79 4.31883 3.15247 0
M  V30 11169 C 1027.09 5.10326 1.11194 0
M  V30 11170 H 1028.78 2.97192 0.362983 0
M  V30 11171 H 1026.33 1.42955 0.173151 0
M  V30 11172 H 1028.28 3.15547 2.79299 0
M  V30 11173 H 1027 1.92219 2.64044 0
M  V30 11174 H 1025.66 3.47229 1.17592 0
M  V30 11175 H 1025.31 3.45893 3.65195 0
M  V30 11176 H 1025.01 5.0742 2.96309 0
M  V30 11177 H 1026.53 4.74964 3.83721 0
M  V30 11178 H 1027.95 5.47942 1.6862 0
M  V30 11179 H 1026.34 5.91293 1.02435 0
M  V30 11180 H 1027.41 4.84807 0.0947227 0
M  V30 11181 N 1028.76 -0.17846 1.56586 0
M  V30 11182 C 1030.01 -0.894464 1.81228 0
M  V30 11183 C 1030.33 -1.83089 0.671062 0
M  V30 11184 O 1029.6 -1.93439 -0.309557 0
M  V30 11185 H 1028.18 -0.333288 0.668527 0
M  V30 11186 H 1030.84 -0.179986 1.94067 0
M  V30 11187 H 1029.93 -1.47565 2.75011 0
M  V30 11188 N 1030.24 -1.51135 -0.446768 0
M  V30 11189 C 1031.48 -1.64989 -1.20656 0
M  V30 11190 C 1031.84 -0.353882 -1.88711 0
M  V30 11191 O 1033.04 -0.368099 -2.66268 0
M  V30 11192 C 1031.31 -2.81371 -2.20375 0
M  V30 11193 S 1032.87 -3.15501 -3.04967 0
M  V30 11194 H 1029.69 -0.581372 -0.409301 0
M  V30 11195 H 1032.29 -1.89008 -0.499613 0
M  V30 11196 H 1030.99 -3.73988 -1.69001 0
M  V30 11197 H 1030.53 -2.59512 -2.95664 0
M  V30 11198 H 1032.54 -2.61205 -4.21884 0
M  V30 11199 N 1031.71 0.701592 -1.41122 0
M  V30 11200 C 1032.66 1.83691 -1.4269 0
M  V30 11201 C 1033.66 1.6662 -0.305658 0
M  V30 11202 O 1034.86 1.73554 -0.477392 0
M  V30 11203 H 1031.24 0.605222 -0.44633 0
M  V30 11204 H 1033.21 1.79485 -2.38386 0
M  V30 11205 C 1031.96 3.21666 -1.32008 0
M  V30 11206 H 1031.28 3.35416 -2.17569 0
M  V30 11207 H 1032.72 4.012 -1.37165 0
M  V30 11208 C 1031.18 3.36885 -0.0317678 0
M  V30 11209 O 1031.71 3.90885 0.925836 0
M  V30 11210 N 1029.91 2.90569 0.0423401 0
M  V30 11211 H 1029.46 2.46812 -0.737673 0
M  V30 11212 H 1029.42 3.0113 0.903764 0
M  V30 11213 N 1033.19 1.2685 0.935242 0
M  V30 11214 C 1034.12 1.03244 2.03509 0
M  V30 11215 C 1035.1 -0.0447323 1.62538 0
M  V30 11216 O 1036.29 0.0988905 1.8824 0
M  V30 11217 C 1033.41 0.564626 3.33961 0
M  V30 11218 C 1032.46 1.63524 3.93906 0
M  V30 11219 S 1033.29 3.22577 4.27439 0
M  V30 11220 C 1034.45 2.77579 5.60982 0
M  V30 11221 H 1034.68 1.96367 2.2322 0
M  V30 11222 H 1032.21 1.10597 1.07739 0
M  V30 11223 H 1034.17 0.301388 4.09392 0
M  V30 11224 H 1032.83 -0.346419 3.12184 0
M  V30 11225 H 1032.03 1.25905 4.8802 0
M  V30 11226 H 1031.63 1.85017 3.25031 0
M  V30 11227 H 1033.92 2.22412 6.39952 0
M  V30 11228 H 1034.86 3.70408 6.03493 0
M  V30 11229 H 1035.27 2.16956 5.21143 0
M  V30 11230 N 1034.67 -1.14067 1.0875 0
M  V30 11231 C 1035.92 -1.85185 0.819317 0
M  V30 11232 C 1036.25 -1.8314 -0.654969 0
M  V30 11233 O 1035.5 -1.25974 -1.49763 0
M  V30 11234 C 1035.8 -3.33273 1.29089 0
M  V30 11235 C 1035.47 -3.55504 2.77359 0
M  V30 11236 C 1034.13 -3.61279 3.17853 0
M  V30 11237 C 1036.48 -3.64041 3.72992 0
M  V30 11238 C 1033.81 -3.73119 4.52768 0
M  V30 11239 C 1036.16 -3.77407 5.07687 0
M  V30 11240 C 1034.82 -3.81433 5.47782 0
M  V30 11241 H 1034.09 -0.67764 0.299809 0
M  V30 11242 H 1036.74 -1.34713 1.36106 0
M  V30 11243 H 1035.05 -3.86049 0.668811 0
M  V30 11244 H 1036.74 -3.86734 1.06009 0
M  V30 11245 H 1033.33 -3.51659 2.45019 0
M  V30 11246 H 1037.52 -3.58866 3.42825 0
M  V30 11247 H 1032.77 -3.74499 4.83281 0
M  V30 11248 H 1036.95 -3.82956 5.81651 0
M  V30 11249 H 1034.57 -3.9036 6.52321 0
M  V30 11250 N 1036.15 -0.873678 -1.31166 0
M  V30 11251 C 1037.37 -0.500242 -2.01277 0
M  V30 11252 C 1037.8 0.900811 -1.65127 0
M  V30 11253 O 1037.16 1.59504 -0.861862 0
M  V30 11254 C 1037.2 -0.668976 -3.5434 0
M  V30 11255 O 1036.31 0.290096 -4.11378 0
M  V30 11256 H 1035.65 -0.198507 -0.633633 0
M  V30 11257 H 1038.18 -1.17811 -1.67277 0
M  V30 11258 H 1038.19 -0.563673 -4.04088 0
M  V30 11259 H 1036.86 -1.69055 -3.79991 0
M  V30 11260 H 1035.44 0.139437 -3.72639 0
M  V30 11261 N 1037.63 1.44308 -0.633487 0
M  V30 11262 C 1038.86 2.06085 -0.145852 0
M  V30 11263 C 1039.26 1.47432 1.18577 0
M  V30 11264 O 1038.61 0.592575 1.7388 0
M  V30 11265 C 1038.67 3.59477 0.0407848 0
M  V30 11266 C 1038.33 4.40607 -1.21304 0
M  V30 11267 C 1039.33 4.73937 -2.13728 0
M  V30 11268 C 1037.02 4.80943 -1.44911 0
M  V30 11269 C 1039.01 5.46489 -3.28068 0
M  V30 11270 C 1036.7 5.53243 -2.59548 0
M  V30 11271 C 1037.69 5.85936 -3.50953 0
M  V30 11272 O 1037.38 6.56764 -4.6359 0
M  V30 11273 H 1037.11 0.671484 -0.0780085 0
M  V30 11274 H 1039.67 1.86128 -0.868658 0
M  V30 11275 H 1037.9 3.77933 0.818761 0
M  V30 11276 H 1039.59 4.03013 0.483273 0
M  V30 11277 H 1040.35 4.43311 -1.96725 0
M  V30 11278 H 1036.23 4.54915 -0.746537 0
M  V30 11279 H 1039.78 5.71924 -3.99435 0
M  V30 11280 H 1035.67 5.83285 -2.76493 0
M  V30 11281 H 1036.44 6.75234 -4.62602 0
M  V30 11282 N 1039.1 0.374177 1.53094 0
M  V30 11283 C 1040.33 -0.215903 2.06273 0
M  V30 11284 C 1040.75 -1.40979 1.24526 0
M  V30 11285 O 1040.11 -1.79331 0.266462 0
M  V30 11286 C 1040.16 -0.579089 3.5592 0
M  V30 11287 O 1039.26 -1.67516 3.76845 0
M  V30 11288 H 1038.61 -0.0293981 0.663349 0
M  V30 11289 H 1041.14 0.537271 1.9742 0
M  V30 11290 H 1041.15 -0.847678 3.99097 0
M  V30 11291 H 1039.82 0.293843 4.14861 0
M  V30 11292 H 1038.4 -1.40146 3.45563 0
M  V30 11293 N 1040.58 -1.57259 0.103575 0
M  V30 11294 C 1041.83 -1.93832 -0.55786 0
M  V30 11295 C 1042.14 -0.988087 -1.68808 0
M  V30 11296 O 1043.35 -1.24786 -2.41124 0
M  V30 11297 C 1041.81 -3.44433 -1.04373 0
M  V30 11298 C 1041.41 -4.47963 0.0571971 0
M  V30 11299 C 1043.16 -3.89953 -1.67742 0
M  V30 11300 C 1041.07 -5.89727 -0.444505 0
M  V30 11301 H 1040 -0.723536 -0.212161 0
M  V30 11302 H 1042.65 -1.82606 0.180944 0
M  V30 11303 H 1041.03 -3.50841 -1.83648 0
M  V30 11304 H 1042.2 -4.53209 0.83298 0
M  V30 11305 H 1040.52 -4.12104 0.596588 0
M  V30 11306 H 1043.11 -4.93272 -2.06365 0
M  V30 11307 H 1043.46 -3.2907 -2.54988 0
M  V30 11308 H 1043.99 -3.86281 -0.950342 0
M  V30 11309 H 1040.73 -6.5433 0.391543 0
M  V30 11310 H 1040.25 -5.87935 -1.18711 0
M  V30 11311 H 1041.93 -6.40558 -0.910739 0
M  V30 11312 N 1042.06 0.170153 -1.56679 0
M  V30 11313 C 1043.01 1.22997 -1.9742 0
M  V30 11314 C 1044 1.45762 -0.863117 0
M  V30 11315 O 1045.21 1.46328 -1.04824 0
M  V30 11316 H 1041.58 0.413482 -0.628122 0
M  V30 11317 H 1043.55 0.859502 -2.85754 0
M  V30 11318 C 1042.3 2.5615 -2.35122 0
M  V30 11319 H 1041.63 2.39456 -3.20158 0
M  V30 11320 H 1043.07 3.28991 -2.67471 0
M  V30 11321 C 1041.53 3.14992 -1.19507 0
M  V30 11322 O 1042.06 3.98781 -0.483357 0
M  V30 11323 N 1040.26 2.74098 -0.965332 0
M  V30 11324 H 1039.81 2.06062 -1.54585 0
M  V30 11325 H 1039.77 3.13803 -0.193611 0
M  V30 11326 N 1043.54 1.5137 0.438746 0
M  V30 11327 C 1044.78 1.64211 1.19006 0
M  V30 11328 C 1045.12 0.356607 1.90898 0
M  V30 11329 O 1044.39 -0.643722 1.83539 0
M  V30 11330 C 1044.68 2.8445 2.20817 0
M  V30 11331 C 1044.53 4.22972 1.53018 0
M  V30 11332 C 1045.85 3.00207 3.21813 0
M  V30 11333 H 1042.97 0.597628 0.431288 0
M  V30 11334 H 1045.61 1.8385 0.479487 0
M  V30 11335 H 1043.76 2.67836 2.81418 0
M  V30 11336 H 1045.43 4.5125 0.957654 0
M  V30 11337 H 1043.67 4.25736 0.832556 0
M  V30 11338 H 1044.34 5.03094 2.27158 0
M  V30 11339 H 1046.82 3.15522 2.71266 0
M  V30 11340 H 1045.7 3.85904 3.90345 0
M  V30 11341 H 1045.96 2.12216 3.87836 0
M  V30 11342 N 1045.02 -0.694098 1.41492 0
M  V30 11343 C 1045.93 -1.83778 1.45818 0
M  V30 11344 C 1046.94 -1.70471 0.348639 0
M  V30 11345 O 1048.12 -1.92361 0.596588 0
M  V30 11346 C 1045.18 -3.19771 1.33967 0
M  V30 11347 C 1044.24 -3.45175 2.5525 0
M  V30 11348 C 1043.48 -4.74681 2.43955 0
M  V30 11349 O 1043.7 -5.51268 1.46491 0
M  V30 11350 O 1042.63 -5.00901 3.33739 0
M  V30 11351 H 1046.46 -1.83084 2.42309 0
M  V30 11352 H 1044.05 -0.847349 1.23046 0
M  V30 11353 H 1045.93 -4.00961 1.29648 0
M  V30 11354 H 1044.6 -3.21145 0.405926 0
M  V30 11355 H 1043.51 -2.6391 2.65146 0
M  V30 11356 H 1044.84 -3.48617 3.47458 0
M  V30 11357 N 1046.49 -1.27344 -0.928501 0
M  V30 11358 C 1047.4 -1.11812 -2.06241 0
M  V30 11359 C 1048.42 -0.048347 -1.73933 0
M  V30 11360 O 1049.6 -0.25467 -1.99783 0
M  V30 11361 C 1046.66 -0.766036 -3.38131 0
M  V30 11362 C 1045.72 -1.91659 -3.84142 0
M  V30 11363 C 1044.96 -1.58121 -5.09738 0
M  V30 11364 O 1045.18 -0.488742 -5.68302 0
M  V30 11365 O 1044.11 -2.42013 -5.51102 0
M  V30 11366 H 1047.94 -2.06967 -2.22258 0
M  V30 11367 H 1045.52 -1.06524 -1.04752 0
M  V30 11368 H 1047.41 -0.582982 -4.17348 0
M  V30 11369 H 1046.08 0.155998 -3.23324 0
M  V30 11370 H 1044.99 -2.1547 -3.05816 0
M  V30 11371 H 1046.32 -2.8188 -4.0349 0
M  V30 11372 N 1047.97 1.13488 -1.09353 0
M  V30 11373 C 1049.2 1.88592 -0.850915 0
M  V30 11374 C 1049.62 1.79087 0.597761 0
M  V30 11375 O 1048.97 1.15695 1.41142 0
M  V30 11376 C 1049.02 3.38219 -1.27633 0
M  V30 11377 O 1048.74 3.47476 -2.66819 0
M  V30 11378 C 1050.25 4.30293 -1.06598 0
M  V30 11379 H 1047.47 0.597069 -0.306185 0
M  V30 11380 H 1050.01 1.43668 -1.45533 0
M  V30 11381 H 1048.16 3.80729 -0.715828 0
M  V30 11382 H 1048.58 4.40485 -2.84733 0
M  V30 11383 H 1050.05 5.33611 -1.41293 0
M  V30 11384 H 1050.53 4.392 -0.0037135 0
M  V30 11385 H 1051.14 3.9355 -1.6124 0
M  V30 11386 N 1049.45 0.880621 1.30701 0
M  V30 11387 C 1050.68 0.51094 2.00182 0
M  V30 11388 C 1051.09 -0.903914 1.66211 0
M  V30 11389 O 1050.43 -1.60529 0.893089 0
M  V30 11390 C 1050.49 0.600775 3.54445 0
M  V30 11391 C 1050.16 1.97915 4.1192 0
M  V30 11392 C 1051.16 2.94802 4.28238 0
M  V30 11393 C 1048.84 2.28336 4.47401 0
M  V30 11394 C 1050.83 4.20245 4.79242 0
M  V30 11395 C 1048.52 3.54026 4.98105 0
M  V30 11396 C 1049.52 4.49796 5.13978 0
M  V30 11397 O 1049.21 5.73256 5.63589 0
M  V30 11398 H 1048.94 0.196477 0.646818 0
M  V30 11399 H 1051.49 1.18659 1.67658 0
M  V30 11400 H 1049.72 -0.131832 3.86475 0
M  V30 11401 H 1051.41 0.242996 4.05172 0
M  V30 11402 H 1052.18 2.7261 4.01134 0
M  V30 11403 H 1048.06 1.54564 4.34317 0
M  V30 11404 H 1051.6 4.95003 4.91546 0
M  V30 11405 H 1047.5 3.76057 5.24644 0
M  V30 11406 H 1048.27 5.75577 5.81939 0
M  V30 11407 N 1050.93 -1.4397 0.641131 0
M  V30 11408 C 1052.34 -1.85267 0.230838 0
M  V30 11409 C 1052.69 -1.53659 -1.21998 0
M  V30 11410 O 1051.82 -0.979572 -1.92959 0
M  V30 11411 C 1052.41 -3.36284 0.412171 0
M  V30 11412 C 1050.97 -3.76358 0.0563004 0
M  V30 11413 C 1050.12 -2.67768 0.720809 0
M  V30 11414 H 1053.07 -1.34294 0.845624 0
M  V30 11415 H 1053.09 -3.78924 -0.345936 0
M  V30 11416 H 1052.6 -3.59258 1.46818 0
M  V30 11417 H 1050.7 -3.58997 -0.997582 0
M  V30 11418 H 1050.82 -4.76756 0.473335 0
M  V30 11419 H 1049.18 -2.54227 0.155164 0
M  V30 11420 H 1049.96 -2.93573 1.77961 0
M  V30 11421 N 1052.41 -0.382291 -1.52893 0
M  V30 11422 C 1053.66 0.201734 -2.01091 0
M  V30 11423 C 1053.98 1.47905 -1.2708 0
M  V30 11424 O 1053.25 1.92002 -0.38883 0
M  V30 11425 H 1051.83 0.0775373 -0.742965 0
M  V30 11426 H 1054.49 -0.512369 -1.88045 0
M  V30 11427 H 1053.58 0.416919 -3.09303 0
M  V30 11428 N 1053.89 1.57202 -0.111913 0
M  V30 11429 C 1054.83 2.14936 0.840908 0
M  V30 11430 C 1055.8 1.07242 1.2684 0
M  V30 11431 O 1056.99 1.35114 1.34718 0
M  V30 11432 C 1054.13 2.74743 2.0883 0
M  V30 11433 C 1053.24 3.96723 1.70982 0
M  V30 11434 C 1052.38 4.4464 2.90634 0
M  V30 11435 C 1051.41 5.59169 2.48992 0
M  V30 11436 N 1050.55 6.01862 3.61534 0
M  V30 11437 H 1055.39 2.96034 0.341735 0
M  V30 11438 H 1052.93 1.4626 0.156993 0
M  V30 11439 H 1054.89 3.07546 2.81907 0
M  V30 11440 H 1053.52 1.96346 2.56218 0
M  V30 11441 H 1052.57 3.70127 0.878072 0
M  V30 11442 H 1053.88 4.79795 1.36373 0
M  V30 11443 H 1053.03 4.79315 3.71944 0
M  V30 11444 H 1051.77 3.60503 3.28464 0
M  V30 11445 H 1050.78 5.24106 1.66113 0
M  V30 11446 H 1052 6.45067 2.12287 0
M  V30 11447 H 1049.95 5.20667 3.99051 0
M  V30 11448 H 1049.87 6.79772 3.30827 0
M  V30 11449 H 1051.13 6.41172 4.43305 0
M  V30 11450 N 1055.36 -0.161842 1.56767 0
M  V30 11451 C 1056.29 -1.20226 2.0017 0
M  V30 11452 C 1057.27 -1.4564 0.878807 0
M  V30 11453 O 1058.46 -1.56813 1.14557 0
M  V30 11454 C 1055.59 -2.53897 2.36968 0
M  V30 11455 C 1054.54 -2.43033 3.52305 0
M  V30 11456 C 1053.87 -3.81281 3.74872 0
M  V30 11457 C 1055.17 -1.927 4.85453 0
M  V30 11458 H 1056.86 -0.84142 2.87333 0
M  V30 11459 H 1054.41 -0.403309 1.38237 0
M  V30 11460 H 1056.36 -3.26893 2.6593 0
M  V30 11461 H 1055.09 -2.91787 1.46724 0
M  V30 11462 H 1053.75 -1.7249 3.23485 0
M  V30 11463 H 1053.39 -4.1658 2.81904 0
M  V30 11464 H 1053.09 -3.74877 4.52483 0
M  V30 11465 H 1054.62 -4.55848 4.06245 0
M  V30 11466 H 1056.03 -2.55477 5.13229 0
M  V30 11467 H 1054.43 -1.97222 5.66766 0
M  V30 11468 H 1055.5 -0.881816 4.76814 0
M  V30 11469 N 1056.84 -1.516 -0.430713 0
M  V30 11470 C 1057.77 -1.76342 -1.53054 0
M  V30 11471 C 1058.75 -0.61349 -1.58652 0
M  V30 11472 O 1059.94 -0.856888 -1.74273 0
M  V30 11473 C 1057.07 -1.8945 -2.91077 0
M  V30 11474 C 1056.02 -3.04928 -3.00339 0
M  V30 11475 C 1055.35 -3.03228 -4.40405 0
M  V30 11476 C 1056.65 -4.44777 -2.73808 0
M  V30 11477 H 1058.34 -2.68435 -1.326 0
M  V30 11478 H 1055.89 -1.29171 -0.636466 0
M  V30 11479 H 1057.84 -2.05343 -3.67984 0
M  V30 11480 H 1056.56 -0.940114 -3.12777 0
M  V30 11481 H 1055.22 -2.88751 -2.25872 0
M  V30 11482 H 1054.87 -2.05553 -4.59083 0
M  V30 11483 H 1054.57 -3.80776 -4.47531 0
M  V30 11484 H 1056.1 -3.21222 -5.19277 0
M  V30 11485 H 1057.51 -4.6127 -3.40445 0
M  V30 11486 H 1055.91 -5.2408 -2.92335 0
M  V30 11487 H 1056.98 -4.54358 -1.69372 0
M  V30 11488 N 1058.32 0.686584 -1.41858 0
M  V30 11489 C 1059.25 1.81264 -1.47193 0
M  V30 11490 C 1060.23 1.66875 -0.329657 0
M  V30 11491 O 1061.42 1.86473 -0.542347 0
M  V30 11492 C 1058.55 3.19472 -1.36216 0
M  V30 11493 C 1057.5 3.4858 -2.48347 0
M  V30 11494 C 1056.83 4.86239 -2.22432 0
M  V30 11495 C 1058.13 3.46653 -3.90678 0
M  V30 11496 H 1059.82 1.77057 -2.41436 0
M  V30 11497 H 1057.37 0.850415 -1.16206 0
M  V30 11498 H 1059.32 3.97969 -1.38558 0
M  V30 11499 H 1058.04 3.24327 -0.384611 0
M  V30 11500 H 1056.7 2.72437 -2.45303 0
M  V30 11501 H 1056.35 4.8773 -1.22999 0
M  V30 11502 H 1056.05 5.06677 -2.97577 0
M  V30 11503 H 1057.57 5.67034 -2.26505 0
M  V30 11504 H 1058.99 4.15139 -3.95389 0
M  V30 11505 H 1057.38 3.78625 -4.65578 0
M  V30 11506 H 1058.45 2.45451 -4.18189 0
M  V30 11507 N 1059.8 1.27835 0.921735 0
M  V30 11508 C 1060.74 1.11075 2.02314 0
M  V30 11509 C 1061.71 0.0101195 1.66097 0
M  V30 11510 O 1062.9 0.173564 1.90009 0
M  V30 11511 C 1060.04 0.770251 3.36394 0
M  V30 11512 C 1059.15 1.94912 3.8553 0
M  V30 11513 C 1058.29 1.54996 5.08084 0
M  V30 11514 C 1057.33 2.69595 5.49531 0
M  V30 11515 N 1056.46 2.30227 6.6328 0
M  V30 11516 H 1061.3 2.05319 2.15982 0
M  V30 11517 H 1058.84 1.022 1.058 0
M  V30 11518 H 1060.8 0.553624 4.1351 0
M  V30 11519 H 1059.43 -0.135238 3.22517 0
M  V30 11520 H 1058.48 2.27811 3.04641 0
M  V30 11521 H 1059.79 2.80858 4.12214 0
M  V30 11522 H 1058.95 1.29493 5.9272 0
M  V30 11523 H 1057.69 0.661676 4.83191 0
M  V30 11524 H 1056.69 2.95806 4.63442 0
M  V30 11525 H 1057.92 3.59054 5.76417 0
M  V30 11526 H 1055.86 1.43858 6.40032 0
M  V30 11527 H 1055.78 3.09711 6.89649 0
M  V30 11528 H 1057.05 2.07987 7.5124 0
M  V30 11529 N 1061.28 -1.12907 1.09954 0
M  V30 11530 C 1062.52 -1.84579 0.840155 0
M  V30 11531 C 1062.85 -1.83605 -0.632692 0
M  V30 11532 O 1062.13 -1.27803 -1.46617 0
M  V30 11533 C 1062.41 -3.32489 1.38286 0
M  V30 11534 C 1062.27 -3.41946 2.92221 0
M  V30 11535 C 1063.58 -4.28091 1.0211 0
M  V30 11536 H 1060.7 -0.670169 0.306663 0
M  V30 11537 H 1063.35 -1.3249 1.36185 0
M  V30 11538 H 1061.5 -3.76978 0.939123 0
M  V30 11539 H 1063.17 -3.06128 3.45085 0
M  V30 11540 H 1061.41 -2.8265 3.29077 0
M  V30 11541 H 1062.08 -4.45983 3.25274 0
M  V30 11542 H 1064.56 -3.91701 1.4039 0
M  V30 11543 H 1063.43 -5.30005 1.42781 0
M  V30 11544 H 1063.69 -4.42044 -0.0700753 0
M  V30 11545 N 1062.75 -0.88754 -1.30232 0
M  V30 11546 C 1063.7 -0.354497 -2.28061 0
M  V30 11547 C 1064.67 0.556732 -1.56492 0
M  V30 11548 O 1065.86 0.484597 -1.84543 0
M  V30 11549 C 1063 0.422701 -3.42501 0
M  V30 11550 C 1062.11 -0.518036 -4.28883 0
M  V30 11551 C 1061.24 0.275011 -5.30488 0
M  V30 11552 C 1060.28 -0.661032 -6.0852 0
M  V30 11553 N 1059.42 0.0968509 -7.02033 0
M  V30 11554 H 1064.26 -1.19388 -2.73039 0
M  V30 11555 H 1061.8 -0.600091 -1.34303 0
M  V30 11556 H 1063.75 0.889249 -4.07613 0
M  V30 11557 H 1062.38 1.22664 -2.98586 0
M  V30 11558 H 1061.44 -1.10308 -3.64055 0
M  V30 11559 H 1062.75 -1.23504 -4.83268 0
M  V30 11560 H 1061.9 0.803301 -6.01358 0
M  V30 11561 H 1060.64 1.02522 -4.76802 0
M  V30 11562 H 1059.65 -1.20093 -5.36524 0
M  V30 11563 H 1060.87 -1.41037 -6.64293 0
M  V30 11564 H 1058.82 0.829548 -6.50734 0
M  V30 11565 H 1058.73 -0.560476 -7.5392 0
M  V30 11566 H 1060 0.6058 -7.77142 0
M  V30 11567 N 1064.23 1.43628 -0.648757 0
M  V30 11568 C 1065.51 1.95391 -0.0904551 0
M  V30 11569 C 1065.89 1.59021 1.38837 0
M  V30 11570 O 1065.24 0.873078 2.11163 0
M  V30 11571 C 1065.45 3.47418 -0.33196 0
M  V30 11572 C 1066.8 4.23952 -0.234521 0
M  V30 11573 O 1067.82 3.55218 -0.264276 0
M  V30 11574 O 1066.68 5.46282 -0.154428 0
M  V30 11575 H 1063.77 0.82691 0.0121884 0
M  V30 11576 H 1066.32 1.5359 -0.721685 0
M  V30 11577 H 1065.09 3.67001 -1.35741 0
M  V30 11578 H 1064.71 3.96207 0.332556 0
M  V30 11579 N 1065.71 0.390394 1.52688 0
M  V30 11580 C 1066.66 -0.444229 2.26485 0
M  V30 11581 C 1067.63 -1.05688 1.28138 0
M  V30 11582 O 1068.81 -1.0847 1.56968 0
M  V30 11583 C 1065.95 -1.56501 3.07574 0
M  V30 11584 C 1065.07 -0.975111 4.20851 0
M  V30 11585 C 1064.2 -2.06704 4.89333 0
M  V30 11586 C 1063.24 -1.45309 5.94602 0
M  V30 11587 N 1062.38 -2.48437 6.56676 0
M  V30 11588 H 1067.22 0.191535 2.97384 0
M  V30 11589 H 1064.75 0.106287 1.46716 0
M  V30 11590 H 1066.71 -2.22558 3.52879 0
M  V30 11591 H 1065.34 -2.17107 2.38881 0
M  V30 11592 H 1064.39 -0.204109 3.79852 0
M  V30 11593 H 1065.71 -0.486465 4.96422 0
M  V30 11594 H 1064.86 -2.80528 5.37949 0
M  V30 11595 H 1063.6 -2.58928 4.13289 0
M  V30 11596 H 1062.6 -0.700091 5.45324 0
M  V30 11597 H 1063.83 -0.938775 6.7258 0
M  V30 11598 H 1061.77 -2.99829 5.83471 0
M  V30 11599 H 1061.69 -2.04331 7.27863 0
M  V30 11600 H 1062.96 -3.21888 7.09935 0
M  V30 11601 N 1067.19 -1.57141 0.120249 0
M  V30 11602 C 1068.44 -1.94413 -0.53727 0
M  V30 11603 C 1068.75 -1.00594 -1.67751 0
M  V30 11604 O 1069.96 -1.27336 -2.39787 0
M  V30 11605 C 1068.41 -3.45521 -1.00714 0
M  V30 11606 C 1068.02 -4.47878 0.104706 0
M  V30 11607 C 1069.76 -3.9171 -1.63596 0
M  V30 11608 C 1067.67 -5.90165 -0.381932 0
M  V30 11609 H 1066.6 -0.725745 -0.204475 0
M  V30 11610 H 1069.25 -1.82404 0.200302 0
M  V30 11611 H 1067.63 -3.52769 -1.79917 0
M  V30 11612 H 1068.81 -4.523 0.881002 0
M  V30 11613 H 1067.12 -4.11448 0.640264 0
M  V30 11614 H 1069.72 -4.95433 -2.01122 0
M  V30 11615 H 1070.06 -3.31756 -2.51483 0
M  V30 11616 H 1070.6 -3.87268 -0.909319 0
M  V30 11617 H 1067.34 -6.53877 0.460921 0
M  V30 11618 H 1066.86 -5.89161 -1.12468 0
M  V30 11619 H 1068.53 -6.41488 -0.842748 0
M  V30 11620 N 1068.67 0.153526 -1.5685 0
M  V30 11621 C 1069.89 0.886343 -1.87507 0
M  V30 11622 C 1070.32 1.74244 -0.708565 0
M  V30 11623 O 1069.67 1.78045 0.341997 0
M  V30 11624 C 1069.72 1.72428 -3.16703 0
M  V30 11625 O 1068.83 2.82784 -3.00178 0
M  V30 11626 H 1068.17 0.247259 -0.616246 0
M  V30 11627 H 1070.7 0.146306 -2.04076 0
M  V30 11628 H 1070.71 2.12062 -3.4856 0
M  V30 11629 H 1069.38 1.09558 -4.01211 0
M  V30 11630 H 1067.96 2.46604 -2.79716 0
M  V30 11631 N 1070.14 1.51827 0.422667 0
M  V30 11632 C 1071.05 1.77066 1.53899 0
M  V30 11633 C 1072.07 0.655541 1.61179 0
M  V30 11634 O 1073.25 0.939448 1.78147 0
M  V30 11635 C 1070.31 1.90372 2.89758 0
M  V30 11636 C 1069.37 3.14256 2.92475 0
M  V30 11637 C 1068.61 3.26918 4.21853 0
M  V30 11638 O 1068.83 2.45164 5.15025 0
M  V30 11639 O 1067.76 4.19989 4.31153 0
M  V30 11640 H 1071.59 2.71791 1.35511 0
M  V30 11641 H 1069.17 1.36506 0.607165 0
M  V30 11642 H 1071.06 2.01024 3.70361 0
M  V30 11643 H 1069.73 0.988347 3.08242 0
M  V30 11644 H 1068.64 3.09072 2.10773 0
M  V30 11645 H 1069.97 4.0553 2.78937 0
M  V30 11646 N 1071.62 -0.679052 1.4222 0
M  V30 11647 C 1072.55 -1.80481 1.48152 0
M  V30 11648 C 1073.53 -1.66698 0.338502 0
M  V30 11649 O 1074.72 -1.86183 0.552228 0
M  V30 11650 C 1071.85 -3.18746 1.37908 0
M  V30 11651 C 1070.8 -3.47258 2.50192 0
M  V30 11652 C 1070.13 -4.85052 2.25008 0
M  V30 11653 C 1071.43 -3.44576 3.92511 0
M  V30 11654 H 1073.12 -1.75774 2.42371 0
M  V30 11655 H 1070.67 -0.844241 1.16656 0
M  V30 11656 H 1072.62 -3.97229 1.40666 0
M  V30 11657 H 1071.35 -3.24119 0.401806 0
M  V30 11658 H 1070 -2.71133 2.46744 0
M  V30 11659 H 1069.65 -4.8707 1.25584 0
M  V30 11660 H 1069.35 -5.05092 3.00259 0
M  V30 11661 H 1070.88 -5.65825 2.29508 0
M  V30 11662 H 1072.29 -4.13036 3.97585 0
M  V30 11663 H 1070.69 -3.76151 4.67579 0
M  V30 11664 H 1071.76 -2.4323 4.19484 0
M  V30 11665 N 1073.1 -1.28322 -0.914942 0
M  V30 11666 C 1074.03 -1.06469 -2.01841 0
M  V30 11667 C 1075.01 0.0188681 -1.62589 0
M  V30 11668 O 1076.2 -0.128825 -1.88059 0
M  V30 11669 C 1073.32 -0.617685 -3.3302 0
M  V30 11670 C 1072.37 -1.6977 -3.91255 0
M  V30 11671 S 1073.2 -3.29337 -4.22253 0
M  V30 11672 C 1074.36 -2.86468 -5.56495 0
M  V30 11673 H 1074.59 -1.99893 -2.20068 0
M  V30 11674 H 1072.12 -1.12297 -1.05966 0
M  V30 11675 H 1074.08 -0.366481 -4.08861 0
M  V30 11676 H 1072.74 0.296709 -3.12695 0
M  V30 11677 H 1071.94 -1.33653 -4.85956 0
M  V30 11678 H 1071.54 -1.90164 -3.22046 0
M  V30 11679 H 1073.83 -2.32565 -6.36333 0
M  V30 11680 H 1074.77 -3.79962 -5.97523 0
M  V30 11681 H 1075.18 -2.2522 -5.17626 0
M  V30 11682 N 1074.58 1.12322 -1.10551 0
M  V30 11683 C 1075.99 1.6539 -0.8662 0
M  V30 11684 C 1076.34 1.86695 0.603284 0
M  V30 11685 O 1075.47 1.59432 1.46323 0
M  V30 11686 C 1076.06 3.00443 -1.56587 0
M  V30 11687 C 1074.62 3.50456 -1.37323 0
M  V30 11688 C 1073.77 2.25454 -1.61449 0
M  V30 11689 H 1076.72 0.960866 -1.26305 0
M  V30 11690 H 1076.74 3.66972 -1.00557 0
M  V30 11691 H 1076.25 2.84905 -2.63535 0
M  V30 11692 H 1074.35 3.71176 -0.325431 0
M  V30 11693 H 1074.46 4.29839 -2.11601 0
M  V30 11694 H 1072.83 2.32621 -1.03729 0
M  V30 11695 H 1073.61 2.12469 -2.69651 0
M  V30 11696 N 1076.06 0.894434 1.2976 0
M  V30 11697 C 1077.28 0.5322 2.00455 0
M  V30 11698 C 1077.71 -0.874427 1.66539 0
M  V30 11699 O 1077.06 -1.58113 0.887129 0
M  V30 11700 C 1077.11 0.725264 3.53231 0
M  V30 11701 O 1076.22 -0.224612 4.11788 0
M  V30 11702 H 1075.56 0.208562 0.630395 0
M  V30 11703 H 1078.09 1.20458 1.65382 0
M  V30 11704 H 1078.1 0.627889 4.0314 0
M  V30 11705 H 1076.77 1.75079 3.77253 0
M  V30 11706 H 1075.35 -0.0801361 3.72814 0
M  V30 11707 N 1077.53 -1.43282 0.656365 0
M  V30 11708 C 1078.78 -2.00996 0.168354 0
M  V30 11709 C 1079.1 -1.52408 -1.22601 0
M  V30 11710 O 1080.3 -2.02417 -1.80941 0
M  V30 11711 C 1078.76 -3.5903 0.250161 0
M  V30 11712 C 1078.37 -4.1661 1.64742 0
M  V30 11713 C 1080.11 -4.24118 -0.180084 0
M  V30 11714 C 1078.02 -5.66948 1.68299 0
M  V30 11715 H 1076.95 -0.751674 0.0591769 0
M  V30 11716 H 1079.6 -1.64216 0.818859 0
M  V30 11717 H 1077.98 -3.93226 -0.467908 0
M  V30 11718 H 1079.15 -3.93908 2.3911 0
M  V30 11719 H 1077.47 -3.63905 2.02391 0
M  V30 11720 H 1080.07 -5.34419 -0.173401 0
M  V30 11721 H 1080.41 -3.98264 -1.21208 0
M  V30 11722 H 1080.94 -3.94816 0.486343 0
M  V30 11723 H 1077.68 -5.97573 2.69419 0
M  V30 11724 H 1077.2 -5.91697 0.98261 0
M  V30 11725 H 1078.88 -6.31041 1.42813 0
M  V30 11726 N 1079.01 -0.398486 -1.52479 0
M  V30 11727 C 1080.24 0.183059 -2.06591 0
M  V30 11728 C 1080.66 1.3898 -1.26753 0
M  V30 11729 O 1080.02 1.78885 -0.294959 0
M  V30 11730 C 1080.07 0.522392 -3.56796 0
M  V30 11731 O 1079.17 1.61499 -3.79462 0
M  V30 11732 H 1078.51 0.0188411 -0.663733 0
M  V30 11733 H 1081.04 -0.56861 -1.9654 0
M  V30 11734 H 1081.05 0.784078 -4.00395 0
M  V30 11735 H 1079.73 -0.359807 -4.14341 0
M  V30 11736 H 1078.31 1.3463 -3.47749 0
M  V30 11737 N 1080.49 1.57075 -0.12858 0
M  V30 11738 C 1081.42 2.12907 0.848708 0
M  V30 11739 C 1082.44 1.07406 1.22343 0
M  V30 11740 O 1083.63 1.34746 1.17071 0
M  V30 11741 C 1080.73 2.62167 2.1476 0
M  V30 11742 C 1079.9 3.91871 1.94309 0
M  V30 11743 C 1078.96 4.26629 3.08016 0
M  V30 11744 O 1077.98 4.9528 2.80511 0
M  V30 11745 N 1079.19 3.84721 4.34706 0
M  V30 11746 H 1081.95 2.97387 0.371636 0
M  V30 11747 H 1079.51 1.61805 0.0555574 0
M  V30 11748 H 1081.5 2.82444 2.89841 0
M  V30 11749 H 1080.07 1.82514 2.53786 0
M  V30 11750 H 1079.29 3.80406 1.03367 0
M  V30 11751 H 1080.58 4.76662 1.77962 0
M  V30 11752 H 1079.98 3.2937 4.59926 0
M  V30 11753 H 1078.54 4.10087 5.06628 0
M  V30 11754 N 1081.97 -0.145205 1.5693 0
M  V30 11755 C 1083.25 -0.88631 1.74367 0
M  V30 11756 C 1083.63 -1.99259 0.697081 0
M  V30 11757 O 1082.97 -2.26732 -0.28368 0
M  V30 11758 C 1083.18 -1.42712 3.18488 0
M  V30 11759 C 1084.53 -1.88982 3.80225 0
M  V30 11760 O 1085.56 -1.5245 3.21928 0
M  V30 11761 O 1084.42 -2.56361 4.8264 0
M  V30 11762 H 1081.51 -0.418979 0.713011 0
M  V30 11763 H 1084.06 -0.130991 1.69194 0
M  V30 11764 H 1082.83 -0.632165 3.8616 0
M  V30 11765 H 1082.45 -2.24589 3.28094 0
M  V30 11766 N 1083.45 -1.52049 -0.414609 0
M  V30 11767 C 1084.67 -1.6997 -1.18848 0
M  V30 11768 C 1085.1 -0.406058 -1.83665 0
M  V30 11769 O 1084.46 0.635981 -1.69779 0
M  V30 11770 C 1084.5 -2.8327 -2.23138 0
M  V30 11771 O 1083.61 -2.48457 -3.29155 0
M  V30 11772 H 1082.95 -0.566003 -0.347183 0
M  V30 11773 H 1085.48 -1.98726 -0.486757 0
M  V30 11774 H 1085.49 -3.08022 -2.67557 0
M  V30 11775 H 1084.16 -3.7713 -1.75344 0
M  V30 11776 H 1082.74 -2.34357 -2.90054 0
M  V30 11777 N 1084.93 0.6715 -1.42579 0
M  V30 11778 C 1086.17 1.42731 -1.42516 0
M  V30 11779 C 1086.49 1.95545 -0.0462407 0
M  V30 11780 O 1087.69 2.71391 0.0769798 0
M  V30 11781 C 1086.15 2.58215 -2.50705 0
M  V30 11782 C 1085.76 2.12086 -3.94618 0
M  V30 11783 C 1087.5 3.35705 -2.59813 0
M  V30 11784 C 1085.41 3.24672 -4.9431 0
M  V30 11785 H 1084.34 0.536218 -0.530081 0
M  V30 11786 H 1086.99 0.726655 -1.68499 0
M  V30 11787 H 1085.37 3.30665 -2.17892 0
M  V30 11788 H 1086.55 1.46768 -4.36802 0
M  V30 11789 H 1084.86 1.47526 -3.89391 0
M  V30 11790 H 1087.46 4.1956 -3.31472 0
M  V30 11791 H 1087.8 3.82517 -1.64276 0
M  V30 11792 H 1088.33 2.70326 -2.91836 0
M  V30 11793 H 1085.07 2.82848 -5.91335 0
M  V30 11794 H 1084.59 3.88761 -4.56755 0
M  V30 11795 H 1086.27 3.90088 -5.16179 0
M  V30 11796 N 1086.4 1.28806 0.908124 0
M  V30 11797 C 1087.65 1.15663 1.65242 0
M  V30 11798 C 1087.97 -0.292883 1.93395 0
M  V30 11799 O 1089.17 -0.545509 2.65963 0
M  V30 11800 C 1087.63 2.02233 2.97707 0
M  V30 11801 C 1087.24 3.51958 2.77181 0
M  V30 11802 C 1088.98 1.97792 3.75604 0
M  V30 11803 C 1086.89 4.3066 4.05322 0
M  V30 11804 H 1085.82 0.42928 0.619867 0
M  V30 11805 H 1088.47 1.5338 1.00731 0
M  V30 11806 H 1086.85 1.57377 3.63385 0
M  V30 11807 H 1088.02 4.0481 2.20149 0
M  V30 11808 H 1086.34 3.57983 2.12691 0
M  V30 11809 H 1088.94 2.53858 4.70596 0
M  V30 11810 H 1089.28 0.955956 4.05175 0
M  V30 11811 H 1089.81 2.40648 3.16755 0
M  V30 11812 H 1086.55 5.3346 3.8092 0
M  V30 11813 H 1086.07 3.8258 4.61944 0
M  V30 11814 H 1087.75 4.40878 4.73535 0
M  V30 11815 N 1087.88 -1.11734 1.11145 0
M  V30 11816 C 1089.13 -1.83677 0.859684 0
M  V30 11817 C 1089.46 -1.84265 -0.613182 0
M  V30 11818 O 1088.74 -1.29351 -1.45254 0
M  V30 11819 C 1089.02 -3.31003 1.41805 0
M  V30 11820 C 1088.87 -3.38827 2.95831 0
M  V30 11821 C 1090.19 -4.26984 1.06645 0
M  V30 11822 H 1087.31 -0.666879 0.313754 0
M  V30 11823 H 1089.95 -1.31038 1.37583 0
M  V30 11824 H 1088.1 -3.75961 0.979054 0
M  V30 11825 H 1089.77 -3.02451 3.48312 0
M  V30 11826 H 1088.02 -2.79143 3.32056 0
M  V30 11827 H 1088.69 -4.42508 3.29986 0
M  V30 11828 H 1091.16 -3.9019 1.44537 0
M  V30 11829 H 1090.04 -5.2846 1.48394 0
M  V30 11830 H 1090.3 -4.42094 -0.0231866 0
M  V30 11831 N 1089.36 -0.901303 -1.29284 0
M  V30 11832 C 1090.58 -0.542823 -2.0017 0
M  V30 11833 C 1091.01 0.865583 -1.67001 0
M  V30 11834 O 1090.37 1.5764 -0.895502 0
M  V30 11835 C 1090.42 -0.743987 -3.52842 0
M  V30 11836 O 1089.52 0.202771 -4.11901 0
M  V30 11837 H 1088.86 -0.211903 -0.62928 0
M  V30 11838 H 1091.39 -1.21333 -1.64741 0
M  V30 11839 H 1091.4 -0.64926 -4.02801 0
M  V30 11840 H 1090.08 -1.77077 -3.7632 0
M  V30 11841 H 1088.65 0.0603637 -3.72851 0
M  V30 11842 N 1090.84 1.42931 -0.663954 0
M  V30 11843 C 1091.8 2.29197 0.0117626 0
M  V30 11844 C 1092.8 1.42767 0.739875 0
M  V30 11845 O 1093.99 1.64278 0.579509 0
M  V30 11846 C 1091.12 3.2505 1.02738 0
M  V30 11847 H 1092.32 2.90438 -0.747391 0
M  V30 11848 H 1089.87 1.5039 -0.425733 0
M  V30 11849 H 1090.6 2.68726 1.8154 0
M  V30 11850 H 1090.39 3.88785 0.508809 0
M  V30 11851 H 1091.88 3.89771 1.49893 0
M  V30 11852 N 1092.32 0.406567 1.52266 0
M  V30 11853 C 1093.26 -0.43489 2.28498 0
M  V30 11854 C 1094.26 -1.04806 1.33086 0
M  V30 11855 O 1095.46 -0.986557 1.50556 0
M  V30 11856 H 1091.84 -0.159023 0.734994 0
M  V30 11857 H 1093.81 0.229316 2.97518 0
M  V30 11858 C 1092.56 -1.54073 3.117 0
M  V30 11859 H 1091.88 -1.07824 3.84986 0
M  V30 11860 H 1093.32 -2.10337 3.6815 0
M  V30 11861 C 1091.78 -2.50662 2.251 0
M  V30 11862 O 1092.31 -3.54486 1.88951 0
M  V30 11863 N 1090.52 -2.20811 1.8892 0
M  V30 11864 H 1090.06 -1.36413 2.18516 0
M  V30 11865 H 1090.02 -2.85684 1.3127 0
M  V30 11866 N 1093.79 -1.57004 0.136909 0
M  V30 11867 C 1094.73 -2.13355 -0.837405 0
M  V30 11868 C 1095.74 -1.08053 -1.21772 0
M  V30 11869 O 1096.93 -1.35365 -1.16355 0
M  V30 11870 C 1094.03 -2.63302 -2.13366 0
M  V30 11871 C 1093.2 -3.92896 -1.92228 0
M  V30 11872 C 1092.26 -4.28257 -3.05749 0
M  V30 11873 O 1091.29 -4.96761 -2.7788 0
M  V30 11874 N 1092.49 -3.87021 -4.3266 0
M  V30 11875 H 1095.25 -2.9758 -0.35586 0
M  V30 11876 H 1092.81 -1.61832 -0.0469758 0
M  V30 11877 H 1094.81 -2.83977 -2.88339 0
M  V30 11878 H 1093.38 -1.83858 -2.52814 0
M  V30 11879 H 1092.6 -3.80949 -1.01349 0
M  V30 11880 H 1093.88 -4.776 -1.75431 0
M  V30 11881 H 1093.28 -3.31804 -4.58173 0
M  V30 11882 H 1091.84 -4.12768 -5.04446 0
M  V30 11883 N 1095.27 0.136881 -1.57004 0
M  V30 11884 C 1096.5 0.861186 -1.87796 0
M  V30 11885 C 1096.91 1.74788 -0.724272 0
M  V30 11886 O 1096.25 1.80984 0.31471 0
M  V30 11887 C 1096.32 1.76115 -3.13407 0
M  V30 11888 C 1095.98 1.05059 -4.4476 0
M  V30 11889 C 1096.98 0.399736 -5.18361 0
M  V30 11890 C 1094.66 1.03709 -4.91477 0
M  V30 11891 C 1096.66 -0.255127 -6.36889 0
M  V30 11892 C 1094.34 0.378414 -6.09927 0
M  V30 11893 C 1095.34 -0.266555 -6.8248 0
M  V30 11894 O 1095.03 -0.914757 -7.98679 0
M  V30 11895 H 1094.76 0.253855 -0.626525 0
M  V30 11896 H 1097.31 0.131291 -2.0498 0
M  V30 11897 H 1095.54 2.53224 -2.92257 0
M  V30 11898 H 1097.23 2.3583 -3.30362 0
M  V30 11899 H 1098 0.401909 -4.83332 0
M  V30 11900 H 1093.88 1.52852 -4.34922 0
M  V30 11901 H 1097.42 -0.759135 -6.93457 0
M  V30 11902 H 1093.32 0.373942 -6.44416 0
M  V30 11903 H 1094.09 -0.817437 -8.14408 0
M  V30 11904 N 1096.75 1.52266 0.40654 0
M  V30 11905 C 1097.66 1.78688 1.52012 0
M  V30 11906 C 1098.68 0.6726 1.60475 0
M  V30 11907 O 1099.85 0.95829 1.77141 0
M  V30 11908 C 1096.92 1.93434 2.87722 0
M  V30 11909 C 1095.98 3.17341 2.89125 0
M  V30 11910 C 1095.21 3.31374 4.18362 0
M  V30 11911 O 1095.43 2.50613 5.12396 0
M  V30 11912 O 1094.37 4.24539 4.26674 0
M  V30 11913 H 1098.19 2.73213 1.3262 0
M  V30 11914 H 1095.78 1.37142 0.592653 0
M  V30 11915 H 1097.66 2.04941 3.68208 0
M  V30 11916 H 1096.34 1.02099 3.07177 0
M  V30 11917 H 1095.24 3.1129 2.07483 0
M  V30 11918 H 1096.58 4.08466 2.7462 0
M  V30 11919 N 1098.23 -0.663929 1.42933 0
M  V30 11920 C 1099.47 -1.42603 1.44195 0
M  V30 11921 C 1099.81 -1.94101 0.0620284 0
M  V30 11922 O 1099.08 -1.71609 -0.91546 0
M  V30 11923 C 1099.37 -2.61522 2.47544 0
M  V30 11924 C 1099.22 -2.15587 3.94769 0
M  V30 11925 C 1100.54 -3.6374 2.47753 0
M  V30 11926 H 1097.66 -0.517189 0.525056 0
M  V30 11927 H 1100.3 -0.75361 1.74415 0
M  V30 11928 H 1098.45 -3.1889 2.21904 0
M  V30 11929 H 1100.12 -1.63303 4.31428 0
M  V30 11930 H 1098.36 -1.47057 4.08114 0
M  V30 11931 H 1099.03 -3.01053 4.62678 0
M  V30 11932 H 1101.51 -3.16111 2.70579 0
M  V30 11933 H 1100.39 -4.44512 3.22025 0
M  V30 11934 H 1100.65 -4.15607 1.50742 0
M  V30 11935 N 1099.71 -1.29285 -0.901281 0
M  V30 11936 C 1101.12 -1.07263 -1.18182 0
M  V30 11937 C 1101.32 0.177087 -2.0072 0
M  V30 11938 O 1100.38 0.875292 -2.36844 0
M  V30 11939 C 1101.69 -2.32717 -1.9043 0
M  V30 11940 C 1103.24 -2.3802 -2.03262 0
M  V30 11941 C 1103.71 -3.63273 -2.7892 0
M  V30 11942 N 1105.21 -3.63986 -2.86475 0
M  V30 11943 C 1105.94 -4.57585 -3.45549 0
M  V30 11944 N 1105.44 -5.61513 -4.05801 0
M  V30 11945 N 1107.23 -4.45157 -3.43208 0
M  V30 11946 H 1099.38 -2.09487 -0.350536 0
M  V30 11947 H 1101.64 -0.922647 -0.217778 0
M  V30 11948 H 1101.35 -3.23828 -1.37216 0
M  V30 11949 H 1101.22 -2.40102 -2.90913 0
M  V30 11950 H 1103.61 -1.47398 -2.55652 0
M  V30 11951 H 1103.69 -2.3462 -1.01916 0
M  V30 11952 H 1103.34 -4.54246 -2.27206 0
M  V30 11953 H 1103.27 -3.6393 -3.80608 0
M  V30 11954 H 1105.76 -2.8884 -2.43679 0
M  V30 11955 H 1106.07 -6.29058 -4.48894 0
M  V30 11956 H 1104.41 -5.65325 -4.04268 0
M  V30 11957 H 1107.61 -3.63158 -2.95354 0
M  V30 11958 H 1107.78 -5.18286 -3.88952 0
M  V30 11959 N 1101.18 1.11143 -1.11736 0
M  V30 11960 C 1102.43 1.82311 -0.862875 0
M  V30 11961 C 1102.75 1.85735 0.613326 0
M  V30 11962 O 1103.95 2.53034 0.984168 0
M  V30 11963 C 1102.41 3.27427 -1.49396 0
M  V30 11964 C 1102.02 3.32323 -3.00443 0
M  V30 11965 C 1103.76 4.03474 -1.31944 0
M  V30 11966 C 1101.67 4.71855 -3.56521 0
M  V30 11967 H 1100.6 0.683124 -0.31915 0
M  V30 11968 H 1103.25 1.25045 -1.34298 0
M  V30 11969 H 1101.63 3.84644 -0.941528 0
M  V30 11970 H 1102.8 2.84971 -3.62117 0
M  V30 11971 H 1101.12 2.69758 -3.17206 0
M  V30 11972 H 1103.72 5.06528 -1.71271 0
M  V30 11973 H 1104.06 4.15473 -0.262339 0
M  V30 11974 H 1104.59 3.52652 -1.84069 0
M  V30 11975 H 1101.33 4.65054 -4.61958 0
M  V30 11976 H 1100.85 5.19604 -2.99619 0
M  V30 11977 H 1102.53 5.40816 -3.55144 0
M  V30 11978 N 1102.66 0.908147 1.28804 0
M  V30 11979 C 1103.61 0.382315 2.29437 0
M  V30 11980 C 1104.6 -0.523033 1.61123 0
M  V30 11981 O 1105.81 -0.404898 1.75387 0
M  V30 11982 H 1102.19 0.105022 0.74463 0
M  V30 11983 H 1104.16 1.24425 2.71221 0
M  V30 11984 C 1102.91 -0.367475 3.45753 0
M  V30 11985 H 1102.23 0.319957 3.98518 0
M  V30 11986 H 1103.67 -0.700131 4.1818 0
M  V30 11987 C 1102.13 -1.57329 2.97908 0
M  V30 11988 O 1102.66 -2.67248 2.99902 0
M  V30 11989 N 1100.86 -1.41835 2.53636 0
M  V30 11990 H 1100.41 -0.524099 2.52212 0
M  V30 11991 H 1100.37 -2.22645 2.21984 0
M  V30 11992 N 1104.14 -1.42577 0.671525 0
M  V30 11993 C 1105.37 -2.06442 0.199152 0
M  V30 11994 C 1105.79 -1.50104 -1.1336 0
M  V30 11995 O 1105.15 -0.618211 -1.70434 0
M  V30 11996 C 1105.2 -3.60323 0.141215 0
M  V30 11997 O 1104.3 -4.02655 -0.891238 0
M  V30 11998 H 1103.64 -0.655919 0.103277 0
M  V30 11999 H 1106.17 -1.82768 0.919614 0
M  V30 12000 H 1106.18 -4.07984 -0.0360209 0
M  V30 12001 H 1104.86 -4.00702 1.11403 0
M  V30 12002 H 1103.43 -3.66549 -0.685309 0
M  V30 12003 N 1105.62 -0.414636 -1.52048 0
M  V30 12004 C 1106.53 0.414861 -2.30903 0
M  V30 12005 C 1107.54 1.04855 -1.38858 0
M  V30 12006 O 1108.72 1.04886 -1.71933 0
M  V30 12007 C 1105.79 1.51356 -3.11917 0
M  V30 12008 C 1104.85 0.902359 -4.19709 0
M  V30 12009 C 1104.08 1.9487 -4.96852 0
M  V30 12010 O 1104.3 3.16766 -4.74358 0
M  V30 12011 O 1103.24 1.55186 -5.8155 0
M  V30 12012 H 1107.06 -0.228251 -3.02841 0
M  V30 12013 H 1104.65 -0.177704 -1.48339 0
M  V30 12014 H 1106.53 2.15127 -3.62351 0
M  V30 12015 H 1105.2 2.14117 -2.42767 0
M  V30 12016 H 1104.11 0.22721 -3.73409 0
M  V30 12017 H 1105.44 0.318587 -4.91168 0
M  V30 12018 N 1107.1 1.56929 -0.145233 0
M  V30 12019 C 1108.34 1.95681 0.50532 0
M  V30 12020 C 1108.67 1.03098 1.65516 0
M  V30 12021 O 1107.94 0.0921961 1.95683 0
M  V30 12022 H 1106.52 0.72252 0.189668 0
M  V30 12023 H 1109.18 1.93651 -0.220318 0
M  V30 12024 H 1108.27 2.99359 0.882631 0
M  V30 12025 N 1108.58 -0.128553 1.57075 0
M  V30 12026 C 1109.99 -0.481794 1.52154 0
M  V30 12027 C 1110.19 -1.82381 0.856694 0
M  V30 12028 O 1109.25 -2.48725 0.434989 0
M  V30 12029 C 1110.56 -0.475091 2.96923 0
M  V30 12030 C 1112.11 -0.559315 3.07962 0
M  V30 12031 C 1112.58 -0.583095 4.54273 0
M  V30 12032 N 1114.07 -0.644803 4.5869 0
M  V30 12033 C 1114.81 -0.684493 5.693 0
M  V30 12034 N 1114.31 -0.682407 6.89431 0
M  V30 12035 N 1116.1 -0.726777 5.57382 0
M  V30 12036 H 1108.25 0.750894 1.98684 0
M  V30 12037 H 1110.51 0.27593 0.906955 0
M  V30 12038 H 1110.22 0.443157 3.48897 0
M  V30 12039 H 1110.09 -1.30637 3.53856 0
M  V30 12040 H 1112.48 -1.46798 2.55997 0
M  V30 12041 H 1112.56 0.299468 2.54041 0
M  V30 12042 H 1112.2 0.32149 5.06881 0
M  V30 12043 H 1112.13 -1.45863 5.05996 0
M  V30 12044 H 1114.63 -0.652967 3.72216 0
M  V30 12045 H 1114.94 -0.715051 7.69485 0
M  V30 12046 H 1113.28 -0.649984 6.91954 0
M  V30 12047 H 1116.47 -0.725704 4.6244 0
M  V30 12048 H 1116.65 -0.754242 6.43596 0
M  V30 12049 N 1110.05 -1.5248 -0.398459 0
M  V30 12050 C 1111.47 -1.4152 -0.737854 0
M  V30 12051 C 1111.67 -0.528122 -1.94456 0
M  V30 12052 O 1110.73 0.00203799 -2.525 0
M  V30 12053 C 1112.04 -2.8422 -0.9818 0
M  V30 12054 C 1113.59 -2.93635 -1.08386 0
M  V30 12055 C 1114.06 -4.37327 -1.3605 0
M  V30 12056 N 1115.55 -4.40609 -1.42892 0
M  V30 12057 C 1116.29 -5.48863 -1.65944 0
M  V30 12058 N 1115.78 -6.67217 -1.86529 0
M  V30 12059 N 1117.58 -5.36393 -1.68046 0
M  V30 12060 H 1109.73 -2.08681 0.395705 0
M  V30 12061 H 1111.99 -0.941023 0.114801 0
M  V30 12062 H 1111.7 -3.51302 -0.167358 0
M  V30 12063 H 1111.57 -3.25907 -1.89907 0
M  V30 12064 H 1113.96 -2.26728 -1.88888 0
M  V30 12065 H 1114.04 -2.5539 -0.144714 0
M  V30 12066 H 1113.68 -5.04797 -0.56061 0
M  V30 12067 H 1113.61 -4.73116 -2.31233 0
M  V30 12068 H 1116.1 -3.55298 -1.2873 0
M  V30 12069 H 1116.42 -7.45498 -2.03599 0
M  V30 12070 H 1114.76 -6.70263 -1.83773 0
M  V30 12071 H 1117.95 -4.42903 -1.51509 0
M  V30 12072 H 1118.13 -6.2083 -1.85672 0
M  V30 12073 N 1111.53 0.65634 -1.43283 0
M  V30 12074 C 1112.44 1.79847 -1.50639 0
M  V30 12075 C 1113.46 1.69487 -0.393714 0
M  V30 12076 O 1114.63 1.90712 -0.647379 0
M  V30 12077 C 1111.7 3.16107 -1.42398 0
M  V30 12078 C 1110.76 3.38287 -2.64312 0
M  V30 12079 C 1109.99 4.68046 -2.56454 0
M  V30 12080 O 1110.22 5.4719 -1.61056 0
M  V30 12081 O 1109.15 4.91877 -3.46902 0
M  V30 12082 H 1112.98 1.76596 -2.47078 0
M  V30 12083 H 1110.56 0.814428 -1.25249 0
M  V30 12084 H 1112.44 3.97382 -1.40233 0
M  V30 12085 H 1111.12 3.19956 -0.490929 0
M  V30 12086 H 1110.02 2.56788 -2.72049 0
M  V30 12087 H 1111.36 3.39282 -3.56579 0
M  V30 12088 N 1113.01 1.29761 0.894412 0
M  V30 12089 C 1113.94 1.17902 2.01547 0
M  V30 12090 C 1114.92 0.0719402 1.69948 0
M  V30 12091 O 1116.11 0.252338 1.92554 0
M  V30 12092 C 1113.24 0.860262 3.36477 0
M  V30 12093 C 1112.19 1.92424 3.82305 0
M  V30 12094 C 1111.52 1.45868 5.14419 0
M  V30 12095 C 1112.82 3.33391 4.02054 0
M  V30 12096 H 1114.51 2.11688 2.11727 0
M  V30 12097 H 1112.06 1.01916 1.01731 0
M  V30 12098 H 1114.01 0.763987 4.14417 0
M  V30 12099 H 1112.73 -0.113289 3.26403 0
M  V30 12100 H 1111.39 2.00999 3.06586 0
M  V30 12101 H 1111.04 0.473654 5.00765 0
M  V30 12102 H 1110.74 2.17028 5.46052 0
M  V30 12103 H 1112.26 1.37601 5.94894 0
M  V30 12104 H 1113.68 3.27628 4.7046 0
M  V30 12105 H 1112.07 4.02555 4.4505 0
M  V30 12106 H 1113.14 3.75978 3.06216 0
M  V30 12107 N 1114.49 -1.10549 1.12324 0
M  V30 12108 C 1115.42 -2.18911 0.812416 0
M  V30 12109 C 1116.4 -1.68628 -0.22327 0
M  V30 12110 O 1117.58 -1.94015 -0.0847184 0
M  V30 12111 C 1114.71 -3.46288 0.264947 0
M  V30 12112 C 1113.67 -4.09838 1.23356 0
M  V30 12113 C 1112.99 -5.31901 0.546374 0
M  V30 12114 C 1114.29 -4.53686 2.58778 0
M  V30 12115 H 1115.99 -2.45169 1.71851 0
M  V30 12116 H 1113.53 -1.17834 0.827715 0
M  V30 12117 H 1115.49 -4.21385 0.0352364 0
M  V30 12118 H 1114.21 -3.19517 -0.676479 0
M  V30 12119 H 1112.87 -3.36746 1.44906 0
M  V30 12120 H 1112.52 -5.01406 -0.400157 0
M  V30 12121 H 1112.22 -5.75372 1.19249 0
M  V30 12122 H 1113.74 -6.09731 0.325673 0
M  V30 12123 H 1115.16 -5.20063 2.41263 0
M  V30 12124 H 1113.55 -5.08003 3.19457 0
M  V30 12125 H 1114.62 -3.66665 3.17309 0
M  V30 12126 N 1115.97 -0.914965 -1.28321 0
M  V30 12127 C 1117.24 -0.46764 -1.89928 0
M  V30 12128 C 1117.62 1.05364 -1.82925 0
M  V30 12129 O 1116.97 1.90223 -1.26599 0
M  V30 12130 C 1117.18 -0.999372 -3.34385 0
M  V30 12131 C 1118.53 -1.0522 -4.11356 0
M  V30 12132 O 1119.55 -0.9481 -3.4335 0
M  V30 12133 O 1118.41 -1.21085 -5.32917 0
M  V30 12134 H 1115.51 -0.148398 -0.813577 0
M  V30 12135 H 1118.05 -1.00583 -1.36679 0
M  V30 12136 H 1116.82 -2.04333 -3.33712 0
M  V30 12137 H 1116.45 -0.442083 -3.95135 0
M  V30 12138 N 1117.44 1.42219 -0.679077 0
M  V30 12139 C 1118.39 2.27992 0.0194379 0
M  V30 12140 C 1119.38 1.41317 0.769313 0
M  V30 12141 O 1120.57 1.64731 0.647521 0
M  V30 12142 C 1117.7 3.29401 0.966945 0
M  V30 12143 C 1116.78 4.23559 0.214187 0
M  V30 12144 N 1117.18 4.99699 -0.783226 0
M  V30 12145 C 1115.47 4.43703 0.452026 0
M  V30 12146 C 1116.17 5.68496 -1.23237 0
M  V30 12147 N 1115.15 5.40692 -0.561484 0
M  V30 12148 H 1118.95 2.84287 -0.745542 0
M  V30 12149 H 1116.47 1.54234 -0.508504 0
M  V30 12150 H 1118.46 3.89655 1.48238 0
M  V30 12151 H 1117.12 2.74667 1.7317 0
M  V30 12152 H 1118.13 5.04675 -1.16291 0
M  V30 12153 H 1114.81 4.00004 1.19595 0
M  V30 12154 H 1116.2 6.3957 -2.05912 0
M  V30 12155 N 1118.92 0.422693 1.51826 0
M  V30 12156 C 1120.15 -0.15017 2.06856 0
M  V30 12157 C 1120.57 -1.36946 1.28948 0
M  V30 12158 O 1119.93 -1.78393 0.32338 0
M  V30 12159 C 1119.98 -0.465563 3.57582 0
M  V30 12160 O 1119.08 -1.55442 3.81984 0
M  V30 12161 H 1118.42 -0.00827931 0.663948 0
M  V30 12162 H 1120.95 0.599806 1.95611 0
M  V30 12163 H 1120.96 -0.720279 4.01592 0
M  V30 12164 H 1119.64 0.425679 4.13716 0
M  V30 12165 H 1118.21 -1.29081 3.49846 0
M  V30 12166 N 1120.4 -1.5685 0.153553 0
M  V30 12167 C 1121.65 -1.95946 -0.494936 0
M  V30 12168 C 1121.97 -1.03975 -1.64967 0
M  V30 12169 O 1121.24 -0.102572 -1.95631 0
M  V30 12170 H 1119.82 -0.723516 -0.185833 0
M  V30 12171 H 1122.48 -1.93531 0.230585 0
M  V30 12172 H 1121.58 -2.99823 -0.866743 0
M  V30 12173 N 1121.88 0.120221 -1.57141 0
M  V30 12174 C 1122.79 1.16641 -2.03549 0
M  V30 12175 C 1123.8 1.45407 -0.955656 0
M  V30 12176 O 1124.98 1.56547 -1.26708 0
M  V30 12177 C 1122.04 2.4734 -2.42948 0
M  V30 12178 C 1121.11 2.25982 -3.65008 0
M  V30 12179 C 1120.34 3.50449 -4.02518 0
M  V30 12180 O 1120.56 4.57706 -3.40384 0
M  V30 12181 O 1119.5 3.41524 -4.95626 0
M  V30 12182 H 1123.32 0.802323 -2.9291 0
M  V30 12183 H 1120.91 0.330927 -1.45689 0
M  V30 12184 H 1122.79 3.24348 -2.69029 0
M  V30 12185 H 1121.46 2.83225 -1.56733 0
M  V30 12186 H 1120.37 1.46837 -3.44078 0
M  V30 12187 H 1121.7 1.95002 -4.51924 0
M  V30 12188 N 1123.36 1.52689 0.390367 0
M  V30 12189 C 1124.6 1.68866 1.13383 0
M  V30 12190 C 1124.96 0.422683 1.877 0
M  V30 12191 O 1124.25 -0.583587 1.82496 0
M  V30 12192 C 1124.44 2.86177 2.14096 0
M  V30 12193 C 1124.27 4.24062 1.49672 0
M  V30 12194 C 1123.04 4.89303 1.26139 0
M  V30 12195 C 1125.24 5.05496 0.947554 0
M  V30 12196 N 1123.22 6.11172 0.578051 0
M  V30 12197 C 1124.59 6.18758 0.392199 0
M  V30 12198 C 1126.65 4.90697 0.843832 0
M  V30 12199 C 1125.35 7.18842 -0.256734 0
M  V30 12200 C 1127.38 5.91032 0.208722 0
M  V30 12201 C 1126.74 7.03599 -0.33587 0
M  V30 12202 H 1122.84 0.671411 0.400914 0
M  V30 12203 H 1125.42 1.90037 0.423563 0
M  V30 12204 H 1123.59 2.66589 2.82462 0
M  V30 12205 H 1125.33 2.91298 2.80941 0
M  V30 12206 H 1122.08 4.48 1.53601 0
M  V30 12207 H 1122.51 6.76529 0.252464 0
M  V30 12208 H 1127.15 4.03879 1.25067 0
M  V30 12209 H 1124.87 8.05271 -0.675589 0
M  V30 12210 H 1128.45 5.81655 0.129732 0
M  V30 12211 H 1127.33 7.79906 -0.819557 0
M  V30 12212 N 1124.83 -0.648732 1.43629 0
M  V30 12213 C 1126.08 -1.40446 1.44768 0
M  V30 12214 C 1126.4 -1.95447 0.0773445 0
M  V30 12215 O 1127.6 -2.71479 -0.0337942 0
M  V30 12216 C 1126.06 -2.54194 2.54781 0
M  V30 12217 C 1125.67 -2.05781 3.97942 0
M  V30 12218 C 1127.41 -3.31529 2.65121 0
M  V30 12219 C 1125.32 -3.16767 4.99412 0
M  V30 12220 H 1124.25 -0.527717 0.538545 0
M  V30 12221 H 1126.9 -0.699756 1.69634 0
M  V30 12222 H 1125.28 -3.27156 2.23125 0
M  V30 12223 H 1126.45 -1.398 4.39081 0
M  V30 12224 H 1124.77 -1.41312 3.91688 0
M  V30 12225 H 1127.37 -4.14233 3.38105 0
M  V30 12226 H 1127.71 -3.79855 1.70341 0
M  V30 12227 H 1128.24 -2.65649 2.961 0
M  V30 12228 H 1124.98 -2.73404 5.9576 0
M  V30 12229 H 1124.5 -3.81445 4.62882 0
M  V30 12230 H 1126.18 -3.81827 5.22319 0
M  V30 12231 N 1126.31 -1.30234 -0.887518 0
M  V30 12232 C 1127.26 -1.16302 -2.01436 0
M  V30 12233 C 1128.25 -0.0755422 -1.69231 0
M  V30 12234 O 1129.46 -0.236213 -1.78443 0
M  V30 12235 H 1125.84 -0.35961 -0.660443 0
M  V30 12236 H 1127.81 -2.11677 -2.10322 0
M  V30 12237 C 1126.56 -0.869009 -3.36665 0
M  V30 12238 H 1125.88 -1.69787 -3.61956 0
M  V30 12239 H 1127.32 -0.811621 -4.16159 0
M  V30 12240 C 1125.78 0.428021 -3.3417 0
M  V30 12241 O 1126.31 1.45033 -3.74604 0
M  V30 12242 N 1124.51 0.438264 -2.87276 0
M  V30 12243 H 1124.06 -0.394142 -2.54567 0
M  V30 12244 H 1124.02 1.30604 -2.85989 0
M  V30 12245 N 1127.79 1.09952 -1.12909 0
M  V30 12246 C 1128.74 2.16436 -0.801514 0
M  V30 12247 C 1129.71 1.64444 0.233976 0
M  V30 12248 O 1130.89 1.90497 0.10743 0
M  V30 12249 C 1128.03 3.4406 -0.267753 0
M  V30 12250 C 1127.15 4.09979 -1.36165 0
M  V30 12251 C 1126.28 5.25341 -0.786803 0
M  V30 12252 C 1125.32 5.83172 -1.85948 0
M  V30 12253 N 1124.46 6.89904 -1.30298 0
M  V30 12254 H 1129.3 2.43799 -1.71365 0
M  V30 12255 H 1126.83 1.19665 -0.855499 0
M  V30 12256 H 1128.79 4.17157 0.0598031 0
M  V30 12257 H 1127.42 3.17031 0.607528 0
M  V30 12258 H 1126.47 3.34801 -1.8059 0
M  V30 12259 H 1127.79 4.48999 -2.17259 0
M  V30 12260 H 1126.94 6.05312 -0.410211 0
M  V30 12261 H 1125.68 4.87669 0.055279 0
M  V30 12262 H 1124.68 5.01867 -2.24521 0
M  V30 12263 H 1125.91 6.22907 -2.70487 0
M  V30 12264 H 1123.85 6.54221 -0.482806 0
M  V30 12265 H 1123.77 7.27662 -2.05046 0
M  V30 12266 H 1125.04 7.73643 -0.953779 0
M  V30 12267 N 1129.27 0.921757 1.27833 0
M  V30 12268 C 1130.18 0.421668 2.30779 0
M  V30 12269 C 1131.19 -0.494686 1.6682 0
M  V30 12270 O 1132.37 -0.378935 1.97803 0
M  V30 12271 C 1129.44 -0.322928 3.45193 0
M  V30 12272 C 1128.5 0.627618 4.24687 0
M  V30 12273 C 1127.73 -0.0815385 5.33638 0
M  V30 12274 O 1127.95 -1.30193 5.55343 0
M  V30 12275 O 1126.89 0.58725 5.99028 0
M  V30 12276 H 1130.71 1.2763 2.7558 0
M  V30 12277 H 1128.3 0.686877 1.32674 0
M  V30 12278 H 1130.18 -0.743145 4.14796 0
M  V30 12279 H 1128.85 -1.15326 3.02459 0
M  V30 12280 H 1127.76 1.09739 3.57642 0
M  V30 12281 H 1129.09 1.425 4.71121 0
M  V30 12282 N 1130.75 -1.41857 0.686609 0
M  V30 12283 C 1131.66 -2.34595 0.0159005 0
M  V30 12284 C 1132.67 -1.55741 -0.775933 0
M  V30 12285 O 1133.85 -1.8826 -0.71555 0
M  V30 12286 C 1130.91 -3.34395 -0.915473 0
M  V30 12287 C 1129.97 -4.29141 -0.116851 0
M  V30 12288 C 1129.21 -5.24174 -1.00386 0
M  V30 12289 O 1129.43 -5.24431 -2.2434 0
M  V30 12290 O 1128.36 -6.00152 -0.458337 0
M  V30 12291 H 1132.19 -2.9351 0.780101 0
M  V30 12292 H 1129.78 -1.42559 0.446896 0
M  V30 12293 H 1131.66 -3.95675 -1.44981 0
M  V30 12294 H 1130.33 -2.77936 -1.65932 0
M  V30 12295 H 1129.24 -3.71238 0.461871 0
M  V30 12296 H 1130.57 -4.88673 0.588138 0
M  V30 12297 N 1132.22 -0.430739 -1.51599 0
M  V30 12298 C 1133.45 0.139197 -2.06932 0
M  V30 12299 C 1133.87 1.3626 -1.29672 0
M  V30 12300 O 1133.23 1.78219 -0.332836 0
M  V30 12301 C 1133.28 0.446593 -3.57824 0
M  V30 12302 O 1132.38 1.53414 -3.82803 0
M  V30 12303 H 1131.73 0.00475812 -0.663983 0
M  V30 12304 H 1134.26 -0.610171 -1.9529 0
M  V30 12305 H 1134.27 0.698972 -4.01968 0
M  V30 12306 H 1132.94 -0.447613 -4.13484 0
M  V30 12307 H 1131.52 1.27224 -3.50526 0
M  V30 12308 N 1133.7 1.56767 -0.161869 0
M  V30 12309 C 1134.95 1.95769 0.485536 0
M  V30 12310 C 1135.26 1.05006 1.65025 0
M  V30 12311 O 1136.47 1.33649 2.36326 0
M  V30 12312 C 1134.93 3.4807 0.915176 0
M  V30 12313 C 1134.53 4.47443 -0.223416 0
M  V30 12314 C 1136.28 3.95909 1.53153 0
M  V30 12315 C 1134.19 5.90971 0.225325 0
M  V30 12316 H 1133.12 0.730911 0.185161 0
M  V30 12317 H 1135.77 1.81808 -0.248592 0
M  V30 12318 H 1134.15 3.57415 1.705 0
M  V30 12319 H 1135.32 4.49805 -1.00061 0
M  V30 12320 H 1133.64 4.09606 -0.749127 0
M  V30 12321 H 1136.23 5.00592 1.87915 0
M  V30 12322 H 1136.58 3.38307 2.42599 0
M  V30 12323 H 1137.11 3.89542 0.806322 0
M  V30 12324 H 1133.85 6.52426 -0.634124 0
M  V30 12325 H 1133.37 5.91936 0.96808 0
M  V30 12326 H 1135.05 6.43497 0.672373 0
M  V30 12327 N 1135.18 -0.111886 1.57202 0
M  V30 12328 C 1136.43 -0.817022 1.84412 0
M  V30 12329 C 1136.74 -1.80708 0.748608 0
M  V30 12330 O 1137.95 -2.55891 0.907319 0
M  V30 12331 C 1136.4 -1.50376 3.26979 0
M  V30 12332 C 1136.01 -0.554334 4.44557 0
M  V30 12333 C 1137.76 -2.19361 3.63429 0
M  V30 12334 C 1135.66 -1.24471 5.78153 0
M  V30 12335 H 1134.59 -0.308864 0.687836 0
M  V30 12336 H 1137.24 -0.0698109 1.83367 0
M  V30 12337 H 1135.63 -2.29785 3.22514 0
M  V30 12338 H 1136.8 0.207045 4.60335 0
M  V30 12339 H 1135.12 0.0289261 4.1639 0
M  V30 12340 H 1137.71 -2.71716 4.60515 0
M  V30 12341 H 1138.06 -2.97488 2.91215 0
M  V30 12342 H 1138.59 -1.46833 3.69709 0
M  V30 12343 H 1135.33 -0.504584 6.53555 0
M  V30 12344 H 1134.85 -1.97792 5.66249 0
M  V30 12345 H 1136.53 -1.77591 6.2215 0
M  V30 12346 N 1136.66 -1.52894 -0.382264 0
M  V30 12347 C 1137.61 -1.78151 -1.46734 0
M  V30 12348 C 1138.58 -0.625034 -1.53891 0
M  V30 12349 O 1139.76 -0.865467 -1.70042 0
M  V30 12350 C 1136.9 -1.96223 -2.83885 0
M  V30 12351 C 1136.01 -3.23925 -2.85826 0
M  V30 12352 C 1135.15 -3.32277 -4.14446 0
M  V30 12353 C 1134.19 -4.54076 -4.10465 0
M  V30 12354 N 1133.32 -4.59672 -5.30703 0
M  V30 12355 H 1138.16 -2.70748 -1.24497 0
M  V30 12356 H 1135.7 -1.34135 -0.603838 0
M  V30 12357 H 1137.66 -2.04686 -3.63537 0
M  V30 12358 H 1136.29 -1.0698 -3.04557 0
M  V30 12359 H 1135.34 -3.245 -1.98505 0
M  V30 12360 H 1136.65 -4.1364 -2.78754 0
M  V30 12361 H 1135.81 -3.3996 -5.02506 0
M  V30 12362 H 1134.55 -2.40548 -4.2425 0
M  V30 12363 H 1133.55 -4.46511 -3.20793 0
M  V30 12364 H 1134.78 -5.47128 -4.02278 0
M  V30 12365 H 1132.72 -3.70838 -5.41124 0
M  V30 12366 H 1132.64 -5.43268 -5.25734 0
M  V30 12367 H 1133.91 -4.71618 -6.20642 0
M  V30 12368 N 1138.14 0.641106 -1.43971 0
M  V30 12369 C 1139.41 1.39897 -1.36704 0
M  V30 12370 C 1139.79 2.1109 -0.0208051 0
M  V30 12371 O 1139.14 2.05638 0.99625 0
M  V30 12372 C 1139.35 2.37366 -2.55849 0
M  V30 12373 C 1140.7 3.01 -2.99473 0
M  V30 12374 O 1141.72 2.47692 -2.55982 0
M  V30 12375 O 1140.58 3.9768 -3.74851 0
M  V30 12376 H 1137.68 0.625623 -0.540855 0
M  V30 12377 H 1140.22 0.666997 -1.56042 0
M  V30 12378 H 1139 1.8379 -3.45452 0
M  V30 12379 H 1138.62 3.17995 -2.38673 0
M  V30 12380 N 1139.62 1.30703 0.880598 0
M  V30 12381 C 1140.86 1.19142 1.62752 0
M  V30 12382 C 1141.18 -0.251795 1.93973 0
M  V30 12383 O 1142.38 -0.488971 2.67061 0
M  V30 12384 C 1140.84 2.08503 2.93351 0
M  V30 12385 C 1140.45 3.57758 2.69653 0
M  V30 12386 C 1142.19 2.05715 3.71324 0
M  V30 12387 C 1140.1 4.39161 3.96096 0
M  V30 12388 H 1139.03 0.442332 0.610622 0
M  V30 12389 H 1141.68 1.55483 0.974547 0
M  V30 12390 H 1140.06 1.65049 3.59965 0
M  V30 12391 H 1141.24 4.09388 2.11513 0
M  V30 12392 H 1139.55 3.62414 2.0505 0
M  V30 12393 H 1142.15 2.63783 4.65105 0
M  V30 12394 H 1142.49 1.04168 4.03057 0
M  V30 12395 H 1143.02 2.47313 3.11579 0
M  V30 12396 H 1139.76 5.4142 3.69519 0
M  V30 12397 H 1139.28 3.92293 4.53725 0
M  V30 12398 H 1140.96 4.50823 4.64077 0
M  V30 12399 N 1141.09 -1.09351 1.1349 0
M  V30 12400 C 1142.32 -1.85844 0.92069 0
M  V30 12401 C 1142.74 -1.80616 -0.525303 0
M  V30 12402 O 1142.1 -1.1842 -1.37282 0
M  V30 12403 C 1142.15 -3.31716 1.4141 0
M  V30 12404 O 1141.25 -4.08014 0.599838 0
M  V30 12405 H 1140.59 -0.576242 0.32991 0
M  V30 12406 H 1143.12 -1.38084 1.50976 0
M  V30 12407 H 1143.13 -3.82564 1.41805 0
M  V30 12408 H 1141.81 -3.34837 2.46692 0
M  V30 12409 H 1140.39 -3.66944 0.663816 0
M  V30 12410 N 1142.57 -0.928524 -1.27343 0
M  V30 12411 C 1143.8 -0.58516 -1.98974 0
M  V30 12412 C 1144.22 0.829964 -1.68799 0
M  V30 12413 O 1143.58 1.55705 -0.928738 0
M  V30 12414 C 1143.63 -0.818662 -3.51184 0
M  V30 12415 O 1142.73 0.115355 -4.12239 0
M  V30 12416 H 1142.07 -0.225203 -0.624644 0
M  V30 12417 H 1144.6 -1.248 -1.6213 0
M  V30 12418 H 1144.61 -0.734554 -4.01333 0
M  V30 12419 H 1143.29 -1.8502 -3.72479 0
M  V30 12420 H 1141.86 -0.0187371 -3.72895 0
M  V30 12421 N 1144.05 1.41491 -0.694123 0
M  V30 12422 C 1145 2.30783 -0.0278824 0
M  V30 12423 C 1145.97 1.47028 0.772783 0
M  V30 12424 O 1147.15 1.75819 0.74111 0
M  V30 12425 C 1144.29 3.33061 0.903579 0
M  V30 12426 C 1143.4 4.31896 0.0946823 0
M  V30 12427 C 1142.54 5.21243 1.02365 0
M  V30 12428 C 1141.58 6.11748 0.207578 0
M  V30 12429 N 1140.72 6.93583 1.09028 0
M  V30 12430 H 1145.56 2.87197 -0.795092 0
M  V30 12431 H 1143.09 1.41449 -0.403806 0
M  V30 12432 H 1145.05 3.90907 1.45765 0
M  V30 12433 H 1143.68 2.782 1.6372 0
M  V30 12434 H 1142.73 3.76009 -0.576289 0
M  V30 12435 H 1144.04 4.95889 -0.538059 0
M  V30 12436 H 1143.2 5.83917 1.647 0
M  V30 12437 H 1141.94 4.57473 1.69025 0
M  V30 12438 H 1140.94 5.48125 -0.428854 0
M  V30 12439 H 1142.17 6.77573 -0.455206 0
M  V30 12440 H 1140.11 6.32422 1.74292 0
M  V30 12441 H 1140.03 7.54257 0.513073 0
M  V30 12442 H 1141.3 7.60726 1.70048 0
M  V30 12443 N 1145.53 0.438773 1.51369 0
M  V30 12444 C 1146.44 -0.378074 2.31534 0
M  V30 12445 C 1147.45 -1.02632 1.40508 0
M  V30 12446 O 1148.63 -1.02138 1.73579 0
M  V30 12447 C 1145.69 -1.46374 3.14286 0
M  V30 12448 C 1144.76 -0.835473 4.21092 0
M  V30 12449 C 1143.99 -1.86941 4.99889 0
M  V30 12450 O 1144.21 -3.0918 4.79337 0
M  V30 12451 O 1143.15 -1.45914 5.83946 0
M  V30 12452 H 1146.97 0.276401 3.0244 0
M  V30 12453 H 1144.56 0.201281 1.48038 0
M  V30 12454 H 1146.44 -2.09335 3.65728 0
M  V30 12455 H 1145.11 -2.10227 2.46143 0
M  V30 12456 H 1144.02 -0.167775 3.73724 0
M  V30 12457 H 1145.35 -0.240406 4.91613 0
M  V30 12458 N 1147.01 -1.56678 0.170181 0
M  V30 12459 C 1148.24 -2.00931 -0.480664 0
M  V30 12460 C 1148.64 -1.04947 -1.57425 0
M  V30 12461 O 1147.99 -0.042229 -1.83651 0
M  V30 12462 C 1148.05 -3.4161 -1.11996 0
M  V30 12463 C 1147.71 -4.5669 -0.168167 0
M  V30 12464 C 1148.71 -5.16273 0.613059 0
M  V30 12465 C 1146.39 -5.02259 -0.0643243 0
M  V30 12466 C 1148.39 -6.19852 1.48534 0
M  V30 12467 C 1146.08 -6.05687 0.811542 0
M  V30 12468 C 1147.07 -6.64355 1.58496 0
M  V30 12469 O 1146.76 -7.65778 2.44619 0
M  V30 12470 H 1146.49 -0.66386 -0.12754 0
M  V30 12471 H 1149.05 -2.03635 0.2687 0
M  V30 12472 H 1147.28 -3.35815 -1.91743 0
M  V30 12473 H 1148.97 -3.69823 -1.67289 0
M  V30 12474 H 1149.73 -4.81951 0.542999 0
M  V30 12475 H 1145.61 -4.56307 -0.656102 0
M  V30 12476 H 1149.16 -6.65572 2.08948 0
M  V30 12477 H 1145.05 -6.39435 0.88281 0
M  V30 12478 H 1145.82 -7.83096 2.38122 0
M  V30 12479 N 1148.48 0.103547 -1.57259 0
M  V30 12480 C 1149.73 0.807231 -1.84842 0
M  V30 12481 C 1150.05 1.80308 -0.758181 0
M  V30 12482 O 1151.25 2.55406 -0.920877 0
M  V30 12483 C 1149.71 1.4864 -3.27771 0
M  V30 12484 C 1149.32 0.53075 -4.44845 0
M  V30 12485 C 1151.06 2.17431 -3.64587 0
M  V30 12486 C 1148.97 1.21403 -5.78805 0
M  V30 12487 H 1147.9 0.305212 -0.689465 0
M  V30 12488 H 1150.55 0.0600855 -1.83402 0
M  V30 12489 H 1148.93 2.28071 -3.23728 0
M  V30 12490 H 1150.1 -0.231455 -4.60218 0
M  V30 12491 H 1148.42 -0.0510078 -4.16369 0
M  V30 12492 H 1151.02 2.6927 -4.6195 0
M  V30 12493 H 1151.36 2.9594 -2.92789 0
M  V30 12494 H 1151.89 1.4487 -3.70483 0
M  V30 12495 H 1148.63 0.469918 -6.53813 0
M  V30 12496 H 1148.15 1.94787 -5.6729 0
M  V30 12497 H 1149.83 1.74289 -6.23083 0
M  V30 12498 N 1149.96 1.53094 0.37415 0
M  V30 12499 C 1151.19 1.73061 1.143 0
M  V30 12500 C 1151.61 0.454611 1.82524 0
M  V30 12501 O 1150.97 -0.590743 1.71406 0
M  V30 12502 C 1151.02 2.89086 2.15549 0
M  V30 12503 O 1150.12 2.57096 3.22452 0
M  V30 12504 H 1149.46 0.575009 0.332055 0
M  V30 12505 H 1151.99 1.99946 0.433897 0
M  V30 12506 H 1152 3.15007 2.59296 0
M  V30 12507 H 1150.68 3.81647 1.65283 0
M  V30 12508 H 1149.25 2.41965 2.83738 0
M  V30 12509 N 1151.44 -0.633461 1.44309 0
M  V30 12510 C 1152.69 -1.39306 1.46969 0
M  V30 12511 C 1153.01 -1.94235 0.101403 0
M  V30 12512 O 1152.27 -1.73959 -0.896475 0
M  V30 12513 C 1152.57 -2.57783 2.47554 0
M  V30 12514 C 1152.23 -2.21156 3.92939 0
M  V30 12515 C 1150.9 -2.1088 4.32531 0
M  V30 12516 C 1153.25 -1.9218 4.84475 0
M  V30 12517 C 1150.58 -1.69812 5.61588 0
M  V30 12518 C 1152.93 -1.52605 6.13917 0
M  V30 12519 C 1151.59 -1.40868 6.52466 0
M  V30 12520 H 1150.86 -0.509758 0.537799 0
M  V30 12521 H 1153.51 -0.718552 1.77508 0
M  V30 12522 H 1151.81 -3.30456 2.1049 0
M  V30 12523 H 1153.51 -3.16009 2.46859 0
M  V30 12524 H 1150.1 -2.30072 3.61614 0
M  V30 12525 H 1154.29 -1.9903 4.54644 0
M  V30 12526 H 1149.54 -1.59327 5.90275 0
M  V30 12527 H 1153.72 -1.29221 6.84306 0
M  V30 12528 H 1151.34 -1.08818 7.52371 0
M  V30 12529 N 1152.92 -1.31168 -0.873655 0
M  V30 12530 C 1153.87 -1.18432 -2.00191 0
M  V30 12531 C 1154.86 -0.0934873 -1.69142 0
M  V30 12532 O 1156.07 -0.255126 -1.78183 0
M  V30 12533 H 1152.44 -0.366594 -0.656592 0
M  V30 12534 H 1154.41 -2.13896 -2.08065 0
M  V30 12535 C 1153.16 -0.904668 -3.35725 0
M  V30 12536 H 1152.48 -1.73617 -3.60135 0
M  V30 12537 H 1153.92 -0.855715 -4.15275 0
M  V30 12538 C 1152.38 0.392554 -3.34605 0
M  V30 12539 O 1152.91 1.41052 -3.76121 0
M  V30 12540 N 1151.12 0.40777 -2.87725 0
M  V30 12541 H 1150.67 -0.42112 -2.54134 0
M  V30 12542 H 1150.62 1.27564 -2.87358 0
M  V30 12543 N 1154.4 1.08748 -1.14068 0
M  V30 12544 C 1155.81 1.62551 -0.918379 0
M  V30 12545 C 1156.16 1.8852 0.543583 0
M  V30 12546 O 1155.28 1.64007 1.41176 0
M  V30 12547 C 1155.88 2.95309 -1.66066 0
M  V30 12548 C 1154.44 3.4591 -1.48403 0
M  V30 12549 C 1153.58 2.20204 -1.6854 0
M  V30 12550 H 1156.54 0.920196 -1.29298 0
M  V30 12551 H 1156.56 3.63587 -1.12181 0
M  V30 12552 H 1156.07 2.76377 -2.72465 0
M  V30 12553 H 1154.17 3.69953 -0.443353 0
M  V30 12554 H 1154.28 4.2289 -2.25169 0
M  V30 12555 H 1152.65 2.29203 -1.11077 0
M  V30 12556 H 1153.43 2.03783 -2.76274 0
M  V30 12557 N 1155.87 0.935264 1.26849 0
M  V30 12558 C 1156.82 0.438896 2.26588 0
M  V30 12559 C 1157.79 -0.498267 1.5845 0
M  V30 12560 O 1158.98 -0.415771 1.86215 0
M  V30 12561 C 1156.12 -0.295293 3.43834 0
M  V30 12562 C 1155.23 0.676857 4.26665 0
M  V30 12563 C 1154.36 -0.0779349 5.31143 0
M  V30 12564 C 1153.4 0.886425 6.05648 0
M  V30 12565 N 1152.54 0.163771 7.01909 0
M  V30 12566 H 1157.38 1.29439 2.6842 0
M  V30 12567 H 1154.92 0.649523 1.31983 0
M  V30 12568 H 1156.88 -0.737354 4.10632 0
M  V30 12569 H 1155.51 -1.11497 3.02933 0
M  V30 12570 H 1154.56 1.23744 3.5971 0
M  V30 12571 H 1155.87 1.41355 4.78351 0
M  V30 12572 H 1155.02 -0.579557 6.03926 0
M  V30 12573 H 1153.76 -0.84755 4.80279 0
M  V30 12574 H 1152.77 1.39923 5.31697 0
M  V30 12575 H 1153.99 1.65595 6.58601 0
M  V30 12576 H 1151.94 -0.58746 6.53364 0
M  V30 12577 H 1151.86 0.839902 7.5132 0
M  V30 12578 H 1153.12 -0.316951 7.78855 0
M  V30 12579 N 1157.35 -1.41121 0.701616 0
M  V30 12580 C 1158.26 -2.34565 0.0407815 0
M  V30 12581 C 1159.28 -1.56555 -0.75937 0
M  V30 12582 O 1160.45 -1.89008 -0.695542 0
M  V30 12583 C 1157.52 -3.35347 -0.879954 0
M  V30 12584 C 1156.58 -4.29241 -0.0713279 0
M  V30 12585 C 1155.81 -5.25209 -0.948211 0
M  V30 12586 O 1156.04 -5.26781 -2.18766 0
M  V30 12587 O 1154.97 -6.00605 -0.394657 0
M  V30 12588 H 1158.8 -2.92666 0.811188 0
M  V30 12589 H 1156.38 -1.42077 0.461991 0
M  V30 12590 H 1158.26 -3.9719 -1.40776 0
M  V30 12591 H 1156.94 -2.7968 -1.62975 0
M  V30 12592 H 1155.85 -3.70727 0.50122 0
M  V30 12593 H 1157.18 -4.88022 0.639935 0
M  V30 12594 N 1158.83 -0.446794 -1.51134 0
M  V30 12595 C 1159.78 0.374154 -2.29571 0
M  V30 12596 C 1160.77 1.01241 -1.35818 0
M  V30 12597 O 1161.98 0.946293 -1.53119 0
M  V30 12598 H 1158.35 0.13948 -0.738951 0
M  V30 12599 H 1160.32 -0.308117 -2.96805 0
M  V30 12600 C 1159.07 1.45754 -3.15675 0
M  V30 12601 H 1158.4 0.975787 -3.87709 0
M  V30 12602 H 1159.84 2.00502 -3.73597 0
M  V30 12603 C 1158.3 2.44606 -2.31667 0
M  V30 12604 O 1158.83 3.49352 -1.98284 0
M  V30 12605 N 1157.03 2.15725 -1.94708 0
M  V30 12606 H 1156.58 1.30572 -2.22056 0
M  V30 12607 H 1156.54 2.82103 -1.38798 0
M  V30 12608 N 1160.31 1.56586 -0.178487 0
M  V30 12609 C 1161.26 2.18309 0.74899 0
M  V30 12610 C 1162.23 1.12525 1.22178 0
M  V30 12611 O 1163.41 1.40706 1.28866 0
M  V30 12612 C 1160.55 2.83353 1.9699 0
M  V30 12613 C 1159.66 4.03618 1.54002 0
M  V30 12614 C 1158.8 4.56567 2.71514 0
M  V30 12615 C 1157.84 5.69226 2.25051 0
M  V30 12616 N 1156.97 6.16654 3.35682 0
M  V30 12617 H 1161.81 2.97217 0.21587 0
M  V30 12618 H 1159.35 1.46794 0.0948182 0
M  V30 12619 H 1161.31 3.19226 2.68609 0
M  V30 12620 H 1159.94 2.07037 2.4766 0
M  V30 12621 H 1158.99 3.73518 0.720298 0
M  V30 12622 H 1160.3 4.85148 1.15901 0
M  V30 12623 H 1159.46 4.94659 3.5128 0
M  V30 12624 H 1158.2 3.7411 3.12879 0
M  V30 12625 H 1157.2 5.30679 1.43734 0
M  V30 12626 H 1158.43 6.5349 1.84736 0
M  V30 12627 H 1156.37 5.37124 3.76609 0
M  V30 12628 H 1156.29 6.93192 3.01697 0
M  V30 12629 H 1157.56 6.59397 4.15711 0
M  V30 12630 N 1161.79 -0.095206 1.57312 0
M  V30 12631 C 1163.04 -0.797417 1.85268 0
M  V30 12632 C 1163.35 -1.79903 0.767733 0
M  V30 12633 O 1164.55 -2.54914 0.934409 0
M  V30 12634 C 1163.01 -1.469 3.28555 0
M  V30 12635 C 1162.62 -0.507152 4.4512 0
M  V30 12636 C 1164.36 -2.15494 3.65735 0
M  V30 12637 C 1162.27 -1.18331 5.79441 0
M  V30 12638 H 1161.2 -0.301552 0.691074 0
M  V30 12639 H 1163.85 -0.0503584 1.83431 0
M  V30 12640 H 1162.23 -2.26351 3.24933 0
M  V30 12641 H 1163.41 0.255858 4.60089 0
M  V30 12642 H 1161.72 0.0730882 4.16336 0
M  V30 12643 H 1164.32 -2.66816 4.63371 0
M  V30 12644 H 1164.66 -2.94383 2.94354 0
M  V30 12645 H 1165.19 -1.42903 3.71246 0
M  V30 12646 H 1161.93 -0.435238 6.54053 0
M  V30 12647 H 1161.45 -1.91775 5.68315 0
M  V30 12648 H 1163.13 -1.70983 6.23998 0
M  V30 12649 N 1163.26 -1.53291 -0.366026 0
M  V30 12650 C 1164.49 -1.73359 -1.12934 0
M  V30 12651 C 1164.91 -0.462352 -1.83051 0
M  V30 12652 O 1164.26 0.564711 -1.73543 0
M  V30 12653 C 1164.32 -2.89873 -2.15999 0
M  V30 12654 O 1164.04 -4.12079 -1.48737 0
M  V30 12655 C 1165.54 -3.21811 -3.04881 0
M  V30 12656 H 1162.76 -0.579827 -0.337701 0
M  V30 12657 H 1165.3 -2.00033 -0.425081 0
M  V30 12658 H 1163.46 -2.65595 -2.82025 0
M  V30 12659 H 1163.87 -4.77322 -2.17404 0
M  V30 12660 H 1165.34 -4.06744 -3.7318 0
M  V30 12661 H 1165.82 -2.37156 -3.69667 0
M  V30 12662 H 1166.43 -3.48013 -2.44473 0
M  V30 12663 N 1164.74 0.6258 -1.44643 0
M  V30 12664 C 1165.99 1.3873 -1.47925 0
M  V30 12665 C 1166.32 1.93868 -0.113469 0
M  V30 12666 O 1165.6 1.73976 0.869639 0
M  V30 12667 C 1165.88 2.54867 -2.54391 0
M  V30 12668 C 1165.73 2.05044 -4.00346 0
M  V30 12669 C 1167.05 3.57043 -2.57309 0
M  V30 12670 H 1164.17 0.503087 -0.538584 0
M  V30 12671 H 1166.81 0.707102 -1.76352 0
M  V30 12672 H 1164.96 3.12894 -2.30281 0
M  V30 12673 H 1166.63 1.51807 -4.35606 0
M  V30 12674 H 1164.88 1.36185 -4.11869 0
M  V30 12675 H 1165.55 2.88681 -4.70497 0
M  V30 12676 H 1168.02 3.08826 -2.78865 0
M  V30 12677 H 1166.9 4.35818 -3.33698 0
M  V30 12678 H 1167.16 4.11464 -1.61708 0
M  V30 12679 N 1166.22 1.31629 0.866686 0
M  V30 12680 C 1167.17 1.19556 1.97421 0
M  V30 12681 C 1168.14 0.0805578 1.65905 0
M  V30 12682 O 1169.32 0.253997 1.89102 0
M  V30 12683 C 1166.46 0.912234 3.32825 0
M  V30 12684 C 1165.58 2.11088 3.76916 0
M  V30 12685 C 1164.71 1.76406 5.01053 0
M  V30 12686 C 1163.75 2.9266 5.37602 0
M  V30 12687 N 1162.89 2.58152 6.52918 0
M  V30 12688 H 1167.73 2.14294 2.0708 0
M  V30 12689 H 1165.26 1.06595 1.0137 0
M  V30 12690 H 1167.22 0.72851 4.1079 0
M  V30 12691 H 1165.85 0.00167404 3.228 0
M  V30 12692 H 1164.9 2.40527 2.94705 0
M  V30 12693 H 1166.22 2.98089 3.99931 0
M  V30 12694 H 1165.37 1.54515 5.86694 0
M  V30 12695 H 1164.11 0.866018 4.79949 0
M  V30 12696 H 1163.11 3.15196 4.50479 0
M  V30 12697 H 1164.34 3.83179 5.6067 0
M  V30 12698 H 1162.28 1.70874 6.33355 0
M  V30 12699 H 1162.2 3.38682 6.75892 0
M  V30 12700 H 1163.47 2.39662 7.41743 0
M  V30 12701 N 1167.7 -1.08142 1.14644 0
M  V30 12702 C 1168.92 -1.84857 0.940349 0
M  V30 12703 C 1169.35 -1.81163 -0.506117 0
M  V30 12704 O 1168.71 -1.19869 -1.36019 0
M  V30 12705 C 1168.76 -3.30198 1.4492 0
M  V30 12706 O 1167.86 -4.07355 0.64308 0
M  V30 12707 H 1167.2 -0.572711 0.336003 0
M  V30 12708 H 1169.73 -1.36475 1.52432 0
M  V30 12709 H 1169.74 -3.81039 1.45854 0
M  V30 12710 H 1168.42 -3.32202 2.50229 0
M  V30 12711 H 1166.99 -3.66219 0.702698 0
M  V30 12712 N 1169.18 -0.941978 -1.26351 0
M  V30 12713 C 1170.12 -0.450906 -2.26353 0
M  V30 12714 C 1171.09 0.489857 -1.58712 0
M  V30 12715 O 1172.28 0.40589 -1.86433 0
M  V30 12716 C 1169.42 0.277054 -3.43986 0
M  V30 12717 C 1168.53 -0.699474 -4.263 0
M  V30 12718 C 1167.67 0.0497661 -5.31177 0
M  V30 12719 C 1166.71 -0.918531 -6.05169 0
M  V30 12720 N 1165.84 -0.200993 -7.01812 0
M  V30 12721 H 1170.68 -1.30861 -2.6773 0
M  V30 12722 H 1168.22 -0.656514 -1.31637 0
M  V30 12723 H 1170.18 0.715567 -4.11018 0
M  V30 12724 H 1168.81 1.09889 -3.0352 0
M  V30 12725 H 1167.86 -1.2565 -3.59049 0
M  V30 12726 H 1169.17 -1.4389 -4.77595 0
M  V30 12727 H 1168.33 0.547521 -6.04224 0
M  V30 12728 H 1167.07 0.822068 -4.80722 0
M  V30 12729 H 1166.07 -1.4274 -5.30947 0
M  V30 12730 H 1167.3 -1.69085 -6.57713 0
M  V30 12731 H 1165.24 0.552803 -6.53667 0
M  V30 12732 H 1165.16 -0.879735 -7.50864 0
M  V30 12733 H 1166.43 0.275642 -7.79012 0
M  V30 12734 N 1170.66 1.40747 -0.709091 0
M  V30 12735 C 1171.6 2.32564 -0.0411392 0
M  V30 12736 C 1172.6 1.51692 0.75404 0
M  V30 12737 O 1173.8 1.67537 0.658139 0
M  V30 12738 H 1170.18 0.75198 0.00549889 0
M  V30 12739 H 1172.15 2.86556 -0.83235 0
M  V30 12740 C 1170.9 3.36604 0.871378 0
M  V30 12741 H 1170.22 3.98895 0.268912 0
M  V30 12742 H 1171.66 4.03359 1.30682 0
M  V30 12743 C 1170.12 2.71566 1.99384 0
M  V30 12744 O 1170.65 2.57392 3.08403 0
M  V30 12745 N 1168.86 2.3005 1.77554 0
M  V30 12746 H 1168.4 2.41778 0.888898 0
M  V30 12747 H 1168.36 1.8687 2.52838 0
M  V30 12748 N 1172.13 0.454803 1.50895 0
M  V30 12749 C 1173.06 -0.337982 2.31041 0
M  V30 12750 C 1174.04 -1.00523 1.37219 0
M  V30 12751 O 1175.23 -1.00553 1.66141 0
M  V30 12752 C 1172.36 -1.42964 3.1651 0
M  V30 12753 C 1171.31 -0.884907 4.18752 0
M  V30 12754 C 1170.64 -2.07363 4.92854 0
M  V30 12755 C 1171.94 0.0926716 5.22218 0
M  V30 12756 H 1173.63 0.33089 2.97566 0
M  V30 12757 H 1171.18 0.160577 1.43102 0
M  V30 12758 H 1173.13 -1.9916 3.71367 0
M  V30 12759 H 1171.86 -2.12705 2.47839 0
M  V30 12760 H 1170.52 -0.345031 3.64973 0
M  V30 12761 H 1170.16 -2.75764 4.2067 0
M  V30 12762 H 1169.86 -1.71545 5.62002 0
M  V30 12763 H 1171.39 -2.6408 5.5054 0
M  V30 12764 H 1172.8 -0.379568 5.72042 0
M  V30 12765 H 1171.2 0.3643 5.98993 0
M  V30 12766 H 1172.27 1.02383 4.73968 0
M  V30 12767 N 1173.61 -1.56489 0.186789 0
M  V30 12768 C 1175.02 -1.83809 -0.327265 0
M  V30 12769 C 1175.37 -1.10718 -1.61976 0
M  V30 12770 O 1174.5 -0.36525 -2.13295 0
M  V30 12771 C 1175.09 -3.33435 -0.600551 0
M  V30 12772 C 1173.65 -3.61195 -1.059 0
M  V30 12773 C 1172.8 -2.77108 -0.103131 0
M  V30 12774 H 1175.75 -1.53292 0.410747 0
M  V30 12775 H 1175.77 -3.51754 -1.45084 0
M  V30 12776 H 1175.28 -3.86605 0.340315 0
M  V30 12777 H 1173.38 -3.13451 -2.01443 0
M  V30 12778 H 1173.5 -4.69435 -0.957458 0
M  V30 12779 H 1171.86 -2.47448 -0.603449 0
M  V30 12780 H 1172.64 -3.33065 0.832031 0
M  V30 12781 N 1175.09 0.086862 -1.5736 0
M  V30 12782 C 1176 1.12297 -2.05977 0
M  V30 12783 C 1177.02 1.43347 -0.986284 0
M  V30 12784 O 1178.19 1.53825 -1.3 0
M  V30 12785 C 1175.26 2.42131 -2.4814 0
M  V30 12786 C 1174.32 2.18189 -3.69719 0
M  V30 12787 C 1173.55 3.41833 -4.09861 0
M  V30 12788 O 1173.77 4.50383 -3.50016 0
M  V30 12789 O 1172.71 3.30934 -5.02759 0
M  V30 12790 H 1176.53 0.740012 -2.94546 0
M  V30 12791 H 1174.12 0.29995 -1.46358 0
M  V30 12792 H 1176 3.18568 -2.75848 0
M  V30 12793 H 1174.68 2.79837 -1.62705 0
M  V30 12794 H 1173.58 1.39506 -3.47115 0
M  V30 12795 H 1174.92 1.85372 -4.55959 0
M  V30 12796 N 1176.57 1.53483 0.357892 0
M  V30 12797 C 1177.5 1.83444 1.44466 0
M  V30 12798 C 1178.48 0.688486 1.55544 0
M  V30 12799 O 1179.66 0.93906 1.69986 0
M  V30 12800 C 1176.79 2.03122 2.81707 0
M  V30 12801 C 1175.75 3.1891 2.85448 0
M  V30 12802 C 1175.07 3.23895 4.25436 0
M  V30 12803 C 1176.37 4.57334 2.52275 0
M  V30 12804 H 1178.07 2.74456 1.19642 0
M  V30 12805 H 1175.61 1.3206 0.574112 0
M  V30 12806 H 1177.57 2.22666 3.57768 0
M  V30 12807 H 1176.29 1.08827 3.07935 0
M  V30 12808 H 1174.95 2.99199 2.11838 0
M  V30 12809 H 1174.6 2.27223 4.48753 0
M  V30 12810 H 1174.3 4.01694 4.28854 0
M  V30 12811 H 1175.82 3.45632 5.0336 0
M  V30 12812 H 1177.24 4.76988 3.1805 0
M  V30 12813 H 1175.63 5.37431 2.66998 0
M  V30 12814 H 1176.7 4.61921 1.47501 0
M  V30 12815 N 1178.05 -0.61812 1.44973 0
M  V30 12816 C 1179.27 -1.40921 1.52171 0
M  V30 12817 C 1179.7 -1.87487 0.151755 0
M  V30 12818 O 1179.05 -1.59518 -0.861606 0
M  V30 12819 C 1179.1 -2.59689 2.50188 0
M  V30 12820 O 1178.21 -3.59967 2.0124 0
M  V30 12821 H 1177.55 -0.421138 0.51336 0
M  V30 12822 H 1180.08 -0.753258 1.90229 0
M  V30 12823 H 1180.09 -3.07069 2.6865 0
M  V30 12824 H 1178.76 -2.25144 3.4969 0
M  V30 12825 H 1177.34 -3.19308 1.92605 0
M  V30 12826 N 1179.52 -1.32087 -0.859693 0
M  V30 12827 C 1180.75 -1.25348 -1.64607 0
M  V30 12828 C 1181.17 0.179425 -1.87945 0
M  V30 12829 O 1180.52 1.11487 -1.44489 0
M  V30 12830 C 1180.57 -2.0047 -3.00822 0
M  V30 12831 O 1180.3 -3.38169 -2.7852 0
M  V30 12832 C 1181.8 -2.00694 -3.95268 0
M  V30 12833 H 1179.02 -0.432692 -0.512854 0
M  V30 12834 H 1181.56 -1.7413 -1.07234 0
M  V30 12835 H 1179.72 -1.55423 -3.54855 0
M  V30 12836 H 1180.13 -3.76553 -3.65113 0
M  V30 12837 H 1181.6 -2.57748 -4.88129 0
M  V30 12838 H 1182.08 -0.99196 -4.27851 0
M  V30 12839 H 1182.69 -2.45666 -3.47172 0
M  V30 12840 N 1181 1.07532 -1.15215 0
M  V30 12841 C 1181.93 2.1668 -0.870171 0
M  V30 12842 C 1182.91 1.69161 0.178483 0
M  V30 12843 O 1184.1 1.94172 0.0332489 0
M  V30 12844 C 1181.23 3.45464 -0.356666 0
M  V30 12845 C 1180.18 4.06424 -1.34179 0
M  V30 12846 C 1179.51 5.30266 -0.687206 0
M  V30 12847 C 1180.81 4.46666 -2.70715 0
M  V30 12848 H 1182.5 2.40526 -1.7829 0
M  V30 12849 H 1180.05 1.15598 -0.858665 0
M  V30 12850 H 1182 4.21144 -0.146947 0
M  V30 12851 H 1180.72 3.21199 0.591527 0
M  V30 12852 H 1179.38 3.32786 -1.53783 0
M  V30 12853 H 1179.03 5.0229 0.267077 0
M  V30 12854 H 1178.73 5.72009 -1.34462 0
M  V30 12855 H 1180.26 6.08653 -0.487218 0
M  V30 12856 H 1181.67 5.13483 -2.54966 0
M  V30 12857 H 1180.07 4.99355 -3.32813 0
M  V30 12858 H 1181.14 3.58123 -3.26919 0
M  V30 12859 N 1182.48 0.948665 1.2585 0
M  V30 12860 C 1183.41 0.482036 2.2847 0
M  V30 12861 C 1184.39 -0.468553 1.63519 0
M  V30 12862 O 1185.58 -0.368796 1.90666 0
M  V30 12863 C 1182.71 -0.246603 3.46423 0
M  V30 12864 C 1181.66 0.61815 4.23513 0
M  V30 12865 C 1180.99 -0.240884 5.34157 0
M  V30 12866 C 1182.29 1.89327 4.86778 0
M  V30 12867 H 1183.98 1.33973 2.67753 0
M  V30 12868 H 1181.53 0.645645 1.28715 0
M  V30 12869 H 1183.48 -0.584135 4.17332 0
M  V30 12870 H 1182.2 -1.13849 3.06114 0
M  V30 12871 H 1180.86 0.938682 3.54379 0
M  V30 12872 H 1180.51 -1.13235 4.90089 0
M  V30 12873 H 1180.21 0.334367 5.86648 0
M  V30 12874 H 1181.73 -0.573517 6.07901 0
M  V30 12875 H 1183.15 1.62252 5.49861 0
M  V30 12876 H 1181.55 2.41369 5.49419 0
M  V30 12877 H 1182.62 2.60006 4.09298 0
M  V30 12878 N 1183.96 -1.40369 0.716545 0
M  V30 12879 C 1184.89 -2.29186 0.0251905 0
M  V30 12880 C 1185.9 -1.45877 -0.722761 0
M  V30 12881 O 1187.09 -1.69155 -0.569982 0
M  V30 12882 C 1184.19 -3.24161 -0.988589 0
M  V30 12883 C 1183.37 -4.36329 -0.30597 0
M  V30 12884 C 1182.42 -5.11736 -1.22527 0
M  V30 12885 O 1181.45 -5.64758 -0.7097 0
M  V30 12886 N 1182.65 -5.21183 -2.55634 0
M  V30 12887 H 1185.42 -2.8916 0.787808 0
M  V30 12888 H 1182.98 -1.51749 0.564253 0
M  V30 12889 H 1184.97 -3.71479 -1.60578 0
M  V30 12890 H 1183.54 -2.65347 -1.65256 0
M  V30 12891 H 1182.76 -3.91125 0.491432 0
M  V30 12892 H 1184.05 -5.08523 0.167827 0
M  V30 12893 H 1183.45 -4.7959 -3.00017 0
M  V30 12894 H 1182 -5.72005 -3.12495 0
M  V30 12895 N 1185.44 -0.462799 -1.50652 0
M  V30 12896 C 1186.35 0.341191 -2.32106 0
M  V30 12897 C 1187.36 1.00384 -1.42123 0
M  V30 12898 O 1188.54 0.993635 -1.75182 0
M  V30 12899 C 1185.6 1.41356 -3.16575 0
M  V30 12900 C 1184.66 0.768375 -4.22368 0
M  V30 12901 C 1183.9 1.78964 -5.028 0
M  V30 12902 O 1184.12 3.01515 -4.84195 0
M  V30 12903 O 1183.05 1.36606 -5.86193 0
M  V30 12904 H 1186.88 -0.324482 -3.01962 0
M  V30 12905 H 1184.47 -0.224807 -1.47699 0
M  V30 12906 H 1186.35 2.0349 -3.69012 0
M  V30 12907 H 1185.02 2.06285 -2.49456 0
M  V30 12908 H 1183.93 0.108297 -3.73943 0
M  V30 12909 H 1185.26 0.162164 -4.91933 0
M  V30 12910 N 1186.91 1.56388 -0.195085 0
M  V30 12911 C 1188.16 1.96755 0.443901 0
M  V30 12912 C 1188.48 1.08483 1.6276 0
M  V30 12913 O 1189.68 1.38632 2.33438 0
M  V30 12914 C 1188.14 3.49933 0.841139 0
M  V30 12915 C 1187.75 4.46868 -0.318275 0
M  V30 12916 C 1189.49 3.99069 1.44721 0
M  V30 12917 C 1187.4 5.91316 0.0999211 0
M  V30 12918 H 1186.33 0.734674 0.169616 0
M  V30 12919 H 1188.98 1.8124 -0.287101 0
M  V30 12920 H 1187.36 3.60951 1.62881 0
M  V30 12921 H 1188.53 4.47581 -1.0958 0
M  V30 12922 H 1186.85 4.07925 -0.835842 0
M  V30 12923 H 1189.45 5.04465 1.77255 0
M  V30 12924 H 1189.79 3.43376 2.35369 0
M  V30 12925 H 1190.32 3.91165 0.723513 0
M  V30 12926 H 1187.06 6.50934 -0.77237 0
M  V30 12927 H 1186.58 5.93856 0.842304 0
M  V30 12928 H 1188.26 6.44778 0.535726 0
M  V30 12929 N 1188.39 -0.0785156 1.57404 0
M  V30 12930 C 1189.81 -0.433143 1.5361 0
M  V30 12931 C 1190.01 -1.79564 0.914283 0
M  V30 12932 O 1189.06 -2.47215 0.513899 0
M  V30 12933 C 1190.38 -0.380387 2.98284 0
M  V30 12934 C 1191.93 -0.461056 3.09586 0
M  V30 12935 C 1192.4 -0.438276 4.55898 0
M  V30 12936 N 1193.89 -0.498548 4.60509 0
M  V30 12937 C 1194.63 -0.503028 5.71189 0
M  V30 12938 N 1194.12 -0.462724 6.91253 0
M  V30 12939 N 1195.92 -0.549083 5.59412 0
M  V30 12940 H 1188.07 0.813724 1.96195 0
M  V30 12941 H 1190.33 0.304644 0.897717 0
M  V30 12942 H 1190.04 0.553932 3.4731 0
M  V30 12943 H 1189.91 -1.19313 3.57833 0
M  V30 12944 H 1192.3 -1.3858 2.60537 0
M  V30 12945 H 1192.38 0.380138 2.5296 0
M  V30 12946 H 1192.02 0.482588 5.05602 0
M  V30 12947 H 1191.95 -1.29691 5.1038 0
M  V30 12948 H 1194.44 -0.534219 3.74105 0
M  V30 12949 H 1194.76 -0.469883 7.7137 0
M  V30 12950 H 1193.1 -0.429515 6.93672 0
M  V30 12951 H 1196.29 -0.578215 4.64515 0
M  V30 12952 H 1196.46 -0.549105 6.45669 0
M  V30 12953 N 1189.87 -1.5367 -0.349747 0
M  V30 12954 C 1190.82 -1.81914 -1.44948 0
M  V30 12955 C 1191.81 -0.689218 -1.54745 0
M  V30 12956 O 1193.02 -0.872448 -1.57443 0
M  V30 12957 H 1189.39 -0.576234 -0.483176 0
M  V30 12958 H 1191.36 -2.73932 -1.18338 0
M  V30 12959 C 1190.11 -2.04005 -2.81562 0
M  V30 12960 H 1189.44 -2.90399 -2.74788 0
M  V30 12961 H 1190.88 -2.27737 -3.57648 0
M  V30 12962 C 1189.34 -0.823748 -3.26674 0
M  V30 12963 O 1189.87 -0.0201351 -4.01695 0
M  V30 12964 N 1188.07 -0.642716 -2.83403 0
M  V30 12965 H 1187.62 -1.29783 -2.22517 0
M  V30 12966 H 1187.58 0.169654 -3.13942 0
M  V30 12967 N 1191.35 0.610423 -1.45298 0
M  V30 12968 C 1192.3 1.74245 -1.54083 0
M  V30 12969 C 1193.29 1.64338 -0.411003 0
M  V30 12970 O 1194.5 1.70167 -0.586799 0
M  V30 12971 H 1190.87 0.575612 -0.483916 0
M  V30 12972 H 1192.84 1.63961 -2.49318 0
M  V30 12973 C 1191.59 3.1262 -1.52198 0
M  V30 12974 H 1190.91 3.209 -2.3846 0
M  V30 12975 H 1192.35 3.91665 -1.62403 0
M  V30 12976 C 1190.81 3.36001 -0.24595 0
M  V30 12977 O 1191.34 3.95982 0.675374 0
M  V30 12978 N 1189.55 2.9025 -0.142537 0
M  V30 12979 H 1189.1 2.41621 -0.893143 0
M  V30 12980 H 1189.05 3.06268 0.710427 0
M  V30 12981 N 1192.83 1.32541 0.852676 0
M  V30 12982 C 1194.05 1.2636 1.64462 0
M  V30 12983 C 1194.48 -0.16508 1.87374 0
M  V30 12984 O 1193.83 -1.11712 1.42794 0
M  V30 12985 C 1193.88 2.03052 2.97997 0
M  V30 12986 O 1192.99 1.37967 3.88637 0
M  V30 12987 H 1192.33 0.435393 0.501327 0
M  V30 12988 H 1194.86 1.74888 1.06186 0
M  V30 12989 H 1194.87 2.133 3.47803 0
M  V30 12990 H 1193.54 3.06941 2.80642 0
M  V30 12991 H 1192.12 1.36279 3.47106 0
M  V30 12992 N 1194.3 -1.0692 1.15784 0
M  V30 12993 C 1195.25 -2.16335 0.854506 0
M  V30 12994 C 1196.25 -1.68505 -0.173868 0
M  V30 12995 O 1197.45 -1.79977 -0.0284722 0
M  V30 12996 H 1193.83 -0.706103 0.258694 0
M  V30 12997 H 1195.8 -2.39135 1.78486 0
M  V30 12998 C 1194.55 -3.45778 0.365042 0
M  V30 12999 H 1193.87 -3.82971 1.14776 0
M  V30 13000 H 1195.31 -4.23567 0.191504 0
M  V30 13001 C 1193.77 -3.24258 -0.914253 0
M  V30 13002 O 1194.3 -3.49236 -1.98487 0
M  V30 13003 N 1192.51 -2.77722 -0.855501 0
M  V30 13004 H 1192.05 -2.57595 0.0159233 0
M  V30 13005 H 1192.01 -2.63702 -1.71198 0
M  V30 13006 N 1195.78 -0.955326 -1.25345 0
M  V30 13007 C 1197.01 -0.627233 -1.97688 0
M  V30 13008 C 1197.43 0.793973 -1.70522 0
M  V30 13009 O 1196.79 1.537 -0.961556 0
M  V30 13010 C 1196.84 -0.892969 -3.49369 0
M  V30 13011 O 1195.94 0.0278871 -4.12391 0
M  V30 13012 H 1195.28 -0.238402 -0.619726 0
M  V30 13013 H 1197.81 -1.28211 -1.59446 0
M  V30 13014 H 1197.82 -0.819517 -3.99685 0
M  V30 13015 H 1196.5 -1.92879 -3.6847 0
M  V30 13016 H 1195.08 -0.0978295 -3.72772 0
M  V30 13017 N 1197.26 1.39987 -0.723979 0
M  V30 13018 C 1198.49 2.0556 -0.275634 0
M  V30 13019 C 1198.91 1.54207 1.07711 0
M  V30 13020 O 1198.27 0.681041 1.68022 0
M  V30 13021 C 1198.32 3.59551 -0.27485 0
M  V30 13022 O 1197.42 4.05685 0.741182 0
M  V30 13023 H 1196.76 0.651634 -0.12755 0
M  V30 13024 H 1199.29 1.79229 -0.986814 0
M  V30 13025 H 1199.3 4.07837 -0.115425 0
M  V30 13026 H 1197.98 3.96291 -1.26198 0
M  V30 13027 H 1196.55 3.6884 0.548795 0
M  V30 13028 N 1198.74 0.470782 1.50404 0
M  V30 13029 C 1200.02 -0.145879 1.95055 0
M  V30 13030 C 1200.4 -1.57004 1.41114 0
M  V30 13031 O 1199.74 -2.20152 0.612006 0
M  V30 13032 C 1199.95 -0.0895071 3.48885 0
M  V30 13033 C 1201.3 -0.278548 4.23685 0
M  V30 13034 O 1202.33 -0.166105 3.55812 0
M  V30 13035 O 1201.19 -0.505606 5.44156 0
M  V30 13036 H 1198.28 -0.111838 0.819403 0
M  V30 13037 H 1200.83 0.531162 1.61173 0
M  V30 13038 H 1199.6 0.904836 3.80695 0
M  V30 13039 H 1199.22 -0.808019 3.89303 0
M  V30 13040 N 1200.22 -1.56282 0.203376 0
M  V30 13041 C 1201.47 -1.96987 -0.433461 0
M  V30 13042 C 1201.78 -1.09344 -1.62183 0
M  V30 13043 O 1202.99 -1.39868 -2.327 0
M  V30 13044 C 1201.44 -3.50374 -0.82257 0
M  V30 13045 C 1201.05 -4.46693 0.341969 0
M  V30 13046 C 1202.79 -3.99831 -1.42603 0
M  V30 13047 C 1200.7 -5.9136 -0.0685608 0
M  V30 13048 H 1199.63 -0.735564 -0.165717 0
M  V30 13049 H 1202.28 -1.81085 0.296708 0
M  V30 13050 H 1200.66 -3.6181 -1.60964 0
M  V30 13051 H 1201.84 -4.46994 1.11952 0
M  V30 13052 H 1200.15 -4.07476 0.857463 0
M  V30 13053 H 1202.75 -5.05398 -1.74577 0
M  V30 13054 H 1203.09 -3.4462 -2.33544 0
M  V30 13055 H 1203.63 -3.91543 -0.702758 0
M  V30 13056 H 1200.36 -6.50515 0.80688 0
M  V30 13057 H 1199.88 -5.94295 -0.810798 0
M  V30 13058 H 1201.56 -6.45053 -0.501525 0
M  V30 13059 N 1201.7 0.070167 -1.57444 0
M  V30 13060 C 1202.61 1.10106 -2.07157 0
M  V30 13061 C 1203.62 1.42293 -1.00143 0
M  V30 13062 O 1204.8 1.52437 -1.31624 0
M  V30 13063 C 1201.86 2.39486 -2.50694 0
M  V30 13064 C 1200.92 2.14255 -3.72012 0
M  V30 13065 C 1200.16 3.37466 -4.13464 0
M  V30 13066 O 1200.38 4.46645 -3.54773 0
M  V30 13067 O 1199.31 3.25583 -5.0624 0
M  V30 13068 H 1203.14 0.70873 -2.95315 0
M  V30 13069 H 1200.72 0.28441 -1.46668 0
M  V30 13070 H 1202.61 3.15625 -2.79212 0
M  V30 13071 H 1201.28 2.78095 -1.65664 0
M  V30 13072 H 1200.19 1.35816 -3.48575 0
M  V30 13073 H 1201.52 1.80525 -4.57899 0
M  V30 13074 N 1203.17 1.53854 0.341593 0
M  V30 13075 C 1204.1 1.84966 1.42513 0
M  V30 13076 C 1205.08 0.704944 1.54805 0
M  V30 13077 O 1206.27 0.957036 1.68981 0
M  V30 13078 C 1203.4 2.06099 2.79536 0
M  V30 13079 C 1202.35 3.21919 2.82049 0
M  V30 13080 C 1201.68 3.28389 4.21977 0
M  V30 13081 C 1202.98 4.59984 2.4741 0
M  V30 13082 H 1204.67 2.7571 1.16724 0
M  V30 13083 H 1202.22 1.32662 0.560073 0
M  V30 13084 H 1204.17 2.26448 3.55386 0
M  V30 13085 H 1202.9 1.12087 3.06764 0
M  V30 13086 H 1201.56 3.01429 2.08653 0
M  V30 13087 H 1201.2 2.3197 4.46317 0
M  V30 13088 H 1200.9 4.0622 4.24569 0
M  V30 13089 H 1202.43 3.50951 4.99666 0
M  V30 13090 H 1203.84 4.80334 3.12973 0
M  V30 13091 H 1202.24 5.40233 2.61282 0
M  V30 13092 H 1203.31 4.6346 1.42594 0
M  V30 13093 N 1204.65 -0.602709 1.4562 0
M  V30 13094 C 1205.56 -1.74132 1.5721 0
M  V30 13095 C 1206.58 -1.67909 0.456347 0
M  V30 13096 O 1207.75 -1.88178 0.717714 0
M  V30 13097 C 1204.82 -3.10604 1.54032 0
M  V30 13098 C 1203.88 -3.28244 2.76685 0
M  V30 13099 C 1203.11 -4.58205 2.73649 0
M  V30 13100 O 1203.34 -5.40836 1.81254 0
M  V30 13101 O 1202.27 -4.78663 3.64919 0
M  V30 13102 H 1206.1 -1.67304 2.53462 0
M  V30 13103 H 1203.68 -0.767381 1.28186 0
M  V30 13104 H 1205.56 -3.91904 1.54885 0
M  V30 13105 H 1204.24 -3.17913 0.60934 0
M  V30 13106 H 1203.14 -2.46514 2.81393 0
M  V30 13107 H 1204.48 -3.25814 3.68925 0
M  V30 13108 N 1206.13 -1.32992 -0.845635 0
M  V30 13109 C 1207.04 -1.24701 -1.98713 0
M  V30 13110 C 1208.06 -0.158864 -1.73273 0
M  V30 13111 O 1209.23 -0.381209 -1.97759 0
M  V30 13112 C 1206.3 -0.979524 -3.32575 0
M  V30 13113 C 1205.36 -2.15701 -3.71176 0
M  V30 13114 C 1204.59 -1.90219 -4.98651 0
M  V30 13115 O 1204.81 -0.849171 -5.64044 0
M  V30 13116 O 1203.75 -2.76571 -5.34595 0
M  V30 13117 H 1207.57 -2.20683 -2.08645 0
M  V30 13118 H 1205.16 -1.12971 -0.97765 0
M  V30 13119 H 1207.04 -0.847219 -4.12796 0
M  V30 13120 H 1205.72 -0.0499398 -3.23661 0
M  V30 13121 H 1204.62 -2.34483 -2.91494 0
M  V30 13122 H 1205.96 -3.0697 -3.84747 0
M  V30 13123 N 1207.61 1.06304 -1.1635 0
M  V30 13124 C 1208.55 2.13776 -0.869965 0
M  V30 13125 C 1209.52 1.65105 0.181541 0
M  V30 13126 O 1210.71 1.90743 0.0467705 0
M  V30 13127 C 1207.85 3.43034 -0.377077 0
M  V30 13128 C 1206.96 4.0544 -1.4914 0
M  V30 13129 C 1206.1 5.22572 -0.953538 0
M  V30 13130 C 1205.14 5.76961 -2.04407 0
M  V30 13131 N 1204.27 6.85409 -1.52181 0
M  V30 13132 H 1209.11 2.38224 -1.79034 0
M  V30 13133 H 1206.65 1.16882 -0.893136 0
M  V30 13134 H 1208.61 4.17136 -0.0729426 0
M  V30 13135 H 1207.24 3.18804 0.506359 0
M  V30 13136 H 1206.29 3.28886 -1.9115 0
M  V30 13137 H 1207.6 4.41859 -2.31434 0
M  V30 13138 H 1206.76 6.037 -0.602579 0
M  V30 13139 H 1205.5 4.87598 -0.099897 0
M  V30 13140 H 1204.5 4.9447 -2.40373 0
M  V30 13141 H 1205.73 6.13987 -2.90167 0
M  V30 13142 H 1203.67 6.52354 -0.690697 0
M  V30 13143 H 1203.59 7.2077 -2.28092 0
M  V30 13144 H 1204.86 7.70217 -1.19942 0
M  V30 13145 N 1209.09 0.96196 1.24836 0
M  V30 13146 C 1210.33 0.621634 1.93038 0
M  V30 13147 C 1210.66 -0.840257 1.75081 0
M  V30 13148 O 1209.94 -1.60381 1.10038 0
M  V30 13149 C 1210.22 0.990107 3.46221 0
M  V30 13150 C 1210.08 2.50827 3.73371 0
M  V30 13151 C 1211.39 0.520478 4.37011 0
M  V30 13152 H 1208.51 0.227312 0.701069 0
M  V30 13153 H 1211.16 1.19993 1.47315 0
M  V30 13154 H 1209.31 0.498008 3.85295 0
M  V30 13155 H 1210.98 3.07469 3.4389 0
M  V30 13156 H 1209.22 2.94277 3.18722 0
M  V30 13157 H 1209.89 2.71659 4.80526 0
M  V30 13158 H 1212.37 0.942703 4.05281 0
M  V30 13159 H 1211.24 0.806918 5.42937 0
M  V30 13160 H 1211.5 -0.579507 4.38285 0
M  V30 13161 N 1210.56 -1.39601 0.731392 0
M  V30 13162 C 1211.5 -2.28169 0.0378735 0
M  V30 13163 C 1212.47 -1.44195 -0.751434 0
M  V30 13164 O 1213.66 -1.7359 -0.734753 0
M  V30 13165 C 1210.79 -3.24999 -0.953589 0
M  V30 13166 C 1209.83 -4.25748 -0.253203 0
M  V30 13167 S 1210.66 -5.25496 1.03025 0
M  V30 13168 C 1211.82 -6.25886 0.0412927 0
M  V30 13169 H 1212.05 -2.8664 0.788973 0
M  V30 13170 H 1209.59 -1.45271 0.523044 0
M  V30 13171 H 1211.54 -3.81308 -1.52035 0
M  V30 13172 H 1210.21 -2.65554 -1.6775 0
M  V30 13173 H 1209.4 -4.93913 -1.00328 0
M  V30 13174 H 1209 -3.7322 0.241426 0
M  V30 13175 H 1211.29 -6.72757 -0.800305 0
M  V30 13176 H 1212.24 -7.0473 0.68999 0
M  V30 13177 H 1212.64 -5.63538 -0.329495 0
M  V30 13178 N 1212.04 -0.478751 -1.50152 0
M  V30 13179 C 1212.97 0.301182 -2.31549 0
M  V30 13180 C 1213.95 0.983276 -1.38801 0
M  V30 13181 O 1215.14 0.978973 -1.67719 0
M  V30 13182 C 1212.27 1.3791 -3.18745 0
M  V30 13183 C 1211.22 0.818175 -4.20107 0
M  V30 13184 C 1210.55 1.99496 -4.9609 0
M  V30 13185 C 1211.85 -0.17574 -5.22004 0
M  V30 13186 H 1213.54 -0.378188 -2.97002 0
M  V30 13187 H 1211.09 -0.183323 -1.42828 0
M  V30 13188 H 1213.04 1.93227 -3.74488 0
M  V30 13189 H 1211.77 2.08735 -2.51192 0
M  V30 13190 H 1210.42 0.286924 -3.65475 0
M  V30 13191 H 1210.07 2.69036 -4.25004 0
M  V30 13192 H 1209.77 1.62582 -5.6466 0
M  V30 13193 H 1211.3 2.55288 -5.54671 0
M  V30 13194 H 1212.71 0.288513 -5.72574 0
M  V30 13195 H 1211.11 -0.459549 -5.98338 0
M  V30 13196 H 1212.18 -1.09911 -4.72279 0
M  V30 13197 N 1213.52 1.56172 -0.211661 0
M  V30 13198 C 1214.75 2.02428 0.427843 0
M  V30 13199 C 1215.16 1.09162 1.54043 0
M  V30 13200 O 1214.52 0.0994249 1.82229 0
M  V30 13201 C 1214.57 3.48279 0.968728 0
M  V30 13202 O 1214.29 4.37987 -0.0994841 0
M  V30 13203 C 1215.79 4.10132 1.68246 0
M  V30 13204 H 1213.01 0.662611 0.10577 0
M  V30 13205 H 1215.56 2.01897 -0.32522 0
M  V30 13206 H 1213.71 3.49456 1.6721 0
M  V30 13207 H 1214.13 5.23609 0.305558 0
M  V30 13208 H 1215.6 5.13985 2.01304 0
M  V30 13209 H 1216.08 3.54552 2.5921 0
M  V30 13210 H 1216.68 4.12775 1.02453 0
M  V30 13211 N 1215 -0.0618163 1.57479 0
M  V30 13212 C 1215.91 -1.09006 2.07738 0
M  V30 13213 C 1216.92 -1.4176 1.00896 0
M  V30 13214 O 1218.1 -1.51737 1.32431 0
M  V30 13215 C 1215.17 -2.38153 2.5196 0
M  V30 13216 C 1214.23 -2.12279 3.73143 0
M  V30 13217 C 1213.46 -3.35269 4.15248 0
M  V30 13218 O 1213.68 -4.44758 3.57137 0
M  V30 13219 O 1212.62 -3.22894 5.0796 0
M  V30 13220 H 1216.44 -0.693059 2.95686 0
M  V30 13221 H 1214.03 -0.276628 1.46817 0
M  V30 13222 H 1215.91 -3.14139 2.80882 0
M  V30 13223 H 1214.58 -2.77213 1.67137 0
M  V30 13224 H 1213.49 -1.33966 3.49291 0
M  V30 13225 H 1214.82 -1.78094 4.5885 0
M  V30 13226 N 1216.48 -1.54033 -0.333429 0
M  V30 13227 C 1217.72 -1.73485 -1.08085 0
M  V30 13228 C 1218.08 -0.492888 -1.85566 0
M  V30 13229 O 1219.28 -0.564596 -2.62804 0
M  V30 13230 C 1217.55 -2.96943 -1.98896 0
M  V30 13231 S 1219.11 -3.37253 -2.80724 0
M  V30 13232 H 1215.93 -0.610131 -0.365049 0
M  V30 13233 H 1218.53 -1.92194 -0.358034 0
M  V30 13234 H 1217.24 -3.85494 -1.40794 0
M  V30 13235 H 1216.77 -2.80729 -2.75599 0
M  V30 13236 H 1218.78 -2.9178 -4.01347 0
M  V30 13237 N 1217.95 0.594978 -1.45938 0
M  V30 13238 C 1218.86 1.73296 -1.58132 0
M  V30 13239 C 1219.88 1.67665 -0.465245 0
M  V30 13240 O 1221.06 1.87794 -0.727684 0
M  V30 13241 C 1218.12 3.09783 -1.55677 0
M  V30 13242 C 1217.18 3.26772 -2.78422 0
M  V30 13243 C 1216.42 4.56748 -2.76075 0
M  V30 13244 O 1216.64 5.39867 -1.84119 0
M  V30 13245 O 1215.57 4.76721 -3.67452 0
M  V30 13246 H 1219.4 1.65957 -2.54346 0
M  V30 13247 H 1216.98 0.760572 -1.28591 0
M  V30 13248 H 1218.87 3.91077 -1.56961 0
M  V30 13249 H 1217.54 3.17585 -0.626191 0
M  V30 13250 H 1216.45 2.45018 -2.82696 0
M  V30 13251 H 1217.78 3.23853 -3.70648 0
M  V30 13252 N 1219.43 1.33438 0.838571 0
M  V30 13253 C 1220.68 1.24259 1.58879 0
M  V30 13254 C 1220.99 -0.189957 1.94675 0
M  V30 13255 O 1222.2 -0.40376 2.68481 0
M  V30 13256 C 1220.66 2.1773 2.86569 0
M  V30 13257 C 1220.26 3.66156 2.58135 0
M  V30 13258 C 1222.01 2.17424 3.64591 0
M  V30 13259 C 1219.92 4.5154 3.81923 0
M  V30 13260 H 1218.85 0.461534 0.59624 0
M  V30 13261 H 1221.5 1.58504 0.924588 0
M  V30 13262 H 1219.88 1.76418 3.54532 0
M  V30 13263 H 1221.05 4.1591 1.98382 0
M  V30 13264 H 1219.37 3.68754 1.93416 0
M  V30 13265 H 1221.96 2.78446 4.56478 0
M  V30 13266 H 1222.31 1.16939 3.99539 0
M  V30 13267 H 1222.84 2.571 3.03553 0
M  V30 13268 H 1219.58 5.52902 3.52107 0
M  V30 13269 H 1219.1 4.06529 4.41015 0
M  V30 13270 H 1220.78 4.65359 4.495 0
M  V30 13271 N 1220.91 -1.05686 1.16912 0
M  V30 13272 C 1221.86 -2.15417 0.877404 0
M  V30 13273 C 1222.85 -1.6868 -0.155986 0
M  V30 13274 O 1224.06 -1.79998 -0.00938156 0
M  V30 13275 H 1220.43 -0.70332 0.266168 0
M  V30 13276 H 1222.4 -2.37228 1.81012 0
M  V30 13277 C 1221.15 -3.45372 0.401696 0
M  V30 13278 H 1220.48 -3.81732 1.18832 0
M  V30 13279 H 1221.92 -4.2334 0.236418 0
M  V30 13280 C 1220.38 -3.25209 -0.87981 0
M  V30 13281 O 1220.91 -3.51322 -1.94771 0
M  V30 13282 N 1219.11 -2.78614 -0.825997 0
M  V30 13283 H 1218.66 -2.57564 0.0432439 0
M  V30 13284 H 1218.62 -2.65503 -1.68391 0
M  V30 13285 N 1222.39 -0.968567 -1.24324 0
M  V30 13286 C 1223.63 -0.631863 -1.92705 0
M  V30 13287 C 1223.97 0.83096 -1.75524 0
M  V30 13288 O 1223.24 1.59795 -1.10887 0
M  V30 13289 C 1223.53 -1.00845 -3.45691 0
M  V30 13290 C 1223.38 -2.52803 -3.72036 0
M  V30 13291 C 1224.7 -0.543647 -4.36729 0
M  V30 13292 H 1221.82 -0.231027 -0.699854 0
M  V30 13293 H 1224.46 -1.20773 -1.46676 0
M  V30 13294 H 1222.61 -0.518434 -3.85025 0
M  V30 13295 H 1224.28 -3.09289 -3.42255 0
M  V30 13296 H 1222.52 -2.95963 -3.17157 0
M  V30 13297 H 1223.19 -2.74203 -4.79079 0
M  V30 13298 H 1225.67 -0.964182 -4.04775 0
M  V30 13299 H 1224.55 -0.8357 -5.42501 0
M  V30 13300 H 1224.81 0.556256 -4.38587 0
M  V30 13301 N 1223.87 1.39211 -0.738786 0
M  V30 13302 C 1225.12 1.99673 -0.285254 0
M  V30 13303 C 1225.43 1.59297 1.13507 0
M  V30 13304 O 1226.63 2.12622 1.68832 0
M  V30 13305 C 1225.09 3.5696 -0.45906 0
M  V30 13306 C 1224.7 4.06297 -1.88751 0
M  V30 13307 C 1226.44 4.24446 -0.0674954 0
M  V30 13308 C 1224.35 5.56171 -2.01067 0
M  V30 13309 H 1223.28 0.746945 -0.102901 0
M  V30 13310 H 1225.93 1.59163 -0.913209 0
M  V30 13311 H 1224.31 3.95285 0.23785 0
M  V30 13312 H 1225.49 3.79297 -2.61669 0
M  V30 13313 H 1223.8 3.51486 -2.23264 0
M  V30 13314 H 1226.4 5.34521 -0.138475 0
M  V30 13315 H 1226.74 4.04653 0.977823 0
M  V30 13316 H 1227.27 3.91309 -0.715704 0
M  V30 13317 H 1224.01 5.80849 -3.03801 0
M  V30 13318 H 1223.53 5.84961 -1.32591 0
M  V30 13319 H 1225.21 6.21642 -1.79362 0
M  V30 13320 N 1225.34 0.486708 1.49896 0
M  V30 13321 C 1226.57 -0.0622999 2.07306 0
M  V30 13322 C 1226.99 -1.31353 1.3464 0
M  V30 13323 O 1226.35 -1.76861 0.398752 0
M  V30 13324 C 1226.4 -0.313481 3.59235 0
M  V30 13325 O 1225.5 -1.39101 3.88233 0
M  V30 13326 H 1224.85 0.0198885 0.663702 0
M  V30 13327 H 1227.38 0.682232 1.92891 0
M  V30 13328 H 1227.39 -0.549302 4.04285 0
M  V30 13329 H 1226.06 0.600767 4.11538 0
M  V30 13330 H 1224.64 -1.14127 3.55006 0
M  V30 13331 N 1226.82 -1.56058 0.219941 0
M  V30 13332 C 1227.77 -2.21585 -0.707321 0
M  V30 13333 C 1228.77 -1.19473 -1.20094 0
M  V30 13334 O 1229.97 -1.37557 -1.16095 0
M  V30 13335 H 1226.35 -0.710447 -0.246515 0
M  V30 13336 H 1228.32 -2.98111 -0.131214 0
M  V30 13337 C 1227.07 -2.90841 -1.90544 0
M  V30 13338 H 1226.39 -3.6917 -1.53472 0
M  V30 13339 H 1227.83 -3.40092 -2.53206 0
M  V30 13340 C 1226.29 -1.93223 -2.75983 0
M  V30 13341 O 1226.82 -1.44815 -3.74689 0
M  V30 13342 N 1225.02 -1.60907 -2.41986 0
M  V30 13343 H 1224.57 -2.00467 -1.61774 0
M  V30 13344 H 1224.53 -0.958534 -2.99432 0
M  V30 13345 N 1228.3 0.053464 -1.57509 0
M  V30 13346 C 1229.55 0.748016 -1.87317 0
M  V30 13347 C 1229.86 1.77805 -0.815161 0
M  V30 13348 O 1231.07 2.52347 -1.00167 0
M  V30 13349 C 1229.53 1.38137 -3.32334 0
M  V30 13350 C 1229.13 0.388958 -4.46308 0
M  V30 13351 C 1230.88 2.05722 -3.7132 0
M  V30 13352 C 1228.78 1.02927 -5.82374 0
M  V30 13353 H 1227.71 0.283123 -0.698826 0
M  V30 13354 H 1230.37 0.00170723 -1.835 0
M  V30 13355 H 1228.75 2.17656 -3.3082 0
M  V30 13356 H 1229.92 -0.377752 -4.59249 0
M  V30 13357 H 1228.24 -0.183447 -4.15996 0
M  V30 13358 H 1230.83 2.54437 -4.70283 0
M  V30 13359 H 1231.18 2.86475 -3.02056 0
M  V30 13360 H 1231.71 1.3301 -3.74904 0
M  V30 13361 H 1228.45 0.261674 -6.54977 0
M  V30 13362 H 1227.97 1.7664 -5.732 0
M  V30 13363 H 1229.65 1.54378 -6.28312 0
M  V30 13364 N 1229.78 1.54207 0.325255 0
M  V30 13365 C 1231.06 1.6298 1.08153 0
M  V30 13366 C 1231.44 0.462583 2.05969 0
M  V30 13367 O 1230.78 -0.543323 2.21947 0
M  V30 13368 C 1230.99 2.999 1.78497 0
M  V30 13369 C 1232.34 3.55888 2.3158 0
M  V30 13370 O 1233.37 3.02194 1.88566 0
M  V30 13371 O 1232.23 4.49847 3.10322 0
M  V30 13372 H 1229.32 0.659923 0.498429 0
M  V30 13373 H 1231.87 1.66553 0.325282 0
M  V30 13374 H 1230.64 3.7629 1.07338 0
M  V30 13375 H 1230.26 2.99997 2.60936 0
M  V30 13376 N 1231.26 -0.58723 1.46251 0
M  V30 13377 C 1232.49 -1.37174 1.5489 0
M  V30 13378 C 1232.9 -1.87857 0.188445 0
M  V30 13379 O 1232.26 -1.63365 -0.813509 0
M  V30 13380 C 1232.31 -2.56237 2.55 0
M  V30 13381 O 1232.03 -2.07655 3.8576 0
M  V30 13382 C 1233.53 -3.48846 2.73535 0
M  V30 13383 H 1230.75 -0.419211 0.523931 0
M  V30 13384 H 1233.29 -0.714307 1.91619 0
M  V30 13385 H 1231.45 -3.1798 2.21287 0
M  V30 13386 H 1231.86 -2.85161 4.40208 0
M  V30 13387 H 1233.34 -4.2888 3.47514 0
M  V30 13388 H 1233.81 -4.00493 1.80282 0
M  V30 13389 H 1234.42 -2.92942 3.08326 0
M  V30 13390 N 1232.74 -1.33881 -0.831482 0
M  V30 13391 C 1233.67 -1.20587 -1.94914 0
M  V30 13392 C 1234.68 -0.135026 -1.62239 0
M  V30 13393 O 1235.87 -0.386116 -1.74274 0
M  V30 13394 C 1232.97 -0.828712 -3.28612 0
M  V30 13395 C 1232.14 -1.99275 -3.89369 0
M  V30 13396 C 1231.2 -1.59537 -5.01432 0
M  V30 13397 O 1230.23 -2.31076 -5.20185 0
M  V30 13398 N 1231.43 -0.5046 -5.78303 0
M  V30 13399 H 1234.19 -2.16869 -2.06852 0
M  V30 13400 H 1231.76 -1.26723 -1.00761 0
M  V30 13401 H 1233.75 -0.544827 -4.01016 0
M  V30 13402 H 1232.32 0.0436534 -3.1257 0
M  V30 13403 H 1231.54 -2.44185 -3.09463 0
M  V30 13404 H 1232.83 -2.77145 -4.26694 0
M  V30 13405 H 1232.22 0.0903105 -5.65628 0
M  V30 13406 H 1230.78 -0.280415 -6.51197 0
M  V30 13407 N 1234.21 1.05064 -1.1747 0
M  V30 13408 C 1235.46 1.77481 -0.958301 0
M  V30 13409 C 1235.78 1.88725 0.51401 0
M  V30 13410 O 1236.98 2.57895 0.848657 0
M  V30 13411 C 1235.44 3.19048 -1.66543 0
M  V30 13412 C 1235.05 3.1593 -3.17636 0
M  V30 13413 C 1236.79 3.95912 -1.53146 0
M  V30 13414 C 1234.7 4.52293 -3.81032 0
M  V30 13415 H 1233.63 0.665247 -0.354913 0
M  V30 13416 H 1236.28 1.17751 -1.40737 0
M  V30 13417 H 1234.66 3.79113 -1.1441 0
M  V30 13418 H 1235.83 2.65375 -3.76713 0
M  V30 13419 H 1234.15 2.52564 -3.31059 0
M  V30 13420 H 1236.75 4.96737 -1.9788 0
M  V30 13421 H 1237.09 4.13498 -0.482203 0
M  V30 13422 H 1237.62 3.42399 -2.02504 0
M  V30 13423 H 1234.36 4.39913 -4.8596 0
M  V30 13424 H 1233.88 5.02991 -3.26741 0
M  V30 13425 H 1235.56 5.2123 -3.83312 0
M  V30 13426 N 1235.69 0.975146 1.23809 0
M  V30 13427 C 1236.94 0.642074 1.92367 0
M  V30 13428 C 1237.27 -0.82164 1.75962 0
M  V30 13429 O 1236.55 -1.59205 1.11732 0
M  V30 13430 C 1236.83 1.02677 3.45151 0
M  V30 13431 C 1236.68 2.54773 3.7069 0
M  V30 13432 C 1238 0.5668 4.36435 0
M  V30 13433 H 1235.12 0.234735 0.698619 0
M  V30 13434 H 1237.76 1.21549 1.46034 0
M  V30 13435 H 1235.91 0.538846 3.84745 0
M  V30 13436 H 1237.58 3.11099 3.4061 0
M  V30 13437 H 1235.83 2.97641 3.15583 0
M  V30 13438 H 1236.5 2.7674 4.77618 0
M  V30 13439 H 1238.97 0.985635 4.04258 0
M  V30 13440 H 1237.85 0.864458 5.4205 0
M  V30 13441 H 1238.11 -0.532989 4.38875 0
M  V30 13442 N 1237.17 -1.38817 0.746158 0
M  V30 13443 C 1238.08 -2.34316 0.115386 0
M  V30 13444 C 1239.1 -1.58892 -0.709179 0
M  V30 13445 O 1240.27 -1.91126 -0.635059 0
M  V30 13446 C 1237.34 -3.37977 -0.772821 0
M  V30 13447 C 1236.4 -4.2925 0.0652679 0
M  V30 13448 C 1235.63 -5.2796 -0.78064 0
M  V30 13449 O 1235.85 -5.33474 -2.01896 0
M  V30 13450 O 1234.79 -6.01556 -0.20338 0
M  V30 13451 H 1238.61 -2.89937 0.903887 0
M  V30 13452 H 1236.2 -1.40536 0.506958 0
M  V30 13453 H 1238.08 -4.01468 -1.28068 0
M  V30 13454 H 1236.76 -2.84723 -1.53994 0
M  V30 13455 H 1235.66 -3.68945 0.61891 0
M  V30 13456 H 1237 -4.85739 0.794871 0
M  V30 13457 N 1238.65 -0.49465 -1.49636 0
M  V30 13458 C 1239.56 0.291881 -2.32777 0
M  V30 13459 C 1240.57 0.973468 -1.44221 0
M  V30 13460 O 1241.75 0.956252 -1.77251 0
M  V30 13461 C 1238.81 1.34609 -3.19502 0
M  V30 13462 C 1237.88 0.678611 -4.23903 0
M  V30 13463 C 1237.11 1.68259 -5.06483 0
M  V30 13464 O 1237.33 2.91176 -4.90482 0
M  V30 13465 O 1236.27 1.24141 -5.88959 0
M  V30 13466 H 1240.09 -0.388459 -3.01205 0
M  V30 13467 H 1237.68 -0.256086 -1.47189 0
M  V30 13468 H 1239.56 1.95617 -3.73245 0
M  V30 13469 H 1238.23 2.00947 -2.53775 0
M  V30 13470 H 1237.14 0.0289541 -3.74089 0
M  V30 13471 H 1238.47 0.0577817 -4.92166 0
M  V30 13472 N 1240.13 1.55939 -0.228214 0
M  V30 13473 C 1241.54 1.59094 0.12704 0
M  V30 13474 C 1241.74 1.24514 1.58425 0
M  V30 13475 O 1240.8 0.983544 2.32557 0
M  V30 13476 C 1242.11 2.99999 -0.205268 0
M  V30 13477 C 1243.66 3.1265 -0.148046 0
M  V30 13478 C 1244.13 4.55743 -0.454122 0
M  V30 13479 N 1245.62 4.61435 -0.403937 0
M  V30 13480 C 1246.36 5.70101 -0.614173 0
M  V30 13481 N 1245.86 6.87104 -0.88654 0
M  V30 13482 N 1247.65 5.5944 -0.546153 0
M  V30 13483 H 1239.8 1.7669 -1.17874 0
M  V30 13484 H 1242.06 0.821599 -0.472947 0
M  V30 13485 H 1241.77 3.29976 -1.21692 0
M  V30 13486 H 1241.64 3.74177 0.476573 0
M  V30 13487 H 1244.03 2.82465 0.854255 0
M  V30 13488 H 1244.11 2.40786 -0.863462 0
M  V30 13489 H 1243.75 4.86646 -1.45389 0
M  V30 13490 H 1243.68 5.25841 0.282561 0
M  V30 13491 H 1246.18 3.77363 -0.201388 0
M  V30 13492 H 1246.49 7.65839 -1.03488 0
M  V30 13493 H 1244.83 6.88833 -0.923808 0
M  V30 13494 H 1248.02 4.6691 -0.33355 0
M  V30 13495 H 1248.2 6.44061 -0.713402 0
M  V30 13496 N 1241.6 -0.0451101 1.57535 0
M  V30 13497 C 1242.85 -0.738072 1.87711 0
M  V30 13498 C 1243.17 -1.7737 0.824579 0
M  V30 13499 O 1244.37 -2.51812 1.01503 0
M  V30 13500 C 1242.83 -1.36373 3.33062 0
M  V30 13501 C 1242.44 -0.365283 4.46508 0
M  V30 13502 C 1244.18 -2.0375 3.72406 0
M  V30 13503 C 1242.09 -0.998371 5.82912 0
M  V30 13504 H 1241.02 -0.279413 0.700317 0
M  V30 13505 H 1243.67 0.00802425 1.83498 0
M  V30 13506 H 1242.05 -2.15899 3.31969 0
M  V30 13507 H 1243.22 0.402102 4.59042 0
M  V30 13508 H 1241.54 0.205505 4.15893 0
M  V30 13509 H 1244.14 -2.51939 4.71625 0
M  V30 13510 H 1244.48 -2.84869 3.03571 0
M  V30 13511 H 1245.01 -1.3102 3.75604 0
M  V30 13512 H 1241.75 -0.226935 6.55107 0
M  V30 13513 H 1241.27 -1.73598 5.74129 0
M  V30 13514 H 1242.95 -1.51044 6.29122 0
M  V30 13515 N 1243.08 -1.54377 -0.317073 0
M  V30 13516 C 1243.99 -1.87247 -1.41335 0
M  V30 13517 C 1245.01 -0.765017 -1.5628 0
M  V30 13518 O 1246.18 -1.05994 -1.71252 0
M  V30 13519 C 1243.25 -2.0988 -2.75955 0
M  V30 13520 C 1242.31 -3.33658 -2.70131 0
M  V30 13521 C 1241.54 -3.55202 -3.9833 0
M  V30 13522 O 1241.77 -2.80061 -4.96913 0
M  V30 13523 O 1240.7 -4.48693 -4.01196 0
M  V30 13524 H 1244.53 -2.80481 -1.16465 0
M  V30 13525 H 1242.11 -1.40364 -0.511687 0
M  V30 13526 H 1243.99 -2.2606 -3.55633 0
M  V30 13527 H 1242.67 -1.19834 -3.00702 0
M  V30 13528 H 1241.58 -3.22857 -1.88981 0
M  V30 13529 H 1242.91 -4.23782 -2.50338 0
M  V30 13530 N 1244.56 0.579466 -1.4656 0
M  V30 13531 C 1245.47 1.71609 -1.59961 0
M  V30 13532 C 1246.49 1.67162 -0.483002 0
M  V30 13533 O 1247.66 1.87012 -0.747561 0
M  V30 13534 C 1244.73 3.08114 -1.58954 0
M  V30 13535 C 1243.79 3.238 -2.81872 0
M  V30 13536 C 1243.02 4.53794 -2.80904 0
M  V30 13537 O 1243.24 5.37884 -1.89835 0
M  V30 13538 O 1242.18 4.72796 -3.72488 0
M  V30 13539 H 1246 1.6325 -2.56092 0
M  V30 13540 H 1243.59 0.746891 -1.2939 0
M  V30 13541 H 1245.47 3.8939 -1.611 0
M  V30 13542 H 1244.15 3.16903 -0.65984 0
M  V30 13543 H 1243.05 2.42006 -2.85279 0
M  V30 13544 H 1244.39 3.19904 -3.74062 0
M  V30 13545 N 1246.04 1.3432 0.824371 0
M  V30 13546 C 1247 1.25672 1.91675 0
M  V30 13547 C 1248 0.172269 1.59875 0
M  V30 13548 O 1249.19 0.424794 1.68941 0
M  V30 13549 C 1246.32 0.939928 3.27686 0
M  V30 13550 H 1247.52 2.22785 2.00766 0
M  V30 13551 H 1245.07 1.18587 1.01817 0
M  V30 13552 H 1245.8 -0.0280898 3.24288 0
M  V30 13553 H 1245.59 1.72432 3.5215 0
M  V30 13554 H 1247.08 0.904553 4.07686 0
M  V30 13555 N 1247.52 -1.0444 1.18026 0
M  V30 13556 C 1248.46 -2.12365 0.903865 0
M  V30 13557 C 1249.43 -1.65373 -0.155252 0
M  V30 13558 O 1250.62 -1.90793 -0.016419 0
M  V30 13559 C 1247.76 -3.4239 0.431603 0
M  V30 13560 C 1246.87 -4.03016 1.55571 0
M  V30 13561 C 1246.01 -5.20988 1.03655 0
M  V30 13562 C 1245.05 -5.73636 2.1356 0
M  V30 13563 N 1244.18 -6.82901 1.63066 0
M  V30 13564 H 1249.02 -2.35346 1.82802 0
M  V30 13565 H 1246.56 -1.15447 0.911618 0
M  V30 13566 H 1248.52 -4.16967 0.139296 0
M  V30 13567 H 1247.15 -3.19569 -0.455576 0
M  V30 13568 H 1246.2 -3.25803 1.96358 0
M  V30 13569 H 1247.51 -4.38122 2.38434 0
M  V30 13570 H 1246.67 -6.02665 0.698546 0
M  V30 13571 H 1245.4 -4.87377 0.177457 0
M  V30 13572 H 1244.41 -4.90583 2.4821 0
M  V30 13573 H 1245.63 -6.09293 2.99899 0
M  V30 13574 H 1243.58 -6.51172 0.794394 0
M  V30 13575 H 1243.5 -7.1705 2.3953 0
M  V30 13576 H 1244.77 -7.68211 1.32181 0
M  V30 13577 N 1248.99 -0.981699 -1.2329 0
M  V30 13578 C 1249.94 -0.515432 -2.26817 0
M  V30 13579 C 1250.94 0.428204 -1.63899 0
M  V30 13580 O 1252.14 0.301954 -1.77449 0
M  V30 13581 H 1248.52 -0.148257 -0.737241 0
M  V30 13582 H 1250.49 -1.40027 -2.63505 0
M  V30 13583 C 1249.24 0.165266 -3.47307 0
M  V30 13584 H 1248.56 -0.55176 -3.95974 0
M  V30 13585 H 1250 0.45513 -4.2155 0
M  V30 13586 C 1248.46 1.39693 -3.06574 0
M  V30 13587 O 1248.99 2.49308 -3.14974 0
M  V30 13588 N 1247.2 1.26806 -2.61474 0
M  V30 13589 H 1246.74 0.376161 -2.54839 0
M  V30 13590 H 1246.7 2.09324 -2.34587 0
M  V30 13591 N 1250.47 1.3842 -0.753509 0
M  V30 13592 C 1251.4 2.33073 -0.141198 0
M  V30 13593 C 1252.38 1.54863 0.70367 0
M  V30 13594 O 1253.57 1.8318 0.644872 0
M  V30 13595 C 1250.7 3.39043 0.752802 0
M  V30 13596 C 1249.65 4.27999 0.0106692 0
M  V30 13597 C 1248.98 5.24824 1.02291 0
M  V30 13598 C 1250.28 5.09308 -1.15768 0
M  V30 13599 H 1251.97 2.84528 -0.93188 0
M  V30 13600 H 1249.52 1.36802 -0.449567 0
M  V30 13601 H 1251.47 4.04224 1.19083 0
M  V30 13602 H 1250.2 2.8607 1.57581 0
M  V30 13603 H 1248.85 3.64323 -0.407939 0
M  V30 13604 H 1248.5 4.68139 1.83998 0
M  V30 13605 H 1248.2 5.85196 0.53101 0
M  V30 13606 H 1249.73 5.92882 1.46026 0
M  V30 13607 H 1251.14 5.6773 -0.797203 0
M  V30 13608 H 1249.54 5.78914 -1.58044 0
M  V30 13609 H 1250.61 4.43051 -1.97062 0
M  V30 13610 N 1251.95 0.502579 1.49372 0
M  V30 13611 C 1253.18 -0.0381429 2.06865 0
M  V30 13612 C 1253.59 -1.30674 1.36271 0
M  V30 13613 O 1252.95 -1.77078 0.441532 0
M  V30 13614 C 1253 -0.294068 3.60302 0
M  V30 13615 O 1252.72 0.924244 4.2824 0
M  V30 13616 C 1254.22 -0.878253 4.34513 0
M  V30 13617 H 1251.44 0.0211756 0.670666 0
M  V30 13618 H 1253.99 0.700387 1.92132 0
M  V30 13619 H 1252.14 -0.982583 3.74732 0
M  V30 13620 H 1252.56 0.688062 5.19967 0
M  V30 13621 H 1254.03 -1.0069 5.42739 0
M  V30 13622 H 1254.51 -1.87643 3.97098 0
M  V30 13623 H 1255.11 -0.227157 4.24693 0
M  V30 13624 N 1253.43 -1.55816 0.23648 0
M  V30 13625 C 1254.65 -2.03534 -0.398575 0
M  V30 13626 C 1255.08 -1.11488 -1.51499 0
M  V30 13627 O 1254.44 -0.105848 -1.80991 0
M  V30 13628 C 1254.48 -3.49356 -0.893467 0
M  V30 13629 O 1253.59 -3.60446 -2.00381 0
M  V30 13630 H 1252.93 -0.658102 -0.0883021 0
M  V30 13631 H 1255.46 -2.01417 0.359488 0
M  V30 13632 H 1255.47 -3.89972 -1.19941 0
M  V30 13633 H 1254.14 -4.1583 -0.0764388 0
M  V30 13634 H 1252.72 -3.31723 -1.70336 0
M  V30 13635 N 1254.91 0.036755 -1.57557 0
M  V30 13636 C 1256.18 0.764087 -1.80059 0
M  V30 13637 C 1256.56 1.93983 -0.83269 0
M  V30 13638 O 1255.91 2.28148 0.126815 0
M  V30 13639 C 1256.12 1.20433 -3.27562 0
M  V30 13640 C 1257.47 1.6234 -3.9234 0
M  V30 13641 O 1258.49 1.29911 -3.31665 0
M  V30 13642 O 1257.35 2.22504 -4.99154 0
M  V30 13643 H 1254.45 0.368866 -0.74018 0
M  V30 13644 H 1256.99 0.0141254 -1.69694 0
M  V30 13645 H 1255.76 0.364646 -3.89597 0
M  V30 13646 H 1255.39 2.01454 -3.42786 0
M  V30 13647 N 1256.39 1.54543 0.308881 0
M  V30 13648 C 1257.61 1.77753 1.06857 0
M  V30 13649 C 1258.04 0.531616 1.80431 0
M  V30 13650 O 1257.39 -0.517513 1.73757 0
M  V30 13651 C 1257.44 2.97968 2.03094 0
M  V30 13652 O 1256.55 2.70541 3.11257 0
M  V30 13653 H 1255.89 0.588576 0.307368 0
M  V30 13654 H 1258.42 2.01607 0.348703 0
M  V30 13655 H 1258.43 3.25722 2.45702 0
M  V30 13656 H 1257.1 3.88314 1.48948 0
M  V30 13657 H 1255.68 2.53781 2.7322 0
M  V30 13658 N 1257.86 -0.571685 1.46866 0
M  V30 13659 C 1259.11 -1.32574 1.5201 0
M  V30 13660 C 1259.43 -1.94762 0.180838 0
M  V30 13661 O 1260.63 -2.71276 0.110158 0
M  V30 13662 C 1259.09 -2.40331 2.67897 0
M  V30 13663 C 1258.7 -1.84398 4.08291 0
M  V30 13664 C 1260.44 -3.17009 2.82321 0
M  V30 13665 C 1258.35 -2.89849 5.15501 0
M  V30 13666 H 1257.28 -0.498428 0.565761 0
M  V30 13667 H 1259.93 -0.608853 1.73105 0
M  V30 13668 H 1258.31 -3.14869 2.40153 0
M  V30 13669 H 1259.48 -1.16329 4.45875 0
M  V30 13670 H 1257.8 -1.20351 3.98628 0
M  V30 13671 H 1260.4 -3.95729 3.59587 0
M  V30 13672 H 1260.74 -3.70292 1.90236 0
M  V30 13673 H 1261.27 -2.4958 3.09765 0
M  V30 13674 H 1258.01 -2.4144 6.09415 0
M  V30 13675 H 1257.53 -3.56372 4.82451 0
M  V30 13676 H 1259.21 -3.53603 5.41825 0
M  V30 13677 N 1259.34 -1.34755 -0.817236 0
M  V30 13678 C 1260.29 -1.26816 -1.94988 0
M  V30 13679 C 1261.28 -0.165142 -1.68593 0
M  V30 13680 O 1262.49 -0.330469 -1.7694 0
M  V30 13681 H 1258.86 -0.394113 -0.640452 0
M  V30 13682 H 1260.84 -2.22528 -1.98806 0
M  V30 13683 C 1259.58 -1.04625 -3.31586 0
M  V30 13684 H 1258.91 -1.88735 -3.52447 0
M  V30 13685 H 1260.35 -1.03108 -4.11272 0
M  V30 13686 C 1258.81 0.250283 -3.35969 0
M  V30 13687 O 1259.34 1.24972 -3.81765 0
M  V30 13688 N 1257.54 0.285369 -2.89195 0
M  V30 13689 H 1257.09 -0.528528 -2.5212 0
M  V30 13690 H 1257.05 1.15261 -2.9251 0
M  V30 13691 N 1260.82 1.03812 -1.18578 0
M  V30 13692 C 1262.05 1.8044 -1.00623 0
M  V30 13693 C 1262.46 1.83808 0.448451 0
M  V30 13694 O 1261.8 1.27417 1.32328 0
M  V30 13695 C 1261.86 3.27266 -1.48785 0
M  V30 13696 C 1261.53 3.47553 -2.96742 0
M  V30 13697 C 1262.52 3.38533 -3.94578 0
M  V30 13698 C 1260.21 3.74067 -3.3523 0
M  V30 13699 C 1262.2 3.55735 -5.28896 0
M  V30 13700 C 1259.89 3.90916 -4.6971 0
M  V30 13701 C 1260.89 3.81751 -5.66352 0
M  V30 13702 O 1260.58 3.98115 -6.98398 0
M  V30 13703 H 1260.31 0.574996 -0.355465 0
M  V30 13704 H 1262.86 1.31708 -1.57614 0
M  V30 13705 H 1261.09 3.76979 -0.861613 0
M  V30 13706 H 1262.78 3.85461 -1.27181 0
M  V30 13707 H 1263.55 3.18011 -3.66189 0
M  V30 13708 H 1259.43 3.80298 -2.60566 0
M  V30 13709 H 1262.97 3.48498 -6.04314 0
M  V30 13710 H 1258.87 4.10934 -4.97799 0
M  V30 13711 H 1259.63 4.1526 -7.05338 0
M  V30 13712 N 1262.3 0.988223 1.22768 0
M  V30 13713 C 1263.55 0.656941 1.90702 0
M  V30 13714 C 1263.86 -0.814058 1.77855 0
M  V30 13715 O 1265.07 -1.25673 2.40663 0
M  V30 13716 C 1263.52 1.12445 3.41883 0
M  V30 13717 C 1263.13 2.62034 3.63376 0
M  V30 13718 C 1264.87 0.867277 4.15546 0
M  V30 13719 C 1262.78 3.02412 5.08233 0
M  V30 13720 H 1261.71 0.242012 0.714105 0
M  V30 13721 H 1264.36 1.19716 1.39069 0
M  V30 13722 H 1262.74 0.512386 3.92671 0
M  V30 13723 H 1263.92 3.28546 3.23101 0
M  V30 13724 H 1262.23 2.85583 3.03037 0
M  V30 13725 H 1264.83 1.14471 5.22303 0
M  V30 13726 H 1265.17 -0.196611 4.15835 0
M  V30 13727 H 1265.71 1.4413 3.70771 0
M  V30 13728 H 1262.44 4.07957 5.1308 0
M  V30 13729 H 1261.96 2.406 5.49429 0
M  V30 13730 H 1263.64 2.93452 5.76624 0
M  V30 13731 N 1263.78 -1.38018 0.760839 0
M  V30 13732 C 1264.72 -2.30387 0.13796 0
M  V30 13733 C 1265.69 -1.50548 -0.701754 0
M  V30 13734 O 1266.88 -1.79154 -0.656381 0
M  V30 13735 C 1264.02 -3.36993 -0.743642 0
M  V30 13736 C 1263.13 -4.31856 0.111489 0
M  V30 13737 C 1262.27 -5.25534 -0.773796 0
M  V30 13738 C 1261.3 -6.12042 0.0845311 0
M  V30 13739 N 1260.44 -6.97995 -0.758118 0
M  V30 13740 H 1265.28 -2.83077 0.931212 0
M  V30 13741 H 1262.82 -1.39361 0.470833 0
M  V30 13742 H 1264.78 -3.97417 -1.26948 0
M  V30 13743 H 1263.41 -2.85695 -1.50261 0
M  V30 13744 H 1262.46 -3.72832 0.755031 0
M  V30 13745 H 1263.77 -4.92758 0.774042 0
M  V30 13746 H 1262.92 -5.9111 -1.36653 0
M  V30 13747 H 1261.66 -4.65017 -1.47006 0
M  V30 13748 H 1260.67 -5.45455 0.689883 0
M  V30 13749 H 1261.89 -6.74629 0.777966 0
M  V30 13750 H 1259.84 -6.40018 -1.4392 0
M  V30 13751 H 1259.76 -7.55846 -0.152623 0
M  V30 13752 H 1261.02 -7.67973 -1.33559 0
M  V30 13753 N 1265.25 -0.510493 -1.49103 0
M  V30 13754 C 1266.53 0.0941122 -1.95373 0
M  V30 13755 C 1266.91 1.53207 -1.45227 0
M  V30 13756 O 1266.26 2.18452 -0.670161 0
M  V30 13757 C 1266.47 -0.00302507 -3.49 0
M  V30 13758 C 1267.82 0.166117 -4.24275 0
M  V30 13759 O 1268.84 0.0717097 -3.56128 0
M  V30 13760 O 1267.7 0.361155 -5.45305 0
M  V30 13761 H 1264.79 0.0900741 -0.82208 0
M  V30 13762 H 1267.34 -0.573707 -1.59708 0
M  V30 13763 H 1266.11 -1.00545 -3.78162 0
M  V30 13764 H 1265.73 0.704518 -3.91308 0
M  V30 13765 N 1266.73 1.55688 -0.24474 0
M  V30 13766 C 1267.64 2.24933 0.666519 0
M  V30 13767 C 1268.66 1.26471 1.19503 0
M  V30 13768 O 1269.83 1.59342 1.23176 0
M  V30 13769 C 1266.9 2.9336 1.84772 0
M  V30 13770 C 1265.96 4.07225 1.35889 0
M  V30 13771 C 1265.19 4.72381 2.48379 0
M  V30 13772 O 1265.42 4.36605 3.67059 0
M  V30 13773 O 1264.35 5.60933 2.18261 0
M  V30 13774 H 1268.18 3.03513 0.106507 0
M  V30 13775 H 1265.76 1.49394 -0.0133309 0
M  V30 13776 H 1267.64 3.36468 2.53708 0
M  V30 13777 H 1266.32 2.17721 2.39539 0
M  V30 13778 H 1265.22 3.68639 0.636881 0
M  V30 13779 H 1266.56 4.84676 0.857333 0
M  V30 13780 N 1268.21 -0.0283989 1.57574 0
M  V30 13781 C 1269.46 -0.719077 1.89303 0
M  V30 13782 C 1269.78 -1.75325 0.84211 0
M  V30 13783 O 1269.04 -1.95071 -0.15683 0
M  V30 13784 C 1269.34 -1.4247 3.27776 0
M  V30 13785 C 1269 -0.526442 4.47816 0
M  V30 13786 C 1267.67 -0.279038 4.8039 0
M  V30 13787 C 1270.02 0.0937038 5.21116 0
M  V30 13788 C 1267.35 0.597277 5.83652 0
M  V30 13789 C 1269.7 0.957725 6.25308 0
M  V30 13790 C 1268.36 1.21458 6.56357 0
M  V30 13791 H 1267.63 -0.263129 0.692708 0
M  V30 13792 H 1270.28 0.0210252 1.91488 0
M  V30 13793 H 1268.58 -2.23813 3.21582 0
M  V30 13794 H 1270.28 -1.96466 3.49574 0
M  V30 13795 H 1266.87 -0.729426 4.22347 0
M  V30 13796 H 1271.06 -0.084469 4.96228 0
M  V30 13797 H 1266.31 0.804582 6.06083 0
M  V30 13798 H 1270.49 1.44476 6.81249 0
M  V30 13799 H 1268.11 1.89534 7.36193 0
M  V30 13800 N 1269.69 -1.54705 -0.300681 0
M  V30 13801 C 1270.63 -1.85678 -1.37084 0
M  V30 13802 C 1271.6 -0.70573 -1.50362 0
M  V30 13803 O 1272.79 -0.954385 -1.65215 0
M  V30 13804 C 1269.93 -2.10995 -2.73084 0
M  V30 13805 C 1269.04 -3.38621 -2.68254 0
M  V30 13806 C 1268.18 -3.53779 -3.9625 0
M  V30 13807 C 1267.22 -4.75195 -3.85818 0
M  V30 13808 N 1266.35 -4.87157 -5.05591 0
M  V30 13809 H 1271.19 -2.76967 -1.09971 0
M  V30 13810 H 1268.73 -1.37147 -0.531887 0
M  V30 13811 H 1270.69 -2.23669 -3.52176 0
M  V30 13812 H 1269.32 -1.22973 -2.98458 0
M  V30 13813 H 1268.37 -3.34566 -1.81025 0
M  V30 13814 H 1269.68 -4.27834 -2.56436 0
M  V30 13815 H 1268.84 -3.66119 -4.83779 0
M  V30 13816 H 1267.58 -2.62699 -4.10902 0
M  V30 13817 H 1266.58 -4.62888 -2.96673 0
M  V30 13818 H 1267.81 -5.67683 -3.72711 0
M  V30 13819 H 1265.75 -3.99001 -5.20706 0
M  V30 13820 H 1265.67 -5.70372 -4.96197 0
M  V30 13821 H 1266.94 -5.03854 -5.9477 0
M  V30 13822 N 1271.17 0.563888 -1.47167 0
M  V30 13823 C 1272.1 1.68137 -1.62025 0
M  V30 13824 C 1273.08 1.63481 -0.469899 0
M  V30 13825 O 1274.26 1.81206 -0.698432 0
M  V30 13826 C 1271.39 3.06779 -1.62801 0
M  V30 13827 C 1270.35 3.26278 -2.76996 0
M  V30 13828 C 1269.67 4.65638 -2.62841 0
M  V30 13829 C 1270.97 3.12295 -4.18651 0
M  V30 13830 H 1272.67 1.55958 -2.55573 0
M  V30 13831 H 1270.21 0.74887 -1.22996 0
M  V30 13832 H 1272.17 3.84795 -1.71787 0
M  V30 13833 H 1270.89 3.19901 -0.658097 0
M  V30 13834 H 1269.55 2.50668 -2.67509 0
M  V30 13835 H 1269.2 4.75551 -1.63892 0
M  V30 13836 H 1268.9 4.79635 -3.39447 0
M  V30 13837 H 1270.42 5.45798 -2.73746 0
M  V30 13838 H 1271.83 3.80136 -4.2915 0
M  V30 13839 H 1270.23 3.37805 -4.95992 0
M  V30 13840 H 1271.3 2.09126 -4.37486 0
M  V30 13841 N 1272.64 1.35187 0.810078 0
M  V30 13842 C 1273.89 1.27602 1.56207 0
M  V30 13843 C 1274.21 -0.148621 1.95035 0
M  V30 13844 O 1275.41 -0.346721 2.69277 0
M  V30 13845 C 1273.87 2.23759 2.81886 0
M  V30 13846 C 1273.48 3.71549 2.5031 0
M  V30 13847 C 1275.22 2.25109 3.59898 0
M  V30 13848 C 1273.13 4.5954 3.7226 0
M  V30 13849 H 1272.06 0.474078 0.586316 0
M  V30 13850 H 1274.71 1.6043 0.890759 0
M  V30 13851 H 1273.09 1.83898 3.5071 0
M  V30 13852 H 1274.26 4.20025 1.89515 0
M  V30 13853 H 1272.58 3.72773 1.85551 0
M  V30 13854 H 1275.18 2.88066 4.50469 0
M  V30 13855 H 1275.52 1.25387 3.96968 0
M  V30 13856 H 1276.05 2.63481 2.98031 0
M  V30 13857 H 1272.79 5.60246 3.403 0
M  V30 13858 H 1272.31 4.15792 4.32293 0
M  V30 13859 H 1273.99 4.74789 4.39528 0
M  V30 13860 N 1274.12 -1.03182 1.19127 0
M  V30 13861 C 1275.03 -2.14875 0.94159 0
M  V30 13862 C 1276.05 -1.73727 -0.0973872 0
M  V30 13863 O 1277.22 -2.01214 0.0865775 0
M  V30 13864 C 1274.29 -3.43356 0.480366 0
M  V30 13865 C 1273.35 -3.98835 1.58838 0
M  V30 13866 C 1272.58 -5.21183 1.14907 0
M  V30 13867 O 1272.81 -5.70399 0.0114141 0
M  V30 13868 O 1271.74 -5.69423 1.95042 0
M  V30 13869 H 1275.57 -2.38799 1.8764 0
M  V30 13870 H 1273.15 -1.13299 0.973841 0
M  V30 13871 H 1275.03 -4.20763 0.231658 0
M  V30 13872 H 1273.71 -3.20884 -0.426041 0
M  V30 13873 H 1272.62 -3.22776 1.8912 0
M  V30 13874 H 1273.95 -4.25665 2.47123 0
M  V30 13875 N 1275.6 -0.99472 -1.22242 0
M  V30 13876 C 1276.83 -0.689809 -1.95592 0
M  V30 13877 C 1277.25 0.739321 -1.72961 0
M  V30 13878 O 1276.61 1.50563 -1.00997 0
M  V30 13879 C 1276.66 -1.00367 -3.46351 0
M  V30 13880 O 1275.76 -0.103326 -4.12271 0
M  V30 13881 H 1275.1 -0.257997 -0.611828 0
M  V30 13882 H 1277.63 -1.33219 -1.55286 0
M  V30 13883 H 1277.64 -0.946259 -3.96875 0
M  V30 13884 H 1276.32 -2.04504 -3.62148 0
M  V30 13885 H 1274.89 -0.216374 -3.72272 0
M  V30 13886 N 1277.08 1.37613 -0.768148 0
M  V30 13887 C 1278.33 1.99023 -0.327543 0
M  V30 13888 C 1278.64 1.61669 1.10103 0
M  V30 13889 O 1279.85 2.16155 1.64284 0
M  V30 13890 C 1278.3 3.55906 -0.534674 0
M  V30 13891 C 1277.91 4.02201 -1.97327 0
M  V30 13892 C 1279.65 4.24208 -0.157512 0
M  V30 13893 C 1277.56 5.51781 -2.12819 0
M  V30 13894 H 1276.49 0.744595 -0.118722 0
M  V30 13895 H 1279.14 1.5719 -0.946764 0
M  V30 13896 H 1277.52 3.95701 0.153951 0
M  V30 13897 H 1278.7 3.73661 -2.69655 0
M  V30 13898 H 1277.01 3.46671 -2.30669 0
M  V30 13899 H 1279.61 5.34107 -0.251824 0
M  V30 13900 H 1279.95 4.06636 0.89177 0
M  V30 13901 H 1280.49 3.89703 -0.798546 0
M  V30 13902 H 1277.23 5.74274 -3.16053 0
M  V30 13903 H 1276.75 5.82017 -1.4497 0
M  V30 13904 H 1278.42 6.17697 -1.92508 0
M  V30 13905 N 1278.56 0.518393 1.4883 0
M  V30 13906 C 1279.78 -0.0183131 2.07392 0
M  V30 13907 C 1280.21 -1.28468 1.37396 0
M  V30 13908 O 1279.56 -1.75975 0.436177 0
M  V30 13909 C 1279.61 -0.237211 3.59819 0
M  V30 13910 O 1278.72 -1.30835 3.91096 0
M  V30 13911 H 1278.06 0.0339621 0.663131 0
M  V30 13912 H 1280.59 0.722993 1.914 0
M  V30 13913 H 1280.6 -0.463424 4.0536 0
M  V30 13914 H 1279.27 0.687925 4.10171 0
M  V30 13915 H 1277.85 -1.06571 3.57347 0
M  V30 13916 N 1280.03 -1.55556 0.252993 0
M  V30 13917 C 1281.31 -1.91022 -0.420696 0
M  V30 13918 C 1281.69 -1.17452 -1.75409 0
M  V30 13919 O 1281.04 -0.294 -2.26601 0
M  V30 13920 C 1281.25 -3.441 -0.582787 0
M  V30 13921 C 1282.6 -4.15468 -0.875873 0
M  V30 13922 O 1283.62 -3.49872 -0.668425 0
M  V30 13923 O 1282.48 -5.31508 -1.27128 0
M  V30 13924 H 1279.57 -0.7953 -0.226776 0
M  V30 13925 H 1282.12 -1.67072 0.297511 0
M  V30 13926 H 1280.89 -3.89673 0.356474 0
M  V30 13927 H 1280.52 -3.73933 -1.3513 0
M  V30 13928 N 1281.51 0.0200419 -1.57587 0
M  V30 13929 C 1282.48 1.00255 -2.06111 0
M  V30 13930 C 1283.48 1.28488 -0.966829 0
M  V30 13931 O 1284.67 1.2334 -1.23015 0
M  V30 13932 C 1281.8 2.33296 -2.48567 0
M  V30 13933 H 1282.99 0.583216 -2.94174 0
M  V30 13934 H 1280.54 0.267077 -1.54001 0
M  V30 13935 H 1281.28 2.79959 -1.63687 0
M  V30 13936 H 1281.06 2.14131 -3.28467 0
M  V30 13937 H 1282.55 3.03817 -2.86505 0
M  V30 13938 N 1282.99 1.54862 0.292472 0
M  V30 13939 C 1283.92 1.89406 1.36556 0
M  V30 13940 C 1284.9 0.753838 1.52484 0
M  V30 13941 O 1286.09 1.01031 1.6585 0
M  V30 13942 C 1283.22 2.14888 2.72838 0
M  V30 13943 C 1282.17 3.3073 2.71665 0
M  V30 13944 C 1281.5 3.41648 4.11316 0
M  V30 13945 C 1282.8 4.67622 2.32651 0
M  V30 13946 H 1284.49 2.79284 1.07894 0
M  V30 13947 H 1282.04 1.34377 0.517585 0
M  V30 13948 H 1283.99 2.3764 3.48002 0
M  V30 13949 H 1282.71 1.2179 3.03042 0
M  V30 13950 H 1281.37 3.07915 1.98958 0
M  V30 13951 H 1281.02 2.46051 4.38711 0
M  V30 13952 H 1280.72 4.19522 4.11431 0
M  V30 13953 H 1282.24 3.6667 4.88248 0
M  V30 13954 H 1283.66 4.90048 2.97533 0
M  V30 13955 H 1282.06 5.48272 2.43963 0
M  V30 13956 H 1283.13 4.67762 1.27777 0
M  V30 13957 N 1284.47 -0.556076 1.47464 0
M  V30 13958 C 1285.71 -1.32397 1.55726 0
M  V30 13959 C 1286.07 -1.90793 0.214956 0
M  V30 13960 O 1287.27 -2.68246 0.172429 0
M  V30 13961 C 1285.54 -2.40358 2.64505 0
M  V30 13962 S 1287.1 -3.27219 2.92358 0
M  V30 13963 H 1283.92 -0.450713 0.549889 0
M  V30 13964 H 1286.52 -0.636471 1.84849 0
M  V30 13965 H 1285.23 -1.95893 3.6063 0
M  V30 13966 H 1284.76 -3.13847 2.372 0
M  V30 13967 H 1286.77 -4.39854 2.29659 0
M  V30 13968 N 1285.95 -1.35615 -0.802897 0
M  V30 13969 C 1287.22 -1.19655 -1.54732 0
M  V30 13970 C 1287.6 0.222827 -2.09921 0
M  V30 13971 O 1286.95 1.2268 -1.92774 0
M  V30 13972 C 1287.16 -2.26761 -2.65293 0
M  V30 13973 C 1288.51 -2.62754 -3.33535 0
M  V30 13974 O 1289.53 -2.25702 -2.75567 0
M  V30 13975 O 1288.39 -3.26476 -4.38264 0
M  V30 13976 H 1285.49 -0.465079 -0.683835 0
M  V30 13977 H 1288.03 -1.47307 -0.84254 0
M  V30 13978 H 1286.81 -3.21946 -2.22411 0
M  V30 13979 H 1286.43 -2.00399 -3.43404 0
M  V30 13980 N 1287.43 1.02549 -1.19673 0
M  V30 13981 C 1288.36 2.12794 -0.961289 0
M  V30 13982 C 1289.34 1.69766 0.106575 0
M  V30 13983 O 1290.52 1.94138 -0.0491358 0
M  V30 13984 C 1287.65 3.4364 -0.502868 0
M  V30 13985 C 1286.61 4.00367 -1.51296 0
M  V30 13986 C 1285.93 5.26874 -0.911491 0
M  V30 13987 C 1287.23 4.34782 -2.89416 0
M  V30 13988 H 1288.93 2.32748 -1.88331 0
M  V30 13989 H 1286.47 1.11852 -0.906922 0
M  V30 13990 H 1288.42 4.20141 -0.325436 0
M  V30 13991 H 1287.15 3.23418 0.454764 0
M  V30 13992 H 1285.81 3.25964 -1.67759 0
M  V30 13993 H 1285.46 5.02971 0.0537982 0
M  V30 13994 H 1285.16 5.65791 -1.58602 0
M  V30 13995 H 1286.68 6.06039 -0.74493 0
M  V30 13996 H 1288.09 5.02207 -2.76516 0
M  V30 13997 H 1286.49 4.8479 -3.53693 0
M  V30 13998 H 1287.56 3.43935 -3.41814 0
M  V30 13999 N 1288.9 1.00119 1.21713 0
M  V30 14000 C 1289.85 0.558388 2.23943 0
M  V30 14001 C 1290.82 -0.413576 1.60869 0
M  V30 14002 O 1292.01 -0.316478 1.88157 0
M  V30 14003 C 1289.15 -0.112618 3.44916 0
M  V30 14004 C 1288.26 0.902071 4.22477 0
M  V30 14005 C 1287.39 0.203722 5.30809 0
M  V30 14006 C 1286.43 1.20622 6.00097 0
M  V30 14007 N 1285.57 0.535607 7.00054 0
M  V30 14008 H 1290.41 1.43486 2.61182 0
M  V30 14009 H 1287.95 0.718572 1.28355 0
M  V30 14010 H 1289.9 -0.51865 4.13964 0
M  V30 14011 H 1288.53 -0.952827 3.08417 0
M  V30 14012 H 1287.59 1.42637 3.52645 0
M  V30 14013 H 1288.9 1.66513 4.70186 0
M  V30 14014 H 1288.05 -0.258614 6.06149 0
M  V30 14015 H 1286.79 -0.591773 4.84096 0
M  V30 14016 H 1285.8 1.6791 5.23532 0
M  V30 14017 H 1287.02 2.00273 6.48897 0
M  V30 14018 H 1284.97 -0.2403 6.5556 0
M  V30 14019 H 1284.88 1.23698 7.45812 0
M  V30 14020 H 1286.15 0.0963489 7.7944 0
M  V30 14021 N 1290.38 -1.37203 0.775435 0
M  V30 14022 C 1291.31 -2.28873 0.122374 0
M  V30 14023 C 1292.33 -1.48811 -0.660239 0
M  V30 14024 O 1293.52 -1.7142 -0.497724 0
M  V30 14025 C 1290.62 -3.28062 -0.850212 0
M  V30 14026 C 1289.79 -4.37234 -0.120633 0
M  V30 14027 C 1288.85 -5.16472 -1.00712 0
M  V30 14028 O 1287.87 -5.6726 -0.469528 0
M  V30 14029 N 1289.08 -5.31556 -2.33299 0
M  V30 14030 H 1291.84 -2.85559 0.909741 0
M  V30 14031 H 1289.4 -1.49219 0.628107 0
M  V30 14032 H 1291.39 -3.77956 -1.44678 0
M  V30 14033 H 1289.96 -2.72118 -1.53853 0
M  V30 14034 H 1289.18 -3.88688 0.656879 0
M  V30 14035 H 1290.47 -5.07354 0.383358 0
M  V30 14036 H 1289.87 -4.91883 -2.79406 0
M  V30 14037 H 1288.43 -5.84745 -2.87953 0
M  V30 14038 N 1291.86 -0.526279 -1.48553 0
M  V30 14039 C 1292.79 0.275579 -2.27537 0
M  V30 14040 C 1293.8 0.90782 -1.35139 0
M  V30 14041 O 1294.99 0.786887 -1.6022 0
M  V30 14042 C 1292.09 1.40515 -3.08397 0
M  V30 14043 C 1291.27 0.875523 -4.28548 0
M  V30 14044 C 1290.33 1.88577 -4.91249 0
M  V30 14045 O 1289.35 1.44419 -5.50574 0
M  V30 14046 N 1290.55 3.21774 -4.83158 0
M  V30 14047 H 1293.32 -0.401803 -2.96994 0
M  V30 14048 H 1290.88 -0.360378 -1.57838 0
M  V30 14049 H 1292.87 2.07907 -3.47213 0
M  V30 14050 H 1291.44 1.98626 -2.41384 0
M  V30 14051 H 1290.66 0.025728 -3.94192 0
M  V30 14052 H 1291.95 0.500493 -5.06332 0
M  V30 14053 H 1291.35 3.60319 -4.36104 0
M  V30 14054 H 1289.9 3.84808 -5.26085 0
M  V30 14055 N 1293.34 1.5542 -0.261239 0
M  V30 14056 C 1294.29 2.23382 0.648324 0
M  V30 14057 C 1295.28 1.22615 1.16884 0
M  V30 14058 O 1296.49 1.40587 1.12407 0
M  V30 14059 H 1292.86 0.716733 0.227592 0
M  V30 14060 H 1294.83 2.98354 0.0521289 0
M  V30 14061 C 1293.58 2.9579 1.82766 0
M  V30 14062 H 1292.9 3.73109 1.4363 0
M  V30 14063 H 1294.34 3.46686 2.441 0
M  V30 14064 C 1292.8 2.00472 2.70763 0
M  V30 14065 O 1293.33 1.54698 3.70717 0
M  V30 14066 N 1291.54 1.67267 2.37635 0
M  V30 14067 H 1291.09 2.04685 1.56402 0
M  V30 14068 H 1291.04 1.03759 2.96785 0
M  V30 14069 N 1294.82 -0.0116844 1.57596 0
M  V30 14070 C 1295.73 -1.02342 2.111 0
M  V30 14071 C 1296.74 -1.38478 1.05355 0
M  V30 14072 O 1297.92 -1.47447 1.37191 0
M  V30 14073 C 1294.98 -2.30016 2.5941 0
M  V30 14074 C 1294.04 -2.003 3.79708 0
M  V30 14075 C 1293.28 -3.21888 4.25704 0
M  V30 14076 O 1293.5 -4.33171 3.71106 0
M  V30 14077 O 1292.43 -3.0657 5.17975 0
M  V30 14078 H 1296.26 -0.598637 2.97742 0
M  V30 14079 H 1293.84 -0.229779 1.47622 0
M  V30 14080 H 1295.73 -3.05044 2.90733 0
M  V30 14081 H 1294.4 -2.71755 1.75871 0
M  V30 14082 H 1293.31 -1.22785 3.53376 0
M  V30 14083 H 1294.64 -1.63406 4.64284 0
M  V30 14084 N 1296.29 -1.55015 -0.284256 0
M  V30 14085 C 1297.22 -1.90128 -1.3555 0
M  V30 14086 C 1298.2 -0.761914 -1.52082 0
M  V30 14087 O 1299.39 -1.01909 -1.65312 0
M  V30 14088 C 1296.52 -2.16332 -2.71695 0
M  V30 14089 C 1295.47 -3.32166 -2.69907 0
M  V30 14090 C 1294.8 -3.43824 -4.09498 0
M  V30 14091 C 1296.1 -4.6885 -2.30168 0
M  V30 14092 H 1297.79 -2.79852 -1.06411 0
M  V30 14093 H 1295.34 -1.34649 -0.510451 0
M  V30 14094 H 1297.29 -2.39482 -3.46737 0
M  V30 14095 H 1296.02 -1.23395 -3.02392 0
M  V30 14096 H 1294.68 -3.08965 -1.97322 0
M  V30 14097 H 1294.32 -2.48375 -4.374 0
M  V30 14098 H 1294.02 -4.21698 -4.092 0
M  V30 14099 H 1295.55 -3.69254 -4.86296 0
M  V30 14100 H 1296.96 -4.91619 -2.9493 0
M  V30 14101 H 1295.36 -5.49558 -2.41052 0
M  V30 14102 H 1296.43 -4.68433 -1.25294 0
M  V30 14103 N 1297.77 0.548248 -1.47757 0
M  V30 14104 C 1298.68 1.68178 -1.63565 0
M  V30 14105 C 1299.7 1.661 -0.518351 0
M  V30 14106 O 1300.87 1.85384 -0.787061 0
M  V30 14107 C 1297.94 3.04673 -1.65454 0
M  V30 14108 C 1297 3.17749 -2.88677 0
M  V30 14109 C 1296.23 4.47733 -2.90466 0
M  V30 14110 O 1296.46 5.33736 -2.01201 0
M  V30 14111 O 1295.39 4.64789 -3.82433 0
M  V30 14112 H 1299.22 1.57781 -2.59497 0
M  V30 14113 H 1296.8 0.719277 -1.30946 0
M  V30 14114 H 1298.68 3.85885 -1.69324 0
M  V30 14115 H 1297.36 3.15433 -0.726912 0
M  V30 14116 H 1296.26 2.359 -2.90348 0
M  V30 14117 H 1297.6 3.11897 -3.80763 0
M  V30 14118 N 1299.25 1.36039 0.795694 0
M  V30 14119 C 1300.53 1.20474 1.54096 0
M  V30 14120 C 1300.91 -0.211691 2.10036 0
M  V30 14121 O 1300.25 -1.21656 1.93422 0
M  V30 14122 C 1300.46 2.28164 2.64087 0
M  V30 14123 C 1301.81 2.64519 3.32137 0
M  V30 14124 O 1302.84 2.2716 2.74366 0
M  V30 14125 O 1301.7 3.28796 4.36527 0
M  V30 14126 H 1298.79 0.468699 0.681359 0
M  V30 14127 H 1301.34 1.47752 0.834716 0
M  V30 14128 H 1300.11 3.23121 2.20701 0
M  V30 14129 H 1299.73 2.02217 3.42336 0
M  V30 14130 N 1300.73 -1.01913 1.20215 0
M  V30 14131 C 1301.95 -1.79613 1.03702 0
M  V30 14132 C 1302.38 -1.83591 -0.409374 0
M  V30 14133 O 1301.74 -1.26911 -1.29473 0
M  V30 14134 C 1301.78 -3.22052 1.62219 0
M  V30 14135 O 1300.89 -4.03374 0.858106 0
M  V30 14136 H 1300.23 -0.554095 0.365889 0
M  V30 14137 H 1302.76 -1.28203 1.59452 0
M  V30 14138 H 1302.77 -3.72772 1.65847 0
M  V30 14139 H 1301.44 -3.18471 2.67487 0
M  V30 14140 H 1300.02 -3.6198 0.895835 0
M  V30 14141 N 1302.21 -1.00763 -1.2118 0
M  V30 14142 C 1303.16 -0.541218 -2.21483 0
M  V30 14143 C 1304.14 0.398597 -1.55885 0
M  V30 14144 O 1305.33 0.22302 -1.75589 0
M  V30 14145 C 1302.46 0.128145 -3.43061 0
M  V30 14146 C 1301.55 -0.832845 -4.15842 0
M  V30 14147 N 1301.94 -1.98673 -4.65148 0
M  V30 14148 C 1300.24 -0.651779 -4.41212 0
M  V30 14149 C 1300.94 -2.59112 -5.20803 0
M  V30 14150 N 1299.91 -1.87249 -5.10332 0
M  V30 14151 H 1303.72 -1.42105 -2.57262 0
M  V30 14152 H 1301.23 -0.871796 -1.37016 0
M  V30 14153 H 1303.23 0.479771 -4.1413 0
M  V30 14154 H 1301.89 1.00392 -3.0879 0
M  V30 14155 H 1302.9 -2.36701 -4.60644 0
M  V30 14156 H 1299.57 0.1767 -4.17126 0
M  V30 14157 H 1300.96 -3.56713 -5.69391 0
M  V30 14158 N 1303.68 1.3679 -0.7827 0
M  V30 14159 C 1304.93 1.99417 -0.352011 0
M  V30 14160 C 1305.26 1.62127 1.07448 0
M  V30 14161 O 1304.51 0.864449 1.75573 0
M  V30 14162 C 1304.81 3.54489 -0.455232 0
M  V30 14163 C 1304.48 4.11579 -1.84156 0
M  V30 14164 C 1303.14 4.26884 -2.22089 0
M  V30 14165 C 1305.49 4.4277 -2.74962 0
M  V30 14166 C 1302.82 4.70688 -3.50243 0
M  V30 14167 C 1305.17 4.88003 -4.02537 0
M  V30 14168 C 1303.84 5.01513 -4.40501 0
M  V30 14169 H 1303.11 0.729718 -0.12881 0
M  V30 14170 H 1305.75 1.63386 -0.998856 0
M  V30 14171 H 1304.06 3.90833 0.275129 0
M  V30 14172 H 1305.76 4.00867 -0.103127 0
M  V30 14173 H 1302.35 4.00102 -1.53677 0
M  V30 14174 H 1306.53 4.30521 -2.46912 0
M  V30 14175 H 1301.79 4.79335 -3.79537 0
M  V30 14176 H 1305.96 5.11102 -4.73019 0
M  V30 14177 H 1303.59 5.35214 -5.39861 0
M  V30 14178 N 1305.16 0.53415 1.48272 0
M  V30 14179 C 1306.41 -0.000450626 2.017 0
M  V30 14180 C 1306.72 -1.34926 1.41613 0
M  V30 14181 O 1307.93 -1.97246 1.86564 0
M  V30 14182 C 1306.39 -0.0511883 3.59864 0
M  V30 14183 C 1305.99 1.29298 4.28936 0
M  V30 14184 C 1307.74 -0.534397 4.21123 0
M  V30 14185 C 1305.65 1.2026 5.79044 0
M  V30 14186 H 1304.58 -0.00393844 0.75399 0
M  V30 14187 H 1307.23 0.678554 1.70493 0
M  V30 14188 H 1305.61 -0.795358 3.8793 0
M  V30 14189 H 1306.78 2.05305 4.12537 0
M  V30 14190 H 1305.1 1.71226 3.79566 0
M  V30 14191 H 1307.69 -0.620048 5.31093 0
M  V30 14192 H 1308.04 -1.54114 3.86723 0
M  V30 14193 H 1308.57 0.154215 3.97501 0
M  V30 14194 H 1305.31 2.18463 6.18025 0
M  V30 14195 H 1304.83 0.483971 5.97844 0
M  V30 14196 H 1306.51 0.895005 6.4078 0
M  V30 14197 N 1306.64 -1.55279 0.269478 0
M  V30 14198 C 1307.87 -2.04334 -0.355313 0
M  V30 14199 C 1308.29 -1.14677 -1.491 0
M  V30 14200 O 1307.65 -0.144215 -1.80726 0
M  V30 14201 C 1307.7 -3.51172 -0.819162 0
M  V30 14202 O 1306.8 -3.64615 -1.9269 0
M  V30 14203 H 1306.14 -0.659827 -0.0743229 0
M  V30 14204 H 1308.67 -2.00609 0.402131 0
M  V30 14205 H 1308.68 -3.92428 -1.11642 0
M  V30 14206 H 1307.36 -4.15898 0.0117821 0
M  V30 14207 H 1305.93 -3.35261 -1.63261 0
M  V30 14208 N 1308.12 0.00332656 -1.576 0
M  V30 14209 C 1309.37 0.688869 -1.90423 0
M  V30 14210 C 1309.69 1.73963 -0.869896 0
M  V30 14211 O 1308.95 1.95295 0.125777 0
M  V30 14212 C 1309.25 1.37237 -3.30001 0
M  V30 14213 C 1308.91 0.455132 -4.48597 0
M  V30 14214 C 1307.58 0.202577 -4.80773 0
M  V30 14215 C 1309.93 -0.176597 -5.20901 0
M  V30 14216 C 1307.26 -0.690055 -5.82628 0
M  V30 14217 C 1309.61 -1.05708 -6.23705 0
M  V30 14218 C 1308.27 -1.31885 -6.54341 0
M  V30 14219 H 1307.54 0.252075 -0.696806 0
M  V30 14220 H 1310.19 -0.0514867 -1.91431 0
M  V30 14221 H 1308.49 2.18669 -3.25102 0
M  V30 14222 H 1310.19 1.9088 -3.52656 0
M  V30 14223 H 1306.78 0.662142 -4.23454 0
M  V30 14224 H 1310.96 0.0055127 -4.963 0
M  V30 14225 H 1306.22 -0.900902 -6.04726 0
M  V30 14226 H 1310.39 -1.55296 -6.78864 0
M  V30 14227 H 1308.02 -2.01222 -7.33085 0
M  V30 14228 N 1309.6 1.55164 0.276031 0
M  V30 14229 C 1310.51 1.90928 1.36321 0
M  V30 14230 C 1311.52 0.806183 1.54197 0
M  V30 14231 O 1312.7 1.10497 1.68382 0
M  V30 14232 C 1309.76 2.17123 2.70293 0
M  V30 14233 C 1308.82 3.40703 2.6119 0
M  V30 14234 C 1308.06 3.65638 3.88773 0
M  V30 14235 O 1308.28 2.93137 4.89313 0
M  V30 14236 O 1307.21 4.59172 3.89159 0
M  V30 14237 H 1311.04 2.8347 1.08988 0
M  V30 14238 H 1308.63 1.41672 0.474292 0
M  V30 14239 H 1310.51 2.3541 3.49514 0
M  V30 14240 H 1309.18 1.27765 2.97419 0
M  V30 14241 H 1308.09 3.27754 1.80355 0
M  V30 14242 H 1309.42 4.30271 2.39014 0
M  V30 14243 N 1311.07 -0.540404 1.48045 0
M  V30 14244 C 1312.35 -1.30148 1.46017 0
M  V30 14245 C 1312.73 -2.10445 0.166171 0
M  V30 14246 O 1312.08 -2.12013 -0.852223 0
M  V30 14247 C 1312.29 -2.19177 2.71593 0
M  V30 14248 C 1313.64 -2.79655 3.19497 0
M  V30 14249 O 1314.66 -2.2947 2.72437 0
M  V30 14250 O 1313.52 -3.70912 4.01356 0
M  V30 14251 H 1310.61 -0.586879 0.582668 0
M  V30 14252 H 1313.16 -0.557918 1.60267 0
M  V30 14253 H 1311.93 -1.59556 3.57292 0
M  V30 14254 H 1311.56 -3.00798 2.60012 0
M  V30 14255 N 1312.55 -1.36459 -0.788468 0
M  V30 14256 C 1313.8 -1.3007 -1.54158 0
M  V30 14257 C 1314.11 0.117574 -1.95246 0
M  V30 14258 O 1315.32 0.303837 -2.69795 0
M  V30 14259 C 1313.78 -2.28216 -2.78291 0
M  V30 14260 C 1313.38 -3.75484 -2.44368 0
M  V30 14261 C 1315.13 -2.30806 -3.56271 0
M  V30 14262 C 1313.04 -4.65404 -3.64902 0
M  V30 14263 H 1311.97 -0.483345 -0.5787 0
M  V30 14264 H 1314.62 -1.61827 -0.865123 0
M  V30 14265 H 1313 -1.89454 -3.4774 0
M  V30 14266 H 1314.17 -4.22986 -1.82809 0
M  V30 14267 H 1312.49 -3.75678 -1.79597 0
M  V30 14268 H 1315.08 -2.95196 -4.45829 0
M  V30 14269 H 1315.43 -1.31687 -3.94923 0
M  V30 14270 H 1315.96 -2.68189 -2.93802 0
M  V30 14271 H 1312.7 -5.65589 -3.31344 0
M  V30 14272 H 1312.22 -4.22617 -4.25623 0
M  V30 14273 H 1313.9 -4.81721 -4.31919 0
M  V30 14274 N 1314.03 1.01274 -1.20754 0
M  V30 14275 C 1315.26 1.7906 -1.04653 0
M  V30 14276 C 1315.68 1.83806 0.399632 0
M  V30 14277 O 1315.04 1.27596 1.28798 0
M  V30 14278 C 1315.09 3.21187 -1.63925 0
M  V30 14279 O 1314.19 4.02913 -0.879486 0
M  V30 14280 H 1313.53 0.552147 -0.368823 0
M  V30 14281 H 1316.06 1.27356 -1.6013 0
M  V30 14282 H 1316.07 3.71887 -1.67822 0
M  V30 14283 H 1314.75 3.17048 -2.69172 0
M  V30 14284 H 1313.32 3.61499 -0.915019 0
M  V30 14285 N 1315.51 1.01404 1.20644 0
M  V30 14286 C 1316.42 0.591693 2.27016 0
M  V30 14287 C 1317.44 -0.36958 1.7003 0
M  V30 14288 O 1318.61 -0.231165 2.00069 0
M  V30 14289 C 1315.68 -0.0659827 3.46637 0
M  V30 14290 C 1314.74 0.940911 4.18862 0
M  V30 14291 C 1313.97 0.314526 5.32772 0
M  V30 14292 O 1314.19 -0.886404 5.63471 0
M  V30 14293 O 1313.13 1.02998 5.93022 0
M  V30 14294 H 1316.95 1.4772 2.65353 0
M  V30 14295 H 1314.54 0.783399 1.27213 0
M  V30 14296 H 1316.42 -0.433412 4.19165 0
M  V30 14297 H 1315.1 -0.925729 3.10181 0
M  V30 14298 H 1314 1.35966 3.48517 0
M  V30 14299 H 1315.34 1.77054 4.59252 0
M  V30 14300 N 1316.99 -1.36373 0.789944 0
M  V30 14301 C 1318.22 -2.03482 0.37453 0
M  V30 14302 C 1318.63 -1.59562 -1.00923 0
M  V30 14303 O 1317.99 -0.785289 -1.64741 0
M  V30 14304 C 1318.04 -3.58942 0.429255 0
M  V30 14305 O 1317.76 -4.01261 1.75845 0
M  V30 14306 C 1319.26 -4.433 0.00453729 0
M  V30 14307 H 1316.48 -0.653019 0.154295 0
M  V30 14308 H 1319.02 -1.74339 1.06894 0
M  V30 14309 H 1317.18 -3.86793 -0.21674 0
M  V30 14310 H 1317.59 -4.95854 1.70964 0
M  V30 14311 H 1319.07 -5.5192 0.0939653 0
M  V30 14312 H 1319.54 -4.26509 -1.04816 0
M  V30 14313 H 1320.15 -4.20712 0.623041 0
M  V30 14314 N 1318.47 -0.542005 -1.47987 0
M  V30 14315 C 1319.74 0.0526494 -1.95529 0
M  V30 14316 C 1320.12 1.50092 -1.48444 0
M  V30 14317 O 1319.47 2.16981 -0.716347 0
M  V30 14318 C 1319.68 -0.0770524 -3.48915 0
M  V30 14319 C 1321.03 0.0760849 -4.24532 0
M  V30 14320 O 1322.05 -0.00384644 -3.562 0
M  V30 14321 O 1320.91 0.245406 -5.45949 0
M  V30 14322 H 1318.01 0.0726163 -0.823806 0
M  V30 14323 H 1320.55 -0.607454 -1.58455 0
M  V30 14324 H 1319.32 -1.08544 -3.75944 0
M  V30 14325 H 1318.95 0.621357 -3.92715 0
M  V30 14326 N 1319.94 1.55134 -0.277709 0
M  V30 14327 C 1320.85 2.26296 0.618658 0
M  V30 14328 C 1321.87 1.28978 1.16794 0
M  V30 14329 O 1323.05 1.61918 1.19768 0
M  V30 14330 C 1320.11 2.97214 1.78508 0
M  V30 14331 C 1319.17 4.10016 1.27221 0
M  V30 14332 C 1318.4 4.77543 2.38304 0
M  V30 14333 O 1318.63 4.44293 3.57715 0
M  V30 14334 O 1317.56 5.65437 2.06313 0
M  V30 14335 H 1321.39 3.03671 0.0421031 0
M  V30 14336 H 1318.97 1.49332 -0.0450166 0
M  V30 14337 H 1320.85 3.41773 2.46513 0
M  V30 14338 H 1319.53 2.22753 2.34867 0
M  V30 14339 H 1318.44 3.69907 0.558544 0
M  V30 14340 H 1319.77 4.86385 0.754333 0
M  V30 14341 N 1321.42 0.00503138 1.57599 0
M  V30 14342 C 1322.67 -0.67742 1.90409 0
M  V30 14343 C 1322.99 -1.74033 0.87963 0
M  V30 14344 O 1322.26 -1.95727 -0.0822757 0
M  V30 14345 H 1320.84 -0.2532 0.702779 0
M  V30 14346 H 1323.5 0.0471466 1.94843 0
M  V30 14347 H 1322.6 -1.14548 2.90319 0
M  V30 14348 N 1322.9 -1.55308 -0.267798 0
M  V30 14349 C 1324.15 -1.76159 -0.998707 0
M  V30 14350 C 1324.47 -0.565573 -1.86095 0
M  V30 14351 O 1323.73 0.45178 -1.90414 0
M  V30 14352 C 1324.03 -3.02286 -1.90678 0
M  V30 14353 C 1323.69 -4.34594 -1.20161 0
M  V30 14354 C 1322.36 -4.70553 -1.00664 0
M  V30 14355 C 1324.71 -5.16475 -0.7002 0
M  V30 14356 C 1322.04 -5.85945 -0.297629 0
M  V30 14357 C 1324.39 -6.326 -0.00475187 0
M  V30 14358 C 1323.05 -6.67195 0.20188 0
M  V30 14359 H 1322.32 -0.644613 -0.365453 0
M  V30 14360 H 1324.97 -1.89579 -0.270545 0
M  V30 14361 H 1323.27 -2.83788 -2.70133 0
M  V30 14362 H 1324.97 -3.15615 -2.47362 0
M  V30 14363 H 1321.56 -4.06334 -1.36348 0
M  V30 14364 H 1325.75 -4.89167 -0.838435 0
M  V30 14365 H 1321 -6.11268 -0.126864 0
M  V30 14366 H 1325.18 -6.95299 0.39151 0
M  V30 14367 H 1322.8 -7.56459 0.753252 0
M  V30 14368 N 1324.38 0.532545 -1.4833 0
M  V30 14369 C 1325.6 1.31809 -1.60129 0
M  V30 14370 C 1326.03 1.86283 -0.260807 0
M  V30 14371 O 1325.39 1.6427 0.767137 0
M  V30 14372 C 1325.43 2.44661 -2.64903 0
M  V30 14373 O 1324.54 3.47622 -2.21885 0
M  V30 14374 H 1323.88 0.390492 -0.53704 0
M  V30 14375 H 1326.41 0.641068 -1.94297 0
M  V30 14376 H 1326.42 2.90883 -2.86096 0
M  V30 14377 H 1325.09 2.04373 -3.62222 0
M  V30 14378 H 1323.67 3.07536 -2.10894 0
M  V30 14379 N 1325.86 1.36875 0.78122 0
M  V30 14380 C 1327.1 1.30886 1.53466 0
M  V30 14381 C 1327.42 -0.107218 1.95306 0
M  V30 14382 O 1328.62 -0.289525 2.69952 0
M  V30 14383 C 1327.08 2.29688 2.77076 0
M  V30 14384 C 1326.69 3.76775 2.42373 0
M  V30 14385 C 1328.43 2.32692 3.55042 0
M  V30 14386 C 1326.34 4.67332 3.62428 0
M  V30 14387 H 1325.27 0.486408 0.576128 0
M  V30 14388 H 1327.92 1.62283 0.856529 0
M  V30 14389 H 1326.3 1.91296 3.4673 0
M  V30 14390 H 1327.48 4.2395 1.80563 0
M  V30 14391 H 1325.79 3.76625 1.77602 0
M  V30 14392 H 1328.39 2.97556 4.44257 0
M  V30 14393 H 1328.73 1.33779 3.94219 0
M  V30 14394 H 1329.26 2.69743 2.92375 0
M  V30 14395 H 1326 5.67339 3.2834 0
M  V30 14396 H 1325.52 4.24868 4.23376 0
M  V30 14397 H 1327.2 4.84005 4.29358 0
M  V30 14398 N 1327.33 -1.00632 1.21289 0
M  V30 14399 C 1328.75 -1.26744 0.969956 0
M  V30 14400 C 1328.95 -1.98534 -0.344449 0
M  V30 14401 O 1328.01 -2.28687 -1.07044 0
M  V30 14402 C 1329.32 -2.09238 2.15963 0
M  V30 14403 C 1330.87 -2.22469 2.20174 0
M  V30 14404 C 1331.34 -3.08344 3.38656 0
M  V30 14405 N 1332.83 -3.15932 3.38734 0
M  V30 14406 C 1333.57 -3.82632 4.2706 0
M  V30 14407 N 1333.06 -4.51371 5.25582 0
M  V30 14408 N 1334.86 -3.79259 4.14872 0
M  V30 14409 H 1327.01 -0.524626 2.05819 0
M  V30 14410 H 1329.27 -0.294231 0.901184 0
M  V30 14411 H 1328.98 -1.63835 3.11209 0
M  V30 14412 H 1328.85 -3.09987 2.14914 0
M  V30 14413 H 1331.24 -2.67091 1.25485 0
M  V30 14414 H 1331.32 -1.21194 2.25268 0
M  V30 14415 H 1330.96 -2.64425 4.33638 0
M  V30 14416 H 1330.89 -4.0973 3.30801 0
M  V30 14417 H 1333.38 -2.66998 2.67434 0
M  V30 14418 H 1333.7 -4.99966 5.89283 0
M  V30 14419 H 1332.04 -4.50162 5.29508 0
M  V30 14420 H 1335.23 -3.2471 3.37166 0
M  V30 14421 H 1335.41 -4.30963 4.83916 0
M  V30 14422 N 1328.81 -1.02043 -1.20104 0
M  V30 14423 C 1330.06 -0.711973 -1.89571 0
M  V30 14424 C 1330.39 0.758725 -1.79091 0
M  V30 14425 O 1329.64 1.56728 -1.17195 0
M  V30 14426 C 1329.94 -1.098 -3.40116 0
M  V30 14427 C 1329.61 -2.56555 -3.70797 0
M  V30 14428 C 1328.27 -2.96653 -3.78881 0
M  V30 14429 C 1330.62 -3.51543 -3.84795 0
M  V30 14430 C 1327.95 -4.30669 -3.98424 0
M  V30 14431 C 1330.3 -4.85252 -4.05849 0
M  V30 14432 C 1328.96 -5.2505 -4.12163 0
M  V30 14433 H 1328.23 -0.260529 -0.69369 0
M  V30 14434 H 1330.88 -1.28172 -1.42282 0
M  V30 14435 H 1329.19 -0.446738 -3.89245 0
M  V30 14436 H 1330.88 -0.836985 -3.92168 0
M  V30 14437 H 1327.47 -2.24488 -3.65107 0
M  V30 14438 H 1331.66 -3.21721 -3.77901 0
M  V30 14439 H 1326.91 -4.61052 -4.01548 0
M  V30 14440 H 1331.09 -5.58777 -4.15622 0
M  V30 14441 H 1328.71 -6.28908 -4.27059 0
M  V30 14442 N 1330.29 1.35952 -0.797165 0
M  V30 14443 C 1331.54 1.98283 -0.369685 0
M  V30 14444 C 1331.85 1.63968 1.06649 0
M  V30 14445 O 1333.06 2.19591 1.59662 0
M  V30 14446 C 1331.51 3.54692 -0.610046 0
M  V30 14447 C 1331.12 3.97925 -2.05814 0
M  V30 14448 C 1332.87 4.23778 -0.247457 0
M  V30 14449 C 1330.77 5.47142 -2.24475 0
M  V30 14450 H 1329.7 0.741909 -0.134489 0
M  V30 14451 H 1332.35 1.55146 -0.979893 0
M  V30 14452 H 1330.74 3.95938 0.0699822 0
M  V30 14453 H 1331.91 3.67857 -2.77521 0
M  V30 14454 H 1330.23 3.417 -2.37971 0
M  V30 14455 H 1332.82 5.33452 -0.365059 0
M  V30 14456 H 1333.17 4.08436 0.805315 0
M  V30 14457 H 1333.7 3.87921 -0.881028 0
M  V30 14458 H 1330.44 5.67441 -3.28163 0
M  V30 14459 H 1329.96 5.78811 -1.57282 0
M  V30 14460 H 1331.64 6.13475 -2.05567 0
M  V30 14461 N 1331.77 0.549846 1.47697 0
M  V30 14462 C 1332.72 -0.215119 2.31603 0
M  V30 14463 C 1333.71 -0.916441 1.4247 0
M  V30 14464 O 1334.92 -0.838565 1.59274 0
M  V30 14465 H 1331.29 -0.0882441 0.746805 0
M  V30 14466 H 1333.26 0.511847 2.93977 0
M  V30 14467 C 1332.01 -1.23662 3.24966 0
M  V30 14468 H 1331.33 -0.706384 3.9351 0
M  V30 14469 H 1332.77 -1.7429 3.86522 0
M  V30 14470 C 1331.23 -2.28066 2.47967 0
M  V30 14471 O 1331.76 -3.34862 2.21879 0
M  V30 14472 N 1329.97 -2.01799 2.09106 0
M  V30 14473 H 1329.52 -1.14965 2.30523 0
M  V30 14474 H 1329.47 -2.71872 1.57902 0
M  V30 14475 N 1333.25 -1.54984 0.285932 0
M  V30 14476 C 1334.19 -2.2295 -0.596822 0
M  V30 14477 C 1335.16 -1.20674 -1.14136 0
M  V30 14478 O 1336.35 -1.49249 -1.18867 0
M  V30 14479 C 1333.49 -2.9625 -1.77002 0
M  V30 14480 C 1332.6 -4.13268 -1.25831 0
M  V30 14481 C 1331.74 -4.74187 -2.39417 0
M  V30 14482 C 1330.78 -5.83377 -1.85304 0
M  V30 14483 N 1329.91 -6.38313 -2.92405 0
M  V30 14484 H 1334.75 -2.97998 -0.0106104 0
M  V30 14485 H 1332.29 -1.47099 0.00653041 0
M  V30 14486 H 1334.25 -3.36971 -2.4598 0
M  V30 14487 H 1332.88 -2.23606 -2.3281 0
M  V30 14488 H 1331.93 -3.77593 -0.461278 0
M  V30 14489 H 1333.24 -4.91979 -0.822049 0
M  V30 14490 H 1332.4 -5.17683 -3.16369 0
M  V30 14491 H 1331.13 -3.94775 -2.86364 0
M  V30 14492 H 1330.14 -5.3932 -1.06835 0
M  V30 14493 H 1331.36 -6.64664 -1.3928 0
M  V30 14494 H 1329.31 -5.61791 -3.38713 0
M  V30 14495 H 1329.23 -7.12328 -2.53228 0
M  V30 14496 H 1330.5 -6.86468 -3.69299 0
M  V30 14497 N 1334.72 -0.0133892 -1.57594 0
M  V30 14498 C 1335.63 0.989701 -2.12702 0
M  V30 14499 C 1336.65 1.36785 -1.07545 0
M  V30 14500 O 1337.83 1.45246 -1.39519 0
M  V30 14501 C 1334.89 2.2586 -2.63036 0
M  V30 14502 C 1333.95 1.94234 -3.82847 0
M  V30 14503 C 1333.19 3.15075 -4.30771 0
M  V30 14504 O 1333.41 4.27212 -3.7795 0
M  V30 14505 O 1332.34 2.98291 -5.22787 0
M  V30 14506 H 1336.17 0.551194 -2.98656 0
M  V30 14507 H 1333.75 0.206264 -1.47969 0
M  V30 14508 H 1335.64 3.0038 -2.9555 0
M  V30 14509 H 1334.31 2.68923 -1.80173 0
M  V30 14510 H 1333.22 1.17148 -3.55285 0
M  V30 14511 H 1334.55 1.55999 -4.66824 0
M  V30 14512 N 1336.2 1.55448 0.259558 0
M  V30 14513 C 1337.43 1.80727 1.00723 0
M  V30 14514 C 1337.85 0.587354 1.79431 0
M  V30 14515 O 1337.2 -0.443819 1.77021 0
M  V30 14516 C 1337.25 3.04064 1.95517 0
M  V30 14517 O 1336.97 4.21346 1.19996 0
M  V30 14518 C 1338.48 3.42049 2.81988 0
M  V30 14519 H 1335.7 0.601713 0.296956 0
M  V30 14520 H 1338.24 2.02486 0.286273 0
M  V30 14521 H 1336.39 2.84392 2.63058 0
M  V30 14522 H 1336.81 4.91164 1.84006 0
M  V30 14523 H 1338.28 4.31485 3.44274 0
M  V30 14524 H 1338.76 2.62059 3.52451 0
M  V30 14525 H 1339.37 3.64027 2.19918 0
M  V30 14526 N 1337.68 -0.524672 1.4861 0
M  V30 14527 C 1338.93 -1.27768 1.56588 0
M  V30 14528 C 1339.25 -1.93469 0.243899 0
M  V30 14529 O 1338.52 -1.8159 -0.734985 0
M  V30 14530 H 1337.1 -0.474566 0.576885 0
M  V30 14531 H 1339.76 -0.610114 1.85104 0
M  V30 14532 H 1338.86 -2.05416 2.34969 0
M  V30 14533 N 1339.16 -1.37287 -0.77395 0
M  V30 14534 C 1340.07 -1.35059 -1.91823 0
M  V30 14535 C 1341.08 -0.250489 -1.72188 0
M  V30 14536 O 1342.26 -0.485501 -1.95461 0
M  V30 14537 C 1339.33 -1.15444 -3.26915 0
M  V30 14538 C 1338.39 -2.35073 -3.5922 0
M  V30 14539 C 1337.62 -2.16384 -4.87867 0
M  V30 14540 O 1337.84 -1.14696 -5.58749 0
M  V30 14541 O 1336.78 -3.0452 -5.19183 0
M  V30 14542 H 1340.6 -2.31432 -1.96654 0
M  V30 14543 H 1338.19 -1.17994 -0.916392 0
M  V30 14544 H 1340.07 -1.06484 -4.07724 0
M  V30 14545 H 1338.74 -0.221435 -3.22942 0
M  V30 14546 H 1337.65 -2.49604 -2.78655 0
M  V30 14547 H 1338.98 -3.26933 -3.67934 0
M  V30 14548 N 1340.64 0.999871 -1.21821 0
M  V30 14549 C 1341.86 1.7794 -1.06546 0
M  V30 14550 C 1342.29 1.84219 0.380115 0
M  V30 14551 O 1341.64 1.28955 1.27438 0
M  V30 14552 C 1341.69 3.1943 -1.67322 0
M  V30 14553 O 1340.8 4.01957 -0.922171 0
M  V30 14554 H 1340.14 0.548204 -0.374658 0
M  V30 14555 H 1342.67 1.2565 -1.61472 0
M  V30 14556 H 1342.68 3.70086 -1.71757 0
M  V30 14557 H 1341.35 3.14175 -2.7252 0
M  V30 14558 H 1339.93 3.60509 -0.95331 0
M  V30 14559 N 1342.11 1.02678 1.19562 0
M  V30 14560 C 1343.36 0.717279 1.88515 0
M  V30 14561 C 1343.68 -0.757063 1.80355 0
M  V30 14562 O 1344.88 -1.17953 2.44539 0
M  V30 14563 C 1343.34 1.23265 3.38133 0
M  V30 14564 C 1342.95 2.73462 3.54856 0
M  V30 14565 C 1344.69 0.99904 4.12577 0
M  V30 14566 C 1342.6 3.18428 4.98355 0
M  V30 14567 H 1341.53 0.264608 0.706044 0
M  V30 14568 H 1344.18 1.2408 1.3519 0
M  V30 14569 H 1342.56 0.637052 3.90842 0
M  V30 14570 H 1343.73 3.38659 3.12485 0
M  V30 14571 H 1342.05 2.95079 2.93798 0
M  V30 14572 H 1344.65 1.3103 5.18397 0
M  V30 14573 H 1344.99 -0.064217 4.1625 0
M  V30 14574 H 1345.52 1.55853 3.65998 0
M  V30 14575 H 1342.26 4.24074 4.99842 0
M  V30 14576 H 1341.78 2.57958 5.41496 0
M  V30 14577 H 1343.46 3.11649 5.66996 0
M  V30 14578 N 1343.59 -1.35528 0.804364 0
M  V30 14579 C 1344.84 -1.98832 0.383692 0
M  V30 14580 C 1345.17 -1.63816 -1.04855 0
M  V30 14581 O 1344.42 -0.892272 -1.74175 0
M  V30 14582 C 1344.72 -3.5372 0.511571 0
M  V30 14583 C 1344.39 -4.08597 1.9068 0
M  V30 14584 C 1343.05 -4.23297 2.28852 0
M  V30 14585 C 1345.4 -4.3834 2.81971 0
M  V30 14586 C 1342.73 -4.65056 3.57687 0
M  V30 14587 C 1345.08 -4.81537 4.1025 0
M  V30 14588 C 1343.75 -4.94442 4.48423 0
M  V30 14589 H 1343.02 -0.727577 0.140403 0
M  V30 14590 H 1345.66 -1.61777 1.02472 0
M  V30 14591 H 1343.97 -3.91221 -0.212916 0
M  V30 14592 H 1345.66 -4.00653 0.166888 0
M  V30 14593 H 1342.25 -3.97606 1.60023 0
M  V30 14594 H 1346.44 -4.26538 2.5373 0
M  V30 14595 H 1341.69 -4.73236 3.87115 0
M  V30 14596 H 1345.87 -5.03512 4.81091 0
M  V30 14597 H 1343.5 -5.26558 5.48307 0
M  V30 14598 N 1345.07 -0.557671 -1.47404 0
M  V30 14599 C 1346.32 -0.0338384 -2.02772 0
M  V30 14600 C 1346.65 1.31278 -1.43107 0
M  V30 14601 O 1345.93 1.85436 -0.58682 0
M  V30 14602 C 1346.21 0.0587427 -3.60052 0
M  V30 14603 C 1346.06 -1.315 -4.30148 0
M  V30 14604 C 1347.38 0.771942 -4.33277 0
M  V30 14605 H 1344.5 -0.0137711 -0.736871 0
M  V30 14606 H 1347.14 -0.720049 -1.75827 0
M  V30 14607 H 1345.29 0.643154 -3.83139 0
M  V30 14608 H 1346.96 -1.94265 -4.184 0
M  V30 14609 H 1345.21 -1.88956 -3.90484 0
M  V30 14610 H 1345.88 -1.20294 -5.38733 0
M  V30 14611 H 1348.35 0.275729 -4.15185 0
M  V30 14612 H 1347.23 0.805683 -5.42955 0
M  V30 14613 H 1347.49 1.82816 -4.0253 0
M  V30 14614 N 1346.55 1.54831 -0.294147 0
M  V30 14615 C 1347.46 2.26939 0.594621 0
M  V30 14616 C 1348.48 1.30209 1.15419 0
M  V30 14617 O 1349.65 1.6318 1.18044 0
M  V30 14618 C 1346.72 2.9909 1.75345 0
M  V30 14619 C 1345.78 4.11342 1.22865 0
M  V30 14620 C 1345.01 4.80043 2.33225 0
M  V30 14621 O 1345.23 4.48062 3.52983 0
M  V30 14622 O 1344.17 5.67593 2.00304 0
M  V30 14623 H 1347.99 3.03698 0.00989235 0
M  V30 14624 H 1345.58 1.49276 -0.0608528 0
M  V30 14625 H 1347.46 3.44369 2.42875 0
M  V30 14626 H 1346.14 2.25232 2.32492 0
M  V30 14627 H 1345.04 3.70478 0.519279 0
M  V30 14628 H 1346.38 4.87158 0.702703 0
M  V30 14629 N 1348.03 0.0217466 1.57585 0
M  V30 14630 C 1349.26 -0.668881 1.9579 0
M  V30 14631 C 1349.67 -1.66085 0.897849 0
M  V30 14632 O 1349.03 -1.82098 -0.121099 0
M  V30 14633 C 1349.08 -1.38174 3.34051 0
M  V30 14634 O 1348.8 -0.429527 4.35989 0
M  V30 14635 C 1350.3 -2.16487 3.86844 0
M  V30 14636 H 1347.52 -0.184919 0.645016 0
M  V30 14637 H 1350.06 0.0793241 2.04346 0
M  V30 14638 H 1348.22 -2.0814 3.26736 0
M  V30 14639 H 1348.63 -0.934887 5.16101 0
M  V30 14640 H 1350.11 -2.61829 4.85952 0
M  V30 14641 H 1350.58 -3.00082 3.20698 0
M  V30 14642 H 1351.19 -1.51493 3.97404 0
M  V30 14643 N 1349.51 -1.55583 -0.251311 0
M  V30 14644 C 1350.42 -1.93073 -1.33266 0
M  V30 14645 C 1351.43 -0.830612 -1.52895 0
M  V30 14646 O 1352.61 -1.13162 -1.66602 0
M  V30 14647 C 1349.67 -2.21396 -2.66805 0
M  V30 14648 C 1348.73 -3.44815 -2.55737 0
M  V30 14649 C 1347.97 -3.71777 -3.82907 0
M  V30 14650 O 1348.19 -3.00884 -4.84587 0
M  V30 14651 O 1347.12 -4.65305 -3.81805 0
M  V30 14652 H 1350.95 -2.85168 -1.04465 0
M  V30 14653 H 1348.53 -1.42408 -0.451693 0
M  V30 14654 H 1350.42 -2.4094 -3.45725 0
M  V30 14655 H 1349.09 -1.3248 -2.95348 0
M  V30 14656 H 1348 -3.30582 -1.75118 0
M  V30 14657 H 1349.33 -4.34019 -2.32139 0
M  V30 14658 N 1350.98 0.516783 -1.48886 0
M  V30 14659 C 1351.93 1.62003 -1.64389 0
M  V30 14660 C 1352.9 1.58842 -0.485633 0
M  V30 14661 O 1354.09 1.77068 -0.710742 0
M  V30 14662 C 1351.23 3.00218 -1.70186 0
M  V30 14663 C 1350.34 3.13513 -2.97209 0
M  V30 14664 C 1349.47 4.42366 -2.94084 0
M  V30 14665 C 1348.51 4.49238 -4.15754 0
M  V30 14666 N 1347.65 5.69497 -4.10631 0
M  V30 14667 H 1352.49 1.48093 -2.58597 0
M  V30 14668 H 1350.03 0.720788 -1.2823 0
M  V30 14669 H 1351.98 3.80307 -1.71529 0
M  V30 14670 H 1350.61 3.12868 -0.794578 0
M  V30 14671 H 1349.67 2.26589 -3.05551 0
M  V30 14672 H 1350.98 3.14451 -3.87197 0
M  V30 14673 H 1350.13 5.3076 -2.93902 0
M  V30 14674 H 1348.87 4.43969 -2.01847 0
M  V30 14675 H 1347.88 3.59248 -4.16198 0
M  V30 14676 H 1349.1 4.49363 -5.09166 0
M  V30 14677 H 1347.05 5.71973 -3.21222 0
M  V30 14678 H 1346.96 5.71985 -4.94337 0
M  V30 14679 H 1348.23 6.60142 -4.14527 0
M  V30 14680 N 1352.46 1.37696 0.766659 0
M  V30 14681 C 1353.69 1.3639 1.55581 0
M  V30 14682 C 1354.1 -0.0495272 1.88735 0
M  V30 14683 O 1353.46 -1.01268 1.51826 0
M  V30 14684 C 1353.51 2.20717 2.86298 0
M  V30 14685 O 1353.23 3.56552 2.54563 0
M  V30 14686 C 1354.73 2.27446 3.80504 0
M  V30 14687 H 1351.95 0.466993 0.481828 0
M  V30 14688 H 1354.5 1.81103 0.949834 0
M  V30 14689 H 1352.65 1.79499 3.43306 0
M  V30 14690 H 1353.07 4.00811 3.38306 0
M  V30 14691 H 1354.54 2.90762 4.69214 0
M  V30 14692 H 1355.02 1.28434 4.20002 0
M  V30 14693 H 1355.62 2.68998 3.29424 0
M  V30 14694 N 1353.94 -0.993397 1.22349 0
M  V30 14695 C 1355.19 -1.72707 1.04189 0
M  V30 14696 C 1355.5 -1.90963 -0.423381 0
M  V30 14697 O 1356.71 -2.61651 -0.724645 0
M  V30 14698 C 1355.16 -3.10739 1.81575 0
M  V30 14699 C 1354.77 -3.00415 3.32347 0
M  V30 14700 C 1356.52 -3.88155 1.71861 0
M  V30 14701 C 1354.42 -4.33598 4.02177 0
M  V30 14702 H 1353.35 -0.647556 0.386248 0
M  V30 14703 H 1356 -1.10902 1.46195 0
M  V30 14704 H 1354.39 -3.73222 1.32367 0
M  V30 14705 H 1355.56 -2.47099 3.88946 0
M  V30 14706 H 1353.87 -2.36482 3.42732 0
M  V30 14707 H 1356.47 -4.8673 2.21354 0
M  V30 14708 H 1356.81 -4.10726 0.678939 0
M  V30 14709 H 1357.35 -3.32347 2.18609 0
M  V30 14710 H 1354.09 -4.16226 5.06395 0
M  V30 14711 H 1353.61 -4.86829 3.50367 0
M  V30 14712 H 1355.29 -5.02348 4.07744 0
M  V30 14713 N 1355.42 -1.03311 -1.19015 0
M  V30 14714 C 1356.66 -0.732039 -1.88805 0
M  V30 14715 C 1356.99 0.739688 -1.79886 0
M  V30 14716 O 1356.25 1.55476 -1.18851 0
M  V30 14717 C 1356.55 -1.13402 -3.38932 0
M  V30 14718 C 1356.21 -2.60473 -3.68055 0
M  V30 14719 C 1354.87 -3.00654 -3.75713 0
M  V30 14720 C 1357.23 -3.55604 -3.81045 0
M  V30 14721 C 1354.55 -4.3487 -3.93833 0
M  V30 14722 C 1356.91 -4.89529 -4.00679 0
M  V30 14723 C 1355.57 -5.29392 -4.06571 0
M  V30 14724 H 1354.84 -0.267872 -0.690888 0
M  V30 14725 H 1357.49 -1.29673 -1.40915 0
M  V30 14726 H 1355.79 -0.487997 -3.88749 0
M  V30 14727 H 1357.49 -0.878532 -3.91258 0
M  V30 14728 H 1354.08 -2.28348 -3.62706 0
M  V30 14729 H 1358.26 -3.25711 -3.74467 0
M  V30 14730 H 1353.52 -4.65285 -3.96636 0
M  V30 14731 H 1357.69 -5.63153 -4.09672 0
M  V30 14732 H 1355.32 -6.33402 -4.20364 0
M  V30 14733 N 1356.9 1.35099 -0.81154 0
M  V30 14734 C 1358.12 2.03391 -0.405805 0
M  V30 14735 C 1358.55 1.60745 0.97686 0
M  V30 14736 O 1357.9 0.786518 1.63351 0
M  V30 14737 C 1357.95 3.57075 -0.502954 0
M  V30 14738 O 1357.06 4.09577 0.481681 0
M  V30 14739 H 1356.4 0.642203 -0.168733 0
M  V30 14740 H 1358.93 1.72591 -1.0988 0
M  V30 14741 H 1358.94 4.06277 -0.37456 0
M  V30 14742 H 1357.61 3.87463 -1.51145 0
M  V30 14743 H 1356.19 3.71583 0.313115 0
M  V30 14744 N 1358.37 0.56548 1.47106 0
M  V30 14745 C 1359.28 -0.180488 2.33905 0
M  V30 14746 C 1360.3 -0.90355 1.48701 0
M  V30 14747 O 1361.48 -0.870595 1.81611 0
M  V30 14748 C 1358.54 -1.19212 3.2556 0
M  V30 14749 C 1357.6 -0.475589 4.26658 0
M  V30 14750 C 1356.83 -1.43902 5.13934 0
M  V30 14751 O 1357.06 -2.67443 5.03816 0
M  V30 14752 O 1355.99 -0.958998 5.94211 0
M  V30 14753 H 1359.82 0.531726 2.99009 0
M  V30 14754 H 1357.4 0.32602 1.45799 0
M  V30 14755 H 1359.28 -1.77586 3.82153 0
M  V30 14756 H 1357.96 -1.8861 2.63074 0
M  V30 14757 H 1356.87 0.149561 3.73801 0
M  V30 14758 H 1358.2 0.177103 4.91881 0
M  V30 14759 N 1359.85 -1.54672 0.302354 0
M  V30 14760 C 1361.08 -2.04282 -0.308645 0
M  V30 14761 C 1361.49 -1.17912 -1.47965 0
M  V30 14762 O 1360.83 -0.197723 -1.82633 0
M  V30 14763 C 1360.9 -3.49872 -0.826417 0
M  V30 14764 C 1360.56 -4.56473 0.219486 0
M  V30 14765 C 1361.56 -5.0922 1.0484 0
M  V30 14766 C 1359.24 -5.00997 0.361574 0
M  V30 14767 C 1361.24 -6.05033 2.00533 0
M  V30 14768 C 1358.92 -5.9663 1.32195 0
M  V30 14769 C 1359.92 -6.48532 2.1423 0
M  V30 14770 O 1359.61 -7.42292 3.08639 0
M  V30 14771 H 1359.34 -0.67228 -0.0708187 0
M  V30 14772 H 1361.89 -2.00625 0.440314 0
M  V30 14773 H 1360.12 -3.50857 -1.62593 0
M  V30 14774 H 1361.81 -3.8267 -1.35345 0
M  V30 14775 H 1362.58 -4.75615 0.949501 0
M  V30 14776 H 1358.46 -4.60226 -0.267018 0
M  V30 14777 H 1362 -6.45469 2.64604 0
M  V30 14778 H 1357.9 -6.29652 1.42156 0
M  V30 14779 H 1358.67 -7.60098 3.03633 0
M  V30 14780 N 1361.33 -0.0301034 -1.57571 0
M  V30 14781 C 1362.29 0.936465 -2.09196 0
M  V30 14782 C 1363.29 1.25347 -1.00722 0
M  V30 14783 O 1364.48 1.19364 -1.26877 0
M  V30 14784 C 1361.62 2.2527 -2.55864 0
M  V30 14785 H 1362.81 0.489332 -2.95881 0
M  V30 14786 H 1360.36 0.217948 -1.54773 0
M  V30 14787 H 1361.1 2.7461 -1.72511 0
M  V30 14788 H 1360.88 2.03573 -3.35113 0
M  V30 14789 H 1362.37 2.94549 -2.96025 0
M  V30 14790 N 1362.81 1.55714 0.243056 0
M  V30 14791 C 1363.76 1.91467 1.32072 0
M  V30 14792 C 1364.75 0.794182 1.4963 0
M  V30 14793 O 1365.96 0.978835 1.51059 0
M  V30 14794 H 1362.33 0.60815 0.442333 0
M  V30 14795 H 1364.3 2.81433 0.991865 0
M  V30 14796 C 1363.05 2.22917 2.6684 0
M  V30 14797 H 1362.37 3.08639 2.5413 0
M  V30 14798 H 1363.81 2.51833 3.4111 0
M  V30 14799 C 1362.27 1.04683 3.20223 0
M  V30 14800 O 1362.8 0.296806 4.00602 0
M  V30 14801 N 1361.01 0.836419 2.78303 0
M  V30 14802 H 1360.56 1.44804 2.13048 0
M  V30 14803 H 1360.51 0.0470167 3.14365 0
M  V30 14804 N 1364.29 -0.50888 1.49158 0
M  V30 14805 C 1365.24 -1.60799 1.61641 0
M  V30 14806 C 1366.22 -1.53808 0.472434 0
M  V30 14807 O 1367.41 -1.61471 0.724985 0
M  V30 14808 C 1364.54 -2.99444 1.67894 0
M  V30 14809 C 1363.63 -3.1146 2.87843 0
M  V30 14810 N 1364.02 -2.93387 4.12016 0
M  V30 14811 C 1362.32 -3.42549 2.85616 0
M  V30 14812 C 1363.02 -3.09378 4.92606 0
M  V30 14813 N 1361.99 -3.37902 4.2582 0
M  V30 14814 H 1365.8 -1.45468 2.55375 0
M  V30 14815 H 1363.31 -0.714832 1.45822 0
M  V30 14816 H 1365.31 -3.78423 1.74934 0
M  V30 14817 H 1363.97 -3.1585 0.752919 0
M  V30 14818 H 1364.98 -2.69721 4.42121 0
M  V30 14819 H 1361.65 -3.65181 2.02359 0
M  V30 14820 H 1363.04 -2.99964 6.01225 0
M  V30 14821 N 1365.76 -1.381 -0.759346 0
M  V30 14822 C 1367.01 -1.33311 -1.51364 0
M  V30 14823 C 1367.33 0.0761325 -1.95452 0
M  V30 14824 O 1368.53 0.246541 -2.70378 0
M  V30 14825 C 1366.99 -2.34067 -2.73387 0
M  V30 14826 C 1366.6 -3.80583 -2.36348 0
M  V30 14827 C 1368.34 -2.38311 -3.51295 0
M  V30 14828 C 1366.25 -4.73039 -3.54948 0
M  V30 14829 H 1365.18 -0.495512 -0.568317 0
M  V30 14830 H 1367.83 -1.63625 -0.830602 0
M  V30 14831 H 1366.21 -1.96788 -3.43643 0
M  V30 14832 H 1367.38 -4.26769 -1.73796 0
M  V30 14833 H 1365.7 -3.79403 -1.71587 0
M  V30 14834 H 1368.3 -3.04586 -4.39467 0
M  V30 14835 H 1368.64 -1.40034 -3.92041 0
M  V30 14836 H 1369.17 -2.74361 -2.88047 0
M  V30 14837 H 1365.91 -5.7249 -3.19273 0
M  V30 14838 H 1365.43 -4.3155 -4.16563 0
M  V30 14839 H 1367.11 -4.90775 -4.21603 0
M  V30 14840 N 1367.24 0.986894 -1.22875 0
M  V30 14841 C 1368.47 1.76266 -1.08342 0
M  V30 14842 C 1368.89 1.85226 0.365602 0
M  V30 14843 O 1368.24 1.32675 1.25314 0
M  V30 14844 C 1368.29 3.19282 -1.69533 0
M  V30 14845 O 1368.01 3.10796 -3.08768 0
M  V30 14846 C 1369.52 4.13281 -1.60355 0
M  V30 14847 H 1366.74 0.553374 -0.379497 0
M  V30 14848 H 1369.28 1.24033 -1.62592 0
M  V30 14849 H 1367.43 3.68563 -1.19332 0
M  V30 14850 H 1367.85 4.0078 -3.38343 0
M  V30 14851 H 1369.32 5.11359 -2.07884 0
M  V30 14852 H 1369.8 4.356 -0.561182 0
M  V30 14853 H 1370.41 3.699 -2.09891 0
M  V30 14854 N 1368.72 1.0394 1.18466 0
M  V30 14855 C 1369.63 0.639714 2.2571 0
M  V30 14856 C 1370.65 -0.333431 1.70775 0
M  V30 14857 O 1371.82 -0.188676 2.00514 0
M  V30 14858 C 1368.89 0.007559 3.46699 0
M  V30 14859 C 1367.95 1.02955 4.16772 0
M  V30 14860 C 1367.18 0.427464 5.31985 0
M  V30 14861 O 1367.4 -0.766684 5.65224 0
M  V30 14862 O 1366.34 1.15553 5.90704 0
M  V30 14863 H 1370.16 1.53316 2.6216 0
M  V30 14864 H 1367.75 0.810206 1.25523 0
M  V30 14865 H 1369.63 -0.344404 4.1999 0
M  V30 14866 H 1368.31 -0.859727 3.12074 0
M  V30 14867 H 1367.21 1.43328 3.45554 0
M  V30 14868 H 1368.55 1.86756 4.55393 0
M  V30 14869 N 1370.2 -1.34667 0.818693 0
M  V30 14870 C 1371.11 -2.33375 0.239429 0
M  V30 14871 C 1372.12 -1.62428 -0.623957 0
M  V30 14872 O 1373.3 -1.94223 -0.532854 0
M  V30 14873 C 1370.37 -3.41598 -0.59258 0
M  V30 14874 C 1369.43 -4.28301 0.292712 0
M  V30 14875 C 1368.66 -5.31356 -0.499682 0
M  V30 14876 O 1368.88 -5.43426 -1.73334 0
M  V30 14877 O 1367.82 -6.01789 0.115778 0
M  V30 14878 H 1371.64 -2.84738 1.05631 0
M  V30 14879 H 1369.23 -1.37651 0.58074 0
M  V30 14880 H 1371.11 -4.07692 -1.06607 0
M  V30 14881 H 1369.78 -2.92486 -1.38685 0
M  V30 14882 H 1368.69 -3.65145 0.81361 0
M  V30 14883 H 1370.02 -4.80843 1.05123 0
M  V30 14884 N 1371.68 -0.573274 -1.46804 0
M  V30 14885 C 1372.93 -0.0530267 -2.0163 0
M  V30 14886 C 1373.24 1.31124 -1.45141 0
M  V30 14887 O 1374.44 1.92231 -1.91728 0
M  V30 14888 C 1372.9 -0.0442411 -3.59873 0
M  V30 14889 C 1372.51 -1.40625 -4.25357 0
M  V30 14890 C 1374.25 0.422556 -4.22392 0
M  V30 14891 C 1372.16 -1.3557 -5.75652 0
M  V30 14892 H 1371.09 -0.0160537 -0.753829 0
M  V30 14893 H 1373.74 -0.723518 -1.68634 0
M  V30 14894 H 1372.12 0.692225 -3.89903 0
M  V30 14895 H 1373.3 -2.1617 -4.06949 0
M  V30 14896 H 1371.61 -1.81229 -3.74893 0
M  V30 14897 H 1374.21 0.479021 -5.3255 0
M  V30 14898 H 1374.55 1.43806 -3.90673 0
M  V30 14899 H 1375.08 -0.259551 -3.96952 0
M  V30 14900 H 1371.82 -2.34772 -6.12015 0
M  V30 14901 H 1371.34 -0.642309 -5.96351 0
M  V30 14902 H 1373.02 -1.06458 -6.38182 0
M  V30 14903 N 1373.15 1.5451 -0.310553 0
M  V30 14904 C 1374.38 2.05204 0.301013 0
M  V30 14905 C 1374.8 1.1859 1.46007 0
M  V30 14906 O 1374.16 0.192081 1.8028 0
M  V30 14907 C 1374.21 3.53221 0.725767 0
M  V30 14908 O 1373.31 3.69596 1.82955 0
M  V30 14909 H 1372.66 0.661566 0.0568026 0
M  V30 14910 H 1375.19 1.99473 -0.455178 0
M  V30 14911 H 1375.2 3.9525 1.01198 0
M  V30 14912 H 1373.87 4.15721 -0.122046 0
M  V30 14913 H 1372.45 3.39472 1.54315 0
M  V30 14914 N 1374.63 0.0384594 1.57553 0
M  V30 14915 C 1375.58 -0.940256 2.10779 0
M  V30 14916 C 1376.55 -1.31705 1.01208 0
M  V30 14917 O 1377.74 -1.40874 1.28683 0
M  V30 14918 C 1374.88 -2.21419 2.64703 0
M  V30 14919 C 1373.99 -1.89302 3.88315 0
M  V30 14920 C 1373.12 -3.1106 4.30599 0
M  V30 14921 C 1372.16 -2.74805 5.46945 0
M  V30 14922 N 1371.3 -3.89217 5.84341 0
M  V30 14923 H 1376.14 -0.479458 2.94118 0
M  V30 14924 H 1373.68 -0.22505 1.45368 0
M  V30 14925 H 1375.63 -2.95946 2.94061 0
M  V30 14926 H 1374.26 -2.65099 1.84181 0
M  V30 14927 H 1373.32 -1.04977 3.65628 0
M  V30 14928 H 1374.63 -1.58607 4.72912 0
M  V30 14929 H 1373.78 -3.93898 4.61442 0
M  V30 14930 H 1372.52 -3.44924 3.44788 0
M  V30 14931 H 1371.53 -1.9038 5.15786 0
M  V30 14932 H 1372.75 -2.42147 6.34462 0
M  V30 14933 H 1370.7 -4.22905 5.01485 0
M  V30 14934 H 1370.61 -3.62177 6.63599 0
M  V30 14935 H 1371.88 -4.72732 6.19794 0
M  V30 14936 N 1376.11 -1.55841 -0.234795 0
M  V30 14937 C 1377.36 -1.77438 -0.959094 0
M  V30 14938 C 1377.67 -0.604621 -1.86021 0
M  V30 14939 O 1378.88 -0.703897 -2.62217 0
M  V30 14940 C 1377.34 -3.14182 -1.7555 0
M  V30 14941 C 1376.94 -4.38843 -0.90118 0
M  V30 14942 C 1378.69 -3.45112 -2.47181 0
M  V30 14943 C 1376.59 -5.66614 -1.69417 0
M  V30 14944 H 1375.52 -0.661503 -0.361843 0
M  V30 14945 H 1378.18 -1.82255 -0.213364 0
M  V30 14946 H 1376.56 -3.03505 -2.54364 0
M  V30 14947 H 1377.73 -4.60541 -0.154515 0
M  V30 14948 H 1376.05 -4.15335 -0.297631 0
M  V30 14949 H 1378.64 -4.37794 -3.06986 0
M  V30 14950 H 1378.99 -2.66995 -3.19405 0
M  V30 14951 H 1379.52 -3.57059 -1.75368 0
M  V30 14952 H 1376.26 -6.47587 -1.01545 0
M  V30 14953 H 1375.78 -5.48998 -2.4158 0
M  V30 14954 H 1377.46 -6.06311 -2.25824 0
M  V30 14955 N 1377.59 0.500963 -1.49426 0
M  V30 14956 C 1378.54 1.6025 -1.66098 0
M  V30 14957 C 1379.51 1.58318 -0.502453 0
M  V30 14958 O 1380.69 1.76304 -0.729482 0
M  V30 14959 C 1377.83 2.98396 -1.73361 0
M  V30 14960 C 1376.94 3.10343 -3.00518 0
M  V30 14961 C 1376.08 4.39222 -2.9876 0
M  V30 14962 C 1375.12 4.44803 -4.20496 0
M  V30 14963 N 1374.26 5.6511 -4.16648 0
M  V30 14964 H 1379.1 1.45342 -2.60153 0
M  V30 14965 H 1376.63 0.707147 -1.28988 0
M  V30 14966 H 1378.59 3.78467 -1.75553 0
M  V30 14967 H 1377.22 3.12007 -0.827718 0
M  V30 14968 H 1376.27 2.23336 -3.07937 0
M  V30 14969 H 1377.58 3.10327 -3.90511 0
M  V30 14970 H 1376.74 5.27613 -2.99515 0
M  V30 14971 H 1375.48 4.41804 -2.06545 0
M  V30 14972 H 1374.48 3.54814 -4.19985 0
M  V30 14973 H 1375.71 4.43937 -5.13903 0
M  V30 14974 H 1373.65 5.68533 -3.2727 0
M  V30 14975 H 1373.57 5.6671 -5.00376 0
M  V30 14976 H 1374.84 6.55708 -4.21506 0
M  V30 14977 N 1379.07 1.38501 0.752011 0
M  V30 14978 C 1380.32 1.34529 1.50819 0
M  V30 14979 C 1380.64 -0.0636155 1.94896 0
M  V30 14980 O 1379.91 -1.01161 1.6776 0
M  V30 14981 H 1378.49 0.49501 0.559441 0
M  V30 14982 H 1381.15 1.73196 0.893822 0
M  V30 14983 H 1380.24 1.99713 2.39835 0
M  V30 14984 N 1380.55 -0.980364 1.23396 0
M  V30 14985 C 1381.77 -1.75689 1.09275 0
M  V30 14986 C 1382.19 -1.85418 -0.355773 0
M  V30 14987 O 1381.55 -1.33337 -1.24609 0
M  V30 14988 C 1381.6 -3.18378 1.71223 0
M  V30 14989 O 1381.32 -3.09154 3.10411 0
M  V30 14990 C 1382.82 -4.12425 1.62545 0
M  V30 14991 H 1380.04 -0.551354 0.382427 0
M  V30 14992 H 1382.58 -1.23169 1.63247 0
M  V30 14993 H 1380.74 -3.67925 1.21285 0
M  V30 14994 H 1381.15 -3.9898 3.40464 0
M  V30 14995 H 1382.63 -5.1025 2.10592 0
M  V30 14996 H 1383.1 -4.35296 0.584275 0
M  V30 14997 H 1383.71 -3.68782 2.1185 0
M  V30 14998 N 1382.02 -1.04567 -1.17913 0
M  V30 14999 C 1383.27 -0.747179 -1.8735 0
M  V30 15000 C 1383.59 0.728274 -1.81537 0
M  V30 15001 O 1384.79 1.14048 -2.46385 0
M  V30 15002 C 1383.25 -1.28629 -3.36129 0
M  V30 15003 C 1382.86 -2.79073 -3.5046 0
M  V30 15004 C 1384.6 -1.06455 -4.10935 0
M  V30 15005 C 1382.51 -3.26316 -4.93226 0
M  V30 15006 H 1381.44 -0.275807 -0.701745 0
M  V30 15007 H 1384.09 -1.26215 -1.33199 0
M  V30 15008 H 1382.47 -0.699151 -3.89779 0
M  V30 15009 H 1383.64 -3.43587 -3.07057 0
M  V30 15010 H 1381.96 -2.99716 -2.89066 0
M  V30 15011 H 1384.56 -1.3926 -5.16247 0
M  V30 15012 H 1384.9 -0.00201298 -4.163 0
M  V30 15013 H 1385.43 -1.61656 -3.63472 0
M  V30 15014 H 1382.17 -4.31972 -4.93032 0
M  V30 15015 H 1381.69 -2.6654 -5.37323 0
M  V30 15016 H 1383.37 -3.2063 -5.61966 0
M  V30 15017 N 1383.5 1.34231 -0.825823 0
M  V30 15018 C 1384.75 1.98196 -0.415276 0
M  V30 15019 C 1385.08 1.65463 1.02236 0
M  V30 15020 O 1384.33 0.919868 1.72734 0
M  V30 15021 C 1384.63 3.52861 -0.56778 0
M  V30 15022 C 1384.3 4.05512 -1.97157 0
M  V30 15023 C 1382.96 4.19602 -2.35557 0
M  V30 15024 C 1385.31 4.33798 -2.88909 0
M  V30 15025 C 1382.64 4.59307 -3.6504 0
M  V30 15026 C 1384.99 4.74949 -4.17859 0
M  V30 15027 C 1383.65 4.87245 -4.56233 0
M  V30 15028 H 1382.92 0.725251 -0.15196 0
M  V30 15029 H 1385.57 1.60126 -1.05033 0
M  V30 15030 H 1383.88 3.9151 0.15065 0
M  V30 15031 H 1385.57 4.00336 -0.230608 0
M  V30 15032 H 1382.16 3.9501 -1.66328 0
M  V30 15033 H 1386.35 4.22448 -2.60483 0
M  V30 15034 H 1381.6 4.67017 -3.94594 0
M  V30 15035 H 1385.78 4.95795 -4.8904 0
M  V30 15036 H 1383.4 5.17768 -5.56615 0
M  V30 15037 N 1384.98 0.581051 1.46498 0
M  V30 15038 C 1386.26 -0.000789846 1.956 0
M  V30 15039 C 1386.64 -1.46104 1.52371 0
M  V30 15040 O 1385.98 -2.15005 0.773623 0
M  V30 15041 C 1386.19 0.169534 3.48588 0
M  V30 15042 C 1387.54 0.036499 4.24584 0
M  V30 15043 O 1388.57 0.0982852 3.56064 0
M  V30 15044 O 1387.43 -0.100571 5.46407 0
M  V30 15045 H 1384.52 -0.050749 0.825441 0
M  V30 15046 H 1387.07 0.649252 1.56789 0
M  V30 15047 H 1385.84 1.18473 3.72934 0
M  V30 15048 H 1385.46 -0.517017 3.94224 0
M  V30 15049 N 1386.46 -1.54343 0.318742 0
M  V30 15050 C 1387.69 -2.04894 -0.287378 0
M  V30 15051 C 1388.1 -1.19514 -1.46157 0
M  V30 15052 O 1387.46 -0.224722 -1.81111 0
M  V30 15053 C 1387.51 -3.54124 -0.726505 0
M  V30 15054 O 1387.23 -4.36261 0.400968 0
M  V30 15055 C 1388.73 -4.20748 -1.39594 0
M  V30 15056 H 1385.95 -0.668323 -0.0598724 0
M  V30 15057 H 1388.49 -1.99177 0.463531 0
M  V30 15058 H 1386.65 -3.60145 -1.4274 0
M  V30 15059 H 1387.06 -5.2447 0.0558714 0
M  V30 15060 H 1388.54 -5.26632 -1.65418 0
M  V30 15061 H 1389.01 -3.71566 -2.3417 0
M  V30 15062 H 1389.62 -4.18852 -0.737749 0
M  V30 15063 N 1387.94 -0.0468143 -1.5753 0
M  V30 15064 C 1389.18 0.628869 -1.92803 0
M  V30 15065 C 1389.51 1.70751 -0.925083 0
M  V30 15066 O 1388.79 1.94437 0.0495821 0
M  V30 15067 C 1389.07 1.22899 -3.38479 0
M  V30 15068 C 1388.93 0.158707 -4.4952 0
M  V30 15069 C 1390.24 2.1419 -3.84461 0
M  V30 15070 H 1387.36 0.227137 -0.701126 0
M  V30 15071 H 1390.01 -0.107689 -1.89695 0
M  V30 15072 H 1388.16 1.85674 -3.41259 0
M  V30 15073 H 1389.83 -0.472963 -4.58869 0
M  V30 15074 H 1388.07 -0.51375 -4.30747 0
M  V30 15075 H 1388.74 0.618545 -5.48523 0
M  V30 15076 H 1391.22 1.61382 -3.8353 0
M  V30 15077 H 1390.09 2.53125 -4.87051 0
M  V30 15078 H 1390.35 3.04024 -3.2097 0
M  V30 15079 N 1389.41 1.55964 0.226527 0
M  V30 15080 C 1390.36 1.92857 1.30034 0
M  V30 15081 C 1391.36 0.810008 1.48779 0
M  V30 15082 O 1392.56 0.994801 1.50012 0
M  V30 15083 H 1388.94 0.612807 0.435857 0
M  V30 15084 H 1390.91 2.82469 0.96196 0
M  V30 15085 C 1389.66 2.25735 2.6446 0
M  V30 15086 H 1388.98 3.11317 2.50842 0
M  V30 15087 H 1390.42 2.55437 3.3842 0
M  V30 15088 C 1388.88 1.08074 3.19095 0
M  V30 15089 O 1389.41 0.339279 4.00265 0
M  V30 15090 N 1387.62 0.86589 2.774 0
M  V30 15091 H 1387.16 1.47055 2.11501 0
M  V30 15092 H 1387.12 0.0803566 3.14297 0
M  V30 15093 N 1390.89 -0.493031 1.4969 0
M  V30 15094 C 1392.14 -1.24418 1.59263 0
M  V30 15095 C 1392.46 -1.92908 0.284882 0
M  V30 15096 O 1391.73 -1.83108 -0.696302 0
M  V30 15097 H 1390.31 -0.462223 0.586821 0
M  V30 15098 H 1392.97 -0.570713 1.86357 0
M  V30 15099 H 1392.07 -2.00386 2.39274 0
M  V30 15100 N 1392.37 -1.38898 -0.744656 0
M  V30 15101 C 1393.32 -1.36845 -1.85855 0
M  V30 15102 C 1394.29 -0.2296 -1.64505 0
M  V30 15103 O 1395.47 -0.423221 -1.86047 0
M  V30 15104 C 1392.61 -1.20818 -3.2326 0
M  V30 15105 C 1391.73 -2.44166 -3.5638 0
M  V30 15106 C 1390.86 -2.20801 -4.83136 0
M  V30 15107 C 1389.9 -3.39874 -5.0907 0
M  V30 15108 N 1389.04 -3.15888 -6.27024 0
M  V30 15109 H 1393.88 -2.32068 -1.86945 0
M  V30 15110 H 1391.41 -1.15289 -0.913611 0
M  V30 15111 H 1393.37 -1.0954 -4.02563 0
M  V30 15112 H 1392 -0.292295 -3.21474 0
M  V30 15113 H 1391.05 -2.66083 -2.71852 0
M  V30 15114 H 1392.37 -3.32885 -3.71469 0
M  V30 15115 H 1391.52 -2.0671 -5.704 0
M  V30 15116 H 1390.26 -1.29462 -4.70203 0
M  V30 15117 H 1389.26 -3.54474 -4.20271 0
M  V30 15118 H 1390.49 -4.32102 -5.23894 0
M  V30 15119 H 1388.43 -2.27204 -6.15398 0
M  V30 15120 H 1388.35 -3.9816 -6.42655 0
M  V30 15121 H 1389.62 -3.0547 -7.17153 0
M  V30 15122 N 1393.85 0.973806 -1.23914 0
M  V30 15123 C 1394.78 2.08526 -1.05068 0
M  V30 15124 C 1395.76 1.70065 0.0344761 0
M  V30 15125 O 1396.94 1.93755 -0.131432 0
M  V30 15126 C 1394.07 3.41198 -0.648165 0
M  V30 15127 C 1393.03 3.9359 -1.6814 0
M  V30 15128 C 1392.35 5.22534 -1.13414 0
M  V30 15129 C 1393.65 4.22116 -3.07597 0
M  V30 15130 H 1395.35 2.24551 -1.98034 0
M  V30 15131 H 1392.89 1.07905 -0.953546 0
M  V30 15132 H 1394.85 4.18383 -0.50334 0
M  V30 15133 H 1393.57 3.25056 0.317182 0
M  V30 15134 H 1392.23 3.18555 -1.81434 0
M  V30 15135 H 1391.88 5.02747 -0.159578 0
M  V30 15136 H 1391.58 5.58555 -1.82456 0
M  V30 15137 H 1393.1 6.02334 -1.0013 0
M  V30 15138 H 1394.52 4.90027 -2.97567 0
M  V30 15139 H 1392.91 4.69352 -3.73937 0
M  V30 15140 H 1393.98 3.29128 -3.56094 0
M  V30 15141 N 1395.33 1.05191 1.17357 0
M  V30 15142 C 1396.57 0.763113 1.87895 0
M  V30 15143 C 1396.91 -0.708071 1.80831 0
M  V30 15144 O 1396.18 -1.51777 1.21631 0
M  V30 15145 C 1396.46 1.2442 3.37923 0
M  V30 15146 C 1396.32 2.77832 3.53737 0
M  V30 15147 C 1397.64 0.843209 4.31947 0
M  V30 15148 H 1394.75 0.27869 0.682276 0
M  V30 15149 H 1397.4 1.3059 1.38008 0
M  V30 15150 H 1395.55 0.782438 3.80539 0
M  V30 15151 H 1397.22 3.32131 3.20135 0
M  V30 15152 H 1395.46 3.17108 2.96015 0
M  V30 15153 H 1396.13 3.06555 4.59052 0
M  V30 15154 H 1398.61 1.24073 3.97171 0
M  V30 15155 H 1397.48 1.20743 5.35455 0
M  V30 15156 H 1397.75 -0.252802 4.41377 0
M  V30 15157 N 1396.8 -1.33791 0.83293 0
M  V30 15158 C 1397.75 -2.29332 0.25989 0
M  V30 15159 C 1398.72 -1.54056 -0.620965 0
M  V30 15160 O 1399.91 -1.82382 -0.560492 0
M  V30 15161 C 1397.05 -3.40461 -0.563964 0
M  V30 15162 C 1396.16 -4.30658 0.34025 0
M  V30 15163 C 1395.29 -5.28897 -0.494134 0
M  V30 15164 C 1394.33 -6.10733 0.408842 0
M  V30 15165 N 1393.47 -7.01032 -0.38706 0
M  V30 15166 H 1398.31 -2.77743 1.07996 0
M  V30 15167 H 1395.85 -1.3667 0.544043 0
M  V30 15168 H 1397.81 -4.03587 -1.05704 0
M  V30 15169 H 1396.44 -2.93258 -1.34905 0
M  V30 15170 H 1395.49 -3.68305 0.9516 0
M  V30 15171 H 1396.8 -4.87962 1.03415 0
M  V30 15172 H 1395.95 -5.97522 -1.05128 0
M  V30 15173 H 1394.69 -4.72155 -1.2215 0
M  V30 15174 H 1393.7 -5.41031 0.978046 0
M  V30 15175 H 1394.92 -6.69557 1.13448 0
M  V30 15176 H 1392.87 -6.46747 -1.09792 0
M  V30 15177 H 1392.79 -7.55592 0.248249 0
M  V30 15178 H 1394.05 -7.73973 -0.926631 0
M  V30 15179 N 1398.28 -0.588812 -1.46187 0
M  V30 15180 C 1399.23 0.140932 -2.30369 0
M  V30 15181 C 1400.2 0.878216 -1.40984 0
M  V30 15182 O 1401.38 0.867678 -1.69929 0
M  V30 15183 C 1398.52 1.14468 -3.25563 0
M  V30 15184 C 1397.64 0.410215 -4.30048 0
M  V30 15185 C 1396.77 1.40203 -5.12364 0
M  V30 15186 C 1395.81 0.65431 -6.08593 0
M  V30 15187 N 1394.95 1.59448 -6.83755 0
M  V30 15188 H 1399.79 -0.582976 -2.92242 0
M  V30 15189 H 1397.33 -0.299302 -1.44023 0
M  V30 15190 H 1399.28 1.73957 -3.79203 0
M  V30 15191 H 1397.91 1.83623 -2.65485 0
M  V30 15192 H 1396.97 -0.299822 -3.79217 0
M  V30 15193 H 1398.28 -0.174043 -4.98496 0
M  V30 15194 H 1397.43 2.06953 -5.70312 0
M  V30 15195 H 1396.17 2.02022 -4.4389 0
M  V30 15196 H 1395.18 -0.0269371 -5.49793 0
M  V30 15197 H 1396.4 0.0414285 -6.79087 0
M  V30 15198 H 1394.35 2.20066 -6.17986 0
M  V30 15199 H 1394.26 1.06318 -7.48487 0
M  V30 15200 H 1395.53 2.25215 -7.46256 0
M  V30 15201 N 1399.76 1.54172 -0.326923 0
M  V30 15202 C 1401.01 2.00926 0.275047 0
M  V30 15203 C 1401.34 1.21469 1.51522 0
M  V30 15204 O 1400.61 0.297871 1.92206 0
M  V30 15205 C 1400.9 3.54967 0.605833 0
M  V30 15206 C 1400.75 4.45147 -0.645279 0
M  V30 15207 C 1402.07 4.16489 1.42213 0
M  V30 15208 H 1399.19 0.730389 0.098495 0
M  V30 15209 H 1401.83 1.84735 -0.444168 0
M  V30 15210 H 1399.98 3.68895 1.21857 0
M  V30 15211 H 1401.65 4.43085 -1.2835 0
M  V30 15212 H 1399.9 4.14686 -1.27349 0
M  V30 15213 H 1400.57 5.50763 -0.36932 0
M  V30 15214 H 1403.04 4.06158 0.904172 0
M  V30 15215 H 1401.92 5.24377 1.62234 0
M  V30 15216 H 1402.18 3.70032 2.41928 0
M  V30 15217 N 1401.24 0.0551678 1.57503 0
M  V30 15218 C 1402.19 -0.935665 2.12951 0
M  V30 15219 C 1403.18 -1.31954 1.06229 0
M  V30 15220 O 1404.39 -1.29873 1.24632 0
M  V30 15221 H 1400.76 -0.319618 0.680697 0
M  V30 15222 H 1402.73 -0.442937 2.95094 0
M  V30 15223 C 1401.48 -2.19977 2.69268 0
M  V30 15224 H 1400.8 -1.91319 3.51051 0
M  V30 15225 H 1402.24 -2.87456 3.11681 0
M  V30 15226 C 1400.7 -2.94714 1.63233 0
M  V30 15227 O 1401.23 -3.87803 1.04747 0
M  V30 15228 N 1399.44 -2.57518 1.34659 0
M  V30 15229 H 1398.99 -1.81894 1.82407 0
M  V30 15230 H 1398.94 -3.07829 0.639425 0
M  V30 15231 N 1402.72 -1.56081 -0.218252 0
M  V30 15232 C 1403.65 -1.95706 -1.27364 0
M  V30 15233 C 1404.63 -0.825731 -1.48713 0
M  V30 15234 O 1405.81 -1.08829 -1.60841 0
M  V30 15235 C 1402.94 -2.2766 -2.62275 0
M  V30 15236 C 1401.9 -3.43314 -2.55576 0
M  V30 15237 C 1401.22 -3.60883 -3.94547 0
M  V30 15238 C 1402.52 -4.7819 -2.10075 0
M  V30 15239 H 1404.22 -2.84113 -0.944459 0
M  V30 15240 H 1401.76 -1.36693 -0.452882 0
M  V30 15241 H 1403.72 -2.53973 -3.36268 0
M  V30 15242 H 1402.44 -1.3611 -2.96887 0
M  V30 15243 H 1401.1 -3.17056 -1.8404 0
M  V30 15244 H 1400.75 -2.66703 -4.26472 0
M  V30 15245 H 1400.45 -4.38674 -3.90946 0
M  V30 15246 H 1401.97 -3.89547 -4.70197 0
M  V30 15247 H 1403.38 -5.03686 -2.73813 0
M  V30 15248 H 1401.78 -5.59287 -2.17527 0
M  V30 15249 H 1402.85 -4.73325 -1.05314 0
M  V30 15250 N 1404.2 0.485086 -1.49949 0
M  V30 15251 C 1405.47 1.24639 -1.50747 0
M  V30 15252 C 1405.85 2.09683 -0.244162 0
M  V30 15253 O 1405.2 2.1503 0.772949 0
M  V30 15254 C 1405.41 2.08946 -2.7954 0
M  V30 15255 C 1406.76 2.67604 -3.29656 0
M  V30 15256 O 1407.78 2.192 -2.80766 0
M  V30 15257 O 1406.64 3.55761 -4.14845 0
M  V30 15258 H 1403.74 0.564849 -0.604049 0
M  V30 15259 H 1406.28 0.498052 -1.62227 0
M  V30 15260 H 1405.05 1.46185 -3.62968 0
M  V30 15261 H 1404.68 2.90941 -2.70997 0
M  V30 15262 N 1405.67 1.39291 0.737279 0
M  V30 15263 C 1406.9 1.39659 1.52653 0
M  V30 15264 C 1407.32 -0.00948259 1.88798 0
M  V30 15265 O 1406.67 -0.980249 1.53939 0
M  V30 15266 C 1406.72 2.2674 2.81552 0
M  V30 15267 O 1406.45 3.61871 2.46943 0
M  V30 15268 C 1407.95 2.35466 3.75594 0
M  V30 15269 H 1405.17 0.477108 0.471814 0
M  V30 15270 H 1407.71 1.83077 0.911205 0
M  V30 15271 H 1405.87 1.86741 3.39421 0
M  V30 15272 H 1406.28 4.07897 3.29728 0
M  V30 15273 H 1407.75 3.00649 4.62941 0
M  V30 15274 H 1408.23 1.37314 4.17183 0
M  V30 15275 H 1408.84 2.75925 3.23644 0
M  V30 15276 N 1407.15 -0.967221 1.24429 0
M  V30 15277 C 1408.38 -1.7452 1.11133 0
M  V30 15278 C 1408.79 -1.85785 -0.336087 0
M  V30 15279 O 1408.15 -1.34652 -1.23188 0
M  V30 15280 C 1408.2 -3.16544 1.74591 0
M  V30 15281 O 1407.92 -3.05845 3.13673 0
M  V30 15282 C 1409.42 -4.10677 1.6691 0
M  V30 15283 H 1406.64 -0.547267 0.388253 0
M  V30 15284 H 1409.19 -1.2143 1.64545 0
M  V30 15285 H 1407.34 -3.66618 1.2518 0
M  V30 15286 H 1407.76 -3.95346 3.44676 0
M  V30 15287 H 1409.23 -5.07987 2.15992 0
M  V30 15288 H 1409.71 -4.34652 0.630411 0
M  V30 15289 H 1410.31 -3.66514 2.15749 0
M  V30 15290 N 1408.63 -1.05812 -1.16797 0
M  V30 15291 C 1409.58 -0.634669 -2.18988 0
M  V30 15292 C 1410.56 0.332122 -1.57435 0
M  V30 15293 O 1411.76 0.148346 -1.76377 0
M  V30 15294 C 1408.88 -0.0174742 -3.43296 0
M  V30 15295 C 1407.97 -1.00847 -4.11935 0
M  V30 15296 N 1408.36 -2.18223 -4.56303 0
M  V30 15297 C 1406.66 -0.838325 -4.3805 0
M  V30 15298 C 1407.36 -2.80967 -5.09345 0
M  V30 15299 N 1406.34 -2.08725 -5.01931 0
M  V30 15300 H 1410.14 -1.52888 -2.51003 0
M  V30 15301 H 1407.65 -0.929125 -1.33195 0
M  V30 15302 H 1409.65 0.303692 -4.15792 0
M  V30 15303 H 1408.31 0.872052 -3.1277 0
M  V30 15304 H 1409.32 -2.56025 -4.5019 0
M  V30 15305 H 1406 -0.000376066 -4.175 0
M  V30 15306 H 1407.39 -3.80541 -5.53749 0
M  V30 15307 N 1410.11 1.33347 -0.840014 0
M  V30 15308 C 1411.02 2.32965 -0.276527 0
M  V30 15309 C 1412.03 1.634 0.598037 0
M  V30 15310 O 1413.21 1.95046 0.501888 0
M  V30 15311 C 1410.27 3.42498 0.53816 0
M  V30 15312 C 1409.34 4.27781 -0.360814 0
M  V30 15313 C 1408.57 5.32083 0.415085 0
M  V30 15314 O 1408.79 5.46115 1.64666 0
M  V30 15315 O 1407.73 6.01528 -0.211503 0
M  V30 15316 H 1411.55 2.83022 -1.10147 0
M  V30 15317 H 1409.14 1.3671 -0.602566 0
M  V30 15318 H 1411.02 4.09336 1.00108 0
M  V30 15319 H 1409.69 2.94655 1.34015 0
M  V30 15320 H 1408.6 3.63805 -0.871598 0
M  V30 15321 H 1409.93 4.7911 -1.1276 0
M  V30 15322 N 1411.59 0.596556 1.45873 0
M  V30 15323 C 1412.83 0.0875879 2.02611 0
M  V30 15324 C 1413.16 -1.27438 1.46538 0
M  V30 15325 O 1412.44 -1.83815 0.635779 0
M  V30 15326 C 1412.72 0.0367394 3.60081 0
M  V30 15327 C 1412.58 1.42859 4.26511 0
M  V30 15328 C 1413.89 -0.656795 4.35171 0
M  V30 15329 H 1411.01 0.0333031 0.736247 0
M  V30 15330 H 1413.66 0.766413 1.73857 0
M  V30 15331 H 1411.81 -0.541345 3.8471 0
M  V30 15332 H 1413.48 2.0529 4.13102 0
M  V30 15333 H 1411.72 1.99243 3.85337 0
M  V30 15334 H 1412.39 1.34535 5.35354 0
M  V30 15335 H 1414.87 -0.165553 4.15771 0
M  V30 15336 H 1413.74 -0.661445 5.449 0
M  V30 15337 H 1414 -1.72079 4.07236 0
M  V30 15338 N 1413.06 -1.53996 0.335095 0
M  V30 15339 C 1414.01 -2.26221 -0.541007 0
M  V30 15340 C 1415.01 -1.28053 -1.109 0
M  V30 15341 O 1416.21 -1.4579 -1.05571 0
M  V30 15342 H 1412.59 -0.726775 -0.193136 0
M  V30 15343 H 1414.56 -2.98263 0.0902792 0
M  V30 15344 C 1413.31 -3.04173 -1.68445 0
M  V30 15345 H 1412.63 -3.79537 -1.25665 0
M  V30 15346 H 1414.07 -3.57937 -2.27282 0
M  V30 15347 C 1412.53 -2.13162 -2.6089 0
M  V30 15348 O 1413.06 -1.7221 -3.62914 0
M  V30 15349 N 1411.26 -1.78414 -2.29384 0
M  V30 15350 H 1410.81 -2.11914 -1.46458 0
M  V30 15351 H 1410.77 -1.178 -2.91497 0
M  V30 15352 N 1414.54 -0.0635198 -1.57472 0
M  V30 15353 C 1415.77 0.616735 -1.97494 0
M  V30 15354 C 1416.18 1.63646 -0.941568 0
M  V30 15355 O 1415.54 1.82355 0.0727768 0
M  V30 15356 C 1415.59 1.29268 -3.37597 0
M  V30 15357 O 1415.31 0.313781 -4.36975 0
M  V30 15358 C 1416.81 2.06154 -3.92448 0
M  V30 15359 H 1414.03 0.167753 -0.649692 0
M  V30 15360 H 1416.58 -0.133475 -2.04064 0
M  V30 15361 H 1414.73 1.99404 -3.3214 0
M  V30 15362 H 1415.15 0.797723 -5.18398 0
M  V30 15363 H 1416.62 2.48853 -4.92723 0
M  V30 15364 H 1417.1 2.91474 -3.28541 0
M  V30 15365 H 1417.7 1.40903 -4.01281 0
M  V30 15366 N 1416.02 1.56195 0.209972 0
M  V30 15367 C 1416.95 1.96378 1.26324 0
M  V30 15368 C 1417.93 0.833606 1.48273 0
M  V30 15369 O 1419.12 1.0968 1.60262 0
M  V30 15370 C 1416.25 2.29048 2.61064 0
M  V30 15371 C 1415.2 3.44665 2.53752 0
M  V30 15372 C 1414.53 3.6297 3.92628 0
M  V30 15373 C 1415.83 4.79297 2.07536 0
M  V30 15374 H 1417.52 2.8461 0.929379 0
M  V30 15375 H 1415.07 1.36931 0.445627 0
M  V30 15376 H 1417.02 2.55752 3.34916 0
M  V30 15377 H 1415.74 1.37682 2.96161 0
M  V30 15378 H 1414.4 3.18028 1.82356 0
M  V30 15379 H 1414.05 2.68961 4.25052 0
M  V30 15380 H 1413.75 4.40741 3.88614 0
M  V30 15381 H 1415.27 3.92035 4.68125 0
M  V30 15382 H 1416.69 5.05131 2.71138 0
M  V30 15383 H 1415.08 5.60433 2.14557 0
M  V30 15384 H 1416.15 4.73877 1.02802 0
M  V30 15385 N 1417.5 -0.477127 1.50204 0
M  V30 15386 C 1418.45 -1.59664 1.69145 0
M  V30 15387 C 1419.44 -1.59971 0.557294 0
M  V30 15388 O 1420.65 -1.64192 0.737623 0
M  V30 15389 H 1417.02 -0.529706 0.533775 0
M  V30 15390 H 1418.99 -1.40848 2.63067 0
M  V30 15391 C 1417.74 -2.97647 1.79726 0
M  V30 15392 H 1417.06 -2.98127 2.66383 0
M  V30 15393 H 1418.5 -3.75453 1.97006 0
M  V30 15394 C 1416.96 -3.32422 0.547464 0
M  V30 15395 O 1417.49 -4.00454 -0.316115 0
M  V30 15396 N 1415.7 -2.87788 0.40328 0
M  V30 15397 H 1415.25 -2.32598 1.10706 0
M  V30 15398 H 1415.2 -3.11421 -0.431797 0
M  V30 15399 N 1418.98 -1.3968 -0.729882 0
M  V30 15400 C 1419.94 -1.38577 -1.82562 0
M  V30 15401 C 1420.94 -0.281994 -1.58308 0
M  V30 15402 O 1422.13 -0.540165 -1.65614 0
M  V30 15403 C 1419.26 -1.16343 -3.20433 0
M  V30 15404 H 1420.45 -2.36086 -1.84942 0
M  V30 15405 H 1418.01 -1.25319 -0.934063 0
M  V30 15406 H 1418.74 -0.195372 -3.23711 0
M  V30 15407 H 1418.53 -1.96282 -3.39435 0
M  V30 15408 H 1420.02 -1.18325 -4.00486 0
M  V30 15409 N 1420.45 0.960609 -1.2494 0
M  V30 15410 C 1421.42 2.03791 -1.04891 0
M  V30 15411 C 1422.42 1.608 -0.00375792 0
M  V30 15412 O 1423.61 1.72463 -0.24539 0
M  V30 15413 C 1420.74 3.35733 -0.591309 0
M  V30 15414 H 1421.93 2.2301 -2.00516 0
M  V30 15415 H 1419.49 1.13686 -1.07263 0
M  V30 15416 H 1420.22 3.22207 0.367816 0
M  V30 15417 H 1420.01 3.68283 -1.34574 0
M  V30 15418 H 1421.5 4.14921 -0.472283 0
M  V30 15419 N 1421.93 1.0643 1.16234 0
M  V30 15420 C 1423.18 0.78184 1.86798 0
M  V30 15421 C 1423.51 -0.691734 1.81784 0
M  V30 15422 O 1422.76 -1.52271 1.22931 0
M  V30 15423 C 1423.06 1.22348 3.35806 0
M  V30 15424 C 1422.73 2.7014 3.61019 0
M  V30 15425 C 1421.39 3.1051 3.6761 0
M  V30 15426 C 1423.74 3.65582 3.71482 0
M  V30 15427 C 1421.07 4.45159 3.82165 0
M  V30 15428 C 1423.42 4.99981 3.87559 0
M  V30 15429 C 1422.09 5.39986 3.92392 0
M  V30 15430 H 1421.36 0.286096 0.683542 0
M  V30 15431 H 1424 1.33364 1.37427 0
M  V30 15432 H 1422.31 0.590896 3.87319 0
M  V30 15433 H 1424 0.981959 3.88791 0
M  V30 15434 H 1420.59 2.37884 3.56524 0
M  V30 15435 H 1424.78 3.35525 3.657 0
M  V30 15436 H 1420.03 4.75637 3.8416 0
M  V30 15437 H 1424.21 5.73817 3.94597 0
M  V30 15438 H 1421.84 6.44324 4.03423 0
M  V30 15439 N 1423.41 -1.329 0.847073 0
M  V30 15440 C 1424.66 -1.9751 0.446755 0
M  V30 15441 C 1424.99 -1.67069 -0.995905 0
M  V30 15442 O 1424.24 -0.947232 -1.71248 0
M  V30 15443 C 1424.54 -3.51913 0.623845 0
M  V30 15444 C 1424.21 -4.02324 2.03583 0
M  V30 15445 C 1422.87 -4.15802 2.42203 0
M  V30 15446 C 1425.22 -4.29147 2.95774 0
M  V30 15447 C 1422.55 -4.53441 3.72301 0
M  V30 15448 C 1424.9 -4.68242 4.25362 0
M  V30 15449 C 1423.56 -4.79925 4.63927 0
M  V30 15450 H 1422.83 -0.722742 0.163479 0
M  V30 15451 H 1425.48 -1.58435 1.07567 0
M  V30 15452 H 1423.79 -3.917 -0.0883447 0
M  V30 15453 H 1425.48 -3.99919 0.294268 0
M  V30 15454 H 1422.07 -3.92314 1.72591 0
M  V30 15455 H 1426.26 -4.1825 2.67171 0
M  V30 15456 H 1421.51 -4.60681 4.01974 0
M  V30 15457 H 1425.69 -4.87952 4.96866 0
M  V30 15458 H 1423.31 -5.08847 5.64782 0
M  V30 15459 N 1424.89 -0.604284 -1.45555 0
M  V30 15460 C 1426.14 -0.0957836 -2.01472 0
M  V30 15461 C 1426.45 1.28016 -1.47889 0
M  V30 15462 O 1427.66 1.88121 -1.95762 0
M  V30 15463 C 1426.11 -0.120566 -3.59698 0
M  V30 15464 C 1425.72 -1.49616 -4.22278 0
M  V30 15465 C 1427.46 0.332865 -4.23193 0
M  V30 15466 C 1425.37 -1.4775 -5.72646 0
M  V30 15467 H 1424.3 -0.0320399 -0.753319 0
M  V30 15468 H 1426.95 -0.759125 -1.67061 0
M  V30 15469 H 1425.33 0.609365 -3.91283 0
M  V30 15470 H 1426.51 -2.24753 -4.02272 0
M  V30 15471 H 1424.82 -1.89141 -3.70965 0
M  V30 15472 H 1427.42 0.365951 -5.33446 0
M  V30 15473 H 1427.76 1.35487 -3.93635 0
M  V30 15474 H 1428.3 -0.343692 -3.96313 0
M  V30 15475 H 1425.04 -2.47701 -6.06898 0
M  V30 15476 H 1424.56 -0.768659 -5.94854 0
M  V30 15477 H 1426.23 -1.19971 -6.3578 0
M  V30 15478 N 1426.37 1.53816 -0.343257 0
M  V30 15479 C 1427.3 2.22552 0.548015 0
M  V30 15480 C 1428.31 1.23202 1.06419 0
M  V30 15481 O 1429.5 1.49559 0.974394 0
M  V30 15482 C 1426.6 2.89197 1.76687 0
M  V30 15483 C 1425.77 4.14859 1.38603 0
M  V30 15484 C 1424.83 4.64917 2.46453 0
M  V30 15485 O 1423.86 5.29135 2.09773 0
M  V30 15486 N 1425.06 4.4082 3.77701 0
M  V30 15487 H 1427.83 2.99672 -0.040645 0
M  V30 15488 H 1425.39 1.61033 -0.167368 0
M  V30 15489 H 1427.38 3.19601 2.48268 0
M  V30 15490 H 1425.95 2.15664 2.26291 0
M  V30 15491 H 1425.17 3.91003 0.501001 0
M  V30 15492 H 1426.46 4.96599 1.10756 0
M  V30 15493 H 1425.85 3.8946 4.1029 0
M  V30 15494 H 1424.41 4.7583 4.45453 0
M  V30 15495 N 1427.84 0.0718701 1.57436 0
M  V30 15496 C 1429.07 -0.609701 1.98236 0
M  V30 15497 C 1429.49 -1.6235 0.949959 0
M  V30 15498 O 1428.85 -1.81103 -0.0844281 0
M  V30 15499 C 1428.9 -1.2547 3.38068 0
M  V30 15500 O 1428 -2.37055 3.37459 0
M  V30 15501 H 1427.35 -0.15679 0.645223 0
M  V30 15502 H 1429.88 0.146407 2.04076 0
M  V30 15503 H 1429.89 -1.60152 3.75254 0
M  V30 15504 H 1428.56 -0.511842 4.12738 0
M  V30 15505 H 1427.14 -2.04165 3.12043 0
M  V30 15506 N 1429.32 -1.56304 -0.201686 0
M  V30 15507 C 1430.25 -1.97046 -1.25281 0
M  V30 15508 C 1431.23 -0.841458 -1.47829 0
M  V30 15509 O 1432.42 -1.10529 -1.59678 0
M  V30 15510 C 1429.55 -2.30429 -2.59845 0
M  V30 15511 C 1428.5 -3.46006 -2.5192 0
M  V30 15512 C 1427.83 -3.65047 -3.90697 0
M  V30 15513 C 1429.13 -4.80391 -2.04992 0
M  V30 15514 H 1430.82 -2.85099 -0.914272 0
M  V30 15515 H 1428.37 -1.37166 -0.438359 0
M  V30 15516 H 1430.32 -2.57525 -3.33555 0
M  V30 15517 H 1429.05 -1.39251 -2.95426 0
M  V30 15518 H 1427.7 -3.18991 -1.80667 0
M  V30 15519 H 1427.35 -2.71211 -4.2362 0
M  V30 15520 H 1427.05 -4.42796 -3.86271 0
M  V30 15521 H 1428.58 -3.94512 -4.66039 0
M  V30 15522 H 1429.99 -5.06561 -2.68456 0
M  V30 15523 H 1428.39 -5.61563 -2.11582 0
M  V30 15524 H 1429.46 -4.74416 -1.00288 0
M  V30 15525 N 1430.8 0.469154 -1.50455 0
M  V30 15526 C 1432.05 1.21788 -1.60781 0
M  V30 15527 C 1432.36 1.93054 -0.314576 0
M  V30 15528 O 1433.57 2.69873 -0.296773 0
M  V30 15529 C 1432.02 2.21305 -2.83817 0
M  V30 15530 C 1431.63 1.55833 -4.20024 0
M  V30 15531 C 1433.38 2.96808 -3.03489 0
M  V30 15532 C 1431.28 2.53648 -5.34244 0
M  V30 15533 H 1430.21 0.45827 -0.598752 0
M  V30 15534 H 1432.86 0.488159 -1.76888 0
M  V30 15535 H 1431.25 2.97577 -2.61273 0
M  V30 15536 H 1432.42 0.853371 -4.52829 0
M  V30 15537 H 1430.74 0.926046 -4.05972 0
M  V30 15538 H 1433.33 3.70017 -3.85994 0
M  V30 15539 H 1433.68 3.56307 -2.15293 0
M  V30 15540 H 1434.21 2.27648 -3.26223 0
M  V30 15541 H 1430.95 1.98885 -6.246 0
M  V30 15542 H 1430.47 3.22291 -5.05854 0
M  V30 15543 H 1432.15 3.15438 -5.64897 0
M  V30 15544 N 1432.28 1.40065 0.722464 0
M  V30 15545 C 1433.19 1.42086 1.86678 0
M  V30 15546 C 1434.2 0.314223 1.71139 0
M  V30 15547 O 1435.38 0.55771 1.93524 0
M  V30 15548 C 1432.45 1.27498 3.22405 0
M  V30 15549 C 1431.51 2.48243 3.50248 0
M  V30 15550 C 1430.74 2.34342 4.79499 0
M  V30 15551 O 1430.96 1.35355 5.54108 0
M  V30 15552 O 1429.9 3.23579 5.07523 0
M  V30 15553 H 1433.72 2.38571 1.87929 0
M  V30 15554 H 1431.31 1.21314 0.871968 0
M  V30 15555 H 1433.19 1.21543 4.03491 0
M  V30 15556 H 1431.86 0.341141 3.21897 0
M  V30 15557 H 1430.77 2.59775 2.69199 0
M  V30 15558 H 1432.1 3.40364 3.55547 0
M  V30 15559 N 1433.76 -0.95397 1.25448 0
M  V30 15560 C 1434.99 -1.7308 1.12814 0
M  V30 15561 C 1435.4 -1.86461 -0.320764 0
M  V30 15562 O 1434.74 -1.3623 -1.23236 0
M  V30 15563 C 1434.8 -3.16239 1.70976 0
M  V30 15564 C 1434.46 -3.26286 3.19979 0
M  V30 15565 C 1435.46 -3.10547 4.16961 0
M  V30 15566 C 1433.15 -3.50085 3.60202 0
M  V30 15567 C 1435.14 -3.18456 5.52146 0
M  V30 15568 C 1432.83 -3.5763 4.95524 0
M  V30 15569 C 1433.83 -3.4183 5.91305 0
M  V30 15570 O 1433.51 -3.49058 7.24164 0
M  V30 15571 H 1433.25 -0.549143 0.394231 0
M  V30 15572 H 1435.8 -1.20538 1.66312 0
M  V30 15573 H 1434.03 -3.70148 1.11926 0
M  V30 15574 H 1435.72 -3.75784 1.53432 0
M  V30 15575 H 1436.48 -2.92029 3.87226 0
M  V30 15576 H 1432.36 -3.61445 2.86145 0
M  V30 15577 H 1435.91 -3.0604 6.26885 0
M  V30 15578 H 1431.8 -3.75665 5.24925 0
M  V30 15579 H 1432.57 -3.65684 7.32269 0
M  V30 15580 N 1435.24 -1.07045 -1.15668 0
M  V30 15581 C 1436.18 -0.68226 -2.22369 0
M  V30 15582 C 1437.18 0.305448 -1.66623 0
M  V30 15583 O 1438.38 0.169495 -1.792 0
M  V30 15584 H 1434.76 -0.202536 -0.724212 0
M  V30 15585 H 1436.73 -1.59187 -2.52393 0
M  V30 15586 C 1435.48 -0.0928131 -3.47576 0
M  V30 15587 H 1434.8 -0.843964 -3.90791 0
M  V30 15588 H 1436.24 0.14118 -4.23765 0
M  V30 15589 C 1434.7 1.16567 -3.16091 0
M  V30 15590 O 1435.23 2.25257 -3.32599 0
M  V30 15591 N 1433.44 1.07061 -2.7016 0
M  V30 15592 H 1432.98 0.186091 -2.56927 0
M  V30 15593 H 1432.94 1.91346 -2.49468 0
M  V30 15594 N 1436.71 1.32449 -0.85411 0
M  V30 15595 C 1437.94 2.01997 -0.470307 0
M  V30 15596 C 1438.36 1.63772 0.925225 0
M  V30 15597 O 1437.72 0.838089 1.60766 0
M  V30 15598 C 1437.77 3.55294 -0.616301 0
M  V30 15599 O 1436.87 4.10902 0.351133 0
M  V30 15600 H 1436.21 0.63651 -0.189079 0
M  V30 15601 H 1438.74 1.69008 -1.15315 0
M  V30 15602 H 1438.75 4.0488 -0.503624 0
M  V30 15603 H 1437.43 3.82459 -1.63396 0
M  V30 15604 H 1436.01 3.72391 0.194741 0
M  V30 15605 N 1438.19 0.611994 1.45232 0
M  V30 15606 C 1439.42 0.113618 2.07089 0
M  V30 15607 C 1439.84 -1.1947 1.45288 0
M  V30 15608 O 1439.2 -1.72845 0.547207 0
M  V30 15609 C 1439.25 -0.00789978 3.60599 0
M  V30 15610 O 1438.35 -1.05697 3.98625 0
M  V30 15611 H 1437.69 0.076066 0.659629 0
M  V30 15612 H 1440.22 0.843253 1.86415 0
M  V30 15613 H 1440.23 -0.204692 4.07486 0
M  V30 15614 H 1438.91 0.947386 4.04966 0
M  V30 15615 H 1437.48 -0.836291 3.63401 0
M  V30 15616 N 1439.67 -1.53632 0.351409 0
M  V30 15617 C 1440.62 -2.25281 -0.501724 0
M  V30 15618 C 1441.59 -1.25406 -1.08915 0
M  V30 15619 O 1442.77 -1.54157 -1.1243 0
M  V30 15620 C 1439.91 -3.03491 -1.64278 0
M  V30 15621 C 1439.02 -4.18233 -1.0819 0
M  V30 15622 C 1438.16 -4.83914 -2.1909 0
M  V30 15623 C 1437.2 -5.90712 -1.60394 0
M  V30 15624 N 1436.34 -6.50141 -2.65068 0
M  V30 15625 H 1441.18 -2.97775 0.11579 0
M  V30 15626 H 1438.71 -1.46938 0.0689141 0
M  V30 15627 H 1440.67 -3.47101 -2.31467 0
M  V30 15628 H 1439.3 -2.33279 -2.23116 0
M  V30 15629 H 1438.35 -3.7921 -0.300713 0
M  V30 15630 H 1439.66 -4.95023 -0.612644 0
M  V30 15631 H 1438.82 -5.30635 -2.94128 0
M  V30 15632 H 1437.56 -4.06565 -2.69362 0
M  V30 15633 H 1436.56 -5.43366 -0.838646 0
M  V30 15634 H 1437.79 -6.69973 -1.10964 0
M  V30 15635 H 1435.73 -5.75652 -3.14581 0
M  V30 15636 H 1435.65 -7.22427 -2.22788 0
M  V30 15637 H 1436.92 -7.01513 -3.39852 0
M  V30 15638 N 1441.15 -0.0802183 -1.57396 0
M  V30 15639 C 1442.06 0.898597 -2.16708 0
M  V30 15640 C 1443.07 1.321 -1.1325 0
M  V30 15641 O 1444.25 1.39197 -1.45554 0
M  V30 15642 C 1441.31 2.14501 -2.72379 0
M  V30 15643 C 1440.38 1.77822 -3.9074 0
M  V30 15644 C 1439.61 2.96521 -4.43747 0
M  V30 15645 O 1439.83 4.10797 -3.9573 0
M  V30 15646 O 1438.77 2.75849 -5.34968 0
M  V30 15647 H 1442.59 0.424027 -3.00725 0
M  V30 15648 H 1440.18 0.14332 -1.48711 0
M  V30 15649 H 1442.06 2.87575 -3.08024 0
M  V30 15650 H 1440.73 2.61039 -1.91416 0
M  V30 15651 H 1439.64 1.01974 -3.59934 0
M  V30 15652 H 1440.97 1.36059 -4.73021 0
M  V30 15653 N 1442.63 1.56409 0.193394 0
M  V30 15654 C 1443.85 1.8519 0.933775 0
M  V30 15655 C 1444.28 0.663991 1.75991 0
M  V30 15656 O 1443.63 -0.387198 1.77117 0
M  V30 15657 C 1443.68 3.12212 1.80432 0
M  V30 15658 O 1442.79 2.92884 2.90332 0
M  V30 15659 H 1442.13 0.609754 0.262862 0
M  V30 15660 H 1444.66 2.03638 0.198195 0
M  V30 15661 H 1444.67 3.4305 2.20864 0
M  V30 15662 H 1443.34 3.98292 1.19733 0
M  V30 15663 H 1441.92 2.73349 2.53643 0
M  V30 15664 N 1444.1 -0.461169 1.50702 0
M  V30 15665 C 1445.03 -1.56576 1.73223 0
M  V30 15666 C 1446.01 -1.59855 0.581401 0
M  V30 15667 O 1447.2 -1.75964 0.821602 0
M  V30 15668 C 1444.33 -2.94835 1.83548 0
M  V30 15669 C 1443.28 -3.06421 2.98815 0
M  V30 15670 C 1442.61 -4.46425 2.94293 0
M  V30 15671 C 1443.91 -2.82714 4.3917 0
M  V30 15672 H 1445.6 -1.37982 2.65709 0
M  V30 15673 H 1443.15 -0.662362 1.27862 0
M  V30 15674 H 1445.1 -3.72047 1.97887 0
M  V30 15675 H 1443.83 -3.14608 0.876906 0
M  V30 15676 H 1442.49 -2.31644 2.84142 0
M  V30 15677 H 1442.13 -4.63131 1.96262 0
M  V30 15678 H 1441.83 -4.55111 3.71682 0
M  V30 15679 H 1443.36 -5.25644 3.10695 0
M  V30 15680 H 1444.77 -3.4967 4.54317 0
M  V30 15681 H 1443.17 -3.02835 5.18084 0
M  V30 15682 H 1444.24 -1.78492 4.50853 0
M  V30 15683 N 1445.58 -1.40446 -0.715026 0
M  V30 15684 C 1446.81 -1.42263 -1.50917 0
M  V30 15685 C 1447.23 -0.0242402 -1.88084 0
M  V30 15686 O 1446.59 0.967817 -1.53307 0
M  V30 15687 C 1446.64 -2.31998 -2.7606 0
M  V30 15688 O 1445.74 -1.76361 -3.72787 0
M  V30 15689 H 1445.08 -0.483614 -0.454988 0
M  V30 15690 H 1447.61 -1.84682 -0.880549 0
M  V30 15691 H 1447.62 -2.47204 -3.24583 0
M  V30 15692 H 1446.3 -3.33614 -2.48343 0
M  V30 15693 H 1444.87 -1.70504 -3.31636 0
M  V30 15694 N 1447.06 0.947303 -1.25952 0
M  V30 15695 C 1448.01 2.06642 -1.06779 0
M  V30 15696 C 1449 1.694 0.00348362 0
M  V30 15697 O 1450.21 1.79351 -0.152715 0
M  V30 15698 H 1446.58 0.676499 -0.32841 0
M  V30 15699 H 1448.55 2.19968 -2.01635 0
M  V30 15700 C 1447.3 3.40353 -0.711015 0
M  V30 15701 H 1446.63 3.69483 -1.52718 0
M  V30 15702 H 1448.07 4.19493 -0.616606 0
M  V30 15703 C 1446.52 3.3181 0.58344 0
M  V30 15704 O 1447.05 3.67431 1.6235 0
M  V30 15705 N 1445.26 2.84919 0.571797 0
M  V30 15706 H 1444.81 2.56128 -0.274962 0
M  V30 15707 H 1444.77 2.79586 1.43803 0
M  V30 15708 N 1448.54 1.07657 1.15099 0
M  V30 15709 C 1449.47 0.721201 2.22083 0
M  V30 15710 C 1450.45 -0.292808 1.67561 0
M  V30 15711 O 1451.63 -0.164872 1.93499 0
M  V30 15712 C 1448.76 0.12153 3.47087 0
M  V30 15713 C 1447.72 1.06303 4.14588 0
M  V30 15714 C 1447.04 0.325964 5.33706 0
M  V30 15715 C 1448.34 2.39796 4.63999 0
M  V30 15716 H 1450.04 1.61566 2.52065 0
M  V30 15717 H 1447.58 0.778282 1.21156 0
M  V30 15718 H 1449.54 -0.139037 4.21171 0
M  V30 15719 H 1448.26 -0.808022 3.16447 0
M  V30 15720 H 1446.92 1.30858 3.4245 0
M  V30 15721 H 1446.57 -0.607147 4.99322 0
M  V30 15722 H 1446.27 0.953552 5.79811 0
M  V30 15723 H 1447.79 0.0732695 6.10556 0
M  V30 15724 H 1449.21 2.19552 5.29594 0
M  V30 15725 H 1447.6 2.98178 5.20778 0
M  V30 15726 H 1448.67 3.01876 3.79472 0
M  V30 15727 N 1450.02 -1.31994 0.861122 0
M  V30 15728 C 1451.24 -2.01745 0.481013 0
M  V30 15729 C 1451.67 -1.6426 -0.916527 0
M  V30 15730 O 1451.02 -0.846603 -1.60319 0
M  V30 15731 C 1451.07 -3.54963 0.635134 0
M  V30 15732 O 1450.18 -4.11083 -0.329337 0
M  V30 15733 H 1449.52 -0.635499 0.192452 0
M  V30 15734 H 1452.05 -1.68394 1.1621 0
M  V30 15735 H 1452.06 -4.04607 0.525089 0
M  V30 15736 H 1450.73 -3.81587 1.65422 0
M  V30 15737 H 1449.31 -3.72489 -0.174989 0
M  V30 15738 N 1451.49 -0.619688 -1.44906 0
M  V30 15739 C 1452.74 -0.11981 -2.02446 0
M  V30 15740 C 1453.07 1.2509 -1.48546 0
M  V30 15741 O 1452.35 1.82781 -0.664942 0
M  V30 15742 C 1452.63 -0.0940205 -3.59977 0
M  V30 15743 C 1452.48 -1.49626 -4.24184 0
M  V30 15744 C 1453.8 0.58748 -4.36161 0
M  V30 15745 H 1450.92 -0.0450119 -0.735624 0
M  V30 15746 H 1453.56 -0.793975 -1.72615 0
M  V30 15747 H 1451.71 0.480073 -3.85522 0
M  V30 15748 H 1453.39 -2.11836 -4.09784 0
M  V30 15749 H 1451.63 -2.05348 -3.82119 0
M  V30 15750 H 1452.3 -1.43035 -5.33146 0
M  V30 15751 H 1454.78 0.0993863 -4.15981 0
M  V30 15752 H 1453.65 0.574672 -5.45883 0
M  V30 15753 H 1453.91 1.65579 -4.09922 0
M  V30 15754 N 1452.97 1.53444 -0.359552 0
M  V30 15755 C 1453.94 2.24173 0.477412 0
M  V30 15756 C 1454.94 1.24747 1.01464 0
M  V30 15757 O 1456.13 1.49069 0.901343 0
M  V30 15758 C 1453.26 2.9738 1.66667 0
M  V30 15759 H 1454.45 2.99566 -0.141407 0
M  V30 15760 H 1452 1.55904 -0.111143 0
M  V30 15761 H 1452.74 2.26214 2.32374 0
M  V30 15762 H 1452.52 3.70325 1.28848 0
M  V30 15763 H 1454.01 3.51165 2.25994 0
M  V30 15764 N 1454.45 0.0885642 1.57351 0
M  V30 15765 C 1455.38 -0.909155 2.09307 0
M  V30 15766 C 1456.36 -1.28051 1.00209 0
M  V30 15767 O 1457.55 -1.38689 1.27662 0
M  V30 15768 C 1454.67 -2.21232 2.56465 0
M  V30 15769 C 1453.72 -1.9913 3.7716 0
M  V30 15770 S 1454.55 -1.23528 5.21058 0
M  V30 15771 C 1455.71 -2.55089 5.7156 0
M  V30 15772 H 1455.94 -0.467121 2.93607 0
M  V30 15773 H 1453.47 -0.124581 1.53897 0
M  V30 15774 H 1455.43 -2.96121 2.84293 0
M  V30 15775 H 1454.09 -2.62557 1.72403 0
M  V30 15776 H 1453.29 -2.95614 4.08201 0
M  V30 15777 H 1452.89 -1.32372 3.49791 0
M  V30 15778 H 1455.18 -3.51098 5.79428 0
M  V30 15779 H 1456.12 -2.28634 6.70173 0
M  V30 15780 H 1456.53 -2.63062 4.99458 0
M  V30 15781 N 1455.93 -1.56509 -0.185096 0
M  V30 15782 C 1456.88 -1.95336 -1.22934 0
M  V30 15783 C 1457.85 -0.81532 -1.44713 0
M  V30 15784 O 1459.03 -1.07431 -1.57681 0
M  V30 15785 C 1456.17 -2.30671 -2.56681 0
M  V30 15786 C 1455.28 -3.57586 -2.42397 0
M  V30 15787 C 1454.42 -3.82197 -3.68916 0
M  V30 15788 C 1453.46 -5.02505 -3.49507 0
M  V30 15789 N 1452.59 -5.23319 -4.68062 0
M  V30 15790 H 1457.43 -2.84361 -0.89123 0
M  V30 15791 H 1454.97 -1.40715 -0.428689 0
M  V30 15792 H 1456.93 -2.49176 -3.34615 0
M  V30 15793 H 1455.56 -1.44773 -2.88514 0
M  V30 15794 H 1454.61 -3.47072 -1.55709 0
M  V30 15795 H 1455.92 -4.45677 -2.23994 0
M  V30 15796 H 1455.08 -4.00996 -4.55288 0
M  V30 15797 H 1453.82 -2.92455 -3.90284 0
M  V30 15798 H 1452.82 -4.83619 -2.6152 0
M  V30 15799 H 1454.05 -5.93765 -3.29574 0
M  V30 15800 H 1451.99 -4.36526 -4.89674 0
M  V30 15801 H 1451.91 -6.05608 -4.52521 0
M  V30 15802 H 1453.18 -5.46585 -5.55757 0
M  V30 15803 N 1457.41 0.45317 -1.50944 0
M  V30 15804 C 1458.65 1.20568 -1.63068 0
M  V30 15805 C 1458.99 1.91229 -0.338375 0
M  V30 15806 O 1458.26 1.82916 0.661207 0
M  V30 15807 C 1458.54 2.23522 -2.8233 0
M  V30 15808 C 1458.4 1.57047 -4.21493 0
M  V30 15809 C 1459.72 3.24663 -2.97123 0
M  V30 15810 H 1456.83 0.436971 -0.593486 0
M  V30 15811 H 1459.48 0.497008 -1.83384 0
M  V30 15812 H 1457.63 2.83961 -2.65139 0
M  V30 15813 H 1459.3 1.00067 -4.50316 0
M  V30 15814 H 1457.54 0.873143 -4.24922 0
M  V30 15815 H 1458.21 2.31949 -5.00903 0
M  V30 15816 H 1460.69 2.74264 -3.12919 0
M  V30 15817 H 1459.56 3.9401 -3.82161 0
M  V30 15818 H 1459.83 3.89843 -2.08506 0
M  V30 15819 N 1458.88 1.40823 0.707568 0
M  V30 15820 C 1459.82 1.37646 1.83265 0
M  V30 15821 C 1460.83 0.280547 1.60365 0
M  V30 15822 O 1462.02 0.541453 1.7009 0
M  V30 15823 C 1459.12 1.12121 3.19816 0
M  V30 15824 C 1458.29 2.33522 3.69846 0
M  V30 15825 C 1457.35 2.04035 4.85032 0
M  V30 15826 O 1456.38 2.76971 4.97268 0
M  V30 15827 N 1457.58 1.02322 5.71411 0
M  V30 15828 H 1460.34 2.34612 1.86486 0
M  V30 15829 H 1457.9 1.35281 0.889424 0
M  V30 15830 H 1459.9 0.903663 3.94482 0
M  V30 15831 H 1458.47 0.237941 3.11693 0
M  V30 15832 H 1457.69 2.71055 2.86221 0
M  V30 15833 H 1458.97 3.14436 4.00009 0
M  V30 15834 H 1458.37 0.419311 5.64144 0
M  V30 15835 H 1456.93 0.865571 6.46027 0
M  V30 15836 N 1460.36 -0.94061 1.26453 0
M  V30 15837 C 1461.61 -1.68937 1.12197 0
M  V30 15838 C 1461.94 -1.91309 -0.33382 0
M  V30 15839 O 1461.22 -1.49417 -1.24518 0
M  V30 15840 C 1461.5 -3.06381 1.89215 0
M  V30 15841 C 1461.35 -2.91331 3.42704 0
M  V30 15842 C 1462.67 -4.06507 1.68642 0
M  V30 15843 H 1459.79 -0.613121 0.408964 0
M  V30 15844 H 1462.43 -1.09242 1.55455 0
M  V30 15845 H 1460.58 -3.57339 1.5245 0
M  V30 15846 H 1462.25 -2.47591 3.89226 0
M  V30 15847 H 1460.5 -2.26945 3.697 0
M  V30 15848 H 1461.17 -3.88818 3.91822 0
M  V30 15849 H 1463.64 -3.64512 2.00674 0
M  V30 15850 H 1462.52 -5.0069 2.24945 0
M  V30 15851 H 1462.78 -4.37572 0.631131 0
M  V30 15852 N 1461.84 -1.08266 -1.14527 0
M  V30 15853 C 1463.07 -0.831673 -1.89121 0
M  V30 15854 C 1463.48 0.619702 -1.78763 0
M  V30 15855 O 1462.82 1.43748 -1.14377 0
M  V30 15856 C 1462.88 -1.17276 -3.39833 0
M  V30 15857 C 1462.55 -2.62662 -3.73975 0
M  V30 15858 C 1463.54 -3.60913 -3.74216 0
M  V30 15859 C 1461.23 -2.9848 -4.03999 0
M  V30 15860 C 1463.22 -4.93012 -4.04002 0
M  V30 15861 C 1460.91 -4.30773 -4.33448 0
M  V30 15862 C 1461.91 -5.27849 -4.33433 0
M  V30 15863 O 1461.6 -6.57765 -4.6217 0
M  V30 15864 H 1461.33 -0.299687 -0.60594 0
M  V30 15865 H 1463.88 -1.44498 -1.45978 0
M  V30 15866 H 1462.11 -0.502458 -3.83422 0
M  V30 15867 H 1463.8 -0.902831 -3.95732 0
M  V30 15868 H 1464.57 -3.34585 -3.5111 0
M  V30 15869 H 1460.45 -2.23561 -4.03164 0
M  V30 15870 H 1463.99 -5.68776 -4.03906 0
M  V30 15871 H 1459.89 -4.5685 -4.56024 0
M  V30 15872 H 1460.66 -6.63057 -4.79893 0
M  V30 15873 N 1463.32 1.31536 -0.86811 0
M  V30 15874 C 1464.28 2.26849 -0.327456 0
M  V30 15875 C 1465.28 1.52142 0.520514 0
M  V30 15876 O 1466.47 1.71044 0.330088 0
M  V30 15877 C 1463.6 3.36673 0.535174 0
M  V30 15878 H 1464.8 2.76184 -1.16886 0
M  V30 15879 H 1462.35 1.42437 -0.643545 0
M  V30 15880 H 1463.09 2.92627 1.39785 0
M  V30 15881 H 1462.87 3.92034 -0.0719835 0
M  V30 15882 H 1464.36 4.07658 0.905786 0
M  V30 15883 N 1464.8 0.627364 1.44575 0
M  V30 15884 C 1465.73 -0.118179 2.28895 0
M  V30 15885 C 1466.74 -0.812569 1.41071 0
M  V30 15886 O 1467.93 -0.674646 1.6526 0
M  V30 15887 C 1465.03 -1.18937 3.17344 0
M  V30 15888 C 1464.2 -0.578226 4.33561 0
M  V30 15889 C 1463.26 -1.54288 5.03072 0
M  V30 15890 O 1462.29 -1.06148 5.59215 0
M  V30 15891 N 1463.49 -2.87725 5.04177 0
M  V30 15892 H 1466.26 0.605442 2.93521 0
M  V30 15893 H 1463.82 0.468253 1.54981 0
M  V30 15894 H 1465.81 -1.83494 3.60711 0
M  V30 15895 H 1464.38 -1.81526 2.54494 0
M  V30 15896 H 1463.6 0.245883 3.93432 0
M  V30 15897 H 1464.89 -0.150502 5.08577 0
M  V30 15898 H 1464.29 -3.29421 4.5989 0
M  V30 15899 H 1462.84 -3.47653 5.51344 0
M  V30 15900 N 1466.28 -1.53251 0.367684 0
M  V30 15901 C 1467.21 -2.28728 -0.469676 0
M  V30 15902 C 1468.19 -1.3124 -1.08213 0
M  V30 15903 O 1469.37 -1.60112 -1.09898 0
M  V30 15904 C 1466.5 -3.07808 -1.60846 0
M  V30 15905 C 1465.46 -4.13 -1.12315 0
M  V30 15906 C 1464.78 -4.80176 -2.35234 0
M  V30 15907 C 1466.08 -5.21892 -0.2064 0
M  V30 15908 H 1467.78 -2.98972 0.160019 0
M  V30 15909 H 1465.32 -1.43786 0.0784011 0
M  V30 15910 H 1467.27 -3.59358 -2.20091 0
M  V30 15911 H 1466 -2.35258 -2.26542 0
M  V30 15912 H 1464.66 -3.62399 -0.553378 0
M  V30 15913 H 1464.31 -4.04196 -2.99391 0
M  V30 15914 H 1464.01 -5.51261 -2.03433 0
M  V30 15915 H 1465.53 -5.34521 -2.9516 0
M  V30 15916 H 1466.94 -5.68932 -0.706386 0
M  V30 15917 H 1465.34 -6.00096 0.0208362 0
M  V30 15918 H 1466.41 -4.79051 0.750851 0
M  V30 15919 N 1467.75 -0.0969077 -1.57302 0
M  V30 15920 C 1469 0.566373 -1.94418 0
M  V30 15921 C 1469.33 1.68078 -0.978769 0
M  V30 15922 O 1468.58 1.957 0.0013214 0
M  V30 15923 C 1468.88 1.15972 -3.38061 0
M  V30 15924 C 1468.55 0.16892 -4.50583 0
M  V30 15925 C 1467.21 -0.103587 -4.81088 0
M  V30 15926 C 1469.56 -0.507513 -5.18723 0
M  V30 15927 C 1466.89 -1.05919 -5.7706 0
M  V30 15928 C 1469.24 -1.4516 -6.1572 0
M  V30 15929 C 1467.91 -1.73232 -6.44629 0
M  V30 15930 H 1467.18 0.207251 -0.711427 0
M  V30 15931 H 1469.82 -0.173125 -1.90716 0
M  V30 15932 H 1468.13 1.97551 -3.3835 0
M  V30 15933 H 1469.83 1.68066 -3.64081 0
M  V30 15934 H 1466.42 0.391501 -4.26808 0
M  V30 15935 H 1470.6 -0.310127 -4.9533 0
M  V30 15936 H 1465.86 -1.28366 -5.97773 0
M  V30 15937 H 1470.03 -1.98155 -6.67613 0
M  V30 15938 H 1467.66 -2.47436 -7.18804 0
M  V30 15939 N 1469.23 1.56605 0.176793 0
M  V30 15940 C 1470.46 1.8617 0.91408 0
M  V30 15941 C 1470.88 0.68262 1.75277 0
M  V30 15942 O 1470.24 -0.368391 1.77518 0
M  V30 15943 C 1470.29 3.14109 1.7711 0
M  V30 15944 O 1469.39 2.95947 2.87209 0
M  V30 15945 H 1468.73 0.612507 0.25638 0
M  V30 15946 H 1471.26 2.03837 0.176586 0
M  V30 15947 H 1471.27 3.45373 2.17213 0
M  V30 15948 H 1469.95 3.9954 1.15502 0
M  V30 15949 H 1468.52 2.76024 2.50729 0
M  V30 15950 N 1470.71 -0.445159 1.51182 0
M  V30 15951 C 1471.94 -1.21787 1.67259 0
M  V30 15952 C 1472.35 -1.85206 0.366641 0
M  V30 15953 O 1471.71 -1.70376 -0.654095 0
M  V30 15954 C 1471.76 -2.30765 2.78262 0
M  V30 15955 O 1471.48 -1.69942 4.03796 0
M  V30 15956 C 1472.98 -3.21186 3.05539 0
M  V30 15957 H 1470.2 -0.367364 0.561502 0
M  V30 15958 H 1472.75 -0.528415 1.97555 0
M  V30 15959 H 1470.9 -2.9544 2.50587 0
M  V30 15960 H 1471.32 -2.41905 4.65384 0
M  V30 15961 H 1472.79 -3.93805 3.8681 0
M  V30 15962 H 1473.27 -3.81487 2.17634 0
M  V30 15963 H 1473.87 -2.62221 3.34844 0
M  V30 15964 N 1472.19 -1.41197 -0.700089 0
M  V30 15965 C 1473.44 -1.40034 -1.45722 0
M  V30 15966 C 1473.76 -0.00876281 -1.94998 0
M  V30 15967 O 1473.03 0.948647 -1.71399 0
M  V30 15968 H 1471.61 -0.515433 -0.540683 0
M  V30 15969 H 1474.27 -1.76394 -0.828926 0
M  V30 15970 H 1473.36 -2.08477 -2.32258 0
M  V30 15971 N 1473.67 0.933891 -1.2695 0
M  V30 15972 C 1474.6 2.05078 -1.11649 0
M  V30 15973 C 1475.58 1.70089 -0.0196463 0
M  V30 15974 O 1476.76 1.93239 -0.193007 0
M  V30 15975 C 1473.89 3.38963 -0.756387 0
M  V30 15976 C 1472.85 3.88041 -1.80577 0
M  V30 15977 C 1472.17 5.18661 -1.2998 0
M  V30 15978 C 1473.47 4.12116 -3.2087 0
M  V30 15979 H 1475.17 2.18137 -2.05077 0
M  V30 15980 H 1472.71 1.04817 -0.987392 0
M  V30 15981 H 1474.66 4.1657 -0.63619 0
M  V30 15982 H 1473.39 3.25901 0.213607 0
M  V30 15983 H 1472.05 3.12622 -1.91477 0
M  V30 15984 H 1471.7 5.01985 -0.319442 0
M  V30 15985 H 1471.4 5.52467 -2.00134 0
M  V30 15986 H 1472.92 5.98844 -1.19242 0
M  V30 15987 H 1474.33 4.80312 -3.13006 0
M  V30 15988 H 1472.73 4.57218 -3.88679 0
M  V30 15989 H 1473.8 3.17633 -3.66384 0
M  V30 15990 N 1475.14 1.08871 1.13951 0
M  V30 15991 C 1476.09 0.71755 2.21255 0
M  V30 15992 C 1477.09 -0.278901 1.67088 0
M  V30 15993 O 1478.29 -0.140964 1.79447 0
M  V30 15994 H 1474.67 0.214032 0.720898 0
M  V30 15995 H 1476.64 1.63182 2.49828 0
M  V30 15996 C 1475.39 0.148098 3.47384 0
M  V30 15997 H 1474.71 0.906028 3.89398 0
M  V30 15998 H 1476.15 -0.0737451 4.23936 0
M  V30 15999 C 1474.61 -1.11524 3.17906 0
M  V30 16000 O 1475.14 -2.19937 3.3614 0
M  V30 16001 N 1473.34 -1.0275 2.71829 0
M  V30 16002 H 1472.89 -0.145193 2.5719 0
M  V30 16003 H 1472.85 -1.87353 2.5248 0
M  V30 16004 N 1476.62 -1.31073 0.875073 0
M  V30 16005 C 1477.85 -2.00688 0.503179 0
M  V30 16006 C 1478.26 -1.65657 -0.905714 0
M  V30 16007 O 1477.62 -0.888468 -1.59413 0
M  V30 16008 C 1477.67 -3.55486 0.65666 0
M  V30 16009 O 1477.39 -3.89265 2.01007 0
M  V30 16010 C 1478.89 -4.42374 0.28645 0
M  V30 16011 H 1476.11 -0.641885 0.195512 0
M  V30 16012 H 1478.66 -1.67188 1.17765 0
M  V30 16013 H 1476.81 -3.87389 0.0296852 0
M  V30 16014 H 1477.23 -4.83978 2.02153 0
M  V30 16015 H 1478.7 -5.50205 0.444776 0
M  V30 16016 H 1479.18 -4.32312 -0.774789 0
M  V30 16017 H 1479.78 -4.15898 0.889336 0
M  V30 16018 N 1478.1 -0.635022 -1.4424 0
M  V30 16019 C 1479.35 -0.138497 -2.01224 0
M  V30 16020 C 1479.66 1.2485 -1.50571 0
M  V30 16021 O 1480.87 1.83926 -1.99709 0
M  V30 16022 C 1479.32 -0.196836 -3.59361 0
M  V30 16023 C 1478.93 -1.58539 -4.1901 0
M  V30 16024 C 1480.68 0.243025 -4.23804 0
M  V30 16025 C 1478.58 -1.59864 -5.69384 0
M  V30 16026 H 1477.51 -0.0480117 -0.75247 0
M  V30 16027 H 1480.16 -0.794391 -1.65414 0
M  V30 16028 H 1478.55 0.526231 -3.92488 0
M  V30 16029 H 1479.72 -2.33236 -3.97414 0
M  V30 16030 H 1478.04 -1.96967 -3.66869 0
M  V30 16031 H 1480.63 0.252717 -5.34102 0
M  V30 16032 H 1480.98 1.27107 -3.96421 0
M  V30 16033 H 1481.51 -0.427678 -3.95494 0
M  V30 16034 H 1478.25 -2.60518 -6.01507 0
M  V30 16035 H 1477.77 -0.894664 -5.9309 0
M  V30 16036 H 1479.45 -1.3343 -6.33092 0
M  V30 16037 N 1479.58 1.53054 -0.375806 0
M  V30 16038 C 1480.81 2.0582 0.211135 0
M  V30 16039 C 1481.22 1.24856 1.4162 0
M  V30 16040 O 1480.58 0.291786 1.80152 0
M  V30 16041 C 1480.63 3.56577 0.594573 0
M  V30 16042 O 1480.35 4.34472 -0.562607 0
M  V30 16043 C 1481.85 4.25639 1.23882 0
M  V30 16044 H 1479.07 0.670085 0.0350268 0
M  V30 16045 H 1481.62 1.9732 -0.537135 0
M  V30 16046 H 1479.77 3.65194 1.29275 0
M  V30 16047 H 1480.18 5.23902 -0.250487 0
M  V30 16048 H 1481.66 5.32408 1.45759 0
M  V30 16049 H 1482.14 3.80001 2.20218 0
M  V30 16050 H 1482.74 4.21302 0.581786 0
M  V30 16051 N 1481.06 0.105248 1.57248 0
M  V30 16052 C 1482.33 -0.598871 1.86207 0
M  V30 16053 C 1482.71 -1.85698 1.00396 0
M  V30 16054 O 1482.06 -2.28363 0.0791093 0
M  V30 16055 C 1482.27 -0.904522 3.37075 0
M  V30 16056 C 1483.62 -1.26357 4.05363 0
M  V30 16057 O 1484.64 -0.99522 3.42014 0
M  V30 16058 O 1483.5 -1.76659 5.17159 0
M  V30 16059 H 1480.6 -0.300727 0.770384 0
M  V30 16060 H 1483.14 0.138713 1.69132 0
M  V30 16061 H 1481.91 -0.0123974 3.91298 0
M  V30 16062 H 1481.54 -1.69774 3.59531 0
M  V30 16063 N 1482.53 -1.56697 -0.168486 0
M  V30 16064 C 1483.5 -1.95744 -1.19235 0
M  V30 16065 C 1484.5 -0.841419 -1.37028 0
M  V30 16066 O 1485.69 -1.10842 -1.34386 0
M  V30 16067 C 1482.82 -2.25471 -2.55686 0
M  V30 16068 H 1484.01 -2.87368 -0.857892 0
M  V30 16069 H 1481.57 -1.50798 -0.411041 0
M  V30 16070 H 1482.3 -1.36571 -2.94141 0
M  V30 16071 H 1482.09 -3.06822 -2.44137 0
M  V30 16072 H 1483.58 -2.56593 -3.29469 0
M  V30 16073 N 1484.01 0.437135 -1.51416 0
M  V30 16074 C 1484.98 1.51313 -1.72154 0
M  V30 16075 C 1485.98 1.49523 -0.59157 0
M  V30 16076 O 1487.17 1.51541 -0.859118 0
M  V30 16077 C 1484.3 2.9085 -1.77818 0
M  V30 16078 H 1485.49 1.34229 -2.68184 0
M  V30 16079 H 1483.04 0.665822 -1.41409 0
M  V30 16080 H 1483.78 3.13338 -0.836033 0
M  V30 16081 H 1483.56 2.93554 -2.59939 0
M  V30 16082 H 1485.05 3.68905 -1.957 0
M  V30 16083 N 1485.49 1.41566 0.692592 0
M  V30 16084 C 1486.44 1.43648 1.80648 0
M  V30 16085 C 1487.41 0.290497 1.6354 0
M  V30 16086 O 1488.59 0.491979 1.84348 0
M  V30 16087 C 1485.73 1.32733 3.18553 0
M  V30 16088 C 1484.85 2.57224 3.47073 0
M  V30 16089 C 1483.98 2.38581 4.74608 0
M  V30 16090 C 1483.02 3.58534 4.96105 0
M  V30 16091 N 1482.16 3.38942 6.14868 0
M  V30 16092 H 1487 2.38847 1.78203 0
M  V30 16093 H 1484.53 1.186 0.870193 0
M  V30 16094 H 1486.49 1.24405 3.9822 0
M  V30 16095 H 1485.12 0.411407 3.20168 0
M  V30 16096 H 1484.17 2.7599 2.6179 0
M  V30 16097 H 1485.49 3.46443 3.58858 0
M  V30 16098 H 1484.64 2.27738 5.62335 0
M  V30 16099 H 1483.38 1.46824 4.65074 0
M  V30 16100 H 1482.38 3.69828 4.06826 0
M  V30 16101 H 1483.61 4.51248 5.07496 0
M  V30 16102 H 1481.55 2.49887 6.06541 0
M  V30 16103 H 1481.47 4.21737 6.27434 0
M  V30 16104 H 1482.74 3.31877 7.05321 0
M  V30 16105 N 1486.97 -0.927146 1.27443 0
M  V30 16106 C 1488.21 -1.67738 1.13982 0
M  V30 16107 C 1488.55 -1.91653 -0.313511 0
M  V30 16108 O 1487.82 -1.50729 -1.22926 0
M  V30 16109 C 1488.11 -3.04357 1.92454 0
M  V30 16110 C 1487.96 -2.8768 3.45775 0
M  V30 16111 C 1489.28 -4.04696 1.72944 0
M  V30 16112 H 1486.4 -0.608749 0.415444 0
M  V30 16113 H 1489.04 -1.07587 1.56605 0
M  V30 16114 H 1487.19 -3.55702 1.56232 0
M  V30 16115 H 1488.86 -2.43449 3.9183 0
M  V30 16116 H 1487.1 -2.23011 3.72087 0
M  V30 16117 H 1487.77 -3.8464 3.95924 0
M  V30 16118 H 1490.25 -3.62364 2.04528 0
M  V30 16119 H 1489.13 -4.98276 2.30243 0
M  V30 16120 H 1489.39 -4.36878 0.677505 0
M  V30 16121 N 1488.45 -1.09474 -1.13372 0
M  V30 16122 C 1489.69 -0.832323 -1.84933 0
M  V30 16123 C 1490.03 0.640469 -1.83335 0
M  V30 16124 O 1489.3 1.47158 -1.2718 0
M  V30 16125 C 1489.58 -1.36876 -3.33072 0
M  V30 16126 C 1489.44 -2.90769 -3.43181 0
M  V30 16127 C 1490.76 -1.00294 -4.2852 0
M  V30 16128 H 1487.87 -0.30382 -0.671463 0
M  V30 16129 H 1490.52 -1.35622 -1.33066 0
M  V30 16130 H 1488.67 -0.923134 -3.77373 0
M  V30 16131 H 1490.34 -3.43784 -3.07588 0
M  V30 16132 H 1488.58 -3.27876 -2.84042 0
M  V30 16133 H 1489.25 -3.23381 -4.47358 0
M  V30 16134 H 1491.73 -1.38729 -3.92293 0
M  V30 16135 H 1490.6 -1.40533 -5.30605 0
M  V30 16136 H 1490.87 0.0888133 -4.42011 0
M  V30 16137 N 1489.92 1.30607 -0.882012 0
M  V30 16138 C 1490.83 2.31967 -0.350503 0
M  V30 16139 C 1491.85 1.6522 0.54575 0
M  V30 16140 O 1493.03 1.96544 0.439581 0
M  V30 16141 C 1490.09 3.44037 0.428924 0
M  V30 16142 C 1489.15 4.26417 -0.496727 0
M  V30 16143 C 1488.39 5.33135 0.245597 0
M  V30 16144 O 1488.61 5.51077 1.47209 0
M  V30 16145 O 1487.54 6.00551 -0.402767 0
M  V30 16146 H 1491.37 2.79374 -1.19095 0
M  V30 16147 H 1488.95 1.34723 -0.645754 0
M  V30 16148 H 1490.84 4.12314 0.870346 0
M  V30 16149 H 1489.51 2.9877 1.24573 0
M  V30 16150 H 1488.42 3.60848 -0.986899 0
M  V30 16151 H 1489.75 4.7528 -1.27945 0
M  V30 16152 N 1491.4 0.642663 1.43901 0
M  V30 16153 C 1492.33 -0.0419756 2.33462 0
M  V30 16154 C 1493.31 -0.822923 1.48869 0
M  V30 16155 O 1494.5 -0.786508 1.7756 0
M  V30 16156 C 1491.63 -1.01631 3.32097 0
M  V30 16157 C 1490.58 -0.346206 4.26597 0
M  V30 16158 C 1489.91 -1.43125 5.15189 0
M  V30 16159 C 1491.21 0.754799 5.16817 0
M  V30 16160 H 1492.9 0.705929 2.90959 0
M  V30 16161 H 1490.45 0.340924 1.39906 0
M  V30 16162 H 1492.4 -1.5041 3.93643 0
M  V30 16163 H 1491.13 -1.79525 2.72834 0
M  V30 16164 H 1489.78 0.121038 3.664 0
M  V30 16165 H 1489.43 -2.20135 4.52271 0
M  V30 16166 H 1489.13 -0.988194 5.79231 0
M  V30 16167 H 1490.66 -1.92061 5.79607 0
M  V30 16168 H 1492.07 0.349624 5.72233 0
M  V30 16169 H 1490.47 1.12169 5.89524 0
M  V30 16170 H 1491.54 1.61718 4.57138 0
M  V30 16171 N 1492.88 -1.52852 0.383918 0
M  V30 16172 C 1494.13 -2.01809 -0.200285 0
M  V30 16173 C 1494.46 -1.27009 -1.46909 0
M  V30 16174 O 1493.74 -0.369002 -1.90968 0
M  V30 16175 C 1494.02 -3.56971 -0.473672 0
M  V30 16176 C 1493.87 -4.42446 0.810048 0
M  V30 16177 C 1495.19 -4.21481 -1.26658 0
M  V30 16178 H 1492.31 -0.733541 -0.0713192 0
M  V30 16179 H 1494.95 -1.8296 0.512425 0
M  V30 16180 H 1493.1 -3.73163 -1.08081 0
M  V30 16181 H 1494.77 -4.38016 1.44706 0
M  V30 16182 H 1493.02 -4.09674 1.42652 0
M  V30 16183 H 1493.69 -5.49013 0.573478 0
M  V30 16184 H 1496.16 -4.09233 -0.752806 0
M  V30 16185 H 1495.04 -5.30037 -1.42661 0
M  V30 16186 H 1495.3 -3.78756 -2.28028 0
M  V30 16187 N 1494.36 -0.113586 -1.5719 0
M  V30 16188 C 1495.58 0.556928 -1.99783 0
M  V30 16189 C 1496.01 1.59774 -0.992669 0
M  V30 16190 O 1495.37 1.81263 0.0363821 0
M  V30 16191 C 1495.42 1.16463 -3.41275 0
M  V30 16192 O 1494.52 2.28024 -3.43626 0
M  V30 16193 H 1493.86 0.139628 -0.649153 0
M  V30 16194 H 1496.39 -0.200462 -2.03616 0
M  V30 16195 H 1496.4 1.50147 -3.79368 0
M  V30 16196 H 1495.08 0.402232 -4.1395 0
M  V30 16197 H 1493.65 1.9582 -3.17347 0
M  V30 16198 N 1495.84 1.56784 0.160173 0
M  V30 16199 C 1497.07 1.86767 0.89026 0
M  V30 16200 C 1497.48 0.700276 1.75333 0
M  V30 16201 O 1496.84 -0.330342 1.79485 0
M  V30 16202 C 1496.89 3.15883 1.75784 0
M  V30 16203 O 1496.61 4.28124 0.929575 0
M  V30 16204 C 1498.11 3.5929 2.59664 0
M  V30 16205 H 1495.33 0.61938 0.258088 0
M  V30 16206 H 1497.87 2.03897 0.156919 0
M  V30 16207 H 1496.03 3.00546 2.4444 0
M  V30 16208 H 1496.44 5.01872 1.52397 0
M  V30 16209 H 1497.92 4.52506 3.16136 0
M  V30 16210 H 1498.39 2.83943 3.35072 0
M  V30 16211 H 1499 3.77277 1.96323 0
M  V30 16212 N 1497.32 -0.429099 1.51646 0
M  V30 16213 C 1498.28 -1.50398 1.72954 0
M  V30 16214 C 1499.28 -1.49207 0.599491 0
M  V30 16215 O 1500.47 -1.51084 0.867143 0
M  V30 16216 C 1497.6 -2.89903 1.79358 0
M  V30 16217 H 1498.79 -1.32805 2.68892 0
M  V30 16218 H 1496.35 -0.658313 1.4176 0
M  V30 16219 H 1497.08 -3.12891 0.852639 0
M  V30 16220 H 1496.87 -2.92171 2.61492 0
M  V30 16221 H 1498.36 -3.67862 1.97654 0
M  V30 16222 N 1498.79 -1.41931 -0.685074 0
M  V30 16223 C 1499.72 -1.47385 -1.81107 0
M  V30 16224 C 1500.7 -0.331433 -1.6684 0
M  V30 16225 O 1501.89 -0.544331 -1.86415 0
M  V30 16226 C 1499.02 -1.36555 -3.19327 0
M  V30 16227 C 1497.97 -2.48718 -3.48315 0
M  V30 16228 C 1497.3 -2.2295 -4.86002 0
M  V30 16229 C 1498.6 -3.91047 -3.46237 0
M  V30 16230 H 1500.29 -2.41624 -1.768 0
M  V30 16231 H 1497.84 -1.16297 -0.849178 0
M  V30 16232 H 1499.79 -1.38981 -3.97822 0
M  V30 16233 H 1498.52 -0.388063 -3.24286 0
M  V30 16234 H 1497.18 -2.45592 -2.72176 0
M  V30 16235 H 1496.82 -1.23518 -4.87598 0
M  V30 16236 H 1496.52 -2.98116 -5.0636 0
M  V30 16237 H 1498.05 -2.27108 -5.66793 0
M  V30 16238 H 1499.46 -3.95831 -4.14718 0
M  V30 16239 H 1497.86 -4.65981 -3.7813 0
M  V30 16240 H 1498.93 -4.1845 -2.45006 0
M  V30 16241 N 1500.27 0.920374 -1.27933 0
M  V30 16242 C 1501.55 1.64765 -1.05413 0
M  V30 16243 C 1501.93 2.07106 0.408717 0
M  V30 16244 O 1501.28 1.81094 1.39346 0
M  V30 16245 C 1501.49 2.84417 -2.02257 0
M  V30 16246 C 1502.83 3.5559 -2.32036 0
M  V30 16247 O 1503.86 2.94555 -2.00289 0
M  V30 16248 O 1502.72 4.65574 -2.86187 0
M  V30 16249 H 1499.81 0.722503 -0.402391 0
M  V30 16250 H 1502.36 0.970263 -1.39226 0
M  V30 16251 H 1501.13 2.50174 -3.0088 0
M  V30 16252 H 1500.75 3.59872 -1.6905 0
M  V30 16253 N 1501.75 1.10074 1.1279 0
M  V30 16254 C 1502.66 0.758458 2.22001 0
M  V30 16255 C 1503.68 -0.242438 1.72303 0
M  V30 16256 O 1504.85 -0.0821223 2.01233 0
M  V30 16257 C 1501.92 0.191326 3.46172 0
M  V30 16258 C 1500.98 1.24902 4.10729 0
M  V30 16259 C 1500.21 0.708857 5.28972 0
M  V30 16260 O 1500.43 -0.465993 5.68493 0
M  V30 16261 O 1499.37 1.46703 5.83748 0
M  V30 16262 H 1503.19 1.66997 2.53665 0
M  V30 16263 H 1500.78 0.875604 1.21052 0
M  V30 16264 H 1502.66 -0.121292 4.21225 0
M  V30 16265 H 1501.34 -0.693094 3.16193 0
M  V30 16266 H 1500.24 1.61444 3.37471 0
M  V30 16267 H 1501.58 2.10632 4.44854 0
M  V30 16268 N 1503.23 -1.30138 0.888926 0
M  V30 16269 C 1504.46 -2.00143 0.524437 0
M  V30 16270 C 1504.87 -1.66608 -0.888093 0
M  V30 16271 O 1504.23 -0.905326 -1.58462 0
M  V30 16272 C 1504.28 -3.54769 0.694327 0
M  V30 16273 O 1504 -3.87112 2.05125 0
M  V30 16274 C 1505.5 -4.42045 0.333354 0
M  V30 16275 H 1502.72 -0.639775 0.202309 0
M  V30 16276 H 1505.26 -1.65929 1.19531 0
M  V30 16277 H 1503.42 -3.87335 0.0707712 0
M  V30 16278 H 1503.83 -4.81807 2.07275 0
M  V30 16279 H 1505.31 -5.49702 0.503107 0
M  V30 16280 H 1505.78 -4.33109 -0.728893 0
M  V30 16281 H 1506.39 -4.14931 0.933398 0
M  V30 16282 N 1504.71 -0.650285 -1.43559 0
M  V30 16283 C 1505.95 -0.159832 -2.01066 0
M  V30 16284 C 1506.27 1.23246 -1.51887 0
M  V30 16285 O 1507.47 1.81797 -2.01648 0
M  V30 16286 C 1505.93 -0.23494 -3.59132 0
M  V30 16287 C 1505.54 -1.62975 -4.17305 0
M  V30 16288 C 1507.28 0.198061 -4.24038 0
M  V30 16289 C 1505.19 -1.65894 -5.67656 0
M  V30 16290 H 1504.12 -0.0559899 -0.751918 0
M  V30 16291 H 1506.77 -0.811891 -1.64562 0
M  V30 16292 H 1505.15 0.484573 -3.93024 0
M  V30 16293 H 1506.33 -2.37438 -3.94918 0
M  V30 16294 H 1504.64 -2.00847 -3.64759 0
M  V30 16295 H 1507.24 0.196054 -5.3434 0
M  V30 16296 H 1507.58 1.22896 -3.97747 0
M  V30 16297 H 1508.11 -0.469602 -3.95018 0
M  V30 16298 H 1504.85 -2.66883 -5.9871 0
M  V30 16299 H 1504.37 -0.957519 -5.92108 0
M  V30 16300 H 1506.05 -1.40137 -6.31641 0
M  V30 16301 N 1506.18 1.52647 -0.392018 0
M  V30 16302 C 1507.46 1.94034 0.247004 0
M  V30 16303 C 1507.84 1.32767 1.64122 0
M  V30 16304 O 1507.19 0.496822 2.23033 0
M  V30 16305 C 1507.4 3.47949 0.270615 0
M  V30 16306 C 1508.75 4.21666 0.498256 0
M  V30 16307 O 1509.77 3.54469 0.350708 0
M  V30 16308 O 1508.63 5.40795 0.787586 0
M  V30 16309 H 1505.72 0.812487 0.154251 0
M  V30 16310 H 1508.27 1.63715 -0.446723 0
M  V30 16311 H 1507.04 3.84881 -0.705862 0
M  V30 16312 H 1506.66 3.8458 1.00915 0
M  V30 16313 N 1507.66 0.121921 1.57128 0
M  V30 16314 C 1508.59 -0.823788 2.18486 0
M  V30 16315 C 1509.57 -1.27519 1.12574 0
M  V30 16316 O 1510.76 -1.33727 1.40822 0
M  V30 16317 C 1507.89 -2.07284 2.78659 0
M  V30 16318 C 1506.84 -1.75912 3.90178 0
M  V30 16319 C 1506.17 -3.07871 4.37172 0
M  V30 16320 C 1507.47 -1.02517 5.1214 0
M  V30 16321 H 1509.16 -0.312488 2.97765 0
M  V30 16322 H 1506.71 -0.148862 1.43228 0
M  V30 16323 H 1508.66 -2.73903 3.20242 0
M  V30 16324 H 1507.39 -2.60743 1.96673 0
M  V30 16325 H 1506.04 -1.11681 3.49174 0
M  V30 16326 H 1505.69 -3.59271 3.52041 0
M  V30 16327 H 1505.39 -2.87653 5.12376 0
M  V30 16328 H 1506.92 -3.75604 4.81409 0
M  V30 16329 H 1508.33 -1.59295 5.50725 0
M  V30 16330 H 1506.73 -0.923836 5.92946 0
M  V30 16331 H 1507.8 -0.0124219 4.84898 0
M  V30 16332 N 1509.14 -1.56867 -0.151857 0
M  V30 16333 C 1510.07 -2.00932 -1.18949 0
M  V30 16334 C 1511.05 -0.888062 -1.45077 0
M  V30 16335 O 1512.24 -1.15553 -1.56081 0
M  V30 16336 C 1509.37 -2.3858 -2.52383 0
M  V30 16337 C 1508.32 -3.53845 -2.40785 0
M  V30 16338 C 1507.65 -3.77292 -3.78886 0
M  V30 16339 C 1508.95 -4.8667 -1.89605 0
M  V30 16340 H 1510.64 -2.87863 -0.823107 0
M  V30 16341 H 1508.19 -1.38491 -0.394499 0
M  V30 16342 H 1510.14 -2.68006 -3.25193 0
M  V30 16343 H 1508.86 -1.48579 -2.90847 0
M  V30 16344 H 1507.52 -3.24577 -1.70427 0
M  V30 16345 H 1507.17 -2.84551 -4.14777 0
M  V30 16346 H 1506.87 -4.54861 -3.71989 0
M  V30 16347 H 1508.39 -4.09139 -4.53252 0
M  V30 16348 H 1509.81 -5.14846 -2.52204 0
M  V30 16349 H 1508.21 -5.6801 -1.93609 0
M  V30 16350 H 1509.28 -4.77366 -0.851438 0
M  V30 16351 N 1510.62 0.421051 -1.51871 0
M  V30 16352 C 1512.03 1.00033 -1.5764 0
M  V30 16353 C 1512.38 1.91875 -0.409665 0
M  V30 16354 O 1511.51 2.11201 0.471516 0
M  V30 16355 C 1512.1 1.82099 -2.85701 0
M  V30 16356 C 1510.66 2.35049 -2.93988 0
M  V30 16357 C 1509.81 1.14703 -2.52465 0
M  V30 16358 H 1512.76 0.201715 -1.57413 0
M  V30 16359 H 1512.78 2.67719 -2.70382 0
M  V30 16360 H 1512.29 1.15229 -3.706 0
M  V30 16361 H 1510.39 3.05327 -2.13556 0
M  V30 16362 H 1510.5 2.66731 -3.97984 0
M  V30 16363 H 1508.87 1.49736 -2.06037 0
M  V30 16364 H 1509.65 0.494171 -3.39725 0
M  V30 16365 N 1512.1 1.42293 0.677538 0
M  V30 16366 C 1513.32 1.46008 1.46592 0
M  V30 16367 C 1513.74 0.0706015 1.88668 0
M  V30 16368 O 1513.1 -0.914076 1.57959 0
M  V30 16369 C 1513.15 2.38477 2.71682 0
M  V30 16370 O 1512.87 3.72019 2.31372 0
M  V30 16371 C 1514.37 2.51185 3.65269 0
M  V30 16372 H 1511.59 0.49669 0.451154 0
M  V30 16373 H 1514.13 1.86777 0.832736 0
M  V30 16374 H 1512.29 2.00969 3.31195 0
M  V30 16375 H 1512.7 4.21514 3.12131 0
M  V30 16376 H 1514.18 3.20014 4.49772 0
M  V30 16377 H 1514.65 1.54885 4.10983 0
M  V30 16378 H 1515.26 2.89404 3.1165 0
M  V30 16379 N 1513.57 -0.913576 1.28419 0
M  V30 16380 C 1514.5 -2.03275 1.14897 0
M  V30 16381 C 1515.49 -1.70036 0.0467034 0
M  V30 16382 O 1516.67 -1.92907 0.223725 0
M  V30 16383 C 1513.8 -3.37717 0.810217 0
M  V30 16384 C 1512.75 -3.85119 1.86728 0
M  V30 16385 C 1512.08 -5.16527 1.38215 0
M  V30 16386 C 1513.38 -4.06959 3.27386 0
M  V30 16387 H 1515.07 -2.14847 2.08522 0
M  V30 16388 H 1512.62 -1.03233 1.00394 0
M  V30 16389 H 1514.57 -4.15505 0.702382 0
M  V30 16390 H 1513.3 -3.26199 -0.161732 0
M  V30 16391 H 1511.96 -3.09536 1.96426 0
M  V30 16392 H 1511.6 -5.01413 0.399263 0
M  V30 16393 H 1511.3 -5.49213 2.08898 0
M  V30 16394 H 1512.83 -5.96871 1.28754 0
M  V30 16395 H 1514.24 -4.75272 3.20608 0
M  V30 16396 H 1512.64 -4.50977 3.95904 0
M  V30 16397 H 1513.71 -3.11764 3.71391 0
M  V30 16398 N 1515.05 -1.1067 -1.12204 0
M  V30 16399 C 1516.28 -0.873095 -1.88127 0
M  V30 16400 C 1516.7 0.571099 -1.79221 0
M  V30 16401 O 1516.06 1.40251 -1.14888 0
M  V30 16402 C 1516.11 -1.32922 -3.35208 0
M  V30 16403 O 1515.21 -0.495807 -4.09409 0
M  V30 16404 H 1514.55 -0.315138 -0.584452 0
M  V30 16405 H 1517.08 -1.47413 -1.41882 0
M  V30 16406 H 1517.09 -1.32023 -3.86049 0
M  V30 16407 H 1515.77 -2.38091 -3.41007 0
M  V30 16408 H 1514.35 -0.570216 -3.68515 0
M  V30 16409 N 1516.53 1.29665 -0.895815 0
M  V30 16410 C 1517.44 2.31582 -0.375086 0
M  V30 16411 C 1518.46 1.65789 0.528196 0
M  V30 16412 O 1519.63 1.96999 0.41871 0
M  V30 16413 C 1516.7 3.44472 0.39241 0
M  V30 16414 C 1515.76 4.25866 -0.541926 0
M  V30 16415 C 1514.99 5.33365 0.189037 0
M  V30 16416 O 1515.21 5.52607 1.41355 0
M  V30 16417 O 1514.15 6.0009 -0.466441 0
M  V30 16418 H 1517.97 2.78095 -1.22052 0
M  V30 16419 H 1515.56 1.34031 -0.660007 0
M  V30 16420 H 1517.44 4.13214 0.826565 0
M  V30 16421 H 1516.12 3.00074 1.21397 0
M  V30 16422 H 1515.02 3.59781 -1.02512 0
M  V30 16423 H 1516.36 4.73896 -1.32979 0
M  V30 16424 N 1518.01 0.657889 1.43212 0
M  V30 16425 C 1519.26 0.172845 2.0136 0
M  V30 16426 C 1519.58 -1.21911 1.52193 0
M  V30 16427 O 1518.85 -1.81529 0.736492 0
M  V30 16428 H 1517.43 0.0609091 0.744513 0
M  V30 16429 H 1520.09 0.850605 1.75359 0
M  V30 16430 H 1519.19 0.161062 3.11684 0
M  V30 16431 N 1519.49 -1.52437 0.400108 0
M  V30 16432 C 1520.42 -2.29672 -0.421054 0
M  V30 16433 C 1521.4 -1.33506 -1.05405 0
M  V30 16434 O 1522.58 -1.62408 -1.06477 0
M  V30 16435 C 1519.71 -3.1115 -1.54281 0
M  V30 16436 C 1518.67 -4.1529 -1.0353 0
M  V30 16437 C 1517.99 -4.85058 -2.24996 0
M  V30 16438 C 1519.29 -5.22212 -0.0956529 0
M  V30 16439 H 1520.99 -2.98565 0.2234 0
M  V30 16440 H 1518.53 -1.43588 0.108883 0
M  V30 16441 H 1520.49 -3.63945 -2.12419 0
M  V30 16442 H 1519.21 -2.4001 -2.21501 0
M  V30 16443 H 1517.87 -3.63492 -0.476383 0
M  V30 16444 H 1517.52 -4.10455 -2.9075 0
M  V30 16445 H 1517.22 -5.55452 -1.91694 0
M  V30 16446 H 1518.74 -5.40661 -2.83756 0
M  V30 16447 H 1520.15 -5.70302 -0.585548 0
M  V30 16448 H 1518.55 -5.99917 0.148121 0
M  V30 16449 H 1519.62 -4.77351 0.852296 0
M  V30 16450 N 1520.96 -0.130252 -1.57061 0
M  V30 16451 C 1522.38 0.393318 -1.8251 0
M  V30 16452 C 1522.73 1.65862 -1.04806 0
M  V30 16453 O 1521.85 2.14473 -0.288118 0
M  V30 16454 C 1522.45 0.720366 -3.31053 0
M  V30 16455 C 1521.01 1.18852 -3.57143 0
M  V30 16456 C 1520.15 0.202964 -2.76556 0
M  V30 16457 H 1523.1 -0.355217 -1.54674 0
M  V30 16458 H 1523.12 1.57671 -3.46295 0
M  V30 16459 H 1522.64 -0.200719 -3.87581 0
M  V30 16460 H 1520.74 2.12612 -3.05985 0
M  V30 16461 H 1520.85 1.12607 -4.65678 0
M  V30 16462 H 1519.21 0.692264 -2.45112 0
M  V30 16463 H 1520 -0.711417 -3.35848 0
M  V30 16464 N 1522.44 1.56945 0.143535 0
M  V30 16465 C 1523.69 1.82728 0.854011 0
M  V30 16466 C 1524.01 0.712048 1.82179 0
M  V30 16467 O 1525.21 0.855579 2.57667 0
M  V30 16468 C 1523.67 3.23882 1.56934 0
M  V30 16469 C 1523.28 4.4335 0.643789 0
M  V30 16470 C 1525.02 3.58936 2.26639 0
M  V30 16471 C 1522.93 5.75528 1.36094 0
M  V30 16472 H 1521.86 0.681474 0.32266 0
M  V30 16473 H 1524.51 1.83189 0.106741 0
M  V30 16474 H 1522.89 3.17819 2.36236 0
M  V30 16475 H 1524.06 4.60658 -0.114257 0
M  V30 16476 H 1522.38 4.16364 0.0549721 0
M  V30 16477 H 1524.98 4.54948 2.80939 0
M  V30 16478 H 1525.32 2.85163 3.03295 0
M  V30 16479 H 1525.85 3.66676 1.54252 0
M  V30 16480 H 1522.59 6.52406 0.636157 0
M  V30 16481 H 1522.11 5.62149 2.09161 0
M  V30 16482 H 1523.79 6.18445 1.9009 0
M  V30 16483 N 1523.92 -0.412991 1.52093 0
M  V30 16484 C 1525.17 -1.15737 1.65191 0
M  V30 16485 C 1525.48 -1.91753 0.38601 0
M  V30 16486 O 1526.69 -2.68586 0.396731 0
M  V30 16487 C 1525.15 -2.10619 2.91835 0
M  V30 16488 C 1524.75 -1.40137 4.25518 0
M  V30 16489 C 1526.5 -2.85339 3.14296 0
M  V30 16490 C 1524.4 -2.33645 5.4329 0
M  V30 16491 H 1523.33 -0.435732 0.615348 0
M  V30 16492 H 1525.99 -0.422172 1.78578 0
M  V30 16493 H 1524.37 -2.87675 2.72138 0
M  V30 16494 H 1525.54 -0.684719 4.55684 0
M  V30 16495 H 1523.86 -0.774734 4.09129 0
M  V30 16496 H 1526.45 -3.55437 3.99461 0
M  V30 16497 H 1526.8 -3.48071 2.28369 0
M  V30 16498 H 1527.33 -2.15384 3.34447 0
M  V30 16499 H 1524.07 -1.75566 6.31551 0
M  V30 16500 H 1523.59 -3.03294 5.17467 0
M  V30 16501 H 1525.27 -2.94255 5.76215 0
M  V30 16502 N 1525.4 -1.4265 -0.669982 0
M  V30 16503 C 1526.36 -1.46196 -1.7652 0
M  V30 16504 C 1527.36 -0.348884 -1.5697 0
M  V30 16505 O 1528.55 -0.609921 -1.63174 0
M  V30 16506 C 1525.68 -1.29829 -3.1521 0
M  V30 16507 H 1526.88 -2.43718 -1.74762 0
M  V30 16508 H 1524.43 -1.29168 -0.88007 0
M  V30 16509 H 1525.17 -0.332493 -3.22591 0
M  V30 16510 H 1524.95 -2.10501 -3.30804 0
M  V30 16511 H 1526.44 -1.35205 -3.95107 0
M  V30 16512 N 1526.88 0.906753 -1.28902 0
M  V30 16513 C 1528.11 1.69019 -1.19333 0
M  V30 16514 C 1528.52 1.87176 0.247065 0
M  V30 16515 O 1527.88 1.40376 1.16623 0
M  V30 16516 C 1527.93 3.07854 -1.89495 0
M  V30 16517 O 1527.65 2.90531 -3.27908 0
M  V30 16518 C 1529.15 4.02246 -1.86314 0
M  V30 16519 H 1526.37 0.528119 -0.413922 0
M  V30 16520 H 1528.91 1.13441 -1.70151 0
M  V30 16521 H 1527.07 3.60228 -1.42529 0
M  V30 16522 H 1527.48 3.78451 -3.63146 0
M  V30 16523 H 1528.96 4.97104 -2.39983 0
M  V30 16524 H 1529.43 4.31149 -0.837071 0
M  V30 16525 H 1530.04 3.55803 -2.3299 0
M  V30 16526 N 1528.36 1.11264 1.11616 0
M  V30 16527 C 1529.6 0.855139 1.82675 0
M  V30 16528 C 1529.92 -0.621194 1.85474 0
M  V30 16529 O 1531.12 -0.994886 2.52615 0
M  V30 16530 C 1529.58 1.48007 3.28058 0
M  V30 16531 C 1529.19 2.99031 3.33593 0
M  V30 16532 C 1530.93 1.30233 4.04029 0
M  V30 16533 C 1528.84 3.54517 4.73362 0
M  V30 16534 H 1527.77 0.316252 0.684471 0
M  V30 16535 H 1530.42 1.33766 1.25614 0
M  V30 16536 H 1528.8 0.925214 3.8504 0
M  V30 16537 H 1529.98 3.60905 2.86503 0
M  V30 16538 H 1528.29 3.16059 2.711 0
M  V30 16539 H 1530.89 1.69122 5.07249 0
M  V30 16540 H 1531.23 0.244724 4.1558 0
M  V30 16541 H 1531.76 1.82573 3.53429 0
M  V30 16542 H 1528.5 4.59982 4.67008 0
M  V30 16543 H 1528.02 2.97414 5.20869 0
M  V30 16544 H 1529.7 3.52848 5.42316 0
M  V30 16545 N 1529.83 -1.29188 0.902679 0
M  V30 16546 C 1531.08 -1.94718 0.526082 0
M  V30 16547 C 1531.4 -1.71924 -0.932816 0
M  V30 16548 O 1532.6 -2.31585 -1.41707 0
M  V30 16549 C 1531.06 -3.48723 0.889974 0
M  V30 16550 C 1530.67 -3.80312 2.36784 0
M  V30 16551 C 1532.41 -4.20472 0.58343 0
M  V30 16552 C 1530.32 -5.27574 2.67244 0
M  V30 16553 H 1529.25 -0.728875 0.193019 0
M  V30 16554 H 1531.9 -1.46869 1.10008 0
M  V30 16555 H 1530.28 -3.95242 0.244872 0
M  V30 16556 H 1531.45 -3.44641 3.05875 0
M  V30 16557 H 1529.77 -3.21709 2.64371 0
M  V30 16558 H 1532.37 -5.28864 0.787813 0
M  V30 16559 H 1532.71 -4.13544 -0.478204 0
M  V30 16560 H 1533.24 -3.79693 1.1865 0
M  V30 16561 H 1529.98 -5.39569 3.72217 0
M  V30 16562 H 1529.5 -5.64482 2.0278 0
M  V30 16563 H 1531.18 -5.95199 2.53666 0
M  V30 16564 N 1531.31 -0.665475 -1.42861 0
M  V30 16565 C 1532.59 -0.113252 -1.95272 0
M  V30 16566 C 1532.97 1.36972 -1.6063 0
M  V30 16567 O 1532.32 2.10129 -0.897662 0
M  V30 16568 C 1532.53 -0.372482 -3.47007 0
M  V30 16569 C 1533.87 -0.283982 -4.23649 0
M  V30 16570 O 1534.9 -0.305714 -3.54886 0
M  V30 16571 O 1533.76 -0.218171 -5.46064 0
M  V30 16572 H 1530.85 0.00253712 -0.826996 0
M  V30 16573 H 1533.4 -0.739561 -1.52737 0
M  V30 16574 H 1532.17 -1.40015 -3.65392 0
M  V30 16575 H 1531.79 0.286294 -3.96568 0
M  V30 16576 N 1532.79 1.52222 -0.408187 0
M  V30 16577 C 1534.04 2.01404 0.167574 0
M  V30 16578 C 1534.36 1.29572 1.45726 0
M  V30 16579 O 1533.63 0.421363 1.91315 0
M  V30 16580 H 1532.21 0.744174 0.0649156 0
M  V30 16581 H 1534.87 1.87148 -0.544212 0
M  V30 16582 H 1533.97 3.09966 0.36436 0
M  V30 16583 N 1534.27 0.138579 1.5699 0
M  V30 16584 C 1535.51 -0.51539 1.96142 0
M  V30 16585 C 1535.85 -1.65067 1.02306 0
M  V30 16586 O 1535.12 -1.94395 0.0638645 0
M  V30 16587 C 1535.4 -1.02956 3.45068 0
M  V30 16588 C 1535.26 0.103646 4.49681 0
M  V30 16589 C 1536.58 -1.91411 3.96295 0
M  V30 16590 H 1533.7 -0.185873 0.713176 0
M  V30 16591 H 1536.34 0.218103 1.88744 0
M  V30 16592 H 1534.49 -1.65462 3.51503 0
M  V30 16593 H 1536.16 0.739693 4.55331 0
M  V30 16594 H 1534.4 0.764014 4.27019 0
M  V30 16595 H 1535.07 -0.297688 5.51197 0
M  V30 16596 H 1537.55 -1.38746 3.92286 0
M  V30 16597 H 1536.43 -2.24298 5.0098 0
M  V30 16598 H 1536.69 -2.84793 3.38149 0
M  V30 16599 N 1535.75 -1.57019 -0.13521 0
M  V30 16600 C 1536.97 -1.88528 -0.864399 0
M  V30 16601 C 1537.4 -0.728852 -1.73405 0
M  V30 16602 O 1536.75 0.321196 -1.78432 0
M  V30 16603 C 1536.8 -3.18694 -1.6872 0
M  V30 16604 O 1535.91 -3.03458 -2.79262 0
M  V30 16605 H 1535.25 -0.61909 -0.24005 0
M  V30 16606 H 1537.78 -2.04233 -0.12248 0
M  V30 16607 H 1537.79 -3.51011 -2.0798 0
M  V30 16608 H 1536.46 -4.02462 -1.04868 0
M  V30 16609 H 1535.04 -2.82575 -2.43323 0
M  V30 16610 N 1537.22 0.404919 -1.52309 0
M  V30 16611 C 1538.15 1.50039 -1.78915 0
M  V30 16612 C 1539.14 1.57587 -0.640329 0
M  V30 16613 O 1540.32 1.72793 -0.886344 0
M  V30 16614 C 1537.45 2.87819 -1.94364 0
M  V30 16615 C 1536.4 2.9512 -3.09981 0
M  V30 16616 C 1535.73 4.35195 -3.10659 0
M  V30 16617 C 1537.03 2.66219 -4.4936 0
M  V30 16618 H 1538.72 1.28025 -2.70647 0
M  V30 16619 H 1536.27 0.61445 -1.30233 0
M  V30 16620 H 1538.22 3.64446 -2.11559 0
M  V30 16621 H 1536.95 3.11136 -0.993067 0
M  V30 16622 H 1535.61 2.20939 -2.92543 0
M  V30 16623 H 1535.25 4.55528 -2.13316 0
M  V30 16624 H 1534.95 4.41003 -3.88317 0
M  V30 16625 H 1536.48 5.1375 -3.29989 0
M  V30 16626 H 1537.89 3.32567 -4.66982 0
M  V30 16627 H 1536.29 2.83398 -5.28967 0
M  V30 16628 H 1537.36 1.61636 -4.57167 0
M  V30 16629 N 1538.7 1.43003 0.662408 0
M  V30 16630 C 1539.95 1.43848 1.41958 0
M  V30 16631 C 1540.27 0.06046 1.94906 0
M  V30 16632 O 1539.54 -0.90287 1.73854 0
M  V30 16633 H 1538.12 0.529587 0.526827 0
M  V30 16634 H 1540.78 1.7853 0.781867 0
M  V30 16635 H 1539.88 2.14562 2.26649 0
M  V30 16636 N 1540.18 -0.899904 1.29381 0
M  V30 16637 C 1541.14 -1.98554 1.14494 0
M  V30 16638 C 1542.14 -1.60599 0.0804732 0
M  V30 16639 O 1543.33 -1.71096 0.327395 0
M  V30 16640 C 1540.47 -3.32529 0.750818 0
M  V30 16641 H 1541.66 -2.13189 2.10928 0
M  V30 16642 H 1539.21 -1.08438 1.12565 0
M  V30 16643 H 1539.95 -3.23595 -0.213668 0
M  V30 16644 H 1539.73 -3.61443 1.51992 0
M  V30 16645 H 1541.22 -4.12195 0.669709 0
M  V30 16646 N 1541.66 -1.11854 -1.11024 0
M  V30 16647 C 1542.62 -0.784033 -2.15373 0
M  V30 16648 C 1543.62 0.198686 -1.59568 0
M  V30 16649 O 1544.81 -0.0263428 -1.7418 0
M  V30 16650 C 1541.94 -0.163987 -3.40505 0
M  V30 16651 H 1543.14 -1.70849 -2.46477 0
M  V30 16652 H 1540.69 -0.920988 -1.26283 0
M  V30 16653 H 1541.42 0.770483 -3.15014 0
M  V30 16654 H 1541.21 -0.871447 -3.82293 0
M  V30 16655 H 1542.7 0.0537739 -4.17565 0
M  V30 16656 N 1543.14 1.28707 -0.909517 0
M  V30 16657 C 1544.39 1.94437 -0.536401 0
M  V30 16658 C 1544.7 1.72416 0.923685 0
M  V30 16659 O 1545.9 2.32333 1.40477 0
M  V30 16660 C 1544.36 3.48246 -0.908455 0
M  V30 16661 C 1543.97 3.79051 -2.38798 0
M  V30 16662 C 1545.71 4.20156 -0.605721 0
M  V30 16663 C 1543.62 5.2615 -2.70038 0
M  V30 16664 H 1542.55 0.727842 -0.196882 0
M  V30 16665 H 1545.2 1.46283 -1.10786 0
M  V30 16666 H 1543.58 3.95107 -0.265829 0
M  V30 16667 H 1544.76 3.43014 -3.07698 0
M  V30 16668 H 1543.07 3.20303 -2.66074 0
M  V30 16669 H 1545.67 5.28439 -0.815849 0
M  V30 16670 H 1546.01 4.13792 0.456266 0
M  V30 16671 H 1546.54 3.79059 -1.20662 0
M  V30 16672 H 1543.28 5.37587 -3.75073 0
M  V30 16673 H 1542.8 5.63399 -2.05771 0
M  V30 16674 H 1544.48 5.93846 -2.56819 0
M  V30 16675 N 1544.61 0.673042 1.42506 0
M  V30 16676 C 1545.56 -0.00638067 2.30799 0
M  V30 16677 C 1546.53 -0.794524 1.45865 0
M  V30 16678 O 1547.72 -0.767129 1.74699 0
M  V30 16679 C 1544.86 -0.952923 3.31683 0
M  V30 16680 C 1543.97 -0.158787 4.31708 0
M  V30 16681 C 1543.1 -1.10092 5.19666 0
M  V30 16682 C 1542.14 -0.29837 6.11372 0
M  V30 16683 N 1541.28 -1.19312 6.91888 0
M  V30 16684 H 1546.12 0.75237 2.88346 0
M  V30 16685 H 1543.66 0.382763 1.42033 0
M  V30 16686 H 1545.62 -1.51552 3.887 0
M  V30 16687 H 1544.25 -1.67832 2.75739 0
M  V30 16688 H 1543.3 0.520406 3.76823 0
M  V30 16689 H 1544.61 0.464385 4.96634 0
M  V30 16690 H 1543.76 -1.7335 5.81407 0
M  V30 16691 H 1542.5 -1.75798 4.54914 0
M  V30 16692 H 1541.51 0.347437 5.48701 0
M  V30 16693 H 1542.73 0.354569 6.78174 0
M  V30 16694 H 1540.68 -1.83661 6.29765 0
M  V30 16695 H 1540.6 -0.624986 7.53412 0
M  V30 16696 H 1541.86 -1.81323 7.58118 0
M  V30 16697 N 1546.09 -1.52004 0.416254 0
M  V30 16698 C 1547 -2.30947 -0.412403 0
M  V30 16699 C 1548.02 -1.38969 -1.04707 0
M  V30 16700 O 1549.19 -1.72044 -1.04703 0
M  V30 16701 C 1546.26 -3.12078 -1.51024 0
M  V30 16702 C 1545.32 -4.19805 -0.897892 0
M  V30 16703 C 1544.55 -4.97059 -1.94341 0
M  V30 16704 O 1544.78 -4.74695 -3.16261 0
M  V30 16705 O 1543.71 -5.81715 -1.54567 0
M  V30 16706 H 1547.54 -3.02817 0.231473 0
M  V30 16707 H 1545.12 -1.4832 0.179283 0
M  V30 16708 H 1547 -3.6258 -2.14741 0
M  V30 16709 H 1545.68 -2.42995 -2.13858 0
M  V30 16710 H 1544.59 -3.73433 -0.223236 0
M  V30 16711 H 1545.92 -4.91201 -0.31336 0
M  V30 16712 N 1547.57 -0.146903 -1.56914 0
M  V30 16713 C 1548.5 0.788924 -2.19769 0
M  V30 16714 C 1549.48 1.25712 -1.14589 0
M  V30 16715 O 1550.67 1.3147 -1.42931 0
M  V30 16716 C 1547.8 2.02824 -2.81921 0
M  V30 16717 C 1546.75 1.69683 -3.92927 0
M  V30 16718 C 1546.08 3.00877 -4.42015 0
M  V30 16719 C 1547.38 0.943559 -5.13706 0
M  V30 16720 H 1549.07 0.265076 -2.98224 0
M  V30 16721 H 1546.62 0.126057 -1.43447 0
M  V30 16722 H 1548.57 2.68773 -3.2456 0
M  V30 16723 H 1547.29 2.57581 -2.00797 0
M  V30 16724 H 1545.95 1.06112 -3.50907 0
M  V30 16725 H 1545.6 3.53625 -3.57713 0
M  V30 16726 H 1545.3 2.79466 -5.16888 0
M  V30 16727 H 1546.82 3.67897 -4.87323 0
M  V30 16728 H 1548.24 1.50513 -5.5319 0
M  V30 16729 H 1546.64 0.829387 -5.94341 0
M  V30 16730 H 1547.71 -0.0647228 -4.84857 0
M  V30 16731 N 1549.05 1.57088 0.126881 0
M  V30 16732 C 1550.27 1.88984 0.854389 0
M  V30 16733 C 1550.7 0.738037 1.73016 0
M  V30 16734 O 1550.06 -0.311728 1.786 0
M  V30 16735 C 1550.1 3.19584 1.67028 0
M  V30 16736 O 1549.21 3.04935 2.77648 0
M  V30 16737 H 1548.55 0.620354 0.236763 0
M  V30 16738 H 1551.08 2.04295 0.111647 0
M  V30 16739 H 1551.09 3.52109 2.06115 0
M  V30 16740 H 1549.76 4.03012 1.02732 0
M  V30 16741 H 1548.34 2.83861 2.41821 0
M  V30 16742 N 1550.53 -0.396836 1.52522 0
M  V30 16743 C 1551.44 -1.50871 1.79653 0
M  V30 16744 C 1552.45 -1.60043 0.682804 0
M  V30 16745 O 1553.63 -1.76527 0.96955 0
M  V30 16746 C 1550.69 -2.86485 1.95263 0
M  V30 16747 C 1549.75 -2.87099 3.19175 0
M  V30 16748 C 1548.99 -4.16244 3.34031 0
M  V30 16749 O 1549.21 -5.1079 2.5387 0
M  V30 16750 O 1548.14 -4.23962 4.27247 0
M  V30 16751 H 1551.97 -1.30878 2.74052 0
M  V30 16752 H 1549.56 -0.583908 1.37517 0
M  V30 16753 H 1551.44 -3.66895 2.07282 0
M  V30 16754 H 1550.11 -3.0652 1.04052 0
M  V30 16755 H 1549.02 -2.05497 3.12605 0
M  V30 16756 H 1550.35 -2.72014 4.10206 0
M  V30 16757 N 1552.01 -1.43353 -0.654814 0
M  V30 16758 C 1553.23 -1.48322 -1.4425 0
M  V30 16759 C 1553.65 -0.100608 -1.88532 0
M  V30 16760 O 1553.01 0.888831 -1.59393 0
M  V30 16761 C 1553.06 -2.42769 -2.67853 0
M  V30 16762 O 1552.78 -3.75653 -2.25424 0
M  V30 16763 C 1554.28 -2.56964 -3.61226 0
M  V30 16764 H 1551.5 -0.503805 -0.443195 0
M  V30 16765 H 1554.04 -1.88078 -0.802916 0
M  V30 16766 H 1552.2 -2.06212 -3.27956 0
M  V30 16767 H 1552.61 -4.26427 -3.05386 0
M  V30 16768 H 1554.09 -3.27129 -4.44624 0
M  V30 16769 H 1554.56 -1.61404 -4.08467 0
M  V30 16770 H 1555.17 -2.94325 -3.07006 0
M  V30 16771 N 1553.48 0.89303 -1.29857 0
M  V30 16772 C 1554.71 1.6827 -1.21243 0
M  V30 16773 C 1555.13 1.86778 0.222621 0
M  V30 16774 O 1554.49 1.39291 1.1605 0
M  V30 16775 C 1554.54 3.041 -1.93792 0
M  V30 16776 O 1553.64 3.92696 -1.25951 0
M  V30 16777 H 1552.98 0.514479 -0.419771 0
M  V30 16778 H 1555.51 1.11513 -1.7154 0
M  V30 16779 H 1555.52 3.54198 -2.02504 0
M  V30 16780 H 1554.2 2.89948 -2.98166 0
M  V30 16781 H 1552.78 3.51132 -1.25541 0
M  V30 16782 N 1554.96 1.12442 1.10429 0
M  V30 16783 C 1556.24 0.791191 1.78884 0
M  V30 16784 C 1556.62 -0.719044 1.98477 0
M  V30 16785 O 1555.97 -1.65275 1.57786 0
M  V30 16786 C 1556.18 1.56632 3.11877 0
M  V30 16787 C 1557.52 1.75236 3.86752 0
M  V30 16788 O 1558.55 1.53145 3.21598 0
M  V30 16789 O 1557.41 2.12025 5.03694 0
M  V30 16790 H 1554.5 0.287788 0.775311 0
M  V30 16791 H 1557.05 1.22844 1.17078 0
M  V30 16792 H 1555.82 2.59317 2.93037 0
M  V30 16793 H 1555.44 1.12332 3.81402 0
M  V30 16794 N 1556.44 -1.28223 0.91633 0
M  V30 16795 C 1557.85 -1.76898 0.597003 0
M  V30 16796 C 1558.2 -1.74969 -0.887719 0
M  V30 16797 O 1557.33 -1.34598 -1.69447 0
M  V30 16798 C 1557.92 -3.21228 1.07694 0
M  V30 16799 C 1556.48 -3.67614 0.80849 0
M  V30 16800 C 1555.63 -2.47921 1.24219 0
M  V30 16801 H 1558.58 -1.1465 1.09732 0
M  V30 16802 H 1558.6 -3.7818 0.419531 0
M  V30 16803 H 1558.11 -3.226 2.15757 0
M  V30 16804 H 1556.21 -3.717 -0.258814 0
M  V30 16805 H 1556.33 -4.57633 1.41804 0
M  V30 16806 H 1554.69 -2.45976 0.660892 0
M  V30 16807 H 1555.47 -2.5201 2.33122 0
M  V30 16808 N 1557.92 -0.68059 -1.42147 0
M  V30 16809 C 1558.85 -0.0199376 -2.33491 0
M  V30 16810 C 1559.83 0.783164 -1.50999 0
M  V30 16811 O 1561.01 0.739154 -1.79583 0
M  V30 16812 C 1558.14 0.927902 -3.34675 0
M  V30 16813 C 1557.1 0.232979 -4.27365 0
M  V30 16814 C 1556.42 1.29415 -5.18802 0
M  V30 16815 C 1557.72 -0.891559 -5.14634 0
M  V30 16816 H 1559.42 -0.782823 -2.88985 0
M  V30 16817 H 1556.96 -0.377898 -1.38953 0
M  V30 16818 H 1558.92 1.3992 -3.97493 0
M  V30 16819 H 1557.64 1.72228 -2.77498 0
M  V30 16820 H 1556.3 -0.21814 -3.6595 0
M  V30 16821 H 1555.95 2.08067 -4.57949 0
M  V30 16822 H 1555.65 0.834274 -5.81647 0
M  V30 16823 H 1557.17 1.76627 -5.84496 0
M  V30 16824 H 1558.59 -0.501219 -5.71105 0
M  V30 16825 H 1556.98 -1.27759 -5.86343 0
M  V30 16826 H 1558.05 -1.73781 -4.5269 0
M  V30 16827 N 1559.4 1.51781 -0.424309 0
M  V30 16828 C 1560.33 2.30313 0.384462 0
M  V30 16829 C 1561.31 1.35166 1.03268 0
M  V30 16830 O 1562.49 1.64081 1.0388 0
M  V30 16831 C 1559.62 3.13566 1.49311 0
M  V30 16832 C 1558.58 4.16884 0.969096 0
M  V30 16833 C 1557.9 4.88576 2.17251 0
M  V30 16834 C 1559.2 5.22298 0.0125613 0
M  V30 16835 H 1560.9 2.98172 -0.270871 0
M  V30 16836 H 1558.44 1.43396 -0.131712 0
M  V30 16837 H 1560.39 3.67279 2.06602 0
M  V30 16838 H 1559.12 2.43504 2.17655 0
M  V30 16839 H 1557.78 3.64203 0.418494 0
M  V30 16840 H 1557.43 4.15029 2.84183 0
M  V30 16841 H 1557.13 5.58432 1.82833 0
M  V30 16842 H 1558.65 5.45107 2.75119 0
M  V30 16843 H 1560.06 5.71161 0.494744 0
M  V30 16844 H 1558.46 5.99606 -0.243544 0
M  V30 16845 H 1559.53 4.75935 -0.92813 0
M  V30 16846 N 1560.87 0.155222 1.56834 0
M  V30 16847 C 1562.29 -0.201116 1.58328 0
M  V30 16848 C 1562.49 -1.64061 1.16988 0
M  V30 16849 O 1561.55 -2.36892 0.873989 0
M  V30 16850 C 1562.86 0.0651005 3.0063 0
M  V30 16851 C 1564.41 0.00203866 3.13 0
M  V30 16852 C 1564.88 0.241032 4.57365 0
M  V30 16853 N 1566.37 0.188245 4.62817 0
M  V30 16854 C 1567.11 0.347562 5.72346 0
M  V30 16855 N 1566.6 0.565052 6.90492 0
M  V30 16856 N 1568.4 0.284589 5.61379 0
M  V30 16857 H 1560.55 1.09503 1.81997 0
M  V30 16858 H 1562.81 0.434106 0.842767 0
M  V30 16859 H 1562.52 1.06167 3.35293 0
M  V30 16860 H 1562.39 -0.650601 3.71547 0
M  V30 16861 H 1564.78 -0.98509 2.78173 0
M  V30 16862 H 1564.86 0.750199 2.44552 0
M  V30 16863 H 1564.5 1.2253 4.92898 0
M  V30 16864 H 1564.43 -0.52755 5.23951 0
M  V30 16865 H 1566.92 0.0251352 3.77892 0
M  V30 16866 H 1567.24 0.676502 7.69833 0
M  V30 16867 H 1565.58 0.601473 6.92392 0
M  V30 16868 H 1568.77 0.115381 4.67958 0
M  V30 16869 H 1568.95 0.412182 6.46688 0
M  V30 16870 N 1562.35 -1.57153 -0.118549 0
M  V30 16871 C 1563.28 -1.97022 -1.1711 0
M  V30 16872 C 1564.3 -0.869599 -1.37629 0
M  V30 16873 O 1565.49 -1.14788 -1.36696 0
M  V30 16874 C 1562.59 -2.25371 -2.53103 0
M  V30 16875 C 1561.76 -3.56677 -2.5318 0
M  V30 16876 C 1560.82 -3.73233 -3.70922 0
M  V30 16877 O 1559.84 -4.4534 -3.54487 0
M  V30 16878 N 1561.05 -3.12036 -4.89504 0
M  V30 16879 H 1563.81 -2.87921 -0.831959 0
M  V30 16880 H 1561.37 -1.58947 -0.307817 0
M  V30 16881 H 1563.36 -2.33662 -3.3043 0
M  V30 16882 H 1561.93 -1.40597 -2.79197 0
M  V30 16883 H 1561.15 -3.5957 -1.61564 0
M  V30 16884 H 1562.44 -4.42982 -2.50288 0
M  V30 16885 H 1561.84 -2.53422 -5.05761 0
M  V30 16886 H 1560.4 -3.25846 -5.64506 0
M  V30 16887 N 1563.83 0.388742 -1.5273 0
M  V30 16888 C 1564.74 1.49916 -1.8045 0
M  V30 16889 C 1565.76 1.59679 -0.691282 0
M  V30 16890 O 1566.93 1.7601 -0.978898 0
M  V30 16891 C 1564 2.85445 -1.96779 0
M  V30 16892 C 1563.06 2.85402 -3.20693 0
M  V30 16893 C 1562.29 4.14466 -3.36234 0
M  V30 16894 O 1562.51 5.09436 -2.56576 0
M  V30 16895 O 1561.45 4.2169 -4.29489 0
M  V30 16896 H 1565.27 1.29423 -2.74743 0
M  V30 16897 H 1562.86 0.576607 -1.37825 0
M  V30 16898 H 1564.74 3.65791 -2.09224 0
M  V30 16899 H 1563.42 3.05964 -1.05676 0
M  V30 16900 H 1562.32 2.03836 -3.1369 0
M  V30 16901 H 1563.66 2.69835 -4.11643 0
M  V30 16902 N 1565.31 1.43698 0.647203 0
M  V30 16903 C 1566.56 1.44918 1.40292 0
M  V30 16904 C 1566.87 0.0794243 1.95439 0
M  V30 16905 O 1568.08 -0.0309052 2.71482 0
M  V30 16906 C 1566.53 2.55052 2.53923 0
M  V30 16907 C 1566.14 3.98161 2.05357 0
M  V30 16908 C 1567.88 2.65473 3.31246 0
M  V30 16909 C 1565.79 4.99749 3.16235 0
M  V30 16910 H 1564.72 0.539106 0.527144 0
M  V30 16911 H 1567.37 1.69708 0.697951 0
M  V30 16912 H 1565.75 2.23473 3.26919 0
M  V30 16913 H 1566.93 4.3923 1.39333 0
M  V30 16914 H 1565.24 3.91839 1.40896 0
M  V30 16915 H 1567.84 3.38546 4.13873 0
M  V30 16916 H 1568.18 1.70745 3.79673 0
M  V30 16917 H 1568.72 2.96383 2.65334 0
M  V30 16918 H 1565.45 5.96051 2.7277 0
M  V30 16919 H 1564.97 4.63288 3.80952 0
M  V30 16920 H 1566.65 5.22725 3.81271 0
M  V30 16921 N 1566.79 -0.886131 1.30328 0
M  V30 16922 C 1567.7 -2.02453 1.18532 0
M  V30 16923 C 1568.71 -1.7368 0.105506 0
M  V30 16924 O 1569.89 -1.98838 0.320217 0
M  V30 16925 C 1566.95 -3.3543 0.876792 0
M  V30 16926 C 1566.01 -3.77633 2.04185 0
M  V30 16927 C 1565.25 -5.04264 1.74795 0
M  V30 16928 O 1565.47 -5.66388 0.675323 0
M  V30 16929 O 1564.4 -5.42847 2.60001 0
M  V30 16930 H 1568.23 -2.15333 2.14162 0
M  V30 16931 H 1565.82 -1.01193 1.09911 0
M  V30 16932 H 1567.7 -4.15206 0.719882 0
M  V30 16933 H 1566.37 -3.23662 -0.0496117 0
M  V30 16934 H 1565.28 -2.98567 2.25408 0
M  V30 16935 H 1566.61 -3.94004 2.94994 0
M  V30 16936 N 1568.26 -1.13026 -1.09832 0
M  V30 16937 C 1569.23 -0.806832 -2.14529 0
M  V30 16938 C 1570.23 0.18175 -1.5977 0
M  V30 16939 O 1571.42 -0.0448155 -1.74142 0
M  V30 16940 C 1568.55 -0.200093 -3.40312 0
M  V30 16941 H 1569.74 -1.73453 -2.44651 0
M  V30 16942 H 1567.3 -0.934331 -1.25299 0
M  V30 16943 H 1568.03 0.737028 -3.15814 0
M  V30 16944 H 1567.82 -0.911945 -3.81348 0
M  V30 16945 H 1569.31 0.00948247 -4.17599 0
M  V30 16946 N 1569.74 1.27735 -0.923117 0
M  V30 16947 C 1570.69 2.26997 -0.417254 0
M  V30 16948 C 1571.66 1.57968 0.513364 0
M  V30 16949 O 1572.84 1.8581 0.433521 0
M  V30 16950 C 1569.98 3.43537 0.328089 0
M  V30 16951 C 1569.1 4.27291 -0.636112 0
M  V30 16952 C 1568.23 5.31044 0.128614 0
M  V30 16953 C 1567.27 6.06466 -0.828592 0
M  V30 16954 N 1566.41 7.02033 -0.0967858 0
M  V30 16955 H 1571.25 2.69643 -1.26872 0
M  V30 16956 H 1568.79 1.32597 -0.6369 0
M  V30 16957 H 1570.74 4.0991 0.776504 0
M  V30 16958 H 1569.37 3.01855 1.14383 0
M  V30 16959 H 1568.43 3.60875 -1.20306 0
M  V30 16960 H 1569.74 4.79679 -1.36784 0
M  V30 16961 H 1568.89 6.03345 0.637159 0
M  V30 16962 H 1567.63 4.79448 0.893341 0
M  V30 16963 H 1566.64 5.33008 -1.34843 0
M  V30 16964 H 1567.86 6.60151 -1.59303 0
M  V30 16965 H 1565.81 6.52774 0.649779 0
M  V30 16966 H 1565.72 7.52087 -0.768171 0
M  V30 16967 H 1566.99 7.78517 0.391257 0
M  V30 16968 N 1571.22 0.688118 1.41784 0
M  V30 16969 C 1572.47 0.213085 2.00571 0
M  V30 16970 C 1572.78 -1.19176 1.55101 0
M  V30 16971 O 1573.99 -1.76387 2.06397 0
M  V30 16972 C 1572.44 0.330075 3.58383 0
M  V30 16973 C 1572.05 1.73981 4.12837 0
M  V30 16974 C 1573.8 -0.0855651 4.24414 0
M  V30 16975 C 1571.7 1.80886 5.63058 0
M  V30 16976 H 1570.63 0.075906 0.750169 0
M  V30 16977 H 1573.28 0.855236 1.62351 0
M  V30 16978 H 1571.67 -0.380199 3.94171 0
M  V30 16979 H 1572.84 2.47825 3.88484 0
M  V30 16980 H 1571.16 2.10447 3.59306 0
M  V30 16981 H 1573.75 -0.0543142 5.34672 0
M  V30 16982 H 1574.1 -1.12307 4.00865 0
M  V30 16983 H 1574.63 0.574169 3.93635 0
M  V30 16984 H 1571.37 2.82663 5.91424 0
M  V30 16985 H 1570.89 1.11417 5.89361 0
M  V30 16986 H 1572.57 1.56835 6.27704 0
M  V30 16987 N 1572.7 -1.51554 0.432352 0
M  V30 16988 C 1573.95 -2.01645 -0.135511 0
M  V30 16989 C 1574.27 -1.31874 -1.43647 0
M  V30 16990 O 1573.54 -0.451746 -1.9062 0
M  V30 16991 H 1572.12 -0.745113 -0.0530683 0
M  V30 16992 H 1574.78 -1.86258 0.573917 0
M  V30 16993 H 1573.88 -3.10506 -0.315001 0
M  V30 16994 N 1574.18 -0.163538 -1.56749 0
M  V30 16995 C 1575.43 0.483453 -1.9582 0
M  V30 16996 C 1575.74 1.64913 -1.05181 0
M  V30 16997 O 1576.94 2.36184 -1.33901 0
M  V30 16998 C 1575.4 0.911471 -3.48167 0
M  V30 16999 C 1575.01 -0.228178 -4.47419 0
M  V30 17000 C 1576.75 1.52732 -3.96072 0
M  V30 17001 C 1574.66 0.219036 -5.90994 0
M  V30 17002 H 1573.59 0.184383 -0.731108 0
M  V30 17003 H 1576.24 -0.250527 -1.81782 0
M  V30 17004 H 1574.62 1.7012 -3.57596 0
M  V30 17005 H 1575.8 -1.0054 -4.49698 0
M  V30 17006 H 1574.11 -0.753485 -4.09526 0
M  V30 17007 H 1576.71 1.87383 -5.00791 0
M  V30 17008 H 1577.05 2.42239 -3.38565 0
M  V30 17009 H 1577.58 0.802176 -3.89628 0
M  V30 17010 H 1574.32 -0.641066 -6.52358 0
M  V30 17011 H 1573.84 0.96178 -5.92039 0
M  V30 17012 H 1575.52 0.665524 -6.43568 0
M  V30 17013 N 1575.65 1.57214 0.110213 0
M  V30 17014 C 1576.59 1.96198 1.1654 0
M  V30 17015 C 1577.57 0.832925 1.39646 0
M  V30 17016 O 1578.75 1.09188 1.53656 0
M  V30 17017 C 1575.88 2.26576 2.51756 0
M  V30 17018 C 1574.92 3.49093 2.45023 0
M  V30 17019 S 1575.76 5.01363 1.88136 0
M  V30 17020 C 1576.91 5.34903 3.25007 0
M  V30 17021 H 1577.14 2.85392 0.832996 0
M  V30 17022 H 1574.68 1.51104 0.317314 0
M  V30 17023 H 1576.64 2.44756 3.29552 0
M  V30 17024 H 1575.3 1.37981 2.8217 0
M  V30 17025 H 1574.49 3.67743 3.44647 0
M  V30 17026 H 1574.09 3.30346 1.7535 0
M  V30 17027 H 1576.38 5.30623 4.21243 0
M  V30 17028 H 1577.33 6.36062 3.11176 0
M  V30 17029 H 1577.73 4.62371 3.23841 0
M  V30 17030 N 1577.13 -0.380637 1.52934 0
M  V30 17031 C 1578.1 -1.44819 1.77652 0
M  V30 17032 C 1579.1 -1.47224 0.646657 0
M  V30 17033 O 1580.29 -1.48248 0.91477 0
M  V30 17034 C 1577.42 -2.8405 1.8849 0
M  V30 17035 H 1578.61 -1.24183 2.72981 0
M  V30 17036 H 1576.16 -0.61288 1.43783 0
M  V30 17037 H 1576.9 -3.1002 0.951751 0
M  V30 17038 H 1576.68 -2.83704 2.70655 0
M  V30 17039 H 1578.17 -3.61388 2.09257 0
M  V30 17040 N 1578.61 -1.44039 -0.639573 0
M  V30 17041 C 1579.86 -1.46594 -1.40136 0
M  V30 17042 C 1580.19 -0.0949646 -1.93968 0
M  V30 17043 O 1579.46 0.886201 -1.73138 0
M  V30 17044 C 1579.75 -2.51947 -2.57283 0
M  V30 17045 C 1579.6 -3.98371 -2.08855 0
M  V30 17046 C 1580.92 -2.53891 -3.59482 0
M  V30 17047 H 1578.04 -0.533759 -0.508203 0
M  V30 17048 H 1580.68 -1.75669 -0.723898 0
M  V30 17049 H 1578.83 -2.27285 -3.15077 0
M  V30 17050 H 1580.5 -4.34137 -1.55956 0
M  V30 17051 H 1578.75 -4.10551 -1.40109 0
M  V30 17052 H 1579.42 -4.67721 -2.93157 0
M  V30 17053 H 1581.89 -2.75906 -3.11473 0
M  V30 17054 H 1580.77 -3.29524 -4.38982 0
M  V30 17055 H 1581.03 -1.57774 -4.12989 0
M  V30 17056 N 1580.09 0.879207 -1.30796 0
M  V30 17057 C 1581.04 2.00692 -1.17582 0
M  V30 17058 C 1582.03 1.6918 -0.0863163 0
M  V30 17059 O 1583.24 1.78289 -0.24757 0
M  V30 17060 H 1579.61 0.65814 -0.363808 0
M  V30 17061 H 1581.58 2.0897 -2.13012 0
M  V30 17062 C 1580.33 3.36105 -0.890429 0
M  V30 17063 H 1579.65 3.60868 -1.72088 0
M  V30 17064 H 1581.09 4.15634 -0.838103 0
M  V30 17065 C 1579.55 3.34436 0.406734 0
M  V30 17066 O 1580.08 3.7552 1.42645 0
M  V30 17067 N 1578.29 2.87549 0.419963 0
M  V30 17068 H 1577.84 2.54311 -0.410343 0
M  V30 17069 H 1577.79 2.86815 1.28781 0
M  V30 17070 N 1581.57 1.13606 1.09231 0
M  V30 17071 C 1582.5 0.837908 2.17948 0
M  V30 17072 C 1583.48 -0.203575 1.68877 0
M  V30 17073 O 1584.66 -0.0620702 1.94101 0
M  V30 17074 C 1581.79 0.305342 3.45955 0
M  V30 17075 C 1580.75 1.2813 4.08371 0
M  V30 17076 C 1580.07 0.608412 5.31227 0
M  V30 17077 C 1581.37 2.64055 4.50636 0
M  V30 17078 H 1583.07 1.747 2.43147 0
M  V30 17079 H 1580.61 0.84141 1.1686 0
M  V30 17080 H 1582.57 0.0844116 4.21315 0
M  V30 17081 H 1581.29 -0.639144 3.20285 0
M  V30 17082 H 1579.95 1.48826 3.35032 0
M  V30 17083 H 1579.6 -0.341613 5.01839 0
M  V30 17084 H 1579.3 1.25956 5.73942 0
M  V30 17085 H 1580.82 0.396809 6.09309 0
M  V30 17086 H 1582.24 2.47316 5.17212 0
M  V30 17087 H 1580.63 3.25364 5.0424 0
M  V30 17088 H 1581.7 3.21566 3.62937 0
M  V30 17089 N 1583.05 -1.27244 0.929878 0
M  V30 17090 C 1584.27 -1.98373 0.587845 0
M  V30 17091 C 1584.69 -1.69349 -0.834638 0
M  V30 17092 O 1584.05 -0.955281 -1.55501 0
M  V30 17093 C 1584.1 -3.52381 0.806843 0
M  V30 17094 O 1583.82 -3.8039 2.17337 0
M  V30 17095 C 1585.32 -4.40761 0.473818 0
M  V30 17096 H 1582.54 -0.633015 0.22256 0
M  V30 17097 H 1585.08 -1.62043 1.2475 0
M  V30 17098 H 1583.24 -3.86914 0.193963 0
M  V30 17099 H 1583.65 -4.74968 2.22498 0
M  V30 17100 H 1585.13 -5.47824 0.677736 0
M  V30 17101 H 1585.6 -4.35209 -0.590734 0
M  V30 17102 H 1586.21 -4.11751 1.06493 0
M  V30 17103 N 1584.52 -0.695628 -1.41417 0
M  V30 17104 C 1585.75 -0.235654 -2.05554 0
M  V30 17105 C 1586.17 1.11513 -1.52349 0
M  V30 17106 O 1585.52 1.69688 -0.671743 0
M  V30 17107 C 1585.57 -0.184809 -3.61027 0
M  V30 17108 O 1585.3 -1.48224 -4.12264 0
M  V30 17109 C 1586.8 0.296147 -4.4231 0
M  V30 17110 H 1584.02 -0.109648 -0.661981 0
M  V30 17111 H 1586.56 -0.948227 -1.81187 0
M  V30 17112 H 1584.72 0.478588 -3.84432 0
M  V30 17113 H 1585.13 -1.36939 -5.06308 0
M  V30 17114 H 1586.6 0.280597 -5.51286 0
M  V30 17115 H 1587.08 1.33503 -4.18418 0
M  V30 17116 H 1587.69 -0.336253 -4.23969 0
M  V30 17117 N 1586 1.51322 -0.440383 0
M  V30 17118 C 1586.96 2.26388 0.357911 0
M  V30 17119 C 1587.96 1.2995 0.947083 0
M  V30 17120 O 1589.15 1.53637 0.821057 0
M  V30 17121 C 1586.29 3.05797 1.50669 0
M  V30 17122 H 1587.48 2.98396 -0.300002 0
M  V30 17123 H 1585.03 1.55096 -0.193628 0
M  V30 17124 H 1585.77 2.38213 2.20057 0
M  V30 17125 H 1585.55 3.76634 1.09037 0
M  V30 17126 H 1587.04 3.6265 2.07062 0
M  V30 17127 N 1587.48 0.171848 1.5666 0
M  V30 17128 C 1588.71 -0.479221 2.01274 0
M  V30 17129 C 1589.12 -1.56771 1.05206 0
M  V30 17130 O 1588.48 -1.82423 0.0530164 0
M  V30 17131 C 1588.53 -1.05705 3.457 0
M  V30 17132 O 1588.25 -0.0120133 4.38098 0
M  V30 17133 C 1589.75 -1.78629 4.05717 0
M  V30 17134 H 1586.97 -0.122598 0.659705 0
M  V30 17135 H 1589.52 0.273733 2.0266 0
M  V30 17136 H 1587.67 -1.7605 3.45087 0
M  V30 17137 H 1588.09 -0.438714 5.22662 0
M  V30 17138 H 1589.56 -2.14319 5.08696 0
M  V30 17139 H 1590.04 -2.68149 3.4784 0
M  V30 17140 H 1590.64 -1.12925 4.10034 0
M  V30 17141 N 1588.96 -1.5727 -0.101874 0
M  V30 17142 C 1590.19 -1.89943 -0.820329 0
M  V30 17143 C 1590.6 -0.764867 -1.72613 0
M  V30 17144 O 1589.96 0.263499 -1.80588 0
M  V30 17145 C 1590.01 -3.2219 -1.63939 0
M  V30 17146 O 1589.73 -4.31279 -0.770039 0
M  V30 17147 C 1591.23 -3.6868 -2.46151 0
M  V30 17148 H 1588.45 -0.628532 -0.234922 0
M  V30 17149 H 1590.99 -2.04339 -0.0811362 0
M  V30 17150 H 1589.15 -3.09411 -2.33117 0
M  V30 17151 H 1589.56 -5.07182 -1.33665 0
M  V30 17152 H 1591.04 -4.63928 -2.99124 0
M  V30 17153 H 1591.51 -2.96183 -3.24303 0
M  V30 17154 H 1592.12 -3.84303 -1.82185 0
M  V30 17155 N 1590.44 0.372521 -1.53134 0
M  V30 17156 C 1591.4 1.43875 -1.78417 0
M  V30 17157 C 1592.4 1.46879 -0.654455 0
M  V30 17158 O 1593.59 1.47761 -0.922619 0
M  V30 17159 C 1590.72 2.83046 -1.89994 0
M  V30 17160 H 1591.91 1.22733 -2.73636 0
M  V30 17161 H 1589.47 0.605247 -1.44106 0
M  V30 17162 H 1590.2 3.09511 -0.968179 0
M  V30 17163 H 1589.99 2.82265 -2.72156 0
M  V30 17164 H 1591.48 3.60273 -2.11171 0
M  V30 17165 N 1591.91 1.44376 0.631925 0
M  V30 17166 C 1593.16 1.46398 1.38747 0
M  V30 17167 C 1593.48 0.100149 1.95343 0
M  V30 17168 O 1594.68 -0.00210908 2.715 0
M  V30 17169 C 1593.14 2.57731 2.51203 0
M  V30 17170 C 1592.75 4.00317 2.01123 0
M  V30 17171 C 1594.49 2.68972 3.28412 0
M  V30 17172 C 1592.4 5.03075 3.10917 0
M  V30 17173 H 1591.33 0.544667 0.521396 0
M  V30 17174 H 1593.98 1.70439 0.679912 0
M  V30 17175 H 1592.36 2.26928 3.2453 0
M  V30 17176 H 1593.53 4.40683 1.34666 0
M  V30 17177 H 1591.85 3.93311 1.36732 0
M  V30 17178 H 1594.45 3.42916 4.10259 0
M  V30 17179 H 1594.79 1.74762 3.77841 0
M  V30 17180 H 1595.32 2.9918 2.62176 0
M  V30 17181 H 1592.06 5.98911 2.66433 0
M  V30 17182 H 1591.58 4.67302 3.76017 0
M  V30 17183 H 1593.26 5.2674 3.75705 0
M  V30 17184 N 1593.39 -0.872258 1.31261 0
M  V30 17185 C 1594.64 -1.6199 1.20176 0
M  V30 17186 C 1594.95 -1.94129 -0.239439 0
M  V30 17187 O 1596.16 -2.67366 -0.471956 0
M  V30 17188 C 1594.62 -2.92017 2.10366 0
M  V30 17189 C 1594.22 -2.6737 3.59468 0
M  V30 17190 C 1595.97 -3.70007 2.08075 0
M  V30 17191 C 1593.87 -3.93291 4.41674 0
M  V30 17192 H 1592.8 -0.607793 0.446211 0
M  V30 17193 H 1595.46 -0.964627 1.561 0
M  V30 17194 H 1593.84 -3.58907 1.67338 0
M  V30 17195 H 1595.01 -2.08902 4.10727 0
M  V30 17196 H 1593.33 -2.02738 3.63712 0
M  V30 17197 H 1595.92 -4.63416 2.66739 0
M  V30 17198 H 1596.27 -4.02385 1.06733 0
M  V30 17199 H 1596.8 -3.09998 2.49291 0
M  V30 17200 H 1593.54 -3.66064 5.43762 0
M  V30 17201 H 1593.06 -4.51218 3.95174 0
M  V30 17202 H 1594.74 -4.61197 4.53769 0
M  V30 17203 N 1594.87 -1.14184 -1.08627 0
M  V30 17204 C 1596.1 -0.932104 -1.84714 0
M  V30 17205 C 1596.51 0.519335 -1.81517 0
M  V30 17206 O 1595.87 1.35978 -1.21722 0
M  V30 17207 C 1595.92 -1.42217 -3.3235 0
M  V30 17208 O 1595.64 -2.81674 -3.35547 0
M  V30 17209 C 1597.14 -1.25205 -4.25251 0
M  V30 17210 H 1594.36 -0.331854 -0.583193 0
M  V30 17211 H 1596.91 -1.51641 -1.37205 0
M  V30 17212 H 1595.06 -0.880679 -3.77257 0
M  V30 17213 H 1595.48 -3.03615 -4.2769 0
M  V30 17214 H 1596.95 -1.64358 -5.26963 0
M  V30 17215 H 1597.43 -0.194659 -4.38768 0
M  V30 17216 H 1598.03 -1.78198 -3.86168 0
M  V30 17217 N 1596.35 1.26749 -0.936613 0
M  V30 17218 C 1597.57 1.98597 -0.597817 0
M  V30 17219 C 1598 1.69324 0.8192 0
M  V30 17220 O 1597.36 0.938634 1.55111 0
M  V30 17221 C 1597.4 3.50656 -0.841007 0
M  V30 17222 O 1596.51 4.12304 0.0891038 0
M  V30 17223 H 1595.85 0.623197 -0.229176 0
M  V30 17224 H 1598.38 1.61332 -1.2583 0
M  V30 17225 H 1598.39 4.00857 -0.760093 0
M  V30 17226 H 1597.06 3.71293 -1.87388 0
M  V30 17227 H 1595.64 3.72876 -0.0424804 0
M  V30 17228 N 1597.83 0.703118 1.41046 0
M  V30 17229 C 1599.05 0.245088 2.05947 0
M  V30 17230 C 1599.48 -1.09988 1.52592 0
M  V30 17231 O 1598.83 -1.69015 0.656023 0
M  V30 17232 C 1598.88 0.221444 3.59919 0
M  V30 17233 O 1597.99 -0.801324 4.0454 0
M  V30 17234 H 1597.33 0.117862 0.653456 0
M  V30 17235 H 1599.86 0.960099 1.80674 0
M  V30 17236 H 1599.87 0.0548681 4.07963 0
M  V30 17237 H 1598.54 1.20301 3.98121 0
M  V30 17238 H 1597.12 -0.603489 3.67984 0
M  V30 17239 N 1599.3 -1.51086 0.448402 0
M  V30 17240 C 1600.23 -2.30896 -0.347773 0
M  V30 17241 C 1601.22 -1.36792 -1.01104 0
M  V30 17242 O 1602.4 -1.65713 -1.01257 0
M  V30 17243 C 1599.53 -3.15901 -1.44304 0
M  V30 17244 C 1598.48 -4.18373 -0.90265 0
M  V30 17245 C 1597.81 -4.9197 -2.0945 0
M  V30 17246 C 1599.11 -5.22252 0.0705335 0
M  V30 17247 H 1600.8 -2.97704 0.318273 0
M  V30 17248 H 1598.35 -1.43169 0.154509 0
M  V30 17249 H 1600.3 -3.70519 -2.00733 0
M  V30 17250 H 1599.03 -2.46935 -2.13753 0
M  V30 17251 H 1597.69 -3.64823 -0.3605 0
M  V30 17252 H 1597.33 -4.19497 -2.77545 0
M  V30 17253 H 1597.03 -5.6127 -1.73926 0
M  V30 17254 H 1598.56 -5.49415 -2.66412 0
M  V30 17255 H 1599.97 -5.71876 -0.403814 0
M  V30 17256 H 1598.37 -5.99142 0.338905 0
M  V30 17257 H 1599.44 -4.74398 1.00373 0
M  V30 17258 N 1600.78 -0.180154 -1.56567 0
M  V30 17259 C 1602.03 0.461606 -1.96758 0
M  V30 17260 C 1602.35 1.63179 -1.0676 0
M  V30 17261 O 1601.62 1.95429 -0.135762 0
M  V30 17262 H 1600.2 0.173526 -0.726566 0
M  V30 17263 H 1602.86 -0.2634 -1.93112 0
M  V30 17264 H 1601.96 0.815729 -3.01251 0
M  V30 17265 N 1602.26 1.57322 0.0935319 0
M  V30 17266 C 1603.51 1.85353 0.795445 0
M  V30 17267 C 1603.82 0.769647 1.79822 0
M  V30 17268 O 1605.03 0.937121 2.54814 0
M  V30 17269 C 1603.48 3.28711 1.4655 0
M  V30 17270 C 1603.09 4.45174 0.502415 0
M  V30 17271 C 1604.84 3.65965 2.15105 0
M  V30 17272 C 1602.74 5.79566 1.17715 0
M  V30 17273 H 1601.67 0.691394 0.300816 0
M  V30 17274 H 1604.32 1.83436 0.0484063 0
M  V30 17275 H 1602.71 3.25173 2.26005 0
M  V30 17276 H 1603.88 4.60062 -0.260754 0
M  V30 17277 H 1602.2 4.16328 -0.0775186 0
M  V30 17278 H 1604.79 4.63655 2.66323 0
M  V30 17279 H 1605.14 2.94667 2.94069 0
M  V30 17280 H 1605.67 3.71398 1.42508 0
M  V30 17281 H 1602.41 6.54099 0.428277 0
M  V30 17282 H 1601.93 5.68519 1.9117 0
M  V30 17283 H 1603.61 6.2418 1.70318 0
M  V30 17284 N 1603.74 -0.364395 1.53329 0
M  V30 17285 C 1604.7 -1.42927 1.79178 0
M  V30 17286 C 1605.7 -1.4653 0.662235 0
M  V30 17287 O 1606.89 -1.4727 0.930442 0
M  V30 17288 C 1604.02 -2.82035 1.91492 0
M  V30 17289 H 1605.22 -1.21281 2.74283 0
M  V30 17290 H 1602.77 -0.597596 1.44425 0
M  V30 17291 H 1603.5 -3.08993 0.984579 0
M  V30 17292 H 1603.29 -2.80818 2.73649 0
M  V30 17293 H 1604.78 -3.59148 2.13078 0
M  V30 17294 N 1605.22 -1.44709 -0.62426 0
M  V30 17295 C 1606.44 -1.51573 -1.41564 0
M  V30 17296 C 1606.87 -0.143806 -1.87549 0
M  V30 17297 O 1606.22 0.868361 -1.59151 0
M  V30 17298 C 1606.27 -2.49085 -2.60747 0
M  V30 17299 O 1605.38 -1.99712 -3.60817 0
M  V30 17300 H 1604.72 -0.51157 -0.423311 0
M  V30 17301 H 1607.25 -1.89908 -0.761316 0
M  V30 17302 H 1607.26 -2.67346 -3.08205 0
M  V30 17303 H 1605.93 -3.48733 -2.26624 0
M  V30 17304 H 1604.51 -1.9125 -3.20122 0
M  V30 17305 N 1606.69 0.865285 -1.31722 0
M  V30 17306 C 1607.94 1.61549 -1.21435 0
M  V30 17307 C 1608.26 1.9368 0.226501 0
M  V30 17308 O 1607.53 1.58705 1.14846 0
M  V30 17309 H 1606.11 0.598905 -0.446454 0
M  V30 17310 H 1608.78 1.03563 -1.65108 0
M  V30 17311 H 1607.87 2.55708 -1.78941 0
M  V30 17312 N 1608.17 1.14759 1.0802 0
M  V30 17313 C 1609.42 0.918248 1.80484 0
M  V30 17314 C 1609.75 -0.554986 1.86414 0
M  V30 17315 O 1609 -1.42732 1.33888 0
M  V30 17316 C 1609.3 1.4692 3.25805 0
M  V30 17317 C 1608.97 2.96176 3.39987 0
M  V30 17318 C 1607.63 3.36923 3.43564 0
M  V30 17319 C 1609.98 3.92131 3.43341 0
M  V30 17320 C 1607.31 4.72281 3.48092 0
M  V30 17321 C 1609.66 5.27351 3.49404 0
M  V30 17322 C 1608.33 5.67605 3.51256 0
M  V30 17323 H 1607.6 0.336011 0.660437 0
M  V30 17324 H 1610.24 1.43191 1.27156 0
M  V30 17325 H 1608.55 0.876571 3.81868 0
M  V30 17326 H 1610.24 1.26765 3.80436 0
M  V30 17327 H 1606.83 2.63675 3.37896 0
M  V30 17328 H 1611.02 3.61728 3.39804 0
M  V30 17329 H 1606.27 5.02823 3.4782 0
M  V30 17330 H 1610.45 6.01507 3.50946 0
M  V30 17331 H 1608.08 6.72474 3.54517 0
M  V30 17332 N 1609.65 -1.26251 0.943322 0
M  V30 17333 C 1610.88 -1.98278 0.608341 0
M  V30 17334 C 1611.3 -1.69756 -0.810208 0
M  V30 17335 O 1610.66 -0.946846 -1.54611 0
M  V30 17336 C 1610.71 -3.50205 0.859591 0
M  V30 17337 O 1609.81 -4.12345 -0.0672371 0
M  V30 17338 H 1609.15 -0.621973 0.232477 0
M  V30 17339 H 1611.68 -1.60662 1.26684 0
M  V30 17340 H 1611.69 -4.00449 0.781341 0
M  V30 17341 H 1610.37 -3.70294 1.89354 0
M  V30 17342 H 1608.94 -3.72848 0.0622543 0
M  V30 17343 N 1611.13 -0.710588 -1.40671 0
M  V30 17344 C 1612.38 -0.244967 -2.00207 0
M  V30 17345 C 1612.69 1.16693 -1.56978 0
M  V30 17346 O 1613.9 1.73081 -2.09177 0
M  V30 17347 C 1612.35 -0.387049 -3.57813 0
M  V30 17348 C 1611.96 -1.80527 -4.10017 0
M  V30 17349 C 1613.71 0.0180338 -4.24496 0
M  V30 17350 C 1611.61 -1.89821 -5.60109 0
M  V30 17351 H 1610.54 -0.087831 -0.748867 0
M  V30 17352 H 1613.19 -0.880956 -1.6097 0
M  V30 17353 H 1611.58 0.317442 -3.94726 0
M  V30 17354 H 1612.75 -2.53974 -3.84492 0
M  V30 17355 H 1611.06 -2.16137 -3.55913 0
M  V30 17356 H 1613.66 -0.0307544 -5.34691 0
M  V30 17357 H 1614 1.05915 -4.02601 0
M  V30 17358 H 1614.54 -0.63672 -3.92671 0
M  V30 17359 H 1611.28 -2.92036 -5.86852 0
M  V30 17360 H 1610.8 -1.20779 -5.87514 0
M  V30 17361 H 1612.48 -1.66801 -6.25129 0
M  V30 17362 N 1612.61 1.50847 -0.456408 0
M  V30 17363 C 1613.54 2.31077 0.335523 0
M  V30 17364 C 1614.52 1.37326 1.00377 0
M  V30 17365 O 1615.7 1.66247 1.00376 0
M  V30 17366 C 1612.83 3.16662 1.42627 0
M  V30 17367 C 1611.79 4.18846 0.88045 0
M  V30 17368 C 1611.11 4.93074 2.06838 0
M  V30 17369 C 1612.41 5.22208 -0.0982288 0
M  V30 17370 H 1614.11 2.97531 -0.334056 0
M  V30 17371 H 1611.65 1.43085 -0.162099 0
M  V30 17372 H 1613.61 3.71578 1.98765 0
M  V30 17373 H 1612.33 2.48066 2.12441 0
M  V30 17374 H 1610.99 3.65009 0.341147 0
M  V30 17375 H 1610.64 4.20963 2.75316 0
M  V30 17376 H 1610.34 5.62184 1.70947 0
M  V30 17377 H 1611.86 5.5082 2.63494 0
M  V30 17378 H 1613.28 5.72082 0.373481 0
M  V30 17379 H 1611.67 5.98954 -0.370674 0
M  V30 17380 H 1612.74 4.73859 -1.02887 0
M  V30 17381 N 1614.09 0.188454 1.56469 0
M  V30 17382 C 1615.02 -0.730379 2.21783 0
M  V30 17383 C 1616 -1.22629 1.17882 0
M  V30 17384 O 1617.18 -1.27634 1.46367 0
M  V30 17385 C 1614.31 -1.95278 2.872 0
M  V30 17386 C 1613.27 -1.59205 3.97288 0
M  V30 17387 C 1612.59 -2.89052 4.49836 0
M  V30 17388 C 1613.89 -0.807027 5.16027 0
M  V30 17389 H 1615.59 -0.185914 2.98822 0
M  V30 17390 H 1613.13 -0.0879804 1.43731 0
M  V30 17391 H 1615.08 -2.60074 3.31571 0
M  V30 17392 H 1613.81 -2.52167 2.07556 0
M  V30 17393 H 1612.47 -0.967713 3.53597 0
M  V30 17394 H 1612.12 -3.44017 3.66963 0
M  V30 17395 H 1611.82 -2.65663 5.24115 0
M  V30 17396 H 1613.34 -3.54847 4.96906 0
M  V30 17397 H 1614.75 -1.35794 5.56986 0
M  V30 17398 H 1613.15 -0.671516 5.96331 0
M  V30 17399 H 1614.22 0.193251 4.84515 0
M  V30 17400 N 1615.56 -1.5737 -0.0851874 0
M  V30 17401 C 1616.81 -1.86864 -0.78802 0
M  V30 17402 C 1617.14 -0.778936 -1.77894 0
M  V30 17403 O 1616.42 0.212132 -1.9334 0
M  V30 17404 C 1616.7 -3.27006 -1.50795 0
M  V30 17405 C 1616.55 -4.46615 -0.534354 0
M  V30 17406 C 1617.87 -3.65187 -2.45614 0
M  V30 17407 H 1614.99 -0.679657 -0.285017 0
M  V30 17408 H 1617.63 -1.8993 -0.0514443 0
M  V30 17409 H 1615.78 -3.24522 -2.13583 0
M  V30 17410 H 1617.46 -4.61217 0.0872761 0
M  V30 17411 H 1615.7 -4.33536 0.151455 0
M  V30 17412 H 1616.37 -5.41423 -1.07544 0
M  V30 17413 H 1618.85 -3.68678 -1.92913 0
M  V30 17414 H 1617.72 -4.64158 -2.92999 0
M  V30 17415 H 1617.98 -2.944 -3.2982 0
M  V30 17416 N 1617.04 0.356258 -1.53521 0
M  V30 17417 C 1618.45 0.932569 -1.61741 0
M  V30 17418 C 1618.8 1.89965 -0.490677 0
M  V30 17419 O 1617.93 2.1301 0.381514 0
M  V30 17420 C 1618.52 1.69818 -2.93168 0
M  V30 17421 C 1617.08 2.22369 -3.03692 0
M  V30 17422 C 1616.23 1.03891 -2.57103 0
M  V30 17423 H 1619.18 0.134769 -1.58127 0
M  V30 17424 H 1619.2 2.56011 -2.81494 0
M  V30 17425 H 1618.71 0.994065 -3.75153 0
M  V30 17426 H 1616.81 2.95994 -2.26314 0
M  V30 17427 H 1616.93 2.49611 -4.08939 0
M  V30 17428 H 1615.29 1.40862 -2.12202 0
M  V30 17429 H 1616.07 0.349637 -3.41515 0
M  V30 17430 N 1618.52 1.45038 0.616577 0
M  V30 17431 C 1619.45 1.55858 1.73869 0
M  V30 17432 C 1620.43 0.410657 1.65069 0
M  V30 17433 O 1621.62 0.632652 1.83606 0
M  V30 17434 C 1618.75 1.51635 3.12448 0
M  V30 17435 C 1617.7 2.65053 3.36052 0
M  V30 17436 C 1617.03 2.45883 4.74811 0
M  V30 17437 C 1618.33 4.07121 3.27185 0
M  V30 17438 H 1620.02 2.49784 1.6507 0
M  V30 17439 H 1617.57 1.20216 0.792724 0
M  V30 17440 H 1619.52 1.57803 3.90738 0
M  V30 17441 H 1618.24 0.542342 3.22066 0
M  V30 17442 H 1616.9 2.58299 2.60149 0
M  V30 17443 H 1616.55 1.46641 4.8115 0
M  V30 17444 H 1616.25 3.21935 4.9156 0
M  V30 17445 H 1617.77 2.53892 5.55312 0
M  V30 17446 H 1619.19 4.15167 3.9536 0
M  V30 17447 H 1617.58 4.83491 3.55466 0
M  V30 17448 H 1618.65 4.29663 2.24762 0
M  V30 17449 N 1620 -0.858287 1.32179 0
M  V30 17450 C 1620.96 -1.94811 1.20753 0
M  V30 17451 C 1621.96 -1.60261 0.131526 0
M  V30 17452 O 1623.15 -1.69968 0.381662 0
M  V30 17453 C 1620.28 -3.29972 0.856229 0
M  V30 17454 H 1621.48 -2.06371 2.17603 0
M  V30 17455 H 1619.03 -1.04802 1.15958 0
M  V30 17456 H 1619.76 -3.24111 -0.11061 0
M  V30 17457 H 1619.55 -3.56424 1.63414 0
M  V30 17458 H 1621.04 -4.09856 0.800507 0
M  V30 17459 N 1621.48 -1.1533 -1.07409 0
M  V30 17460 C 1622.72 -0.925974 -1.79639 0
M  V30 17461 C 1623.04 0.548365 -1.87131 0
M  V30 17462 O 1622.31 1.39854 -1.37178 0
M  V30 17463 H 1620.89 -0.339599 -0.665343 0
M  V30 17464 H 1623.56 -1.45383 -1.29806 0
M  V30 17465 H 1622.65 -1.33484 -2.82114 0
M  V30 17466 N 1622.95 1.25748 -0.950004 0
M  V30 17467 C 1624.2 1.92632 -0.597988 0
M  V30 17468 C 1624.52 1.75268 0.868365 0
M  V30 17469 O 1625.72 2.36684 1.33014 0
M  V30 17470 C 1624.18 3.45179 -1.01879 0
M  V30 17471 C 1623.79 3.71262 -2.50736 0
M  V30 17472 C 1625.53 4.18017 -0.739084 0
M  V30 17473 C 1623.44 5.17292 -2.8664 0
M  V30 17474 H 1622.37 0.72121 -0.219938 0
M  V30 17475 H 1625.02 1.42685 -1.15383 0
M  V30 17476 H 1623.4 3.94061 -0.391395 0
M  V30 17477 H 1624.57 3.33051 -3.18455 0
M  V30 17478 H 1622.89 3.11676 -2.76129 0
M  V30 17479 H 1625.49 5.25576 -0.983555 0
M  V30 17480 H 1625.83 4.15034 0.32439 0
M  V30 17481 H 1626.36 3.75028 -1.32661 0
M  V30 17482 H 1623.1 5.25383 -3.91987 0
M  V30 17483 H 1622.62 5.56567 -2.23591 0
M  V30 17484 H 1624.3 5.85375 -2.75582 0
M  V30 17485 N 1624.43 0.718038 1.40292 0
M  V30 17486 C 1625.66 0.266918 2.05675 0
M  V30 17487 C 1626.08 -1.08364 1.53749 0
M  V30 17488 O 1625.44 -1.6831 0.673912 0
M  V30 17489 C 1625.49 0.259606 3.59664 0
M  V30 17490 O 1624.59 -0.758372 4.05367 0
M  V30 17491 H 1623.93 0.124786 0.652169 0
M  V30 17492 H 1626.46 0.979207 1.79646 0
M  V30 17493 H 1626.47 0.098135 4.07882 0
M  V30 17494 H 1625.15 1.24517 3.96823 0
M  V30 17495 H 1623.72 -0.564425 3.68604 0
M  V30 17496 N 1625.91 -1.50602 0.464402 0
M  V30 17497 C 1626.87 -2.26929 -0.32185 0
M  V30 17498 C 1627.87 -1.3144 -0.926289 0
M  V30 17499 O 1629.06 -1.54924 -0.796511 0
M  V30 17500 C 1626.2 -3.08155 -1.45785 0
M  V30 17501 H 1627.39 -2.97881 0.347436 0
M  V30 17502 H 1624.94 -1.54768 0.218278 0
M  V30 17503 H 1625.68 -2.41684 -2.16239 0
M  V30 17504 H 1625.46 -3.78321 -1.03031 0
M  V30 17505 H 1626.95 -3.65899 -2.01266 0
M  V30 17506 N 1627.39 -0.19675 -1.56367 0
M  V30 17507 C 1628.64 0.440711 -1.97236 0
M  V30 17508 C 1628.96 1.62037 -1.08485 0
M  V30 17509 O 1628.23 1.95274 -0.156483 0
M  V30 17510 H 1626.81 0.16581 -0.728365 0
M  V30 17511 H 1629.47 -0.283867 -1.92822 0
M  V30 17512 H 1628.57 0.783731 -3.02099 0
M  V30 17513 N 1628.87 1.57413 0.0768405 0
M  V30 17514 C 1630.12 1.86186 0.775741 0
M  V30 17515 C 1630.43 0.788676 1.78995 0
M  V30 17516 O 1631.63 0.964095 2.53806 0
M  V30 17517 C 1630.09 3.30247 1.43055 0
M  V30 17518 C 1629.7 4.45682 0.45517 0
M  V30 17519 C 1631.44 3.68225 2.11211 0
M  V30 17520 C 1629.35 5.80782 1.11561 0
M  V30 17521 H 1628.28 0.694546 0.293466 0
M  V30 17522 H 1630.93 1.83477 0.0289478 0
M  V30 17523 H 1629.31 3.27552 2.22544 0
M  V30 17524 H 1630.49 4.59759 -0.309535 0
M  V30 17525 H 1628.8 4.16222 -0.121671 0
M  V30 17526 H 1631.4 4.66454 2.6139 0
M  V30 17527 H 1631.74 2.9777 2.90928 0
M  V30 17528 H 1632.27 3.72888 1.38561 0
M  V30 17529 H 1629.01 6.54517 0.358877 0
M  V30 17530 H 1628.53 5.70515 1.8513 0
M  V30 17531 H 1630.21 6.25951 1.63689 0
M  V30 17532 N 1630.34 -0.348112 1.53707 0
M  V30 17533 C 1631.76 -0.923978 1.62233 0
M  V30 17534 C 1632.11 -1.89702 0.500744 0
M  V30 17535 O 1631.23 -2.1321 -0.370212 0
M  V30 17536 C 1631.83 -1.68261 2.94064 0
M  V30 17537 C 1630.39 -2.20755 3.04867 0
M  V30 17538 C 1629.53 -1.02526 2.5765 0
M  V30 17539 H 1632.48 -0.126381 1.58196 0
M  V30 17540 H 1632.5 -2.54514 2.82848 0
M  V30 17541 H 1632.02 -0.974155 3.75675 0
M  V30 17542 H 1630.12 -2.9479 2.27881 0
M  V30 17543 H 1630.23 -2.47439 4.10257 0
M  V30 17544 H 1628.59 -1.39735 2.12947 0
M  V30 17545 H 1629.38 -0.331521 3.41696 0
M  V30 17546 N 1631.82 -1.45363 -0.608876 0
M  V30 17547 C 1633.05 -1.53066 -1.39949 0
M  V30 17548 C 1633.47 -0.16369 -1.87386 0
M  V30 17549 O 1632.83 0.851432 -1.60064 0
M  V30 17550 C 1632.88 -2.51836 -2.58091 0
M  V30 17551 O 1631.98 -2.03528 -3.58678 0
M  V30 17552 H 1631.32 -0.516031 -0.417861 0
M  V30 17553 H 1633.85 -1.90705 -0.74113 0
M  V30 17554 H 1633.86 -2.706 -3.05352 0
M  V30 17555 H 1632.54 -3.51117 -2.22912 0
M  V30 17556 H 1631.12 -1.94634 -3.18075 0
M  V30 17557 N 1633.3 0.851265 -1.32632 0
M  V30 17558 C 1634.23 1.97562 -1.24465 0
M  V30 17559 C 1635.21 1.69619 -0.127777 0
M  V30 17560 O 1636.4 1.9162 -0.315509 0
M  V30 17561 C 1633.53 3.33467 -0.970423 0
M  V30 17562 C 1632.48 3.75772 -2.0489 0
M  V30 17563 C 1631.81 5.09345 -1.62702 0
M  V30 17564 C 1633.11 3.90876 -3.4643 0
M  V30 17565 H 1634.8 2.04653 -2.18535 0
M  V30 17566 H 1632.35 0.983252 -1.05205 0
M  V30 17567 H 1634.3 4.11681 -0.899825 0
M  V30 17568 H 1633.02 3.26599 0.00591373 0
M  V30 17569 H 1631.68 2.99812 -2.1097 0
M  V30 17570 H 1631.33 4.98937 -0.638039 0
M  V30 17571 H 1631.03 5.38621 -2.34864 0
M  V30 17572 H 1632.55 5.90048 -1.57085 0
M  V30 17573 H 1633.97 4.59434 -3.42919 0
M  V30 17574 H 1632.37 4.31574 -4.1697 0
M  V30 17575 H 1633.44 2.93689 -3.85843 0
M  V30 17576 N 1634.78 1.15898 1.06796 0
M  V30 17577 C 1636.02 0.938728 1.79766 0
M  V30 17578 C 1636.36 -0.53249 1.86757 0
M  V30 17579 O 1635.63 -1.39492 1.35544 0
M  V30 17580 C 1635.92 1.56062 3.24525 0
M  V30 17581 C 1635.77 3.10283 3.25645 0
M  V30 17582 C 1637.09 1.25108 4.21943 0
M  V30 17583 H 1634.21 0.342451 0.652607 0
M  V30 17584 H 1636.85 1.4315 1.24933 0
M  V30 17585 H 1635 1.14158 3.71349 0
M  V30 17586 H 1636.67 3.61132 2.87021 0
M  V30 17587 H 1634.91 3.43879 2.64443 0
M  V30 17588 H 1635.58 3.48913 4.27743 0
M  V30 17589 H 1638.06 1.61364 3.83537 0
M  V30 17590 H 1636.94 1.7123 5.21509 0
M  V30 17591 H 1637.2 0.169043 4.41777 0
M  V30 17592 N 1636.26 -1.25243 0.956659 0
M  V30 17593 C 1637.2 -2.2781 0.46963 0
M  V30 17594 C 1638.2 -1.63003 -0.461138 0
M  V30 17595 O 1639.4 -1.76805 -0.337644 0
M  V30 17596 H 1635.78 -0.740078 0.133374 0
M  V30 17597 H 1637.75 -2.66273 1.34689 0
M  V30 17598 C 1636.5 -3.46904 -0.235206 0
M  V30 17599 H 1635.82 -3.97006 0.471869 0
M  V30 17600 H 1637.26 -4.20548 -0.539969 0
M  V30 17601 C 1635.72 -3.03697 -1.45841 0
M  V30 17602 O 1636.25 -3.09887 -2.55603 0
M  V30 17603 N 1634.46 -2.58866 -1.32049 0
M  V30 17604 H 1634 -2.54029 -0.427428 0
M  V30 17605 H 1633.96 -2.30322 -2.14008 0
M  V30 17606 N 1637.73 -0.725468 -1.3991 0
M  V30 17607 C 1638.68 -0.0682776 -2.325 0
M  V30 17608 C 1639.68 0.736285 -1.52562 0
M  V30 17609 O 1640.88 0.638542 -1.68293 0
M  V30 17610 H 1637.26 -0.00327742 -0.751993 0
M  V30 17611 H 1639.23 -0.865735 -2.85565 0
M  V30 17612 C 1637.98 0.832036 -3.37598 0
M  V30 17613 H 1637.3 0.222341 -3.99181 0
M  V30 17614 H 1638.74 1.25965 -4.04856 0
M  V30 17615 C 1637.2 1.96201 -2.73874 0
M  V30 17616 O 1637.73 3.05378 -2.60974 0
M  V30 17617 N 1635.94 1.74857 -2.32106 0
M  V30 17618 H 1635.48 0.860621 -2.42798 0
M  V30 17619 H 1635.44 2.50639 -1.89808 0
M  V30 17620 N 1639.21 1.50354 -0.472382 0
M  V30 17621 C 1640.12 2.32318 0.326405 0
M  V30 17622 C 1641.14 1.4276 0.994771 0
M  V30 17623 O 1642.31 1.75811 0.98246 0
M  V30 17624 C 1639.38 3.17468 1.39337 0
M  V30 17625 C 1638.44 4.22848 0.741465 0
M  V30 17626 C 1637.67 5.03929 1.75759 0
M  V30 17627 O 1637.9 4.86105 2.98425 0
M  V30 17628 O 1636.83 5.87051 1.32871 0
M  V30 17629 H 1640.66 3.01749 -0.343702 0
M  V30 17630 H 1638.24 1.47553 -0.234207 0
M  V30 17631 H 1640.12 3.703 2.01136 0
M  V30 17632 H 1638.8 2.50764 2.04692 0
M  V30 17633 H 1637.71 3.74005 0.0844848 0
M  V30 17634 H 1639.04 4.92026 0.130838 0
M  V30 17635 N 1640.69 0.205039 1.56261 0
M  V30 17636 C 1641.62 -0.706815 2.22545 0
M  V30 17637 C 1642.6 -1.21372 1.19176 0
M  V30 17638 O 1643.79 -1.26074 1.47712 0
M  V30 17639 C 1640.92 -1.92221 2.89255 0
M  V30 17640 C 1639.87 -1.54982 3.98954 0
M  V30 17641 C 1639.2 -2.84265 4.52877 0
M  V30 17642 C 1640.5 -0.75225 5.16854 0
M  V30 17643 H 1642.19 -0.15421 2.99003 0
M  V30 17644 H 1639.74 -0.0727309 1.43816 0
M  V30 17645 H 1641.69 -2.56542 3.34311 0
M  V30 17646 H 1640.41 -2.49952 2.10218 0
M  V30 17647 H 1639.07 -0.930155 3.54604 0
M  V30 17648 H 1638.72 -3.40105 3.70591 0
M  V30 17649 H 1638.42 -2.60089 5.26904 0
M  V30 17650 H 1639.95 -3.49557 5.00642 0
M  V30 17651 H 1641.36 -1.29878 5.58395 0
M  V30 17652 H 1639.76 -0.60823 5.9701 0
M  V30 17653 H 1640.83 0.24463 4.84283 0
M  V30 17654 N 1642.17 -1.57451 -0.0684915 0
M  V30 17655 C 1643.42 -1.87689 -0.768156 0
M  V30 17656 C 1643.75 -0.79776 -1.77058 0
M  V30 17657 O 1643.02 0.191614 -1.93554 0
M  V30 17658 C 1643.31 -3.28587 -1.47319 0
M  V30 17659 C 1643.16 -4.47156 -0.486954 0
M  V30 17660 C 1644.48 -3.67772 -2.41727 0
M  V30 17661 H 1641.6 -0.682642 -0.277793 0
M  V30 17662 H 1644.24 -1.89974 -0.0312968 0
M  V30 17663 H 1642.39 -3.26769 -2.10129 0
M  V30 17664 H 1644.06 -4.61099 0.136189 0
M  V30 17665 H 1642.3 -4.33351 0.197429 0
M  V30 17666 H 1642.98 -5.42533 -1.01795 0
M  V30 17667 H 1645.45 -3.70704 -1.88992 0
M  V30 17668 H 1644.33 -4.6724 -2.88059 0
M  V30 17669 H 1644.59 -2.97882 -3.26679 0
M  V30 17670 N 1643.65 0.339955 -1.5389 0
M  V30 17671 C 1644.58 1.42316 -1.85117 0
M  V30 17672 C 1645.56 1.5473 -0.706591 0
M  V30 17673 O 1646.74 1.68879 -0.958834 0
M  V30 17674 C 1643.87 2.79317 -2.06396 0
M  V30 17675 C 1642.83 2.81707 -3.22219 0
M  V30 17676 C 1642.15 4.21627 -3.28838 0
M  V30 17677 C 1643.45 2.46921 -4.60247 0
M  V30 17678 H 1645.15 1.16431 -2.75834 0
M  V30 17679 H 1642.69 0.558661 -1.32721 0
M  V30 17680 H 1644.65 3.55145 -2.26826 0
M  V30 17681 H 1643.37 3.06644 -1.12414 0
M  V30 17682 H 1642.03 2.08332 -3.01651 0
M  V30 17683 H 1641.68 4.4607 -2.32444 0
M  V30 17684 H 1641.38 4.24137 -4.06672 0
M  V30 17685 H 1642.9 4.99292 -3.51482 0
M  V30 17686 H 1644.32 3.12462 -4.80667 0
M  V30 17687 H 1642.71 2.60707 -5.40511 0
M  V30 17688 H 1643.78 1.421 -4.63611 0
M  V30 17689 N 1645.13 1.45684 0.601159 0
M  V30 17690 C 1646.54 1.30232 0.922598 0
M  V30 17691 C 1646.74 0.260086 1.99814 0
M  V30 17692 O 1645.8 -0.343753 2.50149 0
M  V30 17693 C 1647.11 2.68318 1.35743 0
M  V30 17694 C 1648.66 2.76264 1.47129 0
M  V30 17695 C 1649.13 4.1489 1.93986 0
M  V30 17696 N 1650.62 4.17216 2.01209 0
M  V30 17697 C 1651.36 5.21354 2.387 0
M  V30 17698 N 1650.86 6.35833 2.75114 0
M  V30 17699 N 1652.65 5.08714 2.39095 0
M  V30 17700 H 1644.8 2.12117 -0.109634 0
M  V30 17701 H 1647.06 0.947902 0.0136129 0
M  V30 17702 H 1646.77 3.45804 0.64127 0
M  V30 17703 H 1646.64 2.97206 2.32268 0
M  V30 17704 H 1649.03 1.99077 2.17835 0
M  V30 17705 H 1649.11 2.51082 0.489028 0
M  V30 17706 H 1648.75 4.92565 1.23864 0
M  V30 17707 H 1648.68 4.37468 2.93137 0
M  V30 17708 H 1651.18 3.34607 1.75632 0
M  V30 17709 H 1651.49 7.11084 3.02622 0
M  V30 17710 H 1649.83 6.39224 2.72795 0
M  V30 17711 H 1653.02 4.18322 2.10057 0
M  V30 17712 H 1653.2 5.89989 2.67987 0
M  V30 17713 N 1646.6 -0.84422 1.33082 0
M  V30 17714 C 1647.88 -1.58339 1.1484 0
M  V30 17715 C 1648.26 -2.09136 -0.287273 0
M  V30 17716 O 1647.61 -1.8891 -1.2855 0
M  V30 17717 C 1647.82 -2.72141 2.18496 0
M  V30 17718 C 1649.17 -3.41457 2.52373 0
M  V30 17719 O 1650.19 -2.82377 2.17122 0
M  V30 17720 O 1649.05 -4.48096 3.12845 0
M  V30 17721 H 1646.14 -0.697813 0.443831 0
M  V30 17722 H 1648.69 -0.88744 1.44646 0
M  V30 17723 H 1647.46 -2.32206 3.14954 0
M  V30 17724 H 1647.08 -3.49404 1.89744 0
M  V30 17725 N 1648.08 -1.16463 -1.0618 0
M  V30 17726 C 1649.03 -0.87224 -2.13683 0
M  V30 17727 C 1650 0.179784 -1.65124 0
M  V30 17728 O 1651.18 0.0447406 -1.90748 0
M  V30 17729 C 1648.32 -0.380728 -3.42993 0
M  V30 17730 C 1647.44 -1.49571 -4.05281 0
M  V30 17731 C 1646.57 -0.959099 -5.2247 0
M  V30 17732 C 1645.61 -2.05021 -5.76743 0
M  V30 17733 N 1644.75 -1.5291 -6.85247 0
M  V30 17734 H 1649.59 -1.79288 -2.38033 0
M  V30 17735 H 1647.12 -0.894379 -1.16787 0
M  V30 17736 H 1649.08 -0.0773816 -4.17128 0
M  V30 17737 H 1647.71 0.502966 -3.18857 0
M  V30 17738 H 1646.76 -1.915 -3.28682 0
M  V30 17739 H 1648.08 -2.31904 -4.41613 0
M  V30 17740 H 1647.23 -0.609003 -6.03636 0
M  V30 17741 H 1645.97 -0.105086 -4.87587 0
M  V30 17742 H 1644.97 -2.40899 -4.94214 0
M  V30 17743 H 1646.2 -2.90821 -6.13678 0
M  V30 17744 H 1644.15 -0.697639 -6.5228 0
M  V30 17745 H 1644.06 -2.28859 -7.20527 0
M  V30 17746 H 1645.33 -1.20762 -7.70089 0
M  V30 17747 N 1649.56 1.24734 -0.963288 0
M  V30 17748 C 1650.52 2.23795 -0.494824 0
M  V30 17749 C 1651.52 1.55584 0.406225 0
M  V30 17750 O 1652.71 1.73021 0.202302 0
M  V30 17751 C 1649.84 3.39715 0.283963 0
M  V30 17752 H 1651.04 2.66753 -1.37051 0
M  V30 17753 H 1648.59 1.37271 -0.747428 0
M  V30 17754 H 1649.33 3.0219 1.17693 0
M  V30 17755 H 1649.11 3.9042 -0.362586 0
M  V30 17756 H 1650.6 4.13254 0.600899 0
M  V30 17757 N 1651.04 0.732878 1.39523 0
M  V30 17758 C 1652.27 0.29007 2.04857 0
M  V30 17759 C 1652.68 -1.07435 1.55252 0
M  V30 17760 O 1652.04 -1.67847 0.716497 0
M  V30 17761 C 1652.09 0.280464 3.6041 0
M  V30 17762 O 1651.81 1.59102 4.08189 0
M  V30 17763 C 1653.31 -0.178772 4.42939 0
M  V30 17764 H 1650.53 0.12716 0.658841 0
M  V30 17765 H 1653.07 0.995933 1.7861 0
M  V30 17766 H 1651.23 -0.376494 3.85566 0
M  V30 17767 H 1651.64 1.50314 5.025 0
M  V30 17768 H 1653.12 -0.134335 5.51837 0
M  V30 17769 H 1653.59 -1.22362 4.21811 0
M  V30 17770 H 1654.2 0.448543 4.22928 0
M  V30 17771 N 1652.52 -1.50101 0.480349 0
M  V30 17772 C 1653.46 -2.28722 -0.308993 0
M  V30 17773 C 1654.43 -1.34186 -0.978948 0
M  V30 17774 O 1655.62 -1.6313 -0.989602 0
M  V30 17775 C 1652.76 -3.16322 -1.37966 0
M  V30 17776 C 1651.87 -4.25898 -0.723552 0
M  V30 17777 C 1651.01 -5.00741 -1.7729 0
M  V30 17778 C 1650.04 -6.0218 -1.09754 0
M  V30 17779 N 1649.18 -6.70266 -2.09015 0
M  V30 17780 H 1654.02 -2.95722 0.367739 0
M  V30 17781 H 1651.56 -1.45826 0.193197 0
M  V30 17782 H 1653.52 -3.65469 -2.01217 0
M  V30 17783 H 1652.15 -2.51349 -2.02543 0
M  V30 17784 H 1651.2 -3.80394 0.0217507 0
M  V30 17785 H 1652.51 -4.98435 -0.190905 0
M  V30 17786 H 1651.66 -5.53653 -2.48098 0
M  V30 17787 H 1650.4 -4.27931 -2.33937 0
M  V30 17788 H 1649.41 -5.48519 -0.375123 0
M  V30 17789 H 1650.63 -6.76967 -0.537841 0
M  V30 17790 H 1648.58 -6.00242 -2.64662 0
M  V30 17791 H 1648.5 -7.3871 -1.6076 0
M  V30 17792 H 1649.76 -7.27792 -2.79175 0
M  V30 17793 N 1653.99 -0.213323 -1.5615 0
M  V30 17794 C 1655.24 0.421221 -1.98377 0
M  V30 17795 C 1655.57 1.59998 -1.10065 0
M  V30 17796 O 1654.85 1.93869 -0.15654 0
M  V30 17797 C 1655.13 0.86375 -3.49587 0
M  V30 17798 C 1654.98 -0.318077 -4.48674 0
M  V30 17799 C 1656.3 1.72285 -4.04976 0
M  V30 17800 H 1653.42 0.151635 -0.721232 0
M  V30 17801 H 1656.06 -0.307907 -1.87488 0
M  V30 17802 H 1654.21 1.48503 -3.58998 0
M  V30 17803 H 1655.89 -0.956094 -4.51283 0
M  V30 17804 H 1654.13 -0.966881 -4.22888 0
M  V30 17805 H 1654.8 0.0343662 -5.51989 0
M  V30 17806 H 1657.28 1.19872 -3.98459 0
M  V30 17807 H 1656.15 2.0014 -5.11112 0
M  V30 17808 H 1656.41 2.68336 -3.51352 0
M  V30 17809 N 1655.47 1.57485 0.0601405 0
M  V30 17810 C 1656.72 1.88094 0.758192 0
M  V30 17811 C 1657.05 0.807138 1.76632 0
M  V30 17812 O 1656.33 -0.181347 1.93653 0
M  V30 17813 C 1656.61 3.29363 1.45574 0
M  V30 17814 C 1656.46 4.47408 0.463233 0
M  V30 17815 C 1657.78 3.69048 2.39773 0
M  V30 17816 H 1654.9 0.684106 0.274169 0
M  V30 17817 H 1657.54 1.89988 0.0212215 0
M  V30 17818 H 1655.69 3.27879 2.08393 0
M  V30 17819 H 1657.36 4.6102 -0.160641 0
M  V30 17820 H 1655.61 4.3324 -0.220408 0
M  V30 17821 H 1656.28 5.43065 0.989164 0
M  V30 17822 H 1658.75 3.71701 1.87024 0
M  V30 17823 H 1657.63 4.68761 2.85577 0
M  V30 17824 H 1657.89 2.9961 3.25094 0
M  V30 17825 N 1656.95 -0.331789 1.54068 0
M  V30 17826 C 1658.23 -1.08843 1.6252 0
M  V30 17827 C 1658.61 -2.06164 0.453847 0
M  V30 17828 O 1657.96 -2.21714 -0.552727 0
M  V30 17829 C 1658.17 -1.79767 2.9914 0
M  V30 17830 C 1659.51 -2.33086 3.54903 0
M  V30 17831 O 1660.54 -1.89846 3.01392 0
M  V30 17832 O 1659.4 -3.12226 4.48528 0
M  V30 17833 H 1656.49 -0.501222 0.657804 0
M  V30 17834 H 1659.04 -0.332339 1.66414 0
M  V30 17835 H 1657.81 -1.08932 3.75832 0
M  V30 17836 H 1657.43 -2.62205 2.98888 0
M  V30 17837 N 1658.43 -1.46001 -0.593424 0
M  V30 17838 C 1659.66 -1.54083 -1.3763 0
M  V30 17839 C 1660.07 -0.177096 -1.88369 0
M  V30 17840 O 1659.41 0.834016 -1.63676 0
M  V30 17841 C 1659.47 -2.47599 -2.60643 0
M  V30 17842 C 1659.14 -3.94058 -2.31445 0
M  V30 17843 C 1660.13 -4.83569 -1.90936 0
M  V30 17844 C 1657.82 -4.39099 -2.4392 0
M  V30 17845 C 1659.81 -6.16131 -1.63282 0
M  V30 17846 C 1657.5 -5.71699 -2.15879 0
M  V30 17847 C 1658.5 -6.60034 -1.75624 0
M  V30 17848 O 1658.18 -7.90174 -1.4792 0
M  V30 17849 H 1657.92 -0.52391 -0.427193 0
M  V30 17850 H 1660.47 -1.92011 -0.729444 0
M  V30 17851 H 1658.7 -2.04669 -3.28097 0
M  V30 17852 H 1660.39 -2.46207 -3.22703 0
M  V30 17853 H 1661.16 -4.50031 -1.80822 0
M  V30 17854 H 1657.03 -3.70575 -2.74218 0
M  V30 17855 H 1660.58 -6.85039 -1.31787 0
M  V30 17856 H 1656.48 -6.04788 -2.25614 0
M  V30 17857 H 1657.24 -8.02338 -1.61854 0
M  V30 17858 N 1659.91 0.83715 -1.33527 0
M  V30 17859 C 1661.15 1.59251 -1.25081 0
M  V30 17860 C 1661.48 1.93638 0.182956 0
M  V30 17861 O 1660.74 1.59025 1.14059 0
M  V30 17862 C 1661.04 2.9113 -2.07312 0
M  V30 17863 C 1660.7 2.76098 -3.56484 0
M  V30 17864 C 1659.36 2.71706 -3.97151 0
M  V30 17865 C 1661.72 2.60781 -4.51268 0
M  V30 17866 C 1659.04 2.49899 -5.30818 0
M  V30 17867 C 1661.4 2.40507 -5.85097 0
M  V30 17868 C 1660.06 2.34519 -6.24946 0
M  V30 17869 H 1659.33 0.582741 -0.457705 0
M  V30 17870 H 1661.98 0.969749 -1.65131 0
M  V30 17871 H 1660.28 3.57621 -1.60045 0
M  V30 17872 H 1661.98 3.48632 -1.98133 0
M  V30 17873 H 1658.57 2.8035 -3.24194 0
M  V30 17874 H 1662.75 2.63207 -4.20756 0
M  V30 17875 H 1658.01 2.4371 -5.60728 0
M  V30 17876 H 1662.18 2.27639 -6.58144 0
M  V30 17877 H 1659.81 2.17381 -7.28457 0
M  V30 17878 N 1661.38 1.17024 1.05561 0
M  V30 17879 C 1662.33 0.88356 2.13218 0
M  V30 17880 C 1663.3 -0.171025 1.65217 0
M  V30 17881 O 1664.49 -0.0346242 1.90769 0
M  V30 17882 C 1661.63 0.398912 3.42787 0
M  V30 17883 C 1660.74 1.51718 4.04482 0
M  V30 17884 C 1659.87 0.986793 5.21954 0
M  V30 17885 C 1658.91 2.08077 5.75648 0
M  V30 17886 N 1658.05 1.56542 6.84426 0
M  V30 17887 H 1662.89 1.80548 2.37079 0
M  V30 17888 H 1660.43 0.90056 1.16311 0
M  V30 17889 H 1662.39 0.0995018 4.17081 0
M  V30 17890 H 1661.02 -0.48605 3.1912 0
M  V30 17891 H 1660.07 1.9324 3.27662 0
M  V30 17892 H 1661.38 2.34243 4.40377 0
M  V30 17893 H 1660.53 0.641006 6.03304 0
M  V30 17894 H 1659.27 0.130942 4.87524 0
M  V30 17895 H 1658.28 2.43517 4.9293 0
M  V30 17896 H 1659.5 2.94071 6.12127 0
M  V30 17897 H 1657.45 0.732221 6.51901 0
M  V30 17898 H 1657.37 2.32677 7.19303 0
M  V30 17899 H 1658.63 1.24844 7.69438 0
M  V30 17900 N 1662.86 -1.24221 0.969889 0
M  V30 17901 C 1663.81 -2.23043 0.472854 0
M  V30 17902 C 1664.8 -1.54585 -0.446344 0
M  V30 17903 O 1665.99 -1.74821 -0.27691 0
M  V30 17904 C 1663.12 -3.42504 -0.233578 0
M  V30 17905 C 1662.2 -4.18206 0.704577 0
M  V30 17906 N 1662.59 -4.71037 1.84276 0
M  V30 17907 C 1660.89 -4.43007 0.515795 0
M  V30 17908 C 1661.59 -5.28525 2.42974 0
M  V30 17909 N 1660.57 -5.15849 1.71467 0
M  V30 17910 H 1664.37 -2.6151 1.34126 0
M  V30 17911 H 1661.89 -1.39632 0.829251 0
M  V30 17912 H 1663.88 -4.12459 -0.606891 0
M  V30 17913 H 1662.54 -3.05557 -1.0984 0
M  V30 17914 H 1663.55 -4.67705 2.22424 0
M  V30 17915 H 1660.23 -4.16385 -0.304885 0
M  V30 17916 H 1661.62 -5.8009 3.39035 0
M  V30 17917 N 1664.34 -0.740267 -1.39132 0
M  V30 17918 C 1665.59 -0.290953 -2.00702 0
M  V30 17919 C 1665.92 1.12051 -1.58613 0
M  V30 17920 O 1665.19 1.76488 -0.817457 0
M  V30 17921 C 1665.48 -0.398765 -3.57885 0
M  V30 17922 C 1665.33 -1.85038 -4.09977 0
M  V30 17923 C 1666.65 0.215717 -4.39571 0
M  V30 17924 H 1663.77 -0.107194 -0.729163 0
M  V30 17925 H 1666.41 -0.937411 -1.65265 0
M  V30 17926 H 1664.56 0.151613 -3.88204 0
M  V30 17927 H 1666.23 -2.45804 -3.90357 0
M  V30 17928 H 1664.48 -2.36994 -3.63341 0
M  V30 17929 H 1665.15 -1.87705 -5.19106 0
M  V30 17930 H 1667.62 -0.253518 -4.15327 0
M  V30 17931 H 1666.5 0.109966 -5.4879 0
M  V30 17932 H 1666.76 1.30242 -4.2248 0
M  V30 17933 N 1665.82 1.49844 -0.488302 0
M  V30 17934 C 1667.04 2.07313 0.0600937 0
M  V30 17935 C 1667.47 1.3478 1.3121 0
M  V30 17936 O 1666.83 0.400634 1.76818 0
M  V30 17937 C 1666.87 3.59268 0.309658 0
M  V30 17938 O 1665.98 3.88381 1.38688 0
M  V30 17939 H 1665.32 0.663681 -0.0205947 0
M  V30 17940 H 1667.85 1.92818 -0.684284 0
M  V30 17941 H 1667.86 4.04344 0.545 0
M  V30 17942 H 1666.53 4.11474 -0.605146 0
M  V30 17943 H 1665.11 3.55128 1.13749 0
M  V30 17944 N 1667.3 0.221601 1.56034 0
M  V30 17945 C 1668.23 -0.683171 2.23282 0
M  V30 17946 C 1669.21 -1.20101 1.20456 0
M  V30 17947 O 1670.39 -1.245 1.49041 0
M  V30 17948 C 1667.52 -1.89143 2.91277 0
M  V30 17949 C 1666.48 -1.50742 4.00576 0
M  V30 17950 C 1665.8 -2.79446 4.55867 0
M  V30 17951 C 1667.1 -0.697388 5.17623 0
M  V30 17952 H 1668.8 -0.122488 2.99149 0
M  V30 17953 H 1666.34 -0.0574732 1.43885 0
M  V30 17954 H 1668.3 -2.52982 3.37013 0
M  V30 17955 H 1667.02 -2.47708 2.12858 0
M  V30 17956 H 1665.68 -0.892492 3.5557 0
M  V30 17957 H 1665.33 -3.36155 3.74177 0
M  V30 17958 H 1665.03 -2.54486 5.29633 0
M  V30 17959 H 1666.55 -3.44228 5.04321 0
M  V30 17960 H 1667.96 -1.23948 5.59741 0
M  V30 17961 H 1666.36 -0.544875 5.97621 0
M  V30 17962 H 1667.43 0.295981 4.83996 0
M  V30 17963 N 1668.77 -1.57515 -0.0517878 0
M  V30 17964 C 1670.02 -1.88493 -0.748206 0
M  V30 17965 C 1670.35 -0.816494 -1.76202 0
M  V30 17966 O 1669.63 0.171075 -1.93746 0
M  V30 17967 C 1669.91 -3.30131 -1.43825 0
M  V30 17968 C 1669.76 -4.47648 -0.4395 0
M  V30 17969 C 1671.08 -3.70315 -2.37813 0
M  V30 17970 H 1668.2 -0.68555 -0.270537 0
M  V30 17971 H 1670.84 -1.89997 -0.0111457 0
M  V30 17972 H 1668.99 -3.2898 -2.06651 0
M  V30 17973 H 1670.67 -4.60929 0.185088 0
M  V30 17974 H 1668.91 -4.33117 0.243381 0
M  V30 17975 H 1669.58 -5.43582 -0.96035 0
M  V30 17976 H 1672.06 -3.72687 -1.8505 0
M  V30 17977 H 1670.93 -4.70269 -2.83087 0
M  V30 17978 H 1671.19 -3.0133 -3.23501 0
M  V30 17979 N 1670.25 0.323614 -1.54242 0
M  V30 17980 C 1671.16 1.42128 -1.86646 0
M  V30 17981 C 1672.18 1.56603 -0.758385 0
M  V30 17982 O 1673.36 1.717 -1.05267 0
M  V30 17983 C 1670.42 2.76842 -2.08709 0
M  V30 17984 C 1669.48 2.71543 -3.3251 0
M  V30 17985 C 1668.71 3.99833 -3.5351 0
M  V30 17986 O 1668.94 4.98095 -2.77952 0
M  V30 17987 O 1667.87 4.03095 -4.46988 0
M  V30 17988 H 1671.7 1.17653 -2.79985 0
M  V30 17989 H 1669.28 0.517632 -1.40146 0
M  V30 17990 H 1671.16 3.56588 -2.24551 0
M  V30 17991 H 1669.84 3.01207 -1.18558 0
M  V30 17992 H 1668.75 1.90348 -3.22053 0
M  V30 17993 H 1670.08 2.52133 -4.22717 0
M  V30 17994 N 1671.73 1.46313 0.585673 0
M  V30 17995 C 1672.96 1.55035 1.3701 0
M  V30 17996 C 1673.37 0.190444 1.87837 0
M  V30 17997 O 1672.73 -0.81177 1.63452 0
M  V30 17998 C 1672.78 2.55272 2.55965 0
M  V30 17999 O 1672.5 3.85981 2.07245 0
M  V30 18000 C 1674 2.73906 3.48555 0
M  V30 18001 H 1671.22 0.524377 0.418653 0
M  V30 18002 H 1673.77 1.91695 0.712267 0
M  V30 18003 H 1671.92 2.21625 3.17744 0
M  V30 18004 H 1672.34 4.40512 2.84692 0
M  V30 18005 H 1673.81 3.4797 4.2851 0
M  V30 18006 H 1674.29 1.80708 4.00301 0
M  V30 18007 H 1674.89 3.08638 2.92614 0
M  V30 18008 N 1673.21 -0.830057 1.33969 0
M  V30 18009 C 1674.12 -1.97244 1.27012 0
M  V30 18010 C 1675.14 -1.73076 0.179075 0
M  V30 18011 O 1676.31 -1.97301 0.404262 0
M  V30 18012 C 1673.38 -3.31409 1.01827 0
M  V30 18013 C 1672.44 -3.68633 2.20018 0
M  V30 18014 C 1671.67 -4.96397 1.96025 0
M  V30 18015 O 1671.89 -5.63014 0.91494 0
M  V30 18016 O 1670.83 -5.31331 2.82791 0
M  V30 18017 H 1674.65 -2.06056 2.23103 0
M  V30 18018 H 1672.24 -0.964399 1.14104 0
M  V30 18019 H 1674.12 -4.11779 0.895337 0
M  V30 18020 H 1672.8 -3.23581 0.0877091 0
M  V30 18021 H 1671.7 -2.88738 2.37869 0
M  V30 18022 H 1673.04 -3.81138 3.11439 0
M  V30 18023 N 1674.69 -1.17582 -1.04939 0
M  V30 18024 C 1675.94 -0.96387 -1.77634 0
M  V30 18025 C 1676.26 0.508548 -1.88252 0
M  V30 18026 O 1675.53 1.36913 -1.40113 0
M  V30 18027 H 1674.11 -0.353636 -0.65799 0
M  V30 18028 H 1676.77 -1.48104 -1.26693 0
M  V30 18029 H 1675.86 -1.39438 -2.79219 0
M  V30 18030 N 1676.17 1.23705 -0.976463 0
M  V30 18031 C 1677.41 1.92299 -0.64412 0
M  V30 18032 C 1677.74 1.7605 0.819767 0
M  V30 18033 O 1677.02 1.11902 1.59086 0
M  V30 18034 C 1677.3 3.45042 -1.03044 0
M  V30 18035 C 1677.16 3.70418 -2.55167 0
M  V30 18036 C 1678.47 4.36374 -0.571444 0
M  V30 18037 H 1675.59 0.698369 -0.235478 0
M  V30 18038 H 1678.24 1.45904 -1.21704 0
M  V30 18039 H 1676.39 3.84687 -0.54294 0
M  V30 18040 H 1678.06 3.40278 -3.11462 0
M  V30 18041 H 1676.3 3.15266 -2.97976 0
M  V30 18042 H 1676.97 4.77323 -2.77248 0
M  V30 18043 H 1679.45 4.04153 -0.989936 0
M  V30 18044 H 1678.32 5.41958 -0.870226 0
M  V30 18045 H 1678.58 4.38932 0.528318 0
M  V30 18046 N 1677.64 0.747635 1.38738 0
M  V30 18047 C 1678.89 0.301147 2.00248 0
M  V30 18048 C 1679.22 -1.11539 1.5934 0
M  V30 18049 O 1678.47 -1.77716 0.819487 0
M  V30 18050 C 1678.77 0.364869 3.55533 0
M  V30 18051 C 1678.44 1.73622 4.16133 0
M  V30 18052 C 1677.1 2.11153 4.32398 0
M  V30 18053 C 1679.45 2.63605 4.49624 0
M  V30 18054 C 1676.78 3.38151 4.79449 0
M  V30 18055 C 1679.13 3.89987 4.98089 0
M  V30 18056 C 1677.8 4.27595 5.12561 0
M  V30 18057 H 1677.07 0.110197 0.73276 0
M  V30 18058 H 1679.71 0.956952 1.65876 0
M  V30 18059 H 1678.02 -0.374505 3.90006 0
M  V30 18060 H 1679.72 0.00107503 4.01 0
M  V30 18061 H 1676.31 1.43445 4.03883 0
M  V30 18062 H 1680.49 2.35875 4.36665 0
M  V30 18063 H 1675.75 3.67215 4.88838 0
M  V30 18064 H 1679.92 4.59859 5.22975 0
M  V30 18065 H 1677.55 5.26065 5.4878 0
M  V30 18066 N 1679.12 -1.49583 0.496242 0
M  V30 18067 C 1680.35 -2.06847 -0.0469118 0
M  V30 18068 C 1680.76 -1.35715 -1.31251 0
M  V30 18069 O 1680.12 -0.434021 -1.77264 0
M  V30 18070 C 1680.17 -3.60174 -0.309338 0
M  V30 18071 O 1679.89 -4.28628 0.906082 0
M  V30 18072 C 1681.39 -4.34137 -0.896664 0
M  V30 18073 H 1678.61 -0.67075 0.0183324 0
M  V30 18074 H 1681.16 -1.92427 0.692237 0
M  V30 18075 H 1679.31 -3.74312 -0.998459 0
M  V30 18076 H 1679.73 -5.20254 0.666014 0
M  V30 18077 H 1681.2 -5.42307 -1.0299 0
M  V30 18078 H 1681.68 -3.96299 -1.89325 0
M  V30 18079 H 1682.28 -4.24593 -0.245158 0
M  V30 18080 N 1680.6 -0.229873 -1.55915 0
M  V30 18081 C 1681.53 0.671321 -2.23642 0
M  V30 18082 C 1682.51 1.19461 -1.21091 0
M  V30 18083 O 1683.7 1.23708 -1.49699 0
M  V30 18084 C 1680.83 1.87595 -2.92276 0
M  V30 18085 C 1679.78 1.48616 -4.01369 0
M  V30 18086 C 1679.11 2.77024 -4.57342 0
M  V30 18087 C 1680.41 0.669928 -5.17986 0
M  V30 18088 H 1682.1 0.106622 -2.9921 0
M  V30 18089 H 1679.65 0.0498418 -1.43914 0
M  V30 18090 H 1681.6 2.51191 -3.3835 0
M  V30 18091 H 1680.32 2.46576 -2.14168 0
M  V30 18092 H 1678.98 0.873623 -3.56038 0
M  V30 18093 H 1678.63 3.34166 -3.75955 0
M  V30 18094 H 1678.33 2.51674 -5.30975 0
M  V30 18095 H 1679.85 3.41548 -5.0614 0
M  V30 18096 H 1681.27 1.20978 -5.6039 0
M  V30 18097 H 1679.66 0.513174 -5.97902 0
M  V30 18098 H 1680.73 -0.321644 -4.83832 0
M  V30 18099 N 1682.08 1.5754 0.0434337 0
M  V30 18100 C 1683.01 2.08648 1.04824 0
M  V30 18101 C 1683.99 0.985894 1.38615 0
M  V30 18102 O 1685.17 1.2603 1.4775 0
M  V30 18103 C 1682.3 2.55399 2.35348 0
M  V30 18104 C 1681.26 3.69592 2.15837 0
M  V30 18105 C 1680.58 4.02497 3.51995 0
M  V30 18106 C 1681.88 4.98575 1.55629 0
M  V30 18107 H 1683.58 2.9285 0.622849 0
M  V30 18108 H 1681.12 1.40879 0.298158 0
M  V30 18109 H 1683.08 2.89771 3.05958 0
M  V30 18110 H 1681.8 1.68262 2.7992 0
M  V30 18111 H 1680.46 3.35546 1.47663 0
M  V30 18112 H 1680.11 3.12448 3.94189 0
M  V30 18113 H 1679.81 4.79406 3.39771 0
M  V30 18114 H 1681.33 4.39391 4.23991 0
M  V30 18115 H 1682.75 5.30996 2.16138 0
M  V30 18116 H 1681.14 5.79998 1.54021 0
M  V30 18117 H 1682.21 4.82098 0.520567 0
M  V30 18118 N 1683.56 -0.31543 1.54411 0
M  V30 18119 C 1684.83 -1.07113 1.63665 0
M  V30 18120 C 1685.21 -2.05671 0.475688 0
M  V30 18121 O 1684.56 -2.22288 -0.52918 0
M  V30 18122 C 1684.77 -1.76584 3.0103 0
M  V30 18123 C 1686.12 -2.29309 3.57355 0
M  V30 18124 O 1687.14 -1.86638 3.03388 0
M  V30 18125 O 1686 -3.07452 4.51814 0
M  V30 18126 H 1683.1 -0.494217 0.663083 0
M  V30 18127 H 1685.64 -0.31467 1.66757 0
M  V30 18128 H 1684.41 -1.0494 3.76966 0
M  V30 18129 H 1684.04 -2.5902 3.01653 0
M  V30 18130 N 1685.03 -1.46622 -0.577906 0
M  V30 18131 C 1686.31 -1.42657 -1.33822 0
M  V30 18132 C 1686.69 -0.11256 -2.108 0
M  V30 18133 O 1686.04 0.905903 -2.09775 0
M  V30 18134 C 1686.25 -2.65927 -2.26018 0
M  V30 18135 C 1687.6 -3.12277 -2.87695 0
M  V30 18136 O 1688.62 -2.66509 -2.36329 0
M  V30 18137 O 1687.48 -3.91786 -3.81007 0
M  V30 18138 H 1684.57 -0.567544 -0.601517 0
M  V30 18139 H 1687.12 -1.58795 -0.598524 0
M  V30 18140 H 1685.89 -3.53116 -1.68597 0
M  V30 18141 H 1685.52 -2.52272 -3.07318 0
M  V30 18142 N 1686.51 0.822941 -1.34408 0
M  V30 18143 C 1687.46 1.93383 -1.25982 0
M  V30 18144 C 1688.43 1.6555 -0.13506 0
M  V30 18145 O 1689.61 1.88164 -0.316033 0
M  V30 18146 C 1686.75 3.29646 -1.02117 0
M  V30 18147 C 1685.87 3.69772 -2.23366 0
M  V30 18148 C 1685 4.94982 -1.92784 0
M  V30 18149 C 1684.04 5.2769 -3.10177 0
M  V30 18150 N 1683.18 6.44078 -2.79479 0
M  V30 18151 H 1688.02 1.99922 -2.20987 0
M  V30 18152 H 1685.56 0.978105 -1.0987 0
M  V30 18153 H 1687.51 4.08173 -0.863175 0
M  V30 18154 H 1686.14 3.2262 -0.107803 0
M  V30 18155 H 1685.2 2.86637 -2.50086 0
M  V30 18156 H 1686.51 3.89914 -3.11076 0
M  V30 18157 H 1685.66 5.81297 -1.73721 0
M  V30 18158 H 1684.4 4.76843 -1.02335 0
M  V30 18159 H 1683.41 4.39873 -3.29837 0
M  V30 18160 H 1684.63 5.47769 -4.01405 0
M  V30 18161 H 1682.58 6.27394 -1.91605 0
M  V30 18162 H 1682.49 6.64392 -3.60721 0
M  V30 18163 H 1683.76 7.33462 -2.63919 0
M  V30 18164 N 1687.99 1.18137 1.04314 0
M  V30 18165 C 1689.24 0.969582 1.76867 0
M  V30 18166 C 1689.55 -0.501982 1.89049 0
M  V30 18167 O 1690.76 -0.832218 2.58431 0
M  V30 18168 C 1689.21 1.68571 3.17981 0
M  V30 18169 C 1688.82 3.19641 3.13901 0
M  V30 18170 C 1690.57 1.55664 3.94929 0
M  V30 18171 C 1688.47 3.83904 4.49858 0
M  V30 18172 H 1687.4 0.359141 0.662973 0
M  V30 18173 H 1690.05 1.41484 1.16852 0
M  V30 18174 H 1688.44 1.16821 3.78377 0
M  V30 18175 H 1689.61 3.78395 2.62971 0
M  V30 18176 H 1687.93 3.32661 2.50451 0
M  V30 18177 H 1690.52 2.01039 4.95467 0
M  V30 18178 H 1690.87 0.508522 4.13182 0
M  V30 18179 H 1691.4 2.0468 3.41103 0
M  V30 18180 H 1688.14 4.88751 4.36809 0
M  V30 18181 H 1687.66 3.29937 5.00901 0
M  V30 18182 H 1689.34 3.86623 5.18779 0
M  V30 18183 N 1689.47 -1.23186 0.98301 0
M  V30 18184 C 1690.4 -2.23304 0.470158 0
M  V30 18185 C 1691.38 -1.55834 -0.464156 0
M  V30 18186 O 1692.56 -1.84379 -0.391997 0
M  V30 18187 C 1689.69 -3.37189 -0.319545 0
M  V30 18188 C 1688.74 -4.22817 0.559296 0
M  V30 18189 S 1689.57 -4.96398 2.00871 0
M  V30 18190 C 1690.73 -6.13731 1.22822 0
M  V30 18191 H 1690.96 -2.6646 1.31857 0
M  V30 18192 H 1688.49 -1.32706 0.789206 0
M  V30 18193 H 1690.45 -4.0323 -0.769158 0
M  V30 18194 H 1689.11 -2.92561 -1.14311 0
M  V30 18195 H 1688.3 -5.03977 -0.0478035 0
M  V30 18196 H 1687.91 -3.61857 0.945262 0
M  V30 18197 H 1690.2 -6.75719 0.490859 0
M  V30 18198 H 1691.14 -6.78832 2.01475 0
M  V30 18199 H 1691.55 -5.59551 0.74586 0
M  V30 18200 N 1690.95 -0.754982 -1.38339 0
M  V30 18201 C 1691.88 -0.0765954 -2.28071 0
M  V30 18202 C 1692.86 0.726851 -1.4545 0
M  V30 18203 O 1694.04 0.705183 -1.74813 0
M  V30 18204 C 1691.17 0.898289 -3.26571 0
M  V30 18205 C 1690.21 0.180904 -4.26116 0
M  V30 18206 S 1691.05 -1.11929 -5.23672 0
M  V30 18207 C 1692.2 -0.147519 -6.25726 0
M  V30 18208 H 1692.44 -0.837511 -2.8526 0
M  V30 18209 H 1689.97 -0.547625 -1.44362 0
M  V30 18210 H 1691.93 1.45541 -3.83833 0
M  V30 18211 H 1690.59 1.63219 -2.68363 0
M  V30 18212 H 1689.78 0.919305 -4.95545 0
M  V30 18213 H 1689.38 -0.304739 -3.72756 0
M  V30 18214 H 1691.68 0.686001 -6.74018 0
M  V30 18215 H 1692.62 -0.809506 -7.03458 0
M  V30 18216 H 1693.03 0.233798 -5.64016 0
M  V30 18217 N 1692.42 1.49318 -0.504168 0
M  V30 18218 C 1693.84 1.86612 -0.0571729 0
M  V30 18219 C 1694.19 1.4162 1.35787 0
M  V30 18220 O 1693.31 0.79548 2.01249 0
M  V30 18221 C 1693.91 3.38661 -0.0969773 0
M  V30 18222 C 1692.47 3.75245 0.294692 0
M  V30 18223 C 1691.61 2.7332 -0.468125 0
M  V30 18224 H 1694.56 1.4159 -0.716788 0
M  V30 18225 H 1694.58 3.74051 0.697569 0
M  V30 18226 H 1694.1 3.71377 -1.12698 0
M  V30 18227 H 1692.2 3.48138 1.32781 0
M  V30 18228 H 1692.31 4.79092 -0.0269621 0
M  V30 18229 H 1690.67 2.54567 0.0824379 0
M  V30 18230 H 1691.46 3.0888 -1.49827 0
M  V30 18231 N 1693.9 0.238138 1.5579 0
M  V30 18232 C 1694.83 -0.697701 2.18323 0
M  V30 18233 C 1695.85 -1.1453 1.15701 0
M  V30 18234 O 1697.04 -1.07359 1.42605 0
M  V30 18235 C 1694.14 -1.95895 2.76547 0
M  V30 18236 C 1693.31 -1.66422 4.04503 0
M  V30 18237 C 1692.37 -2.77419 4.4713 0
M  V30 18238 O 1691.39 -2.45179 5.13689 0
M  V30 18239 N 1692.6 -4.06731 4.14187 0
M  V30 18240 H 1695.36 -0.162705 2.99258 0
M  V30 18241 H 1692.92 0.0577602 1.61797 0
M  V30 18242 H 1694.91 -2.69374 3.02026 0
M  V30 18243 H 1693.48 -2.40398 1.99819 0
M  V30 18244 H 1692.7 -0.76505 3.86705 0
M  V30 18245 H 1693.99 -1.44183 4.87943 0
M  V30 18246 H 1693.39 -4.3576 3.60735 0
M  V30 18247 H 1691.95 -4.76701 4.44521 0
M  V30 18248 N 1695.38 -1.57561 -0.0350783 0
M  V30 18249 C 1696.66 -1.8014 -0.76217 0
M  V30 18250 C 1697.04 -0.834754 -1.93894 0
M  V30 18251 O 1696.39 0.124387 -2.28161 0
M  V30 18252 C 1696.6 -3.2769 -1.20084 0
M  V30 18253 C 1697.94 -3.92513 -1.61923 0
M  V30 18254 O 1698.97 -3.31803 -1.29558 0
M  V30 18255 O 1697.83 -4.9939 -2.21972 0
M  V30 18256 H 1694.92 -0.740572 -0.368078 0
M  V30 18257 H 1697.47 -1.69696 -0.0123195 0
M  V30 18258 H 1696.24 -3.89636 -0.3605 0
M  V30 18259 H 1695.86 -3.43 -2.01089 0
M  V30 18260 N 1696.86 0.307236 -1.54576 0
M  V30 18261 C 1698.14 1.06243 -1.64231 0
M  V30 18262 C 1698.52 2.05415 -0.486589 0
M  V30 18263 O 1697.86 2.22565 0.517384 0
M  V30 18264 C 1698.07 1.74985 -3.01962 0
M  V30 18265 C 1699.42 2.2741 -3.58566 0
M  V30 18266 O 1700.45 1.85027 -3.04374 0
M  V30 18267 O 1699.3 3.05051 -4.53438 0
M  V30 18268 H 1696.4 0.490693 -0.665695 0
M  V30 18269 H 1698.94 0.305822 -1.66922 0
M  V30 18270 H 1697.72 1.02939 -3.77517 0
M  V30 18271 H 1697.34 2.57417 -3.03022 0
M  V30 18272 N 1698.34 1.46926 0.570122 0
M  V30 18273 C 1699.27 1.61311 1.68822 0
M  V30 18274 C 1700.25 0.462964 1.63678 0
M  V30 18275 O 1701.43 0.690745 1.815 0
M  V30 18276 C 1698.56 1.61499 3.07466 0
M  V30 18277 C 1697.52 2.7561 3.27449 0
M  V30 18278 C 1696.84 2.60865 4.66748 0
M  V30 18279 C 1698.14 4.17324 3.14067 0
M  V30 18280 H 1699.84 2.54909 1.5704 0
M  V30 18281 H 1697.38 1.22677 0.754077 0
M  V30 18282 H 1699.34 1.70155 3.8552 0
M  V30 18283 H 1698.06 0.64453 3.20177 0
M  V30 18284 H 1696.72 2.66444 2.51799 0
M  V30 18285 H 1696.37 1.61875 4.76241 0
M  V30 18286 H 1696.07 3.37411 4.81069 0
M  V30 18287 H 1697.59 2.7143 5.46954 0
M  V30 18288 H 1699 4.27534 3.81952 0
M  V30 18289 H 1697.4 4.94555 3.39905 0
M  V30 18290 H 1698.47 4.36596 2.10979 0
M  V30 18291 N 1699.82 -0.815801 1.34842 0
M  V30 18292 C 1701.06 -1.57474 1.27788 0
M  V30 18293 C 1701.39 -1.9362 -0.149956 0
M  V30 18294 O 1700.67 -1.60605 -1.0971 0
M  V30 18295 C 1700.95 -2.86952 2.17556 0
M  V30 18296 C 1700.81 -2.5734 3.68912 0
M  V30 18297 C 1702.12 -3.88582 2.0662 0
M  V30 18298 H 1699.24 -0.57135 0.465541 0
M  V30 18299 H 1701.89 -0.939271 1.6516 0
M  V30 18300 H 1700.04 -3.41182 1.85815 0
M  V30 18301 H 1701.71 -2.09365 4.11052 0
M  V30 18302 H 1699.95 -1.90674 3.89648 0
M  V30 18303 H 1700.62 -3.49702 4.27098 0
M  V30 18304 H 1703.1 -3.43726 2.34503 0
M  V30 18305 H 1701.97 -4.7697 2.71644 0
M  V30 18306 H 1702.23 -4.29564 1.04532 0
M  V30 18307 N 1701.29 -1.18689 -1.03686 0
M  V30 18308 C 1702.54 -0.978948 -1.7635 0
M  V30 18309 C 1702.86 0.49195 -1.89312 0
M  V30 18310 O 1704.06 0.818501 -2.58868 0
M  V30 18311 C 1702.52 -1.70255 -3.17083 0
M  V30 18312 C 1702.13 -3.21301 -3.12201 0
M  V30 18313 C 1703.87 -1.57756 -3.94098 0
M  V30 18314 C 1701.78 -3.86284 -4.47815 0
M  V30 18315 H 1700.71 -0.362652 -0.661059 0
M  V30 18316 H 1703.36 -1.42102 -1.161 0
M  V30 18317 H 1701.74 -1.18826 -3.77752 0
M  V30 18318 H 1702.91 -3.79785 -2.6096 0
M  V30 18319 H 1701.23 -3.33984 -2.48684 0
M  V30 18320 H 1703.83 -2.03664 -4.94394 0
M  V30 18321 H 1704.17 -0.530427 -4.12907 0
M  V30 18322 H 1704.7 -2.06486 -3.40012 0
M  V30 18323 H 1701.44 -4.91061 -4.34211 0
M  V30 18324 H 1700.96 -3.32589 -4.99144 0
M  V30 18325 H 1702.64 -3.89369 -5.16721 0
M  V30 18326 N 1702.77 1.22662 -0.989529 0
M  V30 18327 C 1704 1.95883 -0.681511 0
M  V30 18328 C 1704.42 1.72646 0.746646 0
M  V30 18329 O 1703.78 1.00358 1.5099 0
M  V30 18330 C 1703.83 3.46773 -0.988975 0
M  V30 18331 O 1702.93 4.12311 -0.0858485 0
M  V30 18332 H 1702.27 0.612916 -0.255401 0
M  V30 18333 H 1704.8 1.5585 -1.32559 0
M  V30 18334 H 1704.81 3.97273 -0.929426 0
M  V30 18335 H 1703.49 3.63011 -2.02967 0
M  V30 18336 H 1702.06 3.7236 -0.200592 0
M  V30 18337 N 1704.25 0.762308 1.37937 0
M  V30 18338 C 1705.16 0.142724 2.34165 0
M  V30 18339 C 1706.18 -0.690588 1.59709 0
M  V30 18340 O 1707.35 -0.61271 1.91854 0
M  V30 18341 C 1704.42 -0.733325 3.38856 0
M  V30 18342 C 1703.48 0.115359 4.29145 0
M  V30 18343 C 1702.71 -0.718972 5.28835 0
M  V30 18344 O 1702.93 -1.95656 5.35794 0
M  V30 18345 O 1701.87 -0.133162 6.01753 0
M  V30 18346 H 1705.69 0.937662 2.88863 0
M  V30 18347 H 1703.28 0.523325 1.39935 0
M  V30 18348 H 1705.16 -1.23374 4.02935 0
M  V30 18349 H 1703.84 -1.50661 2.86501 0
M  V30 18350 H 1702.74 0.661926 3.68197 0
M  V30 18351 H 1704.08 0.851505 4.84779 0
M  V30 18352 N 1705.73 -1.49049 0.51208 0
M  V30 18353 C 1706.98 -2.01677 -0.0303931 0
M  V30 18354 C 1707.29 -1.39594 -1.37014 0
M  V30 18355 O 1708.5 -1.83615 -1.99994 0
M  V30 18356 C 1706.95 -3.59748 -0.104605 0
M  V30 18357 C 1706.56 -4.30808 1.22916 0
M  V30 18358 C 1708.3 -4.20283 -0.596854 0
M  V30 18359 C 1706.21 -5.80765 1.11651 0
M  V30 18360 H 1705.14 -0.753848 -0.015131 0
M  V30 18361 H 1707.79 -1.71482 0.653169 0
M  V30 18362 H 1706.17 -3.86707 -0.852859 0
M  V30 18363 H 1707.35 -4.15539 1.99158 0
M  V30 18364 H 1705.66 -3.82066 1.65573 0
M  V30 18365 H 1708.26 -5.30114 -0.698821 0
M  V30 18366 H 1708.6 -3.84392 -1.59838 0
M  V30 18367 H 1709.14 -3.97686 0.0951882 0
M  V30 18368 H 1705.87 -6.212 2.09264 0
M  V30 18369 H 1705.39 -5.98497 0.395167 0
M  V30 18370 H 1707.07 -6.42038 0.799782 0
M  V30 18371 N 1707.21 -0.246397 -1.55662 0
M  V30 18372 C 1708.48 0.42879 -1.90842 0
M  V30 18373 C 1708.86 1.75905 -1.16707 0
M  V30 18374 O 1708.21 2.26723 -0.284391 0
M  V30 18375 C 1708.42 0.597368 -3.4385 0
M  V30 18376 C 1709.77 0.893477 -4.15093 0
M  V30 18377 O 1710.79 0.683251 -3.49586 0
M  V30 18378 O 1709.65 1.2938 -5.30964 0
M  V30 18379 H 1706.75 0.230145 -0.794331 0
M  V30 18380 H 1709.29 -0.290426 -1.67196 0
M  V30 18381 H 1708.06 -0.339952 -3.8982 0
M  V30 18382 H 1707.69 1.36714 -3.73356 0
M  V30 18383 N 1708.68 1.57577 0.026722 0
M  V30 18384 C 1709.93 1.89379 0.717062 0
M  V30 18385 C 1710.26 0.843976 1.75235 0
M  V30 18386 O 1709.51 -0.154755 1.95087 0
M  V30 18387 C 1709.81 3.27927 1.42121 0
M  V30 18388 C 1709.48 4.47872 0.521676 0
M  V30 18389 C 1708.14 4.8042 0.273926 0
M  V30 18390 C 1710.49 5.21105 -0.0992493 0
M  V30 18391 C 1707.82 5.83588 -0.603488 0
M  V30 18392 C 1710.17 6.25206 -0.964379 0
M  V30 18393 C 1708.84 6.56227 -1.22157 0
M  V30 18394 H 1708.11 0.692988 0.262391 0
M  V30 18395 H 1710.75 1.91486 -0.0230629 0
M  V30 18396 H 1709.06 3.2182 2.23471 0
M  V30 18397 H 1710.76 3.49783 1.96094 0
M  V30 18398 H 1707.35 4.22425 0.724931 0
M  V30 18399 H 1711.53 4.96237 0.0791882 0
M  V30 18400 H 1706.79 6.05997 -0.811031 0
M  V30 18401 H 1710.96 6.81094 -1.45201 0
M  V30 18402 H 1708.59 7.35991 -1.90317 0
M  V30 18403 N 1710.16 -0.299034 1.54737 0
M  V30 18404 C 1711.11 -1.38889 1.86581 0
M  V30 18405 C 1712.1 -1.52396 0.739723 0
M  V30 18406 O 1713.31 -1.5449 0.92374 0
M  V30 18407 H 1709.68 -0.463969 0.591808 0
M  V30 18408 H 1711.66 -1.09268 2.77674 0
M  V30 18409 C 1710.4 -2.74702 2.13152 0
M  V30 18410 H 1709.73 -2.65092 2.99277 0
M  V30 18411 H 1711.17 -3.49967 2.39372 0
M  V30 18412 C 1709.63 -3.23789 0.930706 0
M  V30 18413 O 1710.16 -4.01412 0.152193 0
M  V30 18414 N 1708.36 -2.81137 0.735545 0
M  V30 18415 H 1707.91 -2.1813 1.37029 0
M  V30 18416 H 1707.87 -3.1433 -0.0663452 0
M  V30 18417 N 1711.64 -1.47227 -0.562322 0
M  V30 18418 C 1712.59 -1.59729 -1.69084 0
M  V30 18419 C 1713.58 -0.464812 -1.62898 0
M  V30 18420 O 1714.79 -0.642429 -1.68145 0
M  V30 18421 H 1711.16 -0.502579 -0.559391 0
M  V30 18422 H 1713.13 -2.54573 -1.55676 0
M  V30 18423 C 1711.88 -1.62394 -3.07447 0
M  V30 18424 H 1711.21 -2.48882 -3.12887 0
M  V30 18425 H 1712.65 -1.75192 -3.86114 0
M  V30 18426 C 1711.1 -0.356287 -3.35011 0
M  V30 18427 O 1711.63 0.544818 -3.97988 0
M  V30 18428 N 1709.84 -0.237888 -2.89625 0
M  V30 18429 H 1709.39 -0.9721 -2.38554 0
M  V30 18430 H 1709.35 0.609348 -3.08438 0
M  V30 18431 N 1713.12 0.808639 -1.35273 0
M  V30 18432 C 1714.07 1.94177 -1.28055 0
M  V30 18433 C 1715.06 1.68485 -0.175874 0
M  V30 18434 O 1716.27 1.76726 -0.341729 0
M  V30 18435 H 1712.64 0.63793 -0.398183 0
M  V30 18436 H 1714.61 1.97385 -2.2379 0
M  V30 18437 C 1713.36 3.30913 -1.06734 0
M  V30 18438 H 1712.68 3.51238 -1.90975 0
M  V30 18439 H 1714.12 4.10607 -1.05724 0
M  V30 18440 C 1712.58 3.36122 0.228886 0
M  V30 18441 O 1713.11 3.82553 1.22539 0
M  V30 18442 N 1711.32 2.89371 0.266949 0
M  V30 18443 H 1710.87 2.51778 -0.544571 0
M  V30 18444 H 1710.82 2.93238 1.13396 0
M  V30 18445 N 1714.6 1.19237 1.03055 0
M  V30 18446 C 1715.82 1.01983 1.80594 0
M  V30 18447 C 1716.25 -0.426875 1.83192 0
M  V30 18448 O 1715.6 -1.30678 1.2567 0
M  V30 18449 C 1715.65 1.59139 3.23585 0
M  V30 18450 O 1714.76 0.819576 4.04174 0
M  V30 18451 H 1714.1 0.360585 0.557561 0
M  V30 18452 H 1716.63 1.58222 1.29719 0
M  V30 18453 H 1716.64 1.62283 3.74337 0
M  V30 18454 H 1715.31 2.64436 3.21009 0
M  V30 18455 H 1713.89 0.861253 3.62818 0
M  V30 18456 N 1716.07 -1.22136 0.99602 0
M  V30 18457 C 1717.32 -1.9028 0.66907 0
M  V30 18458 C 1717.64 -1.7837 -0.802717 0
M  V30 18459 O 1718.84 -2.41458 -1.24138 0
M  V30 18460 C 1717.3 -3.4116 1.1462 0
M  V30 18461 C 1716.91 -3.617 2.64343 0
M  V30 18462 C 1718.65 -4.14985 0.893718 0
M  V30 18463 C 1716.56 -5.06297 3.05642 0
M  V30 18464 H 1715.49 -0.71255 0.246554 0
M  V30 18465 H 1718.14 -1.38304 1.20599 0
M  V30 18466 H 1716.52 -3.92337 0.537378 0
M  V30 18467 H 1717.69 -3.21002 3.30597 0
M  V30 18468 H 1716.01 -3.01212 2.87507 0
M  V30 18469 H 1718.61 -5.21564 1.17794 0
M  V30 18470 H 1718.95 -4.15952 -0.17013 0
M  V30 18471 H 1719.48 -3.69846 1.46488 0
M  V30 18472 H 1716.22 -5.10472 4.11216 0
M  V30 18473 H 1715.74 -5.47885 2.44094 0
M  V30 18474 H 1717.42 -5.74743 2.97118 0
M  V30 18475 N 1717.55 -0.769612 -1.37531 0
M  V30 18476 C 1718.8 -0.33346 -2.0004 0
M  V30 18477 C 1719.13 1.08661 -1.60955 0
M  V30 18478 O 1718.41 1.74714 -0.854709 0
M  V30 18479 C 1718.69 -0.474588 -3.56959 0
M  V30 18480 C 1718.54 -1.93692 -4.0596 0
M  V30 18481 C 1719.86 0.122429 -4.3993 0
M  V30 18482 H 1716.98 -0.122637 -0.726725 0
M  V30 18483 H 1719.62 -0.972255 -1.6324 0
M  V30 18484 H 1717.77 0.0692352 -3.88438 0
M  V30 18485 H 1719.44 -2.54028 -3.85055 0
M  V30 18486 H 1717.69 -2.44647 -3.58232 0
M  V30 18487 H 1718.36 -1.98674 -5.15008 0
M  V30 18488 H 1720.83 -0.341557 -4.14696 0
M  V30 18489 H 1719.71 -0.00646545 -5.489 0
M  V30 18490 H 1719.97 1.21251 -4.25148 0
M  V30 18491 N 1719.03 1.48775 -0.519977 0
M  V30 18492 C 1719.96 2.32292 0.237213 0
M  V30 18493 C 1720.94 1.4146 0.944625 0
M  V30 18494 O 1722.13 1.70355 0.932349 0
M  V30 18495 C 1719.26 3.22426 1.29068 0
M  V30 18496 C 1718.21 4.22204 0.702011 0
M  V30 18497 C 1717.54 5.01403 1.85739 0
M  V30 18498 C 1718.84 5.21321 -0.319626 0
M  V30 18499 H 1720.53 2.95846 -0.459949 0
M  V30 18500 H 1718.08 1.42268 -0.222641 0
M  V30 18501 H 1720.03 3.79674 1.82826 0
M  V30 18502 H 1718.75 2.56853 2.01728 0
M  V30 18503 H 1717.41 3.66128 0.186027 0
M  V30 18504 H 1717.06 4.32262 2.57214 0
M  V30 18505 H 1716.76 5.68929 1.46949 0
M  V30 18506 H 1718.28 5.615 2.39895 0
M  V30 18507 H 1719.7 5.73151 0.130505 0
M  V30 18508 H 1718.1 5.96843 -0.624377 0
M  V30 18509 H 1719.17 4.69069 -1.22893 0
M  V30 18510 N 1720.51 0.254649 1.55529 0
M  V30 18511 C 1721.76 -0.367205 1.98736 0
M  V30 18512 C 1722.08 -1.57899 1.14424 0
M  V30 18513 O 1721.35 -1.94559 0.228849 0
M  V30 18514 H 1719.93 -0.138663 0.734017 0
M  V30 18515 H 1722.59 0.355236 1.91635 0
M  V30 18516 H 1721.69 -0.671069 3.048 0
M  V30 18517 N 1721.99 -1.57589 -0.0183649 0
M  V30 18518 C 1722.93 -2.07252 -1.01563 0
M  V30 18519 C 1723.9 -0.963941 -1.35268 0
M  V30 18520 O 1725.09 -1.2352 -1.45421 0
M  V30 18521 C 1722.23 -2.56548 -2.30818 0
M  V30 18522 C 1721.34 -3.81238 -2.03178 0
M  V30 18523 C 1720.48 -4.19105 -3.26381 0
M  V30 18524 C 1719.52 -5.36682 -2.94344 0
M  V30 18525 N 1718.65 -5.6993 -4.1003 0
M  V30 18526 H 1723.49 -2.92198 -0.585179 0
M  V30 18527 H 1721.03 -1.44462 -0.27731 0
M  V30 18528 H 1722.99 -2.832 -3.06355 0
M  V30 18529 H 1721.62 -1.74504 -2.71566 0
M  V30 18530 H 1720.67 -3.61606 -1.1809 0
M  V30 18531 H 1721.98 -4.66886 -1.75552 0
M  V30 18532 H 1721.14 -4.46942 -4.10278 0
M  V30 18533 H 1719.87 -3.32129 -3.57129 0
M  V30 18534 H 1718.88 -5.08587 -2.08851 0
M  V30 18535 H 1720.1 -6.2532 -2.64862 0
M  V30 18536 H 1718.05 -4.85913 -4.40709 0
M  V30 18537 H 1717.97 -6.50111 -3.85865 0
M  V30 18538 H 1719.24 -6.02349 -4.94768 0
M  V30 18539 N 1723.46 0.290824 -1.54893 0
M  V30 18540 C 1724.7 1.0326 -1.76399 0
M  V30 18541 C 1725.07 1.84136 -0.543874 0
M  V30 18542 O 1726.27 2.61147 -0.636854 0
M  V30 18543 C 1724.54 1.90632 -3.02315 0
M  V30 18544 S 1726.1 2.71317 -3.44866 0
M  V30 18545 H 1722.92 0.348084 -0.619966 0
M  V30 18546 H 1725.52 0.304897 -1.93108 0
M  V30 18547 H 1724.22 1.30109 -3.8923 0
M  V30 18548 H 1723.75 2.67753 -2.88222 0
M  V30 18549 H 1725.77 3.93148 -3.02737 0
M  V30 18550 N 1724.94 1.47523 0.554506 0
M  V30 18551 C 1725.85 1.62851 1.68869 0
M  V30 18552 C 1726.87 0.511305 1.66318 0
M  V30 18553 O 1728.04 0.779195 1.85716 0
M  V30 18554 C 1725.11 1.64161 3.05372 0
M  V30 18555 C 1724.17 2.87327 3.1897 0
M  V30 18556 C 1723.4 2.88566 4.48961 0
M  V30 18557 O 1723.63 1.98937 5.34584 0
M  V30 18558 O 1722.56 3.80459 4.66406 0
M  V30 18559 H 1726.39 2.58826 1.5888 0
M  V30 18560 H 1723.97 1.3064 0.724822 0
M  V30 18561 H 1725.85 1.67686 3.866 0
M  V30 18562 H 1724.53 0.713534 3.15738 0
M  V30 18563 H 1723.44 2.89345 2.37129 0
M  V30 18564 H 1724.77 3.79438 3.13509 0
M  V30 18565 N 1726.42 -0.801453 1.357 0
M  V30 18566 C 1727.67 -1.55392 1.28594 0
M  V30 18567 C 1727.98 -1.95125 -0.136199 0
M  V30 18568 O 1729.19 -2.69492 -0.329568 0
M  V30 18569 C 1727.64 -2.80456 2.2555 0
M  V30 18570 C 1727.25 -2.47939 3.73135 0
M  V30 18571 C 1729 -3.58457 2.27396 0
M  V30 18572 C 1726.9 -3.69326 4.61901 0
M  V30 18573 H 1725.83 -0.583286 0.477801 0
M  V30 18574 H 1728.48 -0.880525 1.60994 0
M  V30 18575 H 1726.87 -3.49532 1.86127 0
M  V30 18576 H 1728.04 -1.86837 4.21223 0
M  V30 18577 H 1726.36 -1.83173 3.73947 0
M  V30 18578 H 1728.95 -4.48625 2.90929 0
M  V30 18579 H 1729.3 -3.96162 1.27912 0
M  V30 18580 H 1729.83 -2.96348 2.65373 0
M  V30 18581 H 1726.57 -3.36726 5.62402 0
M  V30 18582 H 1726.09 -4.29636 4.18536 0
M  V30 18583 H 1727.77 -4.36496 4.77578 0
M  V30 18584 N 1727.9 -1.19782 -1.02421 0
M  V30 18585 C 1729.14 -1.01483 -1.76275 0
M  V30 18586 C 1729.5 0.449171 -1.87083 0
M  V30 18587 O 1728.79 1.32915 -1.38 0
M  V30 18588 C 1728.99 -1.62297 -3.18425 0
M  V30 18589 C 1728.82 -3.14459 -3.21474 0
M  V30 18590 C 1727.59 -3.83389 -3.29152 0
M  V30 18591 C 1729.78 -4.11771 -3.08138 0
M  V30 18592 N 1727.77 -5.22906 -3.21625 0
M  V30 18593 C 1729.14 -5.37916 -3.08296 0
M  V30 18594 C 1731.19 -4.0307 -2.92299 0
M  V30 18595 C 1729.89 -6.56365 -2.9424 0
M  V30 18596 C 1731.92 -5.21134 -2.79594 0
M  V30 18597 C 1731.28 -6.4618 -2.80411 0
M  V30 18598 H 1727.38 -0.425521 -0.656092 0
M  V30 18599 H 1729.97 -1.5183 -1.21884 0
M  V30 18600 H 1728.14 -1.14546 -3.71125 0
M  V30 18601 H 1729.87 -1.37389 -3.80666 0
M  V30 18602 H 1726.62 -3.34205 -3.35565 0
M  V30 18603 H 1727.05 -5.95923 -3.21256 0
M  V30 18604 H 1731.69 -3.07209 -2.90487 0
M  V30 18605 H 1729.41 -7.52408 -2.94802 0
M  V30 18606 H 1732.99 -5.16207 -2.68368 0
M  V30 18607 H 1731.87 -7.36001 -2.70688 0
M  V30 18608 N 1729.38 1.21606 -1.00248 0
M  V30 18609 C 1730.79 1.42695 -0.714862 0
M  V30 18610 C 1730.99 1.88542 0.710917 0
M  V30 18611 O 1730.05 2.04535 1.48059 0
M  V30 18612 C 1731.36 2.4605 -1.72858 0
M  V30 18613 C 1732.91 2.59836 -1.74511 0
M  V30 18614 C 1733.39 3.66421 -2.74772 0
M  V30 18615 N 1734.88 3.73889 -2.73425 0
M  V30 18616 C 1735.61 4.5598 -3.47664 0
M  V30 18617 N 1735.11 5.41987 -4.31535 0
M  V30 18618 N 1736.9 4.50379 -3.36326 0
M  V30 18619 H 1729.05 0.901565 -1.92316 0
M  V30 18620 H 1731.31 0.458128 -0.829954 0
M  V30 18621 H 1731.02 2.19329 -2.74932 0
M  V30 18622 H 1730.89 3.44812 -1.5292 0
M  V30 18623 H 1733.28 2.85895 -0.731304 0
M  V30 18624 H 1733.36 1.61317 -1.98521 0
M  V30 18625 H 1733.01 3.41108 -3.76308 0
M  V30 18626 H 1732.94 4.64531 -2.48029 0
M  V30 18627 H 1735.43 3.12443 -2.12575 0
M  V30 18628 H 1735.74 6.01673 -4.84984 0
M  V30 18629 H 1734.09 5.41537 -4.35618 0
M  V30 18630 H 1737.28 3.82217 -2.70237 0
M  V30 18631 H 1737.45 5.14122 -3.9444 0
M  V30 18632 N 1730.86 0.776895 1.37121 0
M  V30 18633 C 1731.79 0.11287 2.27921 0
M  V30 18634 C 1732.77 -0.703619 1.46588 0
M  V30 18635 O 1733.95 -0.677283 1.75912 0
M  V30 18636 C 1731.08 -0.846221 3.27959 0
M  V30 18637 C 1730.12 -0.11309 4.2635 0
M  V30 18638 S 1730.96 1.20246 5.21825 0
M  V30 18639 C 1732.11 0.247048 6.25412 0
M  V30 18640 H 1732.35 0.882787 2.83891 0
M  V30 18641 H 1729.88 0.570523 1.43473 0
M  V30 18642 H 1731.84 -1.39416 3.861 0
M  V30 18643 H 1730.5 -1.58929 2.70925 0
M  V30 18644 H 1729.69 -0.840352 4.96945 0
M  V30 18645 H 1729.29 0.364002 3.72224 0
M  V30 18646 H 1731.58 -0.578684 6.75024 0
M  V30 18647 H 1732.53 0.921318 7.02081 0
M  V30 18648 H 1732.94 -0.144038 5.64316 0
M  V30 18649 N 1732.33 -1.48497 0.527859 0
M  V30 18650 C 1733.24 -2.3337 -0.239957 0
M  V30 18651 C 1734.26 -1.46353 -0.941101 0
M  V30 18652 O 1735.44 -1.79337 -0.916532 0
M  V30 18653 C 1732.5 -3.22421 -1.27458 0
M  V30 18654 C 1731.56 -4.25309 -0.584017 0
M  V30 18655 C 1730.79 -5.10105 -1.56935 0
M  V30 18656 O 1731.02 -4.96846 -2.80178 0
M  V30 18657 O 1729.95 -5.91578 -1.10991 0
M  V30 18658 H 1733.78 -3.00265 0.455458 0
M  V30 18659 H 1731.36 -1.46582 0.288809 0
M  V30 18660 H 1733.24 -3.7751 -1.87254 0
M  V30 18661 H 1731.92 -2.58189 -1.95244 0
M  V30 18662 H 1730.83 -3.7406 0.0543828 0
M  V30 18663 H 1732.16 -4.92173 0.0518646 0
M  V30 18664 N 1733.81 -0.262893 -1.55392 0
M  V30 18665 C 1735.06 0.35666 -1.98928 0
M  V30 18666 C 1735.38 1.5729 -1.1526 0
M  V30 18667 O 1734.65 1.94435 -0.239164 0
M  V30 18668 H 1733.23 0.134768 -0.734742 0
M  V30 18669 H 1735.89 -0.365394 -1.91444 0
M  V30 18670 H 1734.99 0.654895 -3.05152 0
M  V30 18671 N 1735.29 1.57597 0.0100073 0
M  V30 18672 C 1736.54 1.89754 0.695559 0
M  V30 18673 C 1736.86 0.862983 1.74865 0
M  V30 18674 O 1736.13 -0.100949 1.9564 0
M  V30 18675 H 1734.71 0.700331 0.259895 0
M  V30 18676 H 1737.37 1.94879 -0.0285521 0
M  V30 18677 H 1736.47 2.89213 1.17313 0
M  V30 18678 N 1736.77 -0.282606 1.55045 0
M  V30 18679 C 1737.99 -1.03825 1.79542 0
M  V30 18680 C 1738.42 -1.79503 0.562165 0
M  V30 18681 O 1737.78 -1.7461 -0.487946 0
M  V30 18682 C 1737.82 -1.98007 3.01373 0
M  V30 18683 O 1736.93 -3.06621 2.75785 0
M  V30 18684 H 1736.27 -0.297333 0.593708 0
M  V30 18685 H 1738.8 -0.314434 2.02169 0
M  V30 18686 H 1738.81 -2.40138 3.29845 0
M  V30 18687 H 1737.48 -1.42335 3.90786 0
M  V30 18688 H 1736.06 -2.68874 2.58382 0
M  V30 18689 N 1738.25 -1.47815 -0.546675 0
M  V30 18690 C 1739.49 -1.54674 -1.30078 0
M  V30 18691 C 1739.81 -0.215151 -1.93809 0
M  V30 18692 O 1739.08 0.761862 -1.80478 0
M  V30 18693 H 1737.66 -0.569776 -0.483078 0
M  V30 18694 H 1740.33 -1.84178 -0.637525 0
M  V30 18695 H 1739.42 -2.31894 -2.08882 0
M  V30 18696 N 1739.72 0.794246 -1.36123 0
M  V30 18697 C 1740.67 1.8963 -1.26588 0
M  V30 18698 C 1741.66 1.60118 -0.158415 0
M  V30 18699 O 1742.85 1.72632 -0.390783 0
M  V30 18700 C 1739.98 3.26767 -1.05255 0
M  V30 18701 C 1739.06 3.62304 -2.20447 0
M  V30 18702 N 1739.46 3.69185 -3.4574 0
M  V30 18703 C 1737.75 3.92336 -2.12106 0
M  V30 18704 C 1738.45 4.00822 -4.21565 0
M  V30 18705 N 1737.43 4.15553 -3.50453 0
M  V30 18706 H 1741.23 1.93169 -2.21501 0
M  V30 18707 H 1738.75 0.989508 -1.28773 0
M  V30 18708 H 1740.74 4.05575 -0.965108 0
M  V30 18709 H 1739.4 3.24505 -0.112374 0
M  V30 18710 H 1740.41 3.51951 -3.79935 0
M  V30 18711 H 1737.09 3.98028 -1.26016 0
M  V30 18712 H 1738.48 4.1311 -5.29896 0
M  V30 18713 N 1741.2 1.20323 1.01785 0
M  V30 18714 C 1742.43 1.03821 1.78966 0
M  V30 18715 C 1742.84 -0.412622 1.84236 0
M  V30 18716 O 1742.2 -1.2865 1.29443 0
M  V30 18717 C 1742.25 1.61352 3.23493 0
M  V30 18718 O 1741.97 3.00758 3.18553 0
M  V30 18719 C 1743.47 1.49786 4.17228 0
M  V30 18720 H 1740.69 0.365291 0.562853 0
M  V30 18721 H 1743.24 1.59383 1.2813 0
M  V30 18722 H 1741.39 1.09913 3.71481 0
M  V30 18723 H 1741.81 3.28034 4.09261 0
M  V30 18724 H 1743.28 1.94802 5.16484 0
M  V30 18725 H 1743.76 0.450143 4.36887 0
M  V30 18726 H 1744.36 2.00409 3.75122 0
M  V30 18727 N 1742.68 -1.21073 1.00892 0
M  V30 18728 C 1743.93 -1.90524 0.694879 0
M  V30 18729 C 1744.26 -1.78161 -0.772802 0
M  V30 18730 O 1743.53 -1.1608 -1.56063 0
M  V30 18731 C 1743.82 -3.42188 1.12156 0
M  V30 18732 C 1743.67 -3.63523 2.64898 0
M  V30 18733 C 1744.99 -4.34706 0.68694 0
M  V30 18734 H 1742.11 -0.69188 0.253912 0
M  V30 18735 H 1744.75 -1.42626 1.2553 0
M  V30 18736 H 1742.9 -3.83113 0.644742 0
M  V30 18737 H 1744.57 -3.31901 3.20374 0
M  V30 18738 H 1742.81 -3.07255 3.0623 0
M  V30 18739 H 1743.49 -4.69805 2.89806 0
M  V30 18740 H 1745.96 -4.01386 1.09674 0
M  V30 18741 H 1744.84 -5.3946 1.01361 0
M  V30 18742 H 1745.1 -4.40178 -0.411757 0
M  V30 18743 N 1744.16 -0.784156 -1.36707 0
M  V30 18744 C 1745.39 -0.365901 -2.03639 0
M  V30 18745 C 1745.8 1.01599 -1.59132 0
M  V30 18746 O 1745.16 1.65072 -0.778298 0
M  V30 18747 C 1745.21 -0.414035 -3.59121 0
M  V30 18748 O 1744.93 -1.74142 -4.02003 0
M  V30 18749 C 1746.43 0.0142546 -4.43298 0
M  V30 18750 H 1743.65 -0.151525 -0.653667 0
M  V30 18751 H 1746.2 -1.06154 -1.7479 0
M  V30 18752 H 1744.35 0.233134 -3.86698 0
M  V30 18753 H 1744.76 -1.68861 -4.96575 0
M  V30 18754 H 1746.24 -0.0705681 -5.51955 0
M  V30 18755 H 1746.72 1.06623 -4.26061 0
M  V30 18756 H 1747.32 -0.605201 -4.20972 0
M  V30 18757 N 1745.64 1.48215 -0.535727 0
M  V30 18758 C 1746.91 1.95505 0.0609376 0
M  V30 18759 C 1747.29 1.47806 1.5072 0
M  V30 18760 O 1746.64 0.707142 2.17283 0
M  V30 18761 C 1746.85 3.48944 -0.0622609 0
M  V30 18762 C 1748.2 4.24496 0.0940805 0
M  V30 18763 O 1749.22 3.56198 0.0112532 0
M  V30 18764 O 1748.08 5.4584 0.268547 0
M  V30 18765 H 1745.18 0.82349 0.0761079 0
M  V30 18766 H 1747.72 1.58711 -0.600732 0
M  V30 18767 H 1746.49 3.76401 -1.06949 0
M  V30 18768 H 1746.12 3.92448 0.637999 0
M  V30 18769 N 1747.11 0.27113 1.5525 0
M  V30 18770 C 1748.39 -0.398374 1.915 0
M  V30 18771 C 1748.77 -1.74026 1.19491 0
M  V30 18772 O 1748.12 -2.26242 0.320425 0
M  V30 18773 C 1748.33 -0.542589 3.44756 0
M  V30 18774 C 1749.68 -0.827326 4.16462 0
M  V30 18775 O 1750.7 -0.627548 3.50628 0
M  V30 18776 O 1749.56 -1.20917 5.32955 0
M  V30 18777 H 1746.65 -0.217479 0.797892 0
M  V30 18778 H 1749.2 0.316988 1.66713 0
M  V30 18779 H 1747.97 0.401926 3.8923 0
M  V30 18780 H 1747.6 -1.30757 3.75484 0
M  V30 18781 N 1748.59 -1.576 -0.00164943 0
M  V30 18782 C 1749.84 -1.89675 -0.686026 0
M  V30 18783 C 1750.15 -0.873179 -1.75028 0
M  V30 18784 O 1751.36 -1.08409 -2.48917 0
M  V30 18785 C 1749.82 -3.36696 -1.27136 0
M  V30 18786 C 1749.42 -4.47346 -0.242011 0
M  V30 18787 C 1751.17 -3.77883 -1.93402 0
M  V30 18788 C 1749.08 -5.85444 -0.837241 0
M  V30 18789 H 1748.01 -0.707756 -0.259994 0
M  V30 18790 H 1750.66 -1.83406 0.0586245 0
M  V30 18791 H 1749.04 -3.37797 -2.06662 0
M  V30 18792 H 1750.21 -4.57759 0.528539 0
M  V30 18793 H 1748.53 -4.15168 0.320118 0
M  V30 18794 H 1751.12 -4.78394 -2.38838 0
M  V30 18795 H 1751.47 -3.11311 -2.76389 0
M  V30 18796 H 1752 -3.79075 -1.20612 0
M  V30 18797 H 1748.74 -6.55484 -0.04619 0
M  V30 18798 H 1748.26 -5.78698 -1.57699 0
M  V30 18799 H 1749.94 -6.33048 -1.33637 0
M  V30 18800 N 1750.07 0.274379 -1.55193 0
M  V30 18801 C 1751.35 1.02736 -1.66447 0
M  V30 18802 C 1751.73 2.04337 -0.530051 0
M  V30 18803 O 1751.08 2.23613 0.470058 0
M  V30 18804 C 1751.29 1.6854 -3.05606 0
M  V30 18805 C 1752.63 2.19754 -3.63309 0
M  V30 18806 O 1753.66 1.78529 -3.0823 0
M  V30 18807 O 1752.52 2.95364 -4.59807 0
M  V30 18808 H 1749.61 0.476462 -0.675953 0
M  V30 18809 H 1752.16 0.270347 -1.67533 0
M  V30 18810 H 1750.93 0.949086 -3.79616 0
M  V30 18811 H 1750.55 2.50931 -3.08414 0
M  V30 18812 N 1751.55 1.48103 0.538828 0
M  V30 18813 C 1752.5 1.58369 1.64023 0
M  V30 18814 C 1753.48 0.44135 1.54729 0
M  V30 18815 O 1754.67 0.692305 1.62899 0
M  V30 18816 C 1751.8 1.61827 3.02765 0
M  V30 18817 C 1750.89 2.81509 3.17196 0
M  V30 18818 N 1751.28 4.06022 3.01629 0
M  V30 18819 C 1749.58 2.78656 3.48234 0
M  V30 18820 C 1750.28 4.86272 3.1924 0
M  V30 18821 N 1749.26 4.18926 3.46413 0
M  V30 18822 H 1753.06 2.52392 1.50583 0
M  V30 18823 H 1750.57 1.44352 0.744066 0
M  V30 18824 H 1752.57 1.67274 3.8187 0
M  V30 18825 H 1751.23 0.68913 3.17303 0
M  V30 18826 H 1752.24 4.36597 2.78574 0
M  V30 18827 H 1748.92 1.9496 3.69184 0
M  V30 18828 H 1750.31 5.95059 3.12017 0
M  V30 18829 N 1753.03 -0.787016 1.36542 0
M  V30 18830 C 1754.27 -1.54499 1.30906 0
M  V30 18831 C 1754.6 -1.94183 -0.110963 0
M  V30 18832 O 1753.86 -1.63149 -1.08079 0
M  V30 18833 C 1754.16 -2.83235 2.17974 0
M  V30 18834 C 1753.82 -2.62677 3.66485 0
M  V30 18835 C 1752.48 -2.56779 4.06962 0
M  V30 18836 C 1754.84 -2.43853 4.60636 0
M  V30 18837 C 1752.16 -2.30026 5.39727 0
M  V30 18838 C 1754.52 -2.18626 5.93621 0
M  V30 18839 C 1753.18 -2.11162 6.33219 0
M  V30 18840 H 1752.45 -0.565352 0.479017 0
M  V30 18841 H 1755.1 -0.907794 1.68616 0
M  V30 18842 H 1753.4 -3.51435 1.73208 0
M  V30 18843 H 1755.1 -3.41038 2.10936 0
M  V30 18844 H 1751.69 -2.68125 3.34376 0
M  V30 18845 H 1755.87 -2.4741 4.30235 0
M  V30 18846 H 1751.13 -2.22731 5.69386 0
M  V30 18847 H 1755.3 -2.03056 6.66139 0
M  V30 18848 H 1752.93 -1.90195 7.36023 0
M  V30 18849 N 1754.5 -1.20861 -1.01145 0
M  V30 18850 C 1755.75 -1.02191 -1.74823 0
M  V30 18851 C 1756.08 0.445357 -1.89333 0
M  V30 18852 O 1755.33 1.34684 -1.41982 0
M  V30 18853 C 1755.63 -1.65666 -3.16685 0
M  V30 18854 C 1755.3 -3.15494 -3.2214 0
M  V30 18855 C 1753.96 -3.56381 -3.23336 0
M  V30 18856 C 1756.31 -4.11481 -3.19895 0
M  V30 18857 C 1753.64 -4.91772 -3.19964 0
M  V30 18858 C 1755.99 -5.46826 -3.18064 0
M  V30 18859 C 1754.66 -5.87118 -3.17566 0
M  V30 18860 H 1753.93 -0.373945 -0.639724 0
M  V30 18861 H 1756.57 -1.50361 -1.18592 0
M  V30 18862 H 1754.88 -1.09772 -3.76108 0
M  V30 18863 H 1756.58 -1.4873 -3.72398 0
M  V30 18864 H 1753.17 -2.82926 -3.21948 0
M  V30 18865 H 1757.35 -3.80924 -3.18136 0
M  V30 18866 H 1752.61 -5.22247 -3.17913 0
M  V30 18867 H 1756.78 -6.20945 -3.15279 0
M  V30 18868 H 1754.41 -6.92 -3.14707 0
M  V30 18869 N 1755.98 1.20536 -1.01532 0
M  V30 18870 C 1757.21 1.94393 -0.722908 0
M  V30 18871 C 1757.63 1.74191 0.709857 0
M  V30 18872 O 1756.99 1.03538 1.48827 0
M  V30 18873 C 1757.04 3.44597 -1.06231 0
M  V30 18874 O 1756.14 4.12036 -0.173286 0
M  V30 18875 H 1755.48 0.607361 -0.268345 0
M  V30 18876 H 1758.01 1.53003 -1.35835 0
M  V30 18877 H 1758.02 3.95212 -1.01348 0
M  V30 18878 H 1756.7 3.58624 -2.10621 0
M  V30 18879 H 1755.28 3.71851 -0.27953 0
M  V30 18880 N 1757.46 0.791395 1.36289 0
M  V30 18881 C 1758.42 0.197069 2.28351 0
M  V30 18882 C 1759.42 -0.606748 1.48913 0
M  V30 18883 O 1760.61 -0.427453 1.68874 0
M  V30 18884 C 1757.75 -0.727009 3.33058 0
M  V30 18885 H 1758.94 1.00885 2.82422 0
M  V30 18886 H 1756.49 0.560959 1.45887 0
M  V30 18887 H 1757.23 -1.56306 2.84146 0
M  V30 18888 H 1757.01 -0.152537 3.91803 0
M  V30 18889 H 1758.5 -1.13765 4.01805 0
M  V30 18890 N 1758.94 -1.47929 0.54358 0
M  V30 18891 C 1760.35 -1.86395 0.10663 0
M  V30 18892 C 1760.7 -1.45171 -1.31984 0
M  V30 18893 O 1759.83 -0.848558 -1.99069 0
M  V30 18894 C 1760.42 -3.38285 0.186733 0
M  V30 18895 C 1758.98 -3.75894 -0.195098 0
M  V30 18896 C 1758.13 -2.71983 0.540427 0
M  V30 18897 H 1761.08 -1.3964 0.754076 0
M  V30 18898 H 1761.1 -3.75769 -0.598151 0
M  V30 18899 H 1760.61 -3.68258 1.22505 0
M  V30 18900 H 1758.71 -3.51536 -1.23504 0
M  V30 18901 H 1758.83 -4.78853 0.153975 0
M  V30 18902 H 1757.19 -2.54696 -0.0149151 0
M  V30 18903 H 1757.97 -3.04799 1.57963 0
M  V30 18904 N 1760.42 -0.27936 -1.55104 0
M  V30 18905 C 1761.64 0.342295 -2.04556 0
M  V30 18906 C 1762.07 1.48367 -1.15624 0
M  V30 18907 O 1761.43 1.8063 -0.15572 0
M  V30 18908 C 1761.47 0.796785 -3.51687 0
M  V30 18909 O 1760.58 1.90364 -3.65835 0
M  V30 18910 H 1759.92 0.07012 -0.660287 0
M  V30 18911 H 1762.45 -0.414896 -2.00349 0
M  V30 18912 H 1762.46 1.09141 -3.93131 0
M  V30 18913 H 1761.13 -0.0382637 -4.15882 0
M  V30 18914 H 1759.71 1.61123 -3.36294 0
M  V30 18915 N 1761.9 1.57599 -0.0067085 0
M  V30 18916 C 1763.14 1.90036 0.675957 0
M  V30 18917 C 1763.46 0.882449 1.74563 0
M  V30 18918 O 1764.66 1.09728 2.48339 0
M  V30 18919 C 1763.12 3.37366 1.25349 0
M  V30 18920 C 1762.73 4.47468 0.218284 0
M  V30 18921 C 1764.47 3.78904 1.91396 0
M  V30 18922 C 1762.38 5.85879 0.806182 0
M  V30 18923 H 1761.31 0.709125 0.256237 0
M  V30 18924 H 1763.96 1.83373 -0.0683502 0
M  V30 18925 H 1762.34 3.38888 2.04868 0
M  V30 18926 H 1763.52 4.57472 -0.552808 0
M  V30 18927 H 1761.83 4.14992 -0.342131 0
M  V30 18928 H 1764.43 4.79654 2.36297 0
M  V30 18929 H 1764.77 3.12773 2.74734 0
M  V30 18930 H 1765.3 3.79709 1.186 0
M  V30 18931 H 1762.04 6.55499 0.0114275 0
M  V30 18932 H 1761.56 5.79526 1.54628 0
M  V30 18933 H 1763.24 6.33748 1.30278 0
M  V30 18934 N 1763.37 -0.266145 1.55336 0
M  V30 18935 C 1764.6 -1.01489 1.80299 0
M  V30 18936 C 1765.02 -1.79679 0.579742 0
M  V30 18937 O 1764.37 -1.76831 -0.451319 0
M  V30 18938 C 1764.42 -1.96805 3.03233 0
M  V30 18939 O 1764.15 -1.21782 4.20834 0
M  V30 18940 C 1765.65 -2.83436 3.40851 0
M  V30 18941 H 1762.87 -0.299504 0.600449 0
M  V30 18942 H 1765.41 -0.294854 2.02363 0
M  V30 18943 H 1763.57 -2.64262 2.83275 0
M  V30 18944 H 1763.98 -1.86086 4.9038 0
M  V30 18945 H 1765.45 -3.461 4.30022 0
M  V30 18946 H 1765.93 -3.53559 2.60562 0
M  V30 18947 H 1766.54 -2.2146 3.63092 0
M  V30 18948 N 1764.85 -1.48386 -0.530967 0
M  V30 18949 C 1766.08 -1.59782 -1.30971 0
M  V30 18950 C 1766.49 -0.25683 -1.87449 0
M  V30 18951 O 1765.83 0.763845 -1.67066 0
M  V30 18952 C 1765.89 -2.58431 -2.49907 0
M  V30 18953 C 1765.56 -4.0352 -2.14524 0
M  V30 18954 C 1766.56 -4.91233 -1.70255 0
M  V30 18955 C 1764.24 -4.4905 -2.25077 0
M  V30 18956 C 1766.23 -6.22502 -1.37003 0
M  V30 18957 C 1763.92 -5.8034 -1.91437 0
M  V30 18958 C 1764.92 -6.66889 -1.47471 0
M  V30 18959 O 1764.61 -7.95737 -1.14272 0
M  V30 18960 H 1764.34 -0.541558 -0.404588 0
M  V30 18961 H 1766.89 -1.94932 -0.647349 0
M  V30 18962 H 1765.12 -2.184 -3.19121 0
M  V30 18963 H 1766.81 -2.59672 -3.1197 0
M  V30 18964 H 1767.58 -4.57296 -1.61572 0
M  V30 18965 H 1763.46 -3.81872 -2.58254 0
M  V30 18966 H 1767 -6.90012 -1.02613 0
M  V30 18967 H 1762.9 -6.13813 -1.9976 0
M  V30 18968 H 1763.67 -8.0848 -1.27679 0
M  V30 18969 N 1766.33 0.779763 -1.36958 0
M  V30 18970 C 1767.75 1.07919 -1.17582 0
M  V30 18971 C 1767.95 2.01499 -0.00649229 0
M  V30 18972 O 1767 2.43832 0.655905 0
M  V30 18973 C 1768.31 1.68439 -2.49096 0
M  V30 18974 C 1769.86 1.80735 -2.55546 0
M  V30 18975 C 1770.34 2.44669 -3.87171 0
M  V30 18976 N 1771.83 2.52127 -3.88569 0
M  V30 18977 C 1772.56 3.02429 -4.87159 0
M  V30 18978 N 1772.06 3.52964 -5.96144 0
M  V30 18979 N 1773.85 3.0123 -4.7457 0
M  V30 18980 H 1766 0.158249 -2.1181 0
M  V30 18981 H 1768.27 0.132826 -0.938649 0
M  V30 18982 H 1767.97 1.07147 -3.34981 0
M  V30 18983 H 1767.85 2.67832 -2.65604 0
M  V30 18984 H 1770.23 2.41162 -1.70073 0
M  V30 18985 H 1770.31 0.801199 -2.42929 0
M  V30 18986 H 1769.96 1.84883 -4.73055 0
M  V30 18987 H 1769.89 3.45874 -3.97088 0
M  V30 18988 H 1772.38 2.16355 -3.09837 0
M  V30 18989 H 1772.69 3.89725 -6.67334 0
M  V30 18990 H 1771.04 3.5109 -5.998 0
M  V30 18991 H 1774.23 2.61045 -3.88553 0
M  V30 18992 H 1774.4 3.40122 -5.51562 0
M  V30 18993 N 1767.81 1.21396 1.00503 0
M  V30 18994 C 1768.72 0.989221 2.12724 0
M  V30 18995 C 1769.73 -0.0586646 1.73901 0
M  V30 18996 O 1770.91 0.131377 2.00971 0
M  V30 18997 C 1767.97 0.556731 3.42201 0
M  V30 18998 C 1767.04 1.67683 3.95197 0
M  V30 18999 C 1766.27 1.26488 5.18494 0
M  V30 19000 O 1766.49 0.13847 5.70232 0
M  V30 19001 O 1765.43 2.07678 5.64937 0
M  V30 19002 H 1769.25 1.92913 2.3456 0
M  V30 19003 H 1766.84 0.998837 1.11102 0
M  V30 19004 H 1768.72 0.325327 4.20142 0
M  V30 19005 H 1767.39 -0.354457 3.21753 0
M  V30 19006 H 1766.3 1.96263 3.18483 0
M  V30 19007 H 1767.63 2.56544 4.20055 0
M  V30 19008 N 1769.29 -1.19996 1.0217 0
M  V30 19009 C 1770.7 -1.71202 0.744777 0
M  V30 19010 C 1771.05 -1.81862 -0.736238 0
M  V30 19011 O 1770.17 -1.48475 -1.5743 0
M  V30 19012 C 1770.77 -3.10945 1.34531 0
M  V30 19013 C 1769.33 -3.5944 1.11714 0
M  V30 19014 C 1768.47 -2.36501 1.44784 0
M  V30 19015 H 1771.42 -1.04938 1.19054 0
M  V30 19016 H 1771.45 -3.73264 0.738531 0
M  V30 19017 H 1770.96 -3.03154 2.42321 0
M  V30 19018 H 1769.06 -3.72556 0.0571346 0
M  V30 19019 H 1769.17 -4.43969 1.80079 0
M  V30 19020 H 1767.54 -2.3949 0.866981 0
M  V30 19021 H 1768.32 -2.31347 2.53641 0
M  V30 19022 N 1770.76 -0.798611 -1.35867 0
M  V30 19023 C 1771.71 -0.176275 -2.27318 0
M  V30 19024 C 1772.7 0.64521 -1.47397 0
M  V30 19025 O 1773.89 0.503776 -1.69679 0
M  V30 19026 C 1771.02 0.680716 -3.36483 0
M  V30 19027 C 1770.1 -0.150062 -4.23834 0
M  V30 19028 N 1770.5 -1.20913 -4.91135 0
M  V30 19029 C 1768.79 0.0696135 -4.45946 0
M  V30 19030 C 1769.49 -1.71566 -5.55824 0
M  V30 19031 N 1768.47 -1.02339 -5.3388 0
M  V30 19032 H 1772.27 -0.986741 -2.7684 0
M  V30 19033 H 1769.79 -0.638977 -1.49301 0
M  V30 19034 H 1771.78 1.14254 -4.00938 0
M  V30 19035 H 1770.44 1.48962 -2.88514 0
M  V30 19036 H 1771.45 -1.59169 -4.92834 0
M  V30 19037 H 1768.13 0.848295 -4.08791 0
M  V30 19038 H 1769.52 -2.60035 -6.19541 0
M  V30 19039 N 1772.24 1.47639 -0.551417 0
M  V30 19040 C 1773.17 2.32743 0.187887 0
M  V30 19041 C 1774.15 1.43432 0.914407 0
M  V30 19042 O 1775.34 1.72295 0.896005 0
M  V30 19043 C 1772.47 3.25092 1.22199 0
M  V30 19044 C 1771.42 4.23598 0.612298 0
M  V30 19045 C 1770.75 5.0523 1.75062 0
M  V30 19046 C 1772.05 5.20526 -0.430135 0
M  V30 19047 H 1773.74 2.94804 -0.522598 0
M  V30 19048 H 1771.29 1.41764 -0.252768 0
M  V30 19049 H 1773.24 3.83467 1.74731 0
M  V30 19050 H 1771.96 2.61074 1.96235 0
M  V30 19051 H 1770.62 3.6644 0.108324 0
M  V30 19052 H 1770.27 4.3762 2.47987 0
M  V30 19053 H 1769.97 5.71918 1.34848 0
M  V30 19054 H 1771.5 5.66463 2.27931 0
M  V30 19055 H 1772.91 5.73299 0.00890168 0
M  V30 19056 H 1771.31 5.95384 -0.750836 0
M  V30 19057 H 1772.38 4.66356 -1.32815 0
M  V30 19058 N 1773.72 0.287581 1.54954 0
M  V30 19059 C 1774.95 -0.331442 2.04735 0
M  V30 19060 C 1775.37 -1.47752 1.16409 0
M  V30 19061 O 1774.73 -1.80545 0.165297 0
M  V30 19062 C 1774.78 -0.778123 3.52105 0
M  V30 19063 O 1773.88 -1.88422 3.66839 0
M  V30 19064 H 1773.22 -0.0666173 0.66065 0
M  V30 19065 H 1775.75 0.425516 2.00126 0
M  V30 19066 H 1775.76 -1.07054 3.93705 0
M  V30 19067 H 1774.44 0.0603184 4.15856 0
M  V30 19068 H 1773.01 -1.59338 3.37144 0
M  V30 19069 N 1775.2 -1.57593 0.0150662 0
M  V30 19070 C 1776.45 -1.90392 -0.66587 0
M  V30 19071 C 1776.76 -0.891694 -1.74092 0
M  V30 19072 O 1777.97 -1.11043 -2.47753 0
M  V30 19073 C 1776.42 -3.38026 -1.23558 0
M  V30 19074 C 1776.03 -4.47577 -0.19455 0
M  V30 19075 C 1777.77 -3.79913 -1.89384 0
M  V30 19076 C 1775.68 -5.86299 -0.7751 0
M  V30 19077 H 1774.61 -0.710474 -0.252473 0
M  V30 19078 H 1777.26 -1.83334 0.0780739 0
M  V30 19079 H 1775.64 -3.3997 -2.03068 0
M  V30 19080 H 1776.82 -4.57172 0.577061 0
M  V30 19081 H 1775.13 -4.14805 0.364134 0
M  V30 19082 H 1777.73 -4.809 -2.3375 0
M  V30 19083 H 1778.07 -3.14225 -2.73072 0
M  V30 19084 H 1778.61 -3.80333 -1.16585 0
M  V30 19085 H 1775.35 -6.55496 0.0233354 0
M  V30 19086 H 1774.87 -5.80338 -1.51552 0
M  V30 19087 H 1776.54 -6.3443 -1.26915 0
M  V30 19088 N 1776.68 0.257904 -1.55475 0
M  V30 19089 C 1777.91 1.00385 -1.80572 0
M  V30 19090 C 1778.31 1.79866 -0.586915 0
M  V30 19091 O 1777.66 1.78008 0.453747 0
M  V30 19092 C 1777.72 1.99828 -2.98846 0
M  V30 19093 C 1777.38 1.39144 -4.35302 0
M  V30 19094 C 1778.38 0.799456 -5.13717 0
M  V30 19095 C 1776.07 1.4141 -4.81984 0
M  V30 19096 C 1778.06 0.238228 -6.36955 0
M  V30 19097 C 1775.75 0.849019 -6.05173 0
M  V30 19098 C 1776.74 0.262096 -6.82497 0
M  V30 19099 O 1776.43 -0.294292 -8.03361 0
M  V30 19100 H 1776.16 0.301552 -0.605014 0
M  V30 19101 H 1778.72 0.289436 -2.03351 0
M  V30 19102 H 1776.95 2.7507 -2.71797 0
M  V30 19103 H 1778.64 2.60675 -3.11133 0
M  V30 19104 H 1779.4 0.774531 -4.78776 0
M  V30 19105 H 1775.28 1.86032 -4.21797 0
M  V30 19106 H 1778.83 -0.220518 -6.97251 0
M  V30 19107 H 1774.72 0.871235 -6.39593 0
M  V30 19108 H 1775.49 -0.185098 -8.18291 0
M  V30 19109 N 1778.15 1.48666 0.52309 0
M  V30 19110 C 1779.43 1.47526 1.28435 0
M  V30 19111 C 1779.81 0.190719 2.10237 0
M  V30 19112 O 1779.16 -0.827423 2.12993 0
M  V30 19113 C 1779.37 2.74132 2.15992 0
M  V30 19114 C 1780.72 3.22739 2.75907 0
M  V30 19115 O 1781.74 2.75097 2.26275 0
M  V30 19116 O 1780.6 4.05657 3.66203 0
M  V30 19117 H 1777.69 0.589478 0.580039 0
M  V30 19118 H 1780.24 1.60907 0.539176 0
M  V30 19119 H 1779.01 3.5913 1.55375 0
M  V30 19120 H 1778.64 2.63505 2.97743 0
M  V30 19121 N 1779.63 -0.772489 1.37369 0
M  V30 19122 C 1780.88 -1.53329 1.32733 0
M  V30 19123 C 1781.21 -1.93999 -0.0882815 0
M  V30 19124 O 1780.49 -1.64014 -1.04545 0
M  V30 19125 C 1780.77 -2.79885 2.26575 0
M  V30 19126 C 1780.62 -2.45474 3.76912 0
M  V30 19127 C 1781.94 -3.81812 2.18878 0
M  V30 19128 H 1779.06 -0.55625 0.483482 0
M  V30 19129 H 1781.7 -0.886251 1.68064 0
M  V30 19130 H 1779.85 -3.35097 1.96576 0
M  V30 19131 H 1781.52 -1.96182 4.17505 0
M  V30 19132 H 1779.77 -1.78181 3.95517 0
M  V30 19133 H 1780.44 -3.35937 4.38007 0
M  V30 19134 H 1782.91 -3.36091 2.4532 0
M  V30 19135 H 1781.79 -4.68087 2.86681 0
M  V30 19136 H 1782.05 -4.26021 1.18146 0
M  V30 19137 N 1781.11 -1.21927 -0.998575 0
M  V30 19138 C 1782.04 -1.00845 -2.106 0
M  V30 19139 C 1783.02 0.068733 -1.69961 0
M  V30 19140 O 1784.21 -0.0923686 -1.9398 0
M  V30 19141 C 1781.34 -0.57929 -3.42435 0
M  V30 19142 C 1780.29 -1.60177 -3.96897 0
M  V30 19143 C 1779.62 -1.02863 -5.24713 0
M  V30 19144 C 1780.92 -2.9903 -4.28227 0
M  V30 19145 H 1782.61 -1.93469 -2.28495 0
M  V30 19146 H 1780.16 -0.931612 -1.09804 0
M  V30 19147 H 1782.11 -0.418944 -4.19312 0
M  V30 19148 H 1780.83 0.382608 -3.24351 0
M  V30 19149 H 1779.49 -1.74979 -3.22146 0
M  V30 19150 H 1779.14 -0.058254 -5.02966 0
M  V30 19151 H 1778.84 -1.71166 -5.62117 0
M  V30 19152 H 1780.36 -0.879743 -6.04229 0
M  V30 19153 H 1781.78 -2.87634 -4.95923 0
M  V30 19154 H 1780.18 -3.64404 -4.76791 0
M  V30 19155 H 1781.25 -3.4939 -3.36236 0
M  V30 19156 N 1782.59 1.19452 -1.02805 0
M  V30 19157 C 1783.5 2.2631 -0.618147 0
M  V30 19158 C 1784.51 1.70449 0.349712 0
M  V30 19159 O 1785.69 2.00325 0.207801 0
M  V30 19160 C 1782.76 3.46691 0.0255242 0
M  V30 19161 C 1781.82 4.17735 -0.98973 0
M  V30 19162 C 1781.05 5.32369 -0.376681 0
M  V30 19163 O 1781.27 5.64467 0.820584 0
M  V30 19164 O 1780.21 5.9178 -1.09911 0
M  V30 19165 H 1784.03 2.63611 -1.50807 0
M  V30 19166 H 1781.62 1.2629 -0.798192 0
M  V30 19167 H 1783.5 4.19643 0.384464 0
M  V30 19168 H 1782.17 3.1124 0.889467 0
M  V30 19169 H 1781.08 3.46906 -1.40024 0
M  V30 19170 H 1782.41 4.57155 -1.82402 0
M  V30 19171 N 1784.07 0.805805 1.35442 0
M  V30 19172 C 1785.31 0.386379 1.99085 0
M  V30 19173 C 1785.65 -1.04356 1.63779 0
M  V30 19174 O 1784.92 -1.72386 0.900731 0
M  V30 19175 C 1785.2 0.569062 3.55575 0
M  V30 19176 C 1785.06 2.04387 4.00682 0
M  V30 19177 C 1786.38 -0.00574668 4.401 0
M  V30 19178 H 1783.49 0.141862 0.723218 0
M  V30 19179 H 1786.14 1.01519 1.60605 0
M  V30 19180 H 1784.29 0.0337767 3.88485 0
M  V30 19181 H 1785.96 2.64148 3.78184 0
M  V30 19182 H 1784.2 2.54059 3.5162 0
M  V30 19183 H 1784.87 2.12258 5.09559 0
M  V30 19184 H 1787.35 0.451387 4.13644 0
M  V30 19185 H 1786.22 0.151994 5.4869 0
M  V30 19186 H 1786.49 -1.09937 4.28213 0
M  V30 19187 N 1785.54 -1.47344 0.559239 0
M  V30 19188 C 1786.48 -2.28095 -0.224826 0
M  V30 19189 C 1787.49 -1.37127 -0.877492 0
M  V30 19190 O 1788.68 -1.61933 -0.751002 0
M  V30 19191 C 1785.78 -3.1145 -1.33611 0
M  V30 19192 C 1784.95 -4.30392 -0.779845 0
M  V30 19193 C 1784.01 -4.95327 -1.77587 0
M  V30 19194 O 1783.04 -5.53654 -1.32119 0
M  V30 19195 N 1784.24 -4.90206 -3.10931 0
M  V30 19196 H 1787 -2.96026 0.46786 0
M  V30 19197 H 1784.56 -1.56996 0.395448 0
M  V30 19198 H 1786.56 -3.51758 -2.00121 0
M  V30 19199 H 1785.13 -2.45749 -1.932 0
M  V30 19200 H 1784.35 -3.94151 0.0620861 0
M  V30 19201 H 1785.63 -5.07322 -0.387581 0
M  V30 19202 H 1785.03 -4.44022 -3.50515 0
M  V30 19203 H 1783.59 -5.34527 -3.72994 0
M  V30 19204 N 1787.02 -0.295795 -1.54799 0
M  V30 19205 C 1787.97 0.582614 -2.23325 0
M  V30 19206 C 1788.94 1.13365 -1.21398 0
M  V30 19207 O 1790.12 1.17914 -1.50003 0
M  V30 19208 C 1787.26 1.75112 -2.97371 0
M  V30 19209 C 1786.38 1.23197 -4.14061 0
M  V30 19210 C 1785.51 2.36393 -4.75701 0
M  V30 19211 C 1784.55 1.81585 -5.84545 0
M  V30 19212 N 1783.69 2.88334 -6.40162 0
M  V30 19213 H 1788.53 -0.00836451 -2.97999 0
M  V30 19214 H 1786.07 -0.0158966 -1.47091 0
M  V30 19215 H 1788.02 2.4383 -3.38531 0
M  V30 19216 H 1786.65 2.31381 -2.25084 0
M  V30 19217 H 1785.71 0.437226 -3.77879 0
M  V30 19218 H 1787.02 0.790706 -4.92493 0
M  V30 19219 H 1786.17 3.13067 -5.19687 0
M  V30 19220 H 1784.91 2.83844 -3.9659 0
M  V30 19221 H 1783.92 1.03399 -5.3999 0
M  V30 19222 H 1785.14 1.35045 -6.65537 0
M  V30 19223 H 1783.09 3.35129 -5.63937 0
M  V30 19224 H 1783 2.48687 -7.13926 0
M  V30 19225 H 1784.27 3.64921 -6.88805 0
M  V30 19226 N 1788.5 1.57583 -0.0234236 0
M  V30 19227 C 1789.41 2.13328 0.976138 0
M  V30 19228 C 1790.43 1.08414 1.36097 0
M  V30 19229 O 1791.6 1.40441 1.44354 0
M  V30 19230 C 1788.67 2.64469 2.24181 0
M  V30 19231 C 1787.73 3.84076 1.91793 0
M  V30 19232 C 1786.96 4.32768 3.12326 0
M  V30 19233 O 1787.19 3.80663 4.24797 0
M  V30 19234 O 1786.12 5.24676 2.94956 0
M  V30 19235 H 1789.95 2.99001 0.532166 0
M  V30 19236 H 1787.53 1.48098 0.196838 0
M  V30 19237 H 1789.41 2.97456 2.98492 0
M  V30 19238 H 1788.09 1.81881 2.6777 0
M  V30 19239 H 1786.99 3.56023 1.14883 0
M  V30 19240 H 1788.33 4.67808 1.53024 0
M  V30 19241 N 1789.98 -0.249655 1.5561 0
M  V30 19242 C 1790.89 -1.33061 1.93215 0
M  V30 19243 C 1791.91 -1.52806 0.832239 0
M  V30 19244 O 1793.08 -1.66482 1.13339 0
M  V30 19245 C 1790.15 -2.66569 2.2168 0
M  V30 19246 C 1789.21 -2.5537 3.45087 0
M  V30 19247 C 1788.44 -3.82511 3.72184 0
M  V30 19248 O 1788.66 -4.84267 3.014 0
M  V30 19249 O 1787.6 -3.81309 4.65711 0
M  V30 19250 H 1791.42 -1.04161 2.85279 0
M  V30 19251 H 1789.01 -0.450177 1.42456 0
M  V30 19252 H 1790.89 -3.45468 2.41308 0
M  V30 19253 H 1789.57 -2.95207 1.32794 0
M  V30 19254 H 1788.47 -1.74766 3.30768 0
M  V30 19255 H 1789.81 -2.31677 4.34266 0
M  V30 19256 N 1791.46 -1.48941 -0.515198 0
M  V30 19257 C 1792.39 -1.67466 -1.62719 0
M  V30 19258 C 1793.37 -0.523393 -1.61847 0
M  V30 19259 O 1794.55 -0.757631 -1.78812 0
M  V30 19260 C 1791.68 -1.72799 -3.0126 0
M  V30 19261 C 1790.64 -2.87574 -3.16994 0
M  V30 19262 C 1789.96 -2.78008 -4.56745 0
M  V30 19263 C 1791.26 -4.28693 -2.98362 0
M  V30 19264 H 1792.96 -2.60562 -1.47471 0
M  V30 19265 H 1790.5 -1.25391 -0.708027 0
M  V30 19266 H 1792.46 -1.84346 -3.78939 0
M  V30 19267 H 1791.18 -0.762918 -3.17564 0
M  V30 19268 H 1789.84 -2.75606 -2.41737 0
M  V30 19269 H 1789.49 -1.79438 -4.69905 0
M  V30 19270 H 1789.19 -3.55033 -4.68215 0
M  V30 19271 H 1790.71 -2.91543 -5.36503 0
M  V30 19272 H 1792.13 -4.41416 -3.65821 0
M  V30 19273 H 1790.52 -5.0683 -3.21315 0
M  V30 19274 H 1791.59 -4.44125 -1.9463 0
M  V30 19275 N 1792.94 0.765193 -1.37777 0
M  V30 19276 C 1794.21 1.51374 -1.23876 0
M  V30 19277 C 1794.59 2.10455 0.164852 0
M  V30 19278 O 1793.94 1.96084 1.17318 0
M  V30 19279 C 1794.15 2.58939 -2.33991 0
M  V30 19280 C 1795.5 3.26162 -2.71852 0
M  V30 19281 O 1796.52 2.69238 -2.33216 0
M  V30 19282 O 1795.38 4.29094 -3.38438 0
M  V30 19283 H 1792.48 0.670749 -0.48376 0
M  V30 19284 H 1795.02 0.801597 -1.49574 0
M  V30 19285 H 1793.79 2.13448 -3.27957 0
M  V30 19286 H 1793.42 3.37747 -2.09793 0
M  V30 19287 N 1794.41 1.22455 0.992094 0
M  V30 19288 C 1795.34 1.01961 2.10063 0
M  V30 19289 C 1796.32 -0.0597186 1.69995 0
M  V30 19290 O 1797.51 0.102655 1.93928 0
M  V30 19291 C 1794.64 0.597442 3.42123 0
M  V30 19292 C 1793.59 1.62279 3.96042 0
M  V30 19293 C 1792.92 1.05644 5.2416 0
M  V30 19294 C 1794.22 3.01296 4.26635 0
M  V30 19295 H 1795.91 1.94678 2.27466 0
M  V30 19296 H 1793.46 0.937422 1.09309 0
M  V30 19297 H 1795.41 0.441175 4.19084 0
M  V30 19298 H 1794.14 -0.365401 3.24549 0
M  V30 19299 H 1792.8 1.76685 3.21213 0
M  V30 19300 H 1792.44 0.0849267 5.02928 0
M  V30 19301 H 1792.14 1.74144 5.61202 0
M  V30 19302 H 1793.67 0.911774 6.03754 0
M  V30 19303 H 1795.08 2.9026 4.94391 0
M  V30 19304 H 1793.48 3.66928 4.74852 0
M  V30 19305 H 1794.55 3.51168 3.34378 0
M  V30 19306 N 1795.89 -1.18905 1.03437 0
M  V30 19307 C 1797.12 -1.93219 0.753743 0
M  V30 19308 C 1797.54 -1.75299 -0.682055 0
M  V30 19309 O 1796.9 -1.05892 -1.47161 0
M  V30 19310 C 1796.95 -3.42864 1.117 0
M  V30 19311 O 1796.05 -4.11708 0.238816 0
M  V30 19312 H 1795.39 -0.603015 0.277973 0
M  V30 19313 H 1797.92 -1.50823 1.38252 0
M  V30 19314 H 1797.93 -3.9355 1.07623 0
M  V30 19315 H 1796.61 -3.55228 2.163 0
M  V30 19316 H 1795.18 -3.71359 0.338652 0
M  V30 19317 N 1797.37 -0.812977 -1.35013 0
M  V30 19318 C 1798.32 -0.225816 -2.29693 0
M  V30 19319 C 1799.29 0.643767 -1.53117 0
M  V30 19320 O 1800.47 0.587505 -1.8153 0
M  V30 19321 C 1797.61 0.614444 -3.39586 0
M  V30 19322 C 1796.72 -0.276281 -4.31116 0
M  V30 19323 C 1795.86 0.572595 -5.28105 0
M  V30 19324 C 1794.9 -0.318133 -6.11273 0
M  V30 19325 N 1794.04 0.491086 -7.0038 0
M  V30 19326 H 1798.88 -1.03861 -2.79315 0
M  V30 19327 H 1796.41 -0.523695 -1.37462 0
M  V30 19328 H 1798.37 1.11683 -4.01973 0
M  V30 19329 H 1797 1.39244 -2.91223 0
M  V30 19330 H 1796.05 -0.89682 -3.69677 0
M  V30 19331 H 1797.36 -0.961601 -4.89443 0
M  V30 19332 H 1796.52 1.13986 -5.95896 0
M  V30 19333 H 1795.26 1.29146 -4.7029 0
M  V30 19334 H 1794.26 -0.897622 -5.42423 0
M  V30 19335 H 1795.49 -1.03496 -6.71167 0
M  V30 19336 H 1793.43 1.19381 -6.45046 0
M  V30 19337 H 1793.35 -0.136054 -7.55878 0
M  V30 19338 H 1794.62 1.04143 -7.72512 0
M  V30 19339 N 1798.85 1.47045 -0.567045 0
M  V30 19340 C 1800.12 1.9559 0.0194544 0
M  V30 19341 C 1800.5 1.5097 1.47551 0
M  V30 19342 O 1799.85 0.753072 2.15734 0
M  V30 19343 C 1800.06 3.48734 -0.136263 0
M  V30 19344 C 1801.41 4.246 0.00401745 0
M  V30 19345 O 1802.43 3.56142 -0.0643042 0
M  V30 19346 O 1801.29 5.46287 0.152706 0
M  V30 19347 H 1798.39 0.82492 0.0586233 0
M  V30 19348 H 1800.93 1.57401 -0.634262 0
M  V30 19349 H 1799.71 3.74048 -1.14909 0
M  V30 19350 H 1799.33 3.93713 0.554612 0
M  V30 19351 N 1800.33 0.304 1.5464 0
M  V30 19352 C 1801.26 -0.563854 2.2659 0
M  V30 19353 C 1802.24 -1.13547 1.26653 0
M  V30 19354 O 1803.42 -1.16425 1.55431 0
M  V30 19355 C 1800.55 -1.73437 3.00894 0
M  V30 19356 C 1799.51 -1.29297 4.08003 0
M  V30 19357 C 1798.83 -2.54888 4.70038 0
M  V30 19358 C 1800.13 -0.422027 5.20592 0
M  V30 19359 H 1801.83 0.0362569 2.99378 0
M  V30 19360 H 1799.37 0.0188781 1.43988 0
M  V30 19361 H 1801.32 -2.34762 3.4995 0
M  V30 19362 H 1800.05 -2.36076 2.25689 0
M  V30 19363 H 1798.71 -0.702757 3.59801 0
M  V30 19364 H 1798.36 -3.15848 3.9147 0
M  V30 19365 H 1798.06 -2.26054 5.42378 0
M  V30 19366 H 1799.58 -3.17011 5.21859 0
M  V30 19367 H 1800.99 -0.941036 5.65524 0
M  V30 19368 H 1799.39 -0.227323 5.99669 0
M  V30 19369 H 1800.46 0.55212 4.81746 0
M  V30 19370 N 1801.8 -1.57568 0.0317802 0
M  V30 19371 C 1802.74 -2.05894 -0.984021 0
M  V30 19372 C 1803.71 -0.955271 -1.3158 0
M  V30 19373 O 1804.9 -1.22579 -1.43201 0
M  V30 19374 C 1802.03 -2.48323 -2.30334 0
M  V30 19375 C 1801.07 -3.69736 -2.12598 0
M  V30 19376 S 1801.9 -5.16266 -1.42233 0
M  V30 19377 C 1803.06 -5.61992 -2.75528 0
M  V30 19378 H 1803.29 -2.91732 -0.572665 0
M  V30 19379 H 1800.83 -1.53347 -0.179981 0
M  V30 19380 H 1802.78 -2.73433 -3.06178 0
M  V30 19381 H 1801.45 -1.62825 -2.68602 0
M  V30 19382 H 1800.64 -3.97279 -3.10138 0
M  V30 19383 H 1800.24 -3.44792 -1.44896 0
M  V30 19384 H 1802.53 -5.66394 -3.71758 0
M  V30 19385 H 1803.48 -6.61495 -2.52646 0
M  V30 19386 H 1803.88 -4.8965 -2.80897 0
M  V30 19387 N 1803.28 0.241399 -1.5574 0
M  V30 19388 C 1804.53 0.970098 -1.78093 0
M  V30 19389 C 1804.86 1.84763 -0.598005 0
M  V30 19390 O 1804.14 1.90268 0.403516 0
M  V30 19391 C 1804.42 1.82594 -3.10373 0
M  V30 19392 C 1804.27 0.976228 -4.39078 0
M  V30 19393 C 1805.59 2.80743 -3.38927 0
M  V30 19394 H 1802.71 0.35125 -0.647914 0
M  V30 19395 H 1805.35 0.240232 -1.88475 0
M  V30 19396 H 1803.5 2.44823 -3.01652 0
M  V30 19397 H 1805.17 0.37222 -4.59796 0
M  V30 19398 H 1803.42 0.280807 -4.3289 0
M  V30 19399 H 1804.09 1.60899 -5.2803 0
M  V30 19400 H 1806.56 2.28651 -3.47646 0
M  V30 19401 H 1805.44 3.37743 -4.3269 0
M  V30 19402 H 1805.7 3.57484 -2.6011 0
M  V30 19403 N 1804.76 1.49212 0.507292 0
M  V30 19404 C 1805.69 1.68326 1.61829 0
M  V30 19405 C 1806.67 0.531969 1.61568 0
M  V30 19406 O 1807.86 0.767104 1.78407 0
M  V30 19407 C 1804.99 1.74394 3.0034 0
M  V30 19408 C 1803.94 2.89251 3.15465 0
M  V30 19409 C 1803.27 2.80426 4.55264 0
M  V30 19410 C 1804.57 4.30269 2.96085 0
M  V30 19411 H 1806.26 2.6134 1.46087 0
M  V30 19412 H 1803.81 1.25765 0.701367 0
M  V30 19413 H 1805.76 1.86353 3.77956 0
M  V30 19414 H 1804.48 0.779748 3.17155 0
M  V30 19415 H 1803.14 2.76884 2.40272 0
M  V30 19416 H 1802.79 1.81928 4.68947 0
M  V30 19417 H 1802.49 3.57511 4.66326 0
M  V30 19418 H 1804.01 2.94384 5.34949 0
M  V30 19419 H 1805.43 4.4335 3.63475 0
M  V30 19420 H 1803.83 5.08527 3.18623 0
M  V30 19421 H 1804.9 4.45151 1.92272 0
M  V30 19422 N 1806.24 -0.757876 1.38181 0
M  V30 19423 C 1807.65 -1.33496 1.30521 0
M  V30 19424 C 1808 -1.96157 -0.0409405 0
M  V30 19425 O 1807.13 -1.94775 -0.942957 0
M  V30 19426 C 1807.72 -2.42725 2.36369 0
M  V30 19427 C 1806.28 -2.96165 2.323 0
M  V30 19428 C 1805.43 -1.69505 2.19461 0
M  V30 19429 H 1808.38 -0.557075 1.48601 0
M  V30 19430 H 1808.4 -3.22556 2.01836 0
M  V30 19431 H 1807.91 -1.97089 3.34331 0
M  V30 19432 H 1806.01 -3.4614 1.37904 0
M  V30 19433 H 1806.12 -3.50836 3.26269 0
M  V30 19434 H 1804.49 -1.92967 1.66241 0
M  V30 19435 H 1805.27 -1.25954 3.1936 0
M  V30 19436 N 1807.72 -1.22979 -0.985586 0
M  V30 19437 C 1808.66 -1.00374 -2.09828 0
M  V30 19438 C 1809.66 0.0555734 -1.69309 0
M  V30 19439 O 1810.86 -0.0974909 -1.79736 0
M  V30 19440 H 1807.24 -0.307451 -0.686278 0
M  V30 19441 H 1809.21 -1.94776 -2.26064 0
M  V30 19442 C 1807.96 -0.606018 -3.42378 0
M  V30 19443 H 1807.28 -1.41284 -3.74004 0
M  V30 19444 H 1808.72 -0.487318 -4.2119 0
M  V30 19445 C 1807.18 0.685197 -3.29859 0
M  V30 19446 O 1807.71 1.73572 -3.62265 0
M  V30 19447 N 1805.92 0.65914 -2.83026 0
M  V30 19448 H 1805.46 -0.196071 -2.56853 0
M  V30 19449 H 1805.42 1.52332 -2.75031 0
M  V30 19450 N 1809.19 1.18355 -1.04066 0
M  V30 19451 C 1810.16 2.20195 -0.636148 0
M  V30 19452 C 1811.16 1.57853 0.306457 0
M  V30 19453 O 1812.35 1.73958 0.0918576 0
M  V30 19454 C 1809.48 3.40833 0.0673423 0
M  V30 19455 H 1810.67 2.57497 -1.53738 0
M  V30 19456 H 1808.23 1.32239 -0.833214 0
M  V30 19457 H 1808.96 3.09063 0.982371 0
M  V30 19458 H 1808.75 3.87324 -0.610145 0
M  V30 19459 H 1810.24 4.16239 0.336869 0
M  V30 19460 N 1810.67 0.820125 1.3458 0
M  V30 19461 C 1812.08 0.466064 1.80789 0
M  V30 19462 C 1812.43 -1.01327 1.6801 0
M  V30 19463 O 1811.56 -1.78835 1.21849 0
M  V30 19464 C 1812.15 0.839192 3.28242 0
M  V30 19465 C 1810.71 0.53754 3.72542 0
M  V30 19466 C 1809.86 1.0576 2.5634 0
M  V30 19467 H 1812.81 1.01055 1.22366 0
M  V30 19468 H 1812.83 0.141897 3.80235 0
M  V30 19469 H 1812.34 1.91592 3.37512 0
M  V30 19470 H 1810.45 -0.529895 3.68813 0
M  V30 19471 H 1810.56 1.07964 4.66777 0
M  V30 19472 H 1808.92 0.479275 2.5015 0
M  V30 19473 H 1809.71 2.14072 2.68381 0
M  V30 19474 N 1812.15 -1.46743 0.574835 0
M  V30 19475 C 1813.1 -2.31935 -0.175778 0
M  V30 19476 C 1814.09 -1.44005 -0.892128 0
M  V30 19477 O 1815.3 -1.60674 -0.81141 0
M  V30 19478 H 1811.67 -0.748195 -0.0755558 0
M  V30 19479 H 1813.64 -2.93066 0.561671 0
M  V30 19480 C 1812.39 -3.27018 -1.18128 0
M  V30 19481 H 1811.72 -3.94652 -0.639492 0
M  V30 19482 H 1813.16 -3.89424 -1.67704 0
M  V30 19483 C 1811.62 -2.51802 -2.23824 0
M  V30 19484 O 1812.15 -2.2753 -3.31048 0
M  V30 19485 N 1810.35 -2.12501 -1.98221 0
M  V30 19486 H 1809.9 -2.32441 -1.11035 0
M  V30 19487 H 1809.86 -1.62494 -2.69153 0
M  V30 19488 N 1813.63 -0.312197 -1.54477 0
M  V30 19489 C 1815.04 0.0408317 -1.59548 0
M  V30 19490 C 1815.24 1.51461 -1.32898 0
M  V30 19491 O 1814.3 2.26899 -1.10785 0
M  V30 19492 C 1815.61 -0.367179 -2.9845 0
M  V30 19493 C 1817.16 -0.31688 -3.11392 0
M  V30 19494 C 1817.64 -0.699881 -4.52621 0
M  V30 19495 N 1819.13 -0.652846 -4.58576 0
M  V30 19496 C 1819.86 -0.921531 -5.65946 0
M  V30 19497 N 1819.36 -1.25676 -6.81306 0
M  V30 19498 N 1821.15 -0.847847 -5.55669 0
M  V30 19499 H 1813.3 -1.27255 -1.70059 0
M  V30 19500 H 1815.57 -0.516679 -0.794825 0
M  V30 19501 H 1815.27 -1.39356 -3.22913 0
M  V30 19502 H 1815.15 0.273556 -3.76207 0
M  V30 19503 H 1817.53 0.700275 -2.86671 0
M  V30 19504 H 1817.61 -0.992393 -2.35765 0
M  V30 19505 H 1817.26 -1.7149 -4.78073 0
M  V30 19506 H 1817.19 -0.00217708 -5.266 0
M  V30 19507 H 1819.68 -0.405135 -3.75722 0
M  V30 19508 H 1819.99 -1.44746 -7.59123 0
M  V30 19509 H 1818.34 -1.29491 -6.8283 0
M  V30 19510 H 1821.53 -0.585523 -4.64424 0
M  V30 19511 H 1821.7 -1.06061 -6.39261 0
M  V30 19512 N 1815.11 1.57549 -0.040136 0
M  V30 19513 C 1816.35 1.92535 0.637037 0
M  V30 19514 C 1816.69 0.917836 1.71141 0
M  V30 19515 O 1815.96 -0.057824 1.94414 0
M  V30 19516 C 1816.24 3.37955 1.24333 0
M  V30 19517 C 1816.1 4.49449 0.177761 0
M  V30 19518 C 1817.42 3.8355 2.15818 0
M  V30 19519 H 1814.53 0.700157 0.230107 0
M  V30 19520 H 1817.18 1.89739 -0.0996468 0
M  V30 19521 H 1815.33 3.40468 1.87119 0
M  V30 19522 H 1817 4.59065 -0.453507 0
M  V30 19523 H 1815.24 4.30961 -0.495486 0
M  V30 19524 H 1815.91 5.48256 0.641792 0
M  V30 19525 H 1818.39 3.82842 1.63006 0
M  V30 19526 H 1817.26 4.85974 2.55188 0
M  V30 19527 H 1817.53 3.19678 3.05382 0
M  V30 19528 N 1816.58 -0.233136 1.55866 0
M  V30 19529 C 1817.83 -0.959219 1.7834 0
M  V30 19530 C 1818.16 -1.84789 0.606886 0
M  V30 19531 O 1817.41 -1.91373 -0.409253 0
M  V30 19532 C 1817.71 -1.83897 3.06458 0
M  V30 19533 C 1817.38 -1.1045 4.37163 0
M  V30 19534 C 1816.04 -0.901577 4.72679 0
M  V30 19535 C 1818.39 -0.584979 5.17907 0
M  V30 19536 C 1815.72 -0.167034 5.86462 0
M  V30 19537 C 1818.07 0.136163 6.32453 0
M  V30 19538 C 1816.74 0.35045 6.66579 0
M  V30 19539 H 1816.01 -0.351003 0.652593 0
M  V30 19540 H 1818.65 -0.228249 1.90135 0
M  V30 19541 H 1816.96 -2.63744 2.89735 0
M  V30 19542 H 1818.66 -2.4027 3.21047 0
M  V30 19543 H 1815.25 -1.27263 4.0927 0
M  V30 19544 H 1819.43 -0.729263 4.90913 0
M  V30 19545 H 1814.69 0.00933042 6.11399 0
M  V30 19546 H 1818.86 0.546294 6.94254 0
M  V30 19547 H 1816.49 0.921569 7.54593 0
M  V30 19548 N 1818.06 -1.49479 -0.499372 0
M  V30 19549 C 1819.03 -1.6575 -1.58302 0
M  V30 19550 C 1820.03 -0.529236 -1.51841 0
M  V30 19551 O 1821.22 -0.795721 -1.54964 0
M  V30 19552 C 1818.35 -1.65639 -2.97954 0
M  V30 19553 H 1819.54 -2.62404 -1.45203 0
M  V30 19554 H 1817.09 -1.38535 -0.723725 0
M  V30 19555 H 1817.83 -0.705752 -3.16527 0
M  V30 19556 H 1817.61 -2.47578 -3.04051 0
M  V30 19557 H 1819.1 -1.80279 -3.76682 0
M  V30 19558 N 1819.54 0.750537 -1.38581 0
M  V30 19559 C 1820.79 1.51102 -1.36161 0
M  V30 19560 C 1821.14 1.92342 0.0472582 0
M  V30 19561 O 1820.44 1.62784 1.01054 0
M  V30 19562 C 1820.63 2.77356 -2.25407 0
M  V30 19563 C 1820.46 2.48459 -3.74831 0
M  V30 19564 C 1819.23 2.41527 -4.43839 0
M  V30 19565 C 1821.43 2.15033 -4.67189 0
M  V30 19566 N 1819.41 2.04937 -5.78683 0
M  V30 19567 C 1820.78 1.88759 -5.90567 0
M  V30 19568 C 1822.83 2.01368 -4.55363 0
M  V30 19569 C 1821.54 1.50199 -7.03443 0
M  V30 19570 C 1823.56 1.6421 -5.68145 0
M  V30 19571 C 1822.93 1.38811 -6.90587 0
M  V30 19572 H 1819.02 0.552384 -0.553531 0
M  V30 19573 H 1821.61 0.873708 -1.73996 0
M  V30 19574 H 1819.78 3.38891 -1.89755 0
M  V30 19575 H 1821.51 3.43434 -2.14091 0
M  V30 19576 H 1818.27 2.58101 -3.9709 0
M  V30 19577 H 1818.69 1.89279 -6.50002 0
M  V30 19578 H 1823.33 2.19679 -3.61249 0
M  V30 19579 H 1821.05 1.30628 -7.97472 0
M  V30 19580 H 1824.64 1.54265 -5.60975 0
M  V30 19581 H 1823.52 1.10487 -7.76378 0
M  V30 19582 N 1821.02 1.235 0.979051 0
M  V30 19583 C 1821.93 1.03412 2.10578 0
M  V30 19584 C 1822.95 -0.0217644 1.73986 0
M  V30 19585 O 1824.12 0.173977 2.00647 0
M  V30 19586 C 1821.19 0.629192 3.40943 0
M  V30 19587 C 1820.25 1.76028 3.91552 0
M  V30 19588 C 1819.48 1.37457 5.15695 0
M  V30 19589 O 1819.7 0.259393 5.6981 0
M  V30 19590 O 1818.64 2.19614 5.60404 0
M  V30 19591 H 1822.46 1.97845 2.30415 0
M  V30 19592 H 1820.05 1.02218 1.08958 0
M  V30 19593 H 1821.93 0.414372 4.19358 0
M  V30 19594 H 1820.61 -0.286128 3.22433 0
M  V30 19595 H 1819.51 2.02975 3.14248 0
M  V30 19596 H 1820.85 2.65396 4.14519 0
M  V30 19597 N 1822.5 -1.17802 1.04693 0
M  V30 19598 C 1823.73 -1.91867 0.774246 0
M  V30 19599 C 1824.14 -1.76534 -0.669425 0
M  V30 19600 O 1823.5 -1.09915 -1.45688 0
M  V30 19601 C 1823.55 -3.43086 1.13904 0
M  V30 19602 O 1823.27 -3.57943 2.52604 0
M  V30 19603 C 1824.77 -4.34238 0.891767 0
M  V30 19604 H 1821.99 -0.60892 0.281882 0
M  V30 19605 H 1824.53 -1.49414 1.39627 0
M  V30 19606 H 1822.69 -3.83304 0.561863 0
M  V30 19607 H 1823.1 -4.51599 2.66756 0
M  V30 19608 H 1824.58 -5.3887 1.1968 0
M  V30 19609 H 1825.05 -4.38858 -0.17323 0
M  V30 19610 H 1825.66 -3.99727 1.45254 0
M  V30 19611 N 1823.98 -0.827251 -1.34143 0
M  V30 19612 C 1825.22 -0.41656 -1.9776 0
M  V30 19613 C 1825.54 1.02488 -1.65895 0
M  V30 19614 O 1824.81 1.71219 -0.951891 0
M  V30 19615 H 1823.39 -0.151044 -0.73157 0
M  V30 19616 H 1826.06 -1.05765 -1.63706 0
M  V30 19617 H 1825.15 -0.539101 -3.07409 0
M  V30 19618 N 1825.45 1.46436 -0.582609 0
M  V30 19619 C 1826.7 2.03256 -0.0765831 0
M  V30 19620 C 1827.05 1.44604 1.26915 0
M  V30 19621 O 1826.35 0.601721 1.81906 0
M  V30 19622 C 1826.54 3.57368 0.0476745 0
M  V30 19623 C 1826.37 4.30966 -1.28446 0
M  V30 19624 C 1825.14 4.69878 -1.85858 0
M  V30 19625 C 1827.34 4.64509 -2.20762 0
M  V30 19626 N 1825.32 5.28225 -3.12812 0
M  V30 19627 C 1826.69 5.23426 -3.32304 0
M  V30 19628 C 1828.75 4.4644 -2.20444 0
M  V30 19629 C 1827.45 5.6618 -4.43658 0
M  V30 19630 C 1829.48 4.90211 -3.30828 0
M  V30 19631 C 1828.84 5.49198 -4.4109 0
M  V30 19632 H 1824.94 0.778788 -0.0707993 0
M  V30 19633 H 1827.52 1.7859 -0.775486 0
M  V30 19634 H 1825.69 3.81748 0.715745 0
M  V30 19635 H 1827.42 4.00834 0.558076 0
M  V30 19636 H 1824.18 4.52634 -1.39352 0
M  V30 19637 H 1824.6 5.61921 -3.7759 0
M  V30 19638 H 1829.24 4.0017 -1.36469 0
M  V30 19639 H 1826.96 6.11429 -5.28375 0
M  V30 19640 H 1830.55 4.77982 -3.317 0
M  V30 19641 H 1829.43 5.82448 -5.25095 0
M  V30 19642 N 1826.93 0.320385 1.54309 0
M  V30 19643 C 1828.16 -0.285197 2.04925 0
M  V30 19644 C 1828.57 -1.46029 1.1967 0
M  V30 19645 O 1827.93 -1.81087 0.22665 0
M  V30 19646 C 1827.98 -0.722736 3.54202 0
M  V30 19647 O 1827.7 0.40561 4.36218 0
M  V30 19648 C 1829.2 -1.39146 4.20896 0
M  V30 19649 H 1826.42 -0.0591612 0.668387 0
M  V30 19650 H 1828.97 0.46565 1.99128 0
M  V30 19651 H 1827.12 -1.42356 3.60296 0
M  V30 19652 H 1827.54 0.0614526 5.24464 0
M  V30 19653 H 1829.01 -1.64858 5.26807 0
M  V30 19654 H 1829.49 -2.33774 3.71815 0
M  V30 19655 H 1830.09 -0.733291 4.18931 0
M  V30 19656 N 1828.41 -1.57525 0.0484906 0
M  V30 19657 C 1829.82 -1.80221 -0.487592 0
M  V30 19658 C 1830.17 -0.96049 -1.71082 0
M  V30 19659 O 1829.3 -0.17632 -2.1568 0
M  V30 19660 C 1829.89 -3.26864 -0.89136 0
M  V30 19661 C 1828.45 -3.50487 -1.37244 0
M  V30 19662 C 1827.6 -2.75129 -0.346348 0
M  V30 19663 H 1830.55 -1.5631 0.274392 0
M  V30 19664 H 1830.57 -3.37637 -1.75446 0
M  V30 19665 H 1830.08 -3.881 -0.000880924 0
M  V30 19666 H 1828.18 -2.94528 -2.2822 0
M  V30 19667 H 1828.3 -4.592 -1.36645 0
M  V30 19668 H 1826.66 -2.41185 -0.818653 0
M  V30 19669 H 1827.44 -3.3909 0.536 0
M  V30 19670 N 1829.89 0.224867 -1.55988 0
M  V30 19671 C 1831.14 0.947871 -1.78493 0
M  V30 19672 C 1831.46 1.85001 -0.616413 0
M  V30 19673 O 1830.73 1.92435 0.366847 0
M  V30 19674 H 1829.31 0.352987 -0.658338 0
M  V30 19675 H 1831.97 0.237519 -1.93447 0
M  V30 19676 H 1831.06 1.55664 -2.70509 0
M  V30 19677 N 1831.37 1.49742 0.491438 0
M  V30 19678 C 1832.3 1.70033 1.60034 0
M  V30 19679 C 1833.28 0.549076 1.60994 0
M  V30 19680 O 1834.46 0.785983 1.77584 0
M  V30 19681 C 1831.59 1.7757 2.98473 0
M  V30 19682 C 1830.55 2.9258 3.12379 0
M  V30 19683 C 1829.87 2.85239 4.52264 0
M  V30 19684 C 1831.17 4.33385 2.91504 0
M  V30 19685 H 1832.87 2.62875 1.43307 0
M  V30 19686 H 1830.41 1.26502 0.687989 0
M  V30 19687 H 1832.36 1.90351 3.75958 0
M  V30 19688 H 1831.09 0.813343 3.1631 0
M  V30 19689 H 1829.75 2.79417 2.37322 0
M  V30 19690 H 1829.4 1.86892 4.66991 0
M  V30 19691 H 1829.1 3.62437 4.62508 0
M  V30 19692 H 1830.62 3.00041 5.31797 0
M  V30 19693 H 1832.03 4.4718 3.58752 0
M  V30 19694 H 1830.43 5.11878 3.13211 0
M  V30 19695 H 1831.5 4.47166 1.87539 0
M  V30 19696 N 1832.84 -0.743177 1.38977 0
M  V30 19697 C 1834.26 -1.04764 1.20402 0
M  V30 19698 C 1834.46 -2.01411 0.0599139 0
M  V30 19699 O 1833.52 -2.45485 -0.591026 0
M  V30 19700 C 1834.83 -1.61775 2.53474 0
M  V30 19701 C 1836.38 -1.73896 2.60248 0
M  V30 19702 C 1836.85 -2.34318 3.93522 0
M  V30 19703 N 1838.34 -2.41737 3.95117 0
M  V30 19704 C 1839.08 -2.89407 4.95006 0
M  V30 19705 N 1838.57 -3.37034 6.05293 0
M  V30 19706 N 1840.37 -2.88542 4.8239 0
M  V30 19707 H 1832.52 -0.102036 2.12155 0
M  V30 19708 H 1834.78 -0.107893 0.94184 0
M  V30 19709 H 1834.49 -0.982274 3.37704 0
M  V30 19710 H 1834.36 -2.60696 2.72612 0
M  V30 19711 H 1836.75 -2.36568 1.76407 0
M  V30 19712 H 1836.83 -0.736509 2.44968 0
M  V30 19713 H 1836.47 -1.72276 4.7779 0
M  V30 19714 H 1836.4 -3.35224 4.06119 0
M  V30 19715 H 1838.89 -2.08064 3.15464 0
M  V30 19716 H 1839.21 -3.71895 6.77432 0
M  V30 19717 H 1837.55 -3.35064 6.08898 0
M  V30 19718 H 1840.74 -2.50651 3.95337 0
M  V30 19719 H 1840.92 -3.25379 5.60386 0
M  V30 19720 N 1834.32 -1.24018 -0.972487 0
M  V30 19721 C 1835.55 -1.10483 -1.75523 0
M  V30 19722 C 1835.97 0.338985 -1.8502 0
M  V30 19723 O 1835.33 1.24534 -1.31761 0
M  V30 19724 C 1835.38 -1.74396 -3.15624 0
M  V30 19725 O 1834.48 -1.01148 -3.99804 0
M  V30 19726 H 1833.82 -0.386777 -0.539722 0
M  V30 19727 H 1836.35 -1.64231 -1.22022 0
M  V30 19728 H 1836.36 -1.79958 -3.66168 0
M  V30 19729 H 1835.04 -2.7945 -3.08026 0
M  V30 19730 H 1833.62 -1.03338 -3.58296 0
M  V30 19731 N 1835.8 1.17245 -1.05316 0
M  V30 19732 C 1836.73 2.23491 -0.67631 0
M  V30 19733 C 1837.71 1.66937 0.326507 0
M  V30 19734 O 1838.9 1.93127 0.203823 0
M  V30 19735 C 1836.03 3.47262 -0.0515755 0
M  V30 19736 C 1834.98 4.16646 -0.97929 0
M  V30 19737 C 1834.31 5.34254 -0.218369 0
M  V30 19738 C 1835.61 4.68736 -2.30399 0
M  V30 19739 H 1837.3 2.55269 -1.56455 0
M  V30 19740 H 1834.85 1.22699 -0.753714 0
M  V30 19741 H 1836.8 4.20805 0.223865 0
M  V30 19742 H 1835.52 3.14755 0.871614 0
M  V30 19743 H 1834.18 3.45017 -1.23931 0
M  V30 19744 H 1833.83 4.97998 0.707624 0
M  V30 19745 H 1833.53 5.81615 -0.83654 0
M  V30 19746 H 1835.05 6.1058 0.0497574 0
M  V30 19747 H 1836.47 5.3391 -2.08837 0
M  V30 19748 H 1834.87 5.2668 -2.87625 0
M  V30 19749 H 1835.94 3.85477 -2.94169 0
M  V30 19750 N 1837.28 0.834353 1.33702 0
M  V30 19751 C 1838.19 0.266649 2.3308 0
M  V30 19752 C 1839.2 -0.604958 1.63145 0
M  V30 19753 O 1840.38 -0.510151 1.94832 0
M  V30 19754 C 1837.45 -0.552673 3.42267 0
M  V30 19755 C 1836.51 0.342677 4.2793 0
M  V30 19756 C 1835.74 -0.437637 5.31903 0
M  V30 19757 O 1835.96 -1.6698 5.45412 0
M  V30 19758 O 1834.9 0.186001 6.01613 0
M  V30 19759 H 1838.72 1.08946 2.83486 0
M  V30 19760 H 1836.31 0.596765 1.36964 0
M  V30 19761 H 1838.19 -1.01842 4.08908 0
M  V30 19762 H 1836.86 -1.35263 2.94085 0
M  V30 19763 H 1835.77 0.856168 3.64171 0
M  V30 19764 H 1837.1 1.10728 4.79583 0
M  V30 19765 N 1838.76 -1.46125 0.590367 0
M  V30 19766 C 1839.7 -2.32108 -0.151168 0
M  V30 19767 C 1840.7 -1.44943 -0.876804 0
M  V30 19768 O 1841.9 -1.61526 -0.794323 0
M  V30 19769 H 1838.28 -0.748954 -0.0676159 0
M  V30 19770 H 1840.25 -2.92454 0.592723 0
M  V30 19771 C 1839 -3.28253 -1.14653 0
M  V30 19772 H 1838.32 -3.95309 -0.597597 0
M  V30 19773 H 1839.76 -3.91181 -1.63564 0
M  V30 19774 C 1838.22 -2.54162 -2.21141 0
M  V30 19775 O 1838.75 -2.31029 -3.28616 0
M  V30 19776 N 1836.96 -2.14592 -1.95956 0
M  V30 19777 H 1836.5 -2.33606 -1.08564 0
M  V30 19778 H 1836.46 -1.65339 -2.67414 0
M  V30 19779 N 1840.23 -0.328564 -1.54137 0
M  V30 19780 C 1841.51 0.327026 -1.92847 0
M  V30 19781 C 1841.89 1.69472 -1.25867 0
M  V30 19782 O 1841.24 2.24897 -0.404172 0
M  V30 19783 C 1841.45 0.414261 -3.46533 0
M  V30 19784 C 1842.8 0.672189 -4.19245 0
M  V30 19785 O 1843.82 0.496982 -3.52716 0
M  V30 19786 O 1842.68 1.01053 -5.37076 0
M  V30 19787 H 1839.77 0.187716 -0.805414 0
M  V30 19788 H 1842.32 -0.378645 -1.65422 0
M  V30 19789 H 1841.09 -0.54611 -3.8747 0
M  V30 19790 H 1840.72 1.16731 -3.80078 0
M  V30 19791 N 1841.71 1.57497 -0.0568439 0
M  V30 19792 C 1842.96 1.92533 0.614452 0
M  V30 19793 C 1843.28 0.936373 1.71047 0
M  V30 19794 O 1842.55 -0.0178803 1.95892 0
M  V30 19795 H 1841.13 0.710724 0.229958 0
M  V30 19796 H 1843.79 1.94583 -0.111181 0
M  V30 19797 H 1842.89 2.93928 1.04941 0
M  V30 19798 N 1843.19 -0.216591 1.56105 0
M  V30 19799 C 1844.42 -0.957013 1.83436 0
M  V30 19800 C 1844.83 -1.77743 0.636612 0
M  V30 19801 O 1844.19 -1.78178 -0.394833 0
M  V30 19802 C 1844.24 -1.87058 3.09341 0
M  V30 19803 O 1843.96 -1.08331 4.24495 0
M  V30 19804 C 1845.46 -2.72448 3.49695 0
M  V30 19805 H 1842.68 -0.280249 0.609673 0
M  V30 19806 H 1845.23 -0.230324 2.03199 0
M  V30 19807 H 1843.38 -2.55116 2.91539 0
M  V30 19808 H 1843.8 -1.70391 4.96052 0
M  V30 19809 H 1845.27 -3.32244 4.40815 0
M  V30 19810 H 1845.75 -3.4509 2.71679 0
M  V30 19811 H 1846.35 -2.09796 3.69954 0
M  V30 19812 N 1844.67 -1.5 -0.48349 0
M  V30 19813 C 1845.62 -1.67957 -1.58301 0
M  V30 19814 C 1846.59 -0.520895 -1.57721 0
M  V30 19815 O 1847.77 -0.750008 -1.75441 0
M  V30 19816 C 1844.91 -1.76832 -2.96352 0
M  V30 19817 C 1844.02 -3.04119 -3.06815 0
M  V30 19818 C 1843.16 -3.03865 -4.35706 0
M  V30 19819 C 1842.2 -4.25658 -4.39865 0
M  V30 19820 N 1841.33 -4.23214 -5.60209 0
M  V30 19821 H 1846.17 -2.61832 -1.42296 0
M  V30 19822 H 1843.71 -1.29804 -0.692045 0
M  V30 19823 H 1845.67 -1.79958 -3.76392 0
M  V30 19824 H 1844.3 -0.864074 -3.1102 0
M  V30 19825 H 1843.35 -3.10523 -2.19727 0
M  V30 19826 H 1844.66 -3.94106 -3.05748 0
M  V30 19827 H 1843.82 -3.05652 -5.24082 0
M  V30 19828 H 1842.56 -2.11687 -4.39363 0
M  V30 19829 H 1841.56 -4.24097 -3.49888 0
M  V30 19830 H 1842.79 -5.19049 -4.37909 0
M  V30 19831 H 1840.73 -3.33883 -5.64675 0
M  V30 19832 H 1840.65 -5.06956 -5.60832 0
M  V30 19833 H 1841.92 -4.29129 -6.50744 0
M  V30 19834 N 1846.15 0.735796 -1.39369 0
M  V30 19835 C 1847.08 1.86303 -1.4076 0
M  V30 19836 C 1848.06 1.67926 -0.27107 0
M  V30 19837 O 1849.24 1.88257 -0.476773 0
M  V30 19838 C 1846.37 3.24043 -1.24955 0
M  V30 19839 C 1845.33 3.57055 -2.35999 0
M  V30 19840 C 1844.65 4.93723 -2.05284 0
M  V30 19841 C 1845.95 3.60109 -3.7831 0
M  V30 19842 H 1847.65 1.85396 -2.35093 0
M  V30 19843 H 1845.19 0.890552 -1.1316 0
M  V30 19844 H 1847.15 4.02574 -1.24549 0
M  V30 19845 H 1845.87 3.25475 -0.270902 0
M  V30 19846 H 1844.53 2.80853 -2.35621 0
M  V30 19847 H 1844.18 4.91734 -1.05859 0
M  V30 19848 H 1843.88 5.16779 -2.79667 0
M  V30 19849 H 1845.4 5.74612 -2.06527 0
M  V30 19850 H 1846.81 4.28718 -3.80622 0
M  V30 19851 H 1845.21 3.94683 -4.52046 0
M  V30 19852 H 1846.28 2.59932 -4.09345 0
M  V30 19853 N 1847.63 1.24532 0.965897 0
M  V30 19854 C 1848.56 1.06393 2.07853 0
M  V30 19855 C 1849.54 -0.0236467 1.70084 0
M  V30 19856 O 1850.72 0.143767 1.93667 0
M  V30 19857 C 1847.85 0.669877 3.40778 0
M  V30 19858 C 1846.81 1.70643 3.92511 0
M  V30 19859 C 1846.13 1.16738 5.21801 0
M  V30 19860 C 1847.43 3.10278 4.20149 0
M  V30 19861 H 1849.13 1.99459 2.23285 0
M  V30 19862 H 1846.67 0.960397 1.07296 0
M  V30 19863 H 1848.62 0.52997 4.18054 0
M  V30 19864 H 1847.35 -0.296477 3.25252 0
M  V30 19865 H 1846.01 1.83458 3.17393 0
M  V30 19866 H 1845.66 0.191586 5.02635 0
M  V30 19867 H 1845.36 1.86009 5.57382 0
M  V30 19868 H 1846.88 1.03963 6.01684 0
M  V30 19869 H 1848.29 3.00681 4.88123 0
M  V30 19870 H 1846.69 3.76918 4.66962 0
M  V30 19871 H 1847.76 3.58182 3.26854 0
M  V30 19872 N 1849.1 -1.16685 1.05936 0
M  V30 19873 C 1850.38 -1.8312 0.6875 0
M  V30 19874 C 1850.76 -1.94035 -0.831474 0
M  V30 19875 O 1850.11 -1.48067 -1.74036 0
M  V30 19876 C 1850.32 -3.20331 1.38524 0
M  V30 19877 C 1851.67 -3.96149 1.52811 0
M  V30 19878 O 1852.69 -3.29837 1.34485 0
M  V30 19879 O 1851.55 -5.15005 1.82845 0
M  V30 19880 H 1848.64 -0.790513 0.242937 0
M  V30 19881 H 1851.19 -1.23918 1.15941 0
M  V30 19882 H 1849.96 -3.074 2.42118 0
M  V30 19883 H 1849.58 -3.87206 0.903164 0
M  V30 19884 N 1850.58 -0.841432 -1.33258 0
M  V30 19885 C 1852 -0.529552 -1.50559 0
M  V30 19886 C 1852.2 0.942598 -1.78094 0
M  V30 19887 O 1851.25 1.72628 -1.84271 0
M  V30 19888 C 1852.57 -1.40511 -2.65852 0
M  V30 19889 C 1854.11 -1.40415 -2.79737 0
M  V30 19890 C 1854.59 -2.26462 -3.98094 0
M  V30 19891 N 1856.08 -2.24185 -4.05334 0
M  V30 19892 C 1856.82 -2.875 -4.96116 0
M  V30 19893 N 1856.31 -3.59877 -5.91997 0
M  V30 19894 N 1858.1 -2.76957 -4.89133 0
M  V30 19895 H 1850.26 -1.79438 -1.13648 0
M  V30 19896 H 1852.52 -0.765683 -0.558958 0
M  V30 19897 H 1852.22 -2.45136 -2.52193 0
M  V30 19898 H 1852.1 -1.08299 -3.61319 0
M  V30 19899 H 1854.49 -0.365604 -2.92826 0
M  V30 19900 H 1854.57 -1.76636 -1.85023 0
M  V30 19901 H 1854.21 -3.30377 -3.85764 0
M  V30 19902 H 1854.14 -1.87581 -4.92058 0
M  V30 19903 H 1856.63 -1.71553 -3.36716 0
M  V30 19904 H 1856.94 -4.05388 -6.57936 0
M  V30 19905 H 1855.29 -3.63985 -5.92064 0
M  V30 19906 H 1858.48 -2.19974 -4.13194 0
M  V30 19907 H 1858.65 -3.26585 -5.59684 0
M  V30 19908 N 1852.06 1.4581 -0.598108 0
M  V30 19909 C 1853.31 2.01511 -0.0872421 0
M  V30 19910 C 1853.62 1.47345 1.28642 0
M  V30 19911 O 1854.83 1.94963 1.88949 0
M  V30 19912 C 1853.28 3.59746 -0.105317 0
M  V30 19913 C 1852.89 4.22909 -1.47824 0
M  V30 19914 C 1854.64 4.23048 0.350802 0
M  V30 19915 C 1852.54 5.73268 -1.45321 0
M  V30 19916 H 1851.47 0.753448 -0.0288462 0
M  V30 19917 H 1854.12 1.67382 -0.752037 0
M  V30 19918 H 1852.51 3.91022 0.625947 0
M  V30 19919 H 1853.68 4.03221 -2.23046 0
M  V30 19920 H 1851.99 3.71763 -1.87566 0
M  V30 19921 H 1854.59 5.33286 0.388561 0
M  V30 19922 H 1854.93 3.93058 1.37155 0
M  V30 19923 H 1855.47 3.96455 -0.326889 0
M  V30 19924 H 1852.21 6.07942 -2.45126 0
M  V30 19925 H 1851.73 5.95175 -0.743436 0
M  V30 19926 H 1853.41 6.36283 -1.17275 0
M  V30 19927 N 1853.54 0.336733 1.53961 0
M  V30 19928 C 1854.95 -0.0154439 1.59593 0
M  V30 19929 C 1855.15 -1.49328 1.35291 0
M  V30 19930 O 1854.21 -2.25107 1.14381 0
M  V30 19931 C 1855.52 0.414613 2.97828 0
M  V30 19932 C 1857.07 0.36638 3.10848 0
M  V30 19933 C 1857.55 0.7718 4.5145 0
M  V30 19934 N 1859.04 0.725719 4.5748 0
M  V30 19935 C 1859.77 1.01145 5.64409 0
M  V30 19936 N 1859.27 1.36499 6.7922 0
M  V30 19937 N 1861.06 0.936141 5.5425 0
M  V30 19938 H 1853.21 1.29944 1.68012 0
M  V30 19939 H 1855.47 0.529259 0.786504 0
M  V30 19940 H 1855.18 1.44476 3.20655 0
M  V30 19941 H 1855.05 -0.21367 3.76594 0
M  V30 19942 H 1857.44 -0.65458 2.87749 0
M  V30 19943 H 1857.52 1.02978 2.34157 0
M  V30 19944 H 1857.17 1.79074 4.75284 0
M  V30 19945 H 1857.1 0.0859543 5.2653 0
M  V30 19946 H 1859.59 0.464858 3.7503 0
M  V30 19947 H 1859.9 1.56805 7.56725 0
M  V30 19948 H 1858.25 1.40338 6.80684 0
M  V30 19949 H 1861.44 0.659334 4.63433 0
M  V30 19950 H 1861.61 1.16217 6.37493 0
M  V30 19951 N 1855.02 -1.57465 0.0651956 0
M  V30 19952 C 1856.29 -1.84622 -0.646065 0
M  V30 19953 C 1856.67 -0.956374 -1.88193 0
M  V30 19954 O 1856.02 -0.0209666 -2.2849 0
M  V30 19955 C 1856.23 -3.34664 -0.990013 0
M  V30 19956 C 1857.58 -4.02016 -1.36632 0
M  V30 19957 O 1858.6 -3.39371 -1.08194 0
M  V30 19958 O 1857.46 -5.12496 -1.89764 0
M  V30 19959 H 1854.56 -0.762482 -0.320236 0
M  V30 19960 H 1857.1 -1.6943 0.0956254 0
M  V30 19961 H 1855.87 -3.9114 -0.111977 0
M  V30 19962 H 1855.5 -3.55094 -1.78869 0
M  V30 19963 N 1856.49 0.20831 -1.56217 0
M  V30 19964 C 1857.44 1.27775 -1.94362 0
M  V30 19965 C 1858.44 1.47824 -0.827316 0
M  V30 19966 O 1859.64 1.48841 -1.01224 0
M  V30 19967 H 1856.02 0.428676 -0.617852 0
M  V30 19968 H 1857.99 0.928929 -2.83573 0
M  V30 19969 C 1856.74 2.61808 -2.28806 0
M  V30 19970 H 1856.06 2.47192 -3.14223 0
M  V30 19971 H 1857.5 3.35416 -2.59369 0
M  V30 19972 C 1855.96 3.17812 -1.1179 0
M  V30 19973 O 1856.49 3.99841 -0.385968 0
M  V30 19974 N 1854.69 2.7637 -0.898205 0
M  V30 19975 H 1854.24 2.0977 -1.49514 0
M  V30 19976 H 1854.2 3.14182 -0.117031 0
M  V30 19977 N 1857.97 1.50255 0.475528 0
M  V30 19978 C 1859.2 1.64532 1.24951 0
M  V30 19979 C 1859.61 0.326223 1.86366 0
M  V30 19980 O 1858.95 -0.701313 1.69786 0
M  V30 19981 C 1859.01 2.67528 2.40143 0
M  V30 19982 C 1858.68 4.11204 1.99399 0
M  V30 19983 C 1859.68 4.97213 1.51906 0
M  V30 19984 C 1857.36 4.57094 2.08256 0
M  V30 19985 C 1859.35 6.27158 1.13805 0
M  V30 19986 C 1857.04 5.87046 1.69766 0
M  V30 19987 C 1858.04 6.71903 1.22618 0
M  V30 19988 O 1857.73 7.9943 0.846604 0
M  V30 19989 H 1857.46 0.556201 0.384209 0
M  V30 19990 H 1860.01 1.972 0.574555 0
M  V30 19991 H 1858.24 2.30094 3.10795 0
M  V30 19992 H 1859.93 2.71072 3.02117 0
M  V30 19993 H 1860.7 4.62977 1.44489 0
M  V30 19994 H 1856.58 3.91194 2.43903 0
M  V30 19995 H 1860.12 6.93345 0.769334 0
M  V30 19996 H 1856.02 6.20804 1.76841 0
M  V30 19997 H 1856.79 8.12662 0.975845 0
M  V30 19998 N 1859.45 -0.728395 1.39758 0
M  V30 19999 C 1860.36 -1.87279 1.41293 0
M  V30 20000 C 1861.38 -1.71271 0.306965 0
M  V30 20001 O 1862.55 -1.93759 0.549502 0
M  V30 20002 C 1859.62 -3.22943 1.2613 0
M  V30 20003 C 1858.68 -3.51297 2.46756 0
M  V30 20004 C 1857.91 -4.80489 2.32307 0
M  V30 20005 O 1858.13 -5.54676 1.33005 0
M  V30 20006 O 1857.07 -5.08891 3.21425 0
M  V30 20007 H 1860.89 -1.88939 2.37773 0
M  V30 20008 H 1858.48 -0.877103 1.20943 0
M  V30 20009 H 1860.36 -4.04003 1.19832 0
M  V30 20010 H 1859.04 -3.22039 0.327492 0
M  V30 20011 H 1857.94 -2.70298 2.58631 0
M  V30 20012 H 1859.28 -3.56986 3.38853 0
M  V30 20013 N 1860.93 -1.25042 -0.959279 0
M  V30 20014 C 1862.18 -1.09298 -1.69995 0
M  V30 20015 C 1862.5 0.367507 -1.91506 0
M  V30 20016 O 1861.77 1.26142 -1.49883 0
M  V30 20017 H 1860.35 -0.401469 -0.629945 0
M  V30 20018 H 1863.01 -1.57094 -1.15358 0
M  V30 20019 H 1862.1 -1.59766 -2.68107 0
M  V30 20020 N 1862.41 1.16121 -1.06553 0
M  V30 20021 C 1863.32 2.24229 -0.689833 0
M  V30 20022 C 1864.33 1.71476 0.295308 0
M  V30 20023 O 1865.51 2.00885 0.143964 0
M  V30 20024 C 1862.57 3.46596 -0.0847857 0
M  V30 20025 C 1861.63 4.14375 -1.12213 0
M  V30 20026 C 1860.87 5.30901 -0.54586 0
M  V30 20027 O 1861.09 5.66792 0.640588 0
M  V30 20028 O 1860.02 5.87983 -1.28683 0
M  V30 20029 H 1863.85 2.5868 -1.59117 0
M  V30 20030 H 1861.44 1.23687 -0.837966 0
M  V30 20031 H 1863.32 4.20653 0.250764 0
M  V30 20032 H 1861.99 3.13912 0.789998 0
M  V30 20033 H 1860.9 3.42276 -1.5099 0
M  V30 20034 H 1862.23 4.5112 -1.96853 0
M  V30 20035 N 1863.88 0.848487 1.3281 0
M  V30 20036 C 1865.13 0.448856 1.97463 0
M  V30 20037 C 1865.46 -0.994126 1.67175 0
M  V30 20038 O 1864.71 -1.71147 0.949054 0
M  V30 20039 C 1865.01 0.62759 3.51847 0
M  V30 20040 C 1864.68 2.04011 4.02107 0
M  V30 20041 C 1863.34 2.42645 4.15544 0
M  V30 20042 C 1865.69 2.9623 4.28832 0
M  V30 20043 C 1863.02 3.72783 4.53045 0
M  V30 20044 C 1865.37 4.2586 4.67789 0
M  V30 20045 C 1864.04 4.64437 4.79431 0
M  V30 20046 H 1863.31 0.164248 0.722567 0
M  V30 20047 H 1865.95 1.07736 1.5832 0
M  V30 20048 H 1864.26 -0.0841763 3.9171 0
M  V30 20049 H 1865.96 0.298524 3.99887 0
M  V30 20050 H 1862.55 1.73009 3.9213 0
M  V30 20051 H 1866.73 2.67616 4.17966 0
M  V30 20052 H 1861.99 4.02464 4.60253 0
M  V30 20053 H 1866.16 4.97385 4.87423 0
M  V30 20054 H 1863.79 5.65323 5.08246 0
M  V30 20055 N 1865.36 -1.4549 0.605832 0
M  V30 20056 C 1866.59 -2.06325 0.106497 0
M  V30 20057 C 1867 -1.45142 -1.21369 0
M  V30 20058 O 1866.34 -0.559284 -1.74979 0
M  V30 20059 C 1866.41 -3.59334 -0.109378 0
M  V30 20060 C 1866.07 -4.42842 1.12873 0
M  V30 20061 C 1867.07 -4.77929 2.04645 0
M  V30 20062 C 1864.75 -4.83621 1.35707 0
M  V30 20063 C 1866.75 -5.5265 3.1758 0
M  V30 20064 C 1864.43 -5.58096 2.48943 0
M  V30 20065 C 1865.43 -5.92527 3.39707 0
M  V30 20066 O 1865.12 -6.65492 4.50973 0
M  V30 20067 H 1864.85 -0.67285 0.06518 0
M  V30 20068 H 1867.4 -1.87751 0.83298 0
M  V30 20069 H 1865.63 -3.76301 -0.890735 0
M  V30 20070 H 1867.32 -4.02017 -0.560094 0
M  V30 20071 H 1868.09 -4.46984 1.88229 0
M  V30 20072 H 1863.97 -4.56257 0.659587 0
M  V30 20073 H 1867.51 -5.79443 3.88448 0
M  V30 20074 H 1863.41 -5.88455 2.65312 0
M  V30 20075 H 1864.18 -6.8394 4.49632 0
M  V30 20076 N 1866.84 -0.344893 -1.5378 0
M  V30 20077 C 1868.09 0.244249 -2.01928 0
M  V30 20078 C 1868.44 1.48091 -1.22829 0
M  V30 20079 O 1867.73 1.89109 -0.307945 0
M  V30 20080 C 1867.93 0.609495 -3.52165 0
M  V30 20081 C 1867.76 -0.590217 -4.4581 0
M  V30 20082 C 1866.53 -1.09594 -4.93272 0
M  V30 20083 C 1868.73 -1.44908 -4.93463 0
M  V30 20084 N 1866.71 -2.25784 -5.70872 0
M  V30 20085 C 1868.08 -2.45787 -5.692 0
M  V30 20086 C 1870.13 -1.47437 -4.7557 0
M  V30 20087 C 1868.84 -3.49026 -6.28946 0
M  V30 20088 C 1870.86 -2.49558 -5.36167 0
M  V30 20089 C 1870.22 -3.49162 -6.11772 0
M  V30 20090 H 1866.32 0.0526462 -0.780226 0
M  V30 20091 H 1868.91 -0.484763 -1.88569 0
M  V30 20092 H 1867.08 1.30761 -3.65727 0
M  V30 20093 H 1868.81 1.18194 -3.87056 0
M  V30 20094 H 1865.57 -0.663814 -4.68925 0
M  V30 20095 H 1865.99 -2.84451 -6.14342 0
M  V30 20096 H 1870.63 -0.717913 -4.1666 0
M  V30 20097 H 1868.35 -4.25566 -6.86964 0
M  V30 20098 H 1871.94 -2.52343 -5.24227 0
M  V30 20099 H 1870.82 -4.26887 -6.57827 0
M  V30 20100 N 1868.32 1.57428 -0.0735454 0
M  V30 20101 C 1869.73 1.57069 0.283088 0
M  V30 20102 C 1869.93 1.08308 1.69917 0
M  V30 20103 O 1868.99 0.749756 2.41112 0
M  V30 20104 C 1870.3 3.00562 0.0911498 0
M  V30 20105 C 1871.85 3.12588 0.160552 0
M  V30 20106 C 1872.33 4.58 -0.00312732 0
M  V30 20107 N 1873.82 4.6317 0.0524201 0
M  V30 20108 C 1874.55 5.73378 -0.0497867 0
M  V30 20109 N 1874.05 6.92495 -0.205612 0
M  V30 20110 N 1875.84 5.621 0.00740387 0
M  V30 20111 H 1867.99 1.87439 -0.999015 0
M  V30 20112 H 1870.26 0.864179 -0.389742 0
M  V30 20113 H 1869.96 3.40355 -0.886068 0
M  V30 20114 H 1869.84 3.67666 0.842723 0
M  V30 20115 H 1872.22 2.7268 1.12826 0
M  V30 20116 H 1872.3 2.48119 -0.622153 0
M  V30 20117 H 1871.95 4.98598 -0.967606 0
M  V30 20118 H 1871.88 5.20503 0.799004 0
M  V30 20119 H 1874.37 3.77512 0.171195 0
M  V30 20120 H 1874.68 7.72308 -0.275698 0
M  V30 20121 H 1873.03 6.94582 -0.240997 0
M  V30 20122 H 1876.22 4.67925 0.127856 0
M  V30 20123 H 1876.39 6.47956 -0.075703 0
M  V30 20124 N 1869.8 -0.200022 1.56326 0
M  V30 20125 C 1871.03 -0.936144 1.84174 0
M  V30 20126 C 1871.43 -1.77564 0.653267 0
M  V30 20127 O 1870.78 -1.79569 -0.387368 0
M  V30 20128 C 1870.84 -1.88598 3.06057 0
M  V30 20129 C 1870.5 -1.22892 4.40167 0
M  V30 20130 C 1871.5 -0.608243 5.1633 0
M  V30 20131 C 1869.19 -1.23424 4.869 0
M  V30 20132 C 1871.18 -0.00166268 6.374 0
M  V30 20133 C 1868.87 -0.623827 6.07908 0
M  V30 20134 C 1869.86 -0.00861163 6.82999 0
M  V30 20135 O 1869.55 0.592252 8.01715 0
M  V30 20136 H 1869.28 -0.278889 0.615789 0
M  V30 20137 H 1871.84 -0.213764 2.04285 0
M  V30 20138 H 1870.07 -2.64793 2.81818 0
M  V30 20139 H 1871.76 -2.48948 3.20593 0
M  V30 20140 H 1872.52 -0.596302 4.8132 0
M  V30 20141 H 1868.4 -1.7025 4.28411 0
M  V30 20142 H 1871.95 0.479147 6.95953 0
M  V30 20143 H 1867.84 -0.633254 6.42386 0
M  V30 20144 H 1868.61 0.488674 8.1704 0
M  V30 20145 N 1871.27 -1.50505 -0.467553 0
M  V30 20146 C 1872.52 -1.61671 -1.21938 0
M  V30 20147 C 1872.85 -0.318688 -1.91871 0
M  V30 20148 O 1872.1 0.695639 -1.82919 0
M  V30 20149 C 1872.4 -2.74913 -2.28381 0
M  V30 20150 C 1872.07 -4.1527 -1.75674 0
M  V30 20151 C 1870.73 -4.5346 -1.6102 0
M  V30 20152 C 1873.08 -5.02978 -1.3661 0
M  V30 20153 C 1870.41 -5.77094 -1.05732 0
M  V30 20154 C 1872.76 -6.27163 -0.827621 0
M  V30 20155 C 1871.43 -6.64152 -0.667746 0
M  V30 20156 H 1870.7 -0.591596 -0.446201 0
M  V30 20157 H 1873.34 -1.84449 -0.514858 0
M  V30 20158 H 1871.65 -2.46237 -3.04754 0
M  V30 20159 H 1873.35 -2.80756 -2.86317 0
M  V30 20160 H 1869.94 -3.85144 -1.88047 0
M  V30 20161 H 1874.12 -4.74103 -1.46764 0
M  V30 20162 H 1869.38 -6.04424 -0.920946 0
M  V30 20163 H 1873.55 -6.94484 -0.516286 0
M  V30 20164 H 1871.18 -7.5983 -0.237178 0
M  V30 20165 N 1872.75 0.720973 -1.40142 0
M  V30 20166 C 1873.72 1.81676 -1.39737 0
M  V30 20167 C 1874.72 1.58125 -0.292068 0
M  V30 20168 O 1875.91 1.65266 -0.550699 0
M  V30 20169 C 1873.04 3.19685 -1.18381 0
M  V30 20170 H 1874.23 1.83435 -2.37259 0
M  V30 20171 H 1871.78 0.926064 -1.25912 0
M  V30 20172 H 1872.52 3.2358 -0.21598 0
M  V30 20173 H 1872.3 3.38178 -1.98439 0
M  V30 20174 H 1873.79 3.99724 -1.20873 0
M  V30 20175 N 1874.23 1.25549 0.952634 0
M  V30 20176 C 1875.48 1.10416 1.69748 0
M  V30 20177 C 1875.81 -0.354517 1.91242 0
M  V30 20178 O 1875.06 -1.27756 1.48246 0
M  V30 20179 C 1875.36 1.80586 3.08421 0
M  V30 20180 C 1875.03 3.30504 3.06721 0
M  V30 20181 C 1873.69 3.71402 3.05965 0
M  V30 20182 C 1876.04 4.26275 2.99898 0
M  V30 20183 C 1873.37 5.06478 2.96137 0
M  V30 20184 C 1875.72 5.61378 2.91612 0
M  V30 20185 C 1874.38 6.01601 2.89192 0
M  V30 20186 H 1873.65 0.404041 0.621154 0
M  V30 20187 H 1876.3 1.55848 1.11283 0
M  V30 20188 H 1874.61 1.27592 3.70442 0
M  V30 20189 H 1876.3 1.66328 3.64878 0
M  V30 20190 H 1872.89 2.97965 3.08083 0
M  V30 20191 H 1877.08 3.95669 2.996 0
M  V30 20192 H 1872.33 5.3682 2.92633 0
M  V30 20193 H 1876.51 6.3528 2.85294 0
M  V30 20194 H 1874.13 7.06227 2.81333 0
M  V30 20195 N 1875.71 -1.15554 1.07168 0
M  V30 20196 C 1876.96 -1.85639 0.788727 0
M  V30 20197 C 1877.27 -1.83114 -0.687656 0
M  V30 20198 O 1878.48 -2.48864 -1.08531 0
M  V30 20199 C 1876.93 -3.3318 1.36084 0
M  V30 20200 C 1876.54 -3.44157 2.8681 0
M  V30 20201 C 1878.28 -4.08462 1.15582 0
M  V30 20202 C 1876.19 -4.85835 3.37222 0
M  V30 20203 H 1875.12 -0.695427 0.29137 0
M  V30 20204 H 1877.77 -1.30354 1.29151 0
M  V30 20205 H 1876.15 -3.88125 0.785802 0
M  V30 20206 H 1877.33 -2.99328 3.50342 0
M  V30 20207 H 1875.64 -2.82318 3.06081 0
M  V30 20208 H 1878.24 -5.13017 1.50725 0
M  V30 20209 H 1878.58 -4.16192 0.0947449 0
M  V30 20210 H 1879.12 -3.59781 1.69712 0
M  V30 20211 H 1875.86 -4.83287 4.42847 0
M  V30 20212 H 1875.38 -5.31253 2.78443 0
M  V30 20213 H 1877.05 -5.54684 3.33068 0
M  V30 20214 N 1877.19 -0.855519 -1.32358 0
M  V30 20215 C 1878.15 -0.305794 -2.27151 0
M  V30 20216 C 1879.15 0.535008 -1.51639 0
M  V30 20217 O 1880.34 0.346394 -1.70721 0
M  V30 20218 C 1877.47 0.567275 -3.36147 0
M  V30 20219 H 1878.67 -1.14245 -2.77287 0
M  V30 20220 H 1876.22 -0.629924 -1.43044 0
M  V30 20221 H 1876.95 1.42571 -2.9128 0
M  V30 20222 H 1876.74 -0.0345714 -3.92085 0
M  V30 20223 H 1878.23 0.944644 -4.06775 0
M  V30 20224 N 1878.67 1.45167 -0.61354 0
M  V30 20225 C 1879.94 1.95553 -0.042781 0
M  V30 20226 C 1880.32 1.55588 1.42673 0
M  V30 20227 O 1879.67 0.821325 2.13229 0
M  V30 20228 C 1879.88 3.48124 -0.247141 0
M  V30 20229 C 1881.23 4.24398 -0.131068 0
M  V30 20230 O 1882.25 3.55757 -0.177576 0
M  V30 20231 O 1881.11 5.46496 -0.0211683 0
M  V30 20232 H 1878.21 0.826367 0.0323494 0
M  V30 20233 H 1880.75 1.55304 -0.684017 0
M  V30 20234 H 1879.52 3.70202 -1.26751 0
M  V30 20235 H 1879.15 3.95278 0.429074 0
M  V30 20236 N 1880.14 0.353044 1.53595 0
M  V30 20237 C 1881.11 -0.48691 2.23968 0
M  V30 20238 C 1882.11 -1.01991 1.24316 0
M  V30 20239 O 1883.3 -0.907654 1.48685 0
M  V30 20240 C 1880.43 -1.67926 2.96671 0
M  V30 20241 H 1881.62 0.128707 2.99624 0
M  V30 20242 H 1879.17 0.104533 1.5595 0
M  V30 20243 H 1879.91 -2.33331 2.25227 0
M  V30 20244 H 1879.69 -1.30417 3.69776 0
M  V30 20245 H 1881.18 -2.2748 3.50203 0
M  V30 20246 N 1881.62 -1.57387 0.0818932 0
M  V30 20247 C 1882.55 -2.16318 -0.879124 0
M  V30 20248 C 1883.53 -1.09293 -1.30342 0
M  V30 20249 O 1884.72 -1.37373 -1.37267 0
M  V30 20250 C 1881.85 -2.73293 -2.14308 0
M  V30 20251 C 1880.8 -3.85575 -1.85785 0
M  V30 20252 C 1880.13 -4.29195 -3.18897 0
M  V30 20253 C 1881.43 -5.09365 -1.15517 0
M  V30 20254 H 1883.12 -2.96873 -0.388166 0
M  V30 20255 H 1880.67 -1.42803 -0.185265 0
M  V30 20256 H 1882.62 -3.13168 -2.81964 0
M  V30 20257 H 1881.34 -1.89974 -2.65664 0
M  V30 20258 H 1880 -3.46219 -1.20532 0
M  V30 20259 H 1879.65 -3.42784 -3.68114 0
M  V30 20260 H 1879.35 -5.04889 -3.006 0
M  V30 20261 H 1880.88 -4.71694 -3.87734 0
M  V30 20262 H 1882.29 -5.46493 -1.73259 0
M  V30 20263 H 1880.69 -5.90403 -1.07444 0
M  V30 20264 H 1881.76 -4.8471 -0.135822 0
M  V30 20265 N 1883.1 0.191729 -1.56429 0
M  V30 20266 C 1884.35 0.909797 -1.80016 0
M  V30 20267 C 1884.66 1.84283 -0.65569 0
M  V30 20268 O 1885.87 2.60176 -0.775941 0
M  V30 20269 C 1884.32 1.66819 -3.18904 0
M  V30 20270 C 1883.93 0.779817 -4.41161 0
M  V30 20271 C 1885.68 2.37569 -3.51797 0
M  V30 20272 C 1883.58 1.53727 -5.71071 0
M  V30 20273 H 1882.51 0.343463 -0.67123 0
M  V30 20274 H 1885.16 0.163022 -1.82774 0
M  V30 20275 H 1883.55 2.45897 -3.10404 0
M  V30 20276 H 1884.72 0.0274524 -4.60792 0
M  V30 20277 H 1883.03 0.18298 -4.15998 0
M  V30 20278 H 1885.63 2.94796 -4.46093 0
M  V30 20279 H 1885.97 3.11921 -2.75701 0
M  V30 20280 H 1886.51 1.65454 -3.61759 0
M  V30 20281 H 1883.25 0.836475 -6.50141 0
M  V30 20282 H 1882.77 2.26348 -5.55452 0
M  V30 20283 H 1884.45 2.09018 -6.12308 0
M  V30 20284 N 1884.58 1.50751 0.459565 0
M  V30 20285 C 1885.81 1.66089 1.23377 0
M  V30 20286 C 1886.22 0.348952 1.85547 0
M  V30 20287 O 1885.58 -0.670323 1.69744 0
M  V30 20288 C 1885.63 2.76047 2.3341 0
M  V30 20289 O 1885.35 4.02156 1.73787 0
M  V30 20290 C 1886.85 3.02461 3.24087 0
M  V30 20291 H 1884.07 0.557971 0.372705 0
M  V30 20292 H 1886.61 1.97042 0.547242 0
M  V30 20293 H 1884.77 2.47756 2.97818 0
M  V30 20294 H 1885.18 4.63055 2.46335 0
M  V30 20295 H 1886.66 3.83034 3.97478 0
M  V30 20296 H 1887.13 2.13984 3.83546 0
M  V30 20297 H 1887.74 3.32326 2.65404 0
M  V30 20298 N 1886.06 -0.713531 1.40522 0
M  V30 20299 C 1887.28 -1.5026 1.4223 0
M  V30 20300 C 1887.7 -1.88787 0.0225637 0
M  V30 20301 O 1887.06 -1.55581 -0.95398 0
M  V30 20302 C 1887.11 -2.77663 2.31486 0
M  V30 20303 O 1886.83 -2.40765 3.66011 0
M  V30 20304 C 1888.33 -3.71543 2.41807 0
M  V30 20305 H 1885.55 -0.463648 0.485048 0
M  V30 20306 H 1888.09 -0.88 1.84598 0
M  V30 20307 H 1886.25 -3.36203 1.92475 0
M  V30 20308 H 1886.66 -3.22757 4.13434 0
M  V30 20309 H 1888.14 -4.57771 3.08464 0
M  V30 20310 H 1888.61 -4.14792 1.44375 0
M  V30 20311 H 1889.22 -3.18914 2.81379 0
M  V30 20312 N 1887.53 -1.26053 -0.945962 0
M  V30 20313 C 1888.46 -1.09687 -2.06134 0
M  V30 20314 C 1889.44 -0.00341513 -1.701 0
M  V30 20315 O 1890.63 -0.174559 -1.93414 0
M  V30 20316 C 1887.76 -0.724007 -3.3967 0
M  V30 20317 C 1886.71 -1.76866 -3.89747 0
M  V30 20318 C 1886.04 -1.25025 -5.19878 0
M  V30 20319 C 1887.34 -3.16923 -4.15159 0
M  V30 20320 H 1889.03 -2.02986 -2.20084 0
M  V30 20321 H 1886.58 -0.977346 -1.05754 0
M  V30 20322 H 1888.53 -0.596411 -4.17158 0
M  V30 20323 H 1887.26 0.244695 -3.25682 0
M  V30 20324 H 1885.92 -1.88485 -3.14435 0
M  V30 20325 H 1885.56 -0.271527 -5.02267 0
M  V30 20326 H 1885.26 -1.94853 -5.54352 0
M  V30 20327 H 1886.79 -1.13523 -5.99954 0
M  V30 20328 H 1888.2 -3.08409 -4.83277 0
M  V30 20329 H 1886.6 -3.84299 -4.60906 0
M  V30 20330 H 1887.67 -3.63337 -3.21114 0
M  V30 20331 N 1889.01 1.14984 -1.07779 0
M  V30 20332 C 1889.96 2.19864 -0.702018 0
M  V30 20333 C 1890.93 1.63206 0.308695 0
M  V30 20334 O 1892.11 1.8981 0.194157 0
M  V30 20335 C 1889.25 3.44923 -0.110634 0
M  V30 20336 C 1888.37 4.1576 -1.17335 0
M  V30 20337 C 1887.5 5.28381 -0.546508 0
M  V30 20338 C 1886.54 5.91042 -1.59171 0
M  V30 20339 N 1885.68 6.95126 -0.987129 0
M  V30 20340 H 1890.52 2.51358 -1.60073 0
M  V30 20341 H 1888.05 1.2344 -0.80006 0
M  V30 20342 H 1890.01 4.16451 0.249903 0
M  V30 20343 H 1888.64 3.13932 0.751416 0
M  V30 20344 H 1887.69 3.42685 -1.6514 0
M  V30 20345 H 1889.01 4.58436 -1.96566 0
M  V30 20346 H 1888.16 6.06552 -0.133852 0
M  V30 20347 H 1886.9 4.8691 0.277527 0
M  V30 20348 H 1885.9 5.1158 -2.01409 0
M  V30 20349 H 1887.13 6.3459 -2.4181 0
M  V30 20350 H 1885.08 6.55742 -0.184076 0
M  V30 20351 H 1884.99 7.36253 -1.71662 0
M  V30 20352 H 1886.26 7.77186 -0.60012 0
M  V30 20353 N 1890.49 0.862526 1.31902 0
M  V30 20354 C 1891.9 0.523345 1.79215 0
M  V30 20355 C 1892.25 -0.95931 1.71148 0
M  V30 20356 O 1891.38 -1.74868 1.27476 0
M  V30 20357 C 1891.97 0.943195 3.25406 0
M  V30 20358 C 1890.53 0.655789 3.70643 0
M  V30 20359 C 1889.68 1.13861 2.52846 0
M  V30 20360 H 1892.63 1.04897 1.19089 0
M  V30 20361 H 1892.65 0.262794 3.79591 0
M  V30 20362 H 1892.16 2.02233 3.31245 0
M  V30 20363 H 1890.26 -0.412291 3.70312 0
M  V30 20364 H 1890.38 1.2276 4.63106 0
M  V30 20365 H 1888.74 0.558615 2.48499 0
M  V30 20366 H 1889.52 2.22501 2.61434 0
M  V30 20367 N 1891.97 -1.4484 0.62123 0
M  V30 20368 C 1893.38 -1.57016 0.286009 0
M  V30 20369 C 1893.58 -1.6104 -1.21113 0
M  V30 20370 O 1892.64 -1.54807 -1.99477 0
M  V30 20371 C 1893.95 -2.84652 0.969209 0
M  V30 20372 C 1895.5 -2.98349 0.946414 0
M  V30 20373 C 1895.98 -4.28773 1.60989 0
M  V30 20374 N 1897.47 -4.35564 1.57601 0
M  V30 20375 C 1898.2 -5.3518 2.0584 0
M  V30 20376 N 1897.7 -6.41256 2.62226 0
M  V30 20377 N 1899.49 -5.26625 1.96527 0
M  V30 20378 H 1891.64 -1.40471 1.59316 0
M  V30 20379 H 1893.91 -0.672493 0.668174 0
M  V30 20380 H 1893.61 -2.87629 2.02392 0
M  V30 20381 H 1893.49 -3.7386 0.500859 0
M  V30 20382 H 1895.87 -2.94931 -0.0997935 0
M  V30 20383 H 1895.95 -2.10516 1.45316 0
M  V30 20384 H 1895.6 -4.3295 2.65549 0
M  V30 20385 H 1895.53 -5.15447 1.07805 0
M  V30 20386 H 1898.02 -3.59519 1.16424 0
M  V30 20387 H 1898.33 -7.13536 2.96792 0
M  V30 20388 H 1896.68 -6.41969 2.66272 0
M  V30 20389 H 1899.87 -4.42664 1.52206 0
M  V30 20390 H 1900.04 -6.04107 2.34434 0
M  V30 20391 N 1893.45 -0.361184 -1.53405 0
M  V30 20392 C 1894.68 0.23043 -2.05311 0
M  V30 20393 C 1895.08 1.43355 -1.23475 0
M  V30 20394 O 1894.43 1.81745 -0.267304 0
M  V30 20395 C 1894.49 0.692241 -3.52772 0
M  V30 20396 C 1894.15 -0.393597 -4.55302 0
M  V30 20397 C 1895.15 -1.24204 -5.04846 0
M  V30 20398 C 1892.84 -0.55258 -4.99251 0
M  V30 20399 C 1894.83 -2.23485 -5.96936 0
M  V30 20400 C 1892.52 -1.54876 -5.91149 0
M  V30 20401 C 1893.51 -2.38834 -6.39881 0
M  V30 20402 O 1893.2 -3.36753 -7.29967 0
M  V30 20403 H 1892.93 0.0451009 -0.674494 0
M  V30 20404 H 1895.49 -0.516588 -1.98798 0
M  V30 20405 H 1893.72 1.49079 -3.56809 0
M  V30 20406 H 1895.41 1.20637 -3.87559 0
M  V30 20407 H 1896.17 -1.13039 -4.71643 0
M  V30 20408 H 1892.05 0.0911198 -4.6091 0
M  V30 20409 H 1895.6 -2.89053 -6.34897 0
M  V30 20410 H 1891.49 -1.66091 -6.23766 0
M  V30 20411 H 1892.26 -3.32431 -7.47952 0
M  V30 20412 N 1894.92 1.57341 -0.0902386 0
M  V30 20413 C 1895.83 2.17276 0.88478 0
M  V30 20414 C 1896.85 1.14089 1.31376 0
M  V30 20415 O 1898.03 1.46438 1.38268 0
M  V30 20416 C 1895.09 2.73739 2.12762 0
M  V30 20417 C 1894.15 3.91865 1.7533 0
M  V30 20418 C 1893.39 4.45626 2.93689 0
M  V30 20419 O 1893.61 3.98337 4.08269 0
M  V30 20420 O 1892.54 5.36714 2.72437 0
M  V30 20421 H 1896.37 3.00989 0.40487 0
M  V30 20422 H 1893.95 1.48799 0.133848 0
M  V30 20423 H 1895.84 3.09849 2.85608 0
M  V30 20424 H 1894.51 1.93075 2.59815 0
M  V30 20425 H 1893.42 3.60576 0.996799 0
M  V30 20426 H 1894.75 4.73878 1.33045 0
M  V30 20427 N 1896.4 -0.183431 1.56529 0
M  V30 20428 C 1897.68 -0.928567 1.72154 0
M  V30 20429 C 1898.06 -2.00899 0.648284 0
M  V30 20430 O 1897.41 -2.25973 -0.338886 0
M  V30 20431 C 1897.62 -1.50436 3.14913 0
M  V30 20432 C 1898.97 -1.98198 3.75503 0
M  V30 20433 O 1899.99 -1.60255 3.18115 0
M  V30 20434 O 1898.85 -2.68054 4.76245 0
M  V30 20435 H 1895.94 -0.436242 0.702582 0
M  V30 20436 H 1898.49 -0.17221 1.68824 0
M  V30 20437 H 1897.26 -0.726145 3.84503 0
M  V30 20438 H 1896.88 -2.32523 3.22519 0
M  V30 20439 N 1897.88 -1.50992 -0.451564 0
M  V30 20440 C 1899.11 -1.66741 -1.22495 0
M  V30 20441 C 1899.52 -0.358787 -1.8536 0
M  V30 20442 O 1898.88 0.661312 -1.70097 0
M  V30 20443 C 1898.93 -2.77281 -2.31943 0
M  V30 20444 O 1898.65 -4.03072 -1.71652 0
M  V30 20445 C 1900.15 -3.04175 -3.22479 0
M  V30 20446 H 1897.37 -0.55994 -0.369741 0
M  V30 20447 H 1899.92 -1.97329 -0.536785 0
M  V30 20448 H 1898.07 -2.49332 -2.965 0
M  V30 20449 H 1898.49 -4.64354 -2.43875 0
M  V30 20450 H 1899.96 -3.85137 -3.95441 0
M  V30 20451 H 1900.44 -2.16015 -3.82406 0
M  V30 20452 H 1901.04 -3.33729 -2.63638 0
M  V30 20453 N 1899.36 0.706069 -1.40899 0
M  V30 20454 C 1900.31 1.84143 -1.42106 0
M  V30 20455 C 1901.3 1.66716 -0.300367 0
M  V30 20456 O 1902.51 1.73705 -0.471879 0
M  V30 20457 H 1898.88 0.606636 -0.444406 0
M  V30 20458 H 1900.85 1.80241 -2.37815 0
M  V30 20459 C 1899.6 3.22084 -1.30986 0
M  V30 20460 H 1898.92 3.36105 -2.16503 0
M  V30 20461 H 1900.36 4.01634 -1.35891 0
M  V30 20462 C 1898.82 3.36893 -0.0210718 0
M  V30 20463 O 1899.35 3.90589 0.938242 0
M  V30 20464 N 1897.56 2.90554 0.0515652 0
M  V30 20465 H 1897.11 2.47045 -0.729833 0
M  V30 20466 H 1897.06 3.00842 0.91332 0
M  V30 20467 N 1900.84 1.26553 0.939264 0
M  V30 20468 C 1902.09 1.11599 1.68014 0
M  V30 20469 C 1902.4 -0.339956 1.92623 0
M  V30 20470 O 1903.6 -0.610203 2.64554 0
M  V30 20471 C 1902.06 1.94913 3.02551 0
M  V30 20472 C 1901.67 3.45094 2.85682 0
M  V30 20473 C 1903.41 1.88574 3.80316 0
M  V30 20474 C 1901.32 4.20648 4.15703 0
M  V30 20475 H 1900.25 0.414037 0.630151 0
M  V30 20476 H 1902.9 1.50878 1.04441 0
M  V30 20477 H 1901.28 1.48469 3.67115 0
M  V30 20478 H 1902.46 3.99321 2.29956 0
M  V30 20479 H 1900.77 3.5269 2.21357 0
M  V30 20480 H 1903.37 2.42307 4.76646 0
M  V30 20481 H 1903.71 0.856867 4.07386 0
M  V30 20482 H 1904.24 2.32852 3.22529 0
M  V30 20483 H 1900.98 5.24013 3.93816 0
M  V30 20484 H 1900.5 3.71202 4.71136 0
M  V30 20485 H 1902.18 4.29199 4.84146 0
M  V30 20486 N 1902.31 -1.14411 1.08387 0
M  V30 20487 C 1903.73 -1.37432 0.811464 0
M  V30 20488 C 1903.93 -1.92992 -0.579345 0
M  V30 20489 O 1902.99 -2.14249 -1.33618 0
M  V30 20490 C 1904.3 -2.33557 1.89398 0
M  V30 20491 C 1905.85 -2.47197 1.91996 0
M  V30 20492 C 1906.32 -3.46622 2.99361 0
M  V30 20493 N 1907.81 -3.54165 2.98532 0
M  V30 20494 C 1908.55 -4.30946 3.78249 0
M  V30 20495 N 1908.04 -5.10972 4.67846 0
M  V30 20496 N 1909.84 -4.26141 3.66552 0
M  V30 20497 H 1901.99 -0.76694 1.9807 0
M  V30 20498 H 1904.25 -0.399866 0.859541 0
M  V30 20499 H 1903.96 -1.99868 2.89388 0
M  V30 20500 H 1903.83 -3.33459 1.7631 0
M  V30 20501 H 1906.22 -2.80178 0.926513 0
M  V30 20502 H 1906.3 -1.47258 2.09162 0
M  V30 20503 H 1905.94 -3.14374 3.98913 0
M  V30 20504 H 1905.87 -4.46341 2.7944 0
M  V30 20505 H 1908.36 -2.97057 2.33593 0
M  V30 20506 H 1908.68 -5.66834 5.2528 0
M  V30 20507 H 1907.02 -5.10241 4.71889 0
M  V30 20508 H 1910.21 -3.62693 2.95925 0
M  V30 20509 H 1910.39 -4.85729 4.28919 0
M  V30 20510 N 1903.79 -0.869509 -1.31443 0
M  V30 20511 C 1905.04 -0.476357 -1.95994 0
M  V30 20512 C 1905.35 0.976268 -1.69494 0
M  V30 20513 O 1906.56 1.47555 -2.27903 0
M  V30 20514 C 1905.02 -0.800938 -3.50875 0
M  V30 20515 C 1904.62 -2.27029 -3.86215 0
M  V30 20516 C 1906.37 -0.476234 -4.2182 0
M  V30 20517 C 1904.28 -2.53731 -5.34205 0
M  V30 20518 H 1903.21 -0.174407 -0.733552 0
M  V30 20519 H 1905.86 -1.06235 -1.49621 0
M  V30 20520 H 1904.24 -0.144206 -3.95737 0
M  V30 20521 H 1905.41 -2.97005 -3.52313 0
M  V30 20522 H 1903.73 -2.56098 -3.28333 0
M  V30 20523 H 1906.32 -0.652965 -5.30698 0
M  V30 20524 H 1906.67 0.583294 -4.12193 0
M  V30 20525 H 1907.2 -1.08949 -3.8259 0
M  V30 20526 H 1903.94 -3.58365 -5.48867 0
M  V30 20527 H 1903.46 -1.88349 -5.6946 0
M  V30 20528 H 1905.14 -2.38437 -6.01462 0
M  V30 20529 N 1905.27 1.44508 -0.628902 0
M  V30 20530 C 1906.22 2.32427 0.0895754 0
M  V30 20531 C 1907.21 1.47217 0.838067 0
M  V30 20532 O 1908.42 1.63575 0.751218 0
M  V30 20533 H 1904.79 0.750483 0.0477349 0
M  V30 20534 H 1906.76 2.9078 -0.670054 0
M  V30 20535 C 1905.51 3.31177 1.0591 0
M  V30 20536 H 1904.84 3.96754 0.492578 0
M  V30 20537 H 1906.28 3.9538 1.53135 0
M  V30 20538 C 1904.74 2.59936 2.14325 0
M  V30 20539 O 1905.27 2.3966 3.22375 0
M  V30 20540 N 1903.47 2.19712 1.90197 0
M  V30 20541 H 1903.02 2.36402 1.02332 0
M  V30 20542 H 1902.98 1.72371 2.62936 0
M  V30 20543 N 1906.75 0.369315 1.53212 0
M  V30 20544 C 1907.68 -0.467242 2.28777 0
M  V30 20545 C 1908.66 -1.08073 1.31355 0
M  V30 20546 O 1909.85 -1.09728 1.60229 0
M  V30 20547 C 1906.98 -1.60519 3.07979 0
M  V30 20548 C 1905.93 -1.11876 4.1312 0
M  V30 20549 C 1905.26 -2.34723 4.80426 0
M  V30 20550 C 1906.56 -0.200846 5.21914 0
M  V30 20551 H 1908.25 0.163201 2.98955 0
M  V30 20552 H 1905.8 0.0799312 1.43778 0
M  V30 20553 H 1907.75 -2.19708 3.59592 0
M  V30 20554 H 1906.47 -2.26292 2.35499 0
M  V30 20555 H 1905.13 -0.549521 3.62458 0
M  V30 20556 H 1904.78 -2.98961 4.04514 0
M  V30 20557 H 1904.48 -2.02846 5.51477 0
M  V30 20558 H 1906 -2.94592 5.34835 0
M  V30 20559 H 1907.42 -0.700331 5.69006 0
M  V30 20560 H 1905.81 0.0272222 6.00094 0
M  V30 20561 H 1906.88 0.755948 4.78971 0
M  V30 20562 N 1908.23 -1.57291 0.0985816 0
M  V30 20563 C 1909.5 -1.85951 -0.606759 0
M  V30 20564 C 1909.88 -0.996077 -1.86122 0
M  V30 20565 O 1909.23 -0.0694281 -2.28394 0
M  V30 20566 C 1909.44 -3.36688 -0.918803 0
M  V30 20567 C 1910.79 -4.04824 -1.28074 0
M  V30 20568 O 1911.81 -3.41589 -1.00971 0
M  V30 20569 O 1910.67 -5.16406 -1.7885 0
M  V30 20570 H 1907.77 -0.769103 -0.30399 0
M  V30 20571 H 1910.31 -1.69189 0.131543 0
M  V30 20572 H 1909.09 -3.91289 -0.0289848 0
M  V30 20573 H 1908.71 -3.58808 -1.71296 0
M  V30 20574 N 1909.71 0.175127 -1.56624 0
M  V30 20575 C 1910.93 0.912099 -1.86267 0
M  V30 20576 C 1911.36 1.75204 -0.684485 0
M  V30 20577 O 1910.71 1.77557 0.366501 0
M  V30 20578 C 1910.76 1.76776 -3.14297 0
M  V30 20579 O 1909.87 2.86894 -2.96253 0
M  V30 20580 H 1909.21 0.255728 -0.61278 0
M  V30 20581 H 1911.74 0.174416 -2.03855 0
M  V30 20582 H 1911.75 2.16845 -3.45604 0
M  V30 20583 H 1910.42 1.15077 -3.99663 0
M  V30 20584 H 1909 2.50435 -2.76291 0
M  V30 20585 N 1911.18 1.5123 0.44355 0
M  V30 20586 C 1912.13 1.7266 1.55857 0
M  V30 20587 C 1913.13 0.59279 1.5869 0
M  V30 20588 O 1914.33 0.774014 1.62509 0
M  V30 20589 H 1910.71 0.545442 0.517684 0
M  V30 20590 H 1912.68 2.66139 1.34954 0
M  V30 20591 C 1911.43 1.86311 2.9357 0
M  V30 20592 H 1910.75 2.72958 2.9212 0
M  V30 20593 H 1912.19 2.0532 3.70971 0
M  V30 20594 C 1910.65 0.621377 3.3112 0
M  V30 20595 O 1911.18 -0.226833 4.01059 0
M  V30 20596 N 1909.38 0.467286 2.86818 0
M  V30 20597 H 1908.93 1.15859 2.30075 0
M  V30 20598 H 1908.89 -0.36232 3.12305 0
M  V30 20599 N 1912.66 -0.698586 1.41271 0
M  V30 20600 C 1913.89 -1.48743 1.43816 0
M  V30 20601 C 1914.3 -1.88752 0.0425858 0
M  V30 20602 O 1913.66 -1.56584 -0.937425 0
M  V30 20603 C 1913.71 -2.75192 2.34418 0
M  V30 20604 O 1913.43 -2.36869 3.68544 0
M  V30 20605 C 1914.93 -3.68957 2.45735 0
M  V30 20606 H 1912.15 -0.458477 0.489938 0
M  V30 20607 H 1914.7 -0.860372 1.85521 0
M  V30 20608 H 1912.85 -3.34142 1.9603 0
M  V30 20609 H 1913.27 -3.18354 4.16834 0
M  V30 20610 H 1914.74 -4.54473 3.13302 0
M  V30 20611 H 1915.22 -4.13237 1.48767 0
M  V30 20612 H 1915.82 -3.15912 2.84745 0
M  V30 20613 N 1914.14 -1.27049 -0.93254 0
M  V30 20614 C 1915.56 -1.04349 -1.20762 0
M  V30 20615 C 1915.76 0.225981 -2.00229 0
M  V30 20616 O 1914.81 0.932788 -2.34639 0
M  V30 20617 C 1916.12 -2.28004 -1.96048 0
M  V30 20618 C 1917.67 -2.32993 -2.09006 0
M  V30 20619 C 1918.15 -3.56364 -2.87696 0
M  V30 20620 N 1919.64 -3.56892 -2.95266 0
M  V30 20621 C 1920.37 -4.49022 -3.56604 0
M  V30 20622 N 1919.87 -5.51451 -4.19374 0
M  V30 20623 N 1921.66 -4.36656 -3.53961 0
M  V30 20624 H 1913.81 -2.0857 -0.401516 0
M  V30 20625 H 1916.08 -0.917061 -0.240213 0
M  V30 20626 H 1915.78 -3.20386 -1.45072 0
M  V30 20627 H 1915.66 -2.32937 -2.96682 0
M  V30 20628 H 1918.04 -1.41119 -2.5917 0
M  V30 20629 H 1918.12 -2.32065 -1.07607 0
M  V30 20630 H 1917.77 -4.48571 -2.38216 0
M  V30 20631 H 1917.7 -3.54541 -3.89369 0
M  V30 20632 H 1920.19 -2.82812 -2.5065 0
M  V30 20633 H 1920.5 -6.17924 -4.64101 0
M  V30 20634 H 1918.85 -5.55298 -4.17934 0
M  V30 20635 H 1922.04 -3.55848 -3.04122 0
M  V30 20636 H 1922.21 -5.08647 -4.01475 0
M  V30 20637 N 1915.62 1.13835 -1.08993 0
M  V30 20638 C 1916.84 1.89402 -0.845071 0
M  V30 20639 C 1917.27 1.78353 0.597641 0
M  V30 20640 O 1916.63 1.12793 1.41942 0
M  V30 20641 C 1916.67 3.37144 -1.27931 0
M  V30 20642 O 1915.78 4.101 -0.434975 0
M  V30 20643 H 1915.12 0.589066 -0.306427 0
M  V30 20644 H 1917.65 1.44055 -1.45291 0
M  V30 20645 H 1917.66 3.87967 -1.26277 0
M  V30 20646 H 1916.33 3.44504 -2.33002 0
M  V30 20647 H 1914.91 3.6932 -0.515447 0
M  V30 20648 N 1917.1 0.876467 1.3098 0
M  V30 20649 C 1918.34 0.49064 1.96466 0
M  V30 20650 C 1918.67 -0.958443 1.69246 0
M  V30 20651 O 1917.93 -1.69096 0.985144 0
M  V30 20652 C 1918.22 0.70208 3.50436 0
M  V30 20653 C 1917.89 2.12494 3.9769 0
M  V30 20654 C 1916.55 2.51405 4.10303 0
M  V30 20655 C 1918.9 3.0526 4.22452 0
M  V30 20656 C 1916.23 3.82309 4.45035 0
M  V30 20657 C 1918.58 4.35686 4.5865 0
M  V30 20658 C 1917.25 4.74502 4.69472 0
M  V30 20659 H 1916.52 0.179538 0.718921 0
M  V30 20660 H 1919.17 1.1107 1.55999 0
M  V30 20661 H 1917.47 -0.00106996 3.918 0
M  V30 20662 H 1919.17 0.383279 3.99164 0
M  V30 20663 H 1915.76 1.81287 3.88372 0
M  V30 20664 H 1919.94 2.76422 4.12195 0
M  V30 20665 H 1915.2 4.12136 4.51612 0
M  V30 20666 H 1919.37 5.07612 4.76763 0
M  V30 20667 H 1917 5.75976 4.9614 0
M  V30 20668 N 1918.57 -1.44173 0.636557 0
M  V30 20669 C 1919.82 -2.01209 0.140639 0
M  V30 20670 C 1920.14 -1.50704 -1.2469 0
M  V30 20671 O 1921.34 -1.99904 -1.83713 0
M  V30 20672 C 1919.8 -3.5934 0.20066 0
M  V30 20673 C 1919.41 -4.18841 1.58985 0
M  V30 20674 C 1921.15 -4.23829 -0.238514 0
M  V30 20675 C 1919.06 -5.69213 1.60469 0
M  V30 20676 H 1917.99 -0.752418 0.0488124 0
M  V30 20677 H 1920.64 -1.65329 0.796151 0
M  V30 20678 H 1919.02 -3.92544 -0.522054 0
M  V30 20679 H 1920.19 -3.97165 2.33658 0
M  V30 20680 H 1918.51 -3.66659 1.97357 0
M  V30 20681 H 1921.11 -5.34129 -0.247033 0
M  V30 20682 H 1921.45 -3.96556 -1.26685 0
M  V30 20683 H 1921.98 -3.95449 0.431887 0
M  V30 20684 H 1918.72 -6.01229 2.61158 0
M  V30 20685 H 1918.24 -5.92995 0.900975 0
M  V30 20686 H 1919.92 -6.3295 1.34104 0
M  V30 20687 N 1920.05 -0.377435 -1.53014 0
M  V30 20688 C 1921.3 0.208838 -2.01722 0
M  V30 20689 C 1921.63 1.47446 -1.26385 0
M  V30 20690 O 1920.91 1.91122 -0.360903 0
M  V30 20691 C 1921.19 0.4888 -3.56767 0
M  V30 20692 C 1921.04 -0.791285 -4.42785 0
M  V30 20693 C 1922.36 1.28443 -4.2094 0
M  V30 20694 H 1919.48 0.0744281 -0.733232 0
M  V30 20695 H 1922.12 -0.504664 -1.83175 0
M  V30 20696 H 1920.27 1.09662 -3.72702 0
M  V30 20697 H 1921.94 -1.42848 -4.38625 0
M  V30 20698 H 1920.19 -1.40914 -4.10275 0
M  V30 20699 H 1920.86 -0.550199 -5.49251 0
M  V30 20700 H 1923.33 0.770147 -4.08911 0
M  V30 20701 H 1922.21 1.44906 -5.29427 0
M  V30 20702 H 1922.47 2.29631 -3.77786 0
M  V30 20703 N 1921.53 1.57237 -0.106922 0
M  V30 20704 C 1922.94 1.81906 0.420368 0
M  V30 20705 C 1923.29 1.02332 1.67399 0
M  V30 20706 O 1922.42 0.256247 2.14877 0
M  V30 20707 C 1923.01 3.29947 0.769432 0
M  V30 20708 C 1921.57 3.55339 1.24141 0
M  V30 20709 C 1920.72 2.76224 0.243997 0
M  V30 20710 H 1923.67 1.55184 -0.332216 0
M  V30 20711 H 1923.69 3.43916 1.62794 0
M  V30 20712 H 1923.2 3.87836 -0.14316 0
M  V30 20713 H 1921.3 3.02795 2.17131 0
M  V30 20714 H 1921.42 4.63956 1.19508 0
M  V30 20715 H 1919.78 2.44057 0.728574 0
M  V30 20716 H 1920.56 3.36867 -0.661482 0
M  V30 20717 N 1923.01 -0.166818 1.56715 0
M  V30 20718 C 1924.26 -0.881043 1.8144 0
M  V30 20719 C 1924.57 -1.83216 0.684925 0
M  V30 20720 O 1925.78 -2.58908 0.817234 0
M  V30 20721 C 1924.23 -1.61724 3.21517 0
M  V30 20722 C 1923.84 -0.709534 4.42346 0
M  V30 20723 C 1925.58 -2.31943 3.55532 0
M  V30 20724 C 1923.49 -1.44622 5.73444 0
M  V30 20725 H 1922.42 -0.332741 0.676609 0
M  V30 20726 H 1925.07 -0.133924 1.83011 0
M  V30 20727 H 1923.45 -2.40928 3.14277 0
M  V30 20728 H 1924.63 0.0458591 4.60777 0
M  V30 20729 H 1922.94 -0.116776 4.16236 0
M  V30 20730 H 1925.54 -2.87662 4.50727 0
M  V30 20731 H 1925.88 -3.07495 2.80629 0
M  V30 20732 H 1926.42 -1.59678 3.64346 0
M  V30 20733 H 1923.16 -0.732937 6.51389 0
M  V30 20734 H 1922.68 -2.17483 5.58982 0
M  V30 20735 H 1924.35 -1.9925 6.15555 0
M  V30 20736 N 1924.49 -1.51463 -0.435524 0
M  V30 20737 C 1925.74 -1.63454 -1.18176 0
M  V30 20738 C 1926.05 -0.357501 -1.92305 0
M  V30 20739 O 1927.25 -0.356815 -2.69145 0
M  V30 20740 C 1925.71 -2.88676 -2.14928 0
M  V30 20741 C 1925.32 -4.23391 -1.46438 0
M  V30 20742 C 1927.06 -3.10025 -2.89974 0
M  V30 20743 C 1924.97 -5.39761 -2.41685 0
M  V30 20744 H 1923.9 -0.608812 -0.444819 0
M  V30 20745 H 1926.55 -1.77931 -0.448635 0
M  V30 20746 H 1924.93 -2.67837 -2.91683 0
M  V30 20747 H 1926.11 -4.54618 -0.75229 0
M  V30 20748 H 1924.42 -4.07934 -0.835385 0
M  V30 20749 H 1927.02 -3.9414 -3.61327 0
M  V30 20750 H 1927.36 -2.23177 -3.51423 0
M  V30 20751 H 1927.89 -3.31213 -2.20325 0
M  V30 20752 H 1924.63 -6.28875 -1.84922 0
M  V30 20753 H 1924.15 -5.12908 -3.10943 0
M  V30 20754 H 1925.83 -5.71783 -3.02776 0
M  V30 20755 N 1925.96 0.691085 -1.4164 0
M  V30 20756 C 1927.19 1.47978 -1.44603 0
M  V30 20757 C 1927.61 1.88727 -0.0525951 0
M  V30 20758 O 1926.96 1.57079 0.929107 0
M  V30 20759 C 1927.02 2.73945 -2.35874 0
M  V30 20760 O 1926.74 2.34912 -3.69795 0
M  V30 20761 C 1928.24 3.67649 -2.47688 0
M  V30 20762 H 1925.46 0.455873 -0.492363 0
M  V30 20763 H 1928 0.850521 -1.85974 0
M  V30 20764 H 1926.16 3.33098 -1.97799 0
M  V30 20765 H 1926.57 3.16139 -4.18517 0
M  V30 20766 H 1928.04 4.52806 -3.15707 0
M  V30 20767 H 1928.52 4.12443 -1.50956 0
M  V30 20768 H 1929.13 3.14397 -2.86417 0
M  V30 20769 N 1927.44 1.27542 0.925789 0
M  V30 20770 C 1928.67 1.1681 1.70772 0
M  V30 20771 C 1929.09 -0.274824 1.86789 0
M  V30 20772 O 1928.44 -1.18694 1.38629 0
M  V30 20773 C 1928.49 1.84904 3.10633 0
M  V30 20774 O 1928.21 3.23559 2.95366 0
M  V30 20775 C 1929.72 1.80322 4.04968 0
M  V30 20776 H 1926.94 0.406036 0.534206 0
M  V30 20777 H 1929.48 1.68448 1.15955 0
M  V30 20778 H 1927.63 1.37166 3.62304 0
M  V30 20779 H 1928.05 3.57488 3.838 0
M  V30 20780 H 1929.52 2.32577 5.00611 0
M  V30 20781 H 1930 0.772975 4.32344 0
M  V30 20782 H 1930.61 2.27683 3.59222 0
M  V30 20783 N 1928.92 -1.13255 1.09595 0
M  V30 20784 C 1929.83 -2.22321 0.74904 0
M  V30 20785 C 1930.85 -1.72198 -0.24974 0
M  V30 20786 O 1932.02 -2.01196 -0.090652 0
M  V30 20787 C 1929.09 -3.4625 0.17665 0
M  V30 20788 C 1928.15 -4.11254 1.2316 0
M  V30 20789 C 1927.38 -5.29267 0.686427 0
M  V30 20790 O 1927.6 -5.68291 -0.490088 0
M  V30 20791 O 1926.54 -5.84365 1.44227 0
M  V30 20792 H 1930.36 -2.5437 1.6592 0
M  V30 20793 H 1927.95 -1.21422 0.870465 0
M  V30 20794 H 1929.83 -4.2117 -0.139147 0
M  V30 20795 H 1928.51 -3.15896 -0.706492 0
M  V30 20796 H 1927.41 -3.38152 1.60012 0
M  V30 20797 H 1928.75 -4.45743 2.08745 0
M  V30 20798 N 1930.4 -0.883401 -1.30514 0
M  V30 20799 C 1931.63 -0.515199 -2.00073 0
M  V30 20800 C 1932.04 0.900374 -1.66403 0
M  V30 20801 O 1931.38 1.60339 -0.896503 0
M  V30 20802 C 1931.44 -0.608317 -3.54316 0
M  V30 20803 C 1931.11 -1.98792 -4.11498 0
M  V30 20804 C 1932.1 -2.95712 -4.2761 0
M  V30 20805 C 1929.79 -2.29288 -4.46914 0
M  V30 20806 C 1931.78 -4.21264 -4.78347 0
M  V30 20807 C 1929.47 -3.55086 -4.9735 0
M  V30 20808 C 1930.47 -4.50888 -5.13019 0
M  V30 20809 O 1930.15 -5.74455 -5.62367 0
M  V30 20810 H 1929.89 -0.197853 -0.646398 0
M  V30 20811 H 1932.44 -1.19015 -1.67405 0
M  V30 20812 H 1930.67 0.123606 -3.86502 0
M  V30 20813 H 1932.36 -0.251619 -4.05119 0
M  V30 20814 H 1933.13 -2.73463 -4.00553 0
M  V30 20815 H 1929 -1.55488 -4.33987 0
M  V30 20816 H 1932.55 -4.96048 -4.90492 0
M  V30 20817 H 1928.45 -3.77172 -5.23843 0
M  V30 20818 H 1929.21 -5.76814 -5.80713 0
M  V30 20819 N 1931.88 1.43833 -0.644194 0
M  V30 20820 C 1933.13 2.01132 -0.151307 0
M  V30 20821 C 1933.44 1.51363 1.23889 0
M  V30 20822 O 1934.64 2.00876 1.8265 0
M  V30 20823 C 1933.1 3.59229 -0.219714 0
M  V30 20824 C 1932.71 4.17992 -1.61204 0
M  V30 20825 C 1934.45 4.2395 0.216034 0
M  V30 20826 C 1932.36 5.68354 -1.63486 0
M  V30 20827 H 1931.29 0.752149 -0.052802 0
M  V30 20828 H 1933.94 1.64904 -0.804907 0
M  V30 20829 H 1932.32 3.92815 0.501229 0
M  V30 20830 H 1933.5 3.95921 -2.35761 0
M  V30 20831 H 1931.81 3.65608 -1.99299 0
M  V30 20832 H 1934.41 5.34253 0.218703 0
M  V30 20833 H 1934.75 3.97222 1.24581 0
M  V30 20834 H 1935.28 3.95214 -0.452852 0
M  V30 20835 H 1932.02 5.99836 -2.64343 0
M  V30 20836 H 1931.54 5.92508 -0.93241 0
M  V30 20837 H 1933.22 6.3223 -1.37458 0
M  V30 20838 N 1933.35 0.385544 1.52811 0
M  V30 20839 C 1934.77 0.0353371 1.59561 0
M  V30 20840 C 1934.97 -1.44948 1.39973 0
M  V30 20841 O 1934.03 -2.21354 1.21484 0
M  V30 20842 C 1935.34 0.509155 2.96358 0
M  V30 20843 C 1936.89 0.465088 3.09525 0
M  V30 20844 C 1937.36 0.915035 4.48766 0
M  V30 20845 N 1938.85 0.870895 4.54939 0
M  V30 20846 C 1939.59 1.1905 5.60905 0
M  V30 20847 N 1939.08 1.58039 6.74534 0
M  V30 20848 N 1940.88 1.112 5.50991 0
M  V30 20849 H 1933.03 1.35224 1.63793 0
M  V30 20850 H 1935.29 0.554013 0.769268 0
M  V30 20851 H 1935 1.54604 3.15896 0
M  V30 20852 H 1934.87 -0.0937516 3.77083 0
M  V30 20853 H 1937.26 -0.562704 2.89685 0
M  V30 20854 H 1937.34 1.10375 2.30762 0
M  V30 20855 H 1936.98 1.94104 4.69346 0
M  V30 20856 H 1936.91 0.253422 5.2599 0
M  V30 20857 H 1939.4 0.583936 3.73361 0
M  V30 20858 H 1939.72 1.808 7.51353 0
M  V30 20859 H 1938.06 1.61922 6.75874 0
M  V30 20860 H 1941.25 0.806438 4.61101 0
M  V30 20861 H 1941.43 1.3644 6.33473 0
M  V30 20862 N 1934.83 -1.57178 0.115259 0
M  V30 20863 C 1935.74 -2.18656 -0.850101 0
M  V30 20864 C 1936.76 -1.16164 -1.29545 0
M  V30 20865 O 1937.93 -1.48619 -1.35921 0
M  V30 20866 C 1935 -2.77089 -2.0838 0
M  V30 20867 C 1934.06 -3.94604 -1.69074 0
M  V30 20868 C 1933.29 -4.50242 -2.86563 0
M  V30 20869 O 1933.52 -4.04782 -4.0188 0
M  V30 20870 O 1932.45 -5.4098 -2.63864 0
M  V30 20871 H 1936.28 -3.01595 -0.356934 0
M  V30 20872 H 1933.86 -1.48993 -0.110158 0
M  V30 20873 H 1935.74 -3.14353 -2.80642 0
M  V30 20874 H 1934.42 -1.97184 -2.56711 0
M  V30 20875 H 1933.33 -3.62116 -0.939308 0
M  V30 20876 H 1934.66 -4.75934 -1.25489 0
M  V30 20877 N 1936.31 0.158505 -1.56801 0
M  V30 20878 C 1937.26 1.196 -1.97394 0
M  V30 20879 C 1938.23 1.43308 -0.839765 0
M  V30 20880 O 1939.41 1.55835 -1.10092 0
M  V30 20881 C 1936.55 2.52729 -2.34994 0
M  V30 20882 C 1935.67 2.36292 -3.61649 0
M  V30 20883 C 1934.8 3.62376 -3.88403 0
M  V30 20884 C 1933.84 3.40927 -5.08365 0
M  V30 20885 N 1932.98 4.59112 -5.31188 0
M  V30 20886 H 1937.82 0.842837 -2.85833 0
M  V30 20887 H 1935.35 0.404744 -1.41422 0
M  V30 20888 H 1937.31 3.30337 -2.5482 0
M  V30 20889 H 1935.94 2.86016 -1.49649 0
M  V30 20890 H 1934.99 1.49795 -3.49665 0
M  V30 20891 H 1936.31 2.16397 -4.49415 0
M  V30 20892 H 1935.46 4.48417 -4.08665 0
M  V30 20893 H 1934.2 3.85264 -2.99037 0
M  V30 20894 H 1933.2 2.53274 -4.87988 0
M  V30 20895 H 1934.43 3.19449 -5.99274 0
M  V30 20896 H 1932.38 4.82195 -4.44774 0
M  V30 20897 H 1932.29 4.42177 -6.13201 0
M  V30 20898 H 1933.56 5.46399 -5.55939 0
M  V30 20899 N 1937.79 1.51692 0.427485 0
M  V30 20900 C 1938.72 1.76668 1.52679 0
M  V30 20901 C 1939.7 0.616865 1.58521 0
M  V30 20902 O 1940.89 0.860595 1.7409 0
M  V30 20903 C 1938.02 1.9007 2.90673 0
M  V30 20904 C 1936.97 3.05566 2.99689 0
M  V30 20905 C 1936.3 3.04165 4.39759 0
M  V30 20906 C 1937.6 4.45359 2.72861 0
M  V30 20907 H 1939.29 2.68717 1.32029 0
M  V30 20908 H 1936.84 1.29306 0.633716 0
M  V30 20909 H 1938.79 2.06125 3.67546 0
M  V30 20910 H 1937.51 0.946769 3.12576 0
M  V30 20911 H 1936.17 2.89231 2.25257 0
M  V30 20912 H 1935.82 2.0653 4.58644 0
M  V30 20913 H 1935.52 3.81727 4.46719 0
M  V30 20914 H 1937.04 3.22326 5.18592 0
M  V30 20915 H 1938.46 4.61993 3.39463 0
M  V30 20916 H 1936.85 5.24701 2.91219 0
M  V30 20917 H 1937.92 4.54717 1.68405 0
M  V30 20918 N 1939.27 -0.683564 1.42004 0
M  V30 20919 C 1940.49 -1.47711 1.45589 0
M  V30 20920 C 1940.92 -1.87984 0.0661307 0
M  V30 20921 O 1940.28 -1.55425 -0.933428 0
M  V30 20922 C 1940.32 -2.70824 2.3809 0
M  V30 20923 O 1939.43 -3.68766 1.84622 0
M  V30 20924 H 1938.77 -0.444102 0.493629 0
M  V30 20925 H 1941.3 -0.839192 1.86598 0
M  V30 20926 H 1941.31 -3.18996 2.54373 0
M  V30 20927 H 1939.98 -2.4085 3.39063 0
M  V30 20928 H 1938.56 -3.27756 1.77849 0
M  V30 20929 N 1940.75 -1.28031 -0.919012 0
M  V30 20930 C 1941.98 -1.17544 -1.69903 0
M  V30 20931 C 1942.38 0.269221 -1.87275 0
M  V30 20932 O 1941.73 1.19432 -1.39577 0
M  V30 20933 C 1941.79 -1.79632 -3.11404 0
M  V30 20934 C 1941.45 -3.28856 -3.17337 0
M  V30 20935 C 1942.45 -4.25367 -2.9893 0
M  V30 20936 C 1940.13 -3.69719 -3.40019 0
M  V30 20937 C 1942.13 -5.60718 -3.03108 0
M  V30 20938 C 1939.82 -5.05198 -3.43829 0
M  V30 20939 C 1940.81 -6.00507 -3.25393 0
M  V30 20940 O 1940.5 -7.33515 -3.28955 0
M  V30 20941 H 1940.23 -0.409225 -0.538062 0
M  V30 20942 H 1942.79 -1.69573 -1.15906 0
M  V30 20943 H 1941.02 -1.22091 -3.66921 0
M  V30 20944 H 1942.71 -1.63737 -3.7141 0
M  V30 20945 H 1943.47 -3.95132 -2.81239 0
M  V30 20946 H 1939.35 -2.96003 -3.53416 0
M  V30 20947 H 1942.9 -6.35087 -2.88636 0
M  V30 20948 H 1938.79 -5.35085 -3.61047 0
M  V30 20949 H 1939.56 -7.42074 -3.45352 0
M  V30 20950 N 1942.22 1.12672 -1.10194 0
M  V30 20951 C 1943.45 1.88496 -0.865112 0
M  V30 20952 C 1943.87 1.78977 0.578691 0
M  V30 20953 O 1943.23 1.14292 1.40737 0
M  V30 20954 C 1943.28 3.35768 -1.315 0
M  V30 20955 O 1942.38 4.09615 -0.478447 0
M  V30 20956 H 1941.72 0.585782 -0.312658 0
M  V30 20957 H 1944.25 1.42506 -1.46811 0
M  V30 20958 H 1944.26 3.86605 -1.30385 0
M  V30 20959 H 1942.94 3.42013 -2.36643 0
M  V30 20960 H 1941.52 3.68753 -0.554589 0
M  V30 20961 N 1943.7 0.89031 1.30043 0
M  V30 20962 C 1944.95 0.51145 1.95935 0
M  V30 20963 C 1945.28 -0.940438 1.70253 0
M  V30 20964 O 1944.53 -1.68041 1.00302 0
M  V30 20965 C 1944.83 0.739209 3.49672 0
M  V30 20966 C 1944.5 2.167 3.95413 0
M  V30 20967 C 1943.16 2.55743 4.07614 0
M  V30 20968 C 1945.51 3.09723 4.19191 0
M  V30 20969 C 1942.84 3.87008 4.40955 0
M  V30 20970 C 1945.19 4.40527 4.54003 0
M  V30 20971 C 1943.85 4.79455 4.64413 0
M  V30 20972 H 1943.12 0.187153 0.716976 0
M  V30 20973 H 1945.77 1.12718 1.54812 0
M  V30 20974 H 1944.08 0.0404857 3.91779 0
M  V30 20975 H 1945.77 0.425594 3.98735 0
M  V30 20976 H 1942.36 1.85396 3.86427 0
M  V30 20977 H 1946.55 2.80778 4.0924 0
M  V30 20978 H 1941.8 4.16903 4.47216 0
M  V30 20979 H 1945.98 5.1264 4.71352 0
M  V30 20980 H 1943.6 5.81206 4.90003 0
M  V30 20981 N 1945.18 -1.43489 0.651812 0
M  V30 20982 C 1946.41 -2.05882 0.172084 0
M  V30 20983 C 1946.82 -1.4893 -1.1669 0
M  V30 20984 O 1946.16 -0.614669 -1.73111 0
M  V30 20985 C 1946.22 -3.595 0.00499624 0
M  V30 20986 C 1945.89 -4.39026 1.26905 0
M  V30 20987 C 1946.88 -4.71177 2.19746 0
M  V30 20988 C 1944.57 -4.79058 1.51024 0
M  V30 20989 C 1946.56 -5.42267 3.35001 0
M  V30 20990 C 1944.25 -5.49893 2.66572 0
M  V30 20991 C 1945.25 -5.81419 3.58386 0
M  V30 20992 O 1944.94 -6.50807 4.71916 0
M  V30 20993 H 1944.67 -0.670436 0.0865532 0
M  V30 20994 H 1947.22 -1.85006 0.89229 0
M  V30 20995 H 1945.45 -3.78945 -0.770567 0
M  V30 20996 H 1947.14 -4.03596 -0.431912 0
M  V30 20997 H 1947.91 -4.4077 2.02354 0
M  V30 20998 H 1943.79 -4.53928 0.804408 0
M  V30 20999 H 1947.33 -5.66791 4.06686 0
M  V30 21000 H 1943.23 -5.79717 2.83899 0
M  V30 21001 H 1943.99 -6.69289 4.71163 0
M  V30 21002 N 1946.66 -0.393643 -1.52605 0
M  V30 21003 C 1947.91 0.186784 -2.01235 0
M  V30 21004 C 1948.23 1.46956 -1.28175 0
M  V30 21005 O 1947.5 1.91708 -0.403088 0
M  V30 21006 H 1946.08 0.0720137 -0.743521 0
M  V30 21007 H 1948.74 -0.52633 -1.87659 0
M  V30 21008 H 1947.83 0.393921 -3.09604 0
M  V30 21009 N 1948.14 1.57115 -0.123593 0
M  V30 21010 C 1949.36 2.00133 0.544196 0
M  V30 21011 C 1949.79 1.00282 1.59139 0
M  V30 21012 O 1949.14 -0.0248396 1.81283 0
M  V30 21013 C 1949.19 3.4201 1.14287 0
M  V30 21014 O 1948.3 3.45071 2.25832 0
M  V30 21015 H 1947.64 0.650029 0.135492 0
M  V30 21016 H 1950.17 2.03484 -0.213423 0
M  V30 21017 H 1950.18 3.80316 1.47728 0
M  V30 21018 H 1948.85 4.14198 0.375866 0
M  V30 21019 H 1947.43 3.18587 1.93795 0
M  V30 21020 N 1949.61 -0.150187 1.56883 0
M  V30 21021 C 1950.86 -0.86163 1.82812 0
M  V30 21022 C 1951.18 -1.81849 0.703977 0
M  V30 21023 O 1950.45 -1.93966 -0.274616 0
M  V30 21024 H 1949.03 -0.321175 0.67443 0
M  V30 21025 H 1951.69 -0.144952 1.9436 0
M  V30 21026 H 1950.79 -1.4258 2.77628 0
M  V30 21027 N 1951.09 -1.51916 -0.419434 0
M  V30 21028 C 1952.34 -1.65142 -1.16502 0
M  V30 21029 C 1952.66 -0.378632 -1.91289 0
M  V30 21030 O 1951.93 0.606164 -1.86286 0
M  V30 21031 H 1950.51 -0.608667 -0.433051 0
M  V30 21032 H 1953.17 -1.88919 -0.47914 0
M  V30 21033 H 1952.27 -2.48762 -1.88477 0
M  V30 21034 N 1952.57 0.676023 -1.42365 0
M  V30 21035 C 1953.8 1.46436 -1.46164 0
M  V30 21036 C 1954.21 1.8866 -0.0726092 0
M  V30 21037 O 1953.57 1.58056 0.912395 0
M  V30 21038 C 1953.62 2.71428 -2.38766 0
M  V30 21039 O 1953.34 2.30976 -3.72266 0
M  V30 21040 C 1954.84 3.65001 -2.51573 0
M  V30 21041 H 1952.06 0.450625 -0.49717 0
M  V30 21042 H 1954.61 0.830748 -1.86866 0
M  V30 21043 H 1952.76 3.30981 -2.01321 0
M  V30 21044 H 1953.18 3.11682 -4.21846 0
M  V30 21045 H 1954.65 4.49432 -3.20492 0
M  V30 21046 H 1955.13 4.10818 -1.55322 0
M  V30 21047 H 1955.73 3.11342 -2.89735 0
M  V30 21048 N 1954.05 1.28517 0.912209 0
M  V30 21049 C 1955.28 1.18443 1.69277 0
M  V30 21050 C 1955.69 -0.259286 1.87415 0
M  V30 21051 O 1955.03 -1.1869 1.40208 0
M  V30 21052 C 1955.09 1.81281 3.10447 0
M  V30 21053 C 1954.76 3.30534 3.15589 0
M  V30 21054 C 1955.75 4.26946 2.9667 0
M  V30 21055 C 1953.44 3.71517 3.38053 0
M  V30 21056 C 1955.43 5.62317 3.0013 0
M  V30 21057 C 1953.12 5.07014 3.41145 0
M  V30 21058 C 1954.12 6.02224 3.22204 0
M  V30 21059 O 1953.8 7.35249 3.2506 0
M  V30 21060 H 1953.54 0.412073 0.535885 0
M  V30 21061 H 1956.09 1.70185 1.15005 0
M  V30 21062 H 1954.32 1.24035 3.66268 0
M  V30 21063 H 1956.01 1.65704 3.70536 0
M  V30 21064 H 1956.78 3.96618 2.7914 0
M  V30 21065 H 1952.65 2.97873 3.51842 0
M  V30 21066 H 1956.2 6.36608 2.85264 0
M  V30 21067 H 1952.1 5.36992 3.58204 0
M  V30 21068 H 1952.86 7.43896 3.41411 0
M  V30 21069 N 1955.53 -1.12086 1.1079 0
M  V30 21070 C 1956.49 -2.16111 0.763446 0
M  V30 21071 C 1957.49 -1.59371 -0.213903 0
M  V30 21072 O 1958.68 -1.74197 0.00972099 0
M  V30 21073 C 1955.81 -3.40646 0.131488 0
M  V30 21074 H 1957 -2.48096 1.68489 0
M  V30 21075 H 1954.56 -1.27156 0.908896 0
M  V30 21076 H 1955.29 -3.14265 -0.800507 0
M  V30 21077 H 1955.08 -3.83108 0.834928 0
M  V30 21078 H 1956.57 -4.17495 -0.0936165 0
M  V30 21079 N 1957 -0.897194 -1.29569 0
M  V30 21080 C 1957.93 -0.389601 -2.30227 0
M  V30 21081 C 1958.92 0.53405 -1.61499 0
M  V30 21082 O 1960.1 0.44531 -1.89025 0
M  V30 21083 C 1957.23 0.385966 -3.45149 0
M  V30 21084 C 1956.18 -0.447028 -4.25659 0
M  V30 21085 C 1955.51 0.455883 -5.32753 0
M  V30 21086 C 1956.81 -1.69562 -4.9401 0
M  V30 21087 H 1958.5 -1.23077 -2.72933 0
M  V30 21088 H 1956.05 -0.593265 -1.31211 0
M  V30 21089 H 1958 0.751791 -4.1464 0
M  V30 21090 H 1956.73 1.26089 -3.01279 0
M  V30 21091 H 1955.39 -0.795152 -3.57873 0
M  V30 21092 H 1955.03 1.32887 -4.85129 0
M  V30 21093 H 1954.73 -0.0977528 -5.87519 0
M  V30 21094 H 1956.26 0.817956 -6.05097 0
M  V30 21095 H 1957.67 -1.39968 -5.55951 0
M  V30 21096 H 1956.07 -2.19039 -5.58697 0
M  V30 21097 H 1957.14 -2.43305 -4.19441 0
M  V30 21098 N 1958.48 1.43142 -0.659413 0
M  V30 21099 C 1959.71 2.06603 -0.181642 0
M  V30 21100 C 1960.13 1.49137 1.14629 0
M  V30 21101 O 1959.49 0.603739 1.70952 0
M  V30 21102 C 1959.54 3.6043 -0.110662 0
M  V30 21103 O 1958.64 4.01884 0.925344 0
M  V30 21104 H 1957.98 0.656771 -0.097712 0
M  V30 21105 H 1960.51 1.83541 -0.904086 0
M  V30 21106 H 1960.52 4.07939 0.0706089 0
M  V30 21107 H 1959.2 4.01632 -1.08002 0
M  V30 21108 H 1957.78 3.65954 0.716361 0
M  V30 21109 N 1959.96 0.40173 1.52394 0
M  V30 21110 C 1960.89 -0.41861 2.29717 0
M  V30 21111 C 1961.87 -1.05263 1.33618 0
M  V30 21112 O 1963.06 -1.06304 1.62521 0
M  V30 21113 C 1960.19 -1.5395 3.11314 0
M  V30 21114 C 1959.14 -1.03088 4.154 0
M  V30 21115 C 1958.47 -2.2448 4.85297 0
M  V30 21116 C 1959.77 -0.0900956 5.22222 0
M  V30 21117 H 1961.46 0.226577 2.98541 0
M  V30 21118 H 1959.01 0.110411 1.43576 0
M  V30 21119 H 1960.96 -2.12031 3.64171 0
M  V30 21120 H 1959.68 -2.21246 2.40246 0
M  V30 21121 H 1958.34 -0.472515 3.63542 0
M  V30 21122 H 1957.99 -2.90313 4.10764 0
M  V30 21123 H 1957.69 -1.91103 5.55656 0
M  V30 21124 H 1959.21 -2.83181 5.40963 0
M  V30 21125 H 1960.63 -0.579479 5.70364 0
M  V30 21126 H 1959.03 0.154505 5.99901 0
M  V30 21127 H 1960.1 0.857375 4.7726 0
M  V30 21128 N 1961.44 -1.57047 0.131923 0
M  V30 21129 C 1962.66 -2.00419 -0.533574 0
M  V30 21130 C 1963.09 -1.01125 -1.58605 0
M  V30 21131 O 1962.45 0.0152254 -1.81294 0
M  V30 21132 C 1962.49 -3.42611 -1.12472 0
M  V30 21133 O 1961.6 -3.46263 -2.23999 0
M  V30 21134 H 1960.94 -0.650739 -0.132043 0
M  V30 21135 H 1963.47 -2.03368 0.224211 0
M  V30 21136 H 1963.48 -3.81094 -1.45709 0
M  V30 21137 H 1962.15 -4.14392 -0.353895 0
M  V30 21138 H 1960.73 -3.1961 -1.92103 0
M  V30 21139 N 1962.92 0.141865 -1.5696 0
M  V30 21140 C 1963.85 1.20022 -1.95262 0
M  V30 21141 C 1964.86 1.38905 -0.849072 0
M  V30 21142 O 1966.05 1.38385 -1.12747 0
M  V30 21143 C 1963.15 2.56421 -2.21589 0
M  V30 21144 C 1962.32 2.58447 -3.52879 0
M  V30 21145 C 1961.38 3.76422 -3.67686 0
M  V30 21146 O 1960.41 3.61059 -4.40028 0
M  V30 21147 N 1961.61 4.94082 -3.04734 0
M  V30 21148 H 1964.38 0.87461 -2.86654 0
M  V30 21149 H 1961.94 0.331379 -1.58472 0
M  V30 21150 H 1963.93 3.33863 -2.28731 0
M  V30 21151 H 1962.5 2.81254 -1.36437 0
M  V30 21152 H 1961.72 1.66884 -3.57132 0
M  V30 21153 H 1963.01 2.56837 -4.39218 0
M  V30 21154 H 1962.4 5.09467 -2.45886 0
M  V30 21155 H 1960.96 5.69281 -3.1743 0
M  V30 21156 N 1964.39 1.52136 0.411372 0
M  V30 21157 C 1965.62 1.69684 1.1786 0
M  V30 21158 C 1966.03 0.404974 1.84815 0
M  V30 21159 O 1965.38 -0.62867 1.72608 0
M  V30 21160 C 1965.44 2.77473 2.2858 0
M  V30 21161 C 1965.1 4.19291 1.81779 0
M  V30 21162 C 1966.1 5.03208 1.3068 0
M  V30 21163 C 1963.78 4.65515 1.88681 0
M  V30 21164 C 1965.78 6.31421 0.871024 0
M  V30 21165 C 1963.46 5.93718 1.44715 0
M  V30 21166 C 1964.46 6.76499 0.940104 0
M  V30 21167 O 1964.15 8.02301 0.506777 0
M  V30 21168 H 1963.88 0.571996 0.360273 0
M  V30 21169 H 1966.44 1.9946 0.490399 0
M  V30 21170 H 1964.67 2.43068 3.00757 0
M  V30 21171 H 1966.36 2.83642 2.90348 0
M  V30 21172 H 1967.12 4.68689 1.24722 0
M  V30 21173 H 1963 4.01186 2.27091 0
M  V30 21174 H 1966.54 6.95984 0.474571 0
M  V30 21175 H 1962.44 6.27746 1.50351 0
M  V30 21176 H 1963.21 8.1607 0.630289 0
M  V30 21177 N 1965.87 -0.668464 1.42721 0
M  V30 21178 C 1966.82 -1.80311 1.46938 0
M  V30 21179 C 1967.82 -1.65861 0.344463 0
M  V30 21180 O 1969.02 -1.72392 0.517768 0
M  V30 21181 H 1965.4 -0.59464 0.460333 0
M  V30 21182 H 1967.37 -1.73872 2.4251 0
M  V30 21183 C 1966.12 -3.18498 1.3948 0
M  V30 21184 H 1965.44 -3.30246 2.25338 0
M  V30 21185 H 1966.88 -3.9789 1.46492 0
M  V30 21186 C 1965.34 -3.36719 0.110386 0
M  V30 21187 O 1965.87 -3.92939 -0.834354 0
M  V30 21188 N 1964.07 -2.90589 0.0254882 0
M  V30 21189 H 1963.62 -2.45023 0.795077 0
M  V30 21190 H 1963.58 -3.03158 -0.833236 0
M  V30 21191 N 1967.35 -1.28999 -0.905381 0
M  V30 21192 C 1968.28 -1.07966 -2.01044 0
M  V30 21193 C 1969.26 0.00678474 -1.62599 0
M  V30 21194 O 1970.45 -0.142798 -1.87958 0
M  V30 21195 C 1967.57 -0.642417 -3.32552 0
M  V30 21196 C 1966.62 -1.72673 -3.89982 0
M  V30 21197 S 1967.45 -3.32466 -4.19794 0
M  V30 21198 C 1968.61 -2.90596 -5.54351 0
M  V30 21199 H 1968.84 -2.01523 -2.18576 0
M  V30 21200 H 1966.37 -1.13081 -1.05128 0
M  V30 21201 H 1968.33 -0.396855 -4.08577 0
M  V30 21202 H 1966.99 0.273463 -3.12907 0
M  V30 21203 H 1966.19 -1.37261 -4.84949 0
M  V30 21204 H 1965.79 -1.92552 -3.20624 0
M  V30 21205 H 1968.08 -2.37288 -6.34587 0
M  V30 21206 H 1969.02 -3.84392 -5.94683 0
M  V30 21207 H 1969.43 -2.2906 -5.15938 0
M  V30 21208 N 1968.83 1.11497 -1.11383 0
M  V30 21209 C 1970.08 1.8286 -0.860611 0
M  V30 21210 C 1970.4 1.85032 0.615471 0
M  V30 21211 O 1969.67 1.32047 1.44708 0
M  V30 21212 H 1968.25 0.677153 -0.315392 0
M  V30 21213 H 1970.91 1.34963 -1.40609 0
M  V30 21214 H 1970.01 2.86743 -1.23227 0
M  V30 21215 N 1970.31 0.904053 1.29092 0
M  V30 21216 C 1971.56 0.528154 1.94662 0
M  V30 21217 C 1971.87 -0.930986 1.72023 0
M  V30 21218 O 1973.08 -1.4146 2.31735 0
M  V30 21219 C 1971.53 0.893684 3.48628 0
M  V30 21220 C 1971.14 2.37189 3.8006 0
M  V30 21221 C 1972.88 0.587904 4.20409 0
M  V30 21222 C 1970.79 2.67805 5.2729 0
M  V30 21223 H 1969.72 0.193795 0.72867 0
M  V30 21224 H 1972.37 1.10164 1.46752 0
M  V30 21225 H 1970.75 0.249078 3.95216 0
M  V30 21226 H 1971.93 3.06241 3.44315 0
M  V30 21227 H 1970.24 2.64714 3.21428 0
M  V30 21228 H 1972.84 0.793441 5.2878 0
M  V30 21229 H 1973.18 -0.473803 4.13595 0
M  V30 21230 H 1973.72 1.19054 3.79567 0
M  V30 21231 H 1970.45 3.72791 5.39172 0
M  V30 21232 H 1969.97 2.03381 5.64266 0
M  V30 21233 H 1971.65 2.543 5.94929 0
M  V30 21234 N 1971.79 -1.4279 0.666995 0
M  V30 21235 C 1972.73 -2.32583 -0.0279199 0
M  V30 21236 C 1973.73 -1.49387 -0.79874 0
M  V30 21237 O 1974.93 -1.65509 -0.707585 0
M  V30 21238 H 1971.31 -0.751485 -0.0278204 0
M  V30 21239 H 1973.28 -2.88901 0.746913 0
M  V30 21240 C 1972.03 -3.33869 -0.970921 0
M  V30 21241 H 1971.35 -3.9792 -0.387213 0
M  V30 21242 H 1972.79 -3.99301 -1.42599 0
M  V30 21243 C 1971.25 -2.65527 -2.07358 0
M  V30 21244 O 1971.78 -2.48123 -3.15908 0
M  V30 21245 N 1969.99 -2.24677 -1.84305 0
M  V30 21246 H 1969.53 -2.39032 -0.960283 0
M  V30 21247 H 1969.49 -1.79282 -2.58274 0
M  V30 21248 N 1973.26 -0.409806 -1.52179 0
M  V30 21249 C 1974.51 0.167113 -2.01007 0
M  V30 21250 C 1974.83 1.46166 -1.2998 0
M  V30 21251 O 1976.03 2.11988 -1.69628 0
M  V30 21252 C 1974.49 0.348367 -3.5821 0
M  V30 21253 C 1974.1 -0.934131 -4.38153 0
M  V30 21254 C 1975.84 0.880542 -4.15267 0
M  V30 21255 C 1973.75 -0.720028 -5.87 0
M  V30 21256 H 1972.68 0.0662269 -0.751086 0
M  V30 21257 H 1975.33 -0.535355 -1.75517 0
M  V30 21258 H 1973.71 1.11318 -3.80032 0
M  V30 21259 H 1974.88 -1.70515 -4.2809 0
M  V30 21260 H 1973.2 -1.39277 -3.92417 0
M  V30 21261 H 1975.8 1.05677 -5.24153 0
M  V30 21262 H 1976.14 1.85542 -3.72666 0
M  V30 21263 H 1976.67 0.174766 -3.97416 0
M  V30 21264 H 1973.41 -1.66649 -6.33963 0
M  V30 21265 H 1972.93 0.0116803 -5.99799 0
M  V30 21266 H 1974.61 -0.362471 -6.45984 0
M  V30 21267 N 1974.74 1.56975 -0.14025 0
M  V30 21268 C 1975.65 2.19981 0.815207 0
M  V30 21269 C 1976.67 1.18211 1.2768 0
M  V30 21270 O 1977.84 1.50762 1.33539 0
M  V30 21271 C 1974.91 2.80369 2.03946 0
M  V30 21272 C 1973.97 3.97244 1.62774 0
M  V30 21273 C 1973.2 4.54744 2.79363 0
M  V30 21274 O 1973.43 4.11124 3.9539 0
M  V30 21275 O 1972.36 5.45109 2.55224 0
M  V30 21276 H 1976.19 3.02125 0.308908 0
M  V30 21277 H 1973.77 1.4915 0.0864409 0
M  V30 21278 H 1975.65 3.18778 2.75606 0
M  V30 21279 H 1974.33 2.01243 2.53541 0
M  V30 21280 H 1973.23 3.63564 0.88158 0
M  V30 21281 H 1974.57 4.7787 1.17901 0
M  V30 21282 N 1976.22 -0.133539 1.57033 0
M  V30 21283 C 1977.15 -1.16595 2.02306 0
M  V30 21284 C 1978.13 -1.44031 0.904933 0
M  V30 21285 O 1979.32 -1.54721 1.17367 0
M  V30 21286 C 1976.45 -2.49581 2.41509 0
M  V30 21287 C 1975.4 -2.36639 3.56631 0
M  V30 21288 C 1974.73 -3.74457 3.81688 0
M  V30 21289 C 1976.03 -1.83912 4.88849 0
M  V30 21290 H 1977.72 -0.789456 2.88804 0
M  V30 21291 H 1975.27 -0.378309 1.38942 0
M  V30 21292 H 1977.22 -3.22043 2.71783 0
M  V30 21293 H 1975.94 -2.89093 1.51964 0
M  V30 21294 H 1974.6 -1.66628 3.26544 0
M  V30 21295 H 1974.25 -4.11428 2.89372 0
M  V30 21296 H 1973.95 -3.66655 4.59171 0
M  V30 21297 H 1975.47 -4.48446 4.14401 0
M  V30 21298 H 1976.89 -2.46178 5.17754 0
M  V30 21299 H 1975.28 -1.86967 5.70231 0
M  V30 21300 H 1976.35 -0.795669 4.78327 0
M  V30 21301 N 1977.7 -1.52352 -0.403298 0
M  V30 21302 C 1978.92 -1.70849 -1.17582 0
M  V30 21303 C 1979.35 -0.419696 -1.83358 0
M  V30 21304 O 1978.71 0.623346 -1.70247 0
M  V30 21305 C 1978.75 -2.8492 -2.21027 0
M  V30 21306 O 1977.86 -2.50896 -3.273 0
M  V30 21307 H 1977.2 -0.568568 -0.342967 0
M  V30 21308 H 1979.73 -1.99082 -0.471975 0
M  V30 21309 H 1979.74 -3.10002 -2.6526 0
M  V30 21310 H 1978.41 -3.78423 -1.72536 0
M  V30 21311 H 1976.99 -2.36506 -2.88304 0
M  V30 21312 N 1979.18 0.660885 -1.43074 0
M  V30 21313 C 1980.09 1.80324 -1.50068 0
M  V30 21314 C 1981.1 1.69611 -0.388331 0
M  V30 21315 O 1982.28 1.90916 -0.641321 0
M  V30 21316 C 1979.34 3.16557 -1.41394 0
M  V30 21317 C 1978.4 3.39124 -2.63236 0
M  V30 21318 C 1977.64 4.68858 -2.54967 0
M  V30 21319 O 1977.86 5.47699 -1.59318 0
M  V30 21320 O 1976.79 4.92975 -3.45339 0
M  V30 21321 H 1980.62 1.77379 -2.46516 0
M  V30 21322 H 1978.2 0.8184 -1.2499 0
M  V30 21323 H 1980.09 3.97825 -1.38971 0
M  V30 21324 H 1978.76 3.2011 -0.480768 0
M  V30 21325 H 1977.67 2.5765 -2.71233 0
M  V30 21326 H 1979 3.40413 -3.555 0
M  V30 21327 N 1980.65 1.29477 0.898527 0
M  V30 21328 C 1981.88 1.20529 1.68783 0
M  V30 21329 C 1982.3 -0.230536 1.86682 0
M  V30 21330 O 1981.66 -1.1664 1.38798 0
M  V30 21331 C 1981.71 1.92501 3.04919 0
M  V30 21332 O 1980.81 1.24286 3.93226 0
M  V30 21333 H 1980.16 0.417586 0.516254 0
M  V30 21334 H 1982.69 1.71066 1.1224 0
M  V30 21335 H 1982.7 2.01001 3.55053 0
M  V30 21336 H 1981.37 2.96934 2.9121 0
M  V30 21337 H 1979.95 1.24052 3.51661 0
M  V30 21338 N 1982.13 -1.10905 1.11972 0
M  V30 21339 C 1983.41 -1.79218 0.783601 0
M  V30 21340 C 1983.79 -1.9817 -0.727451 0
M  V30 21341 O 1983.14 -1.57084 -1.65942 0
M  V30 21342 C 1983.35 -3.12538 1.55309 0
M  V30 21343 C 1984.7 -3.87492 1.73595 0
M  V30 21344 O 1985.72 -3.22244 1.5178 0
M  V30 21345 O 1984.58 -5.04588 2.09887 0
M  V30 21346 H 1981.67 -0.776524 0.284498 0
M  V30 21347 H 1984.22 -1.17598 1.22347 0
M  V30 21348 H 1982.99 -2.94133 2.58072 0
M  V30 21349 H 1982.61 -3.81874 1.10714 0
M  V30 21350 N 1983.61 -0.910886 -1.2861 0
M  V30 21351 C 1984.86 -0.543361 -1.95385 0
M  V30 21352 C 1985.19 0.910109 -1.71554 0
M  V30 21353 O 1984.46 1.64684 -1.03487 0
M  V30 21354 C 1984.75 -0.849821 -3.49929 0
M  V30 21355 C 1984.6 -2.35581 -3.83173 0
M  V30 21356 C 1985.92 -0.343997 -4.38754 0
M  V30 21357 H 1983.04 -0.198884 -0.709658 0
M  V30 21358 H 1985.68 -1.13961 -1.52029 0
M  V30 21359 H 1983.83 -0.34238 -3.86988 0
M  V30 21360 H 1985.5 -2.93365 -3.55998 0
M  V30 21361 H 1983.75 -2.81197 -3.30319 0
M  V30 21362 H 1984.42 -2.52079 -4.9108 0
M  V30 21363 H 1986.89 -0.778662 -4.08749 0
M  V30 21364 H 1985.77 -0.58753 -5.45747 0
M  V30 21365 H 1986.03 0.755609 -4.35595 0
M  V30 21366 N 1985.09 1.42434 -0.674558 0
M  V30 21367 C 1986.33 2.02357 -0.205691 0
M  V30 21368 C 1986.69 1.52383 1.17462 0
M  V30 21369 O 1985.98 0.716189 1.77711 0
M  V30 21370 C 1986.18 3.56948 -0.179695 0
M  V30 21371 C 1986.01 4.21925 -1.55594 0
M  V30 21372 C 1984.78 4.57107 -2.15364 0
M  V30 21373 C 1986.97 4.49529 -2.49857 0
M  V30 21374 N 1984.96 5.07262 -3.45772 0
M  V30 21375 C 1986.33 5.01233 -3.64919 0
M  V30 21376 C 1988.38 4.31517 -2.4839 0
M  V30 21377 C 1987.08 5.36819 -4.78767 0
M  V30 21378 C 1989.11 4.68179 -3.61334 0
M  V30 21379 C 1988.47 5.20035 -4.75124 0
M  V30 21380 H 1984.57 0.772709 -0.120184 0
M  V30 21381 H 1987.16 1.73296 -0.887492 0
M  V30 21382 H 1985.33 3.85527 0.471518 0
M  V30 21383 H 1987.06 4.03571 0.302032 0
M  V30 21384 H 1983.81 4.42856 -1.67856 0
M  V30 21385 H 1984.24 5.3677 -4.12562 0
M  V30 21386 H 1988.88 3.90681 -1.61642 0
M  V30 21387 H 1986.6 5.76588 -5.6619 0
M  V30 21388 H 1990.18 4.55919 -3.61426 0
M  V30 21389 H 1989.06 5.47875 -5.61073 0
M  V30 21390 N 1986.57 0.417871 1.51959 0
M  V30 21391 C 1987.82 -0.156451 2.01092 0
M  V30 21392 C 1988.13 -1.45475 1.30753 0
M  V30 21393 O 1989.33 -2.11085 1.70749 0
M  V30 21394 C 1987.79 -0.329366 3.5839 0
M  V30 21395 C 1987.4 0.957354 4.37651 0
M  V30 21396 C 1989.14 -0.858507 4.15728 0
M  V30 21397 C 1987.05 0.751148 5.8661 0
M  V30 21398 H 1985.98 -0.0622427 0.751427 0
M  V30 21399 H 1988.63 0.544656 1.75231 0
M  V30 21400 H 1987.01 -1.09301 3.80617 0
M  V30 21401 H 1988.19 1.72783 4.2718 0
M  V30 21402 H 1986.5 1.41356 3.91673 0
M  V30 21403 H 1989.1 -1.02896 5.24706 0
M  V30 21404 H 1989.44 -1.83563 3.73645 0
M  V30 21405 H 1989.97 -0.153688 3.97503 0
M  V30 21406 H 1986.71 1.70008 6.3307 0
M  V30 21407 H 1986.23 0.0201287 5.99797 0
M  V30 21408 H 1987.91 0.396724 6.45783 0
M  V30 21409 N 1988.04 -1.56898 0.148573 0
M  V30 21410 C 1989.29 -1.9535 -0.502116 0
M  V30 21411 C 1989.61 -1.03603 -1.65909 0
M  V30 21412 O 1990.81 -1.31641 -2.37451 0
M  V30 21413 C 1989.27 -3.47281 -0.944653 0
M  V30 21414 C 1988.88 -4.47616 0.185474 0
M  V30 21415 C 1990.62 -3.94597 -1.56504 0
M  V30 21416 C 1988.53 -5.90758 -0.27542 0
M  V30 21417 H 1987.46 -0.729315 -0.191351 0
M  V30 21418 H 1990.11 -1.82013 0.233169 0
M  V30 21419 H 1988.49 -3.55957 -1.73525 0
M  V30 21420 H 1989.66 -4.50637 0.962441 0
M  V30 21421 H 1987.98 -4.10226 0.714373 0
M  V30 21422 H 1990.58 -4.9898 -1.92153 0
M  V30 21423 H 1990.92 -3.36238 -2.45459 0
M  V30 21424 H 1991.45 -3.88845 -0.839319 0
M  V30 21425 H 1988.19 -6.5294 0.578787 0
M  V30 21426 H 1987.71 -5.91094 -1.01823 0
M  V30 21427 H 1989.39 -6.42904 -0.726905 0
M  V30 21428 N 1989.52 0.125209 -1.57102 0
M  V30 21429 C 1990.8 0.864033 -1.75482 0
M  V30 21430 C 1991.18 1.98355 -0.722399 0
M  V30 21431 O 1990.53 2.27075 0.254784 0
M  V30 21432 C 1990.74 1.38644 -3.20279 0
M  V30 21433 C 1992.09 1.84125 -3.82601 0
M  V30 21434 O 1993.11 1.48338 -3.23843 0
M  V30 21435 O 1991.97 2.50194 -4.85866 0
M  V30 21436 H 1989.06 0.409865 -0.718289 0
M  V30 21437 H 1991.61 0.109434 -1.69347 0
M  V30 21438 H 1990.38 0.582938 -3.86933 0
M  V30 21439 H 1990 2.20393 -3.30927 0
M  V30 21440 N 1991 1.52564 0.395213 0
M  V30 21441 C 1992.25 1.67552 1.14254 0
M  V30 21442 C 1992.58 0.411135 1.89798 0
M  V30 21443 O 1991.85 -0.590891 1.85307 0
M  V30 21444 C 1992.14 2.90657 2.1258 0
M  V30 21445 C 1991.99 4.27181 1.40841 0
M  V30 21446 C 1993.31 3.09301 3.13083 0
M  V30 21447 H 1990.43 0.609735 0.413995 0
M  V30 21448 H 1993.07 1.85148 0.426634 0
M  V30 21449 H 1991.22 2.75787 2.73631 0
M  V30 21450 H 1992.89 4.53808 0.82802 0
M  V30 21451 H 1991.14 4.27946 0.71028 0
M  V30 21452 H 1991.81 5.09393 2.12656 0
M  V30 21453 H 1994.28 3.23162 2.62118 0
M  V30 21454 H 1993.16 3.96925 3.79133 0
M  V30 21455 H 1993.42 2.23237 3.81599 0
M  V30 21456 N 1992.48 -0.653289 1.43422 0
M  V30 21457 C 1993.76 -1.41051 1.35513 0
M  V30 21458 C 1994.14 -2.111 0.00290798 0
M  V30 21459 O 1993.48 -2.04786 -1.01365 0
M  V30 21460 C 1993.69 -2.39526 2.53827 0
M  V30 21461 C 1995.04 -3.03528 2.96911 0
M  V30 21462 O 1996.07 -2.49854 2.53873 0
M  V30 21463 O 1994.92 -4.00843 3.71466 0
M  V30 21464 H 1992.02 -0.630186 0.535532 0
M  V30 21465 H 1994.56 -0.680203 1.55471 0
M  V30 21466 H 1993.34 -1.86712 3.43881 0
M  V30 21467 H 1992.96 -3.20007 2.35968 0
M  V30 21468 N 1993.96 -1.29952 -0.891648 0
M  V30 21469 C 1994.9 -1.15662 -2.01805 0
M  V30 21470 C 1995.9 -0.0701689 -1.69255 0
M  V30 21471 O 1997.1 -0.230546 -1.78517 0
M  V30 21472 H 1993.48 -0.357511 -0.661581 0
M  V30 21473 H 1995.45 -2.11008 -2.10993 0
M  V30 21474 C 1994.2 -0.858316 -3.36939 0
M  V30 21475 H 1993.52 -1.68637 -3.62494 0
M  V30 21476 H 1994.96 -0.798404 -4.16415 0
M  V30 21477 C 1993.42 0.438629 -3.34032 0
M  V30 21478 O 1993.95 1.46221 -3.74142 0
M  V30 21479 N 1992.16 0.447383 -2.87136 0
M  V30 21480 H 1991.7 -0.386058 -2.54691 0
M  V30 21481 H 1991.66 1.31512 -2.85573 0
M  V30 21482 N 1995.44 1.1031 -1.12559 0
M  V30 21483 C 1996.68 1.82567 -0.883005 0
M  V30 21484 C 1997.01 1.85031 0.589667 0
M  V30 21485 O 1996.29 1.3119 1.43595 0
M  V30 21486 C 1996.57 3.29171 -1.46009 0
M  V30 21487 C 1996.43 3.35032 -3.00122 0
M  V30 21488 C 1997.74 4.25591 -1.12073 0
M  V30 21489 H 1994.86 0.662829 -0.322221 0
M  V30 21490 H 1997.51 1.29276 -1.3924 0
M  V30 21491 H 1995.66 3.74684 -1.02685 0
M  V30 21492 H 1997.33 2.9799 -3.52135 0
M  V30 21493 H 1995.57 2.74892 -3.35584 0
M  V30 21494 H 1996.24 4.3827 -3.35595 0
M  V30 21495 H 1998.72 3.88318 -1.49494 0
M  V30 21496 H 1997.59 5.26528 -1.55112 0
M  V30 21497 H 1997.85 4.42088 -0.0331138 0
M  V30 21498 N 1996.91 0.917694 1.28125 0
M  V30 21499 C 1998.16 0.553715 1.95094 0
M  V30 21500 C 1998.49 -0.900999 1.72034 0
M  V30 21501 O 1997.77 -1.64132 1.04359 0
M  V30 21502 C 1998.05 0.868367 3.49473 0
M  V30 21503 C 1997.9 2.3761 3.81918 0
M  V30 21504 C 1999.22 0.367261 4.38565 0
M  V30 21505 H 1996.34 0.202644 0.708593 0
M  V30 21506 H 1998.98 1.14765 1.51423 0
M  V30 21507 H 1997.13 0.362898 3.86801 0
M  V30 21508 H 1998.81 2.95249 3.54437 0
M  V30 21509 H 1997.05 2.82945 3.28823 0
M  V30 21510 H 1997.72 2.5468 4.89737 0
M  V30 21511 H 2000.2 0.800328 4.08331 0
M  V30 21512 H 1999.07 0.616464 5.45427 0
M  V30 21513 H 1999.33 -0.732497 4.3599 0
M  V30 21514 N 1998.39 -1.42074 0.682102 0
M  V30 21515 C 1999.81 -1.55662 0.352347 0
M  V30 21516 C 2000.01 -1.66032 -1.14174 0
M  V30 21517 O 1999.06 -1.63128 -1.92732 0
M  V30 21518 C 2000.38 -2.80285 1.08907 0
M  V30 21519 C 2001.92 -2.94066 1.0721 0
M  V30 21520 C 2002.4 -4.2156 1.7903 0
M  V30 21521 N 2003.89 -4.28488 1.75933 0
M  V30 21522 C 2004.63 -5.25968 2.28354 0
M  V30 21523 N 2004.12 -6.29557 2.89188 0
M  V30 21524 N 2005.91 -5.17815 2.18686 0
M  V30 21525 H 1998.07 -1.33588 1.65131 0
M  V30 21526 H 2000.33 -0.643549 0.696096 0
M  V30 21527 H 2000.03 -2.78786 2.14409 0
M  V30 21528 H 1999.91 -3.71399 0.658975 0
M  V30 21529 H 2002.3 -2.95089 0.0253867 0
M  V30 21530 H 2002.38 -2.04163 1.54114 0
M  V30 21531 H 2002.02 -4.21298 2.83673 0
M  V30 21532 H 2001.95 -5.10411 1.2957 0
M  V30 21533 H 2004.44 -3.54257 1.31568 0
M  V30 21534 H 2004.75 -7.00306 3.26789 0
M  V30 21535 H 2003.1 -6.30098 2.9326 0
M  V30 21536 H 2006.29 -4.3581 1.70843 0
M  V30 21537 H 2006.46 -5.9362 2.59845 0
M  V30 21538 N 1999.87 -0.425924 -1.51735 0
M  V30 21539 C 2001.15 0.203721 -1.94536 0
M  V30 21540 C 2001.53 1.61124 -1.3639 0
M  V30 21541 O 2000.87 2.21871 -0.54638 0
M  V30 21542 C 2001.08 0.193041 -3.48466 0
M  V30 21543 C 2002.43 0.404204 -4.22672 0
M  V30 21544 O 2003.46 0.271662 -3.55163 0
M  V30 21545 O 2002.32 0.666926 -5.42415 0
M  V30 21546 H 1999.41 0.136115 -0.815722 0
M  V30 21547 H 2001.96 -0.48308 -1.62679 0
M  V30 21548 H 2000.73 -0.791421 -3.83213 0
M  V30 21549 H 2000.35 0.923235 -3.86733 0
M  V30 21550 N 2001.35 1.56817 -0.156891 0
M  V30 21551 C 2002.59 1.9673 0.492464 0
M  V30 21552 C 2002.93 1.04226 1.63862 0
M  V30 21553 O 2002.2 0.0865469 1.94307 0
M  V30 21554 C 2002.48 3.46246 0.989218 0
M  V30 21555 C 2002.34 4.49529 -0.156119 0
M  V30 21556 C 2003.66 3.98502 1.86773 0
M  V30 21557 H 2000.78 0.715297 0.177537 0
M  V30 21558 H 2003.42 1.88477 -0.240116 0
M  V30 21559 H 2001.57 3.53411 1.61348 0
M  V30 21560 H 2003.24 4.54437 -0.792781 0
M  V30 21561 H 2001.48 4.26098 -0.813797 0
M  V30 21562 H 2002.15 5.51507 0.233341 0
M  V30 21563 H 2004.63 3.93879 1.34159 0
M  V30 21564 H 2003.51 5.03564 2.18436 0
M  V30 21565 H 2003.77 3.4145 2.80828 0
M  V30 21566 N 2002.83 -0.116876 1.57166 0
M  V30 21567 C 2004.05 -0.838417 1.89151 0
M  V30 21568 C 2004.47 -1.73335 0.748361 0
M  V30 21569 O 2003.83 -1.80328 -0.280719 0
M  V30 21570 C 2003.88 -1.67006 3.20611 0
M  V30 21571 O 2003.6 -0.811158 4.30525 0
M  V30 21572 C 2005.1 -2.49657 3.66314 0
M  V30 21573 H 2002.32 -0.240909 0.626262 0
M  V30 21574 H 2004.86 -0.100631 2.04252 0
M  V30 21575 H 2003.02 -2.36058 3.07173 0
M  V30 21576 H 2003.43 -1.38499 5.05884 0
M  V30 21577 H 2004.91 -3.03537 4.61052 0
M  V30 21578 H 2005.38 -3.27114 2.93075 0
M  V30 21579 H 2005.99 -1.85844 3.82547 0
M  V30 21580 N 2004.3 -1.52772 -0.387116 0
M  V30 21581 C 2005.55 -1.67131 -1.12916 0
M  V30 21582 C 2005.87 -0.418501 -1.9107 0
M  V30 21583 O 2007.07 -0.442261 -2.67874 0
M  V30 21584 C 2005.53 -2.95368 -2.05635 0
M  V30 21585 C 2005.14 -4.27835 -1.32895 0
M  V30 21586 C 2006.88 -3.19093 -2.79964 0
M  V30 21587 C 2004.79 -5.47177 -2.2439 0
M  V30 21588 H 2003.72 -0.622655 -0.425225 0
M  V30 21589 H 2006.37 -1.79268 -0.391801 0
M  V30 21590 H 2004.75 -2.76981 -2.83015 0
M  V30 21591 H 2005.92 -4.56781 -0.607276 0
M  V30 21592 H 2004.24 -4.10385 -0.705181 0
M  V30 21593 H 2006.84 -4.05436 -3.48605 0
M  V30 21594 H 2007.18 -2.34244 -3.44145 0
M  V30 21595 H 2007.71 -3.38054 -2.09676 0
M  V30 21596 H 2004.45 -6.3444 -1.64822 0
M  V30 21597 H 2003.97 -5.22541 -2.94468 0
M  V30 21598 H 2005.65 -5.81126 -2.84432 0
M  V30 21599 N 2005.78 0.645673 -1.43767 0
M  V30 21600 C 2006.69 1.78723 -1.51972 0
M  V30 21601 C 2007.71 1.6919 -0.406299 0
M  V30 21602 O 2008.88 1.90225 -0.661534 0
M  V30 21603 C 2005.95 3.1504 -1.44744 0
M  V30 21604 C 2005.01 3.36313 -2.66818 0
M  V30 21605 C 2004.24 4.66127 -2.59926 0
M  V30 21606 O 2004.47 5.45978 -1.65118 0
M  V30 21607 O 2003.4 4.89285 -3.50548 0
M  V30 21608 H 2007.23 1.74755 -2.48384 0
M  V30 21609 H 2004.81 0.805097 -1.25851 0
M  V30 21610 H 2006.69 3.96329 -1.43182 0
M  V30 21611 H 2005.37 3.19582 -0.514693 0
M  V30 21612 H 2004.27 2.54759 -2.7395 0
M  V30 21613 H 2005.61 3.36623 -3.5909 0
M  V30 21614 N 2007.26 1.30423 0.884744 0
M  V30 21615 C 2008.48 1.22312 1.67495 0
M  V30 21616 C 2008.91 -0.210723 1.86916 0
M  V30 21617 O 2008.27 -1.15161 1.40027 0
M  V30 21618 C 2008.32 1.95725 3.0286 0
M  V30 21619 O 2007.42 1.28449 3.91886 0
M  V30 21620 H 2006.76 0.423038 0.511796 0
M  V30 21621 H 2009.29 1.72246 1.10419 0
M  V30 21622 H 2009.3 2.04755 3.52901 0
M  V30 21623 H 2007.98 3.00006 2.88044 0
M  V30 21624 H 2006.55 1.27775 3.50326 0
M  V30 21625 N 2008.74 -1.09711 1.13142 0
M  V30 21626 C 2010.01 -1.78377 0.802565 0
M  V30 21627 C 2010.39 -1.9893 -0.706392 0
M  V30 21628 O 2009.74 -1.58835 -1.64267 0
M  V30 21629 C 2009.95 -3.10873 1.58615 0
M  V30 21630 C 2011.3 -3.85629 1.77695 0
M  V30 21631 O 2012.32 -3.20616 1.55189 0
M  V30 21632 O 2011.18 -5.02334 2.15228 0
M  V30 21633 H 2008.28 -0.773463 0.292718 0
M  V30 21634 H 2010.82 -1.16294 1.23587 0
M  V30 21635 H 2009.6 -2.9138 2.61177 0
M  V30 21636 H 2009.22 -3.80679 1.14758 0
M  V30 21637 N 2010.22 -0.924476 -1.27637 0
M  V30 21638 C 2011.16 -0.41967 -2.26952 0
M  V30 21639 C 2012.13 0.511683 -1.58022 0
M  V30 21640 O 2013.32 0.431544 -1.85856 0
M  V30 21641 C 2010.46 0.324433 -3.43572 0
M  V30 21642 C 2009.57 -0.640659 -4.27223 0
M  V30 21643 C 2008.71 0.122963 -5.31058 0
M  V30 21644 C 2007.75 -0.835045 -6.06377 0
M  V30 21645 N 2006.88 -0.104257 -7.02023 0
M  V30 21646 H 2011.72 -1.27159 -2.69508 0
M  V30 21647 H 2009.26 -0.63831 -1.32529 0
M  V30 21648 H 2011.22 0.772141 -4.09992 0
M  V30 21649 H 2009.85 1.14062 -3.01976 0
M  V30 21650 H 2008.9 -1.2069 -3.60747 0
M  V30 21651 H 2010.21 -1.37295 -4.79533 0
M  V30 21652 H 2009.37 0.630738 -6.03412 0
M  V30 21653 H 2008.1 0.888238 -4.79543 0
M  V30 21654 H 2007.11 -1.3541 -5.32864 0
M  V30 21655 H 2008.33 -1.60005 -6.59981 0
M  V30 21656 H 2006.28 0.642832 -6.52843 0
M  V30 21657 H 2006.2 -0.776174 -7.52005 0
M  V30 21658 H 2007.47 0.382972 -7.78559 0
M  V30 21659 N 2011.69 1.41711 -0.689627 0
M  V30 21660 C 2012.94 2.00548 -0.215219 0
M  V30 21661 C 2013.26 1.55228 1.19011 0
M  V30 21662 O 2014.46 2.06585 1.76167 0
M  V30 21663 C 2012.92 3.58348 -0.333888 0
M  V30 21664 C 2012.53 4.12652 -1.74421 0
M  V30 21665 C 2014.27 4.24423 0.0810486 0
M  V30 21666 C 2012.18 5.62865 -1.81485 0
M  V30 21667 H 2011.11 0.750088 -0.0767043 0
M  V30 21668 H 2013.76 1.6226 -0.856963 0
M  V30 21669 H 2012.14 3.94211 0.376004 0
M  V30 21670 H 2013.31 3.8822 -2.48238 0
M  V30 21671 H 2011.63 3.59082 -2.1083 0
M  V30 21672 H 2014.23 5.34678 0.0486243 0
M  V30 21673 H 2014.57 4.00984 1.1188 0
M  V30 21674 H 2015.1 3.93573 -0.578357 0
M  V30 21675 H 2011.84 5.91122 -2.83292 0
M  V30 21676 H 2011.36 5.89242 -1.12044 0
M  V30 21677 H 2013.04 6.27536 -1.57503 0
M  V30 21678 N 2013.17 0.433965 1.51507 0
M  V30 21679 C 2014.12 -0.37918 2.27664 0
M  V30 21680 C 2015.09 -1.01975 1.31112 0
M  V30 21681 O 2016.27 -1.0393 1.6001 0
M  V30 21682 C 2013.41 -1.47628 3.1193 0
M  V30 21683 C 2012.53 -0.854176 4.23471 0
M  V30 21684 C 2011.66 -1.92604 4.95053 0
M  V30 21685 C 2010.7 -1.28219 5.9852 0
M  V30 21686 N 2009.84 -2.29527 6.63522 0
M  V30 21687 H 2014.68 0.276629 2.96713 0
M  V30 21688 H 2012.22 0.148264 1.46351 0
M  V30 21689 H 2014.17 -2.1236 3.59109 0
M  V30 21690 H 2012.8 -2.10176 2.45002 0
M  V30 21691 H 2011.86 -0.0952329 3.80281 0
M  V30 21692 H 2013.17 -0.344086 4.97612 0
M  V30 21693 H 2012.32 -2.65006 5.45762 0
M  V30 21694 H 2011.06 -2.46985 4.20535 0
M  V30 21695 H 2010.07 -0.543619 5.47106 0
M  V30 21696 H 2011.29 -0.745758 6.74993 0
M  V30 21697 H 2009.24 -2.82995 5.91819 0
M  V30 21698 H 2009.15 -1.834 7.33417 0
M  V30 21699 H 2010.42 -3.01423 7.18863 0
M  V30 21700 N 2014.65 -1.56732 0.165206 0
M  V30 21701 C 2015.6 -2.17666 -0.767471 0
M  V30 21702 C 2016.57 -1.11485 -1.23127 0
M  V30 21703 O 2017.75 -1.39609 -1.30054 0
M  V30 21704 C 2014.89 -2.81673 -1.99385 0
M  V30 21705 C 2014.01 -4.02298 -1.57418 0
M  V30 21706 C 2013.14 -4.54249 -2.75375 0
M  V30 21707 C 2012.18 -5.67298 -2.29869 0
M  V30 21708 N 2011.32 -6.13786 -3.40898 0
M  V30 21709 H 2016.16 -2.97023 -0.24106 0
M  V30 21710 H 2013.69 -1.46708 -0.10726 0
M  V30 21711 H 2015.65 -3.16937 -2.71306 0
M  V30 21712 H 2014.28 -2.0493 -2.49407 0
M  V30 21713 H 2013.33 -3.72894 -0.75194 0
M  V30 21714 H 2014.65 -4.84148 -1.2001 0
M  V30 21715 H 2013.8 -4.91663 -3.55461 0
M  V30 21716 H 2012.54 -3.71444 -3.16039 0
M  V30 21717 H 2011.54 -5.29442 -1.48228 0
M  V30 21718 H 2012.77 -6.519 -1.9027 0
M  V30 21719 H 2010.71 -5.33911 -3.81149 0
M  V30 21720 H 2010.63 -6.90609 -3.07563 0
M  V30 21721 H 2011.9 -6.55849 -4.21287 0
M  V30 21722 N 2016.13 0.10854 -1.57226 0
M  V30 21723 C 2017.38 0.812858 -1.85033 0
M  V30 21724 C 2017.7 1.79919 -0.751944 0
M  V30 21725 O 2016.97 1.94626 0.223093 0
M  V30 21726 H 2015.55 0.303181 -0.682708 0
M  V30 21727 H 2018.21 0.0933699 -1.94676 0
M  V30 21728 H 2017.31 1.35169 -2.81311 0
M  V30 21729 N 2017.61 1.52975 0.379009 0
M  V30 21730 C 2018.88 1.59096 1.13789 0
M  V30 21731 C 2019.26 0.390236 2.07462 0
M  V30 21732 O 2018.61 -0.620644 2.1991 0
M  V30 21733 C 2018.82 2.93471 1.8888 0
M  V30 21734 C 2020.17 3.47567 2.43889 0
M  V30 21735 O 2021.19 2.95411 1.99024 0
M  V30 21736 O 2020.05 4.38714 3.25871 0
M  V30 21737 H 2017.15 0.64208 0.521213 0
M  V30 21738 H 2019.69 1.65313 0.383355 0
M  V30 21739 H 2018.46 3.72304 1.20438 0
M  V30 21740 H 2018.09 2.90684 2.71272 0
M  V30 21741 N 2019.08 -0.63804 1.44107 0
M  V30 21742 C 2020.01 -1.76164 1.5326 0
M  V30 21743 C 2021 -1.6566 0.386107 0
M  V30 21744 O 2022.18 -1.84525 0.605326 0
M  V30 21745 C 2019.31 -3.14665 1.4698 0
M  V30 21746 C 2018.26 -3.39949 2.60035 0
M  V30 21747 C 2017.59 -4.78409 2.38808 0
M  V30 21748 C 2018.89 -3.33193 4.02219 0
M  V30 21749 H 2020.58 -1.6876 2.47306 0
M  V30 21750 H 2018.13 -0.810483 1.19026 0
M  V30 21751 H 2020.08 -3.93037 1.51986 0
M  V30 21752 H 2018.81 -3.22835 0.494471 0
M  V30 21753 H 2017.47 -2.63955 2.54408 0
M  V30 21754 H 2017.11 -4.83274 1.39483 0
M  V30 21755 H 2016.81 -4.96285 3.14602 0
M  V30 21756 H 2018.34 -5.5902 2.4562 0
M  V30 21757 H 2019.75 -4.0148 4.09252 0
M  V30 21758 H 2018.15 -3.62605 4.78161 0
M  V30 21759 H 2019.22 -2.31116 4.26279 0
M  V30 21760 N 2020.56 -1.3089 -0.877815 0
M  V30 21761 C 2021.81 -1.19488 -1.62498 0
M  V30 21762 C 2022.12 0.247666 -1.94026 0
M  V30 21763 O 2023.33 0.483286 -2.67164 0
M  V30 21764 C 2021.79 -2.09126 -2.92906 0
M  V30 21765 C 2021.39 -3.58331 -2.68891 0
M  V30 21766 C 2023.14 -2.06505 -3.70885 0
M  V30 21767 C 2021.05 -4.40003 -3.9516 0
M  V30 21768 H 2019.98 -0.44363 -0.609679 0
M  V30 21769 H 2022.63 -1.5569 -0.971235 0
M  V30 21770 H 2021.01 -1.65815 -3.59613 0
M  V30 21771 H 2022.18 -4.09838 -2.10642 0
M  V30 21772 H 2020.5 -3.62849 -2.04278 0
M  V30 21773 H 2023.09 -2.64772 -4.64543 0
M  V30 21774 H 2023.44 -1.05026 -4.02834 0
M  V30 21775 H 2023.97 -2.47975 -3.11052 0
M  V30 21776 H 2020.71 -5.42205 -3.68366 0
M  V30 21777 H 2020.23 -3.93258 -4.52889 0
M  V30 21778 H 2021.91 -4.5181 -4.63117 0
M  V30 21779 N 2022.04 1.0911 -1.13723 0
M  V30 21780 C 2022.95 2.19388 -0.831037 0
M  V30 21781 C 2023.97 1.73007 0.185658 0
M  V30 21782 O 2025.14 2.01394 0.015917 0
M  V30 21783 C 2022.21 3.45355 -0.305036 0
M  V30 21784 C 2021.27 4.064 -1.38338 0
M  V30 21785 C 2020.5 5.26355 -0.882388 0
M  V30 21786 O 2020.72 5.69718 0.278833 0
M  V30 21787 O 2019.66 5.78609 -1.65816 0
M  V30 21788 H 2023.48 2.48037 -1.75246 0
M  V30 21789 H 2021.07 1.18108 -0.91493 0
M  V30 21790 H 2022.95 4.21396 -0.0172636 0
M  V30 21791 H 2021.63 3.18301 0.588762 0
M  V30 21792 H 2020.53 3.31981 -1.72452 0
M  V30 21793 H 2021.87 4.37688 -2.25144 0
M  V30 21794 N 2023.52 0.931232 1.27145 0
M  V30 21795 C 2024.77 0.572394 1.93825 0
M  V30 21796 C 2025.09 -0.88981 1.73515 0
M  V30 21797 O 2024.36 -1.63113 1.08494 0
M  V30 21798 H 2022.94 0.2087 0.717254 0
M  V30 21799 H 2025.6 1.18439 1.54784 0
M  V30 21800 H 2024.7 0.781679 3.02153 0
M  V30 21801 N 2025 -1.41343 0.697132 0
M  V30 21802 C 2026.25 -2.00432 0.225852 0
M  V30 21803 C 2026.56 -1.55857 -1.18186 0
M  V30 21804 O 2027.77 -2.07516 -1.75069 0
M  V30 21805 C 2026.22 -3.58166 0.352888 0
M  V30 21806 C 2025.83 -4.11721 1.76607 0
M  V30 21807 C 2027.57 -4.2446 -0.0585393 0
M  V30 21808 C 2025.48 -5.61895 1.84467 0
M  V30 21809 H 2024.41 -0.749671 0.0806811 0
M  V30 21810 H 2027.06 -1.61804 0.865556 0
M  V30 21811 H 2025.44 -3.94405 -0.355093 0
M  V30 21812 H 2026.62 -3.86898 2.50293 0
M  V30 21813 H 2024.93 -3.57959 2.12731 0
M  V30 21814 H 2027.53 -5.34696 -0.0202684 0
M  V30 21815 H 2027.87 -4.01572 -1.09752 0
M  V30 21816 H 2028.41 -3.93261 0.599221 0
M  V30 21817 H 2025.14 -5.89612 2.86423 0
M  V30 21818 H 2024.66 -5.8864 1.15167 0
M  V30 21819 H 2026.34 -6.26692 1.60828 0
M  V30 21820 N 2026.48 -0.441993 -1.51275 0
M  V30 21821 C 2027.41 0.357557 -2.30746 0
M  V30 21822 C 2028.39 1.01683 -1.36362 0
M  V30 21823 O 2029.57 1.01958 -1.65282 0
M  V30 21824 C 2026.7 1.45642 -3.15287 0
M  V30 21825 C 2025.66 0.920377 -4.17987 0
M  V30 21826 C 2024.98 2.11534 -4.91078 0
M  V30 21827 C 2026.28 -0.0483941 -5.22278 0
M  V30 21828 H 2027.98 -0.30565 -2.97836 0
M  V30 21829 H 2025.52 -0.148438 -1.43233 0
M  V30 21830 H 2027.47 2.02301 -3.69665 0
M  V30 21831 H 2026.2 2.14798 -2.46027 0
M  V30 21832 H 2024.86 0.375962 -3.64667 0
M  V30 21833 H 2024.51 2.7932 -4.18317 0
M  V30 21834 H 2024.21 1.76303 -5.60527 0
M  V30 21835 H 2025.73 2.68738 -5.48281 0
M  V30 21836 H 2027.14 0.428053 -5.717 0
M  V30 21837 H 2025.54 -0.313504 -5.99281 0
M  V30 21838 H 2026.61 -0.983611 -4.74819 0
M  V30 21839 N 2027.95 1.56642 -0.173515 0
M  V30 21840 C 2029.18 2.01763 0.480249 0
M  V30 21841 C 2029.6 1.05294 1.55868 0
M  V30 21842 O 2028.96 0.0328468 1.8127 0
M  V30 21843 C 2029.01 3.45473 1.03349 0
M  V30 21844 O 2028.11 3.52081 2.14739 0
M  V30 21845 H 2027.45 0.654011 0.114743 0
M  V30 21846 H 2029.98 2.02702 -0.278052 0
M  V30 21847 H 2029.99 3.84823 1.35554 0
M  V30 21848 H 2028.67 4.15184 0.243902 0
M  V30 21849 H 2027.25 3.24591 1.83562 0
M  V30 21850 N 2029.43 -0.1002 1.57281 0
M  V30 21851 C 2030.66 -0.818307 1.9003 0
M  V30 21852 C 2031.07 -1.72531 0.766704 0
M  V30 21853 O 2030.43 -1.80616 -0.261577 0
M  V30 21854 C 2030.48 -1.63596 3.22364 0
M  V30 21855 O 2030.2 -0.765449 4.31361 0
M  V30 21856 C 2031.7 -2.45758 3.68942 0
M  V30 21857 H 2028.92 -0.234253 0.628782 0
M  V30 21858 H 2031.47 -0.0789616 2.04347 0
M  V30 21859 H 2029.62 -2.32787 3.09659 0
M  V30 21860 H 2030.04 -1.33126 5.07324 0
M  V30 21861 H 2031.51 -2.9863 4.64246 0
M  V30 21862 H 2031.99 -3.23987 2.96528 0
M  V30 21863 H 2032.59 -1.81776 3.84497 0
M  V30 21864 N 2030.91 -1.53174 -0.370891 0
M  V30 21865 C 2031.84 -1.82213 -1.46017 0
M  V30 21866 C 2032.82 -0.675274 -1.56122 0
M  V30 21867 O 2034.01 -0.924614 -1.70776 0
M  V30 21868 C 2031.14 -2.00727 -2.83419 0
M  V30 21869 C 2030.09 -3.16478 -2.88141 0
M  V30 21870 C 2029.42 -3.20276 -4.28167 0
M  V30 21871 C 2030.72 -4.55179 -2.56143 0
M  V30 21872 H 2032.41 -2.73432 -1.21965 0
M  V30 21873 H 2029.96 -1.31569 -0.585288 0
M  V30 21874 H 2031.91 -2.19625 -3.59643 0
M  V30 21875 H 2030.63 -1.06213 -3.08847 0
M  V30 21876 H 2029.29 -2.97392 -2.14367 0
M  V30 21877 H 2028.94 -2.2341 -4.50663 0
M  V30 21878 H 2028.64 -3.98044 -4.32244 0
M  V30 21879 H 2030.16 -3.41352 -5.06272 0
M  V30 21880 H 2031.58 -4.74274 -3.22082 0
M  V30 21881 H 2029.97 -5.35148 -2.71544 0
M  V30 21882 H 2031.04 -4.60654 -1.51412 0
M  V30 21883 N 2032.39 0.630389 -1.44443 0
M  V30 21884 C 2033.61 1.42206 -1.50971 0
M  V30 21885 C 2034.04 1.87609 -0.135854 0
M  V30 21886 O 2033.4 1.58782 0.8751 0
M  V30 21887 C 2033.44 2.61801 -2.47977 0
M  V30 21888 O 2032.55 3.6166 -1.98181 0
M  V30 21889 H 2031.89 0.425475 -0.509771 0
M  V30 21890 H 2034.42 0.769359 -1.89584 0
M  V30 21891 H 2034.43 3.09335 -2.66037 0
M  V30 21892 H 2033.1 2.281 -3.47769 0
M  V30 21893 H 2031.68 3.2093 -1.89891 0
M  V30 21894 N 2033.87 1.31354 0.870861 0
M  V30 21895 C 2035.11 1.20348 1.61862 0
M  V30 21896 C 2035.43 -0.237373 1.94154 0
M  V30 21897 O 2036.63 -0.469111 2.67417 0
M  V30 21898 C 2035.09 2.10677 2.91793 0
M  V30 21899 C 2034.7 3.59752 2.66987 0
M  V30 21900 C 2036.44 2.08469 3.69785 0
M  V30 21901 C 2034.35 4.42092 3.92821 0
M  V30 21902 H 2033.28 0.446857 0.607317 0
M  V30 21903 H 2035.93 1.56203 0.962965 0
M  V30 21904 H 2034.31 1.6772 3.58728 0
M  V30 21905 H 2035.49 4.10949 2.08465 0
M  V30 21906 H 2033.8 3.63927 2.02351 0
M  V30 21907 H 2036.4 2.67232 4.63132 0
M  V30 21908 H 2036.74 1.07161 4.02271 0
M  V30 21909 H 2037.27 2.49621 3.09732 0
M  V30 21910 H 2034.01 5.44151 3.65486 0
M  V30 21911 H 2033.53 3.95654 4.50797 0
M  V30 21912 H 2035.21 4.54259 4.60714 0
M  V30 21913 N 2035.34 -1.08505 1.143 0
M  V30 21914 C 2036.25 -2.18944 0.84266 0
M  V30 21915 C 2037.27 -1.73103 -0.17648 0
M  V30 21916 O 2038.45 -2.01399 -0.0052364 0
M  V30 21917 C 2035.51 -3.45189 0.323347 0
M  V30 21918 C 2034.57 -4.05661 1.40492 0
M  V30 21919 C 2033.8 -5.2588 0.910289 0
M  V30 21920 O 2034.03 -5.69858 -0.248616 0
M  V30 21921 O 2032.96 -5.77722 1.68882 0
M  V30 21922 H 2036.79 -2.47104 1.76559 0
M  V30 21923 H 2034.37 -1.17621 0.921181 0
M  V30 21924 H 2036.25 -4.21381 0.039611 0
M  V30 21925 H 2034.93 -3.18608 -0.571874 0
M  V30 21926 H 2033.84 -3.31061 1.7421 0
M  V30 21927 H 2035.17 -4.36488 2.27462 0
M  V30 21928 N 2036.82 -0.937962 -1.26649 0
M  V30 21929 C 2037.73 -0.451023 -2.30224 0
M  V30 21930 C 2038.75 0.473402 -1.67436 0
M  V30 21931 O 2039.92 0.353715 -1.9827 0
M  V30 21932 C 2036.99 0.278943 -3.45576 0
M  V30 21933 C 2036.05 -0.681649 -4.23854 0
M  V30 21934 C 2035.28 0.0135756 -5.33698 0
M  V30 21935 O 2035.51 1.2311 -5.56956 0
M  V30 21936 O 2034.44 -0.663486 -5.98232 0
M  V30 21937 H 2038.27 -1.31129 -2.73932 0
M  V30 21938 H 2035.85 -0.703717 -1.31788 0
M  V30 21939 H 2037.73 0.690262 -4.15708 0
M  V30 21940 H 2036.41 1.11465 -3.03903 0
M  V30 21941 H 2035.31 -1.14285 -3.56216 0
M  V30 21942 H 2036.65 -1.48488 -4.69268 0
M  V30 21943 N 2038.3 1.40971 -0.704618 0
M  V30 21944 C 2039.25 2.32576 -0.0337552 0
M  V30 21945 C 2040.24 1.51452 0.758852 0
M  V30 21946 O 2041.45 1.67327 0.663455 0
M  V30 21947 H 2037.82 0.751959 0.00788634 0
M  V30 21948 H 2039.79 2.86819 -0.823248 0
M  V30 21949 C 2038.54 3.36326 0.882061 0
M  V30 21950 H 2037.87 3.98807 0.281575 0
M  V30 21951 H 2039.31 4.02942 1.31962 0
M  V30 21952 C 2037.76 2.70931 2.00245 0
M  V30 21953 O 2038.29 2.56412 3.09218 0
M  V30 21954 N 2036.5 2.29485 1.78284 0
M  V30 21955 H 2036.05 2.41494 0.89657 0
M  V30 21956 H 2036.01 1.86067 2.5343 0
M  V30 21957 N 2039.78 0.45001 1.51039 0
M  V30 21958 C 2040.73 -0.355012 2.28053 0
M  V30 21959 C 2041.7 -1.00578 1.32186 0
M  V30 21960 O 2042.88 -1.02227 1.61103 0
M  V30 21961 C 2040.02 -1.44311 3.13478 0
M  V30 21962 C 2039.13 -0.809213 4.24353 0
M  V30 21963 C 2038.27 -1.87342 4.97068 0
M  V30 21964 C 2037.31 -1.21864 5.99846 0
M  V30 21965 N 2036.44 -2.22477 6.65919 0
M  V30 21966 H 2041.28 0.308084 2.96403 0
M  V30 21967 H 2038.82 0.163778 1.46185 0
M  V30 21968 H 2040.78 -2.08539 3.61341 0
M  V30 21969 H 2039.41 -2.07566 2.47217 0
M  V30 21970 H 2038.46 -0.0548937 3.8036 0
M  V30 21971 H 2039.77 -0.291288 4.97949 0
M  V30 21972 H 2038.93 -2.59203 5.48542 0
M  V30 21973 H 2037.67 -2.42511 4.23131 0
M  V30 21974 H 2036.67 -0.48556 5.47652 0
M  V30 21975 H 2037.9 -0.674124 6.75746 0
M  V30 21976 H 2035.84 -2.76702 5.94788 0
M  V30 21977 H 2035.76 -1.75611 7.35321 0
M  V30 21978 H 2037.03 -2.93782 7.2202 0
M  V30 21979 N 2041.26 -1.56548 0.18182 0
M  V30 21980 C 2042.51 -1.96371 -0.460566 0
M  V30 21981 C 2042.82 -1.07099 -1.63674 0
M  V30 21982 O 2044.02 -1.36648 -2.34605 0
M  V30 21983 C 2042.48 -3.49207 -0.870777 0
M  V30 21984 C 2042.09 -4.47122 0.280378 0
M  V30 21985 C 2043.83 -3.97828 -1.48099 0
M  V30 21986 C 2041.74 -5.9121 -0.15005 0
M  V30 21987 H 2040.67 -0.73321 -0.175838 0
M  V30 21988 H 2043.32 -1.81477 0.271724 0
M  V30 21989 H 2041.7 -3.59557 -1.65935 0
M  V30 21990 H 2042.88 -4.48494 1.05781 0
M  V30 21991 H 2041.19 -4.08619 0.801227 0
M  V30 21992 H 2043.79 -5.02944 -1.81525 0
M  V30 21993 H 2044.13 -3.41369 -2.38271 0
M  V30 21994 H 2044.66 -3.90538 -0.75665 0
M  V30 21995 H 2041.4 -6.51565 0.717155 0
M  V30 21996 H 2040.92 -5.93121 -0.892621 0
M  V30 21997 H 2042.6 -6.44301 -0.590372 0
M  V30 21998 N 2042.73 0.0918577 -1.57332 0
M  V30 21999 C 2043.98 0.793472 -1.85437 0
M  V30 22000 C 2044.3 1.7974 -0.77156 0
M  V30 22001 O 2045.5 2.54714 -0.939832 0
M  V30 22002 C 2043.96 1.462 -3.28867 0
M  V30 22003 C 2043.57 0.497677 -4.45227 0
M  V30 22004 C 2045.31 2.14715 -3.66193 0
M  V30 22005 C 2043.22 1.17098 -5.79691 0
M  V30 22006 H 2042.15 0.30008 -0.691714 0
M  V30 22007 H 2044.8 0.0464542 -1.83441 0
M  V30 22008 H 2043.18 2.25659 -3.25414 0
M  V30 22009 H 2044.35 -0.26565 -4.60034 0
M  V30 22010 H 2042.67 -0.081949 -4.16319 0
M  V30 22011 H 2045.27 2.6583 -4.63938 0
M  V30 22012 H 2045.61 2.93756 -2.9498 0
M  V30 22013 H 2046.14 1.42113 -3.71549 0
M  V30 22014 H 2042.88 0.421316 -6.54145 0
M  V30 22015 H 2042.4 1.90565 -5.68722 0
M  V30 22016 H 2044.08 1.69654 -6.24361 0
M  V30 22017 N 2044.21 1.53368 0.362763 0
M  V30 22018 C 2045.14 1.82984 1.45048 0
M  V30 22019 C 2046.12 0.683544 1.55762 0
M  V30 22020 O 2047.31 0.933658 1.70283 0
M  V30 22021 C 2044.44 2.02227 2.8235 0
M  V30 22022 C 2043.39 3.18002 2.86459 0
M  V30 22023 C 2042.72 3.22543 4.26463 0
M  V30 22024 C 2044.02 4.56531 2.53726 0
M  V30 22025 H 2045.71 2.74075 1.20513 0
M  V30 22026 H 2043.26 1.31877 0.578302 0
M  V30 22027 H 2045.21 2.21529 3.58473 0
M  V30 22028 H 2043.94 1.07849 3.08279 0
M  V30 22029 H 2042.59 2.98525 2.12787 0
M  V30 22030 H 2042.24 2.25797 4.49472 0
M  V30 22031 H 2041.94 4.00331 4.30127 0
M  V30 22032 H 2043.47 3.44032 5.04455 0
M  V30 22033 H 2044.88 4.75975 3.19563 0
M  V30 22034 H 2043.28 5.36581 2.68703 0
M  V30 22035 H 2044.35 4.61451 1.48967 0
M  V30 22036 N 2045.69 -0.62272 1.44776 0
M  V30 22037 C 2046.64 -1.75545 1.526 0
M  V30 22038 C 2047.63 -1.64681 0.397056 0
M  V30 22039 O 2048.84 -1.70658 0.572351 0
M  V30 22040 H 2045.21 -0.579694 0.479018 0
M  V30 22041 H 2047.18 -1.66069 2.47919 0
M  V30 22042 C 2045.93 -3.13899 1.49542 0
M  V30 22043 H 2045.26 -3.2291 2.35731 0
M  V30 22044 H 2046.7 -3.93028 1.59076 0
M  V30 22045 C 2045.16 -3.36197 0.217454 0
M  V30 22046 O 2045.69 -3.95395 -0.708921 0
M  V30 22047 N 2043.89 -2.90361 0.117924 0
M  V30 22048 H 2043.44 -2.4237 0.872626 0
M  V30 22049 H 2043.4 -3.05655 -0.736367 0
M  V30 22050 N 2047.17 -1.31814 -0.863883 0
M  V30 22051 C 2048.39 -1.24961 -1.65528 0
M  V30 22052 C 2048.82 0.18096 -1.87228 0
M  V30 22053 O 2048.18 1.12919 -1.41842 0
M  V30 22054 C 2048.22 -2.00518 -2.99708 0
M  V30 22055 O 2047.33 -1.34668 -3.89793 0
M  V30 22056 H 2046.67 -0.431127 -0.505001 0
M  V30 22057 H 2049.2 -1.73981 -1.07665 0
M  V30 22058 H 2049.21 -2.10344 -3.49599 0
M  V30 22059 H 2047.88 -3.0455 -2.83235 0
M  V30 22060 H 2046.46 -1.33332 -3.48249 0
M  V30 22061 N 2048.65 1.07897 -1.14873 0
M  V30 22062 C 2049.6 2.13167 -0.808951 0
M  V30 22063 C 2050.58 1.59598 0.204268 0
M  V30 22064 O 2051.77 1.76999 0.00583521 0
M  V30 22065 C 2048.9 3.4204 -0.293859 0
M  V30 22066 C 2047.99 4.02477 -1.33691 0
M  V30 22067 N 2048.38 4.37248 -2.54259 0
M  V30 22068 C 2046.68 4.29877 -1.18835 0
M  V30 22069 C 2047.38 4.85066 -3.2107 0
M  V30 22070 N 2046.35 4.83493 -2.48466 0
M  V30 22071 H 2050.16 2.37876 -1.72604 0
M  V30 22072 H 2047.67 1.25281 -1.03336 0
M  V30 22073 H 2049.67 4.16888 -0.0321146 0
M  V30 22074 H 2048.33 3.18777 0.617359 0
M  V30 22075 H 2049.34 4.28112 -2.91446 0
M  V30 22076 H 2046.01 4.16141 -0.336571 0
M  V30 22077 H 2047.4 5.21307 -4.23897 0
M  V30 22078 N 2050.12 0.944665 1.2615 0
M  V30 22079 C 2051.03 0.463226 2.29981 0
M  V30 22080 C 2052.05 -0.464516 1.67685 0
M  V30 22081 O 2053.23 -0.343195 1.98454 0
M  V30 22082 C 2050.29 -0.260612 3.45719 0
M  V30 22083 C 2049.35 0.704117 4.23486 0
M  V30 22084 C 2048.59 0.0147279 5.33698 0
M  V30 22085 O 2048.81 -1.20155 5.57601 0
M  V30 22086 O 2047.74 0.695202 5.97872 0
M  V30 22087 H 2051.57 1.3258 2.73233 0
M  V30 22088 H 2049.15 0.710696 1.31413 0
M  V30 22089 H 2051.04 -0.668207 4.16068 0
M  V30 22090 H 2049.71 -1.09852 3.0449 0
M  V30 22091 H 2048.62 1.16172 3.55605 0
M  V30 22092 H 2049.95 1.50974 4.68474 0
M  V30 22093 N 2051.6 -1.40596 0.712085 0
M  V30 22094 C 2052.85 -2.00181 0.247097 0
M  V30 22095 C 2053.16 -1.57102 -1.16526 0
M  V30 22096 O 2054.37 -2.09361 -1.72858 0
M  V30 22097 C 2052.83 -3.57771 0.390856 0
M  V30 22098 C 2052.43 -4.09825 1.80964 0
M  V30 22099 C 2054.18 -4.24498 -0.0135164 0
M  V30 22100 C 2052.09 -5.59907 1.90417 0
M  V30 22101 H 2051.02 -0.748773 0.0886278 0
M  V30 22102 H 2053.67 -1.60876 0.882669 0
M  V30 22103 H 2052.05 -3.94759 -0.313241 0
M  V30 22104 H 2053.22 -3.84221 2.54383 0
M  V30 22105 H 2051.54 -3.55682 2.16516 0
M  V30 22106 H 2054.13 -5.34688 0.0364444 0
M  V30 22107 H 2054.48 -4.02714 -1.05487 0
M  V30 22108 H 2055.01 -3.92603 0.640898 0
M  V30 22109 H 2051.75 -5.86541 2.92661 0
M  V30 22110 H 2051.27 -5.87385 1.21404 0
M  V30 22111 H 2052.95 -6.24951 1.67466 0
M  V30 22112 N 2053.08 -0.458013 -1.50798 0
M  V30 22113 C 2054.03 0.357083 -2.29843 0
M  V30 22114 C 2055.02 1.00229 -1.36567 0
M  V30 22115 O 2056.23 0.934888 -1.53818 0
M  V30 22116 H 2052.6 0.133985 -0.739968 0
M  V30 22117 H 2054.57 -0.330165 -2.96568 0
M  V30 22118 C 2053.32 1.43404 -3.1675 0
M  V30 22119 H 2052.65 0.946947 -3.88424 0
M  V30 22120 H 2054.09 1.9772 -3.75077 0
M  V30 22121 C 2052.55 2.42878 -2.33478 0
M  V30 22122 O 2053.08 3.47868 -2.00874 0
M  V30 22123 N 2051.28 2.14272 -1.96306 0
M  V30 22124 H 2050.83 1.28918 -2.2302 0
M  V30 22125 H 2050.79 2.81064 -1.40891 0
M  V30 22126 N 2054.56 1.56449 -0.190119 0
M  V30 22127 C 2055.81 1.97438 0.449957 0
M  V30 22128 C 2056.13 1.07682 1.61972 0
M  V30 22129 O 2055.39 0.114859 1.95363 0
M  V30 22130 C 2055.69 3.44349 0.956988 0
M  V30 22131 C 2055.35 4.50792 -0.098868 0
M  V30 22132 C 2054.02 4.79625 -0.389003 0
M  V30 22133 C 2056.37 5.14795 -0.814559 0
M  V30 22134 C 2053.7 5.69754 -1.39989 0
M  V30 22135 C 2056.05 6.06017 -1.81456 0
M  V30 22136 C 2054.71 6.33209 -2.11195 0
M  V30 22137 H 2053.98 0.722476 0.164651 0
M  V30 22138 H 2056.63 1.89352 -0.286039 0
M  V30 22139 H 2054.93 3.49481 1.77116 0
M  V30 22140 H 2056.63 3.73416 1.46155 0
M  V30 22141 H 2053.22 4.2838 0.137435 0
M  V30 22142 H 2057.41 4.92615 -0.603633 0
M  V30 22143 H 2052.66 5.89098 -1.63627 0
M  V30 22144 H 2056.84 6.54672 -2.37438 0
M  V30 22145 H 2054.46 7.02847 -2.89672 0
M  V30 22146 N 2056.04 -0.0835127 1.57379 0
M  V30 22147 C 2057.26 -0.801948 1.91268 0
M  V30 22148 C 2057.69 -1.70915 0.785469 0
M  V30 22149 O 2057.05 -1.79392 -0.262357 0
M  V30 22150 C 2057.09 -1.58151 3.24069 0
M  V30 22151 O 2056.2 -2.69134 3.12475 0
M  V30 22152 H 2055.54 -0.219566 0.626647 0
M  V30 22153 H 2058.07 -0.0552662 2.04525 0
M  V30 22154 H 2058.08 -1.96327 3.57659 0
M  V30 22155 H 2056.75 -0.915794 4.05692 0
M  V30 22156 H 2055.33 -2.33901 2.90422 0
M  V30 22157 N 2057.52 -1.53558 -0.354624 0
M  V30 22158 C 2058.76 -1.69934 -1.09393 0
M  V30 22159 C 2059.08 -0.459423 -1.89511 0
M  V30 22160 O 2058.35 0.526608 -1.88689 0
M  V30 22161 H 2056.93 -0.626487 -0.406845 0
M  V30 22162 H 2059.6 -1.90781 -0.398582 0
M  V30 22163 H 2058.69 -2.56533 -1.77757 0
M  V30 22164 N 2058.99 0.615033 -1.45104 0
M  V30 22165 C 2059.9 1.75459 -1.55728 0
M  V30 22166 C 2060.92 1.6829 -0.442095 0
M  V30 22167 O 2062.1 1.88779 -0.701735 0
M  V30 22168 C 2059.16 3.11899 -1.51394 0
M  V30 22169 C 2058.22 3.30578 -2.73892 0
M  V30 22170 C 2057.45 4.60509 -2.69754 0
M  V30 22171 O 2057.68 5.42353 -1.76662 0
M  V30 22172 O 2056.61 4.81739 -3.60848 0
M  V30 22173 H 2060.44 1.69447 -2.52035 0
M  V30 22174 H 2058.02 0.778221 -1.27531 0
M  V30 22175 H 2059.9 3.93203 -1.51557 0
M  V30 22176 H 2058.58 3.18418 -0.582365 0
M  V30 22177 H 2057.49 2.48891 -2.79292 0
M  V30 22178 H 2058.82 3.2893 -3.6615 0
M  V30 22179 N 2060.47 1.3227 0.85688 0
M  V30 22180 C 2061.72 1.22885 1.61329 0
M  V30 22181 C 2062.05 -0.209425 1.93067 0
M  V30 22182 O 2061.33 -1.14596 1.57156 0
M  V30 22183 C 2061.61 2.0863 2.93506 0
M  V30 22184 C 2061.46 3.60824 2.68563 0
M  V30 22185 C 2062.78 1.94573 3.94752 0
M  V30 22186 H 2059.9 0.447751 0.585395 0
M  V30 22187 H 2062.54 1.62193 0.989615 0
M  V30 22188 H 2060.69 1.75236 3.46734 0
M  V30 22189 H 2062.36 4.0442 2.21906 0
M  V30 22190 H 2060.61 3.83601 2.02566 0
M  V30 22191 H 2061.28 4.16143 3.6267 0
M  V30 22192 H 2063.75 2.23822 3.50775 0
M  V30 22193 H 2062.63 2.56848 4.85098 0
M  V30 22194 H 2062.89 0.912736 4.32575 0
M  V30 22195 N 2061.95 -1.07287 1.15444 0
M  V30 22196 C 2062.9 -2.16605 0.847634 0
M  V30 22197 C 2063.89 -1.68449 -0.179217 0
M  V30 22198 O 2065.1 -1.79968 -0.0341862 0
M  V30 22199 H 2061.47 -0.706921 0.25645 0
M  V30 22200 H 2063.44 -2.397 1.77726 0
M  V30 22201 C 2062.19 -3.45893 0.354062 0
M  V30 22202 H 2061.52 -3.83333 1.1356 0
M  V30 22203 H 2062.96 -4.23626 0.178055 0
M  V30 22204 C 2061.41 -3.23966 -0.924544 0
M  V30 22205 O 2061.94 -3.48604 -1.99594 0
M  V30 22206 N 2060.15 -2.77449 -0.864314 0
M  V30 22207 H 2059.7 -2.57599 0.00774481 0
M  V30 22208 H 2059.66 -2.63157 -1.72034 0
M  V30 22209 N 2063.43 -0.951342 -1.25647 0
M  V30 22210 C 2064.68 -0.603157 -1.9289 0
M  V30 22211 C 2065 0.862093 -1.74908 0
M  V30 22212 O 2064.27 1.61366 -1.11075 0
M  V30 22213 H 2062.85 -0.220085 -0.713843 0
M  V30 22214 H 2065.51 -1.20887 -1.5288 0
M  V30 22215 H 2064.6 -0.82965 -3.00871 0
M  V30 22216 N 2064.91 1.40216 -0.719531 0
M  V30 22217 C 2066.13 2.05647 -0.269106 0
M  V30 22218 C 2066.56 1.53865 1.082 0
M  V30 22219 O 2065.91 0.675703 1.68238 0
M  V30 22220 C 2065.96 3.59636 -0.263433 0
M  V30 22221 O 2065.07 4.05448 0.754058 0
M  V30 22222 H 2064.41 0.652036 -0.12548 0
M  V30 22223 H 2066.94 1.79542 -0.981119 0
M  V30 22224 H 2066.95 4.07871 -0.102475 0
M  V30 22225 H 2065.62 3.9669 -1.24939 0
M  V30 22226 H 2064.2 3.68664 0.560502 0
M  V30 22227 N 2066.38 0.466004 1.50553 0
M  V30 22228 C 2067.33 -0.344889 2.30029 0
M  V30 22229 C 2068.33 -0.995031 1.37097 0
M  V30 22230 O 2069.53 -0.926717 1.54311 0
M  V30 22231 H 2065.91 -0.130059 0.740668 0
M  V30 22232 H 2067.88 0.345888 2.96389 0
M  V30 22233 C 2066.63 -1.41723 3.17506 0
M  V30 22234 H 2065.95 -0.926335 3.8892 0
M  V30 22235 H 2067.39 -1.95728 3.7612 0
M  V30 22236 C 2065.85 -2.41636 2.34763 0
M  V30 22237 O 2066.38 -3.46798 2.02716 0
M  V30 22238 N 2064.58 -2.13228 1.97439 0
M  V30 22239 H 2064.13 -1.27733 2.23701 0
M  V30 22240 H 2064.09 -2.80313 1.4238 0
M  V30 22241 N 2067.86 -1.56346 0.198413 0
M  V30 22242 C 2069.11 -1.97283 -0.438612 0
M  V30 22243 C 2069.43 -1.08657 -1.61922 0
M  V30 22244 O 2068.7 -0.158561 -1.95257 0
M  V30 22245 H 2067.28 -0.728541 -0.165035 0
M  V30 22246 H 2069.94 -1.92791 0.285919 0
M  V30 22247 H 2069.04 -3.02183 -0.780516 0
M  V30 22248 N 2069.34 0.0751653 -1.57421 0
M  V30 22249 C 2070.59 0.774958 -1.87085 0
M  V30 22250 C 2070.92 1.77747 -0.789691 0
M  V30 22251 O 2070.17 1.94519 0.214672 0
M  V30 22252 C 2070.47 1.52138 -3.23402 0
M  V30 22253 C 2070.14 0.659153 -4.46056 0
M  V30 22254 C 2068.8 0.421528 -4.7935 0
M  V30 22255 C 2071.15 0.0610407 -5.21164 0
M  V30 22256 C 2068.48 -0.423745 -5.85168 0
M  V30 22257 C 2070.83 -0.771668 -6.27876 0
M  V30 22258 C 2069.49 -1.0192 -6.59673 0
M  V30 22259 H 2068.76 0.283577 -0.684591 0
M  V30 22260 H 2071.41 0.0358311 -1.91466 0
M  V30 22261 H 2069.72 2.33261 -3.14796 0
M  V30 22262 H 2071.41 2.06757 -3.43588 0
M  V30 22263 H 2068 0.854487 -4.19996 0
M  V30 22264 H 2072.19 0.231747 -4.95759 0
M  V30 22265 H 2067.44 -0.6243 -6.08204 0
M  V30 22266 H 2071.62 -1.24188 -6.85237 0
M  V30 22267 H 2069.24 -1.67595 -7.41496 0
M  V30 22268 N 2070.82 1.53744 0.346476 0
M  V30 22269 C 2072.06 1.71103 1.08866 0
M  V30 22270 C 2072.4 0.47131 1.88394 0
M  V30 22271 O 2071.67 -0.531638 1.87093 0
M  V30 22272 C 2071.96 2.97273 2.03225 0
M  V30 22273 C 2071.81 4.31446 1.27179 0
M  V30 22274 C 2073.13 3.19105 3.03084 0
M  V30 22275 H 2070.25 0.622598 0.394387 0
M  V30 22276 H 2072.89 1.86412 0.367514 0
M  V30 22277 H 2071.04 2.84352 2.64719 0
M  V30 22278 H 2072.71 4.56212 0.683225 0
M  V30 22279 H 2070.95 4.29989 0.573773 0
M  V30 22280 H 2071.62 5.15901 1.96343 0
M  V30 22281 H 2074.1 3.31337 2.51704 0
M  V30 22282 H 2072.98 4.08786 3.66313 0
M  V30 22283 H 2073.24 2.35265 3.74303 0
M  V30 22284 N 2072.3 -0.607329 1.45428 0
M  V30 22285 C 2073.52 -1.39786 1.53214 0
M  V30 22286 C 2073.95 -1.87369 0.165684 0
M  V30 22287 O 2073.3 -1.60154 -0.849728 0
M  V30 22288 C 2073.35 -2.57823 2.52111 0
M  V30 22289 O 2072.46 -3.58462 2.03909 0
M  V30 22290 H 2071.8 -0.417312 0.516476 0
M  V30 22291 H 2074.33 -0.739101 1.90784 0
M  V30 22292 H 2074.34 -3.05064 2.70925 0
M  V30 22293 H 2073.01 -2.22539 3.51354 0
M  V30 22294 H 2071.59 -3.17868 1.94973 0
M  V30 22295 N 2073.77 -1.32722 -0.849853 0
M  V30 22296 C 2074.7 -1.24675 -1.97429 0
M  V30 22297 C 2075.69 -0.129581 -1.69606 0
M  V30 22298 O 2076.87 -0.317548 -1.91586 0
M  V30 22299 C 2074 -0.973971 -3.33363 0
M  V30 22300 C 2072.95 -2.05289 -3.75553 0
M  V30 22301 C 2072.28 -1.63244 -5.09171 0
M  V30 22302 C 2073.58 -3.46845 -3.90507 0
M  V30 22303 H 2075.27 -2.18753 -2.0442 0
M  V30 22304 H 2072.82 -1.0531 -0.982132 0
M  V30 22305 H 2074.77 -0.904206 -4.11585 0
M  V30 22306 H 2073.5 0.00243816 -3.266 0
M  V30 22307 H 2072.16 -2.11289 -2.99587 0
M  V30 22308 H 2071.8 -0.643348 -4.98869 0
M  V30 22309 H 2071.5 -2.35437 -5.38371 0
M  V30 22310 H 2073.03 -1.57713 -5.8988 0
M  V30 22311 H 2074.44 -3.43408 -4.59069 0
M  V30 22312 H 2072.84 -4.17429 -4.3113 0
M  V30 22313 H 2073.91 -3.86155 -2.93278 0
M  V30 22314 N 2075.25 1.06673 -1.16011 0
M  V30 22315 C 2076.48 1.83106 -0.963322 0
M  V30 22316 C 2076.9 1.82372 0.488451 0
M  V30 22317 O 2076.25 1.24012 1.33893 0
M  V30 22318 C 2076.3 3.29888 -1.47838 0
M  V30 22319 O 2076.02 3.30717 -2.87328 0
M  V30 22320 C 2077.53 4.23065 -1.32405 0
M  V30 22321 H 2074.75 0.577476 -0.341705 0
M  V30 22322 H 2077.29 1.34611 -1.53948 0
M  V30 22323 H 2075.44 3.75708 -0.944585 0
M  V30 22324 H 2075.86 4.22475 -3.1083 0
M  V30 22325 H 2077.33 5.24098 -1.73279 0
M  V30 22326 H 2077.81 4.38375 -0.269104 0
M  V30 22327 H 2078.42 3.83088 -1.84726 0
M  V30 22328 N 2076.73 0.957992 1.25141 0
M  V30 22329 C 2077.98 0.614592 1.92948 0
M  V30 22330 C 2078.31 -0.848868 1.74999 0
M  V30 22331 O 2077.56 -1.62488 1.09069 0
M  V30 22332 C 2077.86 0.923523 3.45262 0
M  V30 22333 C 2077.53 2.37356 3.83371 0
M  V30 22334 C 2076.19 2.7699 3.93484 0
M  V30 22335 C 2078.54 3.31508 4.02184 0
M  V30 22336 C 2075.87 4.09838 4.19821 0
M  V30 22337 C 2078.22 4.63973 4.30014 0
M  V30 22338 C 2076.88 5.03398 4.38345 0
M  V30 22339 H 2076.15 0.224895 0.706048 0
M  V30 22340 H 2078.8 1.20766 1.4862 0
M  V30 22341 H 2077.11 0.248102 3.91014 0
M  V30 22342 H 2078.8 0.636357 3.95919 0
M  V30 22343 H 2075.39 2.05619 3.76057 0
M  V30 22344 H 2079.58 3.02076 3.93781 0
M  V30 22345 H 2074.83 4.40023 4.24488 0
M  V30 22346 H 2079.01 5.36905 4.43516 0
M  V30 22347 H 2076.63 6.06363 4.58506 0
M  V30 22348 N 2078.21 -1.39832 0.726957 0
M  V30 22349 C 2079.43 -2.05501 0.280008 0
M  V30 22350 C 2079.86 -1.54436 -1.07383 0
M  V30 22351 O 2079.22 -0.684615 -1.67877 0
M  V30 22352 C 2079.26 -3.59492 0.282502 0
M  V30 22353 O 2078.37 -4.05842 -0.732546 0
M  V30 22354 H 2077.71 -0.651361 0.128936 0
M  V30 22355 H 2080.24 -1.79019 0.990626 0
M  V30 22356 H 2080.25 -4.07811 0.124104 0
M  V30 22357 H 2078.92 -3.96022 1.27041 0
M  V30 22358 H 2077.5 -3.68956 -0.540943 0
M  V30 22359 N 2079.69 -0.473982 -1.50304 0
M  V30 22360 C 2080.94 0.0817089 -2.01534 0
M  V30 22361 C 2081.25 1.40522 -1.36062 0
M  V30 22362 O 2082.45 2.04602 -1.78466 0
M  V30 22363 C 2080.91 0.196125 -3.59365 0
M  V30 22364 C 2080.52 -1.11913 -4.33797 0
M  V30 22365 C 2082.26 0.70362 -4.18628 0
M  V30 22366 C 2080.17 -0.968348 -5.83418 0
M  V30 22367 H 2079.1 0.0343111 -0.753219 0
M  V30 22368 H 2081.75 -0.609316 -1.73088 0
M  V30 22369 H 2080.13 0.950997 -3.84411 0
M  V30 22370 H 2081.31 -1.88518 -4.20473 0
M  V30 22371 H 2079.62 -1.55796 -3.86156 0
M  V30 22372 H 2082.22 0.833506 -5.28164 0
M  V30 22373 H 2082.56 1.69569 -3.802 0
M  V30 22374 H 2083.09 0.00605141 -3.978 0
M  V30 22375 H 2079.83 -1.93387 -6.26324 0
M  V30 22376 H 2079.35 -0.242725 -5.99309 0
M  V30 22377 H 2081.03 -0.636128 -6.43865 0
M  V30 22378 N 2081.16 1.56239 -0.206702 0
M  V30 22379 C 2082.09 2.2262 0.704446 0
M  V30 22380 C 2083.08 1.19305 1.21245 0
M  V30 22381 O 2084.26 1.47846 1.25917 0
M  V30 22382 C 2081.39 2.89459 1.91913 0
M  V30 22383 C 2080.34 3.99119 1.54558 0
M  V30 22384 C 2079.67 4.53179 2.83783 0
M  V30 22385 C 2080.97 5.16934 0.746749 0
M  V30 22386 H 2082.66 2.99019 0.151028 0
M  V30 22387 H 2080.21 1.43824 0.0712004 0
M  V30 22388 H 2082.16 3.34584 2.56186 0
M  V30 22389 H 2080.89 2.10484 2.49728 0
M  V30 22390 H 2079.55 3.54702 0.926381 0
M  V30 22391 H 2079.19 3.70952 3.39711 0
M  V30 22392 H 2078.89 5.2718 2.59528 0
M  V30 22393 H 2080.42 5.01013 3.49024 0
M  V30 22394 H 2081.83 5.58532 1.29284 0
M  V30 22395 H 2080.23 5.97074 0.601876 0
M  V30 22396 H 2081.3 4.84256 -0.249783 0
M  V30 22397 N 2082.64 -0.0668159 1.57458 0
M  V30 22398 C 2083.55 -1.09665 2.0739 0
M  V30 22399 C 2084.57 -1.4208 1.00446 0
M  V30 22400 O 2085.74 -1.52157 1.31948 0
M  V30 22401 C 2082.81 -2.38952 2.51203 0
M  V30 22402 C 2081.87 -2.13463 3.72468 0
M  V30 22403 C 2081.1 -3.36585 4.14181 0
M  V30 22404 O 2081.33 -4.45889 3.55723 0
M  V30 22405 O 2080.26 -3.24505 5.06932 0
M  V30 22406 H 2084.09 -0.702443 2.95465 0
M  V30 22407 H 2081.67 -0.281287 1.46728 0
M  V30 22408 H 2083.55 -3.1503 2.79883 0
M  V30 22409 H 2082.23 -2.77742 1.66256 0
M  V30 22410 H 2081.14 -1.35074 3.48864 0
M  V30 22411 H 2082.47 -1.7955 4.58282 0
M  V30 22412 N 2084.12 -1.53926 -0.338317 0
M  V30 22413 C 2085.37 -1.71085 -1.07584 0
M  V30 22414 C 2085.69 -0.479497 -1.89013 0
M  V30 22415 O 2084.96 0.506566 -1.89237 0
M  V30 22416 H 2083.54 -0.630767 -0.400178 0
M  V30 22417 H 2086.2 -1.91193 -0.378324 0
M  V30 22418 H 2085.3 -2.58404 -1.75026 0
M  V30 22419 N 2085.6 0.599608 -1.45748 0
M  V30 22420 C 2086.85 1.35451 -1.49452 0
M  V30 22421 C 2087.16 1.95072 -0.143637 0
M  V30 22422 O 2088.37 2.71437 -0.0583691 0
M  V30 22423 C 2086.82 2.454 -2.63262 0
M  V30 22424 C 2086.43 1.92156 -4.04698 0
M  V30 22425 C 2088.18 3.22339 -2.7622 0
M  V30 22426 C 2086.08 2.99633 -5.09876 0
M  V30 22427 H 2085.01 0.509134 -0.556146 0
M  V30 22428 H 2087.66 0.641777 -1.71911 0
M  V30 22429 H 2086.05 3.19395 -2.34101 0
M  V30 22430 H 2087.22 1.24817 -4.43574 0
M  V30 22431 H 2085.53 1.27937 -3.96259 0
M  V30 22432 H 2088.13 4.02519 -3.5197 0
M  V30 22433 H 2088.47 3.73854 -1.83135 0
M  V30 22434 H 2089.01 2.55446 -3.04946 0
M  V30 22435 H 2085.75 2.53026 -6.04697 0
M  V30 22436 H 2085.27 3.65514 -4.75562 0
M  V30 22437 H 2086.95 3.63878 -5.34978 0
M  V30 22438 N 2087.08 1.33171 0.842803 0
M  V30 22439 C 2088.03 1.23072 1.97373 0
M  V30 22440 C 2089.02 0.132938 1.68878 0
M  V30 22441 O 2090.23 0.296643 1.77539 0
M  V30 22442 H 2086.6 0.381819 0.647857 0
M  V30 22443 H 2088.57 2.18694 2.03016 0
M  V30 22444 C 2087.32 0.982778 3.33522 0
M  V30 22445 H 2086.64 1.81975 3.55985 0
M  V30 22446 H 2088.08 0.952404 4.13165 0
M  V30 22447 C 2086.54 -0.314352 3.3543 0
M  V30 22448 O 2087.07 -1.32235 3.79311 0
M  V30 22449 N 2085.28 -0.340506 2.88598 0
M  V30 22450 H 2084.83 0.480318 2.53082 0
M  V30 22451 H 2084.78 -1.20822 2.90257 0
M  V30 22452 N 2088.56 -1.06056 1.16576 0
M  V30 22453 C 2089.52 -2.11761 0.876928 0
M  V30 22454 C 2090.52 -1.60281 -0.129123 0
M  V30 22455 O 2091.71 -1.73901 0.102046 0
M  V30 22456 C 2088.84 -3.3947 0.311872 0
M  V30 22457 H 2090.03 -2.38816 1.81403 0
M  V30 22458 H 2087.59 -1.2216 0.975021 0
M  V30 22459 H 2088.32 -3.18066 -0.632797 0
M  V30 22460 H 2088.11 -3.78143 1.03683 0
M  V30 22461 H 2089.6 -4.17404 0.12782 0
M  V30 22462 N 2090.03 -0.964615 -1.24631 0
M  V30 22463 C 2091.28 -0.620429 -1.91921 0
M  V30 22464 C 2091.6 0.847851 -1.76269 0
M  V30 22465 O 2092.8 1.30243 -2.38221 0
M  V30 22466 C 2091.26 -1.059 -3.43967 0
M  V30 22467 C 2090.87 -2.55052 -3.6831 0
M  V30 22468 C 2092.61 -0.787818 -4.17126 0
M  V30 22469 C 2090.52 -2.92658 -5.13912 0
M  V30 22470 H 2089.45 -0.22834 -0.718594 0
M  V30 22471 H 2092.1 -1.17041 -1.41328 0
M  V30 22472 H 2090.48 -0.437357 -3.93577 0
M  V30 22473 H 2091.65 -3.2232 -3.29312 0
M  V30 22474 H 2089.97 -2.79748 -3.08432 0
M  V30 22475 H 2092.57 -1.04483 -5.24392 0
M  V30 22476 H 2092.91 0.275932 -4.15385 0
M  V30 22477 H 2093.44 -1.37028 -3.73454 0
M  V30 22478 H 2090.18 -3.98091 -5.20772 0
M  V30 22479 H 2089.7 -2.30071 -5.5392 0
M  V30 22480 H 2091.38 -2.82395 -5.82119 0
M  V30 22481 N 2091.51 1.39445 -0.734362 0
M  V30 22482 C 2092.76 1.99762 -0.278913 0
M  V30 22483 C 2093.07 1.58936 1.14012 0
M  V30 22484 O 2094.28 2.12085 1.69506 0
M  V30 22485 C 2092.74 3.57104 -0.447725 0
M  V30 22486 C 2092.34 4.06894 -1.87461 0
M  V30 22487 C 2094.09 4.24466 -0.0540192 0
M  V30 22488 C 2091.99 5.56806 -1.993 0
M  V30 22489 H 2090.92 0.747268 -0.100529 0
M  V30 22490 H 2093.58 1.59452 -0.908151 0
M  V30 22491 H 2091.96 3.95208 0.250399 0
M  V30 22492 H 2093.13 3.80126 -2.60463 0
M  V30 22493 H 2091.45 3.52193 -2.22147 0
M  V30 22494 H 2094.04 5.34562 -0.121504 0
M  V30 22495 H 2094.39 4.04341 0.990665 0
M  V30 22496 H 2094.92 3.91534 -0.703277 0
M  V30 22497 H 2091.66 5.8181 -3.01955 0
M  V30 22498 H 2091.18 5.85379 -1.30734 0
M  V30 22499 H 2092.86 6.22208 -1.77387 0
M  V30 22500 N 2092.99 0.481946 1.5005 0
M  V30 22501 C 2093.9 -0.311606 2.32521 0
M  V30 22502 C 2094.92 -0.985661 1.4339 0
M  V30 22503 O 2096.09 -0.971246 1.76433 0
M  V30 22504 C 2093.16 -1.37313 3.18349 0
M  V30 22505 C 2092.22 -0.714526 4.23312 0
M  V30 22506 C 2091.45 -1.72547 5.05038 0
M  V30 22507 O 2091.67 -2.95324 4.87996 0
M  V30 22508 O 2090.61 -1.2913 5.87885 0
M  V30 22509 H 2094.43 0.362909 3.01524 0
M  V30 22510 H 2092.02 0.243598 1.47401 0
M  V30 22511 H 2093.9 -1.98774 3.71573 0
M  V30 22512 H 2092.58 -2.03091 2.52063 0
M  V30 22513 H 2091.48 -0.0606687 3.74051 0
M  V30 22514 H 2092.82 -0.099506 4.92099 0
M  V30 22515 N 2094.47 -1.56127 0.214985 0
M  V30 22516 C 2095.71 -1.98422 -0.41911 0
M  V30 22517 C 2096.05 -1.10235 -1.59881 0
M  V30 22518 O 2095.32 -0.158603 -1.93852 0
M  V30 22519 C 2095.6 -3.49679 -0.86003 0
M  V30 22520 C 2095.46 -4.4864 0.322851 0
M  V30 22521 C 2096.78 -4.0516 -1.71854 0
M  V30 22522 H 2093.9 -0.721393 -0.150867 0
M  V30 22523 H 2096.54 -1.87456 0.309902 0
M  V30 22524 H 2094.69 -3.59155 -1.48121 0
M  V30 22525 H 2096.36 -4.51181 0.960896 0
M  V30 22526 H 2094.6 -4.22784 0.97138 0
M  V30 22527 H 2095.27 -5.51993 -0.028492 0
M  V30 22528 H 2097.75 -3.98587 -1.19448 0
M  V30 22529 H 2096.63 -5.11324 -1.99596 0
M  V30 22530 H 2096.89 -3.51638 -2.67962 0
M  V30 22531 N 2095.95 0.0584645 -1.57492 0
M  V30 22532 C 2097.22 0.788828 -1.78988 0
M  V30 22533 C 2097.6 1.95112 -0.805878 0
M  V30 22534 O 2096.95 2.27951 0.158244 0
M  V30 22535 C 2097.16 1.24936 -3.25871 0
M  V30 22536 C 2098.51 1.67732 -3.90066 0
M  V30 22537 O 2099.53 1.34469 -3.29843 0
M  V30 22538 O 2098.39 2.29361 -4.9604 0
M  V30 22539 H 2095.49 0.379032 -0.735027 0
M  V30 22540 H 2098.03 0.0375096 -1.69659 0
M  V30 22541 H 2096.8 0.418302 -3.89058 0
M  V30 22542 H 2096.43 2.06159 -3.39977 0
M  V30 22543 N 2097.42 1.54103 0.330149 0
M  V30 22544 C 2098.35 1.8602 1.41134 0
M  V30 22545 C 2099.33 0.716429 1.54277 0
M  V30 22546 O 2100.52 0.969568 1.68265 0
M  V30 22547 C 2097.65 2.08171 2.77997 0
M  V30 22548 C 2096.6 3.24007 2.79649 0
M  V30 22549 C 2095.93 3.31516 4.19525 0
M  V30 22550 C 2097.23 4.6181 2.43985 0
M  V30 22551 H 2098.92 2.76569 1.14672 0
M  V30 22552 H 2096.47 1.33074 0.550199 0
M  V30 22553 H 2098.42 2.29083 3.53694 0
M  V30 22554 H 2097.15 1.14364 3.05922 0
M  V30 22555 H 2095.81 3.02971 2.06407 0
M  V30 22556 H 2095.45 2.3528 4.44581 0
M  V30 22557 H 2095.15 4.09364 4.21538 0
M  V30 22558 H 2096.68 3.54655 4.97044 0
M  V30 22559 H 2098.09 4.82647 3.09395 0
M  V30 22560 H 2096.49 5.4216 2.5726 0
M  V30 22561 H 2097.56 4.64507 1.39146 0
M  V30 22562 N 2098.9 -0.59187 1.46064 0
M  V30 22563 C 2099.83 -1.71199 1.58787 0
M  V30 22564 C 2100.81 -1.64348 0.438615 0
M  V30 22565 O 2102 -1.82506 0.663725 0
M  V30 22566 C 2099.13 -3.0983 1.56917 0
M  V30 22567 C 2098.08 -3.31505 2.70719 0
M  V30 22568 C 2097.41 -4.70569 2.53907 0
M  V30 22569 C 2098.71 -3.20228 4.12615 0
M  V30 22570 H 2100.4 -1.60807 2.5255 0
M  V30 22571 H 2097.95 -0.772206 1.21544 0
M  V30 22572 H 2099.9 -3.88003 1.64413 0
M  V30 22573 H 2098.63 -3.21099 0.596928 0
M  V30 22574 H 2097.28 -2.55727 2.62677 0
M  V30 22575 H 2096.93 -4.78592 1.54787 0
M  V30 22576 H 2096.63 -4.86025 3.30232 0
M  V30 22577 H 2098.16 -5.50923 2.6328 0
M  V30 22578 H 2099.57 -3.88257 4.21817 0
M  V30 22579 H 2097.97 -3.47209 4.89455 0
M  V30 22580 H 2099.04 -2.17437 4.33416 0
M  V30 22581 N 2100.38 -1.33616 -0.835729 0
M  V30 22582 C 2101.61 -1.28444 -1.6284 0
M  V30 22583 C 2102.03 0.141205 -1.87569 0
M  V30 22584 O 2101.39 1.09885 -1.44205 0
M  V30 22585 C 2101.44 -2.0683 -2.95387 0
M  V30 22586 O 2100.54 -1.42905 -3.86849 0
M  V30 22587 H 2099.88 -0.441742 -0.495742 0
M  V30 22588 H 2102.41 -1.76226 -1.0395 0
M  V30 22589 H 2102.42 -2.17712 -3.45059 0
M  V30 22590 H 2101.1 -3.1049 -2.76711 0
M  V30 22591 H 2099.67 -1.40689 -3.45342 0
M  V30 22592 N 2101.86 1.05436 -1.17136 0
M  V30 22593 C 2102.81 2.13124 -0.885828 0
M  V30 22594 C 2103.78 1.65235 0.169267 0
M  V30 22595 O 2104.96 1.90772 0.032594 0
M  V30 22596 C 2102.1 3.42744 -0.40256 0
M  V30 22597 C 2101.21 4.0432 -1.52149 0
M  V30 22598 C 2100.35 5.21849 -0.992347 0
M  V30 22599 C 2099.39 5.75426 -2.08689 0
M  V30 22600 N 2098.52 6.84259 -1.5727 0
M  V30 22601 H 2103.36 2.36887 -1.808 0
M  V30 22602 H 2100.9 1.16215 -0.901798 0
M  V30 22603 H 2102.86 4.17071 -0.10394 0
M  V30 22604 H 2101.49 3.19171 0.482653 0
M  V30 22605 H 2100.54 3.27456 -1.93589 0
M  V30 22606 H 2101.85 4.40127 -2.34711 0
M  V30 22607 H 2101.01 6.03236 -0.647426 0
M  V30 22608 H 2099.75 4.8751 -0.13613 0
M  V30 22609 H 2098.75 4.9267 -2.44041 0
M  V30 22610 H 2099.98 6.11813 -2.94722 0
M  V30 22611 H 2097.92 6.51822 -0.739158 0
M  V30 22612 H 2097.84 7.19055 -2.33442 0
M  V30 22613 H 2099.11 7.69304 -1.25663 0
M  V30 22614 N 2103.34 0.971211 1.24118 0
M  V30 22615 C 2104.56 0.652357 1.96873 0
M  V30 22616 C 2104.99 -0.772193 1.71519 0
M  V30 22617 O 2104.34 -1.52463 0.981051 0
M  V30 22618 C 2104.39 0.937388 3.48203 0
M  V30 22619 O 2103.5 0.0246311 4.12393 0
M  V30 22620 H 2102.84 0.246274 0.61664 0
M  V30 22621 H 2105.37 1.30231 1.578 0
M  V30 22622 H 2105.38 0.870349 3.98609 0
M  V30 22623 H 2104.05 1.97556 3.65984 0
M  V30 22624 H 2102.63 0.145292 3.72617 0
M  V30 22625 N 2104.81 -1.39054 0.741747 0
M  V30 22626 C 2106.04 -2.04371 0.302669 0
M  V30 22627 C 2106.45 -1.5605 -1.06982 0
M  V30 22628 O 2105.8 -0.723518 -1.68852 0
M  V30 22629 C 2105.86 -3.5874 0.233614 0
M  V30 22630 C 2105.52 -4.30067 1.54568 0
M  V30 22631 C 2106.52 -4.56248 2.49267 0
M  V30 22632 C 2104.2 -4.68484 1.81185 0
M  V30 22633 C 2106.2 -5.19864 3.68809 0
M  V30 22634 C 2103.88 -5.31827 3.01003 0
M  V30 22635 C 2104.88 -5.5745 3.94636 0
M  V30 22636 O 2104.57 -6.19478 5.1235 0
M  V30 22637 H 2104.3 -0.663574 0.129015 0
M  V30 22638 H 2106.86 -1.78957 1.00814 0
M  V30 22639 H 2105.09 -3.83078 -0.528012 0
M  V30 22640 H 2106.78 -4.05525 -0.174366 0
M  V30 22641 H 2107.54 -4.27008 2.29976 0
M  V30 22642 H 2103.42 -4.47893 1.09146 0
M  V30 22643 H 2106.96 -5.3978 4.41908 0
M  V30 22644 H 2102.86 -5.60488 3.20192 0
M  V30 22645 H 2103.63 -6.3797 5.12774 0
M  V30 22646 N 2106.29 -0.489897 -1.49792 0
M  V30 22647 C 2107.24 0.294423 -2.28914 0
M  V30 22648 C 2108.21 0.970384 -1.34806 0
M  V30 22649 O 2109.39 0.979195 -1.63757 0
M  V30 22650 C 2106.53 1.35949 -3.17194 0
M  V30 22651 C 2105.65 0.696419 -4.2635 0
M  V30 22652 C 2104.78 1.74098 -5.0186 0
M  V30 22653 C 2103.82 1.05917 -6.02866 0
M  V30 22654 N 2102.96 2.04743 -6.71584 0
M  V30 22655 H 2107.8 -0.386562 -2.95482 0
M  V30 22656 H 2105.34 -0.202479 -1.457 0
M  V30 22657 H 2107.29 1.98886 -3.66743 0
M  V30 22658 H 2105.92 2.00938 -2.52633 0
M  V30 22659 H 2104.98 -0.0459714 -3.80372 0
M  V30 22660 H 2106.29 0.159163 -4.98546 0
M  V30 22661 H 2105.44 2.44568 -5.55222 0
M  V30 22662 H 2104.18 2.31207 -4.29412 0
M  V30 22663 H 2103.19 0.340189 -5.48747 0
M  V30 22664 H 2104.41 0.494725 -6.77296 0
M  V30 22665 H 2102.36 2.60835 -6.01915 0
M  V30 22666 H 2102.27 1.56053 -7.39718 0
M  V30 22667 H 2103.54 2.74536 -7.29555 0
M  V30 22668 N 2107.77 1.56011 -0.223262 0
M  V30 22669 C 2108.7 2.23355 0.680795 0
M  V30 22670 C 2109.68 1.20584 1.19973 0
M  V30 22671 O 2110.87 1.49174 1.24342 0
M  V30 22672 C 2108 2.91478 1.88833 0
M  V30 22673 C 2106.95 4.00736 1.50316 0
M  V30 22674 C 2106.28 4.56164 2.7896 0
M  V30 22675 C 2107.58 5.17697 0.69188 0
M  V30 22676 H 2109.27 2.99162 0.119304 0
M  V30 22677 H 2106.82 1.43891 0.055942 0
M  V30 22678 H 2108.77 3.37282 2.52623 0
M  V30 22679 H 2107.49 2.13121 2.47481 0
M  V30 22680 H 2106.15 3.55665 0.888708 0
M  V30 22681 H 2105.8 3.74535 3.35757 0
M  V30 22682 H 2105.5 5.29903 2.53922 0
M  V30 22683 H 2107.02 5.04687 3.43691 0
M  V30 22684 H 2108.44 5.59872 1.23353 0
M  V30 22685 H 2106.84 5.97679 0.538515 0
M  V30 22686 H 2107.91 4.83964 -0.301131 0
M  V30 22687 N 2109.25 -0.0501116 1.5752 0
M  V30 22688 C 2110.18 -1.05708 2.08202 0
M  V30 22689 C 2111.16 -1.39032 0.980009 0
M  V30 22690 O 2112.34 -1.48283 1.25403 0
M  V30 22691 C 2109.47 -2.36429 2.54399 0
M  V30 22692 C 2108.43 -2.17402 3.68674 0
M  V30 22693 C 2107.75 -3.53698 4.01001 0
M  V30 22694 C 2109.05 -1.57741 4.97911 0
M  V30 22695 H 2110.75 -0.635258 2.92583 0
M  V30 22696 H 2108.29 -0.304127 1.40752 0
M  V30 22697 H 2110.25 -3.07184 2.88472 0
M  V30 22698 H 2108.97 -2.80631 1.67074 0
M  V30 22699 H 2107.63 -1.49084 3.34917 0
M  V30 22700 H 2107.28 -3.9551 3.10774 0
M  V30 22701 H 2106.98 -3.418 4.77961 0
M  V30 22702 H 2108.5 -4.25849 4.3759 0
M  V30 22703 H 2109.92 -2.18387 5.30075 0
M  V30 22704 H 2108.31 -1.56478 5.7934 0
M  V30 22705 H 2109.38 -0.540999 4.81873 0
M  V30 22706 N 2110.73 -1.54276 -0.321972 0
M  V30 22707 C 2111.98 -1.7177 -1.05726 0
M  V30 22708 C 2112.29 -0.499164 -1.89124 0
M  V30 22709 O 2113.49 -0.555477 -2.65757 0
M  V30 22710 C 2111.95 -3.03824 -1.92923 0
M  V30 22711 C 2111.56 -4.33087 -1.14629 0
M  V30 22712 C 2113.3 -3.30681 -2.66178 0
M  V30 22713 C 2111.21 -5.56202 -2.00981 0
M  V30 22714 H 2110.14 -0.64013 -0.398433 0
M  V30 22715 H 2112.79 -1.80769 -0.315414 0
M  V30 22716 H 2111.17 -2.88736 -2.71012 0
M  V30 22717 H 2112.35 -4.58946 -0.412993 0
M  V30 22718 H 2110.66 -4.13007 -0.530488 0
M  V30 22719 H 2113.26 -4.19857 -3.31096 0
M  V30 22720 H 2113.6 -2.48629 -3.339 0
M  V30 22721 H 2114.13 -3.46643 -1.95149 0
M  V30 22722 H 2110.87 -6.4086 -1.37764 0
M  V30 22723 H 2110.39 -5.3456 -2.7204 0
M  V30 22724 H 2112.07 -5.92667 -2.59528 0
M  V30 22725 N 2112.2 0.584116 -1.46376 0
M  V30 22726 C 2113.43 1.37331 -1.55419 0
M  V30 22727 C 2113.85 1.87082 -0.195472 0
M  V30 22728 O 2113.21 1.61486 0.824141 0
M  V30 22729 C 2113.26 2.53779 -2.56181 0
M  V30 22730 O 2112.36 3.55172 -2.09586 0
M  V30 22731 H 2111.71 0.409042 -0.523049 0
M  V30 22732 H 2114.24 0.708655 -1.91936 0
M  V30 22733 H 2114.25 3.00715 -2.75744 0
M  V30 22734 H 2112.92 2.16921 -3.5485 0
M  V30 22735 H 2111.5 3.14726 -2.00005 0
M  V30 22736 N 2113.68 1.34058 0.828631 0
M  V30 22737 C 2114.93 1.25844 1.58138 0
M  V30 22738 C 2115.25 -0.173004 1.94231 0
M  V30 22739 O 2114.52 -1.10425 1.61812 0
M  V30 22740 H 2113.1 0.4628 0.586366 0
M  V30 22741 H 2115.76 1.67901 0.989709 0
M  V30 22742 H 2114.86 1.85925 2.50676 0
M  V30 22743 N 2115.16 -1.04814 1.17694 0
M  V30 22744 C 2116.07 -2.16152 0.911889 0
M  V30 22745 C 2117.09 -1.73577 -0.121319 0
M  V30 22746 O 2118.26 -2.01314 0.0588399 0
M  V30 22747 C 2115.33 -3.43985 0.433003 0
M  V30 22748 C 2114.39 -4.00986 1.53326 0
M  V30 22749 C 2113.62 -5.22717 1.07713 0
M  V30 22750 O 2113.85 -5.7036 -0.0671938 0
M  V30 22751 O 2112.78 -5.72056 1.87176 0
M  V30 22752 H 2116.61 -2.41362 1.84331 0
M  V30 22753 H 2114.19 -1.1463 0.958135 0
M  V30 22754 H 2116.07 -4.21042 0.17365 0
M  V30 22755 H 2114.75 -3.20266 -0.470221 0
M  V30 22756 H 2113.65 -3.25352 1.84654 0
M  V30 22757 H 2114.99 -4.2903 2.41234 0
M  V30 22758 N 2116.64 -0.977779 -1.23601 0
M  V30 22759 C 2117.57 -0.535228 -2.27283 0
M  V30 22760 C 2118.55 0.430261 -1.64568 0
M  V30 22761 O 2119.74 0.324195 -1.91475 0
M  V30 22762 C 2116.87 0.165683 -3.46905 0
M  V30 22763 C 2115.82 -0.716827 -4.21954 0
M  V30 22764 C 2115.15 0.116149 -5.34574 0
M  V30 22765 C 2116.45 -2.00636 -4.82227 0
M  V30 22766 H 2118.14 -1.40185 -2.64553 0
M  V30 22767 H 2115.69 -0.67551 -1.27173 0
M  V30 22768 H 2117.64 0.486573 -4.18581 0
M  V30 22769 H 2116.36 1.06674 -3.08688 0
M  V30 22770 H 2115.02 -1.02114 -3.52091 0
M  V30 22771 H 2114.67 1.01766 -4.92598 0
M  V30 22772 H 2114.37 -0.471195 -5.85708 0
M  V30 22773 H 2115.89 0.431481 -6.09074 0
M  V30 22774 H 2117.31 -1.75041 -5.45925 0
M  V30 22775 H 2115.7 -2.54126 -5.43636 0
M  V30 22776 H 2116.77 -2.69488 -4.03118 0
M  V30 22777 N 2118.12 1.38658 -0.749111 0
M  V30 22778 C 2119.06 2.30496 -0.118423 0
M  V30 22779 C 2120.03 1.49947 0.714492 0
M  V30 22780 O 2121.22 1.78591 0.671546 0
M  V30 22781 C 2118.36 3.3635 0.772186 0
M  V30 22782 C 2117.47 4.31935 -0.0748716 0
M  V30 22783 C 2116.61 5.24859 0.818323 0
M  V30 22784 C 2115.65 6.12091 -0.0326386 0
M  V30 22785 N 2114.78 6.97327 0.817267 0
M  V30 22786 H 2119.62 2.83856 -0.90718 0
M  V30 22787 H 2117.16 1.39755 -0.459001 0
M  V30 22788 H 2119.12 3.96326 1.30313 0
M  V30 22789 H 2117.75 2.84411 1.52677 0
M  V30 22790 H 2116.8 3.73458 -0.723395 0
M  V30 22791 H 2118.11 4.93396 -0.732237 0
M  V30 22792 H 2117.27 5.8993 1.4166 0
M  V30 22793 H 2116.01 4.63754 1.50943 0
M  V30 22794 H 2115.01 5.4602 -0.643614 0
M  V30 22795 H 2116.24 6.75264 -0.720742 0
M  V30 22796 H 2114.18 6.38775 1.49341 0
M  V30 22797 H 2114.1 7.55689 0.216698 0
M  V30 22798 H 2115.37 7.66813 1.40066 0
M  V30 22799 N 2119.6 0.497834 1.49531 0
M  V30 22800 C 2120.84 -0.0496362 2.01639 0
M  V30 22801 C 2121.16 -1.3834 1.38281 0
M  V30 22802 O 2122.36 -2.01737 1.81699 0
M  V30 22803 C 2120.82 -0.138928 3.59632 0
M  V30 22804 C 2120.43 1.188 4.31961 0
M  V30 22805 C 2122.17 -0.636931 4.19694 0
M  V30 22806 C 2120.08 1.06104 5.81804 0
M  V30 22807 H 2119.01 -0.0223237 0.753669 0
M  V30 22808 H 2121.66 0.636776 1.72097 0
M  V30 22809 H 2120.04 -0.88972 3.85876 0
M  V30 22810 H 2121.22 1.95184 4.17421 0
M  V30 22811 H 2119.53 1.61919 3.83629 0
M  V30 22812 H 2122.13 -0.749374 5.29423 0
M  V30 22813 H 2122.47 -1.63499 3.8285 0
M  V30 22814 H 2123 0.0572358 3.97759 0
M  V30 22815 H 2119.74 2.03327 6.23168 0
M  V30 22816 H 2119.26 0.33804 5.98847 0
M  V30 22817 H 2120.94 0.738481 6.42772 0
M  V30 22818 N 2121.07 -1.5589 0.231532 0
M  V30 22819 C 2122 -2.23713 -0.66894 0
M  V30 22820 C 2122.98 -1.21219 -1.19332 0
M  V30 22821 O 2124.17 -1.49831 -1.23549 0
M  V30 22822 C 2121.3 -2.92476 -1.87284 0
M  V30 22823 C 2120.25 -4.01527 -1.48189 0
M  V30 22824 C 2119.58 -4.57637 -2.76537 0
M  V30 22825 C 2120.88 -5.18057 -0.664415 0
M  V30 22826 H 2122.57 -2.99221 -0.103437 0
M  V30 22827 H 2120.12 -1.43919 -0.0483103 0
M  V30 22828 H 2122.07 -3.38617 -2.50831 0
M  V30 22829 H 2120.8 -2.14431 -2.46347 0
M  V30 22830 H 2119.46 -3.56131 -0.869833 0
M  V30 22831 H 2119.1 -3.7631 -3.33766 0
M  V30 22832 H 2118.8 -5.31242 -2.51108 0
M  V30 22833 H 2120.33 -5.06503 -3.41009 0
M  V30 22834 H 2121.74 -5.60519 -1.20382 0
M  V30 22835 H 2120.14 -5.97956 -0.506811 0
M  V30 22836 H 2121.21 -4.83798 0.326792 0
M  V30 22837 N 2122.55 0.0417572 -1.57545 0
M  V30 22838 C 2123.48 1.079 -2.01079 0
M  V30 22839 C 2124.46 1.35893 -0.892851 0
M  V30 22840 O 2125.65 1.48763 -1.15766 0
M  V30 22841 C 2122.77 2.41667 -2.37308 0
M  V30 22842 C 2121.82 2.29614 -3.59416 0
M  V30 22843 S 2122.65 1.66161 -5.09069 0
M  V30 22844 C 2123.81 3.01444 -5.48527 0
M  V30 22845 H 2124.04 0.70813 -2.88743 0
M  V30 22846 H 2121.57 0.251319 -1.52341 0
M  V30 22847 H 2123.53 3.186 -2.58852 0
M  V30 22848 H 2122.19 2.75905 -1.50118 0
M  V30 22849 H 2121.39 3.28333 -3.82379 0
M  V30 22850 H 2120.99 1.60822 -3.37657 0
M  V30 22851 H 2123.28 3.97775 -5.48435 0
M  V30 22852 H 2124.22 2.83228 -6.48989 0
M  V30 22853 H 2124.63 3.03433 -4.76014 0
M  V30 22854 N 2124.03 1.54445 0.313786 0
M  V30 22855 C 2124.96 1.87506 1.39153 0
M  V30 22856 C 2125.94 0.732752 1.53508 0
M  V30 22857 O 2127.13 0.98736 1.67227 0
M  V30 22858 C 2124.26 2.11107 2.75773 0
M  V30 22859 C 2123.21 3.26954 2.76197 0
M  V30 22860 C 2122.54 3.35947 4.15985 0
M  V30 22861 C 2123.84 4.64372 2.39073 0
M  V30 22862 H 2125.53 2.7777 1.11732 0
M  V30 22863 H 2123.08 1.33651 0.536054 0
M  V30 22864 H 2125.03 2.32821 3.51244 0
M  V30 22865 H 2123.75 1.17602 3.04692 0
M  V30 22866 H 2122.41 3.05144 2.03182 0
M  V30 22867 H 2122.06 2.39982 4.42061 0
M  V30 22868 H 2121.76 4.13812 4.17173 0
M  V30 22869 H 2123.28 3.59906 4.93254 0
M  V30 22870 H 2124.7 4.85901 3.04258 0
M  V30 22871 H 2123.09 5.44858 2.51496 0
M  V30 22872 H 2124.16 4.65956 1.34211 0
M  V30 22873 N 2125.51 -0.576345 1.46683 0
M  V30 22874 C 2126.46 -1.70601 1.58108 0
M  V30 22875 C 2127.45 -1.63334 0.449247 0
M  V30 22876 O 2128.66 -1.68751 0.626355 0
M  V30 22877 H 2125.03 -0.564161 0.497218 0
M  V30 22878 H 2127 -1.58098 2.53076 0
M  V30 22879 C 2125.75 -3.08983 1.59452 0
M  V30 22880 H 2125.07 -3.15247 2.45885 0
M  V30 22881 H 2126.51 -3.87768 1.715 0
M  V30 22882 C 2124.97 -3.35335 0.324303 0
M  V30 22883 O 2125.5 -3.9745 -0.58277 0
M  V30 22884 N 2123.71 -2.89838 0.21024 0
M  V30 22885 H 2123.26 -2.39471 0.949293 0
M  V30 22886 H 2123.21 -3.07843 -0.638752 0
M  V30 22887 N 2126.99 -1.34495 -0.82151 0
M  V30 22888 C 2128.21 -1.30164 -1.61468 0
M  V30 22889 C 2128.64 0.121303 -1.87708 0
M  V30 22890 O 2127.99 1.08349 -1.45362 0
M  V30 22891 C 2128.04 -2.09951 -2.93177 0
M  V30 22892 O 2127.15 -1.47 -3.85311 0
M  V30 22893 H 2126.49 -0.446975 -0.491029 0
M  V30 22894 H 2129.02 -1.77318 -1.02075 0
M  V30 22895 H 2129.03 -2.21359 -3.4273 0
M  V30 22896 H 2127.7 -3.13407 -2.73402 0
M  V30 22897 H 2126.28 -1.44343 -3.4383 0
M  V30 22898 N 2128.46 1.04188 -1.18248 0
M  V30 22899 C 2129.41 2.14282 -0.904765 0
M  V30 22900 C 2130.41 1.68865 0.134493 0
M  V30 22901 O 2131.61 1.79995 -0.013541 0
M  V30 22902 H 2127.99 0.699873 -0.275103 0
M  V30 22903 H 2129.96 2.34904 -1.84018 0
M  V30 22904 C 2128.71 3.44832 -0.445645 0
M  V30 22905 H 2128.03 3.80187 -1.23683 0
M  V30 22906 H 2129.47 4.23005 -0.29031 0
M  V30 22907 C 2127.93 3.26303 0.838325 0
M  V30 22908 O 2128.46 3.53774 1.90282 0
M  V30 22909 N 2126.67 2.79643 0.79045 0
M  V30 22910 H 2126.21 2.57488 -0.0760399 0
M  V30 22911 H 2126.17 2.67626 1.64996 0
M  V30 22912 N 2129.94 0.98432 1.23081 0
M  V30 22913 C 2130.89 0.498852 2.22476 0
M  V30 22914 C 2131.88 -0.428273 1.55096 0
M  V30 22915 O 2133.07 -0.256489 1.75132 0
M  V30 22916 C 2130.2 -0.19359 3.42754 0
M  V30 22917 C 2129.28 0.753335 4.17356 0
M  V30 22918 N 2129.67 1.89761 4.68855 0
M  V30 22919 C 2127.97 0.567461 4.42375 0
M  V30 22920 C 2128.67 2.49126 5.25653 0
M  V30 22921 N 2127.65 1.77476 5.13813 0
M  V30 22922 H 2131.45 1.37169 2.59927 0
M  V30 22923 H 2128.97 0.84549 1.38655 0
M  V30 22924 H 2130.96 -0.558714 4.13139 0
M  V30 22925 H 2129.62 -1.06267 3.06818 0
M  V30 22926 H 2130.63 2.27867 4.65077 0
M  V30 22927 H 2127.31 -0.256271 4.16713 0
M  V30 22928 H 2128.7 3.45782 5.76094 0
M  V30 22929 N 2131.42 -1.38259 0.756453 0
M  V30 22930 C 2132.67 -1.99293 0.310658 0
M  V30 22931 C 2132.98 -1.60729 -1.11469 0
M  V30 22932 O 2134.19 -2.14755 -1.6611 0
M  V30 22933 C 2132.64 -3.56347 0.50448 0
M  V30 22934 C 2132.25 -4.0386 1.9391 0
M  V30 22935 C 2134 -4.24326 0.121541 0
M  V30 22936 C 2131.9 -5.53565 2.08133 0
M  V30 22937 H 2130.83 -0.745574 0.112405 0
M  V30 22938 H 2133.48 -1.57987 0.933403 0
M  V30 22939 H 2131.87 -3.95556 -0.187493 0
M  V30 22940 H 2133.04 -3.75934 2.66478 0
M  V30 22941 H 2131.36 -3.48614 2.27722 0
M  V30 22942 H 2133.95 -5.34301 0.206533 0
M  V30 22943 H 2134.3 -4.05866 -0.926213 0
M  V30 22944 H 2134.83 -3.90366 0.765478 0
M  V30 22945 H 2131.57 -5.76933 3.11173 0
M  V30 22946 H 2131.09 -5.83225 1.4003 0
M  V30 22947 H 2132.77 -6.19307 1.87264 0
M  V30 22948 N 2132.9 -0.505757 -1.49264 0
M  V30 22949 C 2133.83 0.30691 -2.27136 0
M  V30 22950 C 2134.84 0.926357 -1.33875 0
M  V30 22951 O 2136.03 0.808892 -1.5912 0
M  V30 22952 C 2133.13 1.44752 -3.06431 0
M  V30 22953 C 2132.31 0.934498 -4.27301 0
M  V30 22954 C 2131.36 1.95329 -4.88603 0
M  V30 22955 O 2130.39 1.51993 -5.48532 0
M  V30 22956 N 2131.59 3.28401 -4.78678 0
M  V30 22957 H 2134.36 -0.360836 -2.9752 0
M  V30 22958 H 2131.92 -0.338592 -1.5832 0
M  V30 22959 H 2133.91 2.12672 -3.44315 0
M  V30 22960 H 2132.48 2.01934 -2.38624 0
M  V30 22961 H 2131.7 0.0800492 -3.94119 0
M  V30 22962 H 2132.99 0.570223 -5.05595 0
M  V30 22963 H 2132.39 3.66295 -4.31097 0
M  V30 22964 H 2130.94 3.92022 -5.20732 0
M  V30 22965 N 2134.38 1.55765 -0.239796 0
M  V30 22966 C 2135.31 2.18397 0.695377 0
M  V30 22967 C 2136.32 1.15822 1.14407 0
M  V30 22968 O 2137.51 1.4272 1.07207 0
M  V30 22969 C 2134.61 2.76755 1.95601 0
M  V30 22970 C 2133.78 4.0468 1.65992 0
M  V30 22971 C 2132.84 4.47425 2.76943 0
M  V30 22972 O 2131.87 5.13949 2.44632 0
M  V30 22973 N 2133.07 4.14619 4.0629 0
M  V30 22974 H 2135.84 2.99275 0.15952 0
M  V30 22975 H 2133.4 1.61791 -0.0594819 0
M  V30 22976 H 2135.39 3.02313 2.69052 0
M  V30 22977 H 2133.96 2.00075 2.40185 0
M  V30 22978 H 2133.18 3.86786 0.760934 0
M  V30 22979 H 2134.47 4.88096 1.43664 0
M  V30 22980 H 2133.86 3.61198 4.35376 0
M  V30 22981 H 2132.42 4.45028 4.76228 0
M  V30 22982 N 2135.85 -0.0334016 1.57565 0
M  V30 22983 C 2136.8 -1.03536 2.06274 0
M  V30 22984 C 2137.77 -1.36182 0.950989 0
M  V30 22985 O 2138.96 -1.46593 1.22127 0
M  V30 22986 C 2136.1 -2.33256 2.54334 0
M  V30 22987 C 2135.21 -2.06807 3.79282 0
M  V30 22988 C 2134.34 -3.30365 4.15971 0
M  V30 22989 C 2133.38 -2.99452 5.33849 0
M  V30 22990 N 2132.52 -4.15449 5.65991 0
M  V30 22991 H 2137.36 -0.613034 2.91626 0
M  V30 22992 H 2134.9 -0.291083 1.44191 0
M  V30 22993 H 2136.86 -3.09044 2.80264 0
M  V30 22994 H 2135.49 -2.73219 1.71905 0
M  V30 22995 H 2134.54 -1.21536 3.60463 0
M  V30 22996 H 2135.85 -1.8 4.6519 0
M  V30 22997 H 2135 -4.14524 4.43007 0
M  V30 22998 H 2133.74 -3.60282 3.28706 0
M  V30 22999 H 2132.75 -2.13695 5.06571 0
M  V30 23000 H 2133.97 -2.70817 6.22764 0
M  V30 23001 H 2131.92 -4.45326 4.81686 0
M  V30 23002 H 2131.84 -3.9205 6.464 0
M  V30 23003 H 2133.1 -5.00494 5.976 0
M  V30 23004 N 2137.33 -1.54609 -0.305591 0
M  V30 23005 C 2138.58 -1.72882 -1.03898 0
M  V30 23006 C 2138.89 -0.519195 -1.88583 0
M  V30 23007 O 2140.1 -0.583633 -2.65153 0
M  V30 23008 C 2138.56 -3.05853 -1.89689 0
M  V30 23009 C 2138.16 -4.34278 -1.10029 0
M  V30 23010 C 2139.91 -3.33485 -2.62656 0
M  V30 23011 C 2137.82 -5.58302 -1.9507 0
M  V30 23012 H 2136.75 -0.64432 -0.391621 0
M  V30 23013 H 2139.4 -1.81093 -0.296223 0
M  V30 23014 H 2137.78 -2.91594 -2.67935 0
M  V30 23015 H 2138.95 -4.59358 -0.364293 0
M  V30 23016 H 2137.27 -4.13546 -0.486653 0
M  V30 23017 H 2139.86 -4.23345 -3.26624 0
M  V30 23018 H 2140.21 -2.52157 -3.31244 0
M  V30 23019 H 2140.74 -3.48694 -1.91462 0
M  V30 23020 H 2137.48 -6.42285 -1.3096 0
M  V30 23021 H 2137 -5.37415 -2.66355 0
M  V30 23022 H 2138.68 -5.95386 -2.53228 0
M  V30 23023 N 2138.81 0.568558 -1.46987 0
M  V30 23024 C 2140.09 1.3291 -1.43507 0
M  V30 23025 C 2140.47 2.10724 -0.12598 0
M  V30 23026 O 2139.82 2.10348 0.892528 0
M  V30 23027 C 2140.03 2.2432 -2.6736 0
M  V30 23028 C 2141.37 2.85701 -3.14102 0
M  V30 23029 O 2142.4 2.34627 -2.68009 0
M  V30 23030 O 2141.26 3.78504 -3.94204 0
M  V30 23031 H 2138.35 0.597891 -0.571363 0
M  V30 23032 H 2140.9 0.588401 -1.59173 0
M  V30 23033 H 2139.67 1.66345 -3.54182 0
M  V30 23034 H 2139.29 3.05705 -2.54224 0
M  V30 23035 N 2140.29 1.34929 0.814366 0
M  V30 23036 C 2141.52 1.30673 1.60025 0
M  V30 23037 C 2141.93 -0.119552 1.88822 0
M  V30 23038 O 2141.27 -1.07963 1.48626 0
M  V30 23039 C 2141.33 2.0381 2.96145 0
M  V30 23040 C 2141 3.53033 2.90201 0
M  V30 23041 C 2141.99 4.47776 2.64183 0
M  V30 23042 C 2139.68 3.9557 3.09564 0
M  V30 23043 C 2141.67 5.83031 2.57592 0
M  V30 23044 C 2139.36 5.30923 3.02596 0
M  V30 23045 C 2140.36 6.24465 2.76645 0
M  V30 23046 O 2140.04 7.57336 2.69626 0
M  V30 23047 H 2139.78 0.450688 0.503842 0
M  V30 23048 H 2142.33 1.78247 1.02064 0
M  V30 23049 H 2140.56 1.50862 3.56058 0
M  V30 23050 H 2142.25 1.92733 3.57224 0
M  V30 23051 H 2143.02 4.16231 2.48951 0
M  V30 23052 H 2138.89 3.23151 3.28777 0
M  V30 23053 H 2142.44 6.56015 2.37256 0
M  V30 23054 H 2138.34 5.62083 3.17384 0
M  V30 23055 H 2139.1 7.67171 2.8529 0
M  V30 23056 N 2141.77 -1.0356 1.18799 0
M  V30 23057 C 2143.02 -1.76246 0.980824 0
M  V30 23058 C 2143.33 -1.89365 -0.489935 0
M  V30 23059 O 2144.53 -2.58955 -0.815746 0
M  V30 23060 C 2142.99 -3.16901 1.70592 0
M  V30 23061 C 2142.6 -3.11859 3.21633 0
M  V30 23062 C 2144.34 -3.9393 1.58175 0
M  V30 23063 C 2142.25 -4.47404 3.8676 0
M  V30 23064 H 2141.18 -0.660673 0.363355 0
M  V30 23065 H 2143.83 -1.15949 1.42225 0
M  V30 23066 H 2142.21 -3.77625 1.19228 0
M  V30 23067 H 2143.39 -2.60556 3.80062 0
M  V30 23068 H 2141.7 -2.48328 3.34249 0
M  V30 23069 H 2144.3 -4.94177 2.0419 0
M  V30 23070 H 2144.64 -4.1285 0.534821 0
M  V30 23071 H 2145.17 -3.39792 2.06848 0
M  V30 23072 H 2141.91 -4.33688 4.91523 0
M  V30 23073 H 2141.43 -4.9879 3.3312 0
M  V30 23074 H 2143.11 -5.16306 3.89919 0
M  V30 23075 N 2143.25 -0.990834 -1.22557 0
M  V30 23076 C 2144.49 -0.664218 -1.90873 0
M  V30 23077 C 2144.81 0.80601 -1.77563 0
M  V30 23078 O 2144.08 1.57751 -1.16153 0
M  V30 23079 H 2142.66 -0.242684 -0.70648 0
M  V30 23080 H 2145.33 -1.2569 -1.48957 0
M  V30 23081 H 2144.42 -0.924949 -2.98079 0
M  V30 23082 N 2144.72 1.37856 -0.763775 0
M  V30 23083 C 2145.97 1.99883 -0.324496 0
M  V30 23084 C 2146.3 1.60631 1.09672 0
M  V30 23085 O 2145.55 0.840171 1.76747 0
M  V30 23086 C 2145.85 3.55083 -0.406337 0
M  V30 23087 C 2145.52 4.14078 -1.78466 0
M  V30 23088 C 2144.18 4.29904 -2.16185 0
M  V30 23089 C 2146.53 4.46517 -2.68834 0
M  V30 23090 C 2143.86 4.7547 -3.43723 0
M  V30 23091 C 2146.21 4.93504 -3.95774 0
M  V30 23092 C 2144.88 5.07536 -4.33547 0
M  V30 23093 H 2144.15 0.731424 -0.118741 0
M  V30 23094 H 2146.79 1.64747 -0.976245 0
M  V30 23095 H 2145.1 3.90417 0.328964 0
M  V30 23096 H 2146.8 4.00971 -0.0478734 0
M  V30 23097 H 2143.39 4.02182 -1.48149 0
M  V30 23098 H 2147.57 4.33883 -2.40955 0
M  V30 23099 H 2142.83 4.8452 -3.72895 0
M  V30 23100 H 2147 5.17572 -4.65931 0
M  V30 23101 H 2144.63 5.42603 -5.32434 0
M  V30 23102 N 2146.2 0.513665 1.48994 0
M  V30 23103 C 2147.15 -0.271533 2.3101 0
M  V30 23104 C 2148.14 -0.950911 1.40193 0
M  V30 23105 O 2149.35 -0.877155 1.57181 0
M  V30 23106 H 2145.72 -0.106429 0.744431 0
M  V30 23107 H 2147.7 0.440007 2.95138 0
M  V30 23108 C 2146.44 -1.3155 3.21854 0
M  V30 23109 H 2145.77 -0.802134 3.91671 0
M  V30 23110 H 2147.21 -1.83663 3.82157 0
M  V30 23111 C 2145.67 -2.34045 2.42332 0
M  V30 23112 O 2146.2 -3.40173 2.13647 0
M  V30 23113 N 2144.4 -2.06838 2.04123 0
M  V30 23114 H 2143.95 -1.20552 2.27651 0
M  V30 23115 H 2143.91 -2.75641 1.51225 0
M  V30 23116 N 2147.68 -1.55636 0.248053 0
M  V30 23117 C 2148.9 -2.03825 -0.383439 0
M  V30 23118 C 2149.33 -1.12611 -1.50666 0
M  V30 23119 O 2148.69 -0.119296 -1.80907 0
M  V30 23120 C 2148.74 -3.5001 -0.86748 0
M  V30 23121 O 2147.84 -3.61925 -1.97696 0
M  V30 23122 H 2147.18 -0.65874 -0.0834089 0
M  V30 23123 H 2149.71 -2.01144 0.374447 0
M  V30 23124 H 2149.72 -3.90853 -1.17039 0
M  V30 23125 H 2148.4 -4.15875 -0.0455341 0
M  V30 23126 H 2146.97 -3.3298 -1.67866 0
M  V30 23127 N 2149.16 0.0250451 -1.5758 0
M  V30 23128 C 2150.07 1.04128 -2.10225 0
M  V30 23129 C 2151.08 1.39367 -1.04178 0
M  V30 23130 O 2152.26 1.48605 -1.35936 0
M  V30 23131 C 2149.32 2.32208 -2.5745 0
M  V30 23132 C 2148.39 2.03512 -3.77996 0
M  V30 23133 C 2147.62 3.25486 -4.22959 0
M  V30 23134 O 2147.84 4.36301 -3.6742 0
M  V30 23135 O 2146.78 3.1095 -5.15358 0
M  V30 23136 H 2150.6 0.623859 -2.97223 0
M  V30 23137 H 2148.19 0.242286 -1.47422 0
M  V30 23138 H 2150.07 3.07498 -2.88137 0
M  V30 23139 H 2148.74 2.73237 -1.73561 0
M  V30 23140 H 2147.65 1.25777 -3.52322 0
M  V30 23141 H 2148.98 1.67337 -4.62882 0
M  V30 23142 N 2150.64 1.54769 0.297388 0
M  V30 23143 C 2151.57 1.88972 1.37157 0
M  V30 23144 C 2152.55 0.748993 1.52722 0
M  V30 23145 O 2153.73 1.00504 1.6617 0
M  V30 23146 C 2150.86 2.1402 2.73519 0
M  V30 23147 C 2149.82 3.29865 2.72714 0
M  V30 23148 C 2149.14 3.4034 4.12399 0
M  V30 23149 C 2150.44 4.66881 2.34135 0
M  V30 23150 H 2152.14 2.7894 1.0878 0
M  V30 23151 H 2149.68 1.34212 0.521848 0
M  V30 23152 H 2151.63 2.36533 3.48755 0
M  V30 23153 H 2150.36 1.20827 3.03428 0
M  V30 23154 H 2149.02 3.07281 1.99934 0
M  V30 23155 H 2148.67 2.44657 4.3949 0
M  V30 23156 H 2148.37 4.18214 4.1276 0
M  V30 23157 H 2149.89 3.65118 4.89409 0
M  V30 23158 H 2151.3 4.89101 2.99087 0
M  V30 23159 H 2149.7 5.47495 2.45703 0
M  V30 23160 H 2150.77 4.67354 1.29261 0
M  V30 23161 N 2152.11 -0.560755 1.47286 0
M  V30 23162 C 2153.05 -1.68324 1.55562 0
M  V30 23163 C 2154.06 -1.56682 0.442105 0
M  V30 23164 O 2155.25 -1.63705 0.711545 0
M  V30 23165 C 2152.35 -3.06762 1.44049 0
M  V30 23166 C 2151.52 -3.44193 2.69907 0
M  V30 23167 C 2150.58 -4.6178 2.52281 0
M  V30 23168 O 2149.61 -4.66538 3.26084 0
M  V30 23169 N 2150.81 -5.5805 1.59876 0
M  V30 23170 H 2153.57 -1.61672 2.52353 0
M  V30 23171 H 2151.13 -0.747304 1.43621 0
M  V30 23172 H 2153.13 -3.83253 1.29997 0
M  V30 23173 H 2151.7 -3.0766 0.553546 0
M  V30 23174 H 2150.92 -2.57186 2.98746 0
M  V30 23175 H 2152.2 -3.65975 3.53468 0
M  V30 23176 H 2151.6 -5.56959 0.990593 0
M  V30 23177 H 2150.16 -6.33882 1.51778 0
M  V30 23178 N 2153.59 -1.35359 -0.807199 0
M  V30 23179 C 2154.54 -1.2823 -1.919 0
M  V30 23180 C 2155.51 -0.154371 -1.65381 0
M  V30 23181 O 2156.69 -0.337971 -1.87783 0
M  V30 23182 C 2153.83 -1.05957 -3.28431 0
M  V30 23183 C 2152.95 -2.27666 -3.6714 0
M  V30 23184 C 2152.08 -1.98548 -4.92699 0
M  V30 23185 C 2151.12 -3.16315 -5.24034 0
M  V30 23186 N 2150.26 -2.86976 -6.40772 0
M  V30 23187 H 2155.1 -2.23305 -1.97329 0
M  V30 23188 H 2152.63 -1.11004 -0.965216 0
M  V30 23189 H 2154.59 -0.910752 -4.07138 0
M  V30 23190 H 2153.22 -0.145447 -3.22472 0
M  V30 23191 H 2152.27 -2.53414 -2.83699 0
M  V30 23192 H 2153.59 -3.15606 -3.86257 0
M  V30 23193 H 2152.74 -1.80493 -5.7923 0
M  V30 23194 H 2151.48 -1.07893 -4.75616 0
M  V30 23195 H 2150.48 -3.34948 -4.35993 0
M  V30 23196 H 2151.71 -4.07771 -5.43047 0
M  V30 23197 H 2149.66 -1.98914 -6.25115 0
M  V30 23198 H 2149.57 -3.6845 -6.60137 0
M  V30 23199 H 2150.84 -2.72461 -7.30332 0
M  V30 23200 N 2155.07 1.02928 -1.19346 0
M  V30 23201 C 2156.02 2.1331 -0.927441 0
M  V30 23202 C 2157.01 1.68998 0.116575 0
M  V30 23203 O 2158.22 1.7997 -0.0326311 0
M  V30 23204 H 2154.59 0.696916 -0.282511 0
M  V30 23205 H 2156.56 2.32939 -1.865 0
M  V30 23206 C 2155.31 3.4434 -0.482194 0
M  V30 23207 H 2154.64 3.78854 -1.27709 0
M  V30 23208 H 2156.08 4.22673 -0.335159 0
M  V30 23209 C 2154.53 3.27174 0.803669 0
M  V30 23210 O 2155.06 3.55772 1.86519 0
M  V30 23211 N 2153.27 2.80466 0.760745 0
M  V30 23212 H 2152.82 2.57393 -0.103346 0
M  V30 23213 H 2152.78 2.69361 1.62149 0
M  V30 23214 N 2156.55 0.997319 1.2203 0
M  V30 23215 C 2157.8 0.671095 1.90208 0
M  V30 23216 C 2158.11 -0.800818 1.78455 0
M  V30 23217 O 2159.32 -1.23881 2.4159 0
M  V30 23218 C 2157.77 1.14983 3.41038 0
M  V30 23219 C 2157.38 2.64727 3.61419 0
M  V30 23220 C 2159.12 0.898134 4.1489 0
M  V30 23221 C 2157.03 3.06181 5.05972 0
M  V30 23222 H 2155.96 0.247312 0.712287 0
M  V30 23223 H 2158.61 1.20747 1.38176 0
M  V30 23224 H 2156.99 0.541553 3.92279 0
M  V30 23225 H 2158.17 3.30938 3.2065 0
M  V30 23226 H 2156.48 2.87827 3.00906 0
M  V30 23227 H 2159.08 1.18349 5.21438 0
M  V30 23228 H 2159.42 -0.165703 4.1597 0
M  V30 23229 H 2159.96 1.46882 3.6969 0
M  V30 23230 H 2156.69 4.11759 5.10034 0
M  V30 23231 H 2156.21 2.44676 5.47625 0
M  V30 23232 H 2157.89 2.97729 5.74427 0
M  V30 23233 N 2158.03 -1.37449 0.771075 0
M  V30 23234 C 2159.44 -1.82352 0.400585 0
M  V30 23235 C 2159.79 -1.64247 -1.07318 0
M  V30 23236 O 2158.91 -1.15322 -1.83111 0
M  V30 23237 C 2159.51 -3.31054 0.720312 0
M  V30 23238 C 2158.07 -3.74238 0.402886 0
M  V30 23239 C 2157.21 -2.59986 0.964497 0
M  V30 23240 H 2160.17 -1.2593 0.965782 0
M  V30 23241 H 2160.19 -3.805 0.00472604 0
M  V30 23242 H 2159.7 -3.44199 1.793 0
M  V30 23243 H 2157.8 -3.66663 -0.662511 0
M  V30 23244 H 2157.91 -4.70365 0.910666 0
M  V30 23245 H 2156.28 -2.51715 0.388782 0
M  V30 23246 H 2157.06 -2.75924 2.04257 0
M  V30 23247 N 2159.5 -0.52156 -1.4872 0
M  V30 23248 C 2160.73 0.0117795 -2.06597 0
M  V30 23249 C 2161.14 1.29478 -1.37957 0
M  V30 23250 O 2160.49 1.77894 -0.458208 0
M  V30 23251 C 2160.55 0.314883 -3.58118 0
M  V30 23252 C 2160.21 -0.873397 -4.48576 0
M  V30 23253 C 2161.21 -1.76953 -4.8886 0
M  V30 23254 C 2158.89 -1.07801 -4.90596 0
M  V30 23255 C 2160.89 -2.85425 -5.69922 0
M  V30 23256 C 2158.57 -2.16589 -5.7143 0
M  V30 23257 C 2159.57 -3.05234 -6.11 0
M  V30 23258 O 2159.26 -4.1214 -6.90214 0
M  V30 23259 H 2158.99 -0.0265589 -0.675478 0
M  V30 23260 H 2161.55 -0.724145 -1.92212 0
M  V30 23261 H 2159.78 1.10467 -3.70586 0
M  V30 23262 H 2161.47 0.789292 -3.98152 0
M  V30 23263 H 2162.23 -1.62335 -4.57026 0
M  V30 23264 H 2158.11 -0.397342 -4.59284 0
M  V30 23265 H 2161.65 -3.54643 -6.00728 0
M  V30 23266 H 2157.55 -2.31193 -6.02677 0
M  V30 23267 H 2158.32 -4.09746 -7.08555 0
M  V30 23268 N 2160.98 1.55502 -0.256304 0
M  V30 23269 C 2162.21 2.04025 0.372624 0
M  V30 23270 C 2162.63 1.13408 1.50067 0
M  V30 23271 O 2161.99 0.128888 1.80841 0
M  V30 23272 C 2162.04 3.50465 0.848906 0
M  V30 23273 O 2161.14 3.62969 1.95774 0
M  V30 23274 H 2160.48 0.659174 0.0799143 0
M  V30 23275 H 2163.01 2.00943 -0.385109 0
M  V30 23276 H 2163.02 3.91468 1.14965 0
M  V30 23277 H 2161.7 4.15893 0.0234786 0
M  V30 23278 H 2160.28 3.33865 1.66098 0
M  V30 23279 N 2162.46 -0.0166879 1.57591 0
M  V30 23280 C 2163.71 -0.704989 1.89832 0
M  V30 23281 C 2164.04 -1.74694 0.855116 0
M  V30 23282 O 2163.29 -1.95182 -0.142329 0
M  V30 23283 C 2163.59 -1.4003 3.28826 0
M  V30 23284 C 2163.26 -0.493148 4.48195 0
M  V30 23285 C 2161.92 -0.24333 4.80584 0
M  V30 23286 C 2164.27 0.132428 5.21032 0
M  V30 23287 C 2161.6 0.640635 5.83192 0
M  V30 23288 C 2163.95 1.00417 6.24579 0
M  V30 23289 C 2162.61 1.26333 6.55436 0
M  V30 23290 H 2161.88 -0.257974 0.694644 0
M  V30 23291 H 2164.53 0.0352552 1.91468 0
M  V30 23292 H 2162.84 -2.21417 3.23236 0
M  V30 23293 H 2164.53 -1.93863 3.51025 0
M  V30 23294 H 2161.12 -0.698019 4.22878 0
M  V30 23295 H 2165.31 -0.0475893 4.96277 0
M  V30 23296 H 2160.56 0.849601 6.05468 0
M  V30 23297 H 2164.74 1.49535 6.80156 0
M  V30 23298 H 2162.36 1.95 7.34765 0
M  V30 23299 N 2163.94 -1.54924 -0.289176 0
M  V30 23300 C 2165.18 -1.75025 -1.0244 0
M  V30 23301 C 2165.52 -0.540906 -1.86515 0
M  V30 23302 O 2164.79 0.461833 -1.88937 0
M  V30 23303 C 2165.08 -3.04611 -1.92052 0
M  V30 23304 C 2164.93 -4.35869 -1.11079 0
M  V30 23305 C 2166.25 -3.30134 -2.91032 0
M  V30 23306 H 2163.37 -0.636806 -0.371008 0
M  V30 23307 H 2166.01 -1.87647 -0.298076 0
M  V30 23308 H 2164.16 -2.93981 -2.53983 0
M  V30 23309 H 2165.83 -4.58434 -0.513434 0
M  V30 23310 H 2164.07 -4.31822 -0.41379 0
M  V30 23311 H 2164.74 -5.22832 -1.7706 0
M  V30 23312 H 2167.22 -3.40451 -2.39233 0
M  V30 23313 H 2166.1 -4.221 -3.50889 0
M  V30 23314 H 2166.36 -2.48995 -3.65314 0
M  V30 23315 N 2165.42 0.552936 -1.47582 0
M  V30 23316 C 2166.69 1.31381 -1.44908 0
M  V30 23317 C 2167.07 2.10578 -0.148323 0
M  V30 23318 O 2166.42 2.11283 0.870167 0
M  V30 23319 C 2166.63 2.21471 -2.69725 0
M  V30 23320 C 2167.98 2.82353 -3.17115 0
M  V30 23321 O 2169 2.31771 -2.70482 0
M  V30 23322 O 2167.86 3.74302 -3.98196 0
M  V30 23323 H 2164.96 0.591798 -0.577672 0
M  V30 23324 H 2167.5 0.571486 -1.59788 0
M  V30 23325 H 2166.27 1.62579 -3.55926 0
M  V30 23326 H 2165.9 3.02992 -2.57452 0
M  V30 23327 N 2166.89 1.35785 0.800009 0
M  V30 23328 C 2168.12 1.32717 1.59377 0
M  V30 23329 C 2168.54 -0.0914251 1.87878 0
M  V30 23330 O 2167.9 -1.06023 1.47068 0
M  V30 23331 C 2167.95 2.14589 2.898 0
M  V30 23332 O 2167.05 1.53112 3.82924 0
M  V30 23333 H 2166.4 0.45473 0.483856 0
M  V30 23334 H 2168.93 1.7892 0.992412 0
M  V30 23335 H 2168.94 2.26784 3.39165 0
M  V30 23336 H 2167.61 3.17717 2.68382 0
M  V30 23337 H 2166.19 1.49795 3.41491 0
M  V30 23338 N 2168.37 -1.02294 1.19891 0
M  V30 23339 C 2169.28 -2.14169 0.957533 0
M  V30 23340 C 2170.3 -1.73795 -0.0844739 0
M  V30 23341 O 2171.47 -2.01144 0.101528 0
M  V30 23342 C 2168.54 -3.4299 0.50587 0
M  V30 23343 C 2167.6 -3.97643 1.61797 0
M  V30 23344 C 2166.83 -5.20315 1.18777 0
M  V30 23345 O 2167.06 -5.70375 0.0538032 0
M  V30 23346 O 2165.99 -5.67957 1.99268 0
M  V30 23347 H 2169.82 -2.37398 1.89409 0
M  V30 23348 H 2167.4 -1.12572 0.982234 0
M  V30 23349 H 2169.28 -4.20579 0.26292 0
M  V30 23350 H 2167.96 -3.21192 -0.402182 0
M  V30 23351 H 2166.87 -3.21362 1.91514 0
M  V30 23352 H 2168.2 -4.23817 2.5028 0
M  V30 23353 N 2169.85 -1.00378 -1.21499 0
M  V30 23354 C 2171.1 -0.684425 -1.90158 0
M  V30 23355 C 2171.42 0.787132 -1.78407 0
M  V30 23356 O 2170.69 1.5651 -1.17819 0
M  V30 23357 H 2169.27 -0.250163 -0.703866 0
M  V30 23358 H 2171.93 -1.27262 -1.47615 0
M  V30 23359 H 2171.03 -0.956513 -2.97081 0
M  V30 23360 N 2171.33 1.37038 -0.778354 0
M  V30 23361 C 2172.28 2.30193 -0.167288 0
M  V30 23362 C 2173.25 1.51429 0.682526 0
M  V30 23363 O 2174.43 1.79976 0.633513 0
M  V30 23364 C 2171.57 3.37912 0.700668 0
M  V30 23365 C 2170.68 4.31679 -0.166475 0
M  V30 23366 C 2169.82 5.26477 0.706809 0
M  V30 23367 C 2168.86 6.11884 -0.162465 0
M  V30 23368 N 2167.99 6.98904 0.66917 0
M  V30 23369 H 2172.83 2.81868 -0.967185 0
M  V30 23370 H 2170.37 1.3875 -0.488542 0
M  V30 23371 H 2172.33 3.99001 1.21877 0
M  V30 23372 H 2170.96 2.87585 1.4661 0
M  V30 23373 H 2170.01 3.7184 -0.802449 0
M  V30 23374 H 2171.32 4.91732 -0.836729 0
M  V30 23375 H 2170.48 5.92802 1.29115 0
M  V30 23376 H 2169.22 4.66851 1.41073 0
M  V30 23377 H 2168.22 5.44532 -0.759288 0
M  V30 23378 H 2169.45 6.73584 -0.863814 0
M  V30 23379 H 2167.39 6.41799 1.35758 0
M  V30 23380 H 2167.31 7.55979 0.0563568 0
M  V30 23381 H 2168.58 7.69611 1.23769 0
M  V30 23382 N 2172.81 0.529439 1.48441 0
M  V30 23383 C 2173.72 -0.237473 2.33395 0
M  V30 23384 C 2174.73 -0.939543 1.46453 0
M  V30 23385 O 2175.91 -0.914623 1.79434 0
M  V30 23386 C 2172.97 -1.27115 3.22556 0
M  V30 23387 C 2172.04 -0.579491 4.25371 0
M  V30 23388 C 2171.27 -1.56392 5.10272 0
M  V30 23389 O 2171.49 -2.79649 4.97144 0
M  V30 23390 O 2170.43 -1.10361 5.91696 0
M  V30 23391 H 2174.25 0.458653 3.00217 0
M  V30 23392 H 2171.84 0.290369 1.46551 0
M  V30 23393 H 2173.72 -1.86853 3.77709 0
M  V30 23394 H 2172.39 -1.94969 2.58396 0
M  V30 23395 H 2171.3 0.0583634 3.74054 0
M  V30 23396 H 2172.63 0.0571021 4.92167 0
M  V30 23397 N 2174.29 -1.55364 0.264547 0
M  V30 23398 C 2175.23 -2.23519 -0.643568 0
M  V30 23399 C 2176.23 -1.22864 -1.16622 0
M  V30 23400 O 2177.43 -1.40826 -1.12108 0
M  V30 23401 H 2173.81 -0.717216 -0.226066 0
M  V30 23402 H 2175.78 -2.98365 -0.0457788 0
M  V30 23403 C 2174.53 -2.96179 -1.82136 0
M  V30 23404 H 2173.85 -3.73414 -1.42836 0
M  V30 23405 H 2175.29 -3.47204 -2.43362 0
M  V30 23406 C 2173.75 -2.01048 -2.70336 0
M  V30 23407 O 2174.28 -1.55487 -3.70387 0
M  V30 23408 N 2172.49 -1.67772 -2.37278 0
M  V30 23409 H 2172.03 -2.05018 -1.55966 0
M  V30 23410 H 2171.99 -1.0439 -2.96564 0
M  V30 23411 N 2175.76 0.00833021 -1.57598 0
M  V30 23412 C 2177.01 0.693539 -1.89827 0
M  V30 23413 C 2177.33 1.74773 -0.864844 0
M  V30 23414 O 2176.6 1.9565 0.0988666 0
M  V30 23415 H 2175.18 0.25915 -0.700607 0
M  V30 23416 H 2177.84 -0.0306259 -1.94876 0
M  V30 23417 H 2176.94 1.17005 -2.89337 0
M  V30 23418 N 2177.24 1.55075 0.280956 0
M  V30 23419 C 2178.49 1.75306 1.01361 0
M  V30 23420 C 2178.82 0.549775 1.86568 0
M  V30 23421 O 2178.07 -0.467908 1.90024 0
M  V30 23422 C 2178.37 3.00658 1.93234 0
M  V30 23423 C 2178.04 4.3356 1.23841 0
M  V30 23424 C 2176.7 4.69683 1.0465 0
M  V30 23425 C 2179.05 5.15863 0.743962 0
M  V30 23426 C 2176.38 5.85671 0.347296 0
M  V30 23427 C 2178.73 6.32573 0.0583841 0
M  V30 23428 C 2177.39 6.67342 -0.145308 0
M  V30 23429 H 2176.66 0.641491 0.370905 0
M  V30 23430 H 2179.31 1.89343 0.286608 0
M  V30 23431 H 2177.62 2.81488 2.72529 0
M  V30 23432 H 2179.31 3.13507 2.50029 0
M  V30 23433 H 2175.9 4.05163 1.39788 0
M  V30 23434 H 2180.09 4.88438 0.879877 0
M  V30 23435 H 2175.34 6.11139 0.178683 0
M  V30 23436 H 2179.52 6.95606 -0.332548 0
M  V30 23437 H 2177.14 7.5707 -0.689091 0
M  V30 23438 N 2178.72 -0.545102 1.47873 0
M  V30 23439 C 2179.97 -1.29811 1.54376 0
M  V30 23440 C 2180.28 -1.94404 0.215938 0
M  V30 23441 O 2181.49 -2.71034 0.159071 0
M  V30 23442 C 2179.94 -2.3546 2.72189 0
M  V30 23443 C 2179.55 -1.77003 4.11551 0
M  V30 23444 C 2181.3 -3.11865 2.87993 0
M  V30 23445 C 2179.2 -2.80503 5.20646 0
M  V30 23446 H 2178.13 -0.488142 0.574659 0
M  V30 23447 H 2180.78 -0.577531 1.74175 0
M  V30 23448 H 2179.17 -3.10486 2.45794 0
M  V30 23449 H 2180.34 -1.08268 4.479 0
M  V30 23450 H 2178.65 -1.13141 4.00734 0
M  V30 23451 H 2181.25 -3.89178 3.66666 0
M  V30 23452 H 2181.59 -3.668 1.96884 0
M  V30 23453 H 2182.13 -2.43952 3.14217 0
M  V30 23454 H 2178.87 -2.30408 6.13671 0
M  V30 23455 H 2178.39 -3.47612 4.888 0
M  V30 23456 H 2180.07 -3.43772 5.48115 0
M  V30 23457 N 2180.2 -1.36208 -0.792797 0
M  V30 23458 C 2181.15 -1.30313 -1.92669 0
M  V30 23459 C 2182.14 -0.195525 -1.68268 0
M  V30 23460 O 2183.35 -0.362331 -1.76316 0
M  V30 23461 H 2179.72 -0.4056 -0.63324 0
M  V30 23462 H 2181.69 -2.26078 -1.9476 0
M  V30 23463 C 2180.44 -1.10589 -3.29644 0
M  V30 23464 H 2179.76 -1.95061 -3.48986 0
M  V30 23465 H 2181.2 -1.10509 -4.09345 0
M  V30 23466 C 2179.66 0.189643 -3.36366 0
M  V30 23467 O 2180.19 1.18066 -3.83958 0
M  V30 23468 N 2178.4 0.23316 -2.89663 0
M  V30 23469 H 2177.95 -0.573917 -2.51125 0
M  V30 23470 H 2177.9 1.09966 -2.94542 0
M  V30 23471 N 2181.68 1.01656 -1.20431 0
M  V30 23472 C 2182.92 1.74909 -1.01249 0
M  V30 23473 C 2183.24 1.89583 0.456441 0
M  V30 23474 O 2182.51 1.43836 1.32997 0
M  V30 23475 H 2181.09 0.647988 -0.371646 0
M  V30 23476 H 2183.76 1.22561 -1.51542 0
M  V30 23477 H 2182.85 2.75268 -1.47085 0
M  V30 23478 N 2183.15 1.01021 1.20965 0
M  V30 23479 C 2184.38 0.714661 1.94698 0
M  V30 23480 C 2184.8 -0.717235 1.73889 0
M  V30 23481 O 2184.16 -1.49265 1.02906 0
M  V30 23482 C 2184.21 1.04769 3.45045 0
M  V30 23483 O 2183.31 0.155818 4.12106 0
M  V30 23484 H 2182.65 0.265768 0.608493 0
M  V30 23485 H 2185.18 1.35186 1.53577 0
M  V30 23486 H 2185.19 0.996722 3.95638 0
M  V30 23487 H 2183.87 2.09099 3.59514 0
M  V30 23488 H 2182.45 0.263764 3.71966 0
M  V30 23489 N 2184.63 -1.36623 0.78561 0
M  V30 23490 C 2185.86 -2.036 0.368068 0
M  V30 23491 C 2186.27 -1.5924 -1.01429 0
M  V30 23492 O 2185.63 -0.780055 -1.64989 0
M  V30 23493 C 2185.68 -3.59077 0.417857 0
M  V30 23494 O 2185.4 -4.01817 1.7457 0
M  V30 23495 C 2186.9 -4.43299 -0.00953716 0
M  V30 23496 H 2184.12 -0.653506 0.152221 0
M  V30 23497 H 2186.67 -1.74677 1.0634 0
M  V30 23498 H 2184.82 -3.86722 -0.229019 0
M  V30 23499 H 2185.24 -4.96395 1.69389 0
M  V30 23500 H 2186.71 -5.51947 0.0764418 0
M  V30 23501 H 2187.19 -4.26175 -1.06169 0
M  V30 23502 H 2187.79 -4.20907 0.60968 0
M  V30 23503 N 2186.11 -0.537304 -1.48158 0
M  V30 23504 C 2187.06 0.221446 -2.29735 0
M  V30 23505 C 2188.03 0.927005 -1.37825 0
M  V30 23506 O 2189.21 0.926601 -1.6679 0
M  V30 23507 C 2186.35 1.25789 -3.21358 0
M  V30 23508 C 2185.46 0.560427 -4.28349 0
M  V30 23509 C 2184.6 1.58043 -5.07145 0
M  V30 23510 C 2183.64 0.86684 -6.05931 0
M  V30 23511 N 2182.78 1.83273 -6.77758 0
M  V30 23512 H 2187.62 -0.480372 -2.94103 0
M  V30 23513 H 2185.15 -0.248729 -1.44982 0
M  V30 23514 H 2187.11 1.87117 -3.72885 0
M  V30 23515 H 2185.74 1.92799 -2.58898 0
M  V30 23516 H 2184.79 -0.166961 -3.80033 0
M  V30 23517 H 2186.1 0.000474239 -4.988 0
M  V30 23518 H 2185.26 2.2678 -5.62722 0
M  V30 23519 H 2184 2.17429 -4.3655 0
M  V30 23520 H 2183 0.165438 -5.49551 0
M  V30 23521 H 2184.23 0.278998 -6.78527 0
M  V30 23522 H 2182.17 2.41553 -6.09908 0
M  V30 23523 H 2182.09 1.32441 -7.44309 0
M  V30 23524 H 2183.36 2.51186 -7.3792 0
M  V30 23525 N 2187.59 1.55221 -0.272782 0
M  V30 23526 C 2188.5 2.26098 0.62584 0
M  V30 23527 C 2189.51 1.28606 1.17203 0
M  V30 23528 O 2190.69 1.61537 1.20281 0
M  V30 23529 C 2187.76 2.96645 1.7945 0
M  V30 23530 C 2186.82 4.0961 1.28522 0
M  V30 23531 C 2186.05 4.76784 2.39819 0
M  V30 23532 O 2186.27 4.43155 3.59124 0
M  V30 23533 O 2185.21 5.64779 2.08107 0
M  V30 23534 H 2189.03 3.03656 0.0517442 0
M  V30 23535 H 2186.62 1.49346 -0.0402752 0
M  V30 23536 H 2188.5 3.40989 2.47597 0
M  V30 23537 H 2187.17 2.22006 2.35573 0
M  V30 23538 H 2186.08 3.69728 0.570286 0
M  V30 23539 H 2187.41 4.86143 0.769772 0
M  V30 23540 N 2189.07 2.77022e-05 1.576 0
M  V30 23541 C 2190.31 -0.683462 1.90193 0
M  V30 23542 C 2190.64 -1.74311 0.8741 0
M  V30 23543 O 2189.91 -1.957 -0.0884894 0
M  V30 23544 H 2188.49 -0.25543 0.701972 0
M  V30 23545 H 2191.15 0.0409602 1.94857 0
M  V30 23546 H 2190.24 -1.15469 2.89954 0
M  V30 23547 N 2190.54 -1.55222 -0.272728 0
M  V30 23548 C 2191.47 -1.9113 -1.34133 0
M  V30 23549 C 2192.46 -0.773195 -1.51511 0
M  V30 23550 O 2193.64 -1.03135 -1.6455 0
M  V30 23551 C 2190.77 -2.18345 -2.70079 0
M  V30 23552 C 2189.72 -3.34162 -2.67431 0
M  V30 23553 C 2189.05 -3.46858 -4.06932 0
M  V30 23554 C 2190.35 -4.70547 -2.26677 0
M  V30 23555 H 2192.04 -2.80635 -1.04328 0
M  V30 23556 H 2189.59 -1.35025 -0.50043 0
M  V30 23557 H 2191.54 -2.42052 -3.44948 0
M  V30 23558 H 2190.27 -1.25639 -3.01467 0
M  V30 23559 H 2188.93 -3.10423 -1.9502 0
M  V30 23560 H 2188.57 -2.51618 -4.35542 0
M  V30 23561 H 2188.27 -4.24727 -4.06055 0
M  V30 23562 H 2189.8 -3.72858 -4.83539 0
M  V30 23563 H 2191.21 -4.93797 -2.91268 0
M  V30 23564 H 2189.61 -5.51334 -2.36961 0
M  V30 23565 H 2190.68 -4.69351 -1.2181 0
M  V30 23566 N 2192.02 0.537252 -1.4816 0
M  V30 23567 C 2193.27 1.29346 -1.55807 0
M  V30 23568 C 2193.6 1.93149 -0.228836 0
M  V30 23569 O 2192.85 1.79475 0.78021 0
M  V30 23570 C 2193.15 2.40956 -2.6396 0
M  V30 23571 C 2192.82 1.94854 -4.06624 0
M  V30 23572 C 2191.48 1.81998 -4.45455 0
M  V30 23573 C 2193.83 1.59924 -4.96058 0
M  V30 23574 C 2191.16 1.32537 -5.71534 0
M  V30 23575 C 2193.51 1.11928 -6.22619 0
M  V30 23576 C 2192.18 0.976835 -6.60314 0
M  V30 23577 H 2191.45 0.473312 -0.570137 0
M  V30 23578 H 2194.09 0.60034 -1.81847 0
M  V30 23579 H 2192.4 3.15908 -2.31752 0
M  V30 23580 H 2194.09 2.99102 -2.67094 0
M  V30 23581 H 2190.68 2.05809 -3.75953 0
M  V30 23582 H 2194.87 1.6872 -4.66741 0
M  V30 23583 H 2190.12 1.2019 -5.9947 0
M  V30 23584 H 2194.3 0.839689 -6.91319 0
M  V30 23585 H 2191.93 0.591368 -7.57896 0
M  V30 23586 N 2193.5 1.36626 0.785562 0
M  V30 23587 C 2194.75 1.31264 1.54588 0
M  V30 23588 C 2195.08 -0.106789 1.93906 0
M  V30 23589 O 2194.35 -1.06105 1.63009 0
M  V30 23590 C 2194.64 2.23894 2.82034 0
M  V30 23591 C 2194.49 3.74553 2.49059 0
M  V30 23592 C 2195.81 2.15224 3.83884 0
M  V30 23593 H 2192.93 0.478152 0.560838 0
M  V30 23594 H 2195.57 1.67211 0.902248 0
M  V30 23595 H 2193.72 1.93369 3.36958 0
M  V30 23596 H 2195.39 4.15614 2.00157 0
M  V30 23597 H 2193.64 3.93799 1.81947 0
M  V30 23598 H 2194.31 4.34782 3.40101 0
M  V30 23599 H 2196.78 2.42101 3.38417 0
M  V30 23600 H 2195.66 2.82201 4.70801 0
M  V30 23601 H 2195.92 1.14075 4.27129 0
M  V30 23602 N 2194.98 -1.01016 1.20969 0
M  V30 23603 C 2196.2 -1.78837 1.05034 0
M  V30 23604 C 2196.63 -1.8389 -0.39572 0
M  V30 23605 O 2195.99 -1.2787 -1.28527 0
M  V30 23606 C 2196.03 -3.20837 1.64608 0
M  V30 23607 O 2195.14 -4.02725 0.888059 0
M  V30 23608 H 2194.48 -0.55136 0.369997 0
M  V30 23609 H 2197.01 -1.27015 1.60401 0
M  V30 23610 H 2197.02 -3.71529 1.68613 0
M  V30 23611 H 2195.69 -3.16474 2.69846 0
M  V30 23612 H 2194.27 -3.61304 0.922711 0
M  V30 23613 N 2196.46 -1.01661 -1.20428 0
M  V30 23614 C 2197.37 -0.596524 -2.26889 0
M  V30 23615 C 2198.38 0.365961 -1.70108 0
M  V30 23616 O 2199.56 0.226907 -2.00118 0
M  V30 23617 C 2196.62 0.058605 -3.4665 0
M  V30 23618 C 2195.68 -0.949824 -4.18661 0
M  V30 23619 C 2194.92 -0.325864 -5.32704 0
M  V30 23620 O 2195.14 0.87441 -5.63658 0
M  V30 23621 O 2194.07 -1.0426 -5.92801 0
M  V30 23622 H 2197.9 -1.48285 -2.65038 0
M  V30 23623 H 2195.49 -0.786105 -1.27046 0
M  V30 23624 H 2197.37 0.42449 -4.19257 0
M  V30 23625 H 2196.04 0.919125 -3.10377 0
M  V30 23626 H 2194.95 -1.36708 -3.48227 0
M  V30 23627 H 2196.28 -1.78031 -4.58875 0
M  V30 23628 N 2197.93 1.36205 -0.792844 0
M  V30 23629 C 2198.86 2.32573 -0.207894 0
M  V30 23630 C 2199.85 1.56815 0.659028 0
M  V30 23631 O 2201.03 1.84952 0.592143 0
M  V30 23632 C 2198.16 3.4106 0.655389 0
M  V30 23633 C 2197.11 4.27854 -0.111917 0
M  V30 23634 C 2196.44 5.27539 0.872181 0
M  V30 23635 C 2197.74 5.05784 -1.30308 0
M  V30 23636 H 2199.43 2.81743 -1.01299 0
M  V30 23637 H 2196.98 1.35459 -0.488564 0
M  V30 23638 H 2198.93 4.07469 1.07457 0
M  V30 23639 H 2197.66 2.90466 1.49323 0
M  V30 23640 H 2196.32 3.63005 -0.512116 0
M  V30 23641 H 2195.96 4.73217 1.70514 0
M  V30 23642 H 2195.66 5.86477 0.363188 0
M  V30 23643 H 2197.19 5.96821 1.28986 0
M  V30 23644 H 2198.6 5.65214 -0.959478 0
M  V30 23645 H 2197 5.7415 -1.7456 0
M  V30 23646 H 2198.07 4.37226 -2.0967 0
M  V30 23647 N 2199.41 0.545154 1.47871 0
M  V30 23648 C 2200.82 0.108613 1.86384 0
M  V30 23649 C 2201.17 -1.3183 1.45311 0
M  V30 23650 O 2200.3 -1.98979 0.850676 0
M  V30 23651 C 2200.89 0.190333 3.38265 0
M  V30 23652 C 2199.45 -0.191098 3.75915 0
M  V30 23653 C 2198.6 0.543321 2.71925 0
M  V30 23654 H 2201.55 0.755562 1.3956 0
M  V30 23655 H 2201.57 -0.594151 3.75833 0
M  V30 23656 H 2201.08 1.22896 3.68128 0
M  V30 23657 H 2199.19 -1.2313 3.51667 0
M  V30 23658 H 2199.3 0.159071 4.78836 0
M  V30 23659 H 2197.66 -0.0122047 2.54697 0
M  V30 23660 H 2198.45 1.58288 3.04631 0
M  V30 23661 N 2200.89 -1.55074 0.28101 0
M  V30 23662 C 2202.17 -1.9175 -0.386173 0
M  V30 23663 C 2202.55 -1.20597 -1.73262 0
M  V30 23664 O 2201.9 -0.334824 -2.26034 0
M  V30 23665 C 2202.11 -3.45095 -0.520626 0
M  V30 23666 C 2203.45 -4.1698 -0.800792 0
M  V30 23667 O 2204.48 -3.51021 -0.605209 0
M  V30 23668 O 2203.34 -5.33714 -1.17521 0
M  V30 23669 H 2200.43 -0.799261 -0.212394 0
M  V30 23670 H 2202.98 -1.66508 0.327597 0
M  V30 23671 H 2201.75 -3.88967 0.426702 0
M  V30 23672 H 2201.37 -3.76309 -1.28364 0
M  V30 23673 N 2202.37 -0.00838561 -1.57598 0
M  V30 23674 C 2203.62 0.675698 -1.91212 0
M  V30 23675 C 2203.95 1.72956 -0.883169 0
M  V30 23676 O 2203.22 1.94258 0.0969819 0
M  V30 23677 C 2203.51 1.31117 -3.35381 0
M  V30 23678 C 2203.36 0.268278 -4.48999 0
M  V30 23679 C 2204.68 2.23502 -3.79124 0
M  V30 23680 H 2201.8 0.244167 -0.695379 0
M  V30 23681 H 2204.44 -0.0613989 -1.89901 0
M  V30 23682 H 2202.59 1.93941 -3.36629 0
M  V30 23683 H 2204.26 -0.360925 -4.59886 0
M  V30 23684 H 2202.5 -0.408557 -4.31872 0
M  V30 23685 H 2203.18 0.752122 -5.46852 0
M  V30 23686 H 2205.65 1.70686 -3.7948 0
M  V30 23687 H 2204.53 2.64927 -4.80734 0
M  V30 23688 H 2204.79 3.11761 -3.13461 0
M  V30 23689 N 2203.85 1.55365 0.264492 0
M  V30 23690 C 2205.09 1.76633 0.996429 0
M  V30 23691 C 2205.43 0.570511 1.85631 0
M  V30 23692 O 2204.7 -0.431717 1.89648 0
M  V30 23693 C 2204.98 3.07628 1.87182 0
M  V30 23694 C 2204.84 4.37581 1.0413 0
M  V30 23695 C 2206.16 3.34722 2.85743 0
M  V30 23696 H 2203.28 0.642628 0.36083 0
M  V30 23697 H 2205.92 1.88098 0.268185 0
M  V30 23698 H 2204.07 2.97985 2.49274 0
M  V30 23699 H 2205.74 4.59193 0.440436 0
M  V30 23700 H 2203.98 4.32426 0.345039 0
M  V30 23701 H 2204.65 5.25583 1.6872 0
M  V30 23702 H 2207.13 3.44214 2.33787 0
M  V30 23703 H 2206.01 4.27629 3.44129 0
M  V30 23704 H 2206.27 2.54775 3.61306 0
M  V30 23705 N 2205.33 -0.529387 1.48443 0
M  V30 23706 C 2206.26 -1.6431 1.65905 0
M  V30 23707 C 2207.24 -1.6234 0.507926 0
M  V30 23708 O 2208.42 -1.79526 0.740534 0
M  V30 23709 C 2205.55 -3.02895 1.69917 0
M  V30 23710 C 2204.51 -3.19724 2.84536 0
M  V30 23711 C 2203.83 -4.59377 2.73637 0
M  V30 23712 C 2205.13 -3.02439 4.25826 0
M  V30 23713 H 2206.83 -1.49951 2.59143 0
M  V30 23714 H 2204.37 -0.71996 1.2471 0
M  V30 23715 H 2206.32 -3.80681 1.80721 0
M  V30 23716 H 2205.05 -3.18278 0.73258 0
M  V30 23717 H 2203.71 -2.44356 2.73287 0
M  V30 23718 H 2203.36 -4.71596 1.74946 0
M  V30 23719 H 2203.06 -4.71582 3.50549 0
M  V30 23720 H 2204.58 -5.3926 2.8641 0
M  V30 23721 H 2205.99 -3.70016 4.37905 0
M  V30 23722 H 2204.39 -3.26137 5.03741 0
M  V30 23723 H 2205.46 -1.98859 4.42248 0
M  V30 23724 N 2206.8 -1.37041 -0.778305 0
M  V30 23725 C 2208.05 -1.31213 -1.53187 0
M  V30 23726 C 2208.37 0.103061 -1.95328 0
M  V30 23727 O 2209.57 0.283779 -2.70013 0
M  V30 23728 C 2208.03 -2.30277 -2.76587 0
M  V30 23729 C 2207.64 -3.7729 -2.4157 0
M  V30 23730 C 2209.38 -2.33447 -3.54546 0
M  V30 23731 C 2207.29 -4.68103 -3.61433 0
M  V30 23732 H 2206.22 -0.487633 -0.575092 0
M  V30 23733 H 2208.87 -1.62465 -0.853073 0
M  V30 23734 H 2207.25 -1.92033 -3.46322 0
M  V30 23735 H 2208.42 -4.24333 -1.7966 0
M  V30 23736 H 2206.74 -3.77002 -1.768 0
M  V30 23737 H 2209.34 -2.98501 -4.43623 0
M  V30 23738 H 2209.68 -1.34618 -3.93934 0
M  V30 23739 H 2210.21 -2.70365 -2.91801 0
M  V30 23740 H 2206.95 -5.68036 -3.27132 0
M  V30 23741 H 2206.47 -4.25768 -4.2247 0
M  V30 23742 H 2208.15 -4.84918 -4.28327 0
M  V30 23743 N 2208.28 1.00373 -1.21503 0
M  V30 23744 C 2209.51 1.78278 -1.0598 0
M  V30 23745 C 2209.93 1.84098 0.385962 0
M  V30 23746 O 2209.29 1.28549 1.27847 0
M  V30 23747 C 2209.34 3.1996 -1.66307 0
M  V30 23748 O 2208.44 4.02248 -0.909404 0
M  V30 23749 H 2207.78 0.54939 -0.372916 0
M  V30 23750 H 2210.31 1.26162 -1.61072 0
M  V30 23751 H 2210.32 3.70629 -1.70581 0
M  V30 23752 H 2209 3.15038 -2.71521 0
M  V30 23753 H 2207.57 3.60809 -0.941859 0
M  V30 23754 N 2209.76 1.02298 1.19887 0
M  V30 23755 C 2210.71 0.598691 2.229 0
M  V30 23756 C 2211.68 -0.384492 1.61589 0
M  V30 23757 O 2212.86 -0.282489 1.88697 0
M  V30 23758 C 2210 -0.0503869 3.45063 0
M  V30 23759 C 2209.11 0.978127 4.20781 0
M  V30 23760 C 2208.25 0.299432 5.30355 0
M  V30 23761 C 2207.29 1.31426 5.97824 0
M  V30 23762 N 2206.43 0.66179 6.98974 0
M  V30 23763 H 2211.27 1.48173 2.58551 0
M  V30 23764 H 2208.8 0.741606 1.27038 0
M  V30 23765 H 2210.76 -0.443898 4.14832 0
M  V30 23766 H 2209.39 -0.897042 3.10085 0
M  V30 23767 H 2208.44 1.48975 3.50015 0
M  V30 23768 H 2209.75 1.74967 4.67106 0
M  V30 23769 H 2208.91 -0.14924 6.06516 0
M  V30 23770 H 2207.65 -0.50436 4.85085 0
M  V30 23771 H 2206.65 1.77326 5.20419 0
M  V30 23772 H 2207.88 2.11945 6.45179 0
M  V30 23773 H 2205.82 -0.122017 6.55887 0
M  V30 23774 H 2205.74 1.3713 7.43459 0
M  V30 23775 H 2207.01 0.236922 7.7914 0
M  V30 23776 N 2211.24 -1.35782 0.800057 0
M  V30 23777 C 2212.48 -1.99247 0.377936 0
M  V30 23778 C 2212.82 -1.63335 -1.05049 0
M  V30 23779 O 2212.09 -0.893415 -1.72767 0
M  V30 23780 C 2212.37 -3.55813 0.553984 0
M  V30 23781 C 2212.23 -4.01545 2.02687 0
M  V30 23782 C 2213.55 -4.40093 -0.0244028 0
M  V30 23783 H 2210.67 -0.723813 0.138795 0
M  V30 23784 H 2213.31 -1.61033 1.00838 0
M  V30 23785 H 2211.46 -3.88496 0.0173081 0
M  V30 23786 H 2213.13 -3.79301 2.62543 0
M  V30 23787 H 2211.37 -3.52693 2.52567 0
M  V30 23788 H 2212.04 -5.10454 2.10096 0
M  V30 23789 H 2214.52 -4.13832 0.433848 0
M  V30 23790 H 2213.4 -5.48749 0.128733 0
M  V30 23791 H 2213.66 -4.27743 -1.11751 0
M  V30 23792 N 2212.72 -0.552988 -1.4758 0
M  V30 23793 C 2213.95 -0.0320454 -2.06575 0
M  V30 23794 C 2214.35 1.26522 -1.40673 0
M  V30 23795 O 2213.7 1.76882 -0.495839 0
M  V30 23796 C 2213.76 0.23885 -3.58706 0
M  V30 23797 C 2213.42 -0.968351 -4.46623 0
M  V30 23798 C 2214.42 -1.87282 -4.84996 0
M  V30 23799 C 2212.1 -1.18183 -4.88199 0
M  V30 23800 C 2214.1 -2.9745 -5.6374 0
M  V30 23801 C 2211.79 -2.28661 -5.66708 0
M  V30 23802 C 2212.78 -3.18125 -6.04388 0
M  V30 23803 O 2212.47 -4.26688 -6.81317 0
M  V30 23804 H 2212.2 -0.0408808 -0.674763 0
M  V30 23805 H 2214.76 -0.764753 -1.90632 0
M  V30 23806 H 2212.99 1.02582 -3.72846 0
M  V30 23807 H 2214.68 0.704661 -3.99737 0
M  V30 23808 H 2215.44 -1.71992 -4.53479 0
M  V30 23809 H 2211.32 -0.494674 -4.58338 0
M  V30 23810 H 2214.87 -3.67306 -5.9307 0
M  V30 23811 H 2210.76 -2.43925 -5.97638 0
M  V30 23812 H 2211.53 -4.24683 -6.99705 0
M  V30 23813 N 2214.19 1.54923 -0.28923 0
M  V30 23814 C 2215.13 2.19222 0.633784 0
M  V30 23815 C 2216.1 1.15774 1.14172 0
M  V30 23816 O 2217.29 1.44363 1.21209 0
M  V30 23817 C 2214.42 2.82671 1.86587 0
M  V30 23818 C 2213.46 3.99544 1.4922 0
M  V30 23819 S 2214.29 5.32583 0.558219 0
M  V30 23820 C 2215.45 5.99508 1.79836 0
M  V30 23821 H 2215.68 2.97171 0.0874893 0
M  V30 23822 H 2213.22 1.54225 -0.073417 0
M  V30 23823 H 2215.17 3.19855 2.57299 0
M  V30 23824 H 2213.84 2.04589 2.38332 0
M  V30 23825 H 2213.03 4.4268 2.40937 0
M  V30 23826 H 2212.63 3.63856 0.865129 0
M  V30 23827 H 2214.92 6.19599 2.74049 0
M  V30 23828 H 2215.87 6.93924 1.40978 0
M  V30 23829 H 2216.27 5.2902 1.96973 0
M  V30 23830 N 2215.67 0.0167433 1.57591 0
M  V30 23831 C 2216.95 -0.702532 1.82548 0
M  V30 23832 C 2217.33 -1.91045 0.898051 0
M  V30 23833 O 2216.68 -2.28447 -0.0493055 0
M  V30 23834 C 2216.89 -1.09246 3.31461 0
M  V30 23835 C 2218.23 -1.4893 3.97624 0
M  V30 23836 O 2219.26 -1.18578 3.35883 0
M  V30 23837 O 2218.12 -2.05433 5.06418 0
M  V30 23838 H 2215.21 -0.343531 0.752274 0
M  V30 23839 H 2217.76 0.0434794 1.69644 0
M  V30 23840 H 2216.53 -0.232201 3.9061 0
M  V30 23841 H 2216.15 -1.89703 3.49426 0
M  V30 23842 N 2217.15 -1.55503 -0.256249 0
M  V30 23843 C 2218.43 -1.67635 -1.00786 0
M  V30 23844 C 2218.81 -0.553862 -2.03705 0
M  V30 23845 O 2218.16 0.443929 -2.24146 0
M  V30 23846 C 2218.37 -3.07552 -1.64962 0
M  V30 23847 C 2219.71 -3.65849 -2.15499 0
M  V30 23848 O 2220.74 -3.10293 -1.7492 0
M  V30 23849 O 2219.6 -4.63222 -2.89978 0
M  V30 23850 H 2216.69 -0.681468 -0.468541 0
M  V30 23851 H 2219.24 -1.67837 -0.250776 0
M  V30 23852 H 2218.01 -3.80697 -0.904718 0
M  V30 23853 H 2217.63 -3.11321 -2.47315 0
M  V30 23854 N 2218.63 0.521507 -1.48721 0
M  V30 23855 C 2219.85 1.30615 -1.61104 0
M  V30 23856 C 2220.28 1.86084 -0.274643 0
M  V30 23857 O 2219.64 1.64836 0.754908 0
M  V30 23858 C 2219.68 2.42685 -2.66714 0
M  V30 23859 O 2218.79 3.45963 -2.24462 0
M  V30 23860 H 2218.13 0.38649 -0.539927 0
M  V30 23861 H 2220.66 0.626611 -1.94768 0
M  V30 23862 H 2220.67 2.88749 -2.8825 0
M  V30 23863 H 2219.34 2.01675 -3.63731 0
M  V30 23864 H 2217.92 3.0596 -2.13174 0
M  V30 23865 N 2220.11 1.37452 0.771027 0
M  V30 23866 C 2221.05 1.33273 1.88433 0
M  V30 23867 C 2222.02 0.198165 1.64914 0
M  V30 23868 O 2223.21 0.387639 1.86821 0
M  V30 23869 C 2220.35 1.14627 3.25507 0
M  V30 23870 C 2219.46 2.3732 3.60975 0
M  V30 23871 C 2218.6 2.11541 4.87261 0
M  V30 23872 C 2217.64 3.30097 5.15463 0
M  V30 23873 N 2216.77 3.03864 6.32938 0
M  V30 23874 H 2221.61 2.28458 1.9134 0
M  V30 23875 H 2219.15 1.13525 0.935446 0
M  V30 23876 H 2221.11 1.01838 4.0458 0
M  V30 23877 H 2219.74 0.230893 3.21973 0
M  V30 23878 H 2218.79 2.60847 2.76881 0
M  V30 23879 H 2220.1 3.25736 3.77754 0
M  V30 23880 H 2219.26 1.95787 5.74241 0
M  V30 23881 H 2217.99 1.20465 4.72588 0
M  V30 23882 H 2217 3.46389 4.26959 0
M  V30 23883 H 2218.22 4.22025 5.32045 0
M  V30 23884 H 2216.17 2.15418 6.19622 0
M  V30 23885 H 2216.09 3.85823 6.50136 0
M  V30 23886 H 2217.36 2.91729 7.22852 0
M  V30 23887 N 2221.58 -0.997276 1.22033 0
M  V30 23888 C 2223 -1.5507 1.03973 0
M  V30 23889 C 2223.35 -1.92118 -0.398158 0
M  V30 23890 O 2222.47 -1.743 -1.28251 0
M  V30 23891 C 2223.07 -2.81778 1.88114 0
M  V30 23892 C 2221.63 -3.33578 1.74363 0
M  V30 23893 C 2220.77 -2.06702 1.8485 0
M  V30 23894 H 2223.72 -0.818859 1.35943 0
M  V30 23895 H 2223.74 -3.53968 1.39595 0
M  V30 23896 H 2223.26 -2.54782 2.92759 0
M  V30 23897 H 2221.36 -3.65492 0.724334 0
M  V30 23898 H 2221.47 -4.04477 2.56779 0
M  V30 23899 H 2219.83 -2.20059 1.28242 0
M  V30 23900 H 2220.62 -1.82109 2.91017 0
M  V30 23901 N 2223.06 -1.02932 -1.19343 0
M  V30 23902 C 2224.29 -0.745545 -1.93537 0
M  V30 23903 C 2224.71 0.68948 -1.75008 0
M  V30 23904 O 2224.07 1.47609 -1.05268 0
M  V30 23905 C 2224.12 -1.10245 -3.43334 0
M  V30 23906 O 2223.22 -0.221361 -4.11805 0
M  V30 23907 H 2222.56 -0.275415 -0.604188 0
M  V30 23908 H 2225.09 -1.37612 -1.51407 0
M  V30 23909 H 2225.1 -1.05954 -3.94002 0
M  V30 23910 H 2223.78 -2.14792 -3.56142 0
M  V30 23911 H 2222.36 -0.322907 -3.71499 0
M  V30 23912 N 2224.54 1.35356 -0.807246 0
M  V30 23913 C 2225.79 1.9875 -0.387923 0
M  V30 23914 C 2226.12 1.64039 1.04506 0
M  V30 23915 O 2225.37 0.895977 1.73985 0
M  V30 23916 C 2225.67 3.5361 -0.519098 0
M  V30 23917 C 2225.34 4.08191 -1.91549 0
M  V30 23918 C 2224 4.22809 -2.29752 0
M  V30 23919 C 2226.35 4.37739 -2.82903 0
M  V30 23920 C 2223.68 4.64294 -3.58676 0
M  V30 23921 C 2226.03 4.80663 -4.11274 0
M  V30 23922 C 2224.69 4.93486 -4.49475 0
M  V30 23923 H 2223.96 0.727276 -0.141951 0
M  V30 23924 H 2226.61 1.61558 -1.02816 0
M  V30 23925 H 2224.92 3.91265 0.204589 0
M  V30 23926 H 2226.61 4.00616 -0.175415 0
M  V30 23927 H 2223.2 3.97265 -1.60869 0
M  V30 23928 H 2227.39 4.25997 -2.54637 0
M  V30 23929 H 2222.64 4.72411 -3.88121 0
M  V30 23930 H 2226.82 5.02487 -4.82161 0
M  V30 23931 H 2224.44 5.2539 -5.49427 0
M  V30 23932 N 2226.02 0.560807 1.47284 0
M  V30 23933 C 2227.27 0.0380223 2.02064 0
M  V30 23934 C 2227.59 -1.31801 1.43714 0
M  V30 23935 O 2226.86 -1.86041 0.613652 0
M  V30 23936 H 2225.44 0.0110662 0.746918 0
M  V30 23937 H 2228.1 0.73163 1.80647 0
M  V30 23938 H 2227.2 -0.0473914 3.12064 0
M  V30 23939 N 2227.5 -1.54768 0.297442 0
M  V30 23940 C 2228.73 -2.04183 -0.315129 0
M  V30 23941 C 2229.13 -1.17441 -1.48338 0
M  V30 23942 O 2228.48 -0.191923 -1.82695 0
M  V30 23943 C 2228.54 -3.49608 -0.837521 0
M  V30 23944 C 2228.2 -4.5654 0.204992 0
M  V30 23945 C 2229.2 -5.0955 1.03222 0
M  V30 23946 C 2226.89 -5.01109 0.345666 0
M  V30 23947 C 2228.88 -6.05667 1.98611 0
M  V30 23948 C 2226.57 -5.97047 1.303 0
M  V30 23949 C 2227.56 -6.49209 2.1217 0
M  V30 23950 O 2227.25 -7.43268 3.06281 0
M  V30 23951 H 2226.98 -0.672052 -0.0729528 0
M  V30 23952 H 2229.54 -2.00764 0.433942 0
M  V30 23953 H 2227.77 -3.50339 -1.63706 0
M  V30 23954 H 2229.46 -3.82239 -1.36559 0
M  V30 23955 H 2230.22 -4.75914 0.934395 0
M  V30 23956 H 2226.1 -4.60139 -0.281629 0
M  V30 23957 H 2229.65 -6.46306 2.62553 0
M  V30 23958 H 2225.54 -6.301 1.40156 0
M  V30 23959 H 2226.31 -7.61058 3.01219 0
M  V30 23960 N 2228.97 -0.0251005 -1.5758 0
M  V30 23961 C 2230.2 0.663748 -1.95647 0
M  V30 23962 C 2230.61 1.66425 -0.899965 0
M  V30 23963 O 2229.96 1.83259 0.127159 0
M  V30 23964 C 2230.02 1.42994 -3.29838 0
M  V30 23965 C 2229.68 0.588225 -4.53199 0
M  V30 23966 C 2230.68 -0.134781 -5.19725 0
M  V30 23967 C 2228.36 0.526809 -4.9953 0
M  V30 23968 C 2230.36 -0.907921 -6.30901 0
M  V30 23969 C 2228.04 -0.250037 -6.10588 0
M  V30 23970 C 2229.04 -0.966113 -6.76133 0
M  V30 23971 O 2228.73 -1.73023 -7.85059 0
M  V30 23972 H 2228.46 0.188163 -0.649285 0
M  V30 23973 H 2231.02 -0.0799366 -2.05244 0
M  V30 23974 H 2229.25 2.21868 -3.1672 0
M  V30 23975 H 2230.94 2.00652 -3.52837 0
M  V30 23976 H 2231.7 -0.0966414 -4.84904 0
M  V30 23977 H 2227.58 1.07373 -4.48321 0
M  V30 23978 H 2231.12 -1.46736 -6.81993 0
M  V30 23979 H 2227.02 -0.289909 -6.44849 0
M  V30 23980 H 2227.79 -1.64958 -8.01705 0
M  V30 23981 N 2230.45 1.55637 0.247999 0
M  V30 23982 C 2231.68 1.8181 0.997996 0
M  V30 23983 C 2232.1 0.60201 1.78206 0
M  V30 23984 O 2231.46 -0.44893 1.75654 0
M  V30 23985 C 2231.51 3.05708 1.91245 0
M  V30 23986 O 2230.61 2.82547 3.00401 0
M  V30 23987 H 2229.95 0.600184 0.284035 0
M  V30 23988 H 2232.48 2.0282 0.269321 0
M  V30 23989 H 2232.49 3.35112 2.32731 0
M  V30 23990 H 2231.17 3.93859 1.33595 0
M  V30 23991 H 2229.75 2.64307 2.63051 0
M  V30 23992 N 2231.93 -0.513613 1.48996 0
M  V30 23993 C 2232.88 -1.63741 1.65201 0
M  V30 23994 C 2233.87 -1.61282 0.518118 0
M  V30 23995 O 2235.08 -1.65942 0.697364 0
M  V30 23996 H 2231.45 -0.542565 0.520699 0
M  V30 23997 H 2233.43 -1.47222 2.59554 0
M  V30 23998 C 2232.17 -3.01942 1.72414 0
M  V30 23999 H 2231.5 -3.04535 2.59034 0
M  V30 24000 H 2232.94 -3.80145 1.87792 0
M  V30 24001 C 2231.4 -3.33658 0.466238 0
M  V30 24002 O 2231.93 -3.99564 -0.413674 0
M  V30 24003 N 2230.13 -2.88686 0.332981 0
M  V30 24004 H 2229.68 -2.35229 1.05001 0
M  V30 24005 H 2229.64 -3.10275 -0.507611 0
M  V30 24006 N 2233.41 -1.37859 -0.763727 0
M  V30 24007 C 2234.36 -1.3437 -1.89862 0
M  V30 24008 C 2235.35 -0.231173 -1.67815 0
M  V30 24009 O 2236.56 -0.399648 -1.75507 0
M  V30 24010 H 2232.93 -0.418941 -0.624494 0
M  V30 24011 H 2234.9 -2.30158 -1.89921 0
M  V30 24012 C 2233.65 -1.17556 -3.27225 0
M  V30 24013 H 2232.98 -2.0242 -3.4477 0
M  V30 24014 H 2234.42 -1.19167 -4.06909 0
M  V30 24015 C 2232.87 0.118252 -3.36692 0
M  V30 24016 O 2233.4 1.09895 -3.86375 0
M  V30 24017 N 2231.61 0.171666 -2.90093 0
M  V30 24018 H 2231.16 -0.627056 -2.49851 0
M  V30 24019 H 2231.12 1.03694 -2.96808 0
M  V30 24020 N 2234.89 0.990791 -1.22561 0
M  V30 24021 C 2235.82 2.09954 -1.02184 0
M  V30 24022 C 2236.8 1.70001 0.0579095 0
M  V30 24023 O 2237.98 1.93917 -0.104718 0
M  V30 24024 C 2235.11 3.42059 -0.601083 0
M  V30 24025 C 2234.07 3.95869 -1.627 0
M  V30 24026 C 2233.39 5.24047 -1.06202 0
M  V30 24027 C 2234.69 4.26315 -3.0175 0
M  V30 24028 H 2236.39 2.27259 -1.9492 0
M  V30 24029 H 2233.93 1.09209 -0.938585 0
M  V30 24030 H 2235.89 4.19037 -0.445634 0
M  V30 24031 H 2234.61 3.24588 0.361948 0
M  V30 24032 H 2233.27 3.21025 -1.77027 0
M  V30 24033 H 2232.92 5.02919 -0.0902787 0
M  V30 24034 H 2232.62 5.61016 -1.74741 0
M  V30 24035 H 2234.14 6.03657 -0.918198 0
M  V30 24036 H 2235.56 4.94081 -2.90786 0
M  V30 24037 H 2233.95 4.74461 -3.67433 0
M  V30 24038 H 2235.02 3.34004 -3.51524 0
M  V30 24039 N 2236.37 1.03564 1.18795 0
M  V30 24040 C 2237.31 0.622298 2.22252 0
M  V30 24041 C 2238.28 -0.367332 1.61987 0
M  V30 24042 O 2239.47 -0.262459 1.88986 0
M  V30 24043 C 2236.61 -0.0137855 3.45097 0
M  V30 24044 C 2235.72 1.0227 4.1972 0
M  V30 24045 C 2234.86 0.355666 5.30008 0
M  V30 24046 C 2233.89 1.3776 5.96396 0
M  V30 24047 N 2233.03 0.735888 6.98233 0
M  V30 24048 H 2237.87 1.50907 2.56965 0
M  V30 24049 H 2235.41 0.755039 1.26244 0
M  V30 24050 H 2237.37 -0.399875 4.15279 0
M  V30 24051 H 2236 -0.864103 3.11019 0
M  V30 24052 H 2235.05 1.52679 3.48415 0
M  V30 24053 H 2236.36 1.79911 4.65224 0
M  V30 24054 H 2235.51 -0.0849028 6.06641 0
M  V30 24055 H 2234.25 -0.452882 4.85593 0
M  V30 24056 H 2233.26 1.82836 5.18509 0
M  V30 24057 H 2234.48 2.18776 6.42895 0
M  V30 24058 H 2232.43 -0.0524444 6.55979 0
M  V30 24059 H 2232.35 1.45008 7.41963 0
M  V30 24060 H 2233.61 0.319547 7.78845 0
M  V30 24061 N 2237.84 -1.34926 0.814413 0
M  V30 24062 C 2239.12 -1.92941 0.321397 0
M  V30 24063 C 2239.5 -1.74355 -1.19011 0
M  V30 24064 O 2238.85 -1.1172 -1.99326 0
M  V30 24065 C 2239.06 -3.41034 0.741383 0
M  V30 24066 C 2240.41 -4.18184 0.73534 0
M  V30 24067 O 2241.43 -3.49582 0.683422 0
M  V30 24068 O 2240.29 -5.40601 0.800798 0
M  V30 24069 H 2237.38 -0.822526 0.0859038 0
M  V30 24070 H 2239.93 -1.43954 0.898634 0
M  V30 24071 H 2238.7 -3.48326 1.78282 0
M  V30 24072 H 2238.32 -3.97356 0.139377 0
M  V30 24073 N 2239.32 -0.56861 -1.46985 0
M  V30 24074 C 2240.57 -0.0489066 -2.02741 0
M  V30 24075 C 2240.9 1.30211 -1.44079 0
M  V30 24076 O 2240.18 1.84995 -0.600585 0
M  V30 24077 C 2240.46 0.0319837 -3.60086 0
M  V30 24078 C 2240.31 -1.34693 -4.29159 0
M  V30 24079 C 2241.63 0.739722 -4.33839 0
M  V30 24080 H 2238.75 -0.0192468 -0.736749 0
M  V30 24081 H 2241.39 -0.733096 -1.75287 0
M  V30 24082 H 2239.54 0.614663 -3.83607 0
M  V30 24083 H 2241.21 -1.97369 -4.16945 0
M  V30 24084 H 2239.46 -1.91853 -3.89069 0
M  V30 24085 H 2240.13 -1.24294 -5.37824 0
M  V30 24086 H 2242.6 0.244866 -4.15379 0
M  V30 24087 H 2241.48 0.765311 -5.43539 0
M  V30 24088 H 2241.74 1.79819 -4.03878 0
M  V30 24089 N 2240.8 1.54608 -0.305646 0
M  V30 24090 C 2241.75 2.23692 0.568382 0
M  V30 24091 C 2242.72 1.22118 1.1259 0
M  V30 24092 O 2243.9 1.50751 1.16956 0
M  V30 24093 C 2241.04 2.9848 1.73215 0
M  V30 24094 C 2240.15 4.14837 1.20558 0
M  V30 24095 C 2239.29 4.77197 2.33359 0
M  V30 24096 C 2238.33 5.8569 1.7786 0
M  V30 24097 N 2237.47 6.41985 2.84252 0
M  V30 24098 H 2242.31 2.97987 -0.0273391 0
M  V30 24099 H 2239.84 1.47078 -0.0252622 0
M  V30 24100 H 2241.8 3.40076 2.41669 0
M  V30 24101 H 2240.43 2.26552 2.29943 0
M  V30 24102 H 2239.48 3.7815 0.413156 0
M  V30 24103 H 2240.79 4.92986 0.759331 0
M  V30 24104 H 2239.95 5.21669 3.09751 0
M  V30 24105 H 2238.69 3.98389 2.81313 0
M  V30 24106 H 2237.69 5.40637 0.999585 0
M  V30 24107 H 2238.92 6.66384 1.30804 0
M  V30 24108 H 2236.86 5.66059 3.31531 0
M  V30 24109 H 2236.78 7.15495 2.44136 0
M  V30 24110 H 2238.05 6.91115 3.60528 0
M  V30 24111 N 2242.28 0.033457 1.57564 0
M  V30 24112 C 2243.52 -0.645193 1.92263 0
M  V30 24113 C 2243.86 -1.71529 0.910573 0
M  V30 24114 O 2243.13 -1.94388 -0.0660648 0
M  V30 24115 C 2243.41 -1.25765 3.37425 0
M  V30 24116 C 2243.27 -0.196812 4.49369 0
M  V30 24117 C 2244.59 -2.17442 3.82632 0
M  V30 24118 H 2241.71 -0.233073 0.699175 0
M  V30 24119 H 2244.35 0.0916027 1.89779 0
M  V30 24120 H 2242.5 -1.8856 3.39672 0
M  V30 24121 H 2244.17 0.434043 4.59253 0
M  V30 24122 H 2242.41 0.477213 4.31167 0
M  V30 24123 H 2243.08 -0.665027 5.47979 0
M  V30 24124 H 2245.56 -1.64628 3.82148 0
M  V30 24125 H 2244.44 -2.57246 4.84888 0
M  V30 24126 H 2244.7 -3.06734 3.18381 0
M  V30 24127 N 2243.76 -1.55766 -0.239741 0
M  V30 24128 C 2245 -1.77133 -0.964722 0
M  V30 24129 C 2245.32 -0.598712 -1.86212 0
M  V30 24130 O 2246.52 -0.695568 -2.62439 0
M  V30 24131 C 2244.98 -3.13623 -1.76547 0
M  V30 24132 C 2244.59 -4.38554 -0.915108 0
M  V30 24133 C 2246.33 -3.44325 -2.48275 0
M  V30 24134 C 2244.24 -5.66074 -1.71215 0
M  V30 24135 H 2243.17 -0.66035 -0.363941 0
M  V30 24136 H 2245.82 -1.82187 -0.219149 0
M  V30 24137 H 2244.2 -3.02696 -2.55326 0
M  V30 24138 H 2245.38 -4.60489 -0.169136 0
M  V30 24139 H 2243.69 -4.15238 -0.310816 0
M  V30 24140 H 2246.29 -4.36817 -3.08374 0
M  V30 24141 H 2246.63 -2.65979 -3.20251 0
M  V30 24142 H 2247.16 -3.565 -1.765 0
M  V30 24143 H 2243.9 -6.47261 -1.036 0
M  V30 24144 H 2243.42 -5.48229 -2.43322 0
M  V30 24145 H 2245.1 -6.05591 -2.27748 0
M  V30 24146 N 2245.23 0.505704 -1.49266 0
M  V30 24147 C 2246.46 1.28426 -1.62217 0
M  V30 24148 C 2246.88 1.86533 -0.29173 0
M  V30 24149 O 2246.23 1.67602 0.722204 0
M  V30 24150 C 2246.28 2.41788 -2.68739 0
M  V30 24151 O 2246.01 1.86071 -3.96622 0
M  V30 24152 C 2247.51 3.33235 -2.92352 0
M  V30 24153 H 2244.73 0.389687 -0.546246 0
M  V30 24154 H 2247.27 0.607575 -1.95266 0
M  V30 24155 H 2245.43 3.05296 -2.38481 0
M  V30 24156 H 2245.84 2.60457 -4.55261 0
M  V30 24157 H 2247.31 4.09068 -3.70631 0
M  V30 24158 H 2247.79 3.89945 -2.02088 0
M  V30 24159 H 2248.4 2.75498 -3.24008 0
M  V30 24160 N 2246.71 1.38262 0.756405 0
M  V30 24161 C 2247.66 1.35264 1.87009 0
M  V30 24162 C 2248.63 0.215645 1.64694 0
M  V30 24163 O 2249.81 0.407432 1.86399 0
M  V30 24164 C 2246.95 1.18073 3.24273 0
M  V30 24165 C 2246.07 2.41136 3.58438 0
M  V30 24166 C 2245.2 2.16697 4.8499 0
M  V30 24167 C 2244.24 3.35546 5.11933 0
M  V30 24168 N 2243.38 3.10561 6.2968 0
M  V30 24169 H 2248.22 2.30475 1.88906 0
M  V30 24170 H 2245.76 1.1451 0.923353 0
M  V30 24171 H 2247.71 1.06123 4.03477 0
M  V30 24172 H 2246.34 0.26503 3.2171 0
M  V30 24173 H 2245.4 2.63769 2.74099 0
M  V30 24174 H 2246.71 3.29724 3.74278 0
M  V30 24175 H 2245.86 2.01867 5.72132 0
M  V30 24176 H 2244.6 1.25471 4.71284 0
M  V30 24177 H 2243.61 3.50898 4.23262 0
M  V30 24178 H 2244.83 4.27645 5.27539 0
M  V30 24179 H 2242.78 2.21978 6.17302 0
M  V30 24180 H 2242.69 3.92697 6.46007 0
M  V30 24181 H 2243.96 2.99379 7.19717 0
M  V30 24182 N 2248.19 -0.984277 1.23084 0
M  V30 24183 C 2249.47 -1.69915 0.968929 0
M  V30 24184 C 2249.85 -2.04758 -0.513568 0
M  V30 24185 O 2249.2 -1.73769 -1.4838 0
M  V30 24186 C 2249.41 -2.9434 1.87524 0
M  V30 24187 C 2250.75 -3.66936 2.13642 0
M  V30 24188 O 2251.78 -3.04365 1.85042 0
M  V30 24189 O 2250.64 -4.79533 2.62127 0
M  V30 24190 H 2247.73 -0.742041 0.365108 0
M  V30 24191 H 2250.28 -1.03985 1.34109 0
M  V30 24192 H 2249.05 -2.65159 2.87761 0
M  V30 24193 H 2248.67 -3.68007 1.5052 0
M  V30 24194 N 2249.67 -1.04192 -1.18244 0
M  V30 24195 C 2250.62 -0.627831 -2.23967 0
M  V30 24196 C 2251.61 0.345989 -1.65829 0
M  V30 24197 O 2252.82 0.213143 -1.78734 0
M  V30 24198 H 2249.19 -0.184815 -0.728936 0
M  V30 24199 H 2251.16 -1.52985 -2.56199 0
M  V30 24200 C 2249.91 -0.00802703 -3.47699 0
M  V30 24201 H 2249.23 -0.748416 -3.92732 0
M  V30 24202 H 2250.67 0.244476 -4.23295 0
M  V30 24203 C 2249.13 1.2424 -3.13155 0
M  V30 24204 O 2249.66 2.33301 -3.27007 0
M  V30 24205 N 2247.87 1.13618 -2.67469 0
M  V30 24206 H 2247.42 0.248689 -2.56397 0
M  V30 24207 H 2247.37 1.97372 -2.44727 0
M  V30 24208 N 2251.15 1.34492 -0.821557 0
M  V30 24209 C 2252.39 1.98621 -0.409587 0
M  V30 24210 C 2252.73 1.64986 1.02437 0
M  V30 24211 O 2252 0.920788 1.71324 0
M  V30 24212 C 2252.28 3.54887 -0.610521 0
M  V30 24213 C 2252.14 3.98269 -2.0905 0
M  V30 24214 C 2253.46 4.40076 -0.0456153 0
M  V30 24215 H 2250.57 0.721513 -0.150292 0
M  V30 24216 H 2253.22 1.59409 -1.03387 0
M  V30 24217 H 2251.37 3.88419 -0.0791123 0
M  V30 24218 H 2253.04 3.75076 -2.68544 0
M  V30 24219 H 2251.28 3.48631 -2.58146 0
M  V30 24220 H 2251.95 5.07047 -2.18191 0
M  V30 24221 H 2254.43 4.13089 -0.49963 0
M  V30 24222 H 2253.3 5.48475 -0.216018 0
M  V30 24223 H 2253.57 4.29467 1.04932 0
M  V30 24224 N 2252.62 0.576397 1.46681 0
M  V30 24225 C 2253.57 -0.173309 2.31953 0
M  V30 24226 C 2254.57 -0.890595 1.441 0
M  V30 24227 O 2255.77 -0.8097 1.6076 0
M  V30 24228 H 2252.15 -0.0747595 0.748275 0
M  V30 24229 H 2254.12 0.564789 2.93006 0
M  V30 24230 C 2252.87 -1.1778 3.27144 0
M  V30 24231 H 2252.19 -0.635291 3.9472 0
M  V30 24232 H 2253.63 -1.67289 3.89603 0
M  V30 24233 C 2252.09 -2.23556 2.5204 0
M  V30 24234 O 2252.62 -3.30806 2.27882 0
M  V30 24235 N 2250.83 -1.97995 2.12712 0
M  V30 24236 H 2250.37 -1.10788 2.32559 0
M  V30 24237 H 2250.33 -2.68979 1.6278 0
M  V30 24238 N 2254.1 -1.54444 0.313841 0
M  V30 24239 C 2255.35 -1.99568 -0.292484 0
M  V30 24240 C 2255.66 -1.20585 -1.54009 0
M  V30 24241 O 2256.87 -1.56039 -2.2218 0
M  V30 24242 C 2255.33 -3.5533 -0.571689 0
M  V30 24243 C 2254.93 -4.43137 0.658307 0
M  V30 24244 C 2256.68 -4.08948 -1.1385 0
M  V30 24245 C 2254.59 -5.90354 0.351543 0
M  V30 24246 H 2253.52 -0.745474 -0.113066 0
M  V30 24247 H 2256.17 -1.78521 0.42455 0
M  V30 24248 H 2254.55 -3.72327 -1.34865 0
M  V30 24249 H 2255.72 -4.37916 1.43411 0
M  V30 24250 H 2254.04 -4.00358 1.14465 0
M  V30 24251 H 2256.63 -5.16519 -1.38247 0
M  V30 24252 H 2256.98 -3.60334 -2.08483 0
M  V30 24253 H 2257.51 -3.95545 -0.422945 0
M  V30 24254 H 2254.25 -6.43143 1.26678 0
M  V30 24255 H 2253.77 -5.98552 -0.386737 0
M  V30 24256 H 2255.45 -6.46986 -0.0421997 0
M  V30 24257 N 2255.58 -0.0418125 -1.57545 0
M  V30 24258 C 2256.51 0.933891 -2.14011 0
M  V30 24259 C 2257.49 1.33082 -1.0594 0
M  V30 24260 O 2258.68 1.40719 -1.33835 0
M  V30 24261 C 2255.81 2.21194 -2.67751 0
M  V30 24262 C 2254.76 1.95538 -3.80722 0
M  V30 24263 C 2254.09 3.29717 -4.20941 0
M  V30 24264 C 2255.39 1.28443 -5.06261 0
M  V30 24265 H 2257.08 0.463593 -2.95789 0
M  V30 24266 H 2254.63 0.221548 -1.42286 0
M  V30 24267 H 2256.58 2.89843 -3.05891 0
M  V30 24268 H 2255.3 2.70413 -1.83151 0
M  V30 24269 H 2253.96 1.29304 -3.4304 0
M  V30 24270 H 2253.61 3.76719 -3.33305 0
M  V30 24271 H 2253.31 3.13352 -4.97076 0
M  V30 24272 H 2254.83 3.99612 -4.61673 0
M  V30 24273 H 2256.25 1.87111 -5.41906 0
M  V30 24274 H 2254.65 1.22434 -5.87477 0
M  V30 24275 H 2255.72 0.259134 -4.84207 0
M  V30 24276 N 2257.06 1.55891 0.231477 0
M  V30 24277 C 2258.29 1.82515 0.974473 0
M  V30 24278 C 2258.7 0.619622 1.78343 0
M  V30 24279 O 2258.06 -0.411817 1.77793 0
M  V30 24280 C 2258.11 3.07542 1.90001 0
M  V30 24281 O 2257.83 4.23442 1.12377 0
M  V30 24282 C 2259.33 3.4708 2.75773 0
M  V30 24283 H 2256.55 0.606971 0.286054 0
M  V30 24284 H 2259.1 2.0297 0.249703 0
M  V30 24285 H 2257.25 2.89091 2.57886 0
M  V30 24286 H 2257.66 4.94403 1.75117 0
M  V30 24287 H 2259.14 4.37625 3.36435 0
M  V30 24288 H 2259.62 2.68373 3.47667 0
M  V30 24289 H 2260.22 3.67935 2.13317 0
M  V30 24290 N 2258.54 -0.497781 1.49532 0
M  V30 24291 C 2259.78 -1.24923 1.58867 0
M  V30 24292 C 2260.11 -1.92997 0.278755 0
M  V30 24293 O 2259.38 -1.82886 -0.702112 0
M  V30 24294 H 2257.96 -0.464083 0.585351 0
M  V30 24295 H 2260.62 -0.576627 1.86175 0
M  V30 24296 H 2259.71 -2.01145 2.38636 0
M  V30 24297 N 2260.01 -1.38661 -0.749062 0
M  V30 24298 C 2261.24 -1.3816 -1.53608 0
M  V30 24299 C 2261.65 0.0293263 -1.89177 0
M  V30 24300 O 2261 1.00749 -1.53608 0
M  V30 24301 C 2261.06 -2.17707 -2.86083 0
M  V30 24302 C 2260.72 -3.66477 -2.73027 0
M  V30 24303 C 2261.72 -4.5987 -2.42518 0
M  V30 24304 C 2259.4 -4.09889 -2.90338 0
M  V30 24305 C 2261.4 -5.94657 -2.29481 0
M  V30 24306 C 2259.08 -5.44755 -2.76921 0
M  V30 24307 C 2260.08 -6.36953 -2.46536 0
M  V30 24308 O 2259.77 -7.69337 -2.33185 0
M  V30 24309 H 2259.5 -0.474214 -0.481765 0
M  V30 24310 H 2262.06 -1.82914 -0.934433 0
M  V30 24311 H 2260.29 -1.67678 -3.48455 0
M  V30 24312 H 2261.98 -2.09557 -3.47621 0
M  V30 24313 H 2262.74 -4.27635 -2.28808 0
M  V30 24314 H 2258.62 -3.3847 -3.12984 0
M  V30 24315 H 2262.16 -6.66587 -2.05686 0
M  V30 24316 H 2258.06 -5.76586 -2.90205 0
M  V30 24317 H 2258.83 -7.79909 -2.48363 0
M  V30 24318 N 2261.49 0.977736 -1.23605 0
M  V30 24319 C 2262.72 1.75201 -1.0949 0
M  V30 24320 C 2263.13 1.85815 0.356289 0
M  V30 24321 O 2262.47 1.33853 1.25813 0
M  V30 24322 C 2262.54 3.19445 -1.6491 0
M  V30 24323 C 2262.2 3.32333 -3.13694 0
M  V30 24324 C 2263.2 3.18448 -4.10959 0
M  V30 24325 C 2260.88 3.56896 -3.53456 0
M  V30 24326 C 2262.88 3.28934 -5.45968 0
M  V30 24327 C 2260.56 3.67022 -4.88609 0
M  V30 24328 C 2261.56 3.53052 -5.84674 0
M  V30 24329 O 2261.25 3.62814 -7.17371 0
M  V30 24330 H 2260.98 0.556566 -0.38368 0
M  V30 24331 H 2263.54 1.2369 -1.63982 0
M  V30 24332 H 2261.77 3.72216 -1.04842 0
M  V30 24333 H 2263.45 3.78643 -1.46233 0
M  V30 24334 H 2264.22 2.99366 -3.81583 0
M  V30 24335 H 2260.1 3.6684 -2.79195 0
M  V30 24336 H 2263.64 3.17947 -6.20931 0
M  V30 24337 H 2259.54 3.85614 -5.1766 0
M  V30 24338 H 2260.31 3.79592 -7.25157 0
M  V30 24339 N 2262.97 1.04818 1.1769 0
M  V30 24340 C 2263.9 0.66683 2.23776 0
M  V30 24341 C 2264.88 -0.333581 1.66797 0
M  V30 24342 O 2266.07 -0.212008 1.93039 0
M  V30 24343 C 2263.2 0.0368544 3.4728 0
M  V30 24344 C 2262.15 0.961619 4.17057 0
M  V30 24345 C 2261.48 0.19572 5.34342 0
M  V30 24346 C 2262.78 2.2841 4.69709 0
M  V30 24347 H 2264.47 1.55371 2.5593 0
M  V30 24348 H 2262.02 0.748506 1.23018 0
M  V30 24349 H 2263.97 -0.241701 4.20706 0
M  V30 24350 H 2262.69 -0.884949 3.14382 0
M  V30 24351 H 2261.35 1.22468 3.45539 0
M  V30 24352 H 2261 -0.728729 4.97693 0
M  V30 24353 H 2260.7 0.811878 5.81964 0
M  V30 24354 H 2262.23 -0.0756399 6.10553 0
M  V30 24355 H 2263.64 2.06572 5.34791 0
M  V30 24356 H 2262.04 2.8539 5.27895 0
M  V30 24357 H 2263.11 2.92532 3.86721 0
M  V30 24358 N 2264.45 -1.34055 0.828678 0
M  V30 24359 C 2265.4 -2.29413 0.252607 0
M  V30 24360 C 2266.37 -1.53858 -0.625853 0
M  V30 24361 O 2267.55 -1.82203 -0.56628 0
M  V30 24362 C 2264.69 -3.4028 -0.574771 0
M  V30 24363 C 2263.8 -4.30764 0.326575 0
M  V30 24364 C 2262.94 -5.28737 -0.510923 0
M  V30 24365 C 2261.98 -6.1086 0.38945 0
M  V30 24366 N 2261.12 -7.00906 -0.409315 0
M  V30 24367 H 2265.96 -2.78084 1.07113 0
M  V30 24368 H 2263.49 -1.36842 0.539701 0
M  V30 24369 H 2265.45 -4.03249 -1.06985 0
M  V30 24370 H 2264.08 -2.92828 -1.35836 0
M  V30 24371 H 2263.13 -3.68605 0.939902 0
M  V30 24372 H 2264.44 -4.88288 1.01866 0
M  V30 24373 H 2263.6 -5.97186 -1.07024 0
M  V30 24374 H 2262.34 -4.71765 -1.23648 0
M  V30 24375 H 2261.34 -5.41339 0.960864 0
M  V30 24376 H 2262.57 -6.69914 1.11321 0
M  V30 24377 H 2260.51 -6.46395 -1.11845 0
M  V30 24378 H 2260.43 -7.55667 0.224259 0
M  V30 24379 H 2261.7 -7.73675 -0.9512 0
M  V30 24380 N 2265.93 -0.584167 -1.46374 0
M  V30 24381 C 2267.2 -0.00337318 -1.956 0
M  V30 24382 C 2267.58 1.45779 -1.52682 0
M  V30 24383 O 2266.93 2.1484 -0.778198 0
M  V30 24384 C 2267.14 -0.176953 -3.48551 0
M  V30 24385 C 2268.49 -0.0455355 -4.24576 0
M  V30 24386 O 2269.51 -0.105863 -3.56043 0
M  V30 24387 O 2268.37 0.0889415 -5.46428 0
M  V30 24388 H 2265.47 0.0489921 -0.825548 0
M  V30 24389 H 2268.01 -0.652588 -1.5665 0
M  V30 24390 H 2266.79 -1.19267 -3.72681 0
M  V30 24391 H 2266.41 0.508626 -3.94333 0
M  V30 24392 N 2267.41 1.54275 -0.322027 0
M  V30 24393 C 2268.68 1.92706 0.335198 0
M  V30 24394 C 2269.06 1.25148 1.70004 0
M  V30 24395 O 2268.41 0.394635 2.25066 0
M  V30 24396 C 2268.62 3.46354 0.428947 0
M  V30 24397 C 2269.97 4.18957 0.689955 0
M  V30 24398 O 2270.99 3.52502 0.51193 0
M  V30 24399 O 2269.85 5.36643 1.03329 0
M  V30 24400 H 2266.95 0.804611 0.191129 0
M  V30 24401 H 2269.49 1.65581 -0.371629 0
M  V30 24402 H 2268.26 3.87698 -0.529679 0
M  V30 24403 H 2267.89 3.7958 1.18341 0
M  V30 24404 N 2268.88 0.0501669 1.5752 0
M  V30 24405 C 2270.13 -0.623294 1.91828 0
M  V30 24406 C 2270.45 -1.72063 0.930252 0
M  V30 24407 O 2271.65 -2.45218 1.16534 0
M  V30 24408 C 2270.11 -1.15997 3.40694 0
M  V30 24409 C 2269.72 -0.0948023 4.479 0
M  V30 24410 C 2271.46 -1.80874 3.84038 0
M  V30 24411 C 2269.37 -0.644307 5.8788 0
M  V30 24412 H 2268.3 -0.236584 0.715922 0
M  V30 24413 H 2270.95 0.118893 1.83114 0
M  V30 24414 H 2269.33 -1.95444 3.44409 0
M  V30 24415 H 2270.5 0.678755 4.55774 0
M  V30 24416 H 2268.82 0.456443 4.13891 0
M  V30 24417 H 2271.42 -2.2298 4.85988 0
M  V30 24418 H 2271.76 -2.66005 3.2023 0
M  V30 24419 H 2272.29 -1.08084 3.82835 0
M  V30 24420 H 2269.03 0.169344 6.55281 0
M  V30 24421 H 2268.55 -1.38587 5.8357 0
M  V30 24422 H 2270.23 -1.12752 6.371 0
M  V30 24423 N 2270.36 -1.56011 -0.223207 0
M  V30 24424 C 2271.31 -1.9228 -1.2766 0
M  V30 24425 C 2272.28 -0.779789 -1.46658 0
M  V30 24426 O 2273.46 -1.03554 -1.60254 0
M  V30 24427 C 2270.6 -2.24343 -2.6223 0
M  V30 24428 C 2269.72 -3.51569 -2.51045 0
M  V30 24429 C 2268.85 -3.73087 -3.78126 0
M  V30 24430 C 2267.89 -4.93833 -3.61657 0
M  V30 24431 N 2267.03 -5.11749 -4.80684 0
M  V30 24432 H 2271.87 -2.82103 -0.960308 0
M  V30 24433 H 2269.4 -1.39628 -0.462876 0
M  V30 24434 H 2271.36 -2.40942 -3.40592 0
M  V30 24435 H 2269.99 -1.37695 -2.91959 0
M  V30 24436 H 2269.04 -3.43172 -1.64126 0
M  V30 24437 H 2270.36 -4.40083 -2.34795 0
M  V30 24438 H 2269.51 -3.89774 -4.64931 0
M  V30 24439 H 2268.25 -2.82851 -3.97299 0
M  V30 24440 H 2267.25 -4.77098 -2.73236 0
M  V30 24441 H 2268.48 -5.85552 -3.43956 0
M  V30 24442 H 2266.43 -4.24455 -5.00174 0
M  V30 24443 H 2266.34 -5.94393 -4.67155 0
M  V30 24444 H 2267.61 -5.3287 -5.6892 0
M  V30 24445 N 2271.84 0.489844 -1.49794 0
M  V30 24446 C 2273.09 1.23992 -1.59088 0
M  V30 24447 C 2273.4 1.93469 -0.287941 0
M  V30 24448 O 2274.61 2.70256 -0.259554 0
M  V30 24449 C 2273.06 2.25195 -2.8074 0
M  V30 24450 C 2272.67 1.61607 -4.17836 0
M  V30 24451 C 2274.42 3.00962 -2.9937 0
M  V30 24452 C 2272.32 2.60987 -5.30698 0
M  V30 24453 H 2271.25 0.466478 -0.59238 0
M  V30 24454 H 2273.9 0.512489 -1.76198 0
M  V30 24455 H 2272.29 3.0115 -2.57148 0
M  V30 24456 H 2273.46 0.915695 -4.5161 0
M  V30 24457 H 2271.77 0.981905 -4.04657 0
M  V30 24458 H 2274.37 3.75302 -3.80858 0
M  V30 24459 H 2274.71 3.5924 -2.10362 0
M  V30 24460 H 2275.25 2.32122 -3.23054 0
M  V30 24461 H 2271.99 2.07474 -6.218 0
M  V30 24462 H 2271.51 3.29231 -5.01365 0
M  V30 24463 H 2273.19 3.23193 -5.60496 0
M  V30 24464 N 2273.32 1.39056 0.741698 0
M  V30 24465 C 2274.54 1.39357 1.53605 0
M  V30 24466 C 2274.97 -0.0116574 1.88096 0
M  V30 24467 O 2274.33 -0.996898 1.51432 0
M  V30 24468 C 2274.37 2.26687 2.80438 0
M  V30 24469 O 2273.48 1.69215 3.76085 0
M  V30 24470 H 2272.82 0.474843 0.464134 0
M  V30 24471 H 2275.35 1.82968 0.915633 0
M  V30 24472 H 2275.36 2.40965 3.29241 0
M  V30 24473 H 2274.03 3.28814 2.54665 0
M  V30 24474 H 2272.61 1.64144 3.3483 0
M  V30 24475 N 2274.8 -0.971167 1.24121 0
M  V30 24476 C 2275.73 -2.08302 1.05511 0
M  V30 24477 C 2276.71 -1.70072 -0.0308565 0
M  V30 24478 O 2277.89 -1.93726 0.135556 0
M  V30 24479 C 2275.02 -3.41059 0.655425 0
M  V30 24480 C 2273.98 -3.93231 1.68978 0
M  V30 24481 C 2273.3 -5.22291 1.14525 0
M  V30 24482 C 2274.6 -4.2146 3.08494 0
M  V30 24483 H 2276.3 -2.24129 1.98511 0
M  V30 24484 H 2273.84 -1.07702 0.95584 0
M  V30 24485 H 2275.79 -4.18275 0.512243 0
M  V30 24486 H 2274.52 -3.25123 -0.310263 0
M  V30 24487 H 2273.18 -3.18168 1.82111 0
M  V30 24488 H 2272.83 -5.02712 0.170277 0
M  V30 24489 H 2272.53 -5.58165 1.83645 0
M  V30 24490 H 2274.05 -6.0212 1.01412 0
M  V30 24491 H 2275.46 -4.89393 2.98609 0
M  V30 24492 H 2273.86 -4.68555 3.74935 0
M  V30 24493 H 2274.93 -3.2837 3.56793 0
M  V30 24494 N 2276.27 -1.05441 -1.17133 0
M  V30 24495 C 2277.5 -0.786429 -1.91912 0
M  V30 24496 C 2277.92 0.652203 -1.76431 0
M  V30 24497 O 2277.28 1.45343 -1.08375 0
M  V30 24498 C 2277.33 -1.17503 -3.40918 0
M  V30 24499 O 2276.43 -0.308661 -4.11243 0
M  V30 24500 H 2275.78 -0.288168 -0.59821 0
M  V30 24501 H 2278.31 -1.40792 -1.48454 0
M  V30 24502 H 2278.32 -1.14287 -3.91666 0
M  V30 24503 H 2276.99 -2.22298 -3.51506 0
M  V30 24504 H 2275.57 -0.401635 -3.70731 0
M  V30 24505 N 2277.75 1.33613 -0.835776 0
M  V30 24506 C 2278.68 2.31794 -0.28178 0
M  V30 24507 C 2279.66 1.58832 0.608805 0
M  V30 24508 O 2280.85 1.86742 0.533002 0
M  V30 24509 C 2277.98 3.42972 0.546552 0
M  V30 24510 C 2276.93 4.27281 -0.247979 0
M  V30 24511 C 2276.26 5.30046 0.703907 0
M  V30 24512 C 2277.56 5.01382 -1.46333 0
M  V30 24513 H 2279.25 2.78377 -1.10211 0
M  V30 24514 H 2276.8 1.33836 -0.531412 0
M  V30 24515 H 2278.75 4.10681 0.944395 0
M  V30 24516 H 2277.48 2.95069 1.40006 0
M  V30 24517 H 2276.13 3.61192 -0.627345 0
M  V30 24518 H 2275.78 4.78402 1.55373 0
M  V30 24519 H 2275.48 5.87335 0.176421 0
M  V30 24520 H 2277.01 6.00622 1.09933 0
M  V30 24521 H 2278.42 5.61875 -1.13881 0
M  V30 24522 H 2276.82 5.68306 -1.92738 0
M  V30 24523 H 2277.89 4.30334 -2.23474 0
M  V30 24524 N 2279.23 0.591922 1.46062 0
M  V30 24525 C 2280.46 0.0869299 2.06717 0
M  V30 24526 C 2280.87 -1.22201 1.43918 0
M  V30 24527 O 2280.23 -1.74087 0.547729 0
M  V30 24528 C 2280.28 -0.0758089 3.61421 0
M  V30 24529 O 2280 1.18133 4.21872 0
M  V30 24530 C 2281.5 -0.614083 4.39026 0
M  V30 24531 H 2278.72 0.0616635 0.668161 0
M  V30 24532 H 2281.27 0.815208 1.87549 0
M  V30 24533 H 2279.42 -0.754346 3.79985 0
M  V30 24534 H 2279.84 1.00101 5.14859 0
M  V30 24535 H 2281.31 -0.677097 5.47832 0
M  V30 24536 H 2281.79 -1.63305 4.07711 0
M  V30 24537 H 2282.39 0.029889 4.25289 0
M  V30 24538 N 2280.71 -1.54102 0.330204 0
M  V30 24539 C 2281.64 -2.27514 -0.525313 0
M  V30 24540 C 2282.62 -1.28562 -1.11381 0
M  V30 24541 O 2283.8 -1.57385 -1.1377 0
M  V30 24542 C 2280.93 -3.03794 -1.68305 0
M  V30 24543 C 2279.89 -4.10139 -1.22353 0
M  V30 24544 C 2279.21 -4.74297 -2.46873 0
M  V30 24545 C 2280.51 -5.21234 -0.333605 0
M  V30 24546 H 2282.21 -2.99273 0.0870656 0
M  V30 24547 H 2279.75 -1.43935 0.0433146 0
M  V30 24548 H 2281.71 -3.53884 -2.28788 0
M  V30 24549 H 2280.43 -2.29663 -2.32212 0
M  V30 24550 H 2279.09 -3.60942 -0.641586 0
M  V30 24551 H 2278.74 -3.96775 -3.09159 0
M  V30 24552 H 2278.44 -5.46136 -2.16815 0
M  V30 24553 H 2279.96 -5.27164 -3.08107 0
M  V30 24554 H 2281.38 -5.6704 -0.844913 0
M  V30 24555 H 2279.77 -5.99969 -0.125507 0
M  V30 24556 H 2280.84 -4.8074 0.633808 0
M  V30 24557 N 2282.19 -0.0585199 -1.57491 0
M  V30 24558 C 2283.12 0.942657 -2.08918 0
M  V30 24559 C 2284.13 1.27004 -1.01852 0
M  V30 24560 O 2285.32 1.22954 -1.294 0
M  V30 24561 C 2282.42 2.26219 -2.52345 0
M  V30 24562 C 2281.59 2.11564 -3.82831 0
M  V30 24563 C 2280.65 3.26705 -4.12493 0
M  V30 24564 O 2279.68 3.02283 -4.823 0
M  V30 24565 N 2280.88 4.51404 -3.64986 0
M  V30 24566 H 2283.65 0.503671 -2.95437 0
M  V30 24567 H 2281.21 0.127541 -1.61397 0
M  V30 24568 H 2283.2 3.02128 -2.69259 0
M  V30 24569 H 2281.77 2.6166 -1.71034 0
M  V30 24570 H 2280.99 1.20201 -3.75427 0
M  V30 24571 H 2282.28 1.99007 -4.68267 0
M  V30 24572 H 2281.67 4.74134 -3.08566 0
M  V30 24573 H 2280.23 5.24383 -3.87125 0
M  V30 24574 N 2283.66 1.56128 0.21493 0
M  V30 24575 C 2284.94 1.70248 0.963063 0
M  V30 24576 C 2285.32 0.607676 2.02165 0
M  V30 24577 O 2284.67 -0.384345 2.25244 0
M  V30 24578 C 2284.88 3.11818 1.5675 0
M  V30 24579 C 2286.23 3.71434 2.05723 0
M  V30 24580 O 2287.25 3.14821 1.66631 0
M  V30 24581 O 2286.11 4.70748 2.77595 0
M  V30 24582 H 2283.2 0.693651 0.450309 0
M  V30 24583 H 2285.75 1.68443 0.206189 0
M  V30 24584 H 2284.52 3.82962 0.803465 0
M  V30 24585 H 2284.15 3.17769 2.38974 0
M  V30 24586 N 2285.14 -0.481893 1.50052 0
M  V30 24587 C 2286.05 -1.60725 1.70893 0
M  V30 24588 C 2287.07 -1.63626 0.591817 0
M  V30 24589 O 2288.24 -1.81695 0.868849 0
M  V30 24590 C 2285.31 -2.97002 1.7886 0
M  V30 24591 C 2284.37 -3.04576 3.02543 0
M  V30 24592 C 2283.6 -4.34352 3.1012 0
M  V30 24593 O 2283.83 -5.24245 2.24774 0
M  V30 24594 O 2282.76 -4.47294 4.02755 0
M  V30 24595 H 2286.59 -1.46067 2.66267 0
M  V30 24596 H 2284.17 -0.660241 1.34019 0
M  V30 24597 H 2286.05 -3.77961 1.86343 0
M  V30 24598 H 2284.73 -3.11882 0.866683 0
M  V30 24599 H 2283.64 -2.22734 3.00567 0
M  V30 24600 H 2284.97 -2.94629 3.94277 0
M  V30 24601 N 2286.62 -1.39448 -0.734313 0
M  V30 24602 C 2287.57 -1.38222 -1.84833 0
M  V30 24603 C 2288.54 -0.241819 -1.6433 0
M  V30 24604 O 2289.72 -0.437035 -1.85727 0
M  V30 24605 C 2286.86 -1.23217 -3.22353 0
M  V30 24606 C 2285.98 -2.46808 -3.54556 0
M  V30 24607 C 2285.11 -2.24386 -4.81482 0
M  V30 24608 C 2284.15 -3.43648 -5.0653 0
M  V30 24609 N 2283.29 -3.20539 -6.24659 0
M  V30 24610 H 2288.13 -2.33451 -1.85215 0
M  V30 24611 H 2285.66 -1.15965 -0.905018 0
M  V30 24612 H 2287.62 -1.12529 -4.01738 0
M  V30 24613 H 2286.25 -0.316178 -3.21248 0
M  V30 24614 H 2285.3 -2.68096 -2.69868 0
M  V30 24615 H 2286.62 -3.35636 -3.68985 0
M  V30 24616 H 2285.77 -2.10943 -5.68848 0
M  V30 24617 H 2284.51 -1.32952 -4.69228 0
M  V30 24618 H 2283.51 -3.57588 -4.17625 0
M  V30 24619 H 2284.74 -4.35983 -5.20668 0
M  V30 24620 H 2282.68 -2.31771 -6.13692 0
M  V30 24621 H 2282.6 -4.02925 -6.39678 0
M  V30 24622 H 2283.87 -3.10792 -7.14863 0
M  V30 24623 N 2288.1 0.964571 -1.24635 0
M  V30 24624 C 2289.33 1.74283 -1.11504 0
M  V30 24625 C 2289.74 1.85856 0.332133 0
M  V30 24626 O 2289.1 1.34913 1.22901 0
M  V30 24627 C 2289.15 3.16172 -1.75264 0
M  V30 24628 O 2288.87 3.05176 -3.14323 0
M  V30 24629 C 2290.37 4.10321 -1.67784 0
M  V30 24630 H 2287.59 0.546439 -0.389417 0
M  V30 24631 H 2290.14 1.2108 -1.64803 0
M  V30 24632 H 2288.29 3.66351 -1.2596 0
M  V30 24633 H 2288.7 3.94612 -3.45517 0
M  V30 24634 H 2290.18 5.07527 -2.17073 0
M  V30 24635 H 2290.66 4.34517 -0.639661 0
M  V30 24636 H 2291.26 3.66054 -2.16529 0
M  V30 24637 N 2289.58 1.0606 1.16572 0
M  V30 24638 C 2290.83 0.770977 1.86384 0
M  V30 24639 C 2291.14 -0.705097 1.82449 0
M  V30 24640 O 2292.34 -1.10901 2.47817 0
M  V30 24641 C 2290.8 1.32899 3.34464 0
M  V30 24642 C 2290.41 2.83513 3.46878 0
M  V30 24643 C 2292.15 1.1168 4.09546 0
M  V30 24644 C 2290.06 3.32571 4.8903 0
M  V30 24645 H 2288.99 0.284721 0.698176 0
M  V30 24646 H 2291.64 1.27901 1.31581 0
M  V30 24647 H 2290.02 0.748731 3.88857 0
M  V30 24648 H 2291.2 3.4747 3.02657 0
M  V30 24649 H 2289.51 3.03373 2.85226 0
M  V30 24650 H 2292.11 1.45823 5.14431 0
M  V30 24651 H 2292.45 0.0550267 4.16264 0
M  V30 24652 H 2292.98 1.66272 3.61384 0
M  V30 24653 H 2289.72 4.38216 4.87491 0
M  V30 24654 H 2289.24 2.73361 5.33886 0
M  V30 24655 H 2290.92 3.2776 5.57837 0
M  V30 24656 N 2291.06 -1.33168 0.84285 0
M  V30 24657 C 2292 -2.29133 0.276925 0
M  V30 24658 C 2292.97 -1.54513 -0.609499 0
M  V30 24659 O 2294.16 -1.82793 -0.546923 0
M  V30 24660 C 2291.3 -3.4087 -0.538647 0
M  V30 24661 C 2290.41 -4.30393 0.372245 0
M  V30 24662 C 2289.55 -5.29249 -0.454815 0
M  V30 24663 C 2288.58 -6.10412 0.454218 0
M  V30 24664 N 2287.72 -7.01301 -0.334952 0
M  V30 24665 H 2292.56 -2.76932 1.10057 0
M  V30 24666 H 2290.1 -1.36262 0.554185 0
M  V30 24667 H 2292.06 -4.04362 -1.02702 0
M  V30 24668 H 2290.69 -2.94253 -1.32722 0
M  V30 24669 H 2289.74 -3.67588 0.978944 0
M  V30 24670 H 2291.05 -4.8718 1.07039 0
M  V30 24671 H 2290.2 -5.98287 -1.00684 0
M  V30 24672 H 2288.94 -4.7305 -1.18638 0
M  V30 24673 H 2287.95 -5.40289 1.01823 0
M  V30 24674 H 2289.17 -6.68695 1.18421 0
M  V30 24675 H 2287.12 -6.47545 -1.04982 0
M  V30 24676 H 2287.04 -7.55387 0.304395 0
M  V30 24677 H 2288.3 -7.7464 -0.869088 0
M  V30 24678 N 2292.53 -0.599659 -1.45746 0
M  V30 24679 C 2293.46 0.111265 -2.33235 0
M  V30 24680 C 2294.44 0.866755 -1.4636 0
M  V30 24681 O 2295.63 0.838873 -1.75147 0
M  V30 24682 C 2292.76 1.11445 -3.28934 0
M  V30 24683 C 2291.71 0.472697 -4.25382 0
M  V30 24684 C 2291.04 1.58356 -5.10713 0
M  V30 24685 C 2292.34 -0.60104 -5.1883 0
M  V30 24686 H 2294.03 -0.619241 -2.92926 0
M  V30 24687 H 2291.58 -0.29924 -1.40857 0
M  V30 24688 H 2293.53 1.62029 -3.89004 0
M  V30 24689 H 2292.26 1.87545 -2.67384 0
M  V30 24690 H 2290.92 -0.0122117 -3.66598 0
M  V30 24691 H 2290.56 2.33465 -4.45537 0
M  V30 24692 H 2290.26 1.15971 -5.76042 0
M  V30 24693 H 2291.79 2.09183 -5.7365 0
M  V30 24694 H 2293.2 -0.179592 -5.73019 0
M  V30 24695 H 2291.6 -0.94618 -5.92594 0
M  V30 24696 H 2292.67 -1.48076 -4.61738 0
M  V30 24697 N 2294.01 1.53925 -0.338371 0
M  V30 24698 C 2294.96 2.26335 0.536191 0
M  V30 24699 C 2295.95 1.28288 1.10628 0
M  V30 24700 O 2297.16 1.46014 1.05261 0
M  V30 24701 H 2293.53 0.727185 0.191589 0
M  V30 24702 H 2295.51 2.98244 -0.0966271 0
M  V30 24703 C 2294.25 3.04531 1.67798 0
M  V30 24704 H 2293.58 3.79803 1.24857 0
M  V30 24705 H 2295.02 3.5842 2.26519 0
M  V30 24706 C 2293.48 2.13717 2.60436 0
M  V30 24707 O 2294.01 1.72982 3.62547 0
M  V30 24708 N 2292.21 1.78902 2.29003 0
M  V30 24709 H 2291.76 2.12226 1.46007 0
M  V30 24710 H 2291.72 1.18421 2.91245 0
M  V30 24711 N 2295.49 0.0668712 1.57458 0
M  V30 24712 C 2296.71 -0.615992 1.98041 0
M  V30 24713 C 2297.14 -1.6265 0.944799 0
M  V30 24714 O 2296.5 -1.81076 -0.0901776 0
M  V30 24715 C 2296.55 -1.26543 3.37667 0
M  V30 24716 O 2295.65 -2.38125 3.36705 0
M  V30 24717 H 2294.99 -0.158838 0.644722 0
M  V30 24718 H 2297.52 0.139927 2.04121 0
M  V30 24719 H 2297.53 -1.61343 3.74743 0
M  V30 24720 H 2296.21 -0.524944 4.12574 0
M  V30 24721 H 2294.78 -2.05155 3.11394 0
M  V30 24722 N 2296.97 -1.56239 -0.206647 0
M  V30 24723 C 2298.21 -1.80209 -0.930186 0
M  V30 24724 C 2298.55 -0.639013 -1.83386 0
M  V30 24725 O 2297.82 0.361032 -1.9112 0
M  V30 24726 C 2298.1 -3.14363 -1.75635 0
M  V30 24727 C 2297.96 -4.41144 -0.87818 0
M  V30 24728 C 2299.28 -3.45097 -2.73123 0
M  V30 24729 H 2296.4 -0.655577 -0.336731 0
M  V30 24730 H 2299.04 -1.88964 -0.198189 0
M  V30 24731 H 2297.19 -3.07031 -2.38042 0
M  V30 24732 H 2298.86 -4.60511 -0.269706 0
M  V30 24733 H 2297.1 -4.33408 -0.184309 0
M  V30 24734 H 2297.77 -5.31483 -1.49097 0
M  V30 24735 H 2300.25 -3.52653 -2.2085 0
M  V30 24736 H 2299.13 -4.40106 -3.28021 0
M  V30 24737 H 2299.39 -2.68009 -3.51602 0
M  V30 24738 N 2298.45 0.473929 -1.50305 0
M  V30 24739 C 2299.4 1.56982 -1.6535 0
M  V30 24740 C 2300.38 1.52663 -0.508203 0
M  V30 24741 O 2301.57 1.59735 -0.762474 0
M  V30 24742 C 2298.7 2.95443 -1.74837 0
M  V30 24743 C 2297.79 3.04657 -2.95034 0
M  V30 24744 N 2298.18 2.83691 -4.18752 0
M  V30 24745 C 2296.48 3.35789 -2.93533 0
M  V30 24746 C 2297.18 2.97796 -4.99692 0
M  V30 24747 N 2296.15 3.27872 -4.33591 0
M  V30 24748 H 2299.95 1.39468 -2.587 0
M  V30 24749 H 2297.47 0.680603 -1.4745 0
M  V30 24750 H 2299.47 3.74237 -1.83718 0
M  V30 24751 H 2298.13 3.14007 -0.826431 0
M  V30 24752 H 2299.14 2.59329 -4.48296 0
M  V30 24753 H 2295.81 3.60358 -2.10827 0
M  V30 24754 H 2297.2 2.8585 -6.08062 0
M  V30 24755 N 2299.92 1.39835 0.726907 0
M  V30 24756 C 2300.85 1.41944 1.85403 0
M  V30 24757 C 2301.83 0.281757 1.6775 0
M  V30 24758 O 2303.02 0.48875 1.87949 0
M  V30 24759 C 2300.15 1.27015 3.2324 0
M  V30 24760 C 2299.1 2.38268 3.55545 0
M  V30 24761 C 2298.43 2.08423 4.92406 0
M  V30 24762 C 2299.73 3.80595 3.57693 0
M  V30 24763 H 2301.42 2.36269 1.83895 0
M  V30 24764 H 2298.97 1.13725 0.883329 0
M  V30 24765 H 2300.92 1.2711 4.01772 0
M  V30 24766 H 2299.65 0.291621 3.25295 0
M  V30 24767 H 2298.31 2.37404 2.79347 0
M  V30 24768 H 2297.95 1.08988 4.9105 0
M  V30 24769 H 2297.65 2.82952 5.14987 0
M  V30 24770 H 2299.18 2.10181 5.73285 0
M  V30 24771 H 2300.59 3.83344 4.26286 0
M  V30 24772 H 2298.99 4.5455 3.91796 0
M  V30 24773 H 2300.06 4.10992 2.5732 0
M  V30 24774 N 2301.4 -0.957948 1.25144 0
M  V30 24775 C 2302.68 -1.67822 1.00475 0
M  V30 24776 C 2303.06 -2.05801 -0.47002 0
M  V30 24777 O 2302.41 -1.76877 -1.4466 0
M  V30 24778 C 2302.62 -2.90296 1.93725 0
M  V30 24779 C 2303.96 -3.62322 2.21377 0
M  V30 24780 O 2304.99 -3.00371 1.91456 0
M  V30 24781 O 2303.85 -4.73865 2.7224 0
M  V30 24782 H 2300.94 -0.73413 0.380765 0
M  V30 24783 H 2303.49 -1.01117 1.36285 0
M  V30 24784 H 2302.26 -2.58996 2.93321 0
M  V30 24785 H 2301.88 -3.64732 1.58292 0
M  V30 24786 N 2302.88 -1.06677 -1.16008 0
M  V30 24787 C 2303.79 -0.692218 -2.24155 0
M  V30 24788 C 2304.81 0.293483 -1.71507 0
M  V30 24789 O 2305.98 0.141826 -2.009 0
M  V30 24790 C 2303.05 -0.0884741 -3.46587 0
M  V30 24791 C 2302.11 -1.12654 -4.14255 0
M  V30 24792 C 2301.34 -0.551509 -5.30843 0
M  V30 24793 O 2301.56 0.634556 -5.66859 0
M  V30 24794 O 2300.5 -1.29308 -5.87846 0
M  V30 24795 H 2304.32 -1.59392 -2.58511 0
M  V30 24796 H 2301.91 -0.839282 -1.23598 0
M  V30 24797 H 2303.79 0.246287 -4.2068 0
M  V30 24798 H 2302.47 0.786657 -3.13996 0
M  V30 24799 H 2301.37 -1.51354 -3.42115 0
M  V30 24800 H 2302.71 -1.97333 -4.50911 0
M  V30 24801 N 2304.36 1.32719 -0.8499 0
M  V30 24802 C 2305.58 2.02146 -0.463891 0
M  V30 24803 C 2306.01 1.63477 0.93042 0
M  V30 24804 O 2305.37 0.83298 1.61031 0
M  V30 24805 C 2305.41 3.55488 -0.605017 0
M  V30 24806 O 2304.52 4.10789 0.364177 0
M  V30 24807 H 2303.86 0.637107 -0.187057 0
M  V30 24808 H 2306.39 1.69373 -1.14778 0
M  V30 24809 H 2306.4 4.05038 -0.490767 0
M  V30 24810 H 2305.07 3.82976 -1.6218 0
M  V30 24811 H 2303.65 3.72327 0.206563 0
M  V30 24812 N 2305.84 0.60738 1.45426 0
M  V30 24813 C 2307.08 0.102288 2.01841 0
M  V30 24814 C 2307.41 -1.27162 1.47834 0
M  V30 24815 O 2306.68 -1.83994 0.672529 0
M  V30 24816 H 2305.26 0.0348232 0.746188 0
M  V30 24817 H 2307.92 0.788731 1.78228 0
M  V30 24818 H 2307.01 0.0519134 3.12057 0
M  V30 24819 N 2307.31 -1.53743 0.34653 0
M  V30 24820 C 2308.56 -2.0126 -0.249438 0
M  V30 24821 C 2308.89 -1.23389 -1.49963 0
M  V30 24822 O 2308.17 -0.322323 -1.91811 0
M  V30 24823 C 2308.45 -3.5571 -0.560581 0
M  V30 24824 C 2308.3 -4.4429 0.701914 0
M  V30 24825 C 2309.62 -4.18267 -1.36898 0
M  V30 24826 H 2306.74 -0.731584 -0.0891859 0
M  V30 24827 H 2309.38 -1.84155 0.467657 0
M  V30 24828 H 2307.53 -3.70416 -1.17149 0
M  V30 24829 H 2309.21 -4.41414 1.33982 0
M  V30 24830 H 2307.45 -4.13031 1.3262 0
M  V30 24831 H 2308.12 -5.50248 0.439427 0
M  V30 24832 H 2310.6 -4.07276 -0.852376 0
M  V30 24833 H 2309.47 -5.264 -1.55543 0
M  V30 24834 H 2309.73 -3.73082 -2.37196 0
M  V30 24835 N 2308.79 -0.0752207 -1.5742 0
M  V30 24836 C 2309.76 0.876166 -2.11792 0
M  V30 24837 C 2310.76 1.22411 -1.0427 0
M  V30 24838 O 2311.95 1.15681 -1.30244 0
M  V30 24839 C 2309.08 2.1785 -2.6221 0
M  V30 24840 H 2310.27 0.404388 -2.97161 0
M  V30 24841 H 2307.82 0.17353 -1.55334 0
M  V30 24842 H 2308.56 2.69556 -1.80305 0
M  V30 24843 H 2308.34 1.93891 -3.40806 0
M  V30 24844 H 2309.83 2.85949 -3.0434 0
M  V30 24845 N 2310.27 1.56347 0.198358 0
M  V30 24846 C 2311.18 1.97485 1.26637 0
M  V30 24847 C 2312.2 0.882028 1.49988 0
M  V30 24848 O 2313.37 1.18751 1.62666 0
M  V30 24849 C 2310.44 2.30324 2.59137 0
M  V30 24850 C 2309.5 3.53296 2.43886 0
M  V30 24851 C 2308.73 3.84559 3.70067 0
M  V30 24852 O 2308.95 3.17159 4.74096 0
M  V30 24853 O 2307.89 4.77996 3.65792 0
M  V30 24854 H 2311.71 2.88549 0.947253 0
M  V30 24855 H 2309.3 1.43859 0.403098 0
M  V30 24856 H 2311.18 2.52536 3.37348 0
M  V30 24857 H 2309.86 1.42428 2.90682 0
M  V30 24858 H 2308.76 3.36335 1.63797 0
M  V30 24859 H 2310.1 4.41648 2.17274 0
M  V30 24860 N 2311.75 -0.465951 1.50554 0
M  V30 24861 C 2313 -1.21445 1.6104 0
M  V30 24862 C 2313.31 -1.92986 0.318684 0
M  V30 24863 O 2314.52 -2.69809 0.302516 0
M  V30 24864 C 2312.97 -2.20701 2.84287 0
M  V30 24865 C 2312.58 -1.54939 4.20354 0
M  V30 24866 C 2314.32 -2.96161 3.0412 0
M  V30 24867 C 2312.23 -2.52511 5.34783 0
M  V30 24868 H 2311.16 -0.456995 0.599726 0
M  V30 24869 H 2313.81 -0.484393 1.76991 0
M  V30 24870 H 2312.19 -2.97021 2.61906 0
M  V30 24871 H 2313.37 -0.843732 4.5301 0
M  V30 24872 H 2311.68 -0.917404 4.06168 0
M  V30 24873 H 2314.28 -3.69195 3.8678 0
M  V30 24874 H 2314.62 -3.55848 2.16051 0
M  V30 24875 H 2315.16 -2.26953 3.26706 0
M  V30 24876 H 2311.9 -1.97555 6.25022 0
M  V30 24877 H 2311.42 -3.21214 5.06539 0
M  V30 24878 H 2313.09 -3.14235 5.65567 0
M  V30 24879 N 2313.23 -1.40218 -0.719481 0
M  V30 24880 C 2314.16 -1.42925 -1.84647 0
M  V30 24881 C 2315.14 -0.290649 -1.67598 0
M  V30 24882 O 2316.32 -0.49871 -1.87687 0
M  V30 24883 C 2313.45 -1.28728 -3.22562 0
M  V30 24884 C 2312.41 -2.4015 -3.54277 0
M  V30 24885 C 2311.73 -2.11032 -4.91294 0
M  V30 24886 C 2313.03 -3.82487 -3.5567 0
M  V30 24887 H 2314.73 -2.37241 -1.8264 0
M  V30 24888 H 2312.27 -1.14192 -0.877285 0
M  V30 24889 H 2314.23 -1.29239 -4.01093 0
M  V30 24890 H 2312.95 -0.308868 -3.25136 0
M  V30 24891 H 2311.61 -2.38882 -2.78084 0
M  V30 24892 H 2311.26 -1.11591 -4.90466 0
M  V30 24893 H 2310.96 -2.85679 -5.1348 0
M  V30 24894 H 2312.48 -2.13219 -5.72163 0
M  V30 24895 H 2313.89 -3.856 -4.24247 0
M  V30 24896 H 2312.29 -4.56621 -3.8938 0
M  V30 24897 H 2313.36 -4.12351 -2.55137 0
M  V30 24898 N 2314.7 0.951297 -1.25651 0
M  V30 24899 C 2315.65 2.0485 -1.06326 0
M  V30 24900 C 2316.62 1.66075 0.0286199 0
M  V30 24901 O 2317.81 1.90362 -0.129204 0
M  V30 24902 C 2314.95 3.38099 -0.691589 0
M  V30 24903 C 2314.06 3.89971 -1.85868 0
M  V30 24904 C 2313.19 5.11561 -1.43105 0
M  V30 24905 C 2312.23 5.55669 -2.56706 0
M  V30 24906 N 2311.37 6.68469 -2.14696 0
M  V30 24907 H 2316.21 2.20712 -2.00226 0
M  V30 24908 H 2313.75 1.08155 -0.997046 0
M  V30 24909 H 2315.71 4.14689 -0.457036 0
M  V30 24910 H 2314.34 3.22113 0.210418 0
M  V30 24911 H 2313.39 3.09871 -2.20644 0
M  V30 24912 H 2314.7 4.18652 -2.71168 0
M  V30 24913 H 2313.85 5.95578 -1.15634 0
M  V30 24914 H 2312.59 4.84602 -0.548808 0
M  V30 24915 H 2311.6 4.70215 -2.84917 0
M  V30 24916 H 2312.82 5.84634 -3.45513 0
M  V30 24917 H 2310.77 6.43213 -1.28892 0
M  V30 24918 H 2310.69 6.96684 -2.93543 0
M  V30 24919 H 2311.95 7.55886 -1.9041 0
M  V30 24920 N 2316.18 1.07291 1.1544 0
M  V30 24921 C 2317.43 0.7957 1.86212 0
M  V30 24922 C 2317.76 -0.678206 1.82293 0
M  V30 24923 O 2317.01 -1.51353 1.2406 0
M  V30 24924 C 2317.31 1.2484 3.34888 0
M  V30 24925 C 2316.98 2.72816 3.59002 0
M  V30 24926 C 2315.64 3.13233 3.65292 0
M  V30 24927 C 2317.99 3.68333 3.68755 0
M  V30 24928 C 2315.32 4.47987 3.78846 0
M  V30 24929 C 2317.67 5.02847 3.83833 0
M  V30 24930 C 2316.34 5.42887 3.88369 0
M  V30 24931 H 2315.61 0.291167 0.681397 0
M  V30 24932 H 2318.25 1.34382 1.36433 0
M  V30 24933 H 2316.56 0.619663 3.86869 0
M  V30 24934 H 2318.25 1.01082 3.88051 0
M  V30 24935 H 2314.84 2.40527 3.54746 0
M  V30 24936 H 2319.03 3.38234 3.63196 0
M  V30 24937 H 2314.28 4.78479 3.80615 0
M  V30 24938 H 2318.46 5.76734 3.90322 0
M  V30 24939 H 2316.09 6.47305 3.98624 0
M  V30 24940 N 2317.66 -1.32267 0.856927 0
M  V30 24941 C 2318.59 -2.26849 0.247976 0
M  V30 24942 C 2319.57 -1.50506 -0.615356 0
M  V30 24943 O 2320.76 -1.79623 -0.571657 0
M  V30 24944 C 2317.88 -3.32404 -0.650035 0
M  V30 24945 C 2316.93 -4.26269 0.140213 0
M  V30 24946 S 2317.76 -5.13766 1.51013 0
M  V30 24947 C 2318.92 -6.22843 0.61789 0
M  V30 24948 H 2319.15 -2.7815 1.04976 0
M  V30 24949 H 2316.68 -1.39833 0.654689 0
M  V30 24950 H 2318.64 -3.93696 -1.1625 0
M  V30 24951 H 2317.3 -2.79882 -1.42565 0
M  V30 24952 H 2316.5 -5.01057 -0.543857 0
M  V30 24953 H 2316.1 -3.69407 0.584332 0
M  V30 24954 H 2318.39 -6.77269 -0.176934 0
M  V30 24955 H 2319.33 -6.95373 1.33648 0
M  V30 24956 H 2319.74 -5.64176 0.191223 0
M  V30 24957 N 2319.14 -0.615084 -1.45102 0
M  V30 24958 C 2320.09 0.11175 -2.32331 0
M  V30 24959 C 2321.08 0.852076 -1.4641 0
M  V30 24960 O 2322.29 0.766793 -1.62851 0
M  V30 24961 H 2318.66 0.0548941 -0.749994 0
M  V30 24962 H 2320.63 -0.642276 -2.91406 0
M  V30 24963 C 2319.38 1.09065 -3.30152 0
M  V30 24964 H 2318.7 0.530415 -3.96266 0
M  V30 24965 H 2320.14 1.56901 -3.93901 0
M  V30 24966 C 2318.6 2.16795 -2.57879 0
M  V30 24967 O 2319.13 3.24648 -2.36573 0
M  V30 24968 N 2317.34 1.92285 -2.17887 0
M  V30 24969 H 2316.89 1.04583 -2.35415 0
M  V30 24970 H 2316.84 2.64569 -1.69855 0
M  V30 24971 N 2320.62 1.53557 -0.354678 0
M  V30 24972 C 2322.03 1.596 -0.00318231 0
M  V30 24973 C 2322.23 1.37024 1.47738 0
M  V30 24974 O 2321.29 1.17 2.23757 0
M  V30 24975 C 2322.6 2.97324 -0.449342 0
M  V30 24976 C 2324.15 3.104 -0.402632 0
M  V30 24977 C 2324.63 4.50519 -0.824434 0
M  V30 24978 N 2326.12 4.56601 -0.779059 0
M  V30 24979 C 2326.85 5.6319 -1.07725 0
M  V30 24980 N 2326.35 6.77581 -1.44417 0
M  V30 24981 N 2328.14 5.5312 -1.00076 0
M  V30 24982 H 2320.29 1.66485 -1.31896 0
M  V30 24983 H 2322.55 0.780274 -0.538402 0
M  V30 24984 H 2322.26 3.18947 -1.48208 0
M  V30 24985 H 2322.13 3.76818 0.169706 0
M  V30 24986 H 2324.52 2.88493 0.620954 0
M  V30 24987 H 2324.6 2.32939 -1.05703 0
M  V30 24988 H 2324.25 4.73162 -1.84608 0
M  V30 24989 H 2324.18 5.26394 -0.147397 0
M  V30 24990 H 2326.67 3.74462 -0.508594 0
M  V30 24991 H 2326.98 7.54843 -1.65625 0
M  V30 24992 H 2325.33 6.78999 -1.48272 0
M  V30 24993 H 2328.52 4.62632 -0.713374 0
M  V30 24994 H 2328.69 6.36093 -1.23649 0
M  V30 24995 N 2322.1 0.083568 1.57378 0
M  V30 24996 C 2323.04 -0.879502 2.13386 0
M  V30 24997 C 2324.01 -1.28752 1.04939 0
M  V30 24998 O 2325.2 -1.3713 1.32665 0
M  V30 24999 C 2322.34 -2.13747 2.70936 0
M  V30 25000 C 2321.45 -1.78103 3.93578 0
M  V30 25001 C 2320.59 -2.98599 4.39331 0
M  V30 25002 C 2319.62 -2.59027 5.54591 0
M  V30 25003 N 2318.76 -3.72321 5.95249 0
M  V30 25004 H 2323.6 -0.395024 2.9537 0
M  V30 25005 H 2321.14 -0.183323 1.45953 0
M  V30 25006 H 2323.1 -2.87403 3.02416 0
M  V30 25007 H 2321.73 -2.59715 1.91698 0
M  V30 25008 H 2320.78 -0.944625 3.68485 0
M  V30 25009 H 2322.09 -1.44997 4.7726 0
M  V30 25010 H 2321.24 -3.80521 4.72535 0
M  V30 25011 H 2319.98 -3.34907 3.54526 0
M  V30 25012 H 2318.99 -1.7553 5.21027 0
M  V30 25013 H 2320.21 -2.23876 6.41137 0
M  V30 25014 H 2318.16 -4.08369 5.13392 0
M  V30 25015 H 2318.08 -3.43022 6.737 0
M  V30 25016 H 2319.34 -4.54786 6.3308 0
M  V30 25017 N 2323.57 -1.5645 -0.190064 0
M  V30 25018 C 2324.82 -1.8056 -0.907876 0
M  V30 25019 C 2325.14 -0.65747 -1.83582 0
M  V30 25020 O 2324.41 0.32389 -1.93204 0
M  V30 25021 H 2322.99 -0.666038 -0.338235 0
M  V30 25022 H 2325.65 -1.93928 -0.194369 0
M  V30 25023 H 2324.75 -2.73909 -1.496 0
M  V30 25024 N 2325.05 0.45796 -1.50799 0
M  V30 25025 C 2326 1.57497 -1.71165 0
M  V30 25026 C 2326.99 1.59248 -0.57762 0
M  V30 25027 O 2328.2 1.6324 -0.758472 0
M  V30 25028 H 2324.57 0.522866 -0.540477 0
M  V30 25029 H 2326.55 1.37487 -2.64839 0
M  V30 25030 C 2325.29 2.95334 -1.83502 0
M  V30 25031 H 2324.62 2.94711 -2.70158 0
M  V30 25032 H 2326.06 3.72913 -2.01771 0
M  V30 25033 C 2324.52 3.31698 -0.589752 0
M  V30 25034 O 2325.05 4.00824 0.265093 0
M  V30 25035 N 2323.25 2.87251 -0.439896 0
M  V30 25036 H 2322.8 2.3117 -1.13659 0
M  V30 25037 H 2322.76 3.11945 0.392105 0
M  V30 25038 N 2326.53 1.40598 0.712035 0
M  V30 25039 C 2327.76 1.4239 1.50109 0
M  V30 25040 C 2328.17 0.0245727 1.88784 0
M  V30 25041 O 2327.53 -0.952324 1.55683 0
M  V30 25042 C 2327.58 2.31781 2.77416 0
M  V30 25043 O 2327.3 3.66267 2.40375 0
M  V30 25044 C 2328.8 2.42203 3.71285 0
M  V30 25045 H 2326.02 0.485541 0.463132 0
M  V30 25046 H 2328.57 1.84691 0.878035 0
M  V30 25047 H 2326.72 1.92833 3.35997 0
M  V30 25048 H 2327.14 4.13778 3.22317 0
M  V30 25049 H 2328.61 3.08951 4.57442 0
M  V30 25050 H 2329.09 1.44817 4.14638 0
M  V30 25051 H 2329.69 2.81718 3.18614 0
M  V30 25052 N 2328.01 -0.94462 1.26153 0
M  V30 25053 C 2328.96 -2.06415 1.07218 0
M  V30 25054 C 2329.95 -1.694 0.000121783 0
M  V30 25055 O 2331.16 -1.79318 0.156531 0
M  V30 25056 H 2327.53 -0.675799 0.329849 0
M  V30 25057 H 2329.5 -2.19538 2.02103 0
M  V30 25058 C 2328.25 -3.402 0.718257 0
M  V30 25059 H 2327.57 -3.69157 1.53504 0
M  V30 25060 H 2329.01 -4.1936 0.625533 0
M  V30 25061 C 2327.47 -3.31933 -0.576376 0
M  V30 25062 O 2328 -3.67776 -1.61567 0
M  V30 25063 N 2326.21 -2.8504 -0.565731 0
M  V30 25064 H 2325.76 -2.56069 0.280412 0
M  V30 25065 H 2325.71 -2.79891 -1.43208 0
M  V30 25066 N 2329.49 -1.07901 -1.1487 0
M  V30 25067 C 2330.71 -0.826863 -1.89659 0
M  V30 25068 C 2331.13 0.620488 -1.78313 0
M  V30 25069 O 2330.49 1.42602 -1.1389 0
M  V30 25070 C 2330.54 -1.23322 -3.39815 0
M  V30 25071 O 2330.26 -2.62379 -3.50841 0
M  V30 25072 C 2331.76 -1.01118 -4.31613 0
M  V30 25073 H 2328.98 -0.298567 -0.600915 0
M  V30 25074 H 2331.52 -1.43694 -1.45507 0
M  V30 25075 H 2329.68 -0.667353 -3.81609 0
M  V30 25076 H 2330.09 -2.79108 -4.44071 0
M  V30 25077 H 2331.57 -1.34495 -5.35364 0
M  V30 25078 H 2332.04 0.0521396 -4.39169 0
M  V30 25079 H 2332.65 -1.56222 -3.95569 0
M  V30 25080 N 2330.96 1.31811 -0.863929 0
M  V30 25081 C 2332.19 2.01642 -0.485305 0
M  V30 25082 C 2332.61 1.64455 0.913029 0
M  V30 25083 O 2331.97 0.850013 1.60139 0
M  V30 25084 C 2332.02 3.54827 -0.642687 0
M  V30 25085 O 2331.12 4.11152 0.320587 0
M  V30 25086 H 2330.46 0.635087 -0.193804 0
M  V30 25087 H 2332.99 1.68146 -1.16568 0
M  V30 25088 H 2333 4.04494 -0.533699 0
M  V30 25089 H 2331.68 3.81234 -1.66233 0
M  V30 25090 H 2330.26 3.72526 0.167061 0
M  V30 25091 N 2332.44 0.62277 1.44773 0
M  V30 25092 C 2333.72 0.0552318 1.95522 0
M  V30 25093 C 2334.1 -1.4168 1.56493 0
M  V30 25094 O 2333.45 -2.12701 0.834885 0
M  V30 25095 C 2333.66 0.269303 3.47959 0
M  V30 25096 C 2335 0.158088 4.24306 0
M  V30 25097 O 2336.03 0.200224 3.55637 0
M  V30 25098 O 2334.89 0.0559654 5.46471 0
M  V30 25099 H 2331.98 -0.027087 0.826556 0
M  V30 25100 H 2334.53 0.693892 1.54865 0
M  V30 25101 H 2333.3 1.29106 3.69388 0
M  V30 25102 H 2332.92 -0.403896 3.95543 0
M  V30 25103 N 2333.92 -1.53367 0.362817 0
M  V30 25104 C 2335.14 -2.06107 -0.23119 0
M  V30 25105 C 2335.57 -1.23477 -1.41898 0
M  V30 25106 O 2334.93 -0.25316 -1.79524 0
M  V30 25107 C 2334.98 -3.55481 -0.605461 0
M  V30 25108 O 2334.08 -3.75593 -1.70305 0
M  V30 25109 H 2333.42 -0.663113 -0.0343154 0
M  V30 25110 H 2335.95 -1.97813 0.522619 0
M  V30 25111 H 2335.96 -3.98458 -0.877244 0
M  V30 25112 H 2334.64 -4.15067 0.263077 0
M  V30 25113 H 2333.21 -3.44514 -1.42704 0
M  V30 25114 N 2335.4 -0.091913 -1.57332 0
M  V30 25115 C 2336.33 0.865333 -2.16874 0
M  V30 25116 C 2337.31 1.29644 -1.1012 0
M  V30 25117 O 2338.49 1.3639 -1.38244 0
M  V30 25118 C 2335.62 2.12564 -2.74652 0
M  V30 25119 C 2334.58 1.83326 -3.8675 0
M  V30 25120 C 2333.9 3.16158 -4.31217 0
M  V30 25121 C 2335.2 1.12271 -5.10091 0
M  V30 25122 H 2336.9 0.369255 -2.97114 0
M  V30 25123 H 2334.44 0.176168 -1.42918 0
M  V30 25124 H 2336.4 2.79964 -3.14957 0
M  V30 25125 H 2335.12 2.64449 -1.91662 0
M  V30 25126 H 2333.78 1.18325 -3.4698 0
M  V30 25127 H 2333.43 3.65924 -3.45121 0
M  V30 25128 H 2333.13 2.97379 -5.06793 0
M  V30 25129 H 2334.65 3.84722 -4.74153 0
M  V30 25130 H 2336.07 1.69776 -5.47585 0
M  V30 25131 H 2334.46 1.03682 -5.91075 0
M  V30 25132 H 2335.53 0.104956 -4.84786 0
M  V30 25133 N 2336.88 1.56548 0.181765 0
M  V30 25134 C 2337.81 1.90682 1.25362 0
M  V30 25135 C 2338.79 0.768401 1.43298 0
M  V30 25136 O 2339.97 1.02071 1.58474 0
M  V30 25137 C 2337.1 2.14864 2.61822 0
M  V30 25138 C 2336.14 3.37561 2.60682 0
M  V30 25139 S 2336.98 4.92266 2.10795 0
M  V30 25140 C 2338.13 5.19531 3.49053 0
M  V30 25141 H 2338.37 2.81298 0.962227 0
M  V30 25142 H 2335.9 1.49501 0.385865 0
M  V30 25143 H 2337.86 2.29479 3.40367 0
M  V30 25144 H 2336.52 1.24974 2.88167 0
M  V30 25145 H 2335.71 3.5165 3.61052 0
M  V30 25146 H 2335.31 3.22009 1.90227 0
M  V30 25147 H 2337.61 5.10869 4.44994 0
M  V30 25148 H 2338.55 6.21216 3.39848 0
M  V30 25149 H 2338.96 4.47128 3.44582 0
M  V30 25150 N 2338.35 -0.449957 1.5104 0
M  V30 25151 C 2339.58 -1.2278 1.67152 0
M  V30 25152 C 2340 -1.84562 0.363114 0
M  V30 25153 O 2339.36 -1.6825 -0.675403 0
M  V30 25154 C 2339.41 -2.29684 2.77989 0
M  V30 25155 O 2338.51 -3.3486 2.40713 0
M  V30 25156 H 2337.86 -0.360289 0.557753 0
M  V30 25157 H 2340.39 -0.532971 1.97536 0
M  V30 25158 H 2340.4 -2.74667 3.01698 0
M  V30 25159 H 2339.07 -1.84091 3.72939 0
M  V30 25160 H 2337.65 -2.95441 2.27529 0
M  V30 25161 N 2339.83 -1.40974 -0.704569 0
M  V30 25162 C 2341.08 -1.39847 -1.46455 0
M  V30 25163 C 2341.41 -0.00451012 -1.94499 0
M  V30 25164 O 2340.66 0.982027 -1.69277 0
M  V30 25165 C 2340.96 -2.34404 -2.69796 0
M  V30 25166 C 2340.63 -3.81433 -2.40458 0
M  V30 25167 C 2339.29 -4.21488 -2.32167 0
M  V30 25168 C 2341.64 -4.743 -2.16077 0
M  V30 25169 C 2338.97 -5.5243 -1.97579 0
M  V30 25170 C 2341.32 -6.05552 -1.83 0
M  V30 25171 C 2339.99 -6.44638 -1.73199 0
M  V30 25172 H 2339.26 -0.511735 -0.535918 0
M  V30 25173 H 2341.9 -1.73708 -0.806093 0
M  V30 25174 H 2340.21 -1.93765 -3.40532 0
M  V30 25175 H 2341.9 -2.30809 -3.27915 0
M  V30 25176 H 2338.49 -3.49703 -2.47801 0
M  V30 25177 H 2342.68 -4.44164 -2.21433 0
M  V30 25178 H 2337.93 -5.81605 -1.88537 0
M  V30 25179 H 2342.11 -6.77019 -1.63152 0
M  V30 25180 H 2339.74 -7.46016 -1.46166 0
M  V30 25181 N 2341.31 0.937917 -1.26653 0
M  V30 25182 C 2342.24 2.05431 -1.10997 0
M  V30 25183 C 2343.22 1.70094 -0.014246 0
M  V30 25184 O 2344.41 1.93299 -0.186871 0
M  V30 25185 C 2341.54 3.39202 -0.745621 0
M  V30 25186 C 2340.49 3.88612 -1.79344 0
M  V30 25187 C 2339.82 5.19071 -1.28333 0
M  V30 25188 C 2341.12 4.13133 -3.1956 0
M  V30 25189 H 2342.81 2.18787 -2.04384 0
M  V30 25190 H 2340.36 1.0513 -0.98406 0
M  V30 25191 H 2342.31 4.1677 -0.622961 0
M  V30 25192 H 2341.03 3.25831 0.223953 0
M  V30 25193 H 2339.69 3.13228 -1.90483 0
M  V30 25194 H 2339.34 5.02084 -0.303503 0
M  V30 25195 H 2339.04 5.531 -1.98379 0
M  V30 25196 H 2340.56 5.99219 -1.1734 0
M  V30 25197 H 2341.98 4.81304 -3.1148 0
M  V30 25198 H 2340.38 4.5845 -3.87226 0
M  V30 25199 H 2341.45 3.18794 -3.65374 0
M  V30 25200 N 2342.79 1.08509 1.14296 0
M  V30 25201 C 2343.7 0.727792 2.23025 0
M  V30 25202 C 2344.71 -0.26616 1.71952 0
M  V30 25203 O 2345.89 -0.109846 2.011 0
M  V30 25204 C 2342.96 0.143602 3.46402 0
M  V30 25205 C 2342.02 1.1923 4.12411 0
M  V30 25206 C 2341.25 0.635892 5.29898 0
M  V30 25207 O 2341.47 -0.544293 5.67797 0
M  V30 25208 O 2340.41 1.38644 5.85714 0
M  V30 25209 H 2344.23 1.63485 2.55942 0
M  V30 25210 H 2341.82 0.858839 1.22247 0
M  V30 25211 H 2343.7 -0.17933 4.21018 0
M  V30 25212 H 2342.37 -0.736603 3.15208 0
M  V30 25213 H 2341.28 1.56778 3.39664 0
M  V30 25214 H 2342.61 2.04482 4.47714 0
M  V30 25215 N 2344.27 -1.31351 0.870907 0
M  V30 25216 C 2345.49 -2.01382 0.495992 0
M  V30 25217 C 2345.92 -1.64937 -0.904295 0
M  V30 25218 O 2345.27 -0.858494 -1.59686 0
M  V30 25219 C 2345.32 -3.54481 0.661496 0
M  V30 25220 O 2344.43 -4.11316 -0.298778 0
M  V30 25221 H 2343.77 -0.634051 0.197169 0
M  V30 25222 H 2346.3 -1.67525 1.17458 0
M  V30 25223 H 2346.31 -4.04206 0.555143 0
M  V30 25224 H 2344.98 -3.80347 1.68253 0
M  V30 25225 H 2343.56 -3.72609 -0.147303 0
M  V30 25226 N 2345.74 -0.630439 -1.44441 0
M  V30 25227 C 2346.68 0.124207 -2.27862 0
M  V30 25228 C 2347.66 0.851907 -1.38497 0
M  V30 25229 O 2348.84 0.856136 -1.67936 0
M  V30 25230 C 2345.97 1.18191 -3.17409 0
M  V30 25231 C 2345.01 0.554817 -4.22876 0
M  V30 25232 S 2345.85 -0.654583 -5.31484 0
M  V30 25233 C 2347 0.40315 -6.246 0
M  V30 25234 H 2347.23 -0.583486 -2.91518 0
M  V30 25235 H 2344.77 -0.418591 -1.48618 0
M  V30 25236 H 2346.73 1.78722 -3.69552 0
M  V30 25237 H 2345.39 1.86179 -2.52974 0
M  V30 25238 H 2344.58 1.3514 -4.85544 0
M  V30 25239 H 2344.18 0.0241448 -3.73992 0
M  V30 25240 H 2346.47 1.2759 -6.65377 0
M  V30 25241 H 2347.42 -0.187937 -7.07851 0
M  V30 25242 H 2347.82 0.728739 -5.59776 0
M  V30 25243 N 2347.22 1.53172 -0.370945 0
M  V30 25244 C 2348.17 2.27422 0.488061 0
M  V30 25245 C 2349.16 1.30606 1.07882 0
M  V30 25246 O 2350.37 1.48214 1.0214 0
M  V30 25247 H 2346.75 0.731085 0.176121 0
M  V30 25248 H 2348.72 2.97971 -0.159867 0
M  V30 25249 C 2347.47 3.08022 1.613 0
M  V30 25250 H 2346.79 3.82366 1.16773 0
M  V30 25251 H 2348.23 3.63144 2.18866 0
M  V30 25252 C 2346.69 2.19193 2.55844 0
M  V30 25253 O 2347.22 1.80633 3.58796 0
M  V30 25254 N 2345.42 1.83719 2.25157 0
M  V30 25255 H 2344.97 2.15275 1.41472 0
M  V30 25256 H 2344.93 1.24572 2.88668 0
M  V30 25257 N 2348.7 0.100255 1.57281 0
M  V30 25258 C 2349.95 -0.56195 1.93714 0
M  V30 25259 C 2350.26 -1.69016 0.984522 0
M  V30 25260 O 2351.47 -2.41387 1.24277 0
M  V30 25261 C 2349.92 -1.051 3.44212 0
M  V30 25262 C 2349.53 0.0477415 4.47975 0
M  V30 25263 C 2351.28 -1.68564 3.89598 0
M  V30 25264 C 2349.18 -0.456952 5.89632 0
M  V30 25265 H 2348.11 -0.213688 0.723086 0
M  V30 25266 H 2350.76 0.177089 1.82643 0
M  V30 25267 H 2349.15 -1.84388 3.50452 0
M  V30 25268 H 2350.32 0.823412 4.53383 0
M  V30 25269 H 2348.64 0.587888 4.12229 0
M  V30 25270 H 2351.23 -2.07406 4.92836 0
M  V30 25271 H 2351.58 -2.55682 3.28531 0
M  V30 25272 H 2352.11 -0.958494 3.8608 0
M  V30 25273 H 2348.85 0.377731 6.54411 0
M  V30 25274 H 2348.37 -1.19951 5.87683 0
M  V30 25275 H 2350.05 -0.924258 6.40364 0
M  V30 25276 N 2350.18 -1.56643 -0.17346 0
M  V30 25277 C 2351.13 -1.96244 -1.21479 0
M  V30 25278 C 2352.1 -0.826052 -1.44103 0
M  V30 25279 O 2353.28 -1.086 -1.56878 0
M  V30 25280 C 2350.42 -2.32572 -2.5496 0
M  V30 25281 C 2349.53 -3.59378 -2.39733 0
M  V30 25282 C 2348.67 -3.84928 -3.66066 0
M  V30 25283 C 2347.71 -5.05089 -3.45763 0
M  V30 25284 N 2346.85 -5.26783 -4.6416 0
M  V30 25285 H 2351.69 -2.85015 -0.870073 0
M  V30 25286 H 2349.22 -1.4103 -0.41822 0
M  V30 25287 H 2351.18 -2.51656 -3.32754 0
M  V30 25288 H 2349.81 -1.46913 -2.8743 0
M  V30 25289 H 2348.86 -3.4822 -1.53125 0
M  V30 25290 H 2350.17 -4.4733 -2.20675 0
M  V30 25291 H 2349.33 -4.04368 -4.52296 0
M  V30 25292 H 2348.07 -2.95347 -3.881 0
M  V30 25293 H 2347.07 -4.85549 -2.57919 0
M  V30 25294 H 2348.3 -5.96198 -3.25153 0
M  V30 25295 H 2346.24 -4.40153 -4.86417 0
M  V30 25296 H 2346.16 -6.08954 -4.48008 0
M  V30 25297 H 2347.43 -5.507 -5.51679 0
M  V30 25298 N 2351.66 0.44194 -1.51277 0
M  V30 25299 C 2352.88 1.21892 -1.67801 0
M  V30 25300 C 2353.31 1.84367 -0.372896 0
M  V30 25301 O 2352.67 1.68606 0.666471 0
M  V30 25302 C 2352.71 2.28206 -2.79203 0
M  V30 25303 O 2351.82 3.33579 -2.42485 0
M  V30 25304 H 2351.16 0.357326 -0.559655 0
M  V30 25305 H 2353.69 0.522487 -1.97816 0
M  V30 25306 H 2353.7 2.73064 -3.03151 0
M  V30 25307 H 2352.37 1.82111 -3.7391 0
M  V30 25308 H 2350.95 2.9423 -2.29092 0
M  V30 25309 N 2353.14 1.41345 0.697083 0
M  V30 25310 C 2354.38 1.39921 1.45276 0
M  V30 25311 C 2354.7 0.0109968 1.95597 0
M  V30 25312 O 2355.9 -0.125871 2.71208 0
M  V30 25313 C 2354.36 2.46011 2.62691 0
M  V30 25314 C 2353.97 3.90732 2.19162 0
M  V30 25315 C 2355.71 2.53721 3.40332 0
M  V30 25316 C 2353.62 4.88379 3.33526 0
M  V30 25317 H 2352.55 0.520333 0.545683 0
M  V30 25318 H 2355.2 1.67162 0.7569 0
M  V30 25319 H 2353.58 2.11898 3.34537 0
M  V30 25320 H 2354.76 4.34086 1.54615 0
M  V30 25321 H 2353.07 3.86669 1.54519 0
M  V30 25322 H 2355.67 3.23858 4.25465 0
M  V30 25323 H 2356.01 1.57356 3.85415 0
M  V30 25324 H 2356.54 2.86918 2.75541 0
M  V30 25325 H 2353.28 5.86143 2.93457 0
M  V30 25326 H 2352.8 4.49675 3.96928 0
M  V30 25327 H 2354.48 5.09066 3.99326 0
M  V30 25328 N 2354.61 -0.931187 1.27148 0
M  V30 25329 C 2355.86 -1.6785 1.13281 0
M  V30 25330 C 2356.19 -1.91816 -0.322006 0
M  V30 25331 O 2355.44 -1.50393 -1.25221 0
M  V30 25332 C 2355.74 -3.05311 1.85795 0
M  V30 25333 C 2355.41 -3.01067 3.35663 0
M  V30 25334 C 2354.07 -2.99617 3.76541 0
M  V30 25335 C 2356.42 -2.9262 4.31304 0
M  V30 25336 C 2353.75 -2.87497 5.11431 0
M  V30 25337 C 2356.1 -2.82041 5.66247 0
M  V30 25338 C 2354.77 -2.78939 6.06423 0
M  V30 25339 H 2354.04 -0.614206 0.414526 0
M  V30 25340 H 2356.68 -1.08621 1.57714 0
M  V30 25341 H 2354.99 -3.68223 1.33861 0
M  V30 25342 H 2356.69 -3.62002 1.72497 0
M  V30 25343 H 2353.28 -3.02981 3.03151 0
M  V30 25344 H 2357.46 -2.92841 4.00697 0
M  V30 25345 H 2352.72 -2.8348 5.4171 0
M  V30 25346 H 2356.89 -2.7447 6.40031 0
M  V30 25347 H 2354.52 -2.69305 7.109 0
M  V30 25348 N 2356.09 -1.09114 -1.13719 0
M  V30 25349 C 2357.34 -0.826447 -1.85196 0
M  V30 25350 C 2357.67 0.646287 -1.8313 0
M  V30 25351 O 2356.95 1.47561 -1.26712 0
M  V30 25352 C 2357.23 -1.35818 -3.33505 0
M  V30 25353 C 2357.08 -2.89678 -3.44103 0
M  V30 25354 C 2358.4 -0.989332 -4.28836 0
M  V30 25355 H 2355.52 -0.301686 -0.672424 0
M  V30 25356 H 2358.16 -1.35199 -1.33496 0
M  V30 25357 H 2356.31 -0.911148 -3.77664 0
M  V30 25358 H 2357.98 -3.42806 -3.08678 0
M  V30 25359 H 2356.23 -3.26972 -2.85082 0
M  V30 25360 H 2356.9 -3.21959 -4.48382 0
M  V30 25361 H 2359.37 -1.37482 -3.92731 0
M  V30 25362 H 2358.25 -1.38848 -5.31049 0
M  V30 25363 H 2358.51 0.102846 -4.4198 0
M  V30 25364 N 2357.57 1.30887 -0.877861 0
M  V30 25365 C 2358.52 2.30266 -0.328702 0
M  V30 25366 C 2359.51 1.5986 0.560468 0
M  V30 25367 O 2360.72 1.74395 0.445691 0
M  V30 25368 H 2357.09 0.746877 -0.0876274 0
M  V30 25369 H 2359.06 2.74049 -1.18066 0
M  V30 25370 C 2357.81 3.44802 0.44801 0
M  V30 25371 H 2357.14 3.99155 -0.226929 0
M  V30 25372 H 2358.58 4.16433 0.797468 0
M  V30 25373 C 2357.03 2.94158 1.64234 0
M  V30 25374 O 2357.56 2.93588 2.74169 0
M  V30 25375 N 2355.77 2.50259 1.47712 0
M  V30 25376 H 2355.32 2.50921 0.582777 0
M  V30 25377 H 2355.28 2.16731 2.27761 0
M  V30 25378 N 2359.05 0.638091 1.44105 0
M  V30 25379 C 2360.29 0.145366 2.01978 0
M  V30 25380 C 2360.62 -1.23529 1.50236 0
M  V30 25381 O 2359.88 -1.83522 0.679581 0
M  V30 25382 C 2360.18 0.0887955 3.5729 0
M  V30 25383 C 2359.84 1.40916 4.28315 0
M  V30 25384 C 2358.5 1.77077 4.47434 0
M  V30 25385 C 2360.86 2.28039 4.68666 0
M  V30 25386 C 2358.18 3.00056 5.04166 0
M  V30 25387 C 2360.54 3.50295 5.2676 0
M  V30 25388 C 2359.2 3.86671 5.44097 0
M  V30 25389 H 2358.47 0.0531931 0.739088 0
M  V30 25390 H 2361.12 0.825791 1.7278 0
M  V30 25391 H 2359.42 -0.675027 3.85941 0
M  V30 25392 H 2361.12 -0.309075 3.99807 0
M  V30 25393 H 2357.71 1.11777 4.13768 0
M  V30 25394 H 2361.89 2.01396 4.53601 0
M  V30 25395 H 2357.15 3.28307 5.15776 0
M  V30 25396 H 2361.32 4.18033 5.56975 0
M  V30 25397 H 2358.95 4.82045 5.87824 0
M  V30 25398 N 2360.53 -1.52973 0.379063 0
M  V30 25399 C 2361.46 -2.2907 -0.452665 0
M  V30 25400 C 2362.44 -1.32041 -1.07235 0
M  V30 25401 O 2363.62 -1.60925 -1.08705 0
M  V30 25402 C 2360.75 -3.08995 -1.58554 0
M  V30 25403 C 2359.71 -4.13824 -1.09243 0
M  V30 25404 C 2359.03 -4.81911 -2.31659 0
M  V30 25405 C 2360.33 -5.22031 -0.16761 0
M  V30 25406 H 2362.03 -2.98845 0.182233 0
M  V30 25407 H 2359.57 -1.43724 0.0890845 0
M  V30 25408 H 2361.52 -3.60983 -2.17414 0
M  V30 25409 H 2360.25 -2.36935 -2.24788 0
M  V30 25410 H 2358.91 -3.62801 -0.526431 0
M  V30 25411 H 2358.56 -4.06409 -2.96379 0
M  V30 25412 H 2358.26 -5.52758 -1.9933 0
M  V30 25413 H 2359.78 -5.367 -2.9118 0
M  V30 25414 H 2361.19 -5.69441 -0.664086 0
M  V30 25415 H 2359.59 -6.00064 0.065432 0
M  V30 25416 H 2360.66 -4.7848 0.786431 0
M  V30 25417 N 2362 -0.108595 -1.57225 0
M  V30 25418 C 2362.94 0.875714 -2.11811 0
M  V30 25419 C 2363.95 1.23699 -1.05841 0
M  V30 25420 O 2365.14 1.18775 -1.33247 0
M  V30 25421 C 2362.24 2.18076 -2.59415 0
M  V30 25422 C 2361.41 1.99277 -3.89368 0
M  V30 25423 C 2360.47 3.13416 -4.22678 0
M  V30 25424 O 2359.5 2.86786 -4.91673 0
M  V30 25425 N 2360.7 4.39564 -3.79162 0
M  V30 25426 H 2363.46 0.409424 -2.9689 0
M  V30 25427 H 2361.02 0.0761296 -1.61721 0
M  V30 25428 H 2363.02 2.93409 -2.78735 0
M  V30 25429 H 2361.59 2.56086 -1.79272 0
M  V30 25430 H 2360.81 1.08197 -3.79061 0
M  V30 25431 H 2362.09 1.84009 -4.74361 0
M  V30 25432 H 2361.49 4.64078 -3.23494 0
M  V30 25433 H 2360.05 5.11802 -4.03611 0
M  V30 25434 N 2363.48 1.56732 0.16515 0
M  V30 25435 C 2364.71 1.86844 0.90022 0
M  V30 25436 C 2365.13 0.695627 1.74765 0
M  V30 25437 O 2364.49 -0.355188 1.77787 0
M  V30 25438 C 2364.54 3.15416 1.74771 0
M  V30 25439 O 2363.64 2.98073 2.85002 0
M  V30 25440 H 2362.98 0.614396 0.251821 0
M  V30 25441 H 2365.51 2.03962 0.161433 0
M  V30 25442 H 2365.52 3.46978 2.1464 0
M  V30 25443 H 2364.2 4.00387 1.12529 0
M  V30 25444 H 2362.77 2.7788 2.48671 0
M  V30 25445 N 2364.96 -0.433911 1.51509 0
M  V30 25446 C 2365.91 -1.54754 1.73649 0
M  V30 25447 C 2366.9 -1.58309 0.602882 0
M  V30 25448 O 2368.11 -1.62012 0.784346 0
M  V30 25449 H 2364.48 -0.514201 0.548727 0
M  V30 25450 H 2366.45 -1.33256 2.66993 0
M  V30 25451 C 2365.2 -2.92378 1.88177 0
M  V30 25452 H 2364.53 -2.90376 2.74813 0
M  V30 25453 H 2365.97 -3.69656 2.07678 0
M  V30 25454 C 2364.43 -3.30718 0.642448 0
M  V30 25455 O 2364.95 -4.01195 -0.201292 0
M  V30 25456 N 2363.16 -2.86515 0.485539 0
M  V30 25457 H 2362.71 -2.29332 1.17322 0
M  V30 25458 H 2362.67 -3.1253 -0.342427 0
M  V30 25459 N 2366.44 -1.41713 -0.689577 0
M  V30 25460 C 2367.69 -1.40689 -1.44532 0
M  V30 25461 C 2368 -0.0213696 -1.95588 0
M  V30 25462 O 2369.21 0.111486 -2.71271 0
M  V30 25463 C 2367.66 -2.47401 -2.61382 0
M  V30 25464 C 2367.27 -3.91889 -2.17087 0
M  V30 25465 C 2369.01 -2.55523 -3.38982 0
M  V30 25466 C 2366.92 -4.90141 -3.30932 0
M  V30 25467 H 2365.85 -0.523219 -0.542916 0
M  V30 25468 H 2368.5 -1.67561 -0.748024 0
M  V30 25469 H 2366.88 -2.13669 -3.33409 0
M  V30 25470 H 2368.06 -4.349 -1.52311 0
M  V30 25471 H 2366.37 -3.87483 -1.52466 0
M  V30 25472 H 2368.97 -3.2611 -4.23741 0
M  V30 25473 H 2369.31 -1.59398 -3.84575 0
M  V30 25474 H 2369.85 -2.88375 -2.74016 0
M  V30 25475 H 2366.59 -5.87691 -2.90345 0
M  V30 25476 H 2366.11 -4.51774 -3.94538 0
M  V30 25477 H 2367.78 -5.11176 -3.96621 0
M  V30 25478 N 2367.92 0.924431 -1.2764 0
M  V30 25479 C 2368.86 2.02548 -1.10648 0
M  V30 25480 C 2369.83 1.66099 -0.00661358 0
M  V30 25481 O 2371.02 1.90045 -0.169553 0
M  V30 25482 C 2368.16 3.36556 -0.763149 0
M  V30 25483 C 2367.27 3.85941 -1.94098 0
M  V30 25484 C 2366.41 5.0841 -1.53923 0
M  V30 25485 C 2365.45 5.50099 -2.68435 0
M  V30 25486 N 2364.58 6.63764 -2.28826 0
M  V30 25487 H 2369.42 2.16415 -2.04862 0
M  V30 25488 H 2366.96 1.06015 -1.01976 0
M  V30 25489 H 2368.92 4.13626 -0.544894 0
M  V30 25490 H 2367.55 3.22487 0.142045 0
M  V30 25491 H 2366.6 3.05121 -2.27168 0
M  V30 25492 H 2367.91 4.12806 -2.79987 0
M  V30 25493 H 2367.07 5.92992 -1.28241 0
M  V30 25494 H 2365.8 4.83329 -0.651476 0
M  V30 25495 H 2364.81 4.64066 -2.94827 0
M  V30 25496 H 2366.03 5.77174 -3.57837 0
M  V30 25497 H 2363.98 6.40334 -1.42507 0
M  V30 25498 H 2363.9 6.90301 -3.08254 0
M  V30 25499 H 2365.17 7.51678 -2.064 0
M  V30 25500 N 2369.39 1.09715 1.13139 0
M  V30 25501 C 2370.64 0.83502 1.84482 0
M  V30 25502 C 2370.97 -0.639386 1.8369 0
M  V30 25503 O 2370.22 -1.48687 1.27242 0
M  V30 25504 C 2370.52 1.31916 3.32164 0
M  V30 25505 C 2370.19 2.80369 3.53134 0
M  V30 25506 C 2368.85 3.20911 3.58566 0
M  V30 25507 C 2371.2 3.76072 3.60859 0
M  V30 25508 C 2368.53 4.55922 3.69259 0
M  V30 25509 C 2370.88 5.10875 3.7308 0
M  V30 25510 C 2369.55 5.51003 3.76766 0
M  V30 25511 H 2368.82 0.305555 0.675068 0
M  V30 25512 H 2371.46 1.37245 1.33551 0
M  V30 25513 H 2369.77 0.701584 3.85467 0
M  V30 25514 H 2371.47 1.09291 3.85819 0
M  V30 25515 H 2368.06 2.47997 3.49564 0
M  V30 25516 H 2372.24 3.45862 3.5594 0
M  V30 25517 H 2367.5 4.86445 3.7038 0
M  V30 25518 H 2371.67 5.84883 3.78001 0
M  V30 25519 H 2369.3 6.55614 3.84804 0
M  V30 25520 N 2370.87 -1.30419 0.88479 0
M  V30 25521 C 2372.12 -1.95425 0.499198 0
M  V30 25522 C 2372.43 -1.70622 -0.95642 0
M  V30 25523 O 2373.64 -2.2961 -1.44885 0
M  V30 25524 C 2372.1 -3.49916 0.841832 0
M  V30 25525 C 2371.7 -3.83539 2.31521 0
M  V30 25526 C 2373.45 -4.21236 0.52543 0
M  V30 25527 C 2371.36 -5.31207 2.59948 0
M  V30 25528 H 2370.29 -0.731466 0.182956 0
M  V30 25529 H 2372.94 -1.48371 1.07974 0
M  V30 25530 H 2371.32 -3.95542 0.19038 0
M  V30 25531 H 2372.49 -3.48823 3.01096 0
M  V30 25532 H 2370.81 -3.25322 2.59913 0
M  V30 25533 H 2373.4 -5.299 0.714856 0
M  V30 25534 H 2373.75 -4.12846 -0.535149 0
M  V30 25535 H 2374.28 -3.81292 1.13407 0
M  V30 25536 H 2371.02 -5.44647 3.64746 0
M  V30 25537 H 2370.54 -5.67223 1.94982 0
M  V30 25538 H 2372.22 -5.98639 2.4544 0
M  V30 25539 N 2372.35 -0.645724 -1.43764 0
M  V30 25540 C 2373.28 0.0370066 -2.33471 0
M  V30 25541 C 2374.26 0.819753 -1.49044 0
M  V30 25542 O 2375.45 0.782727 -1.77727 0
M  V30 25543 C 2372.58 1.00924 -3.32313 0
M  V30 25544 C 2371.53 0.337126 -4.2667 0
M  V30 25545 C 2370.86 1.42028 -5.15492 0
M  V30 25546 C 2372.16 -0.765797 -5.16655 0
M  V30 25547 H 2373.85 -0.71212 -2.90808 0
M  V30 25548 H 2371.4 -0.343901 -1.39833 0
M  V30 25549 H 2373.35 1.49571 -3.93962 0
M  V30 25550 H 2372.07 1.78943 -2.73216 0
M  V30 25551 H 2370.73 -0.128836 -3.66374 0
M  V30 25552 H 2370.38 2.19172 -4.52739 0
M  V30 25553 H 2370.08 0.975864 -5.7944 0
M  V30 25554 H 2371.6 1.90827 -5.80015 0
M  V30 25555 H 2373.02 -0.361802 -5.72157 0
M  V30 25556 H 2371.42 -1.13423 -5.89284 0
M  V30 25557 H 2372.49 -1.62691 -4.56793 0
M  V30 25558 N 2373.83 1.5277 -0.38717 0
M  V30 25559 C 2375.11 1.93955 0.253163 0
M  V30 25560 C 2375.49 1.32246 1.64543 0
M  V30 25561 O 2374.83 0.489738 2.2319 0
M  V30 25562 C 2375.04 3.47862 0.281661 0
M  V30 25563 C 2376.39 4.21506 0.511641 0
M  V30 25564 O 2377.42 3.54356 0.361961 0
M  V30 25565 O 2376.27 5.40542 0.804752 0
M  V30 25566 H 2373.37 0.811993 0.15683 0
M  V30 25567 H 2375.91 1.63856 -0.441523 0
M  V30 25568 H 2374.69 3.85103 -0.693639 0
M  V30 25569 H 2374.31 3.84258 1.02136 0
M  V30 25570 N 2375.31 0.116931 1.57166 0
M  V30 25571 C 2376.27 -0.819705 2.14041 0
M  V30 25572 C 2377.27 -1.19603 1.07479 0
M  V30 25573 O 2378.46 -1.12188 1.33265 0
M  V30 25574 C 2375.59 -2.10821 2.67894 0
M  V30 25575 H 2376.78 -0.325459 2.98129 0
M  V30 25576 H 2374.34 -0.132285 1.55739 0
M  V30 25577 H 2375.07 -2.64681 1.87388 0
M  V30 25578 H 2374.86 -1.84787 3.45827 0
M  V30 25579 H 2376.35 -2.7778 3.11814 0
M  V30 25580 N 2376.78 -1.56818 -0.156836 0
M  V30 25581 C 2377.73 -1.98457 -1.21315 0
M  V30 25582 C 2378.73 -0.87547 -1.45024 0
M  V30 25583 O 2379.93 -1.06063 -1.45433 0
M  V30 25584 H 2376.31 -0.631612 -0.408131 0
M  V30 25585 H 2378.28 -2.86474 -0.835194 0
M  V30 25586 C 2377.03 -2.3729 -2.54144 0
M  V30 25587 H 2376.35 -3.2218 -2.36727 0
M  V30 25588 H 2377.79 -2.70257 -3.26707 0
M  V30 25589 C 2376.25 -1.22179 -3.13965 0
M  V30 25590 O 2376.78 -0.517219 -3.98356 0
M  V30 25591 N 2374.99 -0.988584 -2.73268 0
M  V30 25592 H 2374.53 -1.5633 -2.04741 0
M  V30 25593 H 2374.49 -0.220264 -3.13627 0
M  V30 25594 N 2378.26 0.425871 -1.51737 0
M  V30 25595 C 2379.51 1.17433 -1.64972 0
M  V30 25596 C 2379.84 1.9092 -0.371479 0
M  V30 25597 O 2379.09 1.84768 0.644931 0
M  V30 25598 C 2379.39 2.20712 -2.81106 0
M  V30 25599 C 2379.06 1.64155 -4.19957 0
M  V30 25600 C 2377.72 1.48454 -4.57728 0
M  V30 25601 C 2380.07 1.22687 -5.06554 0
M  V30 25602 C 2377.4 0.897771 -5.7979 0
M  V30 25603 C 2379.75 0.654353 -6.29207 0
M  V30 25604 C 2378.42 0.484339 -6.6574 0
M  V30 25605 H 2377.69 0.429717 -0.603676 0
M  V30 25606 H 2380.33 0.463797 -1.85799 0
M  V30 25607 H 2378.64 2.97847 -2.54547 0
M  V30 25608 H 2380.33 2.78465 -2.88545 0
M  V30 25609 H 2376.92 1.77355 -3.90184 0
M  V30 25610 H 2381.11 1.33633 -4.7797 0
M  V30 25611 H 2376.36 0.753913 -6.06734 0
M  V30 25612 H 2380.54 0.324572 -6.95643 0
M  V30 25613 H 2378.17 0.0275497 -7.60195 0
M  V30 25614 N 2379.74 1.42077 0.682052 0
M  V30 25615 C 2380.99 1.41454 1.43784 0
M  V30 25616 C 2381.3 0.0317418 1.95574 0
M  V30 25617 O 2382.51 -0.0970985 2.71326 0
M  V30 25618 C 2380.96 2.48784 2.60067 0
M  V30 25619 C 2380.57 3.93035 2.15006 0
M  V30 25620 C 2382.32 2.57317 3.37622 0
M  V30 25621 C 2380.22 4.91889 3.28328 0
M  V30 25622 H 2379.15 0.526091 0.540134 0
M  V30 25623 H 2381.8 1.67956 0.739128 0
M  V30 25624 H 2380.19 2.15435 3.32271 0
M  V30 25625 H 2381.36 4.35702 1.50002 0
M  V30 25626 H 2379.68 3.88286 1.50409 0
M  V30 25627 H 2382.27 3.28352 4.22006 0
M  V30 25628 H 2382.62 1.61435 3.83724 0
M  V30 25629 H 2383.15 2.89824 2.72483 0
M  V30 25630 H 2379.89 5.89222 2.87224 0
M  V30 25631 H 2379.41 4.5386 3.92137 0
M  V30 25632 H 2381.09 5.13272 3.93904 0
M  V30 25633 N 2381.22 -0.917649 1.28129 0
M  V30 25634 C 2382.47 -1.66095 1.14435 0
M  V30 25635 C 2382.78 -1.93172 -0.307213 0
M  V30 25636 O 2383.99 -2.65552 -0.565212 0
M  V30 25637 C 2382.44 -2.99199 2.0002 0
M  V30 25638 C 2382.05 -2.79783 3.49893 0
M  V30 25639 C 2383.8 -3.7706 1.95002 0
M  V30 25640 C 2381.7 -4.08503 4.27643 0
M  V30 25641 H 2380.63 -0.623032 0.424673 0
M  V30 25642 H 2383.28 -1.01865 1.52629 0
M  V30 25643 H 2381.67 -3.64542 1.54678 0
M  V30 25644 H 2382.84 -2.23145 4.03166 0
M  V30 25645 H 2381.15 -2.15339 3.56396 0
M  V30 25646 H 2383.75 -4.72465 2.50362 0
M  V30 25647 H 2384.09 -4.05873 0.92589 0
M  V30 25648 H 2384.63 -3.1853 2.38293 0
M  V30 25649 H 2381.37 -3.84865 5.30621 0
M  V30 25650 H 2380.89 -4.64768 3.79145 0
M  V30 25651 H 2382.57 -4.76791 4.37355 0
M  V30 25652 N 2382.7 -1.10314 -1.12555 0
M  V30 25653 C 2383.92 -0.867118 -1.88403 0
M  V30 25654 C 2384.35 0.576786 -1.79039 0
M  V30 25655 O 2383.71 1.40616 -1.14442 0
M  V30 25656 C 2383.75 -1.31857 -3.35628 0
M  V30 25657 O 2382.86 -0.482806 -4.09564 0
M  V30 25658 H 2382.2 -0.313281 -0.585449 0
M  V30 25659 H 2384.73 -1.46962 -1.42349 0
M  V30 25660 H 2384.74 -1.30796 -3.86466 0
M  V30 25661 H 2383.41 -2.37007 -3.41761 0
M  V30 25662 H 2381.99 -0.558513 -3.68694 0
M  V30 25663 N 2384.18 1.29948 -0.891694 0
M  V30 25664 C 2385.42 1.95493 -0.512521 0
M  V30 25665 C 2385.74 1.70697 0.942746 0
M  V30 25666 O 2385.01 1.03427 1.66372 0
M  V30 25667 H 2383.59 0.723332 -0.186546 0
M  V30 25668 H 2386.26 1.58353 -1.13624 0
M  V30 25669 H 2385.35 3.04413 -0.688395 0
M  V30 25670 N 2385.65 0.653339 1.4342 0
M  V30 25671 C 2386.88 0.174528 2.06163 0
M  V30 25672 C 2387.3 -1.15987 1.48971 0
M  V30 25673 O 2386.65 -1.71607 0.621072 0
M  V30 25674 C 2386.7 0.0775501 3.61417 0
M  V30 25675 O 2386.43 1.3592 4.16482 0
M  V30 25676 C 2387.93 -0.427324 4.41236 0
M  V30 25677 H 2385.15 0.089947 0.664944 0
M  V30 25678 H 2387.69 0.894021 1.83923 0
M  V30 25679 H 2385.85 -0.592503 3.82842 0
M  V30 25680 H 2386.26 1.21848 5.1015 0
M  V30 25681 H 2387.73 -0.444134 5.5021 0
M  V30 25682 H 2388.21 -1.45865 4.1427 0
M  V30 25683 H 2388.82 0.210242 4.2478 0
M  V30 25684 N 2387.13 -1.52563 0.395266 0
M  V30 25685 C 2388.36 -2.06072 -0.184907 0
M  V30 25686 C 2388.77 -1.2665 -1.40019 0
M  V30 25687 O 2388.13 -0.314704 -1.79766 0
M  V30 25688 C 2388.18 -3.57305 -0.549116 0
M  V30 25689 O 2387.9 -4.33721 0.617889 0
M  V30 25690 C 2389.4 -4.27182 -1.18451 0
M  V30 25691 H 2386.62 -0.670477 -0.0264907 0
M  V30 25692 H 2389.17 -1.9662 0.562219 0
M  V30 25693 H 2387.32 -3.66811 -1.24614 0
M  V30 25694 H 2387.74 -5.2354 0.317183 0
M  V30 25695 H 2389.21 -5.34221 -1.38967 0
M  V30 25696 H 2389.69 -3.82774 -2.15361 0
M  V30 25697 H 2390.29 -4.22009 -0.528088 0
M  V30 25698 N 2388.61 -0.125265 -1.57101 0
M  V30 25699 C 2389.83 0.542066 -2.00191 0
M  V30 25700 C 2390.26 1.59032 -1.00452 0
M  V30 25701 O 2389.62 1.81286 0.0229104 0
M  V30 25702 C 2389.67 1.13923 -3.42131 0
M  V30 25703 O 2388.77 2.25464 -3.45311 0
M  V30 25704 H 2388.11 0.1348 -0.650173 0
M  V30 25705 H 2390.64 -0.215588 -2.03461 0
M  V30 25706 H 2390.65 1.47324 -3.80473 0
M  V30 25707 H 2389.33 0.371458 -4.14238 0
M  V30 25708 H 2387.9 1.93456 -3.18793 0
M  V30 25709 N 2390.09 1.56899 0.148518 0
M  V30 25710 C 2391.34 1.82456 0.859808 0
M  V30 25711 C 2391.65 0.706261 1.82404 0
M  V30 25712 O 2392.86 0.847394 2.57937 0
M  V30 25713 C 2391.31 3.23383 1.57961 0
M  V30 25714 C 2390.92 4.43144 0.657862 0
M  V30 25715 C 2392.66 3.58215 2.27778 0
M  V30 25716 C 2390.57 5.75093 1.3792 0
M  V30 25717 H 2389.5 0.680446 0.324822 0
M  V30 25718 H 2392.15 1.83154 0.112556 0
M  V30 25719 H 2390.53 3.17067 2.37244 0
M  V30 25720 H 2391.71 4.60692 -0.0996307 0
M  V30 25721 H 2390.02 4.16344 0.0681911 0
M  V30 25722 H 2392.62 4.54053 2.82382 0
M  V30 25723 H 2392.96 2.84198 3.04199 0
M  V30 25724 H 2393.5 3.66184 1.55415 0
M  V30 25725 H 2390.23 6.52201 0.656867 0
M  V30 25726 H 2389.75 5.61482 2.10944 0
M  V30 25727 H 2391.43 6.17839 1.92053 0
M  V30 25728 N 2391.57 -0.417818 1.51961 0
M  V30 25729 C 2392.81 -1.16326 1.65265 0
M  V30 25730 C 2393.13 -1.91248 0.380667 0
M  V30 25731 O 2392.4 -1.8635 -0.604181 0
M  V30 25732 H 2390.98 -0.432403 0.609128 0
M  V30 25733 H 2393.65 -0.477129 1.8897 0
M  V30 25734 H 2392.74 -1.88212 2.48963 0
M  V30 25735 N 2393.04 -1.42436 -0.674508 0
M  V30 25736 C 2393.98 -1.41886 -1.80003 0
M  V30 25737 C 2394.99 -0.317898 -1.59666 0
M  V30 25738 O 2396.18 -0.581003 -1.6878 0
M  V30 25739 C 2393.28 -1.19554 -3.17112 0
M  V30 25740 C 2392.45 -2.4209 -3.64295 0
M  V30 25741 C 2391.51 -2.15299 -4.80138 0
M  V30 25742 O 2390.54 -2.88502 -4.90668 0
M  V30 25743 N 2391.74 -1.1563 -5.68867 0
M  V30 25744 H 2394.5 -2.38901 -1.8096 0
M  V30 25745 H 2392.06 -1.3732 -0.857608 0
M  V30 25746 H 2394.06 -0.995486 -3.92265 0
M  V30 25747 H 2392.63 -0.310623 -3.11053 0
M  V30 25748 H 2391.85 -2.77662 -2.79817 0
M  V30 25749 H 2393.13 -3.23686 -3.92562 0
M  V30 25750 H 2392.53 -0.550864 -5.63012 0
M  V30 25751 H 2391.09 -1.01611 -6.43831 0
M  V30 25752 N 2394.52 0.910841 -1.28614 0
M  V30 25753 C 2395.77 1.66026 -1.15937 0
M  V30 25754 C 2396.1 1.92304 0.291449 0
M  V30 25755 O 2395.35 1.52366 1.22813 0
M  V30 25756 C 2395.65 3.02317 -1.90629 0
M  V30 25757 C 2395.32 2.95689 -3.4041 0
M  V30 25758 C 2393.98 2.93588 -3.8126 0
M  V30 25759 C 2396.33 2.85721 -4.35905 0
M  V30 25760 C 2393.66 2.79325 -5.15941 0
M  V30 25761 C 2396.01 2.72997 -5.70662 0
M  V30 25762 C 2394.67 2.69256 -6.10784 0
M  V30 25763 H 2393.94 0.607534 -0.424245 0
M  V30 25764 H 2396.59 1.06098 -1.59422 0
M  V30 25765 H 2394.9 3.66047 -1.39702 0
M  V30 25766 H 2396.59 3.59212 -1.78235 0
M  V30 25767 H 2393.18 2.9812 -3.07933 0
M  V30 25768 H 2397.37 2.86429 -4.05305 0
M  V30 25769 H 2392.62 2.74826 -5.46151 0
M  V30 25770 H 2396.8 2.64253 -6.44316 0
M  V30 25771 H 2394.42 2.57961 -7.15094 0
M  V30 25772 N 2396 1.10909 1.11969 0
M  V30 25773 C 2396.91 0.774935 2.21432 0
M  V30 25774 C 2397.93 -0.229627 1.72478 0
M  V30 25775 O 2399.1 -0.0671654 2.01288 0
M  V30 25776 C 2396.17 0.217047 3.4602 0
M  V30 25777 C 2395.23 1.27951 4.09789 0
M  V30 25778 C 2394.46 0.748148 5.2843 0
M  V30 25779 O 2394.68 -0.423733 5.68824 0
M  V30 25780 O 2393.62 1.51037 5.82642 0
M  V30 25781 H 2397.44 1.68877 2.52417 0
M  V30 25782 H 2395.03 0.884576 1.20398 0
M  V30 25783 H 2396.91 -0.089985 4.21304 0
M  V30 25784 H 2395.59 -0.669577 3.16699 0
M  V30 25785 H 2394.49 1.63947 3.36262 0
M  V30 25786 H 2395.83 2.13932 4.43276 0
M  V30 25787 N 2397.48 -1.29474 0.898573 0
M  V30 25788 C 2398.73 -1.95605 0.523916 0
M  V30 25789 C 2399.05 -1.70848 -0.929578 0
M  V30 25790 O 2398.31 -1.0137 -1.67399 0
M  V30 25791 C 2398.61 -3.49194 0.761459 0
M  V30 25792 C 2398.27 -3.94026 2.19214 0
M  V30 25793 C 2396.94 -4.05977 2.58333 0
M  V30 25794 C 2399.29 -4.1721 3.12386 0
M  V30 25795 C 2396.62 -4.38482 3.89808 0
M  V30 25796 C 2398.97 -4.51189 4.43408 0
M  V30 25797 C 2397.63 -4.61351 4.82402 0
M  V30 25798 H 2396.9 -0.71577 0.191714 0
M  V30 25799 H 2399.55 -1.54092 1.13702 0
M  V30 25800 H 2397.85 -3.91745 0.065431 0
M  V30 25801 H 2399.55 -3.98456 0.450974 0
M  V30 25802 H 2396.14 -3.85239 1.87853 0
M  V30 25803 H 2400.32 -4.07444 2.83378 0
M  V30 25804 H 2395.58 -4.44552 4.19742 0
M  V30 25805 H 2399.75 -4.68078 5.15631 0
M  V30 25806 H 2397.38 -4.86293 5.84315 0
M  V30 25807 N 2398.96 -0.660936 -1.43071 0
M  V30 25808 C 2400.21 -0.17477 -2.00941 0
M  V30 25809 C 2400.52 1.22114 -1.52799 0
M  V30 25810 O 2401.72 1.80294 -2.02994 0
M  V30 25811 C 2400.18 -0.261622 -3.58948 0
M  V30 25812 C 2399.79 -1.66071 -4.16082 0
M  V30 25813 C 2401.53 0.166543 -4.24173 0
M  V30 25814 C 2399.44 -1.70108 -5.66407 0
M  V30 25815 H 2398.37 -0.0615763 -0.751481 0
M  V30 25816 H 2401.02 -0.824098 -1.63954 0
M  V30 25817 H 2399.4 0.455352 -3.93373 0
M  V30 25818 H 2400.58 -2.40366 -3.93142 0
M  V30 25819 H 2398.89 -2.03552 -3.63257 0
M  V30 25820 H 2401.49 0.156339 -5.34471 0
M  V30 25821 H 2401.83 1.19936 -3.98649 0
M  V30 25822 H 2402.36 -0.498945 -3.94659 0
M  V30 25823 H 2399.1 -2.71325 -5.9671 0
M  V30 25824 H 2398.62 -1.00149 -5.9138 0
M  V30 25825 H 2400.3 -1.44827 -6.30582 0
M  V30 25826 N 2400.43 1.52351 -0.403352 0
M  V30 25827 C 2401.67 2.03659 0.173911 0
M  V30 25828 C 2402.04 1.28269 1.42867 0
M  V30 25829 O 2403.24 1.69773 2.084 0
M  V30 25830 C 2401.51 3.54907 0.421416 0
M  V30 25831 S 2403.07 4.28013 0.966952 0
M  V30 25832 H 2399.89 0.709396 0.0477336 0
M  V30 25833 H 2402.49 1.87458 -0.554939 0
M  V30 25834 H 2401.19 4.07359 -0.498687 0
M  V30 25835 H 2400.72 3.75339 1.1783 0
M  V30 25836 H 2402.74 4.42354 2.24805 0
M  V30 25837 N 2401.91 0.133594 1.57033 0
M  V30 25838 C 2403.19 -0.565187 1.87257 0
M  V30 25839 C 2403.57 -1.83857 1.03729 0
M  V30 25840 O 2402.92 -2.28183 0.120287 0
M  V30 25841 C 2403.13 -0.843576 3.38651 0
M  V30 25842 C 2404.48 -1.19025 4.07576 0
M  V30 25843 O 2405.5 -0.933368 3.43754 0
M  V30 25844 O 2404.36 -1.67303 5.20262 0
M  V30 25845 H 2401.45 -0.286783 0.775683 0
M  V30 25846 H 2404 0.169198 1.68854 0
M  V30 25847 H 2402.77 0.0581836 3.91257 0
M  V30 25848 H 2402.39 -1.63261 3.62535 0
M  V30 25849 N 2403.39 -1.56975 -0.140195 0
M  V30 25850 C 2404.3 -2.02049 -1.1922 0
M  V30 25851 C 2405.32 -0.937088 -1.46611 0
M  V30 25852 O 2406.49 -1.24707 -1.58146 0
M  V30 25853 C 2403.56 -2.39783 -2.5041 0
M  V30 25854 C 2402.62 -3.62104 -2.30605 0
M  V30 25855 C 2401.85 -3.98029 -3.5554 0
M  V30 25856 O 2402.07 -3.34536 -4.61998 0
M  V30 25857 O 2401.01 -4.91243 -3.47799 0
M  V30 25858 H 2404.83 -2.91866 -0.839508 0
M  V30 25859 H 2402.42 -1.45256 -0.349427 0
M  V30 25860 H 2404.3 -2.64882 -3.27743 0
M  V30 25861 H 2402.98 -1.53119 -2.85195 0
M  V30 25862 H 2401.88 -3.42183 -1.51201 0
M  V30 25863 H 2403.22 -4.49408 -2.00733 0
M  V30 25864 N 2404.87 0.409753 -1.5218 0
M  V30 25865 C 2405.82 1.51972 -1.76089 0
M  V30 25866 C 2406.81 1.5733 -0.627991 0
M  V30 25867 O 2408.02 1.60744 -0.810022 0
M  V30 25868 H 2404.39 0.505406 -0.556838 0
M  V30 25869 H 2406.36 1.28992 -2.69079 0
M  V30 25870 C 2405.11 2.89347 -1.92805 0
M  V30 25871 H 2404.43 2.85967 -2.79397 0
M  V30 25872 H 2405.87 3.66305 -2.13533 0
M  V30 25873 C 2404.33 3.29654 -0.694981 0
M  V30 25874 O 2404.86 4.01465 0.13744 0
M  V30 25875 N 2403.07 2.85706 -0.53106 0
M  V30 25876 H 2402.62 2.27437 -1.20956 0
M  V30 25877 H 2402.57 3.13035 0.292663 0
M  V30 25878 N 2406.35 1.42792 0.666944 0
M  V30 25879 C 2407.62 1.34161 1.42338 0
M  V30 25880 C 2408 -0.0172358 2.11093 0
M  V30 25881 O 2407.35 -1.03314 2.0381 0
M  V30 25882 C 2407.56 2.5153 2.41937 0
M  V30 25883 C 2408.91 2.94001 3.06347 0
M  V30 25884 O 2409.93 2.51477 2.52265 0
M  V30 25885 O 2408.79 3.67624 4.0437 0
M  V30 25886 H 2405.89 0.529494 0.635268 0
M  V30 25887 H 2408.43 1.54815 0.695007 0
M  V30 25888 H 2407.2 3.42084 1.89985 0
M  V30 25889 H 2406.83 2.32904 3.22245 0
M  V30 25890 N 2407.82 -0.904008 1.29095 0
M  V30 25891 C 2408.77 -2.02899 1.13731 0
M  V30 25892 C 2409.77 -1.69314 0.054015 0
M  V30 25893 O 2410.97 -1.78729 0.213501 0
M  V30 25894 H 2407.35 -0.664963 0.351182 0
M  V30 25895 H 2409.32 -2.12997 2.08985 0
M  V30 25896 C 2408.07 -3.37743 0.826126 0
M  V30 25897 H 2407.39 -3.64086 1.6517 0
M  V30 25898 H 2408.83 -4.17158 0.758633 0
M  V30 25899 C 2407.29 -3.33599 -0.470483 0
M  V30 25900 O 2407.82 -3.7273 -1.49785 0
M  V30 25901 N 2406.03 -2.86696 -0.474762 0
M  V30 25902 H 2405.57 -2.55047 0.361737 0
M  V30 25903 H 2405.53 -2.84305 -1.34231 0
M  V30 25904 N 2409.3 -1.11501 -1.11379 0
M  V30 25905 C 2410.55 -0.859025 -1.82493 0
M  V30 25906 C 2410.86 0.617245 -1.85606 0
M  V30 25907 O 2412.07 0.989507 -2.52826 0
M  V30 25908 C 2410.53 -1.48705 -3.27742 0
M  V30 25909 C 2410.13 -2.9974 -3.32956 0
M  V30 25910 C 2411.88 -1.31092 -4.03751 0
M  V30 25911 C 2409.79 -3.55524 -4.72606 0
M  V30 25912 H 2408.72 -0.317708 -0.683797 0
M  V30 25913 H 2411.37 -1.34033 -1.25329 0
M  V30 25914 H 2409.75 -0.933407 -3.84842 0
M  V30 25915 H 2410.92 -3.61514 -2.85734 0
M  V30 25916 H 2409.24 -3.16636 -2.70427 0
M  V30 25917 H 2411.83 -1.70201 -5.06888 0
M  V30 25918 H 2412.18 -0.253569 -4.15527 0
M  V30 25919 H 2412.71 -1.83324 -3.5304 0
M  V30 25920 H 2409.45 -4.60975 -4.66028 0
M  V30 25921 H 2408.97 -2.98522 -5.20235 0
M  V30 25922 H 2410.65 -3.54002 -5.41564 0
M  V30 25923 N 2410.78 1.28995 -0.905426 0
M  V30 25924 C 2411.71 2.26592 -0.344788 0
M  V30 25925 C 2412.73 1.54536 0.512108 0
M  V30 25926 O 2413.92 1.75454 0.328337 0
M  V30 25927 C 2411.02 3.34785 0.526528 0
M  V30 25928 C 2410.19 4.36329 -0.305948 0
M  V30 25929 C 2409.25 5.23828 0.499117 0
M  V30 25930 O 2408.27 5.69136 -0.0854004 0
M  V30 25931 N 2409.48 5.51758 1.80398 0
M  V30 25932 H 2412.24 2.75336 -1.18364 0
M  V30 25933 H 2409.8 1.4239 -0.770506 0
M  V30 25934 H 2411.79 3.90254 1.07164 0
M  V30 25935 H 2410.36 2.85813 1.26608 0
M  V30 25936 H 2409.58 3.80439 -1.03246 0
M  V30 25937 H 2410.87 5.01205 -0.875861 0
M  V30 25938 H 2410.27 5.16766 2.30151 0
M  V30 25939 H 2408.83 6.10019 2.2961 0
M  V30 25940 N 2412.26 0.668514 1.42719 0
M  V30 25941 C 2413.67 0.266184 1.84793 0
M  V30 25942 C 2414.02 -1.1904 1.55961 0
M  V30 25943 O 2413.15 -1.91053 1.01625 0
M  V30 25944 C 2413.74 0.47633 3.35435 0
M  V30 25945 C 2412.3 0.128179 3.76182 0
M  V30 25946 C 2411.45 0.771824 2.66342 0
M  V30 25947 H 2414.4 0.871121 1.32654 0
M  V30 25948 H 2414.42 -0.273494 3.79516 0
M  V30 25949 H 2413.93 1.53653 3.56388 0
M  V30 25950 H 2412.03 -0.928827 3.60837 0
M  V30 25951 H 2412.15 0.564315 4.75765 0
M  V30 25952 H 2410.51 0.203696 2.53884 0
M  V30 25953 H 2411.29 1.83536 2.9012 0
M  V30 25954 N 2413.74 -1.52135 0.411426 0
M  V30 25955 C 2414.97 -2.05958 -0.162804 0
M  V30 25956 C 2415.38 -1.28121 -1.39218 0
M  V30 25957 O 2414.72 -0.326913 -1.80768 0
M  V30 25958 C 2414.78 -3.54857 -0.575883 0
M  V30 25959 C 2414.44 -4.53762 0.543077 0
M  V30 25960 C 2415.44 -5.00489 1.40735 0
M  V30 25961 C 2413.13 -4.97165 0.716424 0
M  V30 25962 C 2415.12 -5.89266 2.4299 0
M  V30 25963 C 2412.81 -5.85737 1.74228 0
M  V30 25964 C 2413.81 -6.31683 2.59742 0
M  V30 25965 O 2413.49 -7.18501 3.60571 0
M  V30 25966 H 2413.23 -0.675612 -0.0229007 0
M  V30 25967 H 2415.78 -1.96992 0.581669 0
M  V30 25968 H 2414.01 -3.61517 -1.37267 0
M  V30 25969 H 2415.7 -3.91315 -1.07829 0
M  V30 25970 H 2416.46 -4.67672 1.28484 0
M  V30 25971 H 2412.34 -4.6096 0.0604667 0
M  V30 25972 H 2415.89 -6.2505 3.09771 0
M  V30 25973 H 2411.78 -6.17968 1.86509 0
M  V30 25974 H 2412.55 -7.36618 3.56842 0
M  V30 25975 N 2415.22 -0.14192 -1.5696 0
M  V30 25976 C 2416.46 0.510458 -1.95961 0
M  V30 25977 C 2416.79 1.65206 -1.02651 0
M  V30 25978 O 2416.05 1.95623 -0.0547291 0
M  V30 25979 C 2416.34 1.06243 -3.41244 0
M  V30 25980 C 2416.01 0.0397998 -4.50882 0
M  V30 25981 C 2414.67 -0.241332 -4.80594 0
M  V30 25982 C 2417.02 -0.655871 -5.17057 0
M  V30 25983 C 2414.35 -1.22403 -5.7379 0
M  V30 25984 C 2416.7 -1.62735 -6.1131 0
M  V30 25985 C 2415.37 -1.91623 -6.39403 0
M  V30 25986 H 2414.64 0.18679 -0.717071 0
M  V30 25987 H 2417.29 -0.227677 -1.90142 0
M  V30 25988 H 2415.59 1.87779 -3.43869 0
M  V30 25989 H 2417.29 1.57569 -3.68745 0
M  V30 25990 H 2413.88 0.269099 -4.27754 0
M  V30 25991 H 2418.06 -0.451866 -4.94239 0
M  V30 25992 H 2413.32 -1.45434 -5.93851 0
M  V30 25993 H 2417.49 -2.17195 -6.61664 0
M  V30 25994 H 2415.12 -2.67922 -7.11422 0
M  V30 25995 N 2416.69 1.57047 0.131868 0
M  V30 25996 C 2417.94 1.83358 0.840408 0
M  V30 25997 C 2418.26 0.725567 1.81645 0
M  V30 25998 O 2419.46 0.874704 2.57024 0
M  V30 25999 C 2417.92 3.2504 1.54522 0
M  V30 26000 C 2417.53 4.43816 0.610823 0
M  V30 26001 C 2419.27 3.6061 2.23965 0
M  V30 26002 C 2417.18 5.76523 1.31813 0
M  V30 26003 H 2416.11 0.683853 0.317587 0
M  V30 26004 H 2418.76 1.83264 0.0931239 0
M  V30 26005 H 2417.14 3.19565 2.33867 0
M  V30 26006 H 2418.31 4.60561 -0.148488 0
M  V30 26007 H 2416.63 4.16393 0.0240284 0
M  V30 26008 H 2419.23 4.57023 2.7755 0
M  V30 26009 H 2419.57 2.87409 3.01168 0
M  V30 26010 H 2420.1 3.67812 1.51522 0
M  V30 26011 H 2416.84 6.52861 0.587656 0
M  V30 26012 H 2416.36 5.63688 2.04977 0
M  V30 26013 H 2418.04 6.19841 1.85489 0
M  V30 26014 N 2418.17 -0.401677 1.52395 0
M  V30 26015 C 2419.12 -1.48988 1.7627 0
M  V30 26016 C 2420.09 -1.54674 0.605413 0
M  V30 26017 O 2421.27 -1.71129 0.843772 0
M  V30 26018 C 2418.41 -2.86357 1.92597 0
M  V30 26019 C 2417.53 -2.89922 3.20264 0
M  V30 26020 C 2416.66 -4.18638 3.2698 0
M  V30 26021 C 2415.7 -4.16206 4.48819 0
M  V30 26022 N 2414.84 -5.36506 4.52886 0
M  V30 26023 H 2419.68 -1.2793 2.69143 0
M  V30 26024 H 2417.21 -0.620847 1.33356 0
M  V30 26025 H 2419.17 -3.66111 2.00046 0
M  V30 26026 H 2417.8 -3.05893 1.03098 0
M  V30 26027 H 2416.85 -2.02615 3.21949 0
M  V30 26028 H 2418.17 -2.83991 4.10061 0
M  V30 26029 H 2417.32 -5.06789 3.33542 0
M  V30 26030 H 2416.06 -4.27274 2.35134 0
M  V30 26031 H 2415.06 -3.26445 4.42395 0
M  V30 26032 H 2416.29 -4.09204 5.41968 0
M  V30 26033 H 2414.24 -5.45796 3.63927 0
M  V30 26034 H 2414.15 -5.326 5.36538 0
M  V30 26035 H 2415.42 -6.26589 4.63688 0
M  V30 26036 N 2419.65 -1.43144 -0.659362 0
M  V30 26037 C 2420.9 -1.44435 -1.41932 0
M  V30 26038 C 2421.22 -0.0663864 -1.94387 0
M  V30 26039 O 2420.48 0.927676 -1.72316 0
M  V30 26040 C 2420.78 -2.42868 -2.62202 0
M  V30 26041 C 2420.44 -3.8889 -2.28201 0
M  V30 26042 C 2419.11 -4.28661 -2.1864 0
M  V30 26043 C 2421.46 -4.80934 -2.00878 0
M  V30 26044 C 2418.79 -5.58437 -1.79904 0
M  V30 26045 C 2421.14 -6.11068 -1.63642 0
M  V30 26046 C 2419.8 -6.49822 -1.52603 0
M  V30 26047 H 2419.07 -0.528526 -0.519367 0
M  V30 26048 H 2421.72 -1.76184 -0.750422 0
M  V30 26049 H 2420.02 -2.04501 -3.34195 0
M  V30 26050 H 2421.72 -2.41125 -3.20406 0
M  V30 26051 H 2418.31 -3.5741 -2.3655 0
M  V30 26052 H 2422.5 -4.50983 -2.0719 0
M  V30 26053 H 2417.75 -5.87308 -1.69938 0
M  V30 26054 H 2421.93 -6.81867 -1.41531 0
M  V30 26055 H 2419.55 -7.50288 -1.22358 0
M  V30 26056 N 2421.13 0.897149 -1.29572 0
M  V30 26057 C 2422.08 2.02293 -1.14805 0
M  V30 26058 C 2423.07 1.69283 -0.0629934 0
M  V30 26059 O 2424.28 1.78614 -0.222976 0
M  V30 26060 H 2420.65 0.663091 -0.354703 0
M  V30 26061 H 2422.62 2.11886 -2.10112 0
M  V30 26062 C 2421.37 3.373 -0.844025 0
M  V30 26063 H 2420.69 3.63205 -1.67099 0
M  V30 26064 H 2422.13 4.1675 -0.780745 0
M  V30 26065 C 2420.59 3.33843 0.452785 0
M  V30 26066 O 2421.12 3.73519 1.47806 0
M  V30 26067 N 2419.33 2.86943 0.459551 0
M  V30 26068 H 2418.88 2.54852 -0.375258 0
M  V30 26069 H 2418.83 2.85013 1.32721 0
M  V30 26070 N 2422.61 1.1209 1.10786 0
M  V30 26071 C 2423.83 0.896684 1.8646 0
M  V30 26072 C 2424.25 -0.55388 1.80493 0
M  V30 26073 O 2423.61 -1.38276 1.19105 0
M  V30 26074 C 2423.66 1.35849 3.35004 0
M  V30 26075 O 2423.38 2.75219 3.40861 0
M  V30 26076 C 2424.88 1.17067 4.27563 0
M  V30 26077 H 2422.1 0.320664 0.58942 0
M  V30 26078 H 2424.64 1.48995 1.40074 0
M  V30 26079 H 2422.8 0.808525 3.78869 0
M  V30 26080 H 2423.21 2.95397 4.33406 0
M  V30 26081 H 2424.69 1.54272 5.30004 0
M  V30 26082 H 2425.16 0.110891 4.3906 0
M  V30 26083 H 2425.77 1.70796 3.89498 0
M  V30 26084 N 2424.08 -1.28513 0.912254 0
M  V30 26085 C 2425.01 -2.29756 0.416443 0
M  V30 26086 C 2425.99 -1.62111 -0.515166 0
M  V30 26087 O 2427.18 -1.89532 -0.423219 0
M  V30 26088 C 2424.31 -3.45576 -0.345659 0
M  V30 26089 C 2423.26 -4.25108 0.496674 0
M  V30 26090 C 2422.59 -5.33249 -0.393678 0
M  V30 26091 C 2423.89 -4.91998 1.75316 0
M  V30 26092 H 2425.58 -2.71478 1.26254 0
M  V30 26093 H 2423.13 -1.3051 0.608538 0
M  V30 26094 H 2425.08 -4.15489 -0.703349 0
M  V30 26095 H 2423.81 -3.0273 -1.22565 0
M  V30 26096 H 2422.47 -3.5692 0.836863 0
M  V30 26097 H 2422.11 -4.86647 -1.27217 0
M  V30 26098 H 2421.81 -5.87365 0.166312 0
M  V30 26099 H 2423.34 -6.0601 -0.747283 0
M  V30 26100 H 2424.75 -5.5428 1.46446 0
M  V30 26101 H 2423.15 -5.56102 2.25544 0
M  V30 26102 H 2424.22 -4.16573 2.48184 0
M  V30 26103 N 2425.56 -0.676073 -1.42362 0
M  V30 26104 C 2426.47 0.00149265 -2.346 0
M  V30 26105 C 2427.49 0.787458 -1.55162 0
M  V30 26106 O 2428.66 0.729488 -1.87724 0
M  V30 26107 C 2425.73 0.940239 -3.33707 0
M  V30 26108 C 2424.79 0.148664 -4.29043 0
M  V30 26109 C 2424.02 1.0427 -5.23415 0
M  V30 26110 O 2424.25 2.28222 -5.22753 0
M  V30 26111 O 2423.18 0.50282 -5.99796 0
M  V30 26112 H 2427.01 -0.758319 -2.9408 0
M  V30 26113 H 2424.59 -0.436314 -1.42887 0
M  V30 26114 H 2426.47 1.4791 -3.94589 0
M  V30 26115 H 2425.15 1.67988 -2.76698 0
M  V30 26116 H 2424.06 -0.434335 -3.7157 0
M  V30 26117 H 2425.39 -0.551891 -4.89096 0
M  V30 26118 N 2427.04 1.51915 -0.419488 0
M  V30 26119 C 2428.27 2.0634 0.1521 0
M  V30 26120 C 2428.68 1.28861 1.37986 0
M  V30 26121 O 2428.04 0.343263 1.79243 0
M  V30 26122 C 2428.09 3.58134 0.492203 0
M  V30 26123 O 2427.81 4.32683 -0.686812 0
M  V30 26124 C 2429.31 4.29012 1.1164 0
M  V30 26125 H 2426.53 0.670813 0.0158207 0
M  V30 26126 H 2429.08 1.957 -0.593428 0
M  V30 26127 H 2427.23 3.68747 1.18762 0
M  V30 26128 H 2427.65 5.22969 -0.400433 0
M  V30 26129 H 2429.12 5.36364 1.3045 0
M  V30 26130 H 2429.6 3.86152 2.09244 0
M  V30 26131 H 2430.2 4.22795 0.460884 0
M  V30 26132 N 2428.52 0.150242 1.56882 0
M  V30 26133 C 2429.47 -0.805274 2.18216 0
M  V30 26134 C 2430.46 -1.25294 1.14008 0
M  V30 26135 O 2431.67 -1.22104 1.32252 0
M  V30 26136 H 2428.04 -0.277901 0.698767 0
M  V30 26137 H 2430.01 -0.26381 2.97232 0
M  V30 26138 C 2428.76 -2.03304 2.82069 0
M  V30 26139 H 2428.08 -1.69756 3.61971 0
M  V30 26140 H 2429.52 -2.68097 3.28481 0
M  V30 26141 C 2427.98 -2.84312 1.80744 0
M  V30 26142 O 2428.51 -3.80764 1.27989 0
M  V30 26143 N 2426.72 -2.4891 1.49974 0
M  V30 26144 H 2426.27 -1.70539 1.93065 0
M  V30 26145 H 2426.22 -3.03403 0.82427 0
M  V30 26146 N 2430 -1.57115 -0.123538 0
M  V30 26147 C 2431.23 -1.8852 -0.8452 0
M  V30 26148 C 2431.63 -0.739095 -1.74167 0
M  V30 26149 O 2430.98 0.299323 -1.81245 0
M  V30 26150 C 2431.04 -3.14891 -1.73446 0
M  V30 26151 C 2430.7 -4.45637 -1.01277 0
M  V30 26152 C 2431.7 -5.18682 -0.355683 0
M  V30 26153 C 2429.39 -4.92341 -0.995293 0
M  V30 26154 C 2431.38 -6.36649 0.309226 0
M  V30 26155 C 2429.07 -6.10227 -0.326583 0
M  V30 26156 C 2430.06 -6.82229 0.324526 0
M  V30 26157 O 2429.75 -7.97873 0.982578 0
M  V30 26158 H 2429.48 -0.628659 -0.248523 0
M  V30 26159 H 2432.04 -2.05084 -0.113871 0
M  V30 26160 H 2430.27 -2.94398 -2.50732 0
M  V30 26161 H 2431.96 -3.32354 -2.33015 0
M  V30 26162 H 2432.72 -4.83656 -0.360833 0
M  V30 26163 H 2428.6 -4.36205 -1.49151 0
M  V30 26164 H 2432.15 -6.92787 0.818022 0
M  V30 26165 H 2428.04 -6.4471 -0.319181 0
M  V30 26166 H 2428.81 -8.13684 0.886597 0
M  V30 26167 N 2431.47 0.393589 -1.52606 0
M  V30 26168 C 2432.7 1.1604 -1.71296 0
M  V30 26169 C 2433.12 1.83855 -0.429292 0
M  V30 26170 O 2432.47 1.72498 0.595891 0
M  V30 26171 C 2432.53 2.21188 -2.85934 0
M  V30 26172 O 2432.25 1.56138 -4.09332 0
M  V30 26173 C 2433.75 3.10631 -3.16265 0
M  V30 26174 H 2430.97 0.348094 -0.573647 0
M  V30 26175 H 2433.51 0.461057 -1.99235 0
M  V30 26176 H 2431.67 2.86765 -2.6047 0
M  V30 26177 H 2432.08 2.2597 -4.73326 0
M  V30 26178 H 2433.55 3.80449 -3.99953 0
M  V30 26179 H 2434.03 3.7388 -2.30457 0
M  V30 26180 H 2434.64 2.50704 -3.43551 0
M  V30 26181 N 2432.95 1.43492 0.651762 0
M  V30 26182 C 2433.88 1.51572 1.77618 0
M  V30 26183 C 2434.86 0.370282 1.66021 0
M  V30 26184 O 2436.05 0.587691 1.85094 0
M  V30 26185 C 2433.18 1.43971 3.16053 0
M  V30 26186 C 2432.13 2.5678 3.42415 0
M  V30 26187 C 2431.46 2.34232 4.80666 0
M  V30 26188 C 2432.76 3.99021 3.37016 0
M  V30 26189 H 2434.45 2.45684 1.71113 0
M  V30 26190 H 2432 1.18247 0.821804 0
M  V30 26191 H 2433.95 1.48228 3.9447 0
M  V30 26192 H 2432.68 0.463643 3.23292 0
M  V30 26193 H 2431.33 2.51878 2.6637 0
M  V30 26194 H 2430.98 1.34865 4.84583 0
M  V30 26195 H 2430.68 3.09852 4.99265 0
M  V30 26196 H 2432.21 2.40275 5.61338 0
M  V30 26197 H 2433.62 4.05402 4.05367 0
M  V30 26198 H 2432.02 4.74679 3.67151 0
M  V30 26199 H 2433.09 4.24054 2.35173 0
M  V30 26200 N 2434.43 -0.890264 1.30046 0
M  V30 26201 C 2435.66 -1.67242 1.21299 0
M  V30 26202 C 2436.07 -1.87828 -0.227438 0
M  V30 26203 O 2435.41 -1.42202 -1.16293 0
M  V30 26204 C 2435.47 -3.07325 1.86524 0
M  V30 26205 C 2435.14 -3.09933 3.35843 0
M  V30 26206 C 2436.13 -2.89381 4.3192 0
M  V30 26207 C 2433.82 -3.31699 3.77202 0
M  V30 26208 C 2435.81 -2.90543 5.6733 0
M  V30 26209 C 2433.5 -3.3249 5.12731 0
M  V30 26210 C 2434.5 -3.11936 6.07606 0
M  V30 26211 O 2434.19 -3.12534 7.4066 0
M  V30 26212 H 2433.92 -0.528813 0.421109 0
M  V30 26213 H 2436.47 -1.121 1.72113 0
M  V30 26214 H 2434.7 -3.6411 1.30234 0
M  V30 26215 H 2436.39 -3.6767 1.71969 0
M  V30 26216 H 2437.16 -2.72368 4.01299 0
M  V30 26217 H 2433.04 -3.46735 3.03802 0
M  V30 26218 H 2436.58 -2.74418 6.41359 0
M  V30 26219 H 2432.48 -3.49038 5.42994 0
M  V30 26220 H 2433.25 -3.28736 7.49583 0
M  V30 26221 N 2435.91 -1.12676 -1.1019 0
M  V30 26222 C 2437.15 -0.884947 -1.82473 0
M  V30 26223 C 2437.49 0.587698 -1.85094 0
M  V30 26224 O 2436.76 1.43455 -1.31343 0
M  V30 26225 C 2437.05 -1.46359 -3.29015 0
M  V30 26226 C 2436.9 -3.00479 -3.34713 0
M  V30 26227 C 2438.22 -1.12526 -4.25471 0
M  V30 26228 H 2435.34 -0.322926 -0.662486 0
M  V30 26229 H 2437.98 -1.39378 -1.29127 0
M  V30 26230 H 2436.13 -1.03084 -3.74574 0
M  V30 26231 H 2437.8 -3.52452 -2.97616 0
M  V30 26232 H 2436.04 -3.35877 -2.74535 0
M  V30 26233 H 2436.71 -3.36061 -4.37912 0
M  V30 26234 H 2439.19 -1.49907 -3.88159 0
M  V30 26235 H 2438.07 -1.55672 -5.26362 0
M  V30 26236 H 2438.33 -0.0378184 -4.42084 0
M  V30 26237 N 2437.39 1.28028 -0.919057 0
M  V30 26238 C 2438.63 1.94362 -0.553872 0
M  V30 26239 C 2438.96 1.72658 0.906326 0
M  V30 26240 O 2438.23 1.06933 1.64141 0
M  V30 26241 H 2436.81 0.719213 -0.201847 0
M  V30 26242 H 2439.47 1.55907 -1.16957 0
M  V30 26243 H 2438.56 3.02885 -0.752811 0
M  V30 26244 N 2438.86 0.683613 1.42002 0
M  V30 26245 C 2439.81 -0.000774523 2.326 0
M  V30 26246 C 2440.81 -0.781252 1.50309 0
M  V30 26247 O 2442.01 -0.688221 1.66324 0
M  V30 26248 H 2438.39 -0.0190484 0.751759 0
M  V30 26249 H 2440.36 0.780578 2.8801 0
M  V30 26250 C 2439.11 -0.931891 3.34979 0
M  V30 26251 H 2438.43 -0.340747 3.98345 0
M  V30 26252 H 2439.87 -1.37929 4.00938 0
M  V30 26253 C 2438.33 -2.04245 2.67929 0
M  V30 26254 O 2438.86 -3.12991 2.51793 0
M  V30 26255 N 2437.07 -1.81671 2.26813 0
M  V30 26256 H 2436.61 -0.932321 2.40136 0
M  V30 26257 H 2436.57 -2.56164 1.82284 0
M  V30 26258 N 2440.34 -1.5169 0.427538 0
M  V30 26259 C 2441.76 -1.59403 0.0793258 0
M  V30 26260 C 2441.96 -1.43917 -1.41033 0
M  V30 26261 O 2441.02 -1.27543 -2.1792 0
M  V30 26262 C 2442.33 -2.94841 0.590688 0
M  V30 26263 C 2443.88 -3.08125 0.550269 0
M  V30 26264 C 2444.35 -4.46072 1.03844 0
M  V30 26265 N 2445.84 -4.52364 0.996023 0
M  V30 26266 C 2446.58 -5.57409 1.34473 0
M  V30 26267 N 2446.07 -6.69919 1.76581 0
M  V30 26268 N 2447.87 -5.47715 1.26352 0
M  V30 26269 H 2440.02 -1.60002 1.39689 0
M  V30 26270 H 2442.28 -0.753698 0.575016 0
M  V30 26271 H 2441.99 -3.11513 1.63257 0
M  V30 26272 H 2441.86 -3.77199 0.0102724 0
M  V30 26273 H 2444.25 -2.91127 -0.482603 0
M  V30 26274 H 2444.33 -2.2763 1.16697 0
M  V30 26275 H 2443.97 -4.63815 2.06973 0
M  V30 26276 H 2443.9 -5.25091 0.398378 0
M  V30 26277 H 2446.39 -3.71609 0.686675 0
M  V30 26278 H 2446.71 -7.46081 2.01451 0
M  V30 26279 H 2445.05 -6.71152 1.80499 0
M  V30 26280 H 2448.24 -4.58702 0.933289 0
M  V30 26281 H 2448.42 -6.2947 1.53857 0
M  V30 26282 N 2441.82 -0.15856 -1.568 0
M  V30 26283 C 2442.75 0.807885 -2.1449 0
M  V30 26284 C 2443.77 1.20269 -1.09723 0
M  V30 26285 O 2444.96 1.14476 -1.36958 0
M  V30 26286 C 2442.06 2.09713 -2.66221 0
M  V30 26287 C 2441.23 1.86789 -3.95511 0
M  V30 26288 C 2440.29 2.99811 -4.32435 0
M  V30 26289 O 2439.31 2.70999 -5.00548 0
M  V30 26290 N 2440.52 4.27279 -3.92955 0
M  V30 26291 H 2443.28 0.314764 -2.98042 0
M  V30 26292 H 2440.84 0.0246408 -1.61881 0
M  V30 26293 H 2442.83 2.84393 -2.87929 0
M  V30 26294 H 2441.4 2.50253 -1.87329 0
M  V30 26295 H 2440.62 0.960823 -3.82311 0
M  V30 26296 H 2441.91 1.68824 -4.79975 0
M  V30 26297 H 2441.31 4.53551 -3.38095 0
M  V30 26298 H 2439.87 4.98702 -4.1969 0
M  V30 26299 N 2443.3 1.57178 0.115204 0
M  V30 26300 C 2444.25 2.01604 1.16011 0
M  V30 26301 C 2445.24 0.913612 1.42652 0
M  V30 26302 O 2446.45 1.09882 1.42569 0
M  V30 26303 H 2442.82 0.642211 0.391241 0
M  V30 26304 H 2444.79 2.88587 0.758947 0
M  V30 26305 C 2443.54 2.43944 2.47763 0
M  V30 26306 H 2442.87 3.28343 2.28102 0
M  V30 26307 H 2444.31 2.78824 3.19427 0
M  V30 26308 C 2442.76 1.3046 3.10615 0
M  V30 26309 O 2443.29 0.622654 3.96845 0
M  V30 26310 N 2441.5 1.06069 2.70551 0
M  V30 26311 H 2441.05 1.61703 2.00524 0
M  V30 26312 H 2441.01 0.303339 3.12933 0
M  V30 26313 N 2444.78 -0.38549 1.52813 0
M  V30 26314 C 2445.71 -1.49286 1.72595 0
M  V30 26315 C 2446.69 -1.52137 0.573846 0
M  V30 26316 O 2447.87 -1.7049 0.80407 0
M  V30 26317 C 2445 -2.87738 1.78674 0
M  V30 26318 C 2444.05 -3.02698 3.0046 0
M  V30 26319 S 2444.88 -2.7353 4.60371 0
M  V30 26320 C 2446.03 -4.14169 4.6927 0
M  V30 26321 H 2446.27 -1.32281 2.6625 0
M  V30 26322 H 2443.8 -0.578586 1.43149 0
M  V30 26323 H 2445.76 -3.67521 1.82862 0
M  V30 26324 H 2444.42 -3.02067 0.861054 0
M  V30 26325 H 2443.61 -4.04049 3.01265 0
M  V30 26326 H 2443.21 -2.30812 2.94282 0
M  V30 26327 H 2445.51 -5.08145 4.48101 0
M  V30 26328 H 2446.45 -4.18378 5.71284 0
M  V30 26329 H 2446.86 -4.00242 3.98079 0
M  V30 26330 N 2446.26 -1.43835 -0.644143 0
M  V30 26331 C 2447.5 -1.45216 -1.39983 0
M  V30 26332 C 2447.82 -0.0835837 -1.95421 0
M  V30 26333 O 2449.02 0.025127 -2.71488 0
M  V30 26334 C 2447.48 -2.55592 -2.53379 0
M  V30 26335 C 2447.09 -3.98597 -2.0451 0
M  V30 26336 C 2448.83 -2.66178 -3.30681 0
M  V30 26337 C 2446.74 -5.00421 -3.15171 0
M  V30 26338 H 2445.67 -0.540227 -0.525995 0
M  V30 26339 H 2448.32 -1.69856 -0.694337 0
M  V30 26340 H 2446.7 -2.24168 -3.26442 0
M  V30 26341 H 2447.88 -4.39526 -1.38398 0
M  V30 26342 H 2446.19 -3.92137 -1.40061 0
M  V30 26343 H 2448.79 -3.39426 -4.13152 0
M  V30 26344 H 2449.13 -1.71552 -3.79309 0
M  V30 26345 H 2449.66 -2.96947 -2.64703 0
M  V30 26346 H 2446.4 -5.9663 -2.71501 0
M  V30 26347 H 2445.92 -4.64097 -3.79965 0
M  V30 26348 H 2447.6 -5.23536 -3.80157 0
M  V30 26349 N 2447.73 0.883355 -1.30517 0
M  V30 26350 C 2448.98 1.63772 -1.1961 0
M  V30 26351 C 2449.31 1.92606 0.24828 0
M  V30 26352 O 2448.59 1.54815 1.1774 0
M  V30 26353 C 2448.87 2.9765 -2.02674 0
M  V30 26354 C 2448.72 2.75778 -3.5534 0
M  V30 26355 C 2450.04 3.98592 -1.8658 0
M  V30 26356 H 2447.16 0.594298 -0.435866 0
M  V30 26357 H 2449.8 1.02209 -1.60166 0
M  V30 26358 H 2447.95 3.50194 -1.68215 0
M  V30 26359 H 2449.63 2.30009 -3.99867 0
M  V30 26360 H 2447.87 2.10253 -3.79442 0
M  V30 26361 H 2448.54 3.7098 -4.08751 0
M  V30 26362 H 2451.02 3.55213 -2.1671 0
M  V30 26363 H 2449.89 4.90174 -2.47023 0
M  V30 26364 H 2450.15 4.34327 -0.825398 0
M  V30 26365 N 2449.21 1.13259 1.09591 0
M  V30 26366 C 2450.12 0.82173 2.19738 0
M  V30 26367 C 2451.14 -0.19299 1.72926 0
M  V30 26368 O 2452.31 -0.0244541 2.01385 0
M  V30 26369 C 2449.38 0.290394 3.45482 0
M  V30 26370 C 2448.44 1.36614 4.06983 0
M  V30 26371 C 2447.67 0.860067 5.26724 0
M  V30 26372 O 2447.9 -0.302981 5.69595 0
M  V30 26373 O 2446.83 1.63362 5.79307 0
M  V30 26374 H 2450.66 1.74193 2.48778 0
M  V30 26375 H 2448.24 0.909915 1.18494 0
M  V30 26376 H 2450.12 -0.00059995 4.214 0
M  V30 26377 H 2448.8 -0.60225 3.18048 0
M  V30 26378 H 2447.7 1.71043 3.32709 0
M  V30 26379 H 2449.04 2.23287 4.38639 0
M  V30 26380 N 2450.69 -1.27539 0.925834 0
M  V30 26381 C 2452.1 -1.76449 0.610133 0
M  V30 26382 C 2452.45 -1.75623 -0.874692 0
M  V30 26383 O 2451.58 -1.35854 -1.68442 0
M  V30 26384 C 2452.17 -3.20419 1.10079 0
M  V30 26385 C 2450.73 -3.67003 0.835787 0
M  V30 26386 C 2449.88 -2.46991 1.26058 0
M  V30 26387 H 2452.83 -1.13831 1.10581 0
M  V30 26388 H 2452.85 -3.77858 0.447624 0
M  V30 26389 H 2452.36 -3.20987 2.18148 0
M  V30 26390 H 2450.46 -3.71882 -0.231184 0
M  V30 26391 H 2450.58 -4.56567 1.45201 0
M  V30 26392 H 2448.94 -2.45478 0.679154 0
M  V30 26393 H 2449.72 -2.50271 2.34988 0
M  V30 26394 N 2452.17 -0.691135 -1.41637 0
M  V30 26395 C 2453.12 -0.0115608 -2.32597 0
M  V30 26396 C 2454.11 0.773269 -1.50721 0
M  V30 26397 O 2455.32 0.679391 -1.66686 0
M  V30 26398 H 2451.69 0.0150613 -0.751849 0
M  V30 26399 H 2453.66 -0.795841 -2.87592 0
M  V30 26400 C 2452.41 0.914113 -3.35469 0
M  V30 26401 H 2451.73 0.319617 -3.9852 0
M  V30 26402 H 2453.17 1.35801 -4.01664 0
M  V30 26403 C 2451.63 2.02821 -2.69008 0
M  V30 26404 O 2452.16 3.11651 -2.53449 0
M  V30 26405 N 2450.37 1.80465 -2.27773 0
M  V30 26406 H 2449.92 0.919573 -2.40628 0
M  V30 26407 H 2449.87 2.55193 -1.8364 0
M  V30 26408 N 2453.65 1.51461 -0.435577 0
M  V30 26409 C 2454.88 2.0619 0.130017 0
M  V30 26410 C 2455.28 1.3032 1.37162 0
M  V30 26411 O 2454.63 0.35563 1.80225 0
M  V30 26412 C 2454.69 3.55729 0.519356 0
M  V30 26413 C 2454.35 4.5284 -0.615198 0
M  V30 26414 C 2455.35 4.98187 -1.4868 0
M  V30 26415 C 2453.03 4.95962 -0.795428 0
M  V30 26416 C 2455.03 5.85326 -2.52334 0
M  V30 26417 C 2452.72 5.82891 -1.83525 0
M  V30 26418 C 2453.71 6.2747 -2.69759 0
M  V30 26419 O 2453.4 7.12674 -3.71956 0
M  V30 26420 H 2453.13 0.675891 0.0121494 0
M  V30 26421 H 2455.69 1.96042 -0.612935 0
M  V30 26422 H 2453.92 3.63655 1.31499 0
M  V30 26423 H 2455.61 3.92981 1.0159 0
M  V30 26424 H 2456.37 4.65568 -1.35908 0
M  V30 26425 H 2452.25 4.60806 -0.133794 0
M  V30 26426 H 2455.8 6.20043 -3.19676 0
M  V30 26427 H 2451.69 6.14923 -1.96317 0
M  V30 26428 H 2452.46 7.30848 -3.68516 0
M  V30 26429 N 2455.12 0.166873 1.56714 0
M  V30 26430 C 2456.4 -0.52534 1.88413 0
M  V30 26431 C 2456.78 -1.81616 1.07606 0
M  V30 26432 O 2456.13 -2.27877 0.168661 0
M  V30 26433 C 2456.34 -0.771553 3.40365 0
M  V30 26434 C 2457.69 -1.10353 4.10009 0
M  V30 26435 O 2458.71 -0.860243 3.45656 0
M  V30 26436 O 2457.57 -1.56229 5.23693 0
M  V30 26437 H 2454.66 -0.270265 0.781592 0
M  V30 26438 H 2457.21 0.204976 1.68458 0
M  V30 26439 H 2455.98 0.141162 3.91045 0
M  V30 26440 H 2455.61 -1.55535 3.65916 0
M  V30 26441 N 2456.6 -1.57237 -0.106866 0
M  V30 26442 C 2457.53 -2.04256 -1.13145 0
M  V30 26443 C 2458.51 -0.929249 -1.42474 0
M  V30 26444 O 2459.7 -1.19976 -1.52707 0
M  V30 26445 C 2456.83 -2.4571 -2.45446 0
M  V30 26446 C 2455.78 -3.60597 -2.30552 0
M  V30 26447 C 2455.11 -3.87989 -3.67925 0
M  V30 26448 C 2456.41 -4.919 -1.75588 0
M  V30 26449 H 2458.1 -2.90103 -0.740323 0
M  V30 26450 H 2455.65 -1.39564 -0.354672 0
M  V30 26451 H 2457.6 -2.7721 -3.17384 0
M  V30 26452 H 2456.33 -1.56848 -2.86472 0
M  V30 26453 H 2454.98 -3.29325 -1.61061 0
M  V30 26454 H 2454.63 -2.96314 -4.06457 0
M  V30 26455 H 2454.33 -4.65328 -3.58808 0
M  V30 26456 H 2455.86 -4.21953 -4.41348 0
M  V30 26457 H 2457.27 -5.21858 -2.37355 0
M  V30 26458 H 2455.67 -5.73322 -1.77262 0
M  V30 26459 H 2456.74 -4.79609 -0.714367 0
M  V30 26460 N 2458.08 0.377381 -1.53015 0
M  V30 26461 C 2459.36 1.13619 -1.59217 0
M  V30 26462 C 2459.74 2.0742 -0.392444 0
M  V30 26463 O 2459.09 2.19976 0.618303 0
M  V30 26464 C 2459.3 1.88568 -2.93672 0
M  V30 26465 C 2460.64 2.43519 -3.47827 0
M  V30 26466 O 2461.67 1.9871 -2.95623 0
M  V30 26467 O 2460.53 3.25404 -4.39061 0
M  V30 26468 H 2457.62 0.520529 -0.642634 0
M  V30 26469 H 2460.17 0.381596 -1.65354 0
M  V30 26470 H 2458.94 1.20042 -3.72432 0
M  V30 26471 H 2458.56 2.70963 -2.90972 0
M  V30 26472 N 2459.56 1.44175 0.636506 0
M  V30 26473 C 2460.84 1.3715 1.3946 0
M  V30 26474 C 2461.22 0.0275441 2.11082 0
M  V30 26475 O 2460.56 -0.98968 2.05955 0
M  V30 26476 C 2460.77 2.56605 2.36548 0
M  V30 26477 C 2462.12 3.00433 3.00042 0
M  V30 26478 O 2463.15 2.56772 2.46874 0
M  V30 26479 O 2462 3.76118 3.96481 0
M  V30 26480 H 2459.1 0.54285 0.623893 0
M  V30 26481 H 2461.64 1.56255 0.662012 0
M  V30 26482 H 2460.42 3.46037 1.82686 0
M  V30 26483 H 2460.04 2.39687 3.17232 0
M  V30 26484 N 2461.04 -0.876421 1.30983 0
M  V30 26485 C 2462.26 -1.66713 1.23376 0
M  V30 26486 C 2462.69 -1.87046 -0.198817 0
M  V30 26487 O 2462.04 -1.40758 -1.14267 0
M  V30 26488 C 2462.09 -3.01608 1.97649 0
M  V30 26489 O 2461.2 -3.9106 1.30942 0
M  V30 26490 H 2460.54 -0.509092 0.426288 0
M  V30 26491 H 2463.07 -1.0932 1.72946 0
M  V30 26492 H 2463.08 -3.5159 2.06998 0
M  V30 26493 H 2461.75 -2.86128 3.01834 0
M  V30 26494 H 2460.33 -3.49505 1.30003 0
M  V30 26495 N 2462.51 -1.13839 -1.08989 0
M  V30 26496 C 2463.76 -0.90113 -1.80898 0
M  V30 26497 C 2464.08 0.574101 -1.86357 0
M  V30 26498 O 2463.35 1.41731 -1.35237 0
M  V30 26499 H 2461.93 -0.330398 -0.66996 0
M  V30 26500 H 2464.6 -1.43581 -1.31798 0
M  V30 26501 H 2463.69 -1.29583 -2.83927 0
M  V30 26502 N 2463.99 1.27046 -0.932584 0
M  V30 26503 C 2465.27 1.89264 -0.493803 0
M  V30 26504 C 2465.65 1.84362 1.0283 0
M  V30 26505 O 2465 1.29212 1.88458 0
M  V30 26506 C 2465.21 3.32975 -1.04542 0
M  V30 26507 C 2466.56 4.09865 -1.10886 0
M  V30 26508 O 2467.58 3.42009 -0.995387 0
M  V30 26509 O 2466.44 5.31196 -1.28427 0
M  V30 26510 H 2463.53 0.811452 -0.15961 0
M  V30 26511 H 2466.08 1.35278 -1.02459 0
M  V30 26512 H 2464.85 3.30861 -2.08919 0
M  V30 26513 H 2464.47 3.94487 -0.496564 0
M  V30 26514 N 2465.47 0.698636 1.41269 0
M  V30 26515 C 2466.72 0.227984 2.00407 0
M  V30 26516 C 2467.03 -1.1802 1.55983 0
M  V30 26517 O 2468.24 -1.74848 2.07702 0
M  V30 26518 C 2466.69 0.356699 3.58128 0
M  V30 26519 C 2466.3 1.77045 4.11533 0
M  V30 26520 C 2468.05 -0.0540223 4.24466 0
M  V30 26521 C 2465.95 1.85065 5.61698 0
M  V30 26522 H 2464.88 0.0814788 0.749585 0
M  V30 26523 H 2467.53 0.867277 1.61711 0
M  V30 26524 H 2465.92 -0.350896 3.94442 0
M  V30 26525 H 2467.09 2.50705 3.86631 0
M  V30 26526 H 2465.41 2.13112 3.57732 0
M  V30 26527 H 2468 -0.0145783 5.34698 0
M  V30 26528 H 2468.35 -1.09325 4.01689 0
M  V30 26529 H 2468.88 0.603406 3.93197 0
M  V30 26530 H 2465.62 2.87051 5.89307 0
M  V30 26531 H 2465.14 1.15794 5.88517 0
M  V30 26532 H 2466.82 1.61495 6.26521 0
M  V30 26533 N 2466.95 -1.51228 0.443603 0
M  V30 26534 C 2468.17 -2.07043 -0.121612 0
M  V30 26535 C 2468.6 -1.30825 -1.35153 0
M  V30 26536 O 2467.96 -0.347965 -1.77929 0
M  V30 26537 C 2468 -3.5819 -0.416177 0
M  V30 26538 O 2467.11 -3.84092 -1.50156 0
M  V30 26539 H 2466.45 -0.663999 0.000883038 0
M  V30 26540 H 2468.98 -1.94764 0.626741 0
M  V30 26541 H 2468.99 -4.02547 -0.664797 0
M  V30 26542 H 2467.66 -4.13089 0.482725 0
M  V30 26543 H 2466.24 -3.51594 -1.24241 0
M  V30 26544 N 2468.43 -0.175182 -1.56623 0
M  V30 26545 C 2469.65 0.478102 -2.01814 0
M  V30 26546 C 2470.08 1.55755 -1.0546 0
M  V30 26547 O 2469.43 1.81267 -0.0347758 0
M  V30 26548 C 2469.48 1.02981 -3.45583 0
M  V30 26549 O 2468.59 2.14364 -3.52309 0
M  V30 26550 H 2467.93 0.114047 -0.654132 0
M  V30 26551 H 2470.46 -0.280209 -2.02672 0
M  V30 26552 H 2470.47 1.35145 -3.84967 0
M  V30 26553 H 2469.14 0.239483 -4.1521 0
M  V30 26554 H 2467.72 1.83216 -3.24786 0
M  V30 26555 N 2469.91 1.57292 0.0985263 0
M  V30 26556 C 2471.13 1.90117 0.816285 0
M  V30 26557 C 2471.55 0.768539 1.7245 0
M  V30 26558 O 2470.91 -0.259655 1.80643 0
M  V30 26559 C 2470.96 3.22538 1.63253 0
M  V30 26560 O 2470.68 4.31442 0.760859 0
M  V30 26561 C 2472.18 3.69203 2.45365 0
M  V30 26562 H 2469.4 0.629031 0.233584 0
M  V30 26563 H 2471.94 2.04356 0.076787 0
M  V30 26564 H 2470.1 3.09907 2.32457 0
M  V30 26565 H 2470.51 5.07466 1.32586 0
M  V30 26566 H 2471.99 4.64563 2.98136 0
M  V30 26567 H 2472.46 2.96873 3.23672 0
M  V30 26568 H 2473.07 3.8469 1.81367 0
M  V30 26569 N 2471.38 -0.369261 1.53213 0
M  V30 26570 C 2472.63 -1.11394 1.69468 0
M  V30 26571 C 2472.96 -1.89073 0.44329 0
M  V30 26572 O 2472.24 -1.86283 -0.559354 0
M  V30 26573 C 2472.52 -2.07616 2.94224 0
M  V30 26574 C 2472.37 -1.3357 4.2951 0
M  V30 26575 C 2473.69 -3.07788 3.1457 0
M  V30 26576 H 2470.81 -0.403586 0.616674 0
M  V30 26577 H 2473.45 -0.395147 1.85846 0
M  V30 26578 H 2471.6 -2.68911 2.80391 0
M  V30 26579 H 2473.28 -0.750875 4.55148 0
M  V30 26580 H 2471.52 -0.637542 4.2909 0
M  V30 26581 H 2472.19 -2.0398 5.12929 0
M  V30 26582 H 2474.67 -2.56595 3.27564 0
M  V30 26583 H 2473.54 -3.72341 4.03303 0
M  V30 26584 H 2473.8 -3.77755 2.29682 0
M  V30 26585 N 2472.86 -1.4451 -0.628851 0
M  V30 26586 C 2474.11 -1.46693 -1.38435 0
M  V30 26587 C 2474.42 -0.104306 -1.95322 0
M  V30 26588 O 2475.63 -0.00366935 -2.715 0
M  V30 26589 C 2474.09 -2.58265 -2.50654 0
M  V30 26590 C 2473.69 -4.00744 -2.0027 0
M  V30 26591 C 2475.44 -2.6967 -3.27839 0
M  V30 26592 C 2473.34 -5.03736 -3.09845 0
M  V30 26593 H 2472.27 -0.545775 -0.520236 0
M  V30 26594 H 2474.93 -1.70583 -0.676283 0
M  V30 26595 H 2473.31 -2.27618 -3.24046 0
M  V30 26596 H 2474.48 -4.40969 -1.33728 0
M  V30 26597 H 2472.8 -3.93601 -1.35894 0
M  V30 26598 H 2475.39 -3.43789 -4.09528 0
M  V30 26599 H 2475.74 -1.75566 -3.77468 0
M  V30 26600 H 2476.27 -2.99738 -2.61538 0
M  V30 26601 H 2473.01 -5.99476 -2.65157 0
M  V30 26602 H 2472.53 -4.68101 -3.75022 0
M  V30 26603 H 2474.21 -5.27538 -3.74583 0
M  V30 26604 N 2474.34 0.869463 -1.31446 0
M  V30 26605 C 2475.29 1.99812 -1.1907 0
M  V30 26606 C 2476.28 1.69111 -0.0988866 0
M  V30 26607 O 2477.49 1.781 -0.260813 0
M  V30 26608 H 2473.86 0.655418 -0.368688 0
M  V30 26609 H 2475.83 2.07381 -2.14559 0
M  V30 26610 C 2474.58 3.35434 -0.915382 0
M  V30 26611 H 2473.91 3.59579 -1.74766 0
M  V30 26612 H 2475.35 4.15 -0.868968 0
M  V30 26613 C 2473.8 3.34729 0.38187 0
M  V30 26614 O 2474.33 3.7657 1.3985 0
M  V30 26615 N 2472.54 2.87854 0.398582 0
M  V30 26616 H 2472.09 2.53999 -0.429231 0
M  V30 26617 H 2472.05 2.87764 1.26646 0
M  V30 26618 N 2475.82 1.14415 1.08383 0
M  V30 26619 C 2477.06 0.912514 1.80775 0
M  V30 26620 C 2477.39 -0.560902 1.86237 0
M  V30 26621 O 2476.65 -1.43157 1.33434 0
M  V30 26622 C 2476.95 1.45885 3.2627 0
M  V30 26623 C 2476.61 2.95095 3.40925 0
M  V30 26624 C 2475.27 3.35831 3.44632 0
M  V30 26625 C 2477.63 3.91039 3.44584 0
M  V30 26626 C 2474.95 4.71173 3.49589 0
M  V30 26627 C 2477.31 5.26239 3.51077 0
M  V30 26628 C 2475.97 5.66487 3.53057 0
M  V30 26629 H 2475.24 0.333912 0.661501 0
M  V30 26630 H 2477.89 1.42786 1.2761 0
M  V30 26631 H 2476.19 0.864443 3.82145 0
M  V30 26632 H 2477.89 1.25556 3.80837 0
M  V30 26633 H 2474.48 2.626 3.38731 0
M  V30 26634 H 2478.66 3.60647 3.40951 0
M  V30 26635 H 2473.92 5.01716 3.49415 0
M  V30 26636 H 2478.09 6.00389 3.52854 0
M  V30 26637 H 2475.72 6.71345 3.56651 0
M  V30 26638 N 2477.3 -1.26549 0.939309 0
M  V30 26639 C 2478.52 -1.9847 0.602043 0
M  V30 26640 C 2478.95 -1.69498 -0.815594 0
M  V30 26641 O 2478.3 -0.941933 -1.54911 0
M  V30 26642 C 2478.35 -3.50476 0.848468 0
M  V30 26643 O 2477.46 -4.12322 -0.0803284 0
M  V30 26644 H 2476.8 -0.622708 0.230501 0
M  V30 26645 H 2479.33 -1.61064 1.26173 0
M  V30 26646 H 2479.34 -4.00695 0.768623 0
M  V30 26647 H 2478.01 -3.70894 1.88178 0
M  V30 26648 H 2476.59 -3.72866 0.0504164 0
M  V30 26649 N 2478.77 -0.706118 -1.40896 0
M  V30 26650 C 2479.71 -0.00819805 -2.29199 0
M  V30 26651 C 2480.72 0.733556 -1.45337 0
M  V30 26652 O 2481.91 0.582507 -1.68728 0
M  V30 26653 C 2479.01 1.0126 -3.23419 0
M  V30 26654 C 2478.18 0.338311 -4.3609 0
M  V30 26655 C 2477.24 1.26317 -5.10813 0
M  V30 26656 O 2476.27 0.751552 -5.64217 0
M  V30 26657 N 2477.47 2.59491 -5.19273 0
M  V30 26658 H 2480.23 -0.766348 -2.89736 0
M  V30 26659 H 2477.79 -0.552987 -1.52163 0
M  V30 26660 H 2479.79 1.63328 -3.70278 0
M  V30 26661 H 2478.36 1.67219 -2.64115 0
M  V30 26662 H 2477.58 -0.462421 -3.91478 0
M  V30 26663 H 2478.86 -0.130121 -5.08634 0
M  V30 26664 H 2478.26 3.03564 -4.77352 0
M  V30 26665 H 2476.82 3.16727 -5.69673 0
M  V30 26666 N 2480.25 1.50991 -0.451617 0
M  V30 26667 C 2481.2 2.28091 0.352585 0
M  V30 26668 C 2482.17 1.32293 1.00438 0
M  V30 26669 O 2483.35 1.61212 1.02055 0
M  V30 26670 C 2480.49 3.13631 1.43977 0
M  V30 26671 C 2479.61 4.24439 0.804697 0
M  V30 26672 C 2478.74 4.97267 1.86813 0
M  V30 26673 C 2477.78 5.99976 1.21226 0
M  V30 26674 N 2476.92 6.66156 2.21768 0
M  V30 26675 H 2481.76 2.9637 -0.311238 0
M  V30 26676 H 2479.29 1.46168 -0.165333 0
M  V30 26677 H 2481.25 3.61563 2.08155 0
M  V30 26678 H 2479.88 2.47438 2.07303 0
M  V30 26679 H 2478.93 3.80366 0.050846 0
M  V30 26680 H 2480.25 4.97979 0.285989 0
M  V30 26681 H 2479.4 5.48818 2.58619 0
M  V30 26682 H 2478.14 4.23389 2.4206 0
M  V30 26683 H 2477.14 5.47703 0.479732 0
M  V30 26684 H 2478.37 6.75817 0.666933 0
M  V30 26685 H 2476.32 5.95082 2.76069 0
M  V30 26686 H 2476.23 7.35507 1.74828 0
M  V30 26687 H 2477.5 7.22332 2.93013 0
M  V30 26688 N 2481.73 0.183486 1.56528 0
M  V30 26689 C 2482.96 -0.463577 2.01332 0
M  V30 26690 C 2483.37 -1.56528 1.06281 0
M  V30 26691 O 2482.71 -1.83609 0.0578299 0
M  V30 26692 C 2482.77 -1.0909 3.42549 0
M  V30 26693 C 2482.44 -0.129362 4.56817 0
M  V30 26694 C 2483.43 0.656898 5.15733 0
M  V30 26695 C 2481.12 -0.0216517 5.02295 0
M  V30 26696 C 2483.11 1.53795 6.18568 0
M  V30 26697 C 2480.8 0.86297 6.04976 0
M  V30 26698 C 2481.8 1.64135 6.62985 0
M  V30 26699 O 2481.49 2.51116 7.63673 0
M  V30 26700 H 2481.22 -0.121895 0.664919 0
M  V30 26701 H 2483.77 0.28599 2.03399 0
M  V30 26702 H 2482 -1.88883 3.37432 0
M  V30 26703 H 2483.69 -1.64141 3.71231 0
M  V30 26704 H 2484.46 0.583924 4.81472 0
M  V30 26705 H 2480.34 -0.617312 4.56848 0
M  V30 26706 H 2483.88 2.14595 6.63773 0
M  V30 26707 H 2479.78 0.937102 6.38662 0
M  V30 26708 H 2480.54 2.44767 7.81045 0
M  V30 26709 N 2483.21 -1.57342 -0.0901833 0
M  V30 26710 C 2484.14 -2.05444 -1.10972 0
M  V30 26711 C 2485.12 -0.944308 -1.41481 0
M  V30 26712 O 2486.3 -1.21589 -1.51426 0
M  V30 26713 C 2483.43 -2.483 -2.42826 0
M  V30 26714 C 2482.39 -3.63022 -2.26714 0
M  V30 26715 C 2481.71 -3.9187 -3.63789 0
M  V30 26716 C 2483.01 -4.93735 -1.70361 0
M  V30 26717 H 2484.71 -2.90872 -0.709513 0
M  V30 26718 H 2482.25 -1.39932 -0.339849 0
M  V30 26719 H 2484.21 -2.80561 -3.14426 0
M  V30 26720 H 2482.93 -1.59878 -2.84792 0
M  V30 26721 H 2481.59 -3.31015 -1.57559 0
M  V30 26722 H 2481.24 -3.00608 -4.03291 0
M  V30 26723 H 2480.94 -4.69108 -3.53853 0
M  V30 26724 H 2482.46 -4.2661 -4.36848 0
M  V30 26725 H 2483.88 -5.24346 -2.31807 0
M  V30 26726 H 2482.27 -5.7517 -1.71171 0
M  V30 26727 H 2483.34 -4.8034 -0.663458 0
M  V30 26728 N 2484.69 0.36113 -1.53407 0
M  V30 26729 C 2485.92 1.12217 -1.73467 0
M  V30 26730 C 2486.32 1.83384 -0.465519 0
M  V30 26731 O 2485.67 1.74581 0.57158 0
M  V30 26732 C 2485.73 2.19334 -2.84838 0
M  V30 26733 C 2485.39 1.67896 -4.25041 0
M  V30 26734 C 2486.39 1.14065 -5.07233 0
M  V30 26735 C 2484.08 1.73274 -4.71467 0
M  V30 26736 C 2486.07 0.662956 -6.33943 0
M  V30 26737 C 2483.76 1.25116 -5.98155 0
M  V30 26738 C 2484.75 0.717177 -6.79224 0
M  V30 26739 O 2484.44 0.242724 -8.03533 0
M  V30 26740 H 2484.17 0.341273 -0.583532 0
M  V30 26741 H 2486.73 0.424556 -2.00964 0
M  V30 26742 H 2484.96 2.92603 -2.52825 0
M  V30 26743 H 2486.65 2.80866 -2.93034 0
M  V30 26744 H 2487.41 1.09245 -4.72536 0
M  V30 26745 H 2483.29 2.13778 -4.08436 0
M  V30 26746 H 2486.84 0.24549 -6.97168 0
M  V30 26747 H 2482.73 1.29631 -6.3235 0
M  V30 26748 H 2483.5 0.361642 -8.17701 0
M  V30 26749 N 2486.16 1.44842 0.621179 0
M  V30 26750 C 2487.41 1.47855 1.3778 0
M  V30 26751 C 2487.73 0.116258 1.94653 0
M  V30 26752 O 2487 -0.852706 1.76368 0
M  V30 26753 H 2485.58 0.544458 0.511443 0
M  V30 26754 H 2488.25 1.80696 0.730414 0
M  V30 26755 H 2487.34 2.20965 2.20411 0
M  V30 26756 N 2487.64 -0.862479 1.31905 0
M  V30 26757 C 2488.89 -1.61092 1.21376 0
M  V30 26758 C 2489.2 -1.94302 -0.225006 0
M  V30 26759 O 2490.41 -2.6771 -0.452074 0
M  V30 26760 C 2488.87 -2.90446 2.1253 0
M  V30 26761 C 2488.47 -2.64691 3.61445 0
M  V30 26762 C 2490.22 -3.6845 2.10819 0
M  V30 26763 C 2488.13 -3.89998 4.44585 0
M  V30 26764 H 2487.06 -0.60446 0.450715 0
M  V30 26765 H 2489.71 -0.953 1.56813 0
M  V30 26766 H 2488.09 -3.57653 1.7 0
M  V30 26767 H 2489.26 -2.05844 4.12268 0
M  V30 26768 H 2487.58 -2.00029 3.65209 0
M  V30 26769 H 2490.17 -4.61421 2.70175 0
M  V30 26770 H 2490.52 -4.01581 1.0972 0
M  V30 26771 H 2491.05 -3.08137 2.51588 0
M  V30 26772 H 2487.79 -3.62013 5.46467 0
M  V30 26773 H 2487.31 -4.48269 3.98516 0
M  V30 26774 H 2488.99 -4.57812 4.57184 0
M  V30 26775 N 2489.12 -1.14988 -1.07775 0
M  V30 26776 C 2490.4 -0.832726 -1.76989 0
M  V30 26777 C 2490.78 0.672525 -2.00101 0
M  V30 26778 O 2490.13 1.61547 -1.61601 0
M  V30 26779 C 2490.34 -1.63869 -3.08136 0
M  V30 26780 C 2491.68 -1.84215 -3.82557 0
M  V30 26781 O 2492.71 -1.60609 -3.17936 0
M  V30 26782 O 2491.57 -2.23723 -4.98608 0
M  V30 26783 H 2488.66 -0.305804 -0.768383 0
M  V30 26784 H 2491.21 -1.25543 -1.14179 0
M  V30 26785 H 2489.98 -2.66085 -2.86905 0
M  V30 26786 H 2489.6 -1.21203 -3.78676 0
M  V30 26787 N 2490.6 1.26049 -0.946007 0
M  V30 26788 C 2491.82 1.98148 -0.61256 0
M  V30 26789 C 2492.25 1.69928 0.806594 0
M  V30 26790 O 2491.61 0.950135 1.54409 0
M  V30 26791 C 2491.65 3.50021 -0.867043 0
M  V30 26792 O 2490.76 4.12359 0.0584609 0
M  V30 26793 H 2490.1 0.621477 -0.233801 0
M  V30 26794 H 2492.63 1.60392 -1.27025 0
M  V30 26795 H 2492.64 4.00281 -0.789862 0
M  V30 26796 H 2491.31 3.6989 -1.90142 0
M  V30 26797 H 2489.89 3.72834 -0.0701897 0
M  V30 26798 N 2492.08 0.71358 1.4052 0
M  V30 26799 C 2493.32 0.25662 2.02783 0
M  V30 26800 C 2493.68 -1.12824 1.55354 0
M  V30 26801 O 2494.88 -1.68207 2.09666 0
M  V30 26802 C 2493.15 0.331476 3.5586 0
M  V30 26803 S 2494.71 -0.0487932 4.38773 0
M  V30 26804 H 2491.53 0.101946 0.703653 0
M  V30 26805 H 2494.13 0.935355 1.71672 0
M  V30 26806 H 2492.84 1.34105 3.87871 0
M  V30 26807 H 2492.37 -0.365805 3.91696 0
M  V30 26808 H 2494.38 -1.27141 4.79635 0
M  V30 26809 N 2493.55 -1.50749 0.459618 0
M  V30 26810 C 2494.8 -2.02556 -0.099461 0
M  V30 26811 C 2495.13 -1.34173 -1.40397 0
M  V30 26812 O 2494.41 -0.463716 -1.88891 0
M  V30 26813 C 2494.69 -3.58888 -0.295179 0
M  V30 26814 C 2494.54 -4.37859 1.02954 0
M  V30 26815 C 2495.86 -4.27269 -1.05495 0
M  V30 26816 H 2492.98 -0.736184 -0.0346731 0
M  V30 26817 H 2495.62 -1.80178 0.60297 0
M  V30 26818 H 2493.77 -3.78086 -0.893497 0
M  V30 26819 H 2495.45 -4.3026 1.66356 0
M  V30 26820 H 2493.69 -4.02056 1.62892 0
M  V30 26821 H 2494.36 -5.45473 0.846377 0
M  V30 26822 H 2496.84 -4.12477 -0.547921 0
M  V30 26823 H 2495.71 -5.36488 -1.16068 0
M  V30 26824 H 2495.97 -3.89649 -2.08868 0
M  V30 26825 N 2495.03 -0.191784 -1.56429 0
M  V30 26826 C 2495.98 0.747135 -2.20274 0
M  V30 26827 C 2496.97 1.22227 -1.1729 0
M  V30 26828 O 2498.18 1.18555 -1.35443 0
M  V30 26829 H 2494.56 0.259277 -0.705889 0
M  V30 26830 H 2496.53 0.184911 -2.97827 0
M  V30 26831 C 2495.28 1.95754 -2.8736 0
M  V30 26832 H 2494.6 1.601 -3.66344 0
M  V30 26833 H 2496.04 2.59294 -3.35474 0
M  V30 26834 C 2494.5 2.7942 -1.88218 0
M  V30 26835 O 2495.03 3.77237 -1.3804 0
M  V30 26836 N 2493.23 2.44846 -1.56521 0
M  V30 26837 H 2492.78 1.6536 -1.97519 0
M  V30 26838 H 2492.74 3.01111 -0.904422 0
M  V30 26839 N 2496.51 1.57387 0.0818378 0
M  V30 26840 C 2497.46 2.02992 1.0983 0
M  V30 26841 C 2498.43 0.908663 1.39041 0
M  V30 26842 O 2499.61 1.17561 1.5028 0
M  V30 26843 C 2496.75 2.47041 2.40966 0
M  V30 26844 C 2495.87 3.72743 2.18372 0
M  V30 26845 C 2495 4.05616 3.43 0
M  V30 26846 C 2494.04 5.24389 3.15726 0
M  V30 26847 N 2493.18 5.52948 4.32657 0
M  V30 26848 H 2498.02 2.89603 0.702421 0
M  V30 26849 H 2495.55 1.43228 0.335285 0
M  V30 26850 H 2497.51 2.70628 3.17516 0
M  V30 26851 H 2496.14 1.63422 2.78376 0
M  V30 26852 H 2495.19 3.56555 1.32562 0
M  V30 26853 H 2496.51 4.59435 1.94219 0
M  V30 26854 H 2495.66 4.3005 4.27951 0
M  V30 26855 H 2494.4 3.17472 3.7022 0
M  V30 26856 H 2493.4 4.99761 2.29171 0
M  V30 26857 H 2494.63 6.14142 2.8984 0
M  V30 26858 H 2492.57 4.67764 4.59927 0
M  V30 26859 H 2492.49 6.34038 4.11742 0
M  V30 26860 H 2493.76 5.81927 5.18634 0
M  V30 26861 N 2497.99 -0.35299 1.53596 0
M  V30 26862 C 2499.23 -1.0959 1.7064 0
M  V30 26863 C 2499.57 -1.88592 0.463319 0
M  V30 26864 O 2498.84 -1.86866 -0.539564 0
M  V30 26865 C 2499.13 -2.04484 2.96409 0
M  V30 26866 C 2498.98 -1.29007 4.30903 0
M  V30 26867 C 2500.3 -3.04434 3.17817 0
M  V30 26868 H 2497.42 -0.397023 0.62092 0
M  V30 26869 H 2500.06 -0.375413 1.86254 0
M  V30 26870 H 2498.21 -2.65922 2.83228 0
M  V30 26871 H 2499.88 -0.702558 4.55919 0
M  V30 26872 H 2498.12 -0.591996 4.29742 0
M  V30 26873 H 2498.79 -1.98528 5.15064 0
M  V30 26874 H 2501.27 -2.53106 3.30267 0
M  V30 26875 H 2500.15 -3.68042 4.0723 0
M  V30 26876 H 2500.41 -3.75297 2.33676 0
M  V30 26877 N 2499.47 -1.45169 -0.613489 0
M  V30 26878 C 2500.71 -1.49098 -1.37469 0
M  V30 26879 C 2501.05 -0.129935 -1.93765 0
M  V30 26880 O 2500.32 0.854827 -1.74708 0
M  V30 26881 C 2500.6 -2.56547 -2.52697 0
M  V30 26882 C 2500.46 -4.02074 -2.01636 0
M  V30 26883 C 2501.78 -2.60333 -3.54844 0
M  V30 26884 H 2498.9 -0.542839 -0.498493 0
M  V30 26885 H 2501.54 -1.76946 -0.692094 0
M  V30 26886 H 2499.69 -2.32931 -3.10927 0
M  V30 26887 H 2501.36 -4.3688 -1.481 0
M  V30 26888 H 2499.6 -4.13011 -1.32681 0
M  V30 26889 H 2500.27 -4.72933 -2.84673 0
M  V30 26890 H 2502.75 -2.81479 -3.06445 0
M  V30 26891 H 2501.63 -3.37388 -4.32967 0
M  V30 26892 H 2501.89 -1.65198 -4.10076 0
M  V30 26893 N 2500.95 0.855472 -1.32361 0
M  V30 26894 C 2502.19 1.60446 -1.22229 0
M  V30 26895 C 2502.51 1.94418 0.214698 0
M  V30 26896 O 2503.71 2.67946 0.43787 0
M  V30 26897 C 2502.17 2.89315 -2.14068 0
M  V30 26898 C 2501.78 2.62771 -3.62844 0
M  V30 26899 C 2503.52 3.67327 -2.1277 0
M  V30 26900 C 2501.43 3.87635 -4.46647 0
M  V30 26901 H 2500.36 0.602061 -0.453915 0
M  V30 26902 H 2503.01 0.94467 -1.57316 0
M  V30 26903 H 2501.39 3.56747 -1.71895 0
M  V30 26904 H 2502.57 2.03655 -4.13354 0
M  V30 26905 H 2500.88 1.9809 -3.66264 0
M  V30 26906 H 2503.48 4.59982 -2.72619 0
M  V30 26907 H 2503.82 4.00993 -1.11848 0
M  V30 26908 H 2504.35 3.06798 -2.53219 0
M  V30 26909 H 2501.09 3.5911 -5.4838 0
M  V30 26910 H 2500.61 4.46149 -4.00888 0
M  V30 26911 H 2502.29 4.55381 -4.59605 0
M  V30 26912 N 2502.42 1.15558 1.07164 0
M  V30 26913 C 2503.65 0.95602 1.84052 0
M  V30 26914 C 2504.07 -0.490707 1.81587 0
M  V30 26915 O 2503.43 -1.34995 1.21021 0
M  V30 26916 C 2503.48 1.4772 3.28955 0
M  V30 26917 O 2502.58 0.677664 4.06794 0
M  V30 26918 H 2501.92 0.340857 0.569836 0
M  V30 26919 H 2504.45 1.53586 1.35175 0
M  V30 26920 H 2504.46 1.49086 3.79786 0
M  V30 26921 H 2503.14 2.53043 3.30064 0
M  V30 26922 H 2501.72 0.733786 3.65609 0
M  V30 26923 N 2503.9 -1.25546 0.952678 0
M  V30 26924 C 2505.31 -1.75115 0.647423 0
M  V30 26925 C 2505.66 -1.77439 -0.837243 0
M  V30 26926 O 2504.79 -1.39396 -1.65523 0
M  V30 26927 C 2505.38 -3.18012 1.1685 0
M  V30 26928 C 2503.94 -3.65148 0.913446 0
M  V30 26929 C 2503.09 -2.44262 1.31269 0
M  V30 26930 H 2506.04 -1.1146 1.1297 0
M  V30 26931 H 2506.06 -3.76823 0.527672 0
M  V30 26932 H 2505.57 -3.16288 2.24908 0
M  V30 26933 H 2503.67 -3.72289 -0.15225 0
M  V30 26934 H 2503.79 -4.53384 1.54853 0
M  V30 26935 H 2502.15 -2.43982 0.731071 0
M  V30 26936 H 2502.93 -2.4523 2.40244 0
M  V30 26937 N 2505.38 -0.721022 -1.40139 0
M  V30 26938 C 2506.33 -0.0608955 -2.3252 0
M  V30 26939 C 2507.32 0.741125 -1.52328 0
M  V30 26940 O 2508.53 0.643882 -1.6809 0
M  V30 26941 H 2504.9 -0.000889883 -0.751999 0
M  V30 26942 H 2506.87 -0.856665 -2.85839 0
M  V30 26943 C 2505.62 0.84275 -3.37332 0
M  V30 26944 H 2504.95 0.235013 -3.99109 0
M  V30 26945 H 2506.39 1.2725 -4.04454 0
M  V30 26946 C 2504.84 1.97069 -2.7325 0
M  V30 26947 O 2505.37 3.06205 -2.60003 0
M  V30 26948 N 2503.58 1.75593 -2.3155 0
M  V30 26949 H 2503.13 0.868325 -2.42524 0
M  V30 26950 H 2503.09 2.51241 -1.89012 0
M  V30 26951 N 2506.86 1.50503 -0.467606 0
M  V30 26952 C 2508.11 2.01498 0.0902514 0
M  V30 26953 C 2508.42 1.35465 1.41098 0
M  V30 26954 O 2509.63 1.77597 2.05357 0
M  V30 26955 C 2508.08 3.59279 0.211357 0
M  V30 26956 C 2507.69 4.34267 -1.10073 0
M  V30 26957 C 2509.43 4.18326 0.72136 0
M  V30 26958 C 2507.34 5.83824 -0.943607 0
M  V30 26959 H 2506.27 0.753067 0.0375038 0
M  V30 26960 H 2508.92 1.73345 -0.601974 0
M  V30 26961 H 2507.3 3.84005 0.967284 0
M  V30 26962 H 2508.48 4.21268 -1.86734 0
M  V30 26963 H 2506.79 3.86813 -1.54157 0
M  V30 26964 H 2509.39 5.27806 0.855888 0
M  V30 26965 H 2509.73 3.79478 1.71179 0
M  V30 26966 H 2510.27 3.97793 0.0229144 0
M  V30 26967 H 2507 6.27138 -1.9073 0
M  V30 26968 H 2506.52 5.99406 -0.217318 0
M  V30 26969 H 2508.2 6.44129 -0.608829 0
M  V30 26970 N 2508.34 0.200077 1.56325 0
M  V30 26971 C 2509.57 -0.442197 2.01812 0
M  V30 26972 C 2509.97 -1.55392 1.07935 0
M  V30 26973 O 2509.32 -1.83537 0.0773008 0
M  V30 26974 C 2509.38 -1.05451 3.43686 0
M  V30 26975 C 2509.04 -0.080903 4.56928 0
M  V30 26976 C 2510.04 0.711562 5.15008 0
M  V30 26977 C 2507.72 0.0316246 5.0229 0
M  V30 26978 C 2509.72 1.60347 6.16902 0
M  V30 26979 C 2507.41 0.927087 6.04027 0
M  V30 26980 C 2508.4 1.71157 6.61207 0
M  V30 26981 O 2508.09 2.59202 7.60966 0
M  V30 26982 H 2507.82 -0.114836 0.666175 0
M  V30 26983 H 2510.38 0.307547 2.03084 0
M  V30 26984 H 2508.61 -1.85293 3.39416 0
M  V30 26985 H 2510.3 -1.60195 3.72951 0
M  V30 26986 H 2511.06 0.634958 4.80826 0
M  V30 26987 H 2506.94 -0.568822 4.57477 0
M  V30 26988 H 2510.49 2.21623 6.6146 0
M  V30 26989 H 2506.38 1.00479 6.37632 0
M  V30 26990 H 2507.15 2.53037 7.78405 0
M  V30 26991 N 2509.81 -1.57429 -0.0734901 0
M  V30 26992 C 2511.04 -1.91391 -0.785936 0
M  V30 26993 C 2511.46 -0.795877 -1.71205 0
M  V30 26994 O 2510.81 0.230883 -1.81034 0
M  V30 26995 C 2510.86 -3.25094 -1.58101 0
M  V30 26996 O 2510.59 -4.32598 -0.692124 0
M  V30 26997 C 2512.09 -3.7306 -2.39461 0
M  V30 26998 H 2509.31 -0.632667 -0.223547 0
M  V30 26999 H 2511.85 -2.04452 -0.044266 0
M  V30 27000 H 2510.01 -3.13566 -2.27498 0
M  V30 27001 H 2510.42 -5.09511 -1.24496 0
M  V30 27002 H 2511.89 -4.69247 -2.90707 0
M  V30 27003 H 2512.37 -3.01984 -3.18908 0
M  V30 27004 H 2512.98 -3.87527 -1.75224 0
M  V30 27005 N 2511.29 0.344839 -1.53781 0
M  V30 27006 C 2512.57 1.10217 -1.61591 0
M  V30 27007 C 2512.95 2.06541 -0.436352 0
M  V30 27008 O 2512.3 2.21238 0.571504 0
M  V30 27009 C 2512.51 1.82296 -2.97606 0
M  V30 27010 C 2513.85 2.36087 -3.52914 0
M  V30 27011 O 2514.88 1.92394 -2.99771 0
M  V30 27012 O 2513.74 3.16018 -4.45864 0
M  V30 27013 H 2510.83 0.506781 -0.653531 0
M  V30 27014 H 2513.38 0.346436 -1.66126 0
M  V30 27015 H 2512.15 1.12115 -3.74895 0
M  V30 27016 H 2511.77 2.6473 -2.96655 0
M  V30 27017 N 2512.77 1.45492 0.605781 0
M  V30 27018 C 2513.68 1.56843 1.74464 0
M  V30 27019 C 2514.7 0.452802 1.68005 0
M  V30 27020 O 2515.87 0.713741 1.88329 0
M  V30 27021 C 2512.94 1.53376 3.10929 0
M  V30 27022 C 2512 2.75991 3.28827 0
M  V30 27023 C 2511.23 2.72681 4.58782 0
M  V30 27024 O 2511.45 1.80112 5.41217 0
M  V30 27025 O 2510.39 3.63908 4.79432 0
M  V30 27026 H 2514.21 2.53109 1.67838 0
M  V30 27027 H 2511.8 1.28024 0.770085 0
M  V30 27028 H 2513.68 1.54058 3.9223 0
M  V30 27029 H 2512.36 0.602628 3.18041 0
M  V30 27030 H 2511.26 2.80872 2.47107 0
M  V30 27031 H 2512.6 3.68237 3.26592 0
M  V30 27032 N 2514.25 -0.848441 1.32813 0
M  V30 27033 C 2515.5 -1.59796 1.23078 0
M  V30 27034 C 2515.81 -1.94529 -0.204385 0
M  V30 27035 O 2517.02 -2.68174 -0.423654 0
M  V30 27036 C 2515.47 -2.88175 2.15599 0
M  V30 27037 C 2515.08 -2.60843 3.64232 0
M  V30 27038 C 2516.82 -3.66193 2.14715 0
M  V30 27039 C 2514.73 -3.85261 4.48696 0
M  V30 27040 H 2513.66 -0.599645 0.457101 0
M  V30 27041 H 2516.31 -0.936314 1.57814 0
M  V30 27042 H 2514.69 -3.5583 1.73784 0
M  V30 27043 H 2515.87 -2.0146 4.14428 0
M  V30 27044 H 2514.18 -1.96144 3.6731 0
M  V30 27045 H 2516.78 -4.58529 2.75054 0
M  V30 27046 H 2517.12 -4.00395 1.13973 0
M  V30 27047 H 2517.66 -3.05451 2.54842 0
M  V30 27048 H 2514.4 -3.56197 5.50276 0
M  V30 27049 H 2513.92 -4.44017 4.03248 0
M  V30 27050 H 2515.59 -4.52938 4.62014 0
M  V30 27051 N 2515.73 -1.16125 -1.06549 0
M  V30 27052 C 2516.67 -0.861409 -2.16061 0
M  V30 27053 C 2517.67 0.168487 -1.6856 0
M  V30 27054 O 2518.87 0.0227263 -1.79986 0
M  V30 27055 H 2515.25 -0.260946 -0.705274 0
M  V30 27056 H 2517.22 -1.79248 -2.38564 0
M  V30 27057 C 2515.97 -0.376079 -3.4566 0
M  V30 27058 H 2515.29 -1.15998 -3.82602 0
M  V30 27059 H 2516.73 -0.205026 -4.23504 0
M  V30 27060 C 2515.19 0.903897 -3.24548 0
M  V30 27061 O 2515.72 1.97371 -3.49868 0
M  V30 27062 N 2513.93 0.84663 -2.77994 0
M  V30 27063 H 2513.47 -0.024147 -2.57589 0
M  V30 27064 H 2513.43 1.70355 -2.64247 0
M  V30 27065 N 2517.2 1.25039 -0.959323 0
M  V30 27066 C 2518.45 1.92182 -0.612287 0
M  V30 27067 C 2518.77 1.75908 0.855316 0
M  V30 27068 O 2519.97 2.37666 1.31251 0
M  V30 27069 C 2518.43 3.44413 -1.04441 0
M  V30 27070 C 2518.04 3.69388 -2.53488 0
M  V30 27071 C 2519.78 4.17456 -0.770128 0
M  V30 27072 C 2517.69 5.15148 -2.90477 0
M  V30 27073 H 2516.62 0.719555 -0.225292 0
M  V30 27074 H 2519.27 1.41823 -1.16441 0
M  V30 27075 H 2517.65 3.93759 -0.420669 0
M  V30 27076 H 2518.82 3.30675 -3.20921 0
M  V30 27077 H 2517.14 3.09615 -2.78438 0
M  V30 27078 H 2519.74 5.24831 -1.02259 0
M  V30 27079 H 2520.08 4.15264 0.293538 0
M  V30 27080 H 2520.61 3.74032 -1.35444 0
M  V30 27081 H 2517.35 5.22455 -3.9588 0
M  V30 27082 H 2516.87 5.5489 -2.27721 0
M  V30 27083 H 2518.55 5.83311 -2.79925 0
M  V30 27084 N 2518.68 0.728444 1.39755 0
M  V30 27085 C 2519.91 0.283564 2.04948 0
M  V30 27086 C 2520.33 -1.07927 1.5491 0
M  V30 27087 O 2519.68 -1.68074 0.711164 0
M  V30 27088 C 2519.73 0.26902 3.60498 0
M  V30 27089 O 2519.45 1.57805 4.08692 0
M  V30 27090 C 2520.96 -0.192834 4.4288 0
M  V30 27091 H 2518.18 0.125068 0.659241 0
M  V30 27092 H 2520.72 0.990257 1.78925 0
M  V30 27093 H 2518.87 -0.388733 3.85445 0
M  V30 27094 H 2519.29 1.48718 5.02974 0
M  V30 27095 H 2520.76 -0.151855 5.51791 0
M  V30 27096 H 2521.24 -1.23701 4.2142 0
M  V30 27097 H 2521.85 0.435113 4.23068 0
M  V30 27098 N 2520.16 -1.50253 0.475581 0
M  V30 27099 C 2521.57 -1.86688 0.0215502 0
M  V30 27100 C 2521.92 -1.39003 -1.38465 0
M  V30 27101 O 2521.05 -0.75693 -2.0273 0
M  V30 27102 C 2521.64 -3.38785 0.032331 0
M  V30 27103 C 2520.2 -3.74614 -0.366248 0
M  V30 27104 C 2519.35 -2.74164 0.415881 0
M  V30 27105 H 2522.3 -1.42932 0.689637 0
M  V30 27106 H 2522.32 -3.72652 -0.768824 0
M  V30 27107 H 2521.83 -3.7346 1.0559 0
M  V30 27108 H 2519.93 -3.45541 -1.394 0
M  V30 27109 H 2520.05 -4.79057 -0.0644708 0
M  V30 27110 H 2518.41 -2.54363 -0.131003 0
M  V30 27111 H 2519.19 -3.11683 1.43905 0
M  V30 27112 N 2521.64 -0.208365 -1.56217 0
M  V30 27113 C 2522.88 0.427517 -1.98243 0
M  V30 27114 C 2523.22 1.60346 -1.09557 0
M  V30 27115 O 2522.49 1.93918 -0.150384 0
M  V30 27116 C 2522.78 0.874845 -3.49311 0
M  V30 27117 C 2522.63 -0.30383 -4.48773 0
M  V30 27118 C 2523.95 1.7357 -4.04427 0
M  V30 27119 H 2521.07 0.153924 -0.720747 0
M  V30 27120 H 2523.71 -0.301953 -1.87585 0
M  V30 27121 H 2521.86 1.49642 -3.58524 0
M  V30 27122 H 2523.53 -0.941762 -4.51584 0
M  V30 27123 H 2521.77 -0.953449 -4.23192 0
M  V30 27124 H 2522.44 0.0518912 -5.51976 0
M  V30 27125 H 2524.92 1.21136 -3.98077 0
M  V30 27126 H 2523.8 2.01762 -5.10474 0
M  V30 27127 H 2524.06 2.6945 -3.50499 0
M  V30 27128 N 2523.12 1.57465 0.0651402 0
M  V30 27129 C 2524.35 1.91527 0.77465 0
M  V30 27130 C 2524.75 0.803227 1.71304 0
M  V30 27131 O 2524.1 -0.231849 1.82231 0
M  V30 27132 C 2524.16 3.21112 1.6164 0
M  V30 27133 C 2523.82 4.49088 0.846674 0
M  V30 27134 C 2524.82 5.19645 0.162933 0
M  V30 27135 C 2522.51 4.95695 0.811879 0
M  V30 27136 C 2524.5 6.35063 -0.545301 0
M  V30 27137 C 2522.19 6.11018 0.0998762 0
M  V30 27138 C 2523.18 6.80554 -0.577507 0
M  V30 27139 O 2522.87 7.93676 -1.27803 0
M  V30 27140 H 2522.6 0.63745 0.225019 0
M  V30 27141 H 2525.16 2.05365 0.0376773 0
M  V30 27142 H 2523.39 3.03501 2.39633 0
M  V30 27143 H 2525.08 3.40773 2.20519 0
M  V30 27144 H 2525.84 4.84662 0.181078 0
M  V30 27145 H 2521.72 4.4144 1.32859 0
M  V30 27146 H 2525.27 6.89274 -1.07458 0
M  V30 27147 H 2521.16 6.45451 0.0796811 0
M  V30 27148 H 2521.93 8.09833 -1.18798 0
M  V30 27149 N 2524.59 -0.336679 1.53962 0
M  V30 27150 C 2525.5 -1.43705 1.85435 0
M  V30 27151 C 2526.52 -1.5724 0.745081 0
M  V30 27152 O 2527.7 -1.72586 1.03807 0
M  V30 27153 C 2524.76 -2.78602 2.06354 0
M  V30 27154 C 2523.82 -2.74353 3.30196 0
M  V30 27155 C 2523.06 -4.02815 3.50108 0
M  V30 27156 O 2523.28 -5.00434 2.73719 0
M  V30 27157 O 2522.21 -4.0687 4.43554 0
M  V30 27158 H 2526.04 -1.20023 2.78977 0
M  V30 27159 H 2523.62 -0.529496 1.39702 0
M  V30 27160 H 2525.51 -3.58479 2.21519 0
M  V30 27161 H 2524.18 -3.02201 1.16 0
M  V30 27162 H 2523.09 -1.93072 3.20428 0
M  V30 27163 H 2524.42 -2.55707 4.20565 0
M  V30 27164 N 2526.07 -1.45812 -0.598057 0
M  V30 27165 C 2527.3 -1.53868 -1.38319 0
M  V30 27166 C 2527.72 -0.174512 -1.87992 0
M  V30 27167 O 2527.07 0.825599 -1.62758 0
M  V30 27168 C 2527.12 -2.53093 -2.5812 0
M  V30 27169 O 2526.84 -3.8421 -2.1051 0
M  V30 27170 C 2528.35 -2.70941 -3.50864 0
M  V30 27171 H 2525.57 -0.520808 -0.423083 0
M  V30 27172 H 2528.11 -1.91084 -0.728494 0
M  V30 27173 H 2526.26 -2.18923 -3.19611 0
M  V30 27174 H 2526.68 -4.38082 -2.88417 0
M  V30 27175 H 2528.15 -3.44324 -4.31445 0
M  V30 27176 H 2528.63 -1.77308 -4.01819 0
M  V30 27177 H 2529.24 -3.06146 -2.9522 0
M  V30 27178 N 2527.55 0.841385 -1.33261 0
M  V30 27179 C 2528.5 1.97242 -1.23282 0
M  V30 27180 C 2529.49 1.68863 -0.134735 0
M  V30 27181 O 2530.7 1.77507 -0.298532 0
M  V30 27182 H 2527.07 0.64745 -0.382508 0
M  V30 27183 H 2529.04 2.02783 -2.1891 0
M  V30 27184 C 2527.79 3.33417 -0.986326 0
M  V30 27185 H 2527.12 3.55791 -1.82353 0
M  V30 27186 H 2528.56 4.13063 -0.9568 0
M  V30 27187 C 2527.02 3.35463 0.310783 0
M  V30 27188 O 2527.55 3.79452 1.31831 0
M  V30 27189 N 2525.75 2.88634 0.337435 0
M  V30 27190 H 2525.3 2.53031 -0.483011 0
M  V30 27191 H 2525.26 2.90386 1.20513 0
M  V30 27192 N 2529.03 1.16688 1.05932 0
M  V30 27193 C 2529.98 0.872855 2.15601 0
M  V30 27194 C 2530.97 -0.159546 1.68647 0
M  V30 27195 O 2532.18 -0.0131809 1.79995 0
M  V30 27196 H 2528.55 0.264683 0.70388 0
M  V30 27197 H 2530.52 1.80511 2.3761 0
M  V30 27198 C 2529.27 0.394405 3.45456 0
M  V30 27199 H 2528.6 1.18026 3.81982 0
M  V30 27200 H 2530.04 0.227482 4.23389 0
M  V30 27201 C 2528.49 -0.886672 3.25023 0
M  V30 27202 O 2529.02 -1.95513 3.5091 0
M  V30 27203 N 2527.23 -0.831876 2.78439 0
M  V30 27204 H 2526.78 0.0378072 2.57572 0
M  V30 27205 H 2526.74 -1.68951 2.65147 0
M  V30 27206 N 2530.51 -1.24529 0.96594 0
M  V30 27207 C 2531.74 -1.96608 0.64442 0
M  V30 27208 C 2532.15 -1.7167 -0.785793 0
M  V30 27209 O 2531.51 -0.999426 -1.52701 0
M  V30 27210 C 2531.56 -3.49925 0.907436 0
M  V30 27211 O 2531.28 -3.74009 2.28142 0
M  V30 27212 C 2532.78 -4.39223 0.599861 0
M  V30 27213 H 2530 -0.626381 0.240599 0
M  V30 27214 H 2532.54 -1.58403 1.29339 0
M  V30 27215 H 2530.7 -3.862 0.304699 0
M  V30 27216 H 2531.11 -4.68401 2.3601 0
M  V30 27217 H 2532.59 -5.45658 0.834359 0
M  V30 27218 H 2533.06 -4.36722 -0.465844 0
M  V30 27219 H 2533.67 -4.08533 1.18242 0
M  V30 27220 N 2531.99 -0.735845 -1.39367 0
M  V30 27221 C 2533.22 -0.294002 -2.04497 0
M  V30 27222 C 2533.62 1.07642 -1.55595 0
M  V30 27223 O 2532.97 1.69157 -0.716353 0
M  V30 27224 C 2533.03 -0.218405 -3.58836 0
M  V30 27225 C 2532.69 -1.52744 -4.30718 0
M  V30 27226 C 2533.69 -2.4733 -4.57301 0
M  V30 27227 C 2531.37 -1.79197 -4.69248 0
M  V30 27228 C 2533.37 -3.66602 -5.21423 0
M  V30 27229 C 2531.06 -2.98746 -5.33098 0
M  V30 27230 C 2532.05 -3.9227 -5.59118 0
M  V30 27231 O 2531.74 -5.09719 -6.21644 0
M  V30 27232 H 2531.47 -0.126201 -0.664115 0
M  V30 27233 H 2534.03 -1.00055 -1.79383 0
M  V30 27234 H 2532.26 0.544247 -3.82851 0
M  V30 27235 H 2533.95 0.191555 -4.05448 0
M  V30 27236 H 2534.71 -2.28164 -4.27979 0
M  V30 27237 H 2530.59 -1.07246 -4.48352 0
M  V30 27238 H 2534.14 -4.39616 -5.41649 0
M  V30 27239 H 2530.03 -3.17813 -5.61841 0
M  V30 27240 H 2530.8 -5.10065 -6.40138 0
M  V30 27241 N 2533.46 1.49999 -0.483543 0
M  V30 27242 C 2534.87 1.86674 -0.0314504 0
M  V30 27243 C 2535.23 1.39736 1.37726 0
M  V30 27244 O 2534.35 0.767671 2.02326 0
M  V30 27245 C 2534.95 3.38763 -0.0502971 0
M  V30 27246 C 2533.5 3.74803 0.346376 0
M  V30 27247 C 2532.65 2.73939 -0.430414 0
M  V30 27248 H 2535.6 1.42565 -0.697207 0
M  V30 27249 H 2535.62 3.73054 0.749051 0
M  V30 27250 H 2535.14 3.72895 -1.07569 0
M  V30 27251 H 2533.24 3.46275 1.37566 0
M  V30 27252 H 2533.35 4.79084 0.0390643 0
M  V30 27253 H 2531.71 2.54429 0.117512 0
M  V30 27254 H 2532.5 3.10915 -1.45556 0
M  V30 27255 N 2534.94 0.216646 1.56104 0
M  V30 27256 C 2535.85 -0.706943 2.23695 0
M  V30 27257 C 2536.87 -1.21763 1.24297 0
M  V30 27258 O 2538.04 -1.26027 1.57096 0
M  V30 27259 C 2535.11 -1.90028 2.89983 0
M  V30 27260 C 2534.17 -1.43205 4.04711 0
M  V30 27261 C 2533.4 -2.56851 4.67828 0
M  V30 27262 O 2533.63 -3.74867 4.2992 0
M  V30 27263 O 2532.56 -2.28333 5.56909 0
M  V30 27264 H 2536.39 -0.161181 3.03272 0
M  V30 27265 H 2533.97 -0.0135914 1.49394 0
M  V30 27266 H 2535.85 -2.59729 3.31841 0
M  V30 27267 H 2534.53 -2.43424 2.1337 0
M  V30 27268 H 2533.43 -0.703205 3.67431 0
M  V30 27269 H 2534.77 -0.94453 4.83052 0
M  V30 27270 N 2536.42 -1.57498 -0.0567885 0
M  V30 27271 C 2537.67 -1.88255 -0.754187 0
M  V30 27272 C 2538 -0.810896 -1.7646 0
M  V30 27273 O 2537.27 0.177225 -1.93691 0
M  V30 27274 C 2537.56 -3.29672 -1.44873 0
M  V30 27275 C 2537.41 -4.47506 -0.45371 0
M  V30 27276 C 2538.73 -3.69558 -2.38987 0
M  V30 27277 H 2535.85 -0.684688 -0.272712 0
M  V30 27278 H 2538.49 -1.89992 -0.0171779 0
M  V30 27279 H 2536.64 -3.28322 -2.07694 0
M  V30 27280 H 2538.31 -4.60985 0.170452 0
M  V30 27281 H 2536.55 -4.33192 0.229628 0
M  V30 27282 H 2537.23 -5.43274 -0.977603 0
M  V30 27283 H 2539.7 -3.72098 -1.86232 0
M  V30 27284 H 2538.58 -4.69368 -2.84579 0
M  V30 27285 H 2538.84 -3.00301 -3.24456 0
M  V30 27286 N 2537.9 0.328509 -1.54138 0
M  V30 27287 C 2539.15 1.06453 -1.7132 0
M  V30 27288 C 2539.46 1.89333 -0.491142 0
M  V30 27289 O 2540.67 2.6599 -0.544207 0
M  V30 27290 C 2539.12 1.94209 -3.03003 0
M  V30 27291 C 2538.73 1.16464 -4.32597 0
M  V30 27292 C 2540.47 2.67577 -3.29549 0
M  V30 27293 C 2538.38 2.03337 -5.55345 0
M  V30 27294 H 2537.31 0.401143 -0.638436 0
M  V30 27295 H 2539.96 0.323074 -1.80634 0
M  V30 27296 H 2538.34 2.72234 -2.87584 0
M  V30 27297 H 2539.52 0.432445 -4.58766 0
M  V30 27298 H 2537.83 0.54799 -4.12778 0
M  V30 27299 H 2540.43 3.32872 -4.1845 0
M  V30 27300 H 2540.77 3.34951 -2.47212 0
M  V30 27301 H 2541.31 1.96617 -3.45813 0
M  V30 27302 H 2538.04 1.4048 -6.4027 0
M  V30 27303 H 2537.56 2.74303 -5.33402 0
M  V30 27304 H 2539.24 2.62039 -5.91561 0
M  V30 27305 N 2539.38 1.46127 0.590316 0
M  V30 27306 C 2540.62 1.51266 1.35079 0
M  V30 27307 C 2540.95 0.160745 1.93534 0
M  V30 27308 O 2540.23 -0.826925 1.76046 0
M  V30 27309 C 2540.51 2.60535 2.48584 0
M  V30 27310 C 2540.37 4.05231 1.95213 0
M  V30 27311 C 2541.68 2.65946 3.50658 0
M  V30 27312 H 2538.8 0.550701 0.489794 0
M  V30 27313 H 2541.45 1.78025 0.663856 0
M  V30 27314 H 2539.6 2.37848 3.07181 0
M  V30 27315 H 2541.27 4.39181 1.41131 0
M  V30 27316 H 2539.51 4.1507 1.26093 0
M  V30 27317 H 2540.18 4.77402 2.77113 0
M  V30 27318 H 2542.66 2.86319 3.01929 0
M  V30 27319 H 2541.53 3.44234 4.27545 0
M  V30 27320 H 2541.79 1.71701 4.07396 0
M  V30 27321 N 2540.85 -0.834306 1.33705 0
M  V30 27322 C 2541.78 -1.95961 1.26971 0
M  V30 27323 C 2542.76 -1.69443 0.149366 0
M  V30 27324 O 2543.95 -1.91203 0.339885 0
M  V30 27325 C 2541.08 -3.32204 1.01281 0
M  V30 27326 C 2540.03 -3.73132 2.09658 0
M  V30 27327 C 2539.36 -5.07232 1.69175 0
M  V30 27328 C 2540.66 -3.86432 3.51379 0
M  V30 27329 H 2542.35 -2.01854 2.21123 0
M  V30 27330 H 2539.9 -0.969775 1.06449 0
M  V30 27331 H 2541.85 -4.10502 0.952178 0
M  V30 27332 H 2540.58 -3.26581 0.0356777 0
M  V30 27333 H 2539.24 -2.97101 2.14771 0
M  V30 27334 H 2538.88 -4.98084 0.701524 0
M  V30 27335 H 2538.58 -5.35587 2.41704 0
M  V30 27336 H 2540.11 -5.88 1.64586 0
M  V30 27337 H 2541.52 -4.5503 3.48742 0
M  V30 27338 H 2539.92 -4.26229 4.22432 0
M  V30 27339 H 2540.99 -2.88752 3.89552 0
M  V30 27340 N 2542.33 -1.17248 -1.05312 0
M  V30 27341 C 2543.61 -0.870081 -1.75183 0
M  V30 27342 C 2543.99 0.62993 -2.01482 0
M  V30 27343 O 2543.34 1.58083 -1.64991 0
M  V30 27344 C 2543.55 -1.70368 -3.04591 0
M  V30 27345 C 2544.89 -1.92288 -3.78564 0
M  V30 27346 O 2545.92 -1.67316 -3.14458 0
M  V30 27347 O 2544.78 -2.34249 -4.93751 0
M  V30 27348 H 2541.87 -0.322034 -0.761724 0
M  V30 27349 H 2544.42 -1.27937 -1.11491 0
M  V30 27350 H 2543.19 -2.72111 -2.81196 0
M  V30 27351 H 2542.81 -1.29208 -3.7602 0
M  V30 27352 N 2543.81 1.24015 -0.972531 0
M  V30 27353 C 2544.77 2.23421 -0.511442 0
M  V30 27354 C 2545.77 1.55882 0.394651 0
M  V30 27355 O 2546.96 1.73167 0.189438 0
M  V30 27356 C 2544.1 3.39917 0.258709 0
M  V30 27357 H 2545.29 2.65727 -1.39029 0
M  V30 27358 H 2542.84 1.36711 -0.757609 0
M  V30 27359 H 2543.58 3.03056 1.15445 0
M  V30 27360 H 2543.36 3.9014 -0.391591 0
M  V30 27361 H 2544.85 4.13689 0.570172 0
M  V30 27362 N 2545.29 0.743226 1.38974 0
M  V30 27363 C 2546.24 0.0978798 2.32394 0
M  V30 27364 C 2547.23 -0.716797 1.53487 0
M  V30 27365 O 2548.44 -0.617059 1.69093 0
M  V30 27366 H 2544.81 0.0128534 0.75189 0
M  V30 27367 H 2546.78 0.902031 2.8444 0
M  V30 27368 C 2545.53 -0.788977 3.3863 0
M  V30 27369 H 2544.85 -0.171489 3.99432 0
M  V30 27370 H 2546.29 -1.208 4.06428 0
M  V30 27371 C 2544.75 -1.92697 2.7635 0
M  V30 27372 O 2545.28 -3.0203 2.64841 0
M  V30 27373 N 2543.49 -1.71887 2.34314 0
M  V30 27374 H 2543.04 -0.829632 2.43875 0
M  V30 27375 H 2542.99 -2.48202 1.92985 0
M  V30 27376 N 2546.77 -1.4974 0.491491 0
M  V30 27377 C 2548 -2.06531 -0.0534012 0
M  V30 27378 C 2548.4 -1.35321 -1.32231 0
M  V30 27379 O 2547.75 -0.422274 -1.78781 0
M  V30 27380 C 2547.81 -3.57411 -0.386971 0
M  V30 27381 C 2547.47 -4.50245 0.782843 0
M  V30 27382 C 2548.47 -4.92326 1.67067 0
M  V30 27383 C 2546.16 -4.92668 0.978953 0
M  V30 27384 C 2548.15 -5.75557 2.73884 0
M  V30 27385 C 2545.84 -5.75678 2.05032 0
M  V30 27386 C 2546.83 -6.17026 2.92861 0
M  V30 27387 O 2546.52 -6.98378 3.9815 0
M  V30 27388 H 2546.25 -0.675876 0.0129443 0
M  V30 27389 H 2548.81 -1.93632 0.685272 0
M  V30 27390 H 2547.04 -3.68285 -1.17911 0
M  V30 27391 H 2548.73 -3.96481 -0.86935 0
M  V30 27392 H 2549.49 -4.60204 1.53094 0
M  V30 27393 H 2545.37 -4.59992 0.304727 0
M  V30 27394 H 2548.92 -6.07751 3.42468 0
M  V30 27395 H 2544.81 -6.07213 2.19004 0
M  V30 27396 H 2545.58 -7.16667 3.95387 0
M  V30 27397 N 2548.24 -0.224922 -1.55987 0
M  V30 27398 C 2549.49 0.406238 -1.97567 0
M  V30 27399 C 2549.81 1.60658 -1.11572 0
M  V30 27400 O 2551.01 2.30748 -1.43066 0
M  V30 27401 C 2549.47 0.774145 -3.51475 0
M  V30 27402 C 2549.08 -0.403574 -4.46179 0
M  V30 27403 C 2550.82 1.37072 -4.01761 0
M  V30 27404 C 2548.73 -0.0130452 -5.91399 0
M  V30 27405 H 2547.66 0.155552 -0.73778 0
M  V30 27406 H 2550.31 -0.321667 -1.80659 0
M  V30 27407 H 2548.69 1.55957 -3.63997 0
M  V30 27408 H 2549.86 -1.18109 -4.45406 0
M  V30 27409 H 2548.18 -0.913607 -4.06254 0
M  V30 27410 H 2550.78 1.67587 -5.07759 0
M  V30 27411 H 2551.12 2.28767 -3.4781 0
M  V30 27412 H 2551.65 0.648664 -3.92476 0
M  V30 27413 H 2548.39 -0.896565 -6.4934 0
M  V30 27414 H 2547.91 0.728717 -5.95357 0
M  V30 27415 H 2549.59 0.412468 -6.45684 0
M  V30 27416 N 2549.72 1.57526 0.0484352 0
M  V30 27417 C 2550.67 2.06343 1.07356 0
M  V30 27418 C 2551.66 0.973294 1.38648 0
M  V30 27419 O 2552.87 1.1583 1.37781 0
M  V30 27420 H 2549.25 0.658227 0.363651 0
M  V30 27421 H 2551.22 2.91546 0.635864 0
M  V30 27422 C 2549.97 2.54233 2.37193 0
M  V30 27423 H 2549.29 3.37723 2.13971 0
M  V30 27424 H 2550.73 2.92121 3.07313 0
M  V30 27425 C 2549.19 1.43517 3.04802 0
M  V30 27426 O 2549.72 0.79041 3.93847 0
M  V30 27427 N 2547.92 1.17448 2.65809 0
M  V30 27428 H 2547.47 1.70062 1.93485 0
M  V30 27429 H 2547.43 0.435792 3.11365 0
M  V30 27430 N 2551.2 -0.32033 1.5431 0
M  V30 27431 C 2552.11 -1.4173 1.86948 0
M  V30 27432 C 2553.13 -1.56441 0.761717 0
M  V30 27433 O 2554.3 -1.71475 1.05632 0
M  V30 27434 C 2551.37 -2.76397 2.09297 0
M  V30 27435 C 2550.43 -2.70835 3.33087 0
M  V30 27436 C 2549.66 -3.99079 3.5436 0
M  V30 27437 O 2549.88 -4.97503 2.79011 0
M  V30 27438 O 2548.82 -4.02142 4.47845 0
M  V30 27439 H 2552.64 -1.17057 2.80234 0
M  V30 27440 H 2550.23 -0.514649 1.40256 0
M  V30 27441 H 2552.11 -3.56109 2.25309 0
M  V30 27442 H 2550.79 -3.00954 1.19199 0
M  V30 27443 H 2549.69 -1.89663 3.22458 0
M  V30 27444 H 2551.03 -2.51232 4.23253 0
M  V30 27445 N 2552.68 -1.46438 -0.582558 0
M  V30 27446 C 2553.63 -1.57013 -1.69161 0
M  V30 27447 C 2554.6 -0.414431 -1.60847 0
M  V30 27448 O 2555.78 -0.631202 -1.80057 0
M  V30 27449 C 2552.92 -1.56651 -3.07497 0
M  V30 27450 C 2552.03 -2.82956 -3.26435 0
M  V30 27451 C 2551.17 -2.74098 -4.55021 0
M  V30 27452 C 2550.21 -3.95341 -4.67303 0
M  V30 27453 N 2549.34 -3.84868 -5.87215 0
M  V30 27454 H 2554.18 -2.51747 -1.5946 0
M  V30 27455 H 2551.72 -1.24894 -0.777164 0
M  V30 27456 H 2553.68 -1.54427 -3.87567 0
M  V30 27457 H 2552.31 -0.654495 -3.16095 0
M  V30 27458 H 2551.36 -2.9516 -2.39969 0
M  V30 27459 H 2552.67 -3.72813 -3.31378 0
M  V30 27460 H 2551.83 -2.6998 -5.43319 0
M  V30 27461 H 2550.57 -1.81881 -4.52516 0
M  V30 27462 H 2549.57 -3.99791 -3.77422 0
M  V30 27463 H 2550.8 -4.88654 -4.71586 0
M  V30 27464 H 2548.74 -2.95438 -5.85707 0
M  V30 27465 H 2548.66 -4.68381 -5.93427 0
M  V30 27466 H 2549.93 -3.84725 -6.77943 0
M  V30 27467 N 2554.16 0.827204 -1.34146 0
M  V30 27468 C 2555.41 1.57817 -1.25605 0
M  V30 27469 C 2555.72 1.9483 0.173411 0
M  V30 27470 O 2556.92 2.68814 0.380936 0
M  V30 27471 C 2555.38 2.84709 -2.20156 0
M  V30 27472 C 2554.99 2.55015 -3.68336 0
M  V30 27473 C 2556.73 3.62731 -2.20514 0
M  V30 27474 C 2554.64 3.78074 -4.54768 0
M  V30 27475 H 2553.57 0.592297 -0.466583 0
M  V30 27476 H 2556.22 0.911088 -1.59284 0
M  V30 27477 H 2554.6 3.5302 -1.79423 0
M  V30 27478 H 2555.78 1.94841 -4.17581 0
M  V30 27479 H 2554.09 1.90276 -3.70384 0
M  V30 27480 H 2556.69 4.54096 -2.82314 0
M  V30 27481 H 2557.03 3.98531 -1.20329 0
M  V30 27482 H 2557.56 3.01358 -2.5967 0
M  V30 27483 H 2554.3 3.47397 -5.55873 0
M  V30 27484 H 2553.82 4.37545 -4.10261 0
M  V30 27485 H 2555.5 4.4553 -4.69161 0
M  V30 27486 N 2555.63 1.17805 1.04688 0
M  V30 27487 C 2556.58 0.895673 2.14664 0
M  V30 27488 C 2557.58 -0.14165 1.68807 0
M  V30 27489 O 2558.78 0.00591078 1.79999 0
M  V30 27490 H 2555.16 0.272134 0.701033 0
M  V30 27491 H 2557.13 1.83021 2.35682 0
M  V30 27492 C 2555.88 0.431023 3.45018 0
M  V30 27493 H 2555.2 1.2207 3.80708 0
M  V30 27494 H 2556.64 0.272376 4.23124 0
M  V30 27495 C 2555.1 -0.85215 3.25945 0
M  V30 27496 O 2555.63 -1.9178 3.52964 0
M  V30 27497 N 2553.84 -0.802297 2.79305 0
M  V30 27498 H 2553.38 0.0651241 2.57518 0
M  V30 27499 H 2553.34 -1.66129 2.66924 0
M  V30 27500 N 2557.11 -1.23497 0.979094 0
M  V30 27501 C 2558.36 -1.92162 0.648212 0
M  V30 27502 C 2558.69 -1.76224 -0.816018 0
M  V30 27503 O 2557.97 -1.1224 -1.58847 0
M  V30 27504 C 2558.25 -3.44822 1.03779 0
M  V30 27505 C 2558.1 -3.69874 2.55955 0
M  V30 27506 C 2559.42 -4.36252 0.58073 0
M  V30 27507 H 2556.54 -0.697866 0.236964 0
M  V30 27508 H 2559.18 -1.45645 1.22014 0
M  V30 27509 H 2557.33 -3.84571 0.551126 0
M  V30 27510 H 2559 -3.39615 3.12185 0
M  V30 27511 H 2557.25 -3.14631 2.98647 0
M  V30 27512 H 2557.92 -4.76732 2.78263 0
M  V30 27513 H 2560.39 -4.03941 0.998536 0
M  V30 27514 H 2559.27 -5.41771 0.881759 0
M  V30 27515 H 2559.53 -4.39043 -0.518975 0
M  V30 27516 N 2558.59 -0.750586 -1.38578 0
M  V30 27517 C 2559.54 -0.110203 -2.32339 0
M  V30 27518 C 2560.53 0.708647 -1.53865 0
M  V30 27519 O 2561.74 0.608082 -1.69418 0
M  V30 27520 H 2558.11 -0.0168407 -0.751811 0
M  V30 27521 H 2560.09 -0.917102 -2.83957 0
M  V30 27522 C 2558.83 0.771007 -3.39044 0
M  V30 27523 H 2558.16 0.150304 -3.99517 0
M  V30 27524 H 2559.6 1.18642 -4.07063 0
M  V30 27525 C 2558.06 1.91229 -2.77368 0
M  V30 27526 O 2558.59 3.00621 -2.66439 0
M  V30 27527 N 2556.79 1.70642 -2.35222 0
M  V30 27528 H 2556.34 0.816687 -2.44311 0
M  V30 27529 H 2556.3 2.47175 -1.94298 0
M  V30 27530 N 2560.07 1.49477 -0.499425 0
M  V30 27531 C 2561.32 2.01644 0.0474904 0
M  V30 27532 C 2561.63 1.38428 1.38192 0
M  V30 27533 O 2562.84 1.81913 2.01544 0
M  V30 27534 C 2561.29 3.59646 0.135101 0
M  V30 27535 C 2560.9 4.31835 -1.19259 0
M  V30 27536 C 2562.65 4.19762 0.632464 0
M  V30 27537 C 2560.55 5.81691 -1.06723 0
M  V30 27538 H 2559.48 0.753693 0.0215217 0
M  V30 27539 H 2562.13 1.72029 -0.638607 0
M  V30 27540 H 2560.52 3.8597 0.885614 0
M  V30 27541 H 2561.69 4.17213 -1.95628 0
M  V30 27542 H 2560 3.83456 -1.62327 0
M  V30 27543 H 2562.6 5.29502 0.74374 0
M  V30 27544 H 2562.94 3.83024 1.63091 0
M  V30 27545 H 2563.48 3.97753 -0.0614686 0
M  V30 27546 H 2560.22 6.22951 -2.0399 0
M  V30 27547 H 2559.74 5.9881 -0.344412 0
M  V30 27548 H 2561.42 6.42693 -0.745321 0
M  V30 27549 N 2561.55 0.233191 1.55865 0
M  V30 27550 C 2562.5 -0.688471 2.22177 0
M  V30 27551 C 2563.49 -1.19074 1.20489 0
M  V30 27552 O 2564.7 -1.14922 1.38538 0
M  V30 27553 H 2561.07 -0.24047 0.712515 0
M  V30 27554 H 2563.04 -0.105883 2.98212 0
M  V30 27555 C 2561.79 -1.88066 2.92449 0
M  V30 27556 H 2561.11 -1.5033 3.7046 0
M  V30 27557 H 2562.55 -2.50308 3.42231 0
M  V30 27558 C 2561.01 -2.74332 1.9556 0
M  V30 27559 O 2561.54 -3.73445 1.47993 0
M  V30 27560 N 2559.75 -2.4061 1.62957 0
M  V30 27561 H 2559.3 -1.60065 2.01834 0
M  V30 27562 H 2559.25 -2.98607 0.983939 0
M  V30 27563 N 2563.03 -1.57549 -0.0400806 0
M  V30 27564 C 2564.3 -1.79897 -0.767886 0
M  V30 27565 C 2564.68 -0.828594 -1.94159 0
M  V30 27566 O 2564.03 0.131631 -2.28121 0
M  V30 27567 C 2564.24 -3.27307 -1.21124 0
M  V30 27568 C 2565.59 -3.91997 -1.63168 0
M  V30 27569 O 2566.61 -3.3139 -1.3061 0
M  V30 27570 O 2565.47 -4.98683 -2.23557 0
M  V30 27571 H 2562.57 -0.7394 -0.370428 0
M  V30 27572 H 2565.11 -1.69691 -0.0177072 0
M  V30 27573 H 2563.88 -3.89519 -0.372869 0
M  V30 27574 H 2563.51 -3.4236 -2.02177 0
M  V30 27575 N 2564.5 0.312142 -1.54478 0
M  V30 27576 C 2565.43 1.38954 -1.87654 0
M  V30 27577 C 2566.41 1.5343 -0.734385 0
M  V30 27578 O 2567.6 1.67122 -0.989139 0
M  V30 27579 C 2564.73 2.75549 -2.11401 0
M  V30 27580 C 2563.68 2.75849 -3.27248 0
M  V30 27581 C 2563.01 4.15628 -3.36389 0
M  V30 27582 C 2564.31 2.38579 -4.64626 0
M  V30 27583 H 2566 1.11437 -2.77889 0
M  V30 27584 H 2563.55 0.534631 -1.33707 0
M  V30 27585 H 2565.5 3.50996 -2.33195 0
M  V30 27586 H 2564.23 3.04567 -1.17926 0
M  V30 27587 H 2562.89 2.02857 -3.0536 0
M  V30 27588 H 2562.53 4.41805 -2.40452 0
M  V30 27589 H 2562.23 4.16732 -4.14256 0
M  V30 27590 H 2563.76 4.92871 -3.60431 0
M  V30 27591 H 2565.17 3.03741 -4.86225 0
M  V30 27592 H 2563.57 2.50916 -5.45125 0
M  V30 27593 H 2564.64 1.33715 -4.66099 0
M  V30 27594 N 2565.98 1.46745 0.574784 0
M  V30 27595 C 2567.21 1.5629 1.36338 0
M  V30 27596 C 2567.63 0.20738 1.86953 0
M  V30 27597 O 2566.99 -0.813842 1.62007 0
M  V30 27598 C 2567.04 2.57791 2.52143 0
M  V30 27599 O 2566.14 2.11844 3.5383 0
M  V30 27600 H 2565.48 0.525643 0.405703 0
M  V30 27601 H 2568.01 1.92383 0.696419 0
M  V30 27602 H 2568.02 2.77653 2.98953 0
M  V30 27603 H 2566.7 3.56224 2.14657 0
M  V30 27604 H 2565.27 2.02005 3.13446 0
M  V30 27605 N 2567.46 -0.820078 1.34583 0
M  V30 27606 C 2568.71 -1.57149 1.2644 0
M  V30 27607 C 2569.02 -1.94919 -0.163076 0
M  V30 27608 O 2570.23 -2.69013 -0.366675 0
M  V30 27609 C 2568.68 -2.83537 2.21663 0
M  V30 27610 C 2568.29 -2.53058 3.69683 0
M  V30 27611 C 2570.04 -3.61557 2.22434 0
M  V30 27612 C 2567.94 -3.75656 4.56767 0
M  V30 27613 H 2566.87 -0.589815 0.469718 0
M  V30 27614 H 2569.52 -0.902628 1.59765 0
M  V30 27615 H 2567.91 -3.52064 1.81293 0
M  V30 27616 H 2569.08 -1.92624 4.18608 0
M  V30 27617 H 2567.39 -1.88309 3.71387 0
M  V30 27618 H 2569.99 -4.52592 2.84718 0
M  V30 27619 H 2570.33 -3.97887 1.22441 0
M  V30 27620 H 2570.87 -2.99977 2.61264 0
M  V30 27621 H 2567.61 -3.44445 5.57708 0
M  V30 27622 H 2567.13 -4.35363 4.12576 0
M  V30 27623 H 2568.81 -4.43036 4.71517 0
M  V30 27624 N 2568.94 -1.18359 -1.04062 0
M  V30 27625 C 2570.35 -0.933281 -1.29468 0
M  V30 27626 C 2570.55 0.401134 -1.97467 0
M  V30 27627 O 2569.61 1.13546 -2.2553 0
M  V30 27628 C 2570.92 -2.09886 -2.15333 0
M  V30 27629 C 2572.47 -2.13716 -2.2868 0
M  V30 27630 C 2572.95 -3.29692 -3.17911 0
M  V30 27631 N 2574.44 -3.29553 -3.25499 0
M  V30 27632 C 2575.17 -4.15933 -3.94699 0
M  V30 27633 N 2574.67 -5.12447 -4.6623 0
M  V30 27634 N 2576.46 -4.03847 -3.90978 0
M  V30 27635 H 2568.61 -2.04233 -0.583323 0
M  V30 27636 H 2570.87 -0.892393 -0.319905 0
M  V30 27637 H 2570.58 -3.06392 -1.72676 0
M  V30 27638 H 2570.45 -2.05953 -3.16012 0
M  V30 27639 H 2572.84 -1.17788 -2.70573 0
M  V30 27640 H 2572.92 -2.21707 -1.27592 0
M  V30 27641 H 2572.57 -4.25891 -2.76729 0
M  V30 27642 H 2572.5 -3.18937 -4.19031 0
M  V30 27643 H 2574.99 -2.59682 -2.74543 0
M  V30 27644 H 2575.3 -5.74731 -5.16628 0
M  V30 27645 H 2573.65 -5.16406 -4.65134 0
M  V30 27646 H 2576.84 -3.27733 -3.34228 0
M  V30 27647 H 2577.01 -4.71383 -4.44637 0
M  V30 27648 N 2570.42 1.22976 -0.98563 0
M  V30 27649 C 2571.65 1.95275 -0.674637 0
M  V30 27650 C 2572.05 1.73113 0.763453 0
M  V30 27651 O 2571.4 1.02271 1.52599 0
M  V30 27652 C 2571.46 3.48267 -0.891658 0
M  V30 27653 C 2571.12 3.94154 -2.31282 0
M  V30 27654 C 2572.12 4.02409 -3.29186 0
M  V30 27655 C 2569.8 4.26999 -2.64531 0
M  V30 27656 C 2571.8 4.42871 -4.58415 0
M  V30 27657 C 2569.49 4.67142 -3.93982 0
M  V30 27658 C 2570.48 4.75045 -4.90736 0
M  V30 27659 O 2570.17 5.14283 -6.17874 0
M  V30 27660 H 2569.9 0.628366 -0.249262 0
M  V30 27661 H 2572.46 1.57278 -1.32109 0
M  V30 27662 H 2570.69 3.86243 -0.18803 0
M  V30 27663 H 2572.38 4.01778 -0.577028 0
M  V30 27664 H 2573.14 3.77232 -3.0483 0
M  V30 27665 H 2569.02 4.20057 -1.8993 0
M  V30 27666 H 2572.57 4.48954 -5.33934 0
M  V30 27667 H 2568.46 4.91769 -4.1813 0
M  V30 27668 H 2569.23 5.32379 -6.21704 0
M  V30 27669 N 2571.89 0.757924 1.38178 0
M  V30 27670 C 2573.14 0.316488 2.00315 0
M  V30 27671 C 2573.47 -1.10022 1.60028 0
M  V30 27672 O 2572.75 -1.75432 0.839866 0
M  V30 27673 C 2573.03 0.444307 3.57348 0
M  V30 27674 C 2572.88 1.90243 4.07587 0
M  V30 27675 C 2574.2 -0.159723 4.3981 0
M  V30 27676 H 2571.32 0.116471 0.727739 0
M  V30 27677 H 2573.96 0.958381 1.64058 0
M  V30 27678 H 2572.11 -0.102165 3.88366 0
M  V30 27679 H 2573.79 2.50755 3.87195 0
M  V30 27680 H 2572.03 2.41602 3.60293 0
M  V30 27681 H 2572.7 1.943 5.16673 0
M  V30 27682 H 2575.18 0.306387 4.1497 0
M  V30 27683 H 2574.05 -0.040071 5.48885 0
M  V30 27684 H 2574.31 -1.24851 4.24104 0
M  V30 27685 N 2573.37 -1.4921 0.507345 0
M  V30 27686 C 2574.62 -2.03382 -0.0269375 0
M  V30 27687 C 2574.97 -1.37959 -1.34108 0
M  V30 27688 O 2574.27 -0.508384 -1.84732 0
M  V30 27689 C 2574.46 -3.56663 -0.22945 0
M  V30 27690 C 2574.29 -4.36943 1.06351 0
M  V30 27691 C 2573.06 -4.78726 1.61709 0
M  V30 27692 C 2575.26 -4.7514 1.96841 0
M  V30 27693 N 2573.24 -5.43458 2.85529 0
M  V30 27694 C 2574.61 -5.39656 3.0524 0
M  V30 27695 C 2576.67 -4.57079 1.97442 0
M  V30 27696 C 2575.37 -5.88021 4.14275 0
M  V30 27697 C 2577.39 -5.06409 3.05457 0
M  V30 27698 C 2576.76 -5.70931 4.12574 0
M  V30 27699 H 2572.86 -0.781382 0.031081 0
M  V30 27700 H 2575.44 -1.82304 0.683611 0
M  V30 27701 H 2573.61 -3.77612 -0.90906 0
M  V30 27702 H 2575.34 -3.97475 -0.761307 0
M  V30 27703 H 2572.1 -4.59139 1.16141 0
M  V30 27704 H 2572.52 -5.80405 3.48509 0
M  V30 27705 H 2577.16 -4.06595 1.15931 0
M  V30 27706 H 2574.88 -6.37522 4.9658 0
M  V30 27707 H 2578.47 -4.9424 3.06949 0
M  V30 27708 H 2577.35 -6.08411 4.94778 0
M  V30 27709 N 2574.85 -0.241454 -1.55739 0
M  V30 27710 C 2576.08 0.392076 -2.0366 0
M  V30 27711 C 2576.5 1.51142 -1.11971 0
M  V30 27712 O 2575.86 1.80956 -0.111626 0
M  V30 27713 C 2575.91 0.882309 -3.49639 0
M  V30 27714 O 2575.01 1.99229 -3.61084 0
M  V30 27715 H 2574.35 0.0862006 -0.658381 0
M  V30 27716 H 2576.88 -0.365917 -2.01301 0
M  V30 27717 H 2576.89 1.18695 -3.90353 0
M  V30 27718 H 2575.57 0.063163 -4.15852 0
M  V30 27719 H 2574.14 1.69276 -3.32265 0
M  V30 27720 N 2576.33 1.57568 0.0317248 0
M  V30 27721 C 2577.28 2.0747 1.05161 0
M  V30 27722 C 2578.27 0.987944 1.37608 0
M  V30 27723 O 2579.48 1.17284 1.36544 0
M  V30 27724 H 2575.85 0.662047 0.356649 0
M  V30 27725 H 2577.82 2.92204 0.604906 0
M  V30 27726 C 2576.57 2.56735 2.34484 0
M  V30 27727 H 2575.89 3.39973 2.10377 0
M  V30 27728 H 2577.33 2.95364 3.04198 0
M  V30 27729 C 2575.79 1.46742 3.03263 0
M  V30 27730 O 2576.32 0.832138 3.92986 0
M  V30 27731 N 2574.53 1.20261 2.64548 0
M  V30 27732 H 2574.08 1.72105 1.91671 0
M  V30 27733 H 2574.03 0.468792 3.10885 0
M  V30 27734 N 2577.81 -0.303946 1.54641 0
M  V30 27735 C 2579.08 -1.05894 1.64456 0
M  V30 27736 C 2579.46 -2.05311 0.490959 0
M  V30 27737 O 2578.81 -2.22675 -0.512646 0
M  V30 27738 C 2579.02 -1.74342 3.02334 0
M  V30 27739 C 2580.37 -2.26647 3.59049 0
M  V30 27740 O 2581.39 -1.84379 3.04767 0
M  V30 27741 O 2580.25 -3.04085 4.54086 0
M  V30 27742 H 2577.35 -0.489275 0.666737 0
M  V30 27743 H 2579.89 -0.302269 1.66986 0
M  V30 27744 H 2578.66 -1.02136 3.77735 0
M  V30 27745 H 2578.29 -2.56771 3.03569 0
M  V30 27746 N 2579.28 -1.47047 -0.566994 0
M  V30 27747 C 2580.53 -1.52867 -1.32198 0
M  V30 27748 C 2580.85 -0.188422 -1.94088 0
M  V30 27749 O 2580.12 0.786661 -1.79411 0
M  V30 27750 H 2578.7 -0.563065 -0.490884 0
M  V30 27751 H 2581.37 -1.83282 -0.662847 0
M  V30 27752 H 2580.46 -2.28993 -2.12058 0
M  V30 27753 N 2580.76 0.812929 -1.35016 0
M  V30 27754 C 2581.71 1.94582 -1.27438 0
M  V30 27755 C 2582.7 1.6854 -0.170523 0
M  V30 27756 O 2583.91 1.76834 -0.336117 0
M  V30 27757 H 2580.29 0.639191 -0.396155 0
M  V30 27758 H 2582.26 1.98094 -2.23162 0
M  V30 27759 C 2581.01 3.3125 -1.05683 0
M  V30 27760 H 2580.33 3.51843 -1.89859 0
M  V30 27761 H 2581.77 4.10941 -1.0442 0
M  V30 27762 C 2580.23 3.36047 0.239556 0
M  V30 27763 O 2580.76 3.82163 1.23753 0
M  V30 27764 N 2578.96 2.89285 0.276135 0
M  V30 27765 H 2578.51 2.5195 -0.536574 0
M  V30 27766 H 2578.47 2.92877 1.14327 0
M  V30 27767 N 2582.24 1.18909 1.03433 0
M  V30 27768 C 2583.52 0.897841 1.73776 0
M  V30 27769 C 2583.9 -0.597796 2.02459 0
M  V30 27770 O 2583.25 -1.55438 1.67485 0
M  V30 27771 C 2583.46 1.75192 3.01842 0
M  V30 27772 C 2584.8 1.98286 3.75457 0
M  V30 27773 O 2585.83 1.72298 3.11756 0
M  V30 27774 O 2584.69 2.42074 4.89962 0
M  V30 27775 H 2581.78 0.334112 0.756504 0
M  V30 27776 H 2584.33 1.29695 1.09441 0
M  V30 27777 H 2583.1 2.7655 2.76831 0
M  V30 27778 H 2582.72 1.35174 3.73917 0
M  V30 27779 N 2583.72 -1.22452 0.992137 0
M  V30 27780 C 2584.97 -1.9118 0.667568 0
M  V30 27781 C 2585.29 -1.77273 -0.800286 0
M  V30 27782 O 2584.55 -1.13508 -1.59419 0
M  V30 27783 C 2584.85 -3.42584 1.01839 0
M  V30 27784 C 2584.51 -3.76679 2.47838 0
M  V30 27785 C 2583.18 -3.85696 2.87736 0
M  V30 27786 C 2585.53 -3.92889 3.42473 0
M  V30 27787 C 2582.86 -4.08359 4.2126 0
M  V30 27788 C 2585.21 -4.17055 4.75655 0
M  V30 27789 C 2583.87 -4.24296 5.15295 0
M  V30 27790 H 2583.14 -0.699577 0.24428 0
M  V30 27791 H 2585.79 -1.45233 1.24818 0
M  V30 27792 H 2584.09 -3.90181 0.355838 0
M  V30 27793 H 2585.79 -3.94013 0.745297 0
M  V30 27794 H 2582.38 -3.70243 2.15912 0
M  V30 27795 H 2586.56 -3.85301 3.12821 0
M  V30 27796 H 2581.82 -4.12192 4.51562 0
M  V30 27797 H 2585.99 -4.28541 5.48932 0
M  V30 27798 H 2583.62 -4.4161 6.18777 0
M  V30 27799 N 2585.2 -0.765242 -1.37774 0
M  V30 27800 C 2586.45 -0.323342 -1.99091 0
M  V30 27801 C 2586.76 1.10444 -1.61436 0
M  V30 27802 O 2587.96 1.64739 -2.15808 0
M  V30 27803 C 2586.42 -0.52716 -3.56018 0
M  V30 27804 C 2586.03 -1.96478 -4.02617 0
M  V30 27805 C 2587.77 -0.148557 -4.2424 0
M  V30 27806 C 2585.68 -2.11654 -5.52229 0
M  V30 27807 H 2584.61 -0.11715 -0.744844 0
M  V30 27808 H 2587.26 -0.943444 -1.57389 0
M  V30 27809 H 2585.64 0.162303 -3.95667 0
M  V30 27810 H 2586.82 -2.68866 -3.74229 0
M  V30 27811 H 2585.13 -2.29937 -3.47157 0
M  V30 27812 H 2587.73 -0.24055 -5.34159 0
M  V30 27813 H 2588.07 0.900351 -4.06447 0
M  V30 27814 H 2588.6 -0.790318 -3.8987 0
M  V30 27815 H 2585.34 -3.1484 -5.7494 0
M  V30 27816 H 2584.86 -1.43741 -5.82322 0
M  V30 27817 H 2586.54 -1.91203 -6.18102 0
M  V30 27818 N 2586.67 1.48939 -0.515251 0
M  V30 27819 C 2587.6 2.32215 0.244587 0
M  V30 27820 C 2588.59 1.41159 0.949111 0
M  V30 27821 O 2589.77 1.70058 0.937753 0
M  V30 27822 C 2586.9 3.22015 1.30091 0
M  V30 27823 C 2585.85 4.21978 0.715412 0
M  V30 27824 C 2585.18 5.00811 1.8733 0
M  V30 27825 C 2586.48 5.2142 -0.303073 0
M  V30 27826 H 2588.17 2.95991 -0.450553 0
M  V30 27827 H 2585.72 1.42338 -0.218123 0
M  V30 27828 H 2587.67 3.79092 1.84031 0
M  V30 27829 H 2586.4 2.56211 2.02543 0
M  V30 27830 H 2585.06 3.66067 0.197651 0
M  V30 27831 H 2584.7 4.31443 2.58585 0
M  V30 27832 H 2584.4 5.68459 1.48754 0
M  V30 27833 H 2585.93 5.60736 2.41677 0
M  V30 27834 H 2587.34 5.73107 0.148701 0
M  V30 27835 H 2585.74 5.97038 -0.605425 0
M  V30 27836 H 2586.81 4.69456 -1.21403 0
M  V30 27837 N 2588.15 0.249709 1.55609 0
M  V30 27838 C 2589.09 -0.68937 2.17538 0
M  V30 27839 C 2590.06 -1.17081 1.12831 0
M  V30 27840 O 2591.25 -1.24844 1.41232 0
M  V30 27841 C 2588.38 -1.9372 2.77831 0
M  V30 27842 C 2587.42 -1.59339 3.95618 0
M  V30 27843 S 2588.25 -0.693577 5.30989 0
M  V30 27844 C 2589.41 -1.95035 5.94737 0
M  V30 27845 H 2589.64 -0.163089 2.96852 0
M  V30 27846 H 2587.18 0.0341437 1.54362 0
M  V30 27847 H 2589.13 -2.65356 3.13204 0
M  V30 27848 H 2587.8 -2.43461 1.98458 0
M  V30 27849 H 2586.99 -2.52125 4.36405 0
M  V30 27850 H 2586.59 -0.957448 3.61537 0
M  V30 27851 H 2588.88 -2.89729 6.12424 0
M  V30 27852 H 2589.83 -1.58592 6.90112 0
M  V30 27853 H 2590.23 -2.10372 5.23836 0
M  V30 27854 N 2589.63 -1.57583 -0.0233682 0
M  V30 27855 C 2590.86 -1.9419 -0.728341 0
M  V30 27856 C 2591.28 -0.850148 -1.67792 0
M  V30 27857 O 2590.64 0.193678 -1.80263 0
M  V30 27858 C 2590.69 -3.2987 -1.45663 0
M  V30 27859 O 2589.79 -3.22523 -2.57008 0
M  V30 27860 H 2589.13 -0.634573 -0.195482 0
M  V30 27861 H 2591.66 -2.04587 0.0228573 0
M  V30 27862 H 2591.67 -3.64893 -1.82529 0
M  V30 27863 H 2590.35 -4.08893 -0.760242 0
M  V30 27864 H 2588.92 -2.9914 -2.22643 0
M  V30 27865 N 2591.11 0.29574 -1.548 0
M  V30 27866 C 2592.34 1.04911 -1.78329 0
M  V30 27867 C 2592.75 1.80752 -0.545347 0
M  V30 27868 O 2592.11 1.75938 0.484982 0
M  V30 27869 C 2592.16 2.02556 -2.99422 0
M  V30 27870 O 2591.88 1.2979 -4.18433 0
M  V30 27871 C 2593.38 2.89889 -3.3538 0
M  V30 27872 H 2590.6 0.310908 -0.594624 0
M  V30 27873 H 2593.15 0.333418 -2.01764 0
M  V30 27874 H 2591.3 2.69619 -2.7818 0
M  V30 27875 H 2591.72 1.9541 -4.86739 0
M  V30 27876 H 2593.19 3.54243 -4.23339 0
M  V30 27877 H 2593.67 3.58467 -2.53768 0
M  V30 27878 H 2594.27 2.28348 -3.588 0
M  V30 27879 N 2592.59 1.47346 0.559187 0
M  V30 27880 C 2593.81 1.57727 1.34673 0
M  V30 27881 C 2594.24 0.227197 1.86723 0
M  V30 27882 O 2593.6 -0.796613 1.62861 0
M  V30 27883 C 2593.64 2.60451 2.49394 0
M  V30 27884 O 2592.75 2.15585 3.51564 0
M  V30 27885 H 2592.09 0.529917 0.400105 0
M  V30 27886 H 2594.62 1.93111 0.675975 0
M  V30 27887 H 2594.63 2.80808 2.95991 0
M  V30 27888 H 2593.3 3.5848 2.10867 0
M  V30 27889 H 2591.88 2.05318 3.11286 0
M  V30 27890 N 2594.07 -0.805758 1.35445 0
M  V30 27891 C 2594.98 -1.94921 1.30549 0
M  V30 27892 C 2595.99 -1.72725 0.210264 0
M  V30 27893 O 2597.17 -1.9654 0.439784 0
M  V30 27894 C 2594.23 -3.29519 1.07788 0
M  V30 27895 C 2593.29 -3.64605 2.26632 0
M  V30 27896 C 2592.53 -4.9278 2.04947 0
M  V30 27897 O 2592.75 -5.61272 1.01634 0
M  V30 27898 O 2591.68 -5.26144 2.92329 0
M  V30 27899 H 2595.51 -2.01998 2.26783 0
M  V30 27900 H 2593.09 -0.943661 1.15825 0
M  V30 27901 H 2594.98 -4.10097 0.969464 0
M  V30 27902 H 2593.65 -3.2337 0.14606 0
M  V30 27903 H 2592.56 -2.844 2.43038 0
M  V30 27904 H 2593.89 -3.75459 3.18263 0
M  V30 27905 N 2595.54 -1.19456 -1.02801 0
M  V30 27906 C 2596.45 -0.948445 -2.14573 0
M  V30 27907 C 2597.47 0.0918405 -1.73757 0
M  V30 27908 O 2598.65 -0.0930008 -2.01185 0
M  V30 27909 C 2595.71 -0.491326 -3.43201 0
M  V30 27910 C 2594.77 -1.6011 -3.98325 0
M  V30 27911 C 2594 -1.1657 -5.20814 0
M  V30 27912 O 2594.23 -0.029624 -5.70392 0
M  V30 27913 O 2593.16 -1.96859 -5.68797 0
M  V30 27914 H 2596.99 -1.88401 -2.38199 0
M  V30 27915 H 2594.57 -0.977453 -1.12988 0
M  V30 27916 H 2596.45 -0.245089 -4.20687 0
M  V30 27917 H 2595.13 0.415794 -3.21018 0
M  V30 27918 H 2594.04 -1.9015 -3.22171 0
M  V30 27919 H 2595.37 -2.48481 -4.24874 0
M  V30 27920 N 2597.02 1.21924 -0.998617 0
M  V30 27921 C 2597.97 2.26084 -0.546681 0
M  V30 27922 C 2598.96 1.64474 0.405547 0
M  V30 27923 O 2600.17 1.77849 0.27744 0
M  V30 27924 H 2596.54 0.735125 -0.158416 0
M  V30 27925 H 2598.52 2.61548 -1.43649 0
M  V30 27926 C 2597.26 3.47502 0.117327 0
M  V30 27927 H 2596.59 3.95175 -0.606346 0
M  V30 27928 H 2598.03 4.22138 0.396918 0
M  V30 27929 C 2596.49 3.08472 1.35449 0
M  V30 27930 O 2597.02 3.18384 2.44938 0
M  V30 27931 N 2595.22 2.63199 1.23186 0
M  V30 27932 H 2594.77 2.55334 0.340961 0
M  V30 27933 H 2594.73 2.37453 2.06067 0
M  V30 27934 N 2598.5 0.772537 1.37367 0
M  V30 27935 C 2599.45 0.157528 2.30262 0
M  V30 27936 C 2600.42 -0.688939 1.51138 0
M  V30 27937 O 2601.6 -0.641137 1.79706 0
M  V30 27938 C 2598.74 -0.714986 3.37612 0
M  V30 27939 C 2597.85 0.148174 4.31746 0
M  V30 27940 C 2596.99 -0.72912 5.26172 0
M  V30 27941 C 2596.03 0.136525 6.11948 0
M  V30 27942 N 2595.17 -0.698791 6.98614 0
M  V30 27943 H 2600.01 0.955228 2.82275 0
M  V30 27944 H 2597.54 0.482656 1.38956 0
M  V30 27945 H 2599.5 -1.23568 3.98481 0
M  V30 27946 H 2598.13 -1.47828 2.86961 0
M  V30 27947 H 2597.18 0.786679 3.72177 0
M  V30 27948 H 2598.49 0.815877 4.92082 0
M  V30 27949 H 2597.65 -1.31626 5.92249 0
M  V30 27950 H 2596.39 -1.4305 4.66249 0
M  V30 27951 H 2595.39 0.736198 5.44849 0
M  V30 27952 H 2596.62 0.835252 6.73944 0
M  V30 27953 H 2594.56 -1.38477 6.41218 0
M  V30 27954 H 2594.48 -0.0884029 7.55948 0
M  V30 27955 H 2595.75 -1.2703 7.6908 0
M  V30 27956 N 2599.98 -1.48664 0.523142 0
M  V30 27957 C 2601.22 -2.02796 -0.0134606 0
M  V30 27958 C 2601.56 -1.40007 -1.3458 0
M  V30 27959 O 2600.83 -0.543414 -1.86755 0
M  V30 27960 C 2601.11 -3.59817 -0.142697 0
M  V30 27961 C 2600.97 -4.33098 1.21433 0
M  V30 27962 C 2602.29 -4.31359 -0.87278 0
M  V30 27963 H 2599.41 -0.736992 -0.00341778 0
M  V30 27964 H 2602.05 -1.77459 0.678847 0
M  V30 27965 H 2600.2 -3.81535 -0.732334 0
M  V30 27966 H 2601.87 -4.22817 1.84455 0
M  V30 27967 H 2600.11 -3.94785 1.79798 0
M  V30 27968 H 2600.78 -5.41392 1.07697 0
M  V30 27969 H 2603.26 -4.14429 -0.372482 0
M  V30 27970 H 2602.14 -5.40928 -0.93209 0
M  V30 27971 H 2602.4 -3.98157 -1.92154 0
M  V30 27972 N 2601.46 -0.257958 -1.55475 0
M  V30 27973 C 2602.68 0.370453 -2.04065 0
M  V30 27974 C 2603.11 1.49946 -1.13568 0
M  V30 27975 O 2602.46 1.80827 -0.130812 0
M  V30 27976 C 2602.51 0.845176 -3.50555 0
M  V30 27977 O 2601.62 1.95388 -3.63177 0
M  V30 27978 H 2600.96 0.0792128 -0.659258 0
M  V30 27979 H 2603.49 -0.387247 -2.00902 0
M  V30 27980 H 2603.5 1.14548 -3.9159 0
M  V30 27981 H 2602.17 0.0190528 -4.15896 0
M  V30 27982 H 2600.75 1.65742 -3.34042 0
M  V30 27983 N 2602.93 1.57593 0.0150108 0
M  V30 27984 C 2603.87 2.04293 1.03909 0
M  V30 27985 C 2604.88 0.958169 1.31617 0
M  V30 27986 O 2606.07 1.23524 1.28857 0
M  V30 27987 C 2603.17 2.41518 2.37744 0
M  V30 27988 C 2602.34 3.72545 2.29192 0
M  V30 27989 C 2601.4 3.96804 3.45591 0
M  V30 27990 O 2600.43 4.67674 3.24453 0
M  V30 27991 N 2601.63 3.43531 4.67939 0
M  V30 27992 H 2604.39 2.92766 0.640939 0
M  V30 27993 H 2601.95 1.60626 0.202691 0
M  V30 27994 H 2603.95 2.54872 3.1436 0
M  V30 27995 H 2602.52 1.58642 2.69354 0
M  V30 27996 H 2601.74 3.69411 1.37584 0
M  V30 27997 H 2603.02 4.58473 2.20634 0
M  V30 27998 H 2602.42 2.86113 4.88012 0
M  V30 27999 H 2600.98 3.62241 5.41871 0
M  V30 28000 N 2604.41 -0.287527 1.54955 0
M  V30 28001 C 2605.66 -1.02254 1.75134 0
M  V30 28002 C 2605.99 -1.86457 0.542891 0
M  V30 28003 O 2605.27 -1.88986 -0.459823 0
M  V30 28004 C 2605.55 -1.91728 3.04815 0
M  V30 28005 C 2605.4 -1.10615 4.35987 0
M  V30 28006 C 2606.72 -2.90681 3.30443 0
M  V30 28007 H 2603.84 -0.37033 0.637201 0
M  V30 28008 H 2606.48 -0.296079 1.87679 0
M  V30 28009 H 2604.63 -2.5367 2.94251 0
M  V30 28010 H 2606.3 -0.508555 4.58488 0
M  V30 28011 H 2604.55 -0.409195 4.31866 0
M  V30 28012 H 2605.22 -1.76503 5.23021 0
M  V30 28013 H 2607.69 -2.38871 3.40705 0
M  V30 28014 H 2606.57 -3.50439 4.22473 0
M  V30 28015 H 2606.83 -3.65049 2.49383 0
M  V30 28016 N 2605.89 -1.47641 -0.551365 0
M  V30 28017 C 2606.84 -1.60566 -1.65793 0
M  V30 28018 C 2607.81 -0.448456 -1.59931 0
M  V30 28019 O 2608.99 -0.669253 -1.78677 0
M  V30 28020 C 2606.13 -1.63139 -3.04105 0
M  V30 28021 C 2605.25 -2.89817 -3.2036 0
M  V30 28022 C 2604.38 -2.83688 -4.49104 0
M  V30 28023 C 2603.42 -4.05164 -4.58812 0
M  V30 28024 N 2602.56 -3.97237 -5.78919 0
M  V30 28025 H 2607.4 -2.55073 -1.54084 0
M  V30 28026 H 2604.93 -1.26515 -0.750498 0
M  V30 28027 H 2606.89 -1.62613 -3.84204 0
M  V30 28028 H 2605.52 -0.721396 -3.14636 0
M  V30 28029 H 2604.57 -3.00183 -2.33654 0
M  V30 28030 H 2605.89 -3.79759 -3.23396 0
M  V30 28031 H 2605.04 -2.81444 -5.3747 0
M  V30 28032 H 2603.78 -1.91438 -4.48556 0
M  V30 28033 H 2602.78 -4.07707 -3.68857 0
M  V30 28034 H 2604.01 -4.98548 -4.61115 0
M  V30 28035 H 2601.95 -3.07795 -5.79308 0
M  V30 28036 H 2601.87 -4.80863 -5.83358 0
M  V30 28037 H 2603.14 -3.99019 -6.6963 0
M  V30 28038 N 2607.37 0.798563 -1.3587 0
M  V30 28039 C 2608.62 1.55118 -1.28924 0
M  V30 28040 C 2608.93 1.95154 0.132046 0
M  V30 28041 O 2610.14 2.69562 0.323831 0
M  V30 28042 C 2608.59 2.79975 -2.26146 0
M  V30 28043 C 2608.2 2.47145 -3.73662 0
M  V30 28044 C 2609.94 3.57972 -2.28158 0
M  V30 28045 C 2607.85 3.68342 -4.62686 0
M  V30 28046 H 2606.78 0.582267 -0.479042 0
M  V30 28047 H 2609.43 0.877097 -1.61181 0
M  V30 28048 H 2607.81 3.49135 -1.86871 0
M  V30 28049 H 2608.99 1.8594 -4.21619 0
M  V30 28050 H 2607.3 1.82377 -3.74336 0
M  V30 28051 H 2609.9 4.48005 -2.91883 0
M  V30 28052 H 2610.24 3.95889 -1.28755 0
M  V30 28053 H 2610.78 2.95782 -2.66003 0
M  V30 28054 H 2607.52 3.35528 -5.63117 0
M  V30 28055 H 2607.04 4.28744 -4.1945 0
M  V30 28056 H 2608.71 4.35478 -4.78506 0
M  V30 28057 N 2608.85 1.19999 1.02166 0
M  V30 28058 C 2610.26 0.95376 1.27967 0
M  V30 28059 C 2610.46 -0.369668 1.9808 0
M  V30 28060 O 2609.52 -1.09943 2.27308 0
M  V30 28061 C 2610.83 2.13285 2.11967 0
M  V30 28062 C 2612.38 2.17327 2.25251 0
M  V30 28063 C 2612.85 3.34708 3.12626 0
M  V30 28064 N 2614.35 3.34689 3.20214 0
M  V30 28065 C 2615.08 4.2216 3.88032 0
M  V30 28066 N 2614.58 5.19799 4.58018 0
M  V30 28067 N 2616.37 4.10016 3.84504 0
M  V30 28068 H 2608.52 2.05135 0.550758 0
M  V30 28069 H 2610.78 0.897369 0.305667 0
M  V30 28070 H 2610.49 3.091 1.6778 0
M  V30 28071 H 2610.36 2.10954 3.12695 0
M  V30 28072 H 2612.75 1.22078 2.68665 0
M  V30 28073 H 2612.83 2.23709 1.24049 0
M  V30 28074 H 2612.48 4.3024 2.69918 0
M  V30 28075 H 2612.41 3.25563 4.13904 0
M  V30 28076 H 2614.9 2.64017 2.70377 0
M  V30 28077 H 2615.21 5.82877 5.07419 0
M  V30 28078 H 2613.55 5.23741 4.5686 0
M  V30 28079 H 2616.75 3.33009 3.28972 0
M  V30 28080 H 2616.92 4.78397 4.37082 0
M  V30 28081 N 2610.32 -1.21392 1.00507 0
M  V30 28082 C 2611.57 -1.90461 0.687807 0
M  V30 28083 C 2611.9 -1.78112 -0.781439 0
M  V30 28084 O 2611.15 -1.15193 -1.58206 0
M  V30 28085 C 2611.45 -3.41484 1.05466 0
M  V30 28086 C 2611.12 -3.74029 2.51819 0
M  V30 28087 C 2609.78 -3.82623 2.9181 0
M  V30 28088 C 2612.13 -3.89234 3.46621 0
M  V30 28089 C 2609.46 -4.03868 4.25567 0
M  V30 28090 C 2611.81 -4.11987 4.80052 0
M  V30 28091 C 2610.48 -4.18807 5.19766 0
M  V30 28092 H 2609.75 -0.696947 0.251687 0
M  V30 28093 H 2612.39 -1.43901 1.26352 0
M  V30 28094 H 2610.7 -3.89781 0.397202 0
M  V30 28095 H 2612.4 -3.932 0.787045 0
M  V30 28096 H 2608.99 -3.67932 2.19827 0
M  V30 28097 H 2613.17 -3.81962 3.1689 0
M  V30 28098 H 2608.43 -4.07379 4.55908 0
M  V30 28099 H 2612.6 -4.22694 5.53446 0
M  V30 28100 H 2610.23 -4.35022 6.23426 0
M  V30 28101 N 2611.8 -0.779811 -1.36955 0
M  V30 28102 C 2613.05 -0.348316 -1.99786 0
M  V30 28103 C 2613.38 1.07462 -1.61758 0
M  V30 28104 O 2612.66 1.74074 -0.867669 0
M  V30 28105 C 2612.94 -0.501102 -3.56596 0
M  V30 28106 C 2612.79 -1.96704 -4.04509 0
M  V30 28107 C 2614.11 0.0897324 -4.40009 0
M  V30 28108 H 2611.23 -0.128034 -0.725794 0
M  V30 28109 H 2613.87 -0.98436 -1.62513 0
M  V30 28110 H 2612.02 0.0403664 -3.88479 0
M  V30 28111 H 2613.69 -2.56883 -3.83156 0
M  V30 28112 H 2611.94 -2.47303 -3.56404 0
M  V30 28113 H 2612.61 -2.02495 -5.13517 0
M  V30 28114 H 2615.08 -0.372366 -4.14431 0
M  V30 28115 H 2613.96 -0.047257 -5.4888 0
M  V30 28116 H 2614.22 1.18088 -4.26037 0
M  V30 28117 N 2613.28 1.48384 -0.531019 0
M  V30 28118 C 2614.23 2.31311 0.244554 0
M  V30 28119 C 2615.22 1.41293 0.934485 0
M  V30 28120 O 2616.43 1.58194 0.858752 0
M  V30 28121 H 2612.8 0.745622 0.097734 0
M  V30 28122 H 2614.77 2.94604 -0.474421 0
M  V30 28123 C 2613.52 3.23367 1.27785 0
M  V30 28124 H 2612.85 3.9258 0.75637 0
M  V30 28125 H 2614.29 3.84274 1.79191 0
M  V30 28126 C 2612.75 2.45046 2.31201 0
M  V30 28127 O 2613.28 2.17602 3.37657 0
M  V30 28128 N 2611.48 2.06523 2.04442 0
M  V30 28129 H 2611.03 2.29042 1.17887 0
M  V30 28130 H 2610.99 1.54432 2.73858 0
M  V30 28131 N 2614.76 0.2662 1.55336 0
M  V30 28132 C 2616 -0.353646 1.99693 0
M  V30 28133 C 2616.34 -1.5617 1.15432 0
M  V30 28134 O 2615.61 -1.93226 0.222252 0
M  V30 28135 C 2615.9 -0.744598 3.52318 0
M  V30 28136 C 2615.75 0.47018 4.47336 0
M  V30 28137 C 2617.07 -1.5844 4.10591 0
M  V30 28138 H 2614.19 -0.127068 0.725963 0
M  V30 28139 H 2616.83 0.371366 1.86335 0
M  V30 28140 H 2614.98 -1.36232 3.63831 0
M  V30 28141 H 2616.65 1.10872 4.47778 0
M  V30 28142 H 2614.89 1.10986 4.19362 0
M  V30 28143 H 2615.56 0.153007 5.51788 0
M  V30 28144 H 2618.04 -1.06279 4.02298 0
M  V30 28145 H 2616.92 -1.82677 5.1761 0
M  V30 28146 H 2617.18 -2.56256 3.60258 0
M  V30 28147 N 2616.24 -1.57599 -0.0066531 0
M  V30 28148 C 2617.48 -1.90277 -0.692887 0
M  V30 28149 C 2617.81 -0.866223 -1.74146 0
M  V30 28150 O 2617.07 0.129899 -1.95268 0
M  V30 28151 C 2617.37 -3.29711 -1.37933 0
M  V30 28152 C 2617.03 -4.485 -0.4646 0
M  V30 28153 C 2615.69 -4.8073 -0.212725 0
M  V30 28154 C 2618.05 -5.20937 0.165602 0
M  V30 28155 C 2615.37 -5.82772 0.677756 0
M  V30 28156 C 2617.73 -6.23927 1.04392 0
M  V30 28157 C 2616.39 -6.54618 1.30504 0
M  V30 28158 H 2615.66 -0.696273 -0.253545 0
M  V30 28159 H 2618.31 -1.91441 0.0474459 0
M  V30 28160 H 2616.61 -3.24639 -2.19355 0
M  V30 28161 H 2618.31 -3.52252 -1.91623 0
M  V30 28162 H 2614.9 -4.23314 -0.671079 0
M  V30 28163 H 2619.08 -4.96297 -0.0159884 0
M  V30 28164 H 2614.34 -6.04915 0.888136 0
M  V30 28165 H 2618.51 -6.7919 1.53863 0
M  V30 28166 H 2616.14 -7.33508 1.99675 0
M  V30 28167 N 2617.72 0.279305 -1.55105 0
M  V30 28168 C 2618.66 1.34509 -1.87552 0
M  V30 28169 C 2619.63 1.49374 -0.72641 0
M  V30 28170 O 2620.82 1.63883 -0.977092 0
M  V30 28171 C 2617.96 2.70147 -2.14743 0
M  V30 28172 C 2617.07 2.63556 -3.4229 0
M  V30 28173 C 2616.21 3.91331 -3.59213 0
M  V30 28174 C 2615.24 3.79225 -4.80474 0
M  V30 28175 N 2614.38 4.98821 -4.94087 0
M  V30 28176 H 2619.22 1.06138 -2.78458 0
M  V30 28177 H 2616.76 0.512912 -1.37868 0
M  V30 28178 H 2618.72 3.49057 -2.28507 0
M  V30 28179 H 2617.35 2.96733 -1.2708 0
M  V30 28180 H 2616.4 1.76391 -3.37032 0
M  V30 28181 H 2617.71 2.50508 -4.31332 0
M  V30 28182 H 2616.86 4.78681 -3.72759 0
M  V30 28183 H 2615.6 4.07238 -2.68344 0
M  V30 28184 H 2614.61 2.90258 -4.66937 0
M  V30 28185 H 2615.83 3.64842 -5.72772 0
M  V30 28186 H 2613.78 5.15151 -4.06148 0
M  V30 28187 H 2613.7 4.88279 -5.77165 0
M  V30 28188 H 2614.96 5.87761 -5.12013 0
M  V30 28189 N 2619.19 1.47931 0.543528 0
M  V30 28190 C 2620.47 1.45742 1.30456 0
M  V30 28191 C 2620.85 0.161729 2.1048 0
M  V30 28192 O 2620.2 -0.856697 2.11832 0
M  V30 28193 C 2620.41 2.71129 2.1975 0
M  V30 28194 C 2621.76 3.18906 2.80329 0
M  V30 28195 O 2622.78 2.71952 2.30044 0
M  V30 28196 O 2621.64 4.00572 3.71759 0
M  V30 28197 H 2618.73 0.581428 0.588107 0
M  V30 28198 H 2621.28 1.60148 0.5613 0
M  V30 28199 H 2620.05 3.56954 1.6031 0
M  V30 28200 H 2619.67 2.59376 3.01346 0
M  V30 28201 N 2620.67 -0.791347 1.36292 0
M  V30 28202 C 2621.62 -1.9039 1.30461 0
M  V30 28203 C 2622.59 -1.6519 0.173661 0
M  V30 28204 O 2623.77 -1.87376 0.359863 0
M  V30 28205 C 2620.91 -3.27172 1.09783 0
M  V30 28206 C 2620.03 -3.64458 2.31936 0
M  V30 28207 C 2619.16 -4.90348 2.04284 0
M  V30 28208 C 2618.2 -5.20307 3.22409 0
M  V30 28209 N 2617.34 -6.37379 2.94435 0
M  V30 28210 H 2622.18 -1.9471 2.25593 0
M  V30 28211 H 2619.71 -0.952196 1.12123 0
M  V30 28212 H 2621.67 -4.06047 0.958204 0
M  V30 28213 H 2620.3 -3.2228 0.183071 0
M  V30 28214 H 2619.35 -2.80723 2.56708 0
M  V30 28215 H 2620.67 -3.82548 3.20092 0
M  V30 28216 H 2619.82 -5.77084 1.87241 0
M  V30 28217 H 2618.56 -4.74324 1.13436 0
M  V30 28218 H 2617.56 -4.32055 3.40013 0
M  V30 28219 H 2618.79 -5.38251 4.14081 0
M  V30 28220 H 2616.74 -6.22751 2.06196 0
M  V30 28221 H 2616.65 -6.55792 3.76129 0
M  V30 28222 H 2617.92 -7.27103 2.80966 0
M  V30 28223 N 2622.15 -1.2054 -1.01528 0
M  V30 28224 C 2623.38 -1.04202 -1.78744 0
M  V30 28225 C 2623.79 0.4087 -1.84323 0
M  V30 28226 O 2623.15 1.28374 -1.29716 0
M  V30 28227 C 2623.2 -1.6204 -3.23149 0
M  V30 28228 O 2622.92 -3.01435 -3.17913 0
M  V30 28229 C 2624.42 -1.50673 -4.16908 0
M  V30 28230 H 2621.64 -0.366488 -0.562074 0
M  V30 28231 H 2624.19 -1.59655 -1.27791 0
M  V30 28232 H 2622.34 -1.10704 -3.71246 0
M  V30 28233 H 2622.76 -3.28904 -4.08561 0
M  V30 28234 H 2624.23 -1.95901 -5.16069 0
M  V30 28235 H 2624.71 -0.45944 -4.3679 0
M  V30 28236 H 2625.31 -2.01207 -3.74694 0
M  V30 28237 N 2623.63 1.20858 -1.01149 0
M  V30 28238 C 2624.56 2.25721 -0.597702 0
M  V30 28239 C 2625.54 1.65692 0.384714 0
M  V30 28240 O 2626.72 1.92296 0.271269 0
M  V30 28241 C 2623.85 3.4723 0.0699539 0
M  V30 28242 C 2622.81 4.19817 -0.832917 0
M  V30 28243 C 2622.13 5.34691 -0.0313142 0
M  V30 28244 C 2623.43 4.7651 -2.13858 0
M  V30 28245 H 2625.13 2.60587 -1.47428 0
M  V30 28246 H 2622.67 1.25261 -0.710323 0
M  V30 28247 H 2624.63 4.19764 0.370956 0
M  V30 28248 H 2623.35 3.11512 0.981205 0
M  V30 28249 H 2622.01 3.49142 -1.11784 0
M  V30 28250 H 2621.66 4.95217 0.881428 0
M  V30 28251 H 2621.36 5.84186 -0.632536 0
M  V30 28252 H 2622.88 6.10032 0.263353 0
M  V30 28253 H 2624.3 5.4089 -1.90029 0
M  V30 28254 H 2622.69 5.36421 -2.69022 0
M  V30 28255 H 2623.76 3.95533 -2.80502 0
M  V30 28256 N 2625.11 0.787064 1.3654 0
M  V30 28257 C 2626.07 0.189818 2.28413 0
M  V30 28258 C 2627.07 -0.611473 1.4872 0
M  V30 28259 O 2628.26 -0.432813 1.68738 0
M  V30 28260 C 2625.39 -0.73758 3.32825 0
M  V30 28261 H 2626.58 0.999881 2.82741 0
M  V30 28262 H 2624.14 0.556324 1.46064 0
M  V30 28263 H 2624.87 -1.57207 2.83648 0
M  V30 28264 H 2624.66 -0.164975 3.91753 0
M  V30 28265 H 2626.15 -1.1504 4.01442 0
M  V30 28266 N 2626.58 -1.48101 0.53888 0
M  V30 28267 C 2627.53 -2.31437 -0.232284 0
M  V30 28268 C 2628.53 -1.41787 -0.926979 0
M  V30 28269 O 2629.73 -1.58648 -0.85035 0
M  V30 28270 H 2626.11 -0.74613 -0.0937785 0
M  V30 28271 H 2628.08 -2.94349 0.490038 0
M  V30 28272 C 2626.83 -3.2404 -1.26068 0
M  V30 28273 H 2626.15 -3.92976 -0.73554 0
M  V30 28274 H 2627.59 -3.85219 -1.7715 0
M  V30 28275 C 2626.05 -2.46269 -2.29898 0
M  V30 28276 O 2626.58 -2.1939 -3.36498 0
M  V30 28277 N 2624.78 -2.07604 -2.03344 0
M  V30 28278 H 2624.33 -2.29664 -1.16671 0
M  V30 28279 H 2624.29 -1.55882 -2.73035 0
M  V30 28280 N 2628.06 -0.274434 -1.55192 0
M  V30 28281 C 2629.01 0.613335 -2.22501 0
M  V30 28282 C 2629.98 1.15027 -1.19825 0
M  V30 28283 O 2631.16 1.1997 -1.48364 0
M  V30 28284 C 2628.3 1.79194 -2.9493 0
M  V30 28285 C 2627.42 1.28892 -4.12324 0
M  V30 28286 C 2626.55 2.42926 -4.72398 0
M  V30 28287 C 2625.59 1.89624 -5.81987 0
M  V30 28288 N 2624.73 2.97129 -6.36128 0
M  V30 28289 H 2629.57 0.0327036 -2.97982 0
M  V30 28290 H 2627.1 0.0043756 -1.47099 0
M  V30 28291 H 2629.06 2.48472 -3.35138 0
M  V30 28292 H 2627.69 2.34461 -2.21874 0
M  V30 28293 H 2626.74 0.48926 -3.77241 0
M  V30 28294 H 2628.06 0.858501 -4.91356 0
M  V30 28295 H 2627.21 3.20199 -5.15323 0
M  V30 28296 H 2625.95 2.89283 -3.92641 0
M  V30 28297 H 2624.95 1.10831 -5.38513 0
M  V30 28298 H 2626.18 1.44204 -6.63613 0
M  V30 28299 H 2624.13 3.42869 -5.59265 0
M  V30 28300 H 2624.04 2.58502 -7.10431 0
M  V30 28301 H 2625.31 3.74379 -6.83711 0
M  V30 28302 N 2629.54 1.576 -0.00170483 0
M  V30 28303 C 2630.47 2.11565 0.988053 0
M  V30 28304 C 2631.45 1.02519 1.35735 0
M  V30 28305 O 2632.64 1.3021 1.44079 0
M  V30 28306 C 2629.77 2.62035 2.27937 0
M  V30 28307 C 2628.72 3.75622 2.05163 0
M  V30 28308 C 2628.05 4.12413 3.40323 0
M  V30 28309 C 2629.35 5.02828 1.41285 0
M  V30 28310 H 2631.04 2.94513 0.538719 0
M  V30 28311 H 2628.59 1.41676 0.257687 0
M  V30 28312 H 2630.54 2.98415 2.97533 0
M  V30 28313 H 2629.26 1.7621 2.74986 0
M  V30 28314 H 2627.92 3.39638 1.37992 0
M  V30 28315 H 2627.57 3.2361 3.85079 0
M  V30 28316 H 2627.27 4.8894 3.25901 0
M  V30 28317 H 2628.79 4.51354 4.11232 0
M  V30 28318 H 2630.21 5.36969 2.00841 0
M  V30 28319 H 2628.6 5.84171 1.37346 0
M  V30 28320 H 2629.67 4.83391 0.382278 0
M  V30 28321 N 2631.02 -0.271076 1.55251 0
M  V30 28322 C 2632.24 -1.02488 1.80308 0
M  V30 28323 C 2632.67 -1.7908 0.575489 0
M  V30 28324 O 2632.03 -1.74968 -0.474956 0
M  V30 28325 C 2632.07 -1.95762 3.02836 0
M  V30 28326 O 2631.18 -3.04563 2.78056 0
M  V30 28327 H 2630.52 -0.292913 0.595901 0
M  V30 28328 H 2633.05 -0.299401 2.02398 0
M  V30 28329 H 2633.06 -2.3768 3.3162 0
M  V30 28330 H 2631.73 -1.39427 3.91833 0
M  V30 28331 H 2630.31 -2.66946 2.60373 0
M  V30 28332 N 2632.5 -1.48217 -0.535675 0
M  V30 28333 C 2633.74 -1.55944 -1.29181 0
M  V30 28334 C 2634.07 -0.230891 -1.93125 0
M  V30 28335 O 2633.33 0.7783 -1.79558 0
M  V30 28336 C 2633.63 -2.64216 -2.40675 0
M  V30 28337 C 2633.29 -4.06831 -1.94421 0
M  V30 28338 C 2631.95 -4.45648 -1.81524 0
M  V30 28339 C 2634.31 -4.96228 -1.59396 0
M  V30 28340 C 2631.63 -5.71674 -1.31929 0
M  V30 28341 C 2633.99 -6.22738 -1.11265 0
M  V30 28342 C 2632.65 -6.60417 -0.969808 0
M  V30 28343 H 2631.92 -0.570641 -0.472705 0
M  V30 28344 H 2634.57 -1.8191 -0.598405 0
M  V30 28345 H 2632.87 -2.32088 -3.15661 0
M  V30 28346 H 2634.57 -2.67412 -2.98817 0
M  V30 28347 H 2631.16 -3.76172 -2.05409 0
M  V30 28348 H 2635.34 -4.6692 -1.68223 0
M  V30 28349 H 2630.6 -5.99598 -1.19552 0
M  V30 28350 H 2634.77 -6.91408 -0.832332 0
M  V30 28351 H 2632.4 -7.57959 -0.583302 0
M  V30 28352 N 2633.97 0.784108 -1.3671 0
M  V30 28353 C 2634.92 1.91835 -1.31537 0
M  V30 28354 C 2635.92 1.6814 -0.206235 0
M  V30 28355 O 2637.12 1.76081 -0.37355 0
M  V30 28356 H 2633.5 0.630644 -0.409624 0
M  V30 28357 H 2635.47 1.93316 -2.27313 0
M  V30 28358 C 2634.22 3.28934 -1.12685 0
M  V30 28359 H 2633.54 3.47737 -1.9728 0
M  V30 28360 H 2634.98 4.08634 -1.13113 0
M  V30 28361 C 2633.44 3.3648 0.168221 0
M  V30 28362 O 2633.97 3.84702 1.15619 0
M  V30 28363 N 2632.18 2.89806 0.214711 0
M  V30 28364 H 2631.72 2.50755 -0.589896 0
M  V30 28365 H 2631.68 2.95236 1.08088 0
M  V30 28366 N 2635.45 1.21076 1.00888 0
M  V30 28367 C 2636.7 1.02563 1.74605 0
M  V30 28368 C 2637.03 -0.441326 1.89427 0
M  V30 28369 O 2636.28 -1.34381 1.42268 0
M  V30 28370 C 2636.58 1.66339 3.16332 0
M  V30 28371 C 2636.25 3.16179 3.21468 0
M  V30 28372 C 2634.91 3.57068 3.22577 0
M  V30 28373 C 2637.26 4.12161 3.19018 0
M  V30 28374 C 2634.59 4.92452 3.18917 0
M  V30 28375 C 2636.94 5.47501 3.16899 0
M  V30 28376 C 2635.61 5.87793 3.16316 0
M  V30 28377 H 2634.88 0.375305 0.638926 0
M  V30 28378 H 2637.52 1.50613 1.18271 0
M  V30 28379 H 2635.83 1.10572 3.75874 0
M  V30 28380 H 2637.52 1.49522 3.72081 0
M  V30 28381 H 2634.11 2.83611 3.21345 0
M  V30 28382 H 2638.3 3.816 3.17325 0
M  V30 28383 H 2633.55 5.22922 3.168 0
M  V30 28384 H 2637.73 6.21614 3.13957 0
M  V30 28385 H 2635.36 6.92668 3.13234 0
M  V30 28386 N 2636.93 -1.2032 1.01789 0
M  V30 28387 C 2638.16 -1.94239 0.727043 0
M  V30 28388 C 2638.58 -1.74342 -0.706148 0
M  V30 28389 O 2637.94 -1.03854 -1.48607 0
M  V30 28390 C 2637.99 -3.44371 1.06964 0
M  V30 28391 O 2637.09 -4.11998 0.182055 0
M  V30 28392 H 2636.43 -0.606788 0.269637 0
M  V30 28393 H 2638.96 -1.52714 1.36161 0
M  V30 28394 H 2638.97 -3.94995 1.02189 0
M  V30 28395 H 2637.65 -3.58175 2.11384 0
M  V30 28396 H 2636.22 -3.7179 0.287443 0
M  V30 28397 N 2638.41 -0.794293 -1.3612 0
M  V30 28398 C 2639.69 -0.292719 -1.93397 0
M  V30 28399 C 2640.07 1.21586 -1.72569 0
M  V30 28400 O 2639.41 2.00963 -1.08748 0
M  V30 28401 C 2639.62 -0.690674 -3.42097 0
M  V30 28402 C 2640.97 -0.673179 -4.1923 0
M  V30 28403 O 2642 -0.631451 -3.50558 0
M  V30 28404 O 2640.85 -0.720457 -5.4173 0
M  V30 28405 H 2637.95 -0.0736838 -0.823711 0
M  V30 28406 H 2640.49 -0.877165 -1.45272 0
M  V30 28407 H 2639.27 -1.73091 -3.50935 0
M  V30 28408 H 2638.89 -0.0803735 -3.97519 0
M  V30 28409 N 2639.89 1.47813 -0.546727 0
M  V30 28410 C 2640.83 2.29872 0.206814 0
M  V30 28411 C 2641.8 1.38413 0.918211 0
M  V30 28412 O 2642.99 1.67376 0.915962 0
M  V30 28413 C 2640.13 3.22153 1.2374 0
M  V30 28414 C 2639.24 4.28698 0.533141 0
M  V30 28415 C 2638.38 5.08141 1.54811 0
M  V30 28416 C 2637.42 6.06471 0.82824 0
M  V30 28417 N 2636.55 6.78911 1.78954 0
M  V30 28418 H 2641.39 2.93791 -0.499089 0
M  V30 28419 H 2638.93 1.44821 -0.257956 0
M  V30 28420 H 2640.89 3.74068 1.84739 0
M  V30 28421 H 2639.52 2.60121 1.91147 0
M  V30 28422 H 2638.57 3.79919 -0.191156 0
M  V30 28423 H 2639.88 4.9879 -0.0312863 0
M  V30 28424 H 2639.04 5.64154 2.23193 0
M  V30 28425 H 2637.77 4.37926 2.14644 0
M  V30 28426 H 2636.78 5.49645 0.130442 0
M  V30 28427 H 2638 6.78691 0.235788 0
M  V30 28428 H 2635.95 6.11434 2.37665 0
M  V30 28429 H 2635.87 7.45137 1.27699 0
M  V30 28430 H 2637.14 7.39504 2.46483 0
M  V30 28431 N 2641.36 0.28266 1.55044 0
M  V30 28432 C 2642.3 -0.634886 2.20231 0
M  V30 28433 C 2643.31 -1.1117 1.18933 0
M  V30 28434 O 2644.5 -1.03231 1.45622 0
M  V30 28435 C 2641.6 -1.87894 2.82044 0
M  V30 28436 C 2640.77 -1.54769 4.09103 0
M  V30 28437 C 2639.83 -2.64499 4.54892 0
M  V30 28438 O 2638.86 -2.30366 5.205 0
M  V30 28439 N 2640.06 -3.94701 4.25666 0
M  V30 28440 H 2642.82 -0.0769285 2.99601 0
M  V30 28441 H 2640.38 0.104076 1.61565 0
M  V30 28442 H 2642.38 -2.60613 3.09617 0
M  V30 28443 H 2640.95 -2.34576 2.06623 0
M  V30 28444 H 2640.17 -0.653981 3.88737 0
M  V30 28445 H 2641.45 -1.30149 4.91873 0
M  V30 28446 H 2640.85 -4.2525 3.73067 0
M  V30 28447 H 2639.41 -4.63774 4.57992 0
M  V30 28448 N 2642.84 -1.57597 0.0100627 0
M  V30 28449 C 2644.12 -1.82249 -0.710264 0
M  V30 28450 C 2644.5 -0.889945 -1.91424 0
M  V30 28451 O 2643.85 0.0589891 -2.28424 0
M  V30 28452 C 2644.06 -3.30995 -1.1065 0
M  V30 28453 C 2645.41 -3.96989 -1.50614 0
M  V30 28454 O 2646.43 -3.35378 -1.20001 0
M  V30 28455 O 2645.29 -5.05543 -2.07578 0
M  V30 28456 H 2642.38 -0.750811 -0.346717 0
M  V30 28457 H 2644.93 -1.69661 0.0362876 0
M  V30 28458 H 2643.7 -3.90508 -0.248758 0
M  V30 28459 H 2643.32 -3.48619 -1.91183 0
M  V30 28460 N 2644.32 0.262839 -1.55393 0
M  V30 28461 C 2645.57 0.994549 -1.76739 0
M  V30 28462 C 2645.9 1.8557 -0.572486 0
M  V30 28463 O 2645.17 1.89694 0.429698 0
M  V30 28464 C 2645.46 1.86854 -3.07827 0
M  V30 28465 C 2645.31 1.03665 -4.37691 0
M  V30 28466 C 2646.63 2.85387 -3.35026 0
M  V30 28467 H 2643.75 0.360146 -0.643012 0
M  V30 28468 H 2646.39 0.266183 -1.88126 0
M  V30 28469 H 2644.54 2.48956 -2.9825 0
M  V30 28470 H 2646.21 0.435549 -4.59239 0
M  V30 28471 H 2644.46 0.340437 -4.32462 0
M  V30 28472 H 2645.13 1.6816 -5.25762 0
M  V30 28473 H 2647.6 2.3342 -3.44462 0
M  V30 28474 H 2646.48 3.43674 -4.27995 0
M  V30 28475 H 2646.74 3.61035 -2.55159 0
M  V30 28476 N 2645.8 1.48499 0.527807 0
M  V30 28477 C 2647.21 1.5014 1.10972 0
M  V30 28478 C 2647.56 0.272412 1.943 0
M  V30 28479 O 2646.69 -0.620264 2.0732 0
M  V30 28480 C 2647.28 2.72053 2.01923 0
M  V30 28481 C 2645.84 2.76559 2.55328 0
M  V30 28482 C 2644.99 2.43685 1.32336 0
M  V30 28483 H 2647.94 1.55584 0.312958 0
M  V30 28484 H 2647.96 2.50694 2.86239 0
M  V30 28485 H 2647.47 3.61484 1.41248 0
M  V30 28486 H 2645.57 1.91341 3.19717 0
M  V30 28487 H 2645.68 3.78044 2.94313 0
M  V30 28488 H 2644.05 1.94887 1.63985 0
M  V30 28489 H 2644.83 3.35359 0.734106 0
M  V30 28490 N 2647.28 -0.776847 1.37123 0
M  V30 28491 C 2648.52 -1.53749 1.32246 0
M  V30 28492 C 2648.86 -1.9397 -0.0944404 0
M  V30 28493 O 2648.13 -1.63682 -1.05065 0
M  V30 28494 C 2648.41 -2.80603 2.25686 0
M  V30 28495 C 2648.27 -2.46669 3.76131 0
M  V30 28496 C 2649.59 -3.82505 2.17664 0
M  V30 28497 H 2646.71 -0.557782 0.481714 0
M  V30 28498 H 2649.35 -0.891583 1.67782 0
M  V30 28499 H 2647.5 -3.3572 1.95511 0
M  V30 28500 H 2649.17 -1.97506 4.1688 0
M  V30 28501 H 2647.41 -1.79436 3.9495 0
M  V30 28502 H 2648.08 -3.37326 4.36939 0
M  V30 28503 H 2650.56 -3.36869 2.44251 0
M  V30 28504 H 2649.44 -4.68995 2.85193 0
M  V30 28505 H 2649.7 -4.26394 1.16793 0
M  V30 28506 N 2648.76 -1.2161 -1.00244 0
M  V30 28507 C 2649.98 -1.0617 -1.78165 0
M  V30 28508 C 2650.41 0.384002 -1.84139 0
M  V30 28509 O 2649.76 1.2771 -1.28685 0
M  V30 28510 C 2649.81 -1.66648 -3.19783 0
M  V30 28511 O 2648.92 -0.913684 -4.02151 0
M  V30 28512 H 2648.26 -0.3735 -0.548993 0
M  V30 28513 H 2650.79 -1.61206 -1.25991 0
M  V30 28514 H 2650.8 -1.70975 -3.70448 0
M  V30 28515 H 2649.47 -2.71856 -3.14749 0
M  V30 28516 H 2648.05 -0.945698 -3.60709 0
M  V30 28517 N 2650.23 1.19778 -1.02425 0
M  V30 28518 C 2651.14 2.26505 -0.610958 0
M  V30 28519 C 2652.16 1.70338 0.355122 0
M  V30 28520 O 2653.34 2.00258 0.21416 0
M  V30 28521 C 2650.4 3.46681 0.0365312 0
M  V30 28522 C 2649.46 4.18047 -0.976463 0
M  V30 28523 C 2648.69 5.32486 -0.359777 0
M  V30 28524 O 2648.92 5.64203 0.838501 0
M  V30 28525 O 2647.85 5.92126 -1.08032 0
M  V30 28526 H 2651.68 2.64089 -1.49969 0
M  V30 28527 H 2649.26 1.26543 -0.794178 0
M  V30 28528 H 2651.14 4.19518 0.397786 0
M  V30 28529 H 2649.82 3.10956 0.899344 0
M  V30 28530 H 2648.73 3.47349 -1.38922 0
M  V30 28531 H 2650.06 4.57732 -1.80949 0
M  V30 28532 N 2651.71 0.801501 1.35697 0
M  V30 28533 C 2652.96 0.376014 1.98164 0
M  V30 28534 C 2653.27 -1.06125 1.64307 0
M  V30 28535 O 2654.48 -1.5896 2.201 0
M  V30 28536 C 2652.94 0.621367 3.54495 0
M  V30 28537 C 2652.54 2.07083 3.97266 0
M  V30 28538 C 2654.29 0.260985 4.23697 0
M  V30 28539 C 2652.19 2.26221 5.46423 0
M  V30 28540 H 2651.12 0.136857 0.741476 0
M  V30 28541 H 2653.78 0.984842 1.54833 0
M  V30 28542 H 2652.16 -0.0573416 3.95958 0
M  V30 28543 H 2653.33 2.78694 3.66969 0
M  V30 28544 H 2651.65 2.3906 3.40939 0
M  V30 28545 H 2654.24 0.382088 5.33333 0
M  V30 28546 H 2654.59 -0.792272 4.08691 0
M  V30 28547 H 2655.12 0.893408 3.87638 0
M  V30 28548 H 2651.86 3.29973 5.6639 0
M  V30 28549 H 2651.38 1.59129 5.78306 0
M  V30 28550 H 2653.06 2.07524 6.12815 0
M  V30 28551 N 2653.19 -1.47521 0.554558 0
M  V30 28552 C 2654.44 -2.01681 0.0273812 0
M  V30 28553 C 2654.75 -1.43461 -1.32959 0
M  V30 28554 O 2655.96 -1.89268 -1.94653 0
M  V30 28555 C 2654.41 -3.599 -0.00152731 0
M  V30 28556 C 2654.02 -4.27111 1.35204 0
M  V30 28557 C 2655.77 -4.2182 -0.476237 0
M  V30 28558 C 2653.67 -5.77329 1.28239 0
M  V30 28559 H 2652.6 -0.753972 0.00646594 0
M  V30 28560 H 2655.25 -1.69541 0.702015 0
M  V30 28561 H 2653.64 -3.88991 -0.741753 0
M  V30 28562 H 2654.81 -4.09665 2.10977 0
M  V30 28563 H 2653.12 -3.77167 1.76447 0
M  V30 28564 H 2655.72 -5.31898 -0.546706 0
M  V30 28565 H 2656.06 -3.88813 -1.48763 0
M  V30 28566 H 2656.6 -3.9725 0.20905 0
M  V30 28567 H 2653.34 -6.14951 2.2697 0
M  V30 28568 H 2652.86 -5.9712 0.566419 0
M  V30 28569 H 2654.54 -6.39484 0.983339 0
M  V30 28570 N 2654.67 -0.290879 -1.54892 0
M  V30 28571 C 2655.6 0.583044 -2.26104 0
M  V30 28572 C 2656.58 1.14617 -1.25686 0
M  V30 28573 O 2657.76 1.17739 -1.54439 0
M  V30 28574 C 2654.89 1.75982 -2.99412 0
M  V30 28575 C 2653.85 1.32751 -4.06892 0
M  V30 28576 C 2653.17 2.58864 -4.67861 0
M  V30 28577 C 2654.47 0.466148 -5.20216 0
M  V30 28578 H 2656.17 -0.0108741 -2.99398 0
M  V30 28579 H 2653.71 -0.00666999 -1.43998 0
M  V30 28580 H 2655.67 2.3772 -3.47947 0
M  V30 28581 H 2654.39 2.37981 -2.23679 0
M  V30 28582 H 2653.05 0.733236 -3.59192 0
M  V30 28583 H 2652.7 3.19156 -3.88778 0
M  V30 28584 H 2652.4 2.30644 -5.40442 0
M  V30 28585 H 2653.92 3.21424 -5.19152 0
M  V30 28586 H 2655.34 0.988948 -5.64706 0
M  V30 28587 H 2653.73 0.278155 -5.99455 0
M  V30 28588 H 2654.8 -0.511257 -4.82197 0
M  V30 28589 N 2656.15 1.57589 -0.0184203 0
M  V30 28590 C 2657.37 1.96053 0.676599 0
M  V30 28591 C 2657.8 0.894337 1.65479 0
M  V30 28592 O 2657.15 -0.145817 1.80713 0
M  V30 28593 C 2657.2 3.33616 1.36866 0
M  V30 28594 O 2656.31 3.29223 2.48366 0
M  V30 28595 H 2655.65 0.639533 0.178589 0
M  V30 28596 H 2658.18 2.04455 -0.077092 0
M  V30 28597 H 2658.19 3.69605 1.7279 0
M  V30 28598 H 2656.86 4.10764 0.651564 0
M  V30 28599 H 2655.44 3.04938 2.14633 0
M  V30 28600 N 2657.62 -0.254594 1.5553 0
M  V30 28601 C 2658.87 -0.983705 1.77001 0
M  V30 28602 C 2659.2 -1.85608 0.581363 0
M  V30 28603 O 2658.45 -1.90791 -0.435587 0
M  V30 28604 C 2658.75 -1.88103 3.03895 0
M  V30 28605 C 2658.42 -1.16465 4.35599 0
M  V30 28606 C 2657.08 -0.966631 4.71391 0
M  V30 28607 C 2659.43 -0.656296 5.17051 0
M  V30 28608 C 2656.76 -0.247839 5.86176 0
M  V30 28609 C 2659.11 0.0489919 6.32581 0
M  V30 28610 C 2657.78 0.258556 6.66999 0
M  V30 28611 H 2657.05 -0.359963 0.647694 0
M  V30 28612 H 2659.69 -0.25443 1.89802 0
M  V30 28613 H 2658 -2.67712 2.86073 0
M  V30 28614 H 2659.7 -2.44672 3.17705 0
M  V30 28615 H 2656.29 -1.32891 4.07477 0
M  V30 28616 H 2660.47 -0.796847 4.89861 0
M  V30 28617 H 2655.73 -0.0749276 6.11354 0
M  V30 28618 H 2659.9 0.450567 6.94941 0
M  V30 28619 H 2657.53 0.817491 7.55792 0
M  V30 28620 N 2659.1 -1.48777 -0.519925 0
M  V30 28621 C 2660.33 -1.60984 -1.29968 0
M  V30 28622 C 2660.74 -0.273917 -1.86802 0
M  V30 28623 O 2660.1 0.738164 -1.66905 0
M  V30 28624 C 2660.15 -2.6642 -2.44342 0
M  V30 28625 O 2659.87 -3.94828 -1.89848 0
M  V30 28626 C 2661.37 -2.89159 -3.36009 0
M  V30 28627 H 2658.59 -0.542503 -0.394882 0
M  V30 28628 H 2661.14 -1.94677 -0.62618 0
M  V30 28629 H 2659.29 -2.35557 -3.07557 0
M  V30 28630 H 2659.71 -4.52755 -2.6479 0
M  V30 28631 H 2661.18 -3.6671 -4.12586 0
M  V30 28632 H 2661.66 -1.98358 -3.91855 0
M  V30 28633 H 2662.26 -3.21364 -2.78577 0
M  V30 28634 N 2660.58 0.769564 -1.37534 0
M  V30 28635 C 2661.99 1.34598 -1.29385 0
M  V30 28636 C 2662.34 1.96116 0.0575694 0
M  V30 28637 O 2661.47 1.93969 0.959436 0
M  V30 28638 C 2662.06 2.4472 -2.34302 0
M  V30 28639 C 2660.62 2.98124 -2.29781 0
M  V30 28640 C 2659.77 1.7136 -2.18016 0
M  V30 28641 H 2662.72 0.569654 -1.48124 0
M  V30 28642 H 2662.74 3.24256 -1.99094 0
M  V30 28643 H 2662.25 1.99916 -3.32649 0
M  V30 28644 H 2660.35 3.47297 -1.34965 0
M  V30 28645 H 2660.47 3.53589 -3.23283 0
M  V30 28646 H 2658.83 1.94369 -1.64599 0
M  V30 28647 H 2659.61 1.28657 -3.1828 0
M  V30 28648 N 2662.06 1.22139 0.995977 0
M  V30 28649 C 2663.28 1.07113 1.77599 0
M  V30 28650 C 2663.71 -0.374232 1.8434 0
M  V30 28651 O 2663.07 -1.27026 1.29361 0
M  V30 28652 C 2663.11 1.68341 3.18894 0
M  V30 28653 O 2662.22 0.934998 4.01661 0
M  V30 28654 H 2661.56 0.376406 0.547005 0
M  V30 28655 H 2664.09 1.61872 1.25134 0
M  V30 28656 H 2664.1 1.72937 3.69536 0
M  V30 28657 H 2662.77 2.73521 3.13303 0
M  V30 28658 H 2661.35 0.964814 3.60202 0
M  V30 28659 N 2663.54 -1.19233 1.03059 0
M  V30 28660 C 2664.77 -1.92636 0.746647 0
M  V30 28661 C 2665.17 -1.75827 -0.698677 0
M  V30 28662 O 2664.52 -1.07864 -1.48698 0
M  V30 28663 C 2664.58 -3.44717 1.0203 0
M  V30 28664 C 2664.24 -3.85299 2.45752 0
M  V30 28665 C 2665.24 -3.89914 3.43894 0
M  V30 28666 C 2662.93 -4.16887 2.80197 0
M  V30 28667 C 2664.92 -4.25552 4.74536 0
M  V30 28668 C 2662.61 -4.52197 4.11048 0
M  V30 28669 C 2663.6 -4.56504 5.08028 0
M  V30 28670 O 2663.29 -4.90996 6.36536 0
M  V30 28671 H 2663.02 -0.618682 0.272412 0
M  V30 28672 H 2665.58 -1.52266 1.37855 0
M  V30 28673 H 2663.81 -3.85279 0.331252 0
M  V30 28674 H 2665.5 -3.99359 0.725748 0
M  V30 28675 H 2666.26 -3.65658 3.18621 0
M  V30 28676 H 2662.14 -4.12718 2.05389 0
M  V30 28677 H 2665.69 -4.28828 5.50229 0
M  V30 28678 H 2661.58 -4.75912 4.36094 0
M  V30 28679 H 2662.35 -5.08938 6.41034 0
M  V30 28680 N 2665.01 -0.808686 -1.3527 0
M  V30 28681 C 2666.24 -0.401989 -2.02651 0
M  V30 28682 C 2666.65 0.992434 -1.61082 0
M  V30 28683 O 2666 1.65122 -0.805013 0
M  V30 28684 C 2666.06 -0.408309 -3.57174 0
M  V30 28685 C 2665.72 -1.75361 -4.22016 0
M  V30 28686 C 2666.72 -2.71223 -4.43547 0
M  V30 28687 C 2664.4 -2.03819 -4.59089 0
M  V30 28688 C 2666.4 -3.93726 -5.01257 0
M  V30 28689 C 2664.08 -3.26585 -5.16513 0
M  V30 28690 C 2665.08 -4.21356 -5.37539 0
M  V30 28691 O 2664.77 -5.41955 -5.93751 0
M  V30 28692 H 2664.5 -0.161227 -0.656492 0
M  V30 28693 H 2667.06 -1.09423 -1.73827 0
M  V30 28694 H 2665.29 0.34054 -3.85198 0
M  V30 28695 H 2666.98 -0.0236337 -4.05893 0
M  V30 28696 H 2667.74 -2.50529 -4.15283 0
M  V30 28697 H 2663.62 -1.30862 -4.42036 0
M  V30 28698 H 2667.16 -4.6771 -5.17584 0
M  V30 28699 H 2663.06 -3.47148 -5.44204 0
M  V30 28700 H 2663.83 -5.4328 -6.122 0
M  V30 28701 N 2666.49 1.47225 -0.562374 0
M  V30 28702 C 2667.4 2.33866 0.185425 0
M  V30 28703 C 2668.42 1.4851 0.906687 0
M  V30 28704 O 2669.59 1.81427 0.874426 0
M  V30 28705 C 2666.66 3.25308 1.19899 0
M  V30 28706 C 2665.72 4.26556 0.484594 0
M  V30 28707 C 2664.95 5.13629 1.44987 0
M  V30 28708 O 2665.18 5.0325 2.68506 0
M  V30 28709 O 2664.11 5.94007 0.971538 0
M  V30 28710 H 2667.94 2.99121 -0.525413 0
M  V30 28711 H 2665.52 1.45868 -0.322942 0
M  V30 28712 H 2667.4 3.81778 1.78393 0
M  V30 28713 H 2666.08 2.62675 1.89165 0
M  V30 28714 H 2664.99 3.73832 -0.141671 0
M  V30 28715 H 2666.32 4.91918 -0.16672 0
M  V30 28716 N 2667.97 0.299089 1.54736 0
M  V30 28717 C 2669.25 -0.363768 1.92188 0
M  V30 28718 C 2669.63 -1.71843 1.2261 0
M  V30 28719 O 2668.98 -2.25627 0.36118 0
M  V30 28720 C 2669.19 -0.480317 3.45679 0
M  V30 28721 C 2670.53 -0.752074 4.17886 0
M  V30 28722 O 2671.56 -0.564202 3.51703 0
M  V30 28723 O 2670.42 -1.11284 5.3505 0
M  V30 28724 H 2667.51 -0.203052 0.801685 0
M  V30 28725 H 2670.06 0.347007 1.66114 0
M  V30 28726 H 2668.83 0.472067 3.88442 0
M  V30 28727 H 2668.45 -1.23963 3.77781 0
M  V30 28728 N 2669.45 -1.57577 0.0267774 0
M  V30 28729 C 2670.7 -1.91325 -0.651082 0
M  V30 28730 C 2671.02 -0.90356 -1.72803 0
M  V30 28731 O 2670.29 0.0552602 -1.95822 0
M  V30 28732 H 2668.87 -0.706206 -0.243479 0
M  V30 28733 H 2671.53 -1.94759 0.0740277 0
M  V30 28734 H 2670.63 -2.91872 -1.10531 0
M  V30 28735 N 2670.93 0.246342 -1.55663 0
M  V30 28736 C 2671.86 1.3087 -1.93379 0
M  V30 28737 C 2672.84 1.50177 -0.798799 0
M  V30 28738 O 2674.02 1.62776 -1.05913 0
M  V30 28739 C 2671.15 2.66334 -2.22897 0
M  V30 28740 C 2670.11 2.61721 -3.38653 0
M  V30 28741 C 2669.43 4.00986 -3.53715 0
M  V30 28742 C 2670.73 2.18658 -4.74327 0
M  V30 28743 H 2672.43 0.995502 -2.82365 0
M  V30 28744 H 2669.97 0.47744 -1.35855 0
M  V30 28745 H 2671.93 3.4079 -2.47872 0
M  V30 28746 H 2670.65 2.99291 -1.30738 0
M  V30 28747 H 2669.31 1.89723 -3.13689 0
M  V30 28748 H 2668.96 4.31209 -2.58975 0
M  V30 28749 H 2668.66 3.98787 -4.31558 0
M  V30 28750 H 2670.18 4.7714 -3.81011 0
M  V30 28751 H 2671.59 2.82845 -4.9867 0
M  V30 28752 H 2669.99 2.27569 -5.55277 0
M  V30 28753 H 2671.06 1.13826 -4.71351 0
M  V30 28754 N 2672.4 1.4905 0.512027 0
M  V30 28755 C 2673.65 1.57229 1.2634 0
M  V30 28756 C 2673.97 0.259189 1.93875 0
M  V30 28757 O 2675.17 0.219405 2.70612 0
M  V30 28758 C 2673.63 2.77366 2.29338 0
M  V30 28759 C 2673.24 4.15391 1.67792 0
M  V30 28760 C 2674.98 2.94869 3.05373 0
M  V30 28761 C 2672.89 5.26765 2.68836 0
M  V30 28762 H 2671.82 0.58539 0.475221 0
M  V30 28763 H 2674.47 1.75418 0.53859 0
M  V30 28764 H 2672.85 2.52649 3.04934 0
M  V30 28765 H 2674.02 4.50201 0.982636 0
M  V30 28766 H 2672.34 4.03155 1.04187 0
M  V30 28767 H 2674.94 3.75245 3.80914 0
M  V30 28768 H 2675.28 2.05006 3.62323 0
M  V30 28769 H 2675.81 3.19573 2.36892 0
M  V30 28770 H 2672.55 6.18651 2.16681 0
M  V30 28771 H 2672.07 4.96422 3.36638 0
M  V30 28772 H 2673.75 5.55636 3.31478 0
M  V30 28773 N 2673.88 -0.762259 1.3794 0
M  V30 28774 C 2675.13 -1.51812 1.33407 0
M  V30 28775 C 2675.45 -1.94844 -0.0780633 0
M  V30 28776 O 2674.72 -1.67005 -1.02402 0
M  V30 28777 H 2673.3 -0.563095 0.490849 0
M  V30 28778 H 2675.96 -0.906638 1.72528 0
M  V30 28779 H 2675.06 -2.41309 1.9793 0
M  V30 28780 N 2675.36 -1.22666 -0.989486 0
M  V30 28781 C 2676.59 -1.07813 -1.76238 0
M  V30 28782 C 2677 0.374003 -1.85467 0
M  V30 28783 O 2676.34 1.27085 -1.32647 0
M  V30 28784 C 2676.4 -1.61855 -3.21004 0
M  V30 28785 C 2676.07 -3.10509 -3.35311 0
M  V30 28786 C 2677.06 -4.07901 -3.22354 0
M  V30 28787 C 2674.75 -3.50034 -3.60252 0
M  V30 28788 C 2676.74 -5.42804 -3.34129 0
M  V30 28789 C 2674.43 -4.85084 -3.71667 0
M  V30 28790 C 2675.43 -5.81278 -3.58615 0
M  V30 28791 O 2675.12 -7.13876 -3.69643 0
M  V30 28792 H 2674.85 -0.378351 -0.560202 0
M  V30 28793 H 2677.4 -1.62794 -1.25249 0
M  V30 28794 H 2675.63 -1.01285 -3.732 0
M  V30 28795 H 2677.32 -1.42613 -3.80021 0
M  V30 28796 H 2678.09 -3.78709 -3.02993 0
M  V30 28797 H 2673.97 -2.75682 -3.69487 0
M  V30 28798 H 2677.51 -6.17869 -3.23858 0
M  V30 28799 H 2673.41 -5.13957 -3.90536 0
M  V30 28800 H 2674.18 -7.21501 -3.86494 0
M  V30 28801 N 2676.84 1.18685 -1.0369 0
M  V30 28802 C 2678.12 1.84398 -0.652429 0
M  V30 28803 C 2678.5 1.92413 0.868352 0
M  V30 28804 O 2677.84 1.44719 1.7683 0
M  V30 28805 C 2678.05 3.22917 -1.32385 0
M  V30 28806 C 2679.4 3.98993 -1.45223 0
M  V30 28807 O 2680.43 3.32343 -1.28166 0
M  V30 28808 O 2679.29 5.184 -1.72984 0
M  V30 28809 H 2676.38 0.795005 -0.227806 0
M  V30 28810 H 2678.93 1.26108 -1.13555 0
M  V30 28811 H 2677.7 3.11964 -2.36208 0
M  V30 28812 H 2677.32 3.88859 -0.829107 0
M  V30 28813 N 2678.32 0.815849 1.34839 0
M  V30 28814 C 2679.25 0.247339 2.32186 0
M  V30 28815 C 2680.23 -0.632316 1.57911 0
M  V30 28816 O 2681.41 -0.560665 1.85931 0
M  V30 28817 C 2678.54 -0.597406 3.42123 0
M  V30 28818 C 2677.5 0.184521 4.27602 0
M  V30 28819 C 2676.82 -0.782516 5.28943 0
M  V30 28820 C 2678.12 1.38874 5.03499 0
M  V30 28821 H 2679.82 1.06066 2.79983 0
M  V30 28822 H 2677.36 0.511485 1.3461 0
M  V30 28823 H 2679.32 -1.00526 4.09234 0
M  V30 28824 H 2678.04 -1.44371 2.92958 0
M  V30 28825 H 2676.7 0.573656 3.62084 0
M  V30 28826 H 2676.35 -1.62458 4.76043 0
M  V30 28827 H 2676.05 -0.263592 5.87008 0
M  V30 28828 H 2677.57 -1.18837 5.98924 0
M  V30 28829 H 2678.99 1.05527 5.63504 0
M  V30 28830 H 2677.38 1.8428 5.71105 0
M  V30 28831 H 2678.45 2.17061 4.33604 0
M  V30 28832 N 2679.8 -1.46924 0.570174 0
M  V30 28833 C 2681.04 -2.02036 0.0508878 0
M  V30 28834 C 2681.36 -1.4455 -1.30883 0
M  V30 28835 O 2680.63 -0.625486 -1.85646 0
M  V30 28836 H 2679.21 -0.746832 0.0158219 0
M  V30 28837 H 2681.88 -1.80177 0.743118 0
M  V30 28838 H 2680.97 -3.12088 -0.0275201 0
M  V30 28839 N 2681.27 -0.307291 -1.54575 0
M  V30 28840 C 2682.2 0.55903 -2.26709 0
M  V30 28841 C 2683.18 1.13277 -1.26895 0
M  V30 28842 O 2684.37 1.16094 -1.55679 0
M  V30 28843 C 2681.5 1.72796 -3.01262 0
M  V30 28844 C 2680.45 1.28428 -4.08277 0
M  V30 28845 C 2679.78 2.53887 -4.7058 0
M  V30 28846 C 2681.08 0.410946 -5.20681 0
M  V30 28847 H 2682.77 -0.0426286 -2.9937 0
M  V30 28848 H 2680.32 -0.0219426 -1.43983 0
M  V30 28849 H 2682.27 2.34017 -3.50448 0
M  V30 28850 H 2681 2.35596 -2.26191 0
M  V30 28851 H 2679.66 0.695098 -3.5995 0
M  V30 28852 H 2679.3 3.15015 -3.92141 0
M  V30 28853 H 2679 2.24899 -5.42858 0
M  V30 28854 H 2680.53 3.15899 -5.22532 0
M  V30 28855 H 2681.94 0.928997 -5.65723 0
M  V30 28856 H 2680.34 0.214559 -5.99716 0
M  V30 28857 H 2681.41 -0.562372 -4.81628 0
M  V30 28858 N 2682.75 1.57561 -0.0351337 0
M  V30 28859 C 2684 1.92332 0.643146 0
M  V30 28860 C 2684.33 0.912398 1.71432 0
M  V30 28861 O 2683.61 -0.0639962 1.94395 0
M  V30 28862 C 2683.89 3.37558 1.25405 0
M  V30 28863 C 2683.74 4.4939 0.19203 0
M  V30 28864 C 2685.06 3.82863 2.17035 0
M  V30 28865 H 2682.18 0.699423 0.232329 0
M  V30 28866 H 2684.82 1.89769 -0.0936222 0
M  V30 28867 H 2682.97 3.39873 1.88199 0
M  V30 28868 H 2684.64 4.59207 -0.43893 0
M  V30 28869 H 2682.89 4.31116 -0.481801 0
M  V30 28870 H 2683.56 5.4805 0.659196 0
M  V30 28871 H 2686.03 3.82323 1.64221 0
M  V30 28872 H 2684.91 4.85161 2.56729 0
M  V30 28873 H 2685.17 3.18707 3.06395 0
M  V30 28874 N 2684.23 -0.238084 1.55791 0
M  V30 28875 C 2685.45 -0.9864 1.82442 0
M  V30 28876 C 2685.88 -1.77819 0.613345 0
M  V30 28877 O 2685.24 -1.75936 -0.437736 0
M  V30 28878 C 2685.29 -1.89295 3.0692 0
M  V30 28879 O 2684.39 -2.98596 2.84454 0
M  V30 28880 H 2683.73 -0.280207 0.60198 0
M  V30 28881 H 2686.26 -0.256402 2.02987 0
M  V30 28882 H 2686.27 -2.30593 3.36587 0
M  V30 28883 H 2684.95 -1.31084 3.94702 0
M  V30 28884 H 2683.52 -2.61363 2.65977 0
M  V30 28885 N 2685.71 -1.4932 -0.504115 0
M  V30 28886 C 2686.64 -1.6867 -1.6147 0
M  V30 28887 C 2687.62 -0.535407 -1.61454 0
M  V30 28888 O 2688.8 -0.770899 -1.78244 0
M  V30 28889 C 2685.93 -1.75033 -2.99968 0
M  V30 28890 C 2684.89 -2.89921 -3.14849 0
M  V30 28891 C 2684.21 -2.81395 -4.54666 0
M  V30 28892 C 2685.51 -4.30898 -2.95168 0
M  V30 28893 H 2687.21 -2.61651 -1.45531 0
M  V30 28894 H 2684.75 -1.25914 -0.698689 0
M  V30 28895 H 2686.71 -1.87157 -3.77558 0
M  V30 28896 H 2685.43 -0.786496 -3.16989 0
M  V30 28897 H 2684.09 -2.77395 -2.39682 0
M  V30 28898 H 2683.74 -1.82926 -4.68559 0
M  V30 28899 H 2683.44 -3.58503 -4.65564 0
M  V30 28900 H 2684.96 -2.95522 -5.34321 0
M  V30 28901 H 2686.38 -4.44122 -3.62531 0
M  V30 28902 H 2684.77 -5.09204 -3.1754 0
M  V30 28903 H 2685.84 -4.45559 -1.91324 0
M  V30 28904 N 2687.19 0.754933 -1.38342 0
M  V30 28905 C 2688.42 1.54193 -1.37507 0
M  V30 28906 C 2688.82 1.89163 0.0373454 0
M  V30 28907 O 2688.17 1.53179 1.01399 0
M  V30 28908 C 2688.23 2.87004 -2.16493 0
M  V30 28909 C 2687.89 2.74578 -3.65316 0
M  V30 28910 C 2688.89 2.44466 -4.58838 0
M  V30 28911 C 2686.57 2.92073 -4.08655 0
M  V30 28912 C 2688.57 2.32 -5.93679 0
M  V30 28913 C 2686.26 2.79227 -5.43576 0
M  V30 28914 C 2687.25 2.49234 -6.35902 0
M  V30 28915 O 2686.94 2.36444 -7.68342 0
M  V30 28916 H 2686.67 0.483771 -0.472167 0
M  V30 28917 H 2689.23 0.942178 -1.82516 0
M  V30 28918 H 2687.46 3.49163 -1.662 0
M  V30 28919 H 2689.15 3.48507 -2.08082 0
M  V30 28920 H 2689.91 2.30619 -4.26661 0
M  V30 28921 H 2685.79 3.14416 -3.3714 0
M  V30 28922 H 2689.34 2.0851 -6.6571 0
M  V30 28923 H 2685.23 2.92647 -5.7535 0
M  V30 28924 H 2686 2.51667 -7.78849 0
M  V30 28925 N 2688.66 1.23189 0.982967 0
M  V30 28926 C 2689.61 1.0082 2.09614 0
M  V30 28927 C 2690.61 -0.0519698 1.6932 0
M  V30 28928 O 2691.81 0.101316 1.79715 0
M  V30 28929 H 2688.19 0.308911 0.685622 0
M  V30 28930 H 2690.16 1.95257 2.25649 0
M  V30 28931 C 2688.91 0.613304 3.42248 0
M  V30 28932 H 2688.23 1.42079 3.73702 0
M  V30 28933 H 2689.67 0.496282 4.21086 0
M  V30 28934 C 2688.13 -0.678175 3.30004 0
M  V30 28935 O 2688.66 -1.728 3.62633 0
M  V30 28936 N 2686.86 -0.653115 2.83166 0
M  V30 28937 H 2686.41 0.201537 2.5681 0
M  V30 28938 H 2686.37 -1.51747 2.75355 0
M  V30 28939 N 2690.14 -1.18133 1.04318 0
M  V30 28940 C 2691.05 -2.25504 0.646916 0
M  V30 28941 C 2692.07 -1.70881 -0.327977 0
M  V30 28942 O 2693.24 -2.00573 -0.182273 0
M  V30 28943 C 2690.31 -3.46695 0.0186273 0
M  V30 28944 C 2689.37 -4.16441 1.04285 0
M  V30 28945 C 2688.6 -5.31846 0.444445 0
M  V30 28946 O 2688.83 -5.65466 -0.748636 0
M  V30 28947 O 2687.76 -5.90332 1.17439 0
M  V30 28948 H 2691.59 -2.61669 1.54152 0
M  V30 28949 H 2689.17 -1.25264 0.81421 0
M  V30 28950 H 2691.05 -4.20098 -0.330994 0
M  V30 28951 H 2689.73 -3.12347 -0.84976 0
M  V30 28952 H 2688.63 -3.45095 1.44431 0
M  V30 28953 H 2689.97 -4.54795 1.88208 0
M  V30 28954 N 2691.62 -0.822988 -1.34405 0
M  V30 28955 C 2692.57 -0.24288 -2.29518 0
M  V30 28956 C 2693.54 0.63237 -1.53591 0
M  V30 28957 O 2694.72 0.573998 -1.81961 0
M  V30 28958 C 2691.86 0.589191 -3.40033 0
M  V30 28959 C 2690.98 -0.308311 -4.30898 0
M  V30 28960 C 2690.11 0.533332 -5.28516 0
M  V30 28961 C 2689.15 -0.363551 -6.11019 0
M  V30 28962 N 2688.29 0.439024 -7.00726 0
M  V30 28963 H 2693.13 -1.05933 -2.78536 0
M  V30 28964 H 2690.66 -0.533896 -1.37069 0
M  V30 28965 H 2692.62 1.08693 -4.02792 0
M  V30 28966 H 2691.25 1.37076 -2.9225 0
M  V30 28967 H 2690.3 -0.924268 -3.69001 0
M  V30 28968 H 2691.62 -0.997948 -4.88715 0
M  V30 28969 H 2690.77 1.09555 -5.96727 0
M  V30 28970 H 2689.51 1.25647 -4.71237 0
M  V30 28971 H 2688.51 -0.937908 -5.41741 0
M  V30 28972 H 2689.74 -1.08481 -6.7038 0
M  V30 28973 H 2687.68 1.14584 -6.45915 0
M  V30 28974 H 2687.6 -0.192223 -7.55756 0
M  V30 28975 H 2688.87 0.983988 -7.73264 0
M  V30 28976 N 2693.1 1.4662 -0.577957 0
M  V30 28977 C 2694.35 2.02406 -0.0617234 0
M  V30 28978 C 2694.67 1.44999 1.29636 0
M  V30 28979 O 2693.93 0.603113 1.86175 0
M  V30 28980 C 2694.23 3.57351 0.0590204 0
M  V30 28981 C 2693.89 4.33775 -1.23085 0
M  V30 28982 C 2692.56 4.54373 -1.58424 0
M  V30 28983 C 2694.91 4.77694 -2.08465 0
M  V30 28984 C 2692.24 5.16142 -2.78952 0
M  V30 28985 C 2694.59 5.40794 -3.28214 0
M  V30 28986 C 2693.25 5.59621 -3.63841 0
M  V30 28987 H 2692.52 0.740656 -0.0225862 0
M  V30 28988 H 2695.17 1.76047 -0.75364 0
M  V30 28989 H 2693.47 3.8282 0.834037 0
M  V30 28990 H 2695.17 3.98187 0.474132 0
M  V30 28991 H 2691.76 4.18036 -0.945725 0
M  V30 28992 H 2695.94 4.6154 -1.82467 0
M  V30 28993 H 2691.2 5.2891 -3.06698 0
M  V30 28994 H 2695.37 5.73785 -3.94644 0
M  V30 28995 H 2693 6.07254 -4.57326 0
M  V30 28996 N 2694.58 0.315484 1.5441 0
M  V30 28997 C 2695.81 -0.291279 2.04536 0
M  V30 28998 C 2696.21 -1.46957 1.19164 0
M  V30 28999 O 2695.56 -1.82458 0.213231 0
M  V30 29000 C 2695.62 -0.796664 3.50562 0
M  V30 29001 C 2695.28 0.258258 4.5627 0
M  V30 29002 C 2696.28 1.09162 5.08311 0
M  V30 29003 C 2693.97 0.404124 5.00672 0
M  V30 29004 C 2695.96 2.05665 6.03308 0
M  V30 29005 C 2693.65 1.37259 5.95486 0
M  V30 29006 C 2694.64 2.19732 6.46689 0
M  V30 29007 O 2694.33 3.14934 7.39643 0
M  V30 29008 H 2694.06 -0.0651047 0.672858 0
M  V30 29009 H 2696.62 0.457343 2.00244 0
M  V30 29010 H 2694.85 -1.59606 3.52226 0
M  V30 29011 H 2696.54 -1.32089 3.83806 0
M  V30 29012 H 2697.3 0.989873 4.74791 0
M  V30 29013 H 2693.18 -0.22791 4.60436 0
M  V30 29014 H 2696.73 2.70078 6.43198 0
M  V30 29015 H 2692.62 1.475 6.28422 0
M  V30 29016 H 2693.39 3.1008 7.57491 0
M  V30 29017 N 2696.05 -1.5754 0.0434891 0
M  V30 29018 C 2697.3 -1.91562 -0.63142 0
M  V30 29019 C 2697.62 -0.92295 -1.72456 0
M  V30 29020 O 2698.82 -1.15494 -2.4571 0
M  V30 29021 C 2697.28 -3.402 -1.17441 0
M  V30 29022 C 2696.89 -4.47855 -0.113788 0
M  V30 29023 C 2698.63 -3.83267 -1.825 0
M  V30 29024 C 2696.54 -5.87601 -0.669222 0
M  V30 29025 H 2695.47 -0.714912 -0.239617 0
M  V30 29026 H 2698.12 -1.83163 0.111129 0
M  V30 29027 H 2696.5 -3.43577 -1.96903 0
M  V30 29028 H 2697.67 -4.56057 0.659428 0
M  V30 29029 H 2695.99 -4.14081 0.438894 0
M  V30 29030 H 2698.59 -4.85038 -2.25038 0
M  V30 29031 H 2698.93 -3.191 -2.6736 0
M  V30 29032 H 2699.46 -3.82374 -1.09706 0
M  V30 29033 H 2696.2 -6.55347 0.141564 0
M  V30 29034 H 2695.72 -5.82977 -1.4106 0
M  V30 29035 H 2697.4 -6.36616 -1.15451 0
M  V30 29036 N 2697.53 0.229818 -1.55915 0
M  V30 29037 C 2698.48 1.30441 -1.92582 0
M  V30 29038 C 2699.47 1.4895 -0.806865 0
M  V30 29039 O 2700.68 1.50222 -0.991633 0
M  V30 29040 H 2697.06 0.43715 -0.611886 0
M  V30 29041 H 2699.03 0.96792 -2.82266 0
M  V30 29042 C 2697.78 2.64936 -2.25176 0
M  V30 29043 H 2697.1 2.51499 -3.10787 0
M  V30 29044 H 2698.54 3.38958 -2.54722 0
M  V30 29045 C 2697 3.19323 -1.074 0
M  V30 29046 O 2697.53 4.00335 -0.330829 0
M  V30 29047 N 2695.73 2.77582 -0.860033 0
M  V30 29048 H 2695.28 2.1181 -1.46609 0
M  V30 29049 H 2695.24 3.14314 -0.0737224 0
M  V30 29050 N 2699.01 1.49585 0.49619 0
M  V30 29051 C 2699.96 1.67101 1.61802 0
M  V30 29052 C 2700.95 0.536905 1.60666 0
M  V30 29053 O 2702.16 0.716683 1.65117 0
M  V30 29054 H 2698.53 0.526996 0.536451 0
M  V30 29055 H 2700.5 2.61255 1.44182 0
M  V30 29056 C 2699.25 1.75926 2.99909 0
M  V30 29057 H 2698.58 2.62571 3.01491 0
M  V30 29058 H 2700.02 1.92215 3.77928 0
M  V30 29059 C 2698.48 0.505146 3.33091 0
M  V30 29060 O 2699.01 -0.367015 4.0002 0
M  V30 29061 N 2697.21 0.36665 2.88278 0
M  V30 29062 H 2696.76 1.07739 2.33987 0
M  V30 29063 H 2696.72 -0.471366 3.10846 0
M  V30 29064 N 2700.49 -0.747586 1.3874 0
M  V30 29065 C 2701.74 -1.50687 1.35277 0
M  V30 29066 C 2702.06 -1.94421 -0.0553017 0
M  V30 29067 O 2701.32 -1.66177 -1.03362 0
M  V30 29068 C 2701.62 -2.76876 2.25996 0
M  V30 29069 C 2701.28 -2.52073 3.73858 0
M  V30 29070 C 2699.95 -2.45018 4.14149 0
M  V30 29071 C 2702.3 -2.3056 4.67431 0
M  V30 29072 C 2699.63 -2.14473 5.46093 0
M  V30 29073 C 2701.98 -2.01535 5.99639 0
M  V30 29074 C 2700.64 -1.9294 6.39007 0
M  V30 29075 H 2699.91 -0.551401 0.495013 0
M  V30 29076 H 2702.56 -0.859128 1.71147 0
M  V30 29077 H 2700.86 -3.4633 1.83202 0
M  V30 29078 H 2702.56 -3.34857 2.20617 0
M  V30 29079 H 2699.15 -2.58438 3.41918 0
M  V30 29080 H 2703.33 -2.34986 4.37144 0
M  V30 29081 H 2698.59 -2.06332 5.75532 0
M  V30 29082 H 2702.76 -1.83894 6.71681 0
M  V30 29083 H 2700.39 -1.69037 7.41168 0
M  V30 29084 N 2701.97 -1.23709 -0.97642 0
M  V30 29085 C 2703.21 -1.06945 -1.71485 0
M  V30 29086 C 2703.54 0.393863 -1.90981 0
M  V30 29087 O 2702.81 1.28196 -1.48131 0
M  V30 29088 H 2701.39 -0.39275 -0.635418 0
M  V30 29089 H 2704.05 -1.55489 -1.17512 0
M  V30 29090 H 2703.14 -1.56056 -2.70283 0
M  V30 29091 N 2703.44 1.17579 -1.04943 0
M  V30 29092 C 2704.38 2.20372 -0.592557 0
M  V30 29093 C 2705.36 1.58156 0.377534 0
M  V30 29094 O 2706.54 1.8626 0.289747 0
M  V30 29095 C 2703.67 3.38438 0.133156 0
M  V30 29096 C 2702.71 4.1909 -0.791557 0
M  V30 29097 S 2703.55 4.84568 -2.27934 0
M  V30 29098 C 2704.7 6.06026 -1.56472 0
M  V30 29099 H 2704.93 2.58785 -1.46347 0
M  V30 29100 H 2702.47 1.28153 -0.861171 0
M  V30 29101 H 2704.43 4.06857 0.545675 0
M  V30 29102 H 2703.09 2.98418 0.980071 0
M  V30 29103 H 2702.28 5.03474 -0.230127 0
M  V30 29104 H 2701.88 3.56096 -1.14333 0
M  V30 29105 H 2704.17 6.71985 -0.862657 0
M  V30 29106 H 2705.12 6.66692 -2.38595 0
M  V30 29107 H 2705.52 5.54588 -1.05322 0
M  V30 29108 N 2704.92 0.830104 1.33967 0
M  V30 29109 C 2705.86 0.202222 2.27302 0
M  V30 29110 C 2706.83 -0.645554 1.49236 0
M  V30 29111 O 2708.02 -0.607731 1.78435 0
M  V30 29112 C 2705.14 -0.716874 3.31027 0
M  V30 29113 C 2704.19 0.0543021 4.26465 0
M  V30 29114 S 2705.02 1.40631 5.16704 0
M  V30 29115 C 2706.18 0.492277 6.23961 0
M  V30 29116 H 2706.41 0.99351 2.80208 0
M  V30 29117 H 2703.95 0.626384 1.41123 0
M  V30 29118 H 2705.9 -1.24158 3.91274 0
M  V30 29119 H 2704.56 -1.48175 2.76953 0
M  V30 29120 H 2703.76 -0.644698 4.9986 0
M  V30 29121 H 2703.36 0.509787 3.70509 0
M  V30 29122 H 2705.65 -0.313351 6.76775 0
M  V30 29123 H 2706.59 1.19611 6.97925 0
M  V30 29124 H 2707 0.0775168 5.64447 0
M  V30 29125 N 2706.4 -1.46311 0.585725 0
M  V30 29126 C 2707.65 -2.0267 0.072564 0
M  V30 29127 C 2707.98 -1.45589 -1.28521 0
M  V30 29128 O 2707.26 -0.622134 -1.84282 0
M  V30 29129 C 2707.54 -3.60099 0.0100421 0
M  V30 29130 C 2707.39 -4.27558 1.39693 0
M  V30 29131 C 2708.71 -4.34673 -0.68904 0
M  V30 29132 H 2705.83 -0.736474 0.0278436 0
M  V30 29133 H 2708.47 -1.7442 0.753503 0
M  V30 29134 H 2706.62 -3.84298 -0.569852 0
M  V30 29135 H 2708.29 -4.14613 2.02222 0
M  V30 29136 H 2706.54 -3.86804 1.9638 0
M  V30 29137 H 2707.21 -5.36337 1.30562 0
M  V30 29138 H 2709.68 -4.15636 -0.196373 0
M  V30 29139 H 2708.56 -5.44395 -0.701825 0
M  V30 29140 H 2708.82 -4.05949 -1.75094 0
M  V30 29141 N 2707.88 -0.323668 -1.54241 0
M  V30 29142 C 2709.1 0.283568 -2.05452 0
M  V30 29143 C 2709.53 1.44995 -1.19826 0
M  V30 29144 O 2708.89 1.8011 -0.20739 0
M  V30 29145 C 2708.94 0.695732 -3.53825 0
M  V30 29146 O 2708.04 1.79809 -3.71137 0
M  V30 29147 H 2707.38 0.0511801 -0.662025 0
M  V30 29148 H 2709.91 -0.472108 -1.99079 0
M  V30 29149 H 2709.92 0.978365 -3.96096 0
M  V30 29150 H 2708.6 -0.15736 -4.15602 0
M  V30 29151 H 2707.17 1.51425 -3.40771 0
M  V30 29152 N 2709.36 1.57515 -0.0518432 0
M  V30 29153 C 2710.61 1.92337 0.620561 0
M  V30 29154 C 2710.93 0.930937 1.71343 0
M  V30 29155 O 2710.2 -0.0240996 1.95885 0
M  V30 29156 H 2708.78 0.70999 0.232213 0
M  V30 29157 H 2711.44 1.94617 -0.105003 0
M  V30 29158 H 2710.53 2.93594 1.05874 0
M  V30 29159 N 2710.84 -0.221546 1.56035 0
M  V30 29160 C 2711.77 -1.27776 1.95436 0
M  V30 29161 C 2712.75 -1.48887 0.82259 0
M  V30 29162 O 2713.93 -1.61071 1.08489 0
M  V30 29163 C 2711.06 -2.62755 2.27106 0
M  V30 29164 C 2710.02 -2.563 3.42774 0
M  V30 29165 C 2709.34 -3.95308 3.60049 0
M  V30 29166 C 2710.64 -2.11084 4.77745 0
M  V30 29167 H 2712.34 -0.950454 2.83913 0
M  V30 29168 H 2709.88 -0.455767 1.36597 0
M  V30 29169 H 2711.83 -3.36803 2.53262 0
M  V30 29170 H 2710.56 -2.97173 1.35483 0
M  V30 29171 H 2709.22 -1.84709 3.16667 0
M  V30 29172 H 2708.87 -4.27034 2.65802 0
M  V30 29173 H 2708.57 -3.91871 4.37848 0
M  V30 29174 H 2710.09 -4.71018 3.88554 0
M  V30 29175 H 2711.5 -2.74876 5.03106 0
M  V30 29176 H 2709.9 -2.18707 5.58827 0
M  V30 29177 H 2710.97 -1.06313 4.73102 0
M  V30 29178 N 2712.31 -1.49846 -0.48825 0
M  V30 29179 C 2713.56 -1.59219 -1.23823 0
M  V30 29180 C 2713.88 -0.29 -1.93438 0
M  V30 29181 O 2715.08 -0.26243 -2.70229 0
M  V30 29182 C 2713.54 -2.8098 -2.24897 0
M  V30 29183 C 2713.15 -4.18008 -1.61162 0
M  V30 29184 C 2714.89 -2.9969 -3.00643 0
M  V30 29185 C 2712.8 -5.30975 -2.60422 0
M  V30 29186 H 2711.73 -0.592876 -0.465847 0
M  V30 29187 H 2714.38 -1.76253 -0.510614 0
M  V30 29188 H 2712.76 -2.57468 -3.00876 0
M  V30 29189 H 2713.93 -4.51707 -0.910888 0
M  V30 29190 H 2712.25 -4.04762 -0.977599 0
M  V30 29191 H 2714.85 -3.81257 -3.74896 0
M  V30 29192 H 2715.19 -2.10745 -3.59016 0
M  V30 29193 H 2715.72 -3.23301 -2.31778 0
M  V30 29194 H 2712.46 -6.2202 -2.06812 0
M  V30 29195 H 2711.98 -5.01715 -3.28698 0
M  V30 29196 H 2713.66 -5.60839 -3.22596 0
M  V30 29197 N 2713.79 0.740218 -1.39135 0
M  V30 29198 C 2715.02 1.52725 -1.39135 0
M  V30 29199 C 2715.43 1.89192 0.01728 0
M  V30 29200 O 2714.77 1.54246 0.997688 0
M  V30 29201 C 2714.83 2.84691 -2.19525 0
M  V30 29202 C 2714.5 2.70688 -3.68208 0
M  V30 29203 C 2715.5 2.39585 -4.61405 0
M  V30 29204 C 2713.18 2.87722 -4.11729 0
M  V30 29205 C 2715.17 2.2569 -5.96106 0
M  V30 29206 C 2712.86 2.73446 -5.46507 0
M  V30 29207 C 2713.86 2.42475 -6.3851 0
M  V30 29208 O 2713.55 2.28282 -7.70807 0
M  V30 29209 H 2713.28 0.478736 -0.477272 0
M  V30 29210 H 2715.83 0.922767 -1.83505 0
M  V30 29211 H 2714.06 3.4738 -1.69894 0
M  V30 29212 H 2715.75 3.4628 -2.11766 0
M  V30 29213 H 2716.52 2.26081 -4.29083 0
M  V30 29214 H 2712.4 3.10823 -3.40456 0
M  V30 29215 H 2715.94 2.01438 -6.67884 0
M  V30 29216 H 2711.84 2.86528 -5.78422 0
M  V30 29217 H 2712.61 2.43392 -7.81475 0
M  V30 29218 N 2715.27 1.24225 0.969846 0
M  V30 29219 C 2716.52 1.07469 1.70685 0
M  V30 29220 C 2716.83 -0.386828 1.91737 0
M  V30 29221 O 2718.04 -0.674535 2.62987 0
M  V30 29222 C 2716.49 1.87477 3.07214 0
M  V30 29223 C 2716.1 3.38025 2.94012 0
M  V30 29224 C 2717.85 1.79244 3.84801 0
M  V30 29225 C 2715.75 4.10386 4.25837 0
M  V30 29226 H 2714.68 0.398547 0.64006 0
M  V30 29227 H 2717.33 1.48287 1.08089 0
M  V30 29228 H 2715.72 1.39472 3.70626 0
M  V30 29229 H 2716.89 3.93594 2.39625 0
M  V30 29230 H 2715.2 3.47187 2.29892 0
M  V30 29231 H 2717.8 2.30611 4.82413 0
M  V30 29232 H 2718.14 0.757269 4.09355 0
M  V30 29233 H 2718.68 2.24918 3.28111 0
M  V30 29234 H 2715.42 5.14253 4.06477 0
M  V30 29235 H 2714.94 3.59603 4.80048 0
M  V30 29236 H 2716.62 4.17265 4.94468 0
M  V30 29237 N 2716.75 -1.1702 1.05565 0
M  V30 29238 C 2717.7 -2.23219 0.653926 0
M  V30 29239 C 2718.69 -1.66222 -0.326613 0
M  V30 29240 O 2719.9 -1.7897 -0.19227 0
M  V30 29241 H 2716.27 -0.726729 0.19331 0
M  V30 29242 H 2718.24 -2.54397 1.55965 0
M  V30 29243 C 2716.99 -3.47666 0.0486045 0
M  V30 29244 H 2716.31 -3.91832 0.794199 0
M  V30 29245 H 2717.75 -4.23551 -0.195059 0
M  V30 29246 C 2716.21 -3.14583 -1.20577 0
M  V30 29247 O 2716.74 -3.29707 -2.29469 0
M  V30 29248 N 2714.95 -2.68776 -1.10488 0
M  V30 29249 H 2714.5 -2.5667 -0.21875 0
M  V30 29250 H 2714.45 -2.47014 -1.94503 0
M  V30 29251 N 2718.23 -0.837197 -1.33524 0
M  V30 29252 C 2719.5 -0.354099 -1.92368 0
M  V30 29253 C 2719.88 1.16034 -1.7635 0
M  V30 29254 O 2719.23 1.97401 -1.15087 0
M  V30 29255 C 2719.44 -0.79916 -3.39727 0
M  V30 29256 C 2720.79 -0.806213 -4.16876 0
M  V30 29257 O 2721.81 -0.742658 -3.48372 0
M  V30 29258 O 2720.67 -0.89244 -5.39164 0
M  V30 29259 H 2717.77 -0.0998523 -0.82095 0
M  V30 29260 H 2720.31 -0.922938 -1.42408 0
M  V30 29261 H 2719.08 -1.84168 -3.4525 0
M  V30 29262 H 2718.71 -0.2068 -3.97062 0
M  V30 29263 N 2719.7 1.45999 -0.593476 0
M  V30 29264 C 2720.93 2.07216 -0.087273 0
M  V30 29265 C 2721.35 1.43757 1.21308 0
M  V30 29266 O 2720.71 0.525183 1.73527 0
M  V30 29267 C 2720.76 3.6056 0.0537564 0
M  V30 29268 O 2719.86 3.97249 1.10758 0
M  V30 29269 H 2719.2 0.660543 -0.0676714 0
M  V30 29270 H 2721.73 1.87472 -0.819478 0
M  V30 29271 H 2721.74 4.07193 0.256496 0
M  V30 29272 H 2720.42 4.06138 -0.89581 0
M  V30 29273 H 2719 3.62309 0.882437 0
M  V30 29274 N 2721.18 0.331843 1.54067 0
M  V30 29275 C 2722.11 -0.522892 2.2757 0
M  V30 29276 C 2723.09 -1.11244 1.28681 0
M  V30 29277 O 2724.28 -1.13603 1.57506 0
M  V30 29278 C 2721.41 -1.67981 3.03973 0
M  V30 29279 C 2720.36 -1.21917 4.10269 0
M  V30 29280 C 2719.69 -2.46369 4.74559 0
M  V30 29281 C 2720.99 -0.328058 5.21269 0
M  V30 29282 H 2722.68 0.0902503 2.99264 0
M  V30 29283 H 2720.23 0.0448463 1.4393 0
M  V30 29284 H 2722.18 -2.28412 3.54127 0
M  V30 29285 H 2720.91 -2.31967 2.2991 0
M  V30 29286 H 2719.56 -0.637745 3.6101 0
M  V30 29287 H 2719.21 -3.08736 3.97103 0
M  V30 29288 H 2718.91 -2.16234 5.46367 0
M  V30 29289 H 2720.44 -3.07546 5.27492 0
M  V30 29290 H 2721.85 -0.838878 5.67129 0
M  V30 29291 H 2720.25 -0.119122 5.99982 0
M  V30 29292 H 2721.32 0.638924 4.80672 0
M  V30 29293 N 2722.66 -1.57485 0.0601958 0
M  V30 29294 C 2723.89 -1.97077 -0.620002 0
M  V30 29295 C 2724.3 -0.936813 -1.64379 0
M  V30 29296 O 2723.64 0.0863055 -1.83497 0
M  V30 29297 C 2723.7 -3.32941 -1.35611 0
M  V30 29298 C 2723.37 -4.54396 -0.487128 0
M  V30 29299 C 2724.36 -5.19296 0.250519 0
M  V30 29300 C 2722.05 -5.00579 -0.415406 0
M  V30 29301 C 2724.04 -6.28722 1.04823 0
M  V30 29302 C 2721.73 -6.0988 0.385986 0
M  V30 29303 C 2722.73 -6.73813 1.11648 0
M  V30 29304 O 2722.42 -7.8101 1.90468 0
M  V30 29305 H 2722.15 -0.653315 -0.173653 0
M  V30 29306 H 2724.7 -2.05015 0.125636 0
M  V30 29307 H 2722.93 -3.21584 -2.14758 0
M  V30 29308 H 2724.62 -3.57219 -1.92742 0
M  V30 29309 H 2725.39 -4.84568 0.204632 0
M  V30 29310 H 2721.27 -4.50602 -0.9736 0
M  V30 29311 H 2724.81 -6.78555 1.61892 0
M  V30 29312 H 2720.71 -6.44043 0.433479 0
M  V30 29313 H 2721.48 -7.97832 1.82776 0
M  V30 29314 N 2724.14 0.213268 -1.5615 0
M  V30 29315 C 2725.37 0.951724 -1.83373 0
M  V30 29316 C 2725.78 1.78112 -0.638189 0
M  V30 29317 O 2725.12 1.79234 0.402578 0
M  V30 29318 C 2725.18 1.91186 -3.04447 0
M  V30 29319 C 2724.85 1.26619 -4.39109 0
M  V30 29320 C 2725.84 0.651996 -5.15796 0
M  V30 29321 C 2723.53 1.27548 -4.85836 0
M  V30 29322 C 2725.52 0.055702 -6.37376 0
M  V30 29323 C 2723.21 0.675344 -6.07357 0
M  V30 29324 C 2724.21 0.0665167 -6.82968 0
M  V30 29325 O 2723.89 -0.52426 -8.02189 0
M  V30 29326 H 2723.63 0.2841 -0.613403 0
M  V30 29327 H 2726.18 0.231076 -2.04096 0
M  V30 29328 H 2724.41 2.67173 -2.79563 0
M  V30 29329 H 2726.1 2.51657 -3.18471 0
M  V30 29330 H 2726.87 0.637088 -4.80797 0
M  V30 29331 H 2722.74 1.73876 -4.26952 0
M  V30 29332 H 2726.29 -0.420126 -6.96334 0
M  V30 29333 H 2722.19 0.687693 -6.41826 0
M  V30 29334 H 2722.95 -0.419387 -8.17425 0
M  V30 29335 N 2725.62 1.50103 0.480296 0
M  V30 29336 C 2726.86 1.60631 1.23304 0
M  V30 29337 C 2727.19 0.302409 1.92135 0
M  V30 29338 O 2726.45 -0.711122 1.82323 0
M  V30 29339 C 2726.75 2.72967 2.30703 0
M  V30 29340 C 2726.41 4.13766 1.79188 0
M  V30 29341 C 2725.07 4.52078 1.64859 0
M  V30 29342 C 2727.43 5.01802 1.40869 0
M  V30 29343 C 2724.75 5.76177 1.10621 0
M  V30 29344 C 2727.11 6.26439 0.880762 0
M  V30 29345 C 2725.77 6.63562 0.72403 0
M  V30 29346 H 2725.04 0.587792 0.451201 0
M  V30 29347 H 2727.69 1.84006 0.530477 0
M  V30 29348 H 2725.99 2.43644 3.0683 0
M  V30 29349 H 2727.69 2.78318 2.88687 0
M  V30 29350 H 2724.28 3.83536 1.91306 0
M  V30 29351 H 2728.46 4.72842 1.50778 0
M  V30 29352 H 2723.72 6.03622 0.972156 0
M  V30 29353 H 2727.89 6.94021 0.575147 0
M  V30 29354 H 2725.52 7.59602 0.301589 0
M  V30 29355 N 2727.09 -0.732829 1.39526 0
M  V30 29356 C 2728.04 -1.84686 1.38419 0
M  V30 29357 C 2729.01 -1.64304 0.243568 0
M  V30 29358 O 2730.2 -1.85681 0.439011 0
M  V30 29359 C 2727.34 -3.22222 1.2356 0
M  V30 29360 C 2726.45 -3.54293 2.47185 0
M  V30 29361 C 2725.58 -4.81242 2.24898 0
M  V30 29362 C 2724.62 -5.06164 3.44187 0
M  V30 29363 N 2723.76 -6.24318 3.21203 0
M  V30 29364 H 2728.6 -1.84967 2.33648 0
M  V30 29365 H 2726.14 -0.903784 1.16061 0
M  V30 29366 H 2728.1 -4.01618 1.12956 0
M  V30 29367 H 2726.73 -3.21214 0.319596 0
M  V30 29368 H 2725.78 -2.69582 2.68383 0
M  V30 29369 H 2727.09 -3.68627 3.36029 0
M  V30 29370 H 2726.24 -5.68623 2.11548 0
M  V30 29371 H 2724.98 -4.69086 1.33452 0
M  V30 29372 H 2723.99 -4.17245 3.58032 0
M  V30 29373 H 2725.21 -5.20204 4.36537 0
M  V30 29374 H 2723.16 -6.13445 2.32424 0
M  V30 29375 H 2723.08 -6.39249 4.03605 0
M  V30 29376 H 2724.34 -7.14532 3.11552 0
M  V30 29377 N 2728.57 -1.24737 -0.963244 0
M  V30 29378 C 2729.98 -1.0821 -1.52143 0
M  V30 29379 C 2730.33 0.345027 -1.93142 0
M  V30 29380 O 2729.46 1.23396 -1.77771 0
M  V30 29381 C 2730.05 -1.95813 -2.76483 0
M  V30 29382 C 2728.61 -1.83496 -3.28643 0
M  V30 29383 C 2727.76 -1.9048 -2.01526 0
M  V30 29384 H 2730.71 -1.38149 -0.781059 0
M  V30 29385 H 2730.73 -1.49304 -3.49984 0
M  V30 29386 H 2730.24 -2.99674 -2.46612 0
M  V30 29387 H 2728.35 -0.824851 -3.63355 0
M  V30 29388 H 2728.46 -2.67836 -3.97242 0
M  V30 29389 H 2726.82 -1.34261 -2.16439 0
M  V30 29390 H 2727.61 -2.95929 -1.74014 0
M  V30 29391 N 2730.05 1.16459 -1.06184 0
M  V30 29392 C 2731.46 1.68575 -0.802456 0
M  V30 29393 C 2731.81 1.84257 0.674088 0
M  V30 29394 O 2730.94 1.53732 1.523 0
M  V30 29395 C 2731.53 3.062 -1.45008 0
M  V30 29396 C 2730.09 3.55441 -1.23849 0
M  V30 29397 C 2729.24 2.31451 -1.52728 0
M  V30 29398 H 2732.19 1.00836 -1.22547 0
M  V30 29399 H 2732.21 3.70542 -0.864796 0
M  V30 29400 H 2731.72 2.94754 -2.52471 0
M  V30 29401 H 2729.82 3.72148 -0.183553 0
M  V30 29402 H 2729.94 4.37601 -1.95044 0
M  V30 29403 H 2728.3 2.3641 -0.947767 0
M  V30 29404 H 2729.08 2.22604 -2.61347 0
M  V30 29405 N 2731.53 0.844266 1.33079 0
M  V30 29406 C 2732.77 0.44324 1.97897 0
M  V30 29407 C 2733.11 -0.996221 1.66701 0
M  V30 29408 O 2732.38 -1.69736 0.949734 0
M  V30 29409 C 2732.67 0.670668 3.53799 0
M  V30 29410 C 2732.52 2.15779 3.94664 0
M  V30 29411 C 2733.84 0.120304 4.39936 0
M  V30 29412 H 2730.96 0.162517 0.718858 0
M  V30 29413 H 2733.6 1.06078 1.57631 0
M  V30 29414 H 2731.75 0.145028 3.88229 0
M  V30 29415 H 2733.42 2.74871 3.70464 0
M  V30 29416 H 2731.66 2.64026 3.44199 0
M  V30 29417 H 2732.33 2.26765 5.03271 0
M  V30 29418 H 2734.81 0.569672 4.12182 0
M  V30 29419 H 2733.69 0.309081 5.48029 0
M  V30 29420 H 2733.95 -0.976271 4.31186 0
M  V30 29421 N 2733.01 -1.45682 0.60121 0
M  V30 29422 C 2733.95 -2.32214 -0.133915 0
M  V30 29423 C 2734.95 -1.45591 -0.866008 0
M  V30 29424 O 2736.15 -1.62111 -0.782297 0
M  V30 29425 H 2732.53 -0.749436 -0.0620482 0
M  V30 29426 H 2734.5 -2.92005 0.61444 0
M  V30 29427 C 2733.25 -3.29096 -1.12211 0
M  V30 29428 H 2732.57 -3.95742 -0.568203 0
M  V30 29429 H 2734.01 -3.92386 -1.60653 0
M  V30 29430 C 2732.47 -2.55798 -2.19246 0
M  V30 29431 O 2733 -2.33464 -3.2689 0
M  V30 29432 N 2731.21 -2.16042 -1.94356 0
M  V30 29433 H 2730.75 -2.34406 -1.06825 0
M  V30 29434 H 2730.71 -1.67322 -2.66178 0
M  V30 29435 N 2734.48 -0.340009 -1.53889 0
M  V30 29436 C 2735.43 0.533782 -2.26392 0
M  V30 29437 C 2736.43 1.10491 -1.28406 0
M  V30 29438 O 2737.63 1.05106 -1.46126 0
M  V30 29439 H 2734.01 0.190815 -0.727388 0
M  V30 29440 H 2735.98 -0.0998008 -2.98233 0
M  V30 29441 C 2734.73 1.67473 -3.0471 0
M  V30 29442 H 2734.05 1.24453 -3.79936 0
M  V30 29443 H 2735.49 2.26138 -3.58661 0
M  V30 29444 C 2733.95 2.60208 -2.13994 0
M  V30 29445 O 2734.48 3.62363 -1.73367 0
M  V30 29446 N 2732.69 2.28813 -1.79145 0
M  V30 29447 H 2732.23 1.45781 -2.12381 0
M  V30 29448 H 2732.19 2.91119 -1.1873 0
M  V30 29449 N 2735.96 1.57451 -0.0685468 0
M  V30 29450 C 2736.89 2.15565 0.897432 0
M  V30 29451 C 2737.87 1.08184 1.31264 0
M  V30 29452 O 2739.06 1.36204 1.38427 0
M  V30 29453 C 2736.19 2.71466 2.16618 0
M  V30 29454 C 2735.14 3.83986 1.89047 0
M  V30 29455 C 2734.47 4.26476 3.22525 0
M  V30 29456 C 2735.77 5.08368 1.19831 0
M  V30 29457 H 2737.46 2.96533 0.413321 0
M  V30 29458 H 2735.01 1.42641 0.197365 0
M  V30 29459 H 2736.96 3.10766 2.84609 0
M  V30 29460 H 2735.69 1.87715 2.67265 0
M  V30 29461 H 2734.35 3.45185 1.23463 0
M  V30 29462 H 2733.99 3.39651 3.71007 0
M  V30 29463 H 2733.69 5.02323 3.0487 0
M  V30 29464 H 2735.22 4.6839 3.91719 0
M  V30 29465 H 2736.63 5.45004 1.77886 0
M  V30 29466 H 2735.03 5.89471 1.12445 0
M  V30 29467 H 2736.1 4.84577 0.176911 0
M  V30 29468 N 2737.44 -0.204984 1.56261 0
M  V30 29469 C 2738.69 -0.925026 1.79238 0
M  V30 29470 C 2739 -1.84832 0.640043 0
M  V30 29471 O 2740.21 -2.60824 0.753855 0
M  V30 29472 C 2738.67 -1.69517 3.17478 0
M  V30 29473 C 2738.27 -0.817191 4.40484 0
M  V30 29474 C 2740.02 -2.40543 3.4977 0
M  V30 29475 C 2737.92 -1.58563 5.69747 0
M  V30 29476 H 2736.85 -0.349141 0.668294 0
M  V30 29477 H 2739.51 -0.178512 1.8263 0
M  V30 29478 H 2737.89 -2.4852 3.08308 0
M  V30 29479 H 2739.06 -0.0665178 4.60752 0
M  V30 29480 H 2737.38 -0.218243 4.15828 0
M  V30 29481 H 2739.97 -2.98568 4.43578 0
M  V30 29482 H 2740.32 -3.14247 2.73047 0
M  V30 29483 H 2740.85 -1.68515 3.60344 0
M  V30 29484 H 2737.59 -0.891565 6.49408 0
M  V30 29485 H 2737.11 -2.31049 5.53513 0
M  V30 29486 H 2738.79 -2.14201 6.10514 0
M  V30 29487 N 2738.92 -1.50356 -0.472329 0
M  V30 29488 C 2740.15 -1.65037 -1.24781 0
M  V30 29489 C 2740.56 -0.333209 -1.85836 0
M  V30 29490 O 2739.92 0.68469 -1.69169 0
M  V30 29491 C 2739.97 -2.74058 -2.35742 0
M  V30 29492 O 2739.69 -4.00668 -1.7719 0
M  V30 29493 C 2741.19 -2.99702 -3.2664 0
M  V30 29494 H 2738.41 -0.554791 -0.377423 0
M  V30 29495 H 2740.96 -1.96571 -0.563928 0
M  V30 29496 H 2739.11 -2.45223 -2.99908 0
M  V30 29497 H 2739.53 -4.60949 -2.50252 0
M  V30 29498 H 2741 -3.79651 -4.00711 0
M  V30 29499 H 2741.48 -2.10724 -3.85346 0
M  V30 29500 H 2742.08 -3.30064 -2.68212 0
M  V30 29501 N 2740.4 0.725419 -1.39912 0
M  V30 29502 C 2741.65 1.48222 -1.37385 0
M  V30 29503 C 2741.97 1.94982 0.0263765 0
M  V30 29504 O 2741.24 1.69661 0.979378 0
M  V30 29505 H 2739.82 0.549883 -0.505606 0
M  V30 29506 H 2742.48 0.860577 -1.74872 0
M  V30 29507 H 2741.57 2.35977 -2.04258 0
M  V30 29508 N 2741.88 1.25246 0.956615 0
M  V30 29509 C 2743.12 1.09877 1.70098 0
M  V30 29510 C 2743.45 -0.360587 1.91128 0
M  V30 29511 O 2742.71 -1.28226 1.4784 0
M  V30 29512 C 2743 1.79606 3.08992 0
M  V30 29513 C 2742.67 3.29529 3.07769 0
M  V30 29514 C 2741.33 3.70428 3.07142 0
M  V30 29515 C 2743.68 4.25321 3.0125 0
M  V30 29516 C 2741.01 5.05535 2.97743 0
M  V30 29517 C 2743.36 5.60449 2.93393 0
M  V30 29518 C 2742.03 6.0068 2.91101 0
M  V30 29519 H 2741.3 0.402067 0.622433 0
M  V30 29520 H 2743.95 1.55493 1.11777 0
M  V30 29521 H 2742.25 1.26415 3.70846 0
M  V30 29522 H 2743.95 1.65169 3.65404 0
M  V30 29523 H 2740.54 2.96985 3.09027 0
M  V30 29524 H 2744.72 3.94716 3.00854 0
M  V30 29525 H 2739.98 5.35888 2.94336 0
M  V30 29526 H 2744.15 6.34371 2.87309 0
M  V30 29527 H 2741.78 7.0533 2.83573 0
M  V30 29528 N 2743.35 -1.15894 1.068 0
M  V30 29529 C 2744.6 -1.86824 0.788967 0
M  V30 29530 C 2744.93 -1.81791 -0.683052 0
M  V30 29531 O 2744.21 -1.23714 -1.50084 0
M  V30 29532 C 2744.49 -3.36174 1.29071 0
M  V30 29533 C 2744.34 -3.49869 2.82686 0
M  V30 29534 C 2745.66 -4.30742 0.902731 0
M  V30 29535 H 2742.78 -0.678366 0.288077 0
M  V30 29536 H 2745.42 -1.36193 1.32482 0
M  V30 29537 H 2743.57 -3.79423 0.834873 0
M  V30 29538 H 2745.25 -3.15522 3.36517 0
M  V30 29539 H 2743.49 -2.91611 3.21162 0
M  V30 29540 H 2744.16 -4.54778 3.1286 0
M  V30 29541 H 2746.64 -3.95421 1.29542 0
M  V30 29542 H 2745.51 -5.33738 1.2812 0
M  V30 29543 H 2745.77 -4.41683 -0.191874 0
M  V30 29544 N 2744.83 -0.851312 -1.32629 0
M  V30 29545 C 2746.06 -0.466934 -2.01562 0
M  V30 29546 C 2746.47 0.935418 -1.63998 0
M  V30 29547 O 2745.83 1.60988 -0.859598 0
M  V30 29548 C 2745.88 -0.592496 -3.56611 0
M  V30 29549 O 2745.6 -1.9396 -3.92824 0
M  V30 29550 C 2747.1 -0.20669 -4.42818 0
M  V30 29551 H 2744.32 -0.183914 -0.645304 0
M  V30 29552 H 2746.87 -1.14733 -1.69283 0
M  V30 29553 H 2745.02 0.0401255 -3.87379 0
M  V30 29554 H 2745.44 -1.93399 -4.87542 0
M  V30 29555 H 2746.91 -0.345559 -5.50917 0
M  V30 29556 H 2747.39 0.852564 -4.30846 0
M  V30 29557 H 2747.99 -0.814249 -4.17433 0
M  V30 29558 N 2746.31 1.45361 -0.608928 0
M  V30 29559 C 2747.56 2.02529 -0.104798 0
M  V30 29560 C 2747.89 1.47615 1.26188 0
M  V30 29561 O 2747.16 0.651373 1.83269 0
M  V30 29562 C 2747.45 3.60037 -0.0673294 0
M  V30 29563 C 2747.3 4.25282 -1.46477 0
M  V30 29564 C 2748.62 4.35714 0.619801 0
M  V30 29565 H 2745.74 0.735938 -0.0395568 0
M  V30 29566 H 2748.38 1.73199 -0.781156 0
M  V30 29567 H 2746.53 3.85156 0.508642 0
M  V30 29568 H 2748.2 4.11343 -2.08792 0
M  V30 29569 H 2746.44 3.83631 -2.02509 0
M  V30 29570 H 2747.12 5.34192 -1.39078 0
M  V30 29571 H 2749.59 4.15896 0.130224 0
M  V30 29572 H 2748.47 5.45442 0.615128 0
M  V30 29573 H 2748.73 4.08683 1.68613 0
M  V30 29574 N 2747.79 0.348166 1.53706 0
M  V30 29575 C 2749.04 -0.246443 2.00592 0
M  V30 29576 C 2749.36 -1.50696 1.23756 0
M  V30 29577 O 2748.63 -1.9282 0.345998 0
M  V30 29578 H 2747.21 -0.0940548 0.741055 0
M  V30 29579 H 2749.87 0.470388 1.89138 0
M  V30 29580 H 2748.96 -0.485659 3.08298 0
M  V30 29581 N 2749.27 -1.57412 0.0768958 0
M  V30 29582 C 2750.54 -1.85097 -0.632327 0
M  V30 29583 C 2750.92 -0.970333 -1.87477 0
M  V30 29584 O 2750.27 -0.0379464 -2.28468 0
M  V30 29585 C 2750.48 -3.3539 -0.965115 0
M  V30 29586 C 2751.83 -4.0302 -1.33641 0
M  V30 29587 O 2752.85 -3.40165 -1.05669 0
M  V30 29588 O 2751.71 -5.13892 -1.8595 0
M  V30 29589 H 2748.81 -0.76484 -0.31456 0
M  V30 29590 H 2751.35 -1.69355 0.108214 0
M  V30 29591 H 2750.12 -3.91212 -0.0829057 0
M  V30 29592 H 2749.75 -3.56414 -1.76225 0
M  V30 29593 N 2750.74 0.196695 -1.56368 0
M  V30 29594 C 2752.02 0.943129 -1.71361 0
M  V30 29595 C 2752.4 2.01442 -0.631228 0
M  V30 29596 O 2751.75 2.25678 0.358032 0
M  V30 29597 C 2751.96 1.531 -3.13626 0
M  V30 29598 C 2753.31 2.01374 -3.7381 0
M  V30 29599 O 2754.33 1.62946 -3.16744 0
M  V30 29600 O 2753.19 2.72082 -4.73955 0
M  V30 29601 H 2750.28 0.442183 -0.698859 0
M  V30 29602 H 2752.83 0.186517 -1.68672 0
M  V30 29603 H 2751.6 0.758717 -3.83874 0
M  V30 29604 H 2751.23 2.35249 -3.20536 0
M  V30 29605 N 2752.22 1.50604 0.464349 0
M  V30 29606 C 2753.17 1.69959 1.56149 0
M  V30 29607 C 2754.14 0.540938 1.57045 0
M  V30 29608 O 2755.32 0.772289 1.74472 0
M  V30 29609 C 2752.46 1.80591 2.94076 0
M  V30 29610 C 2751.58 3.08002 3.02917 0
M  V30 29611 C 2750.71 3.09389 4.31801 0
M  V30 29612 C 2749.75 4.31225 4.34409 0
M  V30 29613 N 2748.89 4.30314 5.54774 0
M  V30 29614 H 2753.73 2.63623 1.3895 0
M  V30 29615 H 2751.27 1.30675 0.675459 0
M  V30 29616 H 2753.22 1.84737 3.7407 0
M  V30 29617 H 2751.85 0.903611 3.09895 0
M  V30 29618 H 2750.91 3.13295 2.15755 0
M  V30 29619 H 2752.22 3.97968 3.00705 0
M  V30 29620 H 2751.37 3.12301 5.20147 0
M  V30 29621 H 2750.11 2.17265 4.36632 0
M  V30 29622 H 2749.12 4.28518 3.44459 0
M  V30 29623 H 2750.34 5.24584 4.31264 0
M  V30 29624 H 2748.29 3.41047 5.60378 0
M  V30 29625 H 2748.2 5.14056 5.5433 0
M  V30 29626 H 2749.47 4.37381 6.45227 0
M  V30 29627 N 2753.7 -0.717989 1.40295 0
M  V30 29628 C 2754.93 -1.50493 1.41547 0
M  V30 29629 C 2755.34 -1.89196 0.012821 0
M  V30 29630 O 2754.68 -1.55814 -0.973023 0
M  V30 29631 C 2754.74 -2.81163 2.24026 0
M  V30 29632 C 2754.41 -2.64796 3.72468 0
M  V30 29633 C 2755.4 -2.32214 4.65159 0
M  V30 29634 C 2753.09 -2.81136 4.16255 0
M  V30 29635 C 2755.08 -2.16178 5.99621 0
M  V30 29636 C 2752.77 -2.64717 5.50788 0
M  V30 29637 C 2753.77 -2.32286 6.42287 0
M  V30 29638 O 2753.46 -2.1599 7.74341 0
M  V30 29639 H 2753.19 -0.471082 0.484827 0
M  V30 29640 H 2755.74 -0.893456 1.8495 0
M  V30 29641 H 2753.97 -3.44633 1.75399 0
M  V30 29642 H 2755.66 -3.42867 2.17249 0
M  V30 29643 H 2756.43 -2.19226 4.32626 0
M  V30 29644 H 2752.31 -3.05367 3.45358 0
M  V30 29645 H 2755.85 -1.90787 6.71004 0
M  V30 29646 H 2751.75 -2.77289 5.82907 0
M  V30 29647 H 2752.52 -2.30928 7.85248 0
M  V30 29648 N 2755.18 -1.25752 -0.94996 0
M  V30 29649 C 2756.41 -1.13366 -1.72719 0
M  V30 29650 C 2756.82 0.314809 -1.86563 0
M  V30 29651 O 2756.16 1.228 -1.36623 0
M  V30 29652 C 2756.22 -1.71985 -3.15692 0
M  V30 29653 C 2755.89 -3.21019 -3.25262 0
M  V30 29654 C 2756.88 -4.1795 -3.09214 0
M  V30 29655 C 2754.57 -3.61318 -3.48934 0
M  V30 29656 C 2756.56 -5.53159 -3.16691 0
M  V30 29657 C 2754.25 -4.96663 -3.56046 0
M  V30 29658 C 2755.25 -5.92393 -3.3994 0
M  V30 29659 O 2754.93 -7.25275 -3.46744 0
M  V30 29660 H 2754.67 -0.395982 -0.547881 0
M  V30 29661 H 2757.22 -1.66696 -1.20006 0
M  V30 29662 H 2755.45 -1.13107 -3.69789 0
M  V30 29663 H 2757.14 -1.54631 -3.75292 0
M  V30 29664 H 2757.91 -3.88156 -2.90791 0
M  V30 29665 H 2753.78 -2.87297 -3.60529 0
M  V30 29666 H 2757.33 -6.27859 -3.04037 0
M  V30 29667 H 2753.23 -5.26121 -3.73988 0
M  V30 29668 H 2753.99 -7.33432 -3.63345 0
M  V30 29669 N 2756.66 1.15326 -1.07413 0
M  V30 29670 C 2757.9 1.86127 -0.797682 0
M  V30 29671 C 2758.23 1.82365 0.676265 0
M  V30 29672 O 2757.49 1.24221 1.51221 0
M  V30 29673 C 2757.79 3.34755 -1.25196 0
M  V30 29674 C 2757.45 3.58711 -2.73198 0
M  V30 29675 C 2756.11 3.64959 -3.13622 0
M  V30 29676 C 2758.47 3.68363 -3.68725 0
M  V30 29677 C 2755.79 3.78369 -4.4839 0
M  V30 29678 C 2758.15 3.83298 -5.03255 0
M  V30 29679 C 2756.81 3.87791 -5.433 0
M  V30 29680 H 2756.08 0.681087 -0.291892 0
M  V30 29681 H 2758.73 1.36289 -1.34527 0
M  V30 29682 H 2757.03 3.86803 -0.62378 0
M  V30 29683 H 2758.73 3.87943 -1.01495 0
M  V30 29684 H 2755.32 3.5449 -2.40904 0
M  V30 29685 H 2759.5 3.62836 -3.3862 0
M  V30 29686 H 2754.76 3.80105 -4.78884 0
M  V30 29687 H 2758.93 3.89708 -5.77149 0
M  V30 29688 H 2756.56 3.97935 -6.47728 0
M  V30 29689 N 2758.13 0.858334 1.32176 0
M  V30 29690 C 2759.08 0.294483 2.30728 0
M  V30 29691 C 2760.08 -0.584137 1.5901 0
M  V30 29692 O 2761.28 -0.471531 1.73714 0
M  V30 29693 H 2757.66 0.0765303 0.748096 0
M  V30 29694 H 2759.63 1.13985 2.75772 0
M  V30 29695 C 2758.38 -0.499147 3.44099 0
M  V30 29696 H 2757.7 0.167649 3.99448 0
M  V30 29697 H 2759.14 -0.8592 4.15203 0
M  V30 29698 C 2757.6 -1.68583 2.91687 0
M  V30 29699 O 2758.13 -2.78498 2.89486 0
M  V30 29700 N 2756.34 -1.51411 2.48039 0
M  V30 29701 H 2755.88 -0.619962 2.50028 0
M  V30 29702 H 2755.84 -2.30953 2.13326 0
M  V30 29703 N 2759.61 -1.45036 0.616628 0
M  V30 29704 C 2761.02 -1.85632 0.199391 0
M  V30 29705 C 2761.37 -1.51568 -1.24585 0
M  V30 29706 O 2760.5 -0.946714 -1.94593 0
M  V30 29707 C 2761.09 -3.36934 0.355093 0
M  V30 29708 C 2759.65 -3.76399 -0.00752132 0
M  V30 29709 C 2758.8 -2.68952 0.675303 0
M  V30 29710 H 2761.75 -1.35709 0.822732 0
M  V30 29711 H 2761.77 -3.78283 -0.410135 0
M  V30 29712 H 2761.28 -3.61695 1.40705 0
M  V30 29713 H 2759.39 -3.57254 -1.05831 0
M  V30 29714 H 2759.5 -4.7749 0.39243 0
M  V30 29715 H 2757.86 -2.54453 0.112036 0
M  V30 29716 H 2758.65 -2.96548 1.72957 0
M  V30 29717 N 2761.09 -0.356312 -1.53519 0
M  V30 29718 C 2762.34 0.237338 -2.00299 0
M  V30 29719 C 2762.65 1.50625 -1.24786 0
M  V30 29720 O 2763.86 2.17793 -1.62107 0
M  V30 29721 C 2762.31 0.473482 -3.56772 0
M  V30 29722 C 2761.92 -0.780261 -4.41153 0
M  V30 29723 C 2763.67 1.02529 -4.11932 0
M  V30 29724 C 2761.57 -0.514211 -5.8916 0
M  V30 29725 H 2760.5 0.0924649 -0.748309 0
M  V30 29726 H 2763.15 -0.473619 -1.77283 0
M  V30 29727 H 2761.54 1.24547 -3.75904 0
M  V30 29728 H 2762.71 -1.55433 -4.33794 0
M  V30 29729 H 2761.03 -1.25462 -3.97049 0
M  V30 29730 H 2763.62 1.23951 -5.20135 0
M  V30 29731 H 2763.97 1.98467 -3.65946 0
M  V30 29732 H 2764.5 0.313705 -3.96561 0
M  V30 29733 H 2761.24 -1.44366 -6.39405 0
M  V30 29734 H 2760.76 0.221527 -5.99391 0
M  V30 29735 H 2762.44 -0.136236 -6.46857 0
M  V30 29736 N 2762.57 1.57369 -0.0852427 0
M  V30 29737 C 2763.52 2.14699 0.894818 0
M  V30 29738 C 2764.51 1.0873 1.29901 0
M  V30 29739 O 2765.72 1.2709 1.27468 0
M  V30 29740 H 2762.09 0.686678 0.306557 0
M  V30 29741 H 2764.06 2.95886 0.38649 0
M  V30 29742 C 2762.81 2.73421 2.14794 0
M  V30 29743 H 2762.13 3.54642 1.84579 0
M  V30 29744 H 2763.57 3.17115 2.8145 0
M  V30 29745 C 2762.03 1.68833 2.91543 0
M  V30 29746 O 2762.56 1.12135 3.85731 0
M  V30 29747 N 2760.77 1.39553 2.54898 0
M  V30 29748 H 2760.32 1.85849 1.78376 0
M  V30 29749 H 2760.27 0.698108 3.06551 0
M  V30 29750 N 2764.05 -0.188399 1.5647 0
M  V30 29751 C 2765.29 -0.905954 1.80657 0
M  V30 29752 C 2765.62 -1.83512 0.659423 0
M  V30 29753 O 2764.89 -1.93238 -0.321834 0
M  V30 29754 H 2763.47 -0.337526 0.666397 0
M  V30 29755 H 2766.13 -0.192305 1.93949 0
M  V30 29756 H 2765.22 -1.49308 2.74069 0
M  V30 29757 N 2765.53 -1.50848 -0.456355 0
M  V30 29758 C 2766.77 -1.62252 -1.20494 0
M  V30 29759 C 2767.09 -0.331872 -1.92155 0
M  V30 29760 O 2766.36 0.651411 -1.84752 0
M  V30 29761 H 2764.94 -0.597926 -0.447765 0
M  V30 29762 H 2767.61 -1.87694 -0.525066 0
M  V30 29763 H 2766.7 -2.44092 -1.94487 0
M  V30 29764 N 2767 0.710538 -1.40674 0
M  V30 29765 C 2767.97 1.80633 -1.41083 0
M  V30 29766 C 2768.97 1.57904 -0.303811 0
M  V30 29767 O 2770.16 1.64852 -0.562966 0
M  V30 29768 C 2767.29 3.18797 -1.20754 0
M  V30 29769 H 2768.48 1.81666 -2.38615 0
M  V30 29770 H 2766.03 0.916682 -1.26596 0
M  V30 29771 H 2766.77 3.23411 -0.240021 0
M  V30 29772 H 2766.55 3.36694 -2.00947 0
M  V30 29773 H 2768.04 3.98815 -1.2384 0
M  V30 29774 N 2768.48 1.26254 0.943277 0
M  V30 29775 C 2769.44 1.07693 2.02324 0
M  V30 29776 C 2770.44 0.0259457 1.60779 0
M  V30 29777 O 2771.63 0.269164 1.72108 0
M  V30 29778 C 2768.77 0.637579 3.34885 0
M  V30 29779 H 2769.96 2.03574 2.20222 0
M  V30 29780 H 2767.51 1.08821 1.12195 0
M  V30 29781 H 2768.25 -0.323321 3.22684 0
M  V30 29782 H 2768.03 1.39643 3.66391 0
M  V30 29783 H 2769.52 0.529491 4.1423 0
M  V30 29784 N 2769.96 -1.14755 1.08024 0
M  V30 29785 C 2771.18 -1.90112 0.828983 0
M  V30 29786 C 2771.61 -1.7784 -0.612741 0
M  V30 29787 O 2770.97 -1.11586 -1.42893 0
M  V30 29788 C 2771.02 -3.38216 1.25068 0
M  V30 29789 O 2770.12 -4.10454 0.400191 0
M  V30 29790 H 2769.46 -0.591642 0.301422 0
M  V30 29791 H 2771.99 -1.45281 1.44064 0
M  V30 29792 H 2772 -3.89023 1.22984 0
M  V30 29793 H 2770.68 -3.46467 2.30073 0
M  V30 29794 H 2769.25 -3.69744 0.484117 0
M  V30 29795 N 2771.44 -0.865331 -1.31719 0
M  V30 29796 C 2772.69 -0.470132 -1.96144 0
M  V30 29797 C 2773 0.981644 -1.69184 0
M  V30 29798 O 2774.21 1.48277 -2.27434 0
M  V30 29799 C 2772.66 -0.789794 -3.51127 0
M  V30 29800 C 2772.27 -2.25802 -3.86934 0
M  V30 29801 C 2774.01 -0.462839 -4.21969 0
M  V30 29802 C 2771.92 -2.52034 -5.35007 0
M  V30 29803 H 2770.85 -0.172078 -0.734102 0
M  V30 29804 H 2773.5 -1.05759 -1.49957 0
M  V30 29805 H 2771.88 -0.131641 -3.95781 0
M  V30 29806 H 2773.06 -2.95885 -3.53255 0
M  V30 29807 H 2771.37 -2.55055 -3.29144 0
M  V30 29808 H 2773.97 -0.636113 -5.30903 0
M  V30 29809 H 2774.31 0.596378 -4.12006 0
M  V30 29810 H 2774.85 -1.07734 -3.82934 0
M  V30 29811 H 2771.58 -3.56621 -5.50002 0
M  V30 29812 H 2771.1 -1.8654 -5.70055 0
M  V30 29813 H 2772.78 -2.36526 -6.02216 0
M  V30 29814 N 2772.92 1.44707 -0.624311 0
M  V30 29815 C 2774.16 2.01708 -0.125837 0
M  V30 29816 C 2774.48 1.49308 1.25428 0
M  V30 29817 O 2773.75 0.693956 1.83197 0
M  V30 29818 H 2772.33 0.745731 -0.0435292 0
M  V30 29819 H 2775 1.77295 -0.809477 0
M  V30 29820 H 2774.09 3.11975 -0.0883282 0
M  V30 29821 N 2774.39 0.364449 1.53328 0
M  V30 29822 C 2775.3 -0.490512 2.29415 0
M  V30 29823 C 2776.32 -1.09361 1.35337 0
M  V30 29824 O 2777.5 -1.1048 1.68393 0
M  V30 29825 C 2774.56 -1.61524 3.06775 0
M  V30 29826 C 2773.62 -1.03979 4.16518 0
M  V30 29827 C 2772.85 -2.11091 4.9018 0
M  V30 29828 O 2773.08 -3.32183 4.63693 0
M  V30 29829 O 2772.01 -1.74212 5.76137 0
M  V30 29830 H 2775.84 0.128613 3.03428 0
M  V30 29831 H 2773.42 0.128864 1.48843 0
M  V30 29832 H 2775.3 -2.26918 3.55086 0
M  V30 29833 H 2773.98 -2.21978 2.356 0
M  V30 29834 H 2772.89 -0.34979 3.72461 0
M  V30 29835 H 2774.22 -0.479814 4.89856 0
M  V30 29836 N 2775.87 -1.57322 0.0935872 0
M  V30 29837 C 2777.1 -1.98636 -0.578899 0
M  V30 29838 C 2777.51 -0.972654 -1.61817 0
M  V30 29839 O 2776.87 0.0379317 -1.82461 0
M  V30 29840 C 2776.92 -3.40005 -1.22796 0
M  V30 29841 O 2776.64 -4.37494 -0.230257 0
M  V30 29842 C 2778.14 -3.96314 -1.9862 0
M  V30 29843 H 2775.36 -0.652778 -0.155312 0
M  V30 29844 H 2777.91 -2.03772 0.172429 0
M  V30 29845 H 2776.06 -3.35888 -1.93023 0
M  V30 29846 H 2776.48 -5.19827 -0.698557 0
M  V30 29847 H 2777.95 -4.97387 -2.39396 0
M  V30 29848 H 2778.43 -3.34049 -2.85145 0
M  V30 29849 H 2779.03 -4.03899 -1.33213 0
M  V30 29850 N 2777.35 0.180099 -1.56568 0
M  V30 29851 C 2778.6 0.896394 -1.80687 0
M  V30 29852 C 2778.91 1.8379 -0.669367 0
M  V30 29853 O 2780.12 2.59592 -0.795254 0
M  V30 29854 C 2778.57 1.64444 -3.20134 0
M  V30 29855 C 2778.18 0.747011 -4.41728 0
M  V30 29856 C 2779.93 2.34948 -3.53553 0
M  V30 29857 C 2777.83 1.49479 -5.72198 0
M  V30 29858 H 2776.76 0.338465 -0.673764 0
M  V30 29859 H 2779.41 0.149435 -1.82891 0
M  V30 29860 H 2777.8 2.43584 -3.12223 0
M  V30 29861 H 2778.97 -0.00679229 -4.60799 0
M  V30 29862 H 2777.28 0.15206 -4.16122 0
M  V30 29863 H 2779.88 2.91473 -4.48272 0
M  V30 29864 H 2780.22 3.09863 -2.78012 0
M  V30 29865 H 2780.76 1.62761 -3.62979 0
M  V30 29866 H 2777.5 0.788136 -6.50745 0
M  V30 29867 H 2777.02 2.22214 -5.57118 0
M  V30 29868 H 2778.7 2.04462 -6.13844 0
M  V30 29869 N 2778.83 1.51088 0.448349 0
M  V30 29870 C 2780.08 1.62446 1.19558 0
M  V30 29871 C 2780.39 0.341185 1.92601 0
M  V30 29872 O 2781.6 0.333984 2.69438 0
M  V30 29873 C 2780.05 2.86844 2.17368 0
M  V30 29874 C 2779.66 4.22134 1.50023 0
M  V30 29875 C 2781.4 3.07556 2.92592 0
M  V30 29876 C 2779.31 5.37693 2.46252 0
M  V30 29877 H 2778.24 0.605019 0.449965 0
M  V30 29878 H 2780.89 1.77544 0.463704 0
M  V30 29879 H 2779.27 2.65355 2.93944 0
M  V30 29880 H 2780.45 4.53964 0.790806 0
M  V30 29881 H 2778.76 4.07211 0.86994 0
M  V30 29882 H 2781.36 3.91063 3.64656 0
M  V30 29883 H 2781.7 2.20189 3.53302 0
M  V30 29884 H 2782.24 3.29333 2.23125 0
M  V30 29885 H 2778.97 6.27285 1.90247 0
M  V30 29886 H 2778.49 5.10253 3.1528 0
M  V30 29887 H 2780.17 5.69195 3.07613 0
M  V30 29888 N 2780.31 -0.703068 1.41049 0
M  V30 29889 C 2781.58 -1.45706 1.30496 0
M  V30 29890 C 2781.96 -2.10981 -0.0709521 0
M  V30 29891 O 2781.31 -2.01114 -1.08468 0
M  V30 29892 C 2781.52 -2.4826 2.45291 0
M  V30 29893 C 2782.87 -3.1373 2.86109 0
M  V30 29894 O 2783.89 -2.58583 2.44976 0
M  V30 29895 O 2782.75 -4.13595 3.57214 0
M  V30 29896 H 2779.85 -0.648537 0.513155 0
M  V30 29897 H 2782.39 -0.734181 1.52996 0
M  V30 29898 H 2781.16 -1.98629 3.37138 0
M  V30 29899 H 2780.79 -3.28067 2.24628 0
M  V30 29900 N 2781.78 -1.26752 -0.936569 0
M  V30 29901 C 2783.06 -1.03309 -1.66092 0
M  V30 29902 C 2783.44 0.435021 -2.06569 0
M  V30 29903 O 2782.79 1.41637 -1.79307 0
M  V30 29904 C 2783 -1.98624 -2.86966 0
M  V30 29905 C 2784.35 -2.27495 -3.58512 0
M  V30 29906 O 2785.37 -1.96527 -2.97078 0
M  V30 29907 O 2784.23 -2.80243 -4.69176 0
M  V30 29908 H 2781.32 -0.393171 -0.727561 0
M  V30 29909 H 2783.87 -1.37981 -0.98789 0
M  V30 29910 H 2782.64 -2.97674 -2.5398 0
M  V30 29911 H 2782.27 -1.6446 -3.61993 0
M  V30 29912 N 2783.26 1.1418 -1.08631 0
M  V30 29913 C 2784.21 2.19337 -0.718338 0
M  V30 29914 C 2785.18 1.63431 0.296558 0
M  V30 29915 O 2786.36 1.89949 0.180046 0
M  V30 29916 C 2783.5 3.44831 -0.136264 0
M  V30 29917 C 2782.62 4.14877 -1.20421 0
M  V30 29918 C 2781.75 5.27961 -0.585759 0
M  V30 29919 C 2780.79 5.89843 -1.63559 0
M  V30 29920 N 2779.93 6.94373 -1.03876 0
M  V30 29921 H 2784.77 2.50161 -1.61937 0
M  V30 29922 H 2782.31 1.22842 -0.809211 0
M  V30 29923 H 2784.26 4.16625 0.218948 0
M  V30 29924 H 2782.89 3.14482 0.728065 0
M  V30 29925 H 2781.95 3.41448 -1.67682 0
M  V30 29926 H 2783.26 4.56962 -1.99967 0
M  V30 29927 H 2782.41 6.06436 -0.178924 0
M  V30 29928 H 2781.15 4.87103 0.241334 0
M  V30 29929 H 2780.16 5.10069 -2.05206 0
M  V30 29930 H 2781.38 6.32775 -2.4652 0
M  V30 29931 H 2779.33 6.55587 -0.232803 0
M  V30 29932 H 2779.24 7.34957 -1.77129 0
M  V30 29933 H 2780.51 7.76719 -0.65786 0
M  V30 29934 N 2784.74 0.872304 1.31258 0
M  V30 29935 C 2785.69 0.318938 2.30403 0
M  V30 29936 C 2786.68 -0.567239 1.59621 0
M  V30 29937 O 2787.89 -0.45308 1.74204 0
M  V30 29938 H 2784.26 0.0844605 0.747242 0
M  V30 29939 H 2786.23 1.16903 2.74547 0
M  V30 29940 C 2784.98 -0.462623 3.44609 0
M  V30 29941 H 2784.31 0.210006 3.99248 0
M  V30 29942 H 2785.75 -0.815113 4.16091 0
M  V30 29943 C 2784.21 -1.6548 2.93459 0
M  V30 29944 O 2784.74 -2.75411 2.92423 0
M  V30 29945 N 2782.94 -1.48771 2.49631 0
M  V30 29946 H 2782.49 -0.593408 2.50672 0
M  V30 29947 H 2782.45 -2.28678 2.15763 0
M  V30 29948 N 2786.22 -1.44374 0.631976 0
M  V30 29949 C 2787.45 -2.061 0.143695 0
M  V30 29950 C 2787.86 -1.47308 -1.18731 0
M  V30 29951 O 2787.2 -0.590755 -1.73942 0
M  V30 29952 C 2787.26 -3.59472 -0.044547 0
M  V30 29953 C 2786.93 -4.40734 1.20843 0
M  V30 29954 C 2787.92 -4.7416 2.13232 0
M  V30 29955 C 2785.61 -4.81094 1.44408 0
M  V30 29956 C 2787.6 -5.46832 3.27496 0
M  V30 29957 C 2785.29 -5.53515 2.58969 0
M  V30 29958 C 2786.29 -5.86303 3.50339 0
M  V30 29959 O 2785.97 -6.57249 4.62903 0
M  V30 29960 H 2785.71 -0.671565 0.0773057 0
M  V30 29961 H 2788.26 -1.86218 0.86671 0
M  V30 29962 H 2786.49 -3.77847 -0.822716 0
M  V30 29963 H 2788.18 -4.02962 -0.48749 0
M  V30 29964 H 2788.95 -4.43516 1.96261 0
M  V30 29965 H 2784.82 -4.54993 0.741776 0
M  V30 29966 H 2788.37 -5.72342 3.98836 0
M  V30 29967 H 2784.27 -5.83574 2.75883 0
M  V30 29968 H 2785.03 -6.75718 4.61895 0
M  V30 29969 N 2787.7 -0.372575 -1.53133 0
M  V30 29970 C 2788.93 0.215166 -2.05477 0
M  V30 29971 C 2789.33 1.42433 -1.24537 0
M  V30 29972 O 2788.68 1.81541 -0.280803 0
M  V30 29973 C 2788.74 0.666006 -3.53277 0
M  V30 29974 C 2788.4 -0.427422 -4.54997 0
M  V30 29975 C 2789.4 -1.27953 -5.03909 0
M  V30 29976 C 2787.09 -0.589667 -4.98827 0
M  V30 29977 C 2789.08 -2.27915 -5.95259 0
M  V30 29978 C 2786.77 -1.59265 -5.89981 0
M  V30 29979 C 2787.76 -2.43582 -6.38088 0
M  V30 29980 O 2787.45 -3.42169 -7.27445 0
M  V30 29981 H 2787.18 0.0400872 -0.67481 0
M  V30 29982 H 2789.74 -0.531347 -1.98408 0
M  V30 29983 H 2787.97 1.46423 -3.57907 0
M  V30 29984 H 2789.66 1.17753 -3.88444 0
M  V30 29985 H 2790.42 -1.16541 -4.7079 0
M  V30 29986 H 2786.3 0.0568646 -4.60965 0
M  V30 29987 H 2789.85 -2.93764 -6.32731 0
M  V30 29988 H 2785.74 -1.70722 -6.22515 0
M  V30 29989 H 2786.51 -3.3798 -7.45461 0
M  V30 29990 N 2789.17 1.5727 -0.101929 0
M  V30 29991 C 2790.42 1.94598 0.560163 0
M  V30 29992 C 2790.75 0.98413 1.67765 0
M  V30 29993 O 2790 0.00492633 1.95699 0
M  V30 29994 C 2790.3 3.38429 1.14893 0
M  V30 29995 C 2789.97 4.50635 0.154534 0
M  V30 29996 C 2788.63 4.81053 -0.118945 0
M  V30 29997 C 2790.98 5.18559 -0.524071 0
M  V30 29998 C 2788.31 5.76719 -1.07761 0
M  V30 29999 C 2790.66 6.15254 -1.47125 0
M  V30 30000 C 2789.33 6.44073 -1.75289 0
M  V30 30001 H 2788.6 0.712085 0.204978 0
M  V30 30002 H 2791.24 1.9066 -0.179213 0
M  V30 30003 H 2789.55 3.38979 1.9647 0
M  V30 30004 H 2791.25 3.64616 1.66902 0
M  V30 30005 H 2787.84 4.26931 0.377873 0
M  V30 30006 H 2792.02 4.95229 -0.325938 0
M  V30 30007 H 2787.28 5.9736 -1.30274 0
M  V30 30008 H 2791.45 6.66977 -2.00285 0
M  V30 30009 H 2789.08 7.1801 -2.4973 0
M  V30 30010 N 2790.65 -0.171793 1.56661 0
M  V30 30011 C 2791.6 -1.23203 1.97291 0
M  V30 30012 C 2792.59 -1.45853 0.861591 0
M  V30 30013 O 2793.8 -1.46438 1.0467 0
M  V30 30014 H 2790.18 -0.414139 0.627689 0
M  V30 30015 H 2792.15 -0.862492 2.85664 0
M  V30 30016 C 2790.9 -2.56396 2.34854 0
M  V30 30017 H 2790.22 -2.39791 3.19907 0
M  V30 30018 H 2791.66 -3.29271 2.67127 0
M  V30 30019 C 2790.12 -3.15116 1.19177 0
M  V30 30020 O 2790.65 -3.98832 0.479183 0
M  V30 30021 N 2788.85 -2.74199 0.962463 0
M  V30 30022 H 2788.4 -2.06223 1.54369 0
M  V30 30023 H 2788.36 -3.13823 0.190327 0
M  V30 30024 N 2792.13 -1.51324 -0.44033 0
M  V30 30025 C 2793.06 -1.68612 -1.55251 0
M  V30 30026 C 2794.08 -0.566839 -1.52613 0
M  V30 30027 O 2795.26 -0.841059 -1.57443 0
M  V30 30028 C 2792.36 -1.68284 -2.94166 0
M  V30 30029 C 2791.54 -2.96747 -3.21341 0
M  V30 30030 C 2790.6 -2.88647 -4.39965 0
M  V30 30031 O 2789.62 -3.62593 -4.38765 0
M  V30 30032 N 2790.82 -2.04294 -5.43364 0
M  V30 30033 H 2793.59 -2.64553 -1.40826 0
M  V30 30034 H 2791.15 -1.49172 -0.629225 0
M  V30 30035 H 2793.14 -1.60437 -3.7154 0
M  V30 30036 H 2791.71 -0.799494 -3.02203 0
M  V30 30037 H 2790.93 -3.18486 -2.32294 0
M  V30 30038 H 2792.22 -3.81791 -3.36323 0
M  V30 30039 H 2791.62 -1.43587 -5.47174 0
M  V30 30040 H 2790.18 -2.02329 -6.19602 0
M  V30 30041 N 2793.61 0.695578 -1.41419 0
M  V30 30042 C 2794.83 1.4894 -1.44332 0
M  V30 30043 C 2795.26 1.88033 -0.0501909 0
M  V30 30044 O 2794.62 1.54628 0.946571 0
M  V30 30045 C 2794.66 2.72833 -2.35785 0
M  V30 30046 O 2793.77 3.70318 -1.81488 0
M  V30 30047 H 2793.11 0.448271 -0.489846 0
M  V30 30048 H 2795.64 0.854982 -1.8588 0
M  V30 30049 H 2795.65 3.21141 -2.51659 0
M  V30 30050 H 2794.32 2.43716 -3.37009 0
M  V30 30051 H 2792.9 3.29252 -1.75064 0
M  V30 30052 N 2795.09 1.27247 0.929833 0
M  V30 30053 C 2796.34 1.13236 1.67398 0
M  V30 30054 C 2796.66 -0.32271 1.92311 0
M  V30 30055 O 2795.93 -1.2261 1.52786 0
M  V30 30056 H 2794.51 0.416063 0.620404 0
M  V30 30057 H 2797.17 1.59743 1.1166 0
M  V30 30058 H 2796.26 1.6598 2.64305 0
M  V30 30059 N 2796.57 -1.13603 1.09235 0
M  V30 30060 C 2797.81 -1.85108 0.828417 0
M  V30 30061 C 2798.14 -1.83199 -0.644337 0
M  V30 30062 O 2797.42 -1.26869 -1.47426 0
M  V30 30063 C 2797.7 -3.3336 1.36172 0
M  V30 30064 C 2797.56 -3.43794 2.90044 0
M  V30 30065 C 2798.87 -4.2873 0.993895 0
M  V30 30066 H 2795.99 -0.672103 0.302402 0
M  V30 30067 H 2798.64 -1.33352 1.35341 0
M  V30 30068 H 2796.79 -3.77567 0.915166 0
M  V30 30069 H 2798.46 -3.08313 3.43134 0
M  V30 30070 H 2796.7 -2.84733 3.27276 0
M  V30 30071 H 2797.37 -4.48039 3.22436 0
M  V30 30072 H 2799.85 -3.92585 1.379 0
M  V30 30073 H 2798.72 -5.309 1.39413 0
M  V30 30074 H 2798.98 -4.41991 -0.0981429 0
M  V30 30075 N 2798.04 -0.879253 -1.30793 0
M  V30 30076 C 2798.97 -0.357836 -2.30742 0
M  V30 30077 C 2799.95 0.556255 -1.60748 0
M  V30 30078 O 2801.14 0.471317 -1.88394 0
M  V30 30079 C 2798.27 0.433494 -3.44584 0
M  V30 30080 C 2797.22 -0.388326 -4.26235 0
M  V30 30081 C 2796.55 0.529259 -5.32074 0
M  V30 30082 C 2797.85 -1.62738 -4.963 0
M  V30 30083 H 2799.54 -1.19304 -2.74603 0
M  V30 30084 H 2797.09 -0.575127 -1.32016 0
M  V30 30085 H 2799.04 0.808861 -4.13564 0
M  V30 30086 H 2797.77 1.30229 -2.99513 0
M  V30 30087 H 2796.43 -0.745758 -3.58935 0
M  V30 30088 H 2796.07 1.3956 -4.83251 0
M  V30 30089 H 2795.77 -0.0167774 -5.87598 0
M  V30 30090 H 2797.3 0.901267 -6.03912 0
M  V30 30091 H 2798.71 -1.32293 -5.57827 0
M  V30 30092 H 2797.11 -2.11318 -5.61662 0
M  V30 30093 H 2798.18 -2.37502 -4.22754 0
M  V30 30094 N 2799.52 1.44037 -0.639624 0
M  V30 30095 C 2800.45 2.28987 0.0987281 0
M  V30 30096 C 2801.47 1.41757 0.800555 0
M  V30 30097 O 2802.66 1.65827 0.660582 0
M  V30 30098 C 2799.76 3.18343 1.16236 0
M  V30 30099 C 2798.93 4.34037 0.541371 0
M  V30 30100 C 2797.99 5.04365 1.50008 0
M  V30 30101 O 2797.01 5.60096 1.01393 0
M  V30 30102 N 2798.22 5.06603 2.83432 0
M  V30 30103 H 2800.98 2.92996 -0.630356 0
M  V30 30104 H 2798.54 1.54577 -0.481403 0
M  V30 30105 H 2800.53 3.62256 1.80423 0
M  V30 30106 H 2799.1 2.56027 1.79357 0
M  V30 30107 H 2798.32 3.93209 -0.279299 0
M  V30 30108 H 2799.61 5.08687 0.10729 0
M  V30 30109 H 2799.01 4.62672 3.25502 0
M  V30 30110 H 2797.57 5.54278 3.42957 0
M  V30 30111 N 2801 0.380691 1.52933 0
M  V30 30112 C 2802.23 -0.204563 2.05886 0
M  V30 30113 C 2802.64 -1.41221 1.25308 0
M  V30 30114 O 2802 -1.80058 0.297536 0
M  V30 30115 C 2802.05 -0.583186 3.56765 0
M  V30 30116 O 2801.77 0.576475 4.34291 0
M  V30 30117 C 2803.27 -1.22522 4.26032 0
M  V30 30118 H 2800.49 -0.0328874 0.670194 0
M  V30 30119 H 2803.04 0.543431 1.97147 0
M  V30 30120 H 2801.19 -1.28108 3.65605 0
M  V30 30121 H 2801.61 0.267211 5.23819 0
M  V30 30122 H 2803.08 -1.44058 5.32871 0
M  V30 30123 H 2803.56 -2.19004 3.80702 0
M  V30 30124 H 2804.16 -0.568333 4.21486 0
M  V30 30125 N 2802.48 -1.57214 0.110268 0
M  V30 30126 C 2803.73 -1.94507 -0.548749 0
M  V30 30127 C 2804.05 -0.993889 -1.6777 0
M  V30 30128 O 2803.32 -0.0486185 -1.9584 0
M  V30 30129 H 2801.9 -0.718119 -0.205702 0
M  V30 30130 H 2804.56 -1.94093 0.177161 0
M  V30 30131 H 2803.65 -2.97321 -0.949043 0
M  V30 30132 N 2803.96 0.163482 -1.5675 0
M  V30 30133 C 2805.2 0.880136 -1.82706 0
M  V30 30134 C 2805.53 1.81554 -0.689342 0
M  V30 30135 O 2804.81 1.92043 0.30819 0
M  V30 30136 C 2805.09 1.66899 -3.19087 0
M  V30 30137 C 2804.95 0.756191 -4.43398 0
M  V30 30138 C 2806.26 2.63503 -3.52497 0
M  V30 30139 H 2803.38 0.318524 -0.664614 0
M  V30 30140 H 2806.03 0.146003 -1.89438 0
M  V30 30141 H 2804.18 2.29485 -3.13479 0
M  V30 30142 H 2805.85 0.142609 -4.6108 0
M  V30 30143 H 2804.09 0.0647181 -4.33752 0
M  V30 30144 H 2804.76 1.34383 -5.35392 0
M  V30 30145 H 2807.24 2.11041 -3.5861 0
M  V30 30146 H 2806.11 3.15759 -4.48985 0
M  V30 30147 H 2806.37 3.44077 -2.77603 0
M  V30 30148 N 2805.43 1.51555 0.432299 0
M  V30 30149 C 2806.68 1.64473 1.18131 0
M  V30 30150 C 2807.01 0.363382 1.91075 0
M  V30 30151 O 2806.26 -0.652757 1.84493 0
M  V30 30152 C 2806.56 2.80168 2.21902 0
M  V30 30153 C 2806.23 4.19257 1.65934 0
M  V30 30154 C 2804.89 4.57094 1.50393 0
M  V30 30155 C 2807.24 5.0603 1.24834 0
M  V30 30156 C 2804.57 5.79405 0.922341 0
M  V30 30157 C 2806.92 6.28924 0.68102 0
M  V30 30158 C 2805.59 6.65529 0.512556 0
M  V30 30159 H 2804.86 0.601849 0.432272 0
M  V30 30160 H 2807.5 1.856 0.471669 0
M  V30 30161 H 2805.81 2.53282 2.98924 0
M  V30 30162 H 2807.51 2.87362 2.79686 0
M  V30 30163 H 2804.1 3.89428 1.79007 0
M  V30 30164 H 2808.28 4.774 1.35658 0
M  V30 30165 H 2803.54 6.06409 0.779627 0
M  V30 30166 H 2807.71 6.95499 0.354058 0
M  V30 30167 H 2805.34 7.60176 0.0597748 0
M  V30 30168 N 2806.91 -0.688069 1.41786 0
M  V30 30169 C 2808.14 -1.48172 1.4512 0
M  V30 30170 C 2808.56 -1.88004 0.0601621 0
M  V30 30171 O 2807.92 -1.55128 -0.938357 0
M  V30 30172 C 2807.97 -2.71579 2.37229 0
M  V30 30173 O 2807.07 -3.69351 1.8345 0
M  V30 30174 H 2806.41 -0.445667 0.492216 0
M  V30 30175 H 2808.94 -0.845112 1.8633 0
M  V30 30176 H 2808.95 -3.19802 2.53359 0
M  V30 30177 H 2807.63 -2.41926 3.38297 0
M  V30 30178 H 2806.2 -3.28319 1.76808 0
M  V30 30179 N 2808.39 -1.27739 -0.923072 0
M  V30 30180 C 2809.62 -1.17174 -1.70523 0
M  V30 30181 C 2810.03 0.270848 -1.86847 0
M  V30 30182 O 2809.39 1.18399 -1.38881 0
M  V30 30183 C 2809.44 -1.85564 -3.10239 0
M  V30 30184 O 2809.16 -3.24187 -2.94677 0
M  V30 30185 C 2810.66 -1.81183 -4.04583 0
M  V30 30186 H 2807.88 -0.407172 -0.53334 0
M  V30 30187 H 2810.43 -1.68694 -1.15596 0
M  V30 30188 H 2808.58 -1.37937 -3.62011 0
M  V30 30189 H 2809 -3.58304 -3.83039 0
M  V30 30190 H 2810.47 -2.33642 -5.00115 0
M  V30 30191 H 2810.95 -0.782175 -4.32179 0
M  V30 30192 H 2811.55 -2.28447 -3.58737 0
M  V30 30193 N 2809.87 1.13022 -1.09836 0
M  V30 30194 C 2810.78 2.22161 -0.75377 0
M  V30 30195 C 2811.79 1.72251 0.246074 0
M  V30 30196 O 2812.97 2.01215 0.0863697 0
M  V30 30197 C 2810.04 3.46211 -0.184019 0
M  V30 30198 C 2809.1 4.10991 -1.24035 0
M  V30 30199 C 2808.33 5.2912 -0.69769 0
M  V30 30200 O 2808.55 5.68394 0.477992 0
M  V30 30201 O 2807.49 5.84056 -1.4547 0
M  V30 30202 H 2811.31 2.54017 -1.66461 0
M  V30 30203 H 2808.9 1.21236 -0.873047 0
M  V30 30204 H 2810.78 4.21199 0.130183 0
M  V30 30205 H 2809.45 3.16046 0.699767 0
M  V30 30206 H 2808.36 3.37811 -1.60731 0
M  V30 30207 H 2809.69 4.45297 -2.09693 0
M  V30 30208 N 2811.35 0.886177 1.30325 0
M  V30 30209 C 2812.62 0.425251 1.90921 0
M  V30 30210 C 2813 -1.09409 1.80535 0
M  V30 30211 O 2812.35 -1.92994 1.22334 0
M  V30 30212 C 2812.56 0.924697 3.36527 0
M  V30 30213 C 2813.91 0.960378 4.13596 0
M  V30 30214 O 2814.93 0.871443 3.45376 0
M  V30 30215 O 2813.79 1.09193 5.3548 0
M  V30 30216 H 2810.89 0.130252 0.816678 0
M  V30 30217 H 2813.43 0.975156 1.38884 0
M  V30 30218 H 2812.2 1.96855 3.38177 0
M  V30 30219 H 2811.83 0.354025 3.96021 0
M  V30 30220 N 2812.82 -1.43695 0.647253 0
M  V30 30221 C 2814.07 -2.01482 0.157911 0
M  V30 30222 C 2814.39 -1.51285 -1.23036 0
M  V30 30223 O 2813.66 -0.723014 -1.8207 0
M  V30 30224 H 2812.24 -0.744944 0.0553876 0
M  V30 30225 H 2814.91 -1.75985 0.837581 0
M  V30 30226 H 2814 -3.11795 0.13795 0
M  V30 30227 N 2814.3 -0.388796 -1.52729 0
M  V30 30228 C 2815.55 0.193555 -2.01573 0
M  V30 30229 C 2815.88 1.46857 -1.27528 0
M  V30 30230 O 2815.13 1.92286 -0.36396 0
M  V30 30231 C 2815.43 0.508383 -3.53766 0
M  V30 30232 C 2815.1 -0.675025 -4.45819 0
M  V30 30233 C 2813.76 -0.999679 -4.70701 0
M  V30 30234 C 2816.11 -1.46675 -5.00136 0
M  V30 30235 C 2813.44 -2.11761 -5.47151 0
M  V30 30236 C 2815.79 -2.57528 -5.77808 0
M  V30 30237 C 2814.46 -2.90502 -6.0097 0
M  V30 30238 H 2813.73 0.0708268 -0.737607 0
M  V30 30239 H 2816.37 -0.526039 -1.84133 0
M  V30 30240 H 2814.68 1.30929 -3.69276 0
M  V30 30241 H 2816.37 0.971596 -3.89051 0
M  V30 30242 H 2812.96 -0.411981 -4.26615 0
M  V30 30243 H 2817.15 -1.22917 -4.80838 0
M  V30 30244 H 2812.4 -2.3768 -5.6331 0
M  V30 30245 H 2816.58 -3.19277 -6.18898 0
M  V30 30246 H 2814.21 -3.77247 -6.59991 0
M  V30 30247 N 2815.78 1.57153 -0.118604 0
M  V30 30248 C 2816.73 2.15292 0.831751 0
M  V30 30249 C 2817.7 1.07781 1.26383 0
M  V30 30250 O 2818.88 1.35686 1.34141 0
M  V30 30251 C 2816.02 2.7563 2.07659 0
M  V30 30252 C 2815.14 3.97447 1.69292 0
M  V30 30253 C 2814.27 4.45874 2.88739 0
M  V30 30254 C 2813.31 5.60223 2.46609 0
M  V30 30255 N 2812.45 6.03395 3.58969 0
M  V30 30256 H 2817.29 2.96177 0.329131 0
M  V30 30257 H 2814.82 1.46325 0.150766 0
M  V30 30258 H 2816.78 3.08743 2.80595 0
M  V30 30259 H 2815.41 1.97435 2.5538 0
M  V30 30260 H 2814.46 3.70497 0.862309 0
M  V30 30261 H 2815.78 4.80372 1.3433 0
M  V30 30262 H 2814.93 4.80894 3.699 0
M  V30 30263 H 2813.67 3.61898 3.26927 0
M  V30 30264 H 2812.67 5.24808 1.6388 0
M  V30 30265 H 2813.9 6.45965 2.09539 0
M  V30 30266 H 2811.84 5.22361 3.96831 0
M  V30 30267 H 2811.76 6.81174 3.2793 0
M  V30 30268 H 2813.03 6.43053 4.40571 0
M  V30 30269 N 2817.26 -0.155167 1.56834 0
M  V30 30270 C 2818.49 -0.883011 1.86779 0
M  V30 30271 C 2818.9 -1.7562 0.703855 0
M  V30 30272 O 2818.24 -1.80605 -0.335779 0
M  V30 30273 C 2818.3 -1.79755 3.11333 0
M  V30 30274 C 2817.97 -1.10235 4.43506 0
M  V30 30275 C 2818.96 -0.460113 5.1786 0
M  V30 30276 C 2816.65 -1.09429 4.90235 0
M  V30 30277 C 2818.64 0.180894 6.37143 0
M  V30 30278 C 2816.33 -0.449462 6.09445 0
M  V30 30279 C 2817.33 0.187008 6.82744 0
M  V30 30280 O 2817.01 0.821626 7.9969 0
M  V30 30281 H 2816.75 -0.261138 0.623524 0
M  V30 30282 H 2819.3 -0.155168 2.04813 0
M  V30 30283 H 2817.53 -2.56613 2.89287 0
M  V30 30284 H 2819.22 -2.39664 3.27591 0
M  V30 30285 H 2819.99 -0.458204 4.82831 0
M  V30 30286 H 2815.86 -1.5791 4.33111 0
M  V30 30287 H 2819.41 0.678276 6.94295 0
M  V30 30288 H 2815.31 -0.44901 6.43936 0
M  V30 30289 H 2816.07 0.72248 8.15305 0
M  V30 30290 N 2818.74 -1.51782 -0.424256 0
M  V30 30291 C 2819.98 -1.65097 -1.17257 0
M  V30 30292 C 2820.31 -0.37351 -1.9088 0
M  V30 30293 O 2819.57 0.642964 -1.84836 0
M  V30 30294 C 2819.87 -2.81341 -2.20413 0
M  V30 30295 C 2819.53 -4.20132 -1.63708 0
M  V30 30296 C 2818.19 -4.57886 -1.47967 0
M  V30 30297 C 2820.55 -5.06685 -1.22148 0
M  V30 30298 C 2817.87 -5.79886 -0.891601 0
M  V30 30299 C 2820.23 -6.29276 -0.647657 0
M  V30 30300 C 2818.89 -6.65792 -0.477254 0
M  V30 30301 H 2818.16 -0.604133 -0.429074 0
M  V30 30302 H 2820.81 -1.85848 -0.461819 0
M  V30 30303 H 2819.11 -2.54864 -2.97576 0
M  V30 30304 H 2820.81 -2.88841 -2.78158 0
M  V30 30305 H 2817.4 -3.90372 -1.76939 0
M  V30 30306 H 2821.58 -4.78112 -1.33125 0
M  V30 30307 H 2816.84 -6.06814 -0.747456 0
M  V30 30308 H 2821.01 -6.95677 -0.317169 0
M  V30 30309 H 2818.64 -7.60198 -0.0194599 0
M  V30 30310 N 2820.21 0.68054 -1.42149 0
M  V30 30311 C 2821.18 1.77599 -1.44883 0
M  V30 30312 C 2822.18 1.57224 -0.337236 0
M  V30 30313 O 2823.37 1.63621 -0.597807 0
M  V30 30314 C 2820.5 3.16164 -1.27489 0
M  V30 30315 H 2821.69 1.76564 -2.42415 0
M  V30 30316 H 2819.25 0.889622 -1.28512 0
M  V30 30317 H 2819.98 3.22829 -0.308567 0
M  V30 30318 H 2819.77 3.32356 -2.08043 0
M  V30 30319 H 2821.26 3.96098 -1.32272 0
M  V30 30320 N 2821.69 1.28226 0.916285 0
M  V30 30321 C 2823.1 1.13782 1.48022 0
M  V30 30322 C 2823.45 -0.273105 1.9429 0
M  V30 30323 O 2822.58 -1.16713 1.82228 0
M  V30 30324 C 2823.17 2.05939 2.69025 0
M  V30 30325 C 2821.73 1.95567 3.21606 0
M  V30 30326 C 2820.88 1.97828 1.94318 0
M  V30 30327 H 2823.83 1.40953 0.729248 0
M  V30 30328 H 2823.85 1.6219 3.44201 0
M  V30 30329 H 2823.36 3.0862 2.3532 0
M  V30 30330 H 2821.47 0.959139 3.60043 0
M  V30 30331 H 2821.58 2.82394 3.87027 0
M  V30 30332 H 2819.94 1.42202 2.11307 0
M  V30 30333 H 2820.73 3.02183 1.62911 0
M  V30 30334 N 2823.17 -1.12438 1.10433 0
M  V30 30335 C 2824.13 -2.16353 0.75658 0
M  V30 30336 C 2825.13 -1.59302 -0.218962 0
M  V30 30337 O 2826.32 -1.74199 0.0041903 0
M  V30 30338 C 2823.46 -3.40686 0.120672 0
M  V30 30339 H 2824.65 -2.48629 1.677 0
M  V30 30340 H 2822.2 -1.27444 0.904854 0
M  V30 30341 H 2822.94 -3.14009 -0.810481 0
M  V30 30342 H 2822.72 -3.83371 0.82276 0
M  V30 30343 H 2824.21 -4.17463 -0.106871 0
M  V30 30344 N 2824.65 -0.893076 -1.29853 0
M  V30 30345 C 2825.6 -0.355553 -2.29866 0
M  V30 30346 C 2826.59 0.541773 -1.60503 0
M  V30 30347 O 2827.8 0.425308 -1.74903 0
M  V30 30348 H 2824.17 -0.0963378 -0.745804 0
M  V30 30349 H 2826.14 -1.21256 -2.72653 0
M  V30 30350 C 2824.89 0.40774 -3.45301 0
M  V30 30351 H 2824.22 -0.273496 -3.98863 0
M  V30 30352 H 2825.66 0.748814 -4.17335 0
M  V30 30353 C 2824.11 1.6079 -2.96054 0
M  V30 30354 O 2824.64 2.70724 -2.96768 0
M  V30 30355 N 2822.85 1.44781 -2.51966 0
M  V30 30356 H 2822.4 0.553454 -2.51584 0
M  V30 30357 H 2822.36 2.25216 -2.19374 0
M  V30 30358 N 2826.13 1.4335 -0.654865 0
M  V30 30359 C 2827.36 2.06144 -0.176721 0
M  V30 30360 C 2827.77 1.49095 1.15828 0
M  V30 30361 O 2827.13 0.622898 1.71541 0
M  V30 30362 C 2827.18 3.61408 -0.0813961 0
M  V30 30363 O 2826.9 4.16337 -1.36363 0
M  V30 30364 C 2828.4 4.41281 0.422628 0
M  V30 30365 H 2825.62 0.664848 -0.0906546 0
M  V30 30366 H 2828.16 1.83827 -0.895977 0
M  V30 30367 H 2826.32 3.82905 0.588428 0
M  V30 30368 H 2826.73 5.1002 -1.2239 0
M  V30 30369 H 2828.21 5.50257 0.438278 0
M  V30 30370 H 2828.68 4.14425 1.45424 0
M  V30 30371 H 2829.29 4.24757 -0.214762 0
M  V30 30372 N 2827.61 0.39689 1.52521 0
M  V30 30373 C 2828.54 -0.425901 2.29583 0
M  V30 30374 C 2829.52 -1.05686 1.33283 0
M  V30 30375 O 2830.7 -1.0682 1.62182 0
M  V30 30376 C 2827.83 -1.54938 3.10824 0
M  V30 30377 C 2826.79 -1.04406 4.1507 0
M  V30 30378 C 2826.11 -2.26019 4.84582 0
M  V30 30379 C 2827.41 -0.106675 5.22191 0
M  V30 30380 H 2829.11 0.217097 2.98612 0
M  V30 30381 H 2826.65 0.105852 1.4361 0
M  V30 30382 H 2828.6 -2.13186 3.63496 0
M  V30 30383 H 2827.33 -2.22007 2.39542 0
M  V30 30384 H 2825.99 -0.484054 3.6339 0
M  V30 30385 H 2825.64 -2.91616 4.09841 0
M  V30 30386 H 2825.34 -1.92866 5.55046 0
M  V30 30387 H 2826.86 -2.84897 5.40061 0
M  V30 30388 H 2828.27 -0.597584 5.70177 0
M  V30 30389 H 2826.67 0.135458 5.99947 0
M  V30 30390 H 2827.74 0.842218 4.7753 0
M  V30 30391 N 2829.08 -1.57088 0.126936 0
M  V30 30392 C 2830.36 -1.87015 -0.57312 0
M  V30 30393 C 2830.74 -1.02949 -1.84295 0
M  V30 30394 O 2830.09 -0.110613 -2.28232 0
M  V30 30395 C 2830.3 -3.38291 -0.857924 0
M  V30 30396 C 2831.65 -4.07068 -1.20752 0
M  V30 30397 O 2832.67 -3.43355 -0.947932 0
M  V30 30398 O 2831.53 -5.19548 -1.69507 0
M  V30 30399 H 2828.62 -0.774461 -0.290068 0
M  V30 30400 H 2831.17 -1.68925 0.162038 0
M  V30 30401 H 2829.94 -3.91278 0.0415974 0
M  V30 30402 H 2829.56 -3.6184 -1.64796 0
M  V30 30403 N 2830.56 0.146848 -1.56914 0
M  V30 30404 C 2831.47 1.20075 -2.01542 0
M  V30 30405 C 2832.49 1.47007 -0.930864 0
M  V30 30406 O 2833.66 1.58673 -1.24035 0
M  V30 30407 C 2830.73 2.51424 -2.38719 0
M  V30 30408 C 2829.79 2.32138 -3.61124 0
M  V30 30409 C 2829.02 3.57224 -3.96518 0
M  V30 30410 O 2829.25 4.63412 -3.32574 0
M  V30 30411 O 2828.18 3.49878 -4.89764 0
M  V30 30412 H 2832.01 0.851872 -2.91508 0
M  V30 30413 H 2829.59 0.355582 -1.45107 0
M  V30 30414 H 2831.47 3.28863 -2.63491 0
M  V30 30415 H 2830.15 2.85842 -1.51908 0
M  V30 30416 H 2829.05 1.5265 -3.41539 0
M  V30 30417 H 2830.39 2.02636 -4.48553 0
M  V30 30418 N 2832.04 1.52005 0.4162 0
M  V30 30419 C 2832.99 1.75443 1.52717 0
M  V30 30420 C 2833.98 0.621316 1.57594 0
M  V30 30421 O 2835.19 0.8032 1.61086 0
M  V30 30422 H 2831.56 0.554691 0.507762 0
M  V30 30423 H 2833.53 2.6853 1.30131 0
M  V30 30424 C 2832.28 1.91576 2.90162 0
M  V30 30425 H 2831.61 2.78183 2.87149 0
M  V30 30426 H 2833.05 2.11978 3.67207 0
M  V30 30427 C 2831.5 0.681 3.29945 0
M  V30 30428 O 2832.03 -0.154457 4.01403 0
M  V30 30429 N 2830.24 0.518944 2.85929 0
M  V30 30430 H 2829.79 1.1999 2.27948 0
M  V30 30431 H 2829.75 -0.30593 3.12908 0
M  V30 30432 N 2833.52 -0.672992 1.42508 0
M  V30 30433 C 2834.45 -1.79848 1.48919 0
M  V30 30434 C 2835.43 -1.66552 0.345595 0
M  V30 30435 O 2836.61 -1.85946 0.560148 0
M  V30 30436 C 2833.74 -3.18156 1.39263 0
M  V30 30437 C 2832.7 -3.46189 2.51668 0
M  V30 30438 C 2832.02 -4.8409 2.2707 0
M  V30 30439 C 2833.32 -3.42902 3.93974 0
M  V30 30440 H 2835.02 -1.74741 2.43117 0
M  V30 30441 H 2832.56 -0.839267 1.17014 0
M  V30 30442 H 2834.52 -3.96627 1.42356 0
M  V30 30443 H 2833.24 -3.23945 0.415599 0
M  V30 30444 H 2831.9 -2.7008 2.47896 0
M  V30 30445 H 2831.55 -4.86532 1.27656 0
M  V30 30446 H 2831.25 -5.03809 3.02407 0
M  V30 30447 H 2832.77 -5.64843 2.31915 0
M  V30 30448 H 2834.19 -4.1134 3.9934 0
M  V30 30449 H 2832.58 -3.74157 4.69176 0
M  V30 30450 H 2833.65 -2.41442 4.20516 0
M  V30 30451 N 2835 -1.2871 -0.909472 0
M  V30 30452 C 2835.91 -1.14865 -2.04556 0
M  V30 30453 C 2836.92 -0.0741927 -1.73842 0
M  V30 30454 O 2838.1 -0.284335 -1.99383 0
M  V30 30455 C 2835.16 -0.816207 -3.36955 0
M  V30 30456 C 2834.22 -1.97347 -3.81251 0
M  V30 30457 C 2833.46 -1.6568 -5.07332 0
M  V30 30458 O 2833.68 -0.573152 -5.67513 0
M  V30 30459 O 2832.61 -2.50177 -5.47444 0
M  V30 30460 H 2836.44 -2.10247 -2.19157 0
M  V30 30461 H 2834.02 -1.0807 -1.03157 0
M  V30 30462 H 2835.91 -0.644946 -4.16435 0
M  V30 30463 H 2834.58 0.107926 -3.2352 0
M  V30 30464 H 2833.49 -2.19991 -3.0258 0
M  V30 30465 H 2834.82 -2.87846 -3.99256 0
M  V30 30466 N 2836.47 1.1185 -1.11028 0
M  V30 30467 C 2837.72 1.83133 -0.854801 0
M  V30 30468 C 2838.04 1.84836 0.621342 0
M  V30 30469 O 2837.31 1.31587 1.45127 0
M  V30 30470 H 2835.89 0.678151 -0.313241 0
M  V30 30471 H 2838.55 1.35409 -1.4018 0
M  V30 30472 H 2837.65 2.87133 -1.22316 0
M  V30 30473 N 2837.95 0.89995 1.29378 0
M  V30 30474 C 2838.86 0.382478 2.31461 0
M  V30 30475 C 2839.88 -0.5229 1.65957 0
M  V30 30476 O 2841.05 -0.412419 1.97132 0
M  V30 30477 C 2838.12 -0.381411 3.44596 0
M  V30 30478 C 2837.18 0.555519 4.25691 0
M  V30 30479 C 2836.41 -0.172008 5.33423 0
M  V30 30480 O 2836.64 -1.39591 5.53056 0
M  V30 30481 O 2835.57 0.485597 5.99938 0
M  V30 30482 H 2839.4 1.22939 2.77704 0
M  V30 30483 H 2836.98 0.664282 1.33819 0
M  V30 30484 H 2838.86 -0.813369 4.13476 0
M  V30 30485 H 2837.54 -1.20438 3.0046 0
M  V30 30486 H 2836.44 1.0366 3.59452 0
M  V30 30487 H 2837.78 1.34491 4.73469 0
M  V30 30488 N 2839.43 -1.43001 0.662458 0
M  V30 30489 C 2840.39 -2.29196 -0.0141613 0
M  V30 30490 C 2841.39 -1.4269 -0.741369 0
M  V30 30491 O 2842.58 -1.64217 -0.581228 0
M  V30 30492 C 2839.72 -3.24943 -1.03078 0
M  V30 30493 H 2840.91 -2.90516 0.744351 0
M  V30 30494 H 2838.46 -1.50435 0.424159 0
M  V30 30495 H 2839.2 -2.68536 -1.81821 0
M  V30 30496 H 2838.98 -3.88731 -0.512877 0
M  V30 30497 H 2840.47 -3.89614 -1.50301 0
M  V30 30498 N 2840.91 -0.404973 -1.52308 0
M  V30 30499 C 2842.16 0.173494 -2.00952 0
M  V30 30500 C 2842.47 1.46578 -1.29515 0
M  V30 30501 O 2843.68 2.12525 -1.68954 0
M  V30 30502 C 2842.13 0.359738 -3.58098 0
M  V30 30503 C 2841.74 -0.920215 -4.38447 0
M  V30 30504 C 2843.48 0.893721 -4.14985 0
M  V30 30505 C 2841.39 -0.701388 -5.87226 0
M  V30 30506 H 2840.32 0.0686112 -0.750872 0
M  V30 30507 H 2842.97 -0.52978 -1.75686 0
M  V30 30508 H 2841.35 1.12524 -3.79677 0
M  V30 30509 H 2842.53 -1.69155 -4.2863 0
M  V30 30510 H 2840.84 -1.38031 -3.92857 0
M  V30 30511 H 2843.44 1.0734 -5.23815 0
M  V30 30512 H 2843.78 1.86724 -3.72075 0
M  V30 30513 H 2844.32 0.187383 -3.97358 0
M  V30 30514 H 2841.06 -1.64635 -6.34488 0
M  V30 30515 H 2840.58 0.0307234 -5.99792 0
M  V30 30516 H 2842.25 -0.341959 -6.46096 0
M  V30 30517 N 2842.39 1.57018 -0.135265 0
M  V30 30518 C 2843.66 1.87317 0.563194 0
M  V30 30519 C 2844.04 1.03925 1.83747 0
M  V30 30520 O 2843.39 0.122715 2.2817 0
M  V30 30521 C 2843.6 3.38741 0.839972 0
M  V30 30522 C 2844.95 4.07702 1.18591 0
M  V30 30523 O 2845.97 3.43853 0.92971 0
M  V30 30524 O 2844.83 5.20439 1.66749 0
M  V30 30525 H 2841.93 0.775988 0.285957 0
M  V30 30526 H 2844.47 1.68836 -0.170994 0
M  V30 30527 H 2843.24 3.9125 -0.0623472 0
M  V30 30528 H 2842.87 3.62708 1.62875 0
M  V30 30529 N 2843.86 -0.138524 1.5699 0
M  V30 30530 C 2845.11 -0.849699 1.83811 0
M  V30 30531 C 2845.44 -1.80785 0.717441 0
M  V30 30532 O 2844.69 -1.93496 -0.292863 0
M  V30 30533 C 2844.99 -1.65043 3.1701 0
M  V30 30534 C 2844.66 -0.83832 4.43038 0
M  V30 30535 C 2843.32 -0.614301 4.77263 0
M  V30 30536 C 2845.67 -0.270952 5.20495 0
M  V30 30537 C 2843 0.187655 5.864 0
M  V30 30538 C 2845.35 0.51809 6.30475 0
M  V30 30539 C 2844.02 0.752607 6.63244 0
M  V30 30540 H 2843.29 -0.310927 0.672611 0
M  V30 30541 H 2845.93 -0.112938 1.91167 0
M  V30 30542 H 2844.24 -2.45754 3.05143 0
M  V30 30543 H 2845.94 -2.20431 3.34979 0
M  V30 30544 H 2842.53 -1.023 4.16212 0
M  V30 30545 H 2846.71 -0.431284 4.94423 0
M  V30 30546 H 2841.97 0.378766 6.10226 0
M  V30 30547 H 2846.14 0.964815 6.89684 0
M  V30 30548 H 2843.77 1.37587 7.47646 0
M  V30 30549 N 2845.34 -1.52224 -0.408133 0
M  V30 30550 C 2846.57 -1.70181 -1.17669 0
M  V30 30551 C 2846.99 -0.411728 -1.84256 0
M  V30 30552 O 2846.34 0.612324 -1.71921 0
M  V30 30553 C 2846.39 -2.8381 -2.23906 0
M  V30 30554 O 2846.11 -4.07823 -1.60037 0
M  V30 30555 C 2847.62 -3.13286 -3.13634 0
M  V30 30556 H 2844.84 -0.5703 -0.353552 0
M  V30 30557 H 2847.38 -1.98786 -0.480048 0
M  V30 30558 H 2845.53 -2.57722 -2.89237 0
M  V30 30559 H 2845.95 -4.71149 -2.30476 0
M  V30 30560 H 2847.42 -3.96305 -3.84248 0
M  V30 30561 H 2847.9 -2.26879 -3.76062 0
M  V30 30562 H 2848.51 -3.41143 -2.53971 0
M  V30 30563 N 2846.82 0.665425 -1.42863 0
M  V30 30564 C 2848.07 1.42262 -1.43548 0
M  V30 30565 C 2848.39 1.94919 -0.0563459 0
M  V30 30566 O 2847.66 1.73663 0.906537 0
M  V30 30567 H 2846.24 0.527944 -0.528473 0
M  V30 30568 H 2848.9 0.785633 -1.78364 0
M  V30 30569 H 2848 2.27101 -2.14083 0
M  V30 30570 N 2848.3 1.29191 0.902633 0
M  V30 30571 C 2849.25 1.1407 2.00641 0
M  V30 30572 C 2850.22 0.0348048 1.66064 0
M  V30 30573 O 2851.4 0.201785 1.8973 0
M  V30 30574 C 2848.54 0.820163 3.35212 0
M  V30 30575 C 2847.65 2.0062 3.82591 0
M  V30 30576 C 2846.79 1.62531 5.05724 0
M  V30 30577 C 2845.83 2.77733 5.45464 0
M  V30 30578 N 2844.96 2.4006 6.59785 0
M  V30 30579 H 2849.8 2.08506 2.12907 0
M  V30 30580 H 2847.34 1.03761 1.04269 0
M  V30 30581 H 2849.3 0.615021 4.12642 0
M  V30 30582 H 2847.93 -0.0872885 3.22682 0
M  V30 30583 H 2846.98 2.32314 3.01222 0
M  V30 30584 H 2848.29 2.86953 4.07994 0
M  V30 30585 H 2847.45 1.38288 5.9073 0
M  V30 30586 H 2846.19 0.733418 4.82154 0
M  V30 30587 H 2845.19 3.02662 4.58995 0
M  V30 30588 H 2846.42 3.67582 5.71017 0
M  V30 30589 H 2844.36 1.53355 6.37823 0
M  V30 30590 H 2844.28 3.19926 6.84969 0
M  V30 30591 H 2845.55 2.19129 7.48066 0
M  V30 30592 N 2849.78 -1.1126 1.1162 0
M  V30 30593 C 2850.71 -2.19423 0.798499 0
M  V30 30594 C 2851.69 -1.68483 -0.233973 0
M  V30 30595 O 2852.87 -1.93957 -0.0970363 0
M  V30 30596 C 2850 -3.46449 0.242953 0
M  V30 30597 C 2848.96 -4.10613 1.20751 0
M  V30 30598 C 2848.28 -5.32237 0.512588 0
M  V30 30599 C 2849.58 -4.55321 2.55892 0
M  V30 30600 H 2851.28 -2.46255 1.7029 0
M  V30 30601 H 2848.82 -1.18357 0.820216 0
M  V30 30602 H 2850.78 -4.21399 0.00847854 0
M  V30 30603 H 2849.5 -3.19081 -0.696754 0
M  V30 30604 H 2848.16 -3.37659 1.42765 0
M  V30 30605 H 2847.81 -5.01142 -0.431987 0
M  V30 30606 H 2847.51 -5.76118 1.15593 0
M  V30 30607 H 2849.03 -6.09925 0.28695 0
M  V30 30608 H 2850.44 -5.21584 2.37956 0
M  V30 30609 H 2848.84 -5.10021 3.16225 0
M  V30 30610 H 2849.91 -3.68672 3.14974 0
M  V30 30611 N 2851.25 -0.906798 -1.28899 0
M  V30 30612 C 2852.5 -0.532296 -1.94549 0
M  V30 30613 C 2852.82 0.927323 -1.72221 0
M  V30 30614 O 2854.02 1.40967 -2.32036 0
M  V30 30615 C 2852.48 -0.901102 -3.48437 0
M  V30 30616 C 2852.09 -2.37997 -3.79554 0
M  V30 30617 C 2853.83 -0.596851 -4.20283 0
M  V30 30618 C 2851.74 -2.68927 -5.26718 0
M  V30 30619 H 2850.67 -0.195345 -0.728256 0
M  V30 30620 H 2853.32 -1.10477 -1.46517 0
M  V30 30621 H 2851.7 -0.257489 -3.95162 0
M  V30 30622 H 2852.87 -3.06973 -3.43663 0
M  V30 30623 H 2851.19 -2.65397 -3.20863 0
M  V30 30624 H 2853.79 -0.804693 -5.2861 0
M  V30 30625 H 2854.13 0.464999 -4.13695 0
M  V30 30626 H 2854.66 -1.19862 -3.79312 0
M  V30 30627 H 2851.4 -3.73938 -5.38378 0
M  V30 30628 H 2850.92 -2.04581 -5.63832 0
M  V30 30629 H 2852.6 -2.55565 -5.94387 0
M  V30 30630 N 2852.73 1.42648 -0.670032 0
M  V30 30631 C 2853.98 2.00826 -0.187561 0
M  V30 30632 C 2854.29 1.53573 1.21139 0
M  V30 30633 O 2855.5 2.04138 1.78997 0
M  V30 30634 C 2853.96 3.58774 -0.284473 0
M  V30 30635 C 2853.56 4.15016 -1.68717 0
M  V30 30636 C 2855.31 4.24271 0.139531 0
M  V30 30637 C 2853.22 5.65313 -1.73711 0
M  V30 30638 H 2852.15 0.751074 -0.06636 0
M  V30 30639 H 2854.8 1.63426 -0.83452 0
M  V30 30640 H 2853.18 3.93655 0.430295 0
M  V30 30641 H 2854.35 3.91604 -2.42864 0
M  V30 30642 H 2852.67 3.61953 -2.05861 0
M  V30 30643 H 2855.26 5.3456 0.122304 0
M  V30 30644 H 2855.61 3.99405 1.17396 0
M  V30 30645 H 2856.14 3.94333 -0.524064 0
M  V30 30646 H 2852.88 5.9497 -2.75119 0
M  V30 30647 H 2852.4 5.9073 -1.03913 0
M  V30 30648 H 2854.08 6.29647 -1.4884 0
M  V30 30649 N 2854.21 0.413044 1.52091 0
M  V30 30650 C 2855.49 -0.220206 1.94357 0
M  V30 30651 C 2855.87 -1.62274 1.35019 0
M  V30 30652 O 2855.22 -2.22327 0.52755 0
M  V30 30653 C 2855.43 -0.222577 3.4829 0
M  V30 30654 C 2856.77 -0.440024 4.22314 0
M  V30 30655 O 2857.8 -0.301763 3.54919 0
M  V30 30656 O 2856.66 -0.712889 5.4183 0
M  V30 30657 H 2853.75 -0.143026 0.814538 0
M  V30 30658 H 2856.3 0.469271 1.63083 0
M  V30 30659 H 2855.07 0.758903 3.8387 0
M  V30 30660 H 2854.69 -0.955989 3.85936 0
M  V30 30661 N 2855.69 -1.56945 0.143591 0
M  V30 30662 C 2856.6 -2.20154 -0.810524 0
M  V30 30663 C 2857.62 -1.18482 -1.27428 0
M  V30 30664 O 2858.79 -1.51046 -1.33218 0
M  V30 30665 C 2855.86 -2.80803 -2.03349 0
M  V30 30666 C 2854.92 -3.9759 -1.61929 0
M  V30 30667 C 2854.15 -4.55337 -2.78395 0
M  V30 30668 O 2854.37 -4.11965 -3.94514 0
M  V30 30669 O 2853.31 -5.45651 -2.54063 0
M  V30 30670 H 2857.13 -3.0219 -0.302477 0
M  V30 30671 H 2854.72 -1.49168 -0.0832663 0
M  V30 30672 H 2856.6 -3.19364 -2.74926 0
M  V30 30673 H 2855.28 -2.01782 -2.53112 0
M  V30 30674 H 2854.18 -3.63751 -0.87384 0
M  V30 30675 H 2855.52 -4.7812 -1.16884 0
M  V30 30676 N 2857.17 0.130197 -1.57061 0
M  V30 30677 C 2858.12 1.17929 -2.00488 0
M  V30 30678 C 2859.11 1.43517 -0.899959 0
M  V30 30679 O 2860.32 1.43611 -1.08516 0
M  V30 30680 H 2856.69 0.397351 -0.638448 0
M  V30 30681 H 2858.66 0.78645 -2.8785 0
M  V30 30682 C 2857.41 2.50079 -2.41569 0
M  V30 30683 H 2856.73 2.31225 -3.26152 0
M  V30 30684 H 2858.17 3.22073 -2.75763 0
M  V30 30685 C 2856.63 3.11846 -1.2749 0
M  V30 30686 O 2857.16 3.97421 -0.584758 0
M  V30 30687 N 2855.37 2.71551 -1.03482 0
M  V30 30688 H 2854.92 2.02058 -1.59782 0
M  V30 30689 H 2854.87 3.13208 -0.273465 0
M  V30 30690 N 2858.65 1.52438 0.400055 0
M  V30 30691 C 2859.89 1.66168 1.14329 0
M  V30 30692 C 2860.21 0.402287 1.91418 0
M  V30 30693 O 2861.41 0.419534 2.68239 0
M  V30 30694 C 2859.87 2.93614 2.08132 0
M  V30 30695 C 2859.48 4.26693 1.36517 0
M  V30 30696 C 2861.22 3.16708 2.82659 0
M  V30 30697 C 2859.13 5.45255 2.29021 0
M  V30 30698 H 2858.06 0.619028 0.430489 0
M  V30 30699 H 2860.71 1.7893 0.406985 0
M  V30 30700 H 2859.09 2.74572 2.85353 0
M  V30 30701 H 2860.27 4.5625 0.645981 0
M  V30 30702 H 2858.58 4.09773 0.739948 0
M  V30 30703 H 2861.18 4.02466 3.5203 0
M  V30 30704 H 2861.52 2.31318 3.46118 0
M  V30 30705 H 2862.05 3.36265 2.12535 0
M  V30 30706 H 2858.79 6.3302 1.70194 0
M  V30 30707 H 2858.31 5.20025 2.98887 0
M  V30 30708 H 2859.99 5.78694 2.89349 0
M  V30 30709 N 2860.12 -0.657839 1.43214 0
M  V30 30710 C 2861.35 -1.44354 1.47803 0
M  V30 30711 C 2861.76 -1.88971 0.0930538 0
M  V30 30712 O 2861.1 -1.59801 -0.906061 0
M  V30 30713 C 2861.17 -2.71408 2.35749 0
M  V30 30714 C 2860.83 -2.4876 3.83363 0
M  V30 30715 C 2861.83 -2.12276 4.74589 0
M  V30 30716 C 2859.51 -2.63228 4.27804 0
M  V30 30717 C 2861.51 -1.90552 6.08251 0
M  V30 30718 C 2859.19 -2.41118 5.6152 0
M  V30 30719 C 2860.19 -2.04836 6.51561 0
M  V30 30720 O 2859.88 -1.82953 7.82805 0
M  V30 30721 H 2859.61 -0.450095 0.504371 0
M  V30 30722 H 2862.17 -0.814208 1.88573 0
M  V30 30723 H 2860.4 -3.36884 1.89858 0
M  V30 30724 H 2862.08 -3.33344 2.31595 0
M  V30 30725 H 2862.85 -2.0068 4.41535 0
M  V30 30726 H 2858.73 -2.90445 3.57999 0
M  V30 30727 H 2862.27 -1.62156 6.78492 0
M  V30 30728 H 2858.17 -2.52317 5.94144 0
M  V30 30729 H 2858.94 -1.97415 7.94336 0
M  V30 30730 N 2861.6 -1.29668 -0.895769 0
M  V30 30731 C 2862.83 -1.20589 -1.67755 0
M  V30 30732 C 2863.24 0.235399 -1.8773 0
M  V30 30733 O 2862.58 1.16895 -1.41708 0
M  V30 30734 C 2862.64 -1.8522 -3.08113 0
M  V30 30735 C 2862.31 -3.34526 -3.11354 0
M  V30 30736 C 2863.31 -4.30689 -2.91209 0
M  V30 30737 C 2860.99 -3.75792 -3.33295 0
M  V30 30738 C 2862.98 -5.66094 -2.92945 0
M  V30 30739 C 2860.67 -5.11317 -3.34661 0
M  V30 30740 C 2861.67 -6.06278 -3.14509 0
M  V30 30741 O 2861.36 -7.39329 -3.15671 0
M  V30 30742 H 2861.09 -0.418863 -0.530594 0
M  V30 30743 H 2863.64 -1.71636 -1.12828 0
M  V30 30744 H 2861.87 -1.28689 -3.64659 0
M  V30 30745 H 2863.56 -1.70409 -3.68396 0
M  V30 30746 H 2864.33 -4.00141 -2.74067 0
M  V30 30747 H 2860.21 -3.0233 -3.4802 0
M  V30 30748 H 2863.75 -6.4019 -2.77134 0
M  V30 30749 H 2859.65 -5.4151 -3.51336 0
M  V30 30750 H 2860.42 -7.48183 -3.3191 0
M  V30 30751 N 2863.08 1.10667 -1.12208 0
M  V30 30752 C 2864.33 1.82576 -0.875907 0
M  V30 30753 C 2864.65 1.85069 0.59831 0
M  V30 30754 O 2863.91 1.30523 1.45816 0
M  V30 30755 C 2864.21 3.29143 -1.39282 0
M  V30 30756 C 2863.87 3.46801 -2.88166 0
M  V30 30757 C 2862.54 3.51328 -3.28819 0
M  V30 30758 C 2864.89 3.52393 -3.84017 0
M  V30 30759 C 2862.22 3.59011 -4.64034 0
M  V30 30760 C 2864.57 3.61608 -5.19059 0
M  V30 30761 C 2863.23 3.64398 -5.59258 0
M  V30 30762 H 2862.5 0.668094 -0.320517 0
M  V30 30763 H 2865.15 1.30461 -1.40186 0
M  V30 30764 H 2863.45 3.83809 -0.787275 0
M  V30 30765 H 2865.15 3.83289 -1.17858 0
M  V30 30766 H 2861.74 3.43953 -2.55723 0
M  V30 30767 H 2865.93 3.48148 -3.53704 0
M  V30 30768 H 2861.18 3.59452 -4.94575 0
M  V30 30769 H 2865.36 3.64878 -5.93158 0
M  V30 30770 H 2862.98 3.70104 -6.64023 0
M  V30 30771 N 2864.56 0.913621 1.28416 0
M  V30 30772 C 2865.83 0.465652 1.89976 0
M  V30 30773 C 2866.21 -1.05555 1.82815 0
M  V30 30774 O 2865.56 -1.90356 1.264 0
M  V30 30775 C 2865.77 0.995871 3.3449 0
M  V30 30776 C 2867.12 1.04789 4.11466 0
M  V30 30777 O 2868.14 0.944506 3.43449 0
M  V30 30778 O 2867 1.20527 5.33044 0
M  V30 30779 H 2864.1 0.147546 0.813732 0
M  V30 30780 H 2866.64 1.0044 1.36784 0
M  V30 30781 H 2865.42 2.03984 3.33925 0
M  V30 30782 H 2865.04 0.437947 3.95181 0
M  V30 30783 N 2866.04 -1.4229 0.677588 0
M  V30 30784 C 2867.31 -1.95169 0.129837 0
M  V30 30785 C 2867.69 -1.61788 -1.35602 0
M  V30 30786 O 2867.04 -0.915481 -2.09359 0
M  V30 30787 C 2867.25 -3.46678 0.401949 0
M  V30 30788 C 2868.6 -4.23393 0.319963 0
M  V30 30789 O 2869.62 -3.54613 0.335853 0
M  V30 30790 O 2868.48 -5.45859 0.264555 0
M  V30 30791 H 2865.58 -0.826988 0.00448886 0
M  V30 30792 H 2868.12 -1.52103 0.75251 0
M  V30 30793 H 2866.89 -3.6419 1.43114 0
M  V30 30794 H 2866.52 -3.96797 -0.252592 0
M  V30 30795 N 2867.51 -0.421104 -1.5187 0
M  V30 30796 C 2868.46 0.413026 -2.28904 0
M  V30 30797 C 2869.46 1.03529 -1.34082 0
M  V30 30798 O 2870.66 0.972119 -1.51492 0
M  V30 30799 H 2867.04 0.15199 -0.73648 0
M  V30 30800 H 2869.01 -0.257747 -2.97285 0
M  V30 30801 C 2867.76 1.51086 -3.13159 0
M  V30 30802 H 2867.08 1.04139 -3.85999 0
M  V30 30803 H 2868.52 2.06808 -3.70144 0
M  V30 30804 C 2866.98 2.48499 -2.27486 0
M  V30 30805 O 2867.51 3.52663 -1.92332 0
M  V30 30806 N 2865.71 2.18995 -1.91022 0
M  V30 30807 H 2865.26 1.34318 -2.1981 0
M  V30 30808 H 2865.22 2.84416 -1.33995 0
M  V30 30809 N 2868.99 1.56866 -0.151912 0
M  V30 30810 C 2870.22 2.00357 0.504046 0
M  V30 30811 C 2870.63 1.03106 1.58637 0
M  V30 30812 O 2869.97 0.0208254 1.83688 0
M  V30 30813 C 2870.04 3.40281 1.15969 0
M  V30 30814 C 2869.7 4.56464 0.221373 0
M  V30 30815 C 2870.7 5.16952 -0.552857 0
M  V30 30816 C 2868.38 5.0215 0.122847 0
M  V30 30817 C 2870.38 6.21541 -1.41301 0
M  V30 30818 C 2868.06 6.06592 -0.740907 0
M  V30 30819 C 2869.06 6.66157 -1.50744 0
M  V30 30820 O 2868.75 7.68577 -2.35679 0
M  V30 30821 H 2868.48 0.662328 0.135267 0
M  V30 30822 H 2871.03 2.03934 -0.244952 0
M  V30 30823 H 2869.26 3.33558 1.95643 0
M  V30 30824 H 2870.95 3.67849 1.71588 0
M  V30 30825 H 2871.72 4.82551 -0.486801 0
M  V30 30826 H 2867.6 4.55512 0.70923 0
M  V30 30827 H 2871.14 6.67962 -2.01178 0
M  V30 30828 H 2867.04 6.4042 -0.808237 0
M  V30 30829 H 2867.81 7.85818 -2.28981 0
M  V30 30830 N 2870.47 -0.121866 1.57128 0
M  V30 30831 C 2871.89 -0.475313 1.52358 0
M  V30 30832 C 2872.09 -1.82015 0.864449 0
M  V30 30833 O 2871.14 -2.48538 0.445572 0
M  V30 30834 C 2872.46 -0.462448 2.97123 0
M  V30 30835 C 2874 -0.546201 3.08197 0
M  V30 30836 C 2874.48 -0.563753 4.54517 0
M  V30 30837 N 2875.97 -0.625272 4.5896 0
M  V30 30838 C 2876.7 -0.660254 5.69586 0
M  V30 30839 N 2876.2 -0.653054 6.89715 0
M  V30 30840 N 2877.99 -0.703045 5.57686 0
M  V30 30841 H 2870.14 0.759344 1.98363 0
M  V30 30842 H 2872.41 0.279788 0.905772 0
M  V30 30843 H 2872.11 0.458005 3.48705 0
M  V30 30844 H 2871.99 -1.2913 3.54409 0
M  V30 30845 H 2874.37 -1.45707 2.56619 0
M  V30 30846 H 2874.46 0.310279 2.53911 0
M  V30 30847 H 2874.1 0.343063 5.0674 0
M  V30 30848 H 2874.03 -1.43708 5.06612 0
M  V30 30849 H 2876.52 -0.637117 3.72491 0
M  V30 30850 H 2876.83 -0.68229 7.69782 0
M  V30 30851 H 2875.18 -0.620524 6.92224 0
M  V30 30852 H 2878.37 -0.706013 4.62745 0
M  V30 30853 H 2878.54 -0.726839 6.43911 0
M  V30 30854 N 2871.95 -1.52648 -0.391965 0
M  V30 30855 C 2873.2 -1.67216 -1.13504 0
M  V30 30856 C 2873.52 -0.413073 -1.90575 0
M  V30 30857 O 2872.79 0.572465 -1.87349 0
M  V30 30858 H 2871.37 -0.616379 -0.422002 0
M  V30 30859 H 2874.03 -1.89752 -0.444986 0
M  V30 30860 H 2873.13 -2.52122 -1.8396 0
M  V30 30861 N 2873.43 0.650235 -1.43561 0
M  V30 30862 C 2874.39 1.74486 -1.48618 0
M  V30 30863 C 2875.39 1.56473 -0.37051 0
M  V30 30864 O 2876.58 1.62316 -0.632379 0
M  V30 30865 C 2873.71 3.13388 -1.34166 0
M  V30 30866 H 2874.9 1.71382 -2.46106 0
M  V30 30867 H 2872.46 0.862163 -1.3037 0
M  V30 30868 H 2873.19 3.22102 -0.376974 0
M  V30 30869 H 2872.98 3.27868 -2.15046 0
M  V30 30870 H 2874.47 3.93204 -1.40644 0
M  V30 30871 N 2874.9 1.30141 0.88888 0
M  V30 30872 C 2876.15 1.18915 1.64278 0
M  V30 30873 C 2876.48 -0.256443 1.92499 0
M  V30 30874 O 2875.76 -1.18395 1.54314 0
M  V30 30875 C 2876.04 2.0141 2.98506 0
M  V30 30876 C 2875.89 3.54168 2.77282 0
M  V30 30877 C 2877.21 1.84889 3.9938 0
M  V30 30878 H 2874.33 0.433343 0.59614 0
M  V30 30879 H 2876.97 1.59732 1.02887 0
M  V30 30880 H 2875.12 1.66729 3.50904 0
M  V30 30881 H 2876.8 3.98888 2.31702 0
M  V30 30882 H 2875.04 3.78547 2.1186 0
M  V30 30883 H 2875.71 4.07175 3.7271 0
M  V30 30884 H 2878.19 2.15202 3.56128 0
M  V30 30885 H 2877.06 2.44943 4.91217 0
M  V30 30886 H 2877.32 0.806979 4.34673 0
M  V30 30887 N 2876.38 -1.1007 1.12794 0
M  V30 30888 C 2877.29 -2.20084 0.812407 0
M  V30 30889 C 2878.31 -1.72843 -0.200319 0
M  V30 30890 O 2879.48 -2.01373 -0.0329908 0
M  V30 30891 C 2876.55 -3.45602 0.275746 0
M  V30 30892 C 2875.61 -4.07558 1.34888 0
M  V30 30893 C 2874.84 -5.27084 0.837731 0
M  V30 30894 O 2875.07 -5.69461 -0.327124 0
M  V30 30895 O 2874 -5.79994 1.60904 0
M  V30 30896 H 2877.83 -2.49514 1.73137 0
M  V30 30897 H 2875.41 -1.18879 0.904884 0
M  V30 30898 H 2877.29 -4.21396 -0.0184635 0
M  V30 30899 H 2875.97 -3.1779 -0.615727 0
M  V30 30900 H 2874.88 -3.33431 1.69631 0
M  V30 30901 H 2876.21 -4.39581 2.21425 0
M  V30 30902 N 2877.86 -0.920419 -1.2793 0
M  V30 30903 C 2879.11 -0.567334 -1.95328 0
M  V30 30904 C 2879.46 0.880475 -1.71071 0
M  V30 30905 O 2878.75 1.61877 -1.025 0
M  V30 30906 C 2878.95 -0.820619 -3.47851 0
M  V30 30907 C 2878.78 -2.2915 -3.86937 0
M  V30 30908 C 2877.55 -2.94285 -4.1076 0
M  V30 30909 C 2879.75 -3.26845 -3.97085 0
M  V30 30910 N 2877.73 -4.31601 -4.3657 0
M  V30 30911 C 2879.1 -4.49346 -4.27186 0
M  V30 30912 C 2881.15 -3.22153 -3.79634 0
M  V30 30913 C 2879.86 -5.67746 -4.41652 0
M  V30 30914 C 2881.88 -4.39858 -3.95321 0
M  V30 30915 C 2881.24 -5.61136 -4.258 0
M  V30 30916 H 2877.34 -0.257596 -0.738355 0
M  V30 30917 H 2879.93 -1.18553 -1.54445 0
M  V30 30918 H 2878.1 -0.23164 -3.87709 0
M  V30 30919 H 2879.83 -0.430895 -4.024 0
M  V30 30920 H 2876.59 -2.44986 -4.05313 0
M  V30 30921 H 2877.01 -5.02618 -4.53546 0
M  V30 30922 H 2881.65 -2.29463 -3.55115 0
M  V30 30923 H 2879.37 -6.60909 -4.64999 0
M  V30 30924 H 2882.96 -4.37737 -3.83246 0
M  V30 30925 H 2881.84 -6.50697 -4.3768 0
M  V30 30926 N 2879.34 1.41929 -0.685124 0
M  V30 30927 C 2880.29 2.30796 -0.0132275 0
M  V30 30928 C 2881.26 1.46534 0.782104 0
M  V30 30929 O 2882.44 1.75345 0.752259 0
M  V30 30930 C 2879.58 3.3248 0.924709 0
M  V30 30931 C 2878.69 4.31827 0.122105 0
M  V30 30932 C 2877.83 5.20583 1.05673 0
M  V30 30933 C 2876.87 6.11604 0.246419 0
M  V30 30934 N 2876 6.92877 1.1343 0
M  V30 30935 H 2880.84 2.87696 -0.77684 0
M  V30 30936 H 2878.38 1.41703 -0.394816 0
M  V30 30937 H 2880.34 3.89974 1.48244 0
M  V30 30938 H 2878.97 2.77155 1.65484 0
M  V30 30939 H 2878.02 3.76368 -0.552401 0
M  V30 30940 H 2879.33 4.96221 -0.50656 0
M  V30 30941 H 2878.49 5.82859 1.68405 0
M  V30 30942 H 2877.23 4.56391 1.71927 0
M  V30 30943 H 2876.23 5.48386 -0.39404 0
M  V30 30944 H 2877.46 6.77848 -0.412172 0
M  V30 30945 H 2875.4 6.31303 1.78305 0
M  V30 30946 H 2875.32 7.53916 0.560956 0
M  V30 30947 H 2876.59 7.59631 1.74875 0
M  V30 30948 N 2880.82 0.429152 1.51644 0
M  V30 30949 C 2881.73 -0.392768 2.31289 0
M  V30 30950 C 2882.74 -1.03523 1.39854 0
M  V30 30951 O 2883.92 -1.03238 1.72927 0
M  V30 30952 C 2880.98 -1.48367 3.1335 0
M  V30 30953 C 2880.04 -0.862194 4.20553 0
M  V30 30954 C 2879.28 -1.90111 4.98692 0
M  V30 30955 O 2879.5 -3.12217 4.77364 0
M  V30 30956 O 2878.43 -1.49619 5.83007 0
M  V30 30957 H 2882.26 0.257191 3.02609 0
M  V30 30958 H 2879.85 0.191877 1.48163 0
M  V30 30959 H 2881.73 -2.11653 3.64391 0
M  V30 30960 H 2880.4 -2.11786 2.44803 0
M  V30 30961 H 2879.31 -0.191502 3.7361 0
M  V30 30962 H 2880.64 -0.271618 4.9145 0
M  V30 30963 N 2882.29 -1.56783 0.160229 0
M  V30 30964 C 2883.22 -2.20431 -0.770225 0
M  V30 30965 C 2884.21 -1.15653 -1.24734 0
M  V30 30966 O 2885.39 -1.44043 -1.30251 0
M  V30 30967 C 2882.52 -2.83634 -2.00422 0
M  V30 30968 C 2881.47 -3.94355 -1.66338 0
M  V30 30969 C 2880.8 -4.44555 -2.97111 0
M  V30 30970 C 2882.1 -5.14489 -0.899882 0
M  V30 30971 H 2883.79 -2.98439 -0.239731 0
M  V30 30972 H 2881.34 -1.43549 -0.113866 0
M  V30 30973 H 2883.29 -3.26831 -2.66006 0
M  V30 30974 H 2882.02 -2.02978 -2.55866 0
M  V30 30975 H 2880.68 -3.51796 -1.03127 0
M  V30 30976 H 2880.32 -3.60704 -3.50573 0
M  V30 30977 H 2880.02 -5.19243 -2.75064 0
M  V30 30978 H 2881.55 -4.90431 -3.63744 0
M  V30 30979 H 2882.96 -5.54448 -1.45808 0
M  V30 30980 H 2881.36 -5.95024 -0.778864 0
M  V30 30981 H 2882.43 -4.84784 0.105912 0
M  V30 30982 N 2883.77 0.113531 -1.57191 0
M  V30 30983 C 2885.05 0.850968 -1.76119 0
M  V30 30984 C 2885.43 1.97812 -0.73712 0
M  V30 30985 O 2884.78 2.27258 0.237902 0
M  V30 30986 C 2884.99 1.3626 -3.21301 0
M  V30 30987 C 2886.34 1.81276 -3.83958 0
M  V30 30988 O 2887.36 1.45927 -3.24937 0
M  V30 30989 O 2886.22 2.46576 -4.87711 0
M  V30 30990 H 2883.31 0.404516 -0.721315 0
M  V30 30991 H 2885.86 0.0968458 -1.69423 0
M  V30 30992 H 2884.63 0.554167 -3.87356 0
M  V30 30993 H 2884.25 2.17928 -3.32556 0
M  V30 30994 N 2885.25 1.52854 0.383864 0
M  V30 30995 C 2886.5 1.67816 1.12616 0
M  V30 30996 C 2886.82 0.423174 1.90353 0
M  V30 30997 O 2886.09 -0.562521 1.8765 0
M  V30 30998 H 2884.67 0.618609 0.418727 0
M  V30 30999 H 2887.33 1.89985 0.434917 0
M  V30 31000 H 2886.43 2.53094 1.8262 0
M  V30 31001 N 2886.73 -0.642612 1.43904 0
M  V30 31002 C 2887.64 -1.78399 1.52352 0
M  V30 31003 C 2888.66 -1.69103 0.409899 0
M  V30 31004 O 2889.83 -1.90084 0.665581 0
M  V30 31005 C 2886.9 -3.14731 1.45414 0
M  V30 31006 C 2885.96 -3.35744 2.67533 0
M  V30 31007 C 2885.19 -4.65573 2.60917 0
M  V30 31008 O 2885.41 -5.45626 1.6628 0
M  V30 31009 O 2884.35 -4.88538 3.51589 0
M  V30 31010 H 2888.17 -1.74225 2.48755 0
M  V30 31011 H 2885.76 -0.802417 1.26022 0
M  V30 31012 H 2887.64 -3.96023 1.44026 0
M  V30 31013 H 2886.32 -3.19472 0.521494 0
M  V30 31014 H 2885.22 -2.54175 2.74492 0
M  V30 31015 H 2886.56 -3.35858 3.59806 0
M  V30 31016 N 2888.21 -1.30611 -0.881966 0
M  V30 31017 C 2889.14 -1.11574 -1.99064 0
M  V30 31018 C 2890.12 -0.0225445 -1.62584 0
M  V30 31019 O 2891.3 -0.176677 -1.8767 0
M  V30 31020 C 2888.43 -0.702295 -3.31339 0
M  V30 31021 C 2887.48 -1.7968 -3.86804 0
M  V30 31022 S 2888.31 -3.39983 -4.13729 0
M  V30 31023 C 2889.46 -3.00548 -5.49019 0
M  V30 31024 H 2889.7 -2.05433 -2.14906 0
M  V30 31025 H 2887.23 -1.14959 -1.03072 0
M  V30 31026 H 2889.19 -0.470487 -4.07795 0
M  V30 31027 H 2887.85 0.216979 -3.1335 0
M  V30 31028 H 2887.04 -1.45986 -4.82394 0
M  V30 31029 H 2886.64 -1.98304 -3.17099 0
M  V30 31030 H 2888.94 -2.48695 -6.30204 0
M  V30 31031 H 2889.88 -3.95056 -5.87653 0
M  V30 31032 H 2890.29 -2.38329 -5.11722 0
M  V30 31033 N 2889.69 1.0947 -1.13376 0
M  V30 31034 C 2890.64 2.14261 -0.779497 0
M  V30 31035 C 2891.62 1.59301 0.226243 0
M  V30 31036 O 2892.81 1.76974 0.0302269 0
M  V30 31037 C 2889.94 3.42412 -0.246695 0
M  V30 31038 C 2889.03 4.04281 -1.28132 0
M  V30 31039 N 2889.42 4.40711 -2.48209 0
M  V30 31040 C 2887.72 4.31474 -1.12899 0
M  V30 31041 C 2888.42 4.89444 -3.14355 0
M  V30 31042 N 2887.39 4.86871 -2.41779 0
M  V30 31043 H 2891.19 2.40232 -1.69309 0
M  V30 31044 H 2888.71 1.26693 -1.016 0
M  V30 31045 H 2890.71 4.16892 0.0253399 0
M  V30 31046 H 2889.37 3.17896 0.661231 0
M  V30 31047 H 2890.38 4.32088 -2.85518 0
M  V30 31048 H 2887.05 4.16565 -0.27919 0
M  V30 31049 H 2888.44 5.27099 -4.16672 0
M  V30 31050 N 2891.16 0.92719 1.2744 0
M  V30 31051 C 2892.39 0.58281 1.98209 0
M  V30 31052 C 2892.8 -0.843376 1.69363 0
M  V30 31053 O 2892.14 -1.57203 0.950408 0
M  V30 31054 C 2892.21 0.728227 3.52047 0
M  V30 31055 C 2891.87 2.12644 4.04514 0
M  V30 31056 C 2892.87 3.10056 4.17327 0
M  V30 31057 C 2890.55 2.44325 4.38874 0
M  V30 31058 C 2892.55 4.37257 4.63773 0
M  V30 31059 C 2890.23 3.71762 4.85012 0
M  V30 31060 C 2891.23 4.68041 4.9742 0
M  V30 31061 O 2890.92 5.93211 5.42546 0
M  V30 31062 H 2890.65 0.219679 0.63931 0
M  V30 31063 H 2893.21 1.24628 1.63269 0
M  V30 31064 H 2891.44 0.00764941 3.86699 0
M  V30 31065 H 2893.12 0.388977 4.04032 0
M  V30 31066 H 2893.89 2.86901 3.91041 0
M  V30 31067 H 2889.77 1.70128 4.28459 0
M  V30 31068 H 2893.31 5.1241 4.73373 0
M  V30 31069 H 2889.21 3.94735 5.10739 0
M  V30 31070 H 2889.98 5.96192 5.608 0
M  V30 31071 N 2892.64 -1.41564 0.692641 0
M  V30 31072 C 2893.89 -2.01275 0.22237 0
M  V30 31073 C 2894.22 -1.54842 -1.17703 0
M  V30 31074 O 2893.47 -0.74915 -1.80793 0
M  V30 31075 C 2893.77 -3.5669 0.225136 0
M  V30 31076 C 2893.44 -4.22622 1.57166 0
M  V30 31077 C 2892.1 -4.40347 1.9403 0
M  V30 31078 C 2894.45 -4.59618 2.45766 0
M  V30 31079 C 2891.78 -4.92343 3.19085 0
M  V30 31080 C 2894.13 -5.13003 3.7015 0
M  V30 31081 C 2892.79 -5.28939 4.07161 0
M  V30 31082 H 2892.06 -0.736519 0.0813711 0
M  V30 31083 H 2894.71 -1.69501 0.891153 0
M  V30 31084 H 2893.02 -3.88237 -0.527191 0
M  V30 31085 H 2894.71 -4.00696 -0.156212 0
M  V30 31086 H 2891.3 -4.09199 1.27493 0
M  V30 31087 H 2895.49 -4.45581 2.18566 0
M  V30 31088 H 2890.74 -5.02866 3.47758 0
M  V30 31089 H 2894.92 -5.4061 4.38992 0
M  V30 31090 H 2892.54 -5.68992 5.04135 0
M  V30 31091 N 2894.12 -0.437188 -1.51415 0
M  V30 31092 C 2895.34 0.130388 -2.0699 0
M  V30 31093 C 2895.77 1.35707 -1.30251 0
M  V30 31094 O 2895.13 1.78075 -0.34042 0
M  V30 31095 C 2895.18 0.431357 -3.58011 0
M  V30 31096 O 2894.28 1.51783 -3.83452 0
M  V30 31097 H 2893.62 0.00193172 -0.663997 0
M  V30 31098 H 2896.15 -0.618479 -1.95028 0
M  V30 31099 H 2896.16 0.681855 -4.02262 0
M  V30 31100 H 2894.84 -0.46521 -4.1329 0
M  V30 31101 H 2893.41 1.25731 -3.51064 0
M  V30 31102 N 2895.6 1.56696 -0.168541 0
M  V30 31103 C 2897.01 1.83415 0.348662 0
M  V30 31104 C 2897.36 1.08823 1.63255 0
M  V30 31105 O 2896.48 0.34037 2.13706 0
M  V30 31106 C 2897.08 3.32712 0.639365 0
M  V30 31107 C 2895.64 3.59937 1.10102 0
M  V30 31108 C 2894.79 2.76969 0.135415 0
M  V30 31109 H 2897.74 1.53761 -0.392856 0
M  V30 31110 H 2897.76 3.5004 1.49173 0
M  V30 31111 H 2897.27 3.86975 -0.295241 0
M  V30 31112 H 2895.37 3.11082 2.05082 0
M  V30 31113 H 2895.48 4.68288 1.0121 0
M  V30 31114 H 2893.85 2.46728 0.632242 0
M  V30 31115 H 2894.63 3.34012 -0.793162 0
M  V30 31116 N 2897.08 -0.105193 1.57249 0
M  V30 31117 C 2897.99 -1.14689 2.04655 0
M  V30 31118 C 2899 -1.44487 0.969513 0
M  V30 31119 O 2900.18 -1.55329 1.28199 0
M  V30 31120 C 2897.24 -2.45006 2.45301 0
M  V30 31121 C 2896.3 -2.22482 3.67151 0
M  V30 31122 C 2895.54 -3.46585 4.0585 0
M  V30 31123 O 2895.76 -4.54431 3.44744 0
M  V30 31124 O 2894.69 -3.3677 4.98868 0
M  V30 31125 H 2898.52 -0.774285 2.93664 0
M  V30 31126 H 2896.1 -0.316984 1.45999 0
M  V30 31127 H 2897.99 -3.21761 2.72117 0
M  V30 31128 H 2896.66 -2.81714 1.59433 0
M  V30 31129 H 2895.57 -1.43541 3.45466 0
M  V30 31130 H 2896.9 -1.90672 4.53767 0
M  V30 31131 N 2898.55 -1.53055 -0.375752 0
M  V30 31132 C 2899.78 -1.72639 -1.14033 0
M  V30 31133 C 2900.2 -0.450719 -1.83341 0
M  V30 31134 O 2899.55 0.575719 -1.73181 0
M  V30 31135 C 2899.61 -2.88496 -2.17836 0
M  V30 31136 O 2899.33 -4.11126 -1.51351 0
M  V30 31137 C 2900.83 -3.19869 -3.06919 0
M  V30 31138 H 2898.05 -0.577671 -0.341376 0
M  V30 31139 H 2900.59 -1.99759 -0.437774 0
M  V30 31140 H 2898.75 -2.63799 -2.83705 0
M  V30 31141 H 2899.16 -4.75931 -2.2043 0
M  V30 31142 H 2900.63 -4.04366 -3.75755 0
M  V30 31143 H 2901.11 -2.34804 -3.71165 0
M  V30 31144 H 2901.72 -3.46454 -2.46678 0
M  V30 31145 N 2900.03 0.634971 -1.44242 0
M  V30 31146 C 2901.28 1.39185 -1.46533 0
M  V30 31147 C 2901.6 1.94755 -0.0976783 0
M  V30 31148 O 2900.87 1.75546 0.869497 0
M  V30 31149 H 2899.45 0.516615 -0.539553 0
M  V30 31150 H 2902.11 0.747623 -1.79991 0
M  V30 31151 H 2901.21 2.22509 -2.18852 0
M  V30 31152 N 2901.51 1.31076 0.875027 0
M  V30 31153 C 2902.46 1.183 1.98176 0
M  V30 31154 C 2903.43 0.0700215 1.65952 0
M  V30 31155 O 2904.61 0.241984 1.89259 0
M  V30 31156 C 2901.75 0.891082 3.33397 0
M  V30 31157 C 2900.87 2.0869 3.78249 0
M  V30 31158 C 2900 1.73221 5.02163 0
M  V30 31159 C 2899.04 2.89241 5.3945 0
M  V30 31160 N 2898.18 2.54001 6.54544 0
M  V30 31161 H 2903.02 2.12975 2.08436 0
M  V30 31162 H 2900.55 1.05949 1.02045 0
M  V30 31163 H 2902.51 0.70241 4.11244 0
M  V30 31164 H 2901.14 -0.0188232 3.22795 0
M  V30 31165 H 2900.19 2.38651 2.96226 0
M  V30 31166 H 2901.51 2.95543 4.01816 0
M  V30 31167 H 2900.66 1.50787 5.87663 0
M  V30 31168 H 2899.4 0.835525 4.8049 0
M  V30 31169 H 2898.4 3.12329 4.52471 0
M  V30 31170 H 2899.63 3.79611 5.63092 0
M  V30 31171 H 2897.57 1.66849 6.34427 0
M  V30 31172 H 2897.49 3.34384 6.78029 0
M  V30 31173 H 2898.76 2.34947 7.4325 0
M  V30 31174 N 2902.99 -1.08867 1.13955 0
M  V30 31175 C 2903.95 -2.13836 0.825028 0
M  V30 31176 C 2904.95 -1.59918 -0.16817 0
M  V30 31177 O 2906.14 -1.74098 0.0596084 0
M  V30 31178 C 2903.27 -3.4013 0.228998 0
M  V30 31179 H 2904.47 -2.43168 1.75525 0
M  V30 31180 H 2902.02 -1.24501 0.944942 0
M  V30 31181 H 2902.75 -3.16429 -0.710171 0
M  V30 31182 H 2902.54 -3.80559 0.94431 0
M  V30 31183 H 2904.03 -4.17592 0.0259957 0
M  V30 31184 N 2904.47 -0.933936 -1.26946 0
M  V30 31185 C 2905.71 -0.577659 -1.94086 0
M  V30 31186 C 2906.04 0.88211 -1.73347 0
M  V30 31187 O 2905.3 1.6454 -1.05948 0
M  V30 31188 C 2905.6 -0.857467 -3.46961 0
M  V30 31189 C 2905.26 -2.29996 -3.8783 0
M  V30 31190 C 2903.92 -2.6943 -3.98699 0
M  V30 31191 C 2906.28 -3.23773 -4.08437 0
M  V30 31192 C 2903.6 -4.01752 -4.27566 0
M  V30 31193 C 2905.96 -4.55682 -4.3879 0
M  V30 31194 C 2904.62 -4.94941 -4.47872 0
M  V30 31195 H 2903.89 -0.21138 -0.710211 0
M  V30 31196 H 2906.54 -1.17908 -1.50897 0
M  V30 31197 H 2904.84 -0.173438 -3.91416 0
M  V30 31198 H 2906.54 -0.560685 -3.97061 0
M  V30 31199 H 2903.13 -1.98406 -3.79912 0
M  V30 31200 H 2907.31 -2.94506 -3.99474 0
M  V30 31201 H 2902.57 -4.31842 -4.32808 0
M  V30 31202 H 2906.74 -5.28343 -4.53681 0
M  V30 31203 H 2904.37 -5.97503 -4.69994 0
M  V30 31204 N 2905.94 1.41194 -0.700139 0
M  V30 31205 C 2906.89 2.30769 -0.0377058 0
M  V30 31206 C 2907.86 1.47356 0.766518 0
M  V30 31207 O 2909.05 1.76133 0.733619 0
M  V30 31208 C 2906.19 3.33442 0.889394 0
M  V30 31209 C 2905.3 4.31933 0.0762971 0
M  V30 31210 C 2904.43 5.21675 1.00146 0
M  V30 31211 C 2903.47 6.11831 0.181536 0
M  V30 31212 N 2902.61 6.94041 1.06074 0
M  V30 31213 H 2907.45 2.86856 -0.80731 0
M  V30 31214 H 2904.99 1.41276 -0.409823 0
M  V30 31215 H 2906.95 3.91524 1.441 0
M  V30 31216 H 2905.58 2.78895 1.62535 0
M  V30 31217 H 2904.63 3.75761 -0.592289 0
M  V30 31218 H 2905.94 4.95656 -0.559163 0
M  V30 31219 H 2905.09 5.84613 1.62213 0
M  V30 31220 H 2903.83 4.58189 1.67077 0
M  V30 31221 H 2902.84 5.47937 -0.452181 0
M  V30 31222 H 2904.06 6.77373 -0.484044 0
M  V30 31223 H 2902.01 6.33159 1.71599 0
M  V30 31224 H 2901.93 7.54469 0.480962 0
M  V30 31225 H 2903.19 7.61443 1.66809 0
M  V30 31226 N 2907.42 0.445212 1.51181 0
M  V30 31227 C 2908.67 -0.118375 2.01753 0
M  V30 31228 C 2908.99 -1.42521 1.33089 0
M  V30 31229 O 2908.26 -1.9023 0.467924 0
M  V30 31230 H 2906.84 -0.0467361 0.745537 0
M  V30 31231 H 2909.5 0.58972 1.85764 0
M  V30 31232 H 2908.6 -0.28861 3.10763 0
M  V30 31233 N 2908.9 -1.56605 0.176849 0
M  V30 31234 C 2909.83 -2.21235 -0.746802 0
M  V30 31235 C 2910.81 -1.16969 -1.235 0
M  V30 31236 O 2912 -1.45417 -1.28715 0
M  V30 31237 C 2909.13 -2.85744 -1.97402 0
M  V30 31238 C 2908.08 -3.96097 -1.62146 0
M  V30 31239 C 2907.41 -4.47681 -2.92379 0
M  V30 31240 C 2908.71 -5.15415 -0.845263 0
M  V30 31241 H 2910.4 -2.98676 -0.208064 0
M  V30 31242 H 2907.95 -1.43662 -0.0986342 0
M  V30 31243 H 2909.9 -3.29634 -2.62525 0
M  V30 31244 H 2908.62 -2.0568 -2.53699 0
M  V30 31245 H 2907.28 -3.5287 -0.993902 0
M  V30 31246 H 2906.93 -3.64402 -3.46728 0
M  V30 31247 H 2906.63 -5.22131 -2.69542 0
M  V30 31248 H 2908.15 -4.94262 -3.58522 0
M  V30 31249 H 2909.57 -5.55964 -1.39919 0
M  V30 31250 H 2907.97 -5.95817 -0.71571 0
M  V30 31251 H 2909.04 -4.84645 0.157324 0
M  V30 31252 N 2910.38 0.0968524 -1.57302 0
M  V30 31253 C 2911.33 1.1365 -2.02944 0
M  V30 31254 C 2912.32 1.41576 -0.930198 0
M  V30 31255 O 2913.53 1.41277 -1.11538 0
M  V30 31256 H 2909.9 0.38372 -0.646733 0
M  V30 31257 H 2911.87 0.725216 -2.89453 0
M  V30 31258 C 2910.62 2.44899 -2.46819 0
M  V30 31259 H 2909.94 2.24255 -3.30983 0
M  V30 31260 H 2911.38 3.16151 -2.82532 0
M  V30 31261 C 2909.84 3.09072 -1.34076 0
M  V30 31262 O 2910.37 3.96091 -0.668925 0
M  V30 31263 N 2908.58 2.69295 -1.09219 0
M  V30 31264 H 2908.13 1.98623 -1.64032 0
M  V30 31265 H 2908.08 3.12558 -0.339839 0
M  V30 31266 N 2911.86 1.53252 0.36763 0
M  V30 31267 C 2912.79 1.75827 1.47029 0
M  V30 31268 C 2913.8 0.639007 1.49735 0
M  V30 31269 O 2914.99 0.91522 1.53251 0
M  V30 31270 C 2912.09 1.82127 2.85802 0
M  V30 31271 C 2911.26 3.11741 3.06816 0
M  V30 31272 C 2910.32 3.0931 4.25692 0
M  V30 31273 O 2909.35 3.83115 4.20965 0
M  V30 31274 N 2910.55 2.29986 5.32998 0
M  V30 31275 H 2913.32 2.7097 1.28044 0
M  V30 31276 H 2910.88 1.52005 0.557336 0
M  V30 31277 H 2912.87 1.77981 3.63462 0
M  V30 31278 H 2911.44 0.942769 2.98045 0
M  V30 31279 H 2910.66 3.29206 2.16834 0
M  V30 31280 H 2911.95 3.97403 3.17724 0
M  V30 31281 H 2911.34 1.6953 5.397 0
M  V30 31282 H 2909.9 2.3166 6.09243 0
M  V30 31283 N 2913.34 -0.627313 1.44577 0
M  V30 31284 C 2914.58 -1.38279 1.4684 0
M  V30 31285 C 2914.9 -1.9531 0.106385 0
M  V30 31286 O 2916.1 -2.71499 0.00655857 0
M  V30 31287 C 2914.56 -2.50379 2.58531 0
M  V30 31288 C 2914.17 -1.99844 4.00957 0
M  V30 31289 C 2915.91 -3.27552 2.70019 0
M  V30 31290 C 2913.82 -3.09309 5.04065 0
M  V30 31291 H 2912.75 -0.519655 0.546329 0
M  V30 31292 H 2915.4 -0.674467 1.70655 0
M  V30 31293 H 2913.78 -3.23804 2.27963 0
M  V30 31294 H 2914.96 -1.33259 4.41111 0
M  V30 31295 H 2913.27 -1.35475 3.93745 0
M  V30 31296 H 2915.87 -4.09162 3.44224 0
M  V30 31297 H 2916.21 -3.77281 1.75967 0
M  V30 31298 H 2916.74 -2.61219 3.00016 0
M  V30 31299 H 2913.48 -2.64519 5.99758 0
M  V30 31300 H 2913 -3.74523 4.685 0
M  V30 31301 H 2914.68 -3.74021 5.27937 0
M  V30 31302 N 2914.81 -1.31539 -0.868063 0
M  V30 31303 C 2916.06 -1.21094 -1.61805 0
M  V30 31304 C 2916.38 0.230589 -1.93632 0
M  V30 31305 O 2915.65 1.1518 -1.58462 0
M  V30 31306 H 2914.23 -0.445189 -0.599846 0
M  V30 31307 H 2916.89 -1.64889 -1.03912 0
M  V30 31308 H 2915.99 -1.78401 -2.56085 0
M  V30 31309 N 2916.29 1.08262 -1.1453 0
M  V30 31310 C 2917.57 1.7734 -0.825216 0
M  V30 31311 C 2917.95 1.99814 0.681002 0
M  V30 31312 O 2917.3 1.60914 1.62231 0
M  V30 31313 C 2917.51 3.08828 -1.62561 0
M  V30 31314 C 2918.85 3.83335 -1.82592 0
M  V30 31315 O 2919.88 3.18614 -1.59259 0
M  V30 31316 O 2918.74 4.99552 -2.21607 0
M  V30 31317 H 2915.83 0.769673 -0.302544 0
M  V30 31318 H 2918.38 1.14711 -1.25058 0
M  V30 31319 H 2917.15 2.8803 -2.64867 0
M  V30 31320 H 2916.77 3.79186 -1.19597 0
M  V30 31321 N 2917.77 0.940655 1.26449 0
M  V30 31322 C 2919 0.6038 1.9758 0
M  V30 31323 C 2919.41 -0.825365 1.70248 0
M  V30 31324 O 2918.75 -1.56187 0.967028 0
M  V30 31325 C 2918.81 0.765525 3.51255 0
M  V30 31326 C 2918.48 2.16922 4.02236 0
M  V30 31327 C 2919.47 3.14464 4.14015 0
M  V30 31328 C 2917.16 2.48966 4.36258 0
M  V30 31329 C 2919.15 4.42151 4.59109 0
M  V30 31330 C 2916.84 3.76885 4.81041 0
M  V30 31331 C 2917.84 4.73291 4.92428 0
M  V30 31332 O 2917.53 5.98932 5.36223 0
M  V30 31333 H 2917.26 0.226447 0.636944 0
M  V30 31334 H 2919.81 1.26353 1.61938 0
M  V30 31335 H 2918.04 0.0486636 3.86669 0
M  V30 31336 H 2919.73 0.431808 4.03597 0
M  V30 31337 H 2920.5 2.91032 3.87976 0
M  V30 31338 H 2916.38 1.74663 4.26631 0
M  V30 31339 H 2919.92 5.17402 4.67911 0
M  V30 31340 H 2915.82 4.0013 5.06524 0
M  V30 31341 H 2916.58 6.02107 5.54445 0
M  V30 31342 N 2919.25 -1.40821 0.707617 0
M  V30 31343 C 2920.19 -2.30746 0.0499435 0
M  V30 31344 C 2921.16 -1.4776 -0.758692 0
M  V30 31345 O 2922.35 -1.76519 -0.724268 0
M  V30 31346 C 2919.49 -3.33909 -0.871698 0
M  V30 31347 C 2918.6 -4.31967 -0.0533896 0
M  V30 31348 C 2917.74 -5.22198 -0.973777 0
M  V30 31349 C 2916.78 -6.11918 -0.149087 0
M  V30 31350 N 2915.91 -6.94594 -1.02392 0
M  V30 31351 H 2920.75 -2.86424 0.822512 0
M  V30 31352 H 2918.29 -1.41057 0.417309 0
M  V30 31353 H 2920.25 -3.92283 -1.42021 0
M  V30 31354 H 2918.88 -2.79753 -1.61053 0
M  V30 31355 H 2917.93 -3.75441 0.612208 0
M  V30 31356 H 2919.24 -4.95352 0.585441 0
M  V30 31357 H 2918.4 -5.85465 -1.59111 0
M  V30 31358 H 2917.14 -4.59068 -1.64644 0
M  V30 31359 H 2916.14 -5.4769 0.481234 0
M  V30 31360 H 2917.37 -6.77107 0.51996 0
M  V30 31361 H 2915.31 -6.3406 -1.68238 0
M  V30 31362 H 2915.23 -7.54713 -0.440944 0
M  V30 31363 H 2916.5 -7.62317 -1.62768 0
M  V30 31364 N 2920.73 -0.453223 -1.50943 0
M  V30 31365 C 2921.96 0.105945 -2.06328 0
M  V30 31366 C 2922.36 1.35632 -1.31912 0
M  V30 31367 O 2921.71 1.79797 -0.376639 0
M  V30 31368 C 2921.77 0.477805 -3.56311 0
M  V30 31369 C 2921.43 -0.668005 -4.52091 0
M  V30 31370 C 2922.43 -1.54484 -4.96418 0
M  V30 31371 C 2920.11 -0.853255 -4.95 0
M  V30 31372 C 2922.11 -2.59148 -5.82341 0
M  V30 31373 C 2919.8 -1.90315 -5.80709 0
M  V30 31374 C 2920.79 -2.77064 -6.24279 0
M  V30 31375 O 2920.48 -3.80248 -7.08284 0
M  V30 31376 H 2920.21 0.00426059 -0.675987 0
M  V30 31377 H 2922.77 -0.635772 -1.95313 0
M  V30 31378 H 2921 1.27246 -3.65165 0
M  V30 31379 H 2922.69 0.96997 -3.9414 0
M  V30 31380 H 2923.45 -1.41332 -4.63951 0
M  V30 31381 H 2919.33 -0.187563 -4.60618 0
M  V30 31382 H 2922.88 -3.2689 -6.1627 0
M  V30 31383 H 2918.77 -2.0348 -6.1259 0
M  V30 31384 H 2919.54 -3.7702 -7.26497 0
M  V30 31385 N 2922.2 1.56509 -0.185151 0
M  V30 31386 C 2923.43 2.01381 0.461434 0
M  V30 31387 C 2923.84 1.06447 1.56415 0
M  V30 31388 O 2923.18 0.0597837 1.83603 0
M  V30 31389 C 2923.25 3.42665 1.08725 0
M  V30 31390 C 2922.91 4.5683 0.1245 0
M  V30 31391 C 2923.91 5.15663 -0.662386 0
M  V30 31392 C 2921.59 5.02297 0.0163064 0
M  V30 31393 C 2923.59 6.18404 -1.54453 0
M  V30 31394 C 2921.27 6.04884 -0.869408 0
M  V30 31395 C 2922.27 6.6281 -1.6484 0
M  V30 31396 O 2921.96 7.63405 -2.51929 0
M  V30 31397 H 2921.69 0.665049 0.121188 0
M  V30 31398 H 2924.25 2.03369 -0.288154 0
M  V30 31399 H 2922.48 3.37632 1.88524 0
M  V30 31400 H 2924.16 3.71405 1.63746 0
M  V30 31401 H 2924.93 4.8141 -0.589047 0
M  V30 31402 H 2920.81 4.56914 0.61245 0
M  V30 31403 H 2924.35 6.63544 -2.15301 0
M  V30 31404 H 2920.25 6.38562 -0.943898 0
M  V30 31405 H 2921.02 7.80784 -2.45598 0
M  V30 31406 N 2923.68 -0.0885089 1.57351 0
M  V30 31407 C 2924.93 -0.790791 1.86421 0
M  V30 31408 C 2925.26 -1.78411 0.774593 0
M  V30 31409 O 2924.51 -1.9433 -0.231156 0
M  V30 31410 C 2924.81 -1.54874 3.22101 0
M  V30 31411 C 2924.48 -0.696946 4.45481 0
M  V30 31412 C 2923.14 -0.462153 4.78976 0
M  V30 31413 C 2925.49 -0.105223 5.21094 0
M  V30 31414 C 2922.82 0.374119 5.85506 0
M  V30 31415 C 2925.17 0.718409 6.28507 0
M  V30 31416 C 2923.83 0.963232 6.60514 0
M  V30 31417 H 2923.1 -0.289371 0.682162 0
M  V30 31418 H 2925.75 -0.0520625 1.91429 0
M  V30 31419 H 2924.06 -2.35922 3.12807 0
M  V30 31420 H 2925.75 -2.09663 3.41822 0
M  V30 31421 H 2922.34 -0.890064 4.19256 0
M  V30 31422 H 2926.53 -0.273769 4.95544 0
M  V30 31423 H 2921.78 0.572713 6.08712 0
M  V30 31424 H 2925.96 1.18374 6.86266 0
M  V30 31425 H 2923.58 1.61303 7.4289 0
M  V30 31426 N 2925.16 -1.53445 -0.359498 0
M  V30 31427 C 2926.11 -1.8099 -1.46101 0
M  V30 31428 C 2927.1 -0.679378 -1.5518 0
M  V30 31429 O 2928.31 -0.862433 -1.57994 0
M  V30 31430 H 2924.68 -0.573154 -0.486825 0
M  V30 31431 H 2926.65 -2.73175 -1.20075 0
M  V30 31432 C 2925.4 -2.02213 -2.82852 0
M  V30 31433 H 2924.73 -2.88648 -2.76626 0
M  V30 31434 H 2926.17 -2.25461 -3.59087 0
M  V30 31435 C 2924.62 -0.802988 -3.27191 0
M  V30 31436 O 2925.15 0.00537225 -4.017 0
M  V30 31437 N 2923.36 -0.624707 -2.83806 0
M  V30 31438 H 2922.91 -1.28368 -2.23337 0
M  V30 31439 H 2922.87 0.189586 -3.13828 0
M  V30 31440 N 2926.64 0.619637 -1.44908 0
M  V30 31441 C 2927.86 1.4108 -1.52024 0
M  V30 31442 C 2928.29 1.87503 -0.149793 0
M  V30 31443 O 2927.65 1.59428 0.863275 0
M  V30 31444 C 2927.69 2.59951 -2.49916 0
M  V30 31445 O 2926.8 3.60177 -2.00863 0
M  V30 31446 H 2926.14 0.421675 -0.512919 0
M  V30 31447 H 2928.67 0.755249 -1.9015 0
M  V30 31448 H 2928.68 3.0735 -2.68329 0
M  V30 31449 H 2927.35 2.25509 -3.49454 0
M  V30 31450 H 2925.93 3.1951 -1.92271 0
M  V30 31451 N 2928.12 1.31997 0.861075 0
M  V30 31452 C 2929.39 1.12817 1.59786 0
M  V30 31453 C 2929.77 -0.313846 2.08754 0
M  V30 31454 O 2929.12 -1.30942 1.8726 0
M  V30 31455 C 2929.33 2.15017 2.74898 0
M  V30 31456 C 2930.68 2.4801 3.44639 0
M  V30 31457 O 2931.7 2.13513 2.85115 0
M  V30 31458 O 2930.56 3.07121 4.52039 0
M  V30 31459 H 2927.66 0.434921 0.703401 0
M  V30 31460 H 2930.2 1.43506 0.905763 0
M  V30 31461 H 2928.97 3.11976 2.36193 0
M  V30 31462 H 2928.6 1.85285 3.51788 0
M  V30 31463 N 2929.59 -1.07653 1.15103 0
M  V30 31464 C 2930.84 -1.79834 0.92218 0
M  V30 31465 C 2931.16 -1.87015 -0.552314 0
M  V30 31466 O 2930.43 -1.36882 -1.40143 0
M  V30 31467 H 2929.01 -0.666058 0.338194 0
M  V30 31468 H 2931.68 -1.30113 1.45109 0
M  V30 31469 H 2930.77 -2.82395 1.32888 0
M  V30 31470 N 2931.07 -0.947348 -1.25949 0
M  V30 31471 C 2932.32 -0.599098 -1.93749 0
M  V30 31472 C 2932.65 0.860602 -1.7409 0
M  V30 31473 O 2931.93 1.61652 -1.08161 0
M  V30 31474 C 2932.21 -0.949695 -3.47351 0
M  V30 31475 C 2932.06 -2.46459 -3.76269 0
M  V30 31476 C 2933.38 -0.469519 -4.37588 0
M  V30 31477 H 2930.5 -0.219127 -0.703671 0
M  V30 31478 H 2933.14 -1.18268 -1.48703 0
M  V30 31479 H 2931.29 -0.453076 -3.85849 0
M  V30 31480 H 2932.96 -3.03441 -3.4745 0
M  V30 31481 H 2931.21 -2.90543 -3.22129 0
M  V30 31482 H 2931.88 -2.66041 -4.83659 0
M  V30 31483 H 2934.35 -0.895412 -4.06352 0
M  V30 31484 H 2933.23 -0.743595 -5.4384 0
M  V30 31485 H 2933.49 0.630541 -4.3758 0
M  V30 31486 N 2932.55 1.40444 -0.715075 0
M  V30 31487 C 2933.48 2.28197 -0.0112827 0
M  V30 31488 C 2934.46 1.4331 0.768185 0
M  V30 31489 O 2935.65 1.72722 0.754931 0
M  V30 31490 C 2932.77 3.23866 0.991396 0
M  V30 31491 C 2931.82 4.25424 0.302798 0
M  V30 31492 S 2932.65 5.26661 -0.968945 0
M  V30 31493 C 2933.81 6.25892 0.0316438 0
M  V30 31494 H 2934.04 2.8754 -0.755518 0
M  V30 31495 H 2931.57 1.4587 -0.50608 0
M  V30 31496 H 2933.53 3.7951 1.56468 0
M  V30 31497 H 2932.19 2.63581 1.70833 0
M  V30 31498 H 2931.39 4.92711 1.06077 0
M  V30 31499 H 2930.99 3.73476 -0.197919 0
M  V30 31500 H 2933.28 6.71778 0.878646 0
M  V30 31501 H 2934.22 7.05486 -0.607822 0
M  V30 31502 H 2934.63 5.63115 0.395141 0
M  V30 31503 N 2934.03 0.461222 1.507 0
M  V30 31504 C 2934.96 -0.374204 2.26125 0
M  V30 31505 C 2935.97 -0.965692 1.31066 0
M  V30 31506 O 2937.16 -0.855774 1.56649 0
M  V30 31507 C 2934.26 -1.53785 3.01999 0
M  V30 31508 C 2933.44 -1.06094 4.24338 0
M  V30 31509 C 2932.49 -2.09748 4.82589 0
M  V30 31510 O 2931.52 -1.6821 5.43778 0
M  V30 31511 N 2932.72 -3.42467 4.68718 0
M  V30 31512 H 2935.49 0.272352 2.9846 0
M  V30 31513 H 2933.05 0.291443 1.59255 0
M  V30 31514 H 2935.04 -2.228 3.3785 0
M  V30 31515 H 2933.61 -2.08929 2.32524 0
M  V30 31516 H 2932.83 -0.197016 3.93707 0
M  V30 31517 H 2934.12 -0.720067 5.03679 0
M  V30 31518 H 2933.52 -3.78931 4.20033 0
M  V30 31519 H 2932.07 -4.07308 5.08865 0
M  V30 31520 N 2935.51 -1.56408 0.193449 0
M  V30 31521 C 2936.45 -2.19015 -0.728085 0
M  V30 31522 C 2937.42 -1.13688 -1.21096 0
M  V30 31523 O 2938.61 -1.41932 -1.27515 0
M  V30 31524 C 2935.75 -2.85224 -1.94272 0
M  V30 31525 C 2934.86 -4.05072 -1.50136 0
M  V30 31526 C 2934 -4.59142 -2.67137 0
M  V30 31527 C 2933.04 -5.71352 -2.19599 0
M  V30 31528 N 2932.17 -6.19835 -3.29772 0
M  V30 31529 H 2937.01 -2.9741 -0.187447 0
M  V30 31530 H 2934.55 -1.46878 -0.0807806 0
M  V30 31531 H 2936.51 -3.21779 -2.65545 0
M  V30 31532 H 2935.14 -2.09395 -2.4567 0
M  V30 31533 H 2934.19 -3.7419 -0.684558 0
M  V30 31534 H 2935.5 -4.86234 -1.11258 0
M  V30 31535 H 2934.66 -4.97994 -3.46535 0
M  V30 31536 H 2933.39 -3.77084 -3.09288 0
M  V30 31537 H 2932.4 -5.32029 -1.38654 0
M  V30 31538 H 2933.62 -6.55226 -1.78481 0
M  V30 31539 H 2931.57 -5.40699 -3.71457 0
M  V30 31540 H 2931.49 -6.96044 -2.95057 0
M  V30 31541 H 2932.76 -6.63341 -4.09389 0
M  V30 31542 N 2936.98 0.0801629 -1.57396 0
M  V30 31543 C 2938.23 0.779351 -1.86469 0
M  V30 31544 C 2938.55 1.78533 -0.784274 0
M  V30 31545 O 2937.82 1.94996 0.187952 0
M  V30 31546 H 2936.4 0.290818 -0.688065 0
M  V30 31547 H 2939.07 0.0582406 -1.94813 0
M  V30 31548 H 2938.16 1.30073 -2.83703 0
M  V30 31549 N 2938.46 1.53634 0.351355 0
M  V30 31550 C 2939.71 1.70503 1.09247 0
M  V30 31551 C 2940.04 0.464156 1.8888 0
M  V30 31552 O 2939.29 -0.554044 1.87693 0
M  V30 31553 C 2939.59 2.91537 2.06739 0
M  V30 31554 C 2939.26 4.27464 1.43476 0
M  V30 31555 C 2937.92 4.64424 1.25952 0
M  V30 31556 C 2940.27 5.11935 0.978346 0
M  V30 31557 C 2937.6 5.83479 0.613914 0
M  V30 31558 C 2939.95 6.31649 0.346684 0
M  V30 31559 C 2938.62 6.6731 0.159053 0
M  V30 31560 H 2937.89 0.623916 0.399762 0
M  V30 31561 H 2940.53 1.8784 0.372623 0
M  V30 31562 H 2938.84 2.68772 2.85077 0
M  V30 31563 H 2940.53 3.01783 2.6406 0
M  V30 31564 H 2937.12 3.9837 1.58113 0
M  V30 31565 H 2941.31 4.83919 1.10162 0
M  V30 31566 H 2936.56 6.09689 0.457086 0
M  V30 31567 H 2940.74 6.96398 -0.0151088 0
M  V30 31568 H 2938.37 7.59425 -0.343262 0
M  V30 31569 N 2939.94 -0.611943 1.45234 0
M  V30 31570 C 2941.19 -1.3731 1.49244 0
M  V30 31571 C 2941.52 -1.93751 0.131997 0
M  V30 31572 O 2940.79 -1.74799 -0.852968 0
M  V30 31573 C 2941.08 -2.52424 2.56816 0
M  V30 31574 C 2940.93 -2.01208 4.02288 0
M  V30 31575 C 2942.25 -3.54567 2.60711 0
M  V30 31576 H 2939.37 -0.497915 0.543369 0
M  V30 31577 H 2942.01 -0.690211 1.7702 0
M  V30 31578 H 2940.16 -3.10678 2.33262 0
M  V30 31579 H 2941.83 -1.47636 4.37037 0
M  V30 31580 H 2940.08 -1.32241 4.13152 0
M  V30 31581 H 2940.75 -2.84169 4.73235 0
M  V30 31582 H 2943.22 -3.06146 2.81805 0
M  V30 31583 H 2942.1 -4.32608 3.37849 0
M  V30 31584 H 2942.36 -4.099 1.65634 0
M  V30 31585 N 2941.42 -1.32452 -0.854063 0
M  V30 31586 C 2942.64 -1.26188 -1.64594 0
M  V30 31587 C 2943.07 0.167041 -1.87357 0
M  V30 31588 O 2942.43 1.11862 -1.42677 0
M  V30 31589 C 2942.47 -2.0274 -2.9821 0
M  V30 31590 O 2941.58 -1.37561 -3.88781 0
M  V30 31591 H 2940.92 -0.434868 -0.501783 0
M  V30 31592 H 2943.45 -1.74777 -1.06369 0
M  V30 31593 H 2943.46 -2.12936 -3.48026 0
M  V30 31594 H 2942.13 -3.06647 -2.80964 0
M  V30 31595 H 2940.71 -1.35916 -3.47248 0
M  V30 31596 N 2942.9 1.07041 -1.15672 0
M  V30 31597 C 2944.15 1.7908 -0.92807 0
M  V30 31598 C 2944.46 1.87827 0.545935 0
M  V30 31599 O 2945.67 2.56419 0.892262 0
M  V30 31600 C 2944.12 3.21826 -1.61109 0
M  V30 31601 C 2943.73 3.2127 -3.12233 0
M  V30 31602 C 2945.47 3.98452 -1.46411 0
M  V30 31603 C 2943.38 4.58688 -3.73308 0
M  V30 31604 H 2942.31 0.671169 -0.343582 0
M  V30 31605 H 2944.96 1.2012 -1.38721 0
M  V30 31606 H 2943.34 3.80998 -1.07965 0
M  V30 31607 H 2944.52 2.71724 -3.72159 0
M  V30 31608 H 2942.83 2.58141 -3.26729 0
M  V30 31609 H 2945.43 5.00021 -1.89429 0
M  V30 31610 H 2945.77 4.14256 -0.412023 0
M  V30 31611 H 2946.31 3.45783 -1.96669 0
M  V30 31612 H 2943.04 4.48089 -4.78431 0
M  V30 31613 H 2942.56 5.08459 -3.18166 0
M  V30 31614 H 2944.24 5.27654 -3.74419 0
M  V30 31615 N 2944.38 0.954014 1.25445 0
M  V30 31616 C 2945.32 0.46482 2.27908 0
M  V30 31617 C 2946.32 -0.464578 1.62905 0
M  V30 31618 O 2947.52 -0.341376 1.76733 0
M  V30 31619 H 2943.9 0.131811 0.740358 0
M  V30 31620 H 2945.87 1.34127 2.66557 0
M  V30 31621 C 2944.62 -0.242528 3.46853 0
M  V30 31622 H 2943.94 0.463488 3.97104 0
M  V30 31623 H 2945.38 -0.548845 4.20433 0
M  V30 31624 C 2943.84 -1.46482 3.03389 0
M  V30 31625 O 2944.37 -2.56257 3.09347 0
M  V30 31626 N 2942.58 -1.32595 2.58587 0
M  V30 31627 H 2942.12 -0.432789 2.53938 0
M  V30 31628 H 2942.08 -2.14493 2.2987 0
M  V30 31629 N 2945.85 -1.40063 0.722513 0
M  V30 31630 C 2947.13 -1.94657 0.191863 0
M  V30 31631 C 2947.51 -1.6602 -1.30386 0
M  V30 31632 O 2946.86 -0.981624 -2.0634 0
M  V30 31633 C 2947.07 -3.45223 0.512039 0
M  V30 31634 C 2948.42 -4.2216 0.454501 0
M  V30 31635 O 2949.44 -3.53365 0.4485 0
M  V30 31636 O 2948.3 -5.44741 0.438082 0
M  V30 31637 H 2945.39 -0.826426 0.0307966 0
M  V30 31638 H 2947.94 -1.49632 0.800519 0
M  V30 31639 H 2946.71 -3.59452 1.54628 0
M  V30 31640 H 2946.33 -3.974 -0.126227 0
M  V30 31641 N 2947.33 -0.469207 -1.50453 0
M  V30 31642 C 2948.28 0.339993 -2.30102 0
M  V30 31643 C 2949.27 0.992111 -1.37308 0
M  V30 31644 O 2950.48 0.923431 -1.54508 0
M  V30 31645 H 2946.85 0.128482 -0.740943 0
M  V30 31646 H 2948.83 -0.352196 -2.96314 0
M  V30 31647 C 2947.57 1.41047 -3.17807 0
M  V30 31648 H 2946.9 0.918055 -3.89117 0
M  V30 31649 H 2948.34 1.94927 -3.76536 0
M  V30 31650 C 2946.8 2.41136 -2.35277 0
M  V30 31651 O 2947.33 3.46366 -2.03454 0
M  V30 31652 N 2945.53 2.12807 -1.97893 0
M  V30 31653 H 2945.08 1.27257 -2.23972 0
M  V30 31654 H 2945.04 2.80009 -1.42976 0
M  V30 31655 N 2948.81 1.56303 -0.201741 0
M  V30 31656 C 2949.76 2.19398 0.71646 0
M  V30 31657 C 2950.73 1.14328 1.20492 0
M  V30 31658 O 2951.91 1.42606 1.2676 0
M  V30 31659 C 2949.05 2.8625 1.92757 0
M  V30 31660 C 2948.16 4.05862 1.47986 0
M  V30 31661 C 2947.3 4.60552 2.64698 0
M  V30 31662 C 2946.34 5.72508 2.16566 0
M  V30 31663 N 2945.48 6.21575 3.2648 0
M  V30 31664 H 2950.32 2.97505 0.171672 0
M  V30 31665 H 2947.85 1.46919 0.0729902 0
M  V30 31666 H 2949.81 3.23183 2.63835 0
M  V30 31667 H 2948.44 2.10695 2.44556 0
M  V30 31668 H 2947.49 3.74548 0.664704 0
M  V30 31669 H 2948.8 4.86817 1.08678 0
M  V30 31670 H 2947.96 4.99825 3.43889 0
M  V30 31671 H 2946.7 3.78719 3.07284 0
M  V30 31672 H 2945.7 5.32757 1.35831 0
M  V30 31673 H 2946.93 6.56164 1.75003 0
M  V30 31674 H 2944.87 5.42662 3.68584 0
M  V30 31675 H 2944.79 6.97599 2.91361 0
M  V30 31676 H 2946.06 6.65503 4.05865 0
M  V30 31677 N 2950.29 -0.0718147 1.57436 0
M  V30 31678 C 2951.24 -1.09226 2.00134 0
M  V30 31679 C 2952.22 -1.3448 0.883402 0
M  V30 31680 O 2953.41 -1.34781 1.14731 0
M  V30 31681 C 2950.54 -2.40601 2.4488 0
M  V30 31682 C 2949.63 -2.18621 3.63409 0
M  V30 31683 N 2950.02 -1.6657 4.77586 0
M  V30 31684 C 2948.32 -2.49094 3.69957 0
M  V30 31685 C 2949.02 -1.59405 5.59433 0
M  V30 31686 N 2947.99 -2.05455 5.03279 0
M  V30 31687 H 2951.8 -0.683135 2.8585 0
M  V30 31688 H 2949.31 -0.278886 1.59987 0
M  V30 31689 H 2951.31 -3.14467 2.73708 0
M  V30 31690 H 2949.97 -2.82229 1.60551 0
M  V30 31691 H 2950.98 -1.35435 4.99878 0
M  V30 31692 H 2947.66 -2.94089 2.96341 0
M  V30 31693 H 2949.05 -1.20015 6.61095 0
M  V30 31694 N 2951.77 -1.53818 -0.343203 0
M  V30 31695 C 2953 -1.74765 -1.10185 0
M  V30 31696 C 2953.4 -0.486889 -1.82828 0
M  V30 31697 O 2952.75 0.551167 -1.75237 0
M  V30 31698 C 2952.81 -2.87379 -2.15995 0
M  V30 31699 C 2952.47 -4.26972 -1.62924 0
M  V30 31700 C 2953.47 -5.08529 -1.08138 0
M  V30 31701 C 2951.15 -4.73457 -1.6776 0
M  V30 31702 C 2953.15 -6.34673 -0.588927 0
M  V30 31703 C 2950.84 -5.99574 -1.18127 0
M  V30 31704 C 2951.83 -6.80015 -0.63786 0
M  V30 31705 O 2951.52 -8.03762 -0.148931 0
M  V30 31706 H 2951.25 -0.587475 -0.334439 0
M  V30 31707 H 2953.81 -2.01446 -0.401073 0
M  V30 31708 H 2952.04 -2.56223 -2.89632 0
M  V30 31709 H 2953.73 -2.96292 -2.77427 0
M  V30 31710 H 2954.49 -4.73779 -1.03723 0
M  V30 31711 H 2950.37 -4.10903 -2.08997 0
M  V30 31712 H 2953.92 -6.97407 -0.16411 0
M  V30 31713 H 2949.81 -6.33819 -1.22243 0
M  V30 31714 H 2950.58 -8.18067 -0.266188 0
M  V30 31715 N 2953.24 0.604233 -1.45557 0
M  V30 31716 C 2954.49 1.36314 -1.49749 0
M  V30 31717 C 2954.82 1.93992 -0.14055 0
M  V30 31718 O 2954.07 1.75732 0.861213 0
M  V30 31719 C 2954.37 2.52738 -2.52702 0
M  V30 31720 C 2954.04 2.13188 -3.97318 0
M  V30 31721 C 2952.7 2.02115 -4.36695 0
M  V30 31722 C 2955.05 1.82371 -4.88252 0
M  V30 31723 C 2952.38 1.58453 -5.64898 0
M  V30 31724 C 2954.73 1.40194 -6.1687 0
M  V30 31725 C 2953.4 1.27683 -6.55174 0
M  V30 31726 H 2952.67 0.49881 -0.547969 0
M  V30 31727 H 2955.31 0.682611 -1.78921 0
M  V30 31728 H 2953.62 3.26144 -2.17111 0
M  V30 31729 H 2955.32 3.10966 -2.53182 0
M  V30 31730 H 2951.91 2.22733 -3.6618 0
M  V30 31731 H 2956.09 1.89821 -4.58565 0
M  V30 31732 H 2951.35 1.47392 -5.93368 0
M  V30 31733 H 2955.52 1.15396 -6.86773 0
M  V30 31734 H 2953.15 0.936242 -7.54413 0
M  V30 31735 N 2954.72 1.32903 0.847027 0
M  V30 31736 C 2956 1.14506 1.58581 0
M  V30 31737 C 2956.38 -0.291687 2.09075 0
M  V30 31738 O 2955.73 -1.28949 1.88638 0
M  V30 31739 C 2955.94 2.17921 2.72601 0
M  V30 31740 C 2957.28 2.51652 3.41989 0
M  V30 31741 O 2958.31 2.16525 2.82834 0
M  V30 31742 O 2957.17 3.11898 4.48756 0
M  V30 31743 H 2954.26 0.442357 0.698748 0
M  V30 31744 H 2956.81 1.44459 0.890491 0
M  V30 31745 H 2955.58 3.14463 2.3287 0
M  V30 31746 H 2955.2 1.89006 3.49803 0
M  V30 31747 N 2956.2 -1.06426 1.16238 0
M  V30 31748 C 2957.48 -1.76005 0.853325 0
M  V30 31749 C 2957.86 -2.00872 -0.649127 0
M  V30 31750 O 2957.2 -1.63475 -1.5965 0
M  V30 31751 C 2957.41 -3.06203 1.67454 0
M  V30 31752 C 2958.76 -3.80381 1.88667 0
M  V30 31753 O 2959.79 -3.1604 1.64308 0
M  V30 31754 O 2958.65 -4.95964 2.29526 0
M  V30 31755 H 2955.74 -0.764762 0.314751 0
M  V30 31756 H 2958.29 -1.12706 1.26867 0
M  V30 31757 H 2957.06 -2.8378 2.69416 0
M  V30 31758 H 2956.68 -3.77236 1.25614 0
M  V30 31759 N 2957.68 -0.960653 -1.24937 0
M  V30 31760 C 2958.9 -0.635643 -1.97419 0
M  V30 31761 C 2959.33 0.786707 -1.70858 0
M  V30 31762 O 2958.69 1.5329 -0.96809 0
M  V30 31763 C 2958.73 -0.907833 -3.48985 0
M  V30 31764 O 2957.84 0.0103328 -4.12399 0
M  V30 31765 H 2957.18 -0.241038 -0.618706 0
M  V30 31766 H 2959.71 -1.28889 -1.58899 0
M  V30 31767 H 2959.72 -0.836523 -3.99332 0
M  V30 31768 H 2958.39 -1.94446 -3.67646 0
M  V30 31769 H 2956.97 -0.113696 -3.72727 0
M  V30 31770 N 2959.16 1.39677 -0.729931 0
M  V30 31771 C 2960.4 2.00219 -0.275112 0
M  V30 31772 C 2960.73 1.58201 1.14007 0
M  V30 31773 O 2960 0.827935 1.77544 0
M  V30 31774 H 2958.58 0.740447 -0.0987258 0
M  V30 31775 H 2961.24 1.70802 -0.93876 0
M  V30 31776 H 2960.33 3.1046 -0.3195 0
M  V30 31777 N 2960.63 0.47718 1.50202 0
M  V30 31778 C 2961.88 -0.0758151 2.02658 0
M  V30 31779 C 2962.21 -1.38822 1.35802 0
M  V30 31780 O 2961.49 -1.88337 0.485729 0
M  V30 31781 C 2961.77 -0.253275 3.59208 0
M  V30 31782 C 2961.62 1.08057 4.36628 0
M  V30 31783 C 2962.94 -1.00501 4.28471 0
M  V30 31784 H 2960.06 -0.0260791 0.736538 0
M  V30 31785 H 2962.7 0.623956 1.79462 0
M  V30 31786 H 2960.85 -0.849312 3.79103 0
M  V30 31787 H 2962.53 1.71366 4.28289 0
M  V30 31788 H 2960.77 1.67573 4.00127 0
M  V30 31789 H 2961.44 0.909978 5.44448 0
M  V30 31790 H 2963.92 -0.499745 4.13088 0
M  V30 31791 H 2962.79 -1.09799 5.37806 0
M  V30 31792 H 2963.05 -2.04307 3.9206 0
M  V30 31793 N 2962.11 -1.56194 0.210027 0
M  V30 31794 C 2963.05 -2.15713 -0.744508 0
M  V30 31795 C 2964.02 -1.09814 -1.19915 0
M  V30 31796 O 2965.21 -1.38009 -1.28397 0
M  V30 31797 C 2962.33 -2.72811 -2.00728 0
M  V30 31798 C 2961.38 -3.91434 -1.69356 0
M  V30 31799 S 2962.21 -5.29052 -0.828486 0
M  V30 31800 C 2963.37 -5.89581 -2.10108 0
M  V30 31801 H 2963.6 -2.96341 -0.238584 0
M  V30 31802 H 2961.14 -1.54399 -0.00515163 0
M  V30 31803 H 2963.09 -3.06349 -2.73241 0
M  V30 31804 H 2961.75 -1.92198 -2.48433 0
M  V30 31805 H 2960.95 -4.29847 -2.63149 0
M  V30 31806 H 2960.55 -3.58983 -1.04915 0
M  V30 31807 H 2962.84 -6.04853 -3.05221 0
M  V30 31808 H 2963.78 -6.85852 -1.76104 0
M  V30 31809 H 2964.19 -5.18312 -2.23635 0
M  V30 31810 N 2963.59 0.0634645 -1.57472 0
M  V30 31811 C 2964.54 1.07454 -2.0426 0
M  V30 31812 C 2965.51 1.37972 -0.924828 0
M  V30 31813 O 2966.69 1.48897 -1.19307 0
M  V30 31814 C 2963.83 2.38067 -2.49836 0
M  V30 31815 C 2962.95 2.14007 -3.75266 0
M  V30 31816 C 2962.08 3.38243 -4.09591 0
M  V30 31817 C 2961.12 3.09585 -5.28037 0
M  V30 31818 N 2960.26 4.26175 -5.5796 0
M  V30 31819 H 2965.1 0.668575 -2.90403 0
M  V30 31820 H 2962.63 0.318546 -1.4361 0
M  V30 31821 H 2964.59 3.14336 -2.74315 0
M  V30 31822 H 2963.22 2.7645 -1.66659 0
M  V30 31823 H 2962.27 1.28392 -3.58078 0
M  V30 31824 H 2963.59 1.88844 -4.6167 0
M  V30 31825 H 2962.74 4.22903 -4.35015 0
M  V30 31826 H 2961.48 3.6649 -3.21771 0
M  V30 31827 H 2960.48 2.23323 -5.02401 0
M  V30 31828 H 2961.71 2.82653 -6.17482 0
M  V30 31829 H 2959.65 4.54437 -4.73099 0
M  V30 31830 H 2959.57 4.04315 -6.388 0
M  V30 31831 H 2960.84 5.11807 -5.8794 0
M  V30 31832 N 2965.07 1.53998 0.33504 0
M  V30 31833 C 2966.31 1.71907 1.07591 0
M  V30 31834 C 2966.65 0.485297 1.88039 0
M  V30 31835 O 2965.92 -0.51772 1.87483 0
M  V30 31836 C 2966.21 2.98775 2.01011 0
M  V30 31837 C 2966.06 4.32379 1.23969 0
M  V30 31838 C 2967.38 3.21348 3.00705 0
M  V30 31839 H 2964.5 0.625511 0.389749 0
M  V30 31840 H 2967.14 1.8668 0.353651 0
M  V30 31841 H 2965.29 2.86312 2.62598 0
M  V30 31842 H 2966.96 4.56708 0.649303 0
M  V30 31843 H 2965.2 4.30403 0.541803 0
M  V30 31844 H 2965.87 5.17346 1.92503 0
M  V30 31845 H 2968.35 3.33199 2.49235 0
M  V30 31846 H 2967.23 4.11497 3.63265 0
M  V30 31847 H 2967.49 2.3804 3.72545 0
M  V30 31848 N 2966.55 -0.596505 1.45875 0
M  V30 31849 C 2967.79 -1.35251 1.50172 0
M  V30 31850 C 2968.12 -1.94428 0.14928 0
M  V30 31851 O 2967.39 -1.7779 -0.822648 0
M  V30 31852 H 2965.97 -0.502129 0.55306 0
M  V30 31853 H 2968.63 -0.699639 1.81909 0
M  V30 31854 H 2967.72 -2.16628 2.24674 0
M  V30 31855 N 2968.02 -1.3335 -0.839967 0
M  V30 31856 C 2969.25 -1.27596 -1.6249 0
M  V30 31857 C 2969.66 0.155564 -1.88559 0
M  V30 31858 O 2969.01 1.1078 -1.46539 0
M  V30 31859 C 2969.07 -1.98121 -2.9998 0
M  V30 31860 C 2968.73 -3.4743 -2.96886 0
M  V30 31861 C 2969.73 -4.42653 -2.7268 0
M  V30 31862 C 2967.41 -3.8959 -3.17056 0
M  V30 31863 C 2969.41 -5.78009 -2.68671 0
M  V30 31864 C 2967.09 -5.25051 -3.12673 0
M  V30 31865 C 2968.09 -6.19072 -2.88511 0
M  V30 31866 O 2967.78 -7.52052 -2.84029 0
M  V30 31867 H 2967.51 -0.440991 -0.512351 0
M  V30 31868 H 2970.07 -1.76267 -1.05447 0
M  V30 31869 H 2968.3 -1.4404 -3.58872 0
M  V30 31870 H 2969.99 -1.85881 -3.60837 0
M  V30 31871 H 2970.75 -4.11405 -2.56849 0
M  V30 31872 H 2966.63 -3.16818 -3.34884 0
M  V30 31873 H 2970.17 -6.51368 -2.49732 0
M  V30 31874 H 2966.07 -5.55924 -3.28053 0
M  V30 31875 H 2966.84 -7.61587 -2.99879 0
M  V30 31876 N 2969.5 1.05808 -1.16801 0
M  V30 31877 C 2970.73 1.82385 -0.976903 0
M  V30 31878 C 2971.15 1.8273 0.474885 0
M  V30 31879 O 2970.5 1.25004 1.32967 0
M  V30 31880 C 2970.55 3.28781 -1.50285 0
M  V30 31881 O 2970.27 3.28573 -2.89778 0
M  V30 31882 C 2971.78 4.22069 -1.35545 0
M  V30 31883 H 2969 0.574921 -0.345987 0
M  V30 31884 H 2971.54 1.33464 -1.54944 0
M  V30 31885 H 2969.69 3.74995 -0.97248 0
M  V30 31886 H 2970.11 4.20153 -3.13961 0
M  V30 31887 H 2971.58 5.22795 -1.77169 0
M  V30 31888 H 2972.06 4.38163 -0.301675 0
M  V30 31889 H 2972.67 3.81704 -1.87568 0
M  V30 31890 N 2970.98 0.967265 1.24426 0
M  V30 31891 C 2971.89 0.504633 2.29108 0
M  V30 31892 C 2972.91 -0.434195 1.68496 0
M  V30 31893 O 2974.08 -0.307344 1.99041 0
M  V30 31894 C 2971.15 -0.198212 3.46133 0
M  V30 31895 C 2970.21 0.780388 4.22147 0
M  V30 31896 C 2969.44 0.110989 5.33585 0
M  V30 31897 O 2969.66 -1.10078 5.59678 0
M  V30 31898 O 2968.6 0.802928 5.9652 0
M  V30 31899 H 2972.42 1.37487 2.70797 0
M  V30 31900 H 2970.01 0.734283 1.3011 0
M  V30 31901 H 2971.89 -0.593051 4.17206 0
M  V30 31902 H 2970.57 -1.04342 3.06422 0
M  V30 31903 H 2969.47 1.22568 3.53452 0
M  V30 31904 H 2970.81 1.594 4.65674 0
M  V30 31905 N 2972.46 -1.39288 0.737328 0
M  V30 31906 C 2973.71 -1.99702 0.283164 0
M  V30 31907 C 2974.02 -1.59178 -1.13674 0
M  V30 31908 O 2975.23 -2.12445 -1.69054 0
M  V30 31909 C 2973.68 -3.57008 0.455324 0
M  V30 31910 C 2973.29 -4.06494 1.88326 0
M  V30 31911 C 2975.04 -4.24453 0.0630532 0
M  V30 31912 C 2972.94 -5.56381 2.00485 0
M  V30 31913 H 2971.87 -0.747053 0.102119 0
M  V30 31914 H 2974.52 -1.59258 0.911543 0
M  V30 31915 H 2972.91 -3.9526 -0.241987 0
M  V30 31916 H 2974.08 -3.79571 2.61272 0
M  V30 31917 H 2972.39 -3.51719 2.22896 0
M  V30 31918 H 2974.99 -5.34535 0.132881 0
M  V30 31919 H 2975.33 -4.04551 -0.982057 0
M  V30 31920 H 2975.87 -3.91383 0.711608 0
M  V30 31921 H 2972.61 -5.81166 3.03193 0
M  V30 31922 H 2972.13 -5.851 1.31979 0
M  V30 31923 H 2973.81 -6.21829 1.78711 0
M  V30 31924 N 2973.94 -0.485139 -1.49947 0
M  V30 31925 C 2975.21 0.127225 -1.95186 0
M  V30 31926 C 2975.59 1.55648 -1.42608 0
M  V30 31927 O 2974.94 2.19556 -0.633024 0
M  V30 31928 C 2975.15 0.0561503 -3.48955 0
M  V30 31929 C 2976.5 0.238032 -4.23932 0
M  V30 31930 O 2977.52 0.132083 -3.55955 0
M  V30 31931 O 2976.38 0.453562 -5.44615 0
M  V30 31932 H 2973.48 0.104 -0.820435 0
M  V30 31933 H 2976.02 -0.546545 -1.60658 0
M  V30 31934 H 2974.8 -0.941188 -3.79812 0
M  V30 31935 H 2974.42 0.770765 -3.90058 0
M  V30 31936 N 2975.42 1.56081 -0.218307 0
M  V30 31937 C 2976.66 1.97826 0.413454 0
M  V30 31938 C 2976.98 1.1071 1.60525 0
M  V30 31939 O 2976.25 0.183413 1.9504 0
M  V30 31940 H 2974.83 0.730584 0.155744 0
M  V30 31941 H 2977.5 1.92412 -0.310447 0
M  V30 31942 H 2976.59 3.03152 0.741971 0
M  V30 31943 N 2976.89 -0.0551124 1.57504 0
M  V30 31944 C 2977.84 -1.06369 2.04827 0
M  V30 31945 C 2978.81 -1.37479 0.932132 0
M  V30 31946 O 2980 -1.48263 1.20095 0
M  V30 31947 C 2977.14 -2.36739 2.51095 0
M  V30 31948 C 2976.25 -2.12014 3.76396 0
M  V30 31949 C 2975.38 -3.36066 4.11379 0
M  V30 31950 C 2974.42 -3.0678 5.29672 0
M  V30 31951 N 2973.56 -4.2321 5.60212 0
M  V30 31952 H 2978.4 -0.653165 2.90754 0
M  V30 31953 H 2975.94 -0.310926 1.43776 0
M  V30 31954 H 2977.89 -3.12877 2.75978 0
M  V30 31955 H 2976.52 -2.75562 1.68123 0
M  V30 31956 H 2975.58 -1.26492 3.58753 0
M  V30 31957 H 2976.89 -1.86393 4.62665 0
M  V30 31958 H 2976.04 -4.2059 4.37252 0
M  V30 31959 H 2974.78 -3.64778 3.2371 0
M  V30 31960 H 2973.79 -2.20656 5.03578 0
M  V30 31961 H 2975.01 -2.79374 6.18973 0
M  V30 31962 H 2972.96 -4.51922 4.75503 0
M  V30 31963 H 2972.87 -4.00921 6.40935 0
M  V30 31964 H 2974.14 -5.08682 5.90646 0
M  V30 31965 N 2978.37 -1.54173 -0.326869 0
M  V30 31966 C 2979.32 -1.79709 -1.40316 0
M  V30 31967 C 2980.31 -0.652964 -1.47055 0
M  V30 31968 O 2981.5 -0.912867 -1.51643 0
M  V30 31969 C 2978.63 -2.02496 -2.77219 0
M  V30 31970 C 2977.71 -3.23021 -2.74806 0
M  V30 31971 N 2978.1 -4.44143 -2.42014 0
M  V30 31972 C 2976.4 -3.24528 -3.05938 0
M  V30 31973 C 2977.1 -5.26066 -2.48253 0
M  V30 31974 N 2976.08 -4.63171 -2.84559 0
M  V30 31975 H 2979.88 -2.70937 -1.13887 0
M  V30 31976 H 2977.39 -1.53323 -0.535333 0
M  V30 31977 H 2979.39 -2.18929 -3.54789 0
M  V30 31978 H 2978.05 -1.1252 -3.04581 0
M  V30 31979 H 2979.06 -4.71201 -2.14918 0
M  V30 31980 H 2975.74 -2.44575 -3.38363 0
M  V30 31981 H 2977.13 -6.3278 -2.25919 0
M  V30 31982 N 2979.85 0.58876 -1.4619 0
M  V30 31983 C 2981.1 1.34719 -1.51186 0
M  V30 31984 C 2981.42 1.93832 -0.161118 0
M  V30 31985 O 2980.68 1.76635 0.842526 0
M  V30 31986 C 2980.98 2.50044 -2.55368 0
M  V30 31987 C 2980.64 2.08961 -3.99557 0
M  V30 31988 C 2979.31 1.97472 -4.38815 0
M  V30 31989 C 2981.66 1.77182 -4.90159 0
M  V30 31990 C 2978.99 1.52453 -5.66547 0
M  V30 31991 C 2981.34 1.33643 -6.18322 0
M  V30 31992 C 2980 1.20726 -6.56492 0
M  V30 31993 H 2979.27 0.49297 -0.553228 0
M  V30 31994 H 2981.92 0.663596 -1.79635 0
M  V30 31995 H 2980.22 3.23823 -2.20558 0
M  V30 31996 H 2981.92 3.08264 -2.56465 0
M  V30 31997 H 2978.51 2.18836 -3.68522 0
M  V30 31998 H 2982.7 1.84947 -4.60552 0
M  V30 31999 H 2977.95 1.4109 -5.94898 0
M  V30 32000 H 2982.13 1.08105 -6.87958 0
M  V30 32001 H 2979.75 0.856174 -7.55363 0
M  V30 32002 N 2981.33 1.33794 0.832883 0
M  V30 32003 C 2982.56 1.28456 1.61811 0
M  V30 32004 C 2982.97 -0.145562 1.88639 0
M  V30 32005 O 2982.31 -1.10001 1.47124 0
M  V30 32006 C 2982.37 1.99709 2.98925 0
M  V30 32007 C 2982.03 3.49 2.95039 0
M  V30 32008 C 2983.03 4.44093 2.70329 0
M  V30 32009 C 2980.72 3.91266 3.14986 0
M  V30 32010 C 2982.71 5.79426 2.65602 0
M  V30 32011 C 2980.4 5.26702 3.09884 0
M  V30 32012 C 2981.4 6.20593 2.85224 0
M  V30 32013 O 2981.08 7.53548 2.80037 0
M  V30 32014 H 2980.82 0.443702 0.510005 0
M  V30 32015 H 2983.37 1.76824 1.04511 0
M  V30 32016 H 2981.6 1.45941 3.58103 0
M  V30 32017 H 2983.29 1.87792 3.59846 0
M  V30 32018 H 2984.05 4.12761 2.54663 0
M  V30 32019 H 2979.93 3.1859 3.33199 0
M  V30 32020 H 2983.48 6.52683 2.46274 0
M  V30 32021 H 2979.37 5.57656 3.251 0
M  V30 32022 H 2980.14 7.63167 2.95836 0
M  V30 32023 N 2982.81 -1.05187 1.1736 0
M  V30 32024 C 2984.05 -1.78189 0.962019 0
M  V30 32025 C 2984.38 -1.87713 -0.50933 0
M  V30 32026 O 2983.64 -1.37331 -1.39423 0
M  V30 32027 C 2983.93 -3.22123 1.54827 0
M  V30 32028 C 2983.6 -3.32658 3.04384 0
M  V30 32029 C 2982.26 -3.3524 3.45207 0
M  V30 32030 C 2984.61 -3.33669 4.00392 0
M  V30 32031 C 2981.94 -3.36463 4.80635 0
M  V30 32032 C 2984.29 -3.36431 5.35721 0
M  V30 32033 C 2982.96 -3.373 5.76008 0
M  V30 32034 H 2982.23 -0.652041 0.352028 0
M  V30 32035 H 2984.88 -1.23624 1.46251 0
M  V30 32036 H 2983.18 -3.79616 0.969498 0
M  V30 32037 H 2984.88 -3.77229 1.36011 0
M  V30 32038 H 2981.47 -3.31361 2.71842 0
M  V30 32039 H 2985.65 -3.30876 3.69912 0
M  V30 32040 H 2980.91 -3.35446 5.11161 0
M  V30 32041 H 2985.08 -3.36162 6.09892 0
M  V30 32042 H 2982.71 -3.38001 6.80925 0
M  V30 32043 N 2984.28 -0.97385 -1.23911 0
M  V30 32044 C 2985.25 -0.513819 -2.23366 0
M  V30 32045 C 2986.25 0.392992 -1.55924 0
M  V30 32046 O 2987.44 0.187596 -1.73187 0
M  V30 32047 C 2984.57 0.255092 -3.39944 0
M  V30 32048 H 2985.76 -1.39312 -2.65579 0
M  V30 32049 H 2983.31 -0.759063 -1.36631 0
M  V30 32050 H 2984.05 1.15122 -3.03179 0
M  V30 32051 H 2983.83 -0.395742 -3.90098 0
M  V30 32052 H 2985.32 0.565769 -4.1375 0
M  V30 32053 N 2985.76 1.38895 -0.744705 0
M  V30 32054 C 2986.67 2.34328 -0.112933 0
M  V30 32055 C 2987.69 1.58818 0.710842 0
M  V30 32056 O 2988.86 1.91059 0.637059 0
M  V30 32057 C 2985.93 3.37896 0.776357 0
M  V30 32058 C 2984.99 4.29257 -0.0607754 0
M  V30 32059 C 2984.22 5.27878 0.786165 0
M  V30 32060 O 2984.45 5.33262 2.02454 0
M  V30 32061 O 2983.38 6.01535 0.209676 0
M  V30 32062 H 2987.21 2.90032 -0.900852 0
M  V30 32063 H 2984.79 1.40589 -0.505487 0
M  V30 32064 H 2986.67 4.01334 1.28489 0
M  V30 32065 H 2985.35 2.84562 1.54292 0
M  V30 32066 H 2984.25 3.69009 -0.615049 0
M  V30 32067 H 2985.59 4.85822 -0.789787 0
M  V30 32068 N 2987.24 0.493084 1.49688 0
M  V30 32069 C 2988.19 -0.303343 2.30614 0
M  V30 32070 C 2989.18 -0.970141 1.38869 0
M  V30 32071 O 2990.39 -0.898733 1.55958 0
M  V30 32072 H 2986.76 -0.116678 0.742893 0
M  V30 32073 H 2988.73 0.399292 2.95716 0
M  V30 32074 C 2987.48 -1.35973 3.20011 0
M  V30 32075 H 2986.81 -0.856034 3.90528 0
M  V30 32076 H 2988.25 -1.88912 3.79589 0
M  V30 32077 C 2986.71 -2.37362 2.39083 0
M  V30 32078 O 2987.24 -3.43085 2.08939 0
M  V30 32079 N 2985.44 -2.09632 2.01253 0
M  V30 32080 H 2984.99 -1.23678 2.25968 0
M  V30 32081 H 2984.95 -2.77699 1.47412 0
M  V30 32082 N 2988.72 -1.55963 0.226582 0
M  V30 32083 C 2989.97 -1.98042 -0.402957 0
M  V30 32084 C 2990.29 -1.1156 -1.59936 0
M  V30 32085 O 2989.56 -0.193754 -1.94939 0
M  V30 32086 H 2988.14 -0.7314 -0.151867 0
M  V30 32087 H 2990.8 -1.92244 0.320647 0
M  V30 32088 H 2989.9 -3.03541 -0.725883 0
M  V30 32089 N 2990.2 0.0467589 -1.57531 0
M  V30 32090 C 2991.11 1.07015 -2.0877 0
M  V30 32091 C 2992.12 1.40789 -1.02247 0
M  V30 32092 O 2993.3 1.50464 -1.33875 0
M  V30 32093 C 2990.36 2.35733 -2.54226 0
M  V30 32094 C 2989.42 2.08702 -3.75156 0
M  V30 32095 C 2988.66 3.31284 -4.18434 0
M  V30 32096 O 2988.88 4.41323 -3.61372 0
M  V30 32097 O 2987.81 3.18023 -5.11024 0
M  V30 32098 H 2991.64 0.66476 -2.96335 0
M  V30 32099 H 2989.23 0.262579 -1.47074 0
M  V30 32100 H 2991.11 3.1144 -2.83872 0
M  V30 32101 H 2989.78 2.75602 -1.69779 0
M  V30 32102 H 2988.69 1.3062 -3.50555 0
M  V30 32103 H 2990.02 1.737 -4.60532 0
M  V30 32104 N 2991.67 1.54344 0.318688 0
M  V30 32105 C 2992.61 1.78922 1.41641 0
M  V30 32106 C 2993.59 0.639447 1.49499 0
M  V30 32107 O 2994.77 0.877433 1.66833 0
M  V30 32108 C 2991.9 1.91015 2.79698 0
M  V30 32109 C 2990.94 3.13336 2.89348 0
M  V30 32110 S 2991.78 4.71828 2.53256 0
M  V30 32111 C 2992.93 4.86833 3.93375 0
M  V30 32112 H 2993.16 2.71749 1.2058 0
M  V30 32113 H 2990.7 1.4553 0.515803 0
M  V30 32114 H 2992.66 1.98667 3.59224 0
M  V30 32115 H 2991.32 0.991568 2.98038 0
M  V30 32116 H 2990.51 3.18547 3.90569 0
M  V30 32117 H 2990.11 3.04039 2.17799 0
M  V30 32118 H 2992.4 4.6977 4.88183 0
M  V30 32119 H 2993.35 5.88933 3.93145 0
M  V30 32120 H 2993.75 4.15104 3.82556 0
M  V30 32121 N 2993.15 -0.580999 1.465 0
M  V30 32122 C 2994.08 -1.70452 1.53228 0
M  V30 32123 C 2995.1 -1.57276 0.42047 0
M  V30 32124 O 2996.29 -1.6467 0.688917 0
M  V30 32125 C 2993.39 -3.08718 1.39808 0
M  V30 32126 C 2992.56 -3.4788 2.65138 0
M  V30 32127 C 2991.62 -4.65213 2.45894 0
M  V30 32128 O 2990.64 -4.70988 3.19624 0
M  V30 32129 N 2991.85 -5.602 1.5217 0
M  V30 32130 H 2994.61 -1.65134 2.50101 0
M  V30 32131 H 2992.17 -0.767025 1.42577 0
M  V30 32132 H 2994.16 -3.85008 1.24703 0
M  V30 32133 H 2992.73 -3.08394 0.511095 0
M  V30 32134 H 2991.95 -2.61278 2.95173 0
M  V30 32135 H 2993.24 -3.70811 3.48391 0
M  V30 32136 H 2992.64 -5.58272 0.913744 0
M  V30 32137 H 2991.2 -6.35914 1.43028 0
M  V30 32138 N 2994.63 -1.34234 -0.825776 0
M  V30 32139 C 2995.88 -1.25773 -1.57684 0
M  V30 32140 C 2996.19 0.171338 -1.94848 0
M  V30 32141 O 2997.4 0.378076 -2.68855 0
M  V30 32142 C 2995.85 -2.20459 -2.84474 0
M  V30 32143 C 2995.46 -3.68607 -2.54623 0
M  V30 32144 C 2997.21 -2.209 -3.62496 0
M  V30 32145 C 2995.11 -4.55171 -3.77589 0
M  V30 32146 H 2994.04 -0.467213 -0.591801 0
M  V30 32147 H 2996.69 -1.59381 -0.909393 0
M  V30 32148 H 2995.08 -1.79799 -3.52829 0
M  V30 32149 H 2996.25 -4.17788 -1.94397 0
M  V30 32150 H 2994.57 -3.70586 -1.89882 0
M  V30 32151 H 2997.16 -2.82797 -4.53795 0
M  V30 32152 H 2997.51 -1.20753 -3.98402 0
M  V30 32153 H 2998.04 -2.5999 -3.01081 0
M  V30 32154 H 2994.78 -5.56243 -3.46806 0
M  V30 32155 H 2994.3 -4.10727 -4.37108 0
M  V30 32156 H 2995.98 -4.69635 -4.4503 0
M  V30 32157 N 2996.11 1.04563 -1.17917 0
M  V30 32158 C 2997.36 1.77326 -0.969536 0
M  V30 32159 C 2997.68 1.88413 0.502536 0
M  V30 32160 O 2996.95 1.4055 1.36465 0
M  V30 32161 H 2995.53 0.656858 -0.355734 0
M  V30 32162 H 2998.19 1.2622 -1.48508 0
M  V30 32163 H 2997.29 2.78773 -1.40329 0
M  V30 32164 N 2997.59 0.980408 1.23393 0
M  V30 32165 C 2998.83 0.650256 1.92092 0
M  V30 32166 C 2999.17 -0.814142 1.7631 0
M  V30 32167 O 2998.44 -1.58728 1.12409 0
M  V30 32168 C 2998.72 1.04145 3.44711 0
M  V30 32169 C 2998.58 2.56348 3.69602 0
M  V30 32170 C 2999.9 0.585372 4.3619 0
M  V30 32171 H 2997.01 0.237707 0.697613 0
M  V30 32172 H 2999.66 1.22169 1.45515 0
M  V30 32173 H 2997.81 0.555218 3.84512 0
M  V30 32174 H 2999.48 3.12546 3.39282 0
M  V30 32175 H 2997.72 2.98981 3.14313 0
M  V30 32176 H 2998.39 2.78771 4.76436 0
M  V30 32177 H 3000.87 1.00283 4.03835 0
M  V30 32178 H 2999.74 0.887524 5.41677 0
M  V30 32179 H 3000.01 -0.514303 4.39098 0
M  V30 32180 N 2999.06 -1.38498 0.75206 0
M  V30 32181 C 3000.31 -2.00151 0.307538 0
M  V30 32182 C 3000.64 -1.59695 -1.1103 0
M  V30 32183 O 2999.89 -0.825156 -1.77453 0
M  V30 32184 C 3000.19 -3.55414 0.376218 0
M  V30 32185 C 2999.86 -4.15576 1.74949 0
M  V30 32186 C 2998.52 -4.31722 2.12532 0
M  V30 32187 C 3000.87 -4.48781 2.65039 0
M  V30 32188 C 2998.2 -4.78367 3.3968 0
M  V30 32189 C 3000.55 -4.96842 3.91575 0
M  V30 32190 C 2999.22 -5.11194 4.29229 0
M  V30 32191 H 2998.49 -0.732405 0.112536 0
M  V30 32192 H 3001.13 -1.65569 0.962242 0
M  V30 32193 H 2999.44 -3.90124 -0.362052 0
M  V30 32194 H 3001.14 -4.00998 0.013877 0
M  V30 32195 H 2997.73 -4.03423 1.44734 0
M  V30 32196 H 3001.91 -4.3591 2.37268 0
M  V30 32197 H 2997.17 -4.87664 3.68774 0
M  V30 32198 H 3001.34 -5.21504 4.61526 0
M  V30 32199 H 2998.97 -5.47098 5.27814 0
M  V30 32200 N 3000.54 -0.501015 -1.49424 0
M  V30 32201 C 3001.49 0.291108 -2.30771 0
M  V30 32202 C 3002.48 0.962763 -1.39382 0
M  V30 32203 O 3003.69 0.89045 -1.56432 0
M  V30 32204 H 3000.07 0.112737 -0.743501 0
M  V30 32205 H 3002.04 -0.414969 -2.95501 0
M  V30 32206 C 3000.79 1.34274 -3.20727 0
M  V30 32207 H 3000.11 0.835311 -3.90976 0
M  V30 32208 H 3001.55 1.86897 -3.80586 0
M  V30 32209 C 3000.01 2.36091 -2.40339 0
M  V30 32210 O 3000.54 3.41972 -2.10755 0
M  V30 32211 N 2998.74 2.08561 -2.02362 0
M  V30 32212 H 2998.29 1.22478 -2.26621 0
M  V30 32213 H 2998.25 2.76914 -1.48883 0
M  V30 32214 N 3002.02 1.5584 -0.234849 0
M  V30 32215 C 3003.25 2.03042 0.397709 0
M  V30 32216 C 3003.66 1.11439 1.52403 0
M  V30 32217 O 3003.02 0.126498 1.82061 0
M  V30 32218 C 3003.07 3.4968 0.916857 0
M  V30 32219 O 3002.79 4.37791 -0.16457 0
M  V30 32220 C 3004.29 4.12587 1.62132 0
M  V30 32221 H 3001.51 0.66411 0.0959097 0
M  V30 32222 H 3004.06 2.01392 -0.355192 0
M  V30 32223 H 3002.21 3.51903 1.61998 0
M  V30 32224 H 3002.63 5.24006 0.227702 0
M  V30 32225 H 3004.1 5.1692 1.93642 0
M  V30 32226 H 3004.58 3.58365 2.53912 0
M  V30 32227 H 3005.18 4.14252 0.963072 0
M  V30 32228 N 3003.5 -0.038404 1.57553 0
M  V30 32229 C 3004.41 -1.05906 2.09335 0
M  V30 32230 C 3005.43 -1.40245 1.02992 0
M  V30 32231 O 3006.6 -1.49752 1.34671 0
M  V30 32232 C 3003.67 -2.34382 2.55472 0
M  V30 32233 C 3002.73 -2.0671 3.76257 0
M  V30 32234 C 3001.96 -3.2906 4.20185 0
M  V30 32235 O 3002.18 -4.39401 3.63708 0
M  V30 32236 O 3001.12 -3.15308 5.12703 0
M  V30 32237 H 3004.94 -0.649035 2.96684 0
M  V30 32238 H 3002.53 -0.254776 1.47212 0
M  V30 32239 H 3004.41 -3.0993 2.85519 0
M  V30 32240 H 3003.09 -2.74698 1.71238 0
M  V30 32241 H 3001.99 -1.2876 3.51243 0
M  V30 32242 H 3003.33 -1.71255 4.61446 0
M  V30 32243 N 3004.98 -1.54511 -0.310498 0
M  V30 32244 C 3006.25 -1.64006 -1.0659 0
M  V30 32245 C 3006.63 -0.482252 -2.05518 0
M  V30 32246 O 3005.98 0.522081 -2.22456 0
M  V30 32247 C 3006.19 -3.01592 -1.75622 0
M  V30 32248 C 3007.54 -3.58085 -2.28167 0
M  V30 32249 O 3008.56 -3.03983 -1.85669 0
M  V30 32250 O 3007.42 -4.52793 -3.06008 0
M  V30 32251 H 3004.52 -0.664657 -0.492097 0
M  V30 32252 H 3007.06 -1.66857 -0.309345 0
M  V30 32253 H 3005.84 -3.77299 -1.03736 0
M  V30 32254 H 3005.46 -3.02478 -2.58056 0
M  V30 32255 N 3006.46 0.573222 -1.46806 0
M  V30 32256 C 3007.7 1.32844 -1.52305 0
M  V30 32257 C 3008.02 1.94166 -0.180193 0
M  V30 32258 O 3007.29 1.79076 0.794259 0
M  V30 32259 H 3005.87 0.493266 -0.560979 0
M  V30 32260 H 3008.54 0.67061 -1.83 0
M  V30 32261 H 3007.63 2.13027 -2.28092 0
M  V30 32262 N 3007.93 1.3467 0.818645 0
M  V30 32263 C 3009.18 1.27267 1.5751 0
M  V30 32264 C 3009.51 -0.156219 1.93872 0
M  V30 32265 O 3008.76 -1.11854 1.60584 0
M  V30 32266 C 3009.06 2.11309 2.88242 0
M  V30 32267 C 3008.73 3.60259 2.71153 0
M  V30 32268 C 3007.39 4.00863 2.662 0
M  V30 32269 C 3009.74 4.54823 2.5453 0
M  V30 32270 C 3007.07 5.34215 2.42551 0
M  V30 32271 C 3009.42 5.8836 2.32411 0
M  V30 32272 C 3008.09 6.28122 2.25873 0
M  V30 32273 H 3007.36 0.465702 0.57637 0
M  V30 32274 H 3010 1.66453 0.946871 0
M  V30 32275 H 3008.31 1.64965 3.55379 0
M  V30 32276 H 3010.01 2.02925 3.45865 0
M  V30 32277 H 3006.6 3.28032 2.7585 0
M  V30 32278 H 3010.78 4.24348 2.57376 0
M  V30 32279 H 3006.04 5.64037 2.3595 0
M  V30 32280 H 3010.21 6.61222 2.18536 0
M  V30 32281 H 3007.84 7.31387 2.07309 0
M  V30 32282 N 3009.41 -1.03936 1.1847 0
M  V30 32283 C 3010.36 -2.11978 0.912897 0
M  V30 32284 C 3011.33 -1.65437 -0.148211 0
M  V30 32285 O 3012.51 -1.90798 -0.00829747 0
M  V30 32286 C 3009.65 -3.42204 0.446174 0
M  V30 32287 C 3008.77 -4.0235 1.57285 0
M  V30 32288 C 3007.9 -5.20543 1.05872 0
M  V30 32289 C 3006.94 -5.72722 2.16 0
M  V30 32290 N 3006.08 -6.82201 1.65971 0
M  V30 32291 H 3010.92 -2.34565 1.83802 0
M  V30 32292 H 3008.45 -1.15058 0.916524 0
M  V30 32293 H 3010.41 -4.16904 0.157044 0
M  V30 32294 H 3009.04 -3.1976 -0.441969 0
M  V30 32295 H 3008.09 -3.24964 1.97743 0
M  V30 32296 H 3009.41 -4.37103 2.40297 0
M  V30 32297 H 3008.56 -6.02362 0.724193 0
M  V30 32298 H 3007.3 -4.87297 0.198201 0
M  V30 32299 H 3006.3 -4.89522 2.50296 0
M  V30 32300 H 3007.53 -6.08011 3.0249 0
M  V30 32301 H 3005.48 -6.50828 0.822105 0
M  V30 32302 H 3005.39 -7.16024 2.4258 0
M  V30 32303 H 3006.66 -7.67642 1.3545 0
M  V30 32304 N 3010.89 -0.986938 -1.22871 0
M  V30 32305 C 3012.12 -0.676715 -1.95203 0
M  V30 32306 C 3012.53 0.76161 -1.73194 0
M  V30 32307 O 3011.87 1.5249 -1.02433 0
M  V30 32308 C 3011.93 -0.895364 -3.48172 0
M  V30 32309 C 3011.6 -2.31702 -3.93908 0
M  V30 32310 C 3012.59 -3.29614 -4.02058 0
M  V30 32311 C 3010.28 -2.64986 -4.26718 0
M  V30 32312 C 3012.27 -4.58886 -4.42383 0
M  V30 32313 C 3009.96 -3.94479 -4.66722 0
M  V30 32314 C 3010.96 -4.91241 -4.74522 0
M  V30 32315 O 3010.65 -6.18421 -5.13625 0
M  V30 32316 H 3010.38 -0.249931 -0.628101 0
M  V30 32317 H 3012.93 -1.32276 -1.57137 0
M  V30 32318 H 3011.16 -0.19214 -3.86222 0
M  V30 32319 H 3012.85 -0.581303 -4.01716 0
M  V30 32320 H 3013.62 -3.05231 -3.76907 0
M  V30 32321 H 3009.5 -1.90377 -4.19854 0
M  V30 32322 H 3013.04 -5.34412 -4.48386 0
M  V30 32323 H 3008.94 -4.18654 -4.91324 0
M  V30 32324 H 3009.7 -6.2227 -5.31717 0
M  V30 32325 N 3012.37 1.38098 -0.759394 0
M  V30 32326 C 3013.61 1.99985 -0.318148 0
M  V30 32327 C 3013.94 1.60282 1.10182 0
M  V30 32328 O 3013.2 0.834555 1.77013 0
M  V30 32329 C 3013.5 3.5521 -0.395061 0
M  V30 32330 C 3013.16 4.14643 -1.77151 0
M  V30 32331 C 3011.82 4.30588 -2.14819 0
M  V30 32332 C 3014.18 4.47369 -2.67415 0
M  V30 32333 C 3011.5 4.76558 -3.42212 0
M  V30 32334 C 3013.86 4.94758 -3.94205 0
M  V30 32335 C 3012.52 5.0891 -4.31934 0
M  V30 32336 H 3011.79 0.731798 -0.116419 0
M  V30 32337 H 3014.44 1.65057 -0.971009 0
M  V30 32338 H 3012.74 3.9031 0.341358 0
M  V30 32339 H 3014.44 4.00985 -0.0351426 0
M  V30 32340 H 3011.03 4.0265 -1.46871 0
M  V30 32341 H 3015.21 4.34646 -2.39577 0
M  V30 32342 H 3010.47 4.85701 -3.71355 0
M  V30 32343 H 3014.64 5.19049 -4.64285 0
M  V30 32344 H 3012.27 5.44291 -5.30708 0
M  V30 32345 N 3013.85 0.508932 1.49156 0
M  V30 32346 C 3014.81 -0.254299 2.27785 0
M  V30 32347 C 3015.81 -0.886837 1.34134 0
M  V30 32348 O 3017 -0.75014 1.57221 0
M  V30 32349 C 3014.13 -1.36567 3.1235 0
M  V30 32350 H 3015.32 0.435767 2.96717 0
M  V30 32351 H 3012.88 0.264155 1.54052 0
M  V30 32352 H 3013.61 -2.08964 2.48001 0
M  V30 32353 H 3013.4 -0.917476 3.81215 0
M  V30 32354 H 3014.89 -1.90308 3.71716 0
M  V30 32355 N 3015.32 -1.55714 0.243111 0
M  V30 32356 C 3016.27 -2.17876 -0.671877 0
M  V30 32357 C 3017.26 -1.13349 -1.14197 0
M  V30 32358 O 3018.45 -1.39271 -1.09237 0
M  V30 32359 C 3015.58 -2.87885 -1.87022 0
M  V30 32360 C 3014.66 -3.99663 -1.41881 0
M  V30 32361 N 3015.06 -5.01189 -0.681377 0
M  V30 32362 C 3013.35 -4.12148 -1.7044 0
M  V30 32363 C 3014.05 -5.79971 -0.448183 0
M  V30 32364 N 3013.03 -5.34111 -1.01128 0
M  V30 32365 H 3016.83 -2.93729 -0.100269 0
M  V30 32366 H 3014.35 -1.62337 0.0452656 0
M  V30 32367 H 3016.34 -3.30844 -2.53669 0
M  V30 32368 H 3015 -2.13534 -2.44609 0
M  V30 32369 H 3016.01 -5.16836 -0.331868 0
M  V30 32370 H 3012.69 -3.48966 -2.29192 0
M  V30 32371 H 3014.08 -6.71754 0.140259 0
M  V30 32372 N 3016.8 0.030048 -1.57571 0
M  V30 32373 C 3017.75 1.03881 -2.0296 0
M  V30 32374 C 3018.74 1.3209 -0.918747 0
M  V30 32375 O 3019.93 1.31692 -1.18264 0
M  V30 32376 C 3017.06 2.34023 -2.51173 0
M  V30 32377 C 3016.14 2.08909 -3.69077 0
M  V30 32378 N 3016.53 1.53849 -4.81834 0
M  V30 32379 C 3014.83 2.39197 -3.76431 0
M  V30 32380 C 3015.53 1.44516 -5.63462 0
M  V30 32381 N 3014.51 1.92039 -5.08549 0
M  V30 32382 H 3018.31 0.607107 -2.87561 0
M  V30 32383 H 3015.83 0.23637 -1.60671 0
M  V30 32384 H 3017.82 3.07099 -2.8195 0
M  V30 32385 H 3016.48 2.77874 -1.67977 0
M  V30 32386 H 3017.49 1.22134 -5.03293 0
M  V30 32387 H 3014.17 2.86128 -3.04034 0
M  V30 32388 H 3015.56 1.02445 -6.64044 0
M  V30 32389 N 3018.28 1.54674 0.3023 0
M  V30 32390 C 3019.23 1.86288 1.39283 0
M  V30 32391 C 3020.22 0.736504 1.52552 0
M  V30 32392 O 3021.43 0.920477 1.54684 0
M  V30 32393 H 3017.8 0.590827 0.465217 0
M  V30 32394 H 3019.77 2.77443 1.09854 0
M  V30 32395 C 3018.52 2.12572 2.75152 0
M  V30 32396 H 3017.85 2.98716 2.65723 0
M  V30 32397 H 3019.29 2.38633 3.50472 0
M  V30 32398 C 3017.75 0.92387 3.23985 0
M  V30 32399 O 3018.28 0.14372 4.01443 0
M  V30 32400 N 3016.48 0.729609 2.81292 0
M  V30 32401 H 3016.03 1.36568 2.18419 0
M  V30 32402 H 3015.99 -0.0729798 3.14315 0
M  V30 32403 N 3019.76 -0.565428 1.47108 0
M  V30 32404 C 3020.67 -1.70072 1.61594 0
M  V30 32405 C 3021.68 -1.66692 0.49896 0
M  V30 32406 O 3022.86 -1.86289 0.765405 0
M  V30 32407 C 3019.93 -3.06581 1.61893 0
M  V30 32408 C 3018.99 -3.21091 2.84954 0
M  V30 32409 C 3018.22 -4.51088 2.85229 0
M  V30 32410 O 3018.44 -5.36044 1.94968 0
M  V30 32411 O 3017.38 -4.69214 3.76991 0
M  V30 32412 H 3021.2 -1.60795 2.57641 0
M  V30 32413 H 3018.79 -0.734487 1.30099 0
M  V30 32414 H 3020.67 -3.87832 1.64815 0
M  V30 32415 H 3019.34 -3.16258 0.690105 0
M  V30 32416 H 3018.25 -2.39268 2.87579 0
M  V30 32417 H 3019.58 -3.16313 3.77103 0
M  V30 32418 N 3021.24 -1.35102 -0.811492 0
M  V30 32419 C 3022.51 -1.1867 -1.55489 0
M  V30 32420 C 3022.89 0.236152 -2.09775 0
M  V30 32421 O 3022.24 1.23902 -1.91991 0
M  V30 32422 C 3022.45 -2.25072 -2.66728 0
M  V30 32423 C 3023.8 -2.60631 -3.35197 0
M  V30 32424 O 3024.82 -2.23948 -2.76994 0
M  V30 32425 O 3023.68 -3.23687 -4.40329 0
M  V30 32426 H 3020.78 -0.460728 -0.686774 0
M  V30 32427 H 3023.32 -1.46769 -0.851877 0
M  V30 32428 H 3022.09 -3.20527 -2.24451 0
M  V30 32429 H 3021.72 -1.98214 -3.44669 0
M  V30 32430 N 3022.71 1.03306 -1.19019 0
M  V30 32431 C 3023.64 2.13401 -0.947757 0
M  V30 32432 C 3024.63 1.69695 0.117353 0
M  V30 32433 O 3025.81 1.94165 -0.0368074 0
M  V30 32434 C 3022.94 3.43952 -0.481037 0
M  V30 32435 C 3021.89 4.01319 -1.4875 0
M  V30 32436 C 3021.22 5.27442 -0.878017 0
M  V30 32437 C 3022.52 4.36611 -2.8665 0
M  V30 32438 H 3024.21 2.33939 -1.8685 0
M  V30 32439 H 3021.76 1.12426 -0.899801 0
M  V30 32440 H 3023.71 4.2034 -0.298751 0
M  V30 32441 H 3022.44 3.23123 0.475291 0
M  V30 32442 H 3021.1 3.27022 -1.65686 0
M  V30 32443 H 3020.74 5.02927 0.0857348 0
M  V30 32444 H 3020.44 5.66786 -1.55006 0
M  V30 32445 H 3021.97 6.065 -0.706433 0
M  V30 32446 H 3023.38 5.03953 -2.73321 0
M  V30 32447 H 3021.78 4.87026 -3.50608 0
M  V30 32448 H 3022.85 3.46099 -3.39623 0
M  V30 32449 N 3024.19 0.99344 1.22346 0
M  V30 32450 C 3025.44 0.668279 1.90731 0
M  V30 32451 C 3025.76 -0.802229 1.77734 0
M  V30 32452 O 3025.03 -1.57503 1.16488 0
M  V30 32453 H 3023.61 0.244187 0.705962 0
M  V30 32454 H 3026.27 1.26006 1.48689 0
M  V30 32455 H 3025.37 0.931291 2.97881 0
M  V30 32456 N 3025.67 -1.37693 0.766707 0
M  V30 32457 C 3026.62 -2.32194 0.13731 0
M  V30 32458 C 3027.61 -1.54682 -0.690642 0
M  V30 32459 O 3028.82 -1.70116 -0.588269 0
M  V30 32460 H 3025.19 -0.751564 0.0256135 0
M  V30 32461 H 3027.16 -2.82868 0.950179 0
M  V30 32462 C 3025.91 -3.39921 -0.731387 0
M  V30 32463 H 3025.24 -3.99666 -0.103668 0
M  V30 32464 H 3026.68 -4.0842 -1.13884 0
M  V30 32465 C 3025.14 -2.79581 -1.87979 0
M  V30 32466 O 3025.67 -2.6993 -2.97491 0
M  V30 32467 N 3023.87 -2.37198 -1.67885 0
M  V30 32468 H 3023.42 -2.45248 -0.788119 0
M  V30 32469 H 3023.38 -1.9717 -2.44891 0
M  V30 32470 N 3027.15 -0.516835 -1.48884 0
M  V30 32471 C 3028.06 0.257252 -2.33185 0
M  V30 32472 C 3029.07 0.951926 -1.45652 0
M  V30 32473 O 3030.25 0.929803 -1.78652 0
M  V30 32474 C 3027.32 1.29845 -3.21467 0
M  V30 32475 C 3026.38 0.615533 -4.24864 0
M  V30 32476 C 3025.61 1.60713 -5.08927 0
M  V30 32477 O 3025.83 2.83854 -4.94755 0
M  V30 32478 O 3024.77 1.15374 -5.90739 0
M  V30 32479 H 3028.59 -0.433183 -3.00595 0
M  V30 32480 H 3026.18 -0.277934 -1.46792 0
M  V30 32481 H 3028.06 1.90048 -3.76111 0
M  V30 32482 H 3026.73 1.97153 -2.56734 0
M  V30 32483 H 3025.64 -0.0266486 -3.74091 0
M  V30 32484 H 3026.97 -0.0153736 -4.92198 0
M  V30 32485 N 3028.63 1.55583 -0.251365 0
M  V30 32486 C 3029.54 2.25214 0.656939 0
M  V30 32487 C 3030.55 1.26979 1.18964 0
M  V30 32488 O 3031.73 1.59864 1.22496 0
M  V30 32489 C 3028.79 2.94144 1.83522 0
M  V30 32490 C 3027.85 4.078 1.34155 0
M  V30 32491 C 3027.09 4.73433 2.46366 0
M  V30 32492 O 3027.31 4.38163 3.65197 0
M  V30 32493 O 3026.24 5.61857 2.15871 0
M  V30 32494 H 3030.07 3.03556 0.0935862 0
M  V30 32495 H 3027.66 1.49387 -0.01969 0
M  V30 32496 H 3029.54 3.37545 2.52273 0
M  V30 32497 H 3028.21 2.18739 2.3861 0
M  V30 32498 H 3027.12 3.68907 0.621184 0
M  V30 32499 H 3028.45 4.85036 0.836694 0
M  V30 32500 N 3030.1 -0.0216912 1.57585 0
M  V30 32501 C 3031.35 -0.709608 1.89233 0
M  V30 32502 C 3031.67 -1.755 0.849995 0
M  V30 32503 O 3030.94 -1.9556 -0.115451 0
M  V30 32504 H 3029.52 -0.26508 0.698385 0
M  V30 32505 H 3032.19 0.0141031 1.94895 0
M  V30 32506 H 3031.28 -1.19454 2.88335 0
M  V30 32507 N 3031.58 -1.54832 -0.294093 0
M  V30 32508 C 3032.49 -1.89327 -1.38537 0
M  V30 32509 C 3033.51 -0.78816 -1.55126 0
M  V30 32510 O 3034.69 -1.08527 -1.69658 0
M  V30 32511 C 3031.75 -2.13959 -2.72805 0
M  V30 32512 C 3030.81 -3.37636 -2.65142 0
M  V30 32513 C 3030.04 -3.61083 -3.93007 0
M  V30 32514 O 3030.27 -2.87415 -4.92695 0
M  V30 32515 O 3029.2 -4.54606 -3.94483 0
M  V30 32516 H 3033.03 -2.82181 -1.12284 0
M  V30 32517 H 3030.61 -1.41109 -0.490769 0
M  V30 32518 H 3032.49 -2.31321 -3.52234 0
M  V30 32519 H 3031.17 -1.2429 -2.98887 0
M  V30 32520 H 3030.08 -3.2563 -1.84162 0
M  V30 32521 H 3031.41 -4.27456 -2.44012 0
M  V30 32522 N 3033.06 0.557619 -1.47405 0
M  V30 32523 C 3033.97 1.69213 -1.62494 0
M  V30 32524 C 3034.99 1.66426 -0.507793 0
M  V30 32525 O 3036.16 1.8588 -0.775273 0
M  V30 32526 C 3033.23 3.05718 -1.63516 0
M  V30 32527 C 3032.29 3.19575 -2.86653 0
M  V30 32528 C 3031.52 4.49569 -2.87617 0
M  V30 32529 O 3031.75 5.35003 -1.97808 0
M  V30 32530 O 3030.68 4.67208 -3.79474 0
M  V30 32531 H 3034.51 1.59426 -2.5849 0
M  V30 32532 H 3032.09 0.727578 -1.30486 0
M  V30 32533 H 3033.97 3.86953 -1.6687 0
M  V30 32534 H 3032.65 3.15888 -0.706868 0
M  V30 32535 H 3031.55 2.37739 -2.88844 0
M  V30 32536 H 3032.89 3.14309 -3.78775 0
M  V30 32537 N 3034.54 1.35531 0.804316 0
M  V30 32538 C 3035.79 1.28265 1.55663 0
M  V30 32539 C 3036.1 -0.140317 1.95096 0
M  V30 32540 O 3037.31 -0.335255 2.69422 0
M  V30 32541 C 3035.76 2.24957 2.80931 0
M  V30 32542 C 3035.37 3.72611 2.48726 0
M  V30 32543 C 3037.12 2.26639 3.58936 0
M  V30 32544 C 3035.02 4.6112 3.703 0
M  V30 32545 H 3033.95 0.476569 0.584293 0
M  V30 32546 H 3036.6 1.60808 0.883922 0
M  V30 32547 H 3034.99 1.85389 3.49924 0
M  V30 32548 H 3036.16 4.20827 1.87726 0
M  V30 32549 H 3034.47 3.7356 1.83962 0
M  V30 32550 H 3037.07 2.89981 4.49238 0
M  V30 32551 H 3037.41 1.27076 3.96431 0
M  V30 32552 H 3037.95 2.64747 2.96907 0
M  V30 32553 H 3034.69 5.6169 3.37912 0
M  V30 32554 H 3034.21 4.17629 4.30519 0
M  V30 32555 H 3035.89 4.76655 4.37503 0
M  V30 32556 N 3036.02 -1.02674 1.19565 0
M  V30 32557 C 3037.24 -1.80268 1.02559 0
M  V30 32558 C 3037.67 -1.83328 -0.421024 0
M  V30 32559 O 3037.03 -1.26086 -1.30277 0
M  V30 32560 C 3037.07 -3.23075 1.60171 0
M  V30 32561 O 3036.18 -4.0391 0.832475 0
M  V30 32562 H 3035.52 -0.556407 0.362363 0
M  V30 32563 H 3038.05 -1.29213 1.58635 0
M  V30 32564 H 3038.06 -3.73817 1.63477 0
M  V30 32565 H 3036.73 -3.20163 2.65459 0
M  V30 32566 H 3035.31 -3.62541 0.872832 0
M  V30 32567 N 3037.5 -0.999914 -1.21817 0
M  V30 32568 C 3038.73 -0.697381 -1.94474 0
M  V30 32569 C 3039.13 0.743198 -1.73992 0
M  V30 32570 O 3038.48 1.51395 -1.04045 0
M  V30 32571 C 3038.54 -0.932242 -3.47202 0
M  V30 32572 C 3038.2 -2.35867 -3.91428 0
M  V30 32573 C 3039.2 -3.3386 -3.9854 0
M  V30 32574 C 3036.88 -2.69497 -4.23883 0
M  V30 32575 C 3038.88 -4.63552 -4.37491 0
M  V30 32576 C 3036.57 -3.99407 -4.62512 0
M  V30 32577 C 3037.56 -4.96246 -4.69285 0
M  V30 32578 O 3037.25 -6.23834 -5.07037 0
M  V30 32579 H 3036.98 -0.256578 -0.625415 0
M  V30 32580 H 3039.54 -1.33936 -1.55725 0
M  V30 32581 H 3037.77 -0.233093 -3.85997 0
M  V30 32582 H 3039.46 -0.623878 -4.01077 0
M  V30 32583 H 3040.22 -3.09212 -3.73648 0
M  V30 32584 H 3036.1 -1.94819 -4.17811 0
M  V30 32585 H 3039.65 -5.39138 -4.42692 0
M  V30 32586 H 3035.54 -4.23841 -4.86856 0
M  V30 32587 H 3036.31 -6.27874 -5.25087 0
M  V30 32588 N 3038.97 1.37284 -0.773999 0
M  V30 32589 C 3040.2 2.04432 -0.349597 0
M  V30 32590 C 3040.62 1.57992 1.02079 0
M  V30 32591 O 3039.98 0.741201 1.65457 0
M  V30 32592 C 3040.03 3.58326 -0.404355 0
M  V30 32593 O 3039.13 4.08094 0.594375 0
M  V30 32594 H 3038.47 0.64661 -0.15097 0
M  V30 32595 H 3041 1.75553 -1.05082 0
M  V30 32596 H 3041.01 4.07155 -0.26245 0
M  V30 32597 H 3039.69 3.91482 -1.4041 0
M  V30 32598 H 3038.27 3.70579 0.415403 0
M  V30 32599 N 3040.45 0.524724 1.48608 0
M  V30 32600 C 3041.7 -0.0112635 2.02097 0
M  V30 32601 C 3042.02 -1.35266 1.40457 0
M  V30 32602 O 3041.29 -1.87482 0.568103 0
M  V30 32603 H 3039.87 -0.00715113 0.746966 0
M  V30 32604 H 3042.53 0.687361 1.82377 0
M  V30 32605 H 3041.63 -0.123476 3.11856 0
M  V30 32606 N 3041.93 -1.55447 0.259613 0
M  V30 32607 C 3043.18 -1.98423 -0.362128 0
M  V30 32608 C 3043.49 -1.15123 -1.58133 0
M  V30 32609 O 3044.7 -1.4817 -2.27504 0
M  V30 32610 C 3043.15 -3.53113 -0.69566 0
M  V30 32611 C 3042.76 -4.45169 0.502862 0
M  V30 32612 C 3044.51 -4.04714 -1.28089 0
M  V30 32613 C 3042.41 -5.91223 0.144778 0
M  V30 32614 H 3041.34 -0.741062 -0.139079 0
M  V30 32615 H 3043.99 -1.79897 0.36183 0
M  V30 32616 H 3042.38 -3.6738 -1.4781 0
M  V30 32617 H 3043.55 -4.42665 1.28001 0
M  V30 32618 H 3041.86 -4.04118 1.00388 0
M  V30 32619 H 3044.46 -5.11366 -1.56234 0
M  V30 32620 H 3044.8 -3.52819 -2.20962 0
M  V30 32621 H 3045.34 -3.93823 -0.561077 0
M  V30 32622 H 3042.08 -6.47181 1.04099 0
M  V30 32623 H 3041.6 -5.96832 -0.595918 0
M  V30 32624 H 3043.28 -6.46442 -0.268537 0
M  V30 32625 N 3043.41 0.0133338 -1.57594 0
M  V30 32626 C 3044.34 1.0082 -2.10613 0
M  V30 32627 C 3045.32 1.36707 -1.01219 0
M  V30 32628 O 3046.5 1.45315 -1.2883 0
M  V30 32629 C 3043.63 2.30427 -2.59848 0
M  V30 32630 C 3042.59 2.08738 -3.73647 0
M  V30 32631 C 3041.91 3.44243 -4.09147 0
M  V30 32632 C 3043.21 1.46077 -5.01457 0
M  V30 32633 H 3044.91 0.566798 -2.93986 0
M  V30 32634 H 3042.45 0.271194 -1.41423 0
M  V30 32635 H 3044.41 3.00367 -2.95563 0
M  V30 32636 H 3043.13 2.76655 -1.73578 0
M  V30 32637 H 3041.79 1.41227 -3.38306 0
M  V30 32638 H 3041.44 3.88149 -3.1992 0
M  V30 32639 H 3041.14 3.30551 -4.85808 0
M  V30 32640 H 3042.66 4.1552 -4.47409 0
M  V30 32641 H 3044.08 2.05956 -5.35028 0
M  V30 32642 H 3042.47 1.42914 -5.82834 0
M  V30 32643 H 3043.54 0.428386 -4.83004 0
M  V30 32644 N 3044.89 1.54985 0.285878 0
M  V30 32645 C 3045.83 1.87755 1.37299 0
M  V30 32646 C 3046.83 0.752643 1.51762 0
M  V30 32647 O 3048.03 0.936832 1.53699 0
M  V30 32648 H 3044.41 0.595728 0.458925 0
M  V30 32649 H 3046.38 2.78593 1.06905 0
M  V30 32650 C 3045.13 2.15478 2.72882 0
M  V30 32651 H 3044.45 3.01518 2.6254 0
M  V30 32652 H 3045.89 2.42337 3.47921 0
M  V30 32653 C 3044.35 0.958181 3.22987 0
M  V30 32654 O 3044.88 0.18629 4.01268 0
M  V30 32655 N 3043.09 0.759403 2.80502 0
M  V30 32656 H 3042.63 1.38877 2.16958 0
M  V30 32657 H 3042.59 -0.0396384 3.14375 0
M  V30 32658 N 3046.36 -0.549794 1.47699 0
M  V30 32659 C 3047.61 -1.30663 1.54705 0
M  V30 32660 C 3047.94 -1.93336 0.212452 0
M  V30 32661 O 3047.19 -1.78807 -0.795398 0
M  V30 32662 C 3047.49 -2.43185 2.61908 0
M  V30 32663 C 3047.16 -1.98294 4.04957 0
M  V30 32664 C 3045.82 -1.85768 4.43896 0
M  V30 32665 C 3048.17 -1.64124 4.94684 0
M  V30 32666 C 3045.5 -1.37378 5.7039 0
M  V30 32667 C 3047.85 -1.17203 6.21648 0
M  V30 32668 C 3046.52 -1.03278 6.59462 0
M  V30 32669 H 3045.79 -0.478129 0.566104 0
M  V30 32670 H 3048.43 -0.615736 1.81331 0
M  V30 32671 H 3046.74 -3.17862 2.29066 0
M  V30 32672 H 3048.44 -3.01356 2.64548 0
M  V30 32673 H 3045.03 -2.08989 3.74195 0
M  V30 32674 H 3049.21 -1.72671 4.65294 0
M  V30 32675 H 3044.47 -1.25268 5.9843 0
M  V30 32676 H 3048.64 -0.89827 6.90582 0
M  V30 32677 H 3046.27 -0.655602 7.57368 0
M  V30 32678 N 3047.84 -1.35955 -0.797117 0
M  V30 32679 C 3048.79 -1.297 -1.93082 0
M  V30 32680 C 3049.78 -0.190181 -1.68329 0
M  V30 32681 O 3050.99 -0.356731 -1.7643 0
M  V30 32682 H 3047.37 -0.403588 -0.634524 0
M  V30 32683 H 3049.34 -2.25458 -1.95477 0
M  V30 32684 C 3048.09 -1.09541 -3.29994 0
M  V30 32685 H 3047.41 -1.93952 -3.49603 0
M  V30 32686 H 3048.85 -1.09209 -4.09694 0
M  V30 32687 C 3047.31 0.200321 -3.36304 0
M  V30 32688 O 3047.84 1.19284 -3.83581 0
M  V30 32689 N 3046.04 0.242356 -2.89588 0
M  V30 32690 H 3045.59 -0.565942 -2.51306 0
M  V30 32691 H 3045.55 1.10901 -2.94191 0
M  V30 32692 N 3049.32 1.02038 -1.20108 0
M  V30 32693 C 3050.27 2.12615 -0.943268 0
M  V30 32694 C 3051.26 1.6908 0.104012 0
M  V30 32695 O 3052.47 1.79941 -0.0460048 0
M  V30 32696 H 3048.84 0.694797 -0.287682 0
M  V30 32697 H 3050.81 2.31546 -1.88225 0
M  V30 32698 C 3049.56 3.43972 -0.50777 0
M  V30 32699 H 3048.89 3.77895 -1.30521 0
M  V30 32700 H 3050.33 4.22413 -0.366561 0
M  V30 32701 C 3048.79 3.27762 0.779333 0
M  V30 32702 O 3049.32 3.57148 1.8387 0
M  V30 32703 N 3047.52 2.81023 0.739881 0
M  V30 32704 H 3047.07 2.57309 -0.122471 0
M  V30 32705 H 3047.03 2.70558 1.60142 0
M  V30 32706 N 3050.8 1.00636 1.21285 0
M  V30 32707 C 3051.75 0.567916 2.23704 0
M  V30 32708 C 3052.72 -0.406724 1.61043 0
M  V30 32709 O 3053.9 -0.308466 1.8829 0
M  V30 32710 C 3051.04 -0.0979354 3.44961 0
M  V30 32711 C 3050.15 0.920046 4.22089 0
M  V30 32712 C 3049.29 0.226315 5.30718 0
M  V30 32713 C 3048.33 1.23175 5.99578 0
M  V30 32714 N 3047.46 0.565401 6.9982 0
M  V30 32715 H 3052.3 1.44596 2.60568 0
M  V30 32716 H 3049.84 0.724029 1.28048 0
M  V30 32717 H 3051.8 -0.501024 4.14181 0
M  V30 32718 H 3050.43 -0.93969 3.0882 0
M  V30 32719 H 3049.48 1.44137 3.52035 0
M  V30 32720 H 3050.79 1.68513 4.69473 0
M  V30 32721 H 3049.95 -0.23281 6.06253 0
M  V30 32722 H 3048.69 -0.571161 4.84344 0
M  V30 32723 H 3047.69 1.70137 5.22813 0
M  V30 32724 H 3048.92 2.03033 6.48039 0
M  V30 32725 H 3046.86 -0.212393 6.55656 0
M  V30 32726 H 3046.78 1.26872 7.45278 0
M  V30 32727 H 3048.05 0.129526 7.79392 0
M  V30 32728 N 3052.28 -1.36872 0.781268 0
M  V30 32729 C 3053.53 -1.98701 0.346555 0
M  V30 32730 C 3053.84 -1.62714 -1.08552 0
M  V30 32731 O 3055.04 -2.17716 -1.6221 0
M  V30 32732 C 3053.5 -3.55379 0.568673 0
M  V30 32733 C 3053.11 -4.00297 2.01163 0
M  V30 32734 C 3054.85 -4.24038 0.198058 0
M  V30 32735 C 3052.76 -5.49721 2.18084 0
M  V30 32736 H 3051.69 -0.743426 0.125834 0
M  V30 32737 H 3054.34 -1.56278 0.961748 0
M  V30 32738 H 3052.72 -3.9583 -0.116116 0
M  V30 32739 H 3053.9 -3.71066 2.73215 0
M  V30 32740 H 3052.21 -3.4445 2.33973 0
M  V30 32741 H 3054.81 -5.33842 0.302872 0
M  V30 32742 H 3055.15 -4.0747 -0.852855 0
M  V30 32743 H 3055.68 -3.88921 0.835764 0
M  V30 32744 H 3052.42 -5.71226 3.21529 0
M  V30 32745 H 3051.94 -5.80605 1.50527 0
M  V30 32746 H 3053.62 -6.15829 1.98404 0
M  V30 32747 N 3053.75 -0.532597 -1.48328 0
M  V30 32748 C 3054.98 -0.00357417 -2.066 0
M  V30 32749 C 3055.39 1.28449 -1.38916 0
M  V30 32750 O 3054.74 1.77548 -0.471416 0
M  V30 32751 C 3054.8 0.288261 -3.58342 0
M  V30 32752 C 3054.46 -0.906709 -4.47915 0
M  V30 32753 C 3055.46 -1.80581 -4.87531 0
M  V30 32754 C 3053.14 -1.11444 -4.89781 0
M  V30 32755 C 3055.14 -2.89652 -5.67785 0
M  V30 32756 C 3052.82 -2.20829 -5.69805 0
M  V30 32757 C 3053.82 -3.09766 -6.08715 0
M  V30 32758 O 3053.51 -4.17258 -6.87132 0
M  V30 32759 H 3053.24 -0.031578 -0.675262 0
M  V30 32760 H 3055.8 -0.738409 -1.91668 0
M  V30 32761 H 3054.03 1.0771 -3.71397 0
M  V30 32762 H 3055.72 0.759681 -3.98728 0
M  V30 32763 H 3056.48 -1.65727 -4.55807 0
M  V30 32764 H 3052.36 -0.431463 -4.58976 0
M  V30 32765 H 3055.9 -3.59098 -5.98076 0
M  V30 32766 H 3051.8 -2.35666 -6.00942 0
M  V30 32767 H 3052.57 -4.15 -7.05491 0
M  V30 32768 N 3055.23 1.55307 -0.267853 0
M  V30 32769 C 3056.46 2.03544 0.354037 0
M  V30 32770 C 3056.87 1.14589 1.50552 0
M  V30 32771 O 3056.21 0.157023 1.83028 0
M  V30 32772 C 3056.28 3.47946 0.904087 0
M  V30 32773 C 3055.94 4.56848 -0.11783 0
M  V30 32774 C 3056.94 5.11427 -0.934796 0
M  V30 32775 C 3054.62 5.01678 -0.249973 0
M  V30 32776 C 3056.62 6.09347 -1.87016 0
M  V30 32777 C 3054.3 5.99425 -1.18882 0
M  V30 32778 C 3055.3 6.5314 -1.99742 0
M  V30 32779 O 3054.99 7.48977 -2.92041 0
M  V30 32780 H 3054.72 0.670537 0.0857647 0
M  V30 32781 H 3057.27 2.01555 -0.395551 0
M  V30 32782 H 3055.5 3.47151 1.70362 0
M  V30 32783 H 3057.19 3.79563 1.43829 0
M  V30 32784 H 3057.96 4.7761 -0.843404 0
M  V30 32785 H 3053.84 4.59518 0.369389 0
M  V30 32786 H 3057.38 6.51199 -2.50171 0
M  V30 32787 H 3053.28 6.3266 -1.28106 0
M  V30 32788 H 3054.05 7.66668 -2.8664 0
M  V30 32789 N 3056.71 -0.00497598 1.57599 0
M  V30 32790 C 3057.96 -0.690862 1.90351 0
M  V30 32791 C 3058.29 -1.74054 0.868075 0
M  V30 32792 O 3057.54 -1.95282 -0.12782 0
M  V30 32793 C 3057.84 -1.37582 3.29857 0
M  V30 32794 C 3057.51 -0.459827 4.48549 0
M  V30 32795 C 3056.17 -0.207609 4.80752 0
M  V30 32796 C 3058.52 0.171145 5.20919 0
M  V30 32797 C 3055.85 0.683957 5.827 0
M  V30 32798 C 3058.2 1.05056 6.23816 0
M  V30 32799 C 3056.86 1.312 6.54479 0
M  V30 32800 H 3056.13 -0.252804 0.696542 0
M  V30 32801 H 3058.78 0.0494832 1.91436 0
M  V30 32802 H 3057.09 -2.19009 3.24873 0
M  V30 32803 H 3058.78 -1.91249 3.52456 0
M  V30 32804 H 3055.37 -0.666574 4.23385 0
M  V30 32805 H 3059.56 -0.0107069 4.96299 0
M  V30 32806 H 3054.81 0.894573 6.0482 0
M  V30 32807 H 3058.99 1.54586 6.79026 0
M  V30 32808 H 3056.61 2.00455 7.33295 0
M  V30 32809 N 3058.19 -1.55135 -0.277654 0
M  V30 32810 C 3059.47 -1.6623 -1.03087 0
M  V30 32811 C 3059.85 -0.525737 -2.04449 0
M  V30 32812 O 3059.19 0.474777 -2.23513 0
M  V30 32813 C 3059.4 -3.0525 -1.69185 0
M  V30 32814 C 3060.75 -3.62844 -2.2052 0
M  V30 32815 O 3061.78 -3.07853 -1.79179 0
M  V30 32816 O 3060.63 -4.59182 -2.96334 0
M  V30 32817 H 3057.73 -0.674946 -0.477888 0
M  V30 32818 H 3060.27 -1.67475 -0.273882 0
M  V30 32819 H 3059.05 -3.79414 -0.957097 0
M  V30 32820 H 3058.67 -3.07884 -2.51582 0
M  V30 32821 N 3059.67 0.541953 -1.47989 0
M  V30 32822 C 3060.94 1.303 -1.45881 0
M  V30 32823 C 3061.32 2.10462 -0.163968 0
M  V30 32824 O 3060.67 2.11923 0.854442 0
M  V30 32825 C 3060.88 2.19461 -2.71363 0
M  V30 32826 C 3062.23 2.79989 -3.19204 0
M  V30 32827 O 3063.25 2.29755 -2.72197 0
M  V30 32828 O 3062.11 3.71332 -4.00967 0
M  V30 32829 H 3059.21 0.587488 -0.582054 0
M  V30 32830 H 3061.75 0.559595 -1.60208 0
M  V30 32831 H 3060.52 1.5993 -3.57125 0
M  V30 32832 H 3060.15 3.0107 -2.59697 0
M  V30 32833 N 3061.15 1.36376 0.789896 0
M  V30 32834 C 3062.37 1.33897 1.58386 0
M  V30 32835 C 3062.8 -0.0774603 1.8794 0
M  V30 32836 O 3062.15 -1.04927 1.47851 0
M  V30 32837 C 3062.2 2.16737 2.88197 0
M  V30 32838 O 3061.31 1.55953 3.81775 0
M  V30 32839 H 3060.65 0.458313 0.480463 0
M  V30 32840 H 3063.18 1.79653 0.979088 0
M  V30 32841 H 3063.19 2.29298 3.37471 0
M  V30 32842 H 3061.86 3.19703 2.66013 0
M  V30 32843 H 3060.44 1.52329 3.40368 0
M  V30 32844 N 3062.62 -1.014 1.20647 0
M  V30 32845 C 3063.87 -1.75039 1.01822 0
M  V30 32846 C 3064.2 -1.89238 -0.449352 0
M  V30 32847 O 3063.45 -1.41697 -1.34983 0
M  V30 32848 C 3063.75 -3.17034 1.64997 0
M  V30 32849 C 3063.42 -3.22806 3.14813 0
M  V30 32850 C 3062.08 -3.24088 3.55697 0
M  V30 32851 C 3064.43 -3.20762 4.10805 0
M  V30 32852 C 3061.76 -3.21001 4.91096 0
M  V30 32853 C 3064.11 -3.19217 5.46153 0
M  V30 32854 C 3062.78 -3.18804 5.86447 0
M  V30 32855 H 3062.05 -0.640512 0.372594 0
M  V30 32856 H 3064.69 -1.18909 1.5011 0
M  V30 32857 H 3063 -3.76339 1.08978 0
M  V30 32858 H 3064.7 -3.72711 1.47943 0
M  V30 32859 H 3061.29 -3.22545 2.82246 0
M  V30 32860 H 3065.47 -3.1894 3.80252 0
M  V30 32861 H 3060.73 -3.19014 5.21574 0
M  V30 32862 H 3064.9 -3.16589 6.20278 0
M  V30 32863 H 3062.53 -3.16167 6.91334 0
M  V30 32864 N 3064.1 -1.01278 -1.2075 0
M  V30 32865 C 3065.33 -0.71901 -1.94005 0
M  V30 32866 C 3065.74 0.71968 -1.74545 0
M  V30 32867 O 3065.1 1.48775 -1.057 0
M  V30 32868 C 3065.15 -1.04037 -3.46206 0
M  V30 32869 O 3064.87 -2.42255 -3.65026 0
M  V30 32870 C 3066.37 -0.767109 -4.36612 0
M  V30 32871 H 3063.59 -0.264338 -0.616739 0
M  V30 32872 H 3066.14 -1.35293 -1.5335 0
M  V30 32873 H 3064.29 -0.451919 -3.84755 0
M  V30 32874 H 3064.71 -2.53721 -4.59049 0
M  V30 32875 H 3066.18 -1.04207 -5.42075 0
M  V30 32876 H 3066.66 0.298774 -4.38183 0
M  V30 32877 H 3067.26 -1.33753 -4.0372 0
M  V30 32878 N 3065.58 1.36456 -0.788516 0
M  V30 32879 C 3066.54 2.28392 -0.192249 0
M  V30 32880 C 3067.54 1.48785 0.60989 0
M  V30 32881 O 3068.73 1.68784 0.431017 0
M  V30 32882 C 3065.86 3.32903 0.734038 0
M  V30 32883 H 3067.06 2.82634 -1.00289 0
M  V30 32884 H 3064.61 1.46005 -0.557878 0
M  V30 32885 H 3065.35 2.83815 1.56905 0
M  V30 32886 H 3065.13 3.9177 0.160806 0
M  V30 32887 H 3066.62 4.01564 1.14612 0
M  V30 32888 N 3067.06 0.540456 1.48043 0
M  V30 32889 C 3068.3 0.0102074 2.02797 0
M  V30 32890 C 3068.64 -1.32937 1.41568 0
M  V30 32891 O 3067.91 -1.86108 0.565172 0
M  V30 32892 C 3068.19 -0.100695 3.59959 0
M  V30 32893 C 3068.05 1.26479 4.31652 0
M  V30 32894 C 3069.37 -0.822379 4.32348 0
M  V30 32895 H 3066.49 0.00518347 0.736982 0
M  V30 32896 H 3069.13 0.699511 1.76655 0
M  V30 32897 H 3067.28 -0.687757 3.82364 0
M  V30 32898 H 3068.95 1.89377 4.20635 0
M  V30 32899 H 3067.19 1.84393 3.9266 0
M  V30 32900 H 3067.86 1.14008 5.40098 0
M  V30 32901 H 3070.34 -0.324091 4.14836 0
M  V30 32902 H 3069.22 -0.868898 5.41979 0
M  V30 32903 H 3069.48 -1.87494 4.00373 0
M  V30 32904 N 3068.54 -1.55163 0.276085 0
M  V30 32905 C 3069.78 -1.99914 -0.340924 0
M  V30 32906 C 3070.11 -1.16424 -1.55432 0
M  V30 32907 O 3069.39 -0.234551 -1.93081 0
M  V30 32908 C 3069.67 -3.52785 -0.722149 0
M  V30 32909 C 3069.53 -4.47027 0.498654 0
M  V30 32910 C 3070.84 -4.11591 -1.55822 0
M  V30 32911 H 3067.96 -0.726758 -0.122443 0
M  V30 32912 H 3070.61 -1.86095 0.383223 0
M  V30 32913 H 3068.76 -3.64691 -1.33913 0
M  V30 32914 H 3070.43 -4.47063 1.1372 0
M  V30 32915 H 3068.67 -4.18647 1.13654 0
M  V30 32916 H 3069.34 -5.51679 0.188138 0
M  V30 32917 H 3071.82 -4.02967 -1.03715 0
M  V30 32918 H 3070.69 -5.18763 -1.79378 0
M  V30 32919 H 3070.95 -3.61882 -2.53957 0
M  V30 32920 N 3070.01 -0.00338196 -1.576 0
M  V30 32921 C 3071.26 0.679413 -1.90338 0
M  V30 32922 C 3071.58 1.74125 -0.877808 0
M  V30 32923 O 3070.85 1.95718 0.0843241 0
M  V30 32924 H 3069.43 0.253936 -0.702514 0
M  V30 32925 H 3072.09 -0.0451074 -1.94848 0
M  V30 32926 H 3071.19 1.14852 -2.90199 0
M  V30 32927 N 3071.49 1.5528 0.269423 0
M  V30 32928 C 3072.74 1.77238 0.997915 0
M  V30 32929 C 3073.09 0.568578 1.83807 0
M  V30 32930 O 3072.39 -0.438673 1.86511 0
M  V30 32931 C 3072.58 3.02086 1.90995 0
M  V30 32932 C 3072.41 4.34493 1.15956 0
M  V30 32933 C 3071.18 4.97688 0.873786 0
M  V30 32934 C 3073.38 5.1137 0.548217 0
M  V30 32935 N 3071.36 6.13823 0.0969784 0
M  V30 32936 C 3072.73 6.19928 -0.0942503 0
M  V30 32937 C 3074.78 4.95804 0.456419 0
M  V30 32938 C 3073.49 7.14614 -0.819672 0
M  V30 32939 C 3075.51 5.90848 -0.255419 0
M  V30 32940 C 3074.88 6.98798 -0.886611 0
M  V30 32941 H 3070.97 0.700783 0.347026 0
M  V30 32942 H 3073.56 1.92773 0.273228 0
M  V30 32943 H 3071.73 2.87919 2.60686 0
M  V30 32944 H 3073.46 3.12433 2.57231 0
M  V30 32945 H 3070.22 4.58666 1.17995 0
M  V30 32946 H 3070.64 6.76425 -0.27886 0
M  V30 32947 H 3075.28 4.12443 0.930091 0
M  V30 32948 H 3073 7.97493 -1.30502 0
M  V30 32949 H 3076.59 5.80881 -0.326813 0
M  V30 32950 H 3075.47 7.71077 -1.42865 0
M  V30 32951 N 3072.97 -0.534097 1.48274 0
M  V30 32952 C 3073.92 -1.63908 1.6249 0
M  V30 32953 C 3074.89 -1.59397 0.46709 0
M  V30 32954 O 3076.07 -1.77884 0.69006 0
M  V30 32955 C 3073.21 -3.0218 1.66676 0
M  V30 32956 C 3072.32 -3.16955 2.93536 0
M  V30 32957 C 3071.46 -4.45763 2.8891 0
M  V30 32958 C 3070.5 -4.54052 4.10491 0
M  V30 32959 N 3069.64 -5.74243 4.03966 0
M  V30 32960 H 3074.48 -1.51096 2.56854 0
M  V30 32961 H 3072.01 -0.735682 1.27382 0
M  V30 32962 H 3073.97 -3.8228 1.67086 0
M  V30 32963 H 3072.6 -3.13773 0.758066 0
M  V30 32964 H 3071.65 -2.30135 3.0289 0
M  V30 32965 H 3072.96 -3.18942 3.83507 0
M  V30 32966 H 3072.12 -5.34149 2.87697 0
M  V30 32967 H 3070.86 -4.46291 1.9666 0
M  V30 32968 H 3069.86 -3.64074 4.11984 0
M  V30 32969 H 3071.09 -4.55265 5.03895 0
M  V30 32970 H 3069.03 -5.75677 3.14535 0
M  V30 32971 H 3068.95 -5.77707 4.87638 0
M  V30 32972 H 3070.22 -6.64928 4.06806 0
M  V30 32973 N 3074.45 -1.36793 -0.782652 0
M  V30 32974 C 3075.72 -1.21941 -1.52937 0
M  V30 32975 C 3076.1 0.191602 -2.10229 0
M  V30 32976 O 3075.45 1.19802 -1.94576 0
M  V30 32977 C 3075.66 -2.30679 -2.61894 0
M  V30 32978 C 3077.01 -2.67682 -3.29593 0
M  V30 32979 O 3078.03 -2.29773 -2.72182 0
M  V30 32980 O 3076.89 -3.32954 -4.33364 0
M  V30 32981 H 3073.99 -0.475191 -0.676847 0
M  V30 32982 H 3076.53 -1.48543 -0.820554 0
M  V30 32983 H 3075.31 -3.25216 -2.17602 0
M  V30 32984 H 3074.93 -2.0548 -3.40387 0
M  V30 32985 N 3075.93 1.00759 -1.21184 0
M  V30 32986 C 3076.86 2.11342 -0.99281 0
M  V30 32987 C 3077.84 1.69905 0.081332 0
M  V30 32988 O 3079.02 1.94043 -0.0779844 0
M  V30 32989 C 3076.15 3.42855 -0.553887 0
M  V30 32990 C 3075.11 3.98074 -1.5723 0
M  V30 32991 C 3074.43 5.25461 -0.989698 0
M  V30 32992 C 3075.73 4.30433 -2.95846 0
M  V30 32993 H 3077.43 2.29923 -1.9177 0
M  V30 32994 H 3074.97 1.10492 -0.923446 0
M  V30 32995 H 3076.93 4.19611 -0.387844 0
M  V30 32996 H 3075.65 3.24059 0.406645 0
M  V30 32997 H 3074.31 3.23434 -1.72586 0
M  V30 32998 H 3073.96 5.02996 -0.0209627 0
M  V30 32999 H 3073.66 5.63371 -1.66993 0
M  V30 33000 H 3075.18 6.04865 -0.834921 0
M  V30 33001 H 3076.59 4.98042 -2.83949 0
M  V30 33002 H 3074.99 4.79479 -3.6086 0
M  V30 33003 H 3076.06 3.38817 -3.46888 0
M  V30 33004 N 3077.4 1.01917 1.20211 0
M  V30 33005 C 3078.31 0.601351 2.26762 0
M  V30 33006 C 3079.33 -0.362339 1.70185 0
M  V30 33007 O 3080.51 -0.222647 2.00166 0
M  V30 33008 C 3077.57 -0.051227 3.46662 0
M  V30 33009 C 3076.63 0.958732 4.18458 0
M  V30 33010 C 3075.87 0.337201 5.32634 0
M  V30 33011 O 3076.09 -0.862411 5.63843 0
M  V30 33012 O 3075.02 1.05521 5.92578 0
M  V30 33013 H 3078.85 1.48849 2.64722 0
M  V30 33014 H 3076.43 0.788807 1.26879 0
M  V30 33015 H 3078.32 -0.415566 4.19346 0
M  V30 33016 H 3076.99 -0.912517 3.10572 0
M  V30 33017 H 3075.9 1.37448 3.47935 0
M  V30 33018 H 3077.23 1.79007 4.58495 0
M  V30 33019 N 3078.88 -1.36036 0.795742 0
M  V30 33020 C 3080.16 -1.93366 0.294777 0
M  V30 33021 C 3080.54 -1.72698 -1.21402 0
M  V30 33022 O 3079.89 -1.08962 -2.00847 0
M  V30 33023 C 3080.1 -3.42024 0.694314 0
M  V30 33024 C 3081.45 -4.19158 0.67764 0
M  V30 33025 O 3082.47 -3.50491 0.635181 0
M  V30 33026 O 3081.33 -5.41653 0.726222 0
M  V30 33027 H 3078.42 -0.823632 0.0745603 0
M  V30 33028 H 3080.97 -1.45178 0.878711 0
M  V30 33029 H 3079.74 -3.5075 1.73464 0
M  V30 33030 H 3079.36 -3.9751 0.0846037 0
M  V30 33031 N 3080.36 -0.5483 -1.47755 0
M  V30 33032 C 3081.61 -0.0208898 -2.02089 0
M  V30 33033 C 3081.93 1.33014 -1.42591 0
M  V30 33034 O 3081.2 1.86554 -0.597858 0
M  V30 33035 H 3079.78 -0.00473336 -0.746985 0
M  V30 33036 H 3082.44 -0.716288 -1.8126 0
M  V30 33037 H 3081.54 0.0738468 -3.12013 0
M  V30 33038 N 3081.84 1.55014 -0.28431 0
M  V30 33039 C 3083.06 2.04664 0.335763 0
M  V30 33040 C 3083.49 1.16097 1.47997 0
M  V30 33041 O 3082.85 0.161486 1.80579 0
M  V30 33042 C 3082.89 3.5194 0.785553 0
M  V30 33043 O 3082 3.66441 1.89196 0
M  V30 33044 H 3081.34 0.660508 0.0680117 0
M  V30 33045 H 3083.87 2.00216 -0.42129 0
M  V30 33046 H 3083.88 3.93478 1.07885 0
M  V30 33047 H 3082.55 4.15868 -0.0515406 0
M  V30 33048 H 3081.13 3.36807 1.60049 0
M  V30 33049 N 3083.32 0.0117398 1.57596 0
M  V30 33050 C 3084.26 -0.97586 2.09155 0
M  V30 33051 C 3085.23 -1.33402 0.989603 0
M  V30 33052 O 3086.42 -1.43035 1.26275 0
M  V30 33053 C 3083.56 -2.25876 2.6091 0
M  V30 33054 C 3082.67 -1.95859 3.8505 0
M  V30 33055 C 3081.81 -3.18316 4.25263 0
M  V30 33056 C 3080.85 -2.84039 5.42207 0
M  V30 33057 N 3079.98 -3.99068 5.77658 0
M  V30 33058 H 3084.82 -0.529259 2.93262 0
M  V30 33059 H 3082.36 -0.249666 1.44966 0
M  V30 33060 H 3084.32 -3.0089 2.89 0
M  V30 33061 H 3082.95 -2.68184 1.79659 0
M  V30 33062 H 3082 -1.11162 3.63796 0
M  V30 33063 H 3083.31 -1.66602 4.70154 0
M  V30 33064 H 3082.47 -4.01666 4.54697 0
M  V30 33065 H 3081.2 -3.5072 3.3889 0
M  V30 33066 H 3080.21 -1.99098 5.12484 0
M  V30 33067 H 3081.43 -2.5287 6.30265 0
M  V30 33068 H 3079.38 -4.31347 4.94242 0
M  V30 33069 H 3079.3 -3.73376 6.57363 0
M  V30 33070 H 3080.57 -4.83173 6.1169 0
M  V30 33071 N 3084.79 -1.55421 -0.261185 0
M  V30 33072 C 3086.02 -1.8036 -1.00766 0
M  V30 33073 C 3086.43 -0.583117 -1.7999 0
M  V30 33074 O 3085.78 0.457503 -1.77912 0
M  V30 33075 C 3085.84 -2.98424 -2.00458 0
M  V30 33076 C 3085.5 -4.35008 -1.40062 0
M  V30 33077 C 3086.5 -5.13547 -0.810298 0
M  V30 33078 C 3084.18 -4.81684 -1.42427 0
M  V30 33079 C 3086.18 -6.36903 -0.251672 0
M  V30 33080 C 3083.86 -6.04993 -0.86179 0
M  V30 33081 C 3084.86 -6.8244 -0.276502 0
M  V30 33082 O 3084.55 -8.03421 0.277335 0
M  V30 33083 H 3084.28 -0.604377 -0.302828 0
M  V30 33084 H 3086.84 -2.03289 -0.293727 0
M  V30 33085 H 3085.07 -2.71215 -2.75643 0
M  V30 33086 H 3086.76 -3.10582 -2.61331 0
M  V30 33087 H 3087.52 -4.78611 -0.784635 0
M  V30 33088 H 3083.4 -4.21404 -1.86922 0
M  V30 33089 H 3086.94 -6.97296 0.205801 0
M  V30 33090 H 3082.84 -6.39408 -0.884733 0
M  V30 33091 H 3083.61 -8.18328 0.167826 0
M  V30 33092 N 3086.27 0.526227 -1.48555 0
M  V30 33093 C 3087.5 1.3046 -1.60199 0
M  V30 33094 C 3087.91 1.87366 -0.262813 0
M  V30 33095 O 3087.25 1.67309 0.758507 0
M  V30 33096 C 3087.32 2.49081 -2.59228 0
M  V30 33097 C 3086.98 2.13234 -4.04203 0
M  V30 33098 C 3087.98 1.68685 -4.91774 0
M  V30 33099 C 3085.66 2.23642 -4.49766 0
M  V30 33100 C 3087.66 1.35015 -6.22936 0
M  V30 33101 C 3085.34 1.89583 -5.80949 0
M  V30 33102 C 3086.34 1.45341 -6.67357 0
M  V30 33103 O 3086.03 1.11731 -7.96098 0
M  V30 33104 H 3085.76 0.402857 -0.542847 0
M  V30 33105 H 3088.31 0.641123 -1.95138 0
M  V30 33106 H 3086.54 3.18422 -2.19418 0
M  V30 33107 H 3088.23 3.11139 -2.60667 0
M  V30 33108 H 3089 1.60112 -4.57809 0
M  V30 33109 H 3084.88 2.57033 -3.82694 0
M  V30 33110 H 3088.42 1.0041 -6.90336 0
M  V30 33111 H 3084.32 1.97799 -6.14447 0
M  V30 33112 H 3085.09 1.25097 -8.08884 0
M  V30 33113 N 3087.75 1.37206 0.775387 0
M  V30 33114 C 3089 1.32213 1.53381 0
M  V30 33115 C 3089.33 -0.0944616 1.9427 0
M  V30 33116 O 3088.58 -1.06689 1.64061 0
M  V30 33117 C 3088.88 2.20372 2.81373 0
M  V30 33118 C 3088.55 3.68704 2.59554 0
M  V30 33119 C 3087.21 4.09129 2.53312 0
M  V30 33120 C 3089.56 4.62691 2.39931 0
M  V30 33121 C 3086.89 5.41662 2.25432 0
M  V30 33122 C 3089.24 5.95456 2.13575 0
M  V30 33123 C 3087.9 6.3499 2.05775 0
M  V30 33124 H 3087.17 0.483803 0.561262 0
M  V30 33125 H 3089.82 1.69381 0.893436 0
M  V30 33126 H 3088.13 1.76187 3.4995 0
M  V30 33127 H 3089.82 2.13825 3.39234 0
M  V30 33128 H 3086.41 3.36642 2.65274 0
M  V30 33129 H 3090.6 4.32321 2.43746 0
M  V30 33130 H 3085.85 5.71258 2.17886 0
M  V30 33131 H 3090.03 6.6784 1.97389 0
M  V30 33132 H 3087.65 7.37612 1.83935 0
M  V30 33133 N 3089.23 -1.00115 1.21716 0
M  V30 33134 C 3090.51 -1.71234 0.945421 0
M  V30 33135 C 3090.89 -2.0403 -0.541736 0
M  V30 33136 O 3090.23 -1.71708 -1.5076 0
M  V30 33137 C 3090.44 -2.96896 1.83449 0
M  V30 33138 C 3091.79 -3.69846 2.08565 0
M  V30 33139 O 3092.82 -3.06886 1.8083 0
M  V30 33140 O 3091.67 -4.831 2.55494 0
M  V30 33141 H 3088.77 -0.747003 0.354847 0
M  V30 33142 H 3091.31 -1.05823 1.32663 0
M  V30 33143 H 3090.09 -2.691 2.84079 0
M  V30 33144 H 3089.71 -3.70047 1.45434 0
M  V30 33145 N 3090.71 -1.02553 -1.19669 0
M  V30 33146 C 3091.62 -0.613368 -2.2644 0
M  V30 33147 C 3092.63 0.353309 -1.70375 0
M  V30 33148 O 3093.81 0.212029 -2.00281 0
M  V30 33149 C 3090.87 0.0328419 -3.46684 0
M  V30 33150 C 3089.94 -0.980911 -4.17943 0
M  V30 33151 C 3089.17 -0.365443 -5.32447 0
M  V30 33152 O 3089.39 0.832497 -5.64292 0
M  V30 33153 O 3088.33 -1.08662 -5.9201 0
M  V30 33154 H 3092.15 -1.5025 -2.63929 0
M  V30 33155 H 3089.74 -0.795524 -1.26459 0
M  V30 33156 H 3091.62 0.393321 -4.1956 0
M  V30 33157 H 3090.29 0.896034 -3.11051 0
M  V30 33158 H 3089.2 -1.39292 -3.47201 0
M  V30 33159 H 3090.53 -1.81436 -4.57539 0
M  V30 33160 N 3092.19 1.35612 -0.802945 0
M  V30 33161 C 3093.46 1.93207 -0.305027 0
M  V30 33162 C 3093.84 1.7334 1.20485 0
M  V30 33163 O 3093.19 1.10026 2.00266 0
M  V30 33164 C 3093.4 3.41651 -0.712443 0
M  V30 33165 C 3094.75 4.18792 -0.699859 0
M  V30 33166 O 3095.77 3.50149 -0.653759 0
M  V30 33167 O 3094.63 5.41261 -0.754937 0
M  V30 33168 H 3091.73 0.823225 -0.0789272 0
M  V30 33169 H 3094.27 1.4471 -0.886398 0
M  V30 33170 H 3093.04 3.49825 -1.75322 0
M  V30 33171 H 3092.67 3.9746 -0.105683 0
M  V30 33172 N 3093.66 0.556128 1.47462 0
M  V30 33173 C 3094.89 0.0364948 2.06868 0
M  V30 33174 C 3095.31 -1.25674 1.40895 0
M  V30 33175 O 3094.66 -1.75371 0.505114 0
M  V30 33176 C 3094.71 -0.163921 3.61128 0
M  V30 33177 O 3094.44 1.0781 4.24628 0
M  V30 33178 C 3095.94 -0.720959 4.37398 0
M  V30 33179 H 3093.16 0.0453517 0.669466 0
M  V30 33180 H 3095.7 0.769231 1.89481 0
M  V30 33181 H 3093.86 -0.846783 3.78032 0
M  V30 33182 H 3094.27 0.875158 5.17147 0
M  V30 33183 H 3095.74 -0.810488 5.46017 0
M  V30 33184 H 3096.22 -1.73198 4.03607 0
M  V30 33185 H 3096.83 -0.0738292 4.25236 0
M  V30 33186 N 3095.14 -1.54861 0.292527 0
M  V30 33187 C 3096.1 -2.21886 -0.574384 0
M  V30 33188 C 3097.1 -1.2022 -1.06789 0
M  V30 33189 O 3098.29 -1.45011 -0.965275 0
M  V30 33190 C 3095.43 -2.89856 -1.79433 0
M  V30 33191 H 3096.62 -2.99898 0.0110847 0
M  V30 33192 H 3094.17 -1.5624 0.0432835 0
M  V30 33193 H 3094.91 -2.15901 -2.41986 0
M  V30 33194 H 3094.69 -3.64376 -1.4482 0
M  V30 33195 H 3096.18 -3.41011 -2.41042 0
M  V30 33196 N 3096.62 -0.0200973 -1.57587 0
M  V30 33197 C 3097.53 0.980638 -2.13121 0
M  V30 33198 C 3098.55 1.36326 -1.08126 0
M  V30 33199 O 3099.72 1.4465 -1.40136 0
M  V30 33200 C 3096.79 2.24739 -2.63995 0
M  V30 33201 C 3095.85 1.92603 -3.8367 0
M  V30 33202 C 3095.08 3.13238 -4.32108 0
M  V30 33203 O 3095.3 4.25599 -3.79765 0
M  V30 33204 O 3094.24 2.96062 -5.24052 0
M  V30 33205 H 3098.06 0.538476 -2.98888 0
M  V30 33206 H 3095.65 0.199964 -1.48056 0
M  V30 33207 H 3097.53 2.9912 -2.96826 0
M  V30 33208 H 3096.21 2.68154 -1.81316 0
M  V30 33209 H 3095.11 1.15635 -3.5578 0
M  V30 33210 H 3096.45 1.54011 -4.67484 0
M  V30 33211 N 3098.1 1.55557 0.252939 0
M  V30 33212 C 3099.06 1.89013 1.29641 0
M  V30 33213 C 3100.06 0.766121 1.41376 0
M  V30 33214 O 3101.25 1.03416 1.40181 0
M  V30 33215 C 3098.38 2.11321 2.675 0
M  V30 33216 H 3099.58 2.8231 1.01197 0
M  V30 33217 H 3097.13 1.48356 0.491951 0
M  V30 33218 H 3097.86 1.20472 3.01093 0
M  V30 33219 H 3097.65 2.93177 2.60365 0
M  V30 33220 H 3099.14 2.38409 3.42857 0
M  V30 33221 N 3099.58 -0.518341 1.48832 0
M  V30 33222 C 3100.81 -1.29609 1.60889 0
M  V30 33223 C 3101.21 -1.87224 0.272746 0
M  V30 33224 O 3100.56 -1.67709 -0.749624 0
M  V30 33225 C 3100.62 -2.47702 2.60545 0
M  V30 33226 C 3100.28 -2.11088 4.05328 0
M  V30 33227 C 3101.28 -1.66075 4.92661 0
M  V30 33228 C 3098.96 -2.21254 4.50946 0
M  V30 33229 C 3100.96 -1.31709 6.23644 0
M  V30 33230 C 3098.65 -1.865 5.81946 0
M  V30 33231 C 3099.64 -1.418 6.68118 0
M  V30 33232 O 3099.33 -1.07508 7.96679 0
M  V30 33233 H 3099.06 -0.399972 0.544975 0
M  V30 33234 H 3101.62 -0.630765 1.95475 0
M  V30 33235 H 3099.85 -3.17254 2.21103 0
M  V30 33236 H 3101.54 -3.09752 2.62313 0
M  V30 33237 H 3102.3 -1.57681 4.58652 0
M  V30 33238 H 3098.18 -2.55 3.84052 0
M  V30 33239 H 3101.73 -0.967476 6.90859 0
M  V30 33240 H 3097.62 -1.94538 6.15488 0
M  V30 33241 H 3098.39 -1.20805 8.09536 0
M  V30 33242 N 3101.05 -1.37615 -0.7681 0
M  V30 33243 C 3102.3 -1.32347 -1.52207 0
M  V30 33244 C 3102.62 0.0885418 -1.95399 0
M  V30 33245 O 3103.82 0.263705 -2.70216 0
M  V30 33246 C 3102.28 -2.32326 -2.74868 0
M  V30 33247 C 3101.89 -3.79075 -2.3876 0
M  V30 33248 C 3103.63 -2.36076 -3.52801 0
M  V30 33249 C 3101.54 -4.70776 -3.57944 0
M  V30 33250 H 3100.47 -0.491893 -0.571452 0
M  V30 33251 H 3103.12 -1.63095 -0.840976 0
M  V30 33252 H 3101.5 -1.94602 -3.44886 0
M  V30 33253 H 3102.67 -4.25657 -1.76502 0
M  V30 33254 H 3100.99 -3.78306 -1.73993 0
M  V30 33255 H 3103.59 -3.0179 -4.41392 0
M  V30 33256 H 3103.93 -1.37542 -3.92922 0
M  V30 33257 H 3104.46 -2.72526 -2.89783 0
M  V30 33258 H 3101.2 -5.70452 -3.22901 0
M  V30 33259 H 3100.72 -4.28896 -4.19295 0
M  V30 33260 H 3102.4 -4.88088 -4.24711 0
M  V30 33261 N 3102.53 0.994677 -1.22245 0
M  V30 33262 C 3103.78 1.73054 -1.04387 0
M  V30 33263 C 3104.1 1.90375 0.422171 0
M  V30 33264 O 3103.37 1.46211 1.30381 0
M  V30 33265 H 3101.95 0.641179 -0.383274 0
M  V30 33266 H 3104.61 1.19808 -1.53728 0
M  V30 33267 H 3103.71 2.7257 -1.52026 0
M  V30 33268 N 3104.01 1.03186 1.19123 0
M  V30 33269 C 3104.94 0.635928 2.24674 0
M  V30 33270 C 3105.92 -0.356536 1.66321 0
M  V30 33271 O 3107.11 -0.238591 1.92729 0
M  V30 33272 C 3104.24 -0.011008 3.47298 0
M  V30 33273 C 3103.19 0.904053 4.18343 0
M  V30 33274 C 3102.52 0.122064 5.34561 0
M  V30 33275 C 3103.82 2.21915 4.72812 0
M  V30 33276 H 3105.51 1.51829 2.58047 0
M  V30 33277 H 3103.06 0.731482 1.24038 0
M  V30 33278 H 3105.01 -0.299656 4.20333 0
M  V30 33279 H 3103.73 -0.92819 3.13133 0
M  V30 33280 H 3102.39 1.17694 3.47194 0
M  V30 33281 H 3102.04 -0.797247 4.96642 0
M  V30 33282 H 3101.74 0.7316 5.83028 0
M  V30 33283 H 3103.26 -0.159773 6.10391 0
M  V30 33284 H 3104.68 1.99182 5.37587 0
M  V30 33285 H 3103.07 2.78088 5.31778 0
M  V30 33286 H 3104.14 2.87175 3.90715 0
M  V30 33287 N 3105.49 -1.35184 0.810125 0
M  V30 33288 C 3106.71 -2.03434 0.403676 0
M  V30 33289 C 3107.14 -1.60643 -0.978541 0
M  V30 33290 O 3106.5 -0.784808 -1.63433 0
M  V30 33291 C 3106.54 -3.57128 0.499217 0
M  V30 33292 O 3105.65 -4.09527 -0.485967 0
M  V30 33293 H 3104.99 -0.64238 0.168061 0
M  V30 33294 H 3107.52 -1.72706 1.09699 0
M  V30 33295 H 3107.53 -4.06316 0.370308 0
M  V30 33296 H 3106.2 -3.87621 1.5074 0
M  V30 33297 H 3104.78 -3.7155 -0.317004 0
M  V30 33298 N 3106.97 -0.56394 -1.47165 0
M  V30 33299 C 3107.9 0.168107 -2.32894 0
M  V30 33300 C 3108.88 0.902188 -1.44203 0
M  V30 33301 O 3110.06 0.881335 -1.7305 0
M  V30 33302 C 3107.19 1.19433 -3.26118 0
M  V30 33303 C 3106.15 0.576288 -4.24102 0
M  V30 33304 C 3105.47 1.70763 -5.06699 0
M  V30 33305 C 3106.77 -0.474341 -5.20142 0
M  V30 33306 H 3108.47 -0.547625 -2.94349 0
M  V30 33307 H 3106.01 -0.264802 -1.41544 0
M  V30 33308 H 3107.97 1.71467 -3.84938 0
M  V30 33309 H 3106.69 1.9401 -2.62732 0
M  V30 33310 H 3105.35 0.077189 -3.66519 0
M  V30 33311 H 3105 2.4426 -4.39711 0
M  V30 33312 H 3104.7 1.29984 -5.73043 0
M  V30 33313 H 3106.22 2.2311 -5.68379 0
M  V30 33314 H 3107.63 -0.0398043 -5.73286 0
M  V30 33315 H 3106.03 -0.801391 -5.94725 0
M  V30 33316 H 3107.1 -1.36772 -4.65211 0
M  V30 33317 N 3108.44 1.54704 -0.300735 0
M  V30 33318 C 3109.69 1.99313 0.309393 0
M  V30 33319 C 3110.01 1.19275 1.55025 0
M  V30 33320 O 3111.21 1.5415 2.23495 0
M  V30 33321 C 3109.67 3.54833 0.601794 0
M  V30 33322 C 3109.28 4.43679 -0.620714 0
M  V30 33323 C 3111.02 4.07968 1.17313 0
M  V30 33324 C 3108.93 5.90631 -0.30148 0
M  V30 33325 H 3107.86 0.744489 0.119382 0
M  V30 33326 H 3110.51 1.78875 -0.409399 0
M  V30 33327 H 3108.89 3.7117 1.38017 0
M  V30 33328 H 3110.06 4.39116 -1.39693 0
M  V30 33329 H 3108.38 4.01314 -1.11067 0
M  V30 33330 H 3110.98 5.15328 1.42622 0
M  V30 33331 H 3111.32 3.58553 2.1153 0
M  V30 33332 H 3111.85 3.95172 0.456465 0
M  V30 33333 H 3108.59 6.44194 -1.21221 0
M  V30 33334 H 3108.11 5.98203 0.437469 0
M  V30 33335 H 3109.79 6.46927 0.0970503 0
M  V30 33336 N 3109.92 0.0284543 1.57574 0
M  V30 33337 C 3110.87 -0.971638 2.11334 0
M  V30 33338 C 3111.86 -1.33736 1.03976 0
M  V30 33339 O 3113.07 -1.31967 1.22412 0
M  V30 33340 H 3109.45 -0.331113 0.67518 0
M  V30 33341 H 3111.42 -0.492908 2.94301 0
M  V30 33342 C 3110.17 -2.24511 2.655 0
M  V30 33343 H 3109.49 -1.97244 3.47757 0
M  V30 33344 H 3110.93 -2.927 3.06762 0
M  V30 33345 C 3109.39 -2.9744 1.58213 0
M  V30 33346 O 3109.92 -3.89523 0.981565 0
M  V30 33347 N 3108.12 -2.59764 1.30273 0
M  V30 33348 H 3107.67 -1.8496 1.79297 0
M  V30 33349 H 3107.63 -3.08869 0.587139 0
M  V30 33350 N 3111.4 -1.55689 -0.244686 0
M  V30 33351 C 3112.68 -1.68379 -0.995377 0
M  V30 33352 C 3113.06 -0.568985 -2.03287 0
M  V30 33353 O 3112.41 0.42726 -2.2447 0
M  V30 33354 C 3112.62 -3.0877 -1.62672 0
M  V30 33355 C 3113.96 -3.6744 -2.12774 0
M  V30 33356 O 3114.99 -3.11584 -1.72609 0
M  V30 33357 O 3113.85 -4.65365 -2.86528 0
M  V30 33358 H 3110.94 -0.684931 -0.463464 0
M  V30 33359 H 3113.49 -1.68019 -0.238297 0
M  V30 33360 H 3112.26 -3.81359 -0.876402 0
M  V30 33361 H 3111.88 -3.13151 -2.44995 0
M  V30 33362 N 3112.88 0.510441 -1.49105 0
M  V30 33363 C 3114.13 1.26265 -1.57802 0
M  V30 33364 C 3114.45 1.93227 -0.262383 0
M  V30 33365 O 3113.72 1.82284 0.717592 0
M  V30 33366 H 3112.3 0.469029 -0.581395 0
M  V30 33367 H 3114.96 0.59239 -1.85679 0
M  V30 33368 H 3114.06 2.03161 -2.36922 0
M  V30 33369 N 3114.36 1.38021 0.760791 0
M  V30 33370 C 3115.29 1.30553 1.88384 0
M  V30 33371 C 3116.3 0.219147 1.61318 0
M  V30 33372 O 3117.49 0.476152 1.72032 0
M  V30 33373 C 3114.59 0.998348 3.23861 0
M  V30 33374 C 3113.76 2.19239 3.78488 0
M  V30 33375 C 3112.82 1.85377 4.92465 0
M  V30 33376 O 3111.85 2.57794 5.07475 0
M  V30 33377 N 3113.05 0.80442 5.74899 0
M  V30 33378 H 3115.82 2.27325 1.95304 0
M  V30 33379 H 3113.38 1.31788 0.9404 0
M  V30 33380 H 3115.37 0.75247 3.97643 0
M  V30 33381 H 3113.94 0.118825 3.12374 0
M  V30 33382 H 3113.16 2.59936 2.96356 0
M  V30 33383 H 3114.45 2.98943 4.11717 0
M  V30 33384 H 3113.84 0.203727 5.65333 0
M  V30 33385 H 3112.4 0.618415 6.4886 0
M  V30 33386 N 3115.83 -0.98818 1.22771 0
M  V30 33387 C 3117.06 -1.76123 1.08001 0
M  V30 33388 C 3117.47 -1.85506 -0.37203 0
M  V30 33389 O 3116.82 -1.32782 -1.26943 0
M  V30 33390 C 3116.88 -3.20831 1.62196 0
M  V30 33391 C 3116.54 -3.3498 3.10865 0
M  V30 33392 C 3117.54 -3.2192 4.08244 0
M  V30 33393 C 3115.22 -3.59879 3.50417 0
M  V30 33394 C 3117.22 -3.33551 5.43159 0
M  V30 33395 C 3114.9 -3.71151 4.85479 0
M  V30 33396 C 3115.9 -3.57996 5.8166 0
M  V30 33397 O 3115.59 -3.68883 7.14269 0
M  V30 33398 H 3115.32 -0.559799 0.378947 0
M  V30 33399 H 3117.88 -1.25076 1.62927 0
M  V30 33400 H 3116.11 -3.73092 1.01682 0
M  V30 33401 H 3117.8 -3.79869 1.43017 0
M  V30 33402 H 3118.56 -3.0259 3.79031 0
M  V30 33403 H 3114.44 -3.69193 2.76075 0
M  V30 33404 H 3117.98 -3.232 6.18213 0
M  V30 33405 H 3113.88 -3.89989 5.14372 0
M  V30 33406 H 3114.65 -3.85726 7.21912 0
M  V30 33407 N 3117.31 -1.03816 -1.18575 0
M  V30 33408 C 3118.54 -0.758898 -1.92157 0
M  V30 33409 C 3118.95 0.687467 -1.76268 0
M  V30 33410 O 3118.29 1.48008 -1.08808 0
M  V30 33411 C 3118.36 -1.04223 -3.44061 0
M  V30 33412 C 3118.02 -2.482 -3.83726 0
M  V30 33413 C 3119.02 -3.4637 -3.87716 0
M  V30 33414 C 3116.7 -2.82846 -4.15095 0
M  V30 33415 C 3118.7 -4.77236 -4.22522 0
M  V30 33416 C 3116.38 -4.13919 -4.49571 0
M  V30 33417 C 3117.38 -5.10925 -4.5326 0
M  V30 33418 O 3117.07 -6.39649 -4.86933 0
M  V30 33419 H 3116.8 -0.276346 -0.616935 0
M  V30 33420 H 3119.35 -1.38822 -1.51386 0
M  V30 33421 H 3117.58 -0.355777 -3.8506 0
M  V30 33422 H 3119.27 -0.751162 -3.98889 0
M  V30 33423 H 3120.04 -3.20943 -3.63622 0
M  V30 33424 H 3115.92 -2.08013 -4.11402 0
M  V30 33425 H 3119.46 -5.52949 -4.25316 0
M  V30 33426 H 3115.36 -4.39116 -4.73126 0
M  V30 33427 H 3116.13 -6.44262 -5.04846 0
M  V30 33428 N 3118.79 1.34753 -0.817283 0
M  V30 33429 C 3120.04 1.98456 -0.402682 0
M  V30 33430 C 3120.37 1.64811 1.03284 0
M  V30 33431 O 3119.62 0.908882 1.73314 0
M  V30 33432 C 3119.92 3.53215 -0.545362 0
M  V30 33433 C 3119.59 4.06756 -1.94578 0
M  V30 33434 C 3118.25 4.2109 -2.32888 0
M  V30 33435 C 3120.6 4.35624 -2.86149 0
M  V30 33436 C 3117.93 4.61615 -3.62116 0
M  V30 33437 C 3120.28 4.77593 -4.14834 0
M  V30 33438 C 3118.94 4.90132 -4.5313 0
M  V30 33439 H 3118.21 0.726201 -0.147352 0
M  V30 33440 H 3120.86 1.6079 -1.04014 0
M  V30 33441 H 3119.17 3.91407 0.175507 0
M  V30 33442 H 3120.86 4.00475 -0.205182 0
M  V30 33443 H 3117.45 3.96058 -1.63817 0
M  V30 33444 H 3121.64 4.24093 -2.57796 0
M  V30 33445 H 3116.89 4.69514 -3.91621 0
M  V30 33446 H 3121.07 4.9889 -4.85882 0
M  V30 33447 H 3118.69 5.21292 -5.53316 0
M  V30 33448 N 3120.27 0.571737 1.46864 0
M  V30 33449 C 3121.22 -0.180673 2.31897 0
M  V30 33450 C 3122.21 -0.895165 1.43816 0
M  V30 33451 O 3123.42 -0.8148 1.60502 0
M  V30 33452 H 3119.79 -0.0771349 0.748034 0
M  V30 33453 H 3121.76 0.555484 2.93184 0
M  V30 33454 C 3120.51 -1.18818 3.26768 0
M  V30 33455 H 3119.84 -0.64782 3.94517 0
M  V30 33456 H 3121.28 -1.68526 3.8907 0
M  V30 33457 C 3119.73 -2.24355 2.51329 0
M  V30 33458 O 3120.26 -3.31528 2.26831 0
M  V30 33459 N 3118.47 -1.98669 2.12083 0
M  V30 33460 H 3118.02 -1.11526 2.32206 0
M  V30 33461 H 3117.98 -2.69495 1.61925 0
M  V30 33462 N 3121.75 -1.54542 0.308935 0
M  V30 33463 C 3123.02 -1.92415 -0.351524 0
M  V30 33464 C 3123.4 -1.23702 -1.71058 0
M  V30 33465 O 3122.75 -0.37554 -2.25393 0
M  V30 33466 C 3122.96 -3.45978 -0.458296 0
M  V30 33467 C 3124.31 -4.18357 -0.72545 0
M  V30 33468 O 3125.33 -3.52055 -0.541797 0
M  V30 33469 O 3124.19 -5.35747 -1.07875 0
M  V30 33470 H 3121.29 -0.802962 -0.197943 0
M  V30 33471 H 3123.83 -1.6589 0.357577 0
M  V30 33472 H 3122.61 -3.88134 0.496791 0
M  V30 33473 H 3122.23 -3.78563 -1.21555 0
M  V30 33474 N 3123.23 -0.0368104 -1.57557 0
M  V30 33475 C 3124.5 0.679228 -1.83428 0
M  V30 33476 C 3124.88 1.89886 -0.922307 0
M  V30 33477 O 3124.23 2.28491 0.0202098 0
M  V30 33478 C 3124.44 1.05016 -3.32825 0
M  V30 33479 C 3125.79 1.43854 -3.99489 0
M  V30 33480 O 3126.81 1.14292 -3.37366 0
M  V30 33481 O 3125.67 1.98968 -5.08993 0
M  V30 33482 H 3122.77 0.333923 -0.756587 0
M  V30 33483 H 3125.31 -0.0650792 -1.69575 0
M  V30 33484 H 3124.08 0.18244 -3.90874 0
M  V30 33485 H 3123.71 1.85238 -3.51813 0
M  V30 33486 N 3124.7 1.55817 0.236426 0
M  V30 33487 C 3125.95 1.77786 0.961079 0
M  V30 33488 C 3126.27 0.60268 1.85453 0
M  V30 33489 O 3125.54 -0.381104 1.92157 0
M  V30 33490 H 3124.12 0.655703 0.357859 0
M  V30 33491 H 3126.78 1.93266 0.251854 0
M  V30 33492 H 3125.88 2.69348 1.57665 0
M  V30 33493 N 3126.18 -0.502526 1.49373 0
M  V30 33494 C 3127.43 -1.25336 1.58031 0
M  V30 33495 C 3127.74 -1.93706 0.271528 0
M  V30 33496 O 3128.95 -2.70467 0.236632 0
M  V30 33497 C 3127.41 -2.27568 2.78821 0
M  V30 33498 C 3127.01 -1.65144 4.16451 0
M  V30 33499 C 3128.76 -3.03489 2.96807 0
M  V30 33500 C 3126.66 -2.65477 5.28466 0
M  V30 33501 H 3125.59 -0.471484 0.588404 0
M  V30 33502 H 3128.25 -0.527409 1.75757 0
M  V30 33503 H 3126.63 -3.03319 2.54585 0
M  V30 33504 H 3127.8 -0.95395 4.50818 0
M  V30 33505 H 3126.12 -1.01618 4.0381 0
M  V30 33506 H 3128.71 -3.78517 3.77662 0
M  V30 33507 H 3129.06 -3.61011 2.07309 0
M  V30 33508 H 3129.59 -2.34853 3.21075 0
M  V30 33509 H 3126.33 -2.12738 6.20018 0
M  V30 33510 H 3125.85 -3.3347 4.98556 0
M  V30 33511 H 3127.53 -3.27933 5.57736 0
M  V30 33512 N 3127.66 -1.38422 -0.75346 0
M  V30 33513 C 3128.59 -1.3004 -1.87523 0
M  V30 33514 C 3129.57 -0.177407 -1.61629 0
M  V30 33515 O 3130.75 -0.354748 -1.85132 0
M  V30 33516 C 3127.88 -1.01491 -3.23137 0
M  V30 33517 C 3126.93 -2.15729 -3.67917 0
M  V30 33518 S 3127.76 -3.7787 -3.7944 0
M  V30 33519 C 3128.92 -3.51509 -5.17873 0
M  V30 33520 H 3129.15 -2.24981 -1.94347 0
M  V30 33521 H 3126.68 -1.2426 -0.916453 0
M  V30 33522 H 3128.64 -0.85703 -4.01454 0
M  V30 33523 H 3127.3 -0.0826751 -3.13991 0
M  V30 33524 H 3126.49 -1.913 -4.66284 0
M  V30 33525 H 3126.1 -2.27625 -2.96754 0
M  V30 33526 H 3128.39 -3.0763 -6.03631 0
M  V30 33527 H 3129.33 -4.49269 -5.47323 0
M  V30 33528 H 3129.74 -2.86018 -4.86676 0
M  V30 33529 N 3129.14 0.981655 -1.23294 0
M  V30 33530 C 3130.07 2.07624 -0.970818 0
M  V30 33531 C 3131.08 1.62708 0.054722 0
M  V30 33532 O 3132.27 1.77583 -0.180655 0
M  V30 33533 C 3129.37 3.36024 -0.440609 0
M  V30 33534 C 3128.54 4.09916 -1.52602 0
M  V30 33535 C 3127.6 5.16593 -1.00091 0
M  V30 33536 O 3126.63 5.43545 -1.68961 0
M  V30 33537 N 3127.83 5.80245 0.171915 0
M  V30 33538 H 3130.6 2.30688 -1.9132 0
M  V30 33539 H 3128.16 1.14826 -1.14135 0
M  V30 33540 H 3130.15 4.04632 -0.0743822 0
M  V30 33541 H 3128.72 3.09937 0.407156 0
M  V30 33542 H 3127.94 3.3578 -2.06507 0
M  V30 33543 H 3129.23 4.56051 -2.25598 0
M  V30 33544 H 3128.63 5.60733 0.748031 0
M  V30 33545 H 3127.18 6.50034 0.479418 0
M  V30 33546 N 3130.62 1.04444 1.18022 0
M  V30 33547 C 3131.86 0.751166 1.88376 0
M  V30 33548 C 3132.19 -0.719539 1.80378 0
M  V30 33549 O 3131.47 -1.52546 1.20665 0
M  V30 33550 C 3131.75 1.22271 3.38706 0
M  V30 33551 C 3131.61 2.7558 3.55494 0
M  V30 33552 C 3132.92 0.815764 4.32473 0
M  V30 33553 H 3130.04 0.274352 0.684032 0
M  V30 33554 H 3132.69 1.29711 1.38835 0
M  V30 33555 H 3130.84 0.758259 3.81028 0
M  V30 33556 H 3132.51 3.30092 3.22238 0
M  V30 33557 H 3130.75 3.15222 2.98023 0
M  V30 33558 H 3131.42 3.03634 4.60989 0
M  V30 33559 H 3133.9 1.21549 3.97951 0
M  V30 33560 H 3132.77 1.17341 5.36211 0
M  V30 33561 H 3133.03 -0.280823 4.41207 0
M  V30 33562 N 3132.09 -1.34317 0.824418 0
M  V30 33563 C 3133.34 -1.97848 0.412385 0
M  V30 33564 C 3133.66 -1.65678 -1.02838 0
M  V30 33565 O 3132.93 -0.948275 -1.71419 0
M  V30 33566 H 3131.51 -0.731887 0.149499 0
M  V30 33567 H 3134.17 -1.63929 1.05419 0
M  V30 33568 H 3133.27 -3.07522 0.532611 0
M  V30 33569 N 3133.57 -0.579517 -1.46558 0
M  V30 33570 C 3134.82 -0.0638773 -2.02399 0
M  V30 33571 C 3135.15 1.29481 -1.45137 0
M  V30 33572 O 3134.4 1.8611 -0.605094 0
M  V30 33573 C 3134.7 0.0552175 -3.57357 0
M  V30 33574 C 3134.37 -1.23547 -4.33644 0
M  V30 33575 C 3133.03 -1.58908 -4.54205 0
M  V30 33576 C 3135.38 -2.08973 -4.77472 0
M  V30 33577 C 3132.71 -2.79501 -5.15845 0
M  V30 33578 C 3135.06 -3.28789 -5.40445 0
M  V30 33579 C 3133.72 -3.64437 -5.59234 0
M  V30 33580 H 3132.99 -0.0233744 -0.740631 0
M  V30 33581 H 3135.64 -0.755513 -1.75967 0
M  V30 33582 H 3133.95 0.829963 -3.82908 0
M  V30 33583 H 3135.64 0.469894 -3.98237 0
M  V30 33584 H 3132.23 -0.950173 -4.17935 0
M  V30 33585 H 3136.42 -1.82958 -4.61346 0
M  V30 33586 H 3131.67 -3.07261 -5.28584 0
M  V30 33587 H 3135.85 -3.95255 -5.73364 0
M  V30 33588 H 3133.47 -4.57972 -6.06767 0
M  V30 33589 N 3135.05 1.54376 -0.317127 0
M  V30 33590 C 3136.3 2.00747 0.2878 0
M  V30 33591 C 3136.63 1.20504 1.5229 0
M  V30 33592 O 3135.9 0.28566 1.92391 0
M  V30 33593 C 3136.19 3.54575 0.628361 0
M  V30 33594 C 3136.04 4.45548 -0.617 0
M  V30 33595 C 3137.36 4.15578 1.44855 0
M  V30 33596 H 3134.48 0.729749 0.103131 0
M  V30 33597 H 3137.12 1.85014 -0.432428 0
M  V30 33598 H 3135.27 3.68113 1.24197 0
M  V30 33599 H 3136.94 4.43891 -1.25534 0
M  V30 33600 H 3135.19 4.15486 -1.24713 0
M  V30 33601 H 3135.86 5.50987 -0.33434 0
M  V30 33602 H 3138.33 4.05575 0.929944 0
M  V30 33603 H 3137.21 5.23336 1.65561 0
M  V30 33604 H 3137.47 3.68488 2.44273 0
M  V30 33605 N 3136.53 0.0451655 1.57535 0
M  V30 33606 C 3137.76 -0.639707 1.96762 0
M  V30 33607 C 3138.17 -1.64732 0.922434 0
M  V30 33608 O 3137.53 -1.82258 -0.0940214 0
M  V30 33609 C 3137.58 -1.33194 3.36068 0
M  V30 33610 O 3137.3 -0.36468 4.3658 0
M  V30 33611 C 3138.8 -2.10713 3.90019 0
M  V30 33612 H 3136.02 -0.175312 0.647693 0
M  V30 33613 H 3138.57 0.109687 2.04206 0
M  V30 33614 H 3136.72 -2.03261 3.29794 0
M  V30 33615 H 3137.13 -0.858077 5.17433 0
M  V30 33616 H 3138.61 -2.54578 4.8979 0
M  V30 33617 H 3139.09 -2.95283 3.25123 0
M  V30 33618 H 3139.69 -1.4557 3.99612 0
M  V30 33619 N 3138.01 -1.5594 -0.228159 0
M  V30 33620 C 3139.26 -1.77845 -0.951532 0
M  V30 33621 C 3139.57 -0.612534 -1.85762 0
M  V30 33622 O 3140.77 -0.715052 -2.61915 0
M  V30 33623 C 3139.23 -3.14926 -1.74211 0
M  V30 33624 C 3138.84 -4.39222 -0.882492 0
M  V30 33625 C 3140.58 -3.46161 -2.45709 0
M  V30 33626 C 3138.49 -5.6733 -1.67004 0
M  V30 33627 H 3137.42 -0.663037 -0.359024 0
M  V30 33628 H 3140.07 -1.82345 -0.205604 0
M  V30 33629 H 3138.45 -3.04585 -2.5307 0
M  V30 33630 H 3139.63 -4.60602 -0.134909 0
M  V30 33631 H 3137.94 -4.15458 -0.279949 0
M  V30 33632 H 3140.54 -4.39097 -3.0512 0
M  V30 33633 H 3140.88 -2.68352 -3.18266 0
M  V30 33634 H 3141.41 -3.57802 -1.73846 0
M  V30 33635 H 3138.15 -6.48013 -0.987872 0
M  V30 33636 H 3137.67 -5.50022 -2.39241 0
M  V30 33637 H 3139.35 -6.07266 -2.23241 0
M  V30 33638 N 3139.48 0.494597 -1.49638 0
M  V30 33639 C 3140.43 1.61624 -1.67273 0
M  V30 33640 C 3141.43 1.60609 -0.538615 0
M  V30 33641 O 3142.63 1.65041 -0.71844 0
M  V30 33642 H 3139.01 0.53589 -0.527566 0
M  V30 33643 H 3140.98 1.43904 -2.61408 0
M  V30 33644 C 3139.73 2.99721 -1.76245 0
M  V30 33645 H 3139.05 3.01211 -2.62891 0
M  V30 33646 H 3140.49 3.77723 -1.92618 0
M  V30 33647 C 3138.95 3.33037 -0.50869 0
M  V30 33648 O 3139.48 4.00059 0.362757 0
M  V30 33649 N 3137.69 2.88239 -0.369717 0
M  V30 33650 H 3137.23 2.33873 -1.07988 0
M  V30 33651 H 3137.19 3.10896 0.468058 0
M  V30 33652 N 3140.96 1.3882 0.746109 0
M  V30 33653 C 3142.24 1.25953 1.4965 0
M  V30 33654 C 3142.62 -0.135796 2.10663 0
M  V30 33655 O 3141.97 -1.14601 1.97684 0
M  V30 33656 C 3142.18 2.37541 2.55686 0
M  V30 33657 C 3143.53 2.76326 3.2238 0
M  V30 33658 O 3144.55 2.36909 2.65994 0
M  V30 33659 O 3143.41 3.44327 4.24384 0
M  V30 33660 H 3140.5 0.49297 0.66401 0
M  V30 33661 H 3143.05 1.50666 0.780882 0
M  V30 33662 H 3141.82 3.30871 2.08903 0
M  V30 33663 H 3141.44 2.14433 3.3482 0
M  V30 33664 N 3142.44 -0.975103 1.23812 0
M  V30 33665 C 3143.39 -2.06841 1.02398 0
M  V30 33666 C 3144.36 -1.6599 -0.0603078 0
M  V30 33667 O 3145.54 -1.90574 0.0928522 0
M  V30 33668 C 3142.68 -3.39357 0.626941 0
M  V30 33669 C 3141.8 -3.93447 1.78392 0
M  V30 33670 C 3140.93 -5.14199 1.33316 0
M  V30 33671 C 3139.97 -5.60467 2.46055 0
M  V30 33672 N 3139.11 -6.72444 2.019 0
M  V30 33673 H 3143.95 -2.24493 1.95977 0
M  V30 33674 H 3141.48 -1.10038 0.976225 0
M  V30 33675 H 3143.44 -4.15486 0.377815 0
M  V30 33676 H 3142.07 -3.21653 -0.27185 0
M  V30 33677 H 3141.12 -3.14026 2.14691 0
M  V30 33678 H 3142.44 -4.2375 2.63129 0
M  V30 33679 H 3141.59 -5.97677 1.04247 0
M  V30 33680 H 3140.33 -4.85561 0.456228 0
M  V30 33681 H 3139.33 -4.75567 2.75892 0
M  V30 33682 H 3140.56 -5.91121 3.34294 0
M  V30 33683 H 3138.5 -6.45555 1.16594 0
M  V30 33684 H 3138.42 -7.02159 2.80194 0
M  V30 33685 H 3139.69 -7.59383 1.7595 0
M  V30 33686 N 3143.92 -1.05068 -1.17467 0
M  V30 33687 C 3145.16 -0.761146 -1.87975 0
M  V30 33688 C 3145.5 0.709963 -1.80757 0
M  V30 33689 O 3144.77 1.51904 -1.21472 0
M  V30 33690 C 3145.06 -1.24066 -3.38053 0
M  V30 33691 C 3144.91 -2.77461 -3.54027 0
M  V30 33692 C 3146.23 -0.838688 -4.32035 0
M  V30 33693 H 3143.35 -0.277975 -0.682568 0
M  V30 33694 H 3145.99 -1.30445 -1.38145 0
M  V30 33695 H 3144.14 -0.778455 -3.80621 0
M  V30 33696 H 3145.81 -3.31796 -3.20483 0
M  V30 33697 H 3144.05 -3.16798 -2.96347 0
M  V30 33698 H 3144.72 -3.06074 -4.59372 0
M  V30 33699 H 3147.2 -1.23658 -3.97301 0
M  V30 33700 H 3146.08 -1.20183 -5.35581 0
M  V30 33701 H 3146.34 0.257421 -4.4135 0
M  V30 33702 N 3145.4 1.33878 -0.831529 0
M  V30 33703 C 3146.64 1.98018 -0.423709 0
M  V30 33704 C 3146.97 1.65897 1.01531 0
M  V30 33705 O 3146.23 0.927213 1.72341 0
M  V30 33706 C 3146.53 3.52616 -0.582795 0
M  V30 33707 C 3146.19 4.04669 -1.98881 0
M  V30 33708 C 3144.85 4.18596 -2.37341 0
M  V30 33709 C 3147.21 4.32565 -2.90753 0
M  V30 33710 C 3144.53 4.57749 -3.66992 0
M  V30 33711 C 3146.89 4.73166 -4.19877 0
M  V30 33712 C 3145.55 4.85299 -4.58303 0
M  V30 33713 H 3144.82 0.724598 -0.155046 0
M  V30 33714 H 3147.47 1.59677 -1.05714 0
M  V30 33715 H 3145.77 3.91571 0.133983 0
M  V30 33716 H 3147.47 4.00235 -0.247646 0
M  V30 33717 H 3144.06 3.94298 -1.68008 0
M  V30 33718 H 3148.24 4.21335 -2.62279 0
M  V30 33719 H 3143.5 4.65334 -3.96579 0
M  V30 33720 H 3147.67 4.93709 -4.91146 0
M  V30 33721 H 3145.3 5.15394 -5.58814 0
M  V30 33722 N 3146.87 0.587281 1.46249 0
M  V30 33723 C 3148.1 0.0802498 2.06444 0
M  V30 33724 C 3148.51 -1.23205 1.43587 0
M  V30 33725 O 3147.86 -1.75676 0.536987 0
M  V30 33726 C 3147.92 -0.155066 3.59165 0
M  V30 33727 C 3147.58 1.07233 4.44241 0
M  V30 33728 C 3148.58 1.98551 4.80493 0
M  V30 33729 C 3146.26 1.29546 4.85307 0
M  V30 33730 C 3148.26 3.10526 5.56644 0
M  V30 33731 C 3145.94 2.41825 5.61216 0
M  V30 33732 C 3146.94 3.32144 5.96799 0
M  V30 33733 O 3146.63 4.42473 6.71173 0
M  V30 33734 H 3146.36 0.0566181 0.673625 0
M  V30 33735 H 3148.92 0.809037 1.88796 0
M  V30 33736 H 3147.15 -0.938517 3.75138 0
M  V30 33737 H 3148.84 -0.611173 4.01272 0
M  V30 33738 H 3149.6 1.82529 4.49342 0
M  V30 33739 H 3145.48 0.601512 4.57059 0
M  V30 33740 H 3149.02 3.81048 5.84336 0
M  V30 33741 H 3144.92 2.57807 5.91782 0
M  V30 33742 H 3145.69 4.40898 6.89602 0
M  V30 33743 N 3148.35 -1.54206 0.325309 0
M  V30 33744 C 3149.6 -2.006 -0.27674 0
M  V30 33745 C 3149.93 -1.21346 -1.52005 0
M  V30 33746 O 3149.18 -0.284138 -1.93626 0
M  V30 33747 C 3149.48 -3.51361 -0.654231 0
M  V30 33748 C 3149.15 -4.48229 0.490101 0
M  V30 33749 C 3147.81 -4.74433 0.804188 0
M  V30 33750 C 3150.16 -5.05773 1.25869 0
M  V30 33751 C 3147.49 -5.55439 1.88955 0
M  V30 33752 C 3149.84 -5.87963 2.33415 0
M  V30 33753 C 3148.51 -6.12468 2.65404 0
M  V30 33754 H 3147.78 -0.734048 -0.101266 0
M  V30 33755 H 3150.42 -1.86151 0.449449 0
M  V30 33756 H 3148.73 -3.63546 -1.46087 0
M  V30 33757 H 3150.42 -3.84701 -1.13164 0
M  V30 33758 H 3147.01 -4.27954 0.235223 0
M  V30 33759 H 3151.2 -4.85509 1.02929 0
M  V30 33760 H 3146.45 -5.72656 2.14184 0
M  V30 33761 H 3150.63 -6.31571 2.93413 0
M  V30 33762 H 3148.26 -6.75026 3.49634 0
M  V30 33763 N 3149.83 -0.0535194 -1.57509 0
M  V30 33764 C 3151.06 0.63276 -1.97512 0
M  V30 33765 C 3151.48 1.63446 -0.930976 0
M  V30 33766 O 3150.84 1.80993 0.105526 0
M  V30 33767 C 3150.89 1.29401 -3.36582 0
M  V30 33768 O 3149.99 2.40971 -3.34674 0
M  V30 33769 H 3149.33 0.164298 -0.643352 0
M  V30 33770 H 3151.86 -0.122616 -2.04232 0
M  V30 33771 H 3151.87 1.64514 -3.73362 0
M  V30 33772 H 3150.55 0.559903 -4.12114 0
M  V30 33773 H 3149.12 2.07787 -3.09643 0
M  V30 33774 N 3151.31 1.56059 0.219886 0
M  V30 33775 C 3152.59 1.69942 0.968464 0
M  V30 33776 C 3152.97 0.601254 2.02356 0
M  V30 33777 O 3152.31 -0.391494 2.25121 0
M  V30 33778 C 3152.52 3.11319 1.57739 0
M  V30 33779 C 3153.87 3.70779 2.06901 0
M  V30 33780 O 3154.9 3.14291 1.6763 0
M  V30 33781 O 3153.76 4.69864 2.79088 0
M  V30 33782 H 3150.85 0.692217 0.452509 0
M  V30 33783 H 3153.4 1.68376 0.211536 0
M  V30 33784 H 3152.17 3.82705 0.81562 0
M  V30 33785 H 3151.79 3.17009 2.39982 0
M  V30 33786 N 3152.79 -0.486655 1.49898 0
M  V30 33787 C 3154.01 -1.2682 1.64108 0
M  V30 33788 C 3154.44 -1.85392 0.317999 0
M  V30 33789 O 3153.8 -1.66553 -0.716231 0
M  V30 33790 C 3153.84 -2.36394 2.72305 0
M  V30 33791 O 3152.95 -3.4063 2.32475 0
M  V30 33792 H 3152.29 -0.373783 0.548801 0
M  V30 33793 H 3154.82 -0.580983 1.96178 0
M  V30 33794 H 3154.83 -2.81943 2.94911 0
M  V30 33795 H 3153.5 -1.93131 3.68338 0
M  V30 33796 H 3152.08 -3.00901 2.20257 0
M  V30 33797 N 3154.27 -1.39214 -0.738737 0
M  V30 33798 C 3155.51 -1.35964 -1.49526 0
M  V30 33799 C 3155.83 0.0449809 -1.94948 0
M  V30 33800 O 3155.1 0.995523 -1.68719 0
M  V30 33801 H 3153.68 -0.500336 -0.554683 0
M  V30 33802 H 3156.35 -1.74042 -0.877224 0
M  V30 33803 H 3155.44 -2.01997 -2.37915 0
M  V30 33804 N 3155.74 0.968523 -1.24328 0
M  V30 33805 C 3156.99 1.70571 -1.0765 0
M  V30 33806 C 3157.31 1.91778 0.384787 0
M  V30 33807 O 3158.51 2.63059 0.671736 0
M  V30 33808 C 3156.97 3.07014 -1.87804 0
M  V30 33809 C 3156.58 2.93652 -3.38338 0
M  V30 33810 C 3158.32 3.8461 -1.79653 0
M  V30 33811 C 3156.23 4.254 -4.10839 0
M  V30 33812 H 3155.16 0.639635 -0.399228 0
M  V30 33813 H 3157.81 1.07931 -1.48402 0
M  V30 33814 H 3156.19 3.70477 -1.39866 0
M  V30 33815 H 3157.36 2.39206 -3.93849 0
M  V30 33816 H 3155.68 2.29522 -3.47431 0
M  V30 33817 H 3158.28 4.82168 -2.31124 0
M  V30 33818 H 3158.62 4.09274 -0.761625 0
M  V30 33819 H 3159.15 3.27872 -2.25267 0
M  V30 33820 H 3155.89 4.0593 -5.14686 0
M  V30 33821 H 3155.41 4.79665 -3.60113 0
M  V30 33822 H 3157.09 4.94024 -4.17791 0
M  V30 33823 N 3157.22 1.0569 1.16908 0
M  V30 33824 C 3158.47 0.765055 1.86627 0
M  V30 33825 C 3158.78 -0.710886 1.82224 0
M  V30 33826 O 3159.99 -1.11687 2.47464 0
M  V30 33827 C 3158.45 1.31836 3.34884 0
M  V30 33828 C 3158.05 2.82411 3.47776 0
M  V30 33829 C 3159.8 1.10379 4.09899 0
M  V30 33830 C 3157.7 3.31016 4.90084 0
M  V30 33831 H 3156.63 0.282503 0.699077 0
M  V30 33832 H 3159.29 1.27483 1.31986 0
M  V30 33833 H 3157.67 0.736381 3.89093 0
M  V30 33834 H 3158.84 3.46507 3.03759 0
M  V30 33835 H 3157.16 3.02466 2.86188 0
M  V30 33836 H 3159.75 1.44189 5.14892 0
M  V30 33837 H 3160.1 0.0418103 4.16279 0
M  V30 33838 H 3160.63 1.65123 3.6191 0
M  V30 33839 H 3157.37 4.36666 4.8888 0
M  V30 33840 H 3156.89 2.71664 5.34751 0
M  V30 33841 H 3158.57 3.25987 5.58875 0
M  V30 33842 N 3158.7 -1.33435 0.838617 0
M  V30 33843 C 3159.61 -2.32993 0.274089 0
M  V30 33844 C 3160.63 -1.63337 -0.599747 0
M  V30 33845 O 3161.8 -1.94994 -0.503929 0
M  V30 33846 C 3158.87 -3.42441 -0.541744 0
M  V30 33847 C 3157.93 -4.27819 0.356337 0
M  V30 33848 C 3157.16 -5.3204 -0.420654 0
M  V30 33849 O 3157.38 -5.45942 -1.65238 0
M  V30 33850 O 3156.32 -6.0155 0.205207 0
M  V30 33851 H 3160.14 -2.83137 1.09851 0
M  V30 33852 H 3157.73 -1.36773 0.601135 0
M  V30 33853 H 3159.61 -4.09231 -1.00536 0
M  V30 33854 H 3158.29 -2.94515 -1.34323 0
M  V30 33855 H 3157.19 -3.63896 0.86779 0
M  V30 33856 H 3158.53 -4.79227 1.12258 0
M  V30 33857 N 3160.18 -0.595029 -1.45935 0
M  V30 33858 C 3161.4 -0.089478 -2.07207 0
M  V30 33859 C 3161.83 1.21155 -1.43886 0
M  V30 33860 O 3161.19 1.73471 -0.527029 0
M  V30 33861 C 3161.23 0.0499194 -3.60565 0
M  V30 33862 O 3160.34 1.10335 -3.97366 0
M  V30 33863 H 3159.68 -0.0683743 -0.66047 0
M  V30 33864 H 3162.21 -0.821473 -1.87385 0
M  V30 33865 H 3162.22 0.252162 -4.0722 0
M  V30 33866 H 3160.89 -0.900132 -4.06042 0
M  V30 33867 H 3159.47 0.878581 -3.62402 0
M  V30 33868 N 3161.66 1.54031 -0.333483 0
M  V30 33869 C 3162.9 2.00348 0.265572 0
M  V30 33870 C 3163.22 1.22312 1.51871 0
M  V30 33871 O 3162.49 0.327583 1.93142 0
M  V30 33872 H 3161.07 0.740124 0.101122 0
M  V30 33873 H 3163.74 1.89579 -0.452318 0
M  V30 33874 H 3162.83 3.07821 0.515056 0
M  V30 33875 N 3163.13 0.0618717 1.57479 0
M  V30 33876 C 3164.38 -0.610409 1.93396 0
M  V30 33877 C 3164.71 -1.69859 0.941364 0
M  V30 33878 O 3163.99 -1.94475 -0.030992 0
M  V30 33879 C 3164.27 -1.19658 3.39638 0
M  V30 33880 C 3164.12 -0.115726 4.49651 0
M  V30 33881 C 3165.44 -2.10505 3.86491 0
M  V30 33882 H 3162.56 -0.220424 0.703265 0
M  V30 33883 H 3165.2 0.125819 1.89583 0
M  V30 33884 H 3163.35 -1.82403 3.43018 0
M  V30 33885 H 3165.03 0.516809 4.58396 0
M  V30 33886 H 3163.27 0.554905 4.30236 0
M  V30 33887 H 3163.94 -0.566079 5.4909 0
M  V30 33888 H 3166.42 -1.57708 3.85055 0
M  V30 33889 H 3165.29 -2.48458 4.89449 0
M  V30 33890 H 3165.55 -3.00942 3.23862 0
M  V30 33891 N 3164.61 -1.56173 -0.211607 0
M  V30 33892 C 3165.54 -1.89725 -1.28597 0
M  V30 33893 C 3166.56 -0.786386 -1.42548 0
M  V30 33894 O 3167.75 -1.06474 -1.43268 0
M  V30 33895 C 3164.85 -2.09953 -2.66032 0
M  V30 33896 C 3164.02 -3.41023 -2.73902 0
M  V30 33897 C 3163.08 -3.50562 -3.92419 0
M  V30 33898 O 3162.1 -4.23517 -3.80292 0
M  V30 33899 N 3163.31 -2.82435 -5.0716 0
M  V30 33900 H 3166.07 -2.82476 -1.00137 0
M  V30 33901 H 3163.63 -1.5684 -0.401606 0
M  V30 33902 H 3165.62 -2.1364 -3.43715 0
M  V30 33903 H 3164.19 -1.2378 -2.87049 0
M  V30 33904 H 3163.41 -3.49348 -1.82619 0
M  V30 33905 H 3164.7 -4.27347 -2.76137 0
M  V30 33906 H 3164.1 -2.2296 -5.19909 0
M  V30 33907 H 3162.66 -2.9177 -5.82849 0
M  V30 33908 N 3166.09 0.478699 -1.50154 0
M  V30 33909 C 3167.04 1.59841 -1.68978 0
M  V30 33910 C 3168.03 1.60029 -0.555619 0
M  V30 33911 O 3169.24 1.64269 -0.735904 0
M  V30 33912 H 3165.61 0.530264 -0.53322 0
M  V30 33913 H 3167.58 1.41124 -2.62919 0
M  V30 33914 C 3166.33 2.97835 -1.79414 0
M  V30 33915 H 3165.66 2.98406 -2.66071 0
M  V30 33916 H 3167.1 3.75659 -1.96613 0
M  V30 33917 C 3165.56 3.32479 -0.543985 0
M  V30 33918 O 3166.09 4.00421 0.320305 0
M  V30 33919 N 3164.29 2.8783 -0.400268 0
M  V30 33920 H 3163.84 2.32714 -1.10462 0
M  V30 33921 H 3163.8 3.11375 0.435057 0
M  V30 33922 N 3167.57 1.39603 0.731343 0
M  V30 33923 C 3168.82 1.36336 1.48645 0
M  V30 33924 C 3169.13 -0.0367039 1.95566 0
M  V30 33925 O 3170.34 -0.191969 2.7082 0
M  V30 33926 C 3168.79 2.39532 2.68612 0
M  V30 33927 C 3168.4 3.85272 2.28625 0
M  V30 33928 C 3170.14 2.45347 3.46418 0
M  V30 33929 C 3168.05 4.80101 3.45337 0
M  V30 33930 H 3166.98 0.506871 0.558209 0
M  V30 33931 H 3169.63 1.65267 0.797438 0
M  V30 33932 H 3168.01 2.03677 3.39605 0
M  V30 33933 H 3169.19 4.30187 1.65154 0
M  V30 33934 H 3167.5 3.82786 1.63902 0
M  V30 33935 H 3170.1 3.13386 4.33236 0
M  V30 33936 H 3170.44 1.47911 3.89138 0
M  V30 33937 H 3170.98 2.80113 2.82456 0
M  V30 33938 H 3167.72 5.78812 3.07663 0
M  V30 33939 H 3167.24 4.39862 4.07776 0
M  V30 33940 H 3168.91 4.99176 4.11621 0
M  V30 33941 N 3169.05 -0.961916 1.2484 0
M  V30 33942 C 3170.32 -1.6814 0.99942 0
M  V30 33943 C 3170.7 -2.05651 -0.476552 0
M  V30 33944 O 3170.05 -1.76417 -1.45221 0
M  V30 33945 C 3170.26 -2.9091 1.92802 0
M  V30 33946 C 3171.61 -3.63023 2.20226 0
M  V30 33947 O 3172.63 -3.00978 1.90502 0
M  V30 33948 O 3171.49 -4.74727 2.70734 0
M  V30 33949 H 3168.59 -0.735335 0.378432 0
M  V30 33950 H 3171.13 -1.01549 1.35963 0
M  V30 33951 H 3169.9 -2.59926 2.92497 0
M  V30 33952 H 3169.53 -3.65233 1.57133 0
M  V30 33953 N 3170.52 -1.06308 -1.16346 0
M  V30 33954 C 3171.8 -0.693342 -1.82899 0
M  V30 33955 C 3172.18 0.825276 -1.943 0
M  V30 33956 O 3171.53 1.73562 -1.48622 0
M  V30 33957 C 3171.74 -1.39546 -3.19888 0
M  V30 33958 C 3173.09 -1.54075 -3.95659 0
M  V30 33959 O 3174.11 -1.35537 -3.29406 0
M  V30 33960 O 3172.97 -1.84488 -5.14418 0
M  V30 33961 H 3170.06 -0.245459 -0.789733 0
M  V30 33962 H 3172.61 -1.16336 -1.23547 0
M  V30 33963 H 3171.38 -2.43098 -3.06625 0
M  V30 33964 H 3171.01 -0.915521 -3.86916 0
M  V30 33965 N 3172 1.32989 -0.845682 0
M  V30 33966 C 3172.95 2.30999 -0.272453 0
M  V30 33967 C 3173.94 1.58445 0.599284 0
M  V30 33968 O 3175.15 1.73256 0.488086 0
M  V30 33969 H 3171.53 0.748792 -0.0693883 0
M  V30 33970 H 3173.5 2.76847 -1.11348 0
M  V30 33971 C 3172.25 3.43607 0.531959 0
M  V30 33972 H 3171.57 3.9959 -0.129525 0
M  V30 33973 H 3173.01 4.14365 0.89878 0
M  V30 33974 C 3171.47 2.90065 1.71359 0
M  V30 33975 O 3172 2.86815 2.81247 0
M  V30 33976 N 3170.2 2.46583 1.53771 0
M  V30 33977 H 3169.75 2.49425 0.643792 0
M  V30 33978 H 3169.71 2.11112 2.32979 0
M  V30 33979 N 3173.48 0.60276 1.45618 0
M  V30 33980 C 3174.71 0.102141 2.06347 0
M  V30 33981 C 3175.12 -1.21675 1.44886 0
M  V30 33982 O 3174.46 -1.75097 0.55559 0
M  V30 33983 C 3174.52 -0.116963 3.5931 0
M  V30 33984 C 3174.19 1.11938 4.43079 0
M  V30 33985 C 3175.18 2.03636 4.7836 0
M  V30 33986 C 3172.87 1.34686 4.83906 0
M  V30 33987 C 3174.86 3.16412 5.53319 0
M  V30 33988 C 3172.55 2.47764 5.5862 0
M  V30 33989 C 3173.55 3.38456 5.93243 0
M  V30 33990 O 3173.24 4.49567 6.66442 0
M  V30 33991 H 3172.97 0.0637596 0.672986 0
M  V30 33992 H 3175.52 0.829016 1.87927 0
M  V30 33993 H 3173.75 -0.898676 3.76113 0
M  V30 33994 H 3175.44 -0.568578 4.01898 0
M  V30 33995 H 3176.21 1.87285 4.4738 0
M  V30 33996 H 3172.09 0.649955 4.56395 0
M  V30 33997 H 3175.63 3.87224 5.80261 0
M  V30 33998 H 3171.53 2.64069 5.89014 0
M  V30 33999 H 3172.3 4.48187 6.84887 0
M  V30 34000 N 3174.96 -1.53852 0.341647 0
M  V30 34001 C 3176.21 -2.00882 -0.255448 0
M  V30 34002 C 3176.53 -1.22951 -1.50709 0
M  V30 34003 O 3175.79 -0.304659 -1.93314 0
M  V30 34004 C 3176.09 -3.52035 -0.616927 0
M  V30 34005 C 3175.75 -4.47684 0.537614 0
M  V30 34006 C 3174.42 -4.73553 0.854462 0
M  V30 34007 C 3176.77 -5.0441 1.31226 0
M  V30 34008 C 3174.1 -5.53404 1.94836 0
M  V30 34009 C 3176.45 -5.85454 2.39638 0
M  V30 34010 C 3175.11 -6.09619 2.71885 0
M  V30 34011 H 3174.38 -0.735081 -0.0934751 0
M  V30 34012 H 3177.03 -1.85664 0.469168 0
M  V30 34013 H 3175.33 -3.65075 -1.42223 0
M  V30 34014 H 3177.03 -3.8588 -1.09077 0
M  V30 34015 H 3173.62 -4.2768 0.2806 0
M  V30 34016 H 3177.8 -4.8439 1.08073 0
M  V30 34017 H 3173.06 -5.70352 2.20245 0
M  V30 34018 H 3177.23 -6.28423 3.00095 0
M  V30 34019 H 3174.86 -6.7128 3.56774 0
M  V30 34020 N 3176.44 -0.0702223 -1.57443 0
M  V30 34021 C 3177.67 0.607441 -1.97468 0
M  V30 34022 C 3178.07 1.63779 -0.947261 0
M  V30 34023 O 3177.42 1.83548 0.0746197 0
M  V30 34024 C 3177.48 1.33489 -3.33798 0
M  V30 34025 C 3177.14 0.458185 -4.54697 0
M  V30 34026 C 3178.14 -0.283579 -5.19126 0
M  V30 34027 C 3175.83 0.383524 -5.00834 0
M  V30 34028 C 3177.82 -1.08824 -6.28041 0
M  V30 34029 C 3175.51 -0.424812 -6.09622 0
M  V30 34030 C 3176.5 -1.15937 -6.73088 0
M  V30 34031 O 3176.19 -1.95437 -7.79782 0
M  V30 34032 H 3175.92 0.169489 -0.654408 0
M  V30 34033 H 3178.48 -0.138687 -2.04931 0
M  V30 34034 H 3176.71 2.12706 -3.22945 0
M  V30 34035 H 3178.4 1.90464 -3.58439 0
M  V30 34036 H 3179.16 -0.235482 -4.84428 0
M  V30 34037 H 3175.04 0.944889 -4.51213 0
M  V30 34038 H 3178.59 -1.66209 -6.7751 0
M  V30 34039 H 3174.48 -0.474479 -6.43754 0
M  V30 34040 H 3175.25 -1.87852 -7.96652 0
M  V30 34041 N 3177.91 1.56283 0.203321 0
M  V30 34042 C 3179.16 1.79336 0.923118 0
M  V30 34043 C 3179.48 0.64201 1.84764 0
M  V30 34044 O 3180.68 0.75663 2.60744 0
M  V30 34045 C 3179.14 3.17658 1.69179 0
M  V30 34046 C 3178.75 4.40571 0.812503 0
M  V30 34047 C 3180.49 3.50026 2.40171 0
M  V30 34048 C 3178.4 5.69915 1.57957 0
M  V30 34049 H 3177.33 0.668665 0.34843 0
M  V30 34050 H 3179.98 1.82649 0.176568 0
M  V30 34051 H 3178.36 3.08572 2.48192 0
M  V30 34052 H 3179.53 4.60759 0.0616146 0
M  V30 34053 H 3177.85 4.15851 0.213817 0
M  V30 34054 H 3180.45 4.43896 2.98095 0
M  V30 34055 H 3180.79 2.73381 3.13956 0
M  V30 34056 H 3181.32 3.60523 1.68132 0
M  V30 34057 H 3178.06 6.49503 0.884653 0
M  V30 34058 H 3177.58 5.53758 2.3046 0
M  V30 34059 H 3179.26 6.10741 2.13552 0
M  V30 34060 N 3179.39 -0.470729 1.50406 0
M  V30 34061 C 3180.67 -1.23192 1.51931 0
M  V30 34062 C 3181.05 -2.0944 0.264196 0
M  V30 34063 O 3180.4 -2.15759 -0.752357 0
M  V30 34064 C 3180.61 -2.06264 2.81525 0
M  V30 34065 C 3181.96 -2.6444 3.32199 0
M  V30 34066 O 3182.98 -2.16506 2.82849 0
M  V30 34067 O 3181.84 -3.51779 4.18227 0
M  V30 34068 H 3178.93 -0.559049 0.609421 0
M  V30 34069 H 3181.48 -0.482521 1.62696 0
M  V30 34070 H 3180.25 -1.42709 3.64349 0
M  V30 34071 H 3179.87 -2.88337 2.73766 0
M  V30 34072 N 3180.87 -1.39989 -0.72393 0
M  V30 34073 C 3182.15 -1.28318 -1.47627 0
M  V30 34074 C 3182.53 0.102265 -2.10852 0
M  V30 34075 O 3181.88 1.11441 -1.99482 0
M  V30 34076 C 3182.09 -2.41579 -2.51874 0
M  V30 34077 C 3183.43 -2.8142 -3.17943 0
M  V30 34078 O 3184.46 -2.4111 -2.62191 0
M  V30 34079 O 3183.32 -3.51035 -4.18852 0
M  V30 34080 H 3180.41 -0.503471 -0.656084 0
M  V30 34081 H 3182.96 -1.5189 -0.756813 0
M  V30 34082 H 3181.73 -3.34152 -2.03612 0
M  V30 34083 H 3181.35 -2.19733 -3.31366 0
M  V30 34084 N 3182.35 0.955282 -1.25348 0
M  V30 34085 C 3183.3 2.07316 -1.05464 0
M  V30 34086 C 3184.29 1.69394 0.0142401 0
M  V30 34087 O 3185.5 1.79444 -0.141323 0
M  V30 34088 H 3181.87 0.678571 -0.324107 0
M  V30 34089 H 3183.84 2.21243 -2.00235 0
M  V30 34090 C 3182.59 3.40797 -0.689389 0
M  V30 34091 H 3181.92 3.70445 -1.50368 0
M  V30 34092 H 3183.36 4.19876 -0.589957 0
M  V30 34093 C 3181.81 3.31432 0.604497 0
M  V30 34094 O 3182.34 3.66393 1.6468 0
M  V30 34095 N 3180.55 2.8455 0.589877 0
M  V30 34096 H 3180.1 2.56298 -0.258693 0
M  V30 34097 H 3180.06 2.78667 1.45575 0
M  V30 34098 N 3183.83 1.06924 1.1578 0
M  V30 34099 C 3185.08 0.788224 1.86095 0
M  V30 34100 C 3185.4 -0.687573 1.82476 0
M  V30 34101 O 3184.67 -1.49776 1.26269 0
M  V30 34102 H 3183.25 0.288589 0.689003 0
M  V30 34103 H 3185.91 1.35207 1.40375 0
M  V30 34104 H 3185 1.11885 2.91356 0
M  V30 34105 N 3185.31 -1.32538 0.852723 0
M  V30 34106 C 3186.55 -1.96584 0.451394 0
M  V30 34107 C 3186.87 -1.68239 -0.997743 0
M  V30 34108 O 3188.07 -2.26008 -1.50441 0
M  V30 34109 C 3186.53 -3.51865 0.756252 0
M  V30 34110 C 3186.14 -3.89071 2.22099 0
M  V30 34111 C 3187.88 -4.22392 0.422553 0
M  V30 34112 C 3185.79 -5.37388 2.46917 0
M  V30 34113 H 3184.72 -0.73571 0.165065 0
M  V30 34114 H 3187.37 -1.5096 1.04324 0
M  V30 34115 H 3185.75 -3.95889 0.0938683 0
M  V30 34116 H 3186.93 -3.56062 2.925 0
M  V30 34117 H 3185.24 -3.31563 2.51902 0
M  V30 34118 H 3187.84 -5.31486 0.585424 0
M  V30 34119 H 3188.18 -4.11418 -0.635665 0
M  V30 34120 H 3188.71 -3.83944 1.04075 0
M  V30 34121 H 3185.45 -5.5338 3.51356 0
M  V30 34122 H 3184.97 -5.71809 1.81092 0
M  V30 34123 H 3186.65 -6.04446 2.30769 0
M  V30 34124 N 3186.78 -0.610474 -1.45296 0
M  V30 34125 C 3188.03 -0.106953 -2.02518 0
M  V30 34126 C 3188.36 1.26031 -1.47749 0
M  V30 34127 O 3187.64 1.83199 -0.653323 0
M  V30 34128 C 3187.92 -0.0711608 -3.6003 0
M  V30 34129 C 3187.77 -1.4693 -4.25126 0
M  V30 34130 C 3189.09 0.615163 -4.35779 0
M  V30 34131 H 3186.21 -0.0403399 -0.735895 0
M  V30 34132 H 3188.85 -0.782999 -1.73116 0
M  V30 34133 H 3187 0.504543 -3.8521 0
M  V30 34134 H 3188.68 -2.0923 -4.11121 0
M  V30 34135 H 3186.92 -2.02917 -3.83415 0
M  V30 34136 H 3187.59 -1.39647 -5.34044 0
M  V30 34137 H 3190.07 0.125798 -4.1591 0
M  V30 34138 H 3188.94 0.609323 -5.45508 0
M  V30 34139 H 3189.2 1.68178 -4.08862 0
M  V30 34140 N 3188.26 1.53669 -0.349801 0
M  V30 34141 C 3189.19 2.22783 0.538536 0
M  V30 34142 C 3190.21 1.23654 1.05894 0
M  V30 34143 O 3191.4 1.49972 0.968019 0
M  V30 34144 C 3188.5 2.89946 1.75454 0
M  V30 34145 C 3187.67 4.15445 1.36836 0
M  V30 34146 C 3186.73 4.65961 2.44472 0
M  V30 34147 O 3185.75 5.30023 2.07519 0
M  V30 34148 N 3186.96 4.42423 3.75821 0
M  V30 34149 H 3189.72 2.99652 -0.0534007 0
M  V30 34150 H 3187.28 1.6096 -0.174221 0
M  V30 34151 H 3189.27 3.20655 2.46906 0
M  V30 34152 H 3187.84 2.16626 2.25371 0
M  V30 34153 H 3187.06 3.91213 0.484352 0
M  V30 34154 H 3188.35 4.97066 1.08641 0
M  V30 34155 H 3187.75 3.91203 4.08628 0
M  V30 34156 H 3186.31 4.77722 4.43424 0
M  V30 34157 N 3189.74 0.0785709 1.57404 0
M  V30 34158 C 3190.99 -0.588592 1.92921 0
M  V30 34159 C 3191.3 -1.70357 0.961136 0
M  V30 34160 O 3192.51 -2.43076 1.20938 0
M  V30 34161 C 3190.96 -1.09833 3.42731 0
M  V30 34162 C 3190.57 -0.0139985 4.47998 0
M  V30 34163 C 3192.32 -1.73917 3.87238 0
M  V30 34164 C 3190.22 -0.538166 5.88946 0
M  V30 34165 H 3189.15 -0.223632 0.720073 0
M  V30 34166 H 3191.8 0.151902 1.8287 0
M  V30 34167 H 3190.19 -1.892 3.47878 0
M  V30 34168 H 3191.36 0.760853 4.54475 0
M  V30 34169 H 3189.67 0.531023 4.13 0
M  V30 34170 H 3192.27 -2.14178 4.89931 0
M  V30 34171 H 3192.61 -2.60185 3.24976 0
M  V30 34172 H 3193.15 -1.01161 3.84722 0
M  V30 34173 H 3189.89 0.287511 6.54869 0
M  V30 34174 H 3189.41 -1.28039 5.85974 0
M  V30 34175 H 3191.09 -1.01242 6.3903 0
M  V30 34176 N 3191.22 -1.56389 -0.19503 0
M  V30 34177 C 3192.47 -1.80271 -0.913604 0
M  V30 34178 C 3192.79 -0.651638 -1.8379 0
M  V30 34179 O 3192.06 0.330023 -1.931 0
M  V30 34180 H 3190.64 -0.66496 -0.340348 0
M  V30 34181 H 3193.3 -1.93866 -0.200525 0
M  V30 34182 H 3192.39 -2.73433 -1.50468 0
M  V30 34183 N 3192.7 0.462746 -1.50653 0
M  V30 34184 C 3193.94 1.21601 -1.62299 0
M  V30 34185 C 3194.27 1.9144 -0.326225 0
M  V30 34186 O 3193.55 1.82493 0.672808 0
M  V30 34187 C 3193.83 2.2531 -2.80905 0
M  V30 34188 C 3193.69 1.5972 -4.20487 0
M  V30 34189 C 3195 3.26543 -2.95055 0
M  V30 34190 H 3192.12 0.440731 -0.590699 0
M  V30 34191 H 3194.77 0.508643 -1.83065 0
M  V30 34192 H 3192.92 2.85638 -2.6333 0
M  V30 34193 H 3194.59 1.02924 -4.49671 0
M  V30 34194 H 3192.83 0.900107 -4.24359 0
M  V30 34195 H 3193.5 2.35125 -4.9942 0
M  V30 34196 H 3195.98 2.76246 -3.11171 0
M  V30 34197 H 3194.85 3.96429 -3.79652 0
M  V30 34198 H 3195.11 3.91159 -2.06026 0
M  V30 34199 N 3194.17 1.40371 0.716495 0
M  V30 34200 C 3195.42 1.386 1.47636 0
M  V30 34201 C 3195.75 -0.0119799 1.94496 0
M  V30 34202 O 3195 -0.996343 1.68438 0
M  V30 34203 C 3195.3 2.32108 2.71773 0
M  V30 34204 C 3194.97 3.7938 2.43683 0
M  V30 34205 C 3193.63 4.19504 2.35732 0
M  V30 34206 C 3195.98 4.72451 2.20091 0
M  V30 34207 C 3193.31 5.50735 2.02256 0
M  V30 34208 C 3195.66 6.03979 1.88128 0
M  V30 34209 C 3194.33 6.43147 1.78658 0
M  V30 34210 H 3193.6 0.507173 0.540238 0
M  V30 34211 H 3196.24 1.73018 0.820792 0
M  V30 34212 H 3194.55 1.90871 3.42163 0
M  V30 34213 H 3196.25 2.28021 3.2986 0
M  V30 34214 H 3192.84 3.4759 2.50757 0
M  V30 34215 H 3197.02 4.4227 2.2519 0
M  V30 34216 H 3192.28 5.79985 1.93461 0
M  V30 34217 H 3196.45 6.75611 1.68886 0
M  V30 34218 H 3194.08 7.4475 1.52485 0
M  V30 34219 N 3195.65 -0.948621 1.25853 0
M  V30 34220 C 3196.93 -1.6707 1.0172 0
M  V30 34221 C 3197.31 -2.06145 -0.454713 0
M  V30 34222 O 3196.66 -1.77948 -1.43342 0
M  V30 34223 C 3196.87 -2.88848 1.95877 0
M  V30 34224 C 3198.22 -3.60667 2.24064 0
M  V30 34225 O 3199.24 -2.9894 1.93683 0
M  V30 34226 O 3198.1 -4.71829 2.75754 0
M  V30 34227 H 3195.19 -0.73128 0.38621 0
M  V30 34228 H 3197.74 -1.00101 1.37032 0
M  V30 34229 H 3196.51 -2.56809 2.95237 0
M  V30 34230 H 3196.13 -3.63545 1.60998 0
M  V30 34231 N 3197.13 -1.07536 -1.15212 0
M  V30 34232 C 3198.36 -0.820837 -1.89921 0
M  V30 34233 C 3198.77 0.626146 -1.78115 0
M  V30 34234 O 3198.13 1.42962 -1.13437 0
M  V30 34235 C 3198.18 -1.22242 -3.40204 0
M  V30 34236 O 3197.9 -2.61263 -3.51672 0
M  V30 34237 C 3199.4 -0.997469 -4.31932 0
M  V30 34238 H 3196.62 -0.296658 -0.60186 0
M  V30 34239 H 3199.17 -1.43231 -1.45963 0
M  V30 34240 H 3197.32 -0.655234 -3.81819 0
M  V30 34241 H 3197.74 -2.77697 -4.44955 0
M  V30 34242 H 3199.21 -1.32795 -5.35789 0
M  V30 34243 H 3199.69 0.0660827 -4.3915 0
M  V30 34244 H 3200.29 -1.54965 -3.96063 0
M  V30 34245 N 3198.61 1.32084 -0.85974 0
M  V30 34246 C 3199.83 2.01795 -0.478901 0
M  V30 34247 C 3200.26 1.64164 0.918246 0
M  V30 34248 O 3199.62 0.844924 1.60408 0
M  V30 34249 C 3199.66 3.55029 -0.631419 0
M  V30 34250 O 3198.77 4.11048 0.333639 0
M  V30 34251 H 3198.11 0.6357 -0.191786 0
M  V30 34252 H 3200.64 1.68515 -1.16034 0
M  V30 34253 H 3200.65 4.04662 -0.520854 0
M  V30 34254 H 3199.32 3.8176 -1.65022 0
M  V30 34255 H 3197.9 3.72471 0.178887 0
M  V30 34256 N 3200.09 0.618171 1.4497 0
M  V30 34257 C 3201.36 0.0490238 1.95539 0
M  V30 34258 C 3201.74 -1.42176 1.56042 0
M  V30 34259 O 3201.09 -2.12965 0.828128 0
M  V30 34260 C 3201.3 0.258254 3.48043 0
M  V30 34261 C 3202.65 0.144616 4.24354 0
M  V30 34262 O 3203.67 0.188932 3.55699 0
M  V30 34263 O 3202.53 0.038615 5.46486 0
M  V30 34264 H 3199.63 -0.0297111 0.826466 0
M  V30 34265 H 3202.17 0.688971 1.55085 0
M  V30 34266 H 3200.94 1.27932 3.69796 0
M  V30 34267 H 3200.57 -0.416453 3.95413 0
M  V30 34268 N 3201.56 -1.53481 0.357946 0
M  V30 34269 C 3202.81 -2.00745 -0.233665 0
M  V30 34270 C 3203.13 -1.24713 -1.49905 0
M  V30 34271 O 3202.4 -0.358269 -1.92596 0
M  V30 34272 H 3200.98 -0.741639 -0.0893343 0
M  V30 34273 H 3203.65 -1.88835 0.482421 0
M  V30 34274 H 3202.74 -3.08601 -0.466019 0
M  V30 34275 N 3203.04 -0.0869173 -1.5736 0
M  V30 34276 C 3204.27 0.586463 -1.98101 0
M  V30 34277 C 3204.68 1.62765 -0.964578 0
M  V30 34278 O 3204.02 1.83617 0.0551478 0
M  V30 34279 C 3204.09 1.29941 -3.35195 0
M  V30 34280 C 3203.75 0.409932 -4.55158 0
M  V30 34281 C 3204.75 -0.338624 -5.18796 0
M  V30 34282 C 3202.43 0.330382 -5.01212 0
M  V30 34283 C 3204.43 -1.15479 -6.26852 0
M  V30 34284 C 3202.11 -0.489447 -6.09137 0
M  V30 34285 C 3203.11 -1.23069 -6.71821 0
M  V30 34286 O 3202.8 -2.03697 -7.77665 0
M  V30 34287 H 3202.53 0.162539 -0.656168 0
M  V30 34288 H 3205.08 -0.160415 -2.04773 0
M  V30 34289 H 3203.31 2.09268 -3.25182 0
M  V30 34290 H 3205 1.86651 -3.60439 0
M  V30 34291 H 3205.77 -0.286849 -4.84151 0
M  V30 34292 H 3201.65 0.896978 -4.52189 0
M  V30 34293 H 3205.19 -1.73386 -6.75709 0
M  V30 34294 H 3201.09 -0.542731 -6.43214 0
M  V30 34295 H 3201.86 -1.96291 -7.94614 0
M  V30 34296 N 3204.52 1.5649 0.186734 0
M  V30 34297 C 3205.47 1.95207 1.23138 0
M  V30 34298 C 3206.44 0.813805 1.44798 0
M  V30 34299 O 3207.62 1.07266 1.57793 0
M  V30 34300 C 3204.76 2.30402 2.56922 0
M  V30 34301 C 3203.88 3.57332 2.42771 0
M  V30 34302 C 3203.01 3.81811 3.69316 0
M  V30 34303 C 3202.05 5.02139 3.50032 0
M  V30 34304 N 3201.19 5.22829 4.68609 0
M  V30 34305 H 3206.03 2.84267 0.894206 0
M  V30 34306 H 3203.56 1.4067 0.430162 0
M  V30 34307 H 3205.52 2.48826 3.34876 0
M  V30 34308 H 3204.15 1.44471 2.88666 0
M  V30 34309 H 3203.2 3.46909 1.56072 0
M  V30 34310 H 3204.52 4.45443 2.2446 0
M  V30 34311 H 3203.67 4.00519 4.55708 0
M  V30 34312 H 3202.41 2.92046 3.9059 0
M  V30 34313 H 3201.41 4.83345 2.62026 0
M  V30 34314 H 3202.64 5.9342 3.30196 0
M  V30 34315 H 3200.58 4.36013 4.90131 0
M  V30 34316 H 3200.5 6.05134 4.53155 0
M  V30 34317 H 3201.77 5.46003 5.56328 0
M  V30 34318 N 3206 -0.45475 1.50897 0
M  V30 34319 C 3207.23 -1.22668 1.66241 0
M  V30 34320 C 3207.64 -1.85898 0.351908 0
M  V30 34321 O 3206.98 -1.70738 -0.677818 0
M  V30 34322 C 3207.04 -2.36429 2.70817 0
M  V30 34323 C 3206.71 -1.93706 4.13916 0
M  V30 34324 C 3207.7 -1.4503 4.99262 0
M  V30 34325 C 3205.39 -2.01929 4.59924 0
M  V30 34326 C 3207.38 -1.0514 6.28669 0
M  V30 34327 C 3205.07 -1.6165 5.89332 0
M  V30 34328 C 3206.07 -1.13335 6.73531 0
M  V30 34329 O 3205.75 -0.736214 8.00522 0
M  V30 34330 H 3205.49 -0.376498 0.561449 0
M  V30 34331 H 3208.04 -0.54729 1.97974 0
M  V30 34332 H 3206.27 -3.07591 2.3436 0
M  V30 34333 H 3207.96 -2.98348 2.75215 0
M  V30 34334 H 3208.73 -1.38087 4.64927 0
M  V30 34335 H 3204.6 -2.38482 3.94522 0
M  V30 34336 H 3208.15 -0.673589 6.9434 0
M  V30 34337 H 3204.05 -1.68258 6.23185 0
M  V30 34338 H 3204.81 -0.863616 8.13931 0
M  V30 34339 N 3207.48 -1.40749 -0.709041 0
M  V30 34340 C 3208.72 -1.39381 -1.46899 0
M  V30 34341 C 3209.05 0.00166511 -1.945 0
M  V30 34342 O 3208.31 0.987397 -1.68964 0
M  V30 34343 C 3208.61 -2.33546 -2.70538 0
M  V30 34344 C 3208.27 -3.80667 -2.41667 0
M  V30 34345 C 3206.93 -4.20749 -2.33504 0
M  V30 34346 C 3209.29 -4.73611 -2.17582 0
M  V30 34347 C 3206.61 -5.518 -1.99332 0
M  V30 34348 C 3208.97 -6.04968 -1.84922 0
M  V30 34349 C 3207.63 -6.44085 -1.75245 0
M  V30 34350 H 3206.9 -0.510031 -0.53754 0
M  V30 34351 H 3209.55 -1.73451 -0.811604 0
M  V30 34352 H 3207.85 -1.92683 -3.41146 0
M  V30 34353 H 3209.55 -2.29767 -3.28646 0
M  V30 34354 H 3206.14 -3.48915 -2.4891 0
M  V30 34355 H 3210.32 -4.43458 -2.22842 0
M  V30 34356 H 3205.58 -5.81003 -1.90382 0
M  V30 34357 H 3209.75 -6.76497 -1.65301 0
M  V30 34358 H 3207.38 -7.45548 -1.48533 0
M  V30 34359 N 3208.96 0.941933 -1.26354 0
M  V30 34360 C 3209.92 2.02209 -1.07908 0
M  V30 34361 C 3210.92 1.60776 -0.0276566 0
M  V30 34362 O 3212.11 1.72079 -0.270996 0
M  V30 34363 C 3209.24 3.34817 -0.641142 0
M  V30 34364 H 3210.43 2.20005 -2.03808 0
M  V30 34365 H 3207.99 1.12079 -1.08941 0
M  V30 34366 H 3208.72 3.22718 0.319887 0
M  V30 34367 H 3208.51 3.66242 -1.40033 0
M  V30 34368 H 3210 4.14173 -0.533899 0
M  V30 34369 N 3210.43 1.08146 1.1464 0
M  V30 34370 C 3211.84 0.830953 1.67189 0
M  V30 34371 C 3212.2 -0.642716 1.85374 0
M  V30 34372 O 3211.32 -1.49669 1.56295 0
M  V30 34373 C 3211.92 1.50184 3.03694 0
M  V30 34374 C 3210.47 1.29864 3.53288 0
M  V30 34375 C 3209.62 1.56634 2.28825 0
M  V30 34376 H 3212.57 1.24241 0.987419 0
M  V30 34377 H 3212.59 0.927565 3.69021 0
M  V30 34378 H 3212.11 2.57437 2.90427 0
M  V30 34379 H 3210.21 0.246691 3.71782 0
M  V30 34380 H 3210.32 2.02444 4.34227 0
M  V30 34381 H 3208.68 0.987757 2.34767 0
M  V30 34382 H 3209.47 2.65088 2.18136 0
M  V30 34383 N 3211.91 -1.31626 0.866732 0
M  V30 34384 C 3212.87 -2.26883 0.325081 0
M  V30 34385 C 3213.87 -1.52088 -0.522106 0
M  V30 34386 O 3215.06 -1.71009 -0.331878 0
M  V30 34387 C 3212.2 -3.36617 -0.538697 0
M  V30 34388 H 3213.39 -2.76306 1.16597 0
M  V30 34389 H 3210.94 -1.42504 0.642054 0
M  V30 34390 H 3211.68 -2.92481 -1.40091 0
M  V30 34391 H 3211.46 -3.92041 0.0678804 0
M  V30 34392 H 3212.95 -4.07563 -0.910052 0
M  V30 34393 N 3213.39 -0.62585 -1.4464 0
M  V30 34394 C 3214.34 0.0944812 -2.32408 0
M  V30 34395 C 3215.33 0.841172 -1.4704 0
M  V30 34396 O 3216.54 0.754669 -1.63416 0
M  V30 34397 H 3212.91 0.0493189 -0.750381 0
M  V30 34398 H 3214.88 -0.663914 -2.9092 0
M  V30 34399 C 3213.63 1.06609 -3.30953 0
M  V30 34400 H 3212.96 0.500952 -3.96649 0
M  V30 34401 H 3214.4 1.53969 -3.95056 0
M  V30 34402 C 3212.85 2.14873 -2.59483 0
M  V30 34403 O 3213.38 3.22881 -2.38979 0
M  V30 34404 N 3211.59 1.90661 -2.1931 0
M  V30 34405 H 3211.14 1.02831 -2.36186 0
M  V30 34406 H 3211.1 2.63299 -1.71816 0
M  V30 34407 N 3214.87 1.53289 -0.36608 0
M  V30 34408 C 3216.1 2.05682 0.224199 0
M  V30 34409 C 3216.51 1.23955 1.4241 0
M  V30 34410 O 3215.87 0.280341 1.80334 0
M  V30 34411 C 3215.92 3.56192 0.617203 0
M  V30 34412 O 3215.64 4.34821 -0.535007 0
M  V30 34413 C 3217.14 4.24843 1.26582 0
M  V30 34414 H 3214.36 0.669849 0.039281 0
M  V30 34415 H 3216.9 1.97657 -0.524594 0
M  V30 34416 H 3215.06 3.64366 1.31591 0
M  V30 34417 H 3215.47 5.2405 -0.217215 0
M  V30 34418 H 3216.95 5.31472 1.49136 0
M  V30 34419 H 3217.42 3.78595 2.22627 0
M  V30 34420 H 3218.03 4.20924 0.608526 0
M  V30 34421 N 3216.35 0.0952613 1.57312 0
M  V30 34422 C 3217.59 -0.569249 1.94647 0
M  V30 34423 C 3217.92 -1.67824 0.977182 0
M  V30 34424 O 3217.2 -1.94497 0.010266 0
M  V30 34425 C 3217.48 -1.12427 3.421 0
M  V30 34426 C 3217.34 -0.0203225 4.49795 0
M  V30 34427 C 3218.65 -2.0226 3.9087 0
M  V30 34428 H 3215.77 -0.205457 0.707783 0
M  V30 34429 H 3218.42 0.166004 1.89273 0
M  V30 34430 H 3216.57 -1.75086 3.4681 0
M  V30 34431 H 3218.24 0.613925 4.57197 0
M  V30 34432 H 3216.48 0.64604 4.28962 0
M  V30 34433 H 3217.15 -0.449482 5.50167 0
M  V30 34434 H 3219.63 -1.49505 3.88314 0
M  V30 34435 H 3218.5 -2.3802 4.94609 0
M  V30 34436 H 3218.76 -2.94005 3.30172 0
M  V30 34437 N 3217.82 -1.56587 -0.178432 0
M  V30 34438 C 3218.77 -1.96767 -1.24039 0
M  V30 34439 C 3219.77 -0.855401 -1.46216 0
M  V30 34440 O 3220.97 -1.04049 -1.4688 0
M  V30 34441 H 3217.35 -0.625927 -0.416796 0
M  V30 34442 H 3219.32 -2.85295 -0.874594 0
M  V30 34443 C 3218.07 -2.33765 -2.5739 0
M  V30 34444 H 3217.39 -3.18887 -2.41145 0
M  V30 34445 H 3218.83 -2.65729 -3.304 0
M  V30 34446 C 3217.29 -1.1784 -3.15619 0
M  V30 34447 O 3217.82 -0.462272 -3.99031 0
M  V30 34448 N 3216.02 -0.950831 -2.74604 0
M  V30 34449 H 3215.57 -1.53493 -2.06876 0
M  V30 34450 H 3215.53 -0.177022 -3.13901 0
M  V30 34451 N 3219.3 0.446741 -1.51136 0
M  V30 34452 C 3220.58 1.20759 -1.53872 0
M  V30 34453 C 3220.96 2.08993 -0.297483 0
M  V30 34454 O 3220.31 2.16928 0.717937 0
M  V30 34455 C 3220.52 2.01759 -2.84771 0
M  V30 34456 C 3221.86 2.59122 -3.36364 0
M  V30 34457 O 3222.89 2.11979 -2.86257 0
M  V30 34458 O 3221.75 3.45081 -4.23771 0
M  V30 34459 H 3218.84 0.549282 -0.618238 0
M  V30 34460 H 3221.39 0.456576 -1.63443 0
M  V30 34461 H 3220.16 1.36894 -3.66573 0
M  V30 34462 H 3219.78 2.83945 -2.78318 0
M  V30 34463 N 3220.78 1.41123 0.701567 0
M  V30 34464 C 3221.73 1.42693 1.83688 0
M  V30 34465 C 3222.72 0.305688 1.66619 0
M  V30 34466 O 3223.93 0.477422 1.73553 0
M  V30 34467 H 3220.3 0.44634 0.605214 0
M  V30 34468 H 3222.27 2.38389 1.79481 0
M  V30 34469 C 3221.02 1.32014 3.21664 0
M  V30 34470 H 3220.35 2.17575 3.35412 0
M  V30 34471 H 3221.79 1.37172 4.01198 0
M  V30 34472 C 3220.24 0.031827 3.36885 0
M  V30 34473 O 3220.77 -0.925767 3.90887 0
M  V30 34474 N 3218.98 -0.042289 2.90569 0
M  V30 34475 H 3218.53 0.737717 2.46811 0
M  V30 34476 H 3218.49 -0.903711 3.01132 0
M  V30 34477 N 3222.26 -0.935219 1.26852 0
M  V30 34478 C 3223.51 -1.67656 1.12135 0
M  V30 34479 C 3223.82 -1.92731 -0.333805 0
M  V30 34480 O 3225.03 -2.64747 -0.601754 0
M  V30 34481 C 3223.48 -3.01927 1.95878 0
M  V30 34482 C 3223.09 -2.84578 3.46005 0
M  V30 34483 C 3224.83 -3.79712 1.89787 0
M  V30 34484 C 3222.74 -4.14358 4.21973 0
M  V30 34485 H 3221.67 -0.628826 0.416046 0
M  V30 34486 H 3224.32 -1.03959 1.51211 0
M  V30 34487 H 3222.7 -3.66639 1.4964 0
M  V30 34488 H 3223.88 -2.2868 4.00053 0
M  V30 34489 H 3222.19 -2.2023 3.53395 0
M  V30 34490 H 3224.79 -4.7587 2.43827 0
M  V30 34491 H 3225.13 -4.07111 0.869868 0
M  V30 34492 H 3225.67 -3.21784 2.3388 0
M  V30 34493 H 3222.4 -3.92141 5.25267 0
M  V30 34494 H 3221.92 -4.69949 3.72704 0
M  V30 34495 H 3223.6 -4.82773 4.30743 0
M  V30 34496 N 3223.74 -1.08752 -1.14065 0
M  V30 34497 C 3224.97 -0.839715 -1.88765 0
M  V30 34498 C 3225.37 0.612087 -1.79026 0
M  V30 34499 O 3224.72 1.4326 -1.14988 0
M  V30 34500 C 3224.78 -1.18722 -3.39331 0
M  V30 34501 C 3224.44 -2.64252 -3.72854 0
M  V30 34502 C 3225.44 -3.62502 -3.72677 0
M  V30 34503 C 3223.13 -3.00197 -4.02725 0
M  V30 34504 C 3225.12 -4.94727 -4.019 0
M  V30 34505 C 3222.81 -4.32615 -4.31611 0
M  V30 34506 C 3223.8 -5.29689 -4.31182 0
M  V30 34507 O 3223.49 -6.59726 -4.59365 0
M  V30 34508 H 3223.22 -0.302263 -0.604659 0
M  V30 34509 H 3225.78 -1.45118 -1.45361 0
M  V30 34510 H 3224.01 -0.518774 -3.83204 0
M  V30 34511 H 3225.7 -0.919668 -3.95344 0
M  V30 34512 H 3226.46 -3.36076 -3.49682 0
M  V30 34513 H 3222.34 -2.25275 -4.02209 0
M  V30 34514 H 3225.89 -5.7049 -4.01481 0
M  V30 34515 H 3221.78 -4.58787 -4.54075 0
M  V30 34516 H 3222.55 -6.65094 -4.77066 0
M  V30 34517 N 3225.21 1.31165 -0.873701 0
M  V30 34518 C 3226.46 1.96181 -0.485531 0
M  V30 34519 C 3226.78 1.69381 0.96618 0
M  V30 34520 O 3226.05 1.01124 1.67782 0
M  V30 34521 H 3224.63 0.725834 -0.17656 0
M  V30 34522 H 3227.3 1.59904 -1.11431 0
M  V30 34523 H 3226.39 3.05333 -0.646379 0
M  V30 34524 N 3226.69 0.633512 1.44307 0
M  V30 34525 C 3227.62 -0.108434 2.28943 0
M  V30 34526 C 3228.64 -0.806557 1.41416 0
M  V30 34527 O 3229.83 -0.667605 1.65545 0
M  V30 34528 C 3226.93 -1.17585 3.17848 0
M  V30 34529 C 3226.1 -0.559765 4.33803 0
M  V30 34530 C 3225.16 -1.52145 5.03724 0
M  V30 34531 O 3224.18 -1.03766 5.59662 0
M  V30 34532 N 3225.39 -2.85577 5.05397 0
M  V30 34533 H 3228.15 0.61793 2.9326 0
M  V30 34534 H 3225.71 0.474846 1.5478 0
M  V30 34535 H 3227.7 -1.81957 3.61488 0
M  V30 34536 H 3226.27 -1.80441 2.55264 0
M  V30 34537 H 3225.49 0.262628 3.93324 0
M  V30 34538 H 3226.78 -0.128853 5.08637 0
M  V30 34539 H 3226.18 -3.2746 4.61288 0
M  V30 34540 H 3224.74 -3.45303 5.52819 0
M  V30 34541 N 3228.17 -1.53093 0.374204 0
M  V30 34542 C 3229.13 -2.24619 -0.455959 0
M  V30 34543 C 3230.13 -1.25711 -1.00266 0
M  V30 34544 O 3231.32 -1.49923 -0.887051 0
M  V30 34545 C 3228.46 -2.9896 -1.63816 0
M  V30 34546 H 3229.65 -2.99418 0.170038 0
M  V30 34547 H 3227.2 -1.55791 0.126042 0
M  V30 34548 H 3227.94 -2.28425 -2.30201 0
M  V30 34549 H 3227.72 -3.7154 -1.25302 0
M  V30 34550 H 3229.21 -3.53309 -2.22626 0
M  V30 34551 N 3229.65 -0.103603 -1.57259 0
M  V30 34552 C 3230.89 0.558919 -1.94946 0
M  V30 34553 C 3231.23 1.67303 -0.986068 0
M  V30 34554 O 3230.5 1.94489 -0.0205806 0
M  V30 34555 C 3230.79 1.10611 -3.42691 0
M  V30 34556 C 3230.64 -0.00353152 -4.498 0
M  V30 34557 C 3231.96 2.00184 -3.91937 0
M  V30 34558 H 3229.08 0.201701 -0.708862 0
M  V30 34559 H 3231.72 -0.176039 -1.89183 0
M  V30 34560 H 3229.87 1.73244 -3.47734 0
M  V30 34561 H 3231.54 -0.638163 -4.56865 0
M  V30 34562 H 3229.78 -0.66878 -4.28614 0
M  V30 34563 H 3230.45 0.420299 -5.50398 0
M  V30 34564 H 3232.93 1.47443 -3.89101 0
M  V30 34565 H 3231.81 2.35394 -4.95864 0
M  V30 34566 H 3232.07 2.92249 -3.31727 0
M  V30 34567 N 3231.13 1.56679 0.170126 0
M  V30 34568 C 3232.04 1.99737 1.23054 0
M  V30 34569 C 3233.05 0.908938 1.48372 0
M  V30 34570 O 3234.23 1.21666 1.60497 0
M  V30 34571 C 3231.29 2.3496 2.5494 0
M  V30 34572 C 3230.35 3.57638 2.37474 0
M  V30 34573 C 3229.59 3.91172 3.63071 0
M  V30 34574 O 3229.81 3.25658 4.68298 0
M  V30 34575 O 3228.74 4.84516 3.5711 0
M  V30 34576 H 3232.57 2.90211 0.895053 0
M  V30 34577 H 3230.16 1.44563 0.377084 0
M  V30 34578 H 3232.04 2.5858 3.32738 0
M  V30 34579 H 3230.71 1.47648 2.88065 0
M  V30 34580 H 3229.62 3.39235 1.57703 0
M  V30 34581 H 3230.95 4.45495 2.09273 0
M  V30 34582 N 3232.6 -0.43872 1.5137 0
M  V30 34583 C 3233.83 -1.20898 1.67533 0
M  V30 34584 C 3234.24 -1.85515 0.371606 0
M  V30 34585 O 3233.59 -1.71447 -0.659671 0
M  V30 34586 C 3233.65 -2.33543 2.73309 0
M  V30 34587 C 3233.31 -1.89305 4.15948 0
M  V30 34588 C 3234.31 -1.39727 5.00772 0
M  V30 34589 C 3231.99 -1.97039 4.6204 0
M  V30 34590 C 3233.99 -0.984662 6.29748 0
M  V30 34591 C 3231.67 -1.5539 5.91014 0
M  V30 34592 C 3232.67 -1.06185 6.74695 0
M  V30 34593 O 3232.36 -0.651266 8.01258 0
M  V30 34594 H 3232.09 -0.370522 0.565411 0
M  V30 34595 H 3234.65 -0.526261 1.98544 0
M  V30 34596 H 3232.88 -3.05088 2.37609 0
M  V30 34597 H 3234.57 -2.95412 2.78364 0
M  V30 34598 H 3235.33 -1.33148 4.66365 0
M  V30 34599 H 3231.21 -2.34284 3.97029 0
M  V30 34600 H 3234.75 -0.599907 6.95016 0
M  V30 34601 H 3230.65 -1.61639 6.24935 0
M  V30 34602 H 3231.42 -0.777239 8.14801 0
M  V30 34603 N 3234.08 -1.41493 -0.694073 0
M  V30 34604 C 3235.31 -1.4449 -1.48786 0
M  V30 34605 C 3235.73 -0.0521919 -1.88028 0
M  V30 34606 O 3235.09 0.944925 -1.54728 0
M  V30 34607 C 3235.14 -2.36075 -2.72582 0
M  V30 34608 O 3234.24 -1.81882 -3.70125 0
M  V30 34609 H 3233.58 -0.490323 -0.44775 0
M  V30 34610 H 3236.11 -1.8597 -0.853003 0
M  V30 34611 H 3236.12 -2.52001 -3.20873 0
M  V30 34612 H 3234.8 -3.37268 -2.43357 0
M  V30 34613 H 3233.38 -1.75414 -3.29066 0
M  V30 34614 N 3235.56 0.928479 -1.27346 0
M  V30 34615 C 3236.81 1.67277 -1.13414 0
M  V30 34616 C 3237.13 1.92345 0.320664 0
M  V30 34617 O 3236.4 1.52917 1.22447 0
M  V30 34618 H 3234.98 0.619961 -0.416722 0
M  V30 34619 H 3237.64 1.1149 -1.59862 0
M  V30 34620 H 3236.74 2.64128 -1.66261 0
M  V30 34621 N 3237.04 1.09355 1.13486 0
M  V30 34622 C 3237.97 0.754129 2.20987 0
M  V30 34623 C 3238.95 -0.267871 1.67978 0
M  V30 34624 O 3240.13 -0.136094 1.93723 0
M  V30 34625 C 3237.26 0.173103 3.46868 0
M  V30 34626 C 3236.22 1.12454 4.12963 0
M  V30 34627 C 3235.54 0.405251 5.33162 0
M  V30 34628 C 3236.84 2.46666 4.60384 0
M  V30 34629 H 3238.54 1.65294 2.49636 0
M  V30 34630 H 3236.08 0.796203 1.19986 0
M  V30 34631 H 3238.04 -0.0764247 4.21331 0
M  V30 34632 H 3236.76 -0.7609 3.17613 0
M  V30 34633 H 3235.42 1.35933 3.40467 0
M  V30 34634 H 3235.07 -0.532867 5.0017 0
M  V30 34635 H 3234.77 1.03962 5.7833 0
M  V30 34636 H 3236.29 0.164006 6.1038 0
M  V30 34637 H 3237.71 2.27399 5.26272 0
M  V30 34638 H 3236.1 3.05885 5.16289 0
M  V30 34639 H 3237.17 3.07482 3.74944 0
M  V30 34640 N 3238.52 -1.307 0.880644 0
M  V30 34641 C 3239.76 -1.96599 0.497646 0
M  V30 34642 C 3240.1 -1.69384 -0.949871 0
M  V30 34643 O 3239.37 -0.996181 -1.67052 0
M  V30 34644 C 3239.65 -3.51815 0.767981 0
M  V30 34645 C 3239.51 -3.88563 2.26581 0
M  V30 34646 C 3240.83 -4.39436 0.241579 0
M  V30 34647 H 3237.95 -0.714103 0.182279 0
M  V30 34648 H 3240.59 -1.54646 1.10384 0
M  V30 34649 H 3238.74 -3.87682 0.252035 0
M  V30 34650 H 3240.41 -3.62743 2.84983 0
M  V30 34651 H 3238.65 -3.36787 2.73417 0
M  V30 34652 H 3239.32 -4.96826 2.40558 0
M  V30 34653 H 3241.8 -4.10454 0.683123 0
M  V30 34654 H 3240.68 -5.46968 0.460093 0
M  V30 34655 H 3240.94 -4.33714 -0.856991 0
M  V30 34656 N 3240 -0.641156 -1.43969 0
M  V30 34657 C 3241.41 -0.307647 -1.56607 0
M  V30 34658 C 3241.61 1.18879 -1.62696 0
M  V30 34659 O 3240.67 1.97322 -1.57544 0
M  V30 34660 C 3241.98 -1.00839 -2.83288 0
M  V30 34661 C 3243.53 -0.987492 -2.97014 0
M  V30 34662 C 3244 -1.6689 -4.26511 0
M  V30 34663 N 3245.49 -1.63596 -4.33348 0
M  V30 34664 C 3246.23 -2.13205 -5.32289 0
M  V30 34665 N 3245.73 -2.71049 -6.37577 0
M  V30 34666 N 3247.52 -2.03775 -5.23863 0
M  V30 34667 H 3239.67 -1.61239 -1.38259 0
M  V30 34668 H 3241.93 -0.67739 -0.663209 0
M  V30 34669 H 3241.64 -2.06342 -2.84809 0
M  V30 34670 H 3241.51 -0.552399 -3.73133 0
M  V30 34671 H 3243.9 0.0590876 -2.95041 0
M  V30 34672 H 3243.98 -1.48207 -2.08491 0
M  V30 34673 H 3243.62 -2.71498 -4.29245 0
M  V30 34674 H 3243.55 -1.14907 -5.1391 0
M  V30 34675 H 3246.05 -1.21374 -3.57878 0
M  V30 34676 H 3246.36 -3.0661 -7.09373 0
M  V30 34677 H 3244.7 -2.75105 -6.38234 0
M  V30 34678 H 3247.89 -1.58299 -4.40521 0
M  V30 34679 H 3248.07 -2.42747 -6.00814 0
M  V30 34680 N 3241.47 1.52892 -0.382318 0
M  V30 34681 C 3242.72 2.01787 0.202397 0
M  V30 34682 C 3243.05 1.26855 1.47042 0
M  V30 34683 O 3242.33 0.367003 1.91006 0
M  V30 34684 C 3242.61 3.56921 0.477408 0
M  V30 34685 C 3242.46 4.4253 -0.805417 0
M  V30 34686 C 3243.78 4.21348 1.27099 0
M  V30 34687 H 3240.9 0.733466 0.0720869 0
M  V30 34688 H 3243.54 1.83013 -0.51051 0
M  V30 34689 H 3241.69 3.7305 1.08472 0
M  V30 34690 H 3243.37 4.38167 -1.44248 0
M  V30 34691 H 3241.61 4.09823 -1.42223 0
M  V30 34692 H 3242.28 5.49073 -0.567731 0
M  V30 34693 H 3244.76 4.09154 0.757089 0
M  V30 34694 H 3243.63 5.29887 1.43215 0
M  V30 34695 H 3243.89 3.78517 2.28424 0
M  V30 34696 N 3242.95 0.111941 1.57202 0
M  V30 34697 C 3244.2 -0.546679 1.94566 0
M  V30 34698 C 3244.52 -1.67664 0.995674 0
M  V30 34699 O 3243.79 -1.95834 0.0507025 0
M  V30 34700 H 3242.37 -0.204938 0.718338 0
M  V30 34701 H 3245.03 0.179227 1.94074 0
M  V30 34702 H 3244.13 -0.945879 2.97421 0
M  V30 34703 N 3244.43 -1.56767 -0.161814 0
M  V30 34704 C 3245.34 -2.00387 -1.21993 0
M  V30 34705 C 3246.36 -0.916794 -1.47888 0
M  V30 34706 O 3247.53 -1.22515 -1.5985 0
M  V30 34707 C 3244.6 -2.36309 -2.5369 0
M  V30 34708 C 3243.66 -3.58892 -2.35574 0
M  V30 34709 C 3242.89 -3.93092 -3.60991 0
M  V30 34710 O 3243.11 -3.28137 -4.66564 0
M  V30 34711 O 3242.05 -4.86403 -3.54536 0
M  V30 34712 H 3245.87 -2.90682 -0.87965 0
M  V30 34713 H 3243.46 -1.44761 -0.369412 0
M  V30 34714 H 3245.34 -2.60341 -3.31362 0
M  V30 34715 H 3244.02 -1.49174 -2.87278 0
M  V30 34716 H 3242.92 -3.40067 -1.55902 0
M  V30 34717 H 3244.26 -4.46599 -2.06907 0
M  V30 34718 N 3245.91 0.430686 -1.51601 0
M  V30 34719 C 3247.18 1.1912 -1.55144 0
M  V30 34720 C 3247.56 2.08666 -0.319632 0
M  V30 34721 O 3246.91 2.17678 0.694888 0
M  V30 34722 C 3247.12 1.98727 -2.86895 0
M  V30 34723 C 3248.47 2.5554 -3.39094 0
M  V30 34724 O 3249.49 2.08931 -2.8849 0
M  V30 34725 O 3248.35 3.40566 -4.27407 0
M  V30 34726 H 3245.45 0.542694 -0.624029 0
M  V30 34727 H 3247.99 0.439215 -1.63918 0
M  V30 34728 H 3246.77 1.32999 -3.68004 0
M  V30 34729 H 3246.39 2.80977 -2.81314 0
M  V30 34730 N 3247.39 1.4186 0.686559 0
M  V30 34731 C 3248.63 1.4191 1.44877 0
M  V30 34732 C 3248.96 0.031175 1.94175 0
M  V30 34733 O 3248.24 -0.942616 1.70132 0
M  V30 34734 C 3248.52 2.43357 2.65423 0
M  V30 34735 C 3248.38 3.91293 2.21833 0
M  V30 34736 C 3249.69 2.41941 3.67631 0
M  V30 34737 H 3246.81 0.516771 0.525468 0
M  V30 34738 H 3249.46 1.73196 0.781232 0
M  V30 34739 H 3247.61 2.16809 3.22376 0
M  V30 34740 H 3249.28 4.28778 1.70138 0
M  V30 34741 H 3247.52 4.05725 1.53524 0
M  V30 34742 H 3248.19 4.57835 3.08368 0
M  V30 34743 H 3250.67 2.65522 3.20371 0
M  V30 34744 H 3249.54 3.14921 4.49573 0
M  V30 34745 H 3249.8 1.44118 4.1795 0
M  V30 34746 N 3248.86 -0.921712 1.27837 0
M  V30 34747 C 3250.09 -1.70151 1.17185 0
M  V30 34748 C 3250.5 -1.87218 -0.273174 0
M  V30 34749 O 3249.84 -1.39324 -1.19727 0
M  V30 34750 C 3249.91 -3.11783 1.78975 0
M  V30 34751 C 3249.57 -3.18031 3.28185 0
M  V30 34752 C 3250.57 -2.99828 4.24735 0
M  V30 34753 C 3248.25 -3.40799 3.69001 0
M  V30 34754 C 3250.25 -3.04291 5.60077 0
M  V30 34755 C 3247.93 -3.44895 5.04471 0
M  V30 34756 C 3248.93 -3.2666 5.99819 0
M  V30 34757 O 3248.62 -3.30502 7.32819 0
M  V30 34758 H 3248.35 -0.538925 0.408088 0
M  V30 34759 H 3250.91 -1.16263 1.69328 0
M  V30 34760 H 3249.14 -3.67177 1.21316 0
M  V30 34761 H 3250.82 -3.71754 1.62952 0
M  V30 34762 H 3251.59 -2.82073 3.94538 0
M  V30 34763 H 3247.47 -3.5404 2.95257 0
M  V30 34764 H 3251.01 -2.89976 6.34476 0
M  V30 34765 H 3246.91 -3.62175 5.34321 0
M  V30 34766 H 3247.68 -3.46917 7.41344 0
M  V30 34767 N 3250.34 -1.09956 -1.12905 0
M  V30 34768 C 3251.57 -0.859689 -1.87864 0
M  V30 34769 C 3251.98 0.593065 -1.79665 0
M  V30 34770 O 3251.32 1.42032 -1.16501 0
M  V30 34771 C 3251.38 -1.22314 -3.38052 0
M  V30 34772 C 3251.05 -2.68192 -3.7003 0
M  V30 34773 C 3252.05 -3.66435 -3.68811 0
M  V30 34774 C 3249.73 -3.04451 -3.99518 0
M  V30 34775 C 3251.72 -4.98962 -3.9663 0
M  V30 34776 C 3249.41 -4.37168 -4.26998 0
M  V30 34777 C 3250.41 -5.34233 -4.2554 0
M  V30 34778 O 3250.1 -6.64561 -4.52342 0
M  V30 34779 H 3249.83 -0.30866 -0.601419 0
M  V30 34780 H 3252.38 -1.46652 -1.43814 0
M  V30 34781 H 3250.61 -0.559389 -3.82633 0
M  V30 34782 H 3252.3 -0.961548 -3.94346 0
M  V30 34783 H 3253.07 -3.39766 -3.46098 0
M  V30 34784 H 3248.95 -2.29528 -3.99797 0
M  V30 34785 H 3252.49 -5.74716 -3.95407 0
M  V30 34786 H 3248.39 -4.63578 -4.49184 0
M  V30 34787 H 3249.16 -6.70117 -4.69985 0
M  V30 34788 N 3251.82 1.30231 -0.887563 0
M  V30 34789 C 3253.07 1.96042 -0.507313 0
M  V30 34790 C 3253.39 1.70054 0.944029 0
M  V30 34791 O 3252.65 0.999474 1.68253 0
M  V30 34792 C 3252.95 3.49827 -0.731827 0
M  V30 34793 C 3252.61 3.9587 -2.15865 0
M  V30 34794 C 3251.28 4.08153 -2.54882 0
M  V30 34795 C 3253.63 4.19844 -3.08838 0
M  V30 34796 C 3250.96 4.41771 -3.86076 0
M  V30 34797 C 3253.31 4.54932 -4.39567 0
M  V30 34798 C 3251.97 4.65424 -4.78474 0
M  V30 34799 H 3251.24 0.71737 -0.185639 0
M  V30 34800 H 3253.89 1.5505 -1.12391 0
M  V30 34801 H 3252.19 3.91787 -0.0322161 0
M  V30 34802 H 3253.89 3.98824 -0.417177 0
M  V30 34803 H 3250.48 3.86818 -1.8458 0
M  V30 34804 H 3254.67 4.09832 -2.79914 0
M  V30 34805 H 3249.92 4.48095 -4.15958 0
M  V30 34806 H 3254.1 4.72433 -5.11644 0
M  V30 34807 H 3251.72 4.91229 -5.80171 0
M  V30 34808 N 3253.3 0.648782 1.43627 0
M  V30 34809 C 3254.55 0.160055 2.01465 0
M  V30 34810 C 3254.87 -1.22875 1.51415 0
M  V30 34811 O 3254.14 -1.81993 0.724951 0
M  V30 34812 H 3252.72 0.0561803 0.744884 0
M  V30 34813 H 3255.38 0.839453 1.75895 0
M  V30 34814 H 3254.48 0.141268 3.1178 0
M  V30 34815 N 3254.78 -1.52688 0.390421 0
M  V30 34816 C 3255.69 -2.30214 -0.451503 0
M  V30 34817 C 3256.7 -1.37174 -1.07048 0
M  V30 34818 O 3257.88 -1.70244 -1.07606 0
M  V30 34819 C 3254.94 -3.09473 -1.56293 0
M  V30 34820 C 3254 -4.18222 -0.968943 0
M  V30 34821 C 3253.24 -4.93692 -2.02741 0
M  V30 34822 O 3253.46 -4.69264 -3.24265 0
M  V30 34823 O 3252.39 -5.79011 -1.64408 0
M  V30 34824 H 3256.22 -3.03166 0.180096 0
M  V30 34825 H 3253.81 -1.48603 0.154108 0
M  V30 34826 H 3255.69 -3.58887 -2.20858 0
M  V30 34827 H 3254.36 -2.39334 -2.17948 0
M  V30 34828 H 3253.27 -3.73001 -0.286522 0
M  V30 34829 H 3254.6 -4.906 -0.396601 0
M  V30 34830 N 3256.25 -0.120276 -1.5714 0
M  V30 34831 C 3257.48 0.545101 -1.9959 0
M  V30 34832 C 3257.9 1.60143 -0.999979 0
M  V30 34833 O 3257.25 1.82499 0.00695689 0
M  V30 34834 C 3257.31 1.17008 -3.4204 0
M  V30 34835 O 3257.03 0.155967 -4.37822 0
M  V30 34836 C 3258.53 1.91865 -3.99628 0
M  V30 34837 H 3255.75 0.14421 -0.65532 0
M  V30 34838 H 3258.29 -0.206991 -2.0345 0
M  V30 34839 H 3256.45 1.87294 -3.39116 0
M  V30 34840 H 3256.86 0.610226 -5.20938 0
M  V30 34841 H 3258.33 2.30919 -5.01378 0
M  V30 34842 H 3258.81 2.79434 -3.38841 0
M  V30 34843 H 3259.42 1.26338 -4.06102 0
M  V30 34844 N 3257.73 1.56851 0.153498 0
M  V30 34845 C 3258.96 1.86873 0.881023 0
M  V30 34846 C 3259.37 0.705723 1.75545 0
M  V30 34847 O 3258.71 -0.333856 1.80641 0
M  V30 34848 C 3258.78 3.11524 1.79424 0
M  V30 34849 C 3258.44 4.43623 1.09763 0
M  V30 34850 C 3259.44 5.17909 0.454602 0
M  V30 34851 C 3257.12 4.90351 1.08907 0
M  V30 34852 C 3259.12 6.37124 -0.187674 0
M  V30 34853 C 3256.8 6.09492 0.442976 0
M  V30 34854 C 3257.8 6.82724 -0.194274 0
M  V30 34855 O 3257.49 7.99602 -0.830136 0
M  V30 34856 H 3257.22 0.623802 0.260475 0
M  V30 34857 H 3259.77 2.04829 0.152988 0
M  V30 34858 H 3258 2.8956 2.56305 0
M  V30 34859 H 3259.69 3.27846 2.39315 0
M  V30 34860 H 3260.46 4.82879 0.453066 0
M  V30 34861 H 3256.34 4.33279 1.57449 0
M  V30 34862 H 3259.88 6.94222 -0.685664 0
M  V30 34863 H 3255.78 6.43984 0.442157 0
M  V30 34864 H 3256.55 8.15228 -0.731156 0
M  V30 34865 N 3259.21 -0.42264 1.51827 0
M  V30 34866 C 3260.44 -1.19287 1.69051 0
M  V30 34867 C 3260.85 -1.8464 0.394127 0
M  V30 34868 O 3260.21 -1.71329 -0.628701 0
M  V30 34869 C 3260.26 -2.26604 2.81661 0
M  V30 34870 O 3259.98 -1.63921 4.06277 0
M  V30 34871 C 3261.48 -3.1661 3.10279 0
M  V30 34872 H 3258.7 -0.358978 0.5669 0
M  V30 34873 H 3261.25 -0.498994 1.98319 0
M  V30 34874 H 3259.4 -2.91683 2.5495 0
M  V30 34875 H 3259.82 -2.34961 4.68928 0
M  V30 34876 H 3261.29 -3.88012 3.9262 0
M  V30 34877 H 3261.77 -3.7821 2.2328 0
M  V30 34878 H 3262.37 -2.57215 3.38704 0
M  V30 34879 N 3260.69 -1.42222 -0.679027 0
M  V30 34880 C 3261.94 -1.41759 -1.43482 0
M  V30 34881 C 3262.25 -0.0359042 -1.95567 0
M  V30 34882 O 3263.46 0.0913236 -2.71346 0
M  V30 34883 C 3261.91 -2.49337 -2.59537 0
M  V30 34884 C 3261.52 -3.93492 -2.14169 0
M  V30 34885 C 3263.26 -2.58035 -3.37073 0
M  V30 34886 C 3261.17 -4.92587 -3.2728 0
M  V30 34887 H 3260.1 -0.527239 -0.539013 0
M  V30 34888 H 3262.75 -1.68113 -0.735551 0
M  V30 34889 H 3261.13 -2.16141 -3.31812 0
M  V30 34890 H 3262.31 -4.3602 -1.49075 0
M  V30 34891 H 3260.62 -3.88605 -1.49582 0
M  V30 34892 H 3263.22 -3.2925 -4.21306 0
M  V30 34893 H 3263.56 -1.62252 -3.8338 0
M  V30 34894 H 3264.1 -2.90404 -2.71865 0
M  V30 34895 H 3260.84 -5.89832 -2.85969 0
M  V30 34896 H 3260.36 -4.54694 -3.9117 0
M  V30 34897 H 3262.03 -5.1411 -3.92811 0
M  V30 34898 N 3262.17 0.91492 -1.28324 0
M  V30 34899 C 3263.08 2.05041 -1.13996 0
M  V30 34900 C 3264.09 1.73872 -0.0668227 0
M  V30 34901 O 3265.27 1.99502 -0.27588 0
M  V30 34902 C 3262.33 3.37298 -0.801916 0
M  V30 34903 C 3261.39 3.82084 -1.95729 0
M  V30 34904 C 3260.63 5.0803 -1.63528 0
M  V30 34905 O 3260.85 5.67751 -0.54909 0
M  V30 34906 O 3259.78 5.485 -2.47854 0
M  V30 34907 H 3263.61 2.20046 -2.09316 0
M  V30 34908 H 3261.2 1.03614 -1.07631 0
M  V30 34909 H 3263.08 4.16705 -0.627288 0
M  V30 34910 H 3261.75 3.23471 0.121639 0
M  V30 34911 H 3260.66 3.0351 -2.18707 0
M  V30 34912 H 3261.99 4.00473 -2.86151 0
M  V30 34913 N 3263.64 1.10553 1.1232 0
M  V30 34914 C 3264.87 0.870903 1.87678 0
M  V30 34915 C 3265.29 -0.578702 1.79712 0
M  V30 34916 O 3264.64 -1.39905 1.17188 0
M  V30 34917 C 3264.7 1.31219 3.36844 0
M  V30 34918 O 3264.42 2.70495 3.44621 0
M  V30 34919 C 3265.92 1.11164 4.29136 0
M  V30 34920 H 3263.14 0.312511 0.593783 0
M  V30 34921 H 3265.68 1.47051 1.42114 0
M  V30 34922 H 3263.84 0.756236 3.79947 0
M  V30 34923 H 3264.25 2.89397 4.37436 0
M  V30 34924 H 3265.72 1.46954 5.3208 0
M  V30 34925 H 3266.2 0.0503735 4.39171 0
M  V30 34926 H 3266.81 1.65412 3.91815 0
M  V30 34927 N 3265.12 -1.29758 0.894457 0
M  V30 34928 C 3266.37 -1.95384 0.51668 0
M  V30 34929 C 3266.69 -1.70897 -0.939111 0
M  V30 34930 O 3265.96 -1.03781 -1.66152 0
M  V30 34931 H 3264.54 -0.722934 0.188085 0
M  V30 34932 H 3267.2 -1.58111 1.13961 0
M  V30 34933 H 3266.3 -3.04266 0.694873 0
M  V30 34934 N 3266.6 -0.65639 -1.4328 0
M  V30 34935 C 3267.85 -0.179941 -2.02603 0
M  V30 34936 C 3268.2 1.1939 -1.50877 0
M  V30 34937 O 3267.49 1.78608 -0.693531 0
M  V30 34938 C 3267.69 -0.134287 -3.57148 0
M  V30 34939 C 3267.52 -1.50216 -4.23869 0
M  V30 34940 C 3266.29 -2.09534 -4.59808 0
M  V30 34941 C 3268.49 -2.4412 -4.5267 0
M  V30 34942 N 3266.47 -3.39293 -5.11618 0
M  V30 34943 C 3267.84 -3.58515 -5.05833 0
M  V30 34944 C 3269.89 -2.42882 -4.34641 0
M  V30 34945 C 3268.6 -4.71902 -5.42864 0
M  V30 34946 C 3270.62 -3.55351 -4.72736 0
M  V30 34947 C 3269.98 -4.68473 -5.26035 0
M  V30 34948 H 3266.08 -0.110348 -0.774175 0
M  V30 34949 H 3268.67 -0.865383 -1.74411 0
M  V30 34950 H 3266.84 0.520508 -3.84896 0
M  V30 34951 H 3268.57 0.353329 -4.03155 0
M  V30 34952 H 3265.33 -1.62211 -4.44955 0
M  V30 34953 H 3265.75 -4.05702 -5.41973 0
M  V30 34954 H 3270.39 -1.56661 -3.92705 0
M  V30 34955 H 3268.11 -5.58812 -5.83742 0
M  V30 34956 H 3271.7 -3.55599 -4.60479 0
M  V30 34957 H 3270.58 -5.54061 -5.54965 0
M  V30 34958 N 3268.08 1.52478 -0.398513 0
M  V30 34959 C 3269.33 2.00877 0.182011 0
M  V30 34960 C 3269.64 1.28893 1.47126 0
M  V30 34961 O 3270.85 1.68051 2.13239 0
M  V30 34962 C 3269.3 3.57942 0.374915 0
M  V30 34963 C 3268.91 4.38833 -0.901621 0
M  V30 34964 C 3270.66 4.14603 0.911305 0
M  V30 34965 C 3268.56 5.87518 -0.676489 0
M  V30 34966 H 3267.49 0.750574 0.0717936 0
M  V30 34967 H 3270.14 1.75909 -0.522328 0
M  V30 34968 H 3268.53 3.79196 1.14133 0
M  V30 34969 H 3269.7 4.29343 -1.67336 0
M  V30 34970 H 3268.01 3.93438 -1.36364 0
M  V30 34971 H 3270.61 5.23355 1.0956 0
M  V30 34972 H 3270.95 3.7128 1.88299 0
M  V30 34973 H 3271.49 3.97275 0.204226 0
M  V30 34974 H 3268.23 6.35181 -1.61944 0
M  V30 34975 H 3267.75 5.99774 0.0561488 0
M  V30 34976 H 3269.43 6.46235 -0.314568 0
M  V30 34977 N 3269.56 0.128608 1.57074 0
M  V30 34978 C 3270.79 -0.533734 1.99587 0
M  V30 34979 C 3271.2 -1.60151 1.00739 0
M  V30 34980 O 3270.54 -1.83699 -0.00644554 0
M  V30 34981 C 3270.6 -1.21008 3.38522 0
M  V30 34982 C 3270.26 -0.289111 4.56085 0
M  V30 34983 C 3271.26 0.476054 5.17716 0
M  V30 34984 C 3268.95 -0.197379 5.01912 0
M  V30 34985 C 3270.94 1.32059 6.2357 0
M  V30 34986 C 3268.63 0.650776 6.07625 0
M  V30 34987 C 3269.63 1.40838 6.68322 0
M  V30 34988 O 3269.31 2.24244 7.71991 0
M  V30 34989 H 3269.05 -0.145085 0.660247 0
M  V30 34990 H 3271.6 0.214651 2.04275 0
M  V30 34991 H 3269.83 -2.00573 3.30617 0
M  V30 34992 H 3271.52 -1.77029 3.65261 0
M  V30 34993 H 3272.28 0.415112 4.8322 0
M  V30 34994 H 3268.16 -0.776773 4.54409 0
M  V30 34995 H 3271.71 1.9124 6.70875 0
M  V30 34996 H 3267.6 0.713077 6.41549 0
M  V30 34997 H 3268.37 2.1729 7.89131 0
M  V30 34998 N 3271.04 -1.5693 -0.145178 0
M  V30 34999 C 3272.31 -1.74369 -0.886279 0
M  V30 35000 C 3272.69 -0.697116 -1.99257 0
M  V30 35001 O 3272.04 0.28364 -2.26733 0
M  V30 35002 C 3272.25 -3.1849 -1.42706 0
M  V30 35003 C 3273.6 -3.80228 -1.88975 0
M  V30 35004 O 3274.62 -3.21931 -1.52444 0
M  V30 35005 O 3273.48 -4.82645 -2.56352 0
M  V30 35006 H 3270.58 -0.713019 -0.418967 0
M  V30 35007 H 3273.12 -1.69194 -0.130961 0
M  V30 35008 H 3271.89 -3.86161 -0.632097 0
M  V30 35009 H 3271.52 -3.28098 -2.24583 0
M  V30 35010 N 3272.51 0.414582 -1.52049 0
M  V30 35011 C 3273.45 1.52552 -1.69715 0
M  V30 35012 C 3274.42 1.53205 -0.544708 0
M  V30 35013 O 3275.61 1.71994 -0.771388 0
M  V30 35014 C 3272.74 2.91096 -1.7315 0
M  V30 35015 C 3271.78 3.08376 -2.94629 0
M  V30 35016 S 3272.61 2.82266 -4.55067 0
M  V30 35017 C 3273.77 4.23049 -4.61281 0
M  V30 35018 H 3274 1.37338 -2.63677 0
M  V30 35019 H 3271.54 0.605799 -1.42019 0
M  V30 35020 H 3273.49 3.70944 -1.75815 0
M  V30 35021 H 3272.16 3.03656 -0.803252 0
M  V30 35022 H 3271.35 4.09725 -2.93499 0
M  V30 35023 H 3270.95 2.36386 -2.89824 0
M  V30 35024 H 3273.24 5.16604 -4.38322 0
M  V30 35025 H 3274.19 4.29204 -5.63196 0
M  V30 35026 H 3274.59 4.07766 -3.90368 0
M  V30 35027 N 3273.99 1.4258 0.671475 0
M  V30 35028 C 3274.9 1.48727 1.81432 0
M  V30 35029 C 3275.92 0.375745 1.69895 0
M  V30 35030 O 3277.09 0.627149 1.91387 0
M  V30 35031 C 3274.16 1.39043 3.17597 0
M  V30 35032 C 3273.22 2.60715 3.41066 0
M  V30 35033 C 3272.45 2.51484 4.70735 0
M  V30 35034 O 3272.68 1.55253 5.48865 0
M  V30 35035 O 3271.61 3.41674 4.95522 0
M  V30 35036 H 3275.44 2.45195 1.79202 0
M  V30 35037 H 3273.02 1.2438 0.827645 0
M  V30 35038 H 3274.9 1.36017 3.98845 0
M  V30 35039 H 3273.58 0.457022 3.20457 0
M  V30 35040 H 3272.48 2.69315 2.59654 0
M  V30 35041 H 3273.82 3.52966 3.43039 0
M  V30 35042 N 3275.47 -0.908102 1.28807 0
M  V30 35043 C 3276.42 -2.03259 1.13086 0
M  V30 35044 C 3277.41 -1.6933 0.0486392 0
M  V30 35045 O 3278.62 -1.78796 0.207825 0
M  V30 35046 H 3274.99 -0.666074 0.349069 0
M  V30 35047 H 3276.96 -2.13659 2.08308 0
M  V30 35048 C 3275.71 -3.38004 0.815398 0
M  V30 35049 H 3275.04 -3.64609 1.64014 0
M  V30 35050 H 3276.48 -4.17397 0.745385 0
M  V30 35051 C 3274.93 -3.33448 -0.481072 0
M  V30 35052 O 3275.46 -3.72252 -1.50968 0
M  V30 35053 N 3273.67 -2.86543 -0.483862 0
M  V30 35054 H 3273.22 -2.55161 0.353638 0
M  V30 35055 H 3273.18 -2.83878 -1.35133 0
M  V30 35056 N 3276.95 -1.11147 -1.11732 0
M  V30 35057 C 3277.86 -0.779646 -2.21266 0
M  V30 35058 C 3278.87 0.225955 -1.72527 0
M  V30 35059 O 3280.05 0.0628812 -2.01302 0
M  V30 35060 C 3277.11 -0.224411 -3.45973 0
M  V30 35061 C 3276.18 -1.28823 -4.09516 0
M  V30 35062 C 3275.41 -0.759393 -5.2827 0
M  V30 35063 O 3275.63 0.411625 -5.68913 0
M  V30 35064 O 3274.57 -1.52277 -5.82319 0
M  V30 35065 H 3278.39 -1.69414 -2.52057 0
M  V30 35066 H 3275.98 -0.887137 -1.20209 0
M  V30 35067 H 3277.86 0.081018 -4.21322 0
M  V30 35068 H 3276.53 0.662835 -3.16841 0
M  V30 35069 H 3275.44 -1.64663 -3.35912 0
M  V30 35070 H 3276.77 -2.14875 -4.4282 0
M  V30 35071 N 3278.43 1.29282 -0.901326 0
M  V30 35072 C 3279.65 2.00169 -0.542858 0
M  V30 35073 C 3280.08 1.67002 0.865553 0
M  V30 35074 O 3279.43 0.895529 1.57639 0
M  V30 35075 C 3279.48 3.5284 -0.744049 0
M  V30 35076 O 3278.59 4.11902 0.202699 0
M  V30 35077 H 3277.93 0.629276 -0.211914 0
M  V30 35078 H 3280.46 1.64738 -1.21336 0
M  V30 35079 H 3280.47 4.028 -0.64933 0
M  V30 35080 H 3279.14 3.76316 -1.77084 0
M  V30 35081 H 3277.72 3.72851 0.0602982 0
M  V30 35082 N 3279.9 0.663979 1.4293 0
M  V30 35083 C 3281.18 0.111208 1.95284 0
M  V30 35084 C 3281.56 -1.3714 1.60487 0
M  V30 35085 O 3280.91 -2.10223 0.895462 0
M  V30 35086 C 3281.12 0.36885 3.47045 0
M  V30 35087 C 3282.47 0.279548 4.23679 0
M  V30 35088 O 3283.49 0.301999 3.54917 0
M  V30 35089 O 3282.35 0.212456 5.46087 0
M  V30 35090 H 3279.44 -0.00340264 0.826993 0
M  V30 35091 H 3281.99 0.737962 1.52814 0
M  V30 35092 H 3280.76 1.39632 3.65539 0
M  V30 35093 H 3280.38 -0.290444 3.96538 0
M  V30 35094 N 3281.38 -1.52265 0.406593 0
M  V30 35095 C 3282.33 -2.26944 -0.420142 0
M  V30 35096 C 3283.3 -1.29253 -1.04321 0
M  V30 35097 O 3284.48 -1.58111 -1.06796 0
M  V30 35098 C 3281.62 -3.09219 -1.53224 0
M  V30 35099 C 3280.74 -4.21863 -0.930345 0
M  V30 35100 C 3279.87 -4.91502 -2.01493 0
M  V30 35101 C 3278.91 -5.96112 -1.38984 0
M  V30 35102 N 3278.05 -6.59278 -2.41446 0
M  V30 35103 H 3282.89 -2.97164 0.223118 0
M  V30 35104 H 3280.42 -1.46594 0.121868 0
M  V30 35105 H 3282.38 -3.55224 -2.18797 0
M  V30 35106 H 3281.01 -2.41175 -2.14557 0
M  V30 35107 H 3280.06 -3.80047 -0.163742 0
M  V30 35108 H 3281.38 -4.96911 -0.433698 0
M  V30 35109 H 3280.53 -5.40899 -2.74798 0
M  V30 35110 H 3279.27 -4.16016 -2.54523 0
M  V30 35111 H 3278.27 -5.46037 -0.642117 0
M  V30 35112 H 3279.5 -6.73539 -0.867268 0
M  V30 35113 H 3277.45 -5.86624 -2.93613 0
M  V30 35114 H 3277.36 -7.29993 -1.96586 0
M  V30 35115 H 3278.63 -7.13315 -3.14328 0
M  V30 35116 N 3282.86 -0.136936 -1.57004 0
M  V30 35117 C 3284.09 0.523142 -1.99867 0
M  V30 35118 C 3284.5 1.59614 -1.01587 0
M  V30 35119 O 3283.84 1.837 -0.00329655 0
M  V30 35120 C 3283.9 1.19211 -3.39159 0
M  V30 35121 C 3283.57 0.26492 -4.56231 0
M  V30 35122 C 3284.56 -0.503503 -5.17456 0
M  V30 35123 C 3282.25 0.170758 -5.0201 0
M  V30 35124 C 3284.24 -1.35364 -6.22861 0
M  V30 35125 C 3281.93 -0.682991 -6.07271 0
M  V30 35126 C 3282.93 -1.4438 -6.67565 0
M  V30 35127 O 3282.62 -2.28334 -7.70791 0
M  V30 35128 H 3282.35 0.141581 -0.661007 0
M  V30 35129 H 3284.9 -0.225481 -2.04159 0
M  V30 35130 H 3283.13 1.98817 -3.31676 0
M  V30 35131 H 3284.82 1.7509 -3.66194 0
M  V30 35132 H 3285.59 -0.440732 -4.82993 0
M  V30 35133 H 3281.47 0.752664 -4.54814 0
M  V30 35134 H 3285.01 -1.94795 -6.69851 0
M  V30 35135 H 3280.91 -0.74709 -6.41162 0
M  V30 35136 H 3281.68 -2.21472 -7.87967 0
M  V30 35137 N 3284.34 1.57005 0.136853 0
M  V30 35138 C 3285.57 1.87797 0.861153 0
M  V30 35139 C 3285.98 0.724302 1.74787 0
M  V30 35140 O 3285.32 -0.314678 1.80985 0
M  V30 35141 C 3285.38 3.1341 1.7611 0
M  V30 35142 C 3285.05 4.44762 1.05051 0
M  V30 35143 C 3286.04 5.18362 0.399645 0
M  V30 35144 C 3283.73 4.91479 1.037 0
M  V30 35145 C 3285.72 6.36889 -0.255239 0
M  V30 35146 C 3283.41 6.09928 0.378307 0
M  V30 35147 C 3284.41 6.82479 -0.266675 0
M  V30 35148 O 3284.09 7.98677 -0.914898 0
M  V30 35149 H 3283.83 0.62653 0.253844 0
M  V30 35150 H 3286.38 2.0498 0.131255 0
M  V30 35151 H 3284.61 2.92262 2.53219 0
M  V30 35152 H 3286.3 3.30366 2.35824 0
M  V30 35153 H 3287.07 4.83333 0.401824 0
M  V30 35154 H 3282.94 4.34925 1.52844 0
M  V30 35155 H 3286.49 6.93456 -0.759257 0
M  V30 35156 H 3282.39 6.44417 0.373829 0
M  V30 35157 H 3283.15 8.14406 -0.817581 0
M  V30 35158 N 3285.82 -0.406513 1.52267 0
M  V30 35159 C 3287.06 -1.15322 1.66454 0
M  V30 35160 C 3287.39 -1.90431 0.395761 0
M  V30 35161 O 3286.65 -1.85574 -0.621349 0
M  V30 35162 C 3286.95 -2.17115 2.83894 0
M  V30 35163 C 3286.61 -1.58794 4.22013 0
M  V30 35164 C 3285.27 -1.42613 4.59581 0
M  V30 35165 C 3287.63 -1.16227 5.08076 0
M  V30 35166 C 3284.95 -0.823865 5.80887 0
M  V30 35167 C 3287.31 -0.574173 6.29989 0
M  V30 35168 C 3285.97 -0.399521 6.66303 0
M  V30 35169 H 3285.24 -0.421994 0.609099 0
M  V30 35170 H 3287.89 -0.440099 1.86374 0
M  V30 35171 H 3286.19 -2.94581 2.5832 0
M  V30 35172 H 3287.89 -2.74768 2.92067 0
M  V30 35173 H 3284.48 -1.72371 3.92411 0
M  V30 35174 H 3288.66 -1.27536 4.79633 0
M  V30 35175 H 3283.92 -0.676588 6.07645 0
M  V30 35176 H 3288.09 -0.235959 6.96 0
M  V30 35177 H 3285.72 0.0692598 7.60168 0
M  V30 35178 N 3287.29 -1.42934 -0.663904 0
M  V30 35179 C 3288.24 -1.47513 -1.79841 0
M  V30 35180 C 3289.24 -0.349756 -1.6575 0
M  V30 35181 O 3290.44 -0.523269 -1.72226 0
M  V30 35182 H 3286.82 -0.462229 -0.593168 0
M  V30 35183 H 3288.79 -2.43064 -1.73097 0
M  V30 35184 C 3287.54 -1.40496 -3.18051 0
M  V30 35185 H 3286.86 -2.26392 -3.29525 0
M  V30 35186 H 3288.3 -1.47761 -3.9742 0
M  V30 35187 C 3286.76 -0.121135 -3.36682 0
M  V30 35188 O 3287.29 0.821805 -3.93204 0
M  V30 35189 N 3285.5 -0.0347651 -2.90579 0
M  V30 35190 H 3285.04 -0.802895 -2.44768 0
M  V30 35191 H 3285 0.823553 -3.03422 0
M  V30 35192 N 3288.77 0.901258 -1.29287 0
M  V30 35193 C 3290.18 1.46684 -1.15501 0
M  V30 35194 C 3290.53 1.94595 0.250412 0
M  V30 35195 O 3289.66 1.83578 1.14578 0
M  V30 35196 C 3290.25 2.66603 -2.09065 0
M  V30 35197 C 3288.81 3.19302 -1.99307 0
M  V30 35198 C 3287.96 1.91996 -2.00082 0
M  V30 35199 H 3290.91 0.712748 -1.41794 0
M  V30 35200 H 3290.93 3.42285 -1.66196 0
M  V30 35201 H 3290.44 2.31702 -3.11345 0
M  V30 35202 H 3288.55 3.589 -1.00109 0
M  V30 35203 H 3288.66 3.83705 -2.86892 0
M  V30 35204 H 3287.02 2.09633 -1.44658 0
M  V30 35205 H 3287.81 1.59374 -3.04064 0
M  V30 35206 N 3290.25 1.11738 1.11141 0
M  V30 35207 C 3291.16 0.791369 2.2085 0
M  V30 35208 C 3292.18 -0.216803 1.72644 0
M  V30 35209 O 3293.35 -0.0522048 2.01332 0
M  V30 35210 C 3290.42 0.242755 3.45849 0
M  V30 35211 C 3289.48 1.30993 4.08827 0
M  V30 35212 C 3288.71 0.787398 5.2786 0
M  V30 35213 O 3288.93 -0.381449 5.69123 0
M  V30 35214 O 3287.87 1.55363 5.81503 0
M  V30 35215 H 3291.69 1.70748 2.51155 0
M  V30 35216 H 3289.28 0.893499 1.19737 0
M  V30 35217 H 3291.16 -0.0586732 4.21359 0
M  V30 35218 H 3289.84 -0.646023 3.17188 0
M  V30 35219 H 3288.74 1.66442 3.35034 0
M  V30 35220 H 3290.08 2.17221 4.41674 0
M  V30 35221 N 3291.73 -1.28802 0.90817 0
M  V30 35222 C 3292.96 -1.99342 0.554125 0
M  V30 35223 C 3293.37 -1.6791 -0.863233 0
M  V30 35224 O 3292.73 -0.928778 -1.57099 0
M  V30 35225 C 3292.78 -3.53698 0.746978 0
M  V30 35226 O 3292.5 -3.8402 2.10856 0
M  V30 35227 C 3294 -4.41501 0.399017 0
M  V30 35228 H 3291.22 -0.636698 0.211795 0
M  V30 35229 H 3293.77 -1.64134 1.21984 0
M  V30 35230 H 3291.92 -3.87187 0.128332 0
M  V30 35231 H 3292.33 -4.78673 2.14413 0
M  V30 35232 H 3293.81 -5.48894 0.584752 0
M  V30 35233 H 3294.29 -4.34145 -0.664441 0
M  V30 35234 H 3294.89 -4.13498 0.994965 0
M  V30 35235 N 3293.21 -0.67155 -1.42576 0
M  V30 35236 C 3294.15 0.00879619 -2.30798 0
M  V30 35237 C 3295.12 0.796051 -1.45781 0
M  V30 35238 O 3296.31 0.768957 -1.74619 0
M  V30 35239 C 3293.45 0.956393 -3.31583 0
M  V30 35240 C 3292.56 0.163305 -4.31691 0
M  V30 35241 C 3291.7 1.10636 -5.19551 0
M  V30 35242 C 3290.74 0.304768 -6.11341 0
M  V30 35243 N 3289.87 1.20036 -6.91763 0
M  V30 35244 H 3294.71 -0.749352 -2.88425 0
M  V30 35245 H 3292.25 -0.381276 -1.42073 0
M  V30 35246 H 3294.21 1.51959 -3.88541 0
M  V30 35247 H 3292.84 1.68121 -2.75564 0
M  V30 35248 H 3291.89 -0.516462 -3.76878 0
M  V30 35249 H 3293.2 -0.459187 -4.96682 0
M  V30 35250 H 3292.36 1.73959 -5.81226 0
M  V30 35251 H 3291.09 1.76274 -4.54729 0
M  V30 35252 H 3290.1 -0.341694 -5.48737 0
M  V30 35253 H 3291.32 -0.347471 -6.7821 0
M  V30 35254 H 3289.27 1.8432 -6.29573 0
M  V30 35255 H 3289.19 0.632871 -7.53346 0
M  V30 35256 H 3290.46 1.82116 -7.57927 0
M  V30 35257 N 3294.68 1.52047 -0.414663 0
M  V30 35258 C 3295.63 2.27163 0.408101 0
M  V30 35259 C 3296.6 1.29805 1.03634 0
M  V30 35260 O 3297.79 1.58676 1.05956 0
M  V30 35261 C 3294.93 3.10027 1.51582 0
M  V30 35262 C 3294.04 4.22351 0.90796 0
M  V30 35263 C 3293.17 4.92563 1.98884 0
M  V30 35264 C 3292.21 5.96841 1.3582 0
M  V30 35265 N 3291.35 6.6055 2.37947 0
M  V30 35266 H 3296.19 2.97041 -0.238874 0
M  V30 35267 H 3293.73 1.46528 -0.12964 0
M  V30 35268 H 3295.69 3.56379 2.1691 0
M  V30 35269 H 3294.32 2.42309 2.13275 0
M  V30 35270 H 3293.37 3.80129 0.143585 0
M  V30 35271 H 3294.68 4.97134 0.407339 0
M  V30 35272 H 3293.83 5.42348 2.71925 0
M  V30 35273 H 3292.57 4.1736 2.52313 0
M  V30 35274 H 3291.58 5.4637 0.61315 0
M  V30 35275 H 3292.8 6.7399 0.831536 0
M  V30 35276 H 3290.75 5.88173 2.90498 0
M  V30 35277 H 3290.67 7.31025 1.92712 0
M  V30 35278 H 3291.93 7.14972 3.10541 0
M  V30 35279 N 3296.16 0.145261 1.56929 0
M  V30 35280 C 3297.13 -0.780965 2.15485 0
M  V30 35281 C 3298.13 -1.17645 1.09619 0
M  V30 35282 O 3299.32 -1.09766 1.35267 0
M  V30 35283 C 3296.45 -2.05955 2.71653 0
M  V30 35284 H 3297.64 -0.271632 2.98667 0
M  V30 35285 H 3295.19 -0.104173 1.55952 0
M  V30 35286 H 3295.93 -2.61258 1.92132 0
M  V30 35287 H 3295.71 -1.78519 3.49103 0
M  V30 35288 H 3297.2 -2.7211 3.16774 0
M  V30 35289 N 3297.64 -1.57075 -0.128525 0
M  V30 35290 C 3298.88 -1.86162 -0.843979 0
M  V30 35291 C 3299.25 -0.732011 -1.77498 0
M  V30 35292 O 3300.45 -0.904402 -2.53128 0
M  V30 35293 C 3298.72 -3.20464 -1.58232 0
M  V30 35294 S 3300.28 -3.71158 -2.34066 0
M  V30 35295 H 3297.09 -0.652739 -0.281873 0
M  V30 35296 H 3299.7 -1.95229 -0.102868 0
M  V30 35297 H 3298.4 -4.0063 -0.890175 0
M  V30 35298 H 3297.93 -3.1445 -2.36399 0
M  V30 35299 H 3299.95 -3.41898 -3.59611 0
M  V30 35300 N 3299.12 0.398432 -1.5248 0
M  V30 35301 C 3300.07 1.48612 -1.76587 0
M  V30 35302 C 3301.04 1.54545 -0.608704 0
M  V30 35303 O 3302.22 1.70949 -0.847413 0
M  V30 35304 C 3299.36 2.85947 -1.93206 0
M  V30 35305 C 3298.47 2.8924 -3.2088 0
M  V30 35306 C 3297.61 4.17941 -3.2787 0
M  V30 35307 C 3296.65 4.1525 -4.49704 0
M  V30 35308 N 3295.79 5.35541 -4.54027 0
M  V30 35309 H 3300.63 1.27357 -2.69414 0
M  V30 35310 H 3298.16 0.618008 -1.33488 0
M  V30 35311 H 3300.12 3.65684 -2.00825 0
M  V30 35312 H 3298.75 3.05673 -1.03749 0
M  V30 35313 H 3297.8 2.0193 -3.22379 0
M  V30 35314 H 3299.11 2.83118 -4.10665 0
M  V30 35315 H 3298.27 5.06077 -3.3462 0
M  V30 35316 H 3297.01 4.26773 -2.36043 0
M  V30 35317 H 3296.01 3.25503 -4.43089 0
M  V30 35318 H 3297.24 4.08049 -5.42838 0
M  V30 35319 H 3295.18 5.4502 -3.65088 0
M  V30 35320 H 3295.1 5.31457 -5.37671 0
M  V30 35321 H 3296.37 6.25601 -4.6502 0
M  V30 35322 N 3300.6 1.43284 0.656314 0
M  V30 35323 C 3301.85 1.44451 1.41345 0
M  V30 35324 C 3302.17 0.068756 1.94879 0
M  V30 35325 O 3301.44 -0.895461 1.74236 0
M  V30 35326 H 3300.02 0.531824 0.524568 0
M  V30 35327 H 3302.68 1.78861 0.77426 0
M  V30 35328 H 3301.77 2.15525 2.25733 0
M  V30 35329 N 3302.08 -0.894389 1.29763 0
M  V30 35330 C 3303.32 -1.64004 1.17412 0
M  V30 35331 C 3303.64 -1.93695 -0.272321 0
M  V30 35332 O 3304.84 -2.66528 -0.517222 0
M  V30 35333 C 3303.3 -2.95542 2.05385 0
M  V30 35334 C 3302.91 -2.73426 3.54883 0
M  V30 35335 C 3304.65 -3.73482 2.01772 0
M  V30 35336 C 3302.56 -4.00723 4.34942 0
M  V30 35337 H 3301.49 -0.615271 0.435841 0
M  V30 35338 H 3304.14 -0.990956 1.54442 0
M  V30 35339 H 3302.52 -3.61692 1.61228 0
M  V30 35340 H 3303.7 -2.15836 4.07126 0
M  V30 35341 H 3302.01 -2.08876 3.60222 0
M  V30 35342 H 3304.61 -4.67872 2.58843 0
M  V30 35343 H 3304.95 -4.04137 0.998947 0
M  V30 35344 H 3305.48 -3.1418 2.43999 0
M  V30 35345 H 3302.22 -3.75232 5.37477 0
M  V30 35346 H 3301.74 -4.57853 3.87466 0
M  V30 35347 H 3303.42 -4.68825 4.45884 0
M  V30 35348 N 3303.55 -1.12326 -1.10547 0
M  V30 35349 C 3304.5 -0.785287 -2.18943 0
M  V30 35350 C 3305.5 0.227359 -1.67867 0
M  V30 35351 O 3306.7 0.0856846 -1.79796 0
M  V30 35352 H 3303.08 -0.236111 -0.713972 0
M  V30 35353 H 3305.05 -1.70792 -2.44689 0
M  V30 35354 C 3303.8 -0.254911 -3.46764 0
M  V30 35355 H 3303.12 -1.02541 -3.86426 0
M  V30 35356 H 3304.56 -0.0567271 -4.23962 0
M  V30 35357 C 3303.02 1.01689 -3.21187 0
M  V30 35358 O 3303.55 2.09491 -3.42748 0
M  V30 35359 N 3301.75 0.943375 -2.74861 0
M  V30 35360 H 3301.3 0.0659914 -2.57515 0
M  V30 35361 H 3301.26 1.79496 -2.58125 0
M  V30 35362 N 3305.03 1.28319 -0.914988 0
M  V30 35363 C 3305.96 2.29667 -0.421332 0
M  V30 35364 C 3306.94 1.62221 0.511714 0
M  V30 35365 O 3308.13 1.89622 0.419184 0
M  V30 35366 C 3305.26 3.45648 0.338303 0
M  V30 35367 C 3304.21 4.25002 -0.505721 0
M  V30 35368 C 3303.54 5.33331 0.382327 0
M  V30 35369 C 3304.84 4.91623 -1.76363 0
M  V30 35370 H 3306.53 2.71209 -1.26831 0
M  V30 35371 H 3304.08 1.3038 -0.611314 0
M  V30 35372 H 3306.03 4.15638 0.694505 0
M  V30 35373 H 3304.75 3.0299 1.2192 0
M  V30 35374 H 3303.41 3.56741 -0.844457 0
M  V30 35375 H 3303.06 4.86916 1.2618 0
M  V30 35376 H 3302.76 5.87328 -0.178813 0
M  V30 35377 H 3304.29 6.06168 0.734383 0
M  V30 35378 H 3305.7 5.53967 -1.47626 0
M  V30 35379 H 3304.1 5.55621 -2.26727 0
M  V30 35380 H 3305.17 4.16044 -2.4907 0
M  V30 35381 N 3306.51 0.679102 1.42218 0
M  V30 35382 C 3307.76 0.200345 2.00703 0
M  V30 35383 C 3308.07 -1.20159 1.54341 0
M  V30 35384 O 3309.28 -1.77694 2.05273 0
M  V30 35385 C 3307.73 0.307311 3.58586 0
M  V30 35386 C 3307.34 1.71356 4.13934 0
M  V30 35387 C 3309.09 -0.112513 4.24351 0
M  V30 35388 C 3306.99 1.77307 5.64195 0
M  V30 35389 H 3305.92 0.0711411 0.750636 0
M  V30 35390 H 3308.57 0.844909 1.62891 0
M  V30 35391 H 3306.96 -0.405221 3.93921 0
M  V30 35392 H 3308.13 2.45353 3.9005 0
M  V30 35393 H 3306.44 2.08162 3.60635 0
M  V30 35394 H 3309.04 -0.0882638 5.34627 0
M  V30 35395 H 3309.38 -1.1485 4.00144 0
M  V30 35396 H 3309.92 0.549162 3.93991 0
M  V30 35397 H 3306.66 2.78902 5.93206 0
M  V30 35398 H 3306.18 1.07672 5.90057 0
M  V30 35399 H 3307.86 1.52846 6.28687 0
M  V30 35400 N 3307.99 -1.51825 0.42272 0
M  V30 35401 C 3309.26 -1.94493 -0.207826 0
M  V30 35402 C 3309.64 -1.3605 -1.61411 0
M  V30 35403 O 3308.99 -0.541696 -2.21986 0
M  V30 35404 C 3309.2 -3.48424 -0.200396 0
M  V30 35405 C 3310.55 -4.22585 -0.413125 0
M  V30 35406 O 3311.57 -3.55104 -0.279158 0
M  V30 35407 O 3310.43 -5.42273 -0.678374 0
M  V30 35408 H 3307.53 -0.815433 -0.137836 0
M  V30 35409 H 3310.07 -1.62781 0.479645 0
M  V30 35410 H 3308.85 -3.83379 0.78333 0
M  V30 35411 H 3308.47 -3.86537 -0.931396 0
M  V30 35412 N 3309.47 -0.153581 -1.5685 0
M  V30 35413 C 3310.74 0.541295 -1.87961 0
M  V30 35414 C 3311.12 1.82521 -1.06062 0
M  V30 35415 O 3310.47 2.28011 -0.149335 0
M  V30 35416 C 3310.68 0.800382 -3.39698 0
M  V30 35417 C 3312.03 1.13825 -4.09059 0
M  V30 35418 O 3313.05 0.889517 -3.44915 0
M  V30 35419 O 3311.91 1.60664 -5.2235 0
M  V30 35420 H 3309.01 0.276881 -0.779273 0
M  V30 35421 H 3311.55 -0.190687 -1.68625 0
M  V30 35422 H 3310.32 -0.108004 -3.91151 0
M  V30 35423 H 3309.95 1.58631 -3.64585 0
M  V30 35424 N 3310.94 1.57141 0.120193 0
M  V30 35425 C 3312.19 1.83977 0.826758 0
M  V30 35426 C 3312.51 0.739046 1.81101 0
M  V30 35427 O 3313.71 0.893781 2.56367 0
M  V30 35428 C 3312.17 3.26179 1.52102 0
M  V30 35429 C 3311.78 4.44258 0.577824 0
M  V30 35430 C 3313.52 3.62265 2.21279 0
M  V30 35431 C 3311.43 5.77487 1.27525 0
M  V30 35432 H 3310.36 0.686194 0.312496 0
M  V30 35433 H 3313.01 1.83328 0.0795021 0
M  V30 35434 H 3311.39 3.21294 2.31486 0
M  V30 35435 H 3312.56 4.60438 -0.18271 0
M  V30 35436 H 3310.88 4.16399 -0.00691667 0
M  V30 35437 H 3313.48 4.59073 2.74146 0
M  V30 35438 H 3313.82 2.89639 2.99023 0
M  V30 35439 H 3314.35 3.68928 1.48785 0
M  V30 35440 H 3311.09 6.53279 0.539122 0
M  V30 35441 H 3310.61 5.65196 2.00782 0
M  V30 35442 H 3312.29 6.21202 1.80877 0
M  V30 35443 N 3312.42 -0.39034 1.5269 0
M  V30 35444 C 3313.37 -1.47674 1.77373 0
M  V30 35445 C 3314.34 -1.5422 0.616891 0
M  V30 35446 O 3315.52 -1.70497 0.856467 0
M  V30 35447 C 3312.66 -2.84918 1.9472 0
M  V30 35448 C 3311.78 -2.87534 3.2241 0
M  V30 35449 C 3310.91 -4.16197 3.30082 0
M  V30 35450 C 3309.95 -4.12859 4.519 0
M  V30 35451 N 3309.09 -5.33125 4.56861 0
M  V30 35452 H 3313.93 -1.25927 2.70086 0
M  V30 35453 H 3311.47 -0.61092 1.33814 0
M  V30 35454 H 3313.42 -3.64614 2.02762 0
M  V30 35455 H 3312.05 -3.05119 1.05368 0
M  V30 35456 H 3311.11 -2.00217 3.23446 0
M  V30 35457 H 3312.42 -2.80936 4.1216 0
M  V30 35458 H 3311.57 -5.04296 3.37299 0
M  V30 35459 H 3310.31 -4.25515 2.38303 0
M  V30 35460 H 3309.32 -3.23148 4.44809 0
M  V30 35461 H 3310.54 -4.05165 5.44994 0
M  V30 35462 H 3308.49 -5.43076 3.67973 0
M  V30 35463 H 3308.4 -5.28598 5.40482 0
M  V30 35464 H 3309.67 -6.23126 4.68331 0
M  V30 35465 N 3313.9 -1.4363 -0.648706 0
M  V30 35466 C 3315.13 -1.48719 -1.4341 0
M  V30 35467 C 3315.54 -0.105084 -1.88908 0
M  V30 35468 O 3314.88 0.895868 -1.60374 0
M  V30 35469 C 3314.94 -2.37473 -2.69902 0
M  V30 35470 C 3314.61 -3.84939 -2.46314 0
M  V30 35471 C 3315.6 -4.75931 -2.0925 0
M  V30 35472 C 3313.29 -4.29472 -2.60499 0
M  V30 35473 C 3315.28 -6.09452 -1.86675 0
M  V30 35474 C 3312.97 -5.63044 -2.37538 0
M  V30 35475 C 3313.97 -6.52852 -2.00683 0
M  V30 35476 O 3313.66 -7.83954 -1.77965 0
M  V30 35477 H 3313.39 -0.507227 -0.446874 0
M  V30 35478 H 3315.94 -1.89088 -0.802185 0
M  V30 35479 H 3314.17 -1.91999 -3.35668 0
M  V30 35480 H 3315.86 -2.33713 -3.31863 0
M  V30 35481 H 3316.63 -4.42803 -1.97864 0
M  V30 35482 H 3312.51 -3.59841 -2.88159 0
M  V30 35483 H 3316.05 -6.79511 -1.57832 0
M  V30 35484 H 3311.95 -5.95738 -2.48528 0
M  V30 35485 H 3312.72 -7.95577 -1.92354 0
M  V30 35486 N 3315.38 0.887495 -1.30236 0
M  V30 35487 C 3316.61 1.66984 -1.21655 0
M  V30 35488 C 3317.02 1.87876 0.22344 0
M  V30 35489 O 3316.36 1.4245 1.15991 0
M  V30 35490 C 3316.42 3.06928 -1.87178 0
M  V30 35491 C 3316.09 3.09218 -3.36502 0
M  V30 35492 C 3317.08 2.88461 -4.32535 0
M  V30 35493 C 3314.77 3.30895 -3.77907 0
M  V30 35494 C 3316.76 2.89334 -5.67948 0
M  V30 35495 C 3314.45 3.31398 -5.13438 0
M  V30 35496 C 3315.45 3.10642 -6.08268 0
M  V30 35497 O 3315.13 3.10957 -7.41324 0
M  V30 35498 H 3314.87 0.527916 -0.422233 0
M  V30 35499 H 3317.42 1.11733 -1.72351 0
M  V30 35500 H 3315.65 3.63832 -1.31009 0
M  V30 35501 H 3317.34 3.67303 -1.72752 0
M  V30 35502 H 3318.11 2.71513 -4.01878 0
M  V30 35503 H 3313.98 3.46088 -3.0454 0
M  V30 35504 H 3317.53 2.73052 -6.41941 0
M  V30 35505 H 3313.43 3.47881 -5.43736 0
M  V30 35506 H 3314.19 3.2714 -7.50281 0
M  V30 35507 N 3316.86 1.12911 1.0995 0
M  V30 35508 C 3318.1 0.887514 1.82015 0
M  V30 35509 C 3318.43 -0.586514 1.85446 0
M  V30 35510 O 3317.69 -1.44982 1.31448 0
M  V30 35511 C 3317.99 1.41375 3.2825 0
M  V30 35512 C 3317.65 2.90368 3.44959 0
M  V30 35513 C 3316.31 3.31049 3.49227 0
M  V30 35514 C 3318.67 3.86253 3.4994 0
M  V30 35515 C 3315.99 4.66311 3.56049 0
M  V30 35516 C 3318.35 5.21351 3.58296 0
M  V30 35517 C 3317.01 5.61567 3.6083 0
M  V30 35518 H 3316.28 0.324764 0.66604 0
M  V30 35519 H 3318.93 1.41014 1.29566 0
M  V30 35520 H 3317.23 0.811697 3.833 0
M  V30 35521 H 3318.93 1.20296 3.82531 0
M  V30 35522 H 3315.52 2.57907 3.42318 0
M  V30 35523 H 3319.7 3.55914 3.45888 0
M  V30 35524 H 3314.96 4.96853 3.56296 0
M  V30 35525 H 3319.13 5.9547 3.61094 0
M  V30 35526 H 3316.76 6.66366 3.65869 0
M  V30 35527 N 3318.33 -1.27832 0.92178 0
M  V30 35528 C 3319.61 -1.89676 0.477739 0
M  V30 35529 C 3319.99 -1.83483 -1.04389 0
M  V30 35530 O 3319.34 -1.27609 -1.89547 0
M  V30 35531 C 3319.55 -3.33849 1.01715 0
M  V30 35532 C 3320.9 -4.10791 1.07407 0
M  V30 35533 O 3321.92 -3.42841 0.966355 0
M  V30 35534 O 3320.78 -5.32265 1.23919 0
M  V30 35535 H 3317.87 -0.812776 0.152724 0
M  V30 35536 H 3320.42 -1.36142 1.01309 0
M  V30 35537 H 3319.19 -3.3262 2.06106 0
M  V30 35538 H 3318.82 -3.94894 0.463101 0
M  V30 35539 N 3319.81 -0.686634 -1.41856 0
M  V30 35540 C 3320.72 -0.0159418 -2.34595 0
M  V30 35541 C 3321.74 0.775905 -1.55742 0
M  V30 35542 O 3322.91 0.715517 -1.88261 0
M  V30 35543 C 3319.98 0.915414 -3.34397 0
M  V30 35544 C 3319.04 0.116775 -4.29141 0
M  V30 35545 C 3318.27 1.00377 -5.24176 0
M  V30 35546 O 3318.5 2.24331 -5.24435 0
M  V30 35547 O 3317.43 0.458232 -6.00153 0
M  V30 35548 H 3321.26 -0.780153 -2.93509 0
M  V30 35549 H 3318.84 -0.446921 -1.42559 0
M  V30 35550 H 3320.72 1.44974 -3.95677 0
M  V30 35551 H 3319.4 1.65927 -2.77939 0
M  V30 35552 H 3318.31 -0.461936 -3.71237 0
M  V30 35553 H 3319.64 -0.588223 -4.88672 0
M  V30 35554 N 3321.29 1.51599 -0.430766 0
M  V30 35555 C 3322.24 2.27583 0.383984 0
M  V30 35556 C 3323.21 1.30896 1.02251 0
M  V30 35557 O 3324.39 1.5979 1.04267 0
M  V30 35558 C 3321.53 3.11617 1.48286 0
M  V30 35559 C 3320.65 4.2329 0.863113 0
M  V30 35560 C 3319.78 4.94645 1.93648 0
M  V30 35561 C 3318.82 5.98248 1.29482 0
M  V30 35562 N 3317.96 6.63036 2.30927 0
M  V30 35563 H 3322.8 2.96771 -0.270366 0
M  V30 35564 H 3320.33 1.46382 -0.145174 0
M  V30 35565 H 3322.29 3.5866 2.13118 0
M  V30 35566 H 3320.92 2.44557 2.10693 0
M  V30 35567 H 3319.97 3.8026 0.10326 0
M  V30 35568 H 3321.29 4.97538 0.354588 0
M  V30 35569 H 3320.44 5.45202 2.66158 0
M  V30 35570 H 3319.18 4.20013 2.47872 0
M  V30 35571 H 3318.18 5.4699 0.555166 0
M  V30 35572 H 3319.41 6.74834 0.760004 0
M  V30 35573 H 3317.35 5.91221 2.84243 0
M  V30 35574 H 3317.27 7.33028 1.84948 0
M  V30 35575 H 3318.54 7.18225 3.0294 0
M  V30 35576 N 3322.77 0.161897 1.56766 0
M  V30 35577 C 3324.02 -0.484503 1.96206 0
M  V30 35578 C 3324.34 -1.64412 1.04851 0
M  V30 35579 O 3323.61 -1.95574 0.11298 0
M  V30 35580 H 3322.19 -0.181981 0.724494 0
M  V30 35581 H 3324.85 0.240879 1.93406 0
M  V30 35582 H 3323.95 -0.850778 3.0028 0
M  V30 35583 N 3324.25 -1.57203 -0.111858 0
M  V30 35584 C 3325.5 -1.84413 -0.81699 0
M  V30 35585 C 3325.81 -0.74864 -1.80706 0
M  V30 35586 O 3327.01 -0.907364 -2.55889 0
M  V30 35587 C 3325.47 -3.26981 -1.50371 0
M  V30 35588 C 3325.08 -4.44558 -0.554256 0
M  V30 35589 C 3326.82 -3.63433 -2.19355 0
M  V30 35590 C 3324.73 -5.78155 -1.2446 0
M  V30 35591 H 3323.66 -0.687842 -0.308852 0
M  V30 35592 H 3326.31 -1.83367 -0.0697786 0
M  V30 35593 H 3324.69 -3.22518 -2.29779 0
M  V30 35594 H 3325.87 -4.60334 0.207126 0
M  V30 35595 H 3324.18 -4.1639 0.0289993 0
M  V30 35596 H 3326.78 -4.6052 -2.71708 0
M  V30 35597 H 3327.12 -2.91221 -2.97483 0
M  V30 35598 H 3327.65 -3.69712 -1.46826 0
M  V30 35599 H 3324.39 -6.53556 -0.504469 0
M  V30 35600 H 3323.91 -5.66253 -1.97782 0
M  V30 35601 H 3325.59 -6.22153 -1.7758 0
M  V30 35602 N 3325.72 0.382237 -1.52894 0
M  V30 35603 C 3326.66 1.48918 -1.72912 0
M  V30 35604 C 3327.64 1.52015 -0.577082 0
M  V30 35605 O 3328.82 1.70319 -0.807697 0
M  V30 35606 C 3325.95 2.87357 -1.79286 0
M  V30 35607 C 3324.99 3.02058 -3.01104 0
M  V30 35608 S 3325.83 2.7255 -4.60952 0
M  V30 35609 C 3326.98 4.1317 -4.70151 0
M  V30 35610 H 3327.21 1.31714 -2.66531 0
M  V30 35611 H 3324.75 0.575538 -1.43272 0
M  V30 35612 H 3326.71 3.67131 -1.83643 0
M  V30 35613 H 3325.37 3.01883 -0.867481 0
M  V30 35614 H 3324.56 4.03407 -3.02124 0
M  V30 35615 H 3324.16 2.30185 -2.94773 0
M  V30 35616 H 3326.45 5.07191 -4.49181 0
M  V30 35617 H 3327.4 4.17162 -5.72173 0
M  V30 35618 H 3327.8 3.99394 -3.9893 0
M  V30 35619 N 3327.2 1.43972 0.64108 0
M  V30 35620 C 3328.62 1.2764 0.958139 0
M  V30 35621 C 3328.82 0.20492 2.00455 0
M  V30 35622 O 3327.88 -0.412562 2.49107 0
M  V30 35623 C 3329.19 2.64475 1.43086 0
M  V30 35624 C 3330.74 2.72105 1.54687 0
M  V30 35625 C 3331.21 4.09386 2.05346 0
M  V30 35626 N 3332.7 4.11512 2.12631 0
M  V30 35627 C 3333.44 5.14577 2.52978 0
M  V30 35628 N 3332.93 6.2801 2.92533 0
M  V30 35629 N 3334.73 5.01931 2.53024 0
M  V30 35630 H 3326.88 2.12338 -0.0511346 0
M  V30 35631 H 3329.14 0.947167 0.0397314 0
M  V30 35632 H 3328.85 3.43906 0.736328 0
M  V30 35633 H 3328.72 2.90692 2.4037 0
M  V30 35634 H 3331.11 1.92998 2.23239 0
M  V30 35635 H 3331.19 2.49639 0.558039 0
M  V30 35636 H 3330.83 4.88964 1.37392 0
M  V30 35637 H 3330.76 4.29223 3.05082 0
M  V30 35638 H 3333.25 3.2964 1.84787 0
M  V30 35639 H 3333.57 7.02474 3.22104 0
M  V30 35640 H 3331.91 6.31464 2.90308 0
M  V30 35641 H 3335.1 4.12374 2.21506 0
M  V30 35642 H 3335.28 5.8238 2.84145 0
M  V30 35643 N 3328.68 -0.880575 1.30704 0
M  V30 35644 C 3329.91 -1.66578 1.22717 0
M  V30 35645 C 3330.32 -1.87637 -0.20927 0
M  V30 35646 O 3329.68 -1.42699 -1.13769 0
M  V30 35647 C 3329.73 -3.0397 1.95664 0
M  V30 35648 O 3329.45 -2.83859 3.337 0
M  V30 35649 C 3330.95 -3.98407 1.94387 0
M  V30 35650 H 3328.17 -0.519665 0.424487 0
M  V30 35651 H 3330.72 -1.09987 1.72404 0
M  V30 35652 H 3328.87 -3.57281 1.49764 0
M  V30 35653 H 3329.29 -3.71051 3.70704 0
M  V30 35654 H 3330.76 -4.92163 2.49959 0
M  V30 35655 H 3331.24 -4.29374 0.923843 0
M  V30 35656 H 3331.84 -3.51032 2.40118 0
M  V30 35657 N 3330.16 -1.13492 -1.09349 0
M  V30 35658 C 3331.41 -0.895382 -1.81183 0
M  V30 35659 C 3331.73 0.580015 -1.86174 0
M  V30 35660 O 3331 1.4216 -1.34787 0
M  V30 35661 H 3329.58 -0.328269 -0.671006 0
M  V30 35662 H 3332.24 -1.43162 -1.32253 0
M  V30 35663 H 3331.34 -1.28681 -2.84337 0
M  V30 35664 N 3331.64 1.27341 -0.928546 0
M  V30 35665 C 3332.57 2.29207 -0.445668 0
M  V30 35666 C 3333.55 1.62754 0.49448 0
M  V30 35667 O 3334.73 1.90056 0.399049 0
M  V30 35668 C 3331.86 3.45988 0.301624 0
M  V30 35669 C 3330.82 4.24441 -0.550769 0
M  V30 35670 C 3330.14 5.33707 0.325739 0
M  V30 35671 C 3331.44 4.89725 -1.81567 0
M  V30 35672 H 3333.14 2.69848 -1.29701 0
M  V30 35673 H 3330.68 1.29724 -0.625108 0
M  V30 35674 H 3332.64 4.16351 0.650382 0
M  V30 35675 H 3331.36 3.04266 1.18699 0
M  V30 35676 H 3330.02 3.55826 -0.882247 0
M  V30 35677 H 3329.67 4.88227 1.21009 0
M  V30 35678 H 3329.37 5.87105 -0.241097 0
M  V30 35679 H 3330.89 6.06912 0.67005 0
M  V30 35680 H 3332.31 5.5237 -1.53493 0
M  V30 35681 H 3330.7 5.53185 -2.32607 0
M  V30 35682 H 3331.77 4.13378 -2.53469 0
M  V30 35683 N 3333.12 0.694147 1.4149 0
M  V30 35684 C 3334.36 0.221621 2.00479 0
M  V30 35685 C 3334.68 -1.18515 1.55607 0
M  V30 35686 O 3335.88 -1.75507 2.07146 0
M  V30 35687 C 3334.34 0.345327 3.58239 0
M  V30 35688 C 3333.95 1.75737 4.12093 0
M  V30 35689 C 3335.69 -0.0674985 4.24446 0
M  V30 35690 C 3333.6 1.83281 5.62283 0
M  V30 35691 H 3332.53 0.0790986 0.74984 0
M  V30 35692 H 3335.18 0.862139 1.61986 0
M  V30 35693 H 3333.56 -0.363417 3.94329 0
M  V30 35694 H 3334.74 2.49476 3.87425 0
M  V30 35695 H 3333.05 2.11975 3.58407 0
M  V30 35696 H 3335.65 -0.0315545 5.34691 0
M  V30 35697 H 3335.99 -1.10599 4.0134 0
M  V30 35698 H 3336.52 0.590919 3.93387 0
M  V30 35699 H 3333.26 2.85178 5.90215 0
M  V30 35700 H 3332.78 1.13925 5.88881 0
M  V30 35701 H 3334.46 1.59505 6.2703 0
M  V30 35702 N 3334.59 -1.51368 0.438799 0
M  V30 35703 C 3335.82 -2.07003 -0.128185 0
M  V30 35704 C 3336.24 -1.30395 -1.35568 0
M  V30 35705 O 3335.6 -0.342314 -1.78039 0
M  V30 35706 C 3335.65 -3.58056 -0.427547 0
M  V30 35707 O 3334.75 -3.83614 -1.51375 0
M  V30 35708 H 3334.09 -0.663999 -0.00122511 0
M  V30 35709 H 3336.62 -1.94962 0.620554 0
M  V30 35710 H 3336.63 -4.02334 -0.677574 0
M  V30 35711 H 3335.31 -4.1324 0.469608 0
M  V30 35712 H 3333.89 -3.51198 -1.25357 0
M  V30 35713 N 3336.07 -0.170208 -1.56678 0
M  V30 35714 C 3337.32 0.475029 -1.96849 0
M  V30 35715 C 3337.65 1.63328 -1.05614 0
M  V30 35716 O 3336.9 1.95493 -0.0900051 0
M  V30 35717 C 3337.2 1.0007 -3.43105 0
M  V30 35718 C 3336.87 -0.0415331 -4.50881 0
M  V30 35719 C 3335.53 -0.327978 -4.80081 0
M  V30 35720 C 3337.88 -0.749027 -5.1579 0
M  V30 35721 C 3335.21 -1.32732 -5.71488 0
M  V30 35722 C 3337.56 -1.73735 -6.08275 0
M  V30 35723 C 3336.22 -2.03125 -6.35843 0
M  V30 35724 H 3335.49 0.173825 -0.720323 0
M  V30 35725 H 3338.14 -0.261936 -1.897 0
M  V30 35726 H 3336.45 1.81546 -3.472 0
M  V30 35727 H 3338.14 1.50892 -3.71527 0
M  V30 35728 H 3334.73 0.1919 -4.2817 0
M  V30 35729 H 3338.92 -0.540939 -4.93343 0
M  V30 35730 H 3334.17 -1.56122 -5.91131 0
M  V30 35731 H 3338.35 -2.29094 -6.57639 0
M  V30 35732 H 3335.97 -2.80711 -7.06474 0
M  V30 35733 N 3337.55 1.5726 0.10352 0
M  V30 35734 C 3338.46 2.04777 1.14472 0
M  V30 35735 C 3339.48 0.97105 1.44384 0
M  V30 35736 O 3340.65 1.28364 1.55192 0
M  V30 35737 C 3337.72 2.45562 2.44745 0
M  V30 35738 C 3336.78 3.67388 2.22091 0
M  V30 35739 C 3336.01 4.06219 3.46153 0
M  V30 35740 O 3336.23 3.45227 4.54064 0
M  V30 35741 O 3335.17 4.99226 3.36239 0
M  V30 35742 H 3338.99 2.93746 0.771159 0
M  V30 35743 H 3336.58 1.46032 0.31543 0
M  V30 35744 H 3338.46 2.7246 3.21471 0
M  V30 35745 H 3337.14 1.59733 2.81544 0
M  V30 35746 H 3336.04 3.45619 1.43173 0
M  V30 35747 H 3337.38 4.5397 1.90189 0
M  V30 35748 N 3339.03 -0.374123 1.53095 0
M  V30 35749 C 3339.98 -1.47821 1.79588 0
M  V30 35750 C 3340.97 -1.55821 0.66454 0
M  V30 35751 O 3342.18 -1.5881 0.847318 0
M  V30 35752 H 3338.55 -0.492272 0.568482 0
M  V30 35753 H 3340.52 -1.22676 2.72017 0
M  V30 35754 C 3339.27 -2.84768 1.99505 0
M  V30 35755 H 3338.59 -2.79368 2.85996 0
M  V30 35756 H 3340.03 -3.61222 2.22024 0
M  V30 35757 C 3338.49 -3.27942 0.771731 0
M  V30 35758 O 3339.02 -4.01676 -0.0437031 0
M  V30 35759 N 3337.23 -2.84389 0.597597 0
M  V30 35760 H 3336.78 -2.24552 1.26231 0
M  V30 35761 H 3336.73 -3.13633 -0.219523 0
M  V30 35762 N 3340.51 -1.4431 -0.633436 0
M  V30 35763 C 3341.45 -1.51295 -1.76671 0
M  V30 35764 C 3342.45 -0.384836 -1.64971 0
M  V30 35765 O 3343.65 -0.559683 -1.71078 0
M  V30 35766 H 3340.03 -0.474707 -0.58323 0
M  V30 35767 H 3342 -2.4668 -1.67903 0
M  V30 35768 C 3340.75 -1.4721 -3.14999 0
M  V30 35769 H 3340.07 -2.3333 -3.24649 0
M  V30 35770 H 3341.51 -1.56158 -3.94196 0
M  V30 35771 C 3339.97 -0.192523 -3.36349 0
M  V30 35772 O 3340.5 0.738216 -3.94859 0
M  V30 35773 N 3338.71 -0.0963935 -2.9044 0
M  V30 35774 H 3338.25 -0.854633 -2.4301 0
M  V30 35775 H 3338.21 0.759008 -3.05101 0
M  V30 35776 N 3341.98 0.873632 -1.3117 0
M  V30 35777 C 3342.93 2.00189 -1.18435 0
M  V30 35778 C 3343.93 1.69142 -0.093517 0
M  V30 35779 O 3345.13 1.78182 -0.255157 0
M  V30 35780 H 3341.51 0.656585 -0.366606 0
M  V30 35781 H 3343.48 2.08061 -2.139 0
M  V30 35782 C 3342.23 3.35723 -0.904727 0
M  V30 35783 H 3341.55 3.60132 -1.73623 0
M  V30 35784 H 3342.99 4.15274 -0.855788 0
M  V30 35785 C 3341.45 3.34606 0.392495 0
M  V30 35786 O 3341.98 3.76124 1.41045 0
M  V30 35787 N 3340.19 2.87726 0.40772 0
M  V30 35788 H 3339.73 2.54134 -0.421165 0
M  V30 35789 H 3339.69 2.87361 1.27559 0
M  V30 35790 N 3343.46 1.1407 1.08746 0
M  V30 35791 C 3344.69 0.928821 1.84544 0
M  V30 35792 C 3345.1 -0.525975 1.81742 0
M  V30 35793 O 3344.44 -1.37611 1.21692 0
M  V30 35794 C 3344.51 1.34777 3.3328 0
M  V30 35795 C 3344.17 2.8174 3.59821 0
M  V30 35796 C 3345.17 3.79871 3.54957 0
M  V30 35797 C 3342.85 3.19069 3.87943 0
M  V30 35798 C 3344.85 5.13339 3.77838 0
M  V30 35799 C 3342.53 4.52715 4.10479 0
M  V30 35800 C 3343.53 5.49658 4.05419 0
M  V30 35801 O 3343.22 6.80892 4.27366 0
M  V30 35802 H 3342.95 0.330768 0.589549 0
M  V30 35803 H 3345.5 1.51888 1.38272 0
M  V30 35804 H 3343.73 0.701015 3.80293 0
M  V30 35805 H 3345.42 1.10724 3.90506 0
M  V30 35806 H 3346.19 3.52377 3.33249 0
M  V30 35807 H 3342.07 2.44208 3.91003 0
M  V30 35808 H 3345.61 5.88996 3.73805 0
M  V30 35809 H 3341.51 4.79929 4.31669 0
M  V30 35810 H 3342.28 6.87098 4.4479 0
M  V30 35811 N 3344.94 -1.26847 0.935286 0
M  V30 35812 C 3346.17 -1.97834 0.595419 0
M  V30 35813 C 3346.58 -1.69897 -0.832575 0
M  V30 35814 O 3345.92 -0.960399 -1.56595 0
M  V30 35815 C 3345.98 -3.51576 0.750628 0
M  V30 35816 C 3345.65 -4.03152 2.15215 0
M  V30 35817 C 3346.64 -4.15344 3.12707 0
M  V30 35818 C 3344.33 -4.3731 2.47114 0
M  V30 35819 C 3346.32 -4.60979 4.40201 0
M  V30 35820 C 3344.01 -4.82635 3.74843 0
M  V30 35821 C 3345.01 -4.94429 4.71199 0
M  V30 35822 O 3344.7 -5.38757 5.96654 0
M  V30 35823 H 3344.43 -0.637898 0.223745 0
M  V30 35824 H 3346.98 -1.62473 1.25666 0
M  V30 35825 H 3345.21 -3.86687 0.0322719 0
M  V30 35826 H 3346.9 -4.03776 0.414696 0
M  V30 35827 H 3347.67 -3.89206 2.89385 0
M  V30 35828 H 3343.55 -4.27367 1.72853 0
M  V30 35829 H 3347.09 -4.701 5.15414 0
M  V30 35830 H 3342.99 -5.08215 3.97979 0
M  V30 35831 H 3343.76 -5.56993 5.99751 0
M  V30 35832 N 3346.42 -0.701641 -1.4112 0
M  V30 35833 C 3347.67 -0.235182 -2.0113 0
M  V30 35834 C 3347.99 1.16715 -1.55589 0
M  V30 35835 O 3347.25 1.80313 -0.760646 0
M  V30 35836 C 3347.55 -0.247843 -3.5654 0
M  V30 35837 C 3347.21 -1.59854 -4.21613 0
M  V30 35838 C 3345.88 -1.9683 -4.39103 0
M  V30 35839 C 3348.23 -2.48687 -4.58044 0
M  V30 35840 C 3345.56 -3.22213 -4.90301 0
M  V30 35841 C 3347.91 -3.73409 -5.10635 0
M  V30 35842 C 3346.57 -4.10521 -5.26335 0
M  V30 35843 H 3345.84 -0.0860592 -0.735986 0
M  V30 35844 H 3348.49 -0.901928 -1.68931 0
M  V30 35845 H 3346.79 0.50246 -3.88565 0
M  V30 35846 H 3348.49 0.130695 -4.00787 0
M  V30 35847 H 3345.08 -1.30096 -4.08379 0
M  V30 35848 H 3349.26 -2.21399 -4.4418 0
M  V30 35849 H 3344.52 -3.50953 -5.00641 0
M  V30 35850 H 3348.69 -4.42426 -5.37803 0
M  V30 35851 H 3346.32 -5.07748 -5.6577 0
M  V30 35852 N 3347.9 1.51133 -0.446821 0
M  V30 35853 C 3348.84 2.29572 0.374114 0
M  V30 35854 C 3349.84 1.3582 1.01239 0
M  V30 35855 O 3351.04 1.5312 0.946266 0
M  V30 35856 H 3347.42 0.738954 0.139467 0
M  V30 35857 H 3349.39 2.96804 -0.308169 0
M  V30 35858 C 3348.14 3.15678 1.45749 0
M  V30 35859 H 3347.46 3.87711 0.975719 0
M  V30 35860 H 3348.9 3.73601 2.00496 0
M  V30 35861 C 3347.36 2.31671 2.44602 0
M  V30 35862 O 3347.89 1.9829 3.49348 0
M  V30 35863 N 3346.1 1.94712 2.15721 0
M  V30 35864 H 3345.64 2.22058 1.30568 0
M  V30 35865 H 3345.6 1.38803 2.82101 0
M  V30 35866 N 3349.37 0.178515 1.56586 0
M  V30 35867 C 3350.28 -0.761282 2.21905 0
M  V30 35868 C 3351.3 -1.24758 1.21291 0
M  V30 35869 O 3352.48 -1.2982 1.53976 0
M  V30 35870 C 3349.54 -1.97043 2.85263 0
M  V30 35871 C 3348.6 -1.53032 4.01098 0
M  V30 35872 C 3347.84 -2.68183 4.61426 0
M  V30 35873 O 3348.06 -3.85239 4.20651 0
M  V30 35874 O 3346.99 -2.41846 5.51175 0
M  V30 35875 H 3350.82 -0.235088 3.02789 0
M  V30 35876 H 3348.4 -0.0500179 1.49316 0
M  V30 35877 H 3350.29 -2.67744 3.25409 0
M  V30 35878 H 3348.96 -2.48555 2.0737 0
M  V30 35879 H 3347.87 -0.792596 3.65607 0
M  V30 35880 H 3349.2 -1.06204 4.80605 0
M  V30 35881 N 3350.85 -1.57312 -0.0951784 0
M  V30 35882 C 3351.8 -2.03065 -1.13434 0
M  V30 35883 C 3352.79 -0.931704 -1.41477 0
M  V30 35884 O 3354 -1.11688 -1.41159 0
M  V30 35885 H 3350.38 -0.647141 -0.383031 0
M  V30 35886 H 3352.35 -2.8953 -0.722135 0
M  V30 35887 C 3351.1 -2.4708 -2.44636 0
M  V30 35888 H 3350.42 -3.31222 -2.23902 0
M  V30 35889 H 3351.86 -2.82869 -3.1585 0
M  V30 35890 C 3350.32 -1.34405 -3.08929 0
M  V30 35891 O 3350.85 -0.67314 -3.9602 0
M  V30 35892 N 3349.05 -1.09506 -2.69178 0
M  V30 35893 H 3348.6 -1.64243 -1.98449 0
M  V30 35894 H 3348.56 -0.343165 -3.12522 0
M  V30 35895 N 3352.33 0.365999 -1.53291 0
M  V30 35896 C 3353.58 1.1065 -1.69119 0
M  V30 35897 C 3353.9 1.89846 -0.44536 0
M  V30 35898 O 3353.17 1.88294 0.540583 0
M  V30 35899 H 3351.75 0.411479 -0.623453 0
M  V30 35900 H 3354.41 0.412715 -1.9048 0
M  V30 35901 H 3353.51 1.79654 -2.55208 0
M  V30 35902 N 3353.81 1.44644 0.625774 0
M  V30 35903 C 3354.72 1.54423 1.76609 0
M  V30 35904 C 3355.73 0.429606 1.68613 0
M  V30 35905 O 3356.91 0.687719 1.89294 0
M  V30 35906 C 3353.98 1.49077 3.13013 0
M  V30 35907 C 3353.04 2.71434 3.32599 0
M  V30 35908 C 3352.27 2.66333 4.62496 0
M  V30 35909 O 3352.49 1.72636 5.43648 0
M  V30 35910 O 3351.43 3.57266 4.84401 0
M  V30 35911 H 3355.25 2.50772 1.71311 0
M  V30 35912 H 3352.84 1.2695 0.787655 0
M  V30 35913 H 3354.72 1.48638 3.94316 0
M  V30 35914 H 3353.39 0.558742 3.18841 0
M  V30 35915 H 3352.3 2.77439 2.50954 0
M  V30 35916 H 3353.63 3.63701 3.31636 0
M  V30 35917 N 3355.29 -0.866663 1.31631 0
M  V30 35918 C 3356.22 -1.97748 1.1389 0
M  V30 35919 C 3357.2 -1.62547 0.0415173 0
M  V30 35920 O 3358.38 -1.87451 0.198567 0
M  V30 35921 C 3355.51 -3.30497 0.740916 0
M  V30 35922 C 3354.55 -3.84681 1.84181 0
M  V30 35923 S 3355.39 -4.09733 3.44789 0
M  V30 35924 C 3356.54 -5.45474 3.06935 0
M  V30 35925 H 3356.78 -2.12494 2.07927 0
M  V30 35926 H 3354.31 -1.01723 1.16154 0
M  V30 35927 H 3356.27 -4.07218 0.518046 0
M  V30 35928 H 3354.93 -3.13582 -0.180395 0
M  V30 35929 H 3354.12 -4.80658 1.51605 0
M  V30 35930 H 3353.72 -3.14763 2.01991 0
M  V30 35931 H 3356.02 -6.27259 2.56033 0
M  V30 35932 H 3356.96 -5.83003 4.01887 0
M  V30 35933 H 3357.37 -5.08906 2.44285 0
M  V30 35934 N 3356.77 -1.14645 -1.0814 0
M  V30 35935 C 3357.7 -0.793651 -2.1502 0
M  V30 35936 C 3358.71 0.190701 -1.61679 0
M  V30 35937 O 3359.9 -0.031401 -1.78472 0
M  V30 35938 C 3357 -0.157845 -3.38532 0
M  V30 35939 C 3356.17 -1.17761 -4.2125 0
M  V30 35940 C 3355.23 -0.56506 -5.23157 0
M  V30 35941 O 3354.26 -1.22879 -5.55778 0
M  V30 35942 N 3355.46 0.65692 -5.76771 0
M  V30 35943 H 3358.22 -1.71342 -2.4589 0
M  V30 35944 H 3355.79 -1.04124 -1.23975 0
M  V30 35945 H 3357.78 0.264515 -4.03835 0
M  V30 35946 H 3356.35 0.665114 -3.05442 0
M  V30 35947 H 3355.57 -1.77681 -3.51885 0
M  V30 35948 H 3356.86 -1.8664 -4.73332 0
M  V30 35949 H 3356.25 1.21468 -5.52505 0
M  V30 35950 H 3354.81 1.02175 -6.43742 0
M  V30 35951 N 3358.24 1.26349 -0.942 0
M  V30 35952 C 3359.49 1.93714 -0.590005 0
M  V30 35953 C 3359.82 1.73905 0.871054 0
M  V30 35954 O 3359.07 1.06994 1.63862 0
M  V30 35955 C 3359.37 3.46408 -0.879542 0
M  V30 35956 C 3359.04 3.86358 -2.32461 0
M  V30 35957 C 3357.7 3.96975 -2.71964 0
M  V30 35958 C 3360.05 4.06367 -3.26367 0
M  V30 35959 C 3357.38 4.24999 -4.04466 0
M  V30 35960 C 3359.73 4.35879 -4.58467 0
M  V30 35961 C 3358.4 4.44711 -4.97783 0
M  V30 35962 H 3357.67 0.70885 -0.215898 0
M  V30 35963 H 3360.31 1.50144 -1.18866 0
M  V30 35964 H 3358.62 3.91298 -0.198357 0
M  V30 35965 H 3360.32 3.96696 -0.585956 0
M  V30 35966 H 3356.91 3.78641 -2.00821 0
M  V30 35967 H 3361.09 3.97591 -2.97044 0
M  V30 35968 H 3356.35 4.30049 -4.34589 0
M  V30 35969 H 3360.52 4.50307 -5.31221 0
M  V30 35970 H 3358.15 4.6618 -6.00483 0
M  V30 35971 N 3359.72 0.709115 1.40746 0
M  V30 35972 C 3360.97 0.245359 2.00605 0
M  V30 35973 C 3361.29 -1.16343 1.56491 0
M  V30 35974 O 3360.56 -1.78754 0.801488 0
M  V30 35975 H 3359.14 0.0877229 0.741831 0
M  V30 35976 H 3361.8 0.913301 1.72177 0
M  V30 35977 H 3360.9 0.273377 3.109 0
M  V30 35978 N 3361.2 -1.50894 0.454829 0
M  V30 35979 C 3362.43 -2.06339 -0.103749 0
M  V30 35980 C 3362.84 -1.32056 -1.35491 0
M  V30 35981 O 3362.18 -0.378552 -1.79757 0
M  V30 35982 C 3362.24 -3.56361 -0.474013 0
M  V30 35983 C 3361.91 -4.5202 0.672815 0
M  V30 35984 C 3362.9 -4.96253 1.55012 0
M  V30 35985 C 3360.59 -4.94909 0.858522 0
M  V30 35986 C 3362.58 -5.82065 2.59768 0
M  V30 35987 C 3360.27 -5.80507 1.90933 0
M  V30 35988 C 3361.27 -6.23984 2.77728 0
M  V30 35989 O 3360.96 -7.07879 3.81002 0
M  V30 35990 H 3360.69 -0.675991 -0.00354122 0
M  V30 35991 H 3363.24 -1.95245 0.63785 0
M  V30 35992 H 3361.47 -3.653 -1.26857 0
M  V30 35993 H 3363.16 -3.94243 -0.965775 0
M  V30 35994 H 3363.93 -4.638 1.41826 0
M  V30 35995 H 3359.81 -4.60598 0.192464 0
M  V30 35996 H 3363.35 -6.15922 3.27546 0
M  V30 35997 H 3359.25 -6.12373 2.04132 0
M  V30 35998 H 3360.01 -7.26095 3.77793 0
M  V30 35999 N 3362.68 -0.186817 -1.56489 0
M  V30 36000 C 3363.93 0.454295 -1.96517 0
M  V30 36001 C 3364.24 1.63331 -1.07621 0
M  V30 36002 O 3365.45 2.34168 -1.37396 0
M  V30 36003 C 3363.9 0.859624 -3.49483 0
M  V30 36004 C 3363.51 -0.294651 -4.4703 0
M  V30 36005 C 3365.25 1.46828 -3.98298 0
M  V30 36006 C 3363.16 0.131175 -5.91255 0
M  V30 36007 H 3362.09 0.173497 -0.733768 0
M  V30 36008 H 3364.74 -0.277517 -1.81389 0
M  V30 36009 H 3363.12 1.64786 -3.60085 0
M  V30 36010 H 3364.3 -1.07212 -4.48154 0
M  V30 36011 H 3362.61 -0.814268 -4.08361 0
M  V30 36012 H 3365.21 1.79919 -5.03521 0
M  V30 36013 H 3365.55 2.3718 -3.42127 0
M  V30 36014 H 3366.09 0.744178 -3.90777 0
M  V30 36015 H 3362.82 -0.737953 -6.51333 0
M  V30 36016 H 3362.34 0.873681 -5.93403 0
M  V30 36017 H 3364.02 0.5698 -6.44486 0
M  V30 36018 N 3364.16 1.57361 0.0868344 0
M  V30 36019 C 3365.1 2.03664 1.12356 0
M  V30 36020 C 3366.1 0.939194 1.40981 0
M  V30 36021 O 3367.3 1.12435 1.40564 0
M  V30 36022 H 3363.68 0.649163 0.379594 0
M  V30 36023 H 3365.65 2.89909 0.706771 0
M  V30 36024 C 3364.4 2.48374 2.43323 0
M  V30 36025 H 3363.72 3.32404 2.22143 0
M  V30 36026 H 3365.16 2.8454 3.14346 0
M  V30 36027 C 3363.62 1.36041 3.08212 0
M  V30 36028 O 3364.15 0.694133 3.95657 0
M  V30 36029 N 3362.36 1.10932 2.68594 0
M  V30 36030 H 3361.9 1.65294 1.97575 0
M  V30 36031 H 3361.86 0.359734 3.12335 0
M  V30 36032 N 3365.63 -0.357865 1.53483 0
M  V30 36033 C 3366.88 -1.09703 1.69257 0
M  V30 36034 C 3367.2 -1.90236 0.454921 0
M  V30 36035 O 3368.4 -2.6698 0.493347 0
M  V30 36036 C 3366.86 -1.99956 2.99242 0
M  V30 36037 C 3366.47 -1.24698 4.30296 0
M  V30 36038 C 3368.21 -2.73818 3.24383 0
M  V30 36039 C 3366.12 -2.13898 5.51364 0
M  V30 36040 H 3365.05 -0.413254 0.630664 0
M  V30 36041 H 3367.7 -0.357487 1.79984 0
M  V30 36042 H 3366.08 -2.77672 2.82337 0
M  V30 36043 H 3367.25 -0.519915 4.57858 0
M  V30 36044 H 3365.57 -0.626664 4.11657 0
M  V30 36045 H 3368.17 -3.40797 4.12021 0
M  V30 36046 H 3368.51 -3.39608 2.40775 0
M  V30 36047 H 3369.04 -2.03181 3.41998 0
M  V30 36048 H 3365.78 -1.52673 6.37473 0
M  V30 36049 H 3365.3 -2.84433 5.2807 0
M  V30 36050 H 3366.98 -2.7328 5.86453 0
M  V30 36051 N 3367.11 -1.44974 -0.618094 0
M  V30 36052 C 3368.02 -1.55358 -1.75787 0
M  V30 36053 C 3369.04 -0.438542 -1.68383 0
M  V30 36054 O 3370.21 -0.697748 -1.88927 0
M  V30 36055 C 3367.28 -1.50735 -3.12218 0
M  V30 36056 C 3366.34 -2.73194 -3.31155 0
M  V30 36057 C 3365.57 -2.68782 -4.61077 0
M  V30 36058 O 3365.8 -1.75517 -5.42725 0
M  V30 36059 O 3364.73 -3.5983 -4.825 0
M  V30 36060 H 3368.56 -2.51677 -1.69978 0
M  V30 36061 H 3366.14 -1.27366 -0.780912 0
M  V30 36062 H 3368.02 -1.50727 -3.93522 0
M  V30 36063 H 3366.7 -0.575643 -3.1854 0
M  V30 36064 H 3365.6 -2.78766 -2.4948 0
M  V30 36065 H 3366.94 -3.65455 -3.29703 0
M  V30 36066 N 3368.59 0.85967 -1.32089 0
M  V30 36067 C 3369.87 1.59666 -1.12987 0
M  V30 36068 C 3370.25 2.08787 0.311624 0
M  V30 36069 O 3369.59 1.87399 1.30743 0
M  V30 36070 C 3369.8 2.74669 -2.1531 0
M  V30 36071 C 3371.15 3.44375 -2.48377 0
M  V30 36072 O 3372.18 2.84888 -2.13816 0
M  V30 36073 O 3371.04 4.51712 -3.07602 0
M  V30 36074 H 3368.13 0.702938 -0.435669 0
M  V30 36075 H 3370.68 0.904235 -1.43603 0
M  V30 36076 H 3369.45 2.3586 -3.12227 0
M  V30 36077 H 3369.07 3.51591 -1.8566 0
M  V30 36078 N 3370.07 1.15217 1.0753 0
M  V30 36079 C 3371.01 0.84728 2.14685 0
M  V30 36080 C 3371.98 -0.199014 1.64903 0
M  V30 36081 O 3373.17 -0.0669651 1.90682 0
M  V30 36082 C 3370.31 0.340733 3.43414 0
M  V30 36083 C 3369.42 1.44838 4.06996 0
M  V30 36084 C 3368.56 0.898151 5.23552 0
M  V30 36085 C 3367.6 1.98286 5.79093 0
M  V30 36086 N 3366.73 1.44914 6.86982 0
M  V30 36087 H 3371.57 1.76502 2.40106 0
M  V30 36088 H 3369.11 0.88071 1.17822 0
M  V30 36089 H 3371.07 0.0287689 4.1719 0
M  V30 36090 H 3369.7 -0.540088 3.1825 0
M  V30 36091 H 3368.75 1.87657 3.30891 0
M  V30 36092 H 3370.06 2.26742 4.44285 0
M  V30 36093 H 3369.22 0.538621 6.04304 0
M  V30 36094 H 3367.96 0.0482609 4.87676 0
M  V30 36095 H 3366.96 2.35124 4.96988 0
M  V30 36096 H 3368.19 2.8365 6.17025 0
M  V30 36097 H 3366.13 0.621582 6.53049 0
M  V30 36098 H 3366.05 2.20447 7.23145 0
M  V30 36099 H 3367.32 1.1178 7.71444 0
M  V30 36100 N 3371.55 -1.25848 0.948687 0
M  V30 36101 C 3372.48 -2.24515 0.408438 0
M  V30 36102 C 3373.46 -1.54496 -0.506927 0
M  V30 36103 O 3374.64 -1.83229 -0.442662 0
M  V30 36104 C 3371.77 -3.36181 -0.412351 0
M  V30 36105 C 3370.81 -4.24198 0.442558 0
M  V30 36106 S 3371.65 -5.01745 1.87114 0
M  V30 36107 C 3372.8 -6.16883 1.05862 0
M  V30 36108 H 3373.04 -2.69993 1.24463 0
M  V30 36109 H 3370.57 -1.34831 0.752333 0
M  V30 36110 H 3372.53 -4.00957 -0.879993 0
M  V30 36111 H 3371.19 -2.89299 -1.2233 0
M  V30 36112 H 3370.38 -5.03654 -0.186679 0
M  V30 36113 H 3369.98 -3.64325 0.845177 0
M  V30 36114 H 3372.28 -6.76816 0.304448 0
M  V30 36115 H 3373.22 -6.84127 1.8269 0
M  V30 36116 H 3373.63 -5.61394 0.591368 0
M  V30 36117 N 3373.02 -0.716569 -1.40368 0
M  V30 36118 C 3374.27 -0.256501 -2.00869 0
M  V30 36119 C 3374.6 1.15058 -1.56818 0
M  V30 36120 O 3373.85 1.79496 -0.779728 0
M  V30 36121 C 3374.15 -0.285645 -3.56257 0
M  V30 36122 C 3373.82 -1.64316 -4.19894 0
M  V30 36123 C 3372.48 -2.01476 -4.36991 0
M  V30 36124 C 3374.83 -2.53532 -4.5538 0
M  V30 36125 C 3372.16 -3.27395 -4.86856 0
M  V30 36126 C 3374.51 -3.78804 -5.06646 0
M  V30 36127 C 3373.18 -4.1608 -5.21952 0
M  V30 36128 H 3372.45 -0.0938604 -0.735031 0
M  V30 36129 H 3375.09 -0.919794 -1.67964 0
M  V30 36130 H 3373.4 0.461219 -3.89076 0
M  V30 36131 H 3375.1 0.0881791 -4.00903 0
M  V30 36132 H 3371.69 -1.3442 -4.06976 0
M  V30 36133 H 3375.87 -2.26098 -4.41807 0
M  V30 36134 H 3371.13 -3.56244 -4.96891 0
M  V30 36135 H 3375.3 -4.48105 -5.33081 0
M  V30 36136 H 3372.93 -5.1372 -5.60353 0
M  V30 36137 N 3374.5 1.50651 -0.462825 0
M  V30 36138 C 3375.73 2.06391 0.092805 0
M  V30 36139 C 3376.14 1.32772 1.34789 0
M  V30 36140 O 3375.48 0.38808 1.79554 0
M  V30 36141 C 3375.55 3.56608 0.455108 0
M  V30 36142 C 3375.21 4.51657 -0.696778 0
M  V30 36143 C 3376.21 4.95424 -1.57642 0
M  V30 36144 C 3373.89 4.94447 -0.884756 0
M  V30 36145 C 3375.89 5.80679 -2.62851 0
M  V30 36146 C 3373.57 5.79486 -1.94009 0
M  V30 36147 C 3374.57 6.22503 -2.81033 0
M  V30 36148 O 3374.26 7.05849 -3.8475 0
M  V30 36149 H 3373.99 0.676 -4.37722e-05 0
M  V30 36150 H 3376.54 1.94904 -0.648195 0
M  V30 36151 H 3374.77 3.65968 1.24918 0
M  V30 36152 H 3376.46 3.9475 0.944854 0
M  V30 36153 H 3377.23 4.63041 -1.44284 0
M  V30 36154 H 3373.11 4.6049 -0.216888 0
M  V30 36155 H 3376.65 6.14176 -3.30808 0
M  V30 36156 H 3372.55 6.11282 -2.07376 0
M  V30 36157 H 3373.32 7.24082 -3.81638 0
M  V30 36158 N 3375.98 0.195113 1.56388 0
M  V30 36159 C 3377.23 -0.443652 1.9758 0
M  V30 36160 C 3377.56 -1.61627 1.08199 0
M  V30 36161 O 3376.81 -1.95325 0.121095 0
M  V30 36162 C 3377.11 -0.94599 3.44653 0
M  V30 36163 C 3376.78 0.113259 4.50758 0
M  V30 36164 C 3375.44 0.404313 4.79498 0
M  V30 36165 C 3377.79 0.830989 5.14533 0
M  V30 36166 C 3375.12 1.41807 5.69304 0
M  V30 36167 C 3377.47 1.8339 6.05434 0
M  V30 36168 C 3376.13 2.13215 6.32531 0
M  V30 36169 H 3375.4 -0.162344 0.722998 0
M  V30 36170 H 3378.05 0.292082 1.89259 0
M  V30 36171 H 3376.36 -1.76 3.50045 0
M  V30 36172 H 3378.05 -1.44963 3.73881 0
M  V30 36173 H 3374.64 -0.123758 4.28421 0
M  V30 36174 H 3378.83 0.619357 4.9242 0
M  V30 36175 H 3374.08 1.65507 5.88572 0
M  V30 36176 H 3378.26 2.39527 6.53911 0
M  V30 36177 H 3375.88 2.91914 7.01919 0
M  V30 36178 N 3377.46 -1.57404 -0.0784879 0
M  V30 36179 C 3378.71 -1.86551 -0.777366 0
M  V30 36180 C 3379.03 -0.786173 -1.7845 0
M  V30 36181 O 3378.3 0.185876 -1.95016 0
M  V30 36182 H 3376.88 -0.688375 -0.290085 0
M  V30 36183 H 3379.54 -1.94819 -0.0561675 0
M  V30 36184 H 3378.64 -2.83841 -1.29771 0
M  V30 36185 N 3378.94 0.34972 -1.53671 0
M  V30 36186 C 3379.85 1.45272 -1.8421 0
M  V30 36187 C 3380.86 1.57866 -0.731723 0
M  V30 36188 O 3382.04 1.7346 -1.0234 0
M  V30 36189 C 3379.1 2.80341 -2.03985 0
M  V30 36190 C 3378.16 2.77142 -3.27858 0
M  V30 36191 C 3377.4 4.05769 -3.4668 0
M  V30 36192 O 3377.62 5.02737 -2.69466 0
M  V30 36193 O 3376.55 4.10616 -4.40089 0
M  V30 36194 H 3380.38 1.22384 -2.77949 0
M  V30 36195 H 3377.97 0.541321 -1.39248 0
M  V30 36196 H 3379.85 3.60344 -2.18472 0
M  V30 36197 H 3378.52 3.03174 -1.13434 0
M  V30 36198 H 3377.43 1.95782 -3.18779 0
M  V30 36199 H 3378.76 2.59264 -4.18382 0
M  V30 36200 N 3380.41 1.45299 0.610397 0
M  V30 36201 C 3381.69 1.39644 1.36964 0
M  V30 36202 C 3382.07 0.0656128 2.10998 0
M  V30 36203 O 3381.42 -0.95237 2.07707 0
M  V30 36204 C 3381.63 2.6083 2.31881 0
M  V30 36205 C 3382.98 3.05796 2.94575 0
M  V30 36206 O 3384 2.61183 2.42202 0
M  V30 36207 O 3382.86 3.83209 3.89632 0
M  V30 36208 H 3379.95 0.554015 0.614 0
M  V30 36209 H 3382.5 1.57423 0.63372 0
M  V30 36210 H 3381.27 3.49276 1.76415 0
M  V30 36211 H 3380.9 2.4537 3.12857 0
M  V30 36212 N 3381.89 -0.852653 1.32543 0
M  V30 36213 C 3383.14 -1.6038 1.22974 0
M  V30 36214 C 3383.46 -1.93888 -0.207975 0
M  V30 36215 O 3382.73 -1.59796 -1.13323 0
M  V30 36216 H 3381.31 -0.59461 0.452159 0
M  V30 36217 H 3383.97 -1.0198 1.6609 0
M  V30 36218 H 3383.07 -2.53986 1.81377 0
M  V30 36219 N 3383.37 -1.15786 -1.06918 0
M  V30 36220 C 3384.62 -0.936846 -1.79864 0
M  V30 36221 C 3384.95 0.534444 -1.86701 0
M  V30 36222 O 3384.22 1.39634 -1.35398 0
M  V30 36223 C 3384.51 -1.55722 -3.24688 0
M  V30 36224 C 3384.36 -3.09942 -3.2597 0
M  V30 36225 C 3385.68 -1.24666 -4.22074 0
M  V30 36226 H 3382.8 -0.341768 -0.652965 0
M  V30 36227 H 3385.44 -1.43019 -1.25083 0
M  V30 36228 H 3383.59 -1.1377 -3.71468 0
M  V30 36229 H 3385.26 -3.60832 -2.87399 0
M  V30 36230 H 3383.51 -3.43602 -2.64802 0
M  V30 36231 H 3384.18 -3.48465 -4.28108 0
M  V30 36232 H 3386.65 -1.60963 -3.83706 0
M  V30 36233 H 3385.53 -1.70684 -5.21688 0
M  V30 36234 H 3385.79 -0.164419 -4.41794 0
M  V30 36235 N 3384.85 1.25343 -0.955348 0
M  V30 36236 C 3385.78 2.24295 -0.420339 0
M  V30 36237 C 3386.76 1.54763 0.498726 0
M  V30 36238 O 3387.94 1.83461 0.432939 0
M  V30 36239 C 3385.07 3.36394 0.394516 0
M  V30 36240 C 3384.12 4.23957 -0.465048 0
M  V30 36241 S 3384.95 5.00746 -1.89773 0
M  V30 36242 C 3386.11 6.16312 -1.09132 0
M  V30 36243 H 3386.34 2.69329 -1.25893 0
M  V30 36244 H 3383.87 1.3443 -0.759473 0
M  V30 36245 H 3385.83 4.01418 0.858717 0
M  V30 36246 H 3384.49 2.89944 1.20794 0
M  V30 36247 H 3383.68 5.03746 0.159966 0
M  V30 36248 H 3383.29 3.63872 -0.864486 0
M  V30 36249 H 3385.58 6.76645 -0.340337 0
M  V30 36250 H 3386.52 6.83149 -1.86316 0
M  V30 36251 H 3386.93 5.61072 -0.621131 0
M  V30 36252 N 3386.33 0.724003 1.39986 0
M  V30 36253 C 3387.26 0.0373847 2.2917 0
M  V30 36254 C 3388.27 -0.714989 1.46259 0
M  V30 36255 O 3389.46 -0.560973 1.69456 0
M  V30 36256 C 3386.56 -0.971327 3.24682 0
M  V30 36257 C 3385.73 -0.282749 4.36485 0
M  V30 36258 C 3384.79 -1.19802 5.12381 0
M  V30 36259 O 3383.82 -0.67964 5.65128 0
M  V30 36260 N 3385.02 -2.52857 5.22536 0
M  V30 36261 H 3387.79 0.803182 2.88737 0
M  V30 36262 H 3385.35 0.572319 1.51447 0
M  V30 36263 H 3387.34 -1.58599 3.72328 0
M  V30 36264 H 3385.91 -1.63842 2.66223 0
M  V30 36265 H 3385.13 0.512236 3.90858 0
M  V30 36266 H 3386.42 0.194882 5.08427 0
M  V30 36267 H 3385.82 -2.97461 4.81179 0
M  V30 36268 H 3384.37 -3.09447 5.7366 0
M  V30 36269 N 3387.81 -1.50403 0.470808 0
M  V30 36270 C 3389.05 -2.01517 -0.0859627 0
M  V30 36271 C 3389.37 -1.35765 -1.40809 0
M  V30 36272 O 3390.57 -1.78034 -2.04979 0
M  V30 36273 C 3389.03 -3.59323 -0.20371 0
M  V30 36274 C 3388.64 -4.34032 1.10997 0
M  V30 36275 C 3390.38 -4.18479 -0.712455 0
M  V30 36276 C 3388.29 -5.83621 0.956031 0
M  V30 36277 H 3387.22 -0.753145 -0.0359009 0
M  V30 36278 H 3389.87 -1.73217 0.605662 0
M  V30 36279 H 3388.25 -3.8421 -0.959109 0
M  V30 36280 H 3389.43 -4.2087 1.8763 0
M  V30 36281 H 3387.74 -3.86484 1.5498 0
M  V30 36282 H 3390.34 -5.27986 -0.844652 0
M  V30 36283 H 3390.68 -3.79841 -1.70371 0
M  V30 36284 H 3391.21 -3.97797 -0.014448 0
M  V30 36285 H 3387.95 -6.26731 1.92065 0
M  V30 36286 H 3387.47 -5.99359 0.230075 0
M  V30 36287 H 3389.15 -6.43998 0.622536 0
M  V30 36288 N 3389.28 -0.203404 -1.56282 0
M  V30 36289 C 3390.53 0.432312 -1.97422 0
M  V30 36290 C 3390.85 1.61574 -1.09173 0
M  V30 36291 O 3390.12 1.95206 -0.164793 0
M  V30 36292 H 3388.7 0.162708 -0.729065 0
M  V30 36293 H 3391.36 -0.292073 -1.92699 0
M  V30 36294 H 3390.46 0.770864 -3.0243 0
M  V30 36295 N 3390.76 1.57444 0.0701393 0
M  V30 36296 C 3392.01 1.87609 0.77012 0
M  V30 36297 C 3392.34 0.795906 1.77141 0
M  V30 36298 O 3391.62 -0.19364 1.93534 0
M  V30 36299 C 3391.9 3.28432 1.47662 0
M  V30 36300 C 3391.75 4.47105 0.491634 0
M  V30 36301 C 3393.07 3.67518 2.42112 0
M  V30 36302 H 3390.19 0.682351 0.278507 0
M  V30 36303 H 3392.83 1.89971 0.033285 0
M  V30 36304 H 3390.98 3.26549 2.1047 0
M  V30 36305 H 3392.65 4.61113 -0.131364 0
M  V30 36306 H 3390.9 4.33371 -0.192894 0
M  V30 36307 H 3391.57 5.42426 1.02363 0
M  V30 36308 H 3394.04 3.70506 1.8938 0
M  V30 36309 H 3392.92 4.66938 2.88548 0
M  V30 36310 H 3393.18 2.9754 3.2699 0
M  V30 36311 N 3392.24 -0.341566 1.53854 0
M  V30 36312 C 3393.49 -1.08159 1.71196 0
M  V30 36313 C 3393.81 -1.88581 0.476174 0
M  V30 36314 O 3393.07 -1.88042 -0.542082 0
M  V30 36315 C 3393.37 -2.04878 2.92847 0
M  V30 36316 C 3393.03 -1.40752 4.28369 0
M  V30 36317 C 3391.7 -1.22992 4.65216 0
M  V30 36318 C 3394.05 -0.945729 5.12548 0
M  V30 36319 C 3391.38 -0.576749 5.83858 0
M  V30 36320 C 3393.73 -0.306457 6.31857 0
M  V30 36321 C 3392.39 -0.11656 6.67398 0
M  V30 36322 H 3391.66 -0.395781 0.626449 0
M  V30 36323 H 3394.31 -0.360655 1.88073 0
M  V30 36324 H 3392.61 -2.8336 2.70581 0
M  V30 36325 H 3394.31 -2.62134 3.03458 0
M  V30 36326 H 3390.9 -1.55573 3.99368 0
M  V30 36327 H 3395.09 -1.07078 4.84611 0
M  V30 36328 H 3390.34 -0.418256 6.09968 0
M  V30 36329 H 3394.52 0.0594509 6.96375 0
M  V30 36330 H 3392.14 0.391611 7.59191 0
M  V30 36331 N 3393.72 -1.45621 -0.602683 0
M  V30 36332 C 3394.67 -1.55008 -1.73422 0
M  V30 36333 C 3395.66 -0.419742 -1.64117 0
M  V30 36334 O 3396.87 -0.595845 -1.69852 0
M  V30 36335 H 3393.24 -0.486972 -0.573029 0
M  V30 36336 H 3395.21 -2.50186 -1.62632 0
M  V30 36337 C 3393.96 -1.53859 -3.11806 0
M  V30 36338 H 3393.28 -2.40164 -3.19627 0
M  V30 36339 H 3394.72 -1.64484 -3.90795 0
M  V30 36340 C 3393.18 -0.263824 -3.35865 0
M  V30 36341 O 3393.71 0.654295 -3.96336 0
M  V30 36342 N 3391.92 -0.157978 -2.9017 0
M  V30 36343 H 3391.47 -0.905987 -2.41142 0
M  V30 36344 H 3391.42 0.694121 -3.06642 0
M  V30 36345 N 3395.2 0.845612 -1.32993 0
M  V30 36346 C 3396.42 1.63266 -1.2709 0
M  V30 36347 C 3396.84 1.88126 0.159448 0
M  V30 36348 O 3396.2 1.45665 1.09945 0
M  V30 36349 C 3396.25 2.98676 -2.03654 0
M  V30 36350 O 3395.97 2.74912 -3.41109 0
M  V30 36351 C 3397.47 3.93114 -2.04882 0
M  V30 36352 H 3394.69 0.508228 -0.438116 0
M  V30 36353 H 3397.23 1.05378 -1.75259 0
M  V30 36354 H 3395.39 3.53184 -1.59184 0
M  V30 36355 H 3395.8 3.61092 -3.80411 0
M  V30 36356 H 3397.28 4.85363 -2.6292 0
M  V30 36357 H 3397.75 4.26773 -1.03736 0
M  V30 36358 H 3398.36 3.44542 -2.4934 0
M  V30 36359 N 3396.67 1.16351 1.06302 0
M  V30 36360 C 3398.08 0.95268 1.60564 0
M  V30 36361 C 3398.44 -0.50344 1.89631 0
M  V30 36362 O 3397.56 -1.37663 1.66967 0
M  V30 36363 C 3398.16 1.72297 2.91717 0
M  V30 36364 C 3396.71 1.55713 3.42681 0
M  V30 36365 C 3395.86 1.73176 2.16576 0
M  V30 36366 H 3398.81 1.31223 0.89254 0
M  V30 36367 H 3398.83 1.19874 3.61124 0
M  V30 36368 H 3398.35 2.78271 2.7053 0
M  V30 36369 H 3396.45 0.521791 3.68928 0
M  V30 36370 H 3396.56 2.34096 4.18014 0
M  V30 36371 H 3394.92 1.15918 2.26793 0
M  V30 36372 H 3395.71 2.80538 1.97872 0
M  V30 36373 N 3398.15 -1.24835 0.961982 0
M  V30 36374 C 3399.43 -1.8806 0.537842 0
M  V30 36375 C 3399.81 -1.86711 -0.98499 0
M  V30 36376 O 3399.16 -1.33575 -1.85391 0
M  V30 36377 C 3399.37 -3.30444 1.12285 0
M  V30 36378 C 3400.71 -4.07166 1.20422 0
M  V30 36379 O 3401.74 -3.39593 1.07494 0
M  V30 36380 O 3400.6 -5.28054 1.4079 0
M  V30 36381 H 3397.69 -0.807505 0.178505 0
M  V30 36382 H 3400.24 -1.3285 1.05589 0
M  V30 36383 H 3399.01 -3.25894 2.16584 0
M  V30 36384 H 3398.63 -3.93221 0.588499 0
M  V30 36385 N 3399.63 -0.731417 -1.396 0
M  V30 36386 C 3400.88 -0.277243 -2.00189 0
M  V30 36387 C 3401.2 1.13838 -1.58322 0
M  V30 36388 O 3400.47 1.77456 -0.829824 0
M  V30 36389 H 3399.05 -0.0995137 -0.740342 0
M  V30 36390 H 3401.71 -0.940577 -1.70702 0
M  V30 36391 H 3400.81 -0.322804 -3.10426 0
M  V30 36392 N 3401.11 1.50152 -0.478778 0
M  V30 36393 C 3402.36 2.02366 0.0735495 0
M  V30 36394 C 3402.68 1.36021 1.39027 0
M  V30 36395 O 3401.94 0.477469 1.89786 0
M  V30 36396 C 3402.24 3.5616 0.297472 0
M  V30 36397 C 3401.9 4.41025 -0.938496 0
M  V30 36398 C 3400.57 4.63937 -1.27735 0
M  V30 36399 C 3402.92 4.90546 -1.76107 0
M  V30 36400 C 3400.25 5.33615 -2.43869 0
M  V30 36401 C 3402.6 5.61501 -2.91376 0
M  V30 36402 C 3401.26 5.82664 -3.25667 0
M  V30 36403 H 3400.53 0.740511 0.0269137 0
M  V30 36404 H 3403.18 1.80686 -0.634422 0
M  V30 36405 H 3401.48 3.76397 1.08776 0
M  V30 36406 H 3403.18 3.94133 0.738921 0
M  V30 36407 H 3399.77 4.23417 -0.664516 0
M  V30 36408 H 3403.95 4.72693 -1.51245 0
M  V30 36409 H 3399.21 5.48207 -2.70702 0
M  V30 36410 H 3403.38 5.98853 -3.55455 0
M  V30 36411 H 3401.01 6.36432 -4.15763 0
M  V30 36412 N 3402.59 0.211689 1.56172 0
M  V30 36413 C 3403.53 -0.702476 2.1985 0
M  V30 36414 C 3404.5 -1.19761 1.15093 0
M  V30 36415 O 3405.69 -1.2585 1.4341 0
M  V30 36416 C 3402.83 -1.9093 2.87471 0
M  V30 36417 C 3401.94 -1.45398 4.06796 0
M  V30 36418 C 3401.08 -2.6176 4.62228 0
M  V30 36419 C 3400.12 -2.12916 5.73875 0
M  V30 36420 N 3399.25 -3.22515 6.23641 0
M  V30 36421 H 3404.09 -0.152725 2.97608 0
M  V30 36422 H 3401.63 -0.0636338 1.46962 0
M  V30 36423 H 3403.59 -2.61772 3.24856 0
M  V30 36424 H 3402.22 -2.43209 2.12248 0
M  V30 36425 H 3401.27 -0.640842 3.74963 0
M  V30 36426 H 3402.58 -1.05576 4.87499 0
M  V30 36427 H 3401.74 -3.407 5.02005 0
M  V30 36428 H 3400.47 -3.04866 3.80668 0
M  V30 36429 H 3399.48 -1.32436 5.33611 0
M  V30 36430 H 3400.7 -1.70822 6.57265 0
M  V30 36431 H 3398.65 -3.65121 5.44998 0
M  V30 36432 H 3398.57 -2.86914 6.9944 0
M  V30 36433 H 3399.84 -4.01619 6.68073 0
M  V30 36434 N 3404.06 -1.57479 -0.0617887 0
M  V30 36435 C 3405.29 -1.91692 -0.770572 0
M  V30 36436 C 3405.7 -0.806871 -1.71132 0
M  V30 36437 O 3405.05 0.22797 -1.8228 0
M  V30 36438 C 3405.11 -3.21455 -1.60956 0
M  V30 36439 C 3404.77 -4.49268 -0.837114 0
M  V30 36440 C 3405.77 -5.19678 -0.151873 0
M  V30 36441 C 3403.45 -4.95867 -0.801327 0
M  V30 36442 C 3405.45 -6.34946 0.558816 0
M  V30 36443 C 3403.13 -6.11038 -0.0868714 0
M  V30 36444 C 3404.13 -6.8043 0.591991 0
M  V30 36445 O 3403.82 -7.93402 1.29491 0
M  V30 36446 H 3403.55 -0.637927 -0.223662 0
M  V30 36447 H 3406.11 -2.05373 -0.0333063 0
M  V30 36448 H 3404.34 -3.0401 -2.38987 0
M  V30 36449 H 3406.03 -3.41241 -2.19793 0
M  V30 36450 H 3406.79 -4.84699 -0.170763 0
M  V30 36451 H 3402.67 -4.41722 -1.31919 0
M  V30 36452 H 3406.21 -6.89044 1.08925 0
M  V30 36453 H 3402.11 -6.45466 -0.0659435 0
M  V30 36454 H 3402.88 -8.09578 1.20521 0
M  V30 36455 N 3405.54 0.333401 -1.54033 0
M  V30 36456 C 3406.79 1.07249 -1.71767 0
M  V30 36457 C 3407.12 1.88326 -0.486168 0
M  V30 36458 O 3406.37 1.88327 0.532102 0
M  V30 36459 C 3406.67 2.03323 -2.9393 0
M  V30 36460 C 3406.34 1.38478 -4.29109 0
M  V30 36461 C 3405 1.20523 -4.65862 0
M  V30 36462 C 3407.35 0.918534 -5.13042 0
M  V30 36463 C 3404.68 0.545778 -5.84156 0
M  V30 36464 C 3407.03 0.272944 -6.32011 0
M  V30 36465 C 3405.7 0.0811642 -6.67451 0
M  V30 36466 H 3404.97 0.392453 -0.628539 0
M  V30 36467 H 3407.61 0.350676 -1.88262 0
M  V30 36468 H 3405.92 2.81921 -2.7208 0
M  V30 36469 H 3407.61 2.60521 -3.04844 0
M  V30 36470 H 3404.2 1.53453 -4.00188 0
M  V30 36471 H 3408.39 1.04507 -4.85172 0
M  V30 36472 H 3403.64 0.385902 -6.10181 0
M  V30 36473 H 3407.82 -0.0963805 -6.96333 0
M  V30 36474 H 3405.45 -0.431867 -7.58972 0
M  V30 36475 N 3407.02 1.45939 0.594952 0
M  V30 36476 C 3407.98 1.55171 1.68685 0
M  V30 36477 C 3408.98 0.429978 1.54945 0
M  V30 36478 O 3410.17 0.693887 1.59784 0
M  V30 36479 C 3407.31 1.46033 3.08038 0
M  V30 36480 H 3408.5 2.52469 1.61862 0
M  V30 36481 H 3406.05 1.33567 0.811762 0
M  V30 36482 H 3406.79 0.499671 3.20427 0
M  V30 36483 H 3406.57 2.27407 3.19419 0
M  V30 36484 H 3408.06 1.55553 3.87548 0
M  V30 36485 N 3408.5 -0.838547 1.3344 0
M  V30 36486 C 3409.45 -1.93687 1.20288 0
M  V30 36487 C 3410.43 -1.60552 0.105714 0
M  V30 36488 O 3411.62 -1.73823 0.333844 0
M  V30 36489 C 3408.75 -3.30049 0.944602 0
M  V30 36490 C 3407.84 -3.69352 2.08422 0
M  V30 36491 N 3408.23 -3.80347 3.33421 0
M  V30 36492 C 3406.53 -3.99094 1.99099 0
M  V30 36493 C 3407.23 -4.14458 4.08166 0
M  V30 36494 N 3406.21 -4.26844 3.36608 0
M  V30 36495 H 3410.01 -2.00344 2.15034 0
M  V30 36496 H 3407.52 -1.03129 1.25452 0
M  V30 36497 H 3409.52 -4.08528 0.831314 0
M  V30 36498 H 3408.18 -3.247 0.00567981 0
M  V30 36499 H 3409.19 -3.64246 3.68165 0
M  V30 36500 H 3405.87 -4.01954 1.12868 0
M  V30 36501 H 3407.26 -4.30299 5.16035 0
M  V30 36502 N 3409.98 -1.16914 -1.05683 0
M  V30 36503 C 3410.91 -0.839082 -2.13289 0
M  V30 36504 C 3411.92 0.156363 -1.62047 0
M  V30 36505 O 3413.11 -0.0692506 -1.78366 0
M  V30 36506 C 3410.21 -0.229617 -3.38121 0
M  V30 36507 C 3409.38 -1.2667 -4.18657 0
M  V30 36508 C 3408.44 -0.675902 -5.21841 0
M  V30 36509 O 3407.47 -1.3464 -5.53047 0
M  V30 36510 N 3408.67 0.534431 -5.78035 0
M  V30 36511 H 3411.44 -1.7652 -2.422 0
M  V30 36512 H 3409 -1.06731 -1.21738 0
M  V30 36513 H 3410.99 0.178797 -4.04305 0
M  V30 36514 H 3409.56 0.600176 -3.06784 0
M  V30 36515 H 3408.78 -1.85105 -3.48037 0
M  V30 36516 H 3410.07 -1.96638 -4.69266 0
M  V30 36517 H 3409.46 1.09722 -5.54957 0
M  V30 36518 H 3408.02 0.884973 -6.45764 0
M  V30 36519 N 3411.45 1.24323 -0.968589 0
M  V30 36520 C 3412.4 2.2735 -0.491386 0
M  V30 36521 C 3413.4 1.63436 0.445535 0
M  V30 36522 O 3414.6 1.7712 0.320727 0
M  V30 36523 H 3410.98 0.738769 -0.140443 0
M  V30 36524 H 3412.95 2.64973 -1.37229 0
M  V30 36525 C 3411.7 3.47113 0.202032 0
M  V30 36526 H 3411.02 3.96536 -0.5098 0
M  V30 36527 H 3412.46 4.21045 0.499741 0
M  V30 36528 C 3410.92 3.05077 1.42931 0
M  V30 36529 O 3411.45 3.12316 2.52629 0
M  V30 36530 N 3409.66 2.60116 1.29568 0
M  V30 36531 H 3409.2 2.54426 0.403124 0
M  V30 36532 H 3409.16 2.32357 2.11796 0
M  V30 36533 N 3412.93 0.73881 1.3921 0
M  V30 36534 C 3414.16 0.298787 2.04731 0
M  V30 36535 C 3414.58 -1.06773 1.55708 0
M  V30 36536 O 3413.93 -1.6754 0.723635 0
M  V30 36537 C 3413.98 0.295803 3.60288 0
M  V30 36538 O 3413.7 1.60838 4.07508 0
M  V30 36539 C 3415.21 -0.159916 4.43011 0
M  V30 36540 H 3412.43 0.129964 0.658294 0
M  V30 36541 H 3414.97 1.00353 1.78184 0
M  V30 36542 H 3413.12 -0.360078 3.85723 0
M  V30 36543 H 3413.54 1.52452 5.01855 0
M  V30 36544 H 3415.01 -0.110844 5.51889 0
M  V30 36545 H 3415.49 -1.20566 4.22328 0
M  V30 36546 H 3416.1 0.466541 4.22733 0
M  V30 36547 N 3414.41 -1.49895 0.486734 0
M  V30 36548 C 3415.34 -2.31706 -0.288858 0
M  V30 36549 C 3416.32 -1.39322 -0.975877 0
M  V30 36550 O 3417.51 -1.68238 -0.970036 0
M  V30 36551 C 3414.64 -3.19474 -1.36212 0
M  V30 36552 C 3413.59 -4.20536 -0.795811 0
M  V30 36553 C 3412.92 -4.97145 -1.96853 0
M  V30 36554 C 3414.22 -5.21903 0.203513 0
M  V30 36555 H 3415.91 -2.96796 0.393986 0
M  V30 36556 H 3413.46 -1.42729 0.19092 0
M  V30 36557 H 3415.41 -3.75511 -1.91231 0
M  V30 36558 H 3414.13 -2.52299 -2.07395 0
M  V30 36559 H 3412.79 -3.65623 -0.267473 0
M  V30 36560 H 3412.44 -4.2643 -2.66771 0
M  V30 36561 H 3412.14 -5.65517 -1.59575 0
M  V30 36562 H 3413.66 -5.56022 -2.52333 0
M  V30 36563 H 3415.08 -5.72719 -0.258044 0
M  V30 36564 H 3413.48 -5.98085 0.491379 0
M  V30 36565 H 3414.55 -4.71688 1.12422 0
M  V30 36566 N 3415.89 -0.219968 -1.56057 0
M  V30 36567 C 3417.17 0.461087 -1.90088 0
M  V30 36568 C 3417.55 1.77859 -1.13708 0
M  V30 36569 O 3416.89 2.27173 -0.245908 0
M  V30 36570 C 3417.1 0.655584 -3.42787 0
M  V30 36571 C 3418.45 0.96373 -4.13518 0
M  V30 36572 O 3419.48 0.742427 -3.48377 0
M  V30 36573 O 3418.34 1.38365 -5.28694 0
M  V30 36574 H 3415.43 0.243581 -0.790315 0
M  V30 36575 H 3417.98 -0.262035 -1.67665 0
M  V30 36576 H 3416.75 -0.273807 -3.90341 0
M  V30 36577 H 3416.37 1.43025 -3.70985 0
M  V30 36578 N 3417.37 1.57509 0.0534363 0
M  V30 36579 C 3418.28 2.08315 1.07899 0
M  V30 36580 C 3419.29 1.01649 1.41221 0
M  V30 36581 O 3420.47 1.33236 1.5103 0
M  V30 36582 C 3417.53 2.53224 2.36809 0
M  V30 36583 C 3416.6 3.74268 2.10291 0
M  V30 36584 C 3415.83 4.17026 3.33055 0
M  V30 36585 O 3416.05 3.59498 4.42851 0
M  V30 36586 O 3414.99 5.09671 3.20186 0
M  V30 36587 H 3418.81 2.96051 0.677316 0
M  V30 36588 H 3416.4 1.46962 0.268812 0
M  V30 36589 H 3418.28 2.82549 3.1264 0
M  V30 36590 H 3416.95 1.68609 2.7632 0
M  V30 36591 H 3415.86 3.49999 1.32105 0
M  V30 36592 H 3417.19 4.59791 1.7565 0
M  V30 36593 N 3418.85 -0.325228 1.54208 0
M  V30 36594 C 3419.79 -1.42033 1.842 0
M  V30 36595 C 3420.79 -1.53628 0.713777 0
M  V30 36596 O 3421.99 -1.56034 0.897413 0
M  V30 36597 H 3418.37 -0.473937 0.583856 0
M  V30 36598 H 3420.34 -1.1396 2.75782 0
M  V30 36599 C 3419.09 -2.78277 2.08464 0
M  V30 36600 H 3418.41 -2.70128 2.94739 0
M  V30 36601 H 3419.85 -3.53976 2.33404 0
M  V30 36602 C 3418.31 -3.25321 0.875672 0
M  V30 36603 O 3418.84 -4.01612 0.0841093 0
M  V30 36604 N 3417.05 -2.82344 0.687771 0
M  V30 36605 H 3416.59 -2.20422 1.33311 0
M  V30 36606 H 3416.55 -3.14172 -0.119632 0
M  V30 36607 N 3420.32 -1.46252 -0.587204 0
M  V30 36608 C 3421.57 -1.51329 -1.34558 0
M  V30 36609 C 3421.9 -0.163181 -1.93814 0
M  V30 36610 O 3421.15 0.840646 -1.76725 0
M  V30 36611 C 3421.45 -2.55634 -2.49772 0
M  V30 36612 C 3421.12 -3.99779 -2.08536 0
M  V30 36613 C 3419.78 -4.39024 -1.97005 0
M  V30 36614 C 3422.13 -4.90347 -1.76661 0
M  V30 36615 C 3419.46 -5.66709 -1.5185 0
M  V30 36616 C 3421.81 -6.18464 -1.32985 0
M  V30 36617 C 3420.48 -6.5662 -1.20028 0
M  V30 36618 H 3419.75 -0.553753 -0.492381 0
M  V30 36619 H 3422.39 -1.79705 -0.661684 0
M  V30 36620 H 3420.7 -2.20902 -3.23588 0
M  V30 36621 H 3422.4 -2.56793 -3.07991 0
M  V30 36622 H 3418.99 -3.68755 -2.18444 0
M  V30 36623 H 3423.17 -4.60749 -1.84457 0
M  V30 36624 H 3418.43 -5.95048 -1.40457 0
M  V30 36625 H 3422.6 -6.88073 -1.07373 0
M  V30 36626 H 3420.23 -7.55454 -0.848135 0
M  V30 36627 N 3421.8 0.831459 -1.33883 0
M  V30 36628 C 3422.71 1.97377 -1.26805 0
M  V30 36629 C 3423.73 1.73095 -0.177263 0
M  V30 36630 O 3424.9 1.97343 -0.402197 0
M  V30 36631 C 3421.97 3.31516 -1.0148 0
M  V30 36632 C 3421.03 3.68863 -2.19632 0
M  V30 36633 C 3420.26 4.96602 -1.95506 0
M  V30 36634 O 3420.49 5.6311 -0.909047 0
M  V30 36635 O 3419.42 5.31627 -2.82235 0
M  V30 36636 H 3423.25 2.06289 -2.22887 0
M  V30 36637 H 3420.83 0.965593 -1.14003 0
M  V30 36638 H 3422.71 4.11872 -0.891027 0
M  V30 36639 H 3421.39 3.2359 -0.0843225 0
M  V30 36640 H 3420.29 2.88986 -2.37566 0
M  V30 36641 H 3421.63 3.81464 -3.1104 0
M  V30 36642 N 3423.28 1.17472 1.05062 0
M  V30 36643 C 3424.53 0.96201 1.77735 0
M  V30 36644 C 3424.85 -0.510518 1.88199 0
M  V30 36645 O 3424.12 -1.37059 1.3997 0
M  V30 36646 H 3422.7 0.352947 0.65836 0
M  V30 36647 H 3425.36 1.47971 1.26848 0
M  V30 36648 H 3424.46 1.39146 2.79365 0
M  V30 36649 N 3424.76 -1.23807 0.975168 0
M  V30 36650 C 3425.67 -2.28782 0.519211 0
M  V30 36651 C 3426.68 -1.68769 -0.423457 0
M  V30 36652 O 3427.86 -1.99233 -0.294664 0
M  V30 36653 C 3424.92 -3.46252 -0.176168 0
M  V30 36654 C 3423.99 -4.21642 0.807252 0
M  V30 36655 C 3423.22 -5.33503 0.144963 0
M  V30 36656 O 3423.44 -5.60367 -1.06512 0
M  V30 36657 O 3422.38 -5.95997 0.840894 0
M  V30 36658 H 3426.2 -2.69916 1.39208 0
M  V30 36659 H 3423.79 -1.2964 0.742553 0
M  V30 36660 H 3425.67 -4.17575 -0.566474 0
M  V30 36661 H 3424.34 -3.0708 -1.02389 0
M  V30 36662 H 3423.25 -3.52664 1.24816 0
M  V30 36663 H 3424.58 -4.6465 1.62362 0
M  V30 36664 N 3426.24 -0.746182 -1.38816 0
M  V30 36665 C 3427.46 -0.308338 -2.05095 0
M  V30 36666 C 3427.89 1.05241 -1.55903 0
M  V30 36667 O 3427.24 1.66916 -0.707715 0
M  V30 36668 C 3427.29 -0.33208 -3.59068 0
M  V30 36669 O 3426.4 0.676476 -4.06814 0
M  V30 36670 H 3425.74 -0.137912 -0.64952 0
M  V30 36671 H 3428.27 -1.01523 -1.77635 0
M  V30 36672 H 3428.28 -0.180365 -4.07601 0
M  V30 36673 H 3426.95 -1.32494 -3.94231 0
M  V30 36674 H 3425.53 0.489981 -3.69667 0
M  V30 36675 N 3427.71 1.49635 -0.494676 0
M  V30 36676 C 3428.96 2.01628 0.0538922 0
M  V30 36677 C 3429.28 1.37988 1.38631 0
M  V30 36678 O 3430.48 1.81272 2.0212 0
M  V30 36679 C 3428.94 3.59602 0.146519 0
M  V30 36680 C 3428.55 4.32211 -1.17888 0
M  V30 36681 C 3430.29 4.19559 0.645788 0
M  V30 36682 C 3428.2 5.82027 -1.04876 0
M  V30 36683 H 3427.13 0.753621 0.0239145 0
M  V30 36684 H 3429.78 1.72231 -0.633142 0
M  V30 36685 H 3428.16 3.85687 0.897863 0
M  V30 36686 H 3429.33 4.17832 -1.94302 0
M  V30 36687 H 3427.65 3.8397 -1.61109 0
M  V30 36688 H 3430.25 5.29263 0.760547 0
M  V30 36689 H 3430.59 3.82504 1.64306 0
M  V30 36690 H 3431.12 3.9777 -0.04884 0
M  V30 36691 H 3427.86 6.23596 -2.02011 0
M  V30 36692 H 3427.38 5.98917 -0.325399 0
M  V30 36693 H 3429.06 6.42926 -0.724912 0
M  V30 36694 N 3429.19 0.228241 1.55939 0
M  V30 36695 C 3430.14 -0.695521 2.21958 0
M  V30 36696 C 3431.13 -1.19456 1.20111 0
M  V30 36697 O 3432.34 -1.15361 1.38173 0
M  V30 36698 H 3428.71 -0.242731 0.711748 0
M  V30 36699 H 3430.69 -0.11535 2.98177 0
M  V30 36700 C 3429.43 -1.88994 2.9185 0
M  V30 36701 H 3428.76 -1.51506 3.69981 0
M  V30 36702 H 3430.2 -2.51393 3.41434 0
M  V30 36703 C 3428.66 -2.74951 1.94688 0
M  V30 36704 O 3429.19 -3.73913 1.46807 0
M  V30 36705 N 3427.39 -2.41126 1.62193 0
M  V30 36706 H 3426.94 -1.60705 2.01325 0
M  V30 36707 H 3426.9 -2.98918 0.974453 0
M  V30 36708 N 3430.67 -1.57536 -0.0450825 0
M  V30 36709 C 3431.9 -1.92498 -0.750197 0
M  V30 36710 C 3432.31 -0.824976 -1.70267 0
M  V30 36711 O 3431.65 0.208624 -1.82512 0
M  V30 36712 C 3431.71 -3.23144 -1.57538 0
M  V30 36713 C 3431.38 -4.5013 -0.789416 0
M  V30 36714 C 3432.37 -5.1981 -0.0967453 0
M  V30 36715 C 3430.06 -4.96689 -0.748688 0
M  V30 36716 C 3432.05 -6.34317 0.62613 0
M  V30 36717 C 3429.74 -6.11096 -0.0220577 0
M  V30 36718 C 3430.74 -6.79763 0.664126 0
M  V30 36719 O 3430.43 -7.91984 1.37899 0
M  V30 36720 H 3430.16 -0.640264 -0.216884 0
M  V30 36721 H 3432.71 -2.05397 -0.0115219 0
M  V30 36722 H 3430.94 -3.06528 -2.35749 0
M  V30 36723 H 3432.63 -3.43553 -2.16162 0
M  V30 36724 H 3433.4 -4.84853 -0.119344 0
M  V30 36725 H 3429.28 -4.43096 -1.27227 0
M  V30 36726 H 3432.82 -6.8785 1.16227 0
M  V30 36727 H 3428.72 -6.455 0.00252053 0
M  V30 36728 H 3429.49 -8.08254 1.29101 0
M  V30 36729 N 3432.15 0.317045 -1.54378 0
M  V30 36730 C 3433.38 1.07359 -1.76866 0
M  V30 36731 C 3433.79 1.81487 -0.520386 0
M  V30 36732 O 3433.15 1.75253 0.509182 0
M  V30 36733 C 3433.2 2.06663 -2.96602 0
M  V30 36734 O 3432.92 1.35544 -4.16604 0
M  V30 36735 C 3434.42 2.94483 -3.31353 0
M  V30 36736 H 3431.64 0.319073 -0.590283 0
M  V30 36737 H 3434.19 0.361192 -2.01285 0
M  V30 36738 H 3432.34 2.73427 -2.74438 0
M  V30 36739 H 3432.75 2.021 -4.84 0
M  V30 36740 H 3434.23 3.60044 -4.18417 0
M  V30 36741 H 3434.71 3.6193 -2.48803 0
M  V30 36742 H 3435.31 2.33271 -3.55619 0
M  V30 36743 N 3433.63 1.46561 0.57944 0
M  V30 36744 C 3434.87 1.5174 1.33489 0
M  V30 36745 C 3435.2 0.17196 1.9424 0
M  V30 36746 O 3434.47 -0.801843 1.78738 0
M  V30 36747 H 3433.05 0.558883 0.49564 0
M  V30 36748 H 3435.71 1.82714 0.678362 0
M  V30 36749 H 3434.8 2.27187 2.13992 0
M  V30 36750 N 3435.1 -0.824347 1.34322 0
M  V30 36751 C 3436.35 -1.58241 1.27795 0
M  V30 36752 C 3436.71 -1.91805 -0.151156 0
M  V30 36753 O 3436 -1.57084 -1.09706 0
M  V30 36754 C 3436.19 -2.89135 2.10085 0
M  V30 36755 C 3436.02 -2.68357 3.60853 0
M  V30 36756 C 3434.79 -2.65164 4.30135 0
M  V30 36757 C 3436.99 -2.39971 4.54883 0
M  V30 36758 N 3434.97 -2.35917 5.6676 0
M  V30 36759 C 3436.34 -2.20405 5.79501 0
M  V30 36760 C 3438.4 -2.25688 4.43812 0
M  V30 36761 C 3437.1 -1.88003 6.94296 0
M  V30 36762 C 3439.13 -1.9468 5.58439 0
M  V30 36763 C 3438.49 -1.75937 6.82075 0
M  V30 36764 H 3434.59 -0.581496 0.522863 0
M  V30 36765 H 3437.17 -0.96648 1.69018 0
M  V30 36766 H 3435.34 -3.48653 1.7116 0
M  V30 36767 H 3437.07 -3.54505 1.95214 0
M  V30 36768 H 3433.83 -2.79188 3.82559 0
M  V30 36769 H 3434.25 -2.24136 6.38821 0
M  V30 36770 H 3438.9 -2.38885 3.48847 0
M  V30 36771 H 3436.61 -1.73543 7.89245 0
M  V30 36772 H 3440.2 -1.84362 5.51817 0
M  V30 36773 H 3439.08 -1.52291 7.69271 0
M  V30 36774 N 3436.58 -1.18028 -1.04437 0
M  V30 36775 C 3437.51 -0.927351 -2.14295 0
M  V30 36776 C 3438.49 0.13354 -1.69575 0
M  V30 36777 O 3439.68 -0.018278 -1.94191 0
M  V30 36778 C 3436.81 -0.448195 -3.44396 0
M  V30 36779 C 3435.76 -1.44914 -4.02721 0
M  V30 36780 C 3435.09 -0.827647 -5.28256 0
M  V30 36781 C 3436.39 -2.8247 -4.39326 0
M  V30 36782 H 3438.08 -1.84609 -2.35711 0
M  V30 36783 H 3435.63 -0.889032 -1.13279 0
M  V30 36784 H 3437.58 -0.258628 -4.20606 0
M  V30 36785 H 3436.31 0.506102 -3.22655 0
M  V30 36786 H 3434.96 -1.62558 -3.28588 0
M  V30 36787 H 3434.61 0.133721 -5.02822 0
M  V30 36788 H 3434.31 -1.4959 -5.6824 0
M  V30 36789 H 3435.84 -0.648527 -6.07146 0
M  V30 36790 H 3437.25 -2.685 -5.06538 0
M  V30 36791 H 3435.65 -3.45945 -4.90349 0
M  V30 36792 H 3436.72 -3.36305 -3.49324 0
M  V30 36793 N 3438.06 1.23288 -0.98172 0
M  V30 36794 C 3439.34 1.87181 -0.567692 0
M  V30 36795 C 3439.72 1.88255 0.955161 0
M  V30 36796 O 3439.07 1.36508 1.83243 0
M  V30 36797 C 3439.28 3.28616 -1.17527 0
M  V30 36798 C 3440.62 4.05198 -1.26884 0
M  V30 36799 O 3441.65 3.3784 -1.12883 0
M  V30 36800 O 3440.51 5.25747 -1.49173 0
M  V30 36801 H 3437.6 0.804563 -0.191329 0
M  V30 36802 H 3440.15 1.31153 -1.07689 0
M  V30 36803 H 3438.92 3.22407 -2.21741 0
M  V30 36804 H 3438.54 3.92235 -0.650982 0
M  V30 36805 N 3439.54 0.753533 1.38418 0
M  V30 36806 C 3440.47 0.141239 2.33072 0
M  V30 36807 C 3441.45 -0.703643 1.54864 0
M  V30 36808 O 3442.63 -0.64484 1.83181 0
M  V30 36809 C 3439.76 -0.752743 3.39044 0
M  V30 36810 C 3438.72 -0.010594 4.27999 0
M  V30 36811 C 3438.04 -1.02282 5.24826 0
M  V30 36812 C 3439.34 1.15777 5.09306 0
M  V30 36813 H 3441.04 0.93193 2.84527 0
M  V30 36814 H 3438.58 0.449591 1.36802 0
M  V30 36815 H 3440.54 -1.19076 4.04226 0
M  V30 36816 H 3439.26 -1.57575 2.86073 0
M  V30 36817 H 3437.92 0.408003 3.64323 0
M  V30 36818 H 3437.57 -1.83989 4.68142 0
M  V30 36819 H 3437.27 -0.530907 5.85197 0
M  V30 36820 H 3438.79 -1.46016 5.92884 0
M  V30 36821 H 3440.21 0.797303 5.67729 0
M  V30 36822 H 3438.6 1.58055 5.78912 0
M  V30 36823 H 3439.67 1.9707 4.43048 0
M  V30 36824 N 3441.02 -1.49371 0.502605 0
M  V30 36825 C 3442.29 -1.95321 -0.104438 0
M  V30 36826 C 3442.67 -1.44415 -1.53973 0
M  V30 36827 O 3442.02 -0.658605 -2.18803 0
M  V30 36828 C 3442.23 -3.48997 -0.0154219 0
M  V30 36829 C 3443.58 -4.24181 -0.188541 0
M  V30 36830 O 3444.6 -3.56085 -0.0905324 0
M  V30 36831 O 3443.46 -5.45107 -0.389973 0
M  V30 36832 H 3440.56 -0.821592 -0.0944181 0
M  V30 36833 H 3443.1 -1.60009 0.565257 0
M  V30 36834 H 3441.87 -3.78688 0.98545 0
M  V30 36835 H 3441.5 -3.90931 -0.725191 0
M  V30 36836 N 3442.49 -0.236508 -1.55815 0
M  V30 36837 C 3443.4 0.678399 -2.24577 0
M  V30 36838 C 3444.42 1.2017 -1.25838 0
M  V30 36839 O 3445.6 1.24016 -1.58688 0
M  V30 36840 C 3442.66 1.8632 -2.92379 0
M  V30 36841 C 3441.72 1.3804 -4.06501 0
M  V30 36842 C 3440.96 2.50873 -4.71061 0
M  V30 36843 O 3441.18 3.69362 -4.34659 0
M  V30 36844 O 3440.11 2.21222 -5.59772 0
M  V30 36845 H 3443.94 0.122548 -3.03453 0
M  V30 36846 H 3441.52 -0.00543429 -1.49399 0
M  V30 36847 H 3443.41 2.55482 -3.35122 0
M  V30 36848 H 3442.08 2.40687 -2.16452 0
M  V30 36849 H 3440.99 0.656357 -3.68297 0
M  V30 36850 H 3442.32 0.882939 -4.84216 0
M  V30 36851 N 3443.97 1.57557 0.0367273 0
M  V30 36852 C 3444.92 2.06055 1.03971 0
M  V30 36853 C 3445.89 0.948113 1.36382 0
M  V30 36854 O 3447.07 1.21817 1.46851 0
M  V30 36855 C 3444.21 2.53841 2.33792 0
M  V30 36856 C 3443.33 3.78845 2.07607 0
M  V30 36857 C 3442.46 4.15273 3.31243 0
M  V30 36858 C 3441.5 5.33216 3.00578 0
M  V30 36859 N 3440.64 5.65113 4.16643 0
M  V30 36860 H 3445.48 2.91496 0.619188 0
M  V30 36861 H 3443.02 1.44129 0.294126 0
M  V30 36862 H 3444.97 2.79611 3.09634 0
M  V30 36863 H 3443.6 1.71327 2.73581 0
M  V30 36864 H 3442.66 3.60205 1.22296 0
M  V30 36865 H 3443.97 4.64809 1.80981 0
M  V30 36866 H 3443.12 4.42131 4.15458 0
M  V30 36867 H 3441.86 3.27945 3.60975 0
M  V30 36868 H 3440.87 5.06119 2.14764 0
M  V30 36869 H 3442.09 6.22191 2.72131 0
M  V30 36870 H 3440.04 4.80745 4.46341 0
M  V30 36871 H 3439.95 6.45571 3.93414 0
M  V30 36872 H 3441.22 5.96543 5.01754 0
M  V30 36873 N 3445.45 -0.308854 1.54544 0
M  V30 36874 C 3446.87 -0.654063 1.45582 0
M  V30 36875 C 3447.07 -1.91045 0.640631 0
M  V30 36876 O 3446.12 -2.52082 0.145224 0
M  V30 36877 C 3447.44 -0.814371 2.89462 0
M  V30 36878 C 3448.98 -0.910764 2.99456 0
M  V30 36879 C 3449.46 -1.10313 4.44517 0
M  V30 36880 N 3450.95 -1.16952 4.48192 0
M  V30 36881 C 3451.69 -1.33652 5.57606 0
M  V30 36882 N 3451.18 -1.47299 6.7696 0
M  V30 36883 N 3452.97 -1.36477 5.4528 0
M  V30 36884 H 3445.13 0.516735 2.06018 0
M  V30 36885 H 3447.39 0.169487 0.932726 0
M  V30 36886 H 3447.09 0.0378073 3.5168 0
M  V30 36887 H 3446.97 -1.70576 3.36428 0
M  V30 36888 H 3449.36 -1.75344 2.37358 0
M  V30 36889 H 3449.44 0.00447668 2.558 0
M  V30 36890 H 3449.08 -0.265257 5.07207 0
M  V30 36891 H 3449.01 -2.03247 4.85796 0
M  V30 36892 H 3451.5 -1.0779 3.62201 0
M  V30 36893 H 3451.81 -1.59775 7.56103 0
M  V30 36894 H 3450.16 -1.4437 6.7984 0
M  V30 36895 H 3453.35 -1.25421 4.50985 0
M  V30 36896 H 3453.52 -1.49149 6.30602 0
M  V30 36897 N 3446.93 -1.46867 -0.571659 0
M  V30 36898 C 3448.16 -1.56111 -1.35325 0
M  V30 36899 C 3448.57 -0.205073 -1.88085 0
M  V30 36900 O 3447.91 0.809597 -1.64898 0
M  V30 36901 C 3447.97 -2.51446 -2.56934 0
M  V30 36902 C 3447.64 -3.97455 -2.25563 0
M  V30 36903 C 3448.63 -4.86354 -1.83728 0
M  V30 36904 C 3446.32 -4.42676 -2.37367 0
M  V30 36905 C 3448.31 -6.1849 -1.54107 0
M  V30 36906 C 3446 -5.74844 -2.07358 0
M  V30 36907 C 3447 -6.62572 -1.65794 0
M  V30 36908 O 3446.69 -7.92285 -1.36159 0
M  V30 36909 H 3446.42 -0.530202 -0.419359 0
M  V30 36910 H 3448.97 -1.93074 -0.700826 0
M  V30 36911 H 3447.2 -2.09522 -3.25019 0
M  V30 36912 H 3448.89 -2.50976 -3.19008 0
M  V30 36913 H 3449.66 -4.52669 -1.74114 0
M  V30 36914 H 3445.54 -3.74609 -2.6868 0
M  V30 36915 H 3449.08 -6.86922 -1.21591 0
M  V30 36916 H 3444.98 -6.08074 -2.166 0
M  V30 36917 H 3445.74 -8.04654 -1.49911 0
M  V30 36918 N 3448.41 0.817212 -1.34757 0
M  V30 36919 C 3449.64 1.60301 -1.30335 0
M  V30 36920 C 3450.05 1.88796 0.123537 0
M  V30 36921 O 3449.39 1.48398 1.08276 0
M  V30 36922 C 3449.45 2.96574 -2.03184 0
M  V30 36923 C 3449.11 2.90946 -3.52419 0
M  V30 36924 C 3450.11 2.65128 -4.47217 0
M  V30 36925 C 3447.8 3.10398 -3.94916 0
M  V30 36926 C 3449.79 2.58822 -5.82486 0
M  V30 36927 C 3447.48 3.03716 -5.30283 0
M  V30 36928 C 3448.48 2.77962 -6.2388 0
M  V30 36929 O 3448.16 2.71224 -7.56765 0
M  V30 36930 H 3447.9 0.504792 -0.449623 0
M  V30 36931 H 3450.45 1.0244 -1.78032 0
M  V30 36932 H 3448.68 3.56376 -1.5011 0
M  V30 36933 H 3450.37 3.5763 -1.91979 0
M  V30 36934 H 3451.13 2.49829 -4.15705 0
M  V30 36935 H 3447.01 3.29458 -3.22457 0
M  V30 36936 H 3450.56 2.3864 -6.55513 0
M  V30 36937 H 3446.45 3.1857 -5.61412 0
M  V30 36938 H 3447.22 2.86909 -7.66567 0
M  V30 36939 N 3449.89 1.1858 1.0381 0
M  V30 36940 C 3451.13 0.982749 1.77055 0
M  V30 36941 C 3451.46 -0.487388 1.88294 0
M  V30 36942 O 3450.72 -1.3781 1.38949 0
M  V30 36943 C 3451.01 1.58576 3.20294 0
M  V30 36944 C 3450.68 3.08246 3.29083 0
M  V30 36945 C 3449.34 3.49096 3.31188 0
M  V30 36946 C 3451.69 4.04259 3.28974 0
M  V30 36947 C 3449.02 4.84529 3.30831 0
M  V30 36948 C 3451.37 5.39611 3.30156 0
M  V30 36949 C 3450.04 5.79905 3.30555 0
M  V30 36950 H 3449.31 0.359613 0.647888 0
M  V30 36951 H 3451.96 1.47684 1.21909 0
M  V30 36952 H 3450.26 1.01374 3.78458 0
M  V30 36953 H 3451.96 1.40404 3.75616 0
M  V30 36954 H 3448.55 2.7569 3.28166 0
M  V30 36955 H 3452.73 3.73749 3.26536 0
M  V30 36956 H 3447.99 5.15041 3.29458 0
M  V30 36957 H 3452.16 6.13773 3.29022 0
M  V30 36958 H 3449.79 6.84823 3.30032 0
M  V30 36959 N 3451.36 -1.22766 0.988245 0
M  V30 36960 C 3452.59 -1.95414 0.679777 0
M  V30 36961 C 3453.01 -1.7306 -0.754701 0
M  V30 36962 O 3452.36 -1.02681 -1.50874 0
M  V30 36963 C 3452.41 -3.48232 0.970405 0
M  V30 36964 O 3452.14 -3.69833 2.34851 0
M  V30 36965 C 3453.64 -4.38069 0.678987 0
M  V30 36966 H 3450.86 -0.621939 0.251858 0
M  V30 36967 H 3453.4 -1.56044 1.32176 0
M  V30 36968 H 3451.56 -3.85587 0.374309 0
M  V30 36969 H 3451.97 -4.64068 2.4442 0
M  V30 36970 H 3453.44 -5.44064 0.932645 0
M  V30 36971 H 3453.92 -4.37492 -0.386996 0
M  V30 36972 H 3454.53 -4.06333 1.25592 0
M  V30 36973 N 3452.84 -0.760864 -1.38017 0
M  V30 36974 C 3454.12 -0.245471 -1.94054 0
M  V30 36975 C 3454.5 1.25758 -1.69553 0
M  V30 36976 O 3453.85 2.03555 -1.03815 0
M  V30 36977 C 3454.06 -0.607046 -3.4368 0
M  V30 36978 C 3455.4 -0.570747 -4.20747 0
M  V30 36979 O 3456.43 -0.545777 -3.51994 0
M  V30 36980 O 3455.29 -0.588139 -5.43326 0
M  V30 36981 H 3452.38 -0.0535752 -0.825263 0
M  V30 36982 H 3454.93 -0.841479 -1.47368 0
M  V30 36983 H 3453.7 -1.64482 -3.55051 0
M  V30 36984 H 3453.32 0.0165877 -3.97597 0
M  V30 36985 N 3454.32 1.49102 -0.510519 0
M  V30 36986 C 3455.23 2.33074 0.267135 0
M  V30 36987 C 3456.25 1.45247 0.958092 0
M  V30 36988 O 3457.42 1.78257 0.937368 0
M  V30 36989 C 3454.49 3.20914 1.31207 0
M  V30 36990 C 3453.55 4.246 0.633538 0
M  V30 36991 C 3452.78 5.08242 1.62869 0
M  V30 36992 O 3453 4.93548 2.85949 0
M  V30 36993 O 3451.94 5.90245 1.17877 0
M  V30 36994 H 3455.76 3.00776 -0.420437 0
M  V30 36995 H 3453.35 1.46908 -0.271709 0
M  V30 36996 H 3455.23 3.75302 1.91641 0
M  V30 36997 H 3453.91 2.55896 1.9824 0
M  V30 36998 H 3452.81 3.74098 -0.0107904 0
M  V30 36999 H 3454.15 4.922 0.00549118 0
M  V30 37000 N 3455.8 0.244768 1.55688 0
M  V30 37001 C 3457.03 -0.384215 2.02996 0
M  V30 37002 C 3457.44 -1.52237 1.12341 0
M  V30 37003 O 3456.78 -1.83241 0.129836 0
M  V30 37004 C 3456.84 -0.95564 3.46566 0
M  V30 37005 C 3456.5 0.0499979 4.56973 0
M  V30 37006 C 3457.5 0.858772 5.12758 0
M  V30 37007 C 3455.19 0.175471 5.01993 0
M  V30 37008 C 3457.18 1.7795 6.12056 0
M  V30 37009 C 3454.87 1.0997 6.01124 0
M  V30 37010 C 3455.87 1.90024 6.56033 0
M  V30 37011 O 3455.55 2.8089 7.5323 0
M  V30 37012 H 3455.29 -0.0957094 0.66919 0
M  V30 37013 H 3457.84 0.365586 2.0212 0
M  V30 37014 H 3456.07 -1.75496 3.44584 0
M  V30 37015 H 3457.76 -1.49447 3.77386 0
M  V30 37016 H 3458.52 0.772409 4.7881 0
M  V30 37017 H 3454.4 -0.437564 4.58919 0
M  V30 37018 H 3457.95 2.40477 6.54841 0
M  V30 37019 H 3453.84 1.187 6.34492 0
M  V30 37020 H 3454.61 2.75227 7.70839 0
M  V30 37021 N 3457.28 -1.57574 -0.0283712 0
M  V30 37022 C 3458.52 -1.88484 -0.718088 0
M  V30 37023 C 3458.84 -0.843376 -1.76484 0
M  V30 37024 O 3460.04 -1.04173 -2.50719 0
M  V30 37025 C 3458.5 -3.34492 -1.32827 0
M  V30 37026 C 3458.11 -4.46871 -0.317826 0
M  V30 37027 C 3459.85 -3.7455 -1.99782 0
M  V30 37028 C 3457.76 -5.8394 -0.936386 0
M  V30 37029 H 3456.69 -0.703246 -0.271957 0
M  V30 37030 H 3459.34 -1.83479 0.0275185 0
M  V30 37031 H 3457.72 -3.34244 -2.1236 0
M  V30 37032 H 3458.9 -4.58589 0.450848 0
M  V30 37033 H 3457.21 -4.15651 0.249678 0
M  V30 37034 H 3459.81 -4.74275 -2.46915 0
M  V30 37035 H 3460.15 -3.0658 -2.81628 0
M  V30 37036 H 3460.68 -3.76975 -1.27022 0
M  V30 37037 H 3457.42 -6.55311 -0.157324 0
M  V30 37038 H 3456.94 -5.75941 -1.67488 0
M  V30 37039 H 3458.62 -6.30691 -1.44352 0
M  V30 37040 N 3458.75 0.300654 -1.54706 0
M  V30 37041 C 3459.72 1.35392 -1.84937 0
M  V30 37042 C 3460.72 1.43665 -0.722285 0
M  V30 37043 O 3461.91 1.43295 -0.990568 0
M  V30 37044 C 3459.04 2.73872 -2.02995 0
M  V30 37045 H 3460.23 1.0983 -2.79065 0
M  V30 37046 H 3457.78 0.537339 -1.46773 0
M  V30 37047 H 3458.52 3.04655 -1.11156 0
M  V30 37048 H 3458.3 2.69257 -2.85032 0
M  V30 37049 H 3459.79 3.50026 -2.27753 0
M  V30 37050 N 3460.23 1.47168 0.563863 0
M  V30 37051 C 3461.2 1.58714 1.65356 0
M  V30 37052 C 3462.2 0.462747 1.53998 0
M  V30 37053 O 3463.39 0.727623 1.58276 0
M  V30 37054 C 3460.52 1.52534 3.04871 0
M  V30 37055 H 3461.71 2.55846 1.5647 0
M  V30 37056 H 3459.26 1.35259 0.783248 0
M  V30 37057 H 3460 0.567526 3.19296 0
M  V30 37058 H 3459.78 2.34131 3.14524 0
M  V30 37059 H 3461.27 1.63738 3.84161 0
M  V30 37060 N 3461.71 -0.810054 1.35188 0
M  V30 37061 C 3462.94 -1.59839 1.31374 0
M  V30 37062 C 3463.35 -1.88482 -0.109514 0
M  V30 37063 O 3462.71 -1.48529 -1.06045 0
M  V30 37064 C 3462.76 -2.93171 2.11502 0
M  V30 37065 O 3462.48 -2.65771 3.48277 0
M  V30 37066 C 3463.98 -3.87543 2.15233 0
M  V30 37067 H 3461.2 -0.496433 0.451437 0
M  V30 37068 H 3463.75 -1.00694 1.77992 0
M  V30 37069 H 3461.9 -3.4884 1.68493 0
M  V30 37070 H 3462.32 -3.50879 3.89851 0
M  V30 37071 H 3463.79 -4.78222 2.75696 0
M  V30 37072 H 3464.27 -4.23873 1.15015 0
M  V30 37073 H 3464.87 -3.3781 2.58388 0
M  V30 37074 N 3463.19 -1.19129 -1.0318 0
M  V30 37075 C 3464.44 -0.990165 -1.76182 0
M  V30 37076 C 3464.76 0.480513 -1.88987 0
M  V30 37077 O 3464.03 1.34815 -1.42133 0
M  V30 37078 H 3462.61 -0.363376 -0.652661 0
M  V30 37079 H 3465.27 -1.49971 -1.24478 0
M  V30 37080 H 3464.37 -1.43572 -2.77116 0
M  V30 37081 N 3464.67 1.2224 -0.994741 0
M  V30 37082 C 3465.89 1.95591 -0.689843 0
M  V30 37083 C 3466.32 1.72963 0.73929 0
M  V30 37084 O 3465.67 1.00999 1.50562 0
M  V30 37085 C 3465.72 3.46349 -1.00373 0
M  V30 37086 O 3464.83 4.1227 -0.103398 0
M  V30 37087 H 3464.17 0.611823 -0.258008 0
M  V30 37088 H 3466.7 1.55284 -1.33222 0
M  V30 37089 H 3466.71 3.96874 -0.946329 0
M  V30 37090 H 3465.38 3.62144 -2.0451 0
M  V30 37091 H 3463.96 3.72271 -0.21644 0
M  V30 37092 N 3466.14 0.768172 1.37611 0
M  V30 37093 C 3467.39 0.331366 2.00075 0
M  V30 37094 C 3467.72 -1.0883 1.60841 0
M  V30 37095 O 3467 -1.74803 0.85288 0
M  V30 37096 C 3467.28 0.470852 3.57008 0
M  V30 37097 C 3467.13 1.93267 4.06162 0
M  V30 37098 C 3468.45 -0.127033 4.39917 0
M  V30 37099 H 3465.57 0.121876 0.726853 0
M  V30 37100 H 3468.21 0.970546 1.63341 0
M  V30 37101 H 3466.36 -0.0733005 3.88431 0
M  V30 37102 H 3468.04 2.53625 3.85321 0
M  V30 37103 H 3466.28 2.44272 3.58488 0
M  V30 37104 H 3466.95 1.98135 5.15215 0
M  V30 37105 H 3469.43 0.337217 4.14731 0
M  V30 37106 H 3468.3 0.000720709 5.489 0
M  V30 37107 H 3468.56 -1.21696 4.25021 0
M  V30 37108 N 3467.62 -1.48829 0.518419 0
M  V30 37109 C 3468.87 -2.01688 -0.0218081 0
M  V30 37110 C 3469.18 -1.40176 -1.36418 0
M  V30 37111 O 3470.39 -1.84465 -1.99211 0
M  V30 37112 C 3468.85 -3.59789 -0.0892906 0
M  V30 37113 C 3468.45 -4.30281 1.24749 0
M  V30 37114 C 3470.2 -4.20533 -0.578958 0
M  V30 37115 C 3468.11 -5.80284 1.14122 0
M  V30 37116 H 3467.04 -0.753906 -0.011922 0
M  V30 37117 H 3469.69 -1.71202 0.660463 0
M  V30 37118 H 3468.07 -3.87067 -0.83639 0
M  V30 37119 H 3469.24 -4.14688 2.00925 0
M  V30 37120 H 3467.56 -3.81358 1.67197 0
M  V30 37121 H 3470.15 -5.30406 -0.67625 0
M  V30 37122 H 3470.5 -3.85069 -1.582 0
M  V30 37123 H 3471.03 -3.97642 0.112116 0
M  V30 37124 H 3467.77 -6.20303 2.11906 0
M  V30 37125 H 3467.29 -5.98323 0.42064 0
M  V30 37126 H 3468.97 -6.41692 0.827104 0
M  V30 37127 N 3469.1 -0.253021 -1.55556 0
M  V30 37128 C 3470.35 0.370536 -1.98267 0
M  V30 37129 C 3470.66 1.5862 -1.14451 0
M  V30 37130 O 3471.87 2.2813 -1.47204 0
M  V30 37131 C 3470.32 0.710623 -3.52815 0
M  V30 37132 C 3469.93 -0.483986 -4.45378 0
M  V30 37133 C 3471.68 1.29803 -4.04168 0
M  V30 37134 C 3469.58 -0.119715 -5.91279 0
M  V30 37135 H 3468.51 0.142219 -0.740466 0
M  V30 37136 H 3471.16 -0.3542 -1.80049 0
M  V30 37137 H 3469.55 1.49366 -3.6675 0
M  V30 37138 H 3470.72 -1.26124 -4.43204 0
M  V30 37139 H 3469.04 -0.986736 -4.0454 0
M  V30 37140 H 3471.63 1.58401 -5.10699 0
M  V30 37141 H 3471.98 2.22456 -3.51879 0
M  V30 37142 H 3472.51 0.577767 -3.93582 0
M  V30 37143 H 3469.25 -1.01354 -6.47617 0
M  V30 37144 H 3468.77 0.621213 -5.96574 0
M  V30 37145 H 3470.45 0.295938 -6.46323 0
M  V30 37146 N 3470.58 1.57587 0.0200142 0
M  V30 37147 C 3471.86 1.8086 0.744914 0
M  V30 37148 C 3472.24 0.853252 1.93088 0
M  V30 37149 O 3471.58 -0.10257 2.2827 0
M  V30 37150 C 3471.79 3.28823 1.16946 0
M  V30 37151 C 3473.14 3.94043 1.58163 0
M  V30 37152 O 3474.17 3.33026 1.2638 0
M  V30 37153 O 3473.02 5.01489 2.17188 0
M  V30 37154 H 3470.12 0.744057 0.360982 0
M  V30 37155 H 3472.66 1.697 -0.00390357 0
M  V30 37156 H 3471.44 3.89963 0.323235 0
M  V30 37157 H 3471.06 3.44907 1.97801 0
M  V30 37158 N 3472.06 -0.292445 1.54863 0
M  V30 37159 C 3473.3 -1.02455 1.74205 0
M  V30 37160 C 3473.63 -1.87505 0.535431 0
M  V30 37161 O 3472.9 -1.90658 -0.45013 0
M  V30 37162 H 3471.48 -0.381265 0.642375 0
M  V30 37163 H 3474.14 -0.321365 1.92232 0
M  V30 37164 H 3473.23 -1.67273 2.63489 0
M  V30 37165 N 3473.53 -1.47465 -0.55605 0
M  V30 37166 C 3474.44 -1.62674 -1.6904 0
M  V30 37167 C 3475.46 -0.509564 -1.66371 0
M  V30 37168 O 3476.64 -0.777251 -1.85798 0
M  V30 37169 C 3473.7 -1.63841 -3.05544 0
M  V30 37170 C 3472.76 -2.86993 -3.1927 0
M  V30 37171 C 3472 -2.88096 -4.49262 0
M  V30 37172 O 3472.22 -1.98377 -5.34792 0
M  V30 37173 O 3471.15 -3.79971 -4.66804 0
M  V30 37174 H 3474.98 -2.58659 -1.59151 0
M  V30 37175 H 3472.56 -1.30564 -0.726189 0
M  V30 37176 H 3474.45 -1.67282 -3.86775 0
M  V30 37177 H 3473.12 -0.710229 -3.15812 0
M  V30 37178 H 3472.03 -2.89097 -2.37432 0
M  V30 37179 H 3473.36 -3.7911 -3.13906 0
M  V30 37180 N 3475.01 0.802873 -1.35616 0
M  V30 37181 C 3475.92 1.94642 -1.30964 0
M  V30 37182 C 3476.94 1.7268 -0.213939 0
M  V30 37183 O 3478.12 1.96446 -0.443966 0
M  V30 37184 C 3475.18 3.29289 -1.08489 0
M  V30 37185 C 3474.24 3.64122 -2.27407 0
M  V30 37186 C 3473.47 4.92343 -2.05995 0
M  V30 37187 O 3473.7 5.61055 -1.02829 0
M  V30 37188 O 3472.63 5.25521 -2.93448 0
M  V30 37189 H 3476.46 2.01515 -2.27212 0
M  V30 37190 H 3474.04 0.941194 -1.16025 0
M  V30 37191 H 3475.92 4.09889 -0.97819 0
M  V30 37192 H 3474.6 3.23338 -0.152942 0
M  V30 37193 H 3473.51 2.83882 -2.43643 0
M  V30 37194 H 3474.84 3.7478 -3.19062 0
M  V30 37195 N 3476.49 1.19674 1.02547 0
M  V30 37196 C 3477.72 1.02534 1.79361 0
M  V30 37197 C 3478.13 -0.428898 1.84275 0
M  V30 37198 O 3477.47 -1.30967 1.28816 0
M  V30 37199 C 3477.53 1.52254 3.25667 0
M  V30 37200 C 3477.2 3.00418 3.44381 0
M  V30 37201 C 3478.2 3.98152 3.34322 0
M  V30 37202 C 3475.88 3.39185 3.70485 0
M  V30 37203 C 3477.87 5.32646 3.50096 0
M  V30 37204 C 3475.56 4.73837 3.85904 0
M  V30 37205 C 3476.56 5.70376 3.75713 0
M  V30 37206 O 3476.25 7.02588 3.90672 0
M  V30 37207 H 3475.98 0.361554 0.571187 0
M  V30 37208 H 3478.53 1.59004 1.30026 0
M  V30 37209 H 3476.76 0.901614 3.76042 0
M  V30 37210 H 3478.45 1.31269 3.84088 0
M  V30 37211 H 3479.22 3.69547 3.14102 0
M  V30 37212 H 3475.1 2.64591 3.77508 0
M  V30 37213 H 3478.64 6.07982 3.42058 0
M  V30 37214 H 3474.54 5.02136 4.05622 0
M  V30 37215 H 3475.31 7.0971 4.07743 0
M  V30 37216 N 3477.97 -1.21711 1.00121 0
M  V30 37217 C 3479.2 -1.944 0.69945 0
M  V30 37218 C 3479.61 -1.74071 -0.741346 0
M  V30 37219 O 3478.95 -1.04206 -1.51284 0
M  V30 37220 C 3479.01 -3.47103 0.935936 0
M  V30 37221 C 3478.68 -3.91177 2.36283 0
M  V30 37222 C 3479.67 -3.98184 3.34283 0
M  V30 37223 C 3477.36 -4.23596 2.69948 0
M  V30 37224 C 3479.35 -4.36997 4.64018 0
M  V30 37225 C 3477.04 -4.62087 3.99899 0
M  V30 37226 C 3478.04 -4.68757 4.96745 0
M  V30 37227 O 3477.73 -5.06373 6.24373 0
M  V30 37228 H 3477.46 -0.625141 0.257244 0
M  V30 37229 H 3480.01 -1.55583 1.34101 0
M  V30 37230 H 3478.24 -3.85972 0.237201 0
M  V30 37231 H 3479.93 -4.0101 0.628146 0
M  V30 37232 H 3480.7 -3.73319 3.09609 0
M  V30 37233 H 3476.58 -4.17604 1.95264 0
M  V30 37234 H 3480.12 -4.42118 5.39608 0
M  V30 37235 H 3476.02 -4.86405 4.24359 0
M  V30 37236 H 3476.78 -5.24418 6.28433 0
M  V30 37237 N 3479.45 -0.775459 -1.37202 0
M  V30 37238 C 3480.69 -0.341466 -1.996 0
M  V30 37239 C 3481.02 1.08304 -1.61557 0
M  V30 37240 O 3480.28 1.76027 -0.855157 0
M  V30 37241 C 3480.58 -0.436489 -3.54725 0
M  V30 37242 C 3480.24 -1.81978 -4.12547 0
M  V30 37243 C 3478.9 -2.19829 -4.28052 0
M  V30 37244 C 3481.26 -2.72618 -4.44217 0
M  V30 37245 C 3478.58 -3.4775 -4.72532 0
M  V30 37246 C 3480.94 -3.99952 -4.90124 0
M  V30 37247 C 3479.6 -4.37844 -5.03835 0
M  V30 37248 H 3478.87 -0.124951 -0.730389 0
M  V30 37249 H 3481.52 -0.990206 -1.63912 0
M  V30 37250 H 3479.82 0.295784 -3.90682 0
M  V30 37251 H 3481.52 -0.0819369 -4.00916 0
M  V30 37252 H 3478.11 -1.5156 -4.00908 0
M  V30 37253 H 3482.29 -2.44633 -4.3182 0
M  V30 37254 H 3477.55 -3.76998 -4.81334 0
M  V30 37255 H 3481.72 -4.70311 -5.13595 0
M  V30 37256 H 3479.35 -5.37024 -5.3806 0
M  V30 37257 N 3480.93 1.48552 -0.526305 0
M  V30 37258 C 3482.2 1.95462 0.0733506 0
M  V30 37259 C 3482.58 1.46846 1.51656 0
M  V30 37260 O 3481.93 0.693331 2.17727 0
M  V30 37261 C 3482.14 3.48977 -0.0401023 0
M  V30 37262 C 3483.49 4.24427 0.121033 0
M  V30 37263 O 3484.51 3.56184 0.0338709 0
M  V30 37264 O 3483.37 5.45658 0.303201 0
M  V30 37265 H 3480.47 0.822991 0.0813353 0
M  V30 37266 H 3483.01 1.5909 -0.590642 0
M  V30 37267 H 3481.78 3.77072 -1.04557 0
M  V30 37268 H 3481.41 3.92035 0.662906 0
M  V30 37269 N 3482.4 0.261267 1.55419 0
M  V30 37270 C 3483.81 -0.239162 1.85162 0
M  V30 37271 C 3484.17 -1.56507 1.18322 0
M  V30 37272 O 3483.29 -2.11309 0.466637 0
M  V30 37273 C 3483.89 -0.440721 3.35921 0
M  V30 37274 C 3482.44 -0.885397 3.65838 0
M  V30 37275 C 3481.59 0.0292469 2.77285 0
M  V30 37276 H 3484.54 0.483444 1.51157 0
M  V30 37277 H 3484.56 -1.2813 3.58278 0
M  V30 37278 H 3484.08 0.524449 3.8454 0
M  V30 37279 H 3482.18 -1.86253 3.22708 0
M  V30 37280 H 3482.29 -0.73231 4.7347 0
M  V30 37281 H 3480.65 -0.484657 2.50046 0
M  V30 37282 H 3481.44 0.99005 3.28714 0
M  V30 37283 N 3483.88 -1.57596 -0.0116567 0
M  V30 37284 C 3485.16 -1.81253 -0.735312 0
M  V30 37285 C 3485.54 -0.86348 -1.92632 0
M  V30 37286 O 3484.89 0.0904626 -2.28321 0
M  V30 37287 C 3485.1 -3.29439 -1.15201 0
M  V30 37288 C 3486.44 -3.94876 -1.56071 0
M  V30 37289 O 3487.47 -3.33692 -1.24612 0
M  V30 37290 O 3486.33 -5.02634 -2.14526 0
M  V30 37291 H 3483.42 -0.745961 -0.357031 0
M  V30 37292 H 3485.97 -1.69695 0.0129031 0
M  V30 37293 H 3484.74 -3.90129 -0.30255 0
M  V30 37294 H 3484.36 -3.45951 -1.95969 0
M  V30 37295 N 3485.36 0.284228 -1.55016 0
M  V30 37296 C 3486.59 1.03583 -1.79104 0
M  V30 37297 C 3487 1.80342 -0.558765 0
M  V30 37298 O 3486.36 1.76294 0.471894 0
M  V30 37299 C 3486.41 2.00325 -3.00919 0
M  V30 37300 O 3486.13 1.26677 -4.19386 0
M  V30 37301 C 3487.63 2.87388 -3.37525 0
M  V30 37302 H 3484.85 0.30648 -0.596918 0
M  V30 37303 H 3487.4 0.318415 -2.02006 0
M  V30 37304 H 3485.55 2.67545 -2.80176 0
M  V30 37305 H 3485.97 1.91788 -4.88178 0
M  V30 37306 H 3487.44 3.51088 -4.2596 0
M  V30 37307 H 3487.92 3.56571 -2.56425 0
M  V30 37308 H 3488.52 2.25676 -3.60487 0
M  V30 37309 N 3486.84 1.47758 0.548222 0
M  V30 37310 C 3487.8 1.60459 1.63663 0
M  V30 37311 C 3488.8 0.479055 1.53498 0
M  V30 37312 O 3489.99 0.74437 1.57495 0
M  V30 37313 C 3487.12 1.55759 3.03236 0
M  V30 37314 H 3488.32 2.57491 1.53748 0
M  V30 37315 H 3485.87 1.36082 0.768858 0
M  V30 37316 H 3486.6 0.601359 3.18676 0
M  V30 37317 H 3486.39 2.37454 3.12023 0
M  V30 37318 H 3487.88 1.67803 3.82403 0
M  V30 37319 N 3488.32 -0.79567 1.3604 0
M  V30 37320 C 3489.25 -1.91646 1.25716 0
M  V30 37321 C 3490.26 -1.61824 0.178021 0
M  V30 37322 O 3491.45 -1.73188 0.432216 0
M  V30 37323 C 3488.55 -3.26297 0.915604 0
M  V30 37324 C 3487.72 -3.83945 2.09535 0
M  V30 37325 C 3486.78 -4.97023 1.72784 0
M  V30 37326 O 3485.81 -5.13872 2.44795 0
M  V30 37327 N 3487.01 -5.7676 0.657851 0
M  V30 37328 H 3489.77 -2.01026 2.22281 0
M  V30 37329 H 3487.34 -0.973635 1.29352 0
M  V30 37330 H 3489.33 -3.99429 0.651028 0
M  V30 37331 H 3487.9 -3.12575 0.0392892 0
M  V30 37332 H 3487.12 -3.02876 2.52309 0
M  V30 37333 H 3488.41 -4.19191 2.88368 0
M  V30 37334 H 3487.8 -5.65668 0.0597869 0
M  V30 37335 H 3486.36 -6.50223 0.453084 0
M  V30 37336 N 3489.79 -1.20217 -1.0191 0
M  V30 37337 C 3490.72 -0.972598 -2.1228 0
M  V30 37338 C 3491.71 0.097541 -1.6982 0
M  V30 37339 O 3492.89 -0.0594648 -1.94109 0
M  V30 37340 C 3490.02 -0.521145 -3.43368 0
M  V30 37341 C 3488.97 -1.53424 -3.99556 0
M  V30 37342 C 3488.3 -0.939512 -5.26381 0
M  V30 37343 C 3489.6 -2.91726 -4.33236 0
M  V30 37344 H 3491.29 -1.89567 -2.31743 0
M  V30 37345 H 3488.84 -0.91286 -1.11368 0
M  V30 37346 H 3490.79 -0.347786 -4.19962 0
M  V30 37347 H 3489.52 0.437549 -3.23656 0
M  V30 37348 H 3488.18 -1.69492 -3.25066 0
M  V30 37349 H 3487.82 0.0270352 -5.02993 0
M  V30 37350 H 3487.52 -1.6161 -5.64939 0
M  V30 37351 H 3489.05 -0.777166 -6.05634 0
M  V30 37352 H 3490.46 -2.79184 -5.00729 0
M  V30 37353 H 3488.86 -3.56268 -4.82901 0
M  V30 37354 H 3489.93 -3.43639 -3.42112 0
M  V30 37355 N 3491.27 1.21178 -1.00765 0
M  V30 37356 C 3492.52 1.90596 -0.692884 0
M  V30 37357 C 3492.85 1.7808 0.774667 0
M  V30 37358 O 3492.13 1.15917 1.56184 0
M  V30 37359 C 3492.41 3.42306 -1.11798 0
M  V30 37360 C 3492.26 3.638 -2.64518 0
M  V30 37361 C 3493.58 4.34777 -0.68239 0
M  V30 37362 H 3490.7 0.692145 -0.253187 0
M  V30 37363 H 3493.34 1.42758 -1.2538 0
M  V30 37364 H 3491.49 3.8318 -0.640732 0
M  V30 37365 H 3493.16 3.32236 -3.20026 0
M  V30 37366 H 3491.41 3.07575 -3.05908 0
M  V30 37367 H 3492.08 4.70108 -2.89314 0
M  V30 37368 H 3494.55 4.01501 -1.09254 0
M  V30 37369 H 3493.43 5.39566 -1.00796 0
M  V30 37370 H 3493.69 4.40135 0.416364 0
M  V30 37371 N 3492.75 0.782725 1.36789 0
M  V30 37372 C 3494 0.348669 1.98664 0
M  V30 37373 C 3494.31 -1.08379 1.62829 0
M  V30 37374 O 3495.52 -1.61978 2.17889 0
M  V30 37375 C 3493.97 0.572455 3.55318 0
M  V30 37376 C 3493.58 2.01589 4.00082 0
M  V30 37377 C 3495.33 0.20257 4.24016 0
M  V30 37378 C 3493.23 2.18669 5.49489 0
M  V30 37379 H 3492.16 0.126625 0.743291 0
M  V30 37380 H 3494.81 0.96341 1.56175 0
M  V30 37381 H 3493.2 -0.111903 3.95842 0
M  V30 37382 H 3494.37 2.7361 3.70775 0
M  V30 37383 H 3492.69 2.34339 3.44201 0
M  V30 37384 H 3495.28 0.308553 5.33809 0
M  V30 37385 H 3495.63 -0.848519 4.07561 0
M  V30 37386 H 3496.16 0.839902 3.88832 0
M  V30 37387 H 3492.9 3.22136 5.70884 0
M  V30 37388 H 3492.42 1.51145 5.80444 0
M  V30 37389 H 3494.1 1.99059 6.15617 0
M  V30 37390 N 3494.23 -1.48271 0.534176 0
M  V30 37391 C 3495.45 -2.074 0.00372109 0
M  V30 37392 C 3495.88 -1.38753 -1.27001 0
M  V30 37393 O 3495.24 -0.454848 -1.75502 0
M  V30 37394 C 3495.28 -3.60051 -0.198971 0
M  V30 37395 O 3494.39 -3.92464 -1.26672 0
M  V30 37396 H 3493.73 -0.662733 0.0410052 0
M  V30 37397 H 3496.26 -1.90621 0.743286 0
M  V30 37398 H 3496.27 -4.05829 -0.420333 0
M  V30 37399 H 3494.94 -4.09417 0.731463 0
M  V30 37400 H 3493.52 -3.58459 -1.02768 0
M  V30 37401 N 3495.71 -0.269505 -1.55279 0
M  V30 37402 C 3496.62 0.630611 -2.25966 0
M  V30 37403 C 3497.63 1.17474 -1.28359 0
M  V30 37404 O 3498.81 1.20622 -1.61283 0
M  V30 37405 C 3495.87 1.80076 -2.96266 0
M  V30 37406 C 3494.93 1.29386 -4.09338 0
M  V30 37407 C 3494.17 2.40824 -4.76276 0
M  V30 37408 O 3494.39 3.60059 -4.42396 0
M  V30 37409 O 3493.32 2.09299 -5.64338 0
M  V30 37410 H 3497.15 0.0581535 -3.03644 0
M  V30 37411 H 3494.74 -0.0371228 -1.49354 0
M  V30 37412 H 3496.62 2.48317 -3.40466 0
M  V30 37413 H 3495.29 2.36041 -2.21509 0
M  V30 37414 H 3494.2 0.578089 -3.69606 0
M  V30 37415 H 3495.53 0.780031 -4.8598 0
M  V30 37416 O 3497.22 1.60935 -0.134932 0
M  V30 37417 H 3497.91 1.88132 0.461094 0
M  V30 END ATOM
M  V30 BEGIN BOND
M  V30 END BOND
M  V30 END CTAB
M  END
$$$$
