drugbank_target|P18283 Glutathione peroxidase 2 (DB00143; DB03310)
 OpenBabel12092119403D

  0  0  0     0  0            999 V3000
M  V30 BEGIN CTAB
M  V30 COUNTS 3078 3119 0 0 0
M  V30 BEGIN ATOM
M  V30 1 H -0.908 1.98254 -0.117106 0
M  V30 2 N 0 1.576 0 0
M  V30 3 C 0.933 2.03868 1.02534 0
M  V30 4 C 1.911 0.928543 1.3348 0
M  V30 5 O 3.095 1.19667 1.45644 0
M  V30 6 C 0.222 2.43627 2.35294 0
M  V30 7 C -0.732 3.65373 2.2001 0
M  V30 8 S 0.101 5.13292 1.52614 0
M  V30 9 C 1.257 5.56322 2.86805 0
M  V30 10 H 1.49 2.90518 0.631377 0
M  V30 11 H -0.977 1.52953 0.210867 0
M  V30 12 H 0.981 2.67203 3.11629 0
M  V30 13 H -0.358 1.57376 2.7183 0
M  V30 14 H -1.165 3.90944 3.18086 0
M  V30 15 H -1.563 3.418 1.51819 0
M  V30 16 H 0.729 5.58782 3.83104 0
M  V30 17 H 1.672 6.56266 2.65933 0
M  V30 18 H 2.08 4.83886 2.90714 0
M  V30 19 N 1.4781 -0.272755 1.55222 0
M  V30 20 C 2.4411 -1.32041 1.87344 0
M  V30 21 C 3.4411 -1.42342 0.74803 0
M  V30 22 O 4.6311 -1.41488 1.0162 0
M  V30 23 C 1.7631 -2.70173 2.07893 0
M  V30 24 H 2.9561 -1.04789 2.80997 0
M  V30 25 H 0.5091 -0.51083 1.47717 0
M  V30 26 H 1.2441 -3.02605 1.16622 0
M  V30 27 H 1.0291 -2.64082 2.89833 0
M  V30 28 H 2.5191 -3.45869 2.34017 0
M  V30 29 N 2.9562 -1.48159 -0.537278 0
M  V30 30 C 4.2032 -1.55804 -1.29349 0
M  V30 31 C 4.5312 -0.228802 -1.9315 0
M  V30 32 O 3.7862 0.780242 -1.79473 0
M  V30 33 C 4.0852 -2.63956 -2.40961 0
M  V30 34 C 3.7512 -4.0662 -1.94861 0
M  V30 35 C 2.4132 -4.45452 -1.82006 0
M  V30 36 C 4.7652 -4.96055 -1.59933 0
M  V30 37 C 2.0932 -5.71531 -1.32547 0
M  V30 38 C 4.4452 -6.22617 -1.11939 0
M  V30 39 C 3.1092 -6.60312 -0.976951 0
M  V30 40 H 2.3792 -0.570129 -0.473322 0
M  V30 41 H 5.0262 -1.81845 -0.600372 0
M  V30 42 H 3.3312 -2.31747 -3.15912 0
M  V30 43 H 5.0282 -2.67089 -2.99107 0
M  V30 44 H 1.6182 -3.75949 -2.05815 0
M  V30 45 H 5.8022 -4.66738 -1.68728 0
M  V30 46 H 1.0582 -5.99468 -1.202 0
M  V30 47 H 5.2322 -6.91318 -0.839811 0
M  V30 48 H 2.8592 -7.57895 -0.591501 0
M  V30 49 N 4.4343 0.785586 -1.36625 0
M  V30 50 C 5.6833 1.53883 -1.30396 0
M  V30 51 C 5.9963 1.95271 0.113452 0
M  V30 52 O 7.2023 2.69858 0.298142 0
M  V30 53 C 5.6583 2.77808 -2.28802 0
M  V30 54 C 5.2663 2.43574 -3.75999 0
M  V30 55 C 7.0103 3.55783 -2.31558 0
M  V30 56 C 4.9173 3.63919 -4.66173 0
M  V30 57 H 3.8473 0.577678 -0.484566 0
M  V30 58 H 6.4983 0.861705 -1.62009 0
M  V30 59 H 4.8803 3.47339 -1.90188 0
M  V30 60 H 6.0543 1.81916 -4.23371 0
M  V30 61 H 4.3693 1.78803 -3.76056 0
M  V30 62 H 6.9663 4.45205 -2.96137 0
M  V30 63 H 7.3093 3.94644 -1.3252 0
M  V30 64 H 7.8423 2.93235 -2.68809 0
M  V30 65 H 4.5813 3.3015 -5.66287 0
M  V30 66 H 4.1013 4.2473 -4.23515 0
M  V30 67 H 5.7803 4.30901 -4.82632 0
M  V30 68 N 5.9124 1.20967 1.01018 0
M  V30 69 C 6.8754 0.965918 2.07853 0
M  V30 70 C 7.8754 -0.0610545 1.60684 0
M  V30 71 O 9.0654 0.175681 1.73312 0
M  V30 72 C 6.1974 0.455513 3.37843 0
M  V30 73 H 7.3904 1.91365 2.3091 0
M  V30 74 H 4.9434 1.02594 1.17916 0
M  V30 75 H 5.6784 -0.497381 3.20463 0
M  V30 76 H 5.4634 1.19622 3.73407 0
M  V30 77 H 6.9534 0.304667 4.16487 0
M  V30 78 N 7.3905 -1.2043 1.01659 0
M  V30 79 C 8.3375 -2.23215 0.586822 0
M  V30 80 C 9.3075 -1.61382 -0.393085 0
M  V30 81 O 10.4925 -1.88544 -0.292525 0
M  V30 82 C 7.6325 -3.45032 -0.0687464 0
M  V30 83 C 6.7455 -4.21296 0.955724 0
M  V30 84 C 5.8805 -5.30507 0.271208 0
M  V30 85 C 4.9195 -5.98515 1.28244 0
M  V30 86 N 4.0565 -6.99316 0.62459 0
M  V30 87 H 8.8965 -2.59336 1.46796 0
M  V30 88 H 6.4335 -1.27431 0.734836 0
M  V30 89 H 8.3915 -4.1459 -0.465965 0
M  V30 90 H 7.0215 -3.09604 -0.913529 0
M  V30 91 H 6.0735 -3.50803 1.4711 0
M  V30 92 H 7.3855 -4.6803 1.72479 0
M  V30 93 H 6.5395 -6.06428 -0.18151 0
M  V30 94 H 5.2785 -4.8481 -0.530163 0
M  V30 95 H 4.2835 -5.21355 1.74554 0
M  V30 96 H 5.5085 -6.46298 2.08509 0
M  V30 97 H 3.4545 -6.55812 -0.156914 0
M  V30 98 H 3.3715 -7.44178 1.33172 0
M  V30 99 H 4.6395 -7.79255 0.195462 0
M  V30 100 N 8.8686 -0.792821 -1.36206 0
M  V30 101 C 10.0936 -0.377701 -2.03932 0
M  V30 102 C 10.5186 0.998947 -1.59382 0
M  V30 103 O 9.8766 1.64421 -0.763903 0
M  V30 104 C 9.9246 -0.453635 -3.57735 0
M  V30 105 O 9.0286 0.538151 -4.08874 0
M  V30 106 H 8.3696 -0.159855 -0.644471 0
M  V30 107 H 10.8996 -1.07488 -1.7409 0
M  V30 108 H 10.9096 -0.318464 -4.06755 0
M  V30 109 H 9.5846 -1.45784 -3.89512 0
M  V30 110 H 8.1616 0.364359 -3.71116 0
M  V30 111 N 10.3467 1.47872 -0.545128 0
M  V30 112 C 11.5937 2.02493 -0.0165858 0
M  V30 113 C 11.9217 1.42073 1.32836 0
M  V30 114 O 11.1767 0.561459 1.87473 0
M  V30 115 C 11.4757 3.57131 0.13867 0
M  V30 116 C 11.1417 4.36411 -1.13384 0
M  V30 117 C 9.8037 4.57792 -1.48256 0
M  V30 118 C 12.1557 4.82223 -1.97764 0
M  V30 119 C 9.4837 5.22233 -2.67376 0
M  V30 120 C 11.8357 5.47977 -3.16076 0
M  V30 121 C 10.4997 5.67593 -3.51275 0
M  V30 122 H 9.7697 0.740975 -0.00606918 0
M  V30 123 H 12.4167 1.77683 -0.714207 0
M  V30 124 H 10.7217 3.80865 0.919172 0
M  V30 125 H 12.4187 3.97031 0.562782 0
M  V30 126 H 9.0087 4.2004 -0.852297 0
M  V30 127 H 13.1927 4.65493 -1.72132 0
M  V30 128 H 8.4487 5.35616 -2.94831 0
M  V30 129 H 12.6227 5.8244 -3.81755 0
M  V30 130 H 10.2497 6.17298 -4.43675 0
M  V30 131 N 11.8248 0.280983 1.55075 0
M  V30 132 C 13.0548 -0.336804 2.03836 0
M  V30 133 C 13.4628 -1.49577 1.15859 0
M  V30 134 O 12.8058 -1.82888 0.172503 0
M  V30 135 C 12.8678 -0.874616 3.48699 0
M  V30 136 C 12.5318 0.156478 4.56732 0
M  V30 137 C 13.5288 0.978032 5.10618 0
M  V30 138 C 11.2138 0.292409 5.01448 0
M  V30 139 C 13.2078 1.92165 6.07743 0
M  V30 140 C 10.8948 1.23949 5.98398 0
M  V30 141 C 11.8928 2.05261 6.51427 0
M  V30 142 O 11.5808 2.98367 7.4648 0
M  V30 143 H 11.3128 -0.0800885 0.671239 0
M  V30 144 H 13.8668 0.412589 2.01213 0
M  V30 145 H 12.0968 -1.67418 3.4858 0
M  V30 146 H 13.7858 -1.40612 3.80766 0
M  V30 147 H 14.5518 0.883782 4.7688 0
M  V30 148 H 10.4308 -0.330498 4.59814 0
M  V30 149 H 13.9748 2.55672 6.49059 0
M  V30 150 H 9.8718 1.33454 6.31554 0
M  V30 151 H 10.6398 2.93116 7.64215 0
M  V30 152 N 13.3029 -1.57598 0.00835791 0
M  V30 153 C 14.5799 -1.82172 -0.712235 0
M  V30 154 C 14.9599 -0.887873 -1.9152 0
M  V30 155 O 14.3079 0.06146 -2.28417 0
M  V30 156 C 14.5179 -3.30875 -1.11008 0
M  V30 157 C 15.8659 -3.96826 -1.51044 0
M  V30 158 O 16.8899 -3.35248 -1.20364 0
M  V30 159 O 15.7489 -5.05318 -2.08125 0
M  V30 160 H 12.8429 -0.750435 -0.347529 0
M  V30 161 H 15.3889 -1.69665 0.0344523 0
M  V30 162 H 14.1609 -3.90481 -0.252982 0
M  V30 163 H 13.7839 -3.48412 -1.9156 0
M  V30 164 N 14.781 0.264519 -1.55364 0
M  V30 165 C 15.711 1.33121 -1.91836 0
M  V30 166 C 16.692 1.51101 -0.781192 0
M  V30 167 O 17.877 1.64003 -1.04003 0
M  V30 168 C 15.007 2.68921 -2.19769 0
M  V30 169 C 13.961 2.65661 -3.35571 0
M  V30 170 C 13.287 4.05093 -3.49004 0
M  V30 171 C 14.587 2.24187 -4.71739 0
M  V30 172 H 16.281 1.02844 -2.81182 0
M  V30 173 H 13.827 0.493286 -1.35287 0
M  V30 174 H 15.78 3.43663 -2.43872 0
M  V30 175 H 14.504 3.00799 -1.27231 0
M  V30 176 H 13.163 1.93377 -3.1145 0
M  V30 177 H 12.811 4.34206 -2.53917 0
M  V30 178 H 12.511 4.03804 -4.26868 0
M  V30 179 H 14.035 4.81561 -3.75408 0
M  V30 180 H 15.449 2.88654 -4.9533 0
M  V30 181 H 13.846 2.34044 -5.52579 0
M  V30 182 H 14.916 1.19327 -4.69988 0
M  V30 183 N 16.2591 1.48442 0.529413 0
M  V30 184 C 17.4841 1.60406 1.31471 0
M  V30 185 C 17.9091 0.264738 1.86228 0
M  V30 186 O 17.2671 -0.763668 1.64432 0
M  V30 187 C 17.3151 2.65419 2.44101 0
M  V30 188 O 16.4191 2.22618 3.47153 0
M  V30 189 H 15.7601 0.537863 0.389357 0
M  V30 190 H 18.2901 1.94432 0.636965 0
M  V30 191 H 18.3001 2.86709 2.90279 0
M  V30 192 H 16.9751 3.62652 2.03608 0
M  V30 193 H 15.5521 2.11543 3.0709 0
M  V30 194 N 17.7372 -0.778329 1.37039 0
M  V30 195 C 18.7002 -1.87301 1.32102 0
M  V30 196 C 19.7002 -1.59198 0.226405 0
M  V30 197 O 20.8902 -1.67403 0.481861 0
M  V30 198 C 18.0222 -3.24309 1.05055 0
M  V30 199 H 19.2152 -1.93093 2.29467 0
M  V30 200 H 16.7682 -0.977358 1.21973 0
M  V30 201 H 17.5032 -3.24196 0.0819373 0
M  V30 202 H 17.2882 -3.46098 1.84279 0
M  V30 203 H 18.7782 -4.04382 1.04234 0
M  V30 204 N 19.2153 -1.21501 -1.00376 0
M  V30 205 C 20.4643 -1.02718 -1.73586 0
M  V30 206 C 20.7773 0.439589 -1.90596 0
M  V30 207 O 21.9833 0.746848 -2.61026 0
M  V30 208 C 20.4393 -1.78929 -3.1227 0
M  V30 209 C 20.0473 -3.29783 -3.03228 0
M  V30 210 C 21.7913 -1.68557 -3.89601 0
M  V30 211 C 19.6983 -3.98479 -4.36999 0
M  V30 212 H 18.6283 -0.380733 -0.650814 0
M  V30 213 H 21.2793 -1.45248 -1.1214 0
M  V30 214 H 19.6613 -1.29192 -3.74333 0
M  V30 215 H 20.8353 -3.86832 -2.50395 0
M  V30 216 H 19.1503 -3.40711 -2.39385 0
M  V30 217 H 21.7473 -2.17211 -4.88593 0
M  V30 218 H 22.0903 -0.644021 -4.11288 0
M  V30 219 H 22.6233 -2.15778 -3.34193 0
M  V30 220 H 19.3623 -5.02841 -4.20513 0
M  V30 221 H 18.8823 -3.46219 -4.89788 0
M  V30 222 H 20.5613 -4.03462 -5.05794 0
M  V30 223 N 20.6934 1.19889 -1.02296 0
M  V30 224 C 21.9184 1.9393 -0.735237 0
M  V30 225 C 22.3434 1.74639 0.698782 0
M  V30 226 O 21.7014 1.04481 1.48167 0
M  V30 227 C 21.7494 3.43916 -1.08417 0
M  V30 228 O 20.8534 4.11917 -0.199446 0
M  V30 229 H 20.1944 0.605645 -0.272196 0
M  V30 230 H 22.7244 1.52137 -1.36804 0
M  V30 231 H 22.7344 3.9456 -1.03856 0
M  V30 232 H 21.4094 3.5728 -2.12894 0
M  V30 233 H 19.9864 3.71666 -0.303136 0
M  V30 234 N 22.1715 0.800033 1.35784 0
M  V30 235 C 23.1015 0.220184 2.3246 0
M  V30 236 C 24.0825 -0.65073 1.57161 0
M  V30 237 O 25.2675 -0.582359 1.85263 0
M  V30 238 C 22.3975 -0.637353 3.41402 0
M  V30 239 C 21.3515 0.134531 4.27789 0
M  V30 240 C 20.6775 -0.844285 5.27992 0
M  V30 241 C 21.9775 1.32979 5.05088 0
M  V30 242 H 23.6715 1.02787 2.81203 0
M  V30 243 H 21.2175 0.495717 1.35199 0
M  V30 244 H 23.1705 -1.05302 4.08031 0
M  V30 245 H 21.8945 -1.47785 2.91251 0
M  V30 246 H 20.5535 0.531296 3.6273 0
M  V30 247 H 20.2015 -1.68011 4.74111 0
M  V30 248 H 19.9015 -0.332184 5.8666 0
M  V30 249 H 21.4255 -1.2583 5.97494 0
M  V30 250 H 22.8395 0.98934 5.64699 0
M  V30 251 H 21.2365 1.77593 5.7322 0
M  V30 252 H 22.3065 2.11978 4.36111 0
M  V30 253 N 23.6496 -1.47581 0.552962 0
M  V30 254 C 24.9266 -1.95563 -0.0381515 0
M  V30 255 C 25.3066 -1.49552 -1.48988 0
M  V30 256 O 24.6546 -0.732414 -2.16444 0
M  V30 257 C 24.8646 -3.48848 0.102919 0
M  V30 258 C 26.2126 -4.24577 -0.0446082 0
M  V30 259 O 27.2366 -3.56187 0.0302548 0
M  V30 260 O 26.0956 -5.46116 -0.204923 0
M  V30 261 H 23.1896 -0.824321 -0.0665067 0
M  V30 262 H 25.7356 -1.58001 0.619186 0
M  V30 263 H 24.5076 -3.75129 1.11328 0
M  V30 264 H 24.1306 -3.93165 -0.592224 0
M  V30 265 N 25.1277 -0.289203 -1.54924 0
M  V30 266 C 26.3757 0.322879 -1.99504 0
M  V30 267 C 26.6967 1.55313 -1.1791 0
M  V30 268 O 25.9667 1.94001 -0.272097 0
M  V30 269 H 24.5467 0.122291 -0.736922 0
M  V30 270 H 27.2087 -0.397802 -1.90797 0
M  V30 271 H 26.3047 0.603061 -3.06218 0
M  V30 272 N 26.6058 1.57591 -0.0167156 0
M  V30 273 C 27.5158 2.1291 0.98521 0
M  V30 274 C 28.5318 1.07834 1.36557 0
M  V30 275 O 29.7078 1.39826 1.44951 0
M  V30 276 C 26.7728 2.63512 2.25305 0
M  V30 277 C 25.8338 3.83256 1.93426 0
M  V30 278 C 25.0668 4.31435 3.14165 0
M  V30 279 O 25.2898 3.78851 4.26413 0
M  V30 280 O 24.2238 5.23416 2.97186 0
M  V30 281 H 28.0498 2.98772 0.544888 0
M  V30 282 H 25.6348 1.48012 0.203141 0
M  V30 283 H 27.5168 2.96183 2.99756 0
M  V30 284 H 26.1918 1.8074 2.68542 0
M  V30 285 H 25.0988 3.55531 1.16398 0
M  V30 286 H 26.4318 4.67153 1.55013 0
M  V30 287 N 28.0839 -0.256276 1.55502 0
M  V30 288 C 29.0309 -1.31714 1.89526 0
M  V30 289 C 30.0009 -1.4828 0.748479 0
M  V30 290 O 31.1859 -1.62416 1.00128 0
M  V30 291 C 28.3259 -2.66933 2.18725 0
M  V30 292 C 27.4389 -2.58452 3.4616 0
M  V30 293 C 26.5739 -3.85961 3.64976 0
M  V30 294 C 25.6129 -3.72059 4.86044 0
M  V30 295 N 24.7499 -4.9144 5.01429 0
M  V30 296 H 29.5899 -1.01998 2.80001 0
M  V30 297 H 27.1269 -0.492413 1.38613 0
M  V30 298 H 29.0849 -3.4563 2.33657 0
M  V30 299 H 27.7149 -2.94816 1.31466 0
M  V30 300 H 26.7669 -1.71374 3.3961 0
M  V30 301 H 28.0789 -2.44085 4.34999 0
M  V30 302 H 27.2329 -4.73101 3.79816 0
M  V30 303 H 25.9719 -4.03215 2.74353 0
M  V30 304 H 24.9769 -2.83302 4.7119 0
M  V30 305 H 26.2019 -3.56309 5.78118 0
M  V30 306 H 24.1479 -5.09072 4.13741 0
M  V30 307 H 24.0649 -4.79668 5.84341 0
M  V30 308 H 25.3329 -5.80104 5.20672 0
M  V30 309 N 29.562 -1.4872 -0.521534 0
M  V30 310 C 30.808 -1.574 -1.27879 0
M  V30 311 C 31.141 -0.250817 -1.92573 0
M  V30 312 O 30.416 0.743934 -1.79711 0
M  V30 313 C 30.699 -2.71843 -2.36164 0
M  V30 314 C 30.552 -4.13893 -1.76105 0
M  V30 315 C 31.871 -2.82008 -3.37875 0
M  V30 316 H 28.99 -0.572941 -0.463581 0
M  V30 317 H 31.632 -1.80927 -0.580119 0
M  V30 318 H 29.782 -2.51914 -2.95756 0
M  V30 319 H 31.454 -4.45284 -1.20499 0
M  V30 320 H 29.697 -4.20498 -1.06601 0
M  V30 321 H 30.368 -4.89804 -2.5455 0
M  V30 322 H 32.844 -3.00086 -2.88249 0
M  V30 323 H 31.72 -3.63796 -4.11028 0
M  V30 324 H 31.981 -1.90511 -3.98946 0
M  V30 325 N 31.0401 0.771051 -1.3745 0
M  V30 326 C 32.3171 1.519 -1.23231 0
M  V30 327 C 32.6971 2.10383 0.173809 0
M  V30 328 O 32.0451 1.95583 1.18151 0
M  V30 329 C 32.2551 2.59933 -2.32886 0
M  V30 330 C 33.6031 3.27316 -2.70461 0
M  V30 331 O 34.6271 2.70228 -2.32068 0
M  V30 332 O 33.4861 4.30531 -3.36608 0
M  V30 333 H 30.5801 0.672803 -0.480901 0
M  V30 334 H 33.1261 0.807957 -1.49232 0
M  V30 335 H 31.8981 2.14842 -3.27045 0
M  V30 336 H 31.5211 3.38637 -2.08353 0
M  V30 337 N 32.5182 1.22032 0.997298 0
M  V30 338 C 33.7652 1.04222 1.73621 0
M  V30 339 C 34.0932 -0.423264 1.89839 0
M  V30 340 O 33.3482 -1.3302 1.43542 0
M  V30 341 C 33.6472 1.69345 3.14733 0
M  V30 342 C 33.3132 3.19226 3.18442 0
M  V30 343 C 31.9752 3.60124 3.19161 0
M  V30 344 C 34.3272 4.15181 3.15078 0
M  V30 345 C 31.6552 4.95467 3.14212 0
M  V30 346 C 34.0072 5.50495 3.1167 0
M  V30 347 C 32.6712 5.90779 3.10703 0
M  V30 348 H 31.9412 0.381374 0.635323 0
M  V30 349 H 34.5882 1.51732 1.16831 0
M  V30 350 H 32.8932 1.14147 3.74803 0
M  V30 351 H 34.5902 1.53059 3.7064 0
M  V30 352 H 31.1802 2.86659 3.18629 0
M  V30 353 H 35.3642 3.84605 3.13676 0
M  V30 354 H 30.6202 5.25916 3.11805 0
M  V30 355 H 34.7942 6.24576 3.08022 0
M  V30 356 H 32.4212 6.9562 3.06622 0
M  V30 357 N 33.9963 -1.19345 1.0293 0
M  V30 358 C 34.9443 -2.24621 0.604001 0
M  V30 359 C 35.9383 -1.65452 -0.363587 0
M  V30 360 O 37.1443 -1.78497 -0.23212 0
M  V30 361 H 33.5193 -0.730858 0.177061 0
M  V30 362 H 35.4903 -2.5781 1.50255 0
M  V30 363 C 34.2393 -3.47688 -0.0289127 0
M  V30 364 H 33.5623 -3.93505 0.706651 0
M  V30 365 H 35.0023 -4.23011 -0.289432 0
M  V30 366 C 33.4613 -3.11817 -1.2756 0
M  V30 367 O 33.9913 -3.2451 -2.36762 0
M  V30 368 N 32.1973 -2.66246 -1.16453 0
M  V30 369 H 31.7443 -2.56118 -0.275914 0
M  V30 370 H 31.7023 -2.42617 -1.99961 0
M  V30 371 N 35.4744 -0.807222 -1.35358 0
M  V30 372 C 36.7024 -0.400377 -2.02989 0
M  V30 373 C 37.1174 0.988859 -1.60832 0
M  V30 374 O 36.4744 1.63729 -0.806175 0
M  V30 375 C 36.5254 -0.474867 -3.58368 0
M  V30 376 O 36.2464 -1.80933 -3.98992 0
M  V30 377 C 37.7474 -0.0609112 -4.43258 0
M  V30 378 H 34.9674 -0.162587 -0.651004 0
M  V30 379 H 37.5114 -1.09102 -1.72965 0
M  V30 380 H 35.6664 0.167534 -3.87038 0
M  V30 381 H 36.0804 -1.77256 -4.9364 0
M  V30 382 H 37.5544 -0.164145 -5.51756 0
M  V30 383 H 38.0314 0.993831 -4.27808 0
M  V30 384 H 38.6374 -0.676492 -4.19885 0
M  V30 385 N 36.9525 1.47285 -0.560781 0
M  V30 386 C 38.1995 2.02464 -0.038062 0
M  V30 387 C 38.5275 1.43474 1.31322 0
M  V30 388 O 37.7825 0.581311 1.86867 0
M  V30 389 C 38.0815 3.57258 0.100784 0
M  V30 390 C 37.7475 4.35184 -1.18007 0
M  V30 391 C 36.4095 4.56194 -1.53103 0
M  V30 392 C 38.7615 4.80098 -2.02867 0
M  V30 393 C 36.0895 5.19367 -2.729 0
M  V30 394 C 38.4415 5.44593 -3.21871 0
M  V30 395 C 37.1055 5.63835 -3.57276 0
M  V30 396 H 36.3755 0.740869 -0.0139279 0
M  V30 397 H 39.0225 1.76916 -0.733012 0
M  V30 398 H 37.3275 3.81819 0.878724 0
M  V30 399 H 39.0245 3.97606 0.520639 0
M  V30 400 H 35.6145 4.19113 -0.8968 0
M  V30 401 H 39.7985 4.63642 -1.7706 0
M  V30 402 H 35.0545 5.32459 -3.00496 0
M  V30 403 H 39.2285 5.78358 -3.87911 0
M  V30 404 H 36.8555 6.12557 -4.50197 0
M  V30 405 N 38.4306 0.297415 1.54768 0
M  V30 406 C 39.8466 -0.0560823 1.59501 0
M  V30 407 C 40.0466 -1.52725 1.31444 0
M  V30 408 O 39.1026 -2.27947 1.08611 0
M  V30 409 C 40.4156 0.338631 2.98787 0
M  V30 410 C 41.9636 0.287097 3.11681 0
M  V30 411 C 42.4386 0.656579 4.53269 0
M  V30 412 N 43.9296 0.608977 4.59179 0
M  V30 413 C 44.6646 0.867385 5.66802 0
M  V30 414 N 44.1606 1.19157 6.82476 0
M  V30 415 N 45.9536 0.794687 5.56454 0
M  V30 416 H 38.1046 1.25624 1.71267 0
M  V30 417 H 40.3676 0.509057 0.799728 0
M  V30 418 H 40.0736 1.36263 3.2423 0
M  V30 419 H 39.9476 -0.309508 3.75928 0
M  V30 420 H 42.3346 -0.727649 2.85988 0
M  V30 421 H 42.4156 0.969809 2.36703 0
M  V30 422 H 42.0596 1.66912 4.7969 0
M  V30 423 H 41.9896 -0.0481649 5.26578 0
M  V30 424 H 44.4806 0.369198 3.76092 0
M  V30 425 H 44.7936 1.37482 7.60473 0
M  V30 426 H 43.1386 1.22958 6.84037 0
M  V30 427 H 46.3296 0.541098 4.64962 0
M  V30 428 H 46.5026 0.999445 6.40246 0
M  V30 429 N 39.9087 -1.5758 0.0250728 0
M  V30 430 C 41.1567 -1.91255 -0.653151 0
M  V30 431 C 41.4777 -0.901691 -1.729 0
M  V30 432 O 40.7477 0.0573785 -1.95816 0
M  V30 433 H 39.3277 -0.705942 -0.244243 0
M  V30 434 H 41.9897 -1.94767 0.0719209 0
M  V30 435 H 41.0857 -2.91752 -1.10847 0
M  V30 436 N 41.3868 0.248026 -1.55636 0
M  V30 437 C 42.8028 0.596483 -1.48035 0
M  V30 438 C 43.0028 1.88386 -0.715039 0
M  V30 439 O 42.0588 2.51319 -0.243944 0
M  V30 440 C 43.3718 0.700258 -2.92433 0
M  V30 441 C 44.9198 0.792659 -3.02797 0
M  V30 442 C 45.3948 0.928005 -4.485 0
M  V30 443 N 46.8858 0.992903 -4.52433 0
M  V30 444 C 47.6208 1.11687 -5.62418 0
M  V30 445 N 47.1168 1.20645 -6.82214 0
M  V30 446 N 48.9098 1.14994 -5.50212 0
M  V30 447 H 41.0608 -0.597109 -2.03834 0
M  V30 448 H 43.3238 -0.205925 -0.925364 0
M  V30 449 H 43.0298 -0.175658 -3.51261 0
M  V30 450 H 42.9038 1.57255 -3.42857 0
M  V30 451 H 45.2908 1.65903 -2.4405 0
M  V30 452 H 45.3718 -0.104762 -2.55585 0
M  V30 453 H 45.0158 0.0661971 -5.07857 0
M  V30 454 H 44.9458 1.84045 -4.93391 0
M  V30 455 H 47.4368 0.935064 -3.66149 0
M  V30 456 H 47.7498 1.30008 -7.61786 0
M  V30 457 H 46.0948 1.17605 -6.84977 0
M  V30 458 H 49.2858 1.07643 -4.55555 0
M  V30 459 H 49.4588 1.24311 -6.35965 0
M  V30 460 N 42.8649 1.48995 0.513639 0
M  V30 461 C 43.8279 1.64229 1.59879 0
M  V30 462 C 44.8279 0.514696 1.5234 0
M  V30 463 O 46.0179 0.78087 1.55718 0
M  V30 464 C 43.1499 1.62783 2.99524 0
M  V30 465 H 44.3429 2.61004 1.47705 0
M  V30 466 H 41.8959 1.37837 0.736936 0
M  V30 467 H 42.6309 0.675461 3.17188 0
M  V30 468 H 42.4159 2.4466 3.06404 0
M  V30 469 H 43.9059 1.76669 3.78388 0
M  V30 470 N 44.343 -0.763751 1.37857 0
M  V30 471 C 45.589 -1.52483 1.33704 0
M  V30 472 C 45.922 -1.94051 -0.0759612 0
M  V30 473 O 45.197 -1.64675 -1.03501 0
M  V30 474 C 45.48 -2.78441 2.28348 0
M  V30 475 C 45.333 -2.43075 3.78463 0
M  V30 476 C 46.652 -3.80415 2.21298 0
M  V30 477 H 43.771 -0.553169 0.487005 0
M  V30 478 H 46.413 -0.875562 1.68624 0
M  V30 479 H 44.563 -3.33842 1.987 0
M  V30 480 H 46.235 -1.93527 4.18742 0
M  V30 481 H 44.478 -1.75666 3.96641 0
M  V30 482 H 45.149 -3.33149 4.40132 0
M  V30 483 H 47.625 -3.34527 2.47449 0
M  V30 484 H 46.501 -4.66257 2.89647 0
M  V30 485 H 46.762 -4.25262 1.20849 0
M  V30 486 N 45.8211 -1.22559 -0.990812 0
M  V30 487 C 46.7511 -1.0218 -2.09956 0
M  V30 488 C 47.7321 0.0579394 -1.70001 0
M  V30 489 O 48.9171 -0.104684 -1.93918 0
M  V30 490 C 46.0471 -0.601023 -3.4206 0
M  V30 491 C 45.0011 -1.62694 -3.95872 0
M  V30 492 C 44.3271 -1.06193 -5.24049 0
M  V30 493 C 45.6271 -3.01743 -4.2632 0
M  V30 494 H 47.3211 -1.94916 -2.27262 0
M  V30 495 H 44.8671 -0.938566 -1.09211 0
M  V30 496 H 46.8201 -0.445561 -4.19038 0
M  V30 497 H 45.5441 0.362005 -3.24588 0
M  V30 498 H 44.2031 -1.77021 -3.21028 0
M  V30 499 H 43.8511 -0.0901903 -5.02919 0
M  V30 500 H 43.5511 -1.74732 -5.61019 0
M  V30 501 H 45.0751 -0.918092 -6.03658 0
M  V30 502 H 46.4891 -2.90777 -4.94087 0
M  V30 503 H 44.8861 -3.67425 -4.74467 0
M  V30 504 H 45.9561 -3.51518 -3.34011 0
M  V30 505 N 47.2992 1.18797 -1.03562 0
M  V30 506 C 48.5482 1.87978 -0.731235 0
M  V30 507 C 48.8612 1.80911 0.743671 0
M  V30 508 O 50.0672 2.45407 1.16137 0
M  V30 509 C 48.5232 3.3721 -1.25768 0
M  V30 510 C 48.1312 3.52818 -2.76085 0
M  V30 511 C 49.8752 4.11825 -1.0296 0
M  V30 512 C 47.7822 4.9598 -3.22114 0
M  V30 513 H 46.7122 0.704063 -0.269835 0
M  V30 514 H 49.3632 1.34266 -1.25079 0
M  V30 515 H 47.7452 3.90359 -0.666011 0
M  V30 516 H 48.9192 3.09965 -3.40966 0
M  V30 517 H 47.2342 2.91602 -2.97249 0
M  V30 518 H 49.8312 5.17411 -1.34869 0
M  V30 519 H 50.1742 4.16287 0.0333546 0
M  V30 520 H 50.7072 3.64833 -1.58562 0
M  V30 521 H 47.4462 4.96684 -4.27768 0
M  V30 522 H 46.9662 5.39569 -2.61965 0
M  V30 523 H 48.6452 5.6467 -3.15844 0
M  V30 524 N 48.7773 0.814389 1.34928 0
M  V30 525 C 49.6873 0.231978 2.3345 0
M  V30 526 C 50.7033 -0.629139 1.62228 0
M  V30 527 O 51.8793 -0.539052 1.94052 0
M  V30 528 C 48.9443 -0.603482 3.41407 0
M  V30 529 C 48.0053 0.279037 4.28392 0
M  V30 530 C 47.2383 -0.516643 5.31193 0
M  V30 531 O 47.4613 -1.75068 5.4287 0
M  V30 532 O 46.3953 0.0965652 6.01823 0
M  V30 533 H 50.2213 1.04721 2.85074 0
M  V30 534 H 47.8063 0.576343 1.37836 0
M  V30 535 H 49.6883 -1.07908 4.0735 0
M  V30 536 H 48.3633 -1.39618 2.92042 0
M  V30 537 H 47.2703 0.801948 3.65403 0
M  V30 538 H 48.6033 1.03588 4.81176 0
M  V30 539 N 50.2554 -1.46986 0.568584 0
M  V30 540 C 51.2034 -2.31858 -0.185649 0
M  V30 541 C 52.1974 -1.43624 -0.898249 0
M  V30 542 O 53.4034 -1.60327 -0.818242 0
M  V30 543 H 49.7784 -0.747866 -0.0787399 0
M  V30 544 H 51.7494 -2.93303 0.549191 0
M  V30 545 C 50.4984 -3.26513 -1.19519 0
M  V30 546 H 49.8214 -3.94377 -0.656285 0
M  V30 547 H 51.2614 -3.88707 -1.6936 0
M  V30 548 C 49.7204 -2.50847 -2.24894 0
M  V30 549 O 50.2504 -2.26119 -3.32014 0
M  V30 550 N 48.4564 -2.11656 -1.99124 0
M  V30 551 H 48.0034 -2.31966 -1.12024 0
M  V30 552 H 47.9614 -1.61347 -2.69842 0
M  V30 553 N 51.7335 -0.305618 -1.54608 0
M  V30 554 C 52.9795 0.302746 -2.00528 0
M  V30 555 C 53.3125 1.53184 -1.19367 0
M  V30 556 O 52.5875 1.92598 -0.271321 0
M  V30 557 C 52.8705 0.654756 -3.54097 0
M  V30 558 C 52.7235 -0.583793 -4.45995 0
M  V30 559 C 54.0425 1.47947 -4.14487 0
M  V30 560 H 51.1615 0.108564 -0.72896 0
M  V30 561 H 53.8035 -0.418634 -1.85331 0
M  V30 562 H 51.9535 1.26935 -3.67178 0
M  V30 563 H 53.6255 -1.22224 -4.44814 0
M  V30 564 H 51.8685 -1.21615 -4.16404 0
M  V30 565 H 52.5395 -0.293287 -5.5122 0
M  V30 566 H 55.0155 0.96013 -4.04871 0
M  V30 567 H 53.8915 1.69454 -5.22088 0
M  V30 568 H 54.1525 2.47011 -3.66658 0
M  V30 569 N 53.2116 1.57565 -0.0334293 0
M  V30 570 C 54.1746 2.09393 0.932048 0
M  V30 571 C 55.1746 1.00986 1.25134 0
M  V30 572 O 56.3646 1.27129 1.19096 0
M  V30 573 C 53.4966 2.56338 2.2473 0
M  V30 574 H 54.6896 2.95984 0.483085 0
M  V30 575 H 52.2426 1.54819 0.21468 0
M  V30 576 H 52.9776 1.7309 2.74245 0
M  V30 577 H 52.7626 3.35542 2.02865 0
M  V30 578 H 54.2526 2.96646 2.93923 0
M  V30 579 N 54.6897 -0.239769 1.55765 0
M  V30 580 C 55.9147 -0.988373 1.82335 0
M  V30 581 C 56.3397 -1.77886 0.611421 0
M  V30 582 O 55.6977 -1.75889 -0.439639 0
M  V30 583 C 55.7457 -1.89627 3.06715 0
M  V30 584 O 54.8497 -2.98904 2.84131 0
M  V30 585 H 54.1907 -0.280858 0.601677 0
M  V30 586 H 56.7207 -0.258597 2.02959 0
M  V30 587 H 56.7307 -2.30957 3.36338 0
M  V30 588 H 55.4057 -1.31511 3.9456 0
M  V30 589 H 53.9827 -2.61651 2.65694 0
M  V30 590 N 56.1678 -1.49265 -0.50573 0
M  V30 591 C 57.0978 -1.68495 -1.61653 0
M  V30 592 C 58.0788 -0.53366 -1.61512 0
M  V30 593 O 59.2638 -0.76897 -1.78327 0
M  V30 594 C 56.3938 -1.74709 -3.00157 0
M  V30 595 C 55.3478 -2.89581 -3.15162 0
M  V30 596 C 54.6738 -2.80903 -4.5497 0
M  V30 597 C 55.9738 -4.30578 -2.95634 0
M  V30 598 H 57.6678 -2.61493 -1.45814 0
M  V30 599 H 55.2138 -1.25838 -0.70005 0
M  V30 600 H 57.1668 -1.86748 -3.77761 0
M  V30 601 H 55.8908 -0.783067 -3.17074 0
M  V30 602 H 54.5498 -2.77136 -2.39982 0
M  V30 603 H 54.1978 -1.82419 -4.68756 0
M  V30 604 H 53.8978 -3.57999 -4.65951 0
M  V30 605 H 55.4218 -2.94944 -5.34641 0
M  V30 606 H 56.8358 -4.4373 -3.63011 0
M  V30 607 H 55.2328 -5.0886 -3.18091 0
M  V30 608 H 56.3028 -4.45352 -1.91806 0
M  V30 609 N 57.6459 0.756429 -1.3826 0
M  V30 610 C 58.8859 1.52833 -1.35725 0
M  V30 611 C 59.2499 1.91926 0.0534106 0
M  V30 612 O 60.4509 2.68028 0.203613 0
M  V30 613 C 58.7219 2.74919 -2.28373 0
M  V30 614 Se 60.2809 3.64817 -2.43832 0
M  V30 615 H 57.0989 0.523043 -0.481608 0
M  V30 616 H 59.7009 0.888212 -1.74158 0
M  V30 617 H 58.4049 2.44304 -3.29763 0
M  V30 618 H 57.9359 3.43878 -1.91079 0
M  V30 619 H 59.9509 4.676 -1.66027 0
M  V30 620 N 59.124 1.23083 0.984299 0
M  V30 621 C 60.372 1.05848 1.72165 0
M  V30 622 C 60.693 -0.406049 1.90726 0
M  V30 623 O 59.963 -1.29139 1.47309 0
M  V30 624 H 58.543 0.388685 0.637913 0
M  V30 625 H 61.205 1.54736 1.18503 0
M  V30 626 H 60.301 1.54327 2.71274 0
M  V30 627 N 60.6021 -1.18246 1.0419 0
M  V30 628 C 61.8301 -1.92195 0.766072 0
M  V30 629 C 62.2451 -1.76247 -0.676933 0
M  V30 630 O 61.6021 -1.09293 -1.46155 0
M  V30 631 C 61.6531 -3.43568 1.12442 0
M  V30 632 O 61.3741 -3.59015 2.51078 0
M  V30 633 C 62.8751 -4.34613 0.873275 0
M  V30 634 H 60.0951 -0.610114 0.279288 0
M  V30 635 H 62.6391 -1.50007 1.38989 0
M  V30 636 H 60.7941 -3.8354 0.545542 0
M  V30 637 H 61.2081 -4.5273 2.64831 0
M  V30 638 H 62.6821 -5.39374 1.17385 0
M  V30 639 H 63.1591 -4.38781 -0.191909 0
M  V30 640 H 63.7651 -4.00341 1.43551 0
M  V30 641 N 62.0802 -0.821533 -1.34494 0
M  V30 642 C 63.3082 -0.421884 -2.02553 0
M  V30 643 C 63.7232 0.971745 -1.61872 0
M  V30 644 O 63.0802 1.62864 -0.823496 0
M  V30 645 C 63.1312 -0.51285 -3.57844 0
M  V30 646 O 62.8522 -1.85155 -3.97051 0
M  V30 647 C 64.3532 -0.107921 -4.43169 0
M  V30 648 H 61.5732 -0.169482 -0.649243 0
M  V30 649 H 64.1172 -1.1093 -1.71798 0
M  V30 650 H 62.2722 0.126474 -3.87193 0
M  V30 651 H 62.6862 -1.82482 -4.91732 0
M  V30 652 H 64.1602 -0.222657 -5.51551 0
M  V30 653 H 64.6372 0.948401 -4.28838 0
M  V30 654 H 65.2432 -0.720989 -4.19144 0
M  V30 655 N 63.5583 1.46682 -0.576371 0
M  V30 656 C 64.7863 2.06798 -0.0649635 0
M  V30 657 C 65.2013 1.42612 1.23723 0
M  V30 658 O 64.5583 0.529203 1.74659 0
M  V30 659 C 64.6093 3.6132 0.114202 0
M  V30 660 O 64.3303 4.23104 -1.13644 0
M  V30 661 C 65.8313 4.38349 0.66069 0
M  V30 662 H 63.0513 0.668778 -0.0545616 0
M  V30 663 H 65.5953 1.88404 -0.795237 0
M  V30 664 H 63.7503 3.79162 0.794673 0
M  V30 665 H 64.1643 5.15894 -0.946253 0
M  V30 666 H 65.6383 5.47081 0.73526 0
M  V30 667 H 66.1153 4.05953 1.67627 0
M  V30 668 H 66.7213 4.25297 0.0152951 0
M  V30 669 N 65.0364 0.313813 1.54444 0
M  V30 670 C 66.4524 -0.0391619 1.59552 0
M  V30 671 C 66.6524 -1.51322 1.33056 0
M  V30 672 O 65.7084 -2.26782 1.11022 0
M  V30 673 C 67.0214 0.370302 2.98411 0
M  V30 674 C 68.5694 0.320139 3.11358 0
M  V30 675 C 69.0444 0.704617 4.52547 0
M  V30 676 N 70.5354 0.657645 4.58508 0
M  V30 677 C 71.2704 0.927453 5.6585 0
M  V30 678 N 70.7664 1.26389 6.81174 0
M  V30 679 N 72.5594 0.853662 5.5558 0
M  V30 680 H 64.7104 1.27433 1.69925 0
M  V30 681 H 66.9734 0.517511 0.794284 0
M  V30 682 H 66.6794 1.39694 3.22767 0
M  V30 683 H 66.5534 -0.269619 3.76235 0
M  V30 684 H 68.9404 -0.697275 2.86744 0
M  V30 685 H 69.0214 0.99486 2.35661 0
M  V30 686 H 68.6654 1.7199 4.77893 0
M  V30 687 H 68.5954 0.00768843 5.26599 0
M  V30 688 H 71.0864 0.409067 3.75679 0
M  V30 689 H 71.3994 1.4554 7.58972 0
M  V30 690 H 69.7444 1.30206 6.82694 0
M  V30 691 H 72.9354 0.590383 4.64362 0
M  V30 692 H 73.1084 1.0673 6.3915 0
M  V30 693 N 66.5145 -1.57545 0.0417849 0
M  V30 694 C 67.7915 -1.83642 -0.673433 0
M  V30 695 C 68.1715 -0.928298 -1.89594 0
M  V30 696 O 67.5195 0.0129955 -2.28496 0
M  V30 697 C 67.7295 -3.33155 -1.03964 0
M  V30 698 C 69.0775 -3.99941 -1.42592 0
M  V30 699 O 70.1015 -3.37725 -1.13226 0
M  V30 700 O 68.9605 -5.09619 -1.9736 0
M  V30 701 H 66.0545 -0.757638 -0.331533 0
M  V30 702 H 68.6005 -1.69554 0.070433 0
M  V30 703 H 67.3725 -3.9093 -0.170098 0
M  V30 704 H 66.9955 -3.52396 -1.84126 0
M  V30 705 N 67.9926 0.231505 -1.5589 0
M  V30 706 C 69.2396 0.957352 -1.78441 0
M  V30 707 C 69.5676 1.84726 -0.60882 0
M  V30 708 O 68.8226 1.91416 0.40725 0
M  V30 709 C 69.1216 1.83577 -3.0665 0
M  V30 710 C 68.7876 1.09993 -4.37278 0
M  V30 711 C 67.4496 0.896629 -4.72773 0
M  V30 712 C 69.8016 0.579558 -5.17968 0
M  V30 713 C 67.1296 0.160896 -5.86479 0
M  V30 714 C 69.4816 -0.142783 -6.32439 0
M  V30 715 C 68.1456 -0.357427 -6.66542 0
M  V30 716 H 67.4156 0.35032 -0.65296 0
M  V30 717 H 70.0626 0.226259 -1.90159 0
M  V30 718 H 68.3676 2.63441 -2.90011 0
M  V30 719 H 70.0646 2.39934 -3.21298 0
M  V30 720 H 66.6546 1.26835 -4.09403 0
M  V30 721 H 70.8386 0.724125 -4.90989 0
M  V30 722 H 66.0946 -0.0157293 -6.11398 0
M  V30 723 H 70.2686 -0.553559 -6.94196 0
M  V30 724 H 67.8956 -0.929466 -7.54497 0
M  V30 725 N 69.4707 1.49531 0.497807 0
M  V30 726 C 70.6987 1.62893 1.27567 0
M  V30 727 C 71.1137 0.301585 1.86376 0
M  V30 728 O 70.4707 -0.713335 1.67982 0
M  V30 729 C 70.5217 2.70013 2.40364 0
M  V30 730 O 70.2427 3.976 1.83972 0
M  V30 731 C 71.7437 2.94109 3.31685 0
M  V30 732 H 68.9637 0.548298 0.386794 0
M  V30 733 H 71.5077 1.95584 0.597245 0
M  V30 734 H 69.6627 2.40092 3.04031 0
M  V30 735 H 70.0767 4.56631 2.58047 0
M  V30 736 H 71.5507 3.72788 4.07104 0
M  V30 737 H 72.0277 2.04147 3.88871 0
M  V30 738 H 72.6337 3.2546 2.73781 0
M  V30 739 N 70.9488 -0.749086 1.3866 0
M  V30 740 C 71.8808 -1.87273 1.32142 0
M  V30 741 C 72.8938 -1.61127 0.232787 0
M  V30 742 O 74.0828 -1.71623 0.49069 0
M  V30 743 C 71.1828 -3.23005 1.02571 0
M  V30 744 C 70.3558 -3.7662 2.22433 0
M  V30 745 C 69.4148 -4.90879 1.89537 0
M  V30 746 O 68.4408 -5.05276 2.62078 0
M  V30 747 N 69.6428 -5.74198 0.853031 0
M  V30 748 H 72.4078 -1.93373 2.28969 0
M  V30 749 H 69.9688 -0.929216 1.32579 0
M  V30 750 H 71.9608 -3.96992 0.786085 0
M  V30 751 H 70.5308 -3.12262 0.145249 0
M  V30 752 H 69.7508 -2.94147 2.62434 0
M  V30 753 H 71.0388 -4.09173 3.02415 0
M  V30 754 H 70.4368 -5.6514 0.25155 0
M  V30 755 H 68.9938 -6.48313 0.67329 0
M  V30 756 N 72.4269 -1.23603 -0.977757 0
M  V30 757 C 73.3569 -1.04401 -2.0886 0
M  V30 758 C 74.3379 0.0399052 -1.70053 0
M  V30 759 O 75.5229 -0.125246 -1.93796 0
M  V30 760 C 72.6529 -0.637269 -3.41403 0
M  V30 761 C 71.6069 -1.66883 -3.94124 0
M  V30 762 C 70.9329 -1.11745 -5.22893 0
M  V30 763 C 72.2329 -3.06247 -4.23096 0
M  V30 764 H 73.9269 -1.97316 -2.25182 0
M  V30 765 H 71.4729 -0.950096 -1.08209 0
M  V30 766 H 73.4259 -0.48998 -4.18542 0
M  V30 767 H 72.1499 0.327557 -3.24953 0
M  V30 768 H 70.8089 -1.80416 -3.19133 0
M  V30 769 H 70.4569 -0.143527 -5.02795 0
M  V30 770 H 70.1569 -1.80672 -5.59134 0
M  V30 771 H 71.6809 -0.982067 -6.02651 0
M  V30 772 H 73.0949 -2.96001 -4.90975 0
M  V30 773 H 71.4919 -3.72436 -4.70544 0
M  V30 774 H 72.5619 -3.55041 -3.30263 0
M  V30 775 N 73.905 1.17692 -1.04816 0
M  V30 776 C 74.853 2.23632 -0.63966 0
M  V30 777 C 75.847 1.6601 0.337219 0
M  V30 778 O 77.053 1.78844 0.203693 0
M  V30 779 H 73.428 0.727949 -0.188665 0
M  V30 780 H 75.399 2.55387 -1.54337 0
M  V30 781 C 74.148 3.4769 -0.0264051 0
M  V30 782 H 73.471 3.92331 -0.769164 0
M  V30 783 H 74.911 4.23418 0.222098 0
M  V30 784 C 73.37 3.13807 1.22584 0
M  V30 785 O 73.9 3.28236 2.31569 0
M  V30 786 N 72.106 2.68065 1.12202 0
M  V30 787 H 71.653 2.56525 0.235133 0
M  V30 788 H 71.611 2.45767 1.96076 0
M  V30 789 N 75.3831 0.828654 1.34056 0
M  V30 790 C 76.2931 0.256725 2.33191 0
M  V30 791 C 77.3091 -0.611898 1.62886 0
M  V30 792 O 78.4851 -0.51844 1.94613 0
M  V30 793 C 75.5501 -0.567238 3.42028 0
M  V30 794 C 74.6111 0.324458 4.28072 0
M  V30 795 C 73.8441 -0.460274 5.31712 0
M  V30 796 O 74.0671 -1.693 5.44696 0
M  V30 797 O 73.0011 0.160391 6.01686 0
M  V30 798 H 76.8271 1.07739 2.83947 0
M  V30 799 H 74.4121 0.59093 1.37217 0
M  V30 800 H 76.2941 -1.03582 4.08471 0
M  V30 801 H 74.9691 -1.36513 2.93506 0
M  V30 802 H 73.8761 0.840659 3.64532 0
M  V30 803 H 75.2091 1.08685 4.8005 0
M  V30 804 N 76.8612 -1.46375 0.584142 0
M  V30 805 C 77.7912 -2.33103 -0.136037 0
M  V30 806 C 78.7722 -1.45431 -0.882255 0
M  V30 807 O 79.9572 -1.74246 -0.857434 0
M  V30 808 C 77.0872 -3.27731 -1.14933 0
M  V30 809 C 76.0412 -4.24855 -0.517862 0
M  V30 810 C 75.3672 -5.09001 -1.63773 0
M  V30 811 C 76.6672 -5.19439 0.545886 0
M  V30 812 H 78.3612 -2.93568 0.588086 0
M  V30 813 H 75.9072 -1.41166 0.284259 0
M  V30 814 H 77.8602 -3.87261 -1.66153 0
M  V30 815 H 76.5842 -2.65377 -1.90375 0
M  V30 816 H 75.2432 -3.6659 -0.0267361 0
M  V30 817 H 74.8912 -4.43031 -2.38185 0
M  V30 818 H 74.5912 -5.74777 -1.22085 0
M  V30 819 H 76.1152 -5.71396 -2.15266 0
M  V30 820 H 77.5292 -5.73177 0.118704 0
M  V30 821 H 75.9262 -5.93566 0.88317 0
M  V30 822 H 76.9962 -4.63285 1.43162 0
M  V30 823 N 78.3393 -0.321999 -1.54275 0
M  V30 824 C 79.2713 0.578671 -2.21775 0
M  V30 825 C 80.2843 1.08109 -1.21722 0
M  V30 826 O 81.4733 0.994938 -1.482 0
M  V30 827 C 78.5733 1.80661 -2.86731 0
M  V30 828 C 77.7463 1.44314 -4.12907 0
M  V30 829 C 76.8053 2.52845 -4.61472 0
M  V30 830 O 75.8313 2.17054 -5.2619 0
M  V30 831 N 77.0333 3.83748 -4.35566 0
M  V30 832 H 79.7983 0.000709447 -2.997 0
M  V30 833 H 77.3593 -0.145132 -1.61248 0
M  V30 834 H 79.3513 2.52655 -3.16145 0
M  V30 835 H 77.9213 2.29245 -2.12521 0
M  V30 836 H 77.1413 0.554906 -3.90275 0
M  V30 837 H 78.4293 1.17598 -4.95023 0
M  V30 838 H 77.8273 4.15625 -3.83761 0
M  V30 839 H 76.3843 4.51977 -4.69638 0
M  V30 840 N 79.8174 1.5752 -0.0501392 0
M  V30 841 C 81.0574 1.94521 0.627783 0
M  V30 842 C 81.4214 0.928265 1.68069 0
M  V30 843 O 82.6224 1.18517 2.41261 0
M  V30 844 C 80.8934 3.36319 1.20932 0
M  V30 845 S 82.4524 3.95272 1.90539 0
M  V30 846 H 79.2704 0.680456 0.206158 0
M  V30 847 H 81.8724 1.95139 -0.118829 0
M  V30 848 H 80.5764 4.08132 0.430865 0
M  V30 849 H 80.1074 3.39193 1.99277 0
M  V30 850 H 82.1224 3.80415 3.18589 0
M  V30 851 N 81.2955 -0.223234 1.56011 0
M  V30 852 C 82.7115 -0.572856 1.48965 0
M  V30 853 C 82.9115 -1.87225 0.74492 0
M  V30 854 O 81.9675 -2.50899 0.283896 0
M  V30 855 C 83.2805 -0.653646 2.9351 0
M  V30 856 C 84.8285 -0.744386 3.0402 0
M  V30 857 C 85.3035 -0.856535 4.49919 0
M  V30 858 N 86.7945 -0.9208 4.53955 0
M  V30 859 C 87.5295 -1.02726 5.64123 0
M  V30 860 N 87.0255 -1.09777 6.84047 0
M  V30 861 N 88.8185 -1.06226 5.51971 0
M  V30 862 H 80.9695 0.629462 2.02858 0
M  V30 863 H 83.2325 0.220621 0.921971 0
M  V30 864 H 82.9385 0.231518 3.50937 0
M  V30 865 H 82.8125 -1.51781 3.45315 0
M  V30 866 H 85.1995 -1.61999 2.46658 0
M  V30 867 H 85.2805 0.14541 2.55386 0
M  V30 868 H 84.9245 0.0146069 5.07898 0
M  V30 869 H 84.8545 -1.76172 4.96257 0
M  V30 870 H 87.3455 -0.876694 3.6759 0
M  V30 871 H 87.6585 -1.17872 7.63758 0
M  V30 872 H 86.0035 -1.06693 6.86762 0
M  V30 873 H 89.1945 -1.00382 4.5721 0
M  V30 874 H 89.3675 -1.14177 6.37862 0
M  V30 875 N 82.7736 -1.49793 -0.48987 0
M  V30 876 C 84.0206 -1.59841 -1.24327 0
M  V30 877 C 84.3486 -0.290135 -1.92324 0
M  V30 878 O 83.6036 0.722749 -1.81865 0
M  V30 879 C 83.9026 -2.71488 -2.32441 0
M  V30 880 C 83.5686 -4.12614 -1.81826 0
M  V30 881 C 82.2306 -4.51017 -1.67742 0
M  V30 882 C 84.5826 -5.00892 -1.4407 0
M  V30 883 C 81.9106 -5.75459 -1.14297 0
M  V30 884 C 84.2626 -6.25863 -0.920742 0
M  V30 885 C 82.9266 -6.63086 -0.766383 0
M  V30 886 H 82.1966 -0.584899 -0.454944 0
M  V30 887 H 84.8436 -1.83663 -0.542215 0
M  V30 888 H 83.1486 -2.4168 -3.0838 0
M  V30 889 H 84.8456 -2.76469 -2.90458 0
M  V30 890 H 81.4356 -3.82307 -1.93751 0
M  V30 891 H 85.6196 -4.7187 -1.53794 0
M  V30 892 H 80.8756 -6.02989 -1.01068 0
M  V30 893 H 85.0496 -6.9364 -0.619448 0
M  V30 894 H 82.6766 -7.59393 -0.350083 0
M  V30 895 N 84.2517 0.741722 -1.39055 0
M  V30 896 C 85.6627 1.31966 -1.32068 0
M  V30 897 C 86.0137 1.96192 0.0180797 0
M  V30 898 O 85.1387 1.95861 0.920196 0
M  V30 899 C 85.7337 2.39954 -2.39181 0
M  V30 900 C 84.2927 2.93438 -2.35735 0
M  V30 901 C 83.4397 1.66936 -2.21422 0
M  V30 902 H 86.3907 0.539721 -1.4924 0
M  V30 903 H 86.4117 3.20182 -2.05581 0
M  V30 904 H 85.9237 1.9318 -3.36605 0
M  V30 905 H 84.0247 3.4451 -1.41929 0
M  V30 906 H 84.1377 3.4701 -3.30335 0
M  V30 907 H 82.5017 1.91016 -1.68478 0
M  V30 908 H 83.2847 1.22224 -3.20806 0
M  V30 909 N 85.7298 1.2412 0.971189 0
M  V30 910 C 87.1458 1.00584 1.23916 0
M  V30 911 C 87.3458 -0.287481 1.99439 0
M  V30 912 O 86.4018 -1.00454 2.31658 0
M  V30 913 C 87.7148 2.21864 2.0297 0
M  V30 914 C 89.2628 2.26452 2.16076 0
M  V30 915 C 89.7378 3.47343 2.98524 0
M  V30 916 N 91.2288 3.47639 3.06107 0
M  V30 917 C 91.9638 4.37837 3.70251 0
M  V30 918 N 91.4598 5.38286 4.36142 0
M  V30 919 N 93.2528 4.25558 3.67228 0
M  V30 920 H 85.4038 2.07236 0.465499 0
M  V30 921 H 87.6668 0.909236 0.268315 0
M  V30 922 H 87.3728 3.15771 1.54861 0
M  V30 923 H 87.2468 2.23698 3.03709 0
M  V30 924 H 89.6338 1.33078 2.6339 0
M  V30 925 H 89.7148 2.28645 1.14696 0
M  V30 926 H 89.3588 4.41029 2.51905 0
M  V30 927 H 89.2888 3.42393 4.00093 0
M  V30 928 H 91.7798 2.74966 2.59233 0
M  V30 929 H 92.0928 6.03352 4.82894 0
M  V30 930 H 90.4378 5.42176 4.34822 0
M  V30 931 H 93.6288 3.46322 3.14927 0
M  V30 932 H 93.8018 4.96054 4.16935 0
M  V30 933 N 87.2079 -1.17134 1.05439 0
M  V30 934 C 88.6239 -1.39454 0.776201 0
M  V30 935 C 88.8239 -1.91454 -0.628307 0
M  V30 936 O 87.8799 -2.10777 -1.39031 0
M  V30 937 C 89.1929 -2.38305 1.83388 0
M  V30 938 C 90.7409 -2.52006 1.85639 0
M  V30 939 C 91.2159 -3.54133 2.90437 0
M  V30 940 N 92.7069 -3.61653 2.89415 0
M  V30 941 C 93.4419 -4.4044 3.67152 0
M  V30 942 N 92.9379 -5.22721 4.54681 0
M  V30 943 N 94.7309 -4.35337 3.55581 0
M  V30 944 H 86.8819 -0.817134 1.96053 0
M  V30 945 H 89.1449 -0.421626 0.849079 0
M  V30 946 H 88.8509 -2.07173 2.84204 0
M  V30 947 H 88.7249 -3.37841 1.67761 0
M  V30 948 H 91.1119 -2.82447 0.85486 0
M  V30 949 H 91.1929 -1.52537 2.05344 0
M  V30 950 H 90.8369 -3.24431 3.90777 0
M  V30 951 H 90.7669 -4.53313 2.67983 0
M  V30 952 H 93.2579 -3.02909 2.25952 0
M  V30 953 H 93.5709 -5.80027 5.10674 0
M  V30 954 H 91.9159 -5.22093 4.58741 0
M  V30 955 H 95.1069 -3.70112 2.86592 0
M  V30 956 H 95.2799 -4.96494 4.1641 0
M  V30 957 N 88.686 -0.835752 -1.33615 0
M  V30 958 C 89.616 -0.281739 -2.31794 0
M  V30 959 C 90.597 0.608833 -1.58831 0
M  V30 960 O 91.782 0.533035 -1.86741 0
M  V30 961 C 88.912 0.546612 -3.42971 0
M  V30 962 C 87.866 -0.247904 -4.27281 0
M  V30 963 C 87.192 0.704001 -5.30045 0
M  V30 964 C 88.492 -1.46324 -5.01385 0
M  V30 965 H 90.186 -1.10206 -2.78379 0
M  V30 966 H 87.732 -0.531388 -1.33837 0
M  V30 967 H 89.685 0.944467 -4.1068 0
M  V30 968 H 88.409 1.40011 -2.95067 0
M  V30 969 H 87.068 -0.627281 -3.61194 0
M  V30 970 H 86.716 1.55381 -4.78399 0
M  V30 971 H 86.416 0.176524 -5.87335 0
M  V30 972 H 87.94 1.09944 -6.0062 0
M  V30 973 H 89.354 -1.13871 -5.61877 0
M  V30 974 H 87.751 -1.92728 -5.6831 0
M  V30 975 H 88.821 -2.23467 -4.30338 0
M  V30 976 N 90.1641 1.46063 -0.591896 0
M  V30 977 C 91.4101 2.02638 -0.0811191 0
M  V30 978 C 91.7431 1.4613 1.27905 0
M  V30 979 O 91.0181 0.629908 1.84017 0
M  V30 980 C 91.3011 3.60091 -0.0252436 0
M  V30 981 C 91.1541 4.26965 -1.41496 0
M  V30 982 C 92.4731 4.3496 0.670685 0
M  V30 983 H 89.5921 0.73635 -0.0309524 0
M  V30 984 H 92.2341 1.741 -0.760859 0
M  V30 985 H 90.3841 3.84535 0.553624 0
M  V30 986 H 92.0561 4.13756 -2.0397 0
M  V30 987 H 90.2991 3.85971 -1.98011 0
M  V30 988 H 90.9701 5.35781 -1.32825 0
M  V30 989 H 93.4461 4.15716 0.178825 0
M  V30 990 H 92.3221 5.44686 0.678837 0
M  V30 991 H 92.5831 4.06685 1.73379 0
M  V30 992 N 91.6422 0.330177 1.54103 0
M  V30 993 C 92.8882 -0.270806 2.00984 0
M  V30 994 C 93.2212 -1.51265 1.21789 0
M  V30 995 O 92.4962 -1.92142 0.301927 0
M  V30 996 C 92.7792 -0.598339 3.55094 0
M  V30 997 C 92.6322 0.654674 4.4501 0
M  V30 998 C 93.9512 -1.41334 4.16789 0
M  V30 999 H 91.0702 -0.0969531 0.730595 0
M  V30 1000 H 93.7122 0.448066 1.84641 0
M  V30 1001 H 91.8622 -1.21078 3.69151 0
M  V30 1002 H 93.5342 1.29285 4.42813 0
M  V30 1003 H 91.7772 1.28224 4.14416 0
M  V30 1004 H 92.4482 0.380944 5.50684 0
M  V30 1005 H 94.9242 -0.895597 4.06347 0
M  V30 1006 H 93.8002 -1.61127 5.24718 0
M  V30 1007 H 94.0612 -2.41146 3.70541 0
M  V30 1008 N 93.1203 -1.57491 0.0584922 0
M  V30 1009 C 94.0503 -2.14988 -0.911178 0
M  V30 1010 C 95.0313 -1.07343 -1.31952 0
M  V30 1011 O 96.2163 -1.35318 -1.39294 0
M  V30 1012 C 93.3463 -2.70078 -2.18347 0
M  V30 1013 C 92.3003 -3.82771 -1.91495 0
M  V30 1014 C 91.6263 -4.24408 -3.25241 0
M  V30 1015 C 92.9263 -5.07592 -1.23075 0
M  V30 1016 H 94.6203 -2.96263 -0.432246 0
M  V30 1017 H 92.1663 -1.42512 -0.206469 0
M  V30 1018 H 94.1193 -3.08943 -2.86587 0
M  V30 1019 H 92.8433 -1.86005 -2.68458 0
M  V30 1020 H 91.5023 -3.44389 -1.25664 0
M  V30 1021 H 91.1503 -3.37275 -3.73168 0
M  V30 1022 H 90.8503 -5.00366 -3.08071 0
M  V30 1023 H 92.3743 -4.65879 -3.94701 0
M  V30 1024 H 93.7883 -5.43857 -1.81362 0
M  V30 1025 H 92.1853 -5.88741 -1.16207 0
M  V30 1026 H 93.2553 -4.84454 -0.207847 0
M  V30 1027 N 94.5984 0.214957 -1.56127 0
M  V30 1028 C 95.8464 0.936518 -1.79091 0
M  V30 1029 C 96.1674 1.84606 -0.628148 0
M  V30 1030 O 95.4374 1.92664 0.35462 0
M  V30 1031 H 94.0174 0.3488 -0.660566 0
M  V30 1032 H 96.6794 0.22523 -1.93594 0
M  V30 1033 H 95.7754 1.53943 -2.71492 0
M  V30 1034 N 96.0765 1.50051 0.48192 0
M  V30 1035 C 97.3235 1.60498 1.23477 0
M  V30 1036 C 97.6515 0.300331 1.92167 0
M  V30 1037 O 96.9065 -0.713094 1.82246 0
M  V30 1038 C 97.2055 2.72717 2.30998 0
M  V30 1039 C 96.8715 4.13572 1.79636 0
M  V30 1040 C 95.5335 4.519 1.65348 0
M  V30 1041 C 97.8855 5.01649 1.41412 0
M  V30 1042 C 95.2135 5.76057 1.11244 0
M  V30 1043 C 97.5655 6.26343 0.887538 0
M  V30 1044 C 96.2295 6.63483 0.731207 0
M  V30 1045 H 95.4995 0.587303 0.451836 0
M  V30 1046 H 98.1465 1.83948 0.532468 0
M  V30 1047 H 96.4515 2.43312 3.07094 0
M  V30 1048 H 98.1485 2.78006 2.88988 0
M  V30 1049 H 94.7385 3.83329 1.91721 0
M  V30 1050 H 98.9225 4.72679 1.51289 0
M  V30 1051 H 94.1785 6.03516 0.978686 0
M  V30 1052 H 98.3525 6.93958 0.582654 0
M  V30 1053 H 95.9795 7.59568 0.309806 0
M  V30 1054 N 97.5546 -0.734337 1.39446 0
M  V30 1055 C 98.9656 -1.31264 1.32766 0
M  V30 1056 C 99.3166 -1.96198 -0.00767497 0
M  V30 1057 O 98.4416 -1.96346 -0.909796 0
M  V30 1058 C 99.0366 -2.38682 2.4045 0
M  V30 1059 C 97.5956 -2.92184 2.37288 0
M  V30 1060 C 96.7426 -1.6576 2.22304 0
M  V30 1061 H 99.6936 -0.531799 1.49525 0
M  V30 1062 H 99.7146 -3.19087 2.07276 0
M  V30 1063 H 99.2266 -1.91392 3.37625 0
M  V30 1064 H 97.3276 -3.43752 1.43754 0
M  V30 1065 H 97.4406 -3.45253 3.3217 0
M  V30 1066 H 95.8046 -1.9012 1.69489 0
M  V30 1067 H 96.5876 -1.20521 3.21449 0
M  V30 1068 N 99.0327 -1.24633 -0.964593 0
M  V30 1069 C 100.273 -1.09981 -1.72289 0
M  V30 1070 C 100.637 0.354792 -1.88693 0
M  V30 1071 O 101.838 0.62289 -2.61483 0
M  V30 1072 C 100.109 -1.82262 -3.07434 0
M  V30 1073 S 101.668 -1.83379 -3.98645 0
M  V30 1074 H 98.4857 -0.393292 -0.59232 0
M  V30 1075 H 101.088 -1.58009 -1.15123 0
M  V30 1076 H 99.7917 -2.87206 -2.93157 0
M  V30 1077 H 99.3227 -1.3458 -3.69664 0
M  V30 1078 H 101.338 -0.903691 -4.87901 0
M  V30 1079 N 100.511 1.16574 -1.06058 0
M  V30 1080 C 101.459 2.22941 -0.663343 0
M  V30 1081 C 102.453 1.66358 0.319593 0
M  V30 1082 O 103.659 1.7905 0.184713 0
M  V30 1083 H 100.034 0.725907 -0.196376 0
M  V30 1084 H 102.005 2.53736 -1.57037 0
M  V30 1085 C 100.754 3.47642 -0.0632808 0
M  V30 1086 H 100.077 3.91493 -0.810733 0
M  V30 1087 H 101.517 4.2363 0.177177 0
M  V30 1088 C 99.9758 3.1509 1.19248 0
M  V30 1089 O 100.506 3.30673 2.28075 0
M  V30 1090 N 98.7118 2.6924 1.09353 0
M  V30 1091 H 98.2588 2.5676 0.207912 0
M  V30 1092 H 98.2168 2.47833 1.93458 0
M  V30 1093 N 101.989 0.842826 1.3317 0
M  V30 1094 C 102.921 0.236245 2.27979 0
M  V30 1095 C 103.934 -0.585282 1.51915 0
M  V30 1096 O 105.123 -0.411705 1.73687 0
M  V30 1097 C 102.223 -0.685717 3.3189 0
M  V30 1098 C 101.396 0.0973448 4.37292 0
M  V30 1099 C 100.455 -0.748565 5.20848 0
M  V30 1100 O 99.4809 -0.186339 5.68895 0
M  V30 1101 N 100.683 -2.06527 5.42519 0
M  V30 1102 H 103.448 1.05088 2.80672 0
M  V30 1103 H 101.009 0.701667 1.45905 0
M  V30 1104 H 103.001 -1.25669 3.84694 0
M  V30 1105 H 101.571 -1.40105 2.79445 0
M  V30 1106 H 100.791 0.849706 3.84933 0
M  V30 1107 H 102.079 0.635643 5.04814 0
M  V30 1108 H 101.477 -2.54554 5.05192 0
M  V30 1109 H 100.034 -2.58464 5.98364 0
M  V30 1110 N 103.467 -1.45747 0.599634 0
M  V30 1111 C 104.714 -2.02292 0.0917284 0
M  V30 1112 C 105.042 -1.46906 -1.27472 0
M  V30 1113 O 104.297 -0.630652 -1.8526 0
M  V30 1114 C 104.596 -3.57399 -0.00602758 0
M  V30 1115 C 104.262 -4.31902 1.29503 0
M  V30 1116 C 102.924 -4.51974 1.65144 0
M  V30 1117 C 105.276 -4.74551 2.15525 0
M  V30 1118 C 102.604 -5.11949 2.86574 0
M  V30 1119 C 104.956 -5.35868 3.36196 0
M  V30 1120 C 103.62 -5.54165 3.72099 0
M  V30 1121 H 102.89 -0.740239 0.0335658 0
M  V30 1122 H 105.537 -1.7491 0.779661 0
M  V30 1123 H 103.842 -3.84014 -0.777183 0
M  V30 1124 H 105.539 -3.98846 -0.415038 0
M  V30 1125 H 102.129 -4.16588 1.00761 0
M  V30 1126 H 106.313 -4.58784 1.8929 0
M  V30 1127 H 101.569 -5.24305 3.14507 0
M  V30 1128 H 105.743 -5.6787 4.03109 0
M  V30 1129 H 103.37 -6.00406 4.6628 0
M  V30 1130 N 104.945 -0.338344 -1.53925 0
M  V30 1131 C 106.193 0.259245 -2.0043 0
M  V30 1132 C 106.514 1.51484 -1.22791 0
M  V30 1133 O 105.784 1.93037 -0.33368 0
M  V30 1134 H 104.364 0.0987845 -0.740439 0
M  V30 1135 H 107.026 -0.458302 -1.89435 0
M  V30 1136 H 106.122 0.505334 -3.07982 0
M  V30 1137 N 106.423 1.57458 -0.0668435 0
M  V30 1138 C 107.373 2.0896 0.912119 0
M  V30 1139 C 108.357 0.998186 1.26195 0
M  V30 1140 O 109.549 1.26133 1.24175 0
M  V30 1141 C 106.678 2.6508 2.18145 0
M  V30 1142 C 105.764 3.81218 1.85832 0
M  V30 1143 N 106.155 4.90378 1.23948 0
M  V30 1144 C 104.453 3.9042 2.15612 0
M  V30 1145 C 105.154 5.71279 1.09616 0
M  V30 1146 N 104.13 5.19389 1.60423 0
M  V30 1147 H 107.932 2.90749 0.42924 0
M  V30 1148 H 105.446 1.6182 0.137184 0
M  V30 1149 H 107.443 3.0029 2.89192 0
M  V30 1150 H 106.103 1.84736 2.67025 0
M  V30 1151 H 107.114 5.09847 0.909731 0
M  V30 1152 H 103.791 3.21043 2.66903 0
M  V30 1153 H 105.181 6.69085 0.614425 0
M  V30 1154 N 107.901 -0.206675 1.56239 0
M  V30 1155 C 108.833 -1.27997 1.9013 0
M  V30 1156 C 109.846 -1.42299 0.790883 0
M  V30 1157 O 111.035 -1.42931 1.06925 0
M  V30 1158 C 108.135 -2.65368 2.10792 0
M  V30 1159 C 107.308 -2.72824 3.41886 0
M  V30 1160 C 106.367 -3.9131 3.51799 0
M  V30 1161 O 105.393 -3.78953 4.24716 0
M  V30 1162 N 106.595 -5.06265 2.84035 0
M  V30 1163 H 109.36 -0.992444 2.82791 0
M  V30 1164 H 106.921 -0.396652 1.56966 0
M  V30 1165 H 108.913 -3.43039 2.14724 0
M  V30 1166 H 107.483 -2.86657 1.24685 0
M  V30 1167 H 106.703 -1.81515 3.49923 0
M  V30 1168 H 107.991 -2.74786 4.28217 0
M  V30 1169 H 107.389 -5.19203 2.246 0
M  V30 1170 H 105.946 -5.81925 2.93609 0
M  V30 1171 N 109.379 -1.50304 -0.473955 0
M  V30 1172 C 110.289 -1.7174 -1.5982 0
M  V30 1173 C 111.305 -0.600457 -1.63311 0
M  V30 1174 O 112.481 -0.878441 -1.81233 0
M  V30 1175 C 109.546 -1.80427 -2.96052 0
M  V30 1176 C 108.607 -3.04148 -3.02972 0
M  V30 1177 C 107.84 -3.12411 -4.32706 0
M  V30 1178 O 108.063 -2.27542 -5.23049 0
M  V30 1179 O 106.997 -4.05113 -4.45159 0
M  V30 1180 H 110.823 -2.67035 -1.44657 0
M  V30 1181 H 108.408 -1.34366 -0.653148 0
M  V30 1182 H 110.29 -1.88338 -3.7697 0
M  V30 1183 H 108.965 -0.883156 -3.11419 0
M  V30 1184 H 107.872 -3.0174 -2.21142 0
M  V30 1185 H 109.205 -3.95829 -2.92541 0
M  V30 1186 N 110.857 0.726932 -1.39834 0
M  V30 1187 C 111.805 1.86235 -1.39353 0
M  V30 1188 C 112.799 1.67144 -0.275555 0
M  V30 1189 O 114.005 1.74387 -0.44601 0
M  V30 1190 H 110.38 0.613174 -0.43534 0
M  V30 1191 H 112.351 1.83756 -2.35109 0
M  V30 1192 C 111.1 3.23995 -1.26185 0
M  V30 1193 H 110.423 3.39285 -2.11484 0
M  V30 1194 H 111.863 4.03609 -1.29907 0
M  V30 1195 C 110.322 3.36888 0.0290018 0
M  V30 1196 O 110.852 3.89152 0.99619 0
M  V30 1197 N 109.058 2.90446 0.0947437 0
M  V30 1198 H 108.605 2.48102 -0.693035 0
M  V30 1199 H 108.563 2.99451 0.957932 0
M  V30 1200 N 112.336 1.25143 0.95797 0
M  V30 1201 C 113.576 1.10893 1.71703 0
M  V30 1202 C 113.94 -0.34478 1.88879 0
M  V30 1203 O 115.141 -0.609014 2.6181 0
M  V30 1204 C 113.412 1.83889 3.06463 0
M  V30 1205 S 114.971 1.85491 3.97666 0
M  V30 1206 H 111.789 0.396428 0.590226 0
M  V30 1207 H 114.391 1.58618 1.14283 0
M  V30 1208 H 113.095 2.88756 2.9163 0
M  V30 1209 H 112.626 1.36538 3.68946 0
M  V30 1210 H 114.641 0.929553 4.87415 0
M  V30 1211 N 113.814 -1.1601 1.06675 0
M  V30 1212 C 114.746 -2.20115 0.638921 0
M  V30 1213 C 115.759 -1.59916 -0.305057 0
M  V30 1214 O 116.948 -1.78245 -0.0954446 0
M  V30 1215 C 114.048 -3.38798 -0.0830083 0
M  V30 1216 C 113.221 -4.2855 0.875426 0
M  V30 1217 C 112.28 -5.25849 0.192042 0
M  V30 1218 O 111.306 -5.63102 0.830921 0
M  V30 1219 N 112.508 -5.70648 -1.06493 0
M  V30 1220 H 115.273 -2.57439 1.53444 0
M  V30 1221 H 112.834 -1.31057 0.950557 0
M  V30 1222 H 114.826 -4.00936 -0.550685 0
M  V30 1223 H 113.396 -2.99947 -0.880386 0
M  V30 1224 H 112.616 -3.63617 1.52238 0
M  V30 1225 H 113.904 -4.85393 1.52548 0
M  V30 1226 H 113.302 -5.42482 -1.60405 0
M  V30 1227 H 111.859 -6.34859 -1.47641 0
M  V30 1228 N 115.292 -0.849877 -1.32721 0
M  V30 1229 C 116.24 -0.279745 -2.30912 0
M  V30 1230 C 117.234 0.594278 -1.58634 0
M  V30 1231 O 118.44 0.482613 -1.73409 0
M  V30 1232 H 114.815 -0.0717521 -0.748569 0
M  V30 1233 H 116.786 -1.12222 -2.76494 0
M  V30 1234 C 115.535 0.521108 -3.43773 0
M  V30 1235 H 114.858 -0.142141 -3.99547 0
M  V30 1236 H 116.298 0.885693 -4.14646 0
M  V30 1237 C 114.757 1.70442 -2.90605 0
M  V30 1238 O 115.287 2.8034 -2.87702 0
M  V30 1239 N 113.493 1.52991 -2.47067 0
M  V30 1240 H 113.04 0.635914 -2.49628 0
M  V30 1241 H 112.998 2.32311 -2.11847 0
M  V30 1242 N 116.77 1.45427 -0.607355 0
M  V30 1243 C 117.68 2.34325 0.113463 0
M  V30 1244 C 118.696 1.51226 0.860617 0
M  V30 1245 O 119.872 1.84029 0.818255 0
M  V30 1246 C 116.937 3.28839 1.09844 0
M  V30 1247 C 115.998 4.27844 0.353271 0
M  V30 1248 C 115.231 5.17842 1.29133 0
M  V30 1249 O 115.454 5.11264 2.52913 0
M  V30 1250 O 114.388 5.96713 0.788523 0
M  V30 1251 H 118.214 2.97364 -0.617094 0
M  V30 1252 H 115.799 1.44807 -0.367619 0
M  V30 1253 H 117.681 3.8708 1.66575 0
M  V30 1254 H 116.356 2.68365 1.81003 0
M  V30 1255 H 115.263 3.7322 -0.256494 0
M  V30 1256 H 116.596 4.91173 -0.317822 0
M  V30 1257 N 118.248 0.346503 1.53744 0
M  V30 1258 C 119.158 -0.517293 2.28826 0
M  V30 1259 C 120.174 -1.10935 1.3405 0
M  V30 1260 O 121.35 -1.1244 1.6709 0
M  V30 1261 C 118.415 -1.65098 3.04866 0
M  V30 1262 C 117.476 -1.0884 4.15274 0
M  V30 1263 C 116.709 -2.16806 4.87679 0
M  V30 1264 O 116.932 -3.3758 4.59778 0
M  V30 1265 O 115.866 -1.80934 5.74061 0
M  V30 1266 H 119.692 0.0931396 3.03557 0
M  V30 1267 H 117.277 0.111458 1.48984 0
M  V30 1268 H 119.159 -2.31053 3.5241 0
M  V30 1269 H 117.834 -2.24717 2.32989 0
M  V30 1270 H 116.741 -0.3933 3.72027 0
M  V30 1271 H 118.074 -0.537036 4.89261 0
M  V30 1272 N 119.726 -1.57421 0.075193 0
M  V30 1273 C 120.975 -1.92794 -0.592731 0
M  V30 1274 C 121.288 -0.957478 -1.70563 0
M  V30 1275 O 122.494 -1.20417 -2.43335 0
M  V30 1276 C 120.95 -3.42495 -1.10569 0
M  V30 1277 C 120.558 -4.47994 -0.0236121 0
M  V30 1278 C 122.302 -3.86864 -1.74748 0
M  V30 1279 C 120.209 -5.88829 -0.550803 0
M  V30 1280 H 119.139 -0.719591 -0.225177 0
M  V30 1281 H 121.79 -1.82902 0.147978 0
M  V30 1282 H 120.172 -3.47471 -1.89947 0
M  V30 1283 H 121.346 -4.54637 0.751099 0
M  V30 1284 H 119.661 -4.13113 0.522159 0
M  V30 1285 H 122.258 -4.8947 -2.15229 0
M  V30 1286 H 122.601 -3.24417 -2.60882 0
M  V30 1287 H 123.134 -3.84504 -1.01986 0
M  V30 1288 H 119.873 -6.54929 0.273457 0
M  V30 1289 H 119.393 -5.85698 -1.29296 0
M  V30 1290 H 121.072 -6.38811 -1.02613 0
M  V30 1291 N 121.204 0.198386 -1.56346 0
M  V30 1292 C 122.134 1.24865 -1.9731 0
M  V30 1293 C 123.115 1.47651 -0.844576 0
M  V30 1294 O 124.3 1.59444 -1.10866 0
M  V30 1295 C 121.43 2.59358 -2.30977 0
M  V30 1296 C 120.384 2.5119 -3.46537 0
M  V30 1297 C 119.71 3.89926 -3.65871 0
M  V30 1298 C 121.01 2.03977 -4.80823 0
M  V30 1299 H 122.704 0.908252 -2.85291 0
M  V30 1300 H 120.25 0.435462 -1.37258 0
M  V30 1301 H 122.203 3.33011 -2.58228 0
M  V30 1302 H 120.927 2.95132 -1.39874 0
M  V30 1303 H 119.586 1.79993 -3.19371 0
M  V30 1304 H 119.234 4.23046 -2.72105 0
M  V30 1305 H 118.934 3.85336 -4.4361 0
M  V30 1306 H 120.458 4.65205 -3.95495 0
M  V30 1307 H 121.872 2.67386 -5.07127 0
M  V30 1308 H 120.269 2.10397 -5.62008 0
M  V30 1309 H 121.339 0.992861 -4.74626 0
M  V30 1310 N 122.682 1.50554 0.465978 0
M  V30 1311 C 123.63 1.70324 1.58406 0
M  V30 1312 C 124.624 0.569139 1.59553 0
M  V30 1313 O 125.83 0.749776 1.63641 0
M  V30 1314 H 122.205 0.537688 0.525734 0
M  V30 1315 H 124.176 2.64104 1.38894 0
M  V30 1316 C 122.925 1.81928 2.96307 0
M  V30 1317 H 122.248 2.68586 2.96144 0
M  V30 1318 H 123.688 1.99784 3.73982 0
M  V30 1319 C 122.147 0.572095 3.32007 0
M  V30 1320 O 122.677 -0.286416 4.00678 0
M  V30 1321 N 120.883 0.424606 2.87481 0
M  V30 1322 H 120.43 1.12427 2.31771 0
M  V30 1323 H 120.388 -0.408697 3.11732 0
M  V30 1324 N 124.16 -0.719506 1.40217 0
M  V30 1325 C 125.385 -1.51371 1.4178 0
M  V30 1326 C 125.81 -1.88091 0.0182355 0
M  V30 1327 O 125.168 -1.52997 -0.972707 0
M  V30 1328 C 125.216 -2.768 2.31115 0
M  V30 1329 O 124.32 -3.73349 1.7517 0
M  V30 1330 H 123.661 -0.456529 0.482159 0
M  V30 1331 H 126.191 -0.88644 1.844 0
M  V30 1332 H 126.201 -3.25371 2.46167 0
M  V30 1333 H 124.876 -2.49407 3.3282 0
M  V30 1334 H 123.453 -3.32179 1.69444 0
M  V30 1335 N 125.638 -1.25649 -0.95132 0
M  V30 1336 C 126.568 -1.08808 -2.06599 0
M  V30 1337 C 127.549 0.00382547 -1.701 0
M  V30 1338 O 128.734 -0.166325 -1.93486 0
M  V30 1339 C 125.864 -0.709542 -3.39975 0
M  V30 1340 C 124.818 -1.75206 -3.90496 0
M  V30 1341 C 124.144 -1.22811 -5.20405 0
M  V30 1342 C 125.444 -3.15153 -4.16504 0
M  V30 1343 H 127.138 -2.02048 -2.20946 0
M  V30 1344 H 124.684 -0.972835 -1.06169 0
M  V30 1345 H 126.637 -0.578649 -4.17408 0
M  V30 1346 H 125.361 0.258556 -3.25575 0
M  V30 1347 H 124.02 -1.87145 -3.15234 0
M  V30 1348 H 123.668 -0.250145 -5.02378 0
M  V30 1349 H 123.368 -1.92492 -5.55176 0
M  V30 1350 H 124.892 -1.10968 -6.00432 0
M  V30 1351 H 126.306 -3.06349 -4.84586 0
M  V30 1352 H 124.703 -3.82333 -4.62538 0
M  V30 1353 H 125.773 -3.61966 -3.22658 0
M  V30 1354 N 127.117 1.15442 -1.07289 0
M  V30 1355 C 128.064 2.20161 -0.692653 0
M  V30 1356 C 129.034 1.63073 0.31564 0
M  V30 1357 O 130.219 1.89725 0.202235 0
M  V30 1358 C 127.359 3.44967 -0.0959509 0
M  V30 1359 C 126.472 4.16256 -1.15564 0
M  V30 1360 C 125.607 5.28609 -0.524011 0
M  V30 1361 C 124.646 5.91715 -1.56653 0
M  V30 1362 N 123.783 6.9554 -0.957531 0
M  V30 1363 H 128.623 2.52037 -1.59002 0
M  V30 1364 H 126.16 1.2378 -0.794798 0
M  V30 1365 H 128.118 4.16341 0.267628 0
M  V30 1366 H 126.748 3.1361 0.764772 0
M  V30 1367 H 125.8 3.43385 -1.6368 0
M  V30 1368 H 127.112 4.59268 -1.94613 0
M  V30 1369 H 126.266 6.06604 -0.108032 0
M  V30 1370 H 125.005 4.86787 0.29825 0
M  V30 1371 H 124.01 5.12433 -1.9923 0
M  V30 1372 H 125.235 6.35614 -2.39107 0
M  V30 1373 H 123.181 6.55814 -0.156162 0
M  V30 1374 H 123.098 7.36977 -1.68526 0
M  V30 1375 H 124.366 7.77435 -0.567032 0
M  V30 1376 N 128.595 0.856903 1.32268 0
M  V30 1377 C 129.825 0.47475 2.01071 0
M  V30 1378 C 130.233 -0.933746 1.64553 0
M  V30 1379 O 129.576 -1.62114 0.863989 0
M  V30 1380 C 129.638 0.536746 3.55471 0
M  V30 1381 C 129.302 1.90453 4.15423 0
M  V30 1382 C 130.299 2.87029 4.33486 0
M  V30 1383 C 127.984 2.20229 4.51447 0
M  V30 1384 C 129.978 4.11532 4.86744 0
M  V30 1385 C 127.665 3.44984 5.0441 0
M  V30 1386 C 128.663 4.40452 5.22007 0
M  V30 1387 O 128.351 5.62998 5.73837 0
M  V30 1388 H 128.083 0.184778 0.650256 0
M  V30 1389 H 130.637 1.15615 1.69771 0
M  V30 1390 H 128.867 -0.20152 3.86175 0
M  V30 1391 H 130.556 0.169875 4.05544 0
M  V30 1392 H 131.322 2.6533 4.05986 0
M  V30 1393 H 127.201 1.46705 4.37034 0
M  V30 1394 H 130.745 4.86056 5.00395 0
M  V30 1395 H 126.642 3.66532 5.31342 0
M  V30 1396 H 127.41 5.64987 5.92226 0
M  V30 1397 N 130.073 -1.45103 0.615059 0
M  V30 1398 C 131.319 -2.02483 0.113347 0
M  V30 1399 C 131.652 -1.48146 -1.25564 0
M  V30 1400 O 130.927 -0.659104 -1.82992 0
M  V30 1401 C 131.21 -3.60005 0.0825278 0
M  V30 1402 C 131.063 -4.2466 1.48271 0
M  V30 1403 C 132.382 -4.35972 -0.601401 0
M  V30 1404 H 129.501 -0.735764 0.0426632 0
M  V30 1405 H 132.143 -1.72868 0.788461 0
M  V30 1406 H 130.293 -3.85367 -0.492378 0
M  V30 1407 H 131.965 -4.10458 2.10527 0
M  V30 1408 H 130.208 -3.82772 2.04127 0
M  V30 1409 H 130.879 -5.336 1.41332 0
M  V30 1410 H 133.355 -4.15947 -0.112666 0
M  V30 1411 H 132.231 -5.45697 -0.592097 0
M  V30 1412 H 132.492 -4.09391 -1.66887 0
M  V30 1413 N 131.551 -0.354651 -1.53558 0
M  V30 1414 C 132.967 -0.00315426 -1.596 0
M  V30 1415 C 133.167 1.47741 -1.37021 0
M  V30 1416 O 132.223 2.23759 -1.16996 0
M  V30 1417 C 133.536 -0.44929 -2.97325 0
M  V30 1418 C 135.084 -0.402578 -3.104 0
M  V30 1419 C 135.559 -0.824355 -4.5052 0
M  V30 1420 N 137.05 -0.778979 -4.56603 0
M  V30 1421 C 137.785 -1.07715 -5.63192 0
M  V30 1422 N 137.281 -1.44405 -6.77583 0
M  V30 1423 N 139.074 -1.00066 -5.53121 0
M  V30 1424 H 131.225 -1.31893 -1.66487 0
M  V30 1425 H 133.488 -0.538388 -0.780284 0
M  V30 1426 H 133.194 -1.48202 -3.1895 0
M  V30 1427 H 133.068 0.169772 -3.76818 0
M  V30 1428 H 135.455 0.621004 -2.88492 0
M  V30 1429 H 135.536 -1.05699 -2.32941 0
M  V30 1430 H 135.18 -1.846 -4.73165 0
M  V30 1431 H 135.11 -0.147304 -5.26394 0
M  V30 1432 H 137.601 -0.508528 -3.74463 0
M  V30 1433 H 137.914 -1.65612 -7.54846 0
M  V30 1434 H 136.259 -1.4826 -6.79002 0
M  V30 1435 H 139.45 -0.713293 -4.62633 0
M  V30 1436 H 139.623 -1.23638 -6.36096 0
M  V30 1437 N 133.029 1.57378 -0.0835403 0
M  V30 1438 C 134.44 1.81261 0.447358 0
M  V30 1439 C 134.791 0.998331 1.68902 0
M  V30 1440 O 133.916 0.224282 2.15235 0
M  V30 1441 C 134.511 3.28767 0.818386 0
M  V30 1442 C 133.07 3.53455 1.29409 0
M  V30 1443 C 132.217 2.75831 0.285024 0
M  V30 1444 H 135.168 1.5566 -0.309115 0
M  V30 1445 H 135.189 3.41459 1.67887 0
M  V30 1446 H 134.701 3.88006 -0.0855019 0
M  V30 1447 H 132.802 2.99534 2.21608 0
M  V30 1448 H 132.915 4.62128 1.2639 0
M  V30 1449 H 131.279 2.42947 0.764767 0
M  V30 1450 H 132.062 3.37813 -0.611341 0
M  V30 1451 N 134.507 -0.190092 1.56449 0
M  V30 1452 C 135.755 -0.907908 1.80559 0
M  V30 1453 C 136.076 -1.83583 0.657438 0
M  V30 1454 O 135.346 -1.93203 -0.323924 0
M  V30 1455 H 133.926 -0.338247 0.666032 0
M  V30 1456 H 136.588 -0.194403 1.93928 0
M  V30 1457 H 135.684 -1.49604 2.73907 0
M  V30 1458 N 135.985 -1.50799 -0.457987 0
M  V30 1459 C 137.233 -1.62121 -1.2067 0
M  V30 1460 C 137.554 -0.329793 -1.92191 0
M  V30 1461 O 136.824 0.653409 -1.84682 0
M  V30 1462 H 135.404 -0.597441 -0.448411 0
M  V30 1463 H 138.066 -1.87637 -0.527096 0
M  V30 1464 H 137.162 -2.43882 -1.94751 0
M  V30 1465 N 137.463 0.71206 -1.40597 0
M  V30 1466 C 138.711 1.46907 -1.38791 0
M  V30 1467 C 139.032 1.94998 0.00780391 0
M  V30 1468 O 138.302 1.70587 0.963174 0
M  V30 1469 H 136.882 0.545043 -0.51082 0
M  V30 1470 H 139.544 0.843882 -1.75683 0
M  V30 1471 H 138.64 2.34021 -2.06496 0
M  V30 1472 N 138.941 1.26152 0.944643 0
M  V30 1473 C 140.171 1.14094 1.72239 0
M  V30 1474 C 140.579 -0.306931 1.86694 0
M  V30 1475 O 139.922 -1.22222 1.3714 0
M  V30 1476 C 139.984 1.73316 3.14963 0
M  V30 1477 C 139.648 3.2239 3.23904 0
M  V30 1478 C 140.645 4.19252 3.07447 0
M  V30 1479 C 138.33 3.62788 3.47405 0
M  V30 1480 C 140.324 5.54491 3.14353 0
M  V30 1481 C 138.011 4.98162 3.53947 0
M  V30 1482 C 139.009 5.93823 3.37436 0
M  V30 1483 O 138.697 7.26732 3.43679 0
M  V30 1484 H 138.429 0.398292 0.546205 0
M  V30 1485 H 140.983 1.67201 1.19301 0
M  V30 1486 H 139.213 1.14667 3.69308 0
M  V30 1487 H 140.902 1.56214 3.74636 0
M  V30 1488 H 141.668 3.8938 2.8915 0
M  V30 1489 H 137.547 2.88816 3.59313 0
M  V30 1490 H 141.091 6.29137 3.01384 0
M  V30 1491 H 136.988 5.27695 3.71763 0
M  V30 1492 H 137.756 7.3496 3.60245 0
M  V30 1493 N 140.419 -1.14872 1.07899 0
M  V30 1494 C 141.351 -2.19425 0.662231 0
M  V30 1495 C 142.364 -1.60231 -0.288079 0
M  V30 1496 O 143.553 -1.78336 -0.076534 0
M  V30 1497 C 140.653 -3.38867 -0.0470695 0
M  V30 1498 C 139.826 -4.27597 0.920831 0
M  V30 1499 C 138.885 -5.25616 0.247805 0
M  V30 1500 O 137.911 -5.62189 0.890599 0
M  V30 1501 N 139.113 -5.71746 -1.00435 0
M  V30 1502 H 141.878 -2.55797 1.56166 0
M  V30 1503 H 139.439 -1.30042 0.964404 0
M  V30 1504 H 141.431 -4.01497 -0.50813 0
M  V30 1505 H 140.001 -3.00864 -0.848523 0
M  V30 1506 H 139.221 -3.61982 1.56087 0
M  V30 1507 H 140.509 -4.83748 1.57688 0
M  V30 1508 H 139.907 -5.44153 -1.54642 0
M  V30 1509 H 138.464 -6.36389 -1.40899 0
M  V30 1510 N 141.898 -0.863906 -1.31812 0
M  V30 1511 C 143.309 -0.52522 -1.7916 0
M  V30 1512 C 143.66 0.957518 -1.71248 0
M  V30 1513 O 142.785 1.74734 -1.27659 0
M  V30 1514 C 143.38 -0.9466 -3.25307 0
M  V30 1515 C 141.939 -0.659668 -3.70574 0
M  V30 1516 C 141.086 -1.14126 -2.52726 0
M  V30 1517 H 144.037 -1.05022 -1.1898 0
M  V30 1518 H 144.058 -0.266766 -3.79564 0
M  V30 1519 H 143.57 -2.02579 -3.31034 0
M  V30 1520 H 141.671 0.408416 -3.70355 0
M  V30 1521 H 141.784 -1.23245 -4.62977 0
M  V30 1522 H 140.148 -0.561216 -2.4844 0
M  V30 1523 H 140.931 -2.22775 -2.61201 0
M  V30 1524 N 143.376 1.44774 -0.622745 0
M  V30 1525 C 144.604 2.06487 -0.130722 0
M  V30 1526 C 145.019 1.46476 1.19123 0
M  V30 1527 O 144.376 0.584502 1.72887 0
M  V30 1528 C 144.427 3.615 -0.000807207 0
M  V30 1529 O 144.148 4.19274 -1.27048 0
M  V30 1530 C 145.649 4.40229 0.520898 0
M  V30 1531 H 142.869 0.666704 -0.0758106 0
M  V30 1532 H 145.413 1.85779 -0.854774 0
M  V30 1533 H 143.568 3.81498 0.673643 0
M  V30 1534 H 143.982 5.12622 -1.1099 0
M  V30 1535 H 145.456 5.49144 0.560838 0
M  V30 1536 H 145.933 4.1108 1.54627 0
M  V30 1537 H 146.539 4.25131 -0.120018 0
M  V30 1538 N 144.854 0.36279 1.53368 0
M  V30 1539 C 146.101 -0.227776 2.01215 0
M  V30 1540 C 146.429 -1.49003 1.25014 0
M  V30 1541 O 145.684 -1.92876 0.331236 0
M  V30 1542 C 145.983 -0.568417 3.52851 0
M  V30 1543 C 145.649 0.59918 4.46901 0
M  V30 1544 C 144.311 0.919559 4.72332 0
M  V30 1545 C 146.663 1.38156 5.02556 0
M  V30 1546 C 143.991 2.02434 5.5067 0
M  V30 1547 C 146.343 2.47674 5.821 0
M  V30 1548 C 145.007 2.8025 6.05819 0
M  V30 1549 H 144.277 -0.083349 0.736297 0
M  V30 1550 H 146.924 0.494677 1.85001 0
M  V30 1551 H 145.229 -1.37185 3.66998 0
M  V30 1552 H 146.926 -1.03756 3.87344 0
M  V30 1553 H 143.516 0.339437 4.27254 0
M  V30 1554 H 147.7 1.14729 4.82857 0
M  V30 1555 H 142.956 2.28075 5.67267 0
M  V30 1556 H 147.13 3.08716 6.24234 0
M  V30 1557 H 144.757 3.65979 6.66306 0
M  V30 1558 N 146.332 -1.57332 0.0918853 0
M  V30 1559 C 147.56 -1.98574 -0.581048 0
M  V30 1560 C 147.975 -0.970903 -1.61923 0
M  V30 1561 O 147.332 0.0399054 -1.82456 0
M  V30 1562 C 147.383 -3.39872 -1.23164 0
M  V30 1563 O 147.104 -4.37469 -0.234989 0
M  V30 1564 C 148.605 -3.96099 -1.99049 0
M  V30 1565 H 145.825 -0.65261 -0.156018 0
M  V30 1566 H 148.369 -2.0379 0.170225 0
M  V30 1567 H 146.524 -3.35679 -1.93386 0
M  V30 1568 H 146.938 -5.19751 -0.70418 0
M  V30 1569 H 148.412 -4.97127 -2.39934 0
M  V30 1570 H 148.889 -3.3374 -2.85507 0
M  V30 1571 H 149.495 -4.03755 -1.3365 0
M  V30 1572 N 147.81 0.181792 -1.56548 0
M  V30 1573 C 148.74 1.22765 -1.98623 0
M  V30 1574 C 149.721 1.46747 -0.860189 0
M  V30 1575 O 150.906 1.58259 -1.12551 0
M  V30 1576 C 148.036 2.56894 -2.33715 0
M  V30 1577 C 146.99 2.475 -3.49182 0
M  V30 1578 C 146.316 3.86023 -3.69986 0
M  V30 1579 C 147.616 1.98866 -4.82959 0
M  V30 1580 H 149.31 0.877942 -2.86239 0
M  V30 1581 H 146.856 0.42088 -1.37712 0
M  V30 1582 H 148.809 3.30253 -2.61746 0
M  V30 1583 H 147.533 2.93632 -1.42997 0
M  V30 1584 H 146.192 1.76596 -3.21262 0
M  V30 1585 H 145.84 4.20136 -2.76576 0
M  V30 1586 H 145.54 3.80609 -4.47672 0
M  V30 1587 H 147.064 4.60984 -4.00407 0
M  V30 1588 H 148.478 2.61992 -5.09934 0
M  V30 1589 H 146.875 2.04424 -5.64208 0
M  V30 1590 H 147.945 0.942465 -4.75653 0
M  V30 1591 N 149.288 1.51039 0.449983 0
M  V30 1592 C 150.534 1.63322 1.20223 0
M  V30 1593 C 150.867 0.34241 1.91158 0
M  V30 1594 O 150.142 -0.657344 1.83055 0
M  V30 1595 C 150.425 2.82801 2.22925 0
M  V30 1596 C 150.278 4.21823 1.56157 0
M  V30 1597 C 151.597 2.97807 3.24035 0
M  V30 1598 H 148.716 0.594407 0.435718 0
M  V30 1599 H 151.358 1.83489 0.493136 0
M  V30 1600 H 149.508 2.65738 2.834 0
M  V30 1601 H 151.18 4.50526 0.991162 0
M  V30 1602 H 149.423 4.25105 0.864172 0
M  V30 1603 H 150.094 5.01391 2.30891 0
M  V30 1604 H 152.57 3.13497 2.73603 0
M  V30 1605 H 151.446 3.82992 3.93202 0
M  V30 1606 H 151.707 2.09328 3.89402 0
M  V30 1607 N 150.766 -0.704594 1.40972 0
M  V30 1608 C 151.698 -1.82974 1.38033 0
M  V30 1609 C 152.711 -1.60305 0.283931 0
M  V30 1610 O 153.9 -1.69975 0.545042 0
M  V30 1611 C 151 -3.19578 1.12795 0
M  V30 1612 C 150.173 -3.69352 2.34302 0
M  V30 1613 C 149.232 -4.84601 2.05058 0
M  V30 1614 O 148.258 -4.96682 2.7802 0
M  V30 1615 N 149.46 -5.71194 1.03528 0
M  V30 1616 H 152.225 -1.85991 2.35005 0
M  V30 1617 H 149.786 -0.886567 1.35468 0
M  V30 1618 H 151.778 -3.9429 0.911987 0
M  V30 1619 H 150.348 -3.11642 0.24452 0
M  V30 1620 H 149.568 -2.85649 2.71659 0
M  V30 1621 H 150.856 -3.99345 3.1528 0
M  V30 1622 H 150.254 -5.64054 0.431217 0
M  V30 1623 H 148.811 -6.45843 0.879205 0
M  V30 1624 N 152.244 -1.26651 -0.937939 0
M  V30 1625 C 153.191 -1.0849 -2.03712 0
M  V30 1626 C 154.161 0.011033 -1.66096 0
M  V30 1627 O 155.346 -0.149353 -1.90215 0
M  V30 1628 C 152.486 -0.72735 -3.37348 0
M  V30 1629 C 151.599 -1.89986 -3.87981 0
M  V30 1630 C 150.734 -1.48513 -5.10017 0
M  V30 1631 C 149.773 -2.62575 -5.5292 0
M  V30 1632 N 148.91 -2.21762 -6.66158 0
M  V30 1633 H 153.75 -2.02551 -2.18579 0
M  V30 1634 H 151.287 -1.00844 -1.07093 0
M  V30 1635 H 153.245 -0.50092 -4.14182 0
M  V30 1636 H 151.875 0.176298 -3.22318 0
M  V30 1637 H 150.927 -2.23913 -3.07518 0
M  V30 1638 H 152.239 -2.75586 -4.15757 0
M  V30 1639 H 151.393 -1.21934 -5.94321 0
M  V30 1640 H 150.132 -0.60009 -4.83994 0
M  V30 1641 H 149.137 -2.8988 -4.67172 0
M  V30 1642 H 150.362 -3.51685 -5.80943 0
M  V30 1643 H 148.308 -1.35696 -6.41812 0
M  V30 1644 H 148.225 -3.00903 -6.93537 0
M  V30 1645 H 149.493 -1.98403 -7.53828 0
M  V30 1646 N 153.722 1.14298 -1.08507 0
M  V30 1647 C 154.962 1.87016 -0.824894 0
M  V30 1648 C 155.326 1.81099 0.637735 0
M  V30 1649 O 156.527 2.48963 1.01345 0
M  V30 1650 C 154.798 3.31584 -1.33368 0
M  V30 1651 S 156.357 4.21903 -1.20596 0
M  V30 1652 H 153.175 0.645259 -0.2986 0
M  V30 1653 H 155.777 1.37822 -1.38656 0
M  V30 1654 H 154.481 3.33439 -2.39262 0
M  V30 1655 H 154.012 3.85836 -0.767734 0
M  V30 1656 H 156.027 4.95971 -0.150891 0
M  V30 1657 N 155.201 0.870884 1.31352 0
M  V30 1658 C 156.111 0.330783 2.32256 0
M  V30 1659 C 157.127 -0.559767 1.6475 0
M  V30 1660 O 158.303 -0.456263 1.96164 0
M  V30 1661 C 155.368 -0.458137 3.4366 0
M  V30 1662 C 154.429 0.460482 4.26823 0
M  V30 1663 C 153.662 -0.290881 5.32907 0
M  V30 1664 O 153.885 -1.51885 5.49806 0
M  V30 1665 O 152.819 0.351732 6.00871 0
M  V30 1666 H 156.645 1.16718 2.80376 0
M  V30 1667 H 154.23 0.634285 1.35267 0
M  V30 1668 H 156.112 -0.905343 4.1156 0
M  V30 1669 H 154.787 -1.27106 2.97701 0
M  V30 1670 H 153.694 0.956207 3.61673 0
M  V30 1671 H 155.027 1.23903 4.7635 0
M  V30 1672 N 156.679 -1.44442 0.630414 0
M  V30 1673 C 157.925 -2.02351 0.134816 0
M  V30 1674 C 158.258 -1.4947 -1.23986 0
M  V30 1675 O 157.533 -0.678475 -1.82283 0
M  V30 1676 C 157.816 -3.59898 0.120707 0
M  V30 1677 C 157.669 -4.23063 1.52767 0
M  V30 1678 C 158.988 -4.36585 -0.555127 0
M  V30 1679 H 156.107 -0.73527 0.0504646 0
M  V30 1680 H 158.749 -1.72022 0.806751 0
M  V30 1681 H 156.899 -3.85868 -0.451477 0
M  V30 1682 H 158.571 -4.08202 2.14869 0
M  V30 1683 H 156.814 -3.80586 2.08175 0
M  V30 1684 H 157.485 -5.32071 1.46984 0
M  V30 1685 H 159.961 -4.16044 -0.0685429 0
M  V30 1686 H 158.837 -5.46294 -0.534185 0
M  V30 1687 H 159.098 -4.11138 -1.62535 0
M  V30 1688 N 158.157 -0.370918 -1.53173 0
M  V30 1689 C 159.105 0.488101 -2.27421 0
M  V30 1690 C 160.099 1.07884 -1.30604 0
M  V30 1691 O 161.305 1.02143 -1.48212 0
M  V30 1692 H 157.68 0.176134 -0.731082 0
M  V30 1693 H 159.651 -0.159815 -2.97972 0
M  V30 1694 C 158.4 1.61306 -3.08019 0
M  V30 1695 H 157.723 1.1678 -3.82364 0
M  V30 1696 H 159.163 2.18872 -3.63141 0
M  V30 1697 C 157.622 2.55848 -2.19188 0
M  V30 1698 O 158.152 3.58799 -1.80626 0
M  V30 1699 N 156.358 2.2516 -1.83715 0
M  V30 1700 H 155.905 1.41476 -2.15273 0
M  V30 1701 H 155.863 2.8867 -1.24567 0
M  V30 1702 N 159.635 1.57281 -0.100228 0
M  V30 1703 C 160.883 1.94153 0.561157 0
M  V30 1704 C 161.204 0.983157 1.68401 0
M  V30 1705 O 160.474 0.0361132 1.95867 0
M  V30 1706 H 159.054 0.716791 0.210283 0
M  V30 1707 H 161.716 1.94202 -0.164765 0
M  V30 1708 H 160.812 2.96709 0.968008 0
M  V30 1709 N 161.113 -0.173488 1.56642 0
M  V30 1710 C 162.045 -1.23935 1.92802 0
M  V30 1711 C 163.058 -1.40589 0.820889 0
M  V30 1712 O 164.247 -1.40631 1.09933 0
M  V30 1713 C 161.347 -2.60837 2.16373 0
M  V30 1714 C 160.52 -2.6551 3.47596 0
M  V30 1715 C 159.579 -3.8376 3.60021 0
M  V30 1716 O 158.605 -3.69859 4.32658 0
M  V30 1717 N 159.807 -5.00127 2.94709 0
M  V30 1718 H 162.572 -0.932236 2.84832 0
M  V30 1719 H 160.133 -0.363268 1.57772 0
M  V30 1720 H 162.125 -3.38407 2.21952 0
M  V30 1721 H 160.695 -2.83948 1.30738 0
M  V30 1722 H 159.915 -1.74052 3.53694 0
M  V30 1723 H 161.203 -2.65641 4.33949 0
M  V30 1724 H 160.601 -5.14322 2.35563 0
M  V30 1725 H 159.158 -5.75567 3.05886 0
M  V30 1726 N 162.591 -1.51276 -0.441967 0
M  V30 1727 C 163.539 -1.72823 -1.55676 0
M  V30 1728 C 164.533 -0.59445 -1.58627 0
M  V30 1729 O 165.739 -0.775715 -1.62427 0
M  V30 1730 H 162.114 -0.545983 -0.517113 0
M  V30 1731 H 164.085 -2.6628 -1.34675 0
M  V30 1732 C 162.834 -1.86619 -2.93375 0
M  V30 1733 H 162.157 -2.73264 -2.91834 0
M  V30 1734 H 163.597 -2.05709 -3.70756 0
M  V30 1735 C 162.056 -0.624842 -3.31055 0
M  V30 1736 O 162.586 0.222636 -4.01083 0
M  V30 1737 N 160.792 -0.470288 -2.86769 0
M  V30 1738 H 160.339 -1.161 -2.29953 0
M  V30 1739 H 160.297 0.359051 -3.12343 0
M  V30 1740 N 164.069 0.697108 -1.41344 0
M  V30 1741 C 164.979 1.84088 -1.45427 0
M  V30 1742 C 165.995 1.70545 -0.34501 0
M  V30 1743 O 167.171 1.92488 -0.592492 0
M  V30 1744 C 164.236 3.20056 -1.33286 0
M  V30 1745 C 163.297 3.45718 -2.54514 0
M  V30 1746 C 162.53 4.75199 -2.42944 0
M  V30 1747 O 162.753 5.51579 -1.45318 0
M  V30 1748 O 161.687 5.0161 -3.32672 0
M  V30 1749 H 165.513 1.836 -2.41919 0
M  V30 1750 H 163.098 0.849966 -1.22866 0
M  V30 1751 H 164.98 4.01236 -1.28794 0
M  V30 1752 H 163.655 3.2123 -0.39909 0
M  V30 1753 H 162.562 2.64474 -2.64583 0
M  V30 1754 H 163.895 3.49356 -3.46715 0
M  V30 1755 N 165.547 1.27147 0.931209 0
M  V30 1756 C 166.497 1.06227 2.01742 0
M  V30 1757 C 167.481 -0.00859065 1.60898 0
M  V30 1758 O 168.673 0.209537 1.75755 0
M  V30 1759 C 165.802 0.707787 3.35924 0
M  V30 1760 C 164.888 1.81661 3.83223 0
M  V30 1761 N 165.279 3.05564 4.03069 0
M  V30 1762 C 163.577 1.70249 4.12227 0
M  V30 1763 C 164.278 3.77697 4.42403 0
M  V30 1764 N 163.254 3.0544 4.49675 0
M  V30 1765 H 167.056 2.00261 2.15111 0
M  V30 1766 H 164.57 1.1781 1.11779 0
M  V30 1767 H 166.567 0.539043 4.134 0
M  V30 1768 H 165.227 -0.224964 3.2392 0
M  V30 1769 H 166.238 3.41363 3.89476 0
M  V30 1770 H 162.915 0.840329 4.08956 0
M  V30 1771 H 164.305 4.84168 4.65866 0
M  V30 1772 N 167.025 -1.13721 1.09112 0
M  V30 1773 C 168.436 -1.6648 0.845068 0
M  V30 1774 C 168.787 -1.85911 -0.62701 0
M  V30 1775 O 167.912 -1.57556 -1.48341 0
M  V30 1776 C 168.507 -3.02413 1.52748 0
M  V30 1777 C 167.066 -3.52176 1.32849 0
M  V30 1778 C 166.213 -2.27492 1.58564 0
M  V30 1779 H 169.164 -0.976872 1.25072 0
M  V30 1780 H 169.185 -3.68223 0.958752 0
M  V30 1781 H 168.697 -2.88238 2.59885 0
M  V30 1782 H 166.798 -3.7156 0.278137 0
M  V30 1783 H 166.911 -4.32499 2.0611 0
M  V30 1784 H 165.275 -2.33923 1.00758 0
M  V30 1785 H 166.058 -2.15886 2.66924 0
M  V30 1786 N 168.503 -0.877838 -1.30888 0
M  V30 1787 C 169.749 -0.493426 -1.96706 0
M  V30 1788 C 170.082 0.953504 -1.6918 0
M  V30 1789 O 169.357 1.67266 -0.992594 0
M  V30 1790 C 169.64 -0.760429 -3.51979 0
M  V30 1791 C 169.493 -2.25747 -3.89048 0
M  V30 1792 C 170.812 -0.232148 -4.39487 0
M  V30 1793 H 167.931 -0.180746 -0.714493 0
M  V30 1794 H 170.573 -1.10052 -1.54882 0
M  V30 1795 H 168.723 -0.243715 -3.87735 0
M  V30 1796 H 170.395 -2.84204 -3.63354 0
M  V30 1797 H 168.638 -2.72694 -3.37373 0
M  V30 1798 H 169.309 -2.39491 -4.97341 0
M  V30 1799 H 171.785 -0.674314 -4.106 0
M  V30 1800 H 170.661 -0.448355 -5.47066 0
M  V30 1801 H 170.922 0.866297 -4.33529 0
M  V30 1802 N 169.982 1.44106 -0.638065 0
M  V30 1803 C 171.229 2.01978 -0.14533 0
M  V30 1804 C 171.557 1.50234 1.23532 0
M  V30 1805 O 170.812 0.679548 1.83523 0
M  V30 1806 C 171.111 3.5729 -0.0887327 0
M  V30 1807 C 170.777 4.28317 -1.40909 0
M  V30 1808 C 169.439 4.47437 -1.77069 0
M  V30 1809 C 171.791 4.6867 -2.28031 0
M  V30 1810 C 169.119 5.04171 -3.00047 0
M  V30 1811 C 171.471 5.26766 -3.50286 0
M  V30 1812 C 170.135 5.44104 -3.86661 0
M  V30 1813 H 169.405 0.739089 -0.0531801 0
M  V30 1814 H 172.052 1.72781 -0.825761 0
M  V30 1815 H 170.357 3.8594 0.675095 0
M  V30 1816 H 172.054 3.99807 0.309145 0
M  V30 1817 H 168.644 4.1377 -1.1177 0
M  V30 1818 H 172.828 4.53604 -2.01388 0
M  V30 1819 H 168.084 5.15782 -3.28298 0
M  V30 1820 H 172.258 5.56983 -4.18023 0
M  V30 1821 H 169.885 5.87832 -4.82034 0
M  V30 1822 N 171.46 0.379036 1.52974 0
M  V30 1823 C 172.423 -0.448865 2.24762 0
M  V30 1824 C 173.423 -0.998689 1.26027 0
M  V30 1825 O 174.613 -0.882313 1.50203 0
M  V30 1826 C 171.745 -1.62872 2.99476 0
M  V30 1827 H 172.938 0.179491 2.99362 0
M  V30 1828 H 170.491 0.13096 1.5575 0
M  V30 1829 H 171.226 -2.29479 2.29151 0
M  V30 1830 H 171.011 -1.24128 3.71934 0
M  V30 1831 H 172.501 -2.2151 3.5401 0
M  V30 1832 N 172.938 -1.57226 0.108567 0
M  V30 1833 C 174.168 -1.9889 -0.559142 0
M  V30 1834 C 174.576 -0.986889 -1.61422 0
M  V30 1835 O 173.919 0.0298705 -1.83676 0
M  V30 1836 C 173.981 -3.36952 -1.25315 0
M  V30 1837 C 173.645 -4.55679 -0.347248 0
M  V30 1838 C 174.642 -5.18281 0.409996 0
M  V30 1839 C 172.327 -5.0162 -0.261367 0
M  V30 1840 C 174.321 -6.25203 1.24096 0
M  V30 1841 C 172.008 -6.08405 0.573238 0
M  V30 1842 C 173.006 -6.70063 1.32304 0
M  V30 1843 O 172.694 -7.74788 2.14381 0
M  V30 1844 H 172.426 -0.658343 -0.153492 0
M  V30 1845 H 174.98 -2.04532 0.188584 0
M  V30 1846 H 173.21 -3.28032 -2.04773 0
M  V30 1847 H 174.899 -3.62974 -1.81673 0
M  V30 1848 H 175.665 -4.8371 0.353457 0
M  V30 1849 H 171.544 -4.53381 -0.834656 0
M  V30 1850 H 175.088 -6.73259 1.82669 0
M  V30 1851 H 170.985 -6.42406 0.631208 0
M  V30 1852 H 171.753 -7.91837 2.07209 0
M  V30 1853 N 174.416 0.165178 -1.56732 0
M  V30 1854 C 175.346 1.20651 -1.99914 0
M  V30 1855 C 176.327 1.45827 -0.875705 0
M  V30 1856 O 177.512 1.57057 -1.14223 0
M  V30 1857 C 174.642 2.54401 -2.36427 0
M  V30 1858 C 173.596 2.43782 -3.51787 0
M  V30 1859 C 172.922 3.82078 -3.7406 0
M  V30 1860 C 174.222 1.93732 -4.85041 0
M  V30 1861 H 175.916 0.847534 -2.87154 0
M  V30 1862 H 173.462 0.40625 -1.38151 0
M  V30 1863 H 175.415 3.27458 -2.65234 0
M  V30 1864 H 174.139 2.92098 -1.46103 0
M  V30 1865 H 172.798 1.73178 -3.23117 0
M  V30 1866 H 172.446 4.17179 -2.81017 0
M  V30 1867 H 172.146 3.7584 -4.51684 0
M  V30 1868 H 173.67 4.56712 -4.05274 0
M  V30 1869 H 175.084 2.56569 -5.12684 0
M  V30 1870 H 173.481 1.98428 -5.66345 0
M  V30 1871 H 174.551 0.891962 -4.76626 0
M  V30 1872 N 175.894 1.51508 0.433938 0
M  V30 1873 C 176.841 1.73068 1.52696 0
M  V30 1874 C 177.811 0.572441 1.55924 0
M  V30 1875 O 178.996 0.807253 1.72882 0
M  V30 1876 C 176.136 1.86474 2.90381 0
M  V30 1877 C 175.249 3.14037 2.96656 0
M  V30 1878 C 174.384 3.18019 4.25485 0
M  V30 1879 C 173.423 4.39882 4.2564 0
M  V30 1880 N 172.56 4.41394 5.45999 0
M  V30 1881 H 177.4 2.66366 1.33615 0
M  V30 1882 H 174.937 1.32008 0.649018 0
M  V30 1883 H 176.895 1.92229 3.70275 0
M  V30 1884 H 175.525 0.965809 3.08013 0
M  V30 1885 H 174.577 3.17575 2.09404 0
M  V30 1886 H 175.889 4.0394 2.92633 0
M  V30 1887 H 175.043 3.22708 5.13755 0
M  V30 1888 H 173.782 2.2601 4.3217 0
M  V30 1889 H 172.787 4.35366 3.35763 0
M  V30 1890 H 174.012 5.33159 4.20617 0
M  V30 1891 H 171.958 3.52258 5.53399 0
M  V30 1892 H 171.875 5.25111 5.4387 0
M  V30 1893 H 173.143 4.50281 6.36292 0
M  V30 1894 N 177.372 -0.689602 1.41712 0
M  V30 1895 C 178.649 -1.44457 1.31877 0
M  V30 1896 C 179.029 -2.11039 -0.0508537 0
M  V30 1897 O 178.377 -2.02138 -1.06547 0
M  V30 1898 C 178.587 -2.45913 2.47645 0
M  V30 1899 C 179.935 -3.10991 2.89084 0
M  V30 1900 O 180.959 -2.56238 2.47428 0
M  V30 1901 O 179.818 -4.10174 3.61137 0
M  V30 1902 H 176.912 -0.64362 0.519309 0
M  V30 1903 H 179.458 -0.719576 1.53689 0
M  V30 1904 H 178.23 -1.95409 3.39015 0
M  V30 1905 H 177.853 -3.25913 2.27742 0
M  V30 1906 N 178.85 -1.27639 -0.924453 0
M  V30 1907 C 179.797 -1.10644 -2.0255 0
M  V30 1908 C 180.767 -0.00658438 -1.66099 0
M  V30 1909 O 181.952 -0.16952 -1.90045 0
M  V30 1910 C 179.092 -0.76309 -3.36557 0
M  V30 1911 C 178.205 -1.94091 -3.85944 0
M  V30 1912 C 177.34 -1.53914 -5.08413 0
M  V30 1913 C 176.379 -2.68425 -5.50104 0
M  V30 1914 N 175.516 -2.28815 -6.63768 0
M  V30 1915 H 180.356 -2.04858 -2.16419 0
M  V30 1916 H 177.893 -1.01974 -1.06017 0
M  V30 1917 H 179.851 -0.544822 -4.13627 0
M  V30 1918 H 178.481 0.142102 -3.22487 0
M  V30 1919 H 177.533 -2.27162 -3.05125 0
M  V30 1920 H 178.845 -2.7998 -4.12811 0
M  V30 1921 H 177.999 -1.28231 -5.92994 0
M  V30 1922 H 176.738 -0.651391 -4.8333 0
M  V30 1923 H 175.743 -2.94819 -4.64071 0
M  V30 1924 H 176.968 -3.57826 -5.7718 0
M  V30 1925 H 174.914 -1.42495 -6.40337 0
M  V30 1926 H 174.831 -3.08242 -6.90306 0
M  V30 1927 H 176.099 -2.06387 -7.51681 0
M  V30 1928 N 180.328 1.1314 -1.09713 0
M  V30 1929 C 181.258 2.20748 -0.761102 0
M  V30 1930 C 182.239 1.68061 0.262566 0
M  V30 1931 O 183.424 1.93765 0.129977 0
M  V30 1932 C 180.554 3.46812 -0.184054 0
M  V30 1933 C 179.508 4.12606 -1.13757 0
M  V30 1934 C 178.834 5.33031 -0.422083 0
M  V30 1935 C 180.134 4.59603 -2.48118 0
M  V30 1936 H 181.828 2.49113 -1.66082 0
M  V30 1937 H 179.374 1.19734 -0.799987 0
M  V30 1938 H 181.327 4.21353 0.0631215 0
M  V30 1939 H 180.051 3.17851 0.750868 0
M  V30 1940 H 178.71 3.40036 -1.37007 0
M  V30 1941 H 178.358 5.00335 0.517072 0
M  V30 1942 H 178.058 5.77999 -1.05788 0
M  V30 1943 H 179.582 6.10325 -0.183277 0
M  V30 1944 H 180.996 5.25552 -2.29059 0
M  V30 1945 H 179.393 5.15321 -3.07514 0
M  V30 1946 H 180.463 3.73971 -3.08665 0
M  V30 1947 N 181.806 0.884767 1.30421 0
M  V30 1948 C 183.217 0.553656 1.78302 0
M  V30 1949 C 183.568 -0.930153 1.7275 0
M  V30 1950 O 182.693 -1.72681 1.30423 0
M  V30 1951 C 183.288 0.998234 3.2376 0
M  V30 1952 C 181.847 0.71854 3.69478 0
M  V30 1953 C 180.994 1.18132 2.50879 0
M  V30 1954 H 183.945 1.06901 1.17294 0
M  V30 1955 H 183.966 0.327118 3.79091 0
M  V30 1956 H 183.478 2.0782 3.27769 0
M  V30 1957 H 181.579 -0.349444 3.70958 0
M  V30 1958 H 181.692 1.30595 4.60958 0
M  V30 1959 H 180.056 0.600669 2.47516 0
M  V30 1960 H 180.839 2.26902 2.57624 0
M  V30 1961 N 183.284 -1.43765 0.645699 0
M  V30 1962 C 184.514 -2.05953 0.163318 0
M  V30 1963 C 184.922 -1.48432 -1.17322 0
M  V30 1964 O 184.265 -0.607295 -1.73371 0
M  V30 1965 C 184.327 -3.59499 -0.0103065 0
M  V30 1966 C 183.991 -4.39563 1.25035 0
M  V30 1967 C 184.988 -4.72108 2.17739 0
M  V30 1968 C 182.673 -4.79697 1.48983 0
M  V30 1969 C 184.667 -5.43688 3.3269 0
M  V30 1970 C 182.354 -5.51023 2.64229 0
M  V30 1971 C 183.352 -5.8294 3.55908 0
M  V30 1972 O 183.04 -6.5281 4.69142 0
M  V30 1973 H 182.772 -0.670798 0.0836986 0
M  V30 1974 H 185.326 -1.85384 0.884407 0
M  V30 1975 H 183.556 -3.78613 -0.78669 0
M  V30 1976 H 185.245 -4.03408 -0.449087 0
M  V30 1977 H 186.011 -4.41627 2.00476 0
M  V30 1978 H 181.89 -4.54266 0.785078 0
M  V30 1979 H 185.434 -5.68517 4.04269 0
M  V30 1980 H 181.331 -5.8092 2.81429 0
M  V30 1981 H 182.099 -6.71288 4.6831 0
M  V30 1982 N 184.763 -0.387143 -1.52771 0
M  V30 1983 C 186.174 0.0873634 -1.86495 0
M  V30 1984 C 186.525 1.46336 -1.30691 0
M  V30 1985 O 185.65 2.068 -0.637409 0
M  V30 1986 C 186.245 0.165305 -3.38396 0
M  V30 1987 C 184.804 0.584101 -3.7184 0
M  V30 1988 C 183.951 -0.255279 -2.76122 0
M  V30 1989 H 186.902 -0.605104 -1.46711 0
M  V30 1990 H 186.923 0.984848 -3.67534 0
M  V30 1991 H 186.435 -0.836301 -3.78982 0
M  V30 1992 H 184.536 1.59315 -3.36823 0
M  V30 1993 H 184.649 0.343749 -4.77865 0
M  V30 1994 H 183.013 0.279126 -2.53166 0
M  V30 1995 H 183.796 -1.25482 -3.19545 0
M  V30 1996 N 186.241 1.57166 -0.116904 0
M  V30 1997 C 187.471 1.99184 0.548586 0
M  V30 1998 C 187.879 0.995436 1.60897 0
M  V30 1999 O 187.222 -0.0201293 1.83689 0
M  V30 2000 C 187.284 3.37611 1.23526 0
M  V30 2001 C 186.948 4.55857 0.323077 0
M  V30 2002 C 187.945 5.18056 -0.437476 0
M  V30 2003 C 185.63 5.01751 0.234761 0
M  V30 2004 C 187.624 6.24536 -1.2741 0
M  V30 2005 C 185.311 6.08093 -0.605496 0
M  V30 2006 C 186.309 6.69352 -1.35856 0
M  V30 2007 O 185.997 7.7364 -2.18487 0
M  V30 2008 H 185.729 0.659148 0.149999 0
M  V30 2009 H 188.283 2.0443 -0.199428 0
M  V30 2010 H 186.513 3.29113 2.0303 0
M  V30 2011 H 188.202 3.63932 1.79745 0
M  V30 2012 H 188.968 4.83516 -0.379105 0
M  V30 2013 H 184.847 4.53817 0.810601 0
M  V30 2014 H 188.391 6.72281 -1.86237 0
M  V30 2015 H 184.288 6.42063 -0.665268 0
M  V30 2016 H 185.056 7.90727 -2.11406 0
M  V30 2017 N 187.719 -0.156864 1.56817 0
M  V30 2018 C 188.996 -0.899244 1.73704 0
M  V30 2019 C 189.376 -1.99771 0.682254 0
M  V30 2020 O 188.724 -2.26515 -0.300522 0
M  V30 2021 C 188.934 -1.45075 3.17418 0
M  V30 2022 C 190.282 -1.91802 3.7881 0
M  V30 2023 O 191.306 -1.54838 3.20786 0
M  V30 2024 O 190.165 -2.5994 4.80722 0
M  V30 2025 H 187.259 -0.424267 0.709878 0
M  V30 2026 H 189.805 -0.143561 1.69092 0
M  V30 2027 H 188.577 -0.660846 3.85679 0
M  V30 2028 H 188.2 -2.27021 3.26416 0
M  V30 2029 N 189.197 -1.51736 -0.425897 0
M  V30 2030 C 190.474 -1.55519 -1.1863 0
M  V30 2031 C 190.854 -0.326219 -2.08564 0
M  V30 2032 O 190.202 0.688012 -2.17896 0
M  V30 2033 C 190.412 -2.87521 -1.9782 0
M  V30 2034 C 191.76 -3.39899 -2.54468 0
M  V30 2035 O 192.784 -2.89148 -2.08019 0
M  V30 2036 O 191.643 -4.2848 -3.39215 0
M  V30 2037 H 188.737 -0.625739 -0.540721 0
M  V30 2038 H 191.283 -1.64055 -0.434038 0
M  V30 2039 H 190.055 -3.68422 -1.31836 0
M  V30 2040 H 189.678 -2.822 -2.80088 0
M  V30 2041 N 190.675 0.682077 -1.42076 0
M  V30 2042 C 192.086 1.26246 -1.37546 0
M  V30 2043 C 192.437 1.96092 -0.0651481 0
M  V30 2044 O 191.562 1.99587 0.836297 0
M  V30 2045 C 192.157 2.29594 -2.49143 0
M  V30 2046 C 190.716 2.83175 -2.47969 0
M  V30 2047 C 189.863 1.57395 -2.28303 0
M  V30 2048 H 192.814 0.475937 -1.51395 0
M  V30 2049 H 192.835 3.11175 -2.18976 0
M  V30 2050 H 192.347 1.78729 -3.44496 0
M  V30 2051 H 190.448 3.3818 -1.56413 0
M  V30 2052 H 190.561 3.32687 -3.44755 0
M  V30 2053 H 188.925 1.83699 -1.76428 0
M  V30 2054 H 189.708 1.08507 -3.25701 0
M  V30 2055 N 192.153 1.28127 0.917671 0
M  V30 2056 C 193.4 1.15052 1.66641 0
M  V30 2057 C 193.728 -0.301677 1.92146 0
M  V30 2058 O 192.983 -1.23622 1.51711 0
M  V30 2059 C 193.282 1.89018 3.03327 0
M  V30 2060 C 192.948 3.38832 2.97496 0
M  V30 2061 C 191.61 3.79693 2.95613 0
M  V30 2062 C 193.962 4.34378 2.88036 0
M  V30 2063 C 191.29 5.14447 2.82066 0
M  V30 2064 C 193.642 5.69201 2.7603 0
M  V30 2065 C 192.306 6.09343 2.72502 0
M  V30 2066 H 191.576 0.421006 0.609783 0
M  V30 2067 H 194.223 1.58855 1.06945 0
M  V30 2068 H 192.528 1.37752 3.66785 0
M  V30 2069 H 194.225 1.76321 3.60156 0
M  V30 2070 H 190.815 3.06342 2.99754 0
M  V30 2071 H 194.999 4.03775 2.88581 0
M  V30 2072 H 190.255 5.44681 2.77728 0
M  V30 2073 H 194.429 6.42901 2.67678 0
M  V30 2074 H 192.056 7.13712 2.61762 0
M  V30 2075 N 193.631 -1.12557 1.10312 0
M  V30 2076 C 194.856 -1.88405 0.867085 0
M  V30 2077 C 195.281 -1.79038 -0.576817 0
M  V30 2078 O 194.639 -1.14439 -1.40618 0
M  V30 2079 C 194.687 -3.3563 1.31851 0
M  V30 2080 O 193.791 -4.09565 0.482734 0
M  V30 2081 H 193.132 -0.585455 0.313271 0
M  V30 2082 H 195.662 -1.42352 1.4696 0
M  V30 2083 H 195.672 -3.86469 1.3079 0
M  V30 2084 H 194.347 -3.41765 2.37001 0
M  V30 2085 H 192.924 -3.68695 0.558448 0
M  V30 2086 N 195.109 -0.891671 -1.2995 0
M  V30 2087 C 196.039 -0.379797 -2.30391 0
M  V30 2088 C 197.02 0.540919 -1.6127 0
M  V30 2089 O 198.205 0.453352 -1.88834 0
M  V30 2090 C 195.335 0.400654 -3.44981 0
M  V30 2091 C 194.289 -0.428905 -4.25846 0
M  V30 2092 C 193.615 0.478557 -5.32554 0
M  V30 2093 C 194.915 -1.67458 -4.94727 0
M  V30 2094 H 196.609 -1.21914 -2.73454 0
M  V30 2095 H 194.155 -0.587675 -1.31462 0
M  V30 2096 H 196.108 0.769434 -4.14316 0
M  V30 2097 H 194.832 1.27371 -3.0074 0
M  V30 2098 H 193.491 -0.779911 -3.58208 0
M  V30 2099 H 193.139 1.34951 -4.84559 0
M  V30 2100 H 192.839 -0.0727433 -5.87555 0
M  V30 2101 H 194.363 0.843705 -6.04743 0
M  V30 2102 H 195.777 -1.376 -5.56542 0
M  V30 2103 H 194.174 -2.16659 -5.59624 0
M  V30 2104 H 195.244 -2.41518 -4.20473 0
M  V30 2105 N 196.587 1.43421 -0.653314 0
M  V30 2106 C 197.52 2.2803 0.0879804 0
M  V30 2107 C 198.498 1.39833 0.82979 0
M  V30 2108 O 199.682 1.69275 0.829341 0
M  V30 2109 C 196.809 3.19247 1.13132 0
M  V30 2110 C 195.855 4.23704 0.487546 0
M  V30 2111 S 196.688 5.30377 -0.738961 0
M  V30 2112 C 197.844 6.25162 0.30384 0
M  V30 2113 H 198.077 2.90554 -0.629739 0
M  V30 2114 H 195.61 1.47934 -0.442156 0
M  V30 2115 H 197.568 3.72346 1.72827 0
M  V30 2116 H 196.229 2.55901 1.82136 0
M  V30 2117 H 195.422 4.87631 1.27407 0
M  V30 2118 H 195.024 3.73983 -0.0352915 0
M  V30 2119 H 197.316 6.67321 1.17 0
M  V30 2120 H 198.259 7.07463 -0.300402 0
M  V30 2121 H 198.667 5.60864 0.63969 0
M  V30 2122 N 198.065 0.39524 1.52563 0
M  V30 2123 C 199.293 -0.184943 2.06072 0
M  V30 2124 C 199.708 -1.40021 1.26647 0
M  V30 2125 O 199.065 -1.79767 0.314672 0
M  V30 2126 C 199.116 -0.549179 3.57304 0
M  V30 2127 O 198.837 0.617813 4.33722 0
M  V30 2128 C 200.338 -1.18459 4.2718 0
M  V30 2129 H 197.558 -0.0265025 0.670476 0
M  V30 2130 H 200.102 0.562184 1.96621 0
M  V30 2131 H 198.257 -1.2462 3.66809 0
M  V30 2132 H 198.671 0.317091 5.23541 0
M  V30 2133 H 200.145 -1.38976 5.34219 0
M  V30 2134 H 200.622 -2.15368 3.82771 0
M  V30 2135 H 201.228 -0.528163 4.22008 0
M  V30 2136 N 199.544 -1.57102 0.125237 0
M  V30 2137 C 200.821 -1.86953 -0.575142 0
M  V30 2138 C 201.201 -1.02749 -1.84407 0
M  V30 2139 O 200.549 -0.108144 -2.28244 0
M  V30 2140 C 200.759 -3.38198 -0.861583 0
M  V30 2141 C 202.107 -4.06937 -1.21192 0
M  V30 2142 O 203.131 -3.43252 -0.951645 0
M  V30 2143 O 201.99 -5.19364 -1.70068 0
M  V30 2144 H 199.084 -0.774147 -0.290906 0
M  V30 2145 H 201.63 -1.68942 0.160211 0
M  V30 2146 H 200.402 -3.91282 0.0373647 0
M  V30 2147 H 200.025 -3.61661 -1.65188 0
M  V30 2148 N 201.022 0.148545 -1.56898 0
M  V30 2149 C 202.433 0.708766 -1.72723 0
M  V30 2150 C 202.784 1.81734 -0.739395 0
M  V30 2151 O 201.909 2.16194 0.0943169 0
M  V30 2152 C 202.504 1.29245 -3.13179 0
M  V30 2153 C 201.063 1.79925 -3.30611 0
M  V30 2154 C 200.21 0.687111 -2.68652 0
M  V30 2155 H 203.161 -0.0771063 -1.58513 0
M  V30 2156 H 203.182 2.16224 -3.13093 0
M  V30 2157 H 202.694 0.485382 -3.85053 0
M  V30 2158 H 200.795 2.63203 -2.63732 0
M  V30 2159 H 200.908 1.92903 -4.38549 0
M  V30 2160 H 199.272 1.11335 -2.29078 0
M  V30 2161 H 200.055 -0.108483 -3.43129 0
M  V30 2162 N 202.5 1.5196 0.417844 0
M  V30 2163 C 203.447 1.74678 1.50852 0
M  V30 2164 C 204.417 0.588947 1.55308 0
M  V30 2165 O 205.602 0.825544 1.72016 0
M  V30 2166 C 202.742 1.89544 2.88387 0
M  V30 2167 C 201.855 3.17166 2.93309 0
M  V30 2168 C 200.99 3.22513 4.22088 0
M  V30 2169 C 200.029 4.44372 4.20951 0
M  V30 2170 N 199.166 4.47161 5.41287 0
M  V30 2171 H 204.006 2.67768 1.30783 0
M  V30 2172 H 201.543 1.32689 0.63498 0
M  V30 2173 H 203.501 1.96146 3.68216 0
M  V30 2174 H 202.131 0.998424 3.06971 0
M  V30 2175 H 201.183 3.19778 2.06024 0
M  V30 2176 H 202.495 4.07021 2.88332 0
M  V30 2177 H 201.649 3.28139 5.10303 0
M  V30 2178 H 200.388 2.30581 4.29748 0
M  V30 2179 H 199.393 4.38902 3.31127 0
M  V30 2180 H 200.618 5.3759 4.14938 0
M  V30 2181 H 198.564 3.58108 5.49632 0
M  V30 2182 H 198.481 5.3085 5.3827 0
M  V30 2183 H 199.749 4.57005 6.3148 0
M  V30 2184 N 203.978 -0.674533 1.42435 0
M  V30 2185 C 204.908 -1.80009 1.48724 0
M  V30 2186 C 205.889 -1.6659 0.343793 0
M  V30 2187 O 207.074 -1.86007 0.558137 0
M  V30 2188 C 204.204 -3.18306 1.38919 0
M  V30 2189 C 203.158 -3.46461 2.51294 0
M  V30 2190 C 202.484 -4.84335 2.26547 0
M  V30 2191 C 203.784 -3.43328 3.93603 0
M  V30 2192 H 205.478 -1.75004 2.42928 0
M  V30 2193 H 203.024 -0.840533 1.16923 0
M  V30 2194 H 204.977 -3.9678 1.41927 0
M  V30 2195 H 203.701 -3.2399 0.412094 0
M  V30 2196 H 202.36 -2.70348 2.47604 0
M  V30 2197 H 202.008 -4.86669 1.2713 0
M  V30 2198 H 201.708 -5.04136 3.01861 0
M  V30 2199 H 203.232 -5.65094 2.31304 0
M  V30 2200 H 204.646 -4.11772 3.98894 0
M  V30 2201 H 203.043 -3.74664 4.68771 0
M  V30 2202 H 204.113 -2.41897 4.20255 0
M  V30 2203 N 205.456 -1.28612 -0.910864 0
M  V30 2204 C 206.705 -1.15311 -1.65488 0
M  V30 2205 C 207.018 0.296999 -1.93332 0
M  V30 2206 O 208.224 0.551168 -2.65847 0
M  V30 2207 C 206.68 -2.01599 -2.98137 0
M  V30 2208 C 206.288 -3.51367 -2.7793 0
M  V30 2209 C 208.032 -1.96993 -3.76024 0
M  V30 2210 C 205.939 -4.29797 -4.06237 0
M  V30 2211 H 204.869 -0.42796 -0.620779 0
M  V30 2212 H 207.52 -1.53166 -1.01057 0
M  V30 2213 H 205.902 -1.56603 -3.63719 0
M  V30 2214 H 207.076 -4.0434 -2.21011 0
M  V30 2215 H 205.391 -3.57529 -2.13452 0
M  V30 2216 H 207.988 -2.52856 -4.71135 0
M  V30 2217 H 208.331 -0.94733 -4.05378 0
M  V30 2218 H 208.864 -2.39973 -3.17266 0
M  V30 2219 H 205.603 -5.32648 -3.82055 0
M  V30 2220 H 205.123 -3.81596 -4.62757 0
M  V30 2221 H 206.802 -4.39869 -4.74473 0
M  V30 2222 N 206.934 1.1197 -1.10907 0
M  V30 2223 C 208.183 1.82947 -0.849302 0
M  V30 2224 C 208.496 1.85275 0.627112 0
M  V30 2225 O 209.702 2.52296 1.00295 0
M  V30 2226 C 208.158 3.28529 -1.46959 0
M  V30 2227 C 207.766 3.34546 -2.97965 0
M  V30 2228 C 209.51 4.04443 -1.28942 0
M  V30 2229 C 207.417 4.74491 -3.53004 0
M  V30 2230 H 206.347 0.685477 -0.314065 0
M  V30 2231 H 208.998 1.2604 -1.33365 0
M  V30 2232 H 207.38 3.85333 -0.912917 0
M  V30 2233 H 208.554 2.87654 -3.59989 0
M  V30 2234 H 206.869 2.72108 -3.15192 0
M  V30 2235 H 209.466 5.07787 -1.67502 0
M  V30 2236 H 209.809 4.15656 -0.231456 0
M  V30 2237 H 210.342 3.5401 -1.81443 0
M  V30 2238 H 207.081 4.68474 -4.58489 0
M  V30 2239 H 206.601 5.21816 -2.9575 0
M  V30 2240 H 208.28 5.4344 -3.51115 0
M  V30 2241 N 208.412 0.89855 1.29475 0
M  V30 2242 C 209.658 0.534065 1.96263 0
M  V30 2243 C 210.013 -0.909415 1.69551 0
M  V30 2244 O 209.306 -1.63596 0.997349 0
M  V30 2245 C 209.5 0.761398 3.49195 0
M  V30 2246 C 209.329 2.22542 3.90775 0
M  V30 2247 C 208.099 2.87264 4.15701 0
M  V30 2248 C 210.297 3.20051 4.02581 0
M  V30 2249 N 208.279 4.24121 4.4384 0
M  V30 2250 C 209.65 4.42023 4.34759 0
M  V30 2251 C 211.705 3.15657 3.85052 0
M  V30 2252 C 210.408 5.60161 4.51235 0
M  V30 2253 C 212.434 4.33078 4.02737 0
M  V30 2254 C 211.796 5.5382 4.35273 0
M  V30 2255 H 207.895 0.245013 0.742625 0
M  V30 2256 H 210.479 1.15912 1.56437 0
M  V30 2257 H 208.65 0.165732 3.88046 0
M  V30 2258 H 210.382 0.362462 4.03074 0
M  V30 2259 H 207.137 2.38064 4.09417 0
M  V30 2260 H 207.561 4.94839 4.6202 0
M  V30 2261 H 212.203 2.23396 3.58962 0
M  V30 2262 H 209.921 6.52913 4.76162 0
M  V30 2263 H 213.507 4.31163 3.90628 0
M  V30 2264 H 212.387 6.43166 4.48672 0
M  V30 2265 N 209.89 -1.43072 0.660911 0
M  V30 2266 C 211.115 -2.06584 0.183805 0
M  V30 2267 C 211.54 -1.49257 -1.14472 0
M  V30 2268 O 210.898 -0.605528 -1.70889 0
M  V30 2269 C 210.946 -3.60418 0.114434 0
M  V30 2270 O 210.05 -4.01981 -0.921137 0
M  V30 2271 H 209.391 -0.656669 0.0983994 0
M  V30 2272 H 211.921 -1.83447 0.906006 0
M  V30 2273 H 211.931 -4.07946 -0.0663394 0
M  V30 2274 H 210.606 -4.01519 1.08422 0
M  V30 2275 H 209.183 -3.66029 -0.71253 0
M  V30 2276 N 211.368 -0.403325 -1.52352 0
M  V30 2277 C 212.779 0.0675782 -1.86578 0
M  V30 2278 C 213.13 1.44941 -1.32236 0
M  V30 2279 O 212.255 2.06112 -0.659307 0
M  V30 2280 C 212.85 0.129404 -3.38553 0
M  V30 2281 C 211.409 0.544629 -3.72439 0
M  V30 2282 C 210.556 -0.284551 -2.75836 0
M  V30 2283 H 213.507 -0.620631 -1.46061 0
M  V30 2284 H 213.528 0.94581 -3.68558 0
M  V30 2285 H 213.04 -0.87645 -3.78074 0
M  V30 2286 H 211.141 1.55734 -3.38493 0
M  V30 2287 H 211.254 0.293046 -4.78203 0
M  V30 2288 H 209.618 0.252258 -2.53448 0
M  V30 2289 H 210.401 -1.28865 -3.18196 0
M  V30 2290 N 212.846 1.57033 -0.133567 0
M  V30 2291 C 214.092 1.95976 0.521649 0
M  V30 2292 C 214.425 1.01779 1.65393 0
M  V30 2293 O 213.7 0.0576581 1.94415 0
M  V30 2294 C 213.983 3.44738 1.04057 0
M  V30 2295 C 213.836 4.49711 -0.0892897 0
M  V30 2296 C 215.155 3.95682 1.92675 0
M  V30 2297 H 212.274 0.712579 0.188149 0
M  V30 2298 H 214.916 1.88813 -0.212076 0
M  V30 2299 H 213.066 3.50973 1.66583 0
M  V30 2300 H 214.738 4.55565 -0.725152 0
M  V30 2301 H 212.981 4.27261 -0.750378 0
M  V30 2302 H 213.652 5.51099 0.315284 0
M  V30 2303 H 216.128 3.91841 1.39998 0
M  V30 2304 H 215.004 5.00262 2.25897 0
M  V30 2305 H 215.265 3.37239 2.85872 0
M  V30 2306 N 214.325 -0.140222 1.56975 0
M  V30 2307 C 215.741 -0.493088 1.51792 0
M  V30 2308 C 215.941 -1.83013 0.843116 0
M  V30 2309 O 214.997 -2.49041 0.416493 0
M  V30 2310 C 216.31 -0.497144 2.96562 0
M  V30 2311 C 217.858 -0.582186 3.07538 0
M  V30 2312 C 218.333 -0.616838 4.53827 0
M  V30 2313 N 219.824 -0.678873 4.58198 0
M  V30 2314 C 220.559 -0.726782 5.68775 0
M  V30 2315 N 220.055 -0.733623 6.88905 0
M  V30 2316 N 221.848 -0.768179 5.56826 0
M  V30 2317 H 213.999 0.736108 1.99237 0
M  V30 2318 H 216.262 0.269182 0.90898 0
M  V30 2319 H 215.968 0.417217 3.49217 0
M  V30 2320 H 215.842 -1.33263 3.52875 0
M  V30 2321 H 218.229 -1.48697 2.54899 0
M  V30 2322 H 218.31 0.280581 2.54257 0
M  V30 2323 H 217.954 0.283812 5.07106 0
M  V30 2324 H 217.884 -1.49619 5.04898 0
M  V30 2325 H 220.375 -0.68061 3.7172 0
M  V30 2326 H 220.688 -0.772215 7.68932 0
M  V30 2327 H 219.033 -0.701389 6.91452 0
M  V30 2328 H 222.224 -0.760051 4.61888 0
M  V30 2329 H 222.397 -0.80205 6.43017 0
M  V30 2330 N 215.803 -1.52179 -0.40978 0
M  V30 2331 C 217.219 -1.40968 -0.74835 0
M  V30 2332 C 217.419 -0.513657 -1.94843 0
M  V30 2333 O 216.475 0.0208026 -2.52491 0
M  V30 2334 C 217.788 -2.83483 -1.0029 0
M  V30 2335 C 219.336 -2.92821 -1.10565 0
M  V30 2336 C 219.811 -4.36303 -1.39296 0
M  V30 2337 N 221.302 -4.39535 -1.46162 0
M  V30 2338 C 222.037 -5.47614 -1.70018 0
M  V30 2339 N 221.533 -6.65812 -1.91483 0
M  V30 2340 N 223.326 -5.35129 -1.72027 0
M  V30 2341 H 215.477 -2.0897 0.380186 0
M  V30 2342 H 217.74 -0.94185 0.107805 0
M  V30 2343 H 217.446 -3.51168 -0.193461 0
M  V30 2344 H 217.32 -3.24487 -1.92323 0
M  V30 2345 H 219.707 -2.25318 -1.90568 0
M  V30 2346 H 219.788 -2.55276 -0.16369 0
M  V30 2347 H 219.432 -5.04366 -0.598109 0
M  V30 2348 H 219.362 -4.71385 -2.34743 0
M  V30 2349 H 221.853 -3.54332 -1.31367 0
M  V30 2350 H 222.166 -7.43964 -2.09134 0
M  V30 2351 H 220.511 -6.68879 -1.88749 0
M  V30 2352 H 223.702 -4.41764 -1.54796 0
M  V30 2353 H 223.875 -6.19433 -1.9028 0
M  V30 2354 N 217.281 0.66697 -1.42791 0
M  V30 2355 C 218.506 1.46004 -1.47301 0
M  V30 2356 C 218.931 1.87894 -0.0880317 0
M  V30 2357 O 218.289 1.56502 0.915253 0
M  V30 2358 C 218.337 2.68031 -2.41229 0
M  V30 2359 O 217.441 3.6659 -1.88906 0
M  V30 2360 H 216.782 0.43832 -0.49877 0
M  V30 2361 H 219.312 0.817391 -1.87563 0
M  V30 2362 H 219.322 3.1601 -2.58073 0
M  V30 2363 H 217.997 2.36883 -3.41847 0
M  V30 2364 H 216.574 3.25661 -1.81656 0
M  V30 2365 N 218.759 1.29093 0.90403 0
M  V30 2366 C 220.036 1.075 1.63411 0
M  V30 2367 C 220.416 -0.382346 2.07609 0
M  V30 2368 O 219.764 -1.37031 1.82851 0
M  V30 2369 C 219.974 2.05858 2.81822 0
M  V30 2370 C 221.322 2.36539 3.52611 0
M  V30 2371 O 222.346 2.04019 2.91984 0
M  V30 2372 O 221.205 2.92085 4.61897 0
M  V30 2373 H 218.299 0.411547 0.717327 0
M  V30 2374 H 220.845 1.40449 0.952479 0
M  V30 2375 H 219.617 3.04037 2.46327 0
M  V30 2376 H 219.24 1.73613 3.57693 0
M  V30 2377 N 220.237 -1.11381 1.11499 0
M  V30 2378 C 221.483 -1.83403 0.865512 0
M  V30 2379 C 221.816 -1.84459 -0.607329 0
M  V30 2380 O 221.091 -1.29811 -1.44842 0
M  V30 2381 C 221.374 -3.30552 1.42855 0
M  V30 2382 C 221.227 -3.37886 2.96906 0
M  V30 2383 C 222.546 -4.26643 1.08 0
M  V30 2384 H 219.665 -0.665879 0.31587 0
M  V30 2385 H 222.307 -1.30601 1.37998 0
M  V30 2386 H 220.457 -3.75648 0.990985 0
M  V30 2387 H 222.129 -3.01343 3.49271 0
M  V30 2388 H 220.372 -2.78088 3.32941 0
M  V30 2389 H 221.043 -4.41458 3.31389 0
M  V30 2390 H 223.519 -3.89729 1.45775 0
M  V30 2391 H 222.395 -5.27986 1.50072 0
M  V30 2392 H 222.656 -4.42099 -0.00915037 0
M  V30 2393 N 221.715 -0.905404 -1.28997 0
M  V30 2394 C 222.678 -0.392253 -2.25819 0
M  V30 2395 C 223.678 0.476753 -1.5357 0
M  V30 2396 O 224.868 0.280994 -1.71919 0
M  V30 2397 C 222 0.438588 -3.38067 0
M  V30 2398 H 223.193 -1.24743 -2.72725 0
M  V30 2399 H 220.746 -0.684051 -1.40536 0
M  V30 2400 H 221.481 1.31352 -2.96508 0
M  V30 2401 H 221.266 -0.184167 -3.91667 0
M  V30 2402 H 222.756 0.78873 -4.10084 0
M  V30 2403 N 223.193 1.4272 -0.668489 0
M  V30 2404 C 224.439 2.02443 -0.197076 0
M  V30 2405 C 224.794 1.51882 1.18109 0
M  V30 2406 O 224.087 0.708618 1.78015 0
M  V30 2407 C 224.281 3.57021 -0.164499 0
M  V30 2408 C 224.11 4.22583 -1.53797 0
M  V30 2409 C 222.88 4.58019 -2.13416 0
M  V30 2410 C 225.078 4.50588 -2.47941 0
M  V30 2411 N 223.06 5.08729 -3.4361 0
M  V30 2412 C 224.431 5.02782 -3.62782 0
M  V30 2413 C 226.486 4.32571 -2.46551 0
M  V30 2414 C 225.189 5.38852 -4.76478 0
M  V30 2415 C 227.215 4.69713 -3.59338 0
M  V30 2416 C 226.577 5.22053 -4.72906 0
M  V30 2417 H 222.676 0.773214 -0.116894 0
M  V30 2418 H 225.26 1.73673 -0.880108 0
M  V30 2419 H 223.431 3.85323 0.487925 0
M  V30 2420 H 225.163 4.03439 0.319207 0
M  V30 2421 H 221.918 4.43566 -1.65969 0
M  V30 2422 H 222.342 5.38521 -4.10273 0
M  V30 2423 H 226.984 3.91365 -1.59978 0
M  V30 2424 H 224.702 5.78993 -5.63731 0
M  V30 2425 H 228.288 4.57454 -3.59482 0
M  V30 2426 H 227.168 5.50258 -5.58736 0
M  V30 2427 N 224.671 0.411399 1.52136 0
M  V30 2428 C 225.619 -0.427633 2.28635 0
M  V30 2429 C 226.613 -1.04383 1.33419 0
M  V30 2430 O 227.819 -0.981772 1.50868 0
M  V30 2431 H 224.194 -0.156689 0.735495 0
M  V30 2432 H 226.165 0.238761 2.97443 0
M  V30 2433 C 224.914 -1.53082 3.12188 0
M  V30 2434 H 224.237 -1.06601 3.85326 0
M  V30 2435 H 225.677 -2.09167 3.68816 0
M  V30 2436 C 224.136 -2.49946 2.25895 0
M  V30 2437 O 224.666 -3.53884 1.90076 0
M  V30 2438 N 222.872 -2.2021 1.8962 0
M  V30 2439 H 222.419 -1.35719 2.18948 0
M  V30 2440 H 222.377 -2.85266 1.32176 0
M  V30 2441 N 226.149 -1.5696 0.141893 0
M  V30 2442 C 227.396 -1.9596 -0.510492 0
M  V30 2443 C 227.724 -1.02648 -1.65208 0
M  V30 2444 O 226.979 -0.0546947 -1.95624 0
M  V30 2445 C 227.278 -3.41242 -1.06249 0
M  V30 2446 C 226.944 -4.50882 -0.0398791 0
M  V30 2447 C 225.606 -4.80595 0.241247 0
M  V30 2448 C 227.958 -5.17058 0.65578 0
M  V30 2449 C 225.286 -5.73792 1.22393 0
M  V30 2450 C 227.638 -6.11313 1.62724 0
M  V30 2451 C 226.302 -6.39407 1.91612 0
M  V30 2452 H 225.572 -0.717068 -0.186802 0
M  V30 2453 H 228.219 -1.90142 0.227643 0
M  V30 2454 H 226.524 -3.43866 -1.87785 0
M  V30 2455 H 228.221 -3.68742 -1.57576 0
M  V30 2456 H 224.811 -4.27754 -0.269174 0
M  V30 2457 H 228.995 -4.94239 0.451779 0
M  V30 2458 H 224.251 -5.93853 1.45424 0
M  V30 2459 H 228.425 -6.61668 2.17183 0
M  V30 2460 H 226.052 -7.11427 2.6791 0
M  V30 2461 N 227.627 0.131896 -1.57047 0
M  V30 2462 C 228.537 1.1815 -2.02676 0
M  V30 2463 C 229.553 1.46113 -0.944824 0
M  V30 2464 O 230.729 1.57485 -1.25541 0
M  V30 2465 C 227.794 2.49139 -2.41103 0
M  V30 2466 C 226.855 2.28688 -3.63318 0
M  V30 2467 C 226.088 3.53431 -3.99903 0
M  V30 2468 O 226.311 4.60223 -3.36973 0
M  V30 2469 O 225.245 3.45198 -4.93074 0
M  V30 2470 H 229.071 0.824069 -2.92306 0
M  V30 2471 H 226.656 0.341745 -1.45439 0
M  V30 2472 H 228.538 3.26338 -2.66611 0
M  V30 2473 H 227.213 2.84382 -1.54624 0
M  V30 2474 H 226.12 1.4939 -3.42977 0
M  V30 2475 H 227.453 1.98355 -4.50462 0
M  V30 2476 N 229.106 1.52395 0.401703 0
M  V30 2477 C 230.053 1.76268 1.48991 0
M  V30 2478 C 231.023 0.605386 1.54675 0
M  V30 2479 O 232.208 0.843742 1.7113 0
M  V30 2480 C 229.348 1.92592 2.86361 0
M  V30 2481 C 228.461 3.20259 2.89928 0
M  V30 2482 C 227.596 3.26972 4.18644 0
M  V30 2483 C 226.635 4.48812 4.16214 0
M  V30 2484 N 225.772 4.52877 5.36514 0
M  V30 2485 H 230.612 2.6914 1.27935 0
M  V30 2486 H 228.149 1.33355 0.620871 0
M  V30 2487 H 230.107 2.0004 3.66115 0
M  V30 2488 H 228.737 1.03093 3.05895 0
M  V30 2489 H 227.789 3.21945 2.02621 0
M  V30 2490 H 229.101 4.10056 2.83999 0
M  V30 2491 H 228.255 3.33533 5.06794 0
M  V30 2492 H 226.994 2.35126 4.27278 0
M  V30 2493 H 225.999 4.4239 3.26453 0
M  V30 2494 H 227.224 5.41961 4.09213 0
M  V30 2495 H 225.17 3.63917 5.45802 0
M  V30 2496 H 225.087 5.36529 5.32609 0
M  V30 2497 H 226.355 4.63676 6.26597 0
M  V30 2498 N 230.584 -0.659388 1.43143 0
M  V30 2499 C 231.831 -1.41935 1.44433 0
M  V30 2500 C 232.159 -1.94387 0.0663522 0
M  V30 2501 O 231.414 -1.72314 -0.927706 0
M  V30 2502 C 231.713 -2.62206 2.42864 0
M  V30 2503 C 231.379 -2.28208 3.88886 0
M  V30 2504 C 230.041 -2.18647 4.28657 0
M  V30 2505 C 232.393 -2.00887 4.8093 0
M  V30 2506 C 229.721 -1.79914 5.58433 0
M  V30 2507 C 232.073 -1.63653 6.11065 0
M  V30 2508 C 230.737 -1.52614 6.49819 0
M  V30 2509 H 230.007 -0.519376 0.528517 0
M  V30 2510 H 232.654 -0.750453 1.76183 0
M  V30 2511 H 230.959 -3.34199 2.04495 0
M  V30 2512 H 232.656 -3.2041 2.41119 0
M  V30 2513 H 229.246 -2.36557 3.57406 0
M  V30 2514 H 233.43 -2.07198 4.5098 0
M  V30 2515 H 228.686 -1.69948 5.87305 0
M  V30 2516 H 232.86 -1.41543 6.81864 0
M  V30 2517 H 230.487 -1.22371 7.50286 0
M  V30 2518 N 232.062 -1.29571 -0.897171 0
M  V30 2519 C 232.992 -1.17473 -2.01798 0
M  V30 2520 C 233.973 -0.068323 -1.69963 0
M  V30 2521 O 235.158 -0.248239 -1.92607 0
M  V30 2522 C 232.288 -0.853099 -3.36659 0
M  V30 2523 C 231.242 -1.9161 -3.82713 0
M  V30 2524 C 230.568 -1.44773 -5.14728 0
M  V30 2525 C 231.868 -3.32535 -4.02763 0
M  V30 2526 H 233.562 -2.11237 -2.12177 0
M  V30 2527 H 231.108 -1.01699 -1.01948 0
M  V30 2528 H 233.061 -0.755165 -4.14578 0
M  V30 2529 H 231.785 0.120236 -3.26379 0
M  V30 2530 H 230.444 -2.00346 -3.07013 0
M  V30 2531 H 230.092 -0.462995 -5.00865 0
M  V30 2532 H 229.792 -2.15865 -5.46513 0
M  V30 2533 H 231.316 -1.36334 -5.95185 0
M  V30 2534 H 232.73 -3.26626 -4.71156 0
M  V30 2535 H 231.127 -4.01607 -4.45905 0
M  V30 2536 H 232.197 -3.75326 -3.07016 0
M  V30 2537 N 233.54 1.10788 -1.12088 0
M  V30 2538 C 234.789 1.82036 -0.868659 0
M  V30 2539 C 235.102 1.85929 0.607426 0
M  V30 2540 O 236.308 2.53346 0.97613 0
M  V30 2541 C 234.764 3.26951 -1.50435 0
M  V30 2542 C 234.372 3.31367 -3.01496 0
M  V30 2543 C 236.116 4.03053 -1.33225 0
M  V30 2544 C 234.023 4.7072 -3.58017 0
M  V30 2545 H 232.953 0.682108 -0.321318 0
M  V30 2546 H 235.604 1.24618 -1.34694 0
M  V30 2547 H 233.986 3.84343 -0.953735 0
M  V30 2548 H 235.16 2.83819 -3.6302 0
M  V30 2549 H 233.475 2.6875 -3.18061 0
M  V30 2550 H 236.072 5.05981 -1.72878 0
M  V30 2551 H 236.415 4.15387 -0.275529 0
M  V30 2552 H 236.948 3.52066 -1.85188 0
M  V30 2553 H 233.687 4.63585 -4.63432 0
M  V30 2554 H 233.207 5.1865 -3.01268 0
M  V30 2555 H 234.886 5.39685 -3.56859 0
M  V30 2556 N 235.018 0.912232 1.28515 0
M  V30 2557 C 236.266 0.543523 1.94654 0
M  V30 2558 C 236.587 -0.9155 1.72173 0
M  V30 2559 O 235.857 -1.64708 1.06058 0
M  V30 2560 H 234.437 0.198017 0.720277 0
M  V30 2561 H 237.099 1.16126 1.56527 0
M  V30 2562 H 236.195 0.736684 3.03281 0
M  V30 2563 N 236.496 -1.42363 0.676048 0
M  V30 2564 C 237.907 -1.84649 0.275948 0
M  V30 2565 C 238.258 -1.56588 -1.18214 0
M  V30 2566 O 237.383 -1.02634 -1.90513 0
M  V30 2567 C 237.978 -3.35178 0.494053 0
M  V30 2568 C 236.537 -3.76109 0.148061 0
M  V30 2569 C 235.684 -2.65931 0.785891 0
M  V30 2570 H 238.635 -1.32192 0.878121 0
M  V30 2571 H 238.656 -3.79655 -0.25343 0
M  V30 2572 H 238.168 -3.55571 1.55535 0
M  V30 2573 H 236.269 -3.61323 -0.909742 0
M  V30 2574 H 236.382 -4.7546 0.589454 0
M  V30 2575 H 234.746 -2.53773 0.217113 0
M  V30 2576 H 235.529 -2.89146 1.85067 0
M  V30 2577 N 237.974 -0.419461 -1.51915 0
M  V30 2578 C 238.884 0.407528 -2.31033 0
M  V30 2579 C 239.9 1.04413 -1.3919 0
M  V30 2580 O 241.076 1.0434 -1.72265 0
M  V30 2581 C 238.141 1.50365 -3.12396 0
M  V30 2582 C 237.202 0.889029 -4.19994 0
M  V30 2583 C 236.435 1.93291 -4.97468 0
M  V30 2584 O 236.658 3.15259 -4.75361 0
M  V30 2585 O 235.592 1.53339 -5.8204 0
M  V30 2586 H 239.418 -0.237865 -3.02767 0
M  V30 2587 H 237.003 -0.182413 -1.48282 0
M  V30 2588 H 238.885 2.13975 -3.63032 0
M  V30 2589 H 237.56 2.13345 -2.43445 0
M  V30 2590 H 236.467 0.215353 -3.7348 0
M  V30 2591 H 237.8 0.302991 -4.91267 0
M  V30 2592 N 239.452 1.56882 -0.150215 0
M  V30 2593 C 240.7 1.9584 0.499105 0
M  V30 2594 C 241.021 1.03623 1.65188 0
M  V30 2595 O 240.291 0.0984084 1.95653 0
M  V30 2596 H 238.871 0.723119 0.187373 0
M  V30 2597 H 241.533 1.9358 -0.226466 0
M  V30 2598 H 240.629 2.99638 0.873122 0
M  V30 2599 N 240.93 -0.123565 1.57115 0
M  V30 2600 C 241.84 -1.17074 2.033 0
M  V30 2601 C 242.856 -1.4561 0.952559 0
M  V30 2602 O 244.032 -1.56817 1.26374 0
M  V30 2603 C 241.097 -2.47857 2.42421 0
M  V30 2604 C 240.158 -2.26758 3.64526 0
M  V30 2605 C 239.391 -3.51305 4.01771 0
M  V30 2606 O 239.614 -4.5843 3.39409 0
M  V30 2607 O 238.548 -3.42578 4.94898 0
M  V30 2608 H 242.374 -0.808555 2.92739 0
M  V30 2609 H 239.959 -0.334027 1.45618 0
M  V30 2610 H 241.841 -3.2492 2.68338 0
M  V30 2611 H 240.516 -2.83558 1.5613 0
M  V30 2612 H 239.423 -1.47569 3.43765 0
M  V30 2613 H 240.756 -1.95963 4.51508 0
M  V30 2614 N 242.408 -1.52605 -0.393616 0
M  V30 2615 C 243.819 -1.59417 -0.971761 0
M  V30 2616 C 244.17 -0.444173 -1.91106 0
M  V30 2617 O 243.295 0.433382 -2.12016 0
M  V30 2618 C 243.89 -2.88936 -1.76921 0
M  V30 2619 C 242.449 -2.98175 -2.29714 0
M  V30 2620 C 241.596 -2.54491 -1.10135 0
M  V30 2621 H 244.547 -1.57751 -0.173317 0
M  V30 2622 H 244.568 -2.75163 -2.62804 0
M  V30 2623 H 244.08 -3.72616 -1.08532 0
M  V30 2624 H 242.181 -2.19024 -3.01429 0
M  V30 2625 H 242.294 -4.02726 -2.59517 0
M  V30 2626 H 240.658 -2.08702 -1.45999 0
M  V30 2627 H 241.441 -3.4056 -0.432874 0
M  V30 2628 N 243.887 0.651787 -1.4349 0
M  V30 2629 C 245.134 1.41167 -1.45183 0
M  V30 2630 C 245.462 1.94349 -0.0766601 0
M  V30 2631 O 244.717 1.72804 0.918555 0
M  V30 2632 C 245.016 2.60914 -2.44251 0
M  V30 2633 C 244.682 2.26142 -3.9009 0
M  V30 2634 C 243.344 2.16371 -4.2981 0
M  V30 2635 C 245.696 1.98334 -4.81989 0
M  V30 2636 C 243.024 1.7695 -5.5938 0
M  V30 2637 C 245.376 1.6041 -6.11924 0
M  V30 2638 C 244.04 1.49166 -6.5062 0
M  V30 2639 H 243.31 0.516566 -0.531263 0
M  V30 2640 H 245.957 0.741099 -1.76579 0
M  V30 2641 H 244.262 3.3311 -2.06265 0
M  V30 2642 H 245.959 3.19127 -2.42815 0
M  V30 2643 H 242.549 2.34658 -3.58655 0
M  V30 2644 H 246.733 2.04803 -4.52072 0
M  V30 2645 H 241.989 1.66831 -5.88198 0
M  V30 2646 H 246.163 1.37925 -6.82605 0
M  V30 2647 H 243.79 1.1839 -7.50925 0
M  V30 2648 N 245.365 1.30045 0.890287 0
M  V30 2649 C 246.781 1.08261 1.17268 0
M  V30 2650 C 246.981 -0.160063 2.00863 0
M  V30 2651 O 246.037 -0.855181 2.37577 0
M  V30 2652 C 247.35 2.34323 1.8845 0
M  V30 2653 C 248.898 2.39735 2.01237 0
M  V30 2654 C 249.373 3.65625 2.7583 0
M  V30 2655 N 250.864 3.66402 2.83379 0
M  V30 2656 C 251.599 4.60498 3.41657 0
M  V30 2657 N 251.095 5.64933 4.01026 0
M  V30 2658 N 252.888 4.48051 3.39421 0
M  V30 2659 H 245.039 2.09777 0.332762 0
M  V30 2660 H 247.302 0.92446 0.209948 0
M  V30 2661 H 247.008 3.2498 1.34465 0
M  V30 2662 H 246.882 2.4256 2.88867 0
M  V30 2663 H 249.269 1.4956 2.54393 0
M  V30 2664 H 249.35 2.35476 0.999232 0
M  V30 2665 H 248.994 4.56156 2.23347 0
M  V30 2666 H 248.924 3.67144 3.77509 0
M  V30 2667 H 251.415 2.90896 2.41222 0
M  V30 2668 H 251.728 6.32841 4.43545 0
M  V30 2669 H 250.073 5.68732 3.99461 0
M  V30 2670 H 253.264 3.65649 2.92264 0
M  V30 2671 H 253.437 5.21565 3.84544 0
M  V30 2672 N 246.843 -1.10192 1.12674 0
M  V30 2673 C 248.259 -1.34235 0.863317 0
M  V30 2674 C 248.459 -1.95062 -0.505277 0
M  V30 2675 O 247.515 -2.19192 -1.25345 0
M  V30 2676 C 248.828 -2.2616 1.98172 0
M  V30 2677 C 250.376 -2.3969 2.0129 0
M  V30 2678 C 250.851 -3.34946 3.1237 0
M  V30 2679 N 252.342 -3.42515 3.11829 0
M  V30 2680 C 253.077 -4.16199 3.94419 0
M  V30 2681 N 252.573 -4.92747 4.87004 0
M  V30 2682 N 254.366 -4.11843 3.82547 0
M  V30 2683 H 246.517 -0.690798 2.00853 0
M  V30 2684 H 248.78 -0.366774 0.874174 0
M  V30 2685 H 248.486 -1.8868 2.96804 0
M  V30 2686 H 248.36 -3.26488 1.88906 0
M  V30 2687 H 250.747 -2.76438 1.03276 0
M  V30 2688 H 250.828 -1.39169 2.14629 0
M  V30 2689 H 250.472 -2.98923 4.10619 0
M  V30 2690 H 250.402 -4.35353 2.96269 0
M  V30 2691 H 252.893 -2.87926 2.44759 0
M  V30 2692 H 253.206 -5.46376 5.46528 0
M  V30 2693 H 251.551 -4.91862 4.91016 0
M  V30 2694 H 254.742 -3.51136 3.0955 0
M  V30 2695 H 254.915 -4.69007 4.47142 0
M  V30 2696 N 248.321 -0.919034 -1.28029 0
M  V30 2697 C 249.551 -0.570143 -1.98577 0
M  V30 2698 C 249.959 0.854172 -1.68821 0
M  V30 2699 O 249.302 1.57807 -0.940351 0
M  V30 2700 C 249.364 -0.705734 -3.52505 0
M  V30 2701 C 249.028 -2.10057 -4.05863 0
M  V30 2702 C 250.025 -3.07385 -4.19298 0
M  V30 2703 C 247.71 -2.41517 -4.40426 0
M  V30 2704 C 249.704 -4.34287 -4.66555 0
M  V30 2705 C 247.391 -3.68657 -4.87376 0
M  V30 2706 C 248.389 -4.64856 -5.00398 0
M  V30 2707 O 248.077 -5.89735 -5.46322 0
M  V30 2708 H 247.809 -0.215592 -0.6407 0
M  V30 2709 H 250.363 -1.23583 -1.64062 0
M  V30 2710 H 248.593 0.0170414 -3.86696 0
M  V30 2711 H 250.282 -0.363172 -4.04272 0
M  V30 2712 H 251.048 -2.84398 -3.92865 0
M  V30 2713 H 246.927 -1.67389 -4.29537 0
M  V30 2714 H 250.471 -5.09377 -4.76635 0
M  V30 2715 H 246.368 -3.91466 -5.13249 0
M  V30 2716 H 247.136 -5.92599 -5.64596 0
M  V30 2717 N 249.799 1.42003 -0.683588 0
M  V30 2718 C 251.024 2.06265 -0.216647 0
M  V30 2719 C 251.449 1.51059 1.12083 0
M  V30 2720 O 250.807 0.632638 1.69904 0
M  V30 2721 C 250.855 3.60191 -0.171759 0
M  V30 2722 O 249.959 4.03396 0.857069 0
M  V30 2723 H 249.3 0.65502 -0.108834 0
M  V30 2724 H 251.83 1.81982 -0.935077 0
M  V30 2725 H 251.84 4.08 0.0014303 0
M  V30 2726 H 250.515 3.99743 -1.14796 0
M  V30 2727 H 249.092 3.67117 0.654208 0
M  V30 2728 N 251.277 0.427512 1.51691 0
M  V30 2729 C 252.693 0.0792977 1.59403 0
M  V30 2730 C 252.893 -1.41035 1.43914 0
M  V30 2731 O 251.949 -2.17922 1.27539 0
M  V30 2732 C 253.262 0.590636 2.94842 0
M  V30 2733 C 254.81 0.550215 3.08126 0
M  V30 2734 C 255.285 1.03836 4.46074 0
M  V30 2735 N 256.776 0.995943 4.52366 0
M  V30 2736 C 257.511 1.34463 5.57411 0
M  V30 2737 N 257.007 1.76569 6.69922 0
M  V30 2738 N 258.8 1.26343 5.47717 0
M  V30 2739 H 250.951 1.39687 1.60004 0
M  V30 2740 H 253.214 0.575003 0.753708 0
M  V30 2741 H 252.92 1.63251 3.11516 0
M  V30 2742 H 252.794 0.0102061 3.77199 0
M  V30 2743 H 255.181 -0.482654 2.91126 0
M  V30 2744 H 255.262 1.16693 2.27632 0
M  V30 2745 H 254.906 2.06965 4.63819 0
M  V30 2746 H 254.836 0.398286 5.25092 0
M  V30 2747 H 257.327 0.68661 3.7161 0
M  V30 2748 H 257.64 2.01438 7.46085 0
M  V30 2749 H 255.985 1.80488 6.71155 0
M  V30 2750 H 259.176 0.933209 4.58703 0
M  V30 2751 H 259.349 1.53846 6.29472 0
M  V30 2752 N 252.755 -1.56801 0.158532 0
M  V30 2753 C 253.983 -2.00859 -0.496303 0
M  V30 2754 C 254.398 -1.03871 -1.57659 0
M  V30 2755 O 253.755 -0.0375165 -1.82461 0
M  V30 2756 C 253.806 -3.4479 -1.08638 0
M  V30 2757 O 253.527 -4.38072 -0.0492322 0
M  V30 2758 C 255.028 -4.04185 -1.8207 0
M  V30 2759 H 252.248 -0.65864 -0.128199 0
M  V30 2760 H 254.792 -2.02885 0.256506 0
M  V30 2761 H 252.947 -3.43579 -1.78975 0
M  V30 2762 H 253.361 -5.2227 -0.483102 0
M  V30 2763 H 254.835 -5.06857 -2.18633 0
M  V30 2764 H 255.312 -3.45549 -2.71095 0
M  V30 2765 H 255.918 -4.0906 -1.16405 0
M  V30 2766 N 254.233 0.115231 -1.57178 0
M  V30 2767 C 255.48 0.822351 -1.8505 0
M  V30 2768 C 255.808 1.79701 -0.744168 0
M  V30 2769 O 255.063 1.93909 0.26414 0
M  V30 2770 C 255.362 1.60324 -3.19423 0
M  V30 2771 C 255.028 0.772536 -4.44233 0
M  V30 2772 C 253.69 0.543468 -4.78121 0
M  V30 2773 C 256.042 0.193746 -5.2084 0
M  V30 2774 C 253.37 -0.274583 -5.86057 0
M  V30 2775 C 255.722 -0.611517 -6.29637 0
M  V30 2776 C 254.386 -0.850867 -6.62055 0
M  V30 2777 H 253.656 0.30092 -0.677147 0
M  V30 2778 H 256.303 0.0845802 -1.91313 0
M  V30 2779 H 254.608 2.41203 -3.08753 0
M  V30 2780 H 256.305 2.1544 -3.38211 0
M  V30 2781 H 252.895 0.96117 -4.17683 0
M  V30 2782 H 257.079 0.357926 -4.95008 0
M  V30 2783 H 252.335 -0.469206 -6.09597 0
M  V30 2784 H 256.509 -1.06697 -6.88178 0
M  V30 2785 H 254.136 -1.48657 -7.45523 0
M  V30 2786 N 255.711 1.52812 0.385517 0
M  V30 2787 C 257.122 1.5993 0.963293 0
M  V30 2788 C 257.473 0.454302 1.90868 0
M  V30 2789 O 256.598 -0.422132 2.12243 0
M  V30 2790 C 257.193 2.89871 1.75387 0
M  V30 2791 C 255.752 2.99389 2.28129 0
M  V30 2792 C 254.899 2.55071 1.08783 0
M  V30 2793 H 257.85 1.5784 0.164948 0
M  V30 2794 H 257.871 2.76553 2.61341 0
M  V30 2795 H 257.383 3.73186 1.06554 0
M  V30 2796 H 255.484 2.20619 3.00263 0
M  V30 2797 H 255.597 4.04096 2.57377 0
M  V30 2798 H 253.961 2.09473 1.4489 0
M  V30 2799 H 254.744 3.40785 0.414807 0
M  V30 2800 N 257.189 -0.644168 1.43834 0
M  V30 2801 C 258.417 -1.43147 1.49387 0
M  V30 2802 C 258.832 -1.88452 0.114583 0
M  V30 2803 O 258.189 -1.60047 -0.876989 0
M  V30 2804 C 258.24 -2.66046 2.44748 0
M  V30 2805 O 257.961 -2.22633 3.77314 0
M  V30 2806 C 259.462 -3.59311 2.59635 0
M  V30 2807 H 256.682 -0.439447 0.507077 0
M  V30 2808 H 259.226 -0.78895 1.88669 0
M  V30 2809 H 257.381 -3.26418 2.08638 0
M  V30 2810 H 257.795 -3.02216 4.28679 0
M  V30 2811 H 259.269 -4.42187 3.30416 0
M  V30 2812 H 259.746 -4.07259 1.64427 0
M  V30 2813 H 260.352 -3.04816 2.96593 0
M  V30 2814 N 258.668 -1.30515 -0.883378 0
M  V30 2815 C 259.917 -1.18795 -1.63005 0
M  V30 2816 C 260.23 0.255923 -1.93919 0
M  V30 2817 O 261.436 0.494654 -2.66956 0
M  V30 2818 C 259.892 -2.07878 -2.93794 0
M  V30 2819 C 259.5 -3.57184 -2.70414 0
M  V30 2820 C 261.244 -2.04924 -3.71761 0
M  V30 2821 C 259.151 -4.38317 -3.97029 0
M  V30 2822 H 258.081 -0.441031 -0.611562 0
M  V30 2823 H 260.732 -1.55275 -0.977854 0
M  V30 2824 H 259.114 -1.64283 -3.60315 0
M  V30 2825 H 260.288 -4.08937 -2.12384 0
M  V30 2826 H 258.603 -3.61976 -2.0582 0
M  V30 2827 H 261.2 -2.62792 -4.65665 0
M  V30 2828 H 261.543 -1.0331 -4.03277 0
M  V30 2829 H 262.076 -2.46649 -3.12104 0
M  V30 2830 H 258.815 -5.40632 -3.70671 0
M  V30 2831 H 258.335 -3.91326 -4.54559 0
M  V30 2832 H 260.014 -4.49834 -4.65036 0
M  V30 2833 N 260.146 1.09593 -1.13257 0
M  V30 2834 C 261.094 2.18271 -0.803783 0
M  V30 2835 C 262.088 1.68054 0.213148 0
M  V30 2836 O 263.294 1.79862 0.0704699 0
M  V30 2837 H 259.669 0.711949 -0.242143 0
M  V30 2838 H 261.64 2.43235 -1.72856 0
M  V30 2839 C 260.389 3.46536 -0.28424 0
M  V30 2840 H 259.712 3.85545 -1.05807 0
M  V30 2841 H 261.152 4.23899 -0.0925945 0
M  V30 2842 C 259.611 3.22036 0.989684 0
M  V30 2843 O 260.141 3.44509 2.06584 0
M  V30 2844 N 258.347 2.7565 0.920086 0
M  V30 2845 H 257.894 2.57562 0.0442019 0
M  V30 2846 H 257.852 2.59635 1.77306 0
M  V30 2847 N 261.624 0.925811 1.2754 0
M  V30 2848 C 262.873 0.561084 1.93739 0
M  V30 2849 C 263.186 -0.901685 1.73577 0
M  V30 2850 O 264.392 -1.37511 2.34101 0
M  V30 2851 C 262.848 0.952668 3.47062 0
M  V30 2852 C 262.456 2.43599 3.75983 0
M  V30 2853 C 264.2 0.659103 4.19352 0
M  V30 2854 C 262.107 2.76707 5.22673 0
M  V30 2855 H 261.037 0.206122 0.725279 0
M  V30 2856 H 263.688 1.12637 1.44863 0
M  V30 2857 H 262.07 0.316053 3.94737 0
M  V30 2858 H 263.244 3.12035 3.39073 0
M  V30 2859 H 261.559 2.70125 3.16893 0
M  V30 2860 H 264.156 0.882985 5.27359 0
M  V30 2861 H 264.499 -0.403607 4.14339 0
M  V30 2862 H 265.032 1.25473 3.77494 0
M  V30 2863 H 261.771 3.8188 5.32774 0
M  V30 2864 H 261.291 2.12919 5.60737 0
M  V30 2865 H 262.97 2.6435 5.90532 0
M  V30 2866 N 263.102 -1.41638 0.69111 0
M  V30 2867 C 264.012 -2.34588 0.0233487 0
M  V30 2868 C 265.028 -1.55987 -0.770984 0
M  V30 2869 O 266.204 -1.88486 -0.709569 0
M  V30 2870 C 263.269 -3.34684 -0.904851 0
M  V30 2871 C 262.33 -4.29176 -0.103225 0
M  V30 2872 C 261.563 -5.2449 -0.987216 0
M  V30 2873 O 261.786 -5.2514 -2.22674 0
M  V30 2874 O 260.72 -6.00295 -0.439281 0
M  V30 2875 H 264.546 -2.93261 0.789416 0
M  V30 2876 H 262.131 -1.42417 0.45142 0
M  V30 2877 H 264.013 -3.96133 -1.43724 0
M  V30 2878 H 262.688 -2.78461 -1.65049 0
M  V30 2879 H 261.595 -3.71089 0.473655 0
M  V30 2880 H 262.928 -4.88484 0.60365 0
M  V30 2881 N 264.58 -0.43555 -1.51462 0
M  V30 2882 C 265.991 0.0279871 -1.86679 0
M  V30 2883 C 266.342 1.42104 -1.35281 0
M  V30 2884 O 265.467 2.04667 -0.702878 0
M  V30 2885 C 266.062 0.0575626 -3.38751 0
M  V30 2886 C 264.621 0.465507 -3.7351 0
M  V30 2887 C 263.768 -0.342996 -2.75171 0
M  V30 2888 H 266.719 -0.651473 -1.44712 0
M  V30 2889 H 266.74 0.867421 -3.70481 0
M  V30 2890 H 266.252 -0.956448 -3.7613 0
M  V30 2891 H 264.353 1.48519 -3.41721 0
M  V30 2892 H 264.466 0.191546 -4.78717 0
M  V30 2893 H 262.83 0.198442 -2.53926 0
M  V30 2894 H 263.613 -1.35585 -3.15391 0
M  V30 2895 N 266.058 1.56714 -0.166846 0
M  V30 2896 C 267.335 1.88412 0.525373 0
M  V30 2897 C 267.715 1.07602 1.81618 0
M  V30 2898 O 267.063 0.168621 2.27877 0
M  V30 2899 C 267.273 3.40363 0.771613 0
M  V30 2900 C 268.621 4.10007 1.1036 0
M  V30 2901 O 269.645 3.45655 0.860304 0
M  V30 2902 O 268.504 5.2369 1.56239 0
M  V30 2903 H 265.598 0.781587 0.270278 0
M  V30 2904 H 268.144 1.68458 -0.204946 0
M  V30 2905 H 266.916 3.91046 -0.141093 0
M  V30 2906 H 266.539 3.65914 1.55541 0
M  V30 2907 N 267.536 -0.106894 1.57237 0
M  V30 2908 C 268.785 -0.811163 1.8467 0
M  V30 2909 C 269.098 -1.80469 0.754342 0
M  V30 2910 O 270.304 -2.55601 0.915439 0
M  V30 2911 C 268.76 -1.49337 3.27454 0
M  V30 2912 C 268.368 -0.540217 4.44731 0
M  V30 2913 C 270.112 -2.18206 3.64124 0
M  V30 2914 C 268.019 -1.22634 5.78545 0
M  V30 2915 H 266.949 -0.306679 0.688813 0
M  V30 2916 H 269.6 -0.0639887 1.83388 0
M  V30 2917 H 267.982 -2.2876 3.23241 0
M  V30 2918 H 269.156 0.221659 4.60267 0
M  V30 2919 H 267.471 0.042146 4.16379 0
M  V30 2920 H 270.068 -2.70253 4.61376 0
M  V30 2921 H 270.411 -2.96562 2.92158 0
M  V30 2922 H 270.944 -1.45658 3.70174 0
M  V30 2923 H 267.683 -0.483832 6.53712 0
M  V30 2924 H 267.203 -1.95993 5.66874 0
M  V30 2925 H 268.882 -1.75615 6.2271 0
M  V30 2926 N 269.014 -1.53014 -0.377408 0
M  V30 2927 C 269.961 -1.78616 -1.46168 0
M  V30 2928 C 270.931 -0.629917 -1.53692 0
M  V30 2929 O 272.116 -0.870861 -1.69766 0
M  V30 2930 C 269.256 -1.97123 -2.8326 0
M  V30 2931 C 268.369 -3.24831 -2.84796 0
M  V30 2932 C 267.504 -3.33591 -4.13389 0
M  V30 2933 C 266.543 -4.55377 -4.09021 0
M  V30 2934 N 265.68 -4.61355 -5.29241 0
M  V30 2935 H 270.52 -2.71142 -1.23637 0
M  V30 2936 H 268.057 -1.34326 -0.599577 0
M  V30 2937 H 270.015 -2.05839 -3.62886 0
M  V30 2938 H 268.645 -1.07946 -3.04216 0
M  V30 2939 H 267.697 -3.25128 -1.97474 0
M  V30 2940 H 269.009 -4.14523 -2.77439 0
M  V30 2941 H 268.163 -3.41554 -5.01424 0
M  V30 2942 H 266.902 -2.41894 -4.23484 0
M  V30 2943 H 265.907 -4.47527 -3.19373 0
M  V30 2944 H 267.132 -5.48402 -4.00539 0
M  V30 2945 H 265.078 -3.72554 -5.39944 0
M  V30 2946 H 264.995 -5.44935 -5.24006 0
M  V30 2947 H 266.263 -4.73586 -6.19141 0
M  V30 2948 N 270.492 0.636531 -1.44174 0
M  V30 2949 C 271.908 0.954104 -1.27941 0
M  V30 2950 C 272.108 2.0039 -0.211248 0
M  V30 2951 O 271.164 2.49236 0.404695 0
M  V30 2952 C 272.477 1.4225 -2.64925 0
M  V30 2953 C 274.025 1.53827 -2.72592 0
M  V30 2954 C 274.5 2.04053 -4.10032 0
M  V30 2955 N 275.991 2.11331 -4.12182 0
M  V30 2956 C 276.726 2.51352 -5.15374 0
M  V30 2957 N 276.222 2.90549 -6.2893 0
M  V30 2958 N 278.015 2.51438 -5.02728 0
M  V30 2959 H 270.166 -0.0578386 -2.12321 0
M  V30 2960 H 272.429 0.0367406 -0.947288 0
M  V30 2961 H 272.135 0.725466 -3.44136 0
M  V30 2962 H 272.009 2.39451 -2.9145 0
M  V30 2963 H 274.396 2.22628 -1.93702 0
M  V30 2964 H 274.477 0.550154 -2.49814 0
M  V30 2965 H 274.121 1.35848 -4.89395 0
M  V30 2966 H 274.051 3.03726 -4.30184 0
M  V30 2967 H 276.542 1.83745 -3.30222 0
M  V30 2968 H 276.855 3.19884 -7.03487 0
M  V30 2969 H 275.2 2.88313 -6.32377 0
M  V30 2970 H 278.391 2.20203 -4.13072 0
M  V30 2971 H 278.564 2.82304 -5.83274 0
M  V30 2972 N 271.97 1.30982 0.876444 0
M  V30 2973 C 272.9 1.20668 1.99903 0
M  V30 2974 C 273.881 0.095354 1.69833 0
M  V30 2975 O 275.066 0.27885 1.92188 0
M  V30 2976 C 272.196 0.90655 3.3526 0
M  V30 2977 C 271.15 1.97675 3.79617 0
M  V30 2978 C 270.476 1.52943 5.1236 0
M  V30 2979 C 271.776 3.389 3.97422 0
M  V30 2980 H 273.47 2.14586 2.0879 0
M  V30 2981 H 271.016 1.03308 1.00317 0
M  V30 2982 H 272.969 0.821025 4.13324 0
M  V30 2983 H 271.693 -0.0682969 3.26529 0
M  V30 2984 H 270.352 2.05205 3.03787 0
M  V30 2985 H 270 0.54262 5.00065 0
M  V30 2986 H 269.7 2.24532 5.43009 0
M  V30 2987 H 271.224 1.45786 5.92941 0
M  V30 2988 H 272.638 3.34081 4.659 0
M  V30 2989 H 271.035 4.0865 4.3946 0
M  V30 2990 H 272.105 3.80163 3.01006 0
M  V30 2991 N 273.449 -1.08991 1.13837 0
M  V30 2992 C 274.379 -2.17771 0.842507 0
M  V30 2993 C 275.36 -1.6892 -0.20001 0
M  V30 2994 O 276.545 -1.94113 -0.0579731 0
M  V30 2995 C 273.675 -3.4589 0.312644 0
M  V30 2996 C 272.629 -4.08099 1.28992 0
M  V30 2997 C 271.955 -5.31098 0.619623 0
M  V30 2998 C 273.255 -4.50077 2.65005 0
M  V30 2999 H 274.949 -2.42777 1.75213 0
M  V30 3000 H 272.495 -1.16682 0.843875 0
M  V30 3001 H 274.448 -4.21297 0.0933043 0
M  V30 3002 H 273.172 -3.20419 -0.632382 0
M  V30 3003 H 271.831 -3.34717 1.49533 0
M  V30 3004 H 271.479 -5.0191 -0.33102 0
M  V30 3005 H 271.179 -5.73674 1.27167 0
M  V30 3006 H 272.703 -6.09224 0.409669 0
M  V30 3007 H 274.117 -5.16688 2.48407 0
M  V30 3008 H 272.514 -5.03553 3.26427 0
M  V30 3009 H 273.584 -3.62257 3.22332 0
M  V30 3010 N 274.927 -0.932562 -1.27047 0
M  V30 3011 C 275.874 -0.434072 -2.26681 0
M  V30 3012 C 276.844 0.501639 -1.58344 0
M  V30 3013 O 278.029 0.419734 -1.86126 0
M  V30 3014 C 275.169 0.30261 -3.43771 0
M  V30 3015 C 274.282 -0.667774 -4.26808 0
M  V30 3016 C 273.417 0.0892393 -5.31125 0
M  V30 3017 C 272.456 -0.873532 -6.05835 0
M  V30 3018 N 271.593 -0.148832 -7.01942 0
M  V30 3019 H 276.433 -1.28868 -2.68695 0
M  V30 3020 H 273.97 -0.646713 -1.32121 0
M  V30 3021 H 275.928 0.746092 -4.10474 0
M  V30 3022 H 274.558 1.12142 -3.02695 0
M  V30 3023 H 273.61 -1.22978 -3.59973 0
M  V30 3024 H 274.922 -1.40337 -4.78651 0
M  V30 3025 H 274.076 0.592409 -6.03801 0
M  V30 3026 H 272.815 0.85777 -4.80097 0
M  V30 3027 H 271.82 -1.38791 -5.31994 0
M  V30 3028 H 273.045 -1.64193 -6.58952 0
M  V30 3029 H 270.991 0.601365 -6.53238 0
M  V30 3030 H 270.908 -0.82391 -7.51497 0
M  V30 3031 H 272.176 0.333527 -7.78786 0
M  V30 3032 N 276.405 1.4127 -0.698611 0
M  V30 3033 C 277.651 2.01478 -0.231207 0
M  V30 3034 C 277.984 1.55215 1.16713 0
M  V30 3035 O 277.259 0.764672 1.78838 0
M  V30 3036 C 277.542 3.58912 -0.292281 0
M  V30 3037 C 277.395 4.15293 -1.72778 0
M  V30 3038 C 278.714 4.38736 0.346194 0
M  V30 3039 H 275.833 0.732025 -0.0854878 0
M  V30 3040 H 278.475 1.67977 -0.887906 0
M  V30 3041 H 276.625 3.87582 0.26686 0
M  V30 3042 H 278.297 3.97486 -2.341 0
M  V30 3043 H 276.54 3.7022 -2.26096 0
M  V30 3044 H 277.211 5.24452 -1.72202 0
M  V30 3045 H 279.687 4.15897 -0.130035 0
M  V30 3046 H 278.563 5.48221 0.272932 0
M  V30 3047 H 278.824 4.18425 1.42734 0
M  V30 3048 N 277.883 0.443576 1.51229 0
M  V30 3049 C 278.846 -0.353132 2.26463 0
M  V30 3050 C 279.846 -0.944338 1.3015 0
M  V30 3051 O 281.036 -0.817813 1.5381 0
M  V30 3052 C 278.168 -1.50023 3.06114 0
M  V30 3053 H 279.361 0.3063 2.98332 0
M  V30 3054 H 276.914 0.196902 1.55055 0
M  V30 3055 H 277.649 -2.19553 2.38677 0
M  V30 3056 H 277.434 -1.08241 3.76864 0
M  V30 3057 H 278.924 -2.06296 3.63087 0
M  V30 3058 N 279.361 -1.56624 0.175154 0
M  V30 3059 C 280.61 -1.96173 -0.468921 0
M  V30 3060 C 280.923 -1.06401 -1.64128 0
M  V30 3061 O 282.129 -1.35648 -2.35185 0
M  V30 3062 C 280.585 -3.48833 -0.885633 0
M  V30 3063 C 280.193 -4.47237 0.261343 0
M  V30 3064 C 281.937 -3.97194 -1.49791 0
M  V30 3065 C 279.844 -5.9114 -0.175214 0
M  V30 3066 H 278.774 -0.732455 -0.178958 0
M  V30 3067 H 281.425 -1.81591 0.263997 0
M  V30 3068 H 279.807 -3.58848 -1.67464 0
M  V30 3069 H 280.981 -4.4894 1.03871 0
M  V30 3070 H 279.296 -4.08956 0.783827 0
M  V30 3071 H 281.893 -5.02167 -1.83665 0
M  V30 3072 H 282.236 -3.40351 -2.39722 0
M  V30 3073 H 282.769 -3.90212 -0.773267 0
M  V30 3074 H 279.508 -6.51865 0.689414 0
M  V30 3075 H 279.028 -5.92735 -0.91786 0
M  V30 3076 H 280.707 -6.44044 -0.617792 0
M  V30 3077 O 280.878 -0.0374081 -1.61457 0
M  V30 3078 H 281.569 0.573968 -1.85001 0
M  V30 END ATOM
M  V30 BEGIN BOND
M  V30 END BOND
M  V30 END CTAB
M  END
$$$$
