drugbank_target|P18357 Regulatory protein BlaR1 (DB02968; DB03530)
 OpenBabel12092119573D

  0  0  0     0  0            999 V3000
M  V30 BEGIN CTAB
M  V30 COUNTS 9884 10006 0 0 0
M  V30 BEGIN ATOM
M  V30 1 H -0.908 1.98254 -0.117106 0
M  V30 2 N 0 1.576 0 0
M  V30 3 C 0.933 2.03868 1.02534 0
M  V30 4 C 1.911 0.928543 1.3348 0
M  V30 5 O 3.095 1.19667 1.45644 0
M  V30 6 C 0.222 2.43627 2.35294 0
M  V30 7 C -0.732 3.65373 2.2001 0
M  V30 8 S 0.101 5.13292 1.52614 0
M  V30 9 C 1.257 5.56322 2.86805 0
M  V30 10 H 1.49 2.90518 0.631377 0
M  V30 11 H -0.977 1.52953 0.210867 0
M  V30 12 H 0.981 2.67203 3.11629 0
M  V30 13 H -0.358 1.57376 2.7183 0
M  V30 14 H -1.165 3.90944 3.18086 0
M  V30 15 H -1.563 3.418 1.51819 0
M  V30 16 H 0.729 5.58782 3.83104 0
M  V30 17 H 1.672 6.56266 2.65933 0
M  V30 18 H 2.08 4.83886 2.90714 0
M  V30 19 N 1.4781 -0.272755 1.55222 0
M  V30 20 C 2.4411 -1.32041 1.87344 0
M  V30 21 C 3.4411 -1.42342 0.74803 0
M  V30 22 O 4.6311 -1.41488 1.0162 0
M  V30 23 C 1.7631 -2.70173 2.07893 0
M  V30 24 H 2.9561 -1.04789 2.80997 0
M  V30 25 H 0.5091 -0.51083 1.47717 0
M  V30 26 H 1.2441 -3.02605 1.16622 0
M  V30 27 H 1.0291 -2.64082 2.89833 0
M  V30 28 H 2.5191 -3.45869 2.34017 0
M  V30 29 N 2.9562 -1.48159 -0.537278 0
M  V30 30 C 3.9032 -1.62138 -1.64256 0
M  V30 31 C 4.8732 -0.463668 -1.59497 0
M  V30 32 O 6.0582 -0.686241 -1.78032 0
M  V30 33 C 3.1982 -1.66028 -3.02537 0
M  V30 34 C 2.3112 -2.92855 -3.17585 0
M  V30 35 C 1.4462 -2.87952 -4.46382 0
M  V30 36 C 0.4852 -4.09516 -4.54932 0
M  V30 37 N -0.3778 -4.02733 -5.75109 0
M  V30 38 H 4.4622 -2.56529 -1.51647 0
M  V30 39 H 1.9992 -1.27224 -0.738414 0
M  V30 40 H 3.9572 -1.66265 -3.82638 0
M  V30 41 H 2.5872 -0.751331 -3.13934 0
M  V30 42 H 1.6392 -3.02395 -2.30784 0
M  V30 43 H 2.9512 -3.82822 -3.19764 0
M  V30 44 H 2.1052 -2.8655 -5.34765 0
M  V30 45 H 0.8442 -1.95702 -4.46712 0
M  V30 46 H -0.1508 -4.11201 -3.64957 0
M  V30 47 H 1.0742 -5.02917 -4.56346 0
M  V30 48 H -0.9798 -3.13299 -5.76351 0
M  V30 49 H -1.0628 -4.86397 -5.78752 0
M  V30 50 H 0.2052 -4.05379 -6.65799 0
M  V30 51 N 4.4343 0.785586 -1.36625 0
M  V30 52 C 5.3643 1.91259 -1.33949 0
M  V30 53 C 6.3453 1.68795 -0.210325 0
M  V30 54 O 7.5303 1.89854 -0.408561 0
M  V30 55 C 4.6603 3.28339 -1.13186 0
M  V30 56 C 3.6143 3.65335 -2.22967 0
M  V30 57 C 2.9403 5.00806 -1.87342 0
M  V30 58 C 4.2403 3.7352 -3.65075 0
M  V30 59 H 5.9343 1.93755 -2.28253 0
M  V30 60 H 3.4803 0.930788 -1.09874 0
M  V30 61 H 5.4333 4.06804 -1.09948 0
M  V30 62 H 4.1573 3.2624 -0.153332 0
M  V30 63 H 2.8163 2.89169 -2.25337 0
M  V30 64 H 2.4643 4.95233 -0.880545 0
M  V30 65 H 2.1643 5.26529 -2.60846 0
M  V30 66 H 3.6883 5.81687 -1.85667 0
M  V30 67 H 5.1023 4.42168 -3.64911 0
M  V30 68 H 3.4993 4.10731 -4.37516 0
M  V30 69 H 4.5693 2.74527 -3.99703 0
M  V30 70 N 5.9124 1.20967 1.01018 0
M  V30 71 C 6.8424 0.988272 2.11555 0
M  V30 72 C 7.8234 -0.0849778 1.69888 0
M  V30 73 O 9.0084 0.0738202 1.9406 0
M  V30 74 C 6.1384 0.546528 3.42973 0
M  V30 75 C 5.0924 1.56375 3.9841 0
M  V30 76 C 4.4184 0.97842 5.25672 0
M  V30 77 C 5.7184 2.94922 4.31066 0
M  V30 78 H 7.4124 1.91276 2.30334 0
M  V30 79 H 4.9584 0.921073 1.1069 0
M  V30 80 H 6.9114 0.378839 4.19694 0
M  V30 81 H 5.6354 -0.413598 3.23971 0
M  V30 82 H 4.2944 1.71891 3.23804 0
M  V30 83 H 3.9424 0.0101688 5.02999 0
M  V30 84 H 3.6424 1.65784 5.63728 0
M  V30 85 H 5.1664 0.821939 6.05043 0
M  V30 86 H 6.5804 2.8288 4.9865 0
M  V30 87 H 4.9774 3.5983 4.80253 0
M  V30 88 H 6.0474 3.4616 3.39561 0
M  V30 89 N 7.3905 -1.2043 1.01659 0
M  V30 90 C 8.6395 -1.89118 0.701237 0
M  V30 91 C 8.9525 -1.79705 -0.772358 0
M  V30 92 O 10.1585 -2.43528 -1.20026 0
M  V30 93 C 8.6145 -3.39168 1.20388 0
M  V30 94 C 8.2225 -3.57166 2.70438 0
M  V30 95 C 9.9665 -4.1341 0.963953 0
M  V30 96 C 7.8735 -5.01042 3.14183 0
M  V30 97 H 6.8035 -0.708267 0.2586 0
M  V30 98 H 9.4545 -1.36239 1.22927 0
M  V30 99 H 7.8365 -3.91369 0.603824 0
M  V30 100 H 9.0105 -3.15351 3.35992 0
M  V30 101 H 7.3255 -2.96294 2.92572 0
M  V30 102 H 9.9225 -5.19491 1.26621 0
M  V30 103 H 10.2655 -4.16181 -0.099578 0
M  V30 104 H 10.7985 -3.67309 1.52738 0
M  V30 105 H 7.5375 -5.03426 4.19812 0
M  V30 106 H 7.0575 -5.43668 2.53348 0
M  V30 107 H 8.7365 -5.69623 3.0682 0
M  V30 108 N 8.8686 -0.792821 -1.36206 0
M  V30 109 C 9.8016 -0.139422 -2.27774 0
M  V30 110 C 10.7796 0.68649 -1.47398 0
M  V30 111 O 11.9636 0.656738 -1.7669 0
M  V30 112 C 9.0906 0.807947 -3.28922 0
M  V30 113 C 8.1366 0.0633999 -4.26453 0
M  V30 114 S 8.9696 -1.26319 -5.20388 0
M  V30 115 C 10.1256 -0.31991 -6.25082 0
M  V30 116 H 10.3586 -0.915809 -2.82843 0
M  V30 117 H 7.8916 -0.587203 -1.42798 0
M  V30 118 H 9.8496 1.34908 -3.87699 0
M  V30 119 H 8.5106 1.55761 -2.72759 0
M  V30 120 H 7.7036 0.782386 -4.9789 0
M  V30 121 H 7.3056 -0.407352 -3.71775 0
M  V30 122 H 9.5976 0.499985 -6.75653 0
M  V30 123 H 10.5406 -1.00307 -7.00959 0
M  V30 124 H 10.9486 0.0782694 -5.64446 0
M  V30 125 N 10.3467 1.47872 -0.545128 0
M  V30 126 C 11.5717 2.07391 -0.0190611 0
M  V30 127 C 11.9967 1.39688 1.25971 0
M  V30 128 O 11.3547 0.467816 1.7516 0
M  V30 129 C 11.4027 3.60188 0.172335 0
M  V30 130 O 10.5067 3.9339 1.23766 0
M  V30 131 H 9.8477 0.662411 -0.0459059 0
M  V30 132 H 12.3777 1.90066 -0.757365 0
M  V30 133 H 12.3877 4.06129 0.390305 0
M  V30 134 H 11.0627 4.08865 -0.761725 0
M  V30 135 H 9.6397 3.5921 1.00114 0
M  V30 136 N 11.8248 0.280983 1.55075 0
M  V30 137 C 13.0738 -0.334784 1.98902 0
M  V30 138 C 13.3868 -1.56534 1.17288 0
M  V30 139 O 14.5928 -2.25443 1.51287 0
M  V30 140 C 13.0488 -0.646994 3.54037 0
M  V30 141 C 12.6568 0.564085 4.44435 0
M  V30 142 C 14.4008 -1.22506 4.06439 0
M  V30 143 C 12.3078 0.226137 5.90967 0
M  V30 144 H 11.2378 -0.128866 0.742906 0
M  V30 145 H 13.8888 0.386556 1.79382 0
M  V30 146 H 12.2708 -1.42739 3.6938 0
M  V30 147 H 13.4448 1.34082 4.40861 0
M  V30 148 H 11.7598 1.0594 4.02698 0
M  V30 149 H 14.3568 -1.49182 5.13468 0
M  V30 150 H 14.6998 -2.16085 3.55827 0
M  V30 151 H 15.2328 -0.50682 3.94558 0
M  V30 152 H 11.9718 1.12996 6.45687 0
M  V30 153 H 11.4918 -0.513717 5.97596 0
M  V30 154 H 13.1708 -0.179539 6.46751 0
M  V30 155 N 13.3029 -1.57598 0.00835791 0
M  V30 156 C 14.5489 -1.91211 -0.675732 0
M  V30 157 C 14.8819 -0.883139 -1.72958 0
M  V30 158 O 14.1569 0.097016 -1.94258 0
M  V30 159 C 14.4399 -3.35379 -1.31123 0
M  V30 160 C 14.2929 -4.48999 -0.268356 0
M  V30 161 C 15.6119 -3.7912 -2.23508 0
M  V30 162 H 12.7309 -0.695374 -0.244179 0
M  V30 163 H 15.3729 -1.89901 0.0613655 0
M  V30 164 H 13.5229 -3.36626 -1.93946 0
M  V30 165 H 15.1949 -4.59887 0.360844 0
M  V30 166 H 13.4379 -4.31873 0.408482 0
M  V30 167 H 14.1089 -5.46851 -0.752218 0
M  V30 168 H 16.5849 -3.79477 -1.70693 0
M  V30 169 H 15.4609 -4.80729 -2.64936 0
M  V30 170 H 15.7219 -3.13455 -3.11766 0
M  V30 171 N 14.781 0.264519 -1.55364 0
M  V30 172 C 16.006 1.01726 -1.80739 0
M  V30 173 C 16.431 1.78836 -0.583044 0
M  V30 174 O 15.789 1.75167 0.467566 0
M  V30 175 C 15.837 1.94482 -3.03659 0
M  V30 176 O 14.941 3.03386 -2.7934 0
M  V30 177 H 14.282 0.290395 -0.597132 0
M  V30 178 H 16.812 0.290854 -2.02522 0
M  V30 179 H 16.822 2.36278 -3.32621 0
M  V30 180 H 15.497 1.37772 -3.92418 0
M  V30 181 H 14.074 2.65844 -2.61498 0
M  V30 182 N 16.2591 1.48442 0.529413 0
M  V30 183 C 17.5061 1.56488 1.28521 0
M  V30 184 C 17.8341 0.239042 1.93025 0
M  V30 185 O 17.0891 -0.770713 1.79885 0
M  V30 186 C 17.3881 2.6523 2.39558 0
M  V30 187 C 17.0541 4.07648 1.92702 0
M  V30 188 C 15.7161 4.46411 1.79641 0
M  V30 189 C 18.0681 4.96896 1.573 0
M  V30 190 C 15.3961 5.72226 1.29514 0
M  V30 191 C 17.7481 6.23202 1.08636 0
M  V30 192 C 16.4121 6.60821 0.941919 0
M  V30 193 H 15.6821 0.572631 0.470292 0
M  V30 194 H 18.3291 1.82161 0.59072 0
M  V30 195 H 16.6341 2.33419 3.14679 0
M  V30 196 H 18.3311 2.68671 2.97686 0
M  V30 197 H 14.9211 3.77036 2.03819 0
M  V30 198 H 19.1051 4.67626 1.66251 0
M  V30 199 H 14.3611 6.00097 1.17019 0
M  V30 200 H 18.5351 6.91753 0.803136 0
M  V30 201 H 16.1621 7.58198 0.5513 0
M  V30 202 N 17.7372 -0.778329 1.37039 0
M  V30 203 C 18.9772 -1.54973 1.33276 0
M  V30 204 C 19.3412 -1.91816 -0.0839376 0
M  V30 205 O 20.5422 -2.6767 -0.246228 0
M  V30 206 C 18.8132 -2.78517 2.23971 0
M  V30 207 S 20.3722 -3.6865 2.37997 0
M  V30 208 H 17.1902 -0.530639 0.473226 0
M  V30 209 H 19.7922 -0.915806 1.72723 0
M  V30 210 H 18.4962 -2.4952 3.25835 0
M  V30 211 H 18.0272 -3.46875 1.85584 0
M  V30 212 H 20.0422 -4.70182 1.58567 0
M  V30 213 N 19.2153 -1.21501 -1.00376 0
M  V30 214 C 20.4623 -1.03299 -1.74171 0
M  V30 215 C 20.7903 0.433326 -1.89612 0
M  V30 216 O 20.0453 1.33779 -1.42834 0
M  V30 217 C 20.3443 -1.67673 -3.15627 0
M  V30 218 C 20.0103 -3.17533 -3.2013 0
M  V30 219 C 18.6723 -3.58427 -3.21067 0
M  V30 220 C 21.0243 -4.13504 -3.17275 0
M  V30 221 C 18.3523 -4.93794 -3.16835 0
M  V30 222 C 20.7043 -5.48834 -3.14585 0
M  V30 223 C 19.3683 -5.89123 -3.13831 0
M  V30 224 H 18.6383 -0.377999 -0.637336 0
M  V30 225 H 21.2853 -1.51111 -1.17634 0
M  V30 226 H 19.5903 -1.12158 -3.75404 0
M  V30 227 H 21.2873 -1.51091 -3.71446 0
M  V30 228 H 17.8773 -2.84965 -3.20145 0
M  V30 229 H 22.0613 -3.82936 -3.15711 0
M  V30 230 H 17.3173 -5.24255 -3.1459 0
M  V30 231 H 21.4913 -6.22934 -3.1133 0
M  V30 232 H 19.1183 -6.93984 -3.10307 0
M  V30 233 N 20.6934 1.19889 -1.02296 0
M  V30 234 C 21.9424 1.88743 -0.711257 0
M  V30 235 C 22.2554 1.80112 0.762817 0
M  V30 236 O 23.4614 2.44161 1.18733 0
M  V30 237 C 21.9174 3.38525 -1.22185 0
M  V30 238 C 21.5254 3.55727 -2.72328 0
M  V30 239 C 23.2694 4.12893 -0.985864 0
M  V30 240 C 21.1764 4.99369 -3.16835 0
M  V30 241 H 20.1064 0.706885 -0.262353 0
M  V30 242 H 22.7574 1.35586 -1.23648 0
M  V30 243 H 21.1394 3.91044 -0.624571 0
M  V30 244 H 22.3134 3.13564 -3.3766 0
M  V30 245 H 20.6284 2.94739 -2.9414 0
M  V30 246 H 23.2254 5.18813 -1.29374 0
M  V30 247 H 23.5684 4.16228 0.0775055 0
M  V30 248 H 24.1014 3.66494 -1.54684 0
M  V30 249 H 20.8404 5.01193 -4.22476 0
M  V30 250 H 20.3604 5.42317 -2.56228 0
M  V30 251 H 22.0394 5.67988 -3.09837 0
M  V30 252 N 22.1715 0.800033 1.35784 0
M  V30 253 C 23.4185 0.377342 1.98953 0
M  V30 254 C 23.7465 -1.05378 1.6348 0
M  V30 255 O 23.0015 -1.74459 0.886707 0
M  V30 256 C 23.3005 0.500276 3.53881 0
M  V30 257 C 22.9665 1.89375 4.09204 0
M  V30 258 C 21.6285 2.27499 4.24025 0
M  V30 259 C 23.9805 2.8057 4.39238 0
M  V30 260 C 21.3085 3.562 4.66195 0
M  V30 261 C 23.6605 4.0871 4.82844 0
M  V30 262 C 22.3245 4.46843 4.95871 0
M  V30 263 H 21.5945 0.138079 0.728021 0
M  V30 264 H 24.2415 1.01955 1.62103 0
M  V30 265 H 22.5465 -0.225405 3.91151 0
M  V30 266 H 24.2435 0.154097 4.00704 0
M  V30 267 H 20.8335 1.58753 3.98115 0
M  V30 268 H 25.0175 2.52367 4.27346 0
M  V30 269 H 20.2735 3.85602 4.74469 0
M  V30 270 H 24.4475 4.79481 5.05046 0
M  V30 271 H 22.0745 5.46623 5.28306 0
M  V30 272 N 23.6496 -1.47581 0.552962 0
M  V30 273 C 24.5796 -2.32762 -0.185451 0
M  V30 274 C 25.5606 -1.43527 -0.912905 0
M  V30 275 O 26.7456 -1.72388 -0.894201 0
M  V30 276 C 23.8756 -3.25219 -1.21859 0
M  V30 277 C 22.8296 -4.23661 -0.607864 0
M  V30 278 C 22.1556 -5.05413 -1.74533 0
M  V30 279 C 23.4556 -5.20481 0.435582 0
M  V30 280 H 25.1496 -2.94749 0.525684 0
M  V30 281 H 22.6956 -1.41738 0.254251 0
M  V30 282 H 24.6486 -3.8365 -1.7433 0
M  V30 283 H 23.3726 -2.61279 -1.95961 0
M  V30 284 H 22.0316 -3.66451 -0.104489 0
M  V30 285 H 21.6796 -4.3788 -2.47529 0
M  V30 286 H 21.3796 -5.72059 -1.34249 0
M  V30 287 H 22.9036 -5.66701 -2.27338 0
M  V30 288 H 24.3176 -5.733 -0.00290157 0
M  V30 289 H 22.7146 -5.95305 0.757067 0
M  V30 290 H 23.7846 -4.66217 1.33303 0
M  V30 291 N 25.1277 -0.289203 -1.54924 0
M  V30 292 C 26.0577 0.58549 -2.2604 0
M  V30 293 C 27.0387 1.14753 -1.25562 0
M  V30 294 O 28.2237 1.17906 -1.54311 0
M  V30 295 C 25.3537 1.76305 -2.99222 0
M  V30 296 C 24.3077 1.33191 -4.06748 0
M  V30 297 C 23.6337 2.5937 -4.6758 0
M  V30 298 C 24.9337 0.471775 -5.20165 0
M  V30 299 H 26.6277 -0.00763532 -2.99399 0
M  V30 300 H 24.1737 -0.00511229 -1.43999 0
M  V30 301 H 26.1267 2.38097 -3.47689 0
M  V30 302 H 24.8507 2.38223 -2.23422 0
M  V30 303 H 23.5097 0.737121 -3.59113 0
M  V30 304 H 23.1577 3.19576 -3.88433 0
M  V30 305 H 22.8577 2.31228 -5.40192 0
M  V30 306 H 24.3817 3.21985 -5.18804 0
M  V30 307 H 25.7957 0.995056 -5.64599 0
M  V30 308 H 24.1927 0.284639 -5.99425 0
M  V30 309 H 25.2627 -0.506041 -4.82252 0
M  V30 310 N 26.6058 1.57591 -0.0167156 0
M  V30 311 C 27.5358 2.12496 0.967858 0
M  V30 312 C 28.5168 1.03807 1.34752 0
M  V30 313 O 29.7018 1.31577 1.42833 0
M  V30 314 C 26.8318 2.64194 2.25431 0
M  V30 315 C 25.7858 3.77559 2.01576 0
M  V30 316 C 25.1118 4.15636 3.36379 0
M  V30 317 C 26.4118 5.04151 1.36489 0
M  V30 318 H 28.1058 2.95013 0.510643 0
M  V30 319 H 25.6518 1.41915 0.244181 0
M  V30 320 H 27.6048 3.01236 2.94678 0
M  V30 321 H 26.3288 1.78821 2.73296 0
M  V30 322 H 24.9878 3.40937 1.34751 0
M  V30 323 H 24.6358 3.27263 3.81979 0
M  V30 324 H 24.3358 4.92022 3.21229 0
M  V30 325 H 25.8598 4.5525 4.06915 0
M  V30 326 H 27.2738 5.38857 1.95718 0
M  V30 327 H 25.6708 5.85453 1.31776 0
M  V30 328 H 26.7408 4.83733 0.336219 0
M  V30 329 N 28.0839 -0.256276 1.55502 0
M  V30 330 C 29.0139 -1.32102 1.92539 0
M  V30 331 C 29.9949 -1.50684 0.789194 0
M  V30 332 O 31.1799 -1.63449 1.04872 0
M  V30 333 C 28.3099 -2.67752 2.21192 0
M  V30 334 C 27.2639 -2.63878 3.36975 0
M  V30 335 C 26.5899 -4.03236 3.51147 0
M  V30 336 C 27.8899 -2.21682 4.72921 0
M  V30 337 H 29.5839 -1.01351 2.81724 0
M  V30 338 H 27.1299 -0.486105 1.35547 0
M  V30 339 H 29.0829 -3.42365 2.45691 0
M  V30 340 H 27.8069 -3.0012 1.28824 0
M  V30 341 H 26.4659 -1.91722 3.12471 0
M  V30 342 H 26.1139 -4.32854 2.56216 0
M  V30 343 H 25.8139 -4.01535 4.29003 0
M  V30 344 H 27.3379 -4.79563 3.77957 0
M  V30 345 H 28.7519 -2.86023 4.96854 0
M  V30 346 H 27.1489 -2.3111 5.53812 0
M  V30 347 H 28.2189 -1.16833 4.70615 0
M  V30 348 N 29.562 -1.4872 -0.521534 0
M  V30 349 C 30.809 -1.57168 -1.27689 0
M  V30 350 C 31.137 -0.249275 -1.92896 0
M  V30 351 O 30.392 0.761162 -1.80291 0
M  V30 352 C 30.691 -2.66497 -2.38148 0
M  V30 353 C 30.357 -4.08664 -1.90538 0
M  V30 354 C 29.019 -4.47357 -1.77271 0
M  V30 355 C 31.371 -4.97724 -1.54663 0
M  V30 356 C 28.699 -5.72905 -1.26478 0
M  V30 357 C 31.051 -6.2377 -1.05329 0
M  V30 358 C 29.715 -6.61311 -0.906861 0
M  V30 359 H 28.985 -0.575117 -0.467249 0
M  V30 360 H 31.632 -1.82472 -0.581051 0
M  V30 361 H 29.937 -2.35085 -3.13437 0
M  V30 362 H 31.634 -2.70246 -2.96257 0
M  V30 363 H 28.224 -3.78111 -2.01816 0
M  V30 364 H 32.408 -4.68501 -1.63768 0
M  V30 365 H 27.664 -6.00709 -1.13835 0
M  V30 366 H 31.838 -6.9217 -0.76644 0
M  V30 367 H 29.465 -7.5848 -0.511083 0
M  V30 368 N 31.0401 0.771051 -1.3745 0
M  V30 369 C 32.2871 1.52963 -1.32697 0
M  V30 370 C 32.6151 1.94299 0.0883274 0
M  V30 371 O 31.8701 1.64397 1.0617 0
M  V30 372 C 32.1691 2.80676 -2.2126 0
M  V30 373 C 31.8351 2.58389 -3.69521 0
M  V30 374 C 30.4971 2.52019 -4.09927 0
M  V30 375 C 32.8491 2.38469 -4.63446 0
M  V30 376 C 30.1771 2.23721 -5.42371 0
M  V30 377 C 32.5291 2.11694 -5.96128 0
M  V30 378 C 31.1931 2.03769 -6.35637 0
M  V30 379 H 30.4631 0.559732 -0.485573 0
M  V30 380 H 33.1101 0.888083 -1.69662 0
M  V30 381 H 31.4151 3.49392 -1.77291 0
M  V30 382 H 33.1121 3.38557 -2.14895 0
M  V30 383 H 29.7021 2.6421 -3.37478 0
M  V30 384 H 33.8861 2.4238 -4.33089 0
M  V30 385 H 29.1421 2.16081 -5.71943 0
M  V30 386 H 33.3161 1.9528 -6.6846 0
M  V30 387 H 30.9431 1.81606 -7.38189 0
M  V30 388 N 32.5182 1.22032 0.997298 0
M  V30 389 C 33.9342 0.979326 1.26021 0
M  V30 390 C 34.1342 -0.32972 1.98784 0
M  V30 391 O 33.1902 -1.05345 2.29475 0
M  V30 392 C 34.5032 2.17509 2.07631 0
M  V30 393 C 36.0512 2.21817 2.2083 0
M  V30 394 C 36.5262 3.40933 3.05825 0
M  V30 395 N 38.0172 3.41067 3.13412 0
M  V30 396 C 38.7522 4.29885 3.79455 0
M  V30 397 N 38.2482 5.28914 4.47462 0
M  V30 398 N 40.0412 4.17673 3.76173 0
M  V30 399 H 32.1922 2.06202 0.509352 0
M  V30 400 H 34.4552 0.90334 0.287541 0
M  V30 401 H 34.1612 3.12415 1.61524 0
M  V30 402 H 34.0352 2.17206 3.08385 0
M  V30 403 H 36.4222 1.27462 2.66153 0
M  V30 404 H 36.5032 2.2616 1.1952 0
M  V30 405 H 36.1472 4.35586 2.61203 0
M  V30 406 H 36.0772 3.33829 4.07266 0
M  V30 407 H 38.5682 2.69406 2.65007 0
M  V30 408 H 38.8812 5.92973 4.95583 0
M  V30 409 H 37.2262 5.32831 4.46224 0
M  V30 410 H 40.4172 3.39564 3.22202 0
M  V30 411 H 40.5902 4.87098 4.27363 0
M  V30 412 N 33.9963 -1.19345 1.0293 0
M  V30 413 C 35.2263 -1.92717 0.744563 0
M  V30 414 C 35.6343 -1.75751 -0.700579 0
M  V30 415 O 34.9773 -1.07703 -1.48815 0
M  V30 416 C 35.0393 -3.44828 1.01657 0
M  V30 417 C 34.7033 -3.85564 2.45335 0
M  V30 418 C 35.7003 -3.90286 3.43472 0
M  V30 419 C 33.3853 -4.1719 2.79746 0
M  V30 420 C 35.3793 -4.26065 4.74075 0
M  V30 421 C 33.0663 -4.52642 4.10559 0
M  V30 422 C 34.0643 -4.57054 5.07534 0
M  V30 423 O 33.7523 -4.91685 6.36004 0
M  V30 424 H 33.4843 -0.618977 0.271742 0
M  V30 425 H 36.0383 -1.52415 1.37691 0
M  V30 426 H 34.2683 -3.85314 0.327084 0
M  V30 427 H 35.9573 -3.99437 0.721427 0
M  V30 428 H 36.7233 -3.66002 3.18225 0
M  V30 429 H 32.6023 -4.1294 2.04943 0
M  V30 430 H 36.1463 -4.29423 5.49765 0
M  V30 431 H 32.0433 -4.76383 4.35579 0
M  V30 432 H 32.8113 -5.09631 6.40483 0
M  V30 433 N 35.4744 -0.807222 -1.35358 0
M  V30 434 C 36.7234 -0.384376 -1.98004 0
M  V30 435 C 37.0364 1.0543 -1.64754 0
M  V30 436 O 38.2424 1.58029 -2.20769 0
M  V30 437 C 36.6984 -0.636326 -3.5423 0
M  V30 438 C 36.3064 -2.08759 -3.96388 0
M  V30 439 C 38.0504 -0.278869 -4.23583 0
M  V30 440 C 35.9574 -2.28525 -5.45463 0
M  V30 441 H 34.8874 -0.139986 -0.740891 0
M  V30 442 H 37.5384 -0.991369 -1.54415 0
M  V30 443 H 35.9204 0.0406256 -3.95979 0
M  V30 444 H 37.0944 -2.8024 -3.6579 0
M  V30 445 H 35.4094 -2.40497 -3.39926 0
M  V30 446 H 38.0064 -0.404599 -5.33167 0
M  V30 447 H 38.3494 0.775012 -4.09022 0
M  V30 448 H 38.8824 -0.909764 -3.87257 0
M  V30 449 H 35.6214 -3.32361 -5.64992 0
M  V30 450 H 35.1414 -1.61569 -5.77629 0
M  V30 451 H 36.8204 -2.10109 -6.11934 0
M  V30 452 N 36.9525 1.47285 -0.560781 0
M  V30 453 C 37.8825 2.32857 0.173105 0
M  V30 454 C 38.8635 1.44009 0.905281 0
M  V30 455 O 40.0485 1.7286 0.885046 0
M  V30 456 C 37.1785 3.25861 1.20133 0
M  V30 457 C 36.1325 4.23978 0.585388 0
M  V30 458 C 35.4585 5.06332 1.7185 0
M  V30 459 C 36.7585 5.20242 -0.463178 0
M  V30 460 H 38.4525 2.94466 -0.541307 0
M  V30 461 H 35.9985 1.41601 -0.261764 0
M  V30 462 H 37.9515 3.84569 1.72293 0
M  V30 463 H 36.6755 2.62315 1.94573 0
M  V30 464 H 35.3345 3.66501 0.085054 0
M  V30 465 H 34.9825 4.39186 2.45203 0
M  V30 466 H 34.6825 5.72762 1.31213 0
M  V30 467 H 36.2065 5.67899 2.24329 0
M  V30 468 H 37.6205 5.73293 -0.027502 0
M  V30 469 H 36.0175 5.94896 -0.788627 0
M  V30 470 H 37.0875 4.65504 -1.35773 0
M  V30 471 N 38.4306 0.297415 1.54768 0
M  V30 472 C 39.3776 -0.580276 2.23386 0
M  V30 473 C 40.3476 -1.13238 1.21517 0
M  V30 474 O 41.5326 -1.17757 1.50126 0
M  V30 475 C 38.6726 -1.74801 2.97555 0
M  V30 476 C 37.7856 -1.22764 4.1419 0
M  V30 477 C 36.9206 -2.35895 4.75949 0
M  V30 478 C 35.9596 -1.80974 5.84735 0
M  V30 479 N 35.0966 -2.87664 6.40464 0
M  V30 480 H 39.9366 0.0114833 2.97998 0
M  V30 481 H 37.4736 0.0174361 1.4709 0
M  V30 482 H 39.4316 -2.43475 3.38786 0
M  V30 483 H 38.0616 -2.31145 2.25326 0
M  V30 484 H 37.1136 -0.433271 3.77924 0
M  V30 485 H 38.4256 -0.785551 4.92575 0
M  V30 486 H 37.5796 -3.12523 5.20014 0
M  V30 487 H 36.3186 -2.83429 3.96887 0
M  V30 488 H 35.3236 -1.02834 5.40097 0
M  V30 489 H 36.5486 -1.34348 6.65678 0
M  V30 490 H 34.4946 -3.34538 5.64287 0
M  V30 491 H 34.4116 -2.4794 7.14186 0
M  V30 492 H 35.6796 -3.642 6.89187 0
M  V30 493 N 39.9087 -1.5758 0.0250728 0
M  V30 494 C 41.3247 -1.56124 -0.331282 0
M  V30 495 C 41.5247 -1.03029 -1.73169 0
M  V30 496 O 40.5807 -0.675215 -2.43305 0
M  V30 497 C 41.8937 -3.00139 -0.183584 0
M  V30 498 C 43.4417 -3.11946 -0.256654 0
M  V30 499 C 43.9167 -4.57793 -0.137792 0
M  V30 500 N 45.4077 -4.6279 -0.194904 0
M  V30 501 C 46.1427 -5.7326 -0.126655 0
M  V30 502 N 45.6387 -6.928 -0.00755288 0
M  V30 503 N 47.4317 -5.61811 -0.180348 0
M  V30 504 H 39.5827 -1.90424 0.94087 0
M  V30 505 H 41.8457 -0.875761 0.362968 0
M  V30 506 H 41.5517 -3.4292 0.780927 0
M  V30 507 H 41.4257 -3.64899 -0.955448 0
M  V30 508 H 43.8127 -2.69079 -1.21162 0
M  V30 509 H 43.8937 -2.49915 0.545517 0
M  V30 510 H 43.5377 -5.01339 0.813739 0
M  V30 511 H 43.4677 -5.17798 -0.958775 0
M  V30 512 H 45.9587 -3.76807 -0.287267 0
M  V30 513 H 46.2717 -7.72791 0.0379428 0
M  V30 514 H 44.6167 -6.94995 0.0271731 0
M  V30 515 H 47.8077 -4.6731 -0.271767 0
M  V30 516 H 47.9807 -6.47882 -0.123697 0
M  V30 517 N 41.3868 0.248026 -1.55636 0
M  V30 518 C 42.6168 0.992367 -1.81206 0
M  V30 519 C 43.0248 1.7949 -0.598324 0
M  V30 520 O 42.3678 1.78292 0.442434 0
M  V30 521 C 42.4298 1.97926 -3.00109 0
M  V30 522 C 42.0938 1.36377 -4.36177 0
M  V30 523 C 43.0908 0.76682 -5.14214 0
M  V30 524 C 40.7758 1.38347 -4.82872 0
M  V30 525 C 42.7698 0.197778 -6.37093 0
M  V30 526 C 40.4568 0.810574 -6.057 0
M  V30 527 C 41.4548 0.218754 -6.8265 0
M  V30 528 O 41.1428 -0.345298 -8.03158 0
M  V30 529 H 40.8748 0.297704 -0.606917 0
M  V30 530 H 43.4288 0.276517 -2.0353 0
M  V30 531 H 41.6588 2.73339 -2.73538 0
M  V30 532 H 43.3478 2.58694 -3.12781 0
M  V30 533 H 44.1138 0.744114 -4.79258 0
M  V30 534 H 39.9928 1.8335 -4.2297 0
M  V30 535 H 43.5368 -0.264788 -6.97097 0
M  V30 536 H 39.4338 0.830604 -6.40134 0
M  V30 537 H 40.2018 -0.237055 -8.18157 0
M  V30 538 N 42.8649 1.48995 0.513639 0
M  V30 539 C 44.1119 1.57843 1.26854 0
M  V30 540 C 44.4399 0.259501 1.92761 0
M  V30 541 O 43.6949 -0.75159 1.80692 0
M  V30 542 C 43.9939 2.67756 2.36731 0
M  V30 543 C 43.6599 4.09669 1.88368 0
M  V30 544 C 42.3219 4.48291 1.74896 0
M  V30 545 C 44.6739 4.98537 1.52021 0
M  V30 546 C 42.0019 5.73568 1.23438 0
M  V30 547 C 44.3539 6.24319 1.0202 0
M  V30 548 C 43.0179 6.61783 0.871778 0
M  V30 549 H 42.2879 0.577587 0.464192 0
M  V30 550 H 44.9349 1.82778 0.571366 0
M  V30 551 H 43.2399 2.36743 3.12185 0
M  V30 552 H 44.9369 2.71813 2.9482 0
M  V30 553 H 41.5269 3.79176 1.99808 0
M  V30 554 H 45.7109 4.69363 1.61281 0
M  V30 555 H 40.9669 6.01304 1.10648 0
M  V30 556 H 45.1409 6.92566 0.729722 0
M  V30 557 H 42.7679 7.5874 0.470852 0
M  V30 558 N 44.343 -0.763751 1.37857 0
M  V30 559 C 45.291 -1.89864 1.34367 0
M  V30 560 C 46.285 -1.67816 0.231143 0
M  V30 561 O 47.491 -1.75508 0.399617 0
M  V30 562 H 43.866 -0.624501 0.41893 0
M  V30 563 H 45.837 -1.89925 2.30155 0
M  V30 564 C 44.586 -3.27227 1.1755 0
M  V30 565 H 43.909 -3.44773 2.02414 0
M  V30 566 H 45.349 -4.06911 1.1916 0
M  V30 567 C 43.808 -3.36692 -0.118311 0
M  V30 568 O 44.338 -3.86374 -1.09902 0
M  V30 569 N 42.544 -2.90092 -0.171717 0
M  V30 570 H 42.091 -2.49853 0.627012 0
M  V30 571 H 42.049 -2.96806 -1.03699 0
M  V30 572 N 45.8211 -1.22559 -0.990812 0
M  V30 573 C 47.0511 -1.07623 -1.76355 0
M  V30 574 C 47.4591 0.37601 -1.85426 0
M  V30 575 O 46.8021 1.27228 -1.32509 0
M  V30 576 C 46.8641 -1.61507 -3.21179 0
M  V30 577 C 46.5281 -3.10146 -3.35646 0
M  V30 578 C 47.5251 -4.07553 -3.22796 0
M  V30 579 C 45.2101 -3.49644 -3.60631 0
M  V30 580 C 47.2041 -5.42442 -3.34716 0
M  V30 581 C 44.8911 -4.84682 -3.72192 0
M  V30 582 C 45.8891 -5.8089 -3.59243 0
M  V30 583 O 45.5771 -7.13476 -3.70415 0
M  V30 584 H 45.3091 -0.377745 -0.560611 0
M  V30 585 H 47.8631 -1.62658 -1.25425 0
M  V30 586 H 46.0931 -1.00881 -3.73309 0
M  V30 587 H 47.7821 -1.42202 -3.80175 0
M  V30 588 H 48.5481 -3.78381 -3.03403 0
M  V30 589 H 44.4271 -2.75282 -3.69785 0
M  V30 590 H 47.9711 -6.17518 -3.24526 0
M  V30 591 H 43.8681 -5.13534 -3.91092 0
M  V30 592 H 44.6361 -7.21083 -3.87275 0
M  V30 593 N 47.2992 1.18797 -1.03562 0
M  V30 594 C 48.2322 2.2105 -0.56676 0
M  V30 595 C 49.2102 1.57704 0.395993 0
M  V30 596 O 50.3942 1.85908 0.311498 0
M  V30 597 C 47.5212 3.38259 0.172704 0
M  V30 598 C 46.5672 4.19987 -0.74252 0
M  V30 599 S 47.4002 4.87199 -2.22254 0
M  V30 600 C 48.5562 6.07813 -1.49379 0
M  V30 601 H 48.7892 2.60478 -1.43312 0
M  V30 602 H 46.3222 1.29151 -0.846133 0
M  V30 603 H 48.2802 4.06191 0.593191 0
M  V30 604 H 46.9412 2.97252 1.01488 0
M  V30 605 H 46.1342 5.03709 -0.171265 0
M  V30 606 H 45.7362 3.57408 -1.10163 0
M  V30 607 H 48.0282 6.72948 -0.784056 0
M  V30 608 H 48.9712 6.69435 -2.30786 0
M  V30 609 H 49.3792 5.55781 -0.988331 0
M  V30 610 N 48.7773 0.814389 1.34928 0
M  V30 611 C 49.7073 0.244827 2.32213 0
M  V30 612 C 50.6883 -0.634024 1.57842 0
M  V30 613 O 51.8733 -0.562676 1.8587 0
M  V30 614 C 49.0033 -0.601106 3.42058 0
M  V30 615 C 47.9573 0.179896 4.27622 0
M  V30 616 C 47.2833 -0.788237 5.28858 0
M  V30 617 C 48.5833 1.38329 5.03649 0
M  V30 618 H 50.2773 1.05763 2.80097 0
M  V30 619 H 47.8233 0.510029 1.34665 0
M  V30 620 H 49.7763 -1.00968 4.09125 0
M  V30 621 H 48.5003 -1.44688 2.92802 0
M  V30 622 H 47.1593 0.569739 3.62146 0
M  V30 623 H 46.8073 -1.62973 4.75866 0
M  V30 624 H 46.5073 -0.269942 5.8698 0
M  V30 625 H 48.0313 -1.19485 5.98795 0
M  V30 626 H 49.4453 1.04918 5.63618 0
M  V30 627 H 47.8423 1.83662 5.71304 0
M  V30 628 H 48.9123 2.16592 4.33839 0
M  V30 629 N 50.2554 -1.46986 0.568584 0
M  V30 630 C 51.2034 -2.31858 -0.185649 0
M  V30 631 C 52.1974 -1.43624 -0.898249 0
M  V30 632 O 53.4034 -1.60327 -0.818242 0
M  V30 633 H 49.7784 -0.747866 -0.0787399 0
M  V30 634 H 51.7494 -2.93303 0.549191 0
M  V30 635 C 50.4984 -3.26513 -1.19519 0
M  V30 636 H 49.8214 -3.94377 -0.656285 0
M  V30 637 H 51.2614 -3.88707 -1.6936 0
M  V30 638 C 49.7204 -2.50847 -2.24894 0
M  V30 639 O 50.2504 -2.26119 -3.32014 0
M  V30 640 N 48.4564 -2.11656 -1.99124 0
M  V30 641 H 48.0034 -2.31966 -1.12024 0
M  V30 642 H 47.9614 -1.61347 -2.69842 0
M  V30 643 N 51.7335 -0.305618 -1.54608 0
M  V30 644 C 52.9635 0.304333 -2.04346 0
M  V30 645 C 53.3715 1.47715 -1.18224 0
M  V30 646 O 52.7145 1.82591 -0.201577 0
M  V30 647 C 52.7765 0.819031 -3.50046 0
M  V30 648 C 52.4405 -0.22912 -4.56425 0
M  V30 649 C 53.4375 -1.05914 -5.08997 0
M  V30 650 C 51.1225 -0.372148 -5.0092 0
M  V30 651 C 53.1165 -2.01809 -6.04609 0
M  V30 652 C 50.8035 -1.33454 -5.9635 0
M  V30 653 C 51.8015 -2.15599 -6.48079 0
M  V30 654 O 51.4895 -3.10205 -7.41639 0
M  V30 655 H 51.2215 0.0693996 -0.672428 0
M  V30 656 H 53.7755 -0.444548 -2.00532 0
M  V30 657 H 52.0055 1.61852 -3.51199 0
M  V30 658 H 53.6945 1.34537 -3.82955 0
M  V30 659 H 54.4605 -0.959538 -4.75413 0
M  V30 660 H 50.3395 0.257304 -4.60281 0
M  V30 661 H 53.8835 -2.65966 -6.44909 0
M  V30 662 H 49.7805 -1.43485 -6.29351 0
M  V30 663 H 50.5485 -3.05237 -7.59455 0
M  V30 664 N 53.2116 1.57565 -0.0334293 0
M  V30 665 C 54.1586 2.10478 0.946981 0
M  V30 666 C 55.1286 1.00787 1.32027 0
M  V30 667 O 56.3136 1.28232 1.41284 0
M  V30 668 C 53.4536 2.63994 2.22263 0
M  V30 669 C 52.5666 3.87709 1.90541 0
M  V30 670 C 51.7016 4.29604 3.12433 0
M  V30 671 C 50.7406 5.46065 2.76549 0
M  V30 672 N 49.8776 5.83096 3.9108 0
M  V30 673 H 54.7176 2.93963 0.488846 0
M  V30 674 H 52.2546 1.45296 0.22969 0
M  V30 675 H 54.2126 2.93114 2.96884 0
M  V30 676 H 52.8426 1.83333 2.65685 0
M  V30 677 H 51.8946 3.65291 1.06144 0
M  V30 678 H 53.2066 4.72403 1.60116 0
M  V30 679 H 52.3606 4.60182 3.9537 0
M  V30 680 H 51.0996 3.43685 3.46023 0
M  V30 681 H 50.1046 5.15176 1.92026 0
M  V30 682 H 51.3296 6.33685 2.44171 0
M  V30 683 H 49.2756 5.00132 4.24504 0
M  V30 684 H 49.1926 6.6244 3.64293 0
M  V30 685 H 50.4606 6.18282 4.74708 0
M  V30 686 N 54.6897 -0.239769 1.55765 0
M  V30 687 C 55.9357 -0.968234 1.78194 0
M  V30 688 C 56.2687 -1.84701 0.599938 0
M  V30 689 O 55.5437 -1.9031 -0.401524 0
M  V30 690 C 55.8267 -1.8227 3.10564 0
M  V30 691 C 55.6797 -0.971633 4.3918 0
M  V30 692 C 56.9987 -2.80388 3.39221 0
M  V30 693 H 54.1177 -0.350572 0.648281 0
M  V30 694 H 56.7597 -0.238259 1.885 0
M  V30 695 H 54.9097 -2.44507 3.01908 0
M  V30 696 H 56.5817 -0.367408 4.59835 0
M  V30 697 H 54.8247 -0.276276 4.32919 0
M  V30 698 H 55.4957 -1.60346 5.28198 0
M  V30 699 H 57.9717 -2.28287 3.47885 0
M  V30 700 H 56.8477 -3.3729 4.33044 0
M  V30 701 H 57.1087 -3.57212 2.60484 0
M  V30 702 N 56.1678 -1.49265 -0.50573 0
M  V30 703 C 57.4138 -1.59723 -1.25937 0
M  V30 704 C 57.7688 -0.278236 -1.90378 0
M  V30 705 O 57.0618 0.72113 -1.77511 0
M  V30 706 C 57.2558 -2.69008 -2.35308 0
M  V30 707 C 57.0848 -4.11405 -1.81592 0
M  V30 708 C 55.8548 -4.78252 -1.63105 0
M  V30 709 C 58.0528 -4.96792 -1.33048 0
M  V30 710 N 56.0348 -6.0498 -1.04269 0
M  V30 711 C 57.4058 -6.13962 -0.863168 0
M  V30 712 C 59.4608 -4.82828 -1.21577 0
M  V30 713 C 58.1638 -7.18705 -0.292489 0
M  V30 714 C 60.1898 -5.87716 -0.65907 0
M  V30 715 C 59.5518 -7.0411 -0.201954 0
M  V30 716 H 55.6508 -0.638864 -0.450973 0
M  V30 717 H 58.2348 -1.86251 -0.567326 0
M  V30 718 H 56.4058 -2.4426 -3.01979 0
M  V30 719 H 58.1378 -2.69013 -3.02348 0
M  V30 720 H 54.8928 -4.34974 -1.87336 0
M  V30 721 H 55.3168 -6.72631 -0.767919 0
M  V30 722 H 59.9588 -3.93159 -1.55518 0
M  V30 723 H 57.6768 -8.08078 0.0591987 0
M  V30 724 H 61.2628 -5.7897 -0.573156 0
M  V30 725 H 60.1428 -7.83885 0.222101 0
M  V30 726 N 57.6459 0.756429 -1.3826 0
M  V30 727 C 58.8759 1.54341 -1.3734 0
M  V30 728 C 59.2839 1.89159 0.0393917 0
M  V30 729 O 58.6269 1.5307 1.01565 0
M  V30 730 C 58.6889 2.87238 -2.16182 0
M  V30 731 C 58.3529 2.74973 -3.65019 0
M  V30 732 C 59.3499 2.44962 -4.58574 0
M  V30 733 C 57.0349 2.92515 -4.08338 0
M  V30 734 C 59.0289 2.32642 -5.93428 0
M  V30 735 C 56.7159 2.79815 -5.43274 0
M  V30 736 C 57.7139 2.49921 -6.35632 0
M  V30 737 O 57.4019 2.37275 -7.68086 0
M  V30 738 H 57.1339 0.484281 -0.471643 0
M  V30 739 H 59.6879 0.944152 -1.82414 0
M  V30 740 H 57.9179 3.49342 -1.65822 0
M  V30 741 H 59.6069 3.48731 -2.07705 0
M  V30 742 H 60.3729 2.31081 -4.26412 0
M  V30 743 H 56.2519 3.14781 -3.368 0
M  V30 744 H 59.7959 2.0923 -6.65484 0
M  V30 745 H 55.6929 2.93269 -5.75034 0
M  V30 746 H 56.4609 2.52509 -7.78577 0
M  V30 747 N 59.124 1.23083 0.984299 0
M  V30 748 C 60.054 1.03292 2.09411 0
M  V30 749 C 61.035 -0.048923 1.7003 0
M  V30 750 O 62.22 0.114967 1.93859 0
M  V30 751 C 59.35 0.619155 3.41736 0
M  V30 752 C 58.304 1.64791 3.95004 0
M  V30 753 C 57.63 1.0897 5.23478 0
M  V30 754 C 58.93 3.03999 4.24714 0
M  V30 755 H 60.624 1.96119 2.26225 0
M  V30 756 H 58.17 0.944344 1.08711 0
M  V30 757 H 60.123 0.467777 4.18796 0
M  V30 758 H 58.847 -0.344786 3.24775 0
M  V30 759 H 57.506 1.78721 3.20085 0
M  V30 760 H 57.154 0.11686 5.02864 0
M  V30 761 H 56.854 1.77704 5.60085 0
M  V30 762 H 58.378 0.950093 6.03163 0
M  V30 763 H 59.792 2.93393 4.92538 0
M  V30 764 H 58.189 3.69936 4.72512 0
M  V30 765 H 59.259 3.53285 3.32142 0
M  V30 766 N 60.6021 -1.18246 1.0419 0
M  V30 767 C 61.8301 -1.92195 0.766072 0
M  V30 768 C 62.2451 -1.76247 -0.676933 0
M  V30 769 O 61.6021 -1.09293 -1.46155 0
M  V30 770 C 61.6531 -3.43568 1.12442 0
M  V30 771 O 61.3741 -3.59015 2.51078 0
M  V30 772 C 62.8751 -4.34613 0.873275 0
M  V30 773 H 60.0951 -0.610114 0.279288 0
M  V30 774 H 62.6391 -1.50007 1.38989 0
M  V30 775 H 60.7941 -3.8354 0.545542 0
M  V30 776 H 61.2081 -4.5273 2.64831 0
M  V30 777 H 62.6821 -5.39374 1.17385 0
M  V30 778 H 63.1591 -4.38781 -0.191909 0
M  V30 779 H 63.7651 -4.00341 1.43551 0
M  V30 780 N 62.0802 -0.821533 -1.34494 0
M  V30 781 C 63.0102 -0.257138 -2.3208 0
M  V30 782 C 63.9912 0.625645 -1.58176 0
M  V30 783 O 65.1762 0.552811 -1.86166 0
M  V30 784 C 62.3062 0.582958 -3.42372 0
M  V30 785 C 61.2602 -0.202571 -4.2752 0
M  V30 786 C 60.5862 0.760179 -5.29269 0
M  V30 787 C 61.8862 -1.40998 -5.02908 0
M  V30 788 H 63.5802 -1.07247 -2.79532 0
M  V30 789 H 61.1262 -0.517163 -1.34393 0
M  V30 790 H 63.0792 0.987972 -4.09655 0
M  V30 791 H 61.8032 1.43133 -2.93565 0
M  V30 792 H 60.4622 -0.588936 -3.61838 0
M  V30 793 H 60.1102 1.60447 -4.76724 0
M  V30 794 H 59.8102 0.238809 -5.87115 0
M  V30 795 H 61.3342 1.16308 -5.9942 0
M  V30 796 H 62.7482 -1.07905 -5.63054 0
M  V30 797 H 61.1452 -1.86689 -5.70322 0
M  V30 798 H 62.2152 -2.1889 -4.32684 0
M  V30 799 N 63.5583 1.46682 -0.576371 0
M  V30 800 C 64.4883 2.33028 0.148397 0
M  V30 801 C 65.4693 1.44961 0.889956 0
M  V30 802 O 66.6543 1.73789 0.866662 0
M  V30 803 C 63.7843 3.27117 1.1667 0
M  V30 804 C 62.7383 4.24575 0.540386 0
M  V30 805 C 62.0643 5.08126 1.6647 0
M  V30 806 C 63.3643 5.19722 -0.518331 0
M  V30 807 H 65.0583 2.93875 -0.572509 0
M  V30 808 H 62.6043 1.41315 -0.276768 0
M  V30 809 H 64.5573 3.86374 1.68204 0
M  V30 810 H 63.2813 2.64364 1.9178 0
M  V30 811 H 61.9403 3.66571 0.0461769 0
M  V30 812 H 61.5883 4.41762 2.40531 0
M  V30 813 H 61.2883 5.74122 1.25131 0
M  V30 814 H 62.8123 5.70246 2.18293 0
M  V30 815 H 64.2263 5.73232 -0.0883058 0
M  V30 816 H 62.6233 5.94026 -0.851679 0
M  V30 817 H 63.6933 4.64037 -1.40703 0
M  V30 818 N 65.0364 0.313813 1.54444 0
M  V30 819 C 65.9994 -0.54379 2.22656 0
M  V30 820 C 66.9994 -1.05124 1.21678 0
M  V30 821 O 68.1894 -0.945225 1.46325 0
M  V30 822 C 65.3214 -1.75427 2.92298 0
M  V30 823 H 66.5144 0.0523599 2.99854 0
M  V30 824 H 64.0674 0.0647834 1.56166 0
M  V30 825 H 64.8024 -2.38991 2.19211 0
M  V30 826 H 64.5874 -1.39791 3.66334 0
M  V30 827 H 66.0774 -2.36325 3.44297 0
M  V30 828 N 66.5145 -1.57545 0.0417849 0
M  V30 829 C 67.7625 -1.91937 -0.632829 0
M  V30 830 C 68.0835 -0.919978 -1.71934 0
M  V30 831 O 67.3535 0.0366064 -1.95866 0
M  V30 832 H 65.9335 -0.708493 -0.236742 0
M  V30 833 H 68.5955 -1.9468 0.0925745 0
M  V30 834 H 67.6915 -2.92912 -1.07746 0
M  V30 835 N 67.9926 0.231505 -1.5589 0
M  V30 836 C 68.9226 1.29022 -1.94617 0
M  V30 837 C 69.9036 1.4941 -0.813067 0
M  V30 838 O 71.0886 1.6176 -1.07459 0
M  V30 839 C 68.2186 2.64199 -2.25424 0
M  V30 840 C 67.1726 2.58484 -3.41131 0
M  V30 841 C 66.4986 3.97599 -3.57518 0
M  V30 842 C 67.7986 2.1413 -4.76388 0
M  V30 843 H 69.4926 0.968563 -2.83301 0
M  V30 844 H 67.0386 0.464479 -1.36303 0
M  V30 845 H 68.9916 3.38413 -2.51107 0
M  V30 846 H 67.7156 2.98032 -1.33583 0
M  V30 847 H 66.3746 1.86727 -3.15481 0
M  V30 848 H 66.0226 4.28723 -2.6307 0
M  V30 849 H 65.7226 3.94659 -4.35337 0
M  V30 850 H 67.2466 4.7349 -3.85538 0
M  V30 851 H 68.6606 2.78083 -5.01341 0
M  V30 852 H 67.0576 2.2227 -5.57419 0
M  V30 853 H 68.1276 1.09331 -4.72414 0
M  V30 854 N 69.4707 1.49531 0.497807 0
M  V30 855 C 70.7197 1.58426 1.24837 0
M  V30 856 C 71.0327 0.277643 1.93619 0
M  V30 857 O 72.2387 0.24517 2.70391 0
M  V30 858 C 70.6947 2.79538 2.26686 0
M  V30 859 C 70.3027 4.16971 1.63828 0
M  V30 860 C 72.0467 2.97764 3.0255 0
M  V30 861 C 69.9537 5.29301 2.63807 0
M  V30 862 H 68.8837 0.58989 0.469623 0
M  V30 863 H 71.5347 1.75923 0.521857 0
M  V30 864 H 69.9167 2.55542 3.02514 0
M  V30 865 H 71.0907 4.51116 0.939711 0
M  V30 866 H 69.4057 4.04129 1.00342 0
M  V30 867 H 72.0027 3.78856 3.77323 0
M  V30 868 H 72.3457 2.08448 3.60354 0
M  V30 869 H 72.8787 3.21815 2.33838 0
M  V30 870 H 69.6177 6.20687 2.10779 0
M  V30 871 H 69.1377 4.99606 3.31894 0
M  V30 872 H 70.8167 5.58768 3.2617 0
M  V30 873 N 70.9488 -0.749086 1.3866 0
M  V30 874 C 72.3598 -1.32664 1.31366 0
M  V30 875 C 72.7108 -1.96179 -0.028484 0
M  V30 876 O 71.8358 -1.9537 -0.93057 0
M  V30 877 C 72.4308 -2.41219 2.37905 0
M  V30 878 C 70.9898 -2.94684 2.34176 0
M  V30 879 C 70.1368 -1.68108 2.20533 0
M  V30 880 H 73.0878 -0.547628 1.48952 0
M  V30 881 H 73.1088 -3.21268 2.0388 0
M  V30 882 H 72.6208 -1.94962 3.35576 0
M  V30 883 H 70.7218 -3.45258 1.401 0
M  V30 884 H 70.8348 -3.48757 3.2849 0
M  V30 885 H 69.1988 -1.91907 1.67463 0
M  V30 886 H 69.9818 -1.23923 3.20153 0
M  V30 887 N 72.4269 -1.23603 -0.977757 0
M  V30 888 C 73.6739 -1.06971 -1.71941 0
M  V30 889 C 74.0019 0.393009 -1.90488 0
M  V30 890 O 73.2569 1.30719 -1.4564 0
M  V30 891 C 73.5559 -1.7433 -3.11999 0
M  V30 892 C 73.2219 -3.24252 -3.13323 0
M  V30 893 C 71.8839 -3.65156 -3.13392 0
M  V30 894 C 74.2359 -4.20141 -3.08433 0
M  V30 895 C 71.5639 -5.00403 -3.0629 0
M  V30 896 C 73.9159 -5.55384 -3.02873 0
M  V30 897 C 72.5799 -5.95647 -3.01265 0
M  V30 898 H 71.8499 -0.391433 -0.629175 0
M  V30 899 H 74.4969 -1.53572 -1.14403 0
M  V30 900 H 72.8019 -1.20096 -3.7294 0
M  V30 901 H 74.4989 -1.58936 -3.68158 0
M  V30 902 H 71.0889 -2.91692 -3.14029 0
M  V30 903 H 75.2729 -3.89547 -3.07517 0
M  V30 904 H 70.5289 -5.3081 -3.03399 0
M  V30 905 H 74.7029 -6.29398 -2.98046 0
M  V30 906 H 72.3299 -7.0041 -2.95516 0
M  V30 907 N 73.905 1.17692 -1.04816 0
M  V30 908 C 75.154 1.87192 -0.751132 0
M  V30 909 C 75.467 1.8169 0.724441 0
M  V30 910 O 76.673 2.46625 1.13527 0
M  V30 911 C 75.129 3.35857 -1.29338 0
M  V30 912 C 74.737 3.4987 -2.79812 0
M  V30 913 C 76.481 4.10709 -1.07322 0
M  V30 914 C 74.388 4.92536 -3.27356 0
M  V30 915 H 73.318 0.701162 -0.277288 0
M  V30 916 H 75.969 1.32932 -1.26496 0
M  V30 917 H 74.351 3.89631 -0.707376 0
M  V30 918 H 75.525 3.06332 -3.44235 0
M  V30 919 H 73.84 2.88433 -3.00325 0
M  V30 920 H 76.437 5.15952 -1.4035 0
M  V30 921 H 76.78 4.16299 -0.0108001 0
M  V30 922 H 77.313 3.6313 -1.62423 0
M  V30 923 H 74.052 4.92119 -4.33012 0
M  V30 924 H 73.572 5.3676 -2.67673 0
M  V30 925 H 75.251 5.61288 -3.21815 0
M  V30 926 N 75.3831 0.828654 1.34056 0
M  V30 927 C 76.7941 0.477534 1.8049 0
M  V30 928 C 77.1451 -1.00258 1.6865 0
M  V30 929 O 76.2701 -1.78057 1.22982 0
M  V30 930 C 76.8651 0.860018 3.27703 0
M  V30 931 C 75.4241 0.561185 3.72193 0
M  V30 932 C 74.5711 1.07385 2.55663 0
M  V30 933 H 77.5221 1.0183 1.21722 0
M  V30 934 H 77.5431 0.166038 3.80138 0
M  V30 935 H 77.0551 1.93731 3.36288 0
M  V30 936 H 75.1561 -0.506465 3.69142 0
M  V30 937 H 75.2691 1.10926 4.66082 0
M  V30 938 H 73.6331 0.495149 2.49841 0
M  V30 939 H 74.4161 2.15771 2.67016 0
M  V30 940 N 76.8612 -1.46375 0.584142 0
M  V30 941 C 78.1102 -2.01585 0.0679741 0
M  V30 942 C 78.4232 -1.46109 -1.30045 0
M  V30 943 O 79.6292 -1.93148 -1.90804 0
M  V30 944 C 78.0852 -3.5983 0.0709207 0
M  V30 945 C 77.6932 -4.24303 1.43775 0
M  V30 946 C 79.4372 -4.22693 -0.391228 0
M  V30 947 C 77.3442 -5.74631 1.39834 0
M  V30 948 H 76.2742 -0.753689 0.0216421 0
M  V30 949 H 78.9252 -1.68093 0.736001 0
M  V30 950 H 77.3072 -3.90405 -0.663299 0
M  V30 951 H 78.4812 -4.05335 2.19181 0
M  V30 952 H 76.7962 -3.73539 1.84004 0
M  V30 953 H 79.3932 -5.3289 -0.439524 0
M  V30 954 H 79.7362 -3.91728 -1.40906 0
M  V30 955 H 80.2692 -3.96749 0.288974 0
M  V30 956 H 77.0082 -6.10258 2.39303 0
M  V30 957 H 76.5282 -5.95858 0.686505 0
M  V30 958 H 78.2072 -6.37375 1.11187 0
M  V30 959 N 78.3393 -0.321999 -1.54275 0
M  V30 960 C 79.2863 0.544664 -2.24281 0
M  V30 961 C 80.2563 1.1129 -1.23303 0
M  V30 962 O 81.4413 1.15354 -1.51981 0
M  V30 963 C 78.5813 1.70045 -3.00298 0
M  V30 964 C 77.6943 1.16159 -4.1609 0
M  V30 965 C 76.8293 2.28293 -4.79641 0
M  V30 966 C 75.8683 1.71648 -5.8754 0
M  V30 967 N 75.0053 2.77438 -6.44959 0
M  V30 968 H 79.8453 -0.0588907 -2.97942 0
M  V30 969 H 77.3823 -0.0408345 -1.47043 0
M  V30 970 H 79.3403 2.38054 -3.42616 0
M  V30 971 H 77.9703 2.27531 -2.28975 0
M  V30 972 H 77.0223 0.373092 -3.78566 0
M  V30 973 H 78.3343 0.707087 -4.93763 0
M  V30 974 H 77.4883 3.0421 -5.2492 0
M  V30 975 H 76.2273 2.77079 -4.01346 0
M  V30 976 H 75.2323 0.942282 -5.41665 0
M  V30 977 H 76.4573 1.23741 -6.67731 0
M  V30 978 H 74.4033 3.25519 -5.69538 0
M  V30 979 H 74.3203 2.36547 -7.1804 0
M  V30 980 H 75.5883 3.53189 -6.94894 0
M  V30 981 N 79.8174 1.5752 -0.0501392 0
M  V30 982 C 81.0644 1.9265 0.623874 0
M  V30 983 C 81.3924 0.928411 1.70912 0
M  V30 984 O 80.6474 -0.0594525 1.9561 0
M  V30 985 C 80.9464 3.34467 1.25963 0
M  V30 986 C 80.6124 4.49883 0.302689 0
M  V30 987 C 79.2744 4.81184 0.0393636 0
M  V30 988 C 81.6264 5.20002 -0.353205 0
M  V30 989 C 78.9544 5.79951 -0.887308 0
M  V30 990 C 81.3064 6.1976 -1.26806 0
M  V30 991 C 79.9704 6.49491 -1.54007 0
M  V30 992 H 79.2404 0.704957 0.228292 0
M  V30 993 H 81.8874 1.91146 -0.116398 0
M  V30 994 H 80.1924 3.32333 2.07514 0
M  V30 995 H 81.8894 3.58928 1.78806 0
M  V30 996 H 78.4794 4.25457 0.518109 0
M  V30 997 H 82.6634 4.96033 -0.162854 0
M  V30 998 H 77.9194 6.01322 -1.10553 0
M  V30 999 H 82.0934 6.73205 -1.78236 0
M  V30 1000 H 79.7204 7.25837 -2.25976 0
M  V30 1001 N 81.2955 -0.223234 1.56011 0
M  V30 1002 C 82.5205 -0.968978 1.83373 0
M  V30 1003 C 82.9455 -1.77227 0.630254 0
M  V30 1004 O 82.3035 -1.76345 -0.420959 0
M  V30 1005 C 82.3515 -1.86363 3.08709 0
M  V30 1006 O 81.4555 -2.95873 2.87285 0
M  V30 1007 H 80.7965 -0.274461 0.604622 0
M  V30 1008 H 83.3265 -0.237056 2.03222 0
M  V30 1009 H 83.3365 -2.27376 3.38768 0
M  V30 1010 H 82.0115 -1.27319 3.95933 0
M  V30 1011 H 80.5885 -2.58818 2.68454 0
M  V30 1012 N 82.7736 -1.49793 -0.48987 0
M  V30 1013 C 83.7036 -1.70201 -1.59856 0
M  V30 1014 C 84.6846 -0.55076 -1.60937 0
M  V30 1015 O 85.8696 -0.787841 -1.77501 0
M  V30 1016 C 82.9996 -1.77882 -2.98287 0
M  V30 1017 C 81.9536 -2.92907 -3.12073 0
M  V30 1018 C 81.2796 -2.85712 -4.51965 0
M  V30 1019 C 82.5796 -4.3369 -2.91051 0
M  V30 1020 H 84.2736 -2.63025 -1.43032 0
M  V30 1021 H 81.8196 -1.26574 -0.686664 0
M  V30 1022 H 83.7726 -1.90744 -3.75759 0
M  V30 1023 H 82.4966 -0.816653 -3.16225 0
M  V30 1024 H 81.1556 -2.79665 -2.37029 0
M  V30 1025 H 80.8036 -1.8738 -4.66795 0
M  V30 1026 H 80.5036 -3.62921 -4.62128 0
M  V30 1027 H 82.0276 -3.00598 -5.31482 0
M  V30 1028 H 83.4416 -4.47555 -3.58284 0
M  V30 1029 H 81.8386 -5.12205 -3.12675 0
M  V30 1030 H 82.9086 -4.47362 -1.87071 0
M  V30 1031 N 84.2517 0.741722 -1.39055 0
M  V30 1032 C 85.4987 1.50114 -1.35912 0
M  V30 1033 C 85.8267 1.94443 0.0470937 0
M  V30 1034 O 85.0817 1.66612 1.02659 0
M  V30 1035 C 85.3807 2.7592 -2.27163 0
M  V30 1036 C 85.0467 2.50493 -3.74919 0
M  V30 1037 C 83.7087 2.43267 -4.1518 0
M  V30 1038 C 86.0607 2.28585 -4.684 0
M  V30 1039 C 83.3887 2.12166 -5.46994 0
M  V30 1040 C 85.7407 1.99002 -6.00484 0
M  V30 1041 C 84.4047 1.90241 -6.39816 0
M  V30 1042 H 83.6747 0.549306 -0.497336 0
M  V30 1043 H 86.3217 0.851896 -1.71508 0
M  V30 1044 H 84.6267 3.45553 -1.84663 0
M  V30 1045 H 86.3237 3.33923 -2.22028 0
M  V30 1046 H 82.9137 2.56992 -3.43006 0
M  V30 1047 H 87.0977 2.33139 -4.38132 0
M  V30 1048 H 82.3537 2.03901 -5.76398 0
M  V30 1049 H 86.5277 1.81057 -6.72452 0
M  V30 1050 H 84.1547 1.65907 -7.41875 0
M  V30 1051 N 85.7298 1.2412 0.971189 0
M  V30 1052 C 86.6768 1.0305 2.06517 0
M  V30 1053 C 87.6468 -0.0550666 1.66009 0
M  V30 1054 O 88.8318 0.0988688 1.90544 0
M  V30 1055 C 85.9718 0.637653 3.39158 0
M  V30 1056 C 85.0848 1.79633 3.92882 0
M  V30 1057 C 84.2198 1.34939 5.13775 0
M  V30 1058 C 83.2588 2.47823 5.59687 0
M  V30 1059 N 82.3958 2.04022 6.71803 0
M  V30 1060 H 87.2358 1.96685 2.23873 0
M  V30 1061 H 84.7728 0.979694 1.09729 0
M  V30 1062 H 86.7308 0.390931 4.15364 0
M  V30 1063 H 85.3608 -0.261693 3.21737 0
M  V30 1064 H 84.4128 2.15681 3.13346 0
M  V30 1065 H 85.7248 2.64466 4.22918 0
M  V30 1066 H 84.8788 1.06134 5.97345 0
M  V30 1067 H 83.6178 0.471557 4.85415 0
M  V30 1068 H 82.6228 2.77392 4.74693 0
M  V30 1069 H 83.8478 3.36158 5.90063 0
M  V30 1070 H 81.7938 1.18632 6.45184 0
M  V30 1071 H 81.7108 2.82409 7.01271 0
M  V30 1072 H 82.9788 1.78347 7.58823 0
M  V30 1073 N 87.2079 -1.17134 1.05439 0
M  V30 1074 C 88.4549 -1.87456 0.765942 0
M  V30 1075 C 88.7829 -1.81189 -0.707153 0
M  V30 1076 O 88.0379 -1.21633 -1.5331 0
M  V30 1077 C 88.3369 -3.36833 1.19491 0
M  V30 1078 C 88.0029 -3.63301 2.67063 0
M  V30 1079 C 86.6649 -3.70234 3.07376 0
M  V30 1080 C 89.0169 -3.74575 3.62413 0
M  V30 1081 C 86.3449 -3.85933 4.41896 0
M  V30 1082 C 88.6969 -3.91793 4.9667 0
M  V30 1083 C 87.3609 -3.96966 5.36633 0
M  V30 1084 H 86.6309 -0.685948 0.280278 0
M  V30 1085 H 89.2779 -1.38556 1.32192 0
M  V30 1086 H 87.5829 -3.87807 0.557969 0
M  V30 1087 H 89.2799 -3.89611 0.948893 0
M  V30 1088 H 85.8699 -3.58532 2.34846 0
M  V30 1089 H 90.0539 -3.68537 3.32406 0
M  V30 1090 H 85.3099 -3.88187 4.72357 0
M  V30 1091 H 89.4839 -3.99458 5.70444 0
M  V30 1092 H 87.1109 -4.08883 6.40874 0
M  V30 1093 N 88.686 -0.835752 -1.33615 0
M  V30 1094 C 89.634 -0.255238 -2.31195 0
M  V30 1095 C 90.628 0.61107 -1.57995 0
M  V30 1096 O 91.834 0.500979 -1.72888 0
M  V30 1097 H 88.209 -0.0638085 -0.749288 0
M  V30 1098 H 90.18 -1.09283 -2.77669 0
M  V30 1099 C 88.929 0.55754 -3.43201 0
M  V30 1100 H 88.252 -0.0997553 -3.99676 0
M  V30 1101 H 89.692 0.929622 -4.13683 0
M  V30 1102 C 88.151 1.73515 -2.88781 0
M  V30 1103 O 88.681 2.83376 -2.84712 0
M  V30 1104 N 86.887 1.55603 -2.4543 0
M  V30 1105 H 86.434 0.662354 -2.48939 0
M  V30 1106 H 86.392 2.34545 -2.09371 0
M  V30 1107 N 90.1641 1.46063 -0.591896 0
M  V30 1108 C 91.1121 2.32124 0.148739 0
M  V30 1109 C 92.1061 1.45035 0.875286 0
M  V30 1110 O 93.3121 1.61609 0.792632 0
M  V30 1111 H 89.6871 0.749024 0.066832 0
M  V30 1112 H 91.6581 2.92392 -0.595783 0
M  V30 1113 C 90.4071 3.28373 1.1431 0
M  V30 1114 H 89.7301 3.95371 0.59346 0
M  V30 1115 H 91.1701 3.91352 1.63155 0
M  V30 1116 C 89.6291 2.54393 2.20875 0
M  V30 1117 O 90.1591 2.31373 3.28374 0
M  V30 1118 N 88.3651 2.14797 1.95731 0
M  V30 1119 H 87.9121 2.33719 1.08319 0
M  V30 1120 H 87.8701 1.65619 2.67241 0
M  V30 1121 N 91.6422 0.330177 1.54103 0
M  V30 1122 C 92.8882 -0.270806 2.00984 0
M  V30 1123 C 93.2212 -1.51265 1.21789 0
M  V30 1124 O 92.4962 -1.92142 0.301927 0
M  V30 1125 C 92.7792 -0.598339 3.55094 0
M  V30 1126 C 92.6322 0.654674 4.4501 0
M  V30 1127 C 93.9512 -1.41334 4.16789 0
M  V30 1128 H 91.0702 -0.0969531 0.730595 0
M  V30 1129 H 93.7122 0.448066 1.84641 0
M  V30 1130 H 91.8622 -1.21078 3.69151 0
M  V30 1131 H 93.5342 1.29285 4.42813 0
M  V30 1132 H 91.7772 1.28224 4.14416 0
M  V30 1133 H 92.4482 0.380944 5.50684 0
M  V30 1134 H 94.9242 -0.895597 4.06347 0
M  V30 1135 H 93.8002 -1.61127 5.24718 0
M  V30 1136 H 94.0612 -2.41146 3.70541 0
M  V30 1137 N 93.1203 -1.57491 0.0584922 0
M  V30 1138 C 94.0683 -2.13148 -0.931168 0
M  V30 1139 C 95.0623 -1.06507 -1.31729 0
M  V30 1140 O 96.2683 -1.24906 -1.29609 0
M  V30 1141 H 92.6433 -0.68137 -0.31818 0
M  V30 1142 H 94.6143 -2.95187 -0.436707 0
M  V30 1143 C 93.3633 -2.69732 -2.19408 0
M  V30 1144 H 92.6863 -3.51454 -1.90578 0
M  V30 1145 H 94.1263 -3.12287 -2.86798 0
M  V30 1146 C 92.5853 -1.63855 -2.94369 0
M  V30 1147 O 93.1153 -1.05565 -3.87581 0
M  V30 1148 N 91.3213 -1.35202 -2.57233 0
M  V30 1149 H 90.8683 -1.82791 -1.81508 0
M  V30 1150 H 90.8263 -0.645922 -3.07693 0
M  V30 1151 N 94.5984 0.214957 -1.56127 0
M  V30 1152 C 95.5464 1.28601 -1.93816 0
M  V30 1153 C 96.5404 1.48175 -0.821016 0
M  V30 1154 O 97.7464 1.49271 -1.0059 0
M  V30 1155 H 94.1214 0.431302 -0.616022 0
M  V30 1156 H 96.0924 0.940991 -2.83175 0
M  V30 1157 C 94.8414 2.62779 -2.27689 0
M  V30 1158 H 94.1644 2.48527 -3.13168 0
M  V30 1159 H 95.6044 3.36517 -2.57939 0
M  V30 1160 C 94.0634 3.18285 -1.10436 0
M  V30 1161 O 94.5934 4.00002 -0.368945 0
M  V30 1162 N 92.7994 2.7675 -0.886433 0
M  V30 1163 H 92.3464 2.10404 -1.48619 0
M  V30 1164 H 92.3044 3.14229 -0.103656 0
M  V30 1165 N 96.0765 1.50051 0.48192 0
M  V30 1166 C 97.0085 1.64263 1.59844 0
M  V30 1167 C 98.0215 0.52451 1.54119 0
M  V30 1168 O 99.2105 0.797293 1.59704 0
M  V30 1169 C 96.3105 1.60102 2.98698 0
M  V30 1170 C 95.4835 2.87767 3.29407 0
M  V30 1171 C 94.5425 2.76397 4.47762 0
M  V30 1172 O 93.5685 3.50348 4.48603 0
M  V30 1173 N 94.7705 1.89222 5.48794 0
M  V30 1174 H 97.5355 2.60566 1.48073 0
M  V30 1175 H 95.0965 1.47379 0.670149 0
M  V30 1176 H 97.0885 1.50123 3.75826 0
M  V30 1177 H 95.6585 0.715798 3.04294 0
M  V30 1178 H 94.8785 3.11954 2.40994 0
M  V30 1179 H 96.1665 3.72365 3.4673 0
M  V30 1180 H 95.5645 1.28434 5.50928 0
M  V30 1181 H 94.1215 1.85154 6.24949 0
M  V30 1182 N 97.5546 -0.734337 1.39446 0
M  V30 1183 C 98.5176 -1.83004 1.37994 0
M  V30 1184 C 99.5176 -1.58397 0.276938 0
M  V30 1185 O 100.708 -1.65785 0.534875 0
M  V30 1186 C 97.8396 -3.20802 1.1532 0
M  V30 1187 H 99.0326 -1.85694 2.35494 0
M  V30 1188 H 96.5856 -0.938059 1.25021 0
M  V30 1189 H 97.3206 -3.23772 0.185036 0
M  V30 1190 H 97.1056 -3.4006 1.95197 0
M  V30 1191 H 98.5956 -4.00862 1.17046 0
M  V30 1192 N 99.0327 -1.24633 -0.964593 0
M  V30 1193 C 100.444 -1.08045 -1.5226 0
M  V30 1194 C 100.795 0.347116 -1.93105 0
M  V30 1195 O 99.9197 1.23588 -1.77637 0
M  V30 1196 C 100.515 -1.95514 -2.76695 0
M  V30 1197 C 99.0737 -1.8314 -3.28841 0
M  V30 1198 C 98.2207 -1.90262 -2.01732 0
M  V30 1199 H 101.172 -1.38064 -0.782553 0
M  V30 1200 H 101.193 -1.48925 -3.50145 0
M  V30 1201 H 100.705 -2.99407 -2.46936 0
M  V30 1202 H 98.8057 -0.82092 -3.63444 0
M  V30 1203 H 98.9187 -2.67406 -3.97531 0
M  V30 1204 H 97.2827 -1.34027 -2.16584 0
M  V30 1205 H 98.0657 -2.9574 -1.74334 0
M  V30 1206 N 100.511 1.16574 -1.06058 0
M  V30 1207 C 101.739 1.90952 -0.796552 0
M  V30 1208 C 102.154 1.77302 0.648808 0
M  V30 1209 O 101.511 1.11605 1.44397 0
M  V30 1210 C 101.562 3.41736 -1.17894 0
M  V30 1211 O 101.283 3.54975 -2.56758 0
M  V30 1212 C 102.784 4.33169 -0.942308 0
M  V30 1213 H 100.004 0.605594 -0.288959 0
M  V30 1214 H 102.548 1.47777 -1.41358 0
M  V30 1215 H 100.703 3.82623 -0.606491 0
M  V30 1216 H 101.117 4.4846 -2.72 0
M  V30 1217 H 102.591 5.37439 -1.25952 0
M  V30 1218 H 103.068 4.3903 0.122078 0
M  V30 1219 H 103.674 3.98007 -1.49902 0
M  V30 1220 N 101.989 0.842826 1.3317 0
M  V30 1221 C 103.235 0.441099 1.97945 0
M  V30 1222 C 103.568 -0.998024 1.66593 0
M  V30 1223 O 102.843 -1.69839 0.947898 0
M  V30 1224 C 103.126 0.666841 3.53872 0
M  V30 1225 C 102.979 2.15352 3.94897 0
M  V30 1226 C 104.298 0.115544 4.39948 0
M  V30 1227 H 101.417 0.161739 0.719034 0
M  V30 1228 H 104.059 1.05907 1.57746 0
M  V30 1229 H 102.209 0.140828 3.88245 0
M  V30 1230 H 103.881 2.7447 3.70761 0
M  V30 1231 H 102.124 2.63653 3.44484 0
M  V30 1232 H 102.795 2.26221 5.03516 0
M  V30 1233 H 105.271 0.565213 4.12243 0
M  V30 1234 H 104.147 0.303152 5.48062 0
M  V30 1235 H 104.408 -0.980935 4.3108 0
M  V30 1236 N 103.467 -1.45747 0.599634 0
M  V30 1237 C 104.377 -2.34262 -0.125888 0
M  V30 1238 C 105.393 -1.50768 -0.868625 0
M  V30 1239 O 106.569 -1.83592 -0.828003 0
M  V30 1240 C 103.634 -3.28252 -1.11587 0
M  V30 1241 C 102.695 -4.27651 -0.375956 0
M  V30 1242 C 101.928 -5.1715 -1.31877 0
M  V30 1243 O 102.151 -5.09916 -2.55621 0
M  V30 1244 O 101.085 -5.96286 -0.820157 0
M  V30 1245 H 104.911 -2.97688 0.601315 0
M  V30 1246 H 102.496 -1.44999 0.359934 0
M  V30 1247 H 104.378 -3.86191 -1.68626 0
M  V30 1248 H 103.053 -2.67401 -1.82424 0
M  V30 1249 H 101.96 -3.7335 0.236698 0
M  V30 1250 H 103.293 -4.91334 0.29177 0
M  V30 1251 N 104.945 -0.338344 -1.53925 0
M  V30 1252 C 106.17 0.263987 -2.05713 0
M  V30 1253 C 106.595 1.43847 -1.21201 0
M  V30 1254 O 105.953 1.79904 -0.224535 0
M  V30 1255 C 106.001 0.662 -3.54471 0
M  V30 1256 O 105.105 1.76265 -3.72833 0
M  V30 1257 H 104.446 0.0448722 -0.662482 0
M  V30 1258 H 106.976 -0.491048 -1.9862 0
M  V30 1259 H 106.986 0.940594 -3.9701 0
M  V30 1260 H 105.661 -0.196937 -4.15433 0
M  V30 1261 H 104.238 1.48173 -3.42198 0
M  V30 1262 N 106.423 1.57458 -0.0668435 0
M  V30 1263 C 107.37 2.12439 0.902122 0
M  V30 1264 C 108.34 1.03565 1.2986 0
M  V30 1265 O 109.525 1.312 1.38532 0
M  V30 1266 C 106.665 2.6865 2.16614 0
M  V30 1267 C 105.778 3.91663 1.82274 0
M  V30 1268 C 104.913 4.36134 3.0325 0
M  V30 1269 C 103.952 5.51808 2.64904 0
M  V30 1270 N 103.089 5.9126 3.78624 0
M  V30 1271 H 107.929 2.94934 0.426382 0
M  V30 1272 H 105.466 1.4575 0.198819 0
M  V30 1273 H 107.424 2.99346 2.90599 0
M  V30 1274 H 106.054 1.88928 2.61737 0
M  V30 1275 H 105.106 3.6746 0.983719 0
M  V30 1276 H 106.418 4.75693 1.50059 0
M  V30 1277 H 105.572 4.68465 3.85519 0
M  V30 1278 H 104.311 3.50948 3.38655 0
M  V30 1279 H 103.316 5.19133 1.81055 0
M  V30 1280 H 104.541 6.38722 2.30675 0
M  V30 1281 H 102.487 5.09024 4.138 0
M  V30 1282 H 102.404 6.70018 3.5016 0
M  V30 1283 H 103.672 6.28212 4.61486 0
M  V30 1284 N 107.901 -0.206675 1.56239 0
M  V30 1285 C 109.126 -0.949474 1.8439 0
M  V30 1286 C 109.551 -1.76549 0.649016 0
M  V30 1287 O 108.909 -1.76782 -0.402231 0
M  V30 1288 C 108.957 -1.83078 3.10668 0
M  V30 1289 O 108.061 -2.9281 2.90407 0
M  V30 1290 H 107.402 -0.268033 0.607499 0
M  V30 1291 H 109.932 -0.215488 2.03462 0
M  V30 1292 H 109.942 -2.2377 3.41161 0
M  V30 1293 H 108.617 -1.23112 3.97261 0
M  V30 1294 H 107.194 -2.55956 2.71184 0
M  V30 1295 N 109.379 -1.50304 -0.473955 0
M  V30 1296 C 110.329 -1.65347 -1.56985 0
M  V30 1297 C 111.313 -0.508176 -1.52664 0
M  V30 1298 O 112.505 -0.762446 -1.59737 0
M  V30 1299 C 109.634 -1.74832 -2.95447 0
M  V30 1300 C 108.72 -2.95028 -3.04662 0
M  V30 1301 N 109.111 -4.18747 -2.83698 0
M  V30 1302 C 107.409 -2.93527 -3.35795 0
M  V30 1303 C 108.11 -4.99687 -2.97805 0
M  V30 1304 N 107.086 -4.33585 -3.2788 0
M  V30 1305 H 110.888 -2.58698 -1.39472 0
M  V30 1306 H 108.402 -1.47449 -0.680629 0
M  V30 1307 H 110.399 -1.83712 -3.7424 0
M  V30 1308 H 109.059 -0.826376 -3.14008 0
M  V30 1309 H 110.07 -4.48291 -2.59337 0
M  V30 1310 H 106.747 -2.10821 -3.60362 0
M  V30 1311 H 108.137 -6.08057 -2.85861 0
M  V30 1312 N 110.857 0.726932 -1.39834 0
M  V30 1313 C 112.134 1.47902 -1.28001 0
M  V30 1314 C 112.514 2.1083 0.106789 0
M  V30 1315 O 111.862 1.99242 1.11869 0
M  V30 1316 C 112.072 2.52392 -2.41038 0
M  V30 1317 C 113.42 3.18546 -2.80737 0
M  V30 1318 O 114.444 2.62708 -2.40547 0
M  V30 1319 O 113.303 4.19604 -3.50135 0
M  V30 1320 H 110.397 0.657163 -0.502062 0
M  V30 1321 H 112.943 0.760071 -1.51727 0
M  V30 1322 H 111.715 2.04329 -3.33715 0
M  V30 1323 H 111.338 3.31837 -2.19021 0
M  V30 1324 N 112.336 1.25143 0.95797 0
M  V30 1325 C 113.266 1.07711 2.07173 0
M  V30 1326 C 114.247 -0.0128462 1.70095 0
M  V30 1327 O 115.432 0.156061 1.93572 0
M  V30 1328 C 112.562 0.691503 3.40346 0
M  V30 1329 C 111.516 1.73132 3.9142 0
M  V30 1330 C 110.842 1.20049 5.21049 0
M  V30 1331 C 112.142 3.1294 4.1817 0
M  V30 1332 H 113.836 2.00873 2.22014 0
M  V30 1333 H 111.382 0.967191 1.06684 0
M  V30 1334 H 113.335 0.556505 4.17709 0
M  V30 1335 H 112.059 -0.275819 3.25433 0
M  V30 1336 H 110.718 1.8547 3.16222 0
M  V30 1337 H 110.366 0.223499 5.02503 0
M  V30 1338 H 110.066 1.89545 5.56189 0
M  V30 1339 H 111.59 1.07782 6.01012 0
M  V30 1340 H 113.004 3.03775 4.86203 0
M  V30 1341 H 111.401 3.79875 4.64559 0
M  V30 1342 H 112.471 3.6025 3.24573 0
M  V30 1343 N 113.814 -1.1601 1.06675 0
M  V30 1344 C 114.762 -2.22586 0.675157 0
M  V30 1345 C 115.756 -1.66525 -0.310766 0
M  V30 1346 O 116.962 -1.79145 -0.175215 0
M  V30 1347 H 113.337 -0.724855 0.200223 0
M  V30 1348 H 115.308 -2.52899 1.58381 0
M  V30 1349 C 114.057 -3.47604 0.0817162 0
M  V30 1350 H 113.38 -3.91058 0.831484 0
M  V30 1351 H 114.82 -4.23718 -0.154708 0
M  V30 1352 C 113.279 -3.15718 -1.17576 0
M  V30 1353 O 113.809 -3.31878 -2.26318 0
M  V30 1354 N 112.015 -2.69816 -1.07923 0
M  V30 1355 H 111.562 -2.56866 -0.194293 0
M  V30 1356 H 111.52 -2.48855 -1.92141 0
M  V30 1357 N 115.292 -0.849877 -1.32721 0
M  V30 1358 C 116.242 -0.262892 -2.26479 0
M  V30 1359 C 117.226 0.588493 -1.49752 0
M  V30 1360 O 118.418 0.438659 -1.71478 0
M  V30 1361 C 115.547 0.551818 -3.38836 0
M  V30 1362 C 114.633 -0.311689 -4.22953 0
M  V30 1363 N 115.024 -1.39567 -4.86163 0
M  V30 1364 C 113.322 -0.100611 -4.45887 0
M  V30 1365 C 114.023 -1.92651 -5.48872 0
M  V30 1366 N 112.999 -1.22637 -5.29586 0
M  V30 1367 H 116.801 -1.09166 -2.72873 0
M  V30 1368 H 114.315 -0.695486 -1.46754 0
M  V30 1369 H 116.312 0.988713 -4.05006 0
M  V30 1370 H 114.972 1.37844 -2.93988 0
M  V30 1371 H 115.983 -1.77859 -4.86402 0
M  V30 1372 H 112.66 0.691681 -4.11731 0
M  V30 1373 H 114.05 -2.83487 -6.09167 0
M  V30 1374 N 116.77 1.45427 -0.607355 0
M  V30 1375 C 117.718 2.32269 0.12411 0
M  V30 1376 C 118.712 1.45955 0.859854 0
M  V30 1377 O 119.918 1.6244 0.775447 0
M  V30 1378 H 116.293 0.749691 0.0588839 0
M  V30 1379 H 118.264 2.91743 -0.626762 0
M  V30 1380 C 117.013 3.29567 1.1082 0
M  V30 1381 H 116.336 3.95978 0.551492 0
M  V30 1382 H 117.776 3.93061 1.58995 0
M  V30 1383 C 116.235 2.56722 2.18164 0
M  V30 1384 O 116.765 2.34842 3.25902 0
M  V30 1385 N 114.971 2.16861 1.93442 0
M  V30 1386 H 114.518 2.34855 1.05834 0
M  V30 1387 H 114.476 1.68444 2.65469 0
M  V30 1388 N 118.248 0.346503 1.53744 0
M  V30 1389 C 119.497 -0.250122 2.00143 0
M  V30 1390 C 119.81 -1.51418 1.23822 0
M  V30 1391 O 121.016 -2.18823 1.60713 0
M  V30 1392 C 119.472 -0.496252 3.56462 0
M  V30 1393 C 119.08 0.752077 4.41642 0
M  V30 1394 C 120.824 -1.05157 4.11269 0
M  V30 1395 C 118.731 0.476583 5.89477 0
M  V30 1396 H 117.661 -0.0972409 0.747703 0
M  V30 1397 H 120.312 0.46229 1.77581 0
M  V30 1398 H 118.694 -1.26944 3.75102 0
M  V30 1399 H 119.868 1.5266 4.34778 0
M  V30 1400 H 118.183 1.22925 3.97842 0
M  V30 1401 H 120.78 -1.27269 5.19333 0
M  V30 1402 H 121.123 -2.00799 3.64672 0
M  V30 1403 H 121.656 -0.339019 3.96353 0
M  V30 1404 H 118.395 1.4028 6.40314 0
M  V30 1405 H 117.915 -0.259794 5.99237 0
M  V30 1406 H 119.594 0.0949315 6.4693 0
M  V30 1407 N 119.726 -1.57421 0.075193 0
M  V30 1408 C 120.674 -2.14124 -0.908508 0
M  V30 1409 C 121.668 -1.07898 -1.30592 0
M  V30 1410 O 122.874 -1.26273 -1.28277 0
M  V30 1411 H 119.249 -0.684707 -0.310935 0
M  V30 1412 H 121.22 -2.95634 -0.405374 0
M  V30 1413 C 119.969 -2.72044 -2.16535 0
M  V30 1414 H 119.292 -3.53456 -1.86839 0
M  V30 1415 H 120.732 -3.15311 -2.83469 0
M  V30 1416 C 119.191 -1.66968 -2.92615 0
M  V30 1417 O 119.721 -1.0967 -3.86439 0
M  V30 1418 N 117.927 -1.37923 -2.55784 0
M  V30 1419 H 117.474 -1.84706 -1.79559 0
M  V30 1420 H 117.432 -0.67852 -3.06991 0
M  V30 1421 N 121.204 0.198386 -1.56346 0
M  V30 1422 C 122.432 0.935572 -1.84539 0
M  V30 1423 C 122.847 1.76989 -0.657281 0
M  V30 1424 O 122.204 1.78626 0.374043 0
M  V30 1425 C 122.255 1.8344 -3.11499 0
M  V30 1426 O 121.976 1.03377 -4.25728 0
M  V30 1427 C 123.477 2.68355 -3.52846 0
M  V30 1428 H 120.697 0.273126 -0.612897 0
M  V30 1429 H 123.241 0.20663 -2.03453 0
M  V30 1430 H 121.396 2.51701 -2.94492 0
M  V30 1431 H 121.81 1.64599 -4.98003 0
M  V30 1432 H 123.284 3.27085 -4.44657 0
M  V30 1433 H 123.761 3.41901 -2.75681 0
M  V30 1434 H 124.367 2.05471 -3.72373 0
M  V30 1435 N 122.682 1.50554 0.465978 0
M  V30 1436 C 123.91 1.65563 1.24083 0
M  V30 1437 C 124.325 0.341051 1.85694 0
M  V30 1438 O 123.682 -0.677543 1.69457 0
M  V30 1439 C 123.733 2.75051 2.34583 0
M  V30 1440 O 123.454 4.01413 1.75497 0
M  V30 1441 C 124.955 3.01078 3.25372 0
M  V30 1442 H 122.175 0.55638 0.375077 0
M  V30 1443 H 124.719 1.96807 0.555624 0
M  V30 1444 H 122.874 2.46486 2.9887 0
M  V30 1445 H 123.288 4.62002 2.48303 0
M  V30 1446 H 124.762 3.81339 3.99105 0
M  V30 1447 H 125.239 2.12349 3.84453 0
M  V30 1448 H 125.845 3.31194 2.66816 0
M  V30 1449 N 124.16 -0.719506 1.40217 0
M  V30 1450 C 125.107 -1.83359 1.40172 0
M  V30 1451 C 126.077 -1.64065 0.259206 0
M  V30 1452 O 127.262 -1.85254 0.456677 0
M  V30 1453 C 124.402 -3.2103 1.26624 0
M  V30 1454 C 123.515 -3.51923 2.50548 0
M  V30 1455 C 122.65 -4.79079 2.29471 0
M  V30 1456 C 121.689 -5.02863 3.48992 0
M  V30 1457 N 120.826 -6.2123 3.27135 0
M  V30 1458 H 125.666 -1.82733 2.35399 0
M  V30 1459 H 123.203 -0.892688 1.16917 0
M  V30 1460 H 125.161 -4.00524 1.16776 0
M  V30 1461 H 123.791 -3.20895 0.350176 0
M  V30 1462 H 122.843 -2.67014 2.70939 0
M  V30 1463 H 124.155 -3.6541 3.39525 0
M  V30 1464 H 123.309 -5.66582 2.16955 0
M  V30 1465 H 122.048 -4.67794 1.37913 0
M  V30 1466 H 121.053 -4.13816 3.6199 0
M  V30 1467 H 122.278 -5.16023 4.41472 0
M  V30 1468 H 120.224 -6.11204 2.38256 0
M  V30 1469 H 120.141 -6.35375 4.09675 0
M  V30 1470 H 121.409 -7.11532 3.18344 0
M  V30 1471 N 125.638 -1.25649 -0.95132 0
M  V30 1472 C 127.049 -1.09654 -1.51106 0
M  V30 1473 C 127.4 0.326615 -1.93462 0
M  V30 1474 O 126.525 1.21697 -1.78938 0
M  V30 1475 C 127.12 -1.98437 -2.74605 0
M  V30 1476 C 125.679 -1.86618 -3.2688 0
M  V30 1477 C 124.826 -1.9239 -1.99703 0
M  V30 1478 H 127.777 -1.38887 -0.767865 0
M  V30 1479 H 127.798 -1.5263 -3.48546 0
M  V30 1480 H 127.31 -3.02009 -2.43746 0
M  V30 1481 H 125.411 -0.859421 -3.62553 0
M  V30 1482 H 125.524 -2.71607 -3.94673 0
M  V30 1483 H 123.888 -1.36317 -2.15151 0
M  V30 1484 H 124.671 -2.97573 -1.71188 0
M  V30 1485 N 127.117 1.15442 -1.07289 0
M  V30 1486 C 128.366 1.85557 -0.790669 0
M  V30 1487 C 128.679 1.83186 0.685739 0
M  V30 1488 O 129.885 2.48977 1.0827 0
M  V30 1489 C 128.341 3.33038 -1.36433 0
M  V30 1490 C 127.949 3.43856 -2.8717 0
M  V30 1491 C 129.693 4.0834 -1.1601 0
M  V30 1492 C 127.6 4.85482 -3.3773 0
M  V30 1493 H 126.53 0.695122 -0.292098 0
M  V30 1494 H 129.181 1.30219 -1.29287 0
M  V30 1495 H 127.563 3.88043 -0.789864 0
M  V30 1496 H 128.737 2.98961 -3.50655 0
M  V30 1497 H 127.052 2.81998 -3.06376 0
M  V30 1498 H 129.649 5.12859 -1.51262 0
M  V30 1499 H 129.992 4.16182 -0.0991007 0
M  V30 1500 H 130.525 3.59603 -1.70089 0
M  V30 1501 H 127.264 4.82823 -4.43353 0
M  V30 1502 H 126.784 5.30961 -2.78999 0
M  V30 1503 H 128.463 5.54335 -3.33648 0
M  V30 1504 N 128.595 0.856903 1.32268 0
M  V30 1505 C 129.527 0.260412 2.27716 0
M  V30 1506 C 130.54 -0.569137 1.52528 0
M  V30 1507 O 131.729 -0.39326 1.74114 0
M  V30 1508 C 128.829 -0.650477 3.32599 0
M  V30 1509 C 128.002 0.14372 4.37164 0
M  V30 1510 C 127.061 -0.69328 5.21613 0
M  V30 1511 O 126.087 -0.12599 5.69061 0
M  V30 1512 N 127.289 -2.00761 5.44679 0
M  V30 1513 H 130.054 1.08059 2.79541 0
M  V30 1514 H 127.615 0.717103 1.45152 0
M  V30 1515 H 129.607 -1.21581 3.86005 0
M  V30 1516 H 128.177 -1.37133 2.80915 0
M  V30 1517 H 127.397 0.890486 3.8401 0
M  V30 1518 H 128.685 0.68915 5.04111 0
M  V30 1519 H 128.083 -2.49181 5.07863 0
M  V30 1520 H 126.64 -2.52103 6.01072 0
M  V30 1521 N 130.073 -1.45103 0.615059 0
M  V30 1522 C 130.983 -2.34382 -0.101034 0
M  V30 1523 C 131.999 -1.51681 -0.852585 0
M  V30 1524 O 133.175 -1.8446 -0.808484 0
M  V30 1525 C 130.24 -3.29417 -1.08099 0
M  V30 1526 C 129.301 -4.28025 -0.330577 0
M  V30 1527 C 128.534 -5.1852 -1.26385 0
M  V30 1528 O 128.757 -5.12598 -2.50198 0
M  V30 1529 O 127.691 -5.97122 -0.756866 0
M  V30 1530 H 131.517 -2.97033 0.632855 0
M  V30 1531 H 129.102 -1.4461 0.375293 0
M  V30 1532 H 130.984 -3.87958 -1.6452 0
M  V30 1533 H 129.659 -2.69321 -1.79577 0
M  V30 1534 H 128.566 -3.73078 0.276283 0
M  V30 1535 H 129.899 -4.90997 0.343866 0
M  V30 1536 N 131.551 -0.354651 -1.53558 0
M  V30 1537 C 132.798 0.238443 -2.01091 0
M  V30 1538 C 133.126 1.49663 -1.24222 0
M  V30 1539 O 132.381 1.93049 -0.321003 0
M  V30 1540 C 132.68 0.587121 -3.52545 0
M  V30 1541 C 132.346 -0.575472 -4.47213 0
M  V30 1542 C 131.008 -0.894497 -4.72813 0
M  V30 1543 C 133.36 -1.35489 -5.03281 0
M  V30 1544 C 130.688 -1.99511 -5.51736 0
M  V30 1545 C 133.04 -2.44583 -5.83405 0
M  V30 1546 C 131.704 -2.77033 -6.07296 0
M  V30 1547 H 130.974 0.0872526 -0.735845 0
M  V30 1548 H 133.621 -0.484859 -1.8526 0
M  V30 1549 H 131.926 1.39129 -3.66265 0
M  V30 1550 H 133.623 1.05809 -3.86789 0
M  V30 1551 H 130.213 -0.316774 -4.27428 0
M  V30 1552 H 134.397 -1.12167 -4.83459 0
M  V30 1553 H 129.653 -2.25063 -5.68469 0
M  V30 1554 H 133.827 -3.05401 -6.25862 0
M  V30 1555 H 131.454 -3.6244 -6.68237 0
M  V30 1556 N 133.029 1.57378 -0.0835403 0
M  V30 1557 C 133.992 2.12252 0.864959 0
M  V30 1558 C 134.992 1.04916 1.21858 0
M  V30 1559 O 136.182 1.30853 1.14991 0
M  V30 1560 C 133.314 2.63358 2.16461 0
M  V30 1561 H 134.507 2.97371 0.388676 0
M  V30 1562 H 132.06 1.55423 0.165317 0
M  V30 1563 H 132.795 1.81727 2.686 0
M  V30 1564 H 132.58 3.41826 1.92087 0
M  V30 1565 H 134.07 3.05847 2.84337 0
M  V30 1566 N 134.507 -0.190092 1.56449 0
M  V30 1567 C 135.735 -0.925772 1.85033 0
M  V30 1568 C 136.15 -1.76638 0.666658 0
M  V30 1569 O 135.507 -1.78822 -0.364565 0
M  V30 1570 C 135.558 -1.81786 3.12468 0
M  V30 1571 O 135.279 -1.01118 4.26271 0
M  V30 1572 C 136.78 -2.6648 3.54265 0
M  V30 1573 H 134 -0.269872 0.614337 0
M  V30 1574 H 136.544 -0.195837 2.0356 0
M  V30 1575 H 134.699 -2.50136 2.95822 0
M  V30 1576 H 135.113 -1.61956 4.98869 0
M  V30 1577 H 136.587 -3.24722 4.46385 0
M  V30 1578 H 137.064 -3.40434 2.77491 0
M  V30 1579 H 137.67 -2.03493 3.73458 0
M  V30 1580 N 135.985 -1.50799 -0.457987 0
M  V30 1581 C 137.262 -1.52968 -1.21902 0
M  V30 1582 C 137.642 -0.281906 -2.09209 0
M  V30 1583 O 136.99 0.734076 -2.16388 0
M  V30 1584 C 137.2 -2.8326 -2.03875 0
M  V30 1585 C 138.548 -3.34425 -2.6162 0
M  V30 1586 O 139.572 -2.8467 -2.14106 0
M  V30 1587 O 138.431 -4.21188 -3.48228 0
M  V30 1588 H 135.525 -0.614129 -0.553873 0
M  V30 1589 H 138.071 -1.63098 -0.468739 0
M  V30 1590 H 136.843 -3.65543 -1.39621 0
M  V30 1591 H 136.466 -2.76195 -2.8601 0
M  V30 1592 N 137.463 0.71206 -1.40597 0
M  V30 1593 C 138.712 1.46754 -1.38369 0
M  V30 1594 C 139.025 1.95598 0.0097839 0
M  V30 1595 O 140.231 2.71059 0.154677 0
M  V30 1596 C 138.687 2.65289 -2.43207 0
M  V30 1597 C 138.295 2.23301 -3.88382 0
M  V30 1598 C 140.039 3.43008 -2.50091 0
M  V30 1599 C 137.946 3.38696 -4.84808 0
M  V30 1600 H 136.876 0.55118 -0.514506 0
M  V30 1601 H 139.527 0.774616 -1.66349 0
M  V30 1602 H 137.909 3.36769 -2.08332 0
M  V30 1603 H 139.083 1.59218 -4.32419 0
M  V30 1604 H 137.398 1.58618 -3.85006 0
M  V30 1605 H 139.995 4.28881 -3.1932 0
M  V30 1606 H 140.338 3.87065 -1.53253 0
M  V30 1607 H 140.871 2.78574 -2.83974 0
M  V30 1608 H 137.61 2.99668 -5.82992 0
M  V30 1609 H 137.13 4.01683 -4.45433 0
M  V30 1610 H 138.809 4.04712 -5.04794 0
M  V30 1611 N 138.941 1.26152 0.944643 0
M  V30 1612 C 139.891 1.04081 2.02857 0
M  V30 1613 C 140.875 -0.0256555 1.6088 0
M  V30 1614 O 142.067 0.190884 1.75968 0
M  V30 1615 C 139.196 0.672118 3.36656 0
M  V30 1616 C 138.282 1.77586 3.85128 0
M  V30 1617 N 138.673 3.01272 4.06287 0
M  V30 1618 C 136.971 1.65867 4.1401 0
M  V30 1619 C 137.672 3.72983 4.46384 0
M  V30 1620 N 136.648 3.00653 4.52889 0
M  V30 1621 H 140.45 1.97968 2.17223 0
M  V30 1622 H 137.964 1.16618 1.13022 0
M  V30 1623 H 139.961 0.495166 4.13949 0
M  V30 1624 H 138.621 -0.259307 3.23663 0
M  V30 1625 H 139.632 3.37213 3.93075 0
M  V30 1626 H 136.309 0.796907 4.09824 0
M  V30 1627 H 137.699 4.792 4.70975 0
M  V30 1628 N 140.419 -1.14872 1.07899 0
M  V30 1629 C 141.366 -2.19791 0.704319 0
M  V30 1630 C 142.336 -1.63238 -0.306987 0
M  V30 1631 O 143.521 -1.8983 -0.192171 0
M  V30 1632 C 140.661 -3.44911 0.114244 0
M  V30 1633 C 139.774 -4.15637 1.1777 0
M  V30 1634 C 138.909 -5.28324 0.552037 0
M  V30 1635 C 137.948 -5.90875 1.59789 0
M  V30 1636 N 137.085 -6.95022 0.994404 0
M  V30 1637 H 141.925 -2.5119 1.60336 0
M  V30 1638 H 139.462 -1.23356 0.801352 0
M  V30 1639 H 141.42 -4.16477 -0.245544 0
M  V30 1640 H 140.05 -3.14011 -0.74813 0
M  V30 1641 H 139.102 -3.42512 1.65499 0
M  V30 1642 H 140.414 -4.5823 1.97046 0
M  V30 1643 H 139.568 -6.06538 0.1402 0
M  V30 1644 H 138.307 -4.86939 -0.272431 0
M  V30 1645 H 137.312 -5.11369 2.01945 0
M  V30 1646 H 138.537 -6.34337 2.42474 0
M  V30 1647 H 136.483 -6.55722 0.190939 0
M  V30 1648 H 136.4 -7.36073 1.72432 0
M  V30 1649 H 137.668 -7.77123 0.608253 0
M  V30 1650 N 141.898 -0.863906 -1.31812 0
M  V30 1651 C 143.145 -0.471836 -1.96926 0
M  V30 1652 C 143.473 0.974578 -1.68322 0
M  V30 1653 O 142.728 1.7003 -0.968933 0
M  V30 1654 C 143.027 -0.668547 -3.51091 0
M  V30 1655 C 142.693 -2.08683 -3.99703 0
M  V30 1656 C 141.355 -2.47471 -4.12688 0
M  V30 1657 C 143.707 -3.01207 -4.25351 0
M  V30 1658 C 141.035 -3.78037 -4.4867 0
M  V30 1659 C 143.387 -4.31282 -4.62794 0
M  V30 1660 C 142.051 -4.69992 -4.73987 0
M  V30 1661 H 141.321 -0.172657 -0.720604 0
M  V30 1662 H 143.968 -1.09573 -1.57054 0
M  V30 1663 H 142.273 0.0385252 -3.91781 0
M  V30 1664 H 143.97 -0.345102 -3.99512 0
M  V30 1665 H 140.56 -1.77566 -3.90087 0
M  V30 1666 H 144.744 -2.72469 -4.14819 0
M  V30 1667 H 140 -4.078 -4.55532 0
M  V30 1668 H 144.174 -5.03031 -4.81594 0
M  V30 1669 H 141.801 -5.71207 -5.01624 0
M  V30 1670 N 143.376 1.44774 -0.622745 0
M  V30 1671 C 144.324 2.32387 0.0994683 0
M  V30 1672 C 145.318 1.46859 0.844326 0
M  V30 1673 O 146.524 1.63254 0.758174 0
M  V30 1674 H 142.899 0.750273 0.0509291 0
M  V30 1675 H 144.87 2.91062 -0.65767 0
M  V30 1676 C 143.619 3.30723 1.07319 0
M  V30 1677 H 142.942 3.96541 0.509462 0
M  V30 1678 H 144.382 3.94725 1.54817 0
M  V30 1679 C 142.841 2.59021 2.15429 0
M  V30 1680 O 143.371 2.38286 3.23393 0
M  V30 1681 N 141.577 2.189 1.91131 0
M  V30 1682 H 141.124 2.35964 1.03337 0
M  V30 1683 H 141.082 1.71251 2.63668 0
M  V30 1684 N 144.854 0.36279 1.53368 0
M  V30 1685 C 146.1 -0.220702 2.02199 0
M  V30 1686 C 146.455 -1.46649 1.24546 0
M  V30 1687 O 145.748 -1.88737 0.32996 0
M  V30 1688 C 145.942 -0.568417 3.52851 0
M  V30 1689 C 145.771 0.642126 4.45092 0
M  V30 1690 C 144.541 1.15335 4.91961 0
M  V30 1691 C 146.739 1.50649 4.91741 0
M  V30 1692 N 144.721 2.3242 5.68202 0
M  V30 1693 C 146.092 2.52404 5.66297 0
M  V30 1694 C 148.147 1.52969 4.73819 0
M  V30 1695 C 146.85 3.56331 6.24836 0
M  V30 1696 C 148.876 2.55789 5.33222 0
M  V30 1697 C 148.238 3.56268 6.07662 0
M  V30 1698 H 144.337 -0.0435508 0.780786 0
M  V30 1699 H 146.921 0.506704 1.87991 0
M  V30 1700 H 145.092 -1.2649 3.67226 0
M  V30 1701 H 146.824 -1.13676 3.88407 0
M  V30 1702 H 143.579 0.718412 4.68119 0
M  V30 1703 H 144.003 2.91591 6.10986 0
M  V30 1704 H 148.645 0.766418 4.15795 0
M  V30 1705 H 146.363 4.33543 6.81958 0
M  V30 1706 H 149.949 2.58435 5.21251 0
M  V30 1707 H 148.829 4.34524 6.52808 0
M  V30 1708 N 146.332 -1.57332 0.0918853 0
M  V30 1709 C 147.609 -1.85691 -0.614668 0
M  V30 1710 C 147.989 -0.988146 -1.86545 0
M  V30 1711 O 147.337 -0.0597055 -2.28422 0
M  V30 1712 C 147.547 -3.36294 -0.933126 0
M  V30 1713 C 148.895 -4.04275 -1.29796 0
M  V30 1714 O 149.919 -3.41157 -1.02424 0
M  V30 1715 O 148.778 -5.1564 -1.81047 0
M  V30 1716 H 145.872 -0.767802 -0.307261 0
M  V30 1717 H 148.418 -1.69244 0.12434 0
M  V30 1718 H 147.19 -3.91273 -0.0456404 0
M  V30 1719 H 146.813 -3.58076 -1.72822 0
M  V30 1720 N 147.81 0.181792 -1.56548 0
M  V30 1721 C 149.035 0.920019 -1.85877 0
M  V30 1722 C 149.46 1.75494 -0.677021 0
M  V30 1723 O 148.818 1.77399 0.374056 0
M  V30 1724 C 148.866 1.78112 -3.13542 0
M  V30 1725 O 147.97 2.88152 -2.95029 0
M  V30 1726 H 147.311 0.258334 -0.611686 0
M  V30 1727 H 149.841 0.183092 -2.03779 0
M  V30 1728 H 149.851 2.18314 -3.44678 0
M  V30 1729 H 148.526 1.16777 -3.99169 0
M  V30 1730 H 147.103 2.51609 -2.75222 0
M  V30 1731 N 149.288 1.51039 0.449983 0
M  V30 1732 C 150.537 1.62317 1.19733 0
M  V30 1733 C 150.85 0.339101 1.92638 0
M  V30 1734 O 152.056 0.331069 2.69474 0
M  V30 1735 C 150.512 2.86608 2.17678 0
M  V30 1736 C 150.12 4.21972 1.50479 0
M  V30 1737 C 151.864 3.07239 2.92924 0
M  V30 1738 C 149.771 5.37426 2.46834 0
M  V30 1739 H 148.701 0.604532 0.450619 0
M  V30 1740 H 151.352 1.77494 0.465625 0
M  V30 1741 H 149.734 2.65037 2.94231 0
M  V30 1742 H 150.908 4.53878 0.795716 0
M  V30 1743 H 149.223 4.07117 0.874344 0
M  V30 1744 H 151.82 3.90668 3.65079 0
M  V30 1745 H 152.163 2.19807 3.5354 0
M  V30 1746 H 152.696 3.29091 2.23481 0
M  V30 1747 H 149.435 6.27079 1.90926 0
M  V30 1748 H 148.955 5.09912 3.15832 0
M  V30 1749 H 150.634 5.68862 3.08228 0
M  V30 1750 N 150.766 -0.704594 1.40972 0
M  V30 1751 C 152.043 -1.45847 1.30338 0
M  V30 1752 C 152.423 -2.10973 -0.0732344 0
M  V30 1753 O 151.771 -2.00997 -1.08685 0
M  V30 1754 C 151.981 -2.48525 2.45023 0
M  V30 1755 C 153.329 -3.1404 2.8577 0
M  V30 1756 O 154.353 -2.58848 2.44696 0
M  V30 1757 O 153.212 -4.13981 3.56766 0
M  V30 1758 H 150.306 -0.649092 0.512454 0
M  V30 1759 H 152.852 -0.735836 1.52917 0
M  V30 1760 H 151.624 -1.98994 3.36923 0
M  V30 1761 H 151.247 -3.2831 2.24272 0
M  V30 1762 N 152.244 -1.26651 -0.937939 0
M  V30 1763 C 153.192 -1.08308 -2.05845 0
M  V30 1764 C 154.186 -0.0090757 -1.69398 0
M  V30 1765 O 155.392 -0.166007 -1.79233 0
M  V30 1766 H 151.767 -0.333416 -0.674046 0
M  V30 1767 H 153.738 -2.03261 -2.18467 0
M  V30 1768 C 152.487 -0.736229 -3.39816 0
M  V30 1769 H 151.81 -1.55453 -3.6834 0
M  V30 1770 H 153.25 -0.64769 -4.19024 0
M  V30 1771 C 151.709 0.558824 -3.32233 0
M  V30 1772 O 152.239 1.59621 -3.68624 0
M  V30 1773 N 150.445 0.550657 -2.85335 0
M  V30 1774 H 149.992 -0.293943 -2.55917 0
M  V30 1775 H 149.95 1.41726 -2.80644 0
M  V30 1776 N 153.722 1.14298 -1.08507 0
M  V30 1777 C 154.971 1.84708 -0.810305 0
M  V30 1778 C 155.284 1.83903 0.666271 0
M  V30 1779 O 156.49 2.50112 1.05624 0
M  V30 1780 C 154.946 3.31572 -1.39957 0
M  V30 1781 C 154.554 3.40791 -2.90801 0
M  V30 1782 C 156.298 4.07087 -1.20334 0
M  V30 1783 C 154.205 4.81872 -3.4286 0
M  V30 1784 H 153.135 0.691985 -0.299454 0
M  V30 1785 H 155.786 1.28841 -1.30661 0
M  V30 1786 H 154.168 3.87183 -0.830976 0
M  V30 1787 H 155.342 2.95225 -3.53806 0
M  V30 1788 H 153.657 2.78732 -3.0935 0
M  V30 1789 H 156.254 5.11225 -1.56693 0
M  V30 1790 H 156.597 4.16054 -0.143237 0
M  V30 1791 H 157.13 3.57779 -1.73893 0
M  V30 1792 H 153.869 4.78094 -4.48449 0
M  V30 1793 H 153.389 5.27972 -2.84615 0
M  V30 1794 H 155.068 5.50765 -3.39509 0
M  V30 1795 N 155.201 0.870884 1.31352 0
M  V30 1796 C 156.426 0.495957 2.01383 0
M  V30 1797 C 156.851 -0.904324 1.64935 0
M  V30 1798 O 156.209 -1.59687 0.858466 0
M  V30 1799 C 156.257 0.661433 3.54482 0
M  V30 1800 O 155.361 -0.298851 4.11316 0
M  V30 1801 H 154.702 0.197158 0.634054 0
M  V30 1802 H 157.232 1.17455 1.67527 0
M  V30 1803 H 157.242 0.555072 4.04207 0
M  V30 1804 H 155.917 1.68246 3.8035 0
M  V30 1805 H 154.494 -0.147368 3.72609 0
M  V30 1806 N 156.679 -1.44442 0.630414 0
M  V30 1807 C 157.907 -2.06414 0.141671 0
M  V30 1808 C 158.322 -1.47105 -1.18345 0
M  V30 1809 O 157.679 -0.593662 -1.72574 0
M  V30 1810 C 157.73 -3.61494 0.0199784 0
M  V30 1811 O 157.451 -4.18594 1.29269 0
M  V30 1812 C 158.952 -4.40499 -0.497544 0
M  V30 1813 H 156.172 -0.666292 0.0793452 0
M  V30 1814 H 158.716 -1.85323 0.864614 0
M  V30 1815 H 156.871 -3.8185 -0.653402 0
M  V30 1816 H 157.285 -5.12026 1.13707 0
M  V30 1817 H 158.759 -5.49433 -0.531708 0
M  V30 1818 H 159.236 -4.11895 -1.52445 0
M  V30 1819 H 159.842 -4.25061 0.142562 0
M  V30 1820 N 158.157 -0.370918 -1.53173 0
M  V30 1821 C 159.403 0.217423 -2.01631 0
M  V30 1822 C 159.736 1.47983 -1.25756 0
M  V30 1823 O 159.011 1.91274 -0.352764 0
M  V30 1824 C 159.294 0.503982 -3.56556 0
M  V30 1825 C 159.147 -0.77243 -4.43118 0
M  V30 1826 C 160.466 1.30234 -4.20389 0
M  V30 1827 H 157.585 0.0775486 -0.732909 0
M  V30 1828 H 160.227 -0.496863 -1.83388 0
M  V30 1829 H 158.377 1.11248 -3.72231 0
M  V30 1830 H 160.049 -1.4098 -4.39229 0
M  V30 1831 H 158.292 -1.39167 -4.10871 0
M  V30 1832 H 158.963 -0.526815 -5.4948 0
M  V30 1833 H 161.439 0.787546 -4.08579 0
M  V30 1834 H 160.315 1.47158 -5.28806 0
M  V30 1835 H 160.576 2.31237 -3.76805 0
M  V30 1836 N 159.635 1.57281 -0.100228 0
M  V30 1837 C 160.884 1.93713 0.561984 0
M  V30 1838 C 161.197 0.984492 1.69018 0
M  V30 1839 O 162.403 1.24273 2.41389 0
M  V30 1840 C 160.859 3.4421 1.05106 0
M  V30 1841 C 160.467 4.47975 -0.0476628 0
M  V30 1842 C 162.211 3.89595 1.68571 0
M  V30 1843 C 160.118 5.89631 0.457055 0
M  V30 1844 H 159.048 0.723082 0.2137 0
M  V30 1845 H 161.699 1.82644 -0.177057 0
M  V30 1846 H 160.081 3.50449 1.84395 0
M  V30 1847 H 161.255 4.53385 -0.823333 0
M  V30 1848 H 159.57 4.1223 -0.587816 0
M  V30 1849 H 162.167 4.92832 2.07414 0
M  V30 1850 H 162.51 3.28526 2.55688 0
M  V30 1851 H 163.043 3.86078 0.958562 0
M  V30 1852 H 159.782 6.54411 -0.377616 0
M  V30 1853 H 159.302 5.87681 1.19962 0
M  V30 1854 H 160.981 6.40363 0.92437 0
M  V30 1855 N 161.113 -0.173488 1.56642 0
M  V30 1856 C 162.359 -0.887108 1.83035 0
M  V30 1857 C 162.714 -1.79965 0.680461 0
M  V30 1858 O 162.007 -1.88854 -0.323225 0
M  V30 1859 C 162.201 -1.72069 3.13252 0
M  V30 1860 C 162.03 -0.89035 4.40798 0
M  V30 1861 C 160.8 -0.566282 5.02117 0
M  V30 1862 C 162.998 -0.232921 5.13772 0
M  V30 1863 N 160.98 0.280427 6.13259 0
M  V30 1864 C 162.351 0.475046 6.18177 0
M  V30 1865 C 164.406 -0.150863 4.97671 0
M  V30 1866 C 163.109 1.25729 7.08227 0
M  V30 1867 C 165.135 0.618039 5.88162 0
M  V30 1868 C 164.497 1.31438 6.92029 0
M  V30 1869 H 160.596 -0.303303 0.720785 0
M  V30 1870 H 163.18 -0.154244 1.94088 0
M  V30 1871 H 161.351 -2.42499 3.03395 0
M  V30 1872 H 163.083 -2.37545 3.2765 0
M  V30 1873 H 159.838 -0.895852 4.6505 0
M  V30 1874 H 160.262 0.694027 6.73433 0
M  V30 1875 H 164.904 -0.674868 4.17379 0
M  V30 1876 H 162.622 1.79265 7.87966 0
M  V30 1877 H 166.208 0.683173 5.77775 0
M  V30 1878 H 165.088 1.89981 7.6084 0
M  V30 1879 N 162.591 -1.51276 -0.441967 0
M  V30 1880 C 163.84 -1.6295 -1.18871 0
M  V30 1881 C 164.153 -0.349312 -1.92456 0
M  V30 1882 O 165.359 -0.345355 -2.69295 0
M  V30 1883 C 163.815 -2.87759 -2.16155 0
M  V30 1884 C 163.423 -4.22764 -1.48239 0
M  V30 1885 C 165.167 -3.08788 -2.91291 0
M  V30 1886 C 163.074 -5.38728 -2.4398 0
M  V30 1887 H 162.004 -0.606913 -0.447406 0
M  V30 1888 H 164.655 -1.77739 -0.456205 0
M  V30 1889 H 163.037 -2.66593 -2.92821 0
M  V30 1890 H 164.211 -4.54293 -0.771635 0
M  V30 1891 H 162.526 -4.07575 -0.852741 0
M  V30 1892 H 165.123 -3.92599 -3.63002 0
M  V30 1893 H 165.466 -2.21679 -3.5237 0
M  V30 1894 H 165.999 -3.30272 -2.21733 0
M  V30 1895 H 162.738 -6.28082 -1.87598 0
M  V30 1896 H 162.258 -5.1158 -3.13123 0
M  V30 1897 H 163.937 -5.70489 -3.05207 0
M  V30 1898 N 164.069 0.697108 -1.41344 0
M  V30 1899 C 165.315 1.4593 -1.40827 0
M  V30 1900 C 165.648 1.94193 -0.0167098 0
M  V30 1901 O 164.923 1.69425 0.955263 0
M  V30 1902 C 165.206 2.67229 -2.41373 0
M  V30 1903 C 165.059 2.24741 -3.8963 0
M  V30 1904 C 166.378 3.69423 -2.39196 0
M  V30 1905 H 163.497 0.529303 -0.512842 0
M  V30 1906 H 166.139 0.794112 -1.72609 0
M  V30 1907 H 164.289 3.23982 -2.14401 0
M  V30 1908 H 165.961 1.73327 -4.27499 0
M  V30 1909 H 164.204 1.56542 -4.0457 0
M  V30 1910 H 164.875 3.1177 -4.55525 0
M  V30 1911 H 167.351 3.2234 -2.63128 0
M  V30 1912 H 166.227 4.51907 -3.11563 0
M  V30 1913 H 166.488 4.19012 -1.41001 0
M  V30 1914 N 165.547 1.27147 0.931209 0
M  V30 1915 C 166.477 1.12081 2.04842 0
M  V30 1916 C 167.458 0.0232364 1.70084 0
M  V30 1917 O 168.643 0.197085 1.93197 0
M  V30 1918 C 165.773 0.76354 3.38803 0
M  V30 1919 C 164.727 1.81396 3.87659 0
M  V30 1920 C 164.053 1.31075 5.18385 0
M  V30 1921 C 165.353 3.21739 4.11438 0
M  V30 1922 H 167.047 2.05537 2.17703 0
M  V30 1923 H 164.593 0.989603 1.04608 0
M  V30 1924 H 166.546 0.644982 4.16435 0
M  V30 1925 H 165.27 -0.206727 3.25945 0
M  V30 1926 H 163.929 1.92136 3.12217 0
M  V30 1927 H 163.577 0.330037 5.01916 0
M  V30 1928 H 163.277 2.013 5.52044 0
M  V30 1929 H 164.801 1.20506 5.98591 0
M  V30 1930 H 166.215 3.14019 4.79651 0
M  V30 1931 H 164.612 3.89644 4.56397 0
M  V30 1932 H 165.682 3.67054 3.16859 0
M  V30 1933 N 167.025 -1.13721 1.09112 0
M  V30 1934 C 168.271 -1.85198 0.826414 0
M  V30 1935 C 168.604 -1.83129 -0.646319 0
M  V30 1936 O 167.879 -1.2671 -1.47563 0
M  V30 1937 C 168.162 -3.33507 1.35812 0
M  V30 1938 C 168.015 -3.44108 2.89672 0
M  V30 1939 C 169.334 -4.28838 0.989256 0
M  V30 1940 H 166.453 -0.67243 0.301675 0
M  V30 1941 H 169.095 -1.33499 1.35197 0
M  V30 1942 H 167.245 -3.77666 0.911082 0
M  V30 1943 H 168.917 -3.08684 3.428 0
M  V30 1944 H 167.16 -2.85087 3.26967 0
M  V30 1945 H 167.831 -4.48388 3.21951 0
M  V30 1946 H 170.307 -3.92734 1.37475 0
M  V30 1947 H 169.183 -5.31051 1.38838 0
M  V30 1948 H 169.444 -4.4198 -0.102924 0
M  V30 1949 N 168.503 -0.877838 -1.30888 0
M  V30 1950 C 169.752 -0.488793 -1.95688 0
M  V30 1951 C 170.065 0.965485 -1.70111 0
M  V30 1952 O 171.271 1.46104 -2.28836 0
M  V30 1953 C 169.727 -0.823201 -3.50359 0
M  V30 1954 C 169.335 -2.29477 -3.84765 0
M  V30 1955 C 171.079 -0.503009 -4.21509 0
M  V30 1956 C 168.986 -2.57118 -5.32583 0
M  V30 1957 H 167.916 -0.179062 -0.732429 0
M  V30 1958 H 170.567 -1.07183 -1.48943 0
M  V30 1959 H 168.949 -0.169331 -3.95638 0
M  V30 1960 H 170.123 -2.99236 -3.5042 0
M  V30 1961 H 168.438 -2.58178 -3.267 0
M  V30 1962 H 171.035 -0.68665 -5.30273 0
M  V30 1963 H 171.378 0.557109 -4.12555 0
M  V30 1964 H 171.911 -1.11376 -3.8189 0
M  V30 1965 H 168.65 -3.61843 -5.4658 0
M  V30 1966 H 168.17 -1.91961 -5.68253 0
M  V30 1967 H 169.849 -2.42251 -5.99936 0
M  V30 1968 N 169.982 1.44106 -0.638065 0
M  V30 1969 C 171.231 2.01194 -0.142744 0
M  V30 1970 C 171.544 1.50835 1.24532 0
M  V30 1971 O 172.75 2.00096 1.83504 0
M  V30 1972 C 171.206 3.59319 -0.20442 0
M  V30 1973 C 170.814 4.18674 -1.59423 0
M  V30 1974 C 172.558 4.23854 0.234079 0
M  V30 1975 C 170.465 5.69045 -1.61065 0
M  V30 1976 H 169.395 0.752367 -0.0495998 0
M  V30 1977 H 172.046 1.65246 -0.797881 0
M  V30 1978 H 170.428 3.92598 0.517946 0
M  V30 1979 H 171.602 3.96921 -2.34074 0
M  V30 1980 H 169.917 3.66453 -1.97741 0
M  V30 1981 H 172.514 5.34155 0.241443 0
M  V30 1982 H 172.857 3.96688 1.2627 0
M  V30 1983 H 173.39 3.95403 -0.436025 0
M  V30 1984 H 170.129 6.00956 -2.61787 0
M  V30 1985 H 169.649 5.929 -0.90718 0
M  V30 1986 H 171.328 6.32809 -1.34766 0
M  V30 1987 N 171.46 0.379036 1.52974 0
M  V30 1988 C 172.39 -0.452706 2.29069 0
M  V30 1989 C 173.371 -1.07237 1.32039 0
M  V30 1990 O 174.556 -1.08708 1.60923 0
M  V30 1991 C 171.686 -1.5856 3.08992 0
M  V30 1992 C 170.64 -1.0925 4.13822 0
M  V30 1993 C 169.966 -2.31668 4.81907 0
M  V30 1994 C 171.266 -0.167702 5.22031 0
M  V30 1995 H 172.96 0.182181 2.98845 0
M  V30 1996 H 170.506 0.0890592 1.43724 0
M  V30 1997 H 172.459 -2.1742 3.6098 0
M  V30 1998 H 171.183 -2.24792 2.36931 0
M  V30 1999 H 169.842 -0.526494 3.628 0
M  V30 2000 H 169.49 -2.96386 4.06404 0
M  V30 2001 H 169.19 -1.9934 5.52754 0
M  V30 2002 H 170.714 -2.91189 5.36695 0
M  V30 2003 H 172.128 -0.664186 5.6944 0
M  V30 2004 H 170.525 0.0653265 6.00064 0
M  V30 2005 H 171.595 0.786347 4.78482 0
M  V30 2006 N 172.938 -1.57226 0.108567 0
M  V30 2007 C 174.163 -1.99604 -0.563303 0
M  V30 2008 C 174.588 -0.987563 -1.6009 0
M  V30 2009 O 173.946 0.0421687 -1.81251 0
M  V30 2010 C 173.994 -3.40902 -1.17552 0
M  V30 2011 O 173.098 -3.42896 -2.2912 0
M  V30 2012 H 172.439 -0.648704 -0.1417 0
M  V30 2013 H 174.969 -2.03679 0.193961 0
M  V30 2014 H 174.979 -3.78886 -1.51357 0
M  V30 2015 H 173.654 -4.1382 -0.415445 0
M  V30 2016 H 172.231 -3.1672 -1.96832 0
M  V30 2017 N 174.416 0.165178 -1.56732 0
M  V30 2018 C 175.663 0.880807 -1.8234 0
M  V30 2019 C 175.991 1.81977 -0.686621 0
M  V30 2020 O 175.246 1.92971 0.325697 0
M  V30 2021 C 175.545 1.70405 -3.1416 0
M  V30 2022 C 175.211 0.913475 -4.4155 0
M  V30 2023 C 173.873 0.695303 -4.7615 0
M  V30 2024 C 176.225 0.359349 -5.1996 0
M  V30 2025 C 173.553 -0.0879947 -5.86634 0
M  V30 2026 C 175.905 -0.410893 -6.31264 0
M  V30 2027 C 174.569 -0.639808 -6.64427 0
M  V30 2028 H 173.839 0.32231 -0.667231 0
M  V30 2029 H 176.486 0.145402 -1.90947 0
M  V30 2030 H 174.791 2.50903 -3.00923 0
M  V30 2031 H 176.488 2.26091 -3.31186 0
M  V30 2032 H 173.078 1.09357 -4.14414 0
M  V30 2033 H 177.262 0.515228 -4.93618 0
M  V30 2034 H 172.518 -0.27503 -6.10781 0
M  V30 2035 H 176.692 -0.847494 -6.91224 0
M  V30 2036 H 174.319 -1.24864 -7.49875 0
M  V30 2037 N 175.894 1.51508 0.433938 0
M  V30 2038 C 176.841 1.73068 1.52696 0
M  V30 2039 C 177.811 0.572441 1.55924 0
M  V30 2040 O 178.996 0.807253 1.72882 0
M  V30 2041 C 176.136 1.86474 2.90381 0
M  V30 2042 C 175.249 3.14037 2.96656 0
M  V30 2043 C 174.384 3.18019 4.25485 0
M  V30 2044 C 173.423 4.39882 4.2564 0
M  V30 2045 N 172.56 4.41394 5.45999 0
M  V30 2046 H 177.4 2.66366 1.33615 0
M  V30 2047 H 174.937 1.32008 0.649018 0
M  V30 2048 H 176.895 1.92229 3.70275 0
M  V30 2049 H 175.525 0.965809 3.08013 0
M  V30 2050 H 174.577 3.17575 2.09404 0
M  V30 2051 H 175.889 4.0394 2.92633 0
M  V30 2052 H 175.043 3.22708 5.13755 0
M  V30 2053 H 173.782 2.2601 4.3217 0
M  V30 2054 H 172.787 4.35366 3.35763 0
M  V30 2055 H 174.012 5.33159 4.20617 0
M  V30 2056 H 171.958 3.52258 5.53399 0
M  V30 2057 H 171.875 5.25111 5.4387 0
M  V30 2058 H 173.143 4.50281 6.36292 0
M  V30 2059 N 177.372 -0.689602 1.41712 0
M  V30 2060 C 178.619 -1.44966 1.4139 0
M  V30 2061 C 178.947 -1.94484 0.025105 0
M  V30 2062 O 178.202 -1.70307 -0.964048 0
M  V30 2063 C 178.501 -2.67298 2.37247 0
M  V30 2064 C 178.167 -2.36405 3.83958 0
M  V30 2065 C 176.829 -2.27691 4.23923 0
M  V30 2066 C 179.181 -2.11043 4.76561 0
M  V30 2067 C 176.509 -1.91719 5.54492 0
M  V30 2068 C 178.861 -1.76578 6.07456 0
M  V30 2069 C 177.525 -1.66363 6.46436 0
M  V30 2070 H 176.795 -0.53047 0.517381 0
M  V30 2071 H 179.442 -0.787655 1.74552 0
M  V30 2072 H 177.747 -3.38461 1.9736 0
M  V30 2073 H 179.444 -3.25452 2.34269 0
M  V30 2074 H 176.034 -2.44085 3.52308 0
M  V30 2075 H 180.218 -2.16717 4.46483 0
M  V30 2076 H 175.474 -1.82367 5.83568 0
M  V30 2077 H 179.648 -1.55974 6.78708 0
M  V30 2078 H 177.275 -1.38258 7.47522 0
M  V30 2079 N 178.85 -1.27639 -0.924453 0
M  V30 2080 C 179.78 -1.13166 -2.04244 0
M  V30 2081 C 180.761 -0.032256 -1.70069 0
M  V30 2082 O 181.946 -0.207328 -1.9309 0
M  V30 2083 C 179.076 -0.781496 -3.38393 0
M  V30 2084 C 178.03 -1.83449 -3.86692 0
M  V30 2085 C 177.356 -1.33822 -5.17683 0
M  V30 2086 C 178.656 -3.23917 -4.09726 0
M  V30 2087 H 180.35 -2.06689 -2.1661 0
M  V30 2088 H 177.896 -0.995136 -1.04082 0
M  V30 2089 H 179.849 -0.667057 -4.16087 0
M  V30 2090 H 178.573 0.189439 -3.2605 0
M  V30 2091 H 177.232 -1.93789 -3.11193 0
M  V30 2092 H 176.88 -0.35665 -5.01734 0
M  V30 2093 H 176.58 -2.04224 -5.50968 0
M  V30 2094 H 178.104 -1.23679 -5.97943 0
M  V30 2095 H 179.518 -3.16559 -4.77978 0
M  V30 2096 H 177.915 -3.92059 -4.54324 0
M  V30 2097 H 178.985 -3.68729 -3.14908 0
M  V30 2098 N 180.328 1.1314 -1.09713 0
M  V30 2099 C 181.275 2.18642 -0.739196 0
M  V30 2100 C 182.245 1.63706 0.280978 0
M  V30 2101 O 183.43 1.90111 0.161946 0
M  V30 2102 C 180.57 3.44685 -0.169102 0
M  V30 2103 C 179.683 4.13711 -1.24367 0
M  V30 2104 C 178.818 5.27379 -0.636019 0
M  V30 2105 C 177.857 5.88259 -1.69169 0
M  V30 2106 N 176.994 6.93352 -1.10485 0
M  V30 2107 H 181.834 2.48607 -1.64312 0
M  V30 2108 H 179.371 1.22066 -0.820875 0
M  V30 2109 H 181.329 4.16815 0.179256 0
M  V30 2110 H 179.959 3.15161 0.698079 0
M  V30 2111 H 179.011 3.39835 -1.70927 0
M  V30 2112 H 180.323 4.55037 -2.04311 0
M  V30 2113 H 179.477 6.06238 -0.236677 0
M  V30 2114 H 178.216 4.8731 0.194928 0
M  V30 2115 H 177.221 5.08092 -2.10055 0
M  V30 2116 H 178.446 6.30399 -2.52536 0
M  V30 2117 H 176.392 6.55335 -0.295234 0
M  V30 2118 H 176.309 7.33236 -1.84121 0
M  V30 2119 H 177.577 7.76057 -0.73181 0
M  V30 2120 N 181.806 0.884767 1.30421 0
M  V30 2121 C 182.769 0.356277 2.26414 0
M  V30 2122 C 183.769 -0.501124 1.52792 0
M  V30 2123 O 184.959 -0.30831 1.7145 0
M  V30 2124 C 182.091 -0.492316 3.37326 0
M  V30 2125 H 183.284 1.20389 2.74675 0
M  V30 2126 H 180.837 0.661607 1.41607 0
M  V30 2127 H 181.572 -1.36052 2.94381 0
M  V30 2128 H 181.357 0.121832 3.91911 0
M  V30 2129 H 182.847 -0.853871 4.08777 0
M  V30 2130 N 183.284 -1.43765 0.645699 0
M  V30 2131 C 184.214 -2.33471 -0.0370477 0
M  V30 2132 C 185.195 -1.49042 -0.819779 0
M  V30 2133 O 186.38 -1.77726 -0.782758 0
M  V30 2134 C 183.51 -3.32311 -1.0093 0
M  V30 2135 C 182.464 -4.2667 -0.337201 0
M  V30 2136 C 181.79 -5.1549 -1.42037 0
M  V30 2137 C 183.09 -5.16657 0.765706 0
M  V30 2138 H 184.784 -2.90809 0.712069 0
M  V30 2139 H 182.33 -1.39834 0.343876 0
M  V30 2140 H 184.283 -3.9396 -1.49578 0
M  V30 2141 H 183.007 -2.73213 -1.78948 0
M  V30 2142 H 181.666 -3.66374 0.128771 0
M  V30 2143 H 181.314 -4.52735 -2.1918 0
M  V30 2144 H 181.014 -5.79438 -0.975966 0
M  V30 2145 H 182.538 -5.80012 -1.90838 0
M  V30 2146 H 183.952 -5.72158 0.361702 0
M  V30 2147 H 182.349 -5.89286 1.13413 0
M  V30 2148 H 183.419 -4.56796 1.62683 0
M  V30 2149 N 184.763 -0.387143 -1.52771 0
M  V30 2150 C 185.693 0.440551 -2.29306 0
M  V30 2151 C 186.674 1.06535 -1.32606 0
M  V30 2152 O 187.859 1.07853 -1.61497 0
M  V30 2153 C 184.989 1.56919 -3.09829 0
M  V30 2154 C 183.943 1.07054 -4.14395 0
M  V30 2155 C 183.269 2.29109 -4.83129 0
M  V30 2156 C 184.569 0.140015 -5.22112 0
M  V30 2157 H 186.263 -0.198026 -2.98744 0
M  V30 2158 H 183.809 -0.09668 -1.43675 0
M  V30 2159 H 185.762 2.15503 -3.62128 0
M  V30 2160 H 184.486 2.23532 -2.3812 0
M  V30 2161 H 183.145 0.507247 -3.63074 0
M  V30 2162 H 182.793 2.94227 -4.0797 0
M  V30 2163 H 182.493 1.96406 -5.53804 0
M  V30 2164 H 184.017 2.88339 -5.38231 0
M  V30 2165 H 185.431 0.633978 -5.69784 0
M  V30 2166 H 183.828 -0.0971485 -6.00021 0
M  V30 2167 H 184.898 -0.811711 -4.78058 0
M  V30 2168 N 186.241 1.57166 -0.116904 0
M  V30 2169 C 187.471 1.99184 0.548586 0
M  V30 2170 C 187.879 0.995436 1.60897 0
M  V30 2171 O 187.222 -0.0201293 1.83689 0
M  V30 2172 C 187.284 3.37611 1.23526 0
M  V30 2173 C 186.948 4.55857 0.323077 0
M  V30 2174 C 187.945 5.18056 -0.437476 0
M  V30 2175 C 185.63 5.01751 0.234761 0
M  V30 2176 C 187.624 6.24536 -1.2741 0
M  V30 2177 C 185.311 6.08093 -0.605496 0
M  V30 2178 C 186.309 6.69352 -1.35856 0
M  V30 2179 O 185.997 7.7364 -2.18487 0
M  V30 2180 H 185.729 0.659148 0.149999 0
M  V30 2181 H 188.283 2.0443 -0.199428 0
M  V30 2182 H 186.513 3.29113 2.0303 0
M  V30 2183 H 188.202 3.63932 1.79745 0
M  V30 2184 H 188.968 4.83516 -0.379105 0
M  V30 2185 H 184.847 4.53817 0.810601 0
M  V30 2186 H 188.391 6.72281 -1.86237 0
M  V30 2187 H 184.288 6.42063 -0.665268 0
M  V30 2188 H 185.056 7.90727 -2.11406 0
M  V30 2189 N 187.719 -0.156864 1.56817 0
M  V30 2190 C 188.649 -1.19589 2.00551 0
M  V30 2191 C 189.63 -1.4536 0.883426 0
M  V30 2192 O 190.815 -1.56449 1.15054 0
M  V30 2193 C 187.945 -2.53143 2.37773 0
M  V30 2194 C 186.899 -2.41913 3.53075 0
M  V30 2195 C 186.225 -3.80088 3.76081 0
M  V30 2196 C 187.525 -1.91157 4.86062 0
M  V30 2197 H 189.219 -0.832293 2.87599 0
M  V30 2198 H 186.765 -0.398918 1.38364 0
M  V30 2199 H 188.718 -3.26047 2.66967 0
M  V30 2200 H 187.442 -2.91319 1.4765 0
M  V30 2201 H 186.101 -1.71462 3.24031 0
M  V30 2202 H 185.749 -4.15683 2.83225 0
M  V30 2203 H 185.449 -3.73439 4.53671 0
M  V30 2204 H 186.973 -4.54556 4.0769 0
M  V30 2205 H 188.387 -2.53846 5.14038 0
M  V30 2206 H 186.784 -1.95422 5.67389 0
M  V30 2207 H 187.854 -0.866673 4.77092 0
M  V30 2208 N 189.197 -1.51736 -0.425897 0
M  V30 2209 C 190.144 -1.73875 -1.51776 0
M  V30 2210 C 191.114 -0.580702 -1.55618 0
M  V30 2211 O 192.299 -0.81641 -1.72451 0
M  V30 2212 C 189.439 -1.88012 -2.89388 0
M  V30 2213 C 188.552 -3.15606 -2.94986 0
M  V30 2214 C 187.687 -3.20271 -4.23793 0
M  V30 2215 C 186.726 -4.42134 -4.23302 0
M  V30 2216 N 185.863 -4.44284 -5.43651 0
M  V30 2217 H 190.703 -2.67071 -1.32201 0
M  V30 2218 H 188.24 -1.32351 -0.642008 0
M  V30 2219 H 190.198 -1.9419 -3.69251 0
M  V30 2220 H 188.828 -0.98213 -3.07496 0
M  V30 2221 H 187.88 -3.18681 -2.07717 0
M  V30 2222 H 189.192 -4.05486 -2.90486 0
M  V30 2223 H 188.346 -3.25428 -5.12036 0
M  V30 2224 H 187.085 -2.28299 -4.30965 0
M  V30 2225 H 186.09 -4.3714 -3.3345 0
M  V30 2226 H 187.315 -5.35382 -4.17783 0
M  V30 2227 H 185.261 -3.55188 -5.51523 0
M  V30 2228 H 185.178 -5.27988 -5.41078 0
M  V30 2229 H 186.446 -4.53649 -6.33895 0
M  V30 2230 N 190.675 0.682077 -1.42076 0
M  V30 2231 C 191.905 1.46844 -1.45329 0
M  V30 2232 C 192.313 1.89102 -0.0609328 0
M  V30 2233 O 191.656 1.58238 0.933082 0
M  V30 2234 C 191.718 2.75375 -2.31104 0
M  V30 2235 C 191.382 2.55238 -3.79081 0
M  V30 2236 C 192.379 2.20309 -4.70914 0
M  V30 2237 C 190.064 2.70459 -4.2327 0
M  V30 2238 C 192.058 2.00859 -6.04925 0
M  V30 2239 C 189.745 2.50624 -5.57343 0
M  V30 2240 C 190.743 2.15876 -6.47986 0
M  V30 2241 O 190.431 1.96227 -7.79583 0
M  V30 2242 H 190.163 0.4586 -0.496651 0
M  V30 2243 H 192.717 0.846131 -1.87162 0
M  V30 2244 H 190.947 3.40061 -1.84107 0
M  V30 2245 H 192.636 3.37231 -2.25898 0
M  V30 2246 H 193.402 2.08153 -4.38061 0
M  V30 2247 H 189.281 2.96485 -3.53012 0
M  V30 2248 H 192.825 1.7366 -6.75639 0
M  V30 2249 H 188.722 2.62375 -5.89771 0
M  V30 2250 H 189.49 2.10883 -7.90867 0
M  V30 2251 N 192.153 1.28127 0.917671 0
M  V30 2252 C 193.083 1.14248 2.03641 0
M  V30 2253 C 194.064 0.0412748 1.7005 0
M  V30 2254 O 195.249 0.217566 1.92977 0
M  V30 2255 C 192.379 0.799431 3.37974 0
M  V30 2256 C 191.333 1.85497 3.85713 0
M  V30 2257 C 190.659 1.36565 5.16966 0
M  V30 2258 C 191.959 3.26085 4.08002 0
M  V30 2259 H 193.653 2.07835 2.15511 0
M  V30 2260 H 191.199 1.00064 1.03553 0
M  V30 2261 H 193.152 0.689114 4.15727 0
M  V30 2262 H 191.876 -0.172145 3.26146 0
M  V30 2263 H 190.535 1.95437 3.10161 0
M  V30 2264 H 190.183 0.383253 5.01538 0
M  V30 2265 H 189.883 2.07143 5.49878 0
M  V30 2266 H 191.407 1.26848 5.97279 0
M  V30 2267 H 192.821 3.19089 4.76293 0
M  V30 2268 H 191.218 3.94462 4.52238 0
M  V30 2269 H 192.288 3.70394 3.12948 0
M  V30 2270 N 193.631 -1.12557 1.10312 0
M  V30 2271 C 194.578 -2.18247 0.750781 0
M  V30 2272 C 195.548 -1.63853 -0.272293 0
M  V30 2273 O 196.733 -1.90195 -0.151862 0
M  V30 2274 C 193.873 -3.44591 0.187379 0
M  V30 2275 C 192.986 -4.13046 1.2656 0
M  V30 2276 C 192.121 -5.27034 0.663978 0
M  V30 2277 C 191.16 -5.87353 1.72287 0
M  V30 2278 N 190.297 -6.92757 1.1416 0
M  V30 2279 H 195.137 -2.47732 1.65628 0
M  V30 2280 H 192.674 -1.21629 0.827337 0
M  V30 2281 H 194.632 -4.16904 -0.157148 0
M  V30 2282 H 193.262 -3.15527 -0.681355 0
M  V30 2283 H 192.314 -3.38924 1.72727 0
M  V30 2284 H 193.626 -4.53947 2.06721 0
M  V30 2285 H 192.78 -6.06104 0.268824 0
M  V30 2286 H 191.519 -4.87407 -0.169082 0
M  V30 2287 H 190.524 -5.06971 2.12746 0
M  V30 2288 H 191.749 -6.29051 2.55875 0
M  V30 2289 H 189.695 -6.5517 0.329984 0
M  V30 2290 H 189.612 -7.3225 1.88007 0
M  V30 2291 H 190.88 -7.75658 0.772956 0
M  V30 2292 N 195.109 -0.891671 -1.2995 0
M  V30 2293 C 196.056 -0.361736 -2.27948 0
M  V30 2294 C 197.026 0.551761 -1.56668 0
M  V30 2295 O 198.211 0.478736 -1.84696 0
M  V30 2296 C 195.351 0.411825 -3.42634 0
M  V30 2297 C 194.464 -0.531651 -4.28716 0
M  V30 2298 C 193.599 0.258167 -5.30572 0
M  V30 2299 C 192.638 -0.680349 -6.08307 0
M  V30 2300 N 191.775 0.0745613 -7.0206 0
M  V30 2301 H 196.615 -1.20254 -2.72659 0
M  V30 2302 H 194.152 -0.604352 -1.34112 0
M  V30 2303 H 196.11 0.876304 -4.07893 0
M  V30 2304 H 194.74 1.21715 -2.98974 0
M  V30 2305 H 193.792 -1.11463 -3.63703 0
M  V30 2306 H 195.104 -1.25038 -4.82874 0
M  V30 2307 H 194.258 0.784204 -6.0161 0
M  V30 2308 H 192.997 1.01008 -4.77126 0
M  V30 2309 H 192.002 -1.21796 -5.3614 0
M  V30 2310 H 193.227 -1.43145 -6.63842 0
M  V30 2311 H 191.173 0.808883 -6.50994 0
M  V30 2312 H 191.09 -0.584409 -7.53738 0
M  V30 2313 H 192.358 0.581123 -7.77331 0
M  V30 2314 N 196.587 1.43421 -0.653314 0
M  V30 2315 C 197.519 2.29071 0.0769134 0
M  V30 2316 C 198.532 1.42513 0.787017 0
M  V30 2317 O 199.721 1.66449 0.644757 0
M  V30 2318 C 196.821 3.19436 1.13199 0
M  V30 2319 C 195.994 4.34533 0.500006 0
M  V30 2320 C 195.053 5.05771 1.45198 0
M  V30 2321 O 194.079 5.61037 0.960538 0
M  V30 2322 N 195.281 5.0928 2.78594 0
M  V30 2323 H 198.046 2.92382 -0.658235 0
M  V30 2324 H 195.607 1.54112 -0.496104 0
M  V30 2325 H 197.599 3.63958 1.76964 0
M  V30 2326 H 196.169 2.57724 1.7691 0
M  V30 2327 H 195.389 3.92925 -0.316738 0
M  V30 2328 H 196.677 5.08766 0.0588345 0
M  V30 2329 H 196.075 4.65751 3.2108 0
M  V30 2330 H 194.632 5.57519 3.37662 0
M  V30 2331 N 198.065 0.39524 1.52563 0
M  V30 2332 C 199.29 -0.187456 2.06551 0
M  V30 2333 C 199.715 -1.39249 1.26457 0
M  V30 2334 O 199.073 -1.78947 0.291151 0
M  V30 2335 C 199.121 -0.529985 3.56684 0
M  V30 2336 O 198.225 -1.62307 3.79118 0
M  V30 2337 H 197.566 -0.0202537 0.663691 0
M  V30 2338 H 200.096 0.564426 1.96661 0
M  V30 2339 H 200.106 -0.792598 4.00227 0
M  V30 2340 H 198.781 0.350987 4.14416 0
M  V30 2341 H 197.358 -1.3537 3.47461 0
M  V30 2342 N 199.544 -1.57102 0.125237 0
M  V30 2343 C 200.474 -2.18659 -0.819174 0
M  V30 2344 C 201.455 -1.12843 -1.27281 0
M  V30 2345 O 202.64 -1.41104 -1.33429 0
M  V30 2346 C 199.77 -2.79096 -2.06695 0
M  V30 2347 C 198.724 -3.90548 -1.75088 0
M  V30 2348 C 198.05 -4.37821 -3.06948 0
M  V30 2349 C 199.35 -5.12356 -1.01435 0
M  V30 2350 H 201.044 -2.9783 -0.306202 0
M  V30 2351 H 198.59 -1.4326 -0.145839 0
M  V30 2352 H 200.543 -3.2082 -2.73226 0
M  V30 2353 H 199.267 -1.97223 -2.60328 0
M  V30 2354 H 197.926 -3.49409 -1.10944 0
M  V30 2355 H 197.574 -3.52799 -3.58527 0
M  V30 2356 H 197.274 -5.12982 -2.86571 0
M  V30 2357 H 198.798 -4.822 -3.74587 0
M  V30 2358 H 200.212 -5.5106 -1.58132 0
M  V30 2359 H 198.609 -5.9314 -0.911319 0
M  V30 2360 H 199.679 -4.849 -0.00218681 0
M  V30 2361 N 201.022 0.148545 -1.56898 0
M  V30 2362 C 202.252 0.875118 -1.8715 0
M  V30 2363 C 202.66 1.75322 -0.711262 0
M  V30 2364 O 202.003 1.80745 0.328151 0
M  V30 2365 C 202.065 1.7844 -3.12089 0
M  V30 2366 C 201.729 1.08361 -4.43967 0
M  V30 2367 C 202.726 0.438247 -5.1805 0
M  V30 2368 C 200.411 1.07358 -4.90693 0
M  V30 2369 C 202.405 -0.20779 -6.37061 0
M  V30 2370 C 200.092 0.42373 -6.09629 0
M  V30 2371 C 201.09 -0.215829 -6.82659 0
M  V30 2372 O 200.778 -0.855378 -7.99336 0
M  V30 2373 H 200.51 0.258504 -0.624621 0
M  V30 2374 H 203.064 0.14652 -2.04877 0
M  V30 2375 H 201.294 2.55389 -2.90367 0
M  V30 2376 H 202.983 2.38279 -3.286 0
M  V30 2377 H 203.749 0.437817 -4.8302 0
M  V30 2378 H 199.628 1.5608 -4.33774 0
M  V30 2379 H 203.172 -0.70758 -6.94002 0
M  V30 2380 H 199.069 0.421822 -6.4412 0
M  V30 2381 H 199.837 -0.756892 -8.14993 0
M  V30 2382 N 202.5 1.5196 0.417844 0
M  V30 2383 C 203.43 1.77634 1.51554 0
M  V30 2384 C 204.411 0.626918 1.58126 0
M  V30 2385 O 205.596 0.871632 1.7354 0
M  V30 2386 C 202.726 1.91911 2.8946 0
M  V30 2387 C 201.68 3.07463 2.97743 0
M  V30 2388 C 201.006 3.06951 4.37819 0
M  V30 2389 C 202.306 4.47082 2.70027 0
M  V30 2390 H 204 2.6955 1.3032 0
M  V30 2391 H 201.546 1.29706 0.625492 0
M  V30 2392 H 203.499 2.08455 3.6623 0
M  V30 2393 H 202.223 0.966598 3.11969 0
M  V30 2394 H 200.882 2.90656 2.23416 0
M  V30 2395 H 200.53 2.09438 4.57323 0
M  V30 2396 H 200.23 3.84556 4.44286 0
M  V30 2397 H 201.754 3.25613 5.16535 0
M  V30 2398 H 203.168 4.6414 3.36522 0
M  V30 2399 H 201.565 5.2654 2.87881 0
M  V30 2400 H 202.635 4.55777 1.65514 0
M  V30 2401 N 203.978 -0.674533 1.42435 0
M  V30 2402 C 204.926 -1.80934 1.46169 0
M  V30 2403 C 205.92 -1.66006 0.3374 0
M  V30 2404 O 207.126 -1.72611 0.510425 0
M  V30 2405 H 203.501 -0.596594 0.457798 0
M  V30 2406 H 205.472 -1.74903 2.41767 0
M  V30 2407 C 204.221 -3.19088 1.38123 0
M  V30 2408 H 203.544 -3.31203 2.23931 0
M  V30 2409 H 204.984 -3.9851 1.44797 0
M  V30 2410 C 203.443 -3.36763 0.0960517 0
M  V30 2411 O 203.973 -3.92581 -0.851073 0
M  V30 2412 N 202.179 -2.90597 0.0131186 0
M  V30 2413 H 201.726 -2.45359 0.784639 0
M  V30 2414 H 201.684 -3.028 -0.846133 0
M  V30 2415 N 205.456 -1.28612 -0.910864 0
M  V30 2416 C 206.366 -1.14643 -2.0468 0
M  V30 2417 C 207.382 -0.0723121 -1.7385 0
M  V30 2418 O 208.558 -0.282178 -1.99413 0
M  V30 2419 C 205.623 -0.812561 -3.37044 0
M  V30 2420 C 204.684 -1.96935 -3.81465 0
M  V30 2421 C 203.917 -1.65131 -5.07511 0
M  V30 2422 O 204.14 -0.567013 -5.67575 0
M  V30 2423 O 203.074 -2.49585 -5.47714 0
M  V30 2424 H 206.9 -2.1001 -2.19384 0
M  V30 2425 H 204.485 -1.07958 -1.03274 0
M  V30 2426 H 206.367 -0.640441 -4.16505 0
M  V30 2427 H 205.042 0.111426 -3.23508 0
M  V30 2428 H 203.949 -2.19664 -3.02818 0
M  V30 2429 H 205.282 -2.87414 -3.99567 0
M  V30 2430 N 206.934 1.1197 -1.10907 0
M  V30 2431 C 207.882 2.19927 -0.757303 0
M  V30 2432 C 208.876 1.67564 0.248747 0
M  V30 2433 O 210.082 1.79672 0.108605 0
M  V30 2434 H 206.457 0.716925 -0.226987 0
M  V30 2435 H 208.428 2.46847 -1.67658 0
M  V30 2436 C 207.177 3.47061 -0.210671 0
M  V30 2437 H 206.5 3.87703 -0.976049 0
M  V30 2438 H 207.94 4.24 -0.0026584 0
M  V30 2439 C 206.399 3.19864 1.05777 0
M  V30 2440 O 206.929 3.40049 2.13845 0
M  V30 2441 N 205.135 2.73636 0.978349 0
M  V30 2442 H 204.682 2.5741 0.0988246 0
M  V30 2443 H 204.64 2.55815 1.82773 0
M  V30 2444 N 208.412 0.89855 1.29475 0
M  V30 2445 C 209.322 0.379974 2.31502 0
M  V30 2446 C 210.338 -0.524695 1.659 0
M  V30 2447 O 211.514 -0.414551 1.97087 0
M  V30 2448 C 208.579 -0.385138 3.44554 0
M  V30 2449 C 207.64 0.550914 4.2575 0
M  V30 2450 C 206.873 -0.177778 5.33404 0
M  V30 2451 O 207.096 -1.40189 5.52904 0
M  V30 2452 O 206.03 0.479106 5.9999 0
M  V30 2453 H 209.856 1.22639 2.77837 0
M  V30 2454 H 207.441 0.662834 1.33891 0
M  V30 2455 H 209.323 -0.817841 4.13388 0
M  V30 2456 H 207.998 -1.20763 3.0033 0
M  V30 2457 H 206.905 1.03271 3.59564 0
M  V30 2458 H 208.238 1.33979 4.73614 0
M  V30 2459 N 209.89 -1.43072 0.660911 0
M  V30 2460 C 210.837 -2.30785 -0.0259884 0
M  V30 2461 C 211.807 -1.45184 -0.806888 0
M  V30 2462 O 212.992 -1.74041 -0.781943 0
M  V30 2463 C 210.132 -3.30861 -0.981067 0
M  V30 2464 C 209.245 -4.31558 -0.195458 0
M  V30 2465 C 208.38 -5.18712 -1.14503 0
M  V30 2466 C 207.419 -6.11097 -0.350299 0
M  V30 2467 N 206.556 -6.90849 -1.25186 0
M  V30 2468 H 211.396 -2.88975 0.727846 0
M  V30 2469 H 208.933 -1.42353 0.370682 0
M  V30 2470 H 210.891 -3.87399 -1.54849 0
M  V30 2471 H 209.521 -2.74304 -1.70169 0
M  V30 2472 H 208.573 -3.77252 0.488374 0
M  V30 2473 H 209.885 -4.9701 0.422176 0
M  V30 2474 H 209.039 -5.79914 -1.78284 0
M  V30 2475 H 207.778 -4.53404 -1.79656 0
M  V30 2476 H 206.783 -5.48976 0.300808 0
M  V30 2477 H 208.008 -6.7845 0.296941 0
M  V30 2478 H 205.954 -6.28182 -1.89005 0
M  V30 2479 H 205.871 -7.52854 -0.688971 0
M  V30 2480 H 207.139 -7.5655 -1.87757 0
M  V30 2481 N 211.368 -0.403325 -1.52352 0
M  V30 2482 C 212.316 0.439752 -2.28405 0
M  V30 2483 C 213.31 1.05089 -1.32863 0
M  V30 2484 O 214.516 0.989759 -1.50345 0
M  V30 2485 H 210.891 0.160587 -0.734653 0
M  V30 2486 H 212.862 -0.222983 -2.97566 0
M  V30 2487 C 211.611 1.54736 -3.11371 0
M  V30 2488 H 210.934 1.08643 -3.84755 0
M  V30 2489 H 212.374 2.1112 -3.67701 0
M  V30 2490 C 210.833 2.51141 -2.24566 0
M  V30 2491 O 211.363 3.54887 -1.88196 0
M  V30 2492 N 209.569 2.21213 -1.8845 0
M  V30 2493 H 209.116 1.36878 -2.18225 0
M  V30 2494 H 209.074 2.85963 -1.30662 0
M  V30 2495 N 212.846 1.57033 -0.133567 0
M  V30 2496 C 213.793 2.16074 0.811208 0
M  V30 2497 C 214.763 1.08979 1.2535 0
M  V30 2498 O 215.948 1.36958 1.32843 0
M  V30 2499 C 213.088 2.77595 2.05024 0
M  V30 2500 C 212.201 3.99042 1.65498 0
M  V30 2501 C 211.336 4.48603 2.84479 0
M  V30 2502 C 210.375 5.62547 2.41262 0
M  V30 2503 N 209.512 6.06787 3.53206 0
M  V30 2504 H 214.352 2.96477 0.300906 0
M  V30 2505 H 211.889 1.46462 0.136822 0
M  V30 2506 H 213.847 3.11402 2.77642 0
M  V30 2507 H 212.477 1.99859 2.53488 0
M  V30 2508 H 211.529 3.71302 0.826981 0
M  V30 2509 H 212.841 4.81629 1.29748 0
M  V30 2510 H 211.995 4.84395 3.65303 0
M  V30 2511 H 210.734 3.64995 3.23465 0
M  V30 2512 H 209.739 5.26345 1.58874 0
M  V30 2513 H 210.964 6.47931 2.03377 0
M  V30 2514 H 208.91 5.26117 3.91838 0
M  V30 2515 H 208.827 6.84266 3.21427 0
M  V30 2516 H 210.095 6.4722 4.34427 0
M  V30 2517 N 214.325 -0.140222 1.56975 0
M  V30 2518 C 215.574 -0.850152 1.82908 0
M  V30 2519 C 215.887 -1.82028 0.715892 0
M  V30 2520 O 217.093 -2.57485 0.861016 0
M  V30 2521 C 215.549 -1.5625 3.24213 0
M  V30 2522 C 215.157 -0.63443 4.43485 0
M  V30 2523 C 216.901 -2.25881 3.59413 0
M  V30 2524 C 214.808 -1.34879 5.75814 0
M  V30 2525 H 213.738 -0.321221 0.682153 0
M  V30 2526 H 216.389 -0.102874 1.83211 0
M  V30 2527 H 214.771 -2.35565 3.18316 0
M  V30 2528 H 215.945 0.12398 4.60633 0
M  V30 2529 H 214.26 -0.0461836 4.16374 0
M  V30 2530 H 216.857 -2.79978 4.5554 0
M  V30 2531 H 217.2 -3.02693 2.85802 0
M  V30 2532 H 217.733 -1.53477 3.67001 0
M  V30 2533 H 214.472 -0.622385 6.52539 0
M  V30 2534 H 213.992 -2.07974 5.6259 0
M  V30 2535 H 215.671 -1.88784 6.18845 0
M  V30 2536 N 215.803 -1.52179 -0.40978 0
M  V30 2537 C 217.08 -1.56769 -1.16974 0
M  V30 2538 C 217.46 -0.348322 -2.08206 0
M  V30 2539 O 216.808 0.664862 -2.18613 0
M  V30 2540 C 217.018 -2.89603 -1.9476 0
M  V30 2541 C 218.366 -3.42579 -2.50849 0
M  V30 2542 O 219.39 -2.91338 -2.04941 0
M  V30 2543 O 218.249 -4.32054 -3.34652 0
M  V30 2544 H 215.343 -0.631439 -0.534054 0
M  V30 2545 H 217.889 -1.64507 -0.416613 0
M  V30 2546 H 216.661 -3.698 -1.27921 0
M  V30 2547 H 216.284 -2.85155 -2.77079 0
M  V30 2548 N 217.281 0.66697 -1.42791 0
M  V30 2549 C 218.509 1.45505 -1.47091 0
M  V30 2550 C 218.924 1.8861 -0.0845873 0
M  V30 2551 O 218.281 1.58632 0.90234 0
M  V30 2552 C 218.332 2.69906 -2.40485 0
M  V30 2553 O 218.053 2.28608 -3.73725 0
M  V30 2554 C 219.554 3.63396 -2.53886 0
M  V30 2555 H 216.774 0.447459 -0.500022 0
M  V30 2556 H 219.318 0.818866 -1.8739 0
M  V30 2557 H 217.473 3.29696 -2.03419 0
M  V30 2558 H 217.887 3.08997 -4.23817 0
M  V30 2559 H 219.361 4.47387 -3.2334 0
M  V30 2560 H 219.838 4.09824 -1.57927 0
M  V30 2561 H 220.444 3.09495 -2.91706 0
M  V30 2562 N 218.759 1.29093 0.90403 0
M  V30 2563 C 220.008 1.16187 1.64874 0
M  V30 2564 C 220.321 -0.286742 1.93487 0
M  V30 2565 O 221.527 -0.537062 2.66135 0
M  V30 2566 C 219.983 2.03177 2.97064 0
M  V30 2567 C 219.591 3.52836 2.76062 0
M  V30 2568 C 221.335 1.98984 3.74974 0
M  V30 2569 C 219.242 4.31945 4.03952 0
M  V30 2570 H 218.172 0.431246 0.618501 0
M  V30 2571 H 220.823 1.53699 1.00243 0
M  V30 2572 H 219.205 1.5853 3.62883 0
M  V30 2573 H 220.379 4.05507 2.18863 0
M  V30 2574 H 218.694 3.58656 2.11553 0
M  V30 2575 H 221.291 2.55351 4.69787 0
M  V30 2576 H 221.634 0.968815 4.0487 0
M  V30 2577 H 222.167 2.41652 3.15989 0
M  V30 2578 H 218.906 5.34667 3.79225 0
M  V30 2579 H 218.426 3.84045 4.60727 0
M  V30 2580 H 220.105 4.42379 4.72133 0
M  V30 2581 N 220.237 -1.11381 1.11499 0
M  V30 2582 C 221.167 -2.19509 0.796125 0
M  V30 2583 C 222.148 -1.68458 -0.235796 0
M  V30 2584 O 223.333 -1.93947 -0.0991344 0
M  V30 2585 C 220.463 -3.46475 0.239205 0
M  V30 2586 C 219.417 -4.10744 1.20307 0
M  V30 2587 C 218.743 -5.32293 0.50683 0
M  V30 2588 C 220.043 -4.55597 2.55399 0
M  V30 2589 H 221.737 -2.46439 1.70024 0
M  V30 2590 H 219.283 -1.18446 0.818935 0
M  V30 2591 H 221.236 -4.214 0.00392006 0
M  V30 2592 H 219.96 -3.19006 -0.700206 0
M  V30 2593 H 218.619 -3.37813 1.42399 0
M  V30 2594 H 218.267 -5.01095 -0.437408 0
M  V30 2595 H 217.967 -5.76243 1.1497 0
M  V30 2596 H 219.491 -6.09956 0.280351 0
M  V30 2597 H 220.905 -5.21841 2.37391 0
M  V30 2598 H 219.302 -5.10363 3.15673 0
M  V30 2599 H 220.372 -3.69013 3.14575 0
M  V30 2600 N 221.715 -0.905404 -1.28997 0
M  V30 2601 C 222.962 -0.534248 -1.95325 0
M  V30 2602 C 223.29 0.920535 -1.71337 0
M  V30 2603 O 222.545 1.66861 -1.02254 0
M  V30 2604 C 222.844 -0.779906 -3.48787 0
M  V30 2605 C 222.51 -2.21293 -3.92861 0
M  V30 2606 C 221.172 -2.60475 -4.04606 0
M  V30 2607 C 223.524 -3.14587 -4.15553 0
M  V30 2608 C 220.852 -3.9212 -4.36416 0
M  V30 2609 C 223.204 -4.45787 -4.48839 0
M  V30 2610 C 221.868 -4.84834 -4.58794 0
M  V30 2611 H 221.138 -0.195495 -0.714747 0
M  V30 2612 H 223.785 -1.14514 -1.53488 0
M  V30 2613 H 222.09 -0.0861365 -3.91705 0
M  V30 2614 H 223.787 -0.472029 -3.98212 0
M  V30 2615 H 220.377 -1.89887 -3.84241 0
M  V30 2616 H 224.561 -2.85528 -4.0594 0
M  V30 2617 H 219.817 -4.22086 -4.42327 0
M  V30 2618 H 223.991 -5.18098 -4.65346 0
M  V30 2619 H 221.618 -5.86877 -4.83197 0
M  V30 2620 N 223.193 1.4272 -0.668489 0
M  V30 2621 C 224.141 2.32586 0.0254857 0
M  V30 2622 C 225.135 1.49471 0.797176 0
M  V30 2623 O 226.341 1.65583 0.705853 0
M  V30 2624 H 222.716 0.751514 0.0270339 0
M  V30 2625 H 224.687 2.88823 -0.749936 0
M  V30 2626 C 223.436 3.3397 0.967427 0
M  V30 2627 H 222.759 3.97961 0.383048 0
M  V30 2628 H 224.199 3.9945 1.42181 0
M  V30 2629 C 222.658 2.65744 2.0708 0
M  V30 2630 O 223.188 2.48454 3.15648 0
M  V30 2631 N 221.394 2.2487 1.8407 0
M  V30 2632 H 220.941 2.39132 0.95778 0
M  V30 2633 H 220.899 1.79552 2.58086 0
M  V30 2634 N 224.671 0.411399 1.52136 0
M  V30 2635 C 225.621 -0.430376 2.23901 0
M  V30 2636 C 226.605 -1.0116 1.25121 0
M  V30 2637 O 227.797 -0.934044 1.50348 0
M  V30 2638 C 224.926 -1.54527 3.06556 0
M  V30 2639 C 224.012 -0.9747 4.12747 0
M  V30 2640 N 224.403 -0.130991 5.0563 0
M  V30 2641 C 222.701 -1.24497 4.28271 0
M  V30 2642 C 223.402 0.186689 5.814 0
M  V30 2643 N 222.378 -0.42304 5.41951 0
M  V30 2644 H 226.18 0.220509 2.93072 0
M  V30 2645 H 223.694 0.221952 1.60876 0
M  V30 2646 H 225.691 -2.16093 3.56524 0
M  V30 2647 H 224.351 -2.19875 2.38925 0
M  V30 2648 H 225.362 0.23349 5.17373 0
M  V30 2649 H 222.039 -1.89787 3.7187 0
M  V30 2650 H 223.429 0.871673 6.66222 0
M  V30 2651 N 226.149 -1.5696 0.141893 0
M  V30 2652 C 227.081 -2.13619 -0.830627 0
M  V30 2653 C 228.094 -1.08439 -1.21428 0
M  V30 2654 O 229.283 -1.35734 -1.15925 0
M  V30 2655 C 226.383 -2.63978 -2.12529 0
M  V30 2656 C 225.556 -3.93504 -1.9098 0
M  V30 2657 C 224.615 -4.29225 -3.04388 0
M  V30 2658 O 223.641 -4.97641 -2.76302 0
M  V30 2659 N 224.843 -3.88393 -4.31429 0
M  V30 2660 H 227.608 -2.97691 -0.34641 0
M  V30 2661 H 225.169 -1.61846 -0.0418375 0
M  V30 2662 H 227.161 -2.84891 -2.87436 0
M  V30 2663 H 225.731 -1.84659 -2.52229 0
M  V30 2664 H 224.951 -3.81269 -1.00139 0
M  V30 2665 H 226.239 -4.78154 -1.73914 0
M  V30 2666 H 225.637 -3.33257 -4.57117 0
M  V30 2667 H 224.194 -4.14368 -5.03133 0
M  V30 2668 N 227.627 0.131896 -1.57047 0
M  V30 2669 C 228.857 0.855219 -1.88068 0
M  V30 2670 C 229.265 1.74557 -0.729817 0
M  V30 2671 O 228.608 1.81083 0.308962 0
M  V30 2672 C 228.67 1.75119 -3.13964 0
M  V30 2673 C 228.334 1.03646 -4.45091 0
M  V30 2674 C 229.331 0.383276 -5.18485 0
M  V30 2675 C 227.016 1.02148 -4.91804 0
M  V30 2676 C 229.01 -0.275347 -6.36805 0
M  V30 2677 C 226.697 0.359047 -6.10044 0
M  V30 2678 C 227.695 -0.288222 -6.82392 0
M  V30 2679 O 227.383 -0.94011 -7.98384 0
M  V30 2680 H 227.115 0.251864 -0.627328 0
M  V30 2681 H 229.669 0.124782 -2.05021 0
M  V30 2682 H 227.899 2.52295 -2.9306 0
M  V30 2683 H 229.588 2.3478 -3.31109 0
M  V30 2684 H 230.354 0.386562 -4.83457 0
M  V30 2685 H 226.233 1.5147 -4.35405 0
M  V30 2686 H 229.777 -0.781148 -6.93213 0
M  V30 2687 H 225.674 0.35348 -6.44531 0
M  V30 2688 H 226.442 -0.84329 -8.14144 0
M  V30 2689 N 229.106 1.52395 0.401703 0
M  V30 2690 C 230.053 1.76268 1.48991 0
M  V30 2691 C 231.023 0.605386 1.54675 0
M  V30 2692 O 232.208 0.843742 1.7113 0
M  V30 2693 C 229.348 1.92592 2.86361 0
M  V30 2694 C 228.461 3.20259 2.89928 0
M  V30 2695 C 227.596 3.26972 4.18644 0
M  V30 2696 C 226.635 4.48812 4.16214 0
M  V30 2697 N 225.772 4.52877 5.36514 0
M  V30 2698 H 230.612 2.6914 1.27935 0
M  V30 2699 H 228.149 1.33355 0.620871 0
M  V30 2700 H 230.107 2.0004 3.66115 0
M  V30 2701 H 228.737 1.03093 3.05895 0
M  V30 2702 H 227.789 3.21945 2.02621 0
M  V30 2703 H 229.101 4.10056 2.83999 0
M  V30 2704 H 228.255 3.33533 5.06794 0
M  V30 2705 H 226.994 2.35126 4.27278 0
M  V30 2706 H 225.999 4.4239 3.26453 0
M  V30 2707 H 227.224 5.41961 4.09213 0
M  V30 2708 H 225.17 3.63917 5.45802 0
M  V30 2709 H 225.087 5.36529 5.32609 0
M  V30 2710 H 226.355 4.63676 6.26597 0
M  V30 2711 N 230.584 -0.659388 1.43143 0
M  V30 2712 C 231.531 -1.77249 1.47822 0
M  V30 2713 C 232.501 -1.62818 0.328558 0
M  V30 2714 O 233.686 -1.83151 0.534838 0
M  V30 2715 C 230.826 -3.15371 1.40126 0
M  V30 2716 C 229.939 -3.4098 2.65249 0
M  V30 2717 C 229.074 -4.68915 2.49584 0
M  V30 2718 C 228.113 -4.87608 3.70006 0
M  V30 2719 N 227.25 -6.06796 3.53189 0
M  V30 2720 H 232.09 -1.72584 2.42938 0
M  V30 2721 H 229.627 -0.842297 1.20598 0
M  V30 2722 H 231.585 -3.9521 1.33659 0
M  V30 2723 H 230.215 -3.19121 0.485964 0
M  V30 2724 H 229.267 -2.55282 2.8202 0
M  V30 2725 H 230.579 -3.50681 3.54717 0
M  V30 2726 H 229.733 -5.56871 2.4079 0
M  V30 2727 H 228.472 -4.61524 1.5763 0
M  V30 2728 H 227.477 -3.9809 3.79215 0
M  V30 2729 H 228.702 -4.96834 4.62961 0
M  V30 2730 H 226.648 -6.00549 2.63965 0
M  V30 2731 H 226.565 -6.17428 4.36255 0
M  V30 2732 H 227.833 -6.9739 3.48236 0
M  V30 2733 N 232.062 -1.29571 -0.897171 0
M  V30 2734 C 233.01 -1.14802 -2.02295 0
M  V30 2735 C 234.004 -0.0629637 -1.69283 0
M  V30 2736 O 235.21 -0.222945 -1.78614 0
M  V30 2737 H 231.585 -0.354692 -0.663097 0
M  V30 2738 H 233.556 -2.10108 -2.11889 0
M  V30 2739 C 232.305 -0.843966 -3.37302 0
M  V30 2740 H 231.628 -1.67093 -3.63208 0
M  V30 2741 H 233.068 -0.780672 -4.16751 0
M  V30 2742 C 231.527 0.452843 -3.33843 0
M  V30 2743 O 232.057 1.47813 -3.73516 0
M  V30 2744 N 230.263 0.459601 -2.86943 0
M  V30 2745 H 229.81 -0.375213 -2.54853 0
M  V30 2746 H 229.768 1.32726 -2.85011 0
M  V30 2747 N 233.54 1.10788 -1.12088 0
M  V30 2748 C 234.789 1.82036 -0.868659 0
M  V30 2749 C 235.102 1.85929 0.607426 0
M  V30 2750 O 236.308 2.53346 0.97613 0
M  V30 2751 C 234.764 3.26951 -1.50435 0
M  V30 2752 C 234.372 3.31367 -3.01496 0
M  V30 2753 C 236.116 4.03053 -1.33225 0
M  V30 2754 C 234.023 4.7072 -3.58017 0
M  V30 2755 H 232.953 0.682108 -0.321318 0
M  V30 2756 H 235.604 1.24618 -1.34694 0
M  V30 2757 H 233.986 3.84343 -0.953735 0
M  V30 2758 H 235.16 2.83819 -3.6302 0
M  V30 2759 H 233.475 2.6875 -3.18061 0
M  V30 2760 H 236.072 5.05981 -1.72878 0
M  V30 2761 H 236.415 4.15387 -0.275529 0
M  V30 2762 H 236.948 3.52066 -1.85188 0
M  V30 2763 H 233.687 4.63585 -4.63432 0
M  V30 2764 H 233.207 5.1865 -3.01268 0
M  V30 2765 H 234.886 5.39685 -3.56859 0
M  V30 2766 N 235.018 0.912232 1.28515 0
M  V30 2767 C 236.264 0.545405 1.95328 0
M  V30 2768 C 236.597 -0.908313 1.71649 0
M  V30 2769 O 235.872 -1.64575 1.03659 0
M  V30 2770 C 236.155 0.853483 3.4984 0
M  V30 2771 C 236.008 2.35982 3.82926 0
M  V30 2772 C 237.327 0.348589 4.38717 0
M  V30 2773 H 234.446 0.199626 0.709449 0
M  V30 2774 H 237.088 1.1412 1.5191 0
M  V30 2775 H 235.238 0.34643 3.86952 0
M  V30 2776 H 236.91 2.93738 3.55691 0
M  V30 2777 H 235.153 2.81543 3.30024 0
M  V30 2778 H 235.824 2.52593 4.90816 0
M  V30 2779 H 238.3 0.78294 4.08668 0
M  V30 2780 H 237.176 0.593242 5.45685 0
M  V30 2781 H 237.437 -0.751049 4.35674 0
M  V30 2782 N 236.496 -1.42363 0.676048 0
M  V30 2783 C 237.745 -2.00745 0.196037 0
M  V30 2784 C 238.058 -1.54083 -1.20489 0
M  V30 2785 O 239.264 -2.04891 -1.78134 0
M  V30 2786 C 237.72 -3.58651 0.299616 0
M  V30 2787 C 237.328 -4.143 1.70468 0
M  V30 2788 C 239.072 -4.24326 -0.121619 0
M  V30 2789 C 236.979 -5.64574 1.76096 0
M  V30 2790 H 235.909 -0.750787 0.0695301 0
M  V30 2791 H 238.56 -1.63072 0.841412 0
M  V30 2792 H 236.942 -3.93833 -0.413673 0
M  V30 2793 H 238.116 -3.90575 2.44515 0
M  V30 2794 H 236.431 -3.61081 2.07387 0
M  V30 2795 H 239.028 -5.34607 -0.0997362 0
M  V30 2796 H 239.371 -3.99897 -1.15708 0
M  V30 2797 H 239.904 -3.94108 0.540706 0
M  V30 2798 H 236.643 -5.93804 2.77628 0
M  V30 2799 H 236.163 -5.90286 1.06406 0
M  V30 2800 H 237.842 -6.29013 1.51496 0
M  V30 2801 N 237.974 -0.419461 -1.51915 0
M  V30 2802 C 239.39 -0.0708431 -1.59443 0
M  V30 2803 C 239.59 1.41796 -1.43164 0
M  V30 2804 O 238.646 2.18596 -1.26381 0
M  V30 2805 C 239.959 -0.574991 -2.95151 0
M  V30 2806 C 241.507 -0.533867 -3.08413 0
M  V30 2807 C 241.982 -1.01469 -4.46618 0
M  V30 2808 N 243.473 -0.971939 -4.52888 0
M  V30 2809 C 244.208 -1.31505 -5.58116 0
M  V30 2810 N 243.704 -1.73014 -6.70849 0
M  V30 2811 N 245.497 -1.23436 -5.48379 0
M  V30 2812 H 237.648 -1.38836 -1.60743 0
M  V30 2813 H 239.911 -0.570998 -0.756747 0
M  V30 2814 H 239.617 -1.61597 -3.12377 0
M  V30 2815 H 239.491 0.00979777 -3.77199 0
M  V30 2816 H 241.878 0.498086 -2.90866 0
M  V30 2817 H 241.959 -1.15484 -2.28248 0
M  V30 2818 H 241.603 -2.04502 -4.6491 0
M  V30 2819 H 241.533 -0.370433 -5.25295 0
M  V30 2820 H 244.024 -0.666893 -3.71969 0
M  V30 2821 H 244.337 -1.97479 -7.47143 0
M  V30 2822 H 242.682 -1.76926 -6.72103 0
M  V30 2823 H 245.873 -0.908869 -4.59192 0
M  V30 2824 H 246.046 -1.50506 -6.30279 0
M  V30 2825 N 239.452 1.56882 -0.150215 0
M  V30 2826 C 240.399 2.16922 0.788244 0
M  V30 2827 C 241.369 1.10303 1.24187 0
M  V30 2828 O 242.554 1.38359 1.31383 0
M  V30 2829 C 239.694 2.79754 2.02068 0
M  V30 2830 C 238.807 4.00775 1.61257 0
M  V30 2831 C 237.942 4.51595 2.79705 0
M  V30 2832 C 236.981 5.65074 2.35282 0
M  V30 2833 N 236.118 6.10499 3.4675 0
M  V30 2834 H 240.958 2.96779 0.269444 0
M  V30 2835 H 238.495 1.46599 0.12128 0
M  V30 2836 H 240.453 3.14329 2.74323 0
M  V30 2837 H 239.083 2.02536 2.51354 0
M  V30 2838 H 238.135 3.72158 0.787553 0
M  V30 2839 H 239.447 4.82978 1.24633 0
M  V30 2840 H 238.601 4.88242 3.60145 0
M  V30 2841 H 237.34 3.68406 3.19576 0
M  V30 2842 H 236.345 5.28 1.53283 0
M  V30 2843 H 237.57 6.50052 1.96493 0
M  V30 2844 H 235.516 5.30243 3.86236 0
M  V30 2845 H 235.433 6.87637 3.14152 0
M  V30 2846 H 236.701 6.51791 4.27537 0
M  V30 2847 N 240.93 -0.123565 1.57115 0
M  V30 2848 C 241.893 -1.13583 1.99076 0
M  V30 2849 C 242.893 -1.34564 0.880296 0
M  V30 2850 O 244.083 -1.31158 1.14644 0
M  V30 2851 C 241.215 -2.49128 2.32698 0
M  V30 2852 H 242.408 -0.775287 2.89706 0
M  V30 2853 H 239.961 -0.36771 1.51913 0
M  V30 2854 H 240.696 -2.90111 1.44934 0
M  V30 2855 H 240.481 -2.35255 3.13684 0
M  V30 2856 H 241.971 -3.2199 2.65918 0
M  V30 2857 N 242.408 -1.52605 -0.393616 0
M  V30 2858 C 243.318 -1.79971 -1.50492 0
M  V30 2859 C 244.334 -0.686181 -1.59899 0
M  V30 2860 O 245.51 -0.973274 -1.76322 0
M  V30 2861 C 242.575 -1.95867 -2.86072 0
M  V30 2862 C 241.636 -3.19781 -2.86424 0
M  V30 2863 C 240.869 -3.34909 -4.15538 0
M  V30 2864 O 241.092 -2.54948 -5.10253 0
M  V30 2865 O 240.026 -4.28141 -4.23059 0
M  V30 2866 H 243.852 -2.74328 -1.30299 0
M  V30 2867 H 241.437 -1.3764 -0.581005 0
M  V30 2868 H 243.319 -2.08056 -3.66457 0
M  V30 2869 H 241.994 -1.04699 -3.063 0
M  V30 2870 H 240.901 -3.13038 -2.04837 0
M  V30 2871 H 242.234 -4.1078 -2.71147 0
M  V30 2872 N 243.887 0.651787 -1.4349 0
M  V30 2873 C 245.115 1.43937 -1.48626 0
M  V30 2874 C 245.53 1.8851 -0.104587 0
M  V30 2875 O 244.887 1.5958 0.885464 0
M  V30 2876 C 244.938 2.6734 -2.43334 0
M  V30 2877 O 244.659 2.24631 -3.76128 0
M  V30 2878 C 246.16 3.60683 -2.57726 0
M  V30 2879 H 243.38 0.44213 -0.504739 0
M  V30 2880 H 245.924 0.798944 -1.88248 0
M  V30 2881 H 244.079 3.2752 -2.06904 0
M  V30 2882 H 244.493 3.04485 -4.2707 0
M  V30 2883 H 245.967 4.43933 -3.28067 0
M  V30 2884 H 246.444 4.08126 -1.62265 0
M  V30 2885 H 247.05 3.06384 -2.94973 0
M  V30 2886 N 245.365 1.30045 0.890287 0
M  V30 2887 C 246.614 1.17929 1.63633 0
M  V30 2888 C 246.927 -0.266204 1.9378 0
M  V30 2889 O 248.133 -0.508804 2.6669 0
M  V30 2890 C 246.589 2.06317 2.94892 0
M  V30 2891 C 246.197 3.55745 2.72305 0
M  V30 2892 C 247.941 2.0295 3.72843 0
M  V30 2893 C 245.848 4.36205 3.99348 0
M  V30 2894 H 244.778 0.437782 0.613892 0
M  V30 2895 H 247.429 1.54754 0.986075 0
M  V30 2896 H 245.811 1.6237 3.61182 0
M  V30 2897 H 246.985 4.07805 2.1455 0
M  V30 2898 H 245.3 3.6088 2.07737 0
M  V30 2899 H 247.897 2.60319 4.67053 0
M  V30 2900 H 248.24 1.0117 4.0382 0
M  V30 2901 H 248.773 2.4499 3.13408 0
M  V30 2902 H 245.512 5.38659 3.73533 0
M  V30 2903 H 245.032 3.8891 4.56628 0
M  V30 2904 H 246.711 4.47362 4.67415 0
M  V30 2905 N 246.843 -1.10192 1.12674 0
M  V30 2906 C 247.775 -2.16418 0.754701 0
M  V30 2907 C 248.788 -1.61309 -0.21986 0
M  V30 2908 O 249.977 -1.785 -0.000826841 0
M  V30 2909 C 247.077 -3.38762 0.096698 0
M  V30 2910 C 246.25 -4.23307 1.10136 0
M  V30 2911 C 245.309 -5.24092 0.470513 0
M  V30 2912 O 244.335 -5.57906 1.12824 0
M  V30 2913 N 245.537 -5.75491 -0.760948 0
M  V30 2914 H 248.302 -2.48943 1.66875 0
M  V30 2915 H 245.863 -1.25834 1.01869 0
M  V30 2916 H 247.855 -4.03291 -0.337384 0
M  V30 2917 H 246.425 -3.04192 -0.720153 0
M  V30 2918 H 245.645 -3.55036 1.71299 0
M  V30 2919 H 246.933 -4.76624 1.78064 0
M  V30 2920 H 246.331 -5.50222 -1.31424 0
M  V30 2921 H 244.888 -6.41792 -1.13781 0
M  V30 2922 N 248.321 -0.919034 -1.28029 0
M  V30 2923 C 249.546 -0.570357 -1.99403 0
M  V30 2924 C 249.971 0.842486 -1.68178 0
M  V30 2925 O 249.329 1.56391 -0.917141 0
M  V30 2926 C 249.377 -0.792541 -3.51783 0
M  V30 2927 O 248.481 0.145988 -4.12142 0
M  V30 2928 H 247.822 -0.220555 -0.6263 0
M  V30 2929 H 250.352 -1.23592 -1.63053 0
M  V30 2930 H 250.362 -0.704708 -4.01868 0
M  V30 2931 H 249.037 -1.82247 -3.73844 0
M  V30 2932 H 247.614 0.00897528 -3.72899 0
M  V30 2933 N 249.799 1.42003 -0.683588 0
M  V30 2934 C 251.21 1.84501 -0.285736 0
M  V30 2935 C 251.561 1.57213 1.17382 0
M  V30 2936 O 250.686 1.03642 1.89966 0
M  V30 2937 C 251.281 3.34912 -0.511821 0
M  V30 2938 C 249.84 3.76025 -0.168005 0
M  V30 2939 C 248.987 2.6551 -0.799983 0
M  V30 2940 H 251.938 1.31724 -0.885119 0
M  V30 2941 H 251.959 3.79784 0.233292 0
M  V30 2942 H 251.471 3.54741 -1.57418 0
M  V30 2943 H 249.572 3.61801 0.890567 0
M  V30 2944 H 249.685 4.75141 -0.614661 0
M  V30 2945 H 248.049 2.53654 -0.230568 0
M  V30 2946 H 248.832 2.8816 -1.86597 0
M  V30 2947 N 251.277 0.427512 1.51691 0
M  V30 2948 C 252.526 -0.143679 2.01188 0
M  V30 2949 C 252.839 -1.44642 1.31674 0
M  V30 2950 O 254.045 -2.09997 1.72086 0
M  V30 2951 C 252.501 -0.306602 3.58592 0
M  V30 2952 C 252.109 0.985125 4.37035 0
M  V30 2953 C 253.853 -0.832091 4.16265 0
M  V30 2954 C 251.76 0.788382 5.86122 0
M  V30 2955 H 250.69 -0.0574701 0.751807 0
M  V30 2956 H 253.341 0.555772 1.74881 0
M  V30 2957 H 251.723 -1.06882 3.81303 0
M  V30 2958 H 252.897 1.75492 4.26074 0
M  V30 2959 H 251.212 1.4384 3.90767 0
M  V30 2960 H 253.809 -0.995617 5.25349 0
M  V30 2961 H 254.152 -1.81186 3.74803 0
M  V30 2962 H 254.685 -0.128444 3.97593 0
M  V30 2963 H 251.424 1.74025 6.31978 0
M  V30 2964 H 250.944 0.0582143 5.99772 0
M  V30 2965 H 252.623 0.437722 6.45518 0
M  V30 2966 N 252.755 -1.56801 0.158532 0
M  V30 2967 C 253.983 -2.00859 -0.496303 0
M  V30 2968 C 254.398 -1.03871 -1.57659 0
M  V30 2969 O 253.755 -0.0375165 -1.82461 0
M  V30 2970 C 253.806 -3.4479 -1.08638 0
M  V30 2971 O 253.527 -4.38072 -0.0492322 0
M  V30 2972 C 255.028 -4.04185 -1.8207 0
M  V30 2973 H 252.248 -0.65864 -0.128199 0
M  V30 2974 H 254.792 -2.02885 0.256506 0
M  V30 2975 H 252.947 -3.43579 -1.78975 0
M  V30 2976 H 253.361 -5.2227 -0.483102 0
M  V30 2977 H 254.835 -5.06857 -2.18633 0
M  V30 2978 H 255.312 -3.45549 -2.71095 0
M  V30 2979 H 255.918 -4.0906 -1.16405 0
M  V30 2980 N 254.233 0.115231 -1.57178 0
M  V30 2981 C 255.48 0.822351 -1.8505 0
M  V30 2982 C 255.808 1.79701 -0.744168 0
M  V30 2983 O 255.063 1.93909 0.26414 0
M  V30 2984 C 255.362 1.60324 -3.19423 0
M  V30 2985 C 255.028 0.772536 -4.44233 0
M  V30 2986 C 253.69 0.543468 -4.78121 0
M  V30 2987 C 256.042 0.193746 -5.2084 0
M  V30 2988 C 253.37 -0.274583 -5.86057 0
M  V30 2989 C 255.722 -0.611517 -6.29637 0
M  V30 2990 C 254.386 -0.850867 -6.62055 0
M  V30 2991 H 253.656 0.30092 -0.677147 0
M  V30 2992 H 256.303 0.0845802 -1.91313 0
M  V30 2993 H 254.608 2.41203 -3.08753 0
M  V30 2994 H 256.305 2.1544 -3.38211 0
M  V30 2995 H 252.895 0.96117 -4.17683 0
M  V30 2996 H 257.079 0.357926 -4.95008 0
M  V30 2997 H 252.335 -0.469206 -6.09597 0
M  V30 2998 H 256.509 -1.06697 -6.88178 0
M  V30 2999 H 254.136 -1.48657 -7.45523 0
M  V30 3000 N 255.711 1.52812 0.385517 0
M  V30 3001 C 256.957 1.69225 1.12847 0
M  V30 3002 C 257.312 0.42864 1.87564 0
M  V30 3003 O 256.605 -0.57779 1.8268 0
M  V30 3004 C 256.799 2.86856 2.13187 0
M  V30 3005 C 256.628 4.24535 1.48325 0
M  V30 3006 C 255.398 4.89701 1.24585 0
M  V30 3007 C 257.596 5.05794 0.931501 0
M  V30 3008 N 255.578 6.11353 0.558644 0
M  V30 3009 C 256.949 6.1888 0.372552 0
M  V30 3010 C 259.004 4.90963 0.828248 0
M  V30 3011 C 257.707 7.18757 -0.279556 0
M  V30 3012 C 259.733 5.91095 0.189956 0
M  V30 3013 C 259.095 7.03489 -0.358207 0
M  V30 3014 H 255.194 0.67268 0.39878 0
M  V30 3015 H 257.778 1.9017 0.417528 0
M  V30 3016 H 255.949 2.67484 2.81614 0
M  V30 3017 H 257.681 2.92188 2.80014 0
M  V30 3018 H 254.436 4.48485 1.52178 0
M  V30 3019 H 254.86 6.76606 0.230983 0
M  V30 3020 H 259.502 4.04274 1.23784 0
M  V30 3021 H 257.22 8.05052 -0.701152 0
M  V30 3022 H 260.806 5.81694 0.111264 0
M  V30 3023 H 259.686 7.79642 -0.844314 0
M  V30 3024 N 257.189 -0.644168 1.43834 0
M  V30 3025 C 258.419 -1.42939 1.49171 0
M  V30 3026 C 258.827 -1.88874 0.111048 0
M  V30 3027 O 258.17 -1.60656 -0.8908 0
M  V30 3028 C 258.232 -2.69151 2.38324 0
M  V30 3029 C 257.896 -2.45097 3.85715 0
M  V30 3030 C 258.893 -2.07747 4.76589 0
M  V30 3031 C 256.578 -2.59141 4.30292 0
M  V30 3032 C 258.572 -1.8475 6.10038 0
M  V30 3033 C 256.259 -2.35759 5.63792 0
M  V30 3034 C 257.257 -1.9862 6.53482 0
M  V30 3035 O 256.945 -1.75489 7.84512 0
M  V30 3036 H 256.677 -0.445271 0.508635 0
M  V30 3037 H 259.231 -0.79621 1.8934 0
M  V30 3038 H 257.461 -3.3506 1.93058 0
M  V30 3039 H 259.15 -3.31123 2.3476 0
M  V30 3040 H 259.916 -1.96465 4.43426 0
M  V30 3041 H 255.795 -2.87022 3.60749 0
M  V30 3042 H 259.339 -1.55686 6.80006 0
M  V30 3043 H 255.236 -2.46646 5.9652 0
M  V30 3044 H 256.004 -1.89841 7.9618 0
M  V30 3045 N 258.668 -1.30515 -0.883378 0
M  V30 3046 C 259.916 -1.19194 -1.63209 0
M  V30 3047 C 260.237 0.253205 -1.93349 0
M  V30 3048 O 259.507 1.17025 -1.57105 0
M  V30 3049 H 258.087 -0.438148 -0.605009 0
M  V30 3050 H 260.749 -1.63663 -1.05832 0
M  V30 3051 H 259.845 -1.75396 -2.58153 0
M  V30 3052 N 260.146 1.09593 -1.13257 0
M  V30 3053 C 261.093 2.1618 -0.808381 0
M  V30 3054 C 262.063 1.64517 0.228754 0
M  V30 3055 O 263.248 1.9053 0.101381 0
M  V30 3056 C 260.388 3.43973 -0.278675 0
M  V30 3057 C 259.501 4.09545 -1.37466 0
M  V30 3058 C 258.636 5.25088 -0.803479 0
M  V30 3059 C 257.675 5.82579 -1.87799 0
M  V30 3060 N 256.812 6.89486 -1.32488 0
M  V30 3061 H 261.652 2.43254 -1.72138 0
M  V30 3062 H 259.189 1.19392 -0.859294 0
M  V30 3063 H 261.147 4.17174 0.0465583 0
M  V30 3064 H 259.777 3.17223 0.597459 0
M  V30 3065 H 258.829 3.34226 -1.81652 0
M  V30 3066 H 260.141 4.48307 -2.18684 0
M  V30 3067 H 259.295 6.05178 -0.429427 0
M  V30 3068 H 258.034 4.87684 0.0397956 0
M  V30 3069 H 257.039 5.01152 -2.26113 0
M  V30 3070 H 258.264 6.22045 -2.72463 0
M  V30 3071 H 256.21 6.54064 -0.503575 0
M  V30 3072 H 256.127 7.27007 -2.07355 0
M  V30 3073 H 257.395 7.73336 -0.978336 0
M  V30 3074 N 261.624 0.925811 1.2754 0
M  V30 3075 C 262.854 0.580666 1.98272 0
M  V30 3076 C 263.262 -0.845207 1.69272 0
M  V30 3077 O 262.605 -1.57306 0.948707 0
M  V30 3078 C 262.667 0.724418 3.52126 0
M  V30 3079 C 262.331 2.12206 4.04744 0
M  V30 3080 C 263.328 3.09604 4.17662 0
M  V30 3081 C 261.013 2.4385 4.39138 0
M  V30 3082 C 263.007 4.36755 4.64246 0
M  V30 3083 C 260.694 3.71237 4.85414 0
M  V30 3084 C 261.692 4.67503 4.97926 0
M  V30 3085 O 261.38 5.92624 5.43187 0
M  V30 3086 H 261.112 0.218987 0.639547 0
M  V30 3087 H 263.666 1.24452 1.63404 0
M  V30 3088 H 261.896 0.0034663 3.867 0
M  V30 3089 H 263.585 0.384607 4.04074 0
M  V30 3090 H 264.351 2.86478 3.91351 0
M  V30 3091 H 260.23 1.69665 4.28643 0
M  V30 3092 H 263.774 5.11898 4.73927 0
M  V30 3093 H 259.671 3.94182 5.11166 0
M  V30 3094 H 260.439 5.95585 5.61445 0
M  V30 3095 N 263.102 -1.41638 0.69111 0
M  V30 3096 C 264.351 -2.00526 0.217318 0
M  V30 3097 C 264.664 -1.55353 -1.18848 0
M  V30 3098 O 265.87 -2.06769 -1.75951 0
M  V30 3099 C 264.326 -3.58313 0.337639 0
M  V30 3100 C 263.934 -4.12469 1.74852 0
M  V30 3101 C 265.678 -4.24431 -0.0766066 0
M  V30 3102 C 263.585 -5.62675 1.82074 0
M  V30 3103 H 262.515 -0.750008 0.0774893 0
M  V30 3104 H 265.166 -1.6217 0.858661 0
M  V30 3105 H 263.548 -3.9425 -0.371879 0
M  V30 3106 H 264.722 -3.8796 2.48644 0
M  V30 3107 H 263.037 -3.58861 2.11205 0
M  V30 3108 H 265.634 -5.34683 -0.0430284 0
M  V30 3109 H 265.977 -4.01101 -1.1146 0
M  V30 3110 H 266.51 -3.93512 0.582476 0
M  V30 3111 H 263.249 -5.90826 2.83911 0
M  V30 3112 H 262.769 -5.89124 1.12661 0
M  V30 3113 H 264.448 -6.27371 1.58159 0
M  V30 3114 N 264.58 -0.43555 -1.51462 0
M  V30 3115 C 265.829 0.133007 -2.01261 0
M  V30 3116 C 266.142 1.43942 -1.32439 0
M  V30 3117 O 267.348 2.09081 -1.73198 0
M  V30 3118 C 265.804 0.287581 -3.58749 0
M  V30 3119 C 265.412 -1.00829 -4.36506 0
M  V30 3120 C 267.156 0.810004 -4.167 0
M  V30 3121 C 265.063 -0.819454 -5.85695 0
M  V30 3122 H 263.993 0.0534822 -0.752101 0
M  V30 3123 H 266.644 -0.565038 -1.74584 0
M  V30 3124 H 265.026 1.04859 -3.81865 0
M  V30 3125 H 266.2 -1.77749 -4.25138 0
M  V30 3126 H 264.515 -1.45911 -3.89999 0
M  V30 3127 H 267.112 0.967743 -5.2587 0
M  V30 3128 H 267.455 1.79196 -3.75758 0
M  V30 3129 H 267.988 0.107357 -3.97655 0
M  V30 3130 H 264.727 -1.77374 -6.31046 0
M  V30 3131 H 264.247 -0.0900208 -5.99732 0
M  V30 3132 H 265.926 -0.471949 -6.45276 0
M  V30 3133 N 266.058 1.56714 -0.166846 0
M  V30 3134 C 266.988 2.20754 0.760913 0
M  V30 3135 C 267.969 1.16178 1.24244 0
M  V30 3136 O 269.154 1.44592 1.29641 0
M  V30 3137 C 266.284 2.84478 1.99223 0
M  V30 3138 C 265.238 3.95053 1.64672 0
M  V30 3139 C 264.564 4.45805 2.95232 0
M  V30 3140 C 265.864 5.14865 0.878155 0
M  V30 3141 H 267.558 2.98537 0.22713 0
M  V30 3142 H 265.104 1.43596 0.107805 0
M  V30 3143 H 267.057 3.27951 2.64624 0
M  V30 3144 H 265.781 2.04056 2.55007 0
M  V30 3145 H 264.44 3.52228 1.01641 0
M  V30 3146 H 264.088 3.62181 3.49047 0
M  V30 3147 H 263.788 5.204 2.7287 0
M  V30 3148 H 265.312 4.91962 3.6167 0
M  V30 3149 H 266.726 5.55059 1.43466 0
M  V30 3150 H 265.123 5.95348 0.753738 0
M  V30 3151 H 266.193 4.84735 -0.126377 0
M  V30 3152 N 267.536 -0.106894 1.57237 0
M  V30 3153 C 268.785 -0.811163 1.8467 0
M  V30 3154 C 269.098 -1.80469 0.754342 0
M  V30 3155 O 270.304 -2.55601 0.915439 0
M  V30 3156 C 268.76 -1.49337 3.27454 0
M  V30 3157 C 268.368 -0.540217 4.44731 0
M  V30 3158 C 270.112 -2.18206 3.64124 0
M  V30 3159 C 268.019 -1.22634 5.78545 0
M  V30 3160 H 266.949 -0.306679 0.688813 0
M  V30 3161 H 269.6 -0.0639887 1.83388 0
M  V30 3162 H 267.982 -2.2876 3.23241 0
M  V30 3163 H 269.156 0.221659 4.60267 0
M  V30 3164 H 267.471 0.042146 4.16379 0
M  V30 3165 H 270.068 -2.70253 4.61376 0
M  V30 3166 H 270.411 -2.96562 2.92158 0
M  V30 3167 H 270.944 -1.45658 3.70174 0
M  V30 3168 H 267.683 -0.483832 6.53712 0
M  V30 3169 H 267.203 -1.95993 5.66874 0
M  V30 3170 H 268.882 -1.75615 6.2271 0
M  V30 3171 N 269.014 -1.53014 -0.377408 0
M  V30 3172 C 270.425 -1.60438 -0.954798 0
M  V30 3173 C 270.776 -0.464418 -1.90624 0
M  V30 3174 O 269.901 0.41087 -2.12464 0
M  V30 3175 C 270.496 -2.90797 -1.73847 0
M  V30 3176 C 269.055 -3.00595 -2.26538 0
M  V30 3177 C 268.202 -2.55645 -1.07429 0
M  V30 3178 H 271.153 -1.57926 -0.156575 0
M  V30 3179 H 271.174 -2.77935 -2.5987 0
M  V30 3180 H 270.686 -3.73746 -1.04574 0
M  V30 3181 H 268.787 -2.22208 -2.99089 0
M  V30 3182 H 268.9 -4.05456 -2.5523 0
M  V30 3183 H 267.264 -2.10239 -1.43777 0
M  V30 3184 H 268.047 -3.41 -0.396728 0
M  V30 3185 N 270.492 0.636531 -1.44174 0
M  V30 3186 C 271.717 1.42847 -1.50364 0
M  V30 3187 C 272.142 1.87665 -0.127867 0
M  V30 3188 O 271.5 1.58408 0.88185 0
M  V30 3189 C 271.548 2.62854 -2.4686 0
M  V30 3190 O 270.652 3.62501 -1.9664 0
M  V30 3191 H 269.993 0.427642 -0.507955 0
M  V30 3192 H 272.523 0.777422 -1.89255 0
M  V30 3193 H 272.533 3.10465 -2.64718 0
M  V30 3194 H 271.208 2.29578 -3.46795 0
M  V30 3195 H 269.785 3.21735 -1.88523 0
M  V30 3196 N 271.97 1.30982 0.876444 0
M  V30 3197 C 273.195 1.23373 1.66715 0
M  V30 3198 C 273.62 -0.19885 1.87046 0
M  V30 3199 O 272.978 -1.1427 1.40756 0
M  V30 3200 C 273.026 1.97644 3.01611 0
M  V30 3201 O 272.13 1.30935 3.91062 0
M  V30 3202 H 271.471 0.426279 0.509099 0
M  V30 3203 H 274.001 1.72944 1.09323 0
M  V30 3204 H 274.011 2.06992 3.51594 0
M  V30 3205 H 272.686 3.01829 2.86133 0
M  V30 3206 H 271.263 1.29996 3.49507 0
M  V30 3207 N 273.449 -1.08991 1.13837 0
M  V30 3208 C 274.679 -1.84743 0.924859 0
M  V30 3209 C 275.087 -1.81629 -0.529874 0
M  V30 3210 O 274.43 -1.21397 -1.37872 0
M  V30 3211 C 274.492 -3.33568 1.34061 0
M  V30 3212 C 274.156 -3.60425 2.80968 0
M  V30 3213 C 275.153 -3.55771 3.79108 0
M  V30 3214 C 272.838 -3.88627 3.18236 0
M  V30 3215 C 274.832 -3.78939 5.12527 0
M  V30 3216 C 272.519 -4.11449 4.51833 0
M  V30 3217 C 273.517 -4.06598 5.48787 0
M  V30 3218 O 273.205 -4.28826 6.79973 0
M  V30 3219 H 272.937 -0.590258 0.329502 0
M  V30 3220 H 275.491 -1.38598 1.51591 0
M  V30 3221 H 273.721 -3.80442 0.692853 0
M  V30 3222 H 275.41 -3.90743 1.09886 0
M  V30 3223 H 276.176 -3.34005 3.51661 0
M  V30 3224 H 272.055 -3.91526 2.43369 0
M  V30 3225 H 275.599 -3.75068 5.88192 0
M  V30 3226 H 271.496 -4.32698 4.79002 0
M  V30 3227 H 272.264 -4.46264 6.86142 0
M  V30 3228 N 274.927 -0.932562 -1.27047 0
M  V30 3229 C 276.174 -0.575559 -1.94148 0
M  V30 3230 C 276.502 0.883984 -1.73251 0
M  V30 3231 O 275.757 1.64655 -1.0577 0
M  V30 3232 C 276.056 -0.853713 -3.47054 0
M  V30 3233 C 275.722 -2.29577 -3.88079 0
M  V30 3234 C 274.384 -2.68999 -3.9899 0
M  V30 3235 C 276.736 -3.23331 -4.08787 0
M  V30 3236 C 274.064 -4.01289 -4.28 0
M  V30 3237 C 276.416 -4.55207 -4.39282 0
M  V30 3238 C 275.08 -4.94457 -4.48407 0
M  V30 3239 H 274.35 -0.210612 -0.710439 0
M  V30 3240 H 276.997 -1.17744 -1.51025 0
M  V30 3241 H 275.302 -0.169204 -3.91434 0
M  V30 3242 H 276.999 -0.55639 -3.97121 0
M  V30 3243 H 273.589 -1.97994 -3.80127 0
M  V30 3244 H 277.773 -2.94074 -3.99793 0
M  V30 3245 H 273.029 -4.31374 -4.33275 0
M  V30 3246 H 277.203 -5.27852 -4.54252 0
M  V30 3247 H 274.83 -5.96994 -4.7064 0
M  V30 3248 N 276.405 1.4127 -0.698611 0
M  V30 3249 C 277.352 2.30773 -0.0352094 0
M  V30 3250 C 278.322 1.47273 0.768111 0
M  V30 3251 O 279.507 1.76053 0.735524 0
M  V30 3252 C 276.647 3.33346 0.893 0
M  V30 3253 C 275.76 4.31924 0.0809695 0
M  V30 3254 C 274.895 5.21566 1.0071 0
M  V30 3255 C 273.934 6.11811 0.188155 0
M  V30 3256 N 273.071 6.93926 1.06825 0
M  V30 3257 H 277.911 2.86943 -0.804207 0
M  V30 3258 H 275.448 1.4132 -0.408294 0
M  V30 3259 H 277.406 3.91368 1.44523 0
M  V30 3260 H 276.036 2.78719 1.62836 0
M  V30 3261 H 275.088 3.75825 -0.588224 0
M  V30 3262 H 276.4 4.95716 -0.553801 0
M  V30 3263 H 275.554 5.84437 1.62845 0
M  V30 3264 H 274.293 4.58008 1.67572 0
M  V30 3265 H 273.298 5.47986 -0.446254 0
M  V30 3266 H 274.523 6.77425 -0.476716 0
M  V30 3267 H 272.469 6.32973 1.72283 0
M  V30 3268 H 272.386 7.54416 0.489123 0
M  V30 3269 H 273.654 7.61262 1.67632 0
M  V30 3270 N 277.883 0.443576 1.51229 0
M  V30 3271 C 279.108 -0.121648 2.07043 0
M  V30 3272 C 279.533 -1.35156 1.30823 0
M  V30 3273 O 278.891 -1.7793 0.347934 0
M  V30 3274 C 278.939 -0.41624 3.5819 0
M  V30 3275 O 278.043 -1.50163 3.8409 0
M  V30 3276 H 277.384 0.000871367 0.663999 0
M  V30 3277 H 279.914 0.626706 1.94765 0
M  V30 3278 H 279.924 -0.664867 4.02546 0
M  V30 3279 H 278.599 0.482653 4.1309 0
M  V30 3280 H 277.176 -1.24248 3.51592 0
M  V30 3281 N 279.361 -1.56624 0.175154 0
M  V30 3282 C 280.607 -1.9729 -0.469506 0
M  V30 3283 C 280.94 -1.06128 -1.62636 0
M  V30 3284 O 280.215 -0.109183 -1.94193 0
M  V30 3285 C 280.498 -3.47375 -0.948804 0
M  V30 3286 C 280.351 -4.49317 0.208491 0
M  V30 3287 C 281.67 -4.00652 -1.82116 0
M  V30 3288 H 278.789 -0.717317 -0.16919 0
M  V30 3289 H 281.431 -1.88184 0.262062 0
M  V30 3290 H 279.581 -3.55267 -1.57219 0
M  V30 3291 H 281.253 -4.53482 0.845682 0
M  V30 3292 H 279.496 -4.25121 0.863395 0
M  V30 3293 H 280.167 -5.51741 -0.169059 0
M  V30 3294 H 282.643 -3.95416 -1.2956 0
M  V30 3295 H 281.519 -5.06075 -2.12554 0
M  V30 3296 H 281.78 -3.44699 -2.7683 0
M  V30 3297 N 280.839 0.0985539 -1.57292 0
M  V30 3298 C 282.088 0.801358 -1.85098 0
M  V30 3299 C 282.401 1.80066 -0.763902 0
M  V30 3300 O 283.607 2.55112 -0.928981 0
M  V30 3301 C 282.063 1.47599 -3.28242 0
M  V30 3302 C 281.671 0.516624 -4.45011 0
M  V30 3303 C 283.415 2.16272 -3.65276 0
M  V30 3304 C 281.322 1.19564 -5.79188 0
M  V30 3305 H 280.252 0.303022 -0.69043 0
M  V30 3306 H 282.903 0.0542623 -1.8342 0
M  V30 3307 H 281.285 2.27042 -3.2445 0
M  V30 3308 H 282.459 -0.246065 -4.60143 0
M  V30 3309 H 280.774 -0.064227 -4.1635 0
M  V30 3310 H 283.371 2.67802 -4.62803 0
M  V30 3311 H 283.714 2.95009 -2.93727 0
M  V30 3312 H 284.247 1.43693 -3.70941 0
M  V30 3313 H 280.986 0.449157 -6.53959 0
M  V30 3314 H 280.506 1.92984 -5.67906 0
M  V30 3315 H 282.185 1.7231 -6.23633 0
M  V30 3316 N 282.317 1.53212 0.369288 0
M  V30 3317 C 283.594 1.59815 1.12776 0
M  V30 3318 C 283.974 0.403402 2.0721 0
M  V30 3319 O 283.322 -0.606667 2.20299 0
M  V30 3320 C 283.532 2.94664 1.87013 0
M  V30 3321 C 284.88 3.49109 2.41677 0
M  V30 3322 O 285.904 2.96669 1.97144 0
M  V30 3323 O 284.763 4.40775 3.23079 0
M  V30 3324 H 281.857 0.645376 0.517125 0
M  V30 3325 H 284.403 1.65553 0.37285 0
M  V30 3326 H 283.175 3.73061 1.18071 0
M  V30 3327 H 282.798 2.92401 2.69421 0
M  V30 3328 N 283.795 -0.628877 1.44509 0
M  V30 3329 C 284.742 -1.74074 1.51549 0
M  V30 3330 C 285.712 -1.62084 0.363021 0
M  V30 3331 O 286.897 -1.81975 0.573567 0
M  V30 3332 C 284.037 -3.12328 1.46784 0
M  V30 3333 C 283.15 -3.35277 2.72422 0
M  V30 3334 C 282.285 -4.63515 2.59475 0
M  V30 3335 C 281.324 -4.7965 3.80266 0
M  V30 3336 N 280.461 -5.99168 3.65981 0
M  V30 3337 H 285.301 -1.67392 2.46544 0
M  V30 3338 H 282.838 -0.816527 1.22357 0
M  V30 3339 H 284.796 -3.92286 1.42012 0
M  V30 3340 H 283.426 -3.18018 0.553544 0
M  V30 3341 H 282.478 -2.49242 2.87372 0
M  V30 3342 H 283.79 -3.43078 3.62076 0
M  V30 3343 H 282.944 -5.51638 2.52548 0
M  V30 3344 H 281.683 -4.58076 1.67384 0
M  V30 3345 H 280.688 -3.89957 3.87574 0
M  V30 3346 H 281.913 -4.86902 4.73395 0
M  V30 3347 H 279.859 -5.94814 2.76644 0
M  V30 3348 H 279.776 -6.08035 4.49254 0
M  V30 3349 H 281.044 -6.89846 3.6295 0
M  V30 3350 N 285.273 -1.31445 -0.869486 0
M  V30 3351 C 286.689 -1.10113 -1.15531 0
M  V30 3352 C 286.889 0.128087 -2.01092 0
M  V30 3353 O 285.945 0.817276 -2.38908 0
M  V30 3354 C 287.258 -2.37291 -1.84698 0
M  V30 3355 C 288.806 -2.42906 -1.97397 0
M  V30 3356 C 289.281 -3.69967 -2.69979 0
M  V30 3357 N 290.772 -3.70864 -2.77514 0
M  V30 3358 C 291.507 -4.65875 -3.34287 0
M  V30 3359 N 291.003 -5.71242 -3.91988 0
M  V30 3360 N 292.796 -4.53394 -3.3225 0
M  V30 3361 H 284.947 -2.1028 -0.299347 0
M  V30 3362 H 287.21 -0.927683 -0.195214 0
M  V30 3363 H 286.916 -3.27078 -1.29278 0
M  V30 3364 H 286.79 -2.47125 -2.84972 0
M  V30 3365 H 289.177 -1.53588 -2.51982 0
M  V30 3366 H 289.258 -2.37036 -0.961643 0
M  V30 3367 H 288.902 -4.59652 -2.16062 0
M  V30 3368 H 288.832 -3.73103 -3.7162 0
M  V30 3369 H 291.323 -2.94697 -2.36563 0
M  V30 3370 H 291.636 -6.39817 -4.33421 0
M  V30 3371 H 289.981 -5.75015 -3.90362 0
M  V30 3372 H 293.172 -3.70252 -2.8641 0
M  V30 3373 H 293.345 -5.27617 -3.76197 0
M  V30 3374 N 286.751 1.08385 -1.14413 0
M  V30 3375 C 287.681 2.17321 -0.854044 0
M  V30 3376 C 288.662 1.69024 0.191049 0
M  V30 3377 O 289.847 1.94141 0.0476779 0
M  V30 3378 C 286.977 3.45719 -0.330983 0
M  V30 3379 C 285.931 4.07409 -1.31155 0
M  V30 3380 C 285.257 5.30762 -0.64778 0
M  V30 3381 C 286.557 4.48665 -2.67388 0
M  V30 3382 H 288.251 2.41845 -1.76498 0
M  V30 3383 H 285.797 1.16233 -0.850051 0
M  V30 3384 H 287.75 4.21241 -0.115645 0
M  V30 3385 H 286.474 3.2075 0.615381 0
M  V30 3386 H 285.133 3.33919 -1.51306 0
M  V30 3387 H 284.781 5.02078 0.304398 0
M  V30 3388 H 284.481 5.72992 -1.30207 0
M  V30 3389 H 286.005 6.08998 -0.441972 0
M  V30 3390 H 287.419 5.15364 -2.51143 0
M  V30 3391 H 285.816 5.01814 -3.29093 0
M  V30 3392 H 286.886 3.60543 -3.24248 0
M  V30 3393 N 288.23 0.939286 1.26551 0
M  V30 3394 C 289.177 0.446088 2.26448 0
M  V30 3395 C 290.147 -0.493234 1.58608 0
M  V30 3396 O 291.332 -0.409857 1.86346 0
M  V30 3397 C 288.472 -0.284375 3.43926 0
M  V30 3398 C 287.585 0.690399 4.26448 0
M  V30 3399 C 286.72 -0.0610712 5.31165 0
M  V30 3400 C 285.759 0.905649 6.05363 0
M  V30 3401 N 284.896 0.186055 7.01853 0
M  V30 3402 H 289.736 1.30291 2.68008 0
M  V30 3403 H 287.273 0.65371 1.31776 0
M  V30 3404 H 289.231 -0.724313 4.10864 0
M  V30 3405 H 287.861 -1.10535 3.03285 0
M  V30 3406 H 286.913 1.24885 3.59316 0
M  V30 3407 H 288.225 1.42873 4.779 0
M  V30 3408 H 287.379 -0.56038 6.04106 0
M  V30 3409 H 286.118 -0.832297 4.80546 0
M  V30 3410 H 285.123 1.4161 5.3125 0
M  V30 3411 H 286.348 1.67685 6.58072 0
M  V30 3412 H 284.294 -0.566714 6.53548 0
M  V30 3413 H 284.211 0.863752 7.51049 0
M  V30 3414 H 285.479 -0.292221 7.78952 0
M  V30 3415 N 289.708 -1.40897 0.706093 0
M  V30 3416 C 290.938 -2.05075 0.250523 0
M  V30 3417 C 291.346 -1.53275 -1.10921 0
M  V30 3418 O 290.689 -0.680281 -1.7064 0
M  V30 3419 C 290.751 -3.59219 0.142178 0
M  V30 3420 C 290.415 -4.33864 1.43566 0
M  V30 3421 C 291.412 -4.62448 2.37566 0
M  V30 3422 C 289.097 -4.72946 1.69195 0
M  V30 3423 C 291.091 -5.29088 3.5545 0
M  V30 3424 C 288.778 -5.3932 2.87362 0
M  V30 3425 C 289.776 -5.6732 3.80312 0
M  V30 3426 O 289.464 -6.32325 4.96408 0
M  V30 3427 H 289.196 -0.666645 0.112074 0
M  V30 3428 H 291.75 -1.81467 0.962239 0
M  V30 3429 H 289.98 -3.81609 -0.6254 0
M  V30 3430 H 291.669 -4.0495 -0.277584 0
M  V30 3431 H 292.435 -4.32727 2.19027 0
M  V30 3432 H 288.314 -4.50527 0.977042 0
M  V30 3433 H 291.858 -5.50859 4.28018 0
M  V30 3434 H 287.755 -5.68461 3.05814 0
M  V30 3435 H 288.523 -6.50821 4.9636 0
M  V30 3436 N 291.186 -0.45159 -1.50991 0
M  V30 3437 C 292.435 0.111653 -2.01391 0
M  V30 3438 C 292.748 1.42529 -1.33959 0
M  V30 3439 O 293.954 2.07232 -1.75405 0
M  V30 3440 C 292.41 0.249514 -3.59034 0
M  V30 3441 C 292.018 -1.05453 -4.35412 0
M  V30 3442 C 293.762 0.765762 -4.17536 0
M  V30 3443 C 291.669 -0.881529 -5.84793 0
M  V30 3444 H 290.599 0.0455022 -0.752626 0
M  V30 3445 H 293.25 -0.583524 -1.73975 0
M  V30 3446 H 291.632 1.00803 -3.82955 0
M  V30 3447 H 292.806 -1.82248 -4.23229 0
M  V30 3448 H 291.121 -1.50039 -3.88429 0
M  V30 3449 H 293.718 0.911913 -5.26866 0
M  V30 3450 H 294.061 1.75201 -3.77638 0
M  V30 3451 H 294.594 0.0651744 -3.97747 0
M  V30 3452 H 291.333 -1.84057 -6.29129 0
M  V30 3453 H 290.853 -0.153625 -5.99603 0
M  V30 3454 H 292.532 -0.540363 -6.4474 0
M  V30 3455 N 292.664 1.56529 -0.183458 0
M  V30 3456 C 293.913 1.96419 0.458511 0
M  V30 3457 C 294.226 1.0727 1.63562 0
M  V30 3458 O 295.432 1.36893 2.34462 0
M  V30 3459 C 293.888 3.49298 0.867122 0
M  V30 3460 C 293.496 4.47092 -0.285057 0
M  V30 3461 C 295.24 3.97983 1.47683 0
M  V30 3462 C 293.147 5.91225 0.143862 0
M  V30 3463 H 292.077 0.733394 0.175071 0
M  V30 3464 H 294.728 1.81448 -0.273624 0
M  V30 3465 H 293.11 3.59731 1.65559 0
M  V30 3466 H 294.284 4.48383 -1.0625 0
M  V30 3467 H 292.599 4.08535 -0.805503 0
M  V30 3468 H 295.196 5.03134 1.80999 0
M  V30 3469 H 295.539 3.41618 2.37914 0
M  V30 3470 H 296.072 3.90617 0.752562 0
M  V30 3471 H 292.811 6.5149 -0.723974 0
M  V30 3472 H 292.331 5.93214 0.886413 0
M  V30 3473 H 294.01 6.44362 0.583628 0
M  V30 3474 N 294.142 -0.090211 1.57342 0
M  V30 3475 C 295.072 -1.10976 2.05443 0
M  V30 3476 C 296.053 -1.41482 0.944284 0
M  V30 3477 O 297.238 -1.51428 1.21586 0
M  V30 3478 C 294.368 -2.42831 2.48295 0
M  V30 3479 C 293.322 -2.26721 3.63018 0
M  V30 3480 C 292.648 -3.63796 3.91863 0
M  V30 3481 C 293.948 -1.7037 4.93732 0
M  V30 3482 H 295.642 -0.709564 2.9087 0
M  V30 3483 H 293.188 -0.339874 1.39932 0
M  V30 3484 H 295.141 -3.14431 2.80555 0
M  V30 3485 H 293.865 -2.84795 1.59873 0
M  V30 3486 H 292.524 -1.57565 3.31012 0
M  V30 3487 H 292.172 -4.03297 3.00601 0
M  V30 3488 H 291.872 -3.53861 4.69101 0
M  V30 3489 H 293.396 -4.36855 4.26603 0
M  V30 3490 H 294.81 -2.31816 5.24342 0
M  V30 3491 H 293.207 -1.71181 5.75167 0
M  V30 3492 H 294.277 -0.663542 4.80339 0
M  V30 3493 N 295.62 -1.53406 -0.361157 0
M  V30 3494 C 296.57 -1.76536 -1.44287 0
M  V30 3495 C 297.554 -0.620019 -1.48474 0
M  V30 3496 O 298.746 -0.878834 -1.53641 0
M  V30 3497 C 295.875 -1.96266 -2.81664 0
M  V30 3498 C 294.961 -3.16815 -2.81938 0
M  V30 3499 N 295.352 -4.38637 -2.51855 0
M  V30 3500 C 293.65 -3.17627 -3.13096 0
M  V30 3501 C 294.351 -5.20401 -2.59919 0
M  V30 3502 N 293.327 -4.56712 -2.94814 0
M  V30 3503 H 297.129 -2.68331 -1.19899 0
M  V30 3504 H 294.643 -1.52091 -0.56938 0
M  V30 3505 H 296.64 -2.10966 -3.59582 0
M  V30 3506 H 295.3 -1.05702 -3.07013 0
M  V30 3507 H 296.311 -4.66293 -2.25369 0
M  V30 3508 H 292.988 -2.36971 -3.43731 0
M  V30 3509 H 294.378 -6.27586 -2.39969 0
M  V30 3510 N 297.098 0.621204 -1.44841 0
M  V30 3511 C 298.008 1.7612 -1.5498 0
M  V30 3512 C 299.024 1.68477 -0.434927 0
M  V30 3513 O 300.2 1.89076 -0.693693 0
M  V30 3514 C 297.265 3.1254 -1.50065 0
M  V30 3515 C 296.326 3.31741 -2.72482 0
M  V30 3516 C 295.559 4.61653 -2.67792 0
M  V30 3517 O 295.782 5.431 -1.74352 0
M  V30 3518 O 294.716 4.83271 -3.58794 0
M  V30 3519 H 298.542 1.70518 -2.51311 0
M  V30 3520 H 296.127 0.783643 -1.27198 0
M  V30 3521 H 298.009 3.93844 -1.49882 0
M  V30 3522 H 296.684 3.18663 -0.568806 0
M  V30 3523 H 295.591 2.50077 -2.7823 0
M  V30 3524 H 296.924 3.30486 -3.64746 0
M  V30 3525 N 298.576 1.31904 0.862503 0
M  V30 3526 C 299.806 1.24817 1.64634 0
M  V30 3527 C 300.214 -0.187579 1.88268 0
M  V30 3528 O 299.557 -1.13253 1.44635 0
M  V30 3529 C 299.619 1.92996 3.03303 0
M  V30 3530 C 299.283 3.42336 3.02746 0
M  V30 3531 C 300.28 4.37956 2.80162 0
M  V30 3532 C 297.965 3.84147 3.2363 0
M  V30 3533 C 299.959 5.73361 2.78453 0
M  V30 3534 C 297.646 5.19663 3.21549 0
M  V30 3535 C 298.644 6.14081 2.98988 0
M  V30 3536 O 298.332 7.47118 2.96766 0
M  V30 3537 H 298.064 0.432222 0.519769 0
M  V30 3538 H 300.618 1.7445 1.08427 0
M  V30 3539 H 298.848 1.37922 3.61268 0
M  V30 3540 H 300.537 1.79723 3.63943 0
M  V30 3541 H 301.303 4.06981 2.63802 0
M  V30 3542 H 297.182 3.11083 3.40218 0
M  V30 3543 H 300.726 6.4703 2.60763 0
M  V30 3544 H 296.623 5.5027 3.37451 0
M  V30 3545 H 297.391 7.56382 3.12775 0
M  V30 3546 N 300.054 -1.07777 1.14986 0
M  V30 3547 C 301.017 -2.13041 0.845358 0
M  V30 3548 C 302.017 -1.60071 -0.152931 0
M  V30 3549 O 303.207 -1.74033 0.0761879 0
M  V30 3550 C 300.339 -3.39896 0.261383 0
M  V30 3551 H 301.532 -2.41485 1.77834 0
M  V30 3552 H 299.085 -1.23595 0.956757 0
M  V30 3553 H 299.82 -3.17091 -0.68 0
M  V30 3554 H 299.605 -3.79642 0.980514 0
M  V30 3555 H 301.095 -4.17548 0.0657687 0
M  V30 3556 N 301.532 -0.945985 -1.26051 0
M  V30 3557 C 302.482 -0.430164 -2.23905 0
M  V30 3558 C 303.466 0.47579 -1.53704 0
M  V30 3559 O 304.658 0.310252 -1.7426 0
M  V30 3560 C 301.787 0.298957 -3.41996 0
M  V30 3561 C 300.873 -0.624566 -4.19476 0
M  V30 3562 N 301.264 -1.75245 -4.74471 0
M  V30 3563 C 299.562 -0.431082 -4.43912 0
M  V30 3564 C 300.263 -2.32834 -5.3307 0
M  V30 3565 N 299.239 -1.61583 -5.1903 0
M  V30 3566 H 303.041 -1.29107 -2.64024 0
M  V30 3567 H 300.555 -0.802428 -1.41191 0
M  V30 3568 H 302.552 0.685565 -4.11225 0
M  V30 3569 H 301.212 1.15657 -3.03403 0
M  V30 3570 H 302.223 -2.13449 -4.71868 0
M  V30 3571 H 298.9 0.384364 -4.15727 0
M  V30 3572 H 300.29 -3.27893 -5.86461 0
M  V30 3573 N 303.011 1.40521 -0.713556 0
M  V30 3574 C 303.974 2.29098 -0.0684347 0
M  V30 3575 C 304.974 1.45268 0.689472 0
M  V30 3576 O 306.164 1.66205 0.521677 0
M  V30 3577 C 303.296 3.28446 0.913024 0
M  V30 3578 H 304.489 2.87645 -0.84855 0
M  V30 3579 H 302.042 1.48809 -0.47809 0
M  V30 3580 H 302.777 2.74913 1.72027 0
M  V30 3581 H 302.562 3.90327 0.372472 0
M  V30 3582 H 304.052 3.94777 1.36165 0
M  V30 3583 N 304.489 0.459591 1.5075 0
M  V30 3584 C 305.436 -0.340524 2.28274 0
M  V30 3585 C 306.406 -0.997371 1.32822 0
M  V30 3586 O 307.591 -1.01202 1.61749 0
M  V30 3587 C 304.731 -1.42317 3.14388 0
M  V30 3588 C 303.844 -0.782251 4.24859 0
M  V30 3589 C 302.979 -1.84182 4.98247 0
M  V30 3590 C 302.018 -1.18053 6.00608 0
M  V30 3591 N 301.155 -2.18244 6.67319 0
M  V30 3592 H 305.995 0.326899 2.96202 0
M  V30 3593 H 303.532 0.173057 1.46078 0
M  V30 3594 H 305.49 -2.06241 3.62658 0
M  V30 3595 H 304.12 -2.05992 2.4853 0
M  V30 3596 H 303.172 -0.0307404 3.80388 0
M  V30 3597 H 304.484 -0.259663 4.98124 0
M  V30 3598 H 303.638 -2.55714 5.50177 0
M  V30 3599 H 302.377 -2.39819 4.24662 0
M  V30 3600 H 301.382 -0.450776 5.47949 0
M  V30 3601 H 302.607 -0.631202 6.7616 0
M  V30 3602 H 300.553 -2.72919 5.96533 0
M  V30 3603 H 300.47 -1.70938 7.36421 0
M  V30 3604 H 301.738 -2.89191 7.23871 0
M  V30 3605 N 305.967 -1.56429 0.191757 0
M  V30 3606 C 306.915 -2.20273 -0.747174 0
M  V30 3607 C 307.909 -1.17288 -1.22229 0
M  V30 3608 O 309.115 -1.35441 -1.18557 0
M  V30 3609 H 305.49 -0.705885 -0.259289 0
M  V30 3610 H 307.461 -2.97826 -0.184963 0
M  V30 3611 C 306.21 -2.87356 -1.95759 0
M  V30 3612 H 305.533 -3.66341 -1.60106 0
M  V30 3613 H 306.973 -3.3547 -2.59299 0
M  V30 3614 C 305.432 -1.88213 -2.79423 0
M  V30 3615 O 305.962 -1.38033 -3.7724 0
M  V30 3616 N 304.168 -1.56516 -2.44849 0
M  V30 3617 H 303.715 -1.97516 -1.65364 0
M  V30 3618 H 303.673 -0.904369 -3.01112 0
M  V30 3619 N 307.445 0.0818655 -1.57387 0
M  V30 3620 C 308.861 0.436412 -1.53517 0
M  V30 3621 C 309.061 1.79758 -0.910459 0
M  V30 3622 O 308.117 2.47324 -0.508636 0
M  V30 3623 C 309.43 0.386734 -2.98203 0
M  V30 3624 C 310.978 0.467644 -3.09487 0
M  V30 3625 C 311.453 0.447978 -4.55804 0
M  V30 3626 N 312.944 0.508348 -4.60402 0
M  V30 3627 C 313.679 0.515184 -5.71081 0
M  V30 3628 N 313.175 0.477435 -6.91153 0
M  V30 3629 N 314.968 0.560988 -5.59294 0
M  V30 3630 H 307.119 -0.809546 -1.96367 0
M  V30 3631 H 309.382 -0.302733 -0.898363 0
M  V30 3632 H 309.088 -0.546539 -3.47427 0
M  V30 3633 H 308.962 1.20075 -3.57578 0
M  V30 3634 H 311.349 1.39134 -2.60242 0
M  V30 3635 H 311.43 -0.374753 -2.5304 0
M  V30 3636 H 311.074 -0.471826 -5.05704 0
M  V30 3637 H 311.004 1.30777 -5.10103 0
M  V30 3638 H 313.495 0.54218 -3.7399 0
M  V30 3639 H 313.808 0.486299 -7.71268 0
M  V30 3640 H 312.153 0.444278 -6.93579 0
M  V30 3641 H 315.344 0.5881 -4.64391 0
M  V30 3642 H 315.517 0.562846 -6.45551 0
M  V30 3643 N 308.923 1.53595 0.353017 0
M  V30 3644 C 310.2 1.61002 1.11075 0
M  V30 3645 C 310.58 0.425356 2.0677 0
M  V30 3646 O 309.928 -0.583267 2.2093 0
M  V30 3647 C 310.138 2.96631 1.83877 0
M  V30 3648 C 311.486 3.51653 2.37961 0
M  V30 3649 O 312.51 2.98743 1.93987 0
M  V30 3650 O 311.369 4.44177 3.18386 0
M  V30 3651 H 308.463 0.650825 0.510251 0
M  V30 3652 H 311.009 1.6594 0.35527 0
M  V30 3653 H 309.781 3.74293 1.14108 0
M  V30 3654 H 309.404 2.95242 2.66304 0
M  V30 3655 N 310.401 -0.613514 1.45168 0
M  V30 3656 C 311.629 -1.39946 1.5239 0
M  V30 3657 C 312.044 -1.88167 0.154531 0
M  V30 3658 O 311.401 -1.61872 -0.842843 0
M  V30 3659 C 311.452 -2.60795 2.50337 0
M  V30 3660 O 311.173 -2.1458 3.81952 0
M  V30 3661 C 312.674 -3.53723 2.67198 0
M  V30 3662 H 309.894 -0.428593 0.516284 0
M  V30 3663 H 312.438 -0.748753 1.903 0
M  V30 3664 H 310.593 -3.21919 2.15515 0
M  V30 3665 H 311.007 -2.93055 4.34993 0
M  V30 3666 H 312.481 -4.35079 3.39721 0
M  V30 3667 H 312.958 -4.0368 1.73029 0
M  V30 3668 H 313.564 -2.98456 3.02992 0
M  V30 3669 N 311.879 -1.3236 -0.855495 0
M  V30 3670 C 312.809 -1.23833 -1.97958 0
M  V30 3671 C 313.79 -0.122361 -1.69659 0
M  V30 3672 O 314.975 -0.30939 -1.9172 0
M  V30 3673 C 312.105 -0.959772 -3.33775 0
M  V30 3674 C 311.059 -2.03689 -3.76424 0
M  V30 3675 C 310.385 -1.61075 -5.09862 0
M  V30 3676 C 311.685 -3.4518 -3.9198 0
M  V30 3677 H 313.379 -2.1788 -2.0535 0
M  V30 3678 H 310.925 -1.04891 -0.986605 0
M  V30 3679 H 312.878 -0.886678 -4.11966 0
M  V30 3680 H 311.602 0.0163404 -3.26596 0
M  V30 3681 H 310.261 -2.10012 -3.00484 0
M  V30 3682 H 309.909 -0.622107 -4.99138 0
M  V30 3683 H 309.609 -2.33143 -5.39368 0
M  V30 3684 H 311.133 -1.55201 -5.90546 0
M  V30 3685 H 312.547 -3.4145 -4.60526 0
M  V30 3686 H 310.944 -4.1559 -4.32903 0
M  V30 3687 H 312.014 -3.84903 -2.94919 0
M  V30 3688 N 313.357 1.07166 -1.15556 0
M  V30 3689 C 314.307 2.12649 -0.82247 0
M  V30 3690 C 315.291 1.59725 0.194129 0
M  V30 3691 O 316.483 1.76999 -0.00540402 0
M  V30 3692 C 313.612 3.41847 -0.315572 0
M  V30 3693 C 312.698 4.0162 -1.36244 0
M  V30 3694 N 313.089 4.35625 -2.5703 0
M  V30 3695 C 311.387 4.29114 -1.21562 0
M  V30 3696 C 312.088 4.83017 -3.24144 0
M  V30 3697 N 311.064 4.81906 -2.51531 0
M  V30 3698 H 314.866 2.36776 -1.74111 0
M  V30 3699 H 312.38 1.24622 -1.0413 0
M  V30 3700 H 314.377 4.16859 -0.0585855 0
M  V30 3701 H 313.037 3.19163 0.597105 0
M  V30 3702 H 314.048 4.26253 -2.94158 0
M  V30 3703 H 310.725 4.15919 -0.362988 0
M  V30 3704 H 312.115 5.18605 -4.27198 0
M  V30 3705 N 314.835 0.952656 1.25548 0
M  V30 3706 C 315.765 0.489287 2.28316 0
M  V30 3707 C 316.746 -0.463359 1.63667 0
M  V30 3708 O 317.931 -0.36274 1.90782 0
M  V30 3709 C 315.061 -0.235603 3.465 0
M  V30 3710 C 314.015 0.631593 4.23314 0
M  V30 3711 C 313.341 -0.223923 5.34231 0
M  V30 3712 C 314.641 1.90871 4.86174 0
M  V30 3713 H 316.335 1.34822 2.67326 0
M  V30 3714 H 313.881 0.649728 1.28509 0
M  V30 3715 H 315.834 -0.570882 4.17515 0
M  V30 3716 H 314.558 -1.12877 3.06474 0
M  V30 3717 H 313.217 0.949929 3.54079 0
M  V30 3718 H 312.865 -1.11678 4.90446 0
M  V30 3719 H 312.565 0.35299 5.86539 0
M  V30 3720 H 314.089 -0.554214 6.0808 0
M  V30 3721 H 315.503 1.63997 5.49343 0
M  V30 3722 H 313.9 2.43112 5.4865 0
M  V30 3723 H 314.97 2.61304 4.08471 0
M  V30 3724 N 316.313 -1.40141 0.720998 0
M  V30 3725 C 317.562 -2.0002 0.259804 0
M  V30 3726 C 317.875 -1.57839 -1.15526 0
M  V30 3727 O 319.081 -2.10455 -1.71525 0
M  V30 3728 C 317.537 -3.57516 0.413566 0
M  V30 3729 C 317.145 -4.08667 1.83562 0
M  V30 3730 C 318.889 -4.24498 0.0134387 0
M  V30 3731 C 316.796 -5.58686 1.93968 0
M  V30 3732 H 315.726 -0.748195 0.0933806 0
M  V30 3733 H 318.377 -1.60313 0.892866 0
M  V30 3734 H 316.759 -3.9495 -0.288169 0
M  V30 3735 H 317.933 -3.82598 2.56817 0
M  V30 3736 H 316.248 -3.543 2.1877 0
M  V30 3737 H 318.845 -5.34654 0.0703954 0
M  V30 3738 H 319.188 -4.03375 -1.02927 0
M  V30 3739 H 319.721 -3.92188 0.665815 0
M  V30 3740 H 316.46 -5.8467 2.96379 0
M  V30 3741 H 315.98 -5.86602 1.25131 0
M  V30 3742 H 317.659 -6.23875 1.71431 0
M  V30 3743 N 317.792 -0.46758 -1.50504 0
M  V30 3744 C 319.041 0.0902868 -2.01498 0
M  V30 3745 C 319.354 1.411 -1.35463 0
M  V30 3746 O 320.56 2.0536 -1.77594 0
M  V30 3747 C 319.016 0.21142 -3.59278 0
M  V30 3748 C 318.624 -1.10065 -4.34269 0
M  V30 3749 C 320.368 0.721433 -4.18325 0
M  V30 3750 C 318.275 -0.943505 -5.83825 0
M  V30 3751 H 317.205 0.037517 -0.753066 0
M  V30 3752 H 319.856 -0.601943 -1.73346 0
M  V30 3753 H 318.238 0.967352 -3.84003 0
M  V30 3754 H 319.412 -1.86726 -4.21272 0
M  V30 3755 H 317.727 -1.5415 -3.86816 0
M  V30 3756 H 320.324 0.85598 -5.27804 0
M  V30 3757 H 320.667 1.71186 -3.79475 0
M  V30 3758 H 321.2 0.0229843 -3.97793 0
M  V30 3759 H 317.939 -1.90719 -6.27141 0
M  V30 3760 H 317.459 -0.217213 -5.99407 0
M  V30 3761 H 319.138 -0.608715 -6.4413 0
M  V30 3762 N 319.27 1.56325 -0.20005 0
M  V30 3763 C 320.517 1.97719 0.437411 0
M  V30 3764 C 320.845 1.08709 1.61284 0
M  V30 3765 O 320.1 0.127261 1.95286 0
M  V30 3766 C 320.399 3.4495 0.935103 0
M  V30 3767 C 320.065 4.5072 -0.12749 0
M  V30 3768 C 318.727 4.79368 -0.419451 0
M  V30 3769 C 321.079 5.14268 -0.847231 0
M  V30 3770 C 318.407 5.68854 -1.43604 0
M  V30 3771 C 320.759 6.04852 -1.85301 0
M  V30 3772 C 319.423 6.31855 -2.15211 0
M  V30 3773 H 318.693 0.723507 0.16006 0
M  V30 3774 H 321.34 1.89166 -0.298056 0
M  V30 3775 H 319.645 3.50599 1.74894 0
M  V30 3776 H 321.342 3.74337 1.43781 0
M  V30 3777 H 317.932 4.28458 0.11023 0
M  V30 3778 H 322.116 4.92222 -0.634901 0
M  V30 3779 H 317.372 5.88047 -1.67364 0
M  V30 3780 H 321.546 6.53152 -2.41591 0
M  V30 3781 H 319.173 7.00994 -2.94129 0
M  V30 3782 N 320.748 -0.0735177 1.57428 0
M  V30 3783 C 321.696 -1.10628 2.04607 0
M  V30 3784 C 322.69 -1.40181 0.951088 0
M  V30 3785 O 323.896 -1.39608 1.1362 0
M  V30 3786 H 320.271 -0.374088 0.652351 0
M  V30 3787 H 322.242 -0.682218 2.90497 0
M  V30 3788 C 320.991 -2.41212 2.50423 0
M  V30 3789 H 320.314 -2.19322 3.34272 0
M  V30 3790 H 321.754 -3.11927 2.87189 0
M  V30 3791 C 320.213 -3.0705 1.38644 0
M  V30 3792 O 320.743 -3.95056 0.727582 0
M  V30 3793 N 318.949 -2.67645 1.132 0
M  V30 3794 H 318.496 -1.96169 1.66959 0
M  V30 3795 H 318.454 -3.1202 0.386147 0
M  V30 3796 N 322.226 -1.5378 -0.344866 0
M  V30 3797 C 323.475 -1.7018 -1.08267 0
M  V30 3798 C 323.788 -0.471 -1.89845 0
M  V30 3799 O 324.994 -0.515917 -2.66553 0
M  V30 3800 C 323.45 -3.00923 -1.97417 0
M  V30 3801 C 323.058 -4.31335 -1.21053 0
M  V30 3802 C 324.802 -3.26688 -2.71063 0
M  V30 3803 C 322.709 -5.53153 -2.09225 0
M  V30 3804 H 321.639 -0.634138 -0.407903 0
M  V30 3805 H 324.29 -1.8028 -0.342246 0
M  V30 3806 H 322.672 -2.84676 -2.75274 0
M  V30 3807 H 323.846 -4.58281 -0.481159 0
M  V30 3808 H 322.161 -4.12173 -0.591813 0
M  V30 3809 H 324.758 -4.1489 -3.37299 0
M  V30 3810 H 325.101 -2.43639 -3.37558 0
M  V30 3811 H 325.634 -3.43705 -2.0028 0
M  V30 3812 H 322.373 -6.38741 -1.47274 0
M  V30 3813 H 321.893 -5.30458 -2.79955 0
M  V30 3814 H 323.572 -5.88744 -2.68308 0
M  V30 3815 N 323.704 0.605807 -1.45491 0
M  V30 3816 C 324.951 1.36476 -1.49601 0
M  V30 3817 C 325.279 1.94007 -0.138452 0
M  V30 3818 O 324.534 1.75638 0.863114 0
M  V30 3819 C 324.833 2.53012 -2.52428 0
M  V30 3820 C 324.499 2.13617 -3.97087 0
M  V30 3821 C 323.161 2.02587 -4.36477 0
M  V30 3822 C 325.513 1.82899 -4.88055 0
M  V30 3823 C 322.841 1.59064 -5.64726 0
M  V30 3824 C 325.193 1.40861 -6.16718 0
M  V30 3825 C 323.857 1.28391 -6.55036 0
M  V30 3826 H 323.127 0.499402 -0.547429 0
M  V30 3827 H 325.774 0.684546 -1.78847 0
M  V30 3828 H 324.079 3.26379 -2.16758 0
M  V30 3829 H 325.776 3.1124 -2.52845 0
M  V30 3830 H 322.366 2.23129 -3.65939 0
M  V30 3831 H 326.55 1.90317 -4.58359 0
M  V30 3832 H 321.806 1.48034 -5.93208 0
M  V30 3833 H 325.98 1.16138 -6.86648 0
M  V30 3834 H 323.607 0.944403 -7.54311 0
M  V30 3835 N 325.182 1.32811 0.848464 0
M  V30 3836 C 326.407 1.26882 1.6406 0
M  V30 3837 C 326.832 -0.15913 1.87426 0
M  V30 3838 O 326.19 -1.11258 1.43148 0
M  V30 3839 C 326.238 2.03997 2.97351 0
M  V30 3840 O 325.342 1.39201 3.88197 0
M  V30 3841 H 324.683 0.436982 0.499943 0
M  V30 3842 H 327.213 1.75224 1.0563 0
M  V30 3843 H 327.223 2.14403 3.47124 0
M  V30 3844 H 325.898 3.0783 2.79666 0
M  V30 3845 H 324.475 1.37381 3.46671 0
M  V30 3846 N 326.66 -1.06551 1.16123 0
M  V30 3847 C 327.909 -1.78687 0.935622 0
M  V30 3848 C 328.222 -1.88056 -0.538001 0
M  V30 3849 O 329.428 -2.56794 -0.88143 0
M  V30 3850 C 327.884 -3.21143 1.62466 0
M  V30 3851 C 327.492 -3.19949 3.13587 0
M  V30 3852 C 329.236 -3.9783 1.48092 0
M  V30 3853 C 327.143 -4.57108 3.75241 0
M  V30 3854 H 326.073 -0.669712 0.346412 0
M  V30 3855 H 328.724 -1.19534 1.39226 0
M  V30 3856 H 327.106 -3.80539 1.09572 0
M  V30 3857 H 328.28 -2.70151 3.73303 0
M  V30 3858 H 326.595 -2.5676 3.27816 0
M  V30 3859 H 329.192 -4.99217 1.91538 0
M  V30 3860 H 329.535 -4.14078 0.429507 0
M  V30 3861 H 330.068 -3.4495 1.98127 0
M  V30 3862 H 326.807 -4.46065 4.80319 0
M  V30 3863 H 326.327 -5.07111 3.20309 0
M  V30 3864 H 328.006 -5.26069 3.76644 0
M  V30 3865 N 328.138 -0.959301 -1.25041 0
M  V30 3866 C 329.387 -0.612254 -1.92183 0
M  V30 3867 C 329.7 0.855347 -1.75907 0
M  V30 3868 O 330.906 1.31256 -2.37664 0
M  V30 3869 C 329.362 -1.04435 -3.44414 0
M  V30 3870 C 328.97 -2.53482 -3.69393 0
M  V30 3871 C 330.714 -0.770055 -4.17457 0
M  V30 3872 C 328.621 -2.90468 -5.15153 0
M  V30 3873 H 327.551 -0.225279 -0.719559 0
M  V30 3874 H 330.202 -1.16438 -1.41825 0
M  V30 3875 H 328.584 -0.4206 -3.9376 0
M  V30 3876 H 329.758 -3.20916 -3.30681 0
M  V30 3877 H 328.073 -2.78432 -3.0962 0
M  V30 3878 H 330.67 -1.02249 -5.24832 0
M  V30 3879 H 331.013 0.293611 -4.15263 0
M  V30 3880 H 331.546 -1.35437 -3.74034 0
M  V30 3881 H 328.285 -3.95871 -5.22462 0
M  V30 3882 H 327.805 -2.27711 -5.54894 0
M  V30 3883 H 329.484 -2.79914 -5.83315 0
M  V30 3884 N 329.616 1.39756 -0.72842 0
M  V30 3885 C 330.549 2.28176 -0.0330172 0
M  V30 3886 C 331.527 1.44035 0.754501 0
M  V30 3887 O 332.711 1.73434 0.738445 0
M  V30 3888 C 329.838 3.24795 0.960504 0
M  V30 3889 C 328.884 4.25693 0.262264 0
M  V30 3890 S 329.717 5.25714 -1.01906 0
M  V30 3891 C 330.873 6.25894 -0.0279717 0
M  V30 3892 H 331.106 2.86807 -0.78287 0
M  V30 3893 H 328.639 1.45382 -0.519951 0
M  V30 3894 H 330.597 3.80983 1.52846 0
M  V30 3895 H 329.258 2.65196 1.68315 0
M  V30 3896 H 328.451 4.93699 1.01379 0
M  V30 3897 H 328.053 3.7327 -0.233482 0
M  V30 3898 H 330.345 6.72585 0.814621 0
M  V30 3899 H 331.288 7.04876 -0.67499 0
M  V30 3900 H 331.696 5.63466 0.341489 0
M  V30 3901 N 331.094 0.475555 1.50254 0
M  V30 3902 C 332.319 -0.0777042 2.07254 0
M  V30 3903 C 332.744 -1.3235 1.3366 0
M  V30 3904 O 332.102 -1.77152 0.385597 0
M  V30 3905 C 332.15 -0.340169 3.58992 0
M  V30 3906 O 331.254 -1.41982 3.87188 0
M  V30 3907 H 330.595 0.0149556 0.663832 0
M  V30 3908 H 333.125 0.667878 1.93392 0
M  V30 3909 H 333.135 -0.579332 4.03866 0
M  V30 3910 H 331.81 0.570167 4.11973 0
M  V30 3911 H 330.387 -1.16762 3.54148 0
M  V30 3912 N 332.573 -1.56217 0.208337 0
M  V30 3913 C 333.803 -2.02043 -0.431523 0
M  V30 3914 C 334.211 -1.08755 -1.54819 0
M  V30 3915 O 333.554 -0.0870009 -1.83494 0
M  V30 3916 C 333.616 -3.44239 -1.03633 0
M  V30 3917 C 333.28 -4.56965 -0.0567502 0
M  V30 3918 C 334.277 -5.14624 0.738773 0
M  V30 3919 C 331.962 -5.02266 0.0581736 0
M  V30 3920 C 333.956 -6.16045 1.63605 0
M  V30 3921 C 331.643 -6.03528 0.959001 0
M  V30 3922 C 332.641 -6.60293 1.7465 0
M  V30 3923 O 332.329 -7.59586 2.6322 0
M  V30 3924 H 332.061 -0.666772 -0.111313 0
M  V30 3925 H 334.615 -2.02919 0.318277 0
M  V30 3926 H 332.845 -3.40391 -1.83497 0
M  V30 3927 H 334.534 -3.73793 -1.58221 0
M  V30 3928 H 335.3 -4.80483 0.660364 0
M  V30 3929 H 331.179 -4.57771 -0.544633 0
M  V30 3930 H 334.723 -6.60279 2.25116 0
M  V30 3931 H 330.62 -6.37092 1.03848 0
M  V30 3932 H 331.388 -7.77057 2.57148 0
M  V30 3933 N 334.051 0.0651679 -1.57465 0
M  V30 3934 C 334.999 1.09542 -2.05191 0
M  V30 3935 C 335.993 1.39675 -0.958509 0
M  V30 3936 O 337.199 1.39003 -1.14359 0
M  V30 3937 H 333.574 0.370623 -0.654326 0
M  V30 3938 H 335.545 0.666802 -2.90854 0
M  V30 3939 C 334.294 2.39881 -2.51699 0
M  V30 3940 H 333.617 2.17547 -3.3543 0
M  V30 3941 H 335.057 3.104 -2.88839 0
M  V30 3942 C 333.516 3.0631 -1.40271 0
M  V30 3943 O 334.046 3.94664 -0.748523 0
M  V30 3944 N 332.252 2.67041 -1.14618 0
M  V30 3945 H 331.799 1.95281 -1.67997 0
M  V30 3946 H 331.757 3.1181 -0.402688 0
M  V30 3947 N 335.529 1.53961 0.336706 0
M  V30 3948 C 336.94 1.62914 0.911925 0
M  V30 3949 C 337.291 0.514795 1.89326 0
M  V30 3950 O 336.416 -0.354395 2.13478 0
M  V30 3951 C 337.011 2.95304 1.66076 0
M  V30 3952 C 335.57 3.06496 2.18489 0
M  V30 3953 C 334.717 2.58403 1.00613 0
M  V30 3954 H 337.668 1.58285 0.114649 0
M  V30 3955 H 337.689 2.84727 2.5241 0
M  V30 3956 H 337.201 3.76387 0.946276 0
M  V30 3957 H 335.302 2.3006 2.93092 0
M  V30 3958 H 335.415 4.1208 2.44391 0
M  V30 3959 H 333.779 2.13977 1.38152 0
M  V30 3960 H 334.562 3.41932 0.306179 0
M  V30 3961 N 337.007 -0.598083 1.45811 0
M  V30 3962 C 337.937 -1.71873 1.58057 0
M  V30 3963 C 338.918 -1.64533 0.431615 0
M  V30 3964 O 340.103 -1.82787 0.65595 0
M  V30 3965 C 337.233 -3.10495 1.55597 0
M  V30 3966 C 336.187 -3.32654 2.69305 0
M  V30 3967 C 335.513 -4.71646 2.51902 0
M  V30 3968 C 336.813 -3.21981 4.11248 0
M  V30 3969 H 338.507 -1.61881 2.51863 0
M  V30 3970 H 336.053 -0.777372 1.21214 0
M  V30 3971 H 338.006 -3.88699 1.6276 0
M  V30 3972 H 336.73 -3.2135 0.583255 0
M  V30 3973 H 335.389 -2.56843 2.61586 0
M  V30 3974 H 335.037 -4.79246 1.52748 0
M  V30 3975 H 334.737 -4.87426 3.2816 0
M  V30 3976 H 336.261 -5.52038 2.60933 0
M  V30 3977 H 337.675 -3.90049 4.20161 0
M  V30 3978 H 336.072 -3.49289 4.87972 0
M  V30 3979 H 337.142 -2.1928 4.32486 0
M  V30 3980 N 338.485 -1.33259 -0.841409 0
M  V30 3981 C 339.731 -1.24757 -1.59886 0
M  V30 3982 C 340.064 0.186913 -1.93298 0
M  V30 3983 O 339.339 1.12757 -1.5848 0
M  V30 3984 C 339.622 -2.12036 -2.91055 0
M  V30 3985 C 339.475 -3.63929 -2.6434 0
M  V30 3986 C 340.794 -1.9916 -3.92458 0
M  V30 3987 H 337.913 -0.454542 -0.580138 0
M  V30 3988 H 340.555 -1.63335 -0.970647 0
M  V30 3989 H 338.705 -1.79265 -3.44669 0
M  V30 3990 H 340.377 -4.06978 -2.17178 0
M  V30 3991 H 338.62 -3.85935 -1.98082 0
M  V30 3992 H 339.291 -4.20341 -3.57796 0
M  V30 3993 H 341.767 -2.27895 -3.48143 0
M  V30 3994 H 340.643 -2.62484 -4.82072 0
M  V30 3995 H 340.904 -0.963082 -4.31482 0
M  V30 3996 N 339.963 1.05934 -1.16686 0
M  V30 3997 C 340.913 2.11764 -0.844978 0
M  V30 3998 C 341.897 1.59922 0.177178 0
M  V30 3999 O 343.089 1.76983 -0.0241768 0
M  V30 4000 C 340.218 3.41493 -0.351812 0
M  V30 4001 C 339.304 4.00152 -1.40496 0
M  V30 4002 N 339.695 4.32874 -2.61636 0
M  V30 4003 C 337.993 4.278 -1.26106 0
M  V30 4004 C 338.694 4.79552 -3.29249 0
M  V30 4005 N 337.67 4.79211 -2.56628 0
M  V30 4006 H 341.472 2.34916 -1.76612 0
M  V30 4007 H 338.986 1.23511 -1.05446 0
M  V30 4008 H 340.983 4.16773 -0.102796 0
M  V30 4009 H 339.643 3.19778 0.56322 0
M  V30 4010 H 340.654 4.23109 -2.98663 0
M  V30 4011 H 337.331 4.15511 -0.407081 0
M  V30 4012 H 338.721 5.14045 -4.32675 0
M  V30 4013 N 341.441 0.965919 1.2453 0
M  V30 4014 C 342.69 0.622437 1.91856 0
M  V30 4015 C 343.003 -0.846006 1.76358 0
M  V30 4016 O 344.209 -1.29993 2.38357 0
M  V30 4017 C 342.665 1.0626 3.43856 0
M  V30 4018 C 342.273 2.55437 3.68043 0
M  V30 4019 C 344.017 0.792183 4.17043 0
M  V30 4020 C 341.924 2.93196 5.13605 0
M  V30 4021 H 340.854 0.229092 0.718354 0
M  V30 4022 H 343.505 1.17189 1.41206 0
M  V30 4023 H 341.887 0.441476 3.93531 0
M  V30 4024 H 343.061 3.22665 3.28974 0
M  V30 4025 H 341.376 2.8007 3.08139 0
M  V30 4026 H 343.973 1.05031 5.24283 0
M  V30 4027 H 344.316 -0.271584 4.15413 0
M  V30 4028 H 344.849 1.37419 3.73311 0
M  V30 4029 H 341.588 3.98636 5.20355 0
M  V30 4030 H 341.108 2.30651 5.53679 0
M  V30 4031 H 342.787 2.83004 5.81823 0
M  V30 4032 N 342.919 -1.39368 0.735821 0
M  V30 4033 C 344.165 -2.00794 0.284544 0
M  V30 4034 C 344.498 -1.58255 -1.12557 0
M  V30 4035 O 343.773 -0.811819 -1.76748 0
M  V30 4036 C 344.056 -3.58011 0.387337 0
M  V30 4037 C 343.909 -4.10566 1.83728 0
M  V30 4038 C 345.228 -4.395 -0.22975 0
M  V30 4039 H 342.347 -0.729501 0.104866 0
M  V30 4040 H 344.989 -1.65564 0.93213 0
M  V30 4041 H 343.139 -3.88154 -0.164006 0
M  V30 4042 H 344.811 -3.91139 2.44556 0
M  V30 4043 H 343.054 -3.64095 2.35833 0
M  V30 4044 H 343.725 -5.19702 1.86047 0
M  V30 4045 H 346.201 -4.15406 0.240257 0
M  V30 4046 H 345.077 -5.48752 -0.127485 0
M  V30 4047 H 345.338 -4.22062 -1.3159 0
M  V30 4048 N 344.397 -0.483516 -1.5 0
M  V30 4049 C 345.344 0.304164 -2.28787 0
M  V30 4050 C 346.314 0.976114 -1.34392 0
M  V30 4051 O 347.499 0.986156 -1.63339 0
M  V30 4052 C 344.639 1.37298 -3.16612 0
M  V30 4053 C 343.752 0.714561 -4.26049 0
M  V30 4054 C 342.887 1.76232 -5.01114 0
M  V30 4055 C 341.926 1.08483 -6.0241 0
M  V30 4056 N 341.063 2.076 -6.70706 0
M  V30 4057 H 345.903 -0.373981 -2.95644 0
M  V30 4058 H 343.44 -0.196275 -1.45785 0
M  V30 4059 H 345.398 2.00445 -3.65893 0
M  V30 4060 H 344.028 2.02012 -2.51776 0
M  V30 4061 H 343.08 -0.0297798 -3.80388 0
M  V30 4062 H 344.392 0.180383 -4.98474 0
M  V30 4063 H 343.546 2.46929 -5.54176 0
M  V30 4064 H 342.285 2.33033 -4.28424 0
M  V30 4065 H 341.29 0.363545 -5.48597 0
M  V30 4066 H 342.515 0.523551 -6.77079 0
M  V30 4067 H 340.461 2.63394 -6.00799 0
M  V30 4068 H 340.378 1.59201 -7.39047 0
M  V30 4069 H 341.646 2.77639 -7.2838 0
M  V30 4070 N 345.875 1.56104 -0.216619 0
M  V30 4071 C 347.291 1.58995 0.13886 0
M  V30 4072 C 347.491 1.23333 1.59346 0
M  V30 4073 O 346.547 0.966234 2.33281 0
M  V30 4074 C 347.86 3.00143 -0.182968 0
M  V30 4075 C 349.408 3.12751 -0.124807 0
M  V30 4076 C 349.883 4.56068 -0.420241 0
M  V30 4077 N 351.374 4.61723 -0.369634 0
M  V30 4078 C 352.109 5.70542 -0.571789 0
M  V30 4079 N 351.605 6.87744 -0.835453 0
M  V30 4080 N 353.398 5.59831 -0.504563 0
M  V30 4081 H 345.549 1.77562 -1.16557 0
M  V30 4082 H 347.812 0.825091 -0.466828 0
M  V30 4083 H 347.518 3.30871 -1.19237 0
M  V30 4084 H 347.392 3.73813 0.504367 0
M  V30 4085 H 349.779 2.81822 0.875223 0
M  V30 4086 H 349.86 2.41421 -0.845544 0
M  V30 4087 H 349.504 4.87713 -1.41769 0
M  V30 4088 H 349.434 5.25617 0.321631 0
M  V30 4089 H 351.925 3.77502 -0.173338 0
M  V30 4090 H 352.238 7.66587 -0.977938 0
M  V30 4091 H 350.583 6.895 -0.872592 0
M  V30 4092 H 353.774 4.67145 -0.298842 0
M  V30 4093 H 353.947 6.44573 -0.665519 0
M  V30 4094 N 347.353 -0.0568162 1.57498 0
M  V30 4095 C 348.3 -1.06591 2.04712 0
M  V30 4096 C 349.27 -1.3758 0.930644 0
M  V30 4097 O 350.455 -1.48392 1.19935 0
M  V30 4098 C 347.595 -2.3701 2.50839 0
M  V30 4099 C 346.708 -2.12421 3.76167 0
M  V30 4100 C 345.843 -3.36511 4.11015 0
M  V30 4101 C 344.882 -3.07353 5.2934 0
M  V30 4102 N 344.019 -4.23816 5.59754 0
M  V30 4103 H 348.859 -0.65631 2.90683 0
M  V30 4104 H 346.396 -0.312481 1.43743 0
M  V30 4105 H 348.354 -3.13175 2.7564 0
M  V30 4106 H 346.984 -2.75744 1.67825 0
M  V30 4107 H 346.036 -1.2688 3.58616 0
M  V30 4108 H 347.348 -1.86894 4.62463 0
M  V30 4109 H 346.502 -4.21062 4.36797 0
M  V30 4110 H 345.241 -3.65128 3.23315 0
M  V30 4111 H 344.246 -2.212 5.03339 0
M  V30 4112 H 345.471 -2.80043 6.1867 0
M  V30 4113 H 343.417 -4.52436 4.75014 0
M  V30 4114 H 343.334 -4.01614 6.40501 0
M  V30 4115 H 344.602 -5.0932 5.90096 0
M  V30 4116 N 348.832 -1.54138 -0.328536 0
M  V30 4117 C 350.081 -1.71318 -1.06456 0
M  V30 4118 C 350.394 -0.491109 -1.89334 0
M  V30 4119 O 351.6 -0.54416 -2.65991 0
M  V30 4120 C 350.056 -3.03 -1.94214 0
M  V30 4121 C 349.664 -4.32595 -1.16471 0
M  V30 4122 C 351.408 -3.29544 -2.67583 0
M  V30 4123 C 349.315 -5.55341 -2.03347 0
M  V30 4124 H 348.245 -0.638429 -0.401155 0
M  V30 4125 H 350.896 -1.80633 -0.323106 0
M  V30 4126 H 349.278 -2.87579 -2.72239 0
M  V30 4127 H 350.452 -4.58766 -0.432525 0
M  V30 4128 H 348.767 -4.12777 -0.548063 0
M  V30 4129 H 351.364 -4.18444 -3.3288 0
M  V30 4130 H 351.707 -2.47206 -3.34955 0
M  V30 4131 H 352.24 -3.45809 -1.96623 0
M  V30 4132 H 348.979 -6.40268 -1.40491 0
M  V30 4133 H 348.499 -5.33397 -2.74313 0
M  V30 4134 H 350.178 -5.91557 -2.62049 0
M  V30 4135 N 350.31 0.590341 -1.46126 0
M  V30 4136 C 351.559 1.34499 -1.50309 0
M  V30 4137 C 351.872 1.94977 -0.156021 0
M  V30 4138 O 353.078 2.71395 -0.0756037 0
M  V30 4139 C 351.534 2.43723 -2.64815 0
M  V30 4140 C 351.142 1.89582 -4.0591 0
M  V30 4141 C 352.886 3.20579 -2.78262 0
M  V30 4142 C 350.793 2.9639 -5.11769 0
M  V30 4143 H 349.723 0.505593 -0.559368 0
M  V30 4144 H 352.374 0.630848 -1.72315 0
M  V30 4145 H 350.756 3.17902 -2.36124 0
M  V30 4146 H 351.93 1.21997 -4.44357 0
M  V30 4147 H 350.245 1.25418 -3.97063 0
M  V30 4148 H 352.842 4.00276 -3.54519 0
M  V30 4149 H 353.185 3.72684 -1.85505 0
M  V30 4150 H 353.718 2.53505 -3.06562 0
M  V30 4151 H 350.457 2.49181 -6.06291 0
M  V30 4152 H 349.977 3.62487 -4.77873 0
M  V30 4153 H 351.656 3.60474 -5.37278 0
M  V30 4154 N 351.788 1.33704 0.83433 0
M  V30 4155 C 352.738 1.20899 1.93306 0
M  V30 4156 C 353.722 0.110783 1.60518 0
M  V30 4157 O 354.914 0.339331 1.73717 0
M  V30 4158 C 352.043 0.955018 3.29749 0
M  V30 4159 C 351.129 2.09587 3.68692 0
M  V30 4160 N 351.52 3.34621 3.79292 0
M  V30 4161 C 349.818 2.00358 3.98463 0
M  V30 4162 C 350.519 4.09472 4.13167 0
M  V30 4163 N 349.495 3.37954 4.25779 0
M  V30 4164 H 353.297 2.15665 1.99664 0
M  V30 4165 H 350.811 1.25777 1.02732 0
M  V30 4166 H 352.808 0.844208 4.08263 0
M  V30 4167 H 351.468 0.0159317 3.24696 0
M  V30 4168 H 352.479 3.69313 3.63082 0
M  V30 4169 H 349.156 1.14137 4.01596 0
M  V30 4170 H 350.546 5.17391 4.28668 0
M  V30 4171 N 353.266 -1.05314 1.17247 0
M  V30 4172 C 354.543 -1.75184 0.87005 0
M  V30 4173 C 354.923 -2.01481 -0.629965 0
M  V30 4174 O 354.271 -1.64988 -1.58086 0
M  V30 4175 C 354.481 -3.04594 1.70363 0
M  V30 4176 C 355.829 -3.78567 1.92281 0
M  V30 4177 O 356.853 -3.14461 1.67311 0
M  V30 4178 O 355.712 -4.93755 2.3424 0
M  V30 4179 H 352.806 -0.761729 0.322021 0
M  V30 4180 H 355.352 -1.11493 1.27935 0
M  V30 4181 H 354.124 -2.81201 2.72106 0
M  V30 4182 H 353.747 -3.76022 1.29202 0
M  V30 4183 N 354.744 -0.972509 -1.24016 0
M  V30 4184 C 355.692 -0.498562 -2.27194 0
M  V30 4185 C 356.686 0.440372 -1.63576 0
M  V30 4186 O 357.892 0.315133 -1.7722 0
M  V30 4187 H 354.267 -0.142775 -0.738322 0
M  V30 4188 H 356.238 -1.38065 -2.64539 0
M  V30 4189 C 354.987 0.191072 -3.47175 0
M  V30 4190 H 354.31 -0.522318 -3.96373 0
M  V30 4191 H 355.75 0.486445 -4.212 0
M  V30 4192 C 354.209 1.41967 -3.05527 0
M  V30 4193 O 354.739 2.51642 -3.13112 0
M  V30 4194 N 352.945 1.28746 -2.60524 0
M  V30 4195 H 352.492 0.395089 -2.54552 0
M  V30 4196 H 352.45 2.11061 -2.33025 0
M  V30 4197 N 356.222 1.38976 -0.743202 0
M  V30 4198 C 357.132 2.3434 -0.110399 0
M  V30 4199 C 358.148 1.58741 0.712559 0
M  V30 4200 O 359.324 1.9099 0.639125 0
M  V30 4201 C 356.389 3.37812 0.780012 0
M  V30 4202 C 355.45 4.29263 -0.0561319 0
M  V30 4203 C 354.683 5.27793 0.791875 0
M  V30 4204 O 354.906 5.33043 2.03031 0
M  V30 4205 O 353.84 6.01512 0.216183 0
M  V30 4206 H 357.666 2.90129 -0.897714 0
M  V30 4207 H 355.251 1.40643 -0.503966 0
M  V30 4208 H 357.133 4.01194 1.28923 0
M  V30 4209 H 355.808 2.84395 1.546 0
M  V30 4210 H 354.715 3.69076 -0.611056 0
M  V30 4211 H 356.048 4.85907 -0.784531 0
M  V30 4212 N 357.7 0.491464 1.49741 0
M  V30 4213 C 358.946 -0.0565092 2.02721 0
M  V30 4214 C 359.279 -1.37522 1.37118 0
M  V30 4215 O 358.554 -1.87866 0.503645 0
M  V30 4216 C 358.837 -0.219051 3.59433 0
M  V30 4217 C 358.69 1.12211 4.35579 0
M  V30 4218 C 360.009 -0.964157 4.29409 0
M  V30 4219 H 357.128 -0.0190627 0.736753 0
M  V30 4220 H 359.77 0.641021 1.7886 0
M  V30 4221 H 357.92 -0.813165 3.79895 0
M  V30 4222 H 359.592 1.75437 4.26637 0
M  V30 4223 H 357.835 1.71377 3.98513 0
M  V30 4224 H 358.506 0.961794 5.43556 0
M  V30 4225 H 360.982 -0.460378 4.13545 0
M  V30 4226 H 359.858 -1.04671 5.38828 0
M  V30 4227 H 360.119 -2.00563 3.93988 0
M  V30 4228 N 359.178 -1.55987 0.224894 0
M  V30 4229 C 360.088 -2.24066 -0.69511 0
M  V30 4230 C 361.104 -1.24939 -1.21104 0
M  V30 4231 O 362.28 -1.5776 -1.25195 0
M  V30 4232 C 359.345 -2.90983 -1.88493 0
M  V30 4233 C 358.406 -4.05462 -1.41064 0
M  V30 4234 C 357.639 -4.69179 -2.54375 0
M  V30 4235 O 357.862 -4.31895 -3.72589 0
M  V30 4236 O 356.796 -5.58108 -2.25386 0
M  V30 4237 H 360.622 -3.03353 -0.145149 0
M  V30 4238 H 358.207 -1.49399 -0.00569476 0
M  V30 4239 H 360.089 -3.33209 -2.57972 0
M  V30 4240 H 358.764 -2.14653 -2.42293 0
M  V30 4241 H 357.671 -3.67798 -0.683774 0
M  V30 4242 H 359.004 -4.83545 -0.918985 0
M  V30 4243 N 360.656 0.0484629 -1.57525 0
M  V30 4244 C 361.619 1.03956 -2.04269 0
M  V30 4245 C 362.619 1.30211 -0.943496 0
M  V30 4246 O 363.809 1.25539 -1.20771 0
M  V30 4247 C 360.941 2.37742 -2.44319 0
M  V30 4248 H 362.134 0.636182 -2.93075 0
M  V30 4249 H 359.687 0.294811 -1.53494 0
M  V30 4250 H 360.422 2.82866 -1.5861 0
M  V30 4251 H 360.207 2.20021 -3.24551 0
M  V30 4252 H 361.697 3.08936 -2.80978 0
M  V30 4253 N 362.134 1.5431 0.320358 0
M  V30 4254 C 363.411 1.63322 1.07635 0
M  V30 4255 C 363.791 0.46912 2.05821 0
M  V30 4256 O 363.139 -0.536274 2.22118 0
M  V30 4257 C 363.349 3.00465 1.77544 0
M  V30 4258 C 364.697 3.56621 2.30449 0
M  V30 4259 O 365.721 3.02791 1.87606 0
M  V30 4260 O 364.58 4.5083 3.08892 0
M  V30 4261 H 361.674 0.661502 0.496331 0
M  V30 4262 H 364.22 1.66656 0.319992 0
M  V30 4263 H 362.992 3.76629 1.06143 0
M  V30 4264 H 362.615 3.00824 2.59982 0
M  V30 4265 N 363.613 -0.582584 1.46437 0
M  V30 4266 C 365.029 -0.905962 1.31394 0
M  V30 4267 C 365.229 -1.99468 0.285476 0
M  V30 4268 O 364.285 -2.50566 -0.311914 0
M  V30 4269 C 365.598 -1.3232 2.70022 0
M  V30 4270 C 367.146 -1.43604 2.78113 0
M  V30 4271 C 367.621 -1.88694 4.17323 0
M  V30 4272 N 369.112 -1.95887 4.19741 0
M  V30 4273 C 369.847 -2.32051 5.24347 0
M  V30 4274 N 369.343 -2.67006 6.39281 0
M  V30 4275 N 371.136 -2.32606 5.11713 0
M  V30 4276 H 363.287 0.1366 2.1196 0
M  V30 4277 H 365.55 -0.00155736 0.947999 0
M  V30 4278 H 365.256 -0.597242 3.46592 0
M  V30 4279 H 365.13 -2.28469 3.00136 0
M  V30 4280 H 367.517 -2.15286 2.01832 0
M  V30 4281 H 367.598 -0.457059 2.51684 0
M  V30 4282 H 367.242 -1.1759 4.941 0
M  V30 4283 H 367.172 -2.8755 4.4116 0
M  V30 4284 H 369.663 -1.71362 3.36814 0
M  V30 4285 H 369.976 -2.93554 7.14875 0
M  V30 4286 H 368.321 -2.64644 6.42642 0
M  V30 4287 H 371.512 -2.04721 4.2096 0
M  V30 4288 H 371.685 -2.60462 5.93349 0
M  V30 4289 N 365.091 -1.34144 -0.827227 0
M  V30 4290 C 366.338 -1.26258 -1.58319 0
M  V30 4291 C 366.666 0.168595 -1.93768 0
M  V30 4292 O 365.921 1.12877 -1.59866 0
M  V30 4293 C 366.22 -2.09464 -2.89585 0
M  V30 4294 C 365.886 -3.58521 -2.73448 0
M  V30 4295 C 364.548 -3.99155 -2.68754 0
M  V30 4296 C 366.9 -4.53189 -2.57428 0
M  V30 4297 C 364.228 -5.32656 -2.45957 0
M  V30 4298 C 366.58 -5.86864 -2.36163 0
M  V30 4299 C 365.244 -6.26667 -2.29879 0
M  V30 4300 H 364.514 -0.462013 -0.579332 0
M  V30 4301 H 367.161 -1.65845 -0.95748 0
M  V30 4302 H 365.466 -1.62692 -3.56425 0
M  V30 4303 H 367.163 -2.00712 -3.47154 0
M  V30 4304 H 363.753 -3.26264 -2.77939 0
M  V30 4305 H 367.937 -4.22696 -2.60081 0
M  V30 4306 H 363.193 -5.62519 -2.39546 0
M  V30 4307 H 367.367 -6.59813 -2.22754 0
M  V30 4308 H 364.994 -7.30049 -2.11975 0
M  V30 4309 N 366.569 1.04691 -1.17803 0
M  V30 4310 C 367.815 1.78045 -0.970969 0
M  V30 4311 C 368.148 1.87686 0.498751 0
M  V30 4312 O 367.423 1.38035 1.37027 0
M  V30 4313 C 367.706 3.2166 -1.61884 0
M  V30 4314 C 367.559 3.20001 -3.161 0
M  V30 4315 C 368.878 4.1962 -1.3269 0
M  V30 4316 H 365.997 0.64633 -0.354155 0
M  V30 4317 H 368.639 1.22333 -1.45378 0
M  V30 4318 H 366.789 3.69232 -1.20831 0
M  V30 4319 H 368.461 2.80467 -3.66246 0
M  V30 4320 H 366.704 2.58203 -3.48588 0
M  V30 4321 H 367.375 4.21386 -3.56564 0
M  V30 4322 H 369.851 3.80567 -1.68249 0
M  V30 4323 H 368.727 5.18339 -1.80599 0
M  V30 4324 H 368.988 4.414 -0.248622 0
M  V30 4325 N 368.047 0.979072 1.23499 0
M  V30 4326 C 368.977 0.537606 2.27227 0
M  V30 4327 C 369.958 -0.428539 1.64613 0
M  V30 4328 O 371.143 -0.322191 1.91509 0
M  V30 4329 C 368.273 -0.162052 3.46922 0
M  V30 4330 C 367.227 0.721242 4.21879 0
M  V30 4331 C 366.553 -0.110555 5.34586 0
M  V30 4332 C 367.853 2.01141 4.82016 0
M  V30 4333 H 369.547 1.40462 2.64406 0
M  V30 4334 H 367.093 0.67684 1.27102 0
M  V30 4335 H 369.046 -0.482192 4.18632 0
M  V30 4336 H 367.77 -1.06351 3.08799 0
M  V30 4337 H 366.429 1.02482 3.51984 0
M  V30 4338 H 366.077 -1.0125 4.92704 0
M  V30 4339 H 365.777 0.477325 5.85658 0
M  V30 4340 H 367.301 -0.425107 6.09118 0
M  V30 4341 H 368.715 1.75612 5.45741 0
M  V30 4342 H 367.112 2.54695 5.43369 0
M  V30 4343 H 368.182 2.69909 4.02836 0
M  V30 4344 N 369.525 -1.3858 0.750561 0
M  V30 4345 C 370.473 -2.32339 0.110162 0
M  V30 4346 C 371.467 -1.53864 -0.708674 0
M  V30 4347 O 372.673 -1.69417 -0.608112 0
M  V30 4348 H 369.048 -0.751812 0.0168275 0
M  V30 4349 H 371.019 -2.83959 0.917053 0
M  V30 4350 C 369.768 -3.39043 -0.771067 0
M  V30 4351 H 369.091 -3.99517 -0.150374 0
M  V30 4352 H 370.531 -4.07061 -1.1865 0
M  V30 4353 C 368.99 -2.77365 -1.91234 0
M  V30 4354 O 369.52 -2.66434 -3.00626 0
M  V30 4355 N 367.726 -2.35219 -1.70646 0
M  V30 4356 H 367.273 -2.4431 -0.81673 0
M  V30 4357 H 367.231 -1.94294 -2.47178 0
M  V30 4358 N 371.003 -0.499398 -1.49478 0
M  V30 4359 C 371.951 0.293604 -2.3074 0
M  V30 4360 C 372.945 0.96427 -1.39277 0
M  V30 4361 O 374.151 0.892141 -1.56336 0
M  V30 4362 H 370.526 0.113541 -0.743379 0
M  V30 4363 H 372.497 -0.411772 -2.95545 0
M  V30 4364 C 371.246 1.3462 -3.20582 0
M  V30 4365 H 370.569 0.83954 -3.90886 0
M  V30 4366 H 372.009 1.87308 -3.80384 0
M  V30 4367 C 370.468 2.36351 -2.40083 0
M  V30 4368 O 370.998 3.422 -2.10385 0
M  V30 4369 N 369.204 2.0878 -2.02137 0
M  V30 4370 H 368.751 1.22723 -2.26488 0
M  V30 4371 H 368.709 2.77075 -1.48583 0
M  V30 4372 N 372.481 1.55866 -0.233164 0
M  V30 4373 C 373.73 1.97779 0.39579 0
M  V30 4374 C 374.043 1.12419 1.60066 0
M  V30 4375 O 375.249 1.44283 2.29988 0
M  V30 4376 C 373.705 3.5188 0.755556 0
M  V30 4377 C 373.313 4.45959 -0.427152 0
M  V30 4378 C 375.057 4.02479 1.34946 0
M  V30 4379 C 372.964 5.91383 -0.0443043 0
M  V30 4380 H 371.894 0.738592 0.15165 0
M  V30 4381 H 374.545 1.80486 -0.331212 0
M  V30 4382 H 372.927 3.64816 1.5403 0
M  V30 4383 H 374.101 4.44776 -1.20462 0
M  V30 4384 H 372.416 4.05765 -0.935068 0
M  V30 4385 H 375.013 5.08637 1.649 0
M  V30 4386 H 375.356 3.49014 2.26925 0
M  V30 4387 H 375.889 3.92813 0.62791 0
M  V30 4388 H 372.628 6.48857 -0.930874 0
M  V30 4389 H 372.148 5.95734 0.697238 0
M  V30 4390 H 373.827 6.45893 0.378334 0
M  V30 4391 N 373.959 -0.0401083 1.57549 0
M  V30 4392 C 374.907 -1.06264 2.06908 0
M  V30 4393 C 375.901 -1.38132 0.980608 0
M  V30 4394 O 377.107 -1.37167 1.16556 0
M  V30 4395 H 373.482 -0.360166 0.660139 0
M  V30 4396 H 375.453 -0.620445 2.91878 0
M  V30 4397 C 374.202 -2.35846 2.55483 0
M  V30 4398 H 373.525 -2.12183 3.38849 0
M  V30 4399 H 374.965 -3.05765 2.93741 0
M  V30 4400 C 373.424 -3.0404 1.45126 0
M  V30 4401 O 373.954 -3.93424 0.811216 0
M  V30 4402 N 372.16 -2.65184 1.18852 0
M  V30 4403 H 371.707 -1.92584 1.71083 0
M  V30 4404 H 371.665 -3.1113 0.452244 0
M  V30 4405 N 375.437 -1.54477 -0.31217 0
M  V30 4406 C 376.384 -1.84655 -1.38461 0
M  V30 4407 C 377.354 -0.694536 -1.50882 0
M  V30 4408 O 378.539 -0.942081 -1.6592 0
M  V30 4409 C 375.679 -2.0896 -2.74645 0
M  V30 4410 C 374.792 -3.36618 -2.70763 0
M  V30 4411 C 373.927 -3.50824 -3.98868 0
M  V30 4412 C 372.966 -4.72315 -3.89339 0
M  V30 4413 N 372.103 -4.83387 -5.09197 0
M  V30 4414 H 376.943 -2.76142 -1.12026 0
M  V30 4415 H 374.48 -1.36748 -0.542065 0
M  V30 4416 H 376.438 -2.21045 -3.53829 0
M  V30 4417 H 375.068 -1.20752 -2.99364 0
M  V30 4418 H 374.12 -3.33211 -1.83506 0
M  V30 4419 H 375.432 -4.25917 -2.59608 0
M  V30 4420 H 374.586 -3.62513 -4.86486 0
M  V30 4421 H 373.325 -2.59638 -4.12843 0
M  V30 4422 H 372.33 -4.6067 -3.00105 0
M  V30 4423 H 373.555 -5.64897 -3.76919 0
M  V30 4424 H 371.501 -3.9512 -5.23657 0
M  V30 4425 H 371.418 -5.66669 -5.00422 0
M  V30 4426 H 372.686 -4.9942 -5.98498 0
M  V30 4427 N 376.915 0.57481 -1.46744 0
M  V30 4428 C 377.863 1.70435 -1.58286 0
M  V30 4429 C 378.857 1.63287 -0.450956 0
M  V30 4430 O 380.063 1.68685 -0.628121 0
M  V30 4431 H 376.438 0.56364 -0.497809 0
M  V30 4432 H 378.409 1.57833 -2.53242 0
M  V30 4433 C 377.158 3.08815 -1.59776 0
M  V30 4434 H 376.481 3.1499 -2.46214 0
M  V30 4435 H 377.921 3.87588 -1.71905 0
M  V30 4436 C 376.38 3.35301 -0.327812 0
M  V30 4437 O 376.91 3.97511 0.57861 0
M  V30 4438 N 375.116 2.89816 -0.213274 0
M  V30 4439 H 374.663 2.39371 -0.951798 0
M  V30 4440 H 374.621 3.0791 0.63553 0
M  V30 4441 N 378.394 1.34581 0.820102 0
M  V30 4442 C 379.304 1.28471 1.96297 0
M  V30 4443 C 380.32 0.191902 1.72939 0
M  V30 4444 O 381.496 0.418879 1.96996 0
M  V30 4445 C 378.561 1.04281 3.30645 0
M  V30 4446 C 377.622 2.22745 3.66992 0
M  V30 4447 C 376.855 1.997 4.9493 0
M  V30 4448 O 377.078 0.956656 5.6232 0
M  V30 4449 O 376.012 2.86723 5.2922 0
M  V30 4450 H 379.838 2.24624 2.04396 0
M  V30 4451 H 377.423 1.14816 0.955913 0
M  V30 4452 H 379.305 0.925841 4.11104 0
M  V30 4453 H 377.98 0.111697 3.23507 0
M  V30 4454 H 376.887 2.40003 2.86966 0
M  V30 4455 H 378.22 3.14257 3.78819 0
M  V30 4456 N 379.872 -1.04064 1.18357 0
M  V30 4457 C 381.119 -1.77265 0.978947 0
M  V30 4458 C 381.447 -1.88189 -0.491428 0
M  V30 4459 O 380.702 -1.38653 -1.38108 0
M  V30 4460 C 381.001 -3.20634 1.57888 0
M  V30 4461 C 380.667 -3.29743 3.07539 0
M  V30 4462 C 379.329 -3.31937 3.48384 0
M  V30 4463 C 381.681 -3.29841 4.03552 0
M  V30 4464 C 379.009 -3.3187 4.83818 0
M  V30 4465 C 381.361 -3.31313 5.38901 0
M  V30 4466 C 380.025 -3.31799 5.79194 0
M  V30 4467 H 379.295 -0.648659 0.358222 0
M  V30 4468 H 381.942 -1.22225 1.47422 0
M  V30 4469 H 380.247 -3.78675 1.00561 0
M  V30 4470 H 381.944 -3.75917 1.39598 0
M  V30 4471 H 378.534 -3.28757 2.74986 0
M  V30 4472 H 382.718 -3.27337 3.73047 0
M  V30 4473 H 377.974 -3.30562 5.14333 0
M  V30 4474 H 382.148 -3.30338 6.13066 0
M  V30 4475 H 379.775 -3.315 6.84114 0
M  V30 4476 N 381.35 -0.985608 -1.22978 0
M  V30 4477 C 382.297 -0.529825 -2.24636 0
M  V30 4478 C 383.267 0.434028 -1.60329 0
M  V30 4479 O 384.452 0.340414 -1.87739 0
M  V30 4480 C 381.592 0.156533 -3.44745 0
M  V30 4481 C 380.705 -0.848197 -4.23591 0
M  V30 4482 C 379.84 -0.136109 -5.31026 0
M  V30 4483 C 378.879 -1.1297 -6.01585 0
M  V30 4484 N 378.016 -0.446415 -7.00679 0
M  V30 4485 H 382.856 -1.40148 -2.62988 0
M  V30 4486 H 380.393 -0.702168 -1.29259 0
M  V30 4487 H 382.351 0.571324 -4.1327 0
M  V30 4488 H 380.981 0.992025 -3.07179 0
M  V30 4489 H 380.033 -1.38135 -3.54433 0
M  V30 4490 H 381.345 -1.60512 -4.72268 0
M  V30 4491 H 380.499 0.335784 -6.0577 0
M  V30 4492 H 379.238 0.653373 -4.83304 0
M  V30 4493 H 378.243 -1.6123 -5.25628 0
M  V30 4494 H 379.468 -1.91993 -6.51395 0
M  V30 4495 H 377.414 0.323763 -6.55201 0
M  V30 4496 H 377.331 -1.1419 -7.47326 0
M  V30 4497 H 378.599 0.00291697 -7.795 0
M  V30 4498 N 382.828 1.3818 -0.7579 0
M  V30 4499 C 384.056 2.04301 -0.326937 0
M  V30 4500 C 384.471 1.57163 1.0462 0
M  V30 4501 O 383.828 0.746626 1.66529 0
M  V30 4502 C 383.879 3.59846 -0.345363 0
M  V30 4503 O 383.6 4.05256 -1.66432 0
M  V30 4504 C 385.101 4.4319 0.098927 0
M  V30 4505 H 382.321 0.656443 -0.139012 0
M  V30 4506 H 384.865 1.76786 -1.02796 0
M  V30 4507 H 383.02 3.86182 0.306955 0
M  V30 4508 H 383.434 4.99709 -1.59345 0
M  V30 4509 H 384.908 5.51989 0.0348745 0
M  V30 4510 H 385.385 4.23947 1.14741 0
M  V30 4511 H 385.991 4.22051 -0.52468 0
M  V30 4512 N 384.306 0.507319 1.49211 0
M  V30 4513 C 385.536 -0.0315292 2.06576 0
M  V30 4514 C 385.944 -1.30791 1.36713 0
M  V30 4515 O 385.287 -1.78324 0.441181 0
M  V30 4516 C 385.349 -0.349104 3.57801 0
M  V30 4517 C 385.013 0.830475 4.49391 0
M  V30 4518 C 386.01 1.72271 4.90529 0
M  V30 4519 C 383.695 1.03107 4.91604 0
M  V30 4520 C 385.689 2.79964 5.72625 0
M  V30 4521 C 383.376 2.11116 5.73475 0
M  V30 4522 C 384.374 2.99379 6.1389 0
M  V30 4523 O 384.062 4.05523 6.94123 0
M  V30 4524 H 383.794 0.0201002 0.675701 0
M  V30 4525 H 386.348 0.705737 1.92895 0
M  V30 4526 H 384.578 -1.14005 3.69513 0
M  V30 4527 H 386.267 -0.827319 3.97379 0
M  V30 4528 H 387.033 1.57958 4.58557 0
M  V30 4529 H 382.912 0.353417 4.59643 0
M  V30 4530 H 386.456 3.48884 6.04091 0
M  V30 4531 H 382.353 2.25421 6.0486 0
M  V30 4532 H 383.121 4.02953 7.1244 0
M  V30 4533 N 385.784 -1.5574 0.241426 0
M  V30 4534 C 386.747 -2.19877 -0.647063 0
M  V30 4535 C 387.747 -1.16642 -1.10686 0
M  V30 4536 O 388.937 -1.41757 -1.01245 0
M  V30 4537 C 386.069 -2.83797 -1.88871 0
M  V30 4538 H 387.262 -2.99772 -0.087574 0
M  V30 4539 H 384.815 -1.56298 -0.00813574 0
M  V30 4540 H 385.55 -2.07824 -2.48957 0
M  V30 4541 H 385.335 -3.59414 -1.56728 0
M  V30 4542 H 386.825 -3.32898 -2.52129 0
M  V30 4543 N 387.262 0.0317525 -1.57568 0
M  V30 4544 C 388.172 1.05021 -2.0978 0
M  V30 4545 C 389.188 1.39809 -1.03583 0
M  V30 4546 O 390.364 1.49182 -1.35302 0
M  V30 4547 C 387.429 2.33301 -2.56459 0
M  V30 4548 C 386.49 2.0512 -3.77127 0
M  V30 4549 C 385.723 3.27283 -4.2157 0
M  V30 4550 O 385.946 4.37861 -3.65559 0
M  V30 4551 O 384.88 3.13141 -5.14029 0
M  V30 4552 H 388.706 0.636505 -2.96955 0
M  V30 4553 H 386.291 0.248559 -1.47318 0
M  V30 4554 H 388.173 3.08722 -2.86825 0
M  V30 4555 H 386.848 2.73973 -1.72397 0
M  V30 4556 H 385.755 1.27276 -3.51784 0
M  V30 4557 H 387.088 1.69305 -4.62165 0
M  V30 4558 N 388.74 1.54641 0.303973 0
M  V30 4559 C 389.965 1.78092 1.06292 0
M  V30 4560 C 390.39 0.537342 1.80262 0
M  V30 4561 O 389.748 -0.511993 1.7392 0
M  V30 4562 C 389.796 2.98612 2.02147 0
M  V30 4563 O 388.9 2.71528 3.10397 0
M  V30 4564 H 388.241 0.589548 0.305497 0
M  V30 4565 H 390.771 2.01716 0.3423 0
M  V30 4566 H 390.781 3.265 2.44667 0
M  V30 4567 H 389.456 3.88785 1.47714 0
M  V30 4568 H 388.033 2.54648 2.72413 0
M  V30 4569 N 390.218 -0.567019 1.47046 0
M  V30 4570 C 391.467 -1.32091 1.5243 0
M  V30 4571 C 391.78 -1.94704 0.187021 0
M  V30 4572 O 392.986 -2.7124 0.118771 0
M  V30 4573 C 391.442 -2.39479 2.68659 0
M  V30 4574 C 391.05 -1.831 4.08874 0
M  V30 4575 C 392.794 -3.16111 2.83327 0
M  V30 4576 C 390.701 -2.8821 5.16419 0
M  V30 4577 H 389.631 -0.496629 0.56734 0
M  V30 4578 H 392.282 -0.603354 1.73297 0
M  V30 4579 H 390.664 -3.14105 2.41152 0
M  V30 4580 H 391.838 -1.14913 4.46242 0
M  V30 4581 H 390.153 -1.19085 3.99008 0
M  V30 4582 H 392.75 -3.94585 3.60842 0
M  V30 4583 H 393.093 -3.69686 1.91411 0
M  V30 4584 H 393.626 -2.48595 3.10556 0
M  V30 4585 H 390.365 -2.39504 6.10179 0
M  V30 4586 H 389.885 -3.54839 4.8358 0
M  V30 4587 H 391.564 -3.51881 5.42945 0
M  V30 4588 N 391.696 -1.35014 -0.812953 0
M  V30 4589 C 392.629 -1.21761 -1.93001 0
M  V30 4590 C 393.607 -0.10694 -1.62248 0
M  V30 4591 O 394.791 -0.273891 -1.865 0
M  V30 4592 C 391.918 -0.873404 -3.27245 0
M  V30 4593 C 390.964 -1.99523 -3.76952 0
M  V30 4594 S 391.797 -3.61009 -3.95516 0
M  V30 4595 C 392.953 -3.28651 -5.32672 0
M  V30 4596 H 393.186 -2.16315 -2.03948 0
M  V30 4597 H 390.719 -1.20156 -0.969631 0
M  V30 4598 H 392.677 -0.68161 -4.04802 0
M  V30 4599 H 391.338 0.053971 -3.14054 0
M  V30 4600 H 390.531 -1.70838 -4.74163 0
M  V30 4601 H 390.133 -2.14503 -3.06373 0
M  V30 4602 H 392.425 -2.81085 -6.1644 0
M  V30 4603 H 393.368 -4.25039 -5.66346 0
M  V30 4604 H 393.776 -2.6458 -4.98656 0
M  V30 4605 N 393.175 1.03435 -1.18907 0
M  V30 4606 C 394.452 1.73778 -0.89781 0
M  V30 4607 C 394.832 2.02458 0.597832 0
M  V30 4608 O 394.18 1.67482 1.55441 0
M  V30 4609 C 394.39 3.01845 -1.75187 0
M  V30 4610 C 395.738 3.7546 -1.9828 0
M  V30 4611 O 396.762 3.11759 -1.72293 0
M  V30 4612 O 395.621 4.89966 -2.42065 0
M  V30 4613 H 392.715 0.75651 -0.334098 0
M  V30 4614 H 395.261 1.09444 -1.29693 0
M  V30 4615 H 394.033 2.76836 -2.76545 0
M  V30 4616 H 393.656 3.73919 -1.35167 0
M  V30 4617 N 394.653 0.992116 1.22453 0
M  V30 4618 C 395.878 0.685644 1.95739 0
M  V30 4619 C 396.303 -0.743 1.72804 0
M  V30 4620 O 395.661 -1.50778 1.00676 0
M  V30 4621 C 395.709 0.996293 3.46564 0
M  V30 4622 O 394.813 0.0945512 4.12292 0
M  V30 4623 H 394.154 0.256694 0.612376 0
M  V30 4624 H 396.684 1.32888 1.5557 0
M  V30 4625 H 396.694 0.93781 3.97076 0
M  V30 4626 H 395.369 2.03733 3.62582 0
M  V30 4627 H 393.946 0.208451 3.72317 0
M  V30 4628 N 396.131 -1.37776 0.765217 0
M  V30 4629 C 397.377 -2.00145 0.327072 0
M  V30 4630 C 397.71 -1.60607 -1.09175 0
M  V30 4631 O 396.985 -0.849127 -1.74986 0
M  V30 4632 C 397.268 -3.57109 0.46319 0
M  V30 4633 C 397.121 -4.06576 1.92395 0
M  V30 4634 C 398.44 -4.39888 -0.136473 0
M  V30 4635 H 395.559 -0.727113 0.120316 0
M  V30 4636 H 398.201 -1.63549 0.967039 0
M  V30 4637 H 396.351 -3.88414 -0.0816358 0
M  V30 4638 H 398.023 -3.85864 2.52798 0
M  V30 4639 H 396.266 -3.59011 2.43503 0
M  V30 4640 H 396.937 -5.15639 1.97028 0
M  V30 4641 H 399.413 -4.14803 0.328317 0
M  V30 4642 H 398.289 -5.48899 -0.0110582 0
M  V30 4643 H 398.55 -4.24758 -1.22608 0
M  V30 4644 N 397.609 -0.515225 -1.4894 0
M  V30 4645 C 398.539 0.244628 -2.32215 0
M  V30 4646 C 399.52 0.949136 -1.41157 0
M  V30 4647 O 400.705 0.937783 -1.70057 0
M  V30 4648 C 397.835 1.30096 -3.22013 0
M  V30 4649 C 396.789 0.715486 -4.21977 0
M  V30 4650 C 396.115 1.87339 -5.00808 0
M  V30 4651 C 397.415 -0.302982 -5.2142 0
M  V30 4652 H 399.109 -0.450501 -2.95991 0
M  V30 4653 H 396.655 -0.218098 -1.42339 0
M  V30 4654 H 398.608 1.84037 -3.79089 0
M  V30 4655 H 397.332 2.02547 -2.56207 0
M  V30 4656 H 395.991 0.197715 -3.66066 0
M  V30 4657 H 395.639 2.58592 -4.31438 0
M  V30 4658 H 395.339 1.48764 -5.68457 0
M  V30 4659 H 396.863 2.41686 -5.60732 0
M  V30 4660 H 398.277 0.148802 -5.73107 0
M  V30 4661 H 396.674 -0.60532 -5.97039 0
M  V30 4662 H 397.744 -1.21395 -4.69459 0
M  V30 4663 N 399.087 1.5561 -0.249682 0
M  V30 4664 C 400.035 2.22894 0.664906 0
M  V30 4665 C 401.029 1.21743 1.17792 0
M  V30 4666 O 402.235 1.39748 1.13449 0
M  V30 4667 H 398.61 0.715022 0.232912 0
M  V30 4668 H 400.581 2.98307 0.0742998 0
M  V30 4669 C 399.33 2.94424 1.84959 0
M  V30 4670 H 398.653 3.72031 1.46399 0
M  V30 4671 H 400.093 3.44862 2.4667 0
M  V30 4672 C 398.552 1.98454 2.72245 0
M  V30 4673 O 399.082 1.51939 3.71857 0
M  V30 4674 N 397.288 1.65496 2.38871 0
M  V30 4675 H 396.835 2.03517 1.57919 0
M  V30 4676 H 396.793 1.0155 2.97548 0
M  V30 4677 N 400.565 -0.0233959 1.57583 0
M  V30 4678 C 401.811 -0.714119 1.89811 0
M  V30 4679 C 402.144 -1.74702 0.848113 0
M  V30 4680 O 401.419 -1.94023 -0.136135 0
M  V30 4681 C 401.702 -1.37853 3.32669 0
M  V30 4682 C 401.555 -0.358764 4.48367 0
M  V30 4683 C 402.874 -2.31101 3.7454 0
M  V30 4684 H 399.993 -0.25814 0.690314 0
M  V30 4685 H 402.635 0.0230927 1.89986 0
M  V30 4686 H 400.785 -2.00689 3.3265 0
M  V30 4687 H 402.457 0.268115 4.6052 0
M  V30 4688 H 400.7 0.321387 4.32608 0
M  V30 4689 H 401.371 -0.862242 5.45224 0
M  V30 4690 H 403.847 -1.78304 3.75961 0
M  V30 4691 H 402.723 -2.74567 4.75294 0
M  V30 4692 H 402.984 -3.18018 3.0711 0
M  V30 4693 N 402.043 -1.548 -0.295768 0
M  V30 4694 C 403.454 -1.65274 -0.868411 0
M  V30 4695 C 403.805 -0.56481 -1.87894 0
M  V30 4696 O 402.93 0.29767 -2.14343 0
M  V30 4697 C 403.525 -2.99603 -1.58188 0
M  V30 4698 C 402.084 -3.12181 -2.10286 0
M  V30 4699 C 401.231 -2.6098 -0.93727 0
M  V30 4700 H 404.182 -1.58534 -0.0726422 0
M  V30 4701 H 404.203 -2.91319 -2.44772 0
M  V30 4702 H 403.715 -3.78764 -0.846151 0
M  V30 4703 H 401.816 -2.3775 -2.8689 0
M  V30 4704 H 401.929 -4.18415 -2.33379 0
M  V30 4705 H 400.293 -2.17564 -1.32431 0
M  V30 4706 H 401.076 -3.42623 -0.215414 0
M  V30 4707 N 403.521 0.559213 -1.47345 0
M  V30 4708 C 404.768 1.31648 -1.53867 0
M  V30 4709 C 405.096 1.93468 -0.200104 0
M  V30 4710 O 404.351 1.78295 0.806799 0
M  V30 4711 C 404.65 2.44853 -2.6035 0
M  V30 4712 C 404.316 2.00876 -4.03683 0
M  V30 4713 C 402.978 1.88599 -4.42701 0
M  V30 4714 C 405.33 1.67279 -4.93626 0
M  V30 4715 C 402.658 1.41017 -5.69501 0
M  V30 4716 C 405.01 1.21169 -6.20887 0
M  V30 4717 C 403.674 1.07487 -6.58789 0
M  V30 4718 H 402.944 0.481734 -0.56304 0
M  V30 4719 H 405.591 0.627301 -1.80934 0
M  V30 4720 H 403.896 3.19318 -2.27032 0
M  V30 4721 H 405.593 3.03039 -2.62619 0
M  V30 4722 H 402.183 2.11374 -3.72853 0
M  V30 4723 H 406.367 1.75638 -4.64182 0
M  V30 4724 H 401.623 1.29086 -5.97618 0
M  V30 4725 H 405.797 0.942345 -6.89995 0
M  V30 4726 H 403.424 0.703946 -7.56934 0
M  V30 4727 N 404.999 1.35443 0.805782 0
M  V30 4728 C 406.246 1.28761 1.56291 0
M  V30 4729 C 406.574 -0.137747 1.94012 0
M  V30 4730 O 405.829 -1.1032 1.61642 0
M  V30 4731 C 406.128 2.14045 2.86216 0
M  V30 4732 C 405.794 3.62826 2.67709 0
M  V30 4733 C 404.456 4.0338 2.6237 0
M  V30 4734 C 406.808 4.57227 2.50186 0
M  V30 4735 C 404.136 5.36501 2.37451 0
M  V30 4736 C 406.488 5.90547 2.26797 0
M  V30 4737 C 405.152 6.30245 2.1988 0
M  V30 4738 H 404.422 0.471171 0.571908 0
M  V30 4739 H 407.069 1.67347 0.930974 0
M  V30 4740 H 405.374 1.68342 3.53791 0
M  V30 4741 H 407.071 2.0621 3.43917 0
M  V30 4742 H 403.661 3.30644 2.72713 0
M  V30 4743 H 407.845 4.2678 2.53323 0
M  V30 4744 H 403.101 5.66259 2.30567 0
M  V30 4745 H 407.275 6.63274 2.12228 0
M  V30 4746 H 404.902 7.33328 2.00333 0
M  V30 4747 N 406.477 -1.02803 1.19454 0
M  V30 4748 C 407.425 -2.13213 0.929673 0
M  V30 4749 C 408.419 -1.69011 -0.114806 0
M  V30 4750 O 409.625 -1.79967 0.0345147 0
M  V30 4751 H 406 -0.69662 0.28324 0
M  V30 4752 H 407.971 -2.32744 1.86743 0
M  V30 4753 C 406.72 -3.4429 0.485797 0
M  V30 4754 H 406.043 -3.7872 1.28105 0
M  V30 4755 H 407.483 -4.22638 0.339582 0
M  V30 4756 C 405.942 -3.27258 -0.800244 0
M  V30 4757 O 406.472 -3.55967 -1.86146 0
M  V30 4758 N 404.678 -2.80545 -0.75781 0
M  V30 4759 H 404.225 -2.57382 0.106039 0
M  V30 4760 H 404.183 -2.6953 -1.61867 0
M  V30 4761 N 407.956 -0.998596 -1.21925 0
M  V30 4762 C 408.903 -0.553621 -2.24062 0
M  V30 4763 C 409.873 0.416999 -1.6078 0
M  V30 4764 O 411.058 0.320482 -1.88089 0
M  V30 4765 C 408.198 0.119959 -3.44891 0
M  V30 4766 C 407.311 -0.893077 -4.22668 0
M  V30 4767 C 406.446 -0.192424 -5.30851 0
M  V30 4768 C 405.485 -1.19344 -6.00353 0
M  V30 4769 N 404.622 -0.520707 -7.00166 0
M  V30 4770 H 409.462 -1.4293 -2.61486 0
M  V30 4771 H 406.999 -0.715838 -1.28507 0
M  V30 4772 H 408.957 0.527459 -4.13852 0
M  V30 4773 H 407.587 0.959389 -3.08214 0
M  V30 4774 H 406.639 -1.41886 -3.52948 0
M  V30 4775 H 407.951 -1.65512 -4.70539 0
M  V30 4776 H 407.105 0.271515 -6.06092 0
M  V30 4777 H 405.844 0.602075 -4.83969 0
M  V30 4778 H 404.849 -1.66795 -5.23889 0
M  V30 4779 H 406.074 -1.98891 -6.49322 0
M  V30 4780 H 404.02 0.254252 -6.55507 0
M  V30 4781 H 403.937 -1.2211 -7.46073 0
M  V30 4782 H 405.205 -0.0797596 -7.79459 0
M  V30 4783 N 409.434 1.37368 -0.772513 0
M  V30 4784 C 410.382 2.32134 -0.147111 0
M  V30 4785 C 411.376 1.54972 0.684106 0
M  V30 4786 O 412.582 1.70363 0.581083 0
M  V30 4787 H 408.957 0.751449 -0.028786 0
M  V30 4788 H 410.928 2.82464 -0.962112 0
M  V30 4789 C 409.677 3.40226 0.71703 0
M  V30 4790 H 409 3.99706 0.0867951 0
M  V30 4791 H 410.44 4.08897 1.12159 0
M  V30 4792 C 408.899 2.80372 1.86797 0
M  V30 4793 O 409.429 2.71183 2.96349 0
M  V30 4794 N 407.635 2.37904 1.66883 0
M  V30 4795 H 407.182 2.45578 0.777759 0
M  V30 4796 H 407.14 1.98202 2.44056 0
M  V30 4797 N 410.912 0.523116 1.48665 0
M  V30 4798 C 412.161 -0.01544 2.01694 0
M  V30 4799 C 412.474 -1.35975 1.40606 0
M  V30 4800 O 413.68 -1.98627 1.85093 0
M  V30 4801 C 412.136 -0.0779303 3.59816 0
M  V30 4802 C 411.744 1.26107 4.29885 0
M  V30 4803 C 413.488 -0.565678 4.20714 0
M  V30 4804 C 411.395 1.15954 5.79921 0
M  V30 4805 H 410.325 -0.00954163 0.75394 0
M  V30 4806 H 412.976 0.665865 1.70993 0
M  V30 4807 H 411.358 -0.824165 3.87329 0
M  V30 4808 H 412.532 2.02233 4.14051 0
M  V30 4809 H 410.847 1.68401 3.80828 0
M  V30 4810 H 413.444 -0.6595 5.30617 0
M  V30 4811 H 413.787 -1.56984 3.85567 0
M  V30 4812 H 414.32 0.12467 3.97605 0
M  V30 4813 H 411.059 2.13864 6.19631 0
M  V30 4814 H 410.579 0.439529 5.98187 0
M  V30 4815 H 412.258 0.847361 6.41427 0
M  V30 4816 N 412.39 -1.55475 0.257931 0
M  V30 4817 C 413.32 -2.24815 -0.630912 0
M  V30 4818 C 414.301 -1.23224 -1.17259 0
M  V30 4819 O 415.486 -1.51904 -1.20991 0
M  V30 4820 C 412.616 -2.95609 -1.82298 0
M  V30 4821 C 411.57 -4.03982 -1.41359 0
M  V30 4822 C 410.896 -4.6226 -2.68738 0
M  V30 4823 C 412.196 -5.19109 -0.57648 0
M  V30 4824 H 413.89 -2.99354 -0.0526878 0
M  V30 4825 H 411.436 -1.4398 -0.023901 0
M  V30 4826 H 413.389 -3.42822 -2.45054 0
M  V30 4827 H 412.113 -2.18577 -2.42676 0
M  V30 4828 H 410.772 -3.57555 -0.809324 0
M  V30 4829 H 410.42 -3.81915 -3.27338 0
M  V30 4830 H 410.12 -5.35424 -2.42065 0
M  V30 4831 H 411.644 -5.12212 -3.32372 0
M  V30 4832 H 413.058 -5.62479 -1.10861 0
M  V30 4833 H 411.455 -5.98729 -0.405351 0
M  V30 4834 H 412.525 -4.83174 0.408776 0
M  V30 4835 N 413.868 0.0150385 -1.57593 0
M  V30 4836 C 415.093 0.718067 -1.94573 0
M  V30 4837 C 415.518 1.6734 -0.859005 0
M  V30 4838 O 414.876 1.80362 0.184147 0
M  V30 4839 C 414.924 1.43918 -3.30636 0
M  V30 4840 O 414.028 2.55299 -3.23876 0
M  V30 4841 H 413.369 0.192125 -0.635597 0
M  V30 4842 H 415.899 -0.0336708 -2.04572 0
M  V30 4843 H 415.909 1.80598 -3.65853 0
M  V30 4844 H 414.584 0.738619 -4.09289 0
M  V30 4845 H 413.161 2.21058 -3.00312 0
M  V30 4846 N 415.346 1.54954 0.287554 0
M  V30 4847 C 416.296 1.8322 1.357 0
M  V30 4848 C 417.28 0.690152 1.45347 0
M  V30 4849 O 418.472 0.951137 1.49273 0
M  V30 4850 C 415.601 2.09481 2.71979 0
M  V30 4851 C 414.687 3.29906 2.66502 0
M  V30 4852 N 415.078 4.50154 2.30641 0
M  V30 4853 C 413.376 3.32203 2.97585 0
M  V30 4854 C 414.077 5.32209 2.34794 0
M  V30 4855 N 413.053 4.70258 2.72688 0
M  V30 4856 H 416.855 2.73746 1.0696 0
M  V30 4857 H 414.369 1.54635 0.496167 0
M  V30 4858 H 416.366 2.27882 3.49107 0
M  V30 4859 H 415.026 1.2023 3.0162 0
M  V30 4860 H 416.037 4.76515 2.02865 0
M  V30 4861 H 412.714 2.53101 3.32034 0
M  V30 4862 H 414.104 6.38321 2.09753 0
M  V30 4863 N 416.824 -0.551391 1.4764 0
M  V30 4864 C 418.049 -1.33837 1.58437 0
M  V30 4865 C 418.474 -1.866 0.237063 0
M  V30 4866 O 417.832 -1.6328 -0.787994 0
M  V30 4867 C 417.88 -2.48014 2.61766 0
M  V30 4868 O 416.984 -3.50419 2.1744 0
M  V30 4869 H 416.325 -0.397299 0.532024 0
M  V30 4870 H 418.855 -0.665759 1.93465 0
M  V30 4871 H 418.865 -2.94503 2.82369 0
M  V30 4872 H 417.54 -2.08969 3.5959 0
M  V30 4873 H 416.117 -3.10196 2.06961 0
M  V30 4874 N 418.302 -1.35869 -0.798587 0
M  V30 4875 C 419.549 -1.29588 -1.55606 0
M  V30 4876 C 419.877 0.127456 -1.94082 0
M  V30 4877 O 419.132 1.09461 -1.62225 0
M  V30 4878 C 419.431 -2.1556 -2.85077 0
M  V30 4879 C 419.097 -3.6424 -2.65781 0
M  V30 4880 C 417.759 -4.04766 -2.60227 0
M  V30 4881 C 420.111 -4.58547 -2.47758 0
M  V30 4882 C 417.439 -5.37753 -2.34603 0
M  V30 4883 C 419.791 -5.91742 -2.23662 0
M  V30 4884 C 418.455 -6.31402 -2.16534 0
M  V30 4885 H 417.725 -0.474197 -0.569402 0
M  V30 4886 H 420.372 -1.67839 -0.922086 0
M  V30 4887 H 418.677 -1.70216 -3.52893 0
M  V30 4888 H 420.374 -2.08031 -3.42818 0
M  V30 4889 H 416.964 -3.32086 -2.70956 0
M  V30 4890 H 421.148 -4.28117 -2.51056 0
M  V30 4891 H 416.404 -5.67474 -2.2756 0
M  V30 4892 H 420.578 -6.6439 -2.08708 0
M  V30 4893 H 418.205 -7.34381 -1.96441 0
M  V30 4894 N 419.78 1.02168 -1.19998 0
M  V30 4895 C 420.728 2.12717 -0.940967 0
M  V30 4896 C 421.722 1.69069 0.105841 0
M  V30 4897 O 422.928 1.79946 -0.0440583 0
M  V30 4898 H 419.303 0.695108 -0.28693 0
M  V30 4899 H 421.274 2.3175 -1.87975 0
M  V30 4900 C 420.023 3.44027 -0.504049 0
M  V30 4901 H 419.346 3.78036 -1.30112 0
M  V30 4902 H 420.786 4.22452 -0.361991 0
M  V30 4903 C 419.245 3.27678 0.782878 0
M  V30 4904 O 419.775 3.56949 1.84256 0
M  V30 4905 N 417.981 2.80943 0.742921 0
M  V30 4906 H 417.528 2.57322 -0.119687 0
M  V30 4907 H 417.486 2.70385 1.60435 0
M  V30 4908 N 421.258 1.00505 1.21394 0
M  V30 4909 C 422.506 0.686415 1.90086 0
M  V30 4910 C 422.827 -0.785264 1.7849 0
M  V30 4911 O 422.097 -1.56387 1.17983 0
M  V30 4912 H 420.677 0.2509 0.703604 0
M  V30 4913 H 423.339 1.27417 1.47482 0
M  V30 4914 H 422.435 0.959621 2.96981 0
M  V30 4915 N 422.737 -1.36956 0.779787 0
M  V30 4916 C 423.684 -2.30175 0.169697 0
M  V30 4917 C 424.654 -1.51501 -0.68094 0
M  V30 4918 O 425.839 -1.80042 -0.631629 0
M  V30 4919 C 422.979 -3.37985 -0.697131 0
M  V30 4920 C 422.092 -4.31661 0.170992 0
M  V30 4921 C 421.227 -5.2655 -0.701298 0
M  V30 4922 C 420.266 -6.11867 0.168869 0
M  V30 4923 N 419.403 -6.98973 -0.661855 0
M  V30 4924 H 424.243 -2.81767 0.970135 0
M  V30 4925 H 421.78 -1.38699 0.489994 0
M  V30 4926 H 423.738 -3.99128 -1.2146 0
M  V30 4927 H 422.368 -2.87739 -1.46309 0
M  V30 4928 H 421.42 -3.71756 0.80634 0
M  V30 4929 H 422.732 -4.91644 0.841875 0
M  V30 4930 H 421.886 -5.92937 -1.28494 0
M  V30 4931 H 420.625 -4.66998 -1.40584 0
M  V30 4932 H 419.63 -5.44452 0.764986 0
M  V30 4933 H 420.855 -6.73493 0.870863 0
M  V30 4934 H 418.801 -6.41941 -1.35086 0
M  V30 4935 H 418.718 -7.55984 -0.0484447 0
M  V30 4936 H 419.986 -7.6974 -1.22963 0
M  V30 4937 N 424.215 -0.530993 -1.48385 0
M  V30 4938 C 425.162 0.231223 -2.29639 0
M  V30 4939 C 426.132 0.932864 -1.37429 0
M  V30 4940 O 427.317 0.933692 -1.66394 0
M  V30 4941 C 424.457 1.27155 -3.2082 0
M  V30 4942 C 423.57 0.578655 -4.28107 0
M  V30 4943 C 422.705 1.602 -5.06467 0
M  V30 4944 C 421.744 0.892625 -6.05556 0
M  V30 4945 N 420.881 1.86157 -6.76971 0
M  V30 4946 H 425.721 -0.467848 -2.94305 0
M  V30 4947 H 423.258 -0.242556 -1.45086 0
M  V30 4948 H 425.216 1.88703 -3.72085 0
M  V30 4949 H 423.846 1.939 -2.58075 0
M  V30 4950 H 422.898 -0.150782 -3.80101 0
M  V30 4951 H 424.21 0.0217065 -4.98795 0
M  V30 4952 H 423.364 2.29173 -5.61751 0
M  V30 4953 H 422.103 2.19285 -4.35621 0
M  V30 4954 H 421.108 0.188829 -5.49476 0
M  V30 4955 H 422.333 0.307878 -6.78402 0
M  V30 4956 H 420.279 2.44147 -6.08875 0
M  V30 4957 H 420.196 1.35608 -7.43738 0
M  V30 4958 H 421.464 2.54325 -7.36844 0
M  V30 4959 N 425.693 1.55336 -0.266172 0
M  V30 4960 C 426.918 2.04258 0.359661 0
M  V30 4961 C 427.343 1.14359 1.49344 0
M  V30 4962 O 426.701 0.140369 1.80756 0
M  V30 4963 C 426.749 3.50997 0.826635 0
M  V30 4964 O 425.853 3.64204 1.93466 0
M  V30 4965 H 425.194 0.659668 0.075727 0
M  V30 4966 H 427.724 2.00694 -0.39786 0
M  V30 4967 H 427.734 3.9219 1.12477 0
M  V30 4968 H 426.409 4.159 -0.00293032 0
M  V30 4969 H 424.986 3.34913 1.63974 0
M  V30 4970 N 427.171 -0.0066808 1.57599 0
M  V30 4971 C 428.101 -0.999296 2.11036 0
M  V30 4972 C 429.082 -1.36278 1.01795 0
M  V30 4973 O 430.267 -1.4477 1.29442 0
M  V30 4974 C 427.397 -2.29328 2.60818 0
M  V30 4975 C 426.351 -2.07159 3.74525 0
M  V30 4976 C 425.677 -3.42512 4.10596 0
M  V30 4977 C 426.977 -1.43959 5.02069 0
M  V30 4978 H 428.671 -0.554382 2.94223 0
M  V30 4979 H 426.217 -0.265221 1.41536 0
M  V30 4980 H 428.17 -2.99117 2.96828 0
M  V30 4981 H 426.894 -2.7592 1.74745 0
M  V30 4982 H 425.553 -1.39797 3.38899 0
M  V30 4983 H 425.201 -3.86795 3.21556 0
M  V30 4984 H 424.901 -3.28498 4.87199 0
M  V30 4985 H 426.425 -4.13628 4.4916 0
M  V30 4986 H 427.839 -2.03696 5.35893 0
M  V30 4987 H 426.236 -1.40452 5.83432 0
M  V30 4988 H 427.306 -0.407992 4.83181 0
M  V30 4989 N 428.649 -1.55105 -0.279332 0
M  V30 4990 C 429.579 -1.90557 -1.34945 0
M  V30 4991 C 430.56 -0.766738 -1.51839 0
M  V30 4992 O 431.745 -1.02434 -1.64988 0
M  V30 4993 C 428.875 -2.17193 -2.71006 0
M  V30 4994 C 427.829 -3.33021 -2.68851 0
M  V30 4995 C 427.155 -3.45123 -4.08405 0
M  V30 4996 C 428.455 -4.69578 -2.28678 0
M  V30 4997 H 430.149 -2.80188 -1.05522 0
M  V30 4998 H 427.695 -1.34811 -0.506173 0
M  V30 4999 H 429.648 -2.40581 -3.45975 0
M  V30 5000 H 428.372 -1.24355 -3.01999 0
M  V30 5001 H 427.031 -3.0959 -1.9634 0
M  V30 5002 H 426.679 -2.49762 -4.3661 0
M  V30 5003 H 426.379 -4.22995 -4.07859 0
M  V30 5004 H 427.903 -3.70796 -4.85121 0
M  V30 5005 H 429.317 -4.92553 -2.93368 0
M  V30 5006 H 427.714 -5.5032 -2.39306 0
M  V30 5007 H 428.784 -4.68828 -1.23807 0
M  V30 5008 N 430.127 0.543554 -1.4793 0
M  V30 5009 C 431.074 1.64942 -1.6144 0
M  V30 5010 C 432.044 1.59692 -0.456903 0
M  V30 5011 O 433.229 1.78321 -0.678688 0
M  V30 5012 C 430.369 3.03238 -1.64744 0
M  V30 5013 C 429.482 3.18823 -2.91506 0
M  V30 5014 C 428.617 4.47599 -2.86057 0
M  V30 5015 C 427.656 4.56664 -4.07584 0
M  V30 5016 N 426.793 5.76811 -4.00292 0
M  V30 5017 H 431.633 1.52733 -2.55884 0
M  V30 5018 H 429.17 0.7438 -1.2691 0
M  V30 5019 H 431.128 3.83339 -1.64641 0
M  V30 5020 H 429.758 3.1425 -0.738017 0
M  V30 5021 H 428.81 2.32064 -3.01414 0
M  V30 5022 H 430.122 3.21384 -3.81463 0
M  V30 5023 H 429.276 5.35975 -2.84281 0
M  V30 5024 H 428.015 4.47538 -1.93807 0
M  V30 5025 H 427.02 3.66697 -4.09651 0
M  V30 5026 H 428.245 4.58474 -5.00978 0
M  V30 5027 H 426.191 5.77673 -3.10853 0
M  V30 5028 H 426.108 5.80808 -4.8394 0
M  V30 5029 H 427.376 6.67512 -4.02553 0
M  V30 5030 N 431.605 1.3629 0.791371 0
M  V30 5031 C 433.021 1.16661 1.08914 0
M  V30 5032 C 433.221 -0.0106266 2.01497 0
M  V30 5033 O 432.277 -0.676596 2.43266 0
M  V30 5034 C 433.59 2.47656 1.70549 0
M  V30 5035 C 435.138 2.54002 1.82899 0
M  V30 5036 C 435.613 3.85078 2.47949 0
M  V30 5037 N 437.104 3.86413 2.5542 0
M  V30 5038 C 437.839 4.84572 3.06557 0
M  V30 5039 N 437.335 5.93124 3.58016 0
M  V30 5040 N 439.128 4.71994 3.05251 0
M  V30 5041 H 431.279 2.11668 0.176238 0
M  V30 5042 H 433.542 0.937486 0.140796 0
M  V30 5043 H 433.248 3.34059 1.09989 0
M  V30 5044 H 433.122 2.63319 2.70079 0
M  V30 5045 H 435.509 1.68018 2.42598 0
M  V30 5046 H 435.59 2.42239 0.821808 0
M  V30 5047 H 435.234 4.71467 1.88895 0
M  V30 5048 H 435.164 3.94135 3.49235 0
M  V30 5049 H 437.655 3.07988 2.18979 0
M  V30 5050 H 437.968 6.63999 3.95381 0
M  V30 5051 H 436.313 5.96796 3.56173 0
M  V30 5052 H 439.504 3.86321 2.64336 0
M  V30 5053 H 439.677 5.48653 3.44796 0
M  V30 5054 N 433.083 -1.0153 1.20538 0
M  V30 5055 C 434.499 -1.27461 0.96051 0
M  V30 5056 C 434.699 -1.98273 -0.359193 0
M  V30 5057 O 433.755 -2.27886 -1.0874 0
M  V30 5058 C 435.068 -2.10837 2.14402 0
M  V30 5059 C 436.616 -2.24099 2.18515 0
M  V30 5060 C 437.091 -3.10852 3.36355 0
M  V30 5061 N 438.582 -3.18441 3.36377 0
M  V30 5062 C 439.317 -3.85795 4.24205 0
M  V30 5063 N 438.813 -4.55264 5.22213 0
M  V30 5064 N 440.606 -3.82331 4.12043 0
M  V30 5065 H 432.757 -0.539907 2.05423 0
M  V30 5066 H 435.02 -0.30092 0.898972 0
M  V30 5067 H 434.726 -1.66144 3.09983 0
M  V30 5068 H 434.6 -3.11576 2.12604 0
M  V30 5069 H 436.987 -2.68016 1.23497 0
M  V30 5070 H 437.068 -1.22865 2.24361 0
M  V30 5071 H 436.712 -2.6764 4.31661 0
M  V30 5072 H 436.642 -4.12177 3.27746 0
M  V30 5073 H 439.133 -2.68978 2.65442 0
M  V30 5074 H 439.446 -5.04331 5.85551 0
M  V30 5075 H 437.791 -4.54085 5.26148 0
M  V30 5076 H 440.982 -3.27207 3.34743 0
M  V30 5077 H 441.155 -4.34547 4.807 0
M  V30 5078 N 434.561 -1.01147 -1.20859 0
M  V30 5079 C 435.491 -0.597663 -2.25722 0
M  V30 5080 C 436.472 0.384744 -1.65692 0
M  V30 5081 O 437.657 0.271303 -1.92296 0
M  V30 5082 C 434.787 0.0700149 -3.47229 0
M  V30 5083 C 433.741 -0.832843 -4.19819 0
M  V30 5084 C 433.067 -0.0312202 -5.34691 0
M  V30 5085 C 434.367 -2.1385 -4.76514 0
M  V30 5086 H 436.061 -1.47423 -2.60589 0
M  V30 5087 H 433.607 -0.710301 -1.25263 0
M  V30 5088 H 435.56 0.37103 -4.19763 0
M  V30 5089 H 434.284 0.981259 -3.11511 0
M  V30 5090 H 432.943 -1.11778 -3.49144 0
M  V30 5091 H 432.591 0.881515 -4.95215 0
M  V30 5092 H 432.291 -0.632434 -5.84187 0
M  V30 5093 H 433.815 0.26346 -6.10031 0
M  V30 5094 H 435.229 -1.9002 -5.40893 0
M  V30 5095 H 433.626 -2.69012 -5.36426 0
M  V30 5096 H 434.696 -2.80495 -3.95538 0
M  V30 5097 N 436.039 1.36541 -0.78704 0
M  V30 5098 C 437.288 1.98552 -0.35494 0
M  V30 5099 C 437.601 1.63171 1.07864 0
M  V30 5100 O 438.807 2.18399 1.61289 0
M  V30 5101 C 437.263 3.55136 -0.583671 0
M  V30 5102 C 436.871 3.99444 -2.02851 0
M  V30 5103 C 438.615 4.2395 -0.215957 0
M  V30 5104 C 436.522 5.48796 -2.20403 0
M  V30 5105 H 435.452 0.742888 -0.128972 0
M  V30 5106 H 438.103 1.5587 -0.968337 0
M  V30 5107 H 436.485 3.95875 0.0994046 0
M  V30 5108 H 437.659 3.6991 -2.74779 0
M  V30 5109 H 435.974 3.43459 -2.35425 0
M  V30 5110 H 438.571 5.33709 -0.325405 0
M  V30 5111 H 438.914 4.07827 0.835646 0
M  V30 5112 H 439.447 3.88565 -0.852175 0
M  V30 5113 H 436.186 5.69864 -3.23937 0
M  V30 5114 H 435.706 5.79964 -1.52977 0
M  V30 5115 H 437.385 6.14986 -2.01002 0
M  V30 5116 N 437.518 0.538854 1.48102 0
M  V30 5117 C 438.466 -0.232325 2.31437 0
M  V30 5118 C 439.46 -0.927004 1.41785 0
M  V30 5119 O 440.666 -0.850378 1.58646 0
M  V30 5120 H 437.041 -0.0937916 0.746128 0
M  V30 5121 H 439.012 0.489986 2.9435 0
M  V30 5122 C 437.761 -1.26074 3.24038 0
M  V30 5123 H 437.084 -0.735609 3.92974 0
M  V30 5124 H 438.524 -1.77157 3.85216 0
M  V30 5125 C 436.983 -2.29902 2.46265 0
M  V30 5126 O 437.513 -3.36502 2.19384 0
M  V30 5127 N 435.719 -2.03348 2.07601 0
M  V30 5128 H 435.266 -1.16675 2.29662 0
M  V30 5129 H 435.224 -2.73038 1.55877 0
M  V30 5130 N 438.996 -1.55193 0.274407 0
M  V30 5131 C 440.245 -1.98758 -0.343213 0
M  V30 5132 C 440.558 -1.16624 -1.5703 0
M  V30 5133 O 441.764 -1.5033 -2.26082 0
M  V30 5134 C 440.22 -3.53759 -0.661996 0
M  V30 5135 C 439.828 -4.4467 0.54524 0
M  V30 5136 C 441.572 -4.05916 -1.24228 0
M  V30 5137 C 439.479 -5.91058 0.201084 0
M  V30 5138 H 438.409 -0.742353 -0.132014 0
M  V30 5139 H 441.06 -1.79545 0.378948 0
M  V30 5140 H 439.442 -3.68772 -1.44304 0
M  V30 5141 H 440.616 -4.41426 1.32212 0
M  V30 5142 H 438.931 -4.03143 1.04232 0
M  V30 5143 H 441.528 -5.12831 -1.51357 0
M  V30 5144 H 441.871 -3.54908 -2.17592 0
M  V30 5145 H 442.404 -3.9434 -0.523542 0
M  V30 5146 H 439.143 -6.46161 1.10258 0
M  V30 5147 H 438.663 -5.97373 -0.539045 0
M  V30 5148 H 440.342 -6.46669 -0.206954 0
M  V30 5149 N 440.474 -0.00167713 -1.576 0
M  V30 5150 C 441.421 0.989195 -2.08527 0
M  V30 5151 C 442.391 1.34031 -0.981065 0
M  V30 5152 O 443.576 1.43839 -1.2536 0
M  V30 5153 C 440.716 2.27537 -2.59463 0
M  V30 5154 C 439.829 1.98314 -3.83791 0
M  V30 5155 C 438.964 3.21025 -4.23222 0
M  V30 5156 C 438.003 2.87495 -5.40382 0
M  V30 5157 N 437.14 4.02749 -5.75098 0
M  V30 5158 H 441.98 0.547973 -2.92919 0
M  V30 5159 H 439.517 0.258917 -1.44803 0
M  V30 5160 H 441.475 3.02729 -2.87073 0
M  V30 5161 H 440.105 2.69325 -1.77943 0
M  V30 5162 H 439.157 1.13482 -3.63078 0
M  V30 5163 H 440.469 1.69601 -4.69081 0
M  V30 5164 H 439.623 4.04561 -4.52123 0
M  V30 5165 H 438.362 3.52877 -3.36644 0
M  V30 5166 H 437.367 2.02367 -5.11202 0
M  V30 5167 H 438.592 2.56889 -6.28637 0
M  V30 5168 H 436.538 4.34494 -4.91478 0
M  V30 5169 H 436.455 3.77566 -6.54966 0
M  V30 5170 H 437.723 4.87068 -6.08592 0
M  V30 5171 N 441.952 1.55251 0.271103 0
M  V30 5172 C 442.862 1.9136 1.35714 0
M  V30 5173 C 443.878 0.811075 1.5394 0
M  V30 5174 O 445.054 1.11031 1.6803 0
M  V30 5175 C 442.119 2.1798 2.69603 0
M  V30 5176 C 441.18 3.4153 2.60107 0
M  V30 5177 C 440.413 3.66871 3.8761 0
M  V30 5178 O 440.636 2.94689 4.8838 0
M  V30 5179 O 439.57 4.60405 3.87699 0
M  V30 5180 H 443.396 2.83815 1.08088 0
M  V30 5181 H 440.981 1.41821 0.469792 0
M  V30 5182 H 442.863 2.36518 3.48765 0
M  V30 5183 H 441.538 1.28708 2.97012 0
M  V30 5184 H 440.445 3.28325 1.79314 0
M  V30 5185 H 441.778 4.31027 2.37647 0
M  V30 5186 N 443.43 -0.535701 1.48216 0
M  V30 5187 C 444.393 -1.623 1.61838 0
M  V30 5188 C 445.393 -1.53087 0.492024 0
M  V30 5189 O 446.583 -1.5686 0.757668 0
M  V30 5190 C 443.715 -3.01907 1.58319 0
M  V30 5191 H 444.908 -1.51564 2.58783 0
M  V30 5192 H 442.461 -0.757317 1.36727 0
M  V30 5193 H 443.196 -3.18155 0.628299 0
M  V30 5194 H 442.981 -3.10003 2.40085 0
M  V30 5195 H 444.471 -3.80969 1.71033 0
M  V30 5196 N 444.908 -1.36708 -0.784132 0
M  V30 5197 C 445.856 -1.31533 -1.91838 0
M  V30 5198 C 446.85 -0.206205 -1.6814 0
M  V30 5199 O 448.056 -0.373519 -1.76082 0
M  V30 5200 H 444.431 -0.409613 -0.630651 0
M  V30 5201 H 446.402 -2.2731 -1.9332 0
M  V30 5202 C 445.151 -1.12679 -3.28936 0
M  V30 5203 H 444.474 -1.97274 -3.4774 0
M  V30 5204 H 445.914 -1.13106 -4.08636 0
M  V30 5205 C 444.373 0.168281 -3.36479 0
M  V30 5206 O 444.903 1.15625 -3.84699 0
M  V30 5207 N 443.109 0.214762 -2.89805 0
M  V30 5208 H 442.656 -0.589852 -2.50756 0
M  V30 5209 H 442.614 1.08094 -2.95234 0
M  V30 5210 N 446.386 1.0089 -1.21074 0
M  V30 5211 C 447.316 2.1145 -0.990523 0
M  V30 5212 C 448.297 1.69897 0.0831699 0
M  V30 5213 O 449.482 1.94052 -0.0758853 0
M  V30 5214 C 446.612 3.42914 -0.550177 0
M  V30 5215 C 445.566 3.98244 -1.56799 0
M  V30 5216 C 444.892 5.25568 -0.984013 0
M  V30 5217 C 446.192 4.30752 -2.95381 0
M  V30 5218 H 447.886 2.3013 -1.91521 0
M  V30 5219 H 445.432 1.10592 -0.92225 0
M  V30 5220 H 447.385 4.19653 -0.383305 0
M  V30 5221 H 446.109 3.24014 0.41015 0
M  V30 5222 H 444.768 3.23621 -1.72236 0
M  V30 5223 H 444.416 5.02998 -0.0155216 0
M  V30 5224 H 444.116 5.63551 -1.66384 0
M  V30 5225 H 445.64 6.04955 -0.828378 0
M  V30 5226 H 447.054 4.98349 -2.8341 0
M  V30 5227 H 445.451 4.79869 -3.60341 0
M  V30 5228 H 446.521 3.39192 -3.46521 0
M  V30 5229 N 447.864 1.01787 1.20321 0
M  V30 5230 C 448.811 0.589197 2.23153 0
M  V30 5231 C 449.781 -0.391367 1.61423 0
M  V30 5232 O 450.966 -0.290518 1.88575 0
M  V30 5233 C 448.106 -0.0650747 3.45039 0
M  V30 5234 C 447.219 0.960207 4.21194 0
M  V30 5235 C 446.354 0.276854 5.30478 0
M  V30 5236 C 445.393 1.2888 5.98378 0
M  V30 5237 N 444.53 0.632031 6.99249 0
M  V30 5238 H 449.37 1.47071 2.59179 0
M  V30 5239 H 446.907 0.736192 1.27352 0
M  V30 5240 H 448.865 -0.461552 4.14639 0
M  V30 5241 H 447.495 -0.910233 3.09701 0
M  V30 5242 H 446.547 1.47484 3.50646 0
M  V30 5243 H 447.859 1.72977 4.67847 0
M  V30 5244 H 447.013 -0.175056 6.06447 0
M  V30 5245 H 445.752 -0.525004 4.84866 0
M  V30 5246 H 444.757 1.75109 5.21169 0
M  V30 5247 H 445.982 2.09196 6.46076 0
M  V30 5248 H 443.928 -0.149935 6.55829 0
M  V30 5249 H 443.845 1.33964 7.44036 0
M  V30 5250 H 445.113 0.203755 7.79234 0
M  V30 5251 N 449.342 -1.36122 0.79427 0
M  V30 5252 C 450.289 -2.29982 0.194101 0
M  V30 5253 C 451.259 -1.52214 -0.664833 0
M  V30 5254 O 452.444 -1.80702 -0.612498 0
M  V30 5255 C 449.584 -3.38706 -0.661244 0
M  V30 5256 C 448.697 -4.31456 0.216766 0
M  V30 5257 C 447.832 -5.27265 -0.645411 0
M  V30 5258 C 446.871 -6.11653 0.233756 0
M  V30 5259 N 446.008 -6.99636 -0.587682 0
M  V30 5260 H 450.848 -2.80722 0.999965 0
M  V30 5261 H 448.385 -1.38172 0.504677 0
M  V30 5262 H 450.343 -4.00394 -1.17219 0
M  V30 5263 H 448.973 -2.89274 -1.43249 0
M  V30 5264 H 448.025 -3.7088 0.845724 0
M  V30 5265 H 449.337 -4.90724 0.893973 0
M  V30 5266 H 448.491 -5.94266 -1.22198 0
M  V30 5267 H 447.23 -4.68463 -1.35623 0
M  V30 5268 H 446.235 -5.4361 0.82269 0
M  V30 5269 H 447.46 -6.72531 0.942247 0
M  V30 5270 H 445.406 -6.43337 -1.2827 0
M  V30 5271 H 445.323 -7.55993 0.0317402 0
M  V30 5272 H 446.591 -7.71001 -1.14792 0
M  V30 5273 N 450.82 -0.546701 -1.47814 0
M  V30 5274 C 451.752 0.244196 -2.27895 0
M  V30 5275 C 452.765 0.88911 -1.36377 0
M  V30 5276 O 453.954 0.764733 -1.61289 0
M  V30 5277 C 451.054 1.36252 -3.10304 0
M  V30 5278 C 450.227 0.816382 -4.29714 0
M  V30 5279 C 449.286 1.81789 -4.93801 0
M  V30 5280 O 448.312 1.36818 -5.52512 0
M  V30 5281 N 449.514 3.15085 -4.87547 0
M  V30 5282 H 452.279 -0.442694 -2.96412 0
M  V30 5283 H 449.84 -0.382095 -1.57327 0
M  V30 5284 H 451.832 2.03102 -3.50045 0
M  V30 5285 H 450.402 1.95281 -2.44099 0
M  V30 5286 H 449.622 -0.0285981 -3.9419 0
M  V30 5287 H 450.91 0.430668 -5.06974 0
M  V30 5288 H 450.308 3.54275 -4.41028 0
M  V30 5289 H 448.865 3.77522 -5.31339 0
M  V30 5290 N 452.299 1.55045 -0.282633 0
M  V30 5291 C 453.524 2.04628 0.337977 0
M  V30 5292 C 453.949 1.15937 1.48123 0
M  V30 5293 O 453.307 0.159532 1.80597 0
M  V30 5294 C 453.355 3.51854 0.78936 0
M  V30 5295 O 452.459 3.66236 1.89592 0
M  V30 5296 H 451.8 0.660434 0.0687261 0
M  V30 5297 H 454.33 2.00261 -0.419124 0
M  V30 5298 H 454.34 3.93361 1.08311 0
M  V30 5299 H 453.015 4.15873 -0.0470419 0
M  V30 5300 H 451.592 3.36633 1.60413 0
M  V30 5301 N 453.777 0.010035 1.57597 0
M  V30 5302 C 454.724 -0.978122 2.09049 0
M  V30 5303 C 455.694 -1.33509 0.988159 0
M  V30 5304 O 456.879 -1.43172 1.26121 0
M  V30 5305 C 454.019 -2.26158 2.60666 0
M  V30 5306 C 453.132 -1.96275 3.84838 0
M  V30 5307 C 452.267 -3.18776 4.24918 0
M  V30 5308 C 451.306 -2.84625 5.41899 0
M  V30 5309 N 450.443 -3.99693 5.77226 0
M  V30 5310 H 455.283 -0.532431 2.93205 0
M  V30 5311 H 452.82 -0.251234 1.44939 0
M  V30 5312 H 454.778 -3.01202 2.88675 0
M  V30 5313 H 453.408 -2.68378 1.79369 0
M  V30 5314 H 452.46 -1.11555 3.63675 0
M  V30 5315 H 453.772 -1.67111 4.69974 0
M  V30 5316 H 452.926 -4.02157 4.54262 0
M  V30 5317 H 451.665 -3.51087 3.38511 0
M  V30 5318 H 450.67 -1.99653 5.12268 0
M  V30 5319 H 451.895 -2.53551 6.29991 0
M  V30 5320 H 449.841 -4.31882 4.93776 0
M  V30 5321 H 449.758 -3.74087 6.56959 0
M  V30 5322 H 451.026 -4.83834 6.11167 0
M  V30 5323 N 455.255 -1.55392 -0.262866 0
M  V30 5324 C 456.185 -1.91978 -1.32917 0
M  V30 5325 C 457.166 -0.7828 -1.51017 0
M  V30 5326 O 458.351 -1.04178 -1.63892 0
M  V30 5327 C 455.481 -2.20055 -2.68687 0
M  V30 5328 C 454.435 -3.35854 -2.65304 0
M  V30 5329 C 453.761 -3.49435 -4.04721 0
M  V30 5330 C 455.061 -4.71977 -2.23685 0
M  V30 5331 H 456.755 -2.81292 -1.02544 0
M  V30 5332 H 454.301 -1.3534 -0.491846 0
M  V30 5333 H 456.254 -2.44237 -3.43404 0
M  V30 5334 H 454.978 -1.27551 -3.00663 0
M  V30 5335 H 453.637 -3.11655 -1.93045 0
M  V30 5336 H 453.285 -2.54379 -4.33936 0
M  V30 5337 H 452.985 -4.27297 -4.0335 0
M  V30 5338 H 454.509 -3.7592 -4.81161 0
M  V30 5339 H 455.923 -4.95637 -2.88127 0
M  V30 5340 H 454.32 -5.52828 -2.33456 0
M  V30 5341 H 455.39 -4.70115 -1.18827 0
M  V30 5342 N 456.733 0.527833 -1.48498 0
M  V30 5343 C 457.982 1.28003 -1.55878 0
M  V30 5344 C 458.295 1.9414 -0.238577 0
M  V30 5345 O 459.501 2.7083 -0.190643 0
M  V30 5346 C 457.957 2.32272 -2.74914 0
M  V30 5347 C 457.565 1.72196 -4.13585 0
M  V30 5348 C 459.309 3.08488 -2.91608 0
M  V30 5349 C 457.216 2.74417 -5.23879 0
M  V30 5350 H 456.146 0.481413 -0.580308 0
M  V30 5351 H 458.797 0.557195 -1.74836 0
M  V30 5352 H 457.179 3.07601 -2.49395 0
M  V30 5353 H 458.353 1.03041 -4.49132 0
M  V30 5354 H 456.668 1.08464 -4.02025 0
M  V30 5355 H 459.265 3.84879 -3.71177 0
M  V30 5356 H 459.608 3.64481 -2.01145 0
M  V30 5357 H 460.141 2.40274 -3.17038 0
M  V30 5358 H 456.88 2.23242 -6.16314 0
M  V30 5359 H 456.4 3.41893 -4.92818 0
M  V30 5360 H 458.079 3.37362 -5.52083 0
M  V30 5361 N 458.211 1.37122 0.776871 0
M  V30 5362 C 459.141 1.35164 1.90402 0
M  V30 5363 C 460.122 0.221069 1.68657 0
M  V30 5364 O 461.307 0.420642 1.8959 0
M  V30 5365 C 458.437 1.15274 3.27611 0
M  V30 5366 C 457.391 2.25289 3.63908 0
M  V30 5367 C 456.717 1.90527 4.99603 0
M  V30 5368 C 458.017 3.67446 3.71188 0
M  V30 5369 H 459.711 2.29482 1.92297 0
M  V30 5370 H 457.257 1.10465 0.923773 0
M  V30 5371 H 459.21 1.12536 4.06096 0
M  V30 5372 H 457.934 0.174102 3.26136 0
M  V30 5373 H 456.593 2.27174 2.87728 0
M  V30 5374 H 456.241 0.91206 4.94662 0
M  V30 5375 H 455.941 2.64193 5.24858 0
M  V30 5376 H 457.465 1.89367 5.80493 0
M  V30 5377 H 458.879 3.67719 4.39836 0
M  V30 5378 H 457.276 4.40123 4.07936 0
M  V30 5379 H 458.346 4.01443 2.71977 0
M  V30 5380 N 459.689 -1.00246 1.21608 0
M  V30 5381 C 460.938 -1.73476 1.02902 0
M  V30 5382 C 461.251 -1.90643 -0.437561 0
M  V30 5383 O 462.457 -2.61105 -0.74407 0
M  V30 5384 C 460.913 -3.12079 1.79261 0
M  V30 5385 C 460.521 -3.02877 3.30106 0
M  V30 5386 C 462.265 -3.89421 1.68972 0
M  V30 5387 C 460.172 -4.36575 3.98944 0
M  V30 5388 H 459.102 -0.650408 0.381425 0
M  V30 5389 H 461.753 -1.11985 1.45367 0
M  V30 5390 H 460.135 -3.74196 1.2959 0
M  V30 5391 H 461.309 -2.49983 3.87098 0
M  V30 5392 H 459.624 -2.39022 3.40965 0
M  V30 5393 H 462.221 -4.88362 2.17731 0
M  V30 5394 H 462.564 -4.1122 0.648397 0
M  V30 5395 H 463.097 -3.33963 2.16133 0
M  V30 5396 H 459.836 -4.19978 5.03288 0
M  V30 5397 H 459.356 -4.8942 3.4674 0
M  V30 5398 H 461.035 -5.05364 4.04 0
M  V30 5399 N 461.167 -1.02423 -1.1978 0
M  V30 5400 C 462.414 -0.717988 -1.89344 0
M  V30 5401 C 462.742 0.753036 -1.79331 0
M  V30 5402 O 461.997 1.56355 -1.17692 0
M  V30 5403 C 462.296 -1.1088 -3.39765 0
M  V30 5404 C 461.962 -2.57731 -3.6998 0
M  V30 5405 C 460.624 -2.97854 -3.77937 0
M  V30 5406 C 462.976 -3.52763 -3.83677 0
M  V30 5407 C 460.304 -4.31931 -3.97054 0
M  V30 5408 C 462.656 -4.86538 -4.04306 0
M  V30 5409 C 461.32 -5.26356 -4.10494 0
M  V30 5410 H 460.59 -0.26273 -0.692859 0
M  V30 5411 H 463.237 -1.28623 -1.41875 0
M  V30 5412 H 461.542 -0.459094 -3.89101 0
M  V30 5413 H 463.239 -0.849432 -3.919 0
M  V30 5414 H 459.829 -2.25646 -3.64393 0
M  V30 5415 H 464.013 -3.2292 -3.76877 0
M  V30 5416 H 459.269 -4.62324 -4.00083 0
M  V30 5417 H 463.443 -5.60093 -4.13846 0
M  V30 5418 H 461.07 -6.3026 -4.2506 0
M  V30 5419 N 462.645 1.35699 -0.801477 0
M  V30 5420 C 463.894 1.98165 -0.375979 0
M  V30 5421 C 464.207 1.64306 1.06127 0
M  V30 5422 O 465.413 2.20097 1.58964 0
M  V30 5423 C 463.869 3.54497 -0.621305 0
M  V30 5424 C 463.477 3.9727 -2.07076 0
M  V30 5425 C 465.221 4.23697 -0.26091 0
M  V30 5426 C 463.128 5.46427 -2.26211 0
M  V30 5427 H 462.058 0.741478 -0.136844 0
M  V30 5428 H 464.709 1.54834 -0.984814 0
M  V30 5429 H 463.091 3.95958 0.0574112 0
M  V30 5430 H 464.265 3.66974 -2.78687 0
M  V30 5431 H 462.58 3.40943 -2.39054 0
M  V30 5432 H 465.177 5.33334 -0.381994 0
M  V30 5433 H 465.52 4.0869 0.792344 0
M  V30 5434 H 466.053 3.87639 -0.893339 0
M  V30 5435 H 462.792 5.66396 -3.29963 0
M  V30 5436 H 462.312 5.78309 -1.59119 0
M  V30 5437 H 463.991 6.12819 -2.07513 0
M  V30 5438 N 464.123 0.554532 1.47522 0
M  V30 5439 C 465.363 0.0317994 2.04375 0
M  V30 5440 C 465.727 -1.29242 1.41988 0
M  V30 5441 O 466.928 -1.90269 1.89872 0
M  V30 5442 C 465.199 -0.0623344 3.57346 0
M  V30 5443 S 466.758 -0.531578 4.35568 0
M  V30 5444 H 463.576 0.0238553 0.7106 0
M  V30 5445 H 466.178 0.74066 1.80927 0
M  V30 5446 H 464.882 0.905857 4.00278 0
M  V30 5447 H 464.413 -0.794831 3.85287 0
M  V30 5448 H 466.428 -1.79175 4.62721 0
M  V30 5449 N 465.601 -1.54893 0.290851 0
M  V30 5450 C 466.85 -1.99111 -0.322113 0
M  V30 5451 C 467.163 -1.18283 -1.55784 0
M  V30 5452 O 468.369 -1.5272 -2.24475 0
M  V30 5453 C 466.825 -3.54442 -0.624438 0
M  V30 5454 C 466.433 -4.44066 0.592373 0
M  V30 5455 C 468.177 -4.07211 -1.19916 0
M  V30 5456 C 466.084 -5.90812 0.263762 0
M  V30 5457 H 465.014 -0.743712 -0.124133 0
M  V30 5458 H 467.665 -1.79132 0.39797 0
M  V30 5459 H 466.047 -3.70281 -1.40384 0
M  V30 5460 H 467.221 -4.39999 1.36886 0
M  V30 5461 H 465.536 -4.02015 1.08502 0
M  V30 5462 H 468.133 -5.14407 -1.45909 0
M  V30 5463 H 468.476 -3.57196 -2.13815 0
M  V30 5464 H 469.009 -3.94873 -0.481687 0
M  V30 5465 H 465.748 -6.44955 1.17105 0
M  V30 5466 H 465.268 -5.97911 -0.475655 0
M  V30 5467 H 466.947 -6.46852 -0.138354 0
M  V30 5468 N 467.08 -0.0183926 -1.57589 0
M  V30 5469 C 468.327 0.662562 -1.91354 0
M  V30 5470 C 468.655 1.72747 -0.893788 0
M  V30 5471 O 467.91 1.9545 0.0988509 0
M  V30 5472 C 468.209 1.32676 -3.31861 0
M  V30 5473 C 467.875 0.393267 -4.49182 0
M  V30 5474 C 466.537 0.136302 -4.81007 0
M  V30 5475 C 468.889 -0.248366 -5.20608 0
M  V30 5476 C 466.217 -0.770282 -5.81621 0
M  V30 5477 C 468.569 -1.14294 -6.22189 0
M  V30 5478 C 467.233 -1.4089 -6.52462 0
M  V30 5479 H 466.503 0.242448 -0.700214 0
M  V30 5480 H 469.15 -0.0778629 -1.91342 0
M  V30 5481 H 467.455 2.14168 -3.28084 0
M  V30 5482 H 469.152 1.86001 -3.55253 0
M  V30 5483 H 465.742 0.603723 -4.24327 0
M  V30 5484 H 469.926 -0.062883 -4.9626 0
M  V30 5485 H 465.182 -0.984154 -6.03427 0
M  V30 5486 H 469.356 -1.64637 -6.76659 0
M  V30 5487 H 466.983 -2.11306 -7.30242 0
M  V30 5488 N 468.558 1.5553 0.254621 0
M  V30 5489 C 469.786 1.81046 1.00149 0
M  V30 5490 C 470.201 0.593047 1.79244 0
M  V30 5491 O 469.558 -0.438196 1.77161 0
M  V30 5492 C 469.609 3.04684 1.94551 0
M  V30 5493 O 469.33 4.21725 1.18658 0
M  V30 5494 C 470.831 3.42943 2.80901 0
M  V30 5495 H 468.051 0.602653 0.295044 0
M  V30 5496 H 470.595 2.02576 0.279842 0
M  V30 5497 H 468.75 2.85226 2.62154 0
M  V30 5498 H 469.164 4.91746 1.82445 0
M  V30 5499 H 470.638 4.32576 3.42902 0
M  V30 5500 H 471.115 2.63176 3.51617 0
M  V30 5501 H 471.721 3.64724 2.18762 0
M  V30 5502 N 470.036 -0.519951 1.48776 0
M  V30 5503 C 471.283 -1.27522 1.57303 0
M  V30 5504 C 471.611 -1.92869 0.251328 0
M  V30 5505 O 470.866 -1.80372 -0.759243 0
M  V30 5506 C 471.165 -2.37864 2.6675 0
M  V30 5507 C 470.831 -1.90103 4.08867 0
M  V30 5508 C 469.493 -1.76795 4.47546 0
M  V30 5509 C 471.845 -1.54133 4.97888 0
M  V30 5510 C 469.173 -1.25868 5.73039 0
M  V30 5511 C 471.525 -1.04665 6.23881 0
M  V30 5512 C 470.189 -0.899823 6.61407 0
M  V30 5513 H 469.459 -0.466636 0.575614 0
M  V30 5514 H 472.106 -0.579109 1.82534 0
M  V30 5515 H 470.411 -3.13186 2.35418 0
M  V30 5516 H 472.108 -2.95969 2.70561 0
M  V30 5517 H 468.698 -2.01414 3.78326 0
M  V30 5518 H 472.882 -1.6327 4.68675 0
M  V30 5519 H 468.138 -1.13196 6.0083 0
M  V30 5520 H 472.312 -0.759074 6.92251 0
M  V30 5521 H 469.939 -0.503011 7.58534 0
M  V30 5522 N 471.514 -1.37532 -0.769588 0
M  V30 5523 C 472.444 -1.36172 -1.89682 0
M  V30 5524 C 473.425 -0.23001 -1.68538 0
M  V30 5525 O 474.61 -0.43069 -1.89364 0
M  V30 5526 C 471.74 -1.1701 -3.26995 0
M  V30 5527 C 470.694 -2.27216 -3.62708 0
M  V30 5528 C 470.02 -1.93174 -4.98586 0
M  V30 5529 C 471.32 -3.6941 -3.69234 0
M  V30 5530 H 473.014 -2.30499 -1.91078 0
M  V30 5531 H 470.56 -1.10953 -0.917902 0
M  V30 5532 H 472.513 -1.14688 -4.05493 0
M  V30 5533 H 471.237 -0.191395 -3.26039 0
M  V30 5534 H 469.896 -2.28697 -2.86519 0
M  V30 5535 H 469.544 -0.938281 -4.94171 0
M  V30 5536 H 469.244 -2.66973 -5.23449 0
M  V30 5537 H 470.768 -1.92443 -5.79481 0
M  V30 5538 H 472.182 -3.70047 -4.37879 0
M  V30 5539 H 470.579 -4.4228 -4.05597 0
M  V30 5540 H 471.649 -4.0288 -2.69844 0
M  V30 5541 N 472.992 0.995999 -1.22138 0
M  V30 5542 C 473.922 2.10387 -1.01289 0
M  V30 5543 C 474.903 1.69975 0.0651454 0
M  V30 5544 O 476.088 1.9396 -0.0964628 0
M  V30 5545 C 473.218 3.42312 -0.586517 0
M  V30 5546 C 472.172 3.96558 -1.61014 0
M  V30 5547 C 471.498 5.24494 -1.0397 0
M  V30 5548 C 472.798 4.27595 -2.99933 0
M  V30 5549 H 474.492 2.28086 -1.93951 0
M  V30 5550 H 472.038 1.09607 -0.933928 0
M  V30 5551 H 473.991 4.19223 -0.427793 0
M  V30 5552 H 472.715 3.24431 0.375761 0
M  V30 5553 H 471.374 3.21776 -1.75658 0
M  V30 5554 H 471.022 5.02953 -0.0688703 0
M  V30 5555 H 470.722 5.61755 -1.72352 0
M  V30 5556 H 472.246 6.04042 -0.892494 0
M  V30 5557 H 473.66 4.95315 -2.8868 0
M  V30 5558 H 472.057 4.76021 -3.6541 0
M  V30 5559 H 473.127 3.35498 -3.50099 0
M  V30 5560 N 474.47 1.03057 1.19235 0
M  V30 5561 C 475.403 0.557384 2.21288 0
M  V30 5562 C 476.381 -0.402675 1.57535 0
M  V30 5563 O 477.565 -0.319376 1.85775 0
M  V30 5564 C 474.692 -0.187041 3.38183 0
M  V30 5565 C 473.738 0.72471 4.20298 0
M  V30 5566 S 474.571 2.20187 4.88137 0
M  V30 5567 C 475.727 1.46801 6.08441 0
M  V30 5568 H 475.96 1.42207 2.61083 0
M  V30 5569 H 473.493 0.840651 1.29508 0
M  V30 5570 H 475.451 -0.610405 4.05936 0
M  V30 5571 H 474.112 -1.02748 2.96819 0
M  V30 5572 H 473.305 0.149911 5.03777 0
M  V30 5573 H 472.907 1.08647 3.57871 0
M  V30 5574 H 475.199 0.755522 6.73274 0
M  V30 5575 H 476.142 2.27946 6.70407 0
M  V30 5576 H 476.55 0.964762 5.56195 0
M  V30 5577 N 475.948 -1.35272 0.808662 0
M  V30 5578 C 477.194 -1.99003 0.390581 0
M  V30 5579 C 477.527 -1.63999 -1.0401 0
M  V30 5580 O 476.802 -0.904368 -1.72196 0
M  V30 5581 C 477.085 -3.55454 0.576566 0
M  V30 5582 C 476.938 -4.00249 2.05233 0
M  V30 5583 C 478.257 -4.401 0.00354277 0
M  V30 5584 H 475.376 -0.722917 0.143388 0
M  V30 5585 H 478.018 -1.6039 1.01858 0
M  V30 5586 H 476.168 -3.88477 0.0419766 0
M  V30 5587 H 477.84 -3.77626 2.64946 0
M  V30 5588 H 476.083 -3.51082 2.54801 0
M  V30 5589 H 476.754 -5.0911 2.13333 0
M  V30 5590 H 479.23 -4.13548 0.460117 0
M  V30 5591 H 478.106 -5.48656 0.163575 0
M  V30 5592 H 478.367 -4.28444 -1.09032 0
M  V30 5593 N 477.426 -0.562348 -1.47226 0
M  V30 5594 C 478.675 -0.038041 -2.01664 0
M  V30 5595 C 478.988 1.32199 -1.44162 0
M  V30 5596 O 480.194 1.9365 -1.90294 0
M  V30 5597 C 478.65 -0.0174958 -3.59896 0
M  V30 5598 C 478.258 -1.3746 -4.2639 0
M  V30 5599 C 480.002 0.453934 -4.22066 0
M  V30 5600 C 477.909 -1.31289 -5.76643 0
M  V30 5601 H 476.839 -0.0104511 -0.753928 0
M  V30 5602 H 479.49 -0.710966 -1.69167 0
M  V30 5603 H 477.872 0.721182 -3.89378 0
M  V30 5604 H 479.046 -2.1314 -4.08544 0
M  V30 5605 H 477.361 -1.78438 -3.7623 0
M  V30 5606 H 479.958 0.518584 -5.32179 0
M  V30 5607 H 480.301 1.46706 -3.89594 0
M  V30 5608 H 480.834 -0.230044 -3.97134 0
M  V30 5609 H 477.573 -2.30217 -6.13743 0
M  V30 5610 H 477.093 -0.597973 -5.96812 0
M  V30 5611 H 478.772 -1.01713 -6.38955 0
M  V30 5612 N 478.904 1.54736 -0.299062 0
M  V30 5613 C 479.836 2.20891 0.61153 0
M  V30 5614 C 480.849 1.20104 1.09904 0
M  V30 5615 O 482.038 1.46707 1.01683 0
M  V30 5616 C 479.138 2.84018 1.84897 0
M  V30 5617 C 478.311 4.10719 1.50428 0
M  V30 5618 C 477.37 4.57667 2.59667 0
M  V30 5619 O 476.396 5.2291 2.24842 0
M  V30 5620 N 477.598 4.29821 3.90172 0
M  V30 5621 H 480.363 2.99666 0.0452001 0
M  V30 5622 H 477.924 1.61446 -0.121178 0
M  V30 5623 H 479.916 3.1236 2.5732 0
M  V30 5624 H 478.486 2.09095 2.32375 0
M  V30 5625 H 477.706 3.89408 0.612781 0
M  V30 5626 H 478.994 4.93223 1.24934 0
M  V30 5627 H 478.392 3.77549 4.21276 0
M  V30 5628 H 476.949 4.62877 4.58899 0
M  V30 5629 N 480.382 0.0267497 1.57577 0
M  V30 5630 C 481.607 -0.666227 1.96408 0
M  V30 5631 C 482.032 -1.65004 0.903071 0
M  V30 5632 O 481.39 -1.80787 -0.136263 0
M  V30 5633 C 481.438 -1.35101 3.34335 0
M  V30 5634 O 480.542 -2.46623 3.30531 0
M  V30 5635 H 479.883 -0.175206 0.640468 0
M  V30 5636 H 482.413 0.0878977 2.04411 0
M  V30 5637 H 482.423 -1.70834 3.70513 0
M  V30 5638 H 481.098 -0.629844 4.11103 0
M  V30 5639 H 479.675 -2.13019 3.06068 0
M  V30 5640 N 481.861 -1.55662 -0.24637 0
M  V30 5641 C 482.793 -1.86811 -1.32794 0
M  V30 5642 C 483.806 -0.754413 -1.44265 0
M  V30 5643 O 484.995 -1.03253 -1.45606 0
M  V30 5644 C 482.095 -2.0397 -2.70646 0
M  V30 5645 C 481.268 -3.34832 -2.81436 0
M  V30 5646 C 480.327 -3.41727 -4.00136 0
M  V30 5647 O 479.353 -4.14934 -3.89639 0
M  V30 5648 N 480.555 -2.71058 -5.1333 0
M  V30 5649 H 483.32 -2.80174 -1.06409 0
M  V30 5650 H 480.881 -1.55906 -0.43647 0
M  V30 5651 H 482.873 -2.05924 -3.48393 0
M  V30 5652 H 481.443 -1.1735 -2.89738 0
M  V30 5653 H 480.663 -3.4519 -1.90361 0
M  V30 5654 H 481.951 -4.21085 -2.85595 0
M  V30 5655 H 481.349 -2.11314 -5.2475 0
M  V30 5656 H 479.906 -2.78704 -5.89209 0
M  V30 5657 N 483.339 0.512053 -1.4905 0
M  V30 5658 C 484.586 1.26686 -1.57978 0
M  V30 5659 C 484.914 1.92733 -0.261553 0
M  V30 5660 O 484.169 1.80772 0.749667 0
M  V30 5661 C 484.468 2.36446 -2.68008 0
M  V30 5662 C 484.134 1.87932 -4.09869 0
M  V30 5663 C 482.796 1.74419 -4.48477 0
M  V30 5664 C 485.148 1.5149 -4.98698 0
M  V30 5665 C 482.476 1.22827 -5.73699 0
M  V30 5666 C 484.828 1.01355 -6.24428 0
M  V30 5667 C 483.492 0.864735 -6.61875 0
M  V30 5668 H 482.762 0.463577 -0.578081 0
M  V30 5669 H 485.409 0.569421 -1.82838 0
M  V30 5670 H 483.714 3.11933 -2.37076 0
M  V30 5671 H 485.411 2.9453 -2.72127 0
M  V30 5672 H 482.001 1.99405 -3.79389 0
M  V30 5673 H 486.185 1.60782 -4.69535 0
M  V30 5674 H 481.441 1.10008 -6.01422 0
M  V30 5675 H 485.615 0.722351 -6.92644 0
M  V30 5676 H 483.242 0.462777 -7.5879 0
M  V30 5677 N 484.817 1.37938 0.762283 0
M  V30 5678 C 485.747 1.37176 1.88958 0
M  V30 5679 C 486.728 0.238945 1.68413 0
M  V30 5680 O 487.913 0.440726 1.89133 0
M  V30 5681 C 485.043 1.18742 3.2637 0
M  V30 5682 C 483.997 2.29136 3.61498 0
M  V30 5683 C 483.323 1.95816 4.97554 0
M  V30 5684 C 484.623 3.71363 3.6727 0
M  V30 5685 H 486.317 2.31509 1.89853 0
M  V30 5686 H 483.863 1.11438 0.912005 0
M  V30 5687 H 485.816 1.16837 4.04879 0
M  V30 5688 H 484.54 0.208683 3.25933 0
M  V30 5689 H 483.199 2.30213 2.85303 0
M  V30 5690 H 482.847 0.964475 4.93667 0
M  V30 5691 H 482.547 2.69745 5.22026 0
M  V30 5692 H 484.071 1.95513 5.78452 0
M  V30 5693 H 485.485 3.72364 4.35911 0
M  V30 5694 H 483.882 4.44425 4.03245 0
M  V30 5695 H 484.952 4.04305 2.67704 0
M  V30 5696 N 486.295 -0.989507 1.22664 0
M  V30 5697 C 487.228 -2.07805 0.942985 0
M  V30 5698 C 488.206 -1.6219 -0.115356 0
M  V30 5699 O 489.39 -1.88492 0.0169565 0
M  V30 5700 C 486.517 -3.361 0.418898 0
M  V30 5701 C 485.563 -4.00643 1.46244 0
M  V30 5702 S 486.396 -4.41059 3.03689 0
M  V30 5703 C 487.552 -5.7252 2.52927 0
M  V30 5704 H 487.785 -2.31547 1.86476 0
M  V30 5705 H 485.318 -1.12446 1.05808 0
M  V30 5706 H 487.276 -4.10315 0.123114 0
M  V30 5707 H 485.937 -3.10383 -0.481818 0
M  V30 5708 H 485.13 -4.93033 1.04569 0
M  V30 5709 H 484.732 -3.32767 1.7071 0
M  V30 5710 H 487.024 -6.49017 1.94379 0
M  V30 5711 H 487.967 -6.19026 3.4382 0
M  V30 5712 H 488.375 -5.30083 1.94094 0
M  V30 5713 N 487.773 -1.03688 -1.18687 0
M  V30 5714 C 489.021 -0.736572 -1.88199 0
M  V30 5715 C 489.342 0.737665 -1.80509 0
M  V30 5716 O 488.612 1.53204 -1.22088 0
M  V30 5717 H 487.192 -0.269466 -0.696704 0
M  V30 5718 H 489.854 -1.31282 -1.44052 0
M  V30 5719 H 488.95 -1.03802 -2.94332 0
M  V30 5720 N 489.251 1.34841 -0.815825 0
M  V30 5721 C 490.183 2.28409 -0.190265 0
M  V30 5722 C 491.196 1.50705 0.615771 0
M  V30 5723 O 492.385 1.72822 0.446616 0
M  V30 5724 C 489.485 3.30441 0.752446 0
M  V30 5725 C 488.658 4.37399 -0.00922152 0
M  V30 5726 C 487.717 5.19234 0.853351 0
M  V30 5727 O 486.743 5.68404 0.300919 0
M  V30 5728 N 487.945 5.38248 2.17416 0
M  V30 5729 H 490.71 2.82732 -0.994114 0
M  V30 5730 H 488.271 1.47289 -0.672129 0
M  V30 5731 H 490.263 3.82084 1.33394 0
M  V30 5732 H 488.833 2.76565 1.45707 0
M  V30 5733 H 488.053 3.86567 -0.771979 0
M  V30 5734 H 489.341 5.05992 -0.533807 0
M  V30 5735 H 488.739 4.99961 2.6468 0
M  V30 5736 H 487.296 5.93035 2.70467 0
M  V30 5737 N 490.729 0.570148 1.46925 0
M  V30 5738 C 491.954 0.0542592 2.07329 0
M  V30 5739 C 492.379 -1.23582 1.41806 0
M  V30 5740 O 491.737 -1.74341 0.497479 0
M  V30 5741 C 491.785 -0.111175 3.60429 0
M  V30 5742 O 490.889 -1.17071 3.95434 0
M  V30 5743 H 490.23 0.0571425 0.661537 0
M  V30 5744 H 492.76 0.789516 1.88753 0
M  V30 5745 H 492.77 -0.321315 4.06733 0
M  V30 5746 H 491.445 0.831012 4.07513 0
M  V30 5747 H 490.022 -0.940029 3.60857 0
M  V30 5748 N 492.207 -1.54576 0.307264 0
M  V30 5749 C 493.456 -1.99442 -0.300976 0
M  V30 5750 C 493.769 -1.19928 -1.5452 0
M  V30 5751 O 494.975 -1.55092 -2.22842 0
M  V30 5752 C 493.431 -3.55084 -0.586809 0
M  V30 5753 C 493.039 -4.43413 0.639438 0
M  V30 5754 C 494.783 -4.0846 -1.1559 0
M  V30 5755 C 492.69 -5.90499 0.326411 0
M  V30 5756 H 491.62 -0.744986 -0.116238 0
M  V30 5757 H 494.271 -1.787 0.416947 0
M  V30 5758 H 492.653 -3.71749 -1.36449 0
M  V30 5759 H 493.827 -4.38522 1.41545 0
M  V30 5760 H 492.142 -4.00842 1.1276 0
M  V30 5761 H 494.739 -5.15926 -1.40445 0
M  V30 5762 H 495.082 -3.59443 -2.10015 0
M  V30 5763 H 495.615 -3.95362 -0.439778 0
M  V30 5764 H 492.354 -6.43676 1.23939 0
M  V30 5765 H 491.874 -5.98382 -0.412212 0
M  V30 5766 H 493.553 -6.46962 -0.0697393 0
M  V30 5767 N 493.685 -0.035106 -1.57561 0
M  V30 5768 C 494.913 0.652258 -1.9635 0
M  V30 5769 C 495.328 1.65317 -0.911897 0
M  V30 5770 O 494.685 1.82194 0.105657 0
M  V30 5771 C 494.736 1.35337 -3.35211 0
M  V30 5772 O 494.457 0.392548 -4.36338 0
M  V30 5773 C 495.958 2.13199 -3.88666 0
M  V30 5774 H 493.178 0.179444 -0.646561 0
M  V30 5775 H 495.722 -0.0966459 -2.04271 0
M  V30 5776 H 493.877 2.05362 -3.28489 0
M  V30 5777 H 494.291 0.891097 -5.16875 0
M  V30 5778 H 495.765 2.577 -4.88154 0
M  V30 5779 H 496.242 2.97353 -3.23231 0
M  V30 5780 H 496.848 1.48118 -3.98674 0
M  V30 5781 N 495.163 1.55791 0.238111 0
M  V30 5782 C 496.44 1.68798 0.98826 0
M  V30 5783 C 496.82 0.577562 2.03045 0
M  V30 5784 O 496.168 -0.41778 2.24648 0
M  V30 5785 C 496.378 3.09454 1.61367 0
M  V30 5786 C 497.726 3.68335 2.11221 0
M  V30 5787 O 498.75 3.1231 1.71292 0
M  V30 5788 O 497.609 4.6657 2.84561 0
M  V30 5789 H 494.703 0.686881 0.460568 0
M  V30 5790 H 497.249 1.68118 0.231202 0
M  V30 5791 H 496.021 3.81726 0.860295 0
M  V30 5792 H 495.644 3.14182 2.4367 0
M  V30 5793 N 496.642 -0.504142 1.49319 0
M  V30 5794 C 497.872 -1.28071 1.62116 0
M  V30 5795 C 498.28 -1.86955 0.290566 0
M  V30 5796 O 497.623 -1.68415 -0.733616 0
M  V30 5797 C 497.685 -2.4521 2.62893 0
M  V30 5798 C 497.349 -2.07218 4.0732 0
M  V30 5799 C 498.346 -1.61375 4.94221 0
M  V30 5800 C 496.031 -2.16949 4.53033 0
M  V30 5801 C 498.025 -1.25763 6.2487 0
M  V30 5802 C 495.712 -1.80949 5.83696 0
M  V30 5803 C 496.71 -1.3543 6.69438 0
M  V30 5804 O 496.398 -0.99915 7.97667 0
M  V30 5805 H 496.13 -0.394763 0.54876 0
M  V30 5806 H 498.684 -0.612118 1.96067 0
M  V30 5807 H 496.914 -3.15134 2.24115 0
M  V30 5808 H 498.603 -3.0724 2.65252 0
M  V30 5809 H 499.369 -1.53306 4.60133 0
M  V30 5810 H 495.248 -2.5133 3.86463 0
M  V30 5811 H 498.792 -0.901631 6.91749 0
M  V30 5812 H 494.689 -1.88667 6.17313 0
M  V30 5813 H 495.457 -1.13089 8.1065 0
M  V30 5814 N 498.12 -1.38341 -0.754957 0
M  V30 5815 C 499.068 -1.35573 -1.89005 0
M  V30 5816 C 500.062 -0.241824 -1.67665 0
M  V30 5817 O 501.268 -0.410785 -1.7525 0
M  V30 5818 H 497.643 -0.422898 -0.621821 0
M  V30 5819 H 499.614 -2.31359 -1.88455 0
M  V30 5820 C 498.363 -1.19631 -3.26471 0
M  V30 5821 H 497.686 -2.04605 -3.43477 0
M  V30 5822 H 499.126 -1.21748 -4.06144 0
M  V30 5823 C 497.585 0.0968705 -3.36761 0
M  V30 5824 O 498.115 1.07439 -3.87066 0
M  V30 5825 N 496.321 0.153242 -2.90196 0
M  V30 5826 H 495.868 -0.642908 -2.49448 0
M  V30 5827 H 495.826 1.01807 -2.9746 0
M  V30 5828 N 499.598 0.982988 -1.23187 0
M  V30 5829 C 500.828 1.75666 -1.08743 0
M  V30 5830 C 501.236 1.85662 0.364195 0
M  V30 5831 O 500.579 1.33317 1.26382 0
M  V30 5832 C 500.641 3.20144 -1.63549 0
M  V30 5833 C 500.305 3.33665 -3.12277 0
M  V30 5834 C 501.302 3.20194 -4.096 0
M  V30 5835 C 498.987 3.58397 -3.51933 0
M  V30 5836 C 500.981 3.31256 -5.44563 0
M  V30 5837 C 498.668 3.69098 -4.87042 0
M  V30 5838 C 499.666 3.55537 -5.83166 0
M  V30 5839 O 499.354 3.65864 -7.1582 0
M  V30 5840 H 499.086 0.558194 -0.381307 0
M  V30 5841 H 501.64 1.24387 -1.63454 0
M  V30 5842 H 499.87 3.72659 -1.03256 0
M  V30 5843 H 501.559 3.79262 -1.4462 0
M  V30 5844 H 502.325 3.00987 -3.80305 0
M  V30 5845 H 498.204 3.68025 -2.77631 0
M  V30 5846 H 501.748 3.20588 -6.19572 0
M  V30 5847 H 497.645 3.87814 -5.16014 0
M  V30 5848 H 498.413 3.82675 -7.23534 0
M  V30 5849 N 501.076 1.04316 1.18135 0
M  V30 5850 C 502.023 0.636398 2.21853 0
M  V30 5851 C 502.993 -0.357039 1.62217 0
M  V30 5852 O 504.178 -0.250453 1.89149 0
M  V30 5853 C 501.318 0.00812779 3.45099 0
M  V30 5854 C 500.431 1.04933 4.19062 0
M  V30 5855 C 499.566 0.389313 5.29771 0
M  V30 5856 C 498.605 1.41544 5.9551 0
M  V30 5857 N 497.742 0.78021 6.97751 0
M  V30 5858 H 502.582 1.52536 2.56002 0
M  V30 5859 H 500.119 0.76304 1.25762 0
M  V30 5860 H 502.077 -0.373497 4.15525 0
M  V30 5861 H 500.707 -0.844336 3.11562 0
M  V30 5862 H 499.759 1.54888 3.47439 0
M  V30 5863 H 501.071 1.82862 4.64072 0
M  V30 5864 H 500.225 -0.0463805 6.06682 0
M  V30 5865 H 498.964 -0.422038 4.8587 0
M  V30 5866 H 497.969 1.86124 5.17337 0
M  V30 5867 H 499.194 2.22854 6.41493 0
M  V30 5868 H 497.14 -0.0107899 6.55999 0
M  V30 5869 H 497.057 1.49716 7.41027 0
M  V30 5870 H 498.325 0.368996 7.78626 0
M  V30 5871 N 502.554 -1.34406 0.822964 0
M  V30 5872 C 503.501 -2.29519 0.24284 0
M  V30 5873 C 504.471 -1.5359 -0.632397 0
M  V30 5874 O 505.656 -1.8196 -0.57403 0
M  V30 5875 C 502.796 -3.40032 -0.58925 0
M  V30 5876 C 501.909 -4.30899 0.308236 0
M  V30 5877 C 501.044 -5.28515 -0.533425 0
M  V30 5878 C 500.083 -6.1102 0.363444 0
M  V30 5879 N 499.22 -7.00725 -0.439147 0
M  V30 5880 H 504.06 -2.78537 1.05929 0
M  V30 5881 H 501.597 -1.3707 0.533872 0
M  V30 5882 H 503.555 -4.0279 -1.087 0
M  V30 5883 H 502.185 -2.92248 -1.37081 0
M  V30 5884 H 501.237 -3.69002 0.924203 0
M  V30 5885 H 502.549 -4.88717 0.997862 0
M  V30 5886 H 501.703 -5.96725 -1.09565 0
M  V30 5887 H 500.442 -4.71235 -1.25656 0
M  V30 5888 H 499.447 -5.41743 0.937812 0
M  V30 5889 H 500.672 -6.70381 1.08469 0
M  V30 5890 H 498.618 -6.45913 -1.14595 0
M  V30 5891 H 498.535 -7.55756 0.19209 0
M  V30 5892 H 499.803 -7.73263 -0.984124 0
M  V30 5893 N 504.032 -0.577932 -1.46621 0
M  V30 5894 C 505.443 -0.150071 -1.86096 0
M  V30 5895 C 505.794 1.28563 -1.48209 0
M  V30 5896 O 504.919 1.97036 -0.894754 0
M  V30 5897 C 505.514 -0.265576 -3.37758 0
M  V30 5898 C 504.073 0.10738 -3.76247 0
M  V30 5899 C 503.22 -0.603711 -2.70649 0
M  V30 5900 H 506.171 -0.786438 -1.37844 0
M  V30 5901 H 506.192 0.510352 -3.77062 0
M  V30 5902 H 505.704 -1.3106 -3.65301 0
M  V30 5903 H 503.805 1.15272 -3.54321 0
M  V30 5904 H 503.918 -0.26561 -4.78363 0
M  V30 5905 H 502.282 -0.0444884 -2.54661 0
M  V30 5906 H 503.065 -1.65029 -3.01032 0
M  V30 5907 N 505.51 1.54411 -0.315457 0
M  V30 5908 C 506.44 2.27002 0.547039 0
M  V30 5909 C 507.421 1.27492 1.12605 0
M  V30 5910 O 508.606 1.5629 1.15269 0
M  V30 5911 C 505.736 3.02171 1.71201 0
M  V30 5912 C 504.69 4.0895 1.26268 0
M  V30 5913 C 504.016 4.71915 2.51396 0
M  V30 5914 C 505.316 5.20891 0.383419 0
M  V30 5915 H 507.01 2.99343 -0.0584517 0
M  V30 5916 H 504.556 1.4397 -0.0295527 0
M  V30 5917 H 506.509 3.51681 2.32161 0
M  V30 5918 H 505.233 2.27433 2.34397 0
M  V30 5919 H 503.892 3.60312 0.676062 0
M  V30 5920 H 503.54 3.93801 3.12937 0
M  V30 5921 H 503.24 5.44039 2.22026 0
M  V30 5922 H 504.764 5.24195 3.13133 0
M  V30 5923 H 506.178 5.66206 0.899082 0
M  V30 5924 H 504.575 5.99821 0.182857 0
M  V30 5925 H 505.645 4.81324 -0.587821 0
M  V30 5926 N 506.988 0.0434614 1.5754 0
M  V30 5927 C 507.938 -0.943039 2.07583 0
M  V30 5928 C 508.922 -1.27662 0.979342 0
M  V30 5929 O 510.114 -1.26034 1.24276 0
M  V30 5930 C 507.243 -2.22056 2.61813 0
M  V30 5931 C 506.329 -1.91471 3.78417 0
M  V30 5932 N 506.72 -1.31214 4.88484 0
M  V30 5933 C 505.018 -2.21384 3.87176 0
M  V30 5934 C 505.719 -1.18084 5.69588 0
M  V30 5935 N 504.695 -1.68116 5.16951 0
M  V30 5936 H 508.497 -0.472354 2.90079 0
M  V30 5937 H 506.011 -0.161191 1.61598 0
M  V30 5938 H 508.008 -2.93618 2.95963 0
M  V30 5939 H 506.668 -2.69738 1.80752 0
M  V30 5940 H 507.679 -0.985318 5.08441 0
M  V30 5941 H 504.356 -2.7164 3.17046 0
M  V30 5942 H 505.746 -0.713684 6.68099 0
M  V30 5943 N 508.466 -1.55915 -0.229846 0
M  V30 5944 C 509.414 -1.9258 -1.30444 0
M  V30 5945 C 510.408 -0.806839 -1.48951 0
M  V30 5946 O 511.614 -0.991606 -1.50224 0
M  V30 5947 H 507.989 -0.611878 -0.437161 0
M  V30 5948 H 509.96 -2.82264 -0.96797 0
M  V30 5949 C 508.709 -2.25171 -2.6494 0
M  V30 5950 H 508.032 -3.10782 -2.51504 0
M  V30 5951 H 509.472 -2.54716 -3.38963 0
M  V30 5952 C 507.931 -1.07394 -3.19324 0
M  V30 5953 O 508.461 -0.330759 -4.00336 0
M  V30 5954 N 506.667 -0.859984 -2.77584 0
M  V30 5955 H 506.214 -1.46605 -2.11813 0
M  V30 5956 H 506.172 -0.0736671 -3.14314 0
M  V30 5957 N 509.944 0.496216 -1.49584 0
M  V30 5958 C 511.221 1.25755 -1.49816 0
M  V30 5959 C 511.601 2.09859 -0.228572 0
M  V30 5960 O 510.949 2.14449 0.788908 0
M  V30 5961 C 511.159 2.11017 -2.7798 0
M  V30 5962 C 512.507 2.70047 -3.27658 0
M  V30 5963 O 513.531 2.21281 -2.79129 0
M  V30 5964 O 512.39 3.58834 -4.1219 0
M  V30 5965 H 509.484 0.569322 -0.599834 0
M  V30 5966 H 512.03 0.510094 -1.61852 0
M  V30 5967 H 510.802 1.48879 -3.61871 0
M  V30 5968 H 510.425 2.92947 -2.68827 0
M  V30 5969 N 511.423 1.38739 0.74761 0
M  V30 5970 C 512.653 1.3832 1.53464 0
M  V30 5971 C 513.061 -0.0273464 1.8918 0
M  V30 5972 O 512.404 -1.00588 1.53713 0
M  V30 5973 C 512.466 2.18007 2.85855 0
M  V30 5974 C 512.13 3.66762 2.72644 0
M  V30 5975 C 513.127 4.60124 2.42037 0
M  V30 5976 C 510.812 4.10193 2.89909 0
M  V30 5977 C 512.806 5.94897 2.28859 0
M  V30 5978 C 510.493 5.45045 2.7635 0
M  V30 5979 C 511.491 6.37211 2.45869 0
M  V30 5980 O 511.179 7.69581 2.3238 0
M  V30 5981 H 510.911 0.474718 0.481268 0
M  V30 5982 H 513.465 1.83012 0.932518 0
M  V30 5983 H 511.695 1.68043 3.48279 0
M  V30 5984 H 513.384 2.09921 3.47402 0
M  V30 5985 H 514.15 4.27874 2.28361 0
M  V30 5986 H 510.029 3.38797 3.1263 0
M  V30 5987 H 513.573 6.66802 2.04989 0
M  V30 5988 H 509.47 5.76889 2.89601 0
M  V30 5989 H 510.238 7.80169 2.47546 0
M  V30 5990 N 512.901 -0.976442 1.23707 0
M  V30 5991 C 513.833 -2.07212 0.979574 0
M  V30 5992 C 514.846 -1.6273 -0.0478528 0
M  V30 5993 O 516.035 -1.77506 0.18815 0
M  V30 5994 C 513.135 -3.35835 0.45479 0
M  V30 5995 C 512.308 -4.09268 1.54331 0
M  V30 5996 C 511.367 -5.16166 1.02271 0
M  V30 5997 O 510.393 -5.42827 1.71254 0
M  V30 5998 N 511.595 -5.80313 -0.147419 0
M  V30 5999 H 514.36 -2.29878 1.92292 0
M  V30 6000 H 511.921 -1.14343 1.14618 0
M  V30 6001 H 513.913 -4.04597 0.0914631 0
M  V30 6002 H 512.483 -3.10106 -0.394068 0
M  V30 6003 H 511.703 -3.34906 2.07923 0
M  V30 6004 H 512.991 -4.55095 2.27522 0
M  V30 6005 H 512.389 -5.61043 -0.724353 0
M  V30 6006 H 510.946 -6.50231 -0.451972 0
M  V30 6007 N 514.379 -1.04941 -1.1758 0
M  V30 6008 C 515.628 -0.753124 -1.87112 0
M  V30 6009 C 515.941 0.722507 -1.81767 0
M  V30 6010 O 517.147 1.13265 -2.46746 0
M  V30 6011 C 515.603 -1.29695 -3.35719 0
M  V30 6012 C 515.211 -2.80184 -3.49572 0
M  V30 6013 C 516.955 -1.07759 -4.10595 0
M  V30 6014 C 514.862 -3.2788 -4.92187 0
M  V30 6015 H 513.792 -0.278034 -0.700866 0
M  V30 6016 H 516.443 -1.26637 -1.32798 0
M  V30 6017 H 514.825 -0.711522 -3.89555 0
M  V30 6018 H 515.999 -3.44561 -3.05965 0
M  V30 6019 H 514.314 -3.00632 -2.88113 0
M  V30 6020 H 516.911 -1.40899 -5.15802 0
M  V30 6021 H 517.254 -0.0152302 -4.16297 0
M  V30 6022 H 517.787 -1.62809 -3.62957 0
M  V30 6023 H 514.526 -4.33535 -4.91658 0
M  V30 6024 H 514.046 -2.68245 -5.36475 0
M  V30 6025 H 515.725 -3.22412 -5.60945 0
M  V30 6026 N 515.857 1.33968 -0.830081 0
M  V30 6027 C 516.787 2.31911 -0.271911 0
M  V30 6028 C 517.768 1.58571 0.61556 0
M  V30 6029 O 518.953 1.86514 0.540946 0
M  V30 6030 C 516.083 3.42737 0.561146 0
M  V30 6031 C 515.037 4.27383 -0.229789 0
M  V30 6032 C 514.363 5.29742 0.726463 0
M  V30 6033 C 515.663 5.02 -1.44197 0
M  V30 6034 H 517.357 2.78844 -1.09025 0
M  V30 6035 H 514.903 1.34061 -0.52571 0
M  V30 6036 H 516.856 4.10276 0.961867 0
M  V30 6037 H 515.58 2.94471 1.41261 0
M  V30 6038 H 514.239 3.61456 -0.611964 0
M  V30 6039 H 513.887 4.77736 1.57408 0
M  V30 6040 H 513.587 5.87255 0.20142 0
M  V30 6041 H 515.111 6.00149 1.12489 0
M  V30 6042 H 516.525 5.62355 -1.11488 0
M  V30 6043 H 514.922 5.69122 -1.90317 0
M  V30 6044 H 515.992 4.31281 -2.2164 0
M  V30 6045 N 517.335 0.585699 1.46312 0
M  V30 6046 C 518.612 0.00542031 1.95599 0
M  V30 6047 C 518.992 -1.45619 1.52834 0
M  V30 6048 O 518.34 -2.14759 0.780446 0
M  V30 6049 C 518.55 0.180601 3.48532 0
M  V30 6050 C 519.898 0.049979 4.24571 0
M  V30 6051 O 520.922 0.109589 3.56031 0
M  V30 6052 O 519.781 -0.0832226 5.46437 0
M  V30 6053 H 516.875 -0.0481281 0.825598 0
M  V30 6054 H 519.421 0.654227 1.56582 0
M  V30 6055 H 518.193 1.19657 3.72556 0
M  V30 6056 H 517.816 -0.504498 3.94386 0
M  V30 6057 N 518.813 -1.54241 0.323641 0
M  V30 6058 C 519.76 -2.24339 -0.542277 0
M  V30 6059 C 520.73 -1.23421 -1.11159 0
M  V30 6060 O 521.915 -1.52104 -1.15192 0
M  V30 6061 C 519.055 -3.00479 -1.69725 0
M  V30 6062 C 518.168 -4.16214 -1.15716 0
M  V30 6063 C 517.303 -4.79884 -2.27783 0
M  V30 6064 C 516.342 -5.87722 -1.71023 0
M  V30 6065 N 515.479 -6.45254 -2.76752 0
M  V30 6066 H 520.319 -2.97935 0.0620613 0
M  V30 6067 H 517.856 -1.47039 0.0423993 0
M  V30 6068 H 519.814 -3.42869 -2.3769 0
M  V30 6069 H 518.444 -2.29217 -2.27288 0
M  V30 6070 H 517.496 -3.78605 -0.369063 0
M  V30 6071 H 518.808 -4.93838 -0.701832 0
M  V30 6072 H 517.962 -5.25243 -3.03651 0
M  V30 6073 H 516.701 -4.01641 -2.76652 0
M  V30 6074 H 515.706 -5.41765 -0.936518 0
M  V30 6075 H 516.931 -6.67863 -1.2303 0
M  V30 6076 H 514.877 -5.69884 -3.24912 0
M  V30 6077 H 514.794 -7.18292 -2.35782 0
M  V30 6078 H 516.062 -6.95269 -3.5245 0
M  V30 6079 N 520.291 -0.0518155 -1.57515 0
M  V30 6080 C 521.516 0.634896 -1.97443 0
M  V30 6081 C 521.941 1.63546 -0.929207 0
M  V30 6082 O 521.299 1.80981 0.107484 0
M  V30 6083 C 521.347 1.29765 -3.36442 0
M  V30 6084 O 520.451 2.41333 -3.34413 0
M  V30 6085 H 519.792 0.164994 -0.643174 0
M  V30 6086 H 522.322 -0.120407 -2.04245 0
M  V30 6087 H 522.332 1.64918 -3.73184 0
M  V30 6088 H 521.007 0.564361 -4.12053 0
M  V30 6089 H 519.584 2.08122 -3.09418 0
M  V30 6090 N 521.769 1.56035 0.221574 0
M  V30 6091 C 522.716 1.92413 1.27459 0
M  V30 6092 C 523.686 0.781323 1.46576 0
M  V30 6093 O 524.871 1.03721 1.60145 0
M  V30 6094 C 522.011 2.24617 2.61995 0
M  V30 6095 C 521.124 3.51831 2.50677 0
M  V30 6096 C 520.259 3.73482 3.77736 0
M  V30 6097 C 519.298 4.94211 3.6114 0
M  V30 6098 N 518.435 5.12252 4.80148 0
M  V30 6099 H 523.275 2.82203 0.957355 0
M  V30 6100 H 520.812 1.39676 0.461415 0
M  V30 6101 H 522.77 2.41298 3.40339 0
M  V30 6102 H 521.4 1.38 2.91815 0
M  V30 6103 H 520.452 3.43343 1.63767 0
M  V30 6104 H 521.764 4.40328 2.34334 0
M  V30 6105 H 520.918 3.9026 4.64523 0
M  V30 6106 H 519.657 2.83266 3.97003 0
M  V30 6107 H 518.662 4.77384 2.72736 0
M  V30 6108 H 519.887 5.85912 3.43343 0
M  V30 6109 H 517.833 4.24978 4.99729 0
M  V30 6110 H 517.75 5.94881 4.66532 0
M  V30 6111 H 519.018 5.33465 5.68362 0
M  V30 6112 N 523.247 -0.488276 1.49845 0
M  V30 6113 C 524.496 -1.23826 1.59217 0
M  V30 6114 C 524.809 -1.93439 0.289966 0
M  V30 6115 O 526.015 -2.70229 0.262382 0
M  V30 6116 C 524.471 -2.24902 2.80976 0
M  V30 6117 C 524.079 -1.6117 4.18005 0
M  V30 6118 C 525.823 -3.00648 2.99685 0
M  V30 6119 C 523.73 -2.60431 5.3097 0
M  V30 6120 H 522.66 -0.465858 0.592868 0
M  V30 6121 H 525.311 -0.510645 1.76252 0
M  V30 6122 H 523.693 -3.0088 2.57463 0
M  V30 6123 H 524.867 -0.910968 4.51706 0
M  V30 6124 H 523.182 -0.97767 4.0476 0
M  V30 6125 H 525.779 -3.74903 3.81251 0
M  V30 6126 H 526.122 -3.5902 2.10738 0
M  V30 6127 H 526.655 -2.31784 3.23297 0
M  V30 6128 H 523.394 -2.06823 6.22017 0
M  V30 6129 H 522.914 -3.28707 5.01709 0
M  V30 6130 H 524.593 -3.22606 5.60834 0
M  V30 6131 N 524.725 -1.39134 -0.740242 0
M  V30 6132 C 525.972 -1.36071 -1.49969 0
M  V30 6133 C 526.3 0.0450245 -1.94448 0
M  V30 6134 O 525.555 1.02482 -1.66721 0
M  V30 6135 C 525.854 -2.27457 -2.75678 0
M  V30 6136 C 525.52 -3.75185 -2.50094 0
M  V30 6137 C 524.182 -4.15439 -2.42825 0
M  V30 6138 C 526.534 -4.68643 -2.28086 0
M  V30 6139 C 523.862 -5.4722 -2.11584 0
M  V30 6140 C 526.214 -6.00695 -1.98363 0
M  V30 6141 C 524.878 -6.40018 -1.8956 0
M  V30 6142 H 524.148 -0.497921 -0.548777 0
M  V30 6143 H 526.795 -1.71599 -0.85007 0
M  V30 6144 H 525.1 -1.8503 -3.45356 0
M  V30 6145 H 526.797 -2.22384 -3.33686 0
M  V30 6146 H 523.387 -3.43279 -2.56627 0
M  V30 6147 H 527.571 -4.3838 -2.32672 0
M  V30 6148 H 522.827 -5.76615 -2.03287 0
M  V30 6149 H 527.001 -6.72644 -1.80341 0
M  V30 6150 H 524.628 -7.42051 -1.65117 0
M  V30 6151 N 526.204 0.969867 -1.24223 0
M  V30 6152 C 527.452 1.70918 -1.0785 0
M  V30 6153 C 527.773 1.91186 0.383763 0
M  V30 6154 O 527.043 1.48806 1.27411 0
M  V30 6155 H 525.623 0.633334 -0.396103 0
M  V30 6156 H 528.285 1.16689 -1.56108 0
M  V30 6157 H 527.381 2.69455 -1.57482 0
M  V30 6158 N 527.682 1.05563 1.17022 0
M  V30 6159 C 528.907 0.788437 1.91829 0
M  V30 6160 C 529.332 -0.650356 1.76499 0
M  V30 6161 O 528.69 -1.45229 1.08527 0
M  V30 6162 C 528.738 1.1786 3.40795 0
M  V30 6163 O 527.842 0.312965 4.11211 0
M  V30 6164 H 527.183 0.288794 0.597908 0
M  V30 6165 H 529.713 1.40948 1.48307 0
M  V30 6166 H 529.723 1.14697 3.91546 0
M  V30 6167 H 528.398 2.22666 3.51273 0
M  V30 6168 H 526.975 0.405515 3.70689 0
M  V30 6169 N 529.16 -1.33526 0.837174 0
M  V30 6170 C 530.108 -2.31168 0.257698 0
M  V30 6171 C 531.102 -1.5806 -0.609388 0
M  V30 6172 O 532.308 -1.72941 -0.499139 0
M  V30 6173 H 528.683 -0.74922 0.0646058 0
M  V30 6174 H 530.654 -2.77552 1.09578 0
M  V30 6175 C 529.403 -3.4326 -0.553887 0
M  V30 6176 H 528.726 -3.99665 0.104008 0
M  V30 6177 H 530.166 -4.13782 -0.925219 0
M  V30 6178 C 528.625 -2.88965 -1.73207 0
M  V30 6179 O 529.155 -2.85013 -2.83073 0
M  V30 6180 N 527.361 -2.45596 -1.55342 0
M  V30 6181 H 526.908 -2.49009 -0.659705 0
M  V30 6182 H 526.866 -2.0962 -2.34322 0
M  V30 6183 N 530.638 -0.59345 -1.46 0
M  V30 6184 C 531.863 -0.0872365 -2.07216 0
M  V30 6185 C 532.288 1.2131 -1.43755 0
M  V30 6186 O 531.646 1.73528 -0.525152 0
M  V30 6187 C 531.694 0.0538197 -3.6056 0
M  V30 6188 O 530.798 1.10765 -3.97247 0
M  V30 6189 H 530.139 -0.0676598 -0.660544 0
M  V30 6190 H 532.669 -0.819445 -1.87473 0
M  V30 6191 H 532.679 0.256567 -4.07193 0
M  V30 6192 H 531.354 -0.895739 -4.0614 0
M  V30 6193 H 529.931 0.882501 -3.62307 0
M  V30 6194 N 532.116 1.54067 -0.331816 0
M  V30 6195 C 533.364 2.00319 0.267739 0
M  V30 6196 C 533.685 1.22148 1.52003 0
M  V30 6197 O 532.955 0.325494 1.93177 0
M  V30 6198 H 531.535 0.740014 0.101922 0
M  V30 6199 H 534.197 1.89628 -0.450267 0
M  V30 6200 H 533.293 3.07765 0.518385 0
M  V30 6201 N 533.594 0.0601682 1.57485 0
M  V30 6202 C 534.819 -0.624416 1.97777 0
M  V30 6203 C 535.244 -1.63051 0.937867 0
M  V30 6204 O 534.602 -1.81036 -0.0978845 0
M  V30 6205 C 534.65 -1.27979 3.37126 0
M  V30 6206 O 533.754 -2.39556 3.35688 0
M  V30 6207 H 533.095 -0.161581 0.64404 0
M  V30 6208 H 535.625 0.131237 2.04179 0
M  V30 6209 H 535.635 -1.62937 3.74053 0
M  V30 6210 H 534.31 -0.542501 4.12347 0
M  V30 6211 H 532.887 -2.06478 3.10517 0
M  V30 6212 N 535.072 -1.5615 -0.213296 0
M  V30 6213 C 536.319 -1.79546 -0.936462 0
M  V30 6214 C 536.647 -0.630337 -1.84003 0
M  V30 6215 O 535.902 0.384883 -1.91878 0
M  V30 6216 C 536.201 -3.08772 -1.79985 0
M  V30 6217 C 535.867 -4.38532 -1.04882 0
M  V30 6218 C 534.529 -4.73787 -0.841393 0
M  V30 6219 C 536.881 -5.18609 -0.51907 0
M  V30 6220 C 534.209 -5.86627 -0.0924403 0
M  V30 6221 C 536.561 -6.32229 0.216581 0
M  V30 6222 C 535.225 -6.6608 0.435191 0
M  V30 6223 H 534.495 -0.657004 -0.342676 0
M  V30 6224 H 537.142 -1.9041 -0.204051 0
M  V30 6225 H 535.447 -2.93065 -2.60038 0
M  V30 6226 H 537.144 -3.24077 -2.36168 0
M  V30 6227 H 533.734 -4.10855 -1.22048 0
M  V30 6228 H 537.918 -4.91801 -0.666775 0
M  V30 6229 H 533.174 -6.11338 0.087081 0
M  V30 6230 H 537.348 -6.93503 0.634538 0
M  V30 6231 H 534.975 -7.5336 1.01746 0
M  V30 6232 N 536.55 0.480323 -1.50102 0
M  V30 6233 C 537.796 1.23489 -1.60867 0
M  V30 6234 C 538.129 1.91809 -0.303827 0
M  V30 6235 O 537.404 1.81694 0.694092 0
M  V30 6236 C 537.687 2.28578 -2.78252 0
M  V30 6237 C 537.54 1.64624 -4.18592 0
M  V30 6238 C 538.859 3.2997 -2.91218 0
M  V30 6239 H 535.978 0.447605 -0.585507 0
M  V30 6240 H 538.62 0.530005 -1.82458 0
M  V30 6241 H 536.77 2.88697 -2.59974 0
M  V30 6242 H 538.442 1.08173 -4.48438 0
M  V30 6243 H 536.685 0.949645 -4.23278 0
M  V30 6244 H 537.356 2.40946 -4.96638 0
M  V30 6245 H 539.832 2.79864 -3.07921 0
M  V30 6246 H 538.708 4.00839 -3.74993 0
M  V30 6247 H 538.969 3.93541 -2.0144 0
M  V30 6248 N 538.028 1.39524 0.732853 0
M  V30 6249 C 538.961 1.32806 1.85574 0
M  V30 6250 C 539.939 0.201354 1.61348 0
M  V30 6251 O 541.123 0.38216 1.84585 0
M  V30 6252 C 538.25 1.06271 3.21596 0
M  V30 6253 C 537.296 2.21161 3.64678 0
M  V30 6254 S 538.129 3.83454 3.73796 0
M  V30 6255 C 539.285 3.59149 5.12604 0
M  V30 6256 H 539.518 2.27838 1.9099 0
M  V30 6257 H 537.051 1.25605 0.897927 0
M  V30 6258 H 539.009 0.916461 4.00139 0
M  V30 6259 H 537.67 0.129223 3.13834 0
M  V30 6260 H 536.863 1.98193 4.63396 0
M  V30 6261 H 536.465 2.32 2.93346 0
M  V30 6262 H 538.757 3.16547 5.99003 0
M  V30 6263 H 539.7 4.57335 5.40602 0
M  V30 6264 H 540.108 2.93203 4.82382 0
M  V30 6265 N 539.506 -0.963266 1.24736 0
M  V30 6266 C 540.736 -1.73913 1.11524 0
M  V30 6267 C 541.144 -1.86218 -0.334612 0
M  V30 6268 O 540.487 -1.3531 -1.24245 0
M  V30 6269 C 540.549 -3.17501 1.68622 0
M  V30 6270 C 540.213 -3.28655 3.17546 0
M  V30 6271 C 541.21 -3.13637 4.14642 0
M  V30 6272 C 538.895 -3.52753 3.5759 0
M  V30 6273 C 540.889 -3.2255 5.49764 0
M  V30 6274 C 538.576 -3.61303 4.92852 0
M  V30 6275 C 539.574 -3.46214 5.88748 0
M  V30 6276 O 539.262 -3.5443 7.2155 0
M  V30 6277 H 538.994 -0.552057 0.390139 0
M  V30 6278 H 541.548 -1.2177 1.65412 0
M  V30 6279 H 539.778 -3.70969 1.09172 0
M  V30 6280 H 541.467 -3.76914 1.50635 0
M  V30 6281 H 542.233 -2.94899 3.85045 0
M  V30 6282 H 538.112 -3.63561 2.83451 0
M  V30 6283 H 541.656 -3.1069 6.24594 0
M  V30 6284 H 537.553 -3.79556 5.22118 0
M  V30 6285 H 538.321 -3.71116 7.29531 0
M  V30 6286 N 540.985 -1.06182 -1.16461 0
M  V30 6287 C 542.21 -0.798599 -1.91408 0
M  V30 6288 C 542.635 0.640987 -1.76842 0
M  V30 6289 O 541.993 1.44652 -1.09296 0
M  V30 6290 C 542.041 -1.19665 -3.40165 0
M  V30 6291 O 541.145 -0.334768 -4.11039 0
M  V30 6292 H 540.486 -0.291961 -0.596368 0
M  V30 6293 H 543.016 -1.41732 -1.47557 0
M  V30 6294 H 543.026 -1.16772 -3.90933 0
M  V30 6295 H 541.701 -2.24526 -3.50087 0
M  V30 6296 H 540.278 -0.425168 -3.70468 0
M  V30 6297 N 542.463 1.3308 -0.844243 0
M  V30 6298 C 543.396 2.27075 -0.226279 0
M  V30 6299 C 544.374 1.49911 0.629716 0
M  V30 6300 O 545.558 1.79068 0.588803 0
M  V30 6301 C 542.685 3.31767 0.681782 0
M  V30 6302 C 541.731 4.26384 -0.0994565 0
M  V30 6303 S 542.564 5.15186 -1.46094 0
M  V30 6304 C 543.72 6.23405 -0.558319 0
M  V30 6305 H 543.953 2.79141 -1.02312 0
M  V30 6306 H 541.486 1.40452 -0.641292 0
M  V30 6307 H 543.444 3.92566 1.20008 0
M  V30 6308 H 542.105 2.78507 1.45234 0
M  V30 6309 H 541.298 5.00514 0.591733 0
M  V30 6310 H 540.9 3.69949 -0.548991 0
M  V30 6311 H 543.192 6.77069 0.241672 0
M  V30 6312 H 544.135 6.96619 -1.26995 0
M  V30 6313 H 544.543 5.64333 -0.13728 0
M  V30 6314 N 543.941 0.601185 1.45683 0
M  V30 6315 C 544.888 -0.121396 2.30481 0
M  V30 6316 C 545.858 -0.866232 1.41724 0
M  V30 6317 O 547.043 -0.85324 1.70659 0
M  V30 6318 C 544.183 -1.11704 3.26521 0
M  V30 6319 C 543.296 -0.373741 4.3038 0
M  V30 6320 C 542.431 -1.35854 5.13534 0
M  V30 6321 C 541.47 -0.602689 6.09126 0
M  V30 6322 N 540.607 -1.53645 6.85082 0
M  V30 6323 H 545.447 0.607732 2.91737 0
M  V30 6324 H 542.984 0.311502 1.43764 0
M  V30 6325 H 544.942 -1.70735 3.80664 0
M  V30 6326 H 543.572 -1.81366 2.67032 0
M  V30 6327 H 542.624 0.331962 3.78949 0
M  V30 6328 H 543.936 0.2163 4.98331 0
M  V30 6329 H 543.09 -2.02111 5.72046 0
M  V30 6330 H 541.829 -1.98251 4.45587 0
M  V30 6331 H 540.834 0.0735482 5.49751 0
M  V30 6332 H 542.059 0.0161467 6.79098 0
M  V30 6333 H 540.005 -2.14819 6.1983 0
M  V30 6334 H 539.922 -0.999688 7.49361 0
M  V30 6335 H 541.19 -2.1888 7.48139 0
M  V30 6336 N 545.419 -1.53889 0.339982 0
M  V30 6337 C 546.366 -2.24902 -0.518452 0
M  V30 6338 C 547.336 -1.24593 -1.09844 0
M  V30 6339 O 548.521 -1.53317 -1.13572 0
M  V30 6340 C 545.661 -3.02262 -1.66529 0
M  V30 6341 C 544.774 -4.17418 -1.11295 0
M  V30 6342 C 543.909 -4.82273 -2.2268 0
M  V30 6343 C 542.948 -5.89503 -1.6478 0
M  V30 6344 N 542.085 -6.48153 -2.69893 0
M  V30 6345 H 546.925 -2.97853 0.0936579 0
M  V30 6346 H 544.462 -1.46986 0.0579924 0
M  V30 6347 H 546.42 -3.45371 -2.3404 0
M  V30 6348 H 545.05 -2.31614 -2.24844 0
M  V30 6349 H 544.102 -3.78976 -0.328886 0
M  V30 6350 H 545.414 -4.94554 -0.649414 0
M  V30 6351 H 544.568 -5.28435 -2.98063 0
M  V30 6352 H 543.307 -4.04552 -2.72376 0
M  V30 6353 H 542.312 -5.42728 -0.879004 0
M  V30 6354 H 543.537 -6.6913 -1.1594 0
M  V30 6355 H 541.483 -5.73298 -3.1885 0
M  V30 6356 H 541.4 -7.20752 -2.28151 0
M  V30 6357 H 542.668 -6.98968 -3.45056 0
M  V30 6358 N 546.897 -0.0685191 -1.57451 0
M  V30 6359 C 548.174 0.642167 -1.84758 0
M  V30 6360 C 548.554 1.87991 -0.960344 0
M  V30 6361 O 547.902 2.28485 -0.0257894 0
M  V30 6362 C 548.112 0.982946 -3.34872 0
M  V30 6363 C 549.46 1.35784 -4.02303 0
M  V30 6364 O 550.484 1.07477 -3.39598 0
M  V30 6365 O 549.343 1.88681 -5.12895 0
M  V30 6366 H 546.437 0.318625 -0.763156 0
M  V30 6367 H 548.983 -0.0992015 -1.6941 0
M  V30 6368 H 547.755 0.10372 -3.91163 0
M  V30 6369 H 547.378 1.78119 -3.55471 0
M  V30 6370 N 548.375 1.56261 0.205012 0
M  V30 6371 C 549.322 1.93754 1.25411 0
M  V30 6372 C 550.292 0.796826 1.45739 0
M  V30 6373 O 551.477 1.05414 1.59036 0
M  V30 6374 C 548.617 2.27383 2.59598 0
M  V30 6375 C 547.73 3.5447 2.46931 0
M  V30 6376 C 546.865 3.77468 3.73753 0
M  V30 6377 C 545.904 4.98014 3.55877 0
M  V30 6378 N 545.041 5.17316 4.74688 0
M  V30 6379 H 549.881 2.83203 0.92737 0
M  V30 6380 H 547.418 1.40158 0.446574 0
M  V30 6381 H 549.376 2.44895 3.37761 0
M  V30 6382 H 548.006 1.41088 2.90335 0
M  V30 6383 H 547.058 3.45061 1.60116 0
M  V30 6384 H 548.37 4.42789 2.29651 0
M  V30 6385 H 547.524 3.95165 4.60358 0
M  V30 6386 H 546.263 2.87461 3.93976 0
M  V30 6387 H 545.268 4.80249 2.67657 0
M  V30 6388 H 546.493 5.8952 3.37109 0
M  V30 6389 H 544.439 4.30255 4.95194 0
M  V30 6390 H 544.356 5.99796 4.60197 0
M  V30 6391 H 545.624 5.39463 5.62672 0
M  V30 6392 N 549.853 -0.472356 1.50355 0
M  V30 6393 C 551.083 -1.24603 1.64796 0
M  V30 6394 C 551.491 -1.86297 0.330156 0
M  V30 6395 O 550.834 -1.69934 -0.697728 0
M  V30 6396 C 550.896 -2.39578 2.68035 0
M  V30 6397 C 550.56 -1.98531 4.11624 0
M  V30 6398 C 551.557 -1.50856 4.97532 0
M  V30 6399 C 549.242 -2.0729 4.57532 0
M  V30 6400 C 551.236 -1.12481 6.27397 0
M  V30 6401 C 548.923 -1.68527 5.87403 0
M  V30 6402 C 549.921 -1.212 6.7216 0
M  V30 6403 O 549.609 -0.829728 7.99607 0
M  V30 6404 H 549.341 -0.383035 0.55701 0
M  V30 6405 H 551.895 -0.570392 1.97321 0
M  V30 6406 H 550.125 -3.10309 2.30749 0
M  V30 6407 H 551.814 -3.01544 2.71709 0
M  V30 6408 H 552.58 -1.43511 4.63281 0
M  V30 6409 H 548.459 -2.43076 3.91708 0
M  V30 6410 H 552.003 -0.754698 6.93506 0
M  V30 6411 H 547.9 -1.7553 6.21176 0
M  V30 6412 H 548.668 -0.958689 8.12866 0
M  V30 6413 N 551.331 -1.39911 -0.725443 0
M  V30 6414 C 552.561 -1.40744 -1.51244 0
M  V30 6415 C 552.969 -0.00275403 -1.892 0
M  V30 6416 O 552.312 0.981299 -1.55294 0
M  V30 6417 C 552.374 -2.22527 -2.82351 0
M  V30 6418 C 552.038 -3.71053 -2.66774 0
M  V30 6419 C 553.035 -4.63916 -2.34686 0
M  V30 6420 C 550.72 -4.14753 -2.83347 0
M  V30 6421 C 552.714 -5.98463 -2.19366 0
M  V30 6422 C 550.401 -5.49372 -2.67644 0
M  V30 6423 C 551.399 -6.41042 -2.357 0
M  V30 6424 O 551.087 -7.73181 -2.20107 0
M  V30 6425 H 550.819 -0.482314 -0.473655 0
M  V30 6426 H 553.373 -1.84472 -0.903284 0
M  V30 6427 H 551.603 -1.73563 -3.45562 0
M  V30 6428 H 553.292 -2.15421 -3.44018 0
M  V30 6429 H 554.058 -4.31453 -2.21525 0
M  V30 6430 H 549.937 -3.43728 -3.072 0
M  V30 6431 H 553.481 -6.69979 -1.94354 0
M  V30 6432 H 549.378 -5.81424 -2.80387 0
M  V30 6433 H 550.146 -7.84008 -2.35103 0
M  V30 6434 N 552.809 0.956637 -1.25245 0
M  V30 6435 C 554.058 1.69537 -1.0927 0
M  V30 6436 C 554.371 1.92136 0.366503 0
M  V30 6437 O 555.577 2.63687 0.64665 0
M  V30 6438 C 554.033 3.05211 -1.9072 0
M  V30 6439 C 553.641 2.90416 -3.41119 0
M  V30 6440 C 555.385 3.82882 -1.83308 0
M  V30 6441 C 553.292 4.21468 -4.14872 0
M  V30 6442 H 552.222 0.635804 -0.405302 0
M  V30 6443 H 554.873 1.06513 -1.49423 0
M  V30 6444 H 553.255 3.69128 -1.43389 0
M  V30 6445 H 554.429 2.35444 -3.9611 0
M  V30 6446 H 552.744 2.26203 -3.49602 0
M  V30 6447 H 555.341 4.79944 -2.35706 0
M  V30 6448 H 555.684 4.0853 -0.800572 0
M  V30 6449 H 556.217 3.25711 -2.28379 0
M  V30 6450 H 552.956 4.01009 -5.18529 0
M  V30 6451 H 552.476 4.76213 -3.64665 0
M  V30 6452 H 554.155 4.90022 -4.22478 0
M  V30 6453 N 554.287 1.06798 1.15896 0
M  V30 6454 C 555.517 0.807522 1.90165 0
M  V30 6455 C 555.925 -0.642417 1.7796 0
M  V30 6456 O 555.268 -1.45193 1.12537 0
M  V30 6457 C 555.33 1.12939 3.41299 0
M  V30 6458 C 554.994 2.57879 3.7729 0
M  V30 6459 C 555.991 3.56118 3.78782 0
M  V30 6460 C 553.676 2.93311 4.07767 0
M  V30 6461 C 555.67 4.87827 4.10248 0
M  V30 6462 C 553.357 4.25219 4.38899 0
M  V30 6463 C 554.355 5.22287 4.4012 0
M  V30 6464 O 554.043 6.51826 4.70508 0
M  V30 6465 H 553.775 0.291946 0.609708 0
M  V30 6466 H 556.329 1.42627 1.47806 0
M  V30 6467 H 554.559 0.45359 3.84031 0
M  V30 6468 H 556.248 0.852363 3.9685 0
M  V30 6469 H 557.014 3.30086 3.55342 0
M  V30 6470 H 552.893 2.18409 4.05979 0
M  V30 6471 H 556.437 5.63586 4.11116 0
M  V30 6472 H 552.334 4.51006 4.61805 0
M  V30 6473 H 553.102 6.56893 4.88298 0
M  V30 6474 N 555.766 -1.3263 0.851289 0
M  V30 6475 C 556.714 -2.30882 0.282202 0
M  V30 6476 C 557.708 -1.58697 -0.592589 0
M  V30 6477 O 558.914 -1.73461 -0.480768 0
M  V30 6478 H 555.289 -0.748492 0.0725487 0
M  V30 6479 H 557.26 -2.76374 1.12516 0
M  V30 6480 C 556.009 -3.43828 -0.517449 0
M  V30 6481 H 555.332 -3.99532 0.146392 0
M  V30 6482 H 556.772 -4.1474 -0.88128 0
M  V30 6483 C 555.231 -2.90786 -1.70133 0
M  V30 6484 O 555.761 -2.88 -2.80034 0
M  V30 6485 N 553.967 -2.4723 -1.52728 0
M  V30 6486 H 553.514 -2.49695 -0.633257 0
M  V30 6487 H 553.472 -2.12094 -2.32085 0
M  V30 6488 N 557.244 -0.608902 -1.45362 0
M  V30 6489 C 558.154 0.110969 -2.34337 0
M  V30 6490 C 559.17 0.859007 -1.51318 0
M  V30 6491 O 560.346 0.816296 -1.84116 0
M  V30 6492 C 557.411 1.09494 -3.28956 0
M  V30 6493 C 556.472 0.348718 -4.27881 0
M  V30 6494 C 555.705 1.28582 -5.17979 0
M  V30 6495 O 555.928 2.52369 -5.11533 0
M  V30 6496 O 554.862 0.782172 -5.96796 0
M  V30 6497 H 558.688 -0.620258 -2.97299 0
M  V30 6498 H 556.273 -0.36916 -1.44767 0
M  V30 6499 H 558.155 1.66163 -3.87257 0
M  V30 6500 H 556.83 1.80717 -2.68557 0
M  V30 6501 H 555.737 -0.260465 -3.73192 0
M  V30 6502 H 557.07 -0.323049 -4.91139 0
M  V30 6503 N 558.722 1.53707 -0.348139 0
M  V30 6504 C 559.669 2.25173 0.506518 0
M  V30 6505 C 560.639 1.25174 1.09182 0
M  V30 6506 O 561.824 1.53917 1.12757 0
M  V30 6507 C 558.964 3.03141 1.64923 0
M  V30 6508 C 558.077 4.18002 1.0908 0
M  V30 6509 C 557.212 4.83447 2.20119 0
M  V30 6510 C 556.251 5.90369 1.61651 0
M  V30 6511 N 555.388 6.49575 2.66451 0
M  V30 6512 H 560.228 2.97799 -0.109452 0
M  V30 6513 H 557.765 1.46953 -0.0657866 0
M  V30 6514 H 559.723 3.46607 2.32205 0
M  V30 6515 H 558.353 2.32803 2.23612 0
M  V30 6516 H 557.405 3.79145 0.308783 0
M  V30 6517 H 558.717 4.94892 0.623178 0
M  V30 6518 H 557.871 5.30008 2.95257 0
M  V30 6519 H 556.61 4.05991 2.70227 0
M  V30 6520 H 555.615 5.43186 0.850209 0
M  V30 6521 H 556.84 6.69735 1.1239 0
M  V30 6522 H 554.786 5.74981 3.15805 0
M  V30 6523 H 554.703 7.21952 2.24325 0
M  V30 6524 H 555.971 7.00789 3.41344 0
M  V30 6525 N 560.2 0.0768682 1.57412 0
M  V30 6526 C 561.11 -0.903207 2.16516 0
M  V30 6527 C 562.126 -1.32341 1.12968 0
M  V30 6528 O 563.302 -1.39507 1.45258 0
M  V30 6529 C 560.367 -2.1508 2.71922 0
M  V30 6530 C 559.428 -1.78653 3.90361 0
M  V30 6531 C 558.661 -2.97465 4.43114 0
M  V30 6532 O 558.884 -4.11638 3.94854 0
M  V30 6533 O 557.818 -2.76987 5.3438 0
M  V30 6534 H 561.644 -0.430427 3.00634 0
M  V30 6535 H 559.229 -0.146485 1.4868 0
M  V30 6536 H 561.111 -2.8823 3.07411 0
M  V30 6537 H 559.786 -2.61446 1.9086 0
M  V30 6538 H 558.693 -1.0274 3.59716 0
M  V30 6539 H 560.026 -1.37066 4.7273 0
M  V30 6540 N 561.678 -1.56367 -0.196722 0
M  V30 6541 C 562.903 -1.84991 -0.937714 0
M  V30 6542 C 563.328 -0.660244 -1.76132 0
M  V30 6543 O 562.686 0.390967 -1.77034 0
M  V30 6544 C 562.734 -3.11828 -1.81096 0
M  V30 6545 O 561.838 -2.92266 -2.90955 0
M  V30 6546 H 561.179 -0.609193 -0.264159 0
M  V30 6547 H 563.709 -2.03595 -0.202529 0
M  V30 6548 H 563.719 -3.42579 -2.21594 0
M  V30 6549 H 562.394 -3.98037 -1.2058 0
M  V30 6550 H 560.971 -2.72809 -2.54224 0
M  V30 6551 N 563.156 0.464375 -1.50603 0
M  V30 6552 C 564.572 0.798684 -1.38178 0
M  V30 6553 C 564.772 1.96568 -0.44308 0
M  V30 6554 O 563.828 2.52252 0.111814 0
M  V30 6555 C 565.141 1.10444 -2.79683 0
M  V30 6556 C 566.689 1.2105 -2.88645 0
M  V30 6557 C 567.164 1.54934 -4.30998 0
M  V30 6558 N 568.655 1.61913 -4.3398 0
M  V30 6559 C 569.39 1.8965 -5.41129 0
M  V30 6560 N 568.886 2.15361 -6.58477 0
M  V30 6561 N 570.679 1.91207 -5.28579 0
M  V30 6562 H 562.83 -0.304603 -2.10204 0
M  V30 6563 H 565.093 -0.0737804 -0.945125 0
M  V30 6564 H 564.799 0.319934 -3.50242 0
M  V30 6565 H 564.673 2.03896 -3.17342 0
M  V30 6566 H 567.06 1.98567 -2.18301 0
M  V30 6567 H 567.141 0.255613 -2.5452 0
M  V30 6568 H 566.785 0.779549 -5.01882 0
M  V30 6569 H 566.715 2.51584 -4.62615 0
M  V30 6570 H 569.206 1.44055 -3.49366 0
M  V30 6571 H 569.519 2.35818 -7.35941 0
M  V30 6572 H 567.864 2.1274 -6.6164 0
M  V30 6573 H 571.055 1.70622 -4.35897 0
M  V30 6574 H 571.228 2.12488 -6.12171 0
M  V30 6575 N 564.634 1.40294 0.718013 0
M  V30 6576 C 565.581 1.40367 1.8321 0
M  V30 6577 C 566.551 0.260952 1.64037 0
M  V30 6578 O 567.736 0.458648 1.85205 0
M  V30 6579 C 564.876 1.26965 3.20895 0
M  V30 6580 C 563.989 2.50922 3.51656 0
M  V30 6581 C 563.124 2.29981 4.78834 0
M  V30 6582 C 562.163 3.49527 5.02491 0
M  V30 6583 N 561.3 3.27796 6.20882 0
M  V30 6584 H 566.14 2.35593 1.82482 0
M  V30 6585 H 563.677 1.17012 0.891444 0
M  V30 6586 H 565.635 1.17202 4.00399 0
M  V30 6587 H 564.265 0.353591 3.20858 0
M  V30 6588 H 563.317 2.71223 2.66725 0
M  V30 6589 H 564.629 3.39913 3.65048 0
M  V30 6590 H 563.783 2.17558 5.66351 0
M  V30 6591 H 562.522 1.38411 4.67647 0
M  V30 6592 H 561.527 3.6243 4.1343 0
M  V30 6593 H 562.752 4.42021 5.15553 0
M  V30 6594 H 560.698 2.38906 6.1095 0
M  V30 6595 H 560.615 4.10351 6.34939 0
M  V30 6596 H 561.883 3.19101 7.11193 0
M  V30 6597 N 566.112 -0.949982 1.2575 0
M  V30 6598 C 567.528 -1.22191 1.02672 0
M  V30 6599 C 567.728 -1.99898 -0.253588 0
M  V30 6600 O 566.784 -2.33329 -0.965076 0
M  V30 6601 C 568.097 -1.99175 2.25277 0
M  V30 6602 C 569.645 -2.12201 2.30087 0
M  V30 6603 C 570.12 -2.92586 3.5236 0
M  V30 6604 N 571.611 -3.00163 3.52784 0
M  V30 6605 C 572.346 -3.62766 4.44059 0
M  V30 6606 N 571.842 -4.26943 5.45611 0
M  V30 6607 N 573.635 -3.59953 4.3173 0
M  V30 6608 H 565.786 -0.430258 2.07996 0
M  V30 6609 H 568.049 -0.252844 0.91366 0
M  V30 6610 H 567.755 -1.49479 3.18354 0
M  V30 6611 H 567.629 -2.99868 2.28821 0
M  V30 6612 H 570.016 -2.61093 1.3753 0
M  V30 6613 H 570.097 -1.10799 2.30559 0
M  V30 6614 H 569.741 -2.44383 4.45241 0
M  V30 6615 H 569.671 -3.94224 3.49134 0
M  V30 6616 H 572.162 -2.54529 2.79327 0
M  V30 6617 H 572.475 -4.72583 6.11461 0
M  V30 6618 H 570.82 -4.25557 5.49478 0
M  V30 6619 H 574.011 -3.09003 3.51617 0
M  V30 6620 H 574.184 -4.08455 5.03059 0
M  V30 6621 N 567.59 -1.07411 -1.15328 0
M  V30 6622 C 568.82 -0.817595 -1.89734 0
M  V30 6623 C 569.228 0.63297 -1.78298 0
M  V30 6624 O 568.571 1.44594 -1.13306 0
M  V30 6625 C 568.633 -1.14748 -3.40695 0
M  V30 6626 C 568.297 -2.59876 -3.75917 0
M  V30 6627 C 569.294 -3.58122 -3.76888 0
M  V30 6628 C 566.979 -2.95469 -4.06206 0
M  V30 6629 C 568.973 -4.89996 -4.07655 0
M  V30 6630 C 566.66 -4.2754 -4.36638 0
M  V30 6631 C 567.658 -5.24614 -4.37344 0
M  V30 6632 O 567.346 -6.54312 -4.67045 0
M  V30 6633 H 567.078 -0.295175 -0.608151 0
M  V30 6634 H 569.632 -1.43409 -1.47048 0
M  V30 6635 H 567.862 -0.47395 -3.83785 0
M  V30 6636 H 569.551 -0.873397 -3.96392 0
M  V30 6637 H 570.317 -3.31966 -3.53587 0
M  V30 6638 H 566.196 -2.20558 -4.04815 0
M  V30 6639 H 569.74 -5.65759 -4.08121 0
M  V30 6640 H 565.637 -4.53449 -4.59407 0
M  V30 6641 H 566.405 -6.59473 -4.84807 0
M  V30 6642 N 569.068 1.32177 -0.85831 0
M  V30 6643 C 570.293 2.01847 -0.476718 0
M  V30 6644 C 570.718 1.64065 0.920021 0
M  V30 6645 O 570.076 0.843189 1.60499 0
M  V30 6646 C 570.124 3.55097 -0.627578 0
M  V30 6647 O 569.228 4.11012 0.338086 0
M  V30 6648 H 568.569 0.635907 -0.191099 0
M  V30 6649 H 571.099 1.68641 -1.15851 0
M  V30 6650 H 571.109 4.04718 -0.516476 0
M  V30 6651 H 569.784 3.81938 -1.64609 0
M  V30 6652 H 568.361 3.72451 0.182917 0
M  V30 6653 N 570.547 0.616602 1.45037 0
M  V30 6654 C 571.958 0.199359 1.85633 0
M  V30 6655 C 572.309 -1.24588 1.51566 0
M  V30 6656 O 571.434 -1.94594 0.94668 0
M  V30 6657 C 572.029 0.355033 3.36935 0
M  V30 6658 C 570.588 -0.00758748 3.76399 0
M  V30 6659 C 569.735 0.675256 2.68953 0
M  V30 6660 H 572.686 0.822708 1.3571 0
M  V30 6661 H 572.707 -0.410201 3.78282 0
M  V30 6662 H 572.219 1.40699 3.61698 0
M  V30 6663 H 570.32 -1.05837 3.57252 0
M  V30 6664 H 570.433 0.392346 4.77491 0
M  V30 6665 H 568.797 0.111992 2.54454 0
M  V30 6666 H 569.58 1.72952 2.96551 0
M  V30 6667 N 572.025 -1.5352 0.356285 0
M  V30 6668 C 572.973 -2.26945 -0.50978 0
M  V30 6669 C 573.967 -1.29569 -1.09125 0
M  V30 6670 O 575.173 -1.47231 -1.03552 0
M  V30 6671 H 571.548 -0.729368 -0.183102 0
M  V30 6672 H 573.519 -2.98111 0.131374 0
M  V30 6673 C 572.268 -3.06466 -1.64237 0
M  V30 6674 H 571.591 -3.81233 -1.20423 0
M  V30 6675 H 573.031 -3.61035 -2.22327 0
M  V30 6676 C 571.49 -2.16737 -2.57928 0
M  V30 6677 O 572.02 -1.77195 -3.60507 0
M  V30 6678 N 570.226 -1.81558 -2.26903 0
M  V30 6679 H 569.773 -2.13913 -1.43524 0
M  V30 6680 H 569.731 -1.21806 -2.89846 0
M  V30 6681 N 573.503 -0.0852151 -1.57369 0
M  V30 6682 C 574.728 0.592872 -1.98746 0
M  V30 6683 C 575.153 1.61538 -0.963689 0
M  V30 6684 O 574.511 1.81168 0.069071 0
M  V30 6685 C 574.559 1.22599 -3.39119 0
M  V30 6686 O 573.663 2.34185 -3.39457 0
M  V30 6687 H 573.004 0.151314 -0.646529 0
M  V30 6688 H 575.534 -0.163703 -2.03944 0
M  V30 6689 H 575.544 1.56965 -3.76598 0
M  V30 6690 H 574.219 0.476831 -4.13158 0
M  V30 6691 H 572.796 2.01512 -3.13763 0
M  V30 6692 N 574.981 1.5647 0.188427 0
M  V30 6693 C 576.209 1.85131 0.923803 0
M  V30 6694 C 576.624 0.668537 1.76567 0
M  V30 6695 O 575.981 -0.362662 1.7886 0
M  V30 6696 C 576.032 3.12661 1.81453 0
M  V30 6697 O 575.753 4.26378 1.00665 0
M  V30 6698 C 577.254 3.54548 2.66103 0
M  V30 6699 H 574.474 0.614624 0.269218 0
M  V30 6700 H 577.018 2.03581 0.193671 0
M  V30 6701 H 575.173 2.96088 2.49821 0
M  V30 6702 H 575.587 4.99041 1.61425 0
M  V30 6703 H 577.061 4.4673 3.24247 0
M  V30 6704 H 577.538 2.77853 3.40139 0
M  V30 6705 H 578.144 3.73674 2.03096 0
M  V30 6706 N 576.459 -0.456382 1.50847 0
M  V30 6707 C 577.689 -1.22848 1.66108 0
M  V30 6708 C 578.097 -1.85936 0.349897 0
M  V30 6709 O 577.44 -1.70664 -0.679665 0
M  V30 6710 C 577.502 -2.36722 2.70561 0
M  V30 6711 C 577.166 -1.94154 4.13707 0
M  V30 6712 C 578.163 -1.4557 4.99105 0
M  V30 6713 C 575.848 -2.02426 4.59705 0
M  V30 6714 C 577.842 -1.0582 6.28555 0
M  V30 6715 C 575.529 -1.62287 5.89157 0
M  V30 6716 C 576.527 -1.14064 6.73408 0
M  V30 6717 O 576.215 -0.744873 8.00442 0
M  V30 6718 H 575.947 -0.377105 0.561042 0
M  V30 6719 H 578.501 -0.549431 1.97915 0
M  V30 6720 H 576.731 -3.07844 2.34027 0
M  V30 6721 H 578.42 -2.98646 2.74892 0
M  V30 6722 H 579.186 -1.38589 4.64777 0
M  V30 6723 H 575.065 -2.38908 3.94264 0
M  V30 6724 H 578.609 -0.6811 6.94267 0
M  V30 6725 H 574.506 -1.68932 6.23003 0
M  V30 6726 H 575.274 -0.87242 8.13837 0
M  V30 6727 N 577.937 -1.40673 -0.710563 0
M  V30 6728 C 578.884 -1.41336 -1.82463 0
M  V30 6729 C 579.854 -0.269648 -1.63897 0
M  V30 6730 O 581.039 -0.468463 -1.8496 0
M  V30 6731 C 578.179 -1.28665 -3.20218 0
M  V30 6732 C 577.292 -2.52784 -3.5032 0
M  V30 6733 C 576.427 -2.32517 -4.77608 0
M  V30 6734 C 575.466 -3.52187 -5.0063 0
M  V30 6735 N 574.603 -3.31084 -6.19135 0
M  V30 6736 H 579.443 -2.36558 -1.8123 0
M  V30 6737 H 576.98 -1.17483 -0.885226 0
M  V30 6738 H 578.938 -1.19324 -3.99772 0
M  V30 6739 H 577.568 -0.370602 -3.20666 0
M  V30 6740 H 576.62 -2.72634 -2.65283 0
M  V30 6741 H 577.932 -3.41845 -3.63241 0
M  V30 6742 H 577.086 -2.20558 -5.65189 0
M  V30 6743 H 575.825 -1.40889 -4.66906 0
M  V30 6744 H 574.83 -3.64617 -4.11502 0
M  V30 6745 H 576.055 -4.44749 -5.13201 0
M  V30 6746 H 574.001 -2.42143 -6.09674 0
M  V30 6747 H 573.918 -4.13713 -6.32754 0
M  V30 6748 H 575.186 -3.22868 -7.0949 0
M  V30 6749 N 579.415 0.9433 -1.26252 0
M  V30 6750 C 580.664 1.68369 -1.11062 0
M  V30 6751 C 580.977 1.92514 0.346104 0
M  V30 6752 O 582.183 2.64358 0.618646 0
M  V30 6753 C 580.639 3.03171 -1.93946 0
M  V30 6754 C 580.247 2.86782 -3.4418 0
M  V30 6755 C 581.991 3.80916 -1.87359 0
M  V30 6756 C 579.898 4.17044 -4.19319 0
M  V30 6757 H 578.828 0.631469 -0.412023 0
M  V30 6758 H 581.479 1.04922 -1.50544 0
M  V30 6759 H 579.861 3.67587 -1.47296 0
M  V30 6760 H 581.035 2.31229 -3.98585 0
M  V30 6761 H 579.35 2.22482 -3.51981 0
M  V30 6762 H 581.947 4.77417 -2.40784 0
M  V30 6763 H 582.29 4.07658 -0.843857 0
M  V30 6764 H 582.823 3.2327 -2.31821 0
M  V30 6765 H 579.562 3.95487 -5.22753 0
M  V30 6766 H 579.082 4.72319 -3.69696 0
M  V30 6767 H 580.761 4.85513 -4.27651 0
M  V30 6768 N 580.893 1.08022 1.14757 0
M  V30 6769 C 582.123 0.827646 1.89298 0
M  V30 6770 C 582.531 -0.623506 1.78631 0
M  V30 6771 O 581.874 -1.43991 1.14071 0
M  V30 6772 C 581.936 1.16553 3.40082 0
M  V30 6773 C 581.6 2.61866 3.74533 0
M  V30 6774 C 582.597 3.60116 3.74984 0
M  V30 6775 C 580.282 2.97619 4.04633 0
M  V30 6776 C 582.276 4.92151 4.05051 0
M  V30 6777 C 579.963 4.2985 4.34364 0
M  V30 6778 C 580.961 5.26926 4.34555 0
M  V30 6779 O 580.649 6.5678 4.63568 0
M  V30 6780 H 580.381 0.298396 0.606577 0
M  V30 6781 H 582.935 1.44187 1.46285 0
M  V30 6782 H 581.165 0.494296 3.83528 0
M  V30 6783 H 582.854 0.894407 3.95923 0
M  V30 6784 H 583.62 3.33837 3.51821 0
M  V30 6785 H 579.499 2.22702 4.03639 0
M  V30 6786 H 583.043 5.67915 4.05115 0
M  V30 6787 H 578.94 4.55879 4.56995 0
M  V30 6788 H 579.708 6.62035 4.81303 0
M  V30 6789 N 582.371 -1.3172 0.865308 0
M  V30 6790 C 583.301 -2.31109 0.333302 0
M  V30 6791 C 584.282 -1.60148 -0.573301 0
M  V30 6792 O 585.467 -1.87882 -0.491305 0
M  V30 6793 C 582.597 -3.44104 -0.470078 0
M  V30 6794 C 581.551 -4.26623 0.343021 0
M  V30 6795 C 580.877 -5.31482 -0.585756 0
M  V30 6796 C 582.177 -4.98001 1.57456 0
M  V30 6797 H 583.871 -2.75855 1.1638 0
M  V30 6798 H 581.417 -1.3262 0.561069 0
M  V30 6799 H 583.37 -4.12682 -0.852752 0
M  V30 6800 H 582.094 -2.98112 -1.33404 0
M  V30 6801 H 580.753 -3.59707 0.707583 0
M  V30 6802 H 580.401 -4.81741 -1.44686 0
M  V30 6803 H 580.101 -5.87582 -0.0456494 0
M  V30 6804 H 581.625 -6.0292 -0.965375 0
M  V30 6805 H 583.039 -5.59201 1.26359 0
M  V30 6806 H 581.436 -5.63876 2.05339 0
M  V30 6807 H 582.506 -4.25253 2.32997 0
M  V30 6808 N 583.85 -0.624285 -1.44708 0
M  V30 6809 C 584.812 0.0749638 -2.29077 0
M  V30 6810 C 585.812 0.778965 -1.40673 0
M  V30 6811 O 587.003 0.624591 -1.62618 0
M  V30 6812 C 584.135 1.11663 -3.22094 0
M  V30 6813 H 585.327 -0.667013 -2.92388 0
M  V30 6814 H 582.88 -0.384098 -1.51507 0
M  V30 6815 H 583.615 1.88881 -2.63618 0
M  V30 6816 H 583.401 0.61583 -3.87234 0
M  V30 6817 H 584.891 1.60585 -3.8549 0
M  V30 6818 N 585.328 1.53329 -0.364422 0
M  V30 6819 C 586.261 2.22052 0.526145 0
M  V30 6820 C 587.239 1.21203 1.08391 0
M  V30 6821 O 588.423 1.50101 1.14026 0
M  V30 6822 C 585.55 2.91432 1.72583 0
M  V30 6823 C 584.596 4.06345 1.29562 0
M  V30 6824 S 585.429 5.34671 0.297885 0
M  V30 6825 C 586.585 6.07563 1.50392 0
M  V30 6826 H 586.818 2.97244 -0.0575055 0
M  V30 6827 H 584.351 1.53684 -0.148525 0
M  V30 6828 H 586.309 3.3202 2.41398 0
M  V30 6829 H 584.97 2.15966 2.28073 0
M  V30 6830 H 584.163 4.53901 2.19067 0
M  V30 6831 H 583.765 3.67642 0.686696 0
M  V30 6832 H 586.057 6.32224 2.43513 0
M  V30 6833 H 587 6.99973 1.06977 0
M  V30 6834 H 587.408 5.37994 1.70945 0
M  V30 6835 N 586.806 0.0935595 1.57322 0
M  V30 6836 C 588.053 -0.570509 1.94297 0
M  V30 6837 C 588.381 -1.68286 0.97519 0
M  V30 6838 O 587.636 -1.95699 -0.00548655 0
M  V30 6839 C 587.935 -1.16692 3.37813 0
M  V30 6840 C 587.601 -0.178509 4.50547 0
M  V30 6841 C 586.263 0.0933475 4.81109 0
M  V30 6842 C 588.615 0.496472 5.1883 0
M  V30 6843 C 585.943 1.0469 5.77284 0
M  V30 6844 C 588.295 1.43849 6.16028 0
M  V30 6845 C 586.959 1.71859 6.44997 0
M  V30 6846 H 586.229 -0.208764 0.710984 0
M  V30 6847 H 588.876 0.169066 1.90752 0
M  V30 6848 H 587.181 -1.98271 3.37929 0
M  V30 6849 H 588.878 -1.6884 3.63722 0
M  V30 6850 H 585.468 -0.400584 4.26724 0
M  V30 6851 H 589.652 0.299584 4.95395 0
M  V30 6852 H 584.908 1.27094 5.98044 0
M  V30 6853 H 589.082 1.96734 6.68034 0
M  V30 6854 H 586.709 2.45906 7.19329 0
M  V30 6855 N 588.284 -1.56567 -0.180126 0
M  V30 6856 C 589.532 -1.81133 -0.896392 0
M  V30 6857 C 589.853 -0.669114 -1.83161 0
M  V30 6858 O 589.123 0.311616 -1.93406 0
M  V30 6859 H 587.703 -0.668172 -0.333999 0
M  V30 6860 H 590.365 -1.94048 -0.182051 0
M  V30 6861 H 589.461 -2.74854 -1.47857 0
M  V30 6862 N 589.762 0.448376 -1.51087 0
M  V30 6863 C 590.692 1.55102 -1.74544 0
M  V30 6864 C 591.673 1.59357 -0.594932 0
M  V30 6865 O 592.858 1.75261 -0.836491 0
M  V30 6866 C 589.988 2.93268 -1.86041 0
M  V30 6867 C 588.942 3.03877 -3.01402 0
M  V30 6868 C 588.268 4.43914 -2.98068 0
M  V30 6869 C 589.568 2.7898 -4.41551 0
M  V30 6870 H 591.262 1.35724 -2.66869 0
M  V30 6871 H 588.808 0.651498 -1.28419 0
M  V30 6872 H 590.761 3.70356 -2.01034 0
M  V30 6873 H 589.485 3.13853 -0.903548 0
M  V30 6874 H 588.144 2.29227 -2.86096 0
M  V30 6875 H 587.792 4.6145 -2.00182 0
M  V30 6876 H 587.492 4.51944 -3.75527 0
M  V30 6877 H 589.016 5.22991 -3.1514 0
M  V30 6878 H 590.43 3.45805 -4.57265 0
M  V30 6879 H 588.827 2.98431 -5.20633 0
M  V30 6880 H 589.897 1.74663 -4.5235 0
M  V30 6881 N 591.24 1.41047 0.703093 0
M  V30 6882 C 592.517 1.30493 1.45708 0
M  V30 6883 C 592.897 -0.0709892 2.10981 0
M  V30 6884 O 592.245 -1.08471 2.01113 0
M  V30 6885 C 592.455 2.45287 2.48265 0
M  V30 6886 C 593.803 2.86104 3.13735 0
M  V30 6887 O 594.827 2.44971 2.58587 0
M  V30 6888 O 593.686 3.57206 4.13601 0
M  V30 6889 H 590.78 0.513144 0.648546 0
M  V30 6890 H 593.326 1.52995 0.734208 0
M  V30 6891 H 592.098 3.37135 1.98635 0
M  V30 6892 H 591.721 2.24622 3.28071 0
M  V30 6893 N 592.718 -0.936591 1.26751 0
M  V30 6894 C 594.134 -1.21095 1.03963 0
M  V30 6895 C 594.334 -2.00156 -0.232372 0
M  V30 6896 O 593.39 -2.3434 -0.940274 0
M  V30 6897 C 594.703 -1.96775 2.27377 0
M  V30 6898 C 596.251 -2.09749 2.32324 0
M  V30 6899 C 596.726 -2.88832 3.55443 0
M  V30 6900 N 598.217 -2.96404 3.55948 0
M  V30 6901 C 598.952 -3.58036 4.47881 0
M  V30 6902 N 598.448 -4.21132 5.50109 0
M  V30 6903 N 600.241 -3.55353 4.35523 0
M  V30 6904 H 592.392 -0.408173 2.08441 0
M  V30 6905 H 594.655 -0.243139 0.91629 0
M  V30 6906 H 594.361 -1.46094 3.19921 0
M  V30 6907 H 594.235 -2.97424 2.31989 0
M  V30 6908 H 596.622 -2.5962 1.40291 0
M  V30 6909 H 596.703 -1.08347 2.31721 0
M  V30 6910 H 596.347 -2.39647 4.47808 0
M  V30 6911 H 596.277 -3.90499 3.53296 0
M  V30 6912 H 598.768 -2.51552 2.82011 0
M  V30 6913 H 599.081 -4.66071 6.16439 0
M  V30 6914 H 597.426 -4.19705 5.53961 0
M  V30 6915 H 600.617 -3.05256 3.54875 0
M  V30 6916 H 600.79 -4.03097 5.07363 0
M  V30 6917 N 594.196 -1.08629 -1.14182 0
M  V30 6918 C 595.146 -0.687882 -2.17376 0
M  V30 6919 C 596.13 0.293632 -1.58198 0
M  V30 6920 O 597.322 0.105292 -1.76687 0
M  V30 6921 C 594.451 -0.101184 -3.43151 0
M  V30 6922 C 593.537 -1.10862 -4.09354 0
M  V30 6923 N 593.928 -2.29285 -4.50846 0
M  V30 6924 C 592.226 -0.944897 -4.35876 0
M  V30 6925 C 592.927 -2.93305 -5.02342 0
M  V30 6926 N 591.903 -2.20903 -4.96692 0
M  V30 6927 H 595.705 -1.58963 -2.472 0
M  V30 6928 H 593.219 -0.961329 -1.3089 0
M  V30 6929 H 595.216 0.202209 -4.16409 0
M  V30 6930 H 593.876 0.795522 -3.14804 0
M  V30 6931 H 594.887 -2.66927 -4.43813 0
M  V30 6932 H 591.564 -0.102186 -4.17375 0
M  V30 6933 H 592.954 -3.93932 -5.44304 0
M  V30 6934 N 595.674 1.31259 -0.872281 0
M  V30 6935 C 596.923 1.95893 -0.480493 0
M  V30 6936 C 597.236 1.697 0.972688 0
M  V30 6937 O 598.442 2.28214 1.47073 0
M  V30 6938 C 596.898 3.50705 -0.808342 0
M  V30 6939 C 596.506 3.85735 -2.27844 0
M  V30 6940 C 598.25 4.21719 -0.485136 0
M  V30 6941 C 596.157 5.33668 -2.54858 0
M  V30 6942 H 595.087 0.733182 -0.175955 0
M  V30 6943 H 597.738 1.49396 -1.0655 0
M  V30 6944 H 596.12 3.95706 -0.152558 0
M  V30 6945 H 597.294 3.51686 -2.97748 0
M  V30 6946 H 595.609 3.27792 -2.56791 0
M  V30 6947 H 598.206 5.30559 -0.664166 0
M  V30 6948 H 598.549 4.12316 0.574592 0
M  V30 6949 H 599.082 3.82359 -1.09756 0
M  V30 6950 H 595.821 5.48109 -3.59523 0
M  V30 6951 H 595.341 5.69061 -1.8955 0
M  V30 6952 H 597.02 6.00958 -2.39706 0
M  V30 6953 N 597.152 0.631951 1.44375 0
M  V30 6954 C 598.401 0.134214 2.01253 0
M  V30 6955 C 598.714 -1.25171 1.50305 0
M  V30 6956 O 599.92 -1.8435 1.99317 0
M  V30 6957 C 598.376 0.189187 3.59402 0
M  V30 6958 C 597.984 1.57647 4.19346 0
M  V30 6959 C 599.728 -0.252044 4.23751 0
M  V30 6960 C 597.635 1.58651 5.69722 0
M  V30 6961 H 596.565 0.0464101 0.75257 0
M  V30 6962 H 599.216 0.790868 1.65582 0
M  V30 6963 H 597.598 -0.534584 3.92375 0
M  V30 6964 H 598.772 2.32389 3.97909 0
M  V30 6965 H 597.087 1.96186 3.67288 0
M  V30 6966 H 599.684 -0.264084 5.34047 0
M  V30 6967 H 600.027 -1.27951 3.96149 0
M  V30 6968 H 600.56 0.41926 3.95584 0
M  V30 6969 H 597.299 2.59237 6.0206 0
M  V30 6970 H 596.819 0.882039 5.93279 0
M  V30 6971 H 598.498 1.32082 6.33375 0
M  V30 6972 N 598.631 -1.53133 0.372548 0
M  V30 6973 C 599.579 -2.27473 -0.485681 0
M  V30 6974 C 600.573 -1.30719 -1.07745 0
M  V30 6975 O 601.779 -1.48321 -1.01985 0
M  V30 6976 H 598.154 -0.731269 -0.175356 0
M  V30 6977 H 600.125 -2.97955 0.162986 0
M  V30 6978 C 598.874 -3.08191 -1.60978 0
M  V30 6979 H 598.197 -3.82488 -1.16373 0
M  V30 6980 H 599.637 -3.63373 -2.18485 0
M  V30 6981 C 598.096 -2.19461 -2.55614 0
M  V30 6982 O 598.626 -1.81008 -3.58607 0
M  V30 6983 N 596.832 -1.83955 -2.24965 0
M  V30 6984 H 596.379 -2.15423 -1.41247 0
M  V30 6985 H 596.337 -1.24874 -2.88538 0
M  V30 6986 N 600.109 -0.101901 -1.5727 0
M  V30 6987 C 601.386 0.602832 -1.86079 0
M  V30 6988 C 601.766 1.85912 -1 0
M  V30 6989 O 601.114 2.28379 -0.0742488 0
M  V30 6990 C 601.324 0.911694 -3.36881 0
M  V30 6991 C 602.672 1.2722 -4.05093 0
M  V30 6992 O 603.696 1.0025 -3.41802 0
M  V30 6993 O 602.555 1.7776 -5.16782 0
M  V30 6994 H 599.649 0.302366 -0.769743 0
M  V30 6995 H 602.195 -0.135113 -1.69161 0
M  V30 6996 H 600.967 0.0207256 -3.91295 0
M  V30 6997 H 600.59 1.70538 -3.59169 0
M  V30 6998 N 601.587 1.56661 0.17182 0
M  V30 6999 C 602.497 1.99604 1.2327 0
M  V30 7000 C 603.513 0.907333 1.4847 0
M  V30 7001 O 604.689 1.21492 1.60629 0
M  V30 7002 C 601.754 2.34685 2.55194 0
M  V30 7003 C 600.815 3.57381 2.3786 0
M  V30 7004 C 600.048 3.90779 3.63494 0
M  V30 7005 O 600.271 3.25152 4.6865 0
M  V30 7006 O 599.205 4.84129 3.57634 0
M  V30 7007 H 603.031 2.90114 0.898192 0
M  V30 7008 H 600.616 1.44522 0.378647 0
M  V30 7009 H 602.498 2.5822 3.33017 0
M  V30 7010 H 601.173 1.47336 2.88225 0
M  V30 7011 H 600.08 3.39064 1.5807 0
M  V30 7012 H 601.413 4.45268 2.09754 0
M  V30 7013 N 603.065 -0.440357 1.51323 0
M  V30 7014 C 604.013 -1.55492 1.72988 0
M  V30 7015 C 605.007 -1.58564 0.596138 0
M  V30 7016 O 606.213 -1.62345 0.777443 0
M  V30 7017 H 602.588 -0.516532 0.546533 0
M  V30 7018 H 604.559 -1.34392 2.66423 0
M  V30 7019 C 603.308 -2.93176 1.86931 0
M  V30 7020 H 602.631 -2.91543 2.73574 0
M  V30 7021 H 604.071 -3.70537 2.06103 0
M  V30 7022 C 602.53 -3.30988 0.628365 0
M  V30 7023 O 603.06 -4.01106 -0.218367 0
M  V30 7024 N 601.266 -2.86719 0.473339 0
M  V30 7025 H 600.813 -2.2983 1.16345 0
M  V30 7026 H 600.771 -3.12381 -0.355727 0
M  V30 7027 N 604.543 -1.41418 -0.695603 0
M  V30 7028 C 605.768 -1.44329 -1.48942 0
M  V30 7029 C 606.193 -0.0501579 -1.88033 0
M  V30 7030 O 605.551 0.946598 -1.54626 0
M  V30 7031 C 605.599 -2.3578 -2.72837 0
M  V30 7032 O 604.703 -1.81482 -3.70322 0
M  V30 7033 H 604.044 -0.489838 -0.44828 0
M  V30 7034 H 606.574 -1.85878 -0.855014 0
M  V30 7035 H 606.584 -2.51654 -3.21145 0
M  V30 7036 H 605.259 -3.37005 -2.43722 0
M  V30 7037 H 603.836 -1.75058 -3.29255 0
M  V30 7038 N 606.021 0.929856 -1.27246 0
M  V30 7039 C 607.437 1.20542 -1.04603 0
M  V30 7040 C 607.637 2.00276 0.221754 0
M  V30 7041 O 606.693 2.34835 0.927833 0
M  V30 7042 C 608.006 1.95566 -2.28417 0
M  V30 7043 C 609.554 2.08513 -2.33433 0
M  V30 7044 C 610.029 2.86943 -3.5697 0
M  V30 7045 N 611.52 2.94512 -3.57515 0
M  V30 7046 C 612.255 3.55656 -4.49774 0
M  V30 7047 N 611.751 4.18209 -5.52334 0
M  V30 7048 N 613.544 3.53038 -4.37402 0
M  V30 7049 H 605.695 0.397113 -2.08655 0
M  V30 7050 H 607.958 0.238277 -0.917566 0
M  V30 7051 H 607.664 1.44395 -3.20691 0
M  V30 7052 H 607.538 2.9619 -2.33563 0
M  V30 7053 H 609.925 2.58872 -1.41666 0
M  V30 7054 H 610.006 1.07117 -2.32292 0
M  V30 7055 H 609.65 2.37268 -4.49072 0
M  V30 7056 H 609.58 3.8862 -3.55362 0
M  V30 7057 H 612.071 2.50053 -2.83341 0
M  V30 7058 H 612.384 4.62796 -6.18902 0
M  V30 7059 H 610.729 4.16761 -5.56179 0
M  V30 7060 H 613.92 3.0337 -3.56489 0
M  V30 7061 H 614.093 4.004 -5.09493 0
M  V30 7062 N 607.499 1.09233 1.13605 0
M  V30 7063 C 608.432 0.6739 2.18023 0
M  V30 7064 C 609.41 -0.318603 1.59448 0
M  V30 7065 O 610.594 -0.220452 1.87206 0
M  V30 7066 C 607.721 -0.00751458 3.38699 0
M  V30 7067 C 606.767 0.946481 4.15865 0
M  V30 7068 S 607.6 2.45753 4.75779 0
M  V30 7069 C 608.756 1.78846 5.99804 0
M  V30 7070 H 608.989 1.55846 2.53178 0
M  V30 7071 H 606.522 0.908118 1.2487 0
M  V30 7072 H 608.48 -0.394368 4.08601 0
M  V30 7073 H 607.141 -0.868693 3.01849 0
M  V30 7074 H 606.334 0.416742 5.02274 0
M  V30 7075 H 605.936 1.27464 3.51609 0
M  V30 7076 H 608.228 1.11135 6.68323 0
M  V30 7077 H 609.171 2.63163 6.57382 0
M  V30 7078 H 609.579 1.25823 5.50299 0
M  V30 7079 N 608.977 -1.30795 0.87923 0
M  V30 7080 C 610.202 -2.01063 0.508769 0
M  V30 7081 C 610.627 -1.65508 -0.893803 0
M  V30 7082 O 609.985 -0.868616 -1.59138 0
M  V30 7083 C 610.033 -3.54054 0.683991 0
M  V30 7084 O 609.137 -4.11498 -0.272654 0
M  V30 7085 H 608.478 -0.632786 0.201191 0
M  V30 7086 H 611.008 -1.66776 1.18519 0
M  V30 7087 H 611.018 -4.03845 0.580798 0
M  V30 7088 H 609.693 -3.79271 1.70665 0
M  V30 7089 H 608.27 -3.72695 -0.12364 0
M  V30 7090 N 610.455 -0.639598 -1.44038 0
M  V30 7091 C 611.701 -0.156248 -2.02799 0
M  V30 7092 C 612.056 1.21145 -1.49471 0
M  V30 7093 O 611.349 1.79406 -0.672608 0
M  V30 7094 C 611.543 -0.0925348 -3.5728 0
M  V30 7095 C 611.372 -1.45252 -4.25596 0
M  V30 7096 C 610.142 -2.04145 -4.62226 0
M  V30 7097 C 612.34 -2.38812 -4.55492 0
M  V30 7098 N 610.322 -3.3329 -5.15549 0
M  V30 7099 C 611.693 -3.52578 -5.09989 0
M  V30 7100 C 613.748 -2.37785 -4.3745 0
M  V30 7101 C 612.451 -4.65525 -5.48342 0
M  V30 7102 C 614.477 -3.49802 -4.76857 0
M  V30 7103 C 613.839 -4.62292 -5.31475 0
M  V30 7104 H 609.938 -0.101292 -0.775412 0
M  V30 7105 H 612.522 -0.844938 -1.75411 0
M  V30 7106 H 610.693 0.565459 -3.84262 0
M  V30 7107 H 612.425 0.400426 -4.02714 0
M  V30 7108 H 609.18 -1.56999 -4.4682 0
M  V30 7109 H 609.604 -3.9934 -5.46678 0
M  V30 7110 H 614.246 -1.52061 -3.94509 0
M  V30 7111 H 611.964 -5.51951 -5.90233 0
M  V30 7112 H 615.55 -3.50193 -4.64603 0
M  V30 7113 H 614.43 -5.47536 -5.61403 0
M  V30 7114 N 611.933 1.52934 -0.380664 0
M  V30 7115 C 612.881 2.27727 0.47361 0
M  V30 7116 C 613.875 1.31288 1.0705 0
M  V30 7117 O 615.081 1.4886 1.01197 0
M  V30 7118 H 611.456 0.732189 0.171475 0
M  V30 7119 H 613.427 2.97864 -0.178785 0
M  V30 7120 C 612.176 3.0904 1.59341 0
M  V30 7121 H 611.499 3.831 1.14343 0
M  V30 7122 H 612.939 3.64527 2.16555 0
M  V30 7123 C 611.398 2.20813 2.54447 0
M  V30 7124 O 611.928 1.82907 3.57642 0
M  V30 7125 N 610.134 1.85145 2.23986 0
M  V30 7126 H 609.681 2.16169 1.40103 0
M  V30 7127 H 609.639 1.26402 2.87871 0
M  V30 7128 N 613.412 0.11024 1.57214 0
M  V30 7129 C 614.362 -0.854147 2.11396 0
M  V30 7130 C 615.346 -1.23394 1.03261 0
M  V30 7131 O 616.538 -1.20649 1.2951 0
M  V30 7132 C 613.667 -2.10752 2.70995 0
M  V30 7133 C 612.753 -1.75249 3.86198 0
M  V30 7134 N 613.144 -1.10377 4.9361 0
M  V30 7135 C 611.442 -2.04763 3.96217 0
M  V30 7136 C 612.143 -0.938199 5.74084 0
M  V30 7137 N 611.119 -1.46039 5.23616 0
M  V30 7138 H 614.921 -0.348897 2.91822 0
M  V30 7139 H 612.435 -0.0925071 1.62136 0
M  V30 7140 H 614.432 -2.80801 3.0815 0
M  V30 7141 H 613.092 -2.61829 1.9203 0
M  V30 7142 H 614.103 -0.768785 5.12162 0
M  V30 7143 H 610.78 -2.57948 3.28282 0
M  V30 7144 H 612.17 -0.429678 6.70525 0
M  V30 7145 N 614.89 -1.56749 -0.16351 0
M  V30 7146 C 615.837 -1.97011 -1.2023 0
M  V30 7147 C 616.807 -0.835186 -1.43575 0
M  V30 7148 O 617.992 -1.09594 -1.56185 0
M  V30 7149 C 615.132 -2.34186 -2.53478 0
M  V30 7150 C 614.245 -3.60893 -2.37446 0
M  V30 7151 C 613.38 -3.87245 -3.63614 0
M  V30 7152 C 612.419 -5.07274 -3.42548 0
M  V30 7153 N 611.556 -5.29719 -4.60806 0
M  V30 7154 H 616.396 -2.85562 -0.851958 0
M  V30 7155 H 613.933 -1.41292 -0.409257 0
M  V30 7156 H 615.891 -2.53764 -3.31149 0
M  V30 7157 H 614.521 -1.48736 -2.86492 0
M  V30 7158 H 613.573 -3.49185 -1.50911 0
M  V30 7159 H 614.885 -4.48722 -2.1783 0
M  V30 7160 H 614.039 -4.07232 -4.49719 0
M  V30 7161 H 612.778 -2.97806 -3.86216 0
M  V30 7162 H 611.783 -4.87177 -2.5483 0
M  V30 7163 H 613.008 -5.98251 -3.2136 0
M  V30 7164 H 610.954 -4.43233 -4.83612 0
M  V30 7165 H 610.871 -6.11786 -4.44132 0
M  V30 7166 H 612.139 -5.54192 -5.48171 0
M  V30 7167 N 616.368 0.432326 -1.51554 0
M  V30 7168 C 617.318 1.52366 -1.69614 0
M  V30 7169 C 618.302 1.51205 -0.550083 0
M  V30 7170 O 619.494 1.57573 -0.806206 0
M  V30 7171 C 616.623 2.90513 -1.82913 0
M  V30 7172 C 615.709 2.9641 -3.03318 0
M  V30 7173 N 616.1 2.72043 -4.26411 0
M  V30 7174 C 614.398 3.27572 -3.02675 0
M  V30 7175 C 615.099 2.83912 -5.07709 0
M  V30 7176 N 614.075 3.15798 -4.42462 0
M  V30 7177 H 617.877 1.32285 -2.62446 0
M  V30 7178 H 615.391 0.639708 -1.4927 0
M  V30 7179 H 617.388 3.69032 -1.93962 0
M  V30 7180 H 616.048 3.1161 -0.912655 0
M  V30 7181 H 617.059 2.46876 -4.55272 0
M  V30 7182 H 613.736 3.54411 -2.20678 0
M  V30 7183 H 615.126 2.68984 -6.15709 0
M  V30 7184 N 617.846 1.41785 0.688094 0
M  V30 7185 C 619.076 1.44705 1.47459 0
M  V30 7186 C 619.484 0.052916 1.89126 0
M  V30 7187 O 618.827 -0.939781 1.57841 0
M  V30 7188 C 618.889 2.29935 2.76352 0
M  V30 7189 C 618.553 3.77996 2.56843 0
M  V30 7190 C 619.55 4.69976 2.22304 0
M  V30 7191 C 617.235 4.2212 2.7225 0
M  V30 7192 C 619.229 6.04068 2.03421 0
M  V30 7193 C 616.916 5.56275 2.52985 0
M  V30 7194 C 617.914 6.47065 2.18621 0
M  V30 7195 O 617.602 7.78744 1.9953 0
M  V30 7196 H 617.334 0.494703 0.460701 0
M  V30 7197 H 619.888 1.86802 0.854057 0
M  V30 7198 H 618.118 1.82664 3.40839 0
M  V30 7199 H 619.807 2.24467 3.38186 0
M  V30 7200 H 620.573 4.37175 2.10008 0
M  V30 7201 H 616.452 3.51752 2.97979 0
M  V30 7202 H 619.996 6.74897 1.76523 0
M  V30 7203 H 615.893 5.88653 2.64873 0
M  V30 7204 H 616.661 7.89966 2.14234 0
M  V30 7205 N 619.324 -0.923095 1.27737 0
M  V30 7206 C 620.735 -1.48626 1.12993 0
M  V30 7207 C 621.086 -1.94142 -0.283439 0
M  V30 7208 O 620.211 -1.81605 -1.17681 0
M  V30 7209 C 620.806 -2.70117 2.04505 0
M  V30 7210 C 619.365 -3.22642 1.93853 0
M  V30 7211 C 618.512 -1.95368 1.96791 0
M  V30 7212 H 621.463 -0.736737 1.40563 0
M  V30 7213 H 621.484 -3.4506 1.60356 0
M  V30 7214 H 620.996 -2.36959 3.07363 0
M  V30 7215 H 619.097 -3.60549 0.939968 0
M  V30 7216 H 619.21 -3.88525 2.80331 0
M  V30 7217 H 617.574 -2.12061 1.41076 0
M  V30 7218 H 618.357 -1.64517 3.01312 0
M  V30 7219 N 620.802 -1.09834 -1.13024 0
M  V30 7220 C 622.049 -0.83695 -1.84395 0
M  V30 7221 C 622.377 0.637463 -1.83757 0
M  V30 7222 O 621.632 1.48554 -1.27398 0
M  V30 7223 C 621.931 -1.32263 -3.32026 0
M  V30 7224 C 621.597 -2.80739 -3.52841 0
M  V30 7225 C 620.259 -3.21286 -3.5823 0
M  V30 7226 C 622.611 -3.76449 -3.60466 0
M  V30 7227 C 619.939 -4.56308 -3.68781 0
M  V30 7228 C 622.291 -5.11266 -3.72546 0
M  V30 7229 C 620.955 -5.51397 -3.76189 0
M  V30 7230 H 620.225 -0.306262 -0.674748 0
M  V30 7231 H 622.872 -1.37385 -1.33408 0
M  V30 7232 H 621.177 -0.705618 -3.85394 0
M  V30 7233 H 622.874 -1.09695 -3.85705 0
M  V30 7234 H 619.464 -2.48363 -3.49305 0
M  V30 7235 H 623.648 -3.46234 -3.55578 0
M  V30 7236 H 618.904 -4.86832 -3.69871 0
M  V30 7237 H 623.078 -5.85279 -3.77388 0
M  V30 7238 H 620.705 -6.56017 -3.84117 0
M  V30 7239 N 622.28 1.30327 -0.886154 0
M  V30 7240 C 623.557 1.90922 -0.425217 0
M  V30 7241 C 623.937 1.80533 1.09413 0
M  V30 7242 O 623.285 1.2233 1.92996 0
M  V30 7243 C 623.495 3.36529 -0.924638 0
M  V30 7244 C 624.843 4.13598 -0.960305 0
M  V30 7245 O 625.867 3.45377 -0.871382 0
M  V30 7246 O 624.726 5.35482 -1.09184 0
M  V30 7247 H 621.82 0.81668 -0.130238 0
M  V30 7248 H 624.366 1.38886 -0.975132 0
M  V30 7249 H 623.138 3.38181 -1.96849 0
M  V30 7250 H 622.761 3.96021 -0.353955 0
M  V30 7251 N 623.758 0.647228 1.43697 0
M  V30 7252 C 624.721 -0.0385101 2.29168 0
M  V30 7253 C 625.721 -0.756487 1.41894 0
M  V30 7254 O 626.911 -0.598641 1.63591 0
M  V30 7255 C 624.043 -1.06524 3.23829 0
M  V30 7256 H 625.236 0.713445 2.9129 0
M  V30 7257 H 622.789 0.408153 1.50877 0
M  V30 7258 H 623.524 -1.84664 2.66589 0
M  V30 7259 H 623.309 -0.554147 3.88164 0
M  V30 7260 H 624.799 -1.54432 3.87996 0
M  V30 7261 N 625.236 -1.5273 0.388769 0
M  V30 7262 C 626.482 -2.02545 -0.186351 0
M  V30 7263 C 626.837 -1.27017 -1.44514 0
M  V30 7264 O 626.13 -0.361948 -1.8815 0
M  V30 7265 C 626.324 -3.53765 -0.508445 0
M  V30 7266 C 626.153 -4.43938 0.71758 0
M  V30 7267 C 624.923 -4.89933 1.23668 0
M  V30 7268 C 627.121 -4.89113 1.58974 0
M  V30 7269 N 625.103 -5.64176 2.42031 0
M  V30 7270 C 626.474 -5.61931 2.61979 0
M  V30 7271 C 628.529 -4.71155 1.60989 0
M  V30 7272 C 627.232 -6.18698 3.66886 0
M  V30 7273 C 629.258 -5.28804 2.64803 0
M  V30 7274 C 628.62 -6.01527 3.6653 0
M  V30 7275 H 624.719 -0.781413 -0.0302921 0
M  V30 7276 H 627.303 -1.87104 0.538539 0
M  V30 7277 H 625.474 -3.6932 -1.20239 0
M  V30 7278 H 627.206 -3.9028 -1.07067 0
M  V30 7279 H 623.961 -4.66833 0.797763 0
M  V30 7280 H 624.385 -6.05949 3.01919 0
M  V30 7281 H 629.027 -4.14435 0.836881 0
M  V30 7282 H 626.745 -6.74501 4.45055 0
M  V30 7283 H 630.331 -5.1679 2.67245 0
M  V30 7284 H 629.211 -6.45339 4.45542 0
M  V30 7285 N 626.714 -0.118576 -1.57153 0
M  V30 7286 C 627.662 0.849114 -2.16547 0
M  V30 7287 C 628.656 1.27567 -1.11458 0
M  V30 7288 O 629.862 1.24746 -1.29763 0
M  V30 7289 H 626.237 0.291935 -0.693021 0
M  V30 7290 H 628.208 0.323693 -2.96639 0
M  V30 7291 C 626.957 2.08951 -2.77912 0
M  V30 7292 H 626.28 1.77021 -3.58474 0
M  V30 7293 H 627.72 2.74666 -3.23008 0
M  V30 7294 C 626.179 2.87899 -1.74974 0
M  V30 7295 O 626.709 3.83268 -1.20285 0
M  V30 7296 N 624.915 2.51884 -1.44924 0
M  V30 7297 H 624.462 1.74397 -1.89587 0
M  V30 7298 H 624.42 3.05003 -0.762921 0
M  V30 7299 N 628.193 1.56834 0.155195 0
M  V30 7300 C 629.14 1.97646 1.19184 0
M  V30 7301 C 630.11 0.842788 1.4313 0
M  V30 7302 O 631.295 1.1042 1.55602 0
M  V30 7303 C 628.435 2.35527 2.52232 0
M  V30 7304 C 627.548 3.62147 2.35529 0
M  V30 7305 C 626.683 3.89167 3.61555 0
M  V30 7306 C 625.722 5.09084 3.39853 0
M  V30 7307 N 624.859 5.32156 4.5799 0
M  V30 7308 H 629.699 2.8601 0.836802 0
M  V30 7309 H 627.236 1.41507 0.401758 0
M  V30 7310 H 629.194 2.55516 3.29799 0
M  V30 7311 H 627.824 1.50253 2.85699 0
M  V30 7312 H 626.876 3.4998 1.49057 0
M  V30 7313 H 628.188 4.49871 2.15448 0
M  V30 7314 H 627.342 4.09611 4.47553 0
M  V30 7315 H 626.081 2.9985 3.84632 0
M  V30 7316 H 625.086 4.88522 2.52243 0
M  V30 7317 H 626.311 5.99947 3.18183 0
M  V30 7318 H 624.257 4.45791 4.81255 0
M  V30 7319 H 624.174 6.14133 4.40882 0
M  V30 7320 H 625.442 5.57091 5.45225 0
M  V30 7321 N 629.671 -0.424282 1.51781 0
M  V30 7322 C 630.581 -1.54087 1.76902 0
M  V30 7323 C 631.597 -1.61249 0.653826 0
M  V30 7324 O 632.773 -1.78247 0.937552 0
M  V30 7325 C 629.838 -2.8996 1.90063 0
M  V30 7326 C 628.899 -2.92809 3.13945 0
M  V30 7327 C 628.132 -4.22201 3.26469 0
M  V30 7328 O 628.355 -5.15286 2.44616 0
M  V30 7329 O 627.289 -4.31599 4.1953 0
M  V30 7330 H 631.115 -1.358 2.71647 0
M  V30 7331 H 628.7 -0.608618 1.36441 0
M  V30 7332 H 630.582 -3.70575 2.0063 0
M  V30 7333 H 629.257 -3.08347 0.985067 0
M  V30 7334 H 628.164 -2.11102 3.08847 0
M  V30 7335 H 629.497 -2.79369 4.05233 0
M  V30 7336 N 631.149 -1.42148 -0.680565 0
M  V30 7337 C 632.081 -1.41119 -1.80605 0
M  V30 7338 C 633.094 -0.311099 -1.598 0
M  V30 7339 O 634.283 -0.573813 -1.69026 0
M  V30 7340 C 631.383 -1.18204 -3.17618 0
M  V30 7341 C 630.556 -2.40537 -3.65322 0
M  V30 7342 C 629.615 -2.13254 -4.8105 0
M  V30 7343 O 628.641 -2.8641 -4.91892 0
M  V30 7344 N 629.843 -1.13208 -5.69354 0
M  V30 7345 H 632.608 -2.38128 -1.81975 0
M  V30 7346 H 630.169 -1.36953 -0.863446 0
M  V30 7347 H 632.161 -0.97878 -3.92686 0
M  V30 7348 H 630.731 -0.29738 -3.11182 0
M  V30 7349 H 629.951 -2.76468 -2.80996 0
M  V30 7350 H 631.239 -3.22012 -3.93936 0
M  V30 7351 H 630.637 -0.526893 -5.63241 0
M  V30 7352 H 629.194 -0.988699 -6.44258 0
M  V30 7353 N 632.627 0.916307 -1.28225 0
M  V30 7354 C 633.904 1.64429 -1.05936 0
M  V30 7355 C 634.284 2.07234 0.402139 0
M  V30 7356 O 633.632 1.81535 1.3877 0
M  V30 7357 C 633.842 2.83773 -2.03159 0
M  V30 7358 C 635.19 3.54852 -2.33164 0
M  V30 7359 O 636.214 2.93918 -2.01223 0
M  V30 7360 O 635.073 4.64663 -2.87664 0
M  V30 7361 H 632.167 0.721221 -0.404683 0
M  V30 7362 H 634.713 0.965838 -1.39534 0
M  V30 7363 H 633.485 2.49217 -3.01673 0
M  V30 7364 H 633.108 3.59333 -1.70192 0
M  V30 7365 N 634.105 1.10431 1.1244 0
M  V30 7366 C 635.035 0.775143 2.20258 0
M  V30 7367 C 636.016 -0.25186 1.68225 0
M  V30 7368 O 637.201 -0.117637 1.93843 0
M  V30 7369 C 634.331 0.206133 3.46688 0
M  V30 7370 C 633.285 1.16382 4.11873 0
M  V30 7371 C 632.611 0.456014 5.32752 0
M  V30 7372 C 633.911 2.5104 4.58013 0
M  V30 7373 H 635.605 1.67665 2.4805 0
M  V30 7374 H 633.151 0.807595 1.19222 0
M  V30 7375 H 635.104 -0.036291 4.21384 0
M  V30 7376 H 633.828 -0.730614 3.18323 0
M  V30 7377 H 632.487 1.39169 3.39157 0
M  V30 7378 H 632.135 -0.485203 5.00654 0
M  V30 7379 H 631.835 1.09466 5.77314 0
M  V30 7380 H 633.359 0.222135 6.10196 0
M  V30 7381 H 634.773 2.32401 5.24083 0
M  V30 7382 H 633.17 3.10789 5.13352 0
M  V30 7383 H 634.24 3.11039 3.71998 0
M  V30 7384 N 635.583 -1.29855 0.893053 0
M  V30 7385 C 636.531 -2.29867 0.355512 0
M  V30 7386 C 637.525 -1.60502 -0.541801 0
M  V30 7387 O 638.731 -1.74902 -0.425339 0
M  V30 7388 H 635.106 -0.745805 0.0963247 0
M  V30 7389 H 637.077 -2.72655 1.21252 0
M  V30 7390 C 635.826 -3.453 -0.407801 0
M  V30 7391 H 635.149 -3.98864 0.273426 0
M  V30 7392 H 636.589 -4.17334 -0.748887 0
M  V30 7393 C 635.048 -2.96051 -1.60795 0
M  V30 7394 O 635.578 -2.96763 -2.7073 0
M  V30 7395 N 633.784 -2.51963 -1.44786 0
M  V30 7396 H 633.331 -2.51583 -0.553498 0
M  V30 7397 H 633.289 -2.1937 -2.2522 0
M  V30 7398 N 637.061 -0.65484 -1.43351 0
M  V30 7399 C 638.289 -0.176685 -2.06144 0
M  V30 7400 C 638.704 1.15831 -1.49093 0
M  V30 7401 O 638.061 1.71542 -0.622868 0
M  V30 7402 C 638.112 -0.0813326 -3.61408 0
M  V30 7403 O 637.833 -1.36355 -4.1634 0
M  V30 7404 C 639.334 0.422706 -4.4128 0
M  V30 7405 H 636.554 -0.0906429 -0.66485 0
M  V30 7406 H 639.098 -0.895945 -1.83829 0
M  V30 7407 H 637.253 0.588496 -3.82904 0
M  V30 7408 H 637.667 -1.22381 -5.10023 0
M  V30 7409 H 639.141 0.438375 -5.50257 0
M  V30 7410 H 639.618 1.45432 -4.14423 0
M  V30 7411 H 640.224 -0.214687 -4.24758 0
M  V30 7412 N 638.539 1.52521 -0.396863 0
M  V30 7413 C 639.502 2.2527 0.422604 0
M  V30 7414 C 640.502 1.27184 0.983913 0
M  V30 7415 O 641.692 1.51222 0.864723 0
M  V30 7416 C 638.824 3.01356 1.59365 0
M  V30 7417 H 640.017 2.99133 -0.214416 0
M  V30 7418 H 637.57 1.55587 -0.149128 0
M  V30 7419 H 638.305 2.31813 2.26789 0
M  V30 7420 H 638.09 3.73357 1.19779 0
M  V30 7421 H 639.58 3.56571 2.17363 0
M  V30 7422 N 640.017 0.126909 1.57088 0
M  V30 7423 C 640.95 -0.857844 2.11462 0
M  V30 7424 C 641.928 -1.25569 1.03301 0
M  V30 7425 O 643.112 -1.35535 1.31006 0
M  V30 7426 C 640.239 -2.14912 2.61784 0
M  V30 7427 C 639.285 -1.89874 3.81903 0
M  V30 7428 S 640.118 -1.10785 5.23915 0
M  V30 7429 C 641.274 -2.41075 5.7761 0
M  V30 7430 H 641.507 -0.395384 2.94659 0
M  V30 7431 H 639.04 -0.0870151 1.54155 0
M  V30 7432 H 640.998 -2.89101 2.91429 0
M  V30 7433 H 639.659 -2.58275 1.78754 0
M  V30 7434 H 638.852 -2.85572 4.15289 0
M  V30 7435 H 638.454 -1.23802 3.52915 0
M  V30 7436 H 640.746 -3.36864 5.87817 0
M  V30 7437 H 641.689 -2.12223 6.75549 0
M  V30 7438 H 642.097 -2.50804 5.05725 0
M  V30 7439 N 641.495 -1.56914 -0.146875 0
M  V30 7440 C 642.427 -1.94878 -1.20645 0
M  V30 7441 C 643.44 -0.844633 -1.39175 0
M  V30 7442 O 644.629 -1.12304 -1.38744 0
M  V30 7443 C 641.729 -2.20769 -2.57127 0
M  V30 7444 C 640.902 -3.52053 -2.59572 0
M  V30 7445 C 639.961 -3.66482 -3.77594 0
M  V30 7446 O 638.987 -4.38873 -3.62462 0
M  V30 7447 N 640.189 -3.03156 -4.95052 0
M  V30 7448 H 642.954 -2.86374 -0.883757 0
M  V30 7449 H 640.515 -1.58366 -0.336436 0
M  V30 7450 H 642.507 -2.27664 -3.34591 0
M  V30 7451 H 641.077 -1.35538 -2.81688 0
M  V30 7452 H 640.297 -3.56598 -1.68023 0
M  V30 7453 H 641.585 -4.38396 -2.58238 0
M  V30 7454 H 640.983 -2.44258 -5.10249 0
M  V30 7455 H 639.54 -3.15611 -5.70292 0
M  V30 7456 N 642.974 0.416227 -1.52004 0
M  V30 7457 C 643.922 1.5272 -1.7544 0
M  V30 7458 C 644.916 1.57596 -0.621289 0
M  V30 7459 O 646.122 1.61087 -0.803172 0
M  V30 7460 H 642.497 0.507772 -0.554682 0
M  V30 7461 H 644.468 1.30136 -2.68528 0
M  V30 7462 C 643.217 2.90165 -1.91571 0
M  V30 7463 H 642.54 2.87154 -2.78178 0
M  V30 7464 H 643.98 3.67211 -2.11972 0
M  V30 7465 C 642.439 3.29947 -0.680942 0
M  V30 7466 O 642.969 4.01403 0.154527 0
M  V30 7467 N 641.175 2.8593 -0.518894 0
M  V30 7468 H 640.722 2.2795 -1.19986 0
M  V30 7469 H 640.68 3.12907 0.305985 0
M  V30 7470 N 644.452 1.42507 0.673017 0
M  V30 7471 C 645.677 1.4668 1.46627 0
M  V30 7472 C 646.102 0.080066 1.8793 0
M  V30 7473 O 645.46 -0.921879 1.56112 0
M  V30 7474 C 645.508 2.40091 2.69051 0
M  V30 7475 O 644.612 1.8735 3.67387 0
M  V30 7476 H 643.953 0.496908 0.44043 0
M  V30 7477 H 646.483 1.87215 0.825334 0
M  V30 7478 H 646.493 2.56731 3.17101 0
M  V30 7479 H 645.168 3.4084 2.3833 0
M  V30 7480 H 643.745 1.80274 3.26429 0
M  V30 7481 N 645.93 -0.909495 1.28709 0
M  V30 7482 C 647.176 -1.66151 1.16283 0
M  V30 7483 C 647.509 -1.92067 -0.287069 0
M  V30 7484 O 646.784 -1.52409 -1.20837 0
M  V30 7485 C 647.067 -3.01676 1.9663 0
M  V30 7486 C 646.92 -2.82888 3.49707 0
M  V30 7487 C 648.239 -4.02274 1.78504 0
M  V30 7488 H 645.358 -0.602966 0.423793 0
M  V30 7489 H 648 -1.05418 1.58073 0
M  V30 7490 H 646.15 -3.53515 1.61119 0
M  V30 7491 H 647.822 -2.38026 3.95147 0
M  V30 7492 H 646.065 -2.17862 3.75125 0
M  V30 7493 H 646.736 -3.79147 4.01187 0
M  V30 7494 H 649.212 -3.59511 2.09503 0
M  V30 7495 H 648.088 -4.95056 2.37088 0
M  V30 7496 H 648.349 -4.35903 0.737647 0
M  V30 7497 N 647.408 -1.11026 -1.11852 0
M  V30 7498 C 648.356 -0.759643 -2.19846 0
M  V30 7499 C 649.35 0.246964 -1.6759 0
M  V30 7500 O 650.556 0.106693 -1.79684 0
M  V30 7501 H 646.931 -0.22775 -0.716683 0
M  V30 7502 H 648.902 -1.6792 -2.46669 0
M  V30 7503 C 647.651 -0.214364 -3.47039 0
M  V30 7504 H 646.974 -0.980175 -3.87599 0
M  V30 7505 H 648.414 -0.00717047 -4.23999 0
M  V30 7506 C 646.873 1.05436 -3.19976 0
M  V30 7507 O 647.403 2.13483 -3.40276 0
M  V30 7508 N 645.609 0.975436 -2.7374 0
M  V30 7509 H 645.156 0.0960853 -2.57421 0
M  V30 7510 H 645.114 1.82501 -2.5601 0
M  V30 7511 N 648.886 1.2938 -0.899927 0
M  V30 7512 C 650.132 1.96206 -0.536153 0
M  V30 7513 C 650.487 1.69647 0.90761 0
M  V30 7514 O 649.78 0.999089 1.63489 0
M  V30 7515 C 649.974 3.49114 -0.765113 0
M  V30 7516 C 649.803 3.90538 -2.22958 0
M  V30 7517 C 648.573 4.15395 -2.87706 0
M  V30 7518 C 650.771 4.0224 -3.20479 0
M  V30 7519 N 648.753 4.43389 -4.24593 0
M  V30 7520 C 650.124 4.34288 -4.42486 0
M  V30 7521 C 652.179 3.84716 -3.16066 0
M  V30 7522 C 650.882 4.50638 -5.6064 0
M  V30 7523 C 652.908 4.02276 -4.33507 0
M  V30 7524 C 652.27 4.34684 -5.54283 0
M  V30 7525 H 648.369 0.742364 -0.245804 0
M  V30 7526 H 650.953 1.56314 -1.16078 0
M  V30 7527 H 649.124 3.88028 -0.169861 0
M  V30 7528 H 650.856 4.03035 -0.366751 0
M  V30 7529 H 647.611 4.09164 -2.385 0
M  V30 7530 H 648.035 4.61494 -4.95331 0
M  V30 7531 H 652.677 3.58724 -2.23778 0
M  V30 7532 H 650.395 4.75467 -6.5342 0
M  V30 7533 H 653.981 3.90169 -4.31578 0
M  V30 7534 H 652.861 4.47988 -6.43643 0
M  V30 7535 N 650.364 0.662433 1.43002 0
M  V30 7536 C 651.594 0.187343 2.05749 0
M  V30 7537 C 652.002 -1.15582 1.49791 0
M  V30 7538 O 651.345 -1.72651 0.627487 0
M  V30 7539 C 651.407 0.0316493 3.59486 0
M  V30 7540 C 651.071 1.30156 4.38073 0
M  V30 7541 C 652.068 2.23234 4.69535 0
M  V30 7542 C 649.753 1.54572 4.77926 0
M  V30 7543 C 651.747 3.39012 5.39768 0
M  V30 7544 C 649.434 2.70641 5.47902 0
M  V30 7545 C 650.432 3.62687 5.78746 0
M  V30 7546 O 650.12 4.76728 6.47291 0
M  V30 7547 H 649.852 0.0915214 0.669776 0
M  V30 7548 H 652.406 0.905982 1.8434 0
M  V30 7549 H 650.636 -0.742451 3.79506 0
M  V30 7550 H 652.325 -0.401977 4.03905 0
M  V30 7551 H 653.091 2.05616 4.39257 0
M  V30 7552 H 648.97 0.83804 4.53319 0
M  V30 7553 H 652.514 4.10877 5.63761 0
M  V30 7554 H 648.411 2.88189 5.77596 0
M  V30 7555 H 649.179 4.76113 6.65777 0
M  V30 7556 N 651.842 -1.52309 0.404946 0
M  V30 7557 C 653.089 -2.01767 -0.1722 0
M  V30 7558 C 653.417 -1.29075 -1.45498 0
M  V30 7559 O 652.672 -0.3843 -1.9189 0
M  V30 7560 C 652.971 -3.54284 -0.470895 0
M  V30 7561 C 652.637 -4.45079 0.722194 0
M  V30 7562 C 651.299 -4.69617 1.04946 0
M  V30 7563 C 653.651 -4.98555 1.51962 0
M  V30 7564 C 650.979 -5.44878 2.17543 0
M  V30 7565 C 653.331 -5.75049 2.63632 0
M  V30 7566 C 651.995 -5.9786 2.9685 0
M  V30 7567 H 651.265 -0.738316 -0.0630125 0
M  V30 7568 H 653.912 -1.83566 0.545506 0
M  V30 7569 H 652.217 -3.70642 -1.27012 0
M  V30 7570 H 653.914 -3.90058 -0.930346 0
M  V30 7571 H 650.504 -4.26155 0.457131 0
M  V30 7572 H 654.688 -4.79509 1.28002 0
M  V30 7573 H 649.944 -5.60762 2.43631 0
M  V30 7574 H 654.118 -6.15483 3.25813 0
M  V30 7575 H 651.745 -6.5596 3.84215 0
M  V30 7576 N 653.32 -0.135238 -1.57019 0
M  V30 7577 C 654.23 0.822226 -2.19719 0
M  V30 7578 C 655.246 1.28057 -1.17802 0
M  V30 7579 O 656.422 1.3402 -1.50335 0
M  V30 7580 C 653.487 2.0484 -2.79717 0
M  V30 7581 C 652.548 1.64042 -3.96723 0
M  V30 7582 C 651.781 2.80814 -4.53849 0
M  V30 7583 O 652.004 3.967 -4.0986 0
M  V30 7584 O 650.938 2.56963 -5.44292 0
M  V30 7585 H 654.764 0.318552 -3.02025 0
M  V30 7586 H 652.349 0.0912021 -1.49121 0
M  V30 7587 H 654.231 2.76622 -3.17897 0
M  V30 7588 H 652.906 2.54182 -2.00432 0
M  V30 7589 H 651.813 0.893182 -3.63281 0
M  V30 7590 H 653.146 1.19426 -4.77492 0
M  V30 7591 N 654.798 1.5699 0.138552 0
M  V30 7592 C 656.214 1.51844 0.491472 0
M  V30 7593 C 656.414 0.845063 1.82923 0
M  V30 7594 O 655.47 0.419143 2.48997 0
M  V30 7595 C 656.783 2.96615 0.493987 0
M  V30 7596 C 658.331 3.076 0.578913 0
M  V30 7597 C 658.806 4.53893 0.612009 0
M  V30 7598 N 660.297 4.5827 0.673997 0
M  V30 7599 C 661.032 5.68852 0.720729 0
M  V30 7600 N 660.528 6.88982 0.726292 0
M  V30 7601 N 662.321 5.56908 0.762253 0
M  V30 7602 H 654.472 1.99158 -0.738228 0
M  V30 7603 H 656.735 0.908693 -0.270149 0
M  V30 7604 H 656.441 3.49172 -0.420933 0
M  V30 7605 H 656.315 3.53017 1.32887 0
M  V30 7606 H 658.702 2.55057 1.48425 0
M  V30 7607 H 658.783 2.54227 -0.283286 0
M  V30 7608 H 658.427 5.07076 -0.289208 0
M  V30 7609 H 658.357 5.05057 1.49082 0
M  V30 7610 H 660.848 3.71793 0.676654 0
M  V30 7611 H 661.161 7.69014 0.764032 0
M  V30 7612 H 659.506 6.91526 0.69403 0
M  V30 7613 H 662.697 4.61969 0.755135 0
M  V30 7614 H 662.87 6.43102 0.795207 0
M  V30 7615 N 656.276 -0.40816 1.52223 0
M  V30 7616 C 657.525 -1.15212 1.65557 0
M  V30 7617 C 657.838 -1.9163 0.392096 0
M  V30 7618 O 659.044 -2.68458 0.405256 0
M  V30 7619 C 657.5 -2.09691 2.92502 0
M  V30 7620 C 657.108 -1.38785 4.25961 0
M  V30 7621 C 658.852 -2.8434 3.152 0
M  V30 7622 C 656.759 -2.31919 5.44029 0
M  V30 7623 H 655.689 -0.433776 0.616729 0
M  V30 7624 H 658.34 -0.4165 1.78711 0
M  V30 7625 H 656.722 -2.8681 2.7305 0
M  V30 7626 H 657.896 -0.670248 4.55899 0
M  V30 7627 H 656.211 -0.761741 4.09373 0
M  V30 7628 H 658.808 -3.54166 4.00587 0
M  V30 7629 H 659.151 -3.47344 2.29473 0
M  V30 7630 H 659.684 -2.14321 3.35129 0
M  V30 7631 H 656.423 -1.7356 6.32105 0
M  V30 7632 H 655.943 -3.0165 5.18428 0
M  V30 7633 H 657.622 -2.92424 5.77146 0
M  V30 7634 N 657.755 -1.42862 -0.66545 0
M  V30 7635 C 658.98 -1.47456 -1.45848 0
M  V30 7636 C 659.405 -0.0900312 -1.87884 0
M  V30 7637 O 658.763 0.913587 -1.56599 0
M  V30 7638 C 658.811 -2.41514 -2.67774 0
M  V30 7639 O 657.915 -1.89296 -3.66389 0
M  V30 7640 H 657.256 -0.499236 -0.437789 0
M  V30 7641 H 659.786 -1.8765 -0.815394 0
M  V30 7642 H 659.796 -2.58409 -3.15735 0
M  V30 7643 H 658.471 -3.42099 -2.36519 0
M  V30 7644 H 657.048 -1.82003 -3.25468 0
M  V30 7645 N 659.233 0.902656 -1.29189 0
M  V30 7646 C 660.51 1.63296 -1.07674 0
M  V30 7647 C 660.89 2.07649 0.380137 0
M  V30 7648 O 660.238 1.82997 1.36837 0
M  V30 7649 C 660.448 2.81603 -2.06158 0
M  V30 7650 C 661.796 3.52359 -2.36914 0
M  V30 7651 O 662.82 2.91767 -2.04329 0
M  V30 7652 O 661.679 4.61586 -2.92576 0
M  V30 7653 H 658.773 0.716889 -0.41231 0
M  V30 7654 H 661.319 0.950984 -1.4055 0
M  V30 7655 H 660.091 2.46004 -3.04299 0
M  V30 7656 H 659.714 3.57508 -1.73993 0
M  V30 7657 N 660.711 1.11618 1.11262 0
M  V30 7658 C 661.643 0.734015 2.17129 0
M  V30 7659 C 662.656 -0.235243 1.61091 0
M  V30 7660 O 663.845 -0.0178597 1.78491 0
M  V30 7661 C 660.945 0.0643682 3.38839 0
M  V30 7662 C 660.118 1.06092 4.24339 0
M  V30 7663 C 659.177 0.420482 5.24517 0
M  V30 7664 O 658.203 1.07495 5.58957 0
M  V30 7665 N 659.405 -0.815828 5.74739 0
M  V30 7666 H 662.17 1.64492 2.50524 0
M  V30 7667 H 659.731 1.00664 1.26801 0
M  V30 7668 H 661.723 -0.375851 4.02951 0
M  V30 7669 H 660.293 -0.749147 3.03491 0
M  V30 7670 H 659.513 1.67903 3.56654 0
M  V30 7671 H 660.801 1.73507 4.78302 0
M  V30 7672 H 660.199 -1.36668 5.48943 0
M  V30 7673 H 658.756 -1.199 6.40677 0
M  V30 7674 N 662.189 -1.289 0.906776 0
M  V30 7675 C 663.438 -1.9455 0.532262 0
M  V30 7676 C 663.751 -1.72219 -0.927353 0
M  V30 7677 O 664.957 -2.32033 -1.40971 0
M  V30 7678 C 663.413 -3.48438 0.901041 0
M  V30 7679 C 663.021 -3.79558 2.37991 0
M  V30 7680 C 664.765 -4.20284 0.596777 0
M  V30 7681 C 662.672 -5.26723 2.68918 0
M  V30 7682 H 661.602 -0.728259 0.195333 0
M  V30 7683 H 664.253 -1.46519 1.10474 0
M  V30 7684 H 662.635 -3.95162 0.257419 0
M  V30 7685 H 663.809 -3.43668 3.06967 0
M  V30 7686 H 662.124 -3.20868 2.65391 0
M  V30 7687 H 664.721 -5.28612 0.8046 0
M  V30 7688 H 665.064 -4.13694 -0.465072 0
M  V30 7689 H 665.597 -3.79315 1.19855 0
M  V30 7690 H 662.336 -5.38384 3.73928 0
M  V30 7691 H 661.856 -5.63836 2.04571 0
M  V30 7692 H 663.535 -5.94391 2.55555 0
M  V30 7693 N 663.667 -0.670007 -1.42649 0
M  V30 7694 C 665.078 -0.268118 -1.84765 0
M  V30 7695 C 665.429 1.18877 -1.56086 0
M  V30 7696 O 664.554 1.90947 -1.01825 0
M  V30 7697 C 665.149 -0.47984 -3.35385 0
M  V30 7698 C 663.708 -0.132116 -3.76168 0
M  V30 7699 C 662.855 -0.774611 -2.66261 0
M  V30 7700 H 665.806 -0.872509 -1.32563 0
M  V30 7701 H 665.827 0.269522 -3.79544 0
M  V30 7702 H 665.339 -1.54026 -3.56227 0
M  V30 7703 H 663.44 0.92505 -3.60934 0
M  V30 7704 H 663.553 -0.569294 -4.75706 0
M  V30 7705 H 661.917 -0.206353 -2.53863 0
M  V30 7706 H 662.7 -1.83839 -2.89928 0
M  V30 7707 N 665.145 1.52092 -0.413018 0
M  V30 7708 C 666.092 2.27119 0.410558 0
M  V30 7709 C 667.062 1.29692 1.03774 0
M  V30 7710 O 668.247 1.58561 1.06128 0
M  V30 7711 C 665.387 3.09863 1.51918 0
M  V30 7712 C 664.5 4.22252 0.912528 0
M  V30 7713 C 663.635 4.92348 1.99417 0
M  V30 7714 C 662.674 5.96694 1.36466 0
M  V30 7715 N 661.811 6.60292 2.38661 0
M  V30 7716 H 666.651 2.97067 -0.235661 0
M  V30 7717 H 664.188 1.46542 -0.128055 0
M  V30 7718 H 666.146 3.56144 2.17295 0
M  V30 7719 H 664.776 2.42078 2.13537 0
M  V30 7720 H 663.828 3.80113 0.147697 0
M  V30 7721 H 665.14 4.9709 0.412717 0
M  V30 7722 H 664.294 5.42054 2.72512 0
M  V30 7723 H 663.033 4.17087 2.52764 0
M  V30 7724 H 662.038 5.46304 0.61906 0
M  V30 7725 H 663.263 6.73899 0.838827 0
M  V30 7726 H 661.209 5.87858 2.91134 0
M  V30 7727 H 661.126 7.30816 1.93503 0
M  V30 7728 H 662.394 7.14635 3.11314 0
M  V30 7729 N 666.623 0.143563 1.56945 0
M  V30 7730 C 667.571 -0.814556 2.17871 0
M  V30 7731 C 668.565 -1.25778 1.13474 0
M  V30 7732 O 669.771 -1.22666 1.31731 0
M  V30 7733 H 666.146 -0.280873 0.697578 0
M  V30 7734 H 668.117 -0.276459 2.97117 0
M  V30 7735 C 666.866 -2.04503 2.81201 0
M  V30 7736 H 666.189 -1.71296 3.61245 0
M  V30 7737 H 667.629 -2.69493 3.27337 0
M  V30 7738 C 666.088 -2.85079 1.79532 0
M  V30 7739 O 666.618 -3.81306 1.26368 0
M  V30 7740 N 664.824 -2.49546 1.48913 0
M  V30 7741 H 664.371 -1.71359 1.92338 0
M  V30 7742 H 664.329 -3.03751 0.811348 0
M  V30 7743 N 668.101 -1.57061 -0.130224 0
M  V30 7744 C 669.331 -1.88159 -0.853217 0
M  V30 7745 C 669.739 -0.731675 -1.7448 0
M  V30 7746 O 669.082 0.307035 -1.81116 0
M  V30 7747 C 669.144 -3.1415 -1.74785 0
M  V30 7748 C 668.808 -4.45202 -1.03173 0
M  V30 7749 C 669.805 -5.18526 -0.377759 0
M  V30 7750 C 667.49 -4.91912 -1.01624 0
M  V30 7751 C 669.484 -6.36775 0.282123 0
M  V30 7752 C 667.171 -6.10082 -0.352555 0
M  V30 7753 C 668.169 -6.82361 0.295483 0
M  V30 7754 O 667.857 -7.98284 0.948606 0
M  V30 7755 H 667.589 -0.627596 -0.251197 0
M  V30 7756 H 670.143 -2.05034 -0.1226 0
M  V30 7757 H 668.373 -2.93328 -2.51983 0
M  V30 7758 H 670.062 -3.31359 -2.34427 0
M  V30 7759 H 670.828 -4.83498 -0.381417 0
M  V30 7760 H 666.707 -4.35566 -1.51007 0
M  V30 7761 H 670.251 -6.93129 0.788525 0
M  V30 7762 H 666.148 -6.44569 -0.346621 0
M  V30 7763 H 666.916 -8.14054 0.851954 0
M  V30 7764 N 669.579 0.400081 -1.52437 0
M  V30 7765 C 670.807 1.16768 -1.70801 0
M  V30 7766 C 671.222 1.84036 -0.421462 0
M  V30 7767 O 670.579 1.72242 0.603228 0
M  V30 7768 C 670.63 2.22403 -2.8499 0
M  V30 7769 O 670.351 1.57879 -4.08663 0
M  V30 7770 C 671.852 3.11974 -3.1494 0
M  V30 7771 H 669.072 0.350533 -0.57216 0
M  V30 7772 H 671.616 0.469534 -1.99037 0
M  V30 7773 H 669.771 2.87871 -2.59247 0
M  V30 7774 H 670.185 2.27982 -4.7236 0
M  V30 7775 H 671.659 3.82148 -3.9833 0
M  V30 7776 H 672.136 3.74858 -2.28863 0
M  V30 7777 H 672.742 2.52165 -3.42481 0
M  V30 7778 N 671.057 1.43213 0.657864 0
M  V30 7779 C 672.02 1.47687 1.75275 0
M  V30 7780 C 673.02 0.362179 1.56668 0
M  V30 7781 O 674.21 0.623734 1.62651 0
M  V30 7782 C 671.342 1.32497 3.14098 0
M  V30 7783 H 672.535 2.4519 1.7269 0
M  V30 7784 H 670.088 1.2991 0.869087 0
M  V30 7785 H 670.823 0.359831 3.22298 0
M  V30 7786 H 670.608 2.13299 3.29008 0
M  V30 7787 H 672.098 1.38549 3.93946 0
M  V30 7788 N 672.536 -0.895792 1.29666 0
M  V30 7789 C 673.764 -1.68001 1.20761 0
M  V30 7790 C 674.179 -1.87379 -0.231187 0
M  V30 7791 O 673.536 -1.41359 -1.15429 0
M  V30 7792 C 673.587 -3.06236 1.92098 0
M  V30 7793 O 673.308 -2.8774 3.30359 0
M  V30 7794 C 674.809 -4.00652 1.89717 0
M  V30 7795 H 672.029 -0.524591 0.418384 0
M  V30 7796 H 674.573 -1.11995 1.71106 0
M  V30 7797 H 672.728 -3.59007 1.45578 0
M  V30 7798 H 673.142 -3.75359 3.66342 0
M  V30 7799 H 674.616 -4.95051 2.44189 0
M  V30 7800 H 675.093 -4.30424 0.873595 0
M  V30 7801 H 675.699 -3.53815 2.35998 0
M  V30 7802 N 674.014 -1.12206 -1.10668 0
M  V30 7803 C 674.946 -0.74552 -2.16736 0
M  V30 7804 C 675.959 0.226696 -1.61214 0
M  V30 7805 O 677.148 0.0083936 -1.78498 0
M  V30 7806 C 674.248 -0.0823368 -3.388 0
M  V30 7807 C 673.421 -1.08341 -4.2377 0
M  V30 7808 C 672.48 -0.448292 -5.24287 0
M  V30 7809 O 671.506 -1.10458 -5.58379 0
M  V30 7810 N 672.708 0.785336 -5.75163 0
M  V30 7811 H 675.473 -1.65818 -2.49649 0
M  V30 7812 H 673.034 -1.01335 -1.26265 0
M  V30 7813 H 675.026 0.354476 -4.03145 0
M  V30 7814 H 673.596 0.733041 -3.03884 0
M  V30 7815 H 672.816 -1.69792 -3.55759 0
M  V30 7816 H 674.104 -1.76042 -4.77375 0
M  V30 7817 H 673.502 1.33755 -5.4966 0
M  V30 7818 H 672.059 1.16501 -6.41304 0
M  V30 7819 N 675.492 1.28418 -0.913599 0
M  V30 7820 C 676.422 2.29713 -0.418847 0
M  V30 7821 C 677.403 1.62165 0.513469 0
M  V30 7822 O 678.588 1.89576 0.421235 0
M  V30 7823 C 675.718 3.45612 0.342042 0
M  V30 7824 C 674.672 4.25056 -0.501123 0
M  V30 7825 C 673.998 5.3329 0.388097 0
M  V30 7826 C 675.298 4.91814 -1.75831 0
M  V30 7827 H 676.992 2.71346 -1.26538 0
M  V30 7828 H 674.538 1.30446 -0.609903 0
M  V30 7829 H 676.491 4.15562 0.699 0
M  V30 7830 H 675.215 3.02858 1.22248 0
M  V30 7831 H 673.874 3.56833 -0.840598 0
M  V30 7832 H 673.522 4.8678 1.26707 0
M  V30 7833 H 673.222 5.87347 -0.172459 0
M  V30 7834 H 674.746 6.06088 0.74094 0
M  V30 7835 H 676.16 5.54126 -1.47026 0
M  V30 7836 H 674.557 5.55866 -2.26126 0
M  V30 7837 H 675.627 4.16313 -2.4862 0
M  V30 7838 N 676.97 0.677563 1.42291 0
M  V30 7839 C 677.917 0.000947061 2.308 0
M  V30 7840 C 678.887 -0.789889 1.46116 0
M  V30 7841 O 680.072 -0.761578 1.74942 0
M  V30 7842 C 677.212 -0.942387 3.31984 0
M  V30 7843 C 676.325 -0.14508 4.31756 0
M  V30 7844 C 675.46 -1.08442 5.20013 0
M  V30 7845 C 674.499 -0.278958 6.11464 0
M  V30 7846 N 673.636 -1.17115 6.92263 0
M  V30 7847 H 678.476 0.761521 2.88106 0
M  V30 7848 H 676.013 0.38727 1.41911 0
M  V30 7849 H 677.971 -1.50317 3.89179 0
M  V30 7850 H 676.601 -1.66956 2.76271 0
M  V30 7851 H 675.653 0.532368 3.76656 0
M  V30 7852 H 676.965 0.48015 4.96484 0
M  V30 7853 H 676.119 -1.71504 5.81955 0
M  V30 7854 H 674.858 -1.74353 4.55469 0
M  V30 7855 H 673.863 0.364856 5.48588 0
M  V30 7856 H 675.088 0.376099 6.78058 0
M  V30 7857 H 673.034 -1.81661 6.30345 0
M  V30 7858 H 672.951 -0.601063 7.53607 0
M  V30 7859 H 674.219 -1.78915 7.58689 0
M  V30 7860 N 678.448 -1.51871 0.421078 0
M  V30 7861 C 679.38 -2.25052 -0.434065 0
M  V30 7862 C 680.393 -1.28458 -1.00013 0
M  V30 7863 O 681.582 -1.54323 -0.897033 0
M  V30 7864 C 678.682 -2.97813 -1.61743 0
M  V30 7865 C 677.855 -4.21374 -1.17315 0
M  V30 7866 C 676.914 -4.76854 -2.22478 0
M  V30 7867 O 675.94 -5.39123 -1.82577 0
M  V30 7868 N 677.142 -4.59467 -3.54782 0
M  V30 7869 H 679.907 -2.99077 0.193073 0
M  V30 7870 H 677.468 -1.59972 0.249088 0
M  V30 7871 H 679.46 -3.3182 -2.31685 0
M  V30 7872 H 678.03 -2.26899 -2.15024 0
M  V30 7873 H 677.25 -3.93046 -0.3014 0
M  V30 7874 H 678.538 -5.01591 -0.853444 0
M  V30 7875 H 677.936 -4.09832 -3.89941 0
M  V30 7876 H 676.493 -4.9788 -4.20665 0
M  V30 7877 N 679.926 -0.151884 -1.56866 0
M  V30 7878 C 680.856 0.781943 -2.20018 0
M  V30 7879 C 681.837 1.25347 -1.14987 0
M  V30 7880 O 683.022 1.31015 -1.43348 0
M  V30 7881 C 680.152 2.01928 -2.82564 0
M  V30 7882 C 679.106 1.68434 -3.93464 0
M  V30 7883 C 678.432 2.99472 -4.42968 0
M  V30 7884 C 679.732 0.927244 -5.14003 0
M  V30 7885 H 681.426 0.255607 -2.98307 0
M  V30 7886 H 678.972 0.121502 -1.43486 0
M  V30 7887 H 680.925 2.67741 -3.25411 0
M  V30 7888 H 679.649 2.56943 -2.01614 0
M  V30 7889 H 678.308 1.04998 -3.51242 0
M  V30 7890 H 677.956 3.52488 -3.58834 0
M  V30 7891 H 677.656 2.77823 -5.17772 0
M  V30 7892 H 679.18 3.66348 -4.88489 0
M  V30 7893 H 680.594 1.48756 -5.53665 0
M  V30 7894 H 678.991 0.810513 -5.94601 0
M  V30 7895 H 680.061 -0.0801163 -4.84834 0
M  V30 7896 N 681.404 1.57128 0.121893 0
M  V30 7897 C 682.352 2.01109 1.16868 0
M  V30 7898 C 683.346 0.907532 1.43039 0
M  V30 7899 O 684.552 1.09274 1.43036 0
M  V30 7900 H 680.927 0.640539 0.393971 0
M  V30 7901 H 682.898 2.88261 0.771224 0
M  V30 7902 C 681.647 2.42887 2.48799 0
M  V30 7903 H 680.97 3.2737 2.29498 0
M  V30 7904 H 682.41 2.77461 3.20611 0
M  V30 7905 C 680.869 1.29137 3.11168 0
M  V30 7906 O 681.399 0.605756 3.97106 0
M  V30 7907 N 679.605 1.04916 2.71 0
M  V30 7908 H 679.152 1.60848 2.01211 0
M  V30 7909 H 679.11 0.290016 3.1306 0
M  V30 7910 N 682.882 -0.391992 1.52647 0
M  V30 7911 C 684.112 -1.15692 1.71169 0
M  V30 7912 C 684.52 -1.84285 0.428444 0
M  V30 7913 O 683.863 -1.73393 -0.606669 0
M  V30 7914 C 683.925 -2.25033 2.80357 0
M  V30 7915 C 683.589 -1.76433 4.21569 0
M  V30 7916 C 684.586 -1.2427 5.0483 0
M  V30 7917 C 682.271 -1.82746 4.67877 0
M  V30 7918 C 684.265 -0.790657 6.32477 0
M  V30 7919 C 681.952 -1.37153 5.9551 0
M  V30 7920 C 682.95 -0.853997 6.7764 0
M  V30 7921 O 682.638 -0.404708 8.02881 0
M  V30 7922 H 682.37 -0.35297 0.576531 0
M  V30 7923 H 684.924 -0.464994 2.00067 0
M  V30 7924 H 683.154 -2.97641 2.46874 0
M  V30 7925 H 684.843 -2.86718 2.87311 0
M  V30 7926 H 685.609 -1.18752 4.70237 0
M  V30 7927 H 681.488 -2.21971 4.04042 0
M  V30 7928 H 685.032 -0.386024 6.96531 0
M  V30 7929 H 680.929 -1.42356 6.29607 0
M  V30 7930 H 681.697 -0.526459 8.16805 0
M  V30 7931 N 684.36 -1.4356 -0.65026 0
M  V30 7932 C 685.608 -1.45046 -1.40734 0
M  V30 7933 C 685.929 -0.0769822 -1.94848 0
M  V30 7934 O 685.199 0.888098 -1.74613 0
M  V30 7935 H 683.779 -0.534034 -0.522318 0
M  V30 7936 H 686.441 -1.79186 -0.766703 0
M  V30 7937 H 685.537 -2.16476 -2.24822 0
M  V30 7938 N 685.838 0.888903 -1.30139 0
M  V30 7939 C 686.786 2.0156 -1.16088 0
M  V30 7940 C 687.78 1.69239 -0.0737413 0
M  V30 7941 O 688.986 1.78468 -0.234313 0
M  V30 7942 H 685.361 0.660825 -0.358907 0
M  V30 7943 H 687.332 2.10547 -2.11453 0
M  V30 7944 C 686.081 3.36758 -0.865426 0
M  V30 7945 H 685.404 3.62137 -1.69402 0
M  V30 7946 H 686.844 4.16246 -0.807192 0
M  V30 7947 C 685.303 3.34124 0.431577 0
M  V30 7948 O 685.833 3.7445 1.45431 0
M  V30 7949 N 684.039 2.87229 0.441321 0
M  V30 7950 H 683.586 2.54609 -0.391433 0
M  V30 7951 H 683.544 2.8585 1.30909 0
M  V30 7952 N 687.317 1.12792 1.10072 0
M  V30 7953 C 688.264 0.79921 2.16521 0
M  V30 7954 C 689.234 -0.235726 1.64419 0
M  V30 7955 O 690.419 -0.109457 1.90486 0
M  V30 7956 C 687.559 0.264091 3.44088 0
M  V30 7957 C 686.672 1.35729 4.10124 0
M  V30 7958 C 685.807 0.781212 5.25424 0
M  V30 7959 C 684.846 1.85327 5.8337 0
M  V30 7960 N 683.983 1.29564 6.90042 0
M  V30 7961 H 688.823 1.71105 2.43981 0
M  V30 7962 H 686.36 0.854225 1.19756 0
M  V30 7963 H 688.318 -0.0642423 4.17151 0
M  V30 7964 H 686.948 -0.610901 3.16967 0
M  V30 7965 H 686 1.80234 3.34993 0
M  V30 7966 H 687.312 2.16782 4.4923 0
M  V30 7967 H 686.466 0.403769 6.05355 0
M  V30 7968 H 685.205 -0.0604686 4.87663 0
M  V30 7969 H 684.21 2.23986 5.02106 0
M  V30 7970 H 685.435 2.69824 6.23195 0
M  V30 7971 H 683.381 0.475844 6.54272 0
M  V30 7972 H 683.298 2.04271 7.2788 0
M  V30 7973 H 684.566 0.945545 7.73744 0
M  V30 7974 N 688.795 -1.27931 0.920396 0
M  V30 7975 C 689.743 -2.29061 0.404191 0
M  V30 7976 C 690.737 -1.61615 -0.507634 0
M  V30 7977 O 691.943 -1.75765 -0.388144 0
M  V30 7978 H 688.318 -0.743594 0.112123 0
M  V30 7979 H 690.289 -2.70021 1.27008 0
M  V30 7980 C 689.038 -3.46088 -0.334466 0
M  V30 7981 H 688.361 -3.98194 0.35797 0
M  V30 7982 H 689.801 -4.18829 -0.660196 0
M  V30 7983 C 688.26 -2.99396 -1.54479 0
M  V30 7984 O 688.79 -3.02439 -2.64374 0
M  V30 7985 N 686.996 -2.54978 -1.39408 0
M  V30 7986 H 686.543 -2.52701 -0.500009 0
M  V30 7987 H 686.501 -2.24098 -2.20516 0
M  V30 7988 N 690.273 -0.685099 -1.4193 0
M  V30 7989 C 691.203 -0.0273506 -2.33484 0
M  V30 7990 C 692.184 0.778366 -1.51246 0
M  V30 7991 O 693.369 0.733449 -1.79817 0
M  V30 7992 C 690.499 0.917272 -3.34968 0
M  V30 7993 C 689.453 0.21941 -4.27437 0
M  V30 7994 C 688.779 1.27768 -5.1921 0
M  V30 7995 C 690.079 -0.907894 -5.14349 0
M  V30 7996 H 691.773 -0.791994 -2.88735 0
M  V30 7997 H 689.319 -0.382308 -1.38832 0
M  V30 7998 H 691.272 1.38657 -3.97935 0
M  V30 7999 H 689.996 1.71346 -2.78043 0
M  V30 8000 H 688.655 -0.229757 -3.65879 0
M  V30 8001 H 688.303 2.06612 -4.58607 0
M  V30 8002 H 688.003 0.815803 -5.81909 0
M  V30 8003 H 689.527 1.7477 -5.85054 0
M  V30 8004 H 690.941 -0.519348 -5.70943 0
M  V30 8005 H 689.338 -1.2962 -5.85934 0
M  V30 8006 H 690.408 -1.75218 -4.52136 0
M  V30 8007 N 691.751 1.51645 -0.429126 0
M  V30 8008 C 692.999 2.01616 0.139802 0
M  V30 8009 C 693.32 1.31568 1.43927 0
M  V30 8010 O 692.59 0.447688 1.90716 0
M  V30 8011 H 691.17 0.744998 0.054654 0
M  V30 8012 H 693.832 1.8638 -0.569952 0
M  V30 8013 H 692.928 3.10439 0.321609 0
M  V30 8014 N 693.229 0.160201 1.56784 0
M  V30 8015 C 694.454 -0.497373 2.01348 0
M  V30 8016 C 694.879 -1.56757 1.03966 0
M  V30 8017 O 694.237 -1.81292 0.0174455 0
M  V30 8018 C 694.285 -1.0628 3.44582 0
M  V30 8019 O 693.389 -2.17723 3.50244 0
M  V30 8020 H 692.73 -0.120295 0.653012 0
M  V30 8021 H 695.26 0.260821 2.02931 0
M  V30 8022 H 695.27 -1.38819 3.83658 0
M  V30 8023 H 693.945 -0.279166 4.14962 0
M  V30 8024 H 692.522 -1.86313 3.2302 0
M  V30 8025 N 694.707 -1.5719 -0.113559 0
M  V30 8026 C 695.937 -1.89053 -0.833212 0
M  V30 8027 C 696.345 -0.750139 -1.73694 0
M  V30 8028 O 695.688 0.287808 -1.81431 0
M  V30 8029 C 695.75 -3.15986 -1.71443 0
M  V30 8030 C 695.414 -4.46271 -0.984449 0
M  V30 8031 C 696.411 -5.18897 -0.322741 0
M  V30 8032 C 694.096 -4.92963 -0.964011 0
M  V30 8033 C 696.09 -6.3644 0.349646 0
M  V30 8034 C 693.777 -6.10422 -0.287828 0
M  V30 8035 C 694.775 -6.82009 0.36784 0
M  V30 8036 O 694.463 -7.97233 1.03322 0
M  V30 8037 H 694.195 -0.630225 -0.244526 0
M  V30 8038 H 696.749 -2.05152 -0.100847 0
M  V30 8039 H 694.979 -2.95984 -2.48858 0
M  V30 8040 H 696.668 -3.33826 -2.309 0
M  V30 8041 H 697.434 -4.83875 -0.330114 0
M  V30 8042 H 693.313 -4.37143 -1.46379 0
M  V30 8043 H 696.857 -6.92254 0.861996 0
M  V30 8044 H 692.754 -6.449 -0.278237 0
M  V30 8045 H 693.522 -8.13105 0.938247 0
M  V30 8046 N 696.185 0.383891 -1.52853 0
M  V30 8047 C 697.132 1.46924 -1.77995 0
M  V30 8048 C 698.102 1.53958 -0.623396 0
M  V30 8049 O 699.287 1.70134 -0.863657 0
M  V30 8050 C 696.427 2.84093 -1.95921 0
M  V30 8051 C 695.54 2.86171 -3.23621 0
M  V30 8052 C 694.675 4.14799 -3.31836 0
M  V30 8053 C 693.714 4.10948 -4.53639 0
M  V30 8054 N 692.851 5.31192 -4.59107 0
M  V30 8055 H 697.691 1.24786 -2.70615 0
M  V30 8056 H 695.228 0.605265 -1.34071 0
M  V30 8057 H 697.186 3.63755 -2.04299 0
M  V30 8058 H 695.816 3.04671 -1.06656 0
M  V30 8059 H 694.868 1.9885 -3.24288 0
M  V30 8060 H 696.18 2.79194 -4.13343 0
M  V30 8061 H 695.334 5.02867 -3.39425 0
M  V30 8062 H 694.073 4.24505 -2.40097 0
M  V30 8063 H 693.078 3.21268 -4.46169 0
M  V30 8064 H 694.303 4.0286 -5.467 0
M  V30 8065 H 692.249 5.41518 -3.70262 0
M  V30 8066 H 692.166 5.26311 -5.42708 0
M  V30 8067 H 693.434 6.21143 -4.70958 0
M  V30 8068 N 697.663 1.43903 0.642637 0
M  V30 8069 C 698.888 1.49758 1.43483 0
M  V30 8070 C 699.313 0.119911 1.87717 0
M  V30 8071 O 698.671 -0.888558 1.58033 0
M  V30 8072 C 698.719 2.45744 2.63898 0
M  V30 8073 O 697.823 1.95101 3.63331 0
M  V30 8074 H 697.164 0.506138 0.429791 0
M  V30 8075 H 699.694 1.88923 0.785438 0
M  V30 8076 H 699.704 2.63399 3.11584 0
M  V30 8077 H 698.379 3.45818 2.31046 0
M  V30 8078 H 696.956 1.87158 3.22531 0
M  V30 8079 N 699.141 -0.881989 1.30609 0
M  V30 8080 C 700.371 -1.66469 1.22359 0
M  V30 8081 C 700.779 -1.87969 -0.215507 0
M  V30 8082 O 700.122 -1.42938 -1.15388 0
M  V30 8083 C 700.184 -3.06135 1.88472 0
M  V30 8084 C 699.848 -3.07795 3.37804 0
M  V30 8085 C 700.845 -2.86633 4.33749 0
M  V30 8086 C 698.53 -3.29297 3.793 0
M  V30 8087 C 700.524 -2.86934 5.69164 0
M  V30 8088 C 698.211 -3.29228 5.14832 0
M  V30 8089 C 699.209 -3.08071 6.09574 0
M  V30 8090 O 698.897 -3.07824 7.4263 0
M  V30 8091 H 698.629 -0.526129 0.424458 0
M  V30 8092 H 701.183 -1.11004 1.72821 0
M  V30 8093 H 699.413 -3.63276 1.32543 0
M  V30 8094 H 701.102 -3.66571 1.74301 0
M  V30 8095 H 701.868 -2.69814 4.0302 0
M  V30 8096 H 697.747 -3.44799 3.05998 0
M  V30 8097 H 701.291 -2.70339 6.43088 0
M  V30 8098 H 697.188 -3.45583 5.452 0
M  V30 8099 H 697.956 -3.2397 7.51656 0
M  V30 8100 N 700.619 -1.13374 -1.09472 0
M  V30 8101 C 701.865 -0.906459 -1.82085 0
M  V30 8102 C 702.22 0.5614 -1.84027 0
M  V30 8103 O 701.513 1.41012 -1.29716 0
M  V30 8104 C 701.707 -1.42759 -3.2765 0
M  V30 8105 C 701.536 -2.94459 -3.39888 0
M  V30 8106 C 700.306 -3.62798 -3.51718 0
M  V30 8107 C 702.504 -3.92398 -3.32457 0
M  V30 8108 N 700.486 -5.02516 -3.52635 0
M  V30 8109 C 701.857 -5.18304 -3.40237 0
M  V30 8110 C 703.912 -3.84671 -3.16122 0
M  V30 8111 C 702.615 -6.37386 -3.33364 0
M  V30 8112 C 704.641 -5.03287 -3.10574 0
M  V30 8113 C 704.003 -6.28055 -3.18945 0
M  V30 8114 H 700.102 -0.385097 -0.680606 0
M  V30 8115 H 702.686 -1.44187 -1.30836 0
M  V30 8116 H 700.857 -0.919102 -3.77369 0
M  V30 8117 H 702.589 -1.14136 -3.88272 0
M  V30 8118 H 699.344 -3.13317 -3.55147 0
M  V30 8119 H 699.768 -5.75421 -3.56679 0
M  V30 8120 H 704.41 -2.89094 -3.0852 0
M  V30 8121 H 702.128 -7.33219 -3.3973 0
M  V30 8122 H 705.714 -4.99047 -2.9907 0
M  V30 8123 H 704.594 -7.18299 -3.14668 0
M  V30 8124 N 702.098 1.27442 -0.927168 0
M  V30 8125 C 703.031 2.25177 -0.370232 0
M  V30 8126 C 704.009 1.53612 0.533103 0
M  V30 8127 O 705.193 1.8245 0.47373 0
M  V30 8128 C 702.32 3.35431 0.469411 0
M  V30 8129 C 701.366 4.24888 -0.370419 0
M  V30 8130 S 702.199 5.04852 -1.78562 0
M  V30 8131 C 703.355 6.18592 -0.953651 0
M  V30 8132 H 703.588 2.72069 -1.19858 0
M  V30 8133 H 701.121 1.36089 -0.729316 0
M  V30 8134 H 703.079 3.99404 0.947992 0
M  V30 8135 H 701.74 2.87179 1.27228 0
M  V30 8136 H 700.933 5.03264 0.272226 0
M  V30 8137 H 700.535 3.65709 -0.783153 0
M  V30 8138 H 702.827 6.77235 -0.189408 0
M  V30 8139 H 703.77 6.87132 -1.7104 0
M  V30 8140 H 704.178 5.62318 -0.495897 0
M  V30 8141 N 703.576 0.692616 1.41565 0
M  V30 8142 C 704.486 0.0258451 2.34586 0
M  V30 8143 C 705.502 -0.769324 1.56069 0
M  V30 8144 O 706.678 -0.707563 1.88562 0
M  V30 8145 C 703.743 -0.901289 3.3478 0
M  V30 8146 C 702.804 -0.0986579 4.29187 0
M  V30 8147 C 702.037 -0.981634 5.24595 0
M  V30 8148 O 702.26 -2.22115 5.25377 0
M  V30 8149 O 701.194 -0.432892 6.00341 0
M  V30 8150 H 705.02 0.792537 2.93177 0
M  V30 8151 H 702.605 0.452935 1.42369 0
M  V30 8152 H 704.487 -1.43302 3.96286 0
M  V30 8153 H 703.162 -1.64752 2.78637 0
M  V30 8154 H 702.069 0.477604 3.71039 0
M  V30 8155 H 703.402 0.608848 4.8842 0
M  V30 8156 N 705.054 -1.51416 0.437162 0
M  V30 8157 C 706.331 -1.94682 -0.189292 0
M  V30 8158 C 706.711 -1.37581 -1.60108 0
M  V30 8159 O 706.059 -0.562815 -2.2146 0
M  V30 8160 C 706.269 -3.48599 -0.167201 0
M  V30 8161 C 707.617 -4.2296 -0.372856 0
M  V30 8162 O 708.641 -3.55354 -0.245323 0
M  V30 8163 O 707.5 -5.42895 -0.626693 0
M  V30 8164 H 704.594 -0.816708 -0.130063 0
M  V30 8165 H 707.14 -1.62316 0.495128 0
M  V30 8166 H 705.912 -3.82616 0.81981 0
M  V30 8167 H 705.535 -3.87406 -0.894537 0
M  V30 8168 N 706.532 -0.168513 -1.56696 0
M  V30 8169 C 707.757 0.486688 -2.01609 0
M  V30 8170 C 708.182 1.56203 -1.04796 0
M  V30 8171 O 707.54 1.8128 -0.0270596 0
M  V30 8172 C 707.588 1.04451 -3.45141 0
M  V30 8173 O 706.692 2.15862 -3.51393 0
M  V30 8174 H 706.033 0.116831 -0.653641 0
M  V30 8175 H 708.563 -0.271579 -2.0279 0
M  V30 8176 H 708.573 1.36782 -3.84389 0
M  V30 8177 H 707.248 0.257155 -4.15104 0
M  V30 8178 H 705.825 1.84597 -3.24004 0
M  V30 8179 N 708.01 1.57248 0.105221 0
M  V30 8180 C 708.94 2.04374 1.12931 0
M  V30 8181 C 709.921 0.93074 1.42377 0
M  V30 8182 O 711.106 1.20136 1.52581 0
M  V30 8183 C 708.236 2.45967 2.45189 0
M  V30 8184 C 707.19 3.60838 2.30174 0
M  V30 8185 C 706.516 3.88374 3.67518 0
M  V30 8186 C 707.816 4.92084 1.75073 0
M  V30 8187 H 709.51 2.9018 0.737287 0
M  V30 8188 H 707.056 1.39601 0.353211 0
M  V30 8189 H 709.009 2.77542 3.17094 0
M  V30 8190 H 707.733 1.57148 2.86308 0
M  V30 8191 H 706.392 3.29493 1.60716 0
M  V30 8192 H 706.04 2.96739 4.06147 0
M  V30 8193 H 705.74 4.65703 3.58321 0
M  V30 8194 H 707.264 4.22415 4.40906 0
M  V30 8195 H 708.678 5.22106 2.36809 0
M  V30 8196 H 707.075 5.73507 1.76662 0
M  V30 8197 H 708.145 4.79684 0.709347 0
M  V30 8198 N 709.488 -0.375779 1.53054 0
M  V30 8199 C 710.435 -1.45978 1.78771 0
M  V30 8200 C 711.405 -1.53625 0.631552 0
M  V30 8201 O 712.59 -1.69674 0.872667 0
M  V30 8202 C 709.73 -2.8305 1.97425 0
M  V30 8203 C 708.843 -2.84451 3.25134 0
M  V30 8204 C 707.978 -4.13034 3.34031 0
M  V30 8205 C 707.017 -4.08536 4.55812 0
M  V30 8206 N 706.154 -5.2875 4.61918 0
M  V30 8207 H 710.994 -1.23349 2.71273 0
M  V30 8208 H 708.531 -0.598147 1.3439 0
M  V30 8209 H 710.489 -3.62666 2.06225 0
M  V30 8210 H 709.119 -3.04101 1.0827 0
M  V30 8211 H 708.171 -1.97127 3.25338 0
M  V30 8212 H 709.483 -2.76998 4.14818 0
M  V30 8213 H 708.637 -5.0106 3.42087 0
M  V30 8214 H 707.376 -4.23226 2.42345 0
M  V30 8215 H 706.381 -3.18897 4.47867 0
M  V30 8216 H 707.606 -3.99955 5.48828 0
M  V30 8217 H 705.552 -5.39547 3.73129 0
M  V30 8218 H 705.469 -5.23426 5.45492 0
M  V30 8219 H 706.737 -6.18637 4.74245 0
M  V30 8220 N 710.966 -1.44241 -0.634997 0
M  V30 8221 C 712.215 -1.46102 -1.39058 0
M  V30 8222 C 712.528 -0.0959909 -1.95364 0
M  V30 8223 O 713.734 0.00788751 -2.71499 0
M  V30 8224 C 712.19 -2.57195 -2.51751 0
M  V30 8225 C 711.798 -3.99888 -2.01974 0
M  V30 8226 C 713.542 -2.68272 -3.28984 0
M  V30 8227 C 711.449 -5.02412 -3.11987 0
M  V30 8228 H 710.379 -0.543556 -0.522554 0
M  V30 8229 H 713.03 -1.70294 -0.683538 0
M  V30 8230 H 711.412 -2.26237 -3.25012 0
M  V30 8231 H 712.586 -4.40396 -1.35604 0
M  V30 8232 H 710.901 -3.93019 -1.37568 0
M  V30 8233 H 713.498 -3.42042 -4.10988 0
M  V30 8234 H 713.841 -1.73957 -3.78212 0
M  V30 8235 H 714.374 -2.98622 -2.62812 0
M  V30 8236 H 711.113 -5.98342 -2.67707 0
M  V30 8237 H 710.633 -4.66501 -3.77011 0
M  V30 8238 H 712.312 -5.25939 -3.76825 0
M  V30 8239 N 712.444 0.87505 -1.31075 0
M  V30 8240 C 713.669 1.66583 -1.23551 0
M  V30 8241 C 714.094 1.87067 0.19686 0
M  V30 8242 O 713.452 1.40877 1.1412 0
M  V30 8243 C 713.5 3.01401 -1.97965 0
M  V30 8244 O 712.604 3.90923 -1.31351 0
M  V30 8245 H 711.945 0.508645 -0.426821 0
M  V30 8246 H 714.475 1.09139 -1.7306 0
M  V30 8247 H 714.485 3.51374 -2.07366 0
M  V30 8248 H 713.16 2.85812 -3.02133 0
M  V30 8249 H 711.737 3.49369 -1.30368 0
M  V30 8250 N 713.922 1.13953 1.08869 0
M  V30 8251 C 714.87 0.817664 2.17754 0
M  V30 8252 C 715.864 -0.202444 1.68186 0
M  V30 8253 O 717.07 -0.0590159 1.79903 0
M  V30 8254 H 713.445 0.246671 0.710392 0
M  V30 8255 H 715.416 1.74401 2.4213 0
M  V30 8256 C 714.165 0.3063 3.46348 0
M  V30 8257 H 713.488 1.08259 3.84864 0
M  V30 8258 H 714.928 0.119584 4.23831 0
M  V30 8259 C 713.387 -0.969158 3.22659 0
M  V30 8260 O 713.917 -2.04386 3.45817 0
M  V30 8261 N 712.123 -0.902516 2.7623 0
M  V30 8262 H 711.67 -0.027801 2.57585 0
M  V30 8263 H 711.628 -1.75649 2.60758 0
M  V30 8264 N 715.4 -1.26948 0.933913 0
M  V30 8265 C 716.33 -2.29017 0.45534 0
M  V30 8266 C 717.311 -1.62961 -0.487605 0
M  V30 8267 O 718.496 -1.90223 -0.391022 0
M  V30 8268 C 715.626 -3.46112 -0.287015 0
M  V30 8269 C 714.58 -4.24205 0.568682 0
M  V30 8270 C 713.906 -5.3384 -0.303206 0
M  V30 8271 C 715.206 -4.88954 1.83633 0
M  V30 8272 H 716.9 -2.69298 1.30839 0
M  V30 8273 H 714.446 -1.29459 0.630579 0
M  V30 8274 H 716.399 -4.16622 -0.6328 0
M  V30 8275 H 715.123 -3.04765 -1.17414 0
M  V30 8276 H 713.782 -3.5545 0.897261 0
M  V30 8277 H 713.43 -4.88734 -1.18947 0
M  V30 8278 H 713.13 -5.86998 0.265879 0
M  V30 8279 H 714.654 -6.0719 -0.644423 0
M  V30 8280 H 716.068 -5.51717 1.55823 0
M  V30 8281 H 714.465 -5.52198 2.34941 0
M  V30 8282 H 715.535 -4.12305 2.55211 0
M  V30 8283 N 716.879 -0.700114 -1.41195 0
M  V30 8284 C 717.789 -0.0382854 -2.34569 0
M  V30 8285 C 718.805 0.761036 -1.56474 0
M  V30 8286 O 719.981 0.697553 -1.88934 0
M  V30 8287 C 717.046 0.883522 -3.35253 0
M  V30 8288 C 716.107 0.0758957 -4.29233 0
M  V30 8289 C 715.34 0.9538 -5.25108 0
M  V30 8290 O 715.563 2.19326 -5.26547 0
M  V30 8291 O 714.497 0.401049 -6.00562 0
M  V30 8292 H 718.323 -0.808073 -2.92752 0
M  V30 8293 H 715.908 -0.460479 -1.42127 0
M  V30 8294 H 717.79 1.41199 -3.9704 0
M  V30 8295 H 716.465 1.63272 -2.79506 0
M  V30 8296 H 715.372 -0.497274 -3.7078 0
M  V30 8297 H 716.705 -0.634741 -4.8809 0
M  V30 8298 N 718.357 1.51182 -0.445186 0
M  V30 8299 C 719.289 2.25714 0.398206 0
M  V30 8300 C 720.302 1.30032 0.979562 0
M  V30 8301 O 721.491 1.55731 0.872368 0
M  V30 8302 C 718.591 3.00348 1.56985 0
M  V30 8303 C 717.764 4.23187 1.10596 0
M  V30 8304 C 716.823 4.80334 2.14863 0
M  V30 8305 O 715.849 5.4196 1.73977 0
M  V30 8306 N 717.051 4.65053 3.47427 0
M  V30 8307 H 719.816 2.98732 -0.240629 0
M  V30 8308 H 717.377 1.59556 -0.274507 0
M  V30 8309 H 719.369 3.35464 2.26376 0
M  V30 8310 H 717.939 2.30291 2.11387 0
M  V30 8311 H 717.159 3.93476 0.238832 0
M  V30 8312 H 718.447 5.02886 0.773537 0
M  V30 8313 H 717.845 4.15984 3.83372 0
M  V30 8314 H 716.402 5.04509 4.12691 0
M  V30 8315 N 719.835 0.176821 1.56605 0
M  V30 8316 C 721.081 -0.467406 1.9734 0
M  V30 8317 C 721.414 -1.62523 1.06301 0
M  V30 8318 O 720.689 -1.94182 0.11125 0
M  V30 8319 C 720.972 -0.945106 3.47476 0
M  V30 8320 C 720.825 0.213273 4.49294 0
M  V30 8321 C 722.144 -1.8169 4.00845 0
M  V30 8322 H 719.263 -0.168426 0.717497 0
M  V30 8323 H 721.905 0.264065 1.88156 0
M  V30 8324 H 720.055 -1.56841 3.55434 0
M  V30 8325 H 721.727 0.850508 4.53392 0
M  V30 8326 H 719.97 0.867918 4.25029 0
M  V30 8327 H 720.641 -0.163187 5.51759 0
M  V30 8328 H 723.117 -1.29139 3.95553 0
M  V30 8329 H 721.993 -2.12015 5.06301 0
M  V30 8330 H 722.254 -2.76463 3.44994 0
M  V30 8331 N 721.313 -1.57302 -0.09688 0
M  V30 8332 C 722.562 -1.85183 -0.799388 0
M  V30 8333 C 722.875 -0.765818 -1.79985 0
M  V30 8334 O 724.081 -0.931696 -2.55013 0
M  V30 8335 C 722.537 -3.28399 -1.47249 0
M  V30 8336 C 722.145 -4.45066 -0.511888 0
M  V30 8337 C 723.889 -3.65506 -2.15883 0
M  V30 8338 C 721.796 -5.79315 -1.18948 0
M  V30 8339 H 720.726 -0.690752 -0.302287 0
M  V30 8340 H 723.377 -1.83425 -0.0523104 0
M  V30 8341 H 721.759 -3.24692 -2.26697 0
M  V30 8342 H 722.933 -4.60116 0.250962 0
M  V30 8343 H 721.248 -4.16343 0.0686576 0
M  V30 8344 H 723.845 -4.63087 -2.67309 0
M  V30 8345 H 724.188 -2.94041 -2.94696 0
M  V30 8346 H 724.721 -3.71094 -1.43298 0
M  V30 8347 H 721.46 -6.54007 -0.442198 0
M  V30 8348 H 720.98 -5.68111 -1.9238 0
M  V30 8349 H 722.659 -6.23816 -1.71646 0
M  V30 8350 N 722.791 0.367657 -1.53252 0
M  V30 8351 C 724.037 1.11216 -1.69584 0
M  V30 8352 C 724.37 1.89026 -0.445269 0
M  V30 8353 O 723.645 1.86342 0.557404 0
M  V30 8354 C 723.928 2.07308 -2.94441 0
M  V30 8355 C 723.781 1.3312 -4.2965 0
M  V30 8356 C 725.1 3.07459 -3.14892 0
M  V30 8357 H 722.219 0.40294 -0.617096 0
M  V30 8358 H 724.861 0.393201 -1.85887 0
M  V30 8359 H 723.011 2.68617 -2.80673 0
M  V30 8360 H 724.683 0.746111 -4.55226 0
M  V30 8361 H 722.926 0.633051 -4.29156 0
M  V30 8362 H 723.597 2.03443 -5.13142 0
M  V30 8363 H 726.073 2.56252 -3.27832 0
M  V30 8364 H 724.949 3.71919 -4.03693 0
M  V30 8365 H 725.21 3.77514 -2.30077 0
M  V30 8366 N 724.269 1.44576 0.627338 0
M  V30 8367 C 725.516 1.47558 1.38682 0
M  V30 8368 C 725.844 0.109636 1.94191 0
M  V30 8369 O 725.099 -0.889092 1.74338 0
M  V30 8370 C 725.398 2.48644 2.56731 0
M  V30 8371 C 725.064 3.93873 2.19489 0
M  V30 8372 C 723.726 4.33421 2.09045 0
M  V30 8373 C 726.078 4.85286 1.90124 0
M  V30 8374 C 723.406 5.62303 1.6743 0
M  V30 8375 C 725.758 6.14559 1.50001 0
M  V30 8376 C 724.422 6.53058 1.38101 0
M  V30 8377 H 723.692 0.539955 0.507474 0
M  V30 8378 H 726.339 1.77811 0.711021 0
M  V30 8379 H 724.644 2.11889 3.29561 0
M  V30 8380 H 726.341 2.48197 3.14959 0
M  V30 8381 H 722.931 3.62587 2.28537 0
M  V30 8382 H 727.115 4.55483 1.971 0
M  V30 8383 H 722.371 5.90945 1.56823 0
M  V30 8384 H 726.545 6.84848 1.26319 0
M  V30 8385 H 724.172 7.52826 1.05628 0
M  V30 8386 N 725.747 -0.868086 1.31537 0
M  V30 8387 C 726.694 -1.97548 1.19346 0
M  V30 8388 C 727.664 -1.65913 0.0787922 0
M  V30 8389 O 728.849 -1.89129 0.251985 0
M  V30 8390 C 725.989 -3.32922 0.908692 0
M  V30 8391 C 725.102 -3.77141 2.10687 0
M  V30 8392 C 724.237 -5.01241 1.75873 0
M  V30 8393 C 723.276 -5.37914 2.92088 0
M  V30 8394 N 722.413 -6.53192 2.57457 0
M  V30 8395 H 727.253 -2.07307 2.14074 0
M  V30 8396 H 724.79 -1.01483 1.06487 0
M  V30 8397 H 726.748 -4.10867 0.724138 0
M  V30 8398 H 725.378 -3.228 -0.0017611 0
M  V30 8399 H 724.43 -2.94961 2.40213 0
M  V30 8400 H 725.742 -4.00248 2.97663 0
M  V30 8401 H 724.896 -5.86858 1.53891 0
M  V30 8402 H 723.635 -4.80041 0.86091 0
M  V30 8403 H 722.64 -4.50814 3.14717 0
M  V30 8404 H 723.865 -5.61077 3.82582 0
M  V30 8405 H 721.811 -6.33536 1.702 0
M  V30 8406 H 721.728 -6.76252 3.37963 0
M  V30 8407 H 722.996 -7.41997 2.38873 0
M  V30 8408 N 727.225 -1.14528 -1.08264 0
M  V30 8409 C 728.173 -0.829201 -2.17318 0
M  V30 8410 C 729.167 0.193521 -1.68291 0
M  V30 8411 O 730.373 0.0494744 -1.79932 0
M  V30 8412 H 726.748 -0.250435 -0.709074 0
M  V30 8413 H 728.719 -1.75683 -2.41201 0
M  V30 8414 C 727.468 -0.324663 -3.46181 0
M  V30 8415 H 726.791 -1.10299 -3.84284 0
M  V30 8416 H 728.231 -0.142059 -4.23762 0
M  V30 8417 C 726.69 0.952033 -3.23169 0
M  V30 8418 O 727.22 2.02549 -3.46896 0
M  V30 8419 N 725.426 0.887854 -2.76705 0
M  V30 8420 H 724.973 0.0141402 -2.57596 0
M  V30 8421 H 724.931 1.74263 -2.61686 0
M  V30 8422 N 728.703 1.26451 -0.940633 0
M  V30 8423 C 729.636 2.24771 -0.394094 0
M  V30 8424 C 730.614 1.54169 0.516781 0
M  V30 8425 O 731.798 1.82942 0.454352 0
M  V30 8426 C 728.925 3.3591 0.433807 0
M  V30 8427 C 727.971 4.24472 -0.415464 0
M  V30 8428 S 728.804 5.0293 -1.83907 0
M  V30 8429 C 729.96 6.17546 -1.01921 0
M  V30 8430 H 730.193 2.70782 -1.22737 0
M  V30 8431 H 727.726 1.35308 -0.743709 0
M  V30 8432 H 729.684 4.00387 0.905576 0
M  V30 8433 H 728.345 2.88512 1.24175 0
M  V30 8434 H 727.538 5.03525 0.218833 0
M  V30 8435 H 727.14 3.64857 -0.821897 0
M  V30 8436 H 729.432 6.76996 -0.261227 0
M  V30 8437 H 730.375 6.8528 -1.78318 0
M  V30 8438 H 730.783 5.6176 -0.555511 0
M  V30 8439 N 730.181 0.707592 1.40822 0
M  V30 8440 C 731.114 -0.000859377 2.282 0
M  V30 8441 C 732.092 -0.7758 1.42899 0
M  V30 8442 O 733.276 -0.76411 1.72318 0
M  V30 8443 C 730.403 -1.00861 3.23334 0
M  V30 8444 C 729.449 -0.32543 4.25257 0
M  V30 8445 S 730.282 0.940908 5.27169 0
M  V30 8446 C 731.438 -0.0649459 6.25866 0
M  V30 8447 H 731.671 0.740207 2.87938 0
M  V30 8448 H 729.204 0.498311 1.46138 0
M  V30 8449 H 731.162 -1.58485 3.78672 0
M  V30 8450 H 729.823 -1.72233 2.62668 0
M  V30 8451 H 729.016 -1.08697 4.92139 0
M  V30 8452 H 728.618 0.178044 3.73576 0
M  V30 8453 H 730.91 -0.914377 6.71301 0
M  V30 8454 H 731.853 0.570276 7.058 0
M  V30 8455 H 732.261 -0.425098 5.62897 0
M  V30 8456 N 731.66 -1.50943 0.453197 0
M  V30 8457 C 732.57 -2.31884 -0.355963 0
M  V30 8458 C 733.586 -1.41481 -1.01287 0
M  V30 8459 O 734.762 -1.74546 -1.00477 0
M  V30 8460 C 731.827 -3.15668 -1.43369 0
M  V30 8461 C 730.888 -4.2187 -0.795253 0
M  V30 8462 C 730.121 -5.0165 -1.82162 0
M  V30 8463 O 730.344 -4.82266 -3.04592 0
M  V30 8464 O 729.278 -5.85311 -1.40336 0
M  V30 8465 H 733.104 -3.02162 0.305248 0
M  V30 8466 H 730.689 -1.47839 0.215398 0
M  V30 8467 H 732.571 -3.67709 -2.05836 0
M  V30 8468 H 731.246 -2.48137 -2.07869 0
M  V30 8469 H 730.153 -3.73867 -0.132106 0
M  V30 8470 H 731.486 -4.9182 -0.193484 0
M  V30 8471 N 733.138 -0.185124 -1.56509 0
M  V30 8472 C 734.07 0.771401 -2.15829 0
M  V30 8473 C 735.083 1.18392 -1.11747 0
M  V30 8474 O 736.272 1.12137 -1.38879 0
M  V30 8475 C 733.372 2.05169 -2.69739 0
M  V30 8476 C 732.545 1.80056 -3.98621 0
M  V30 8477 C 731.604 2.92435 -4.37456 0
M  V30 8478 O 730.63 2.62473 -5.05071 0
M  V30 8479 N 731.832 4.20554 -4.00143 0
M  V30 8480 H 734.597 0.264184 -2.98533 0
M  V30 8481 H 732.158 -0.00281069 -1.619 0
M  V30 8482 H 734.15 2.7947 -2.92709 0
M  V30 8483 H 732.72 2.47041 -1.91545 0
M  V30 8484 H 731.94 0.895862 -3.83885 0
M  V30 8485 H 733.228 1.60662 -4.82768 0
M  V30 8486 H 732.626 4.47753 -3.45736 0
M  V30 8487 H 731.183 4.91514 -4.28085 0
M  V30 8488 N 734.616 1.57351 0.0885366 0
M  V30 8489 C 735.564 2.03542 1.12576 0
M  V30 8490 C 736.558 0.937668 1.41082 0
M  V30 8491 O 737.764 1.12283 1.40686 0
M  V30 8492 H 734.139 0.648752 0.380296 0
M  V30 8493 H 736.11 2.89833 0.709906 0
M  V30 8494 C 734.859 2.4811 2.43591 0
M  V30 8495 H 734.182 3.32164 2.22502 0
M  V30 8496 H 735.622 2.842 3.14653 0
M  V30 8497 C 734.081 1.35708 3.08359 0
M  V30 8498 O 734.611 0.689852 3.95732 0
M  V30 8499 N 732.817 1.10641 2.68713 0
M  V30 8500 H 732.364 1.6508 1.97753 0
M  V30 8501 H 732.322 0.356355 3.12374 0
M  V30 8502 N 736.094 -0.359525 1.53444 0
M  V30 8503 C 737.042 -1.46104 1.80987 0
M  V30 8504 C 738.036 -1.55181 0.679351 0
M  V30 8505 O 739.242 -1.57995 0.862405 0
M  V30 8506 H 735.617 -0.486835 0.573145 0
M  V30 8507 H 737.588 -1.2008 2.73173 0
M  V30 8508 C 736.337 -2.82855 2.02208 0
M  V30 8509 H 735.66 -2.76631 2.88644 0
M  V30 8510 H 737.1 -3.59091 2.25455 0
M  V30 8511 C 735.559 -3.27192 0.802931 0
M  V30 8512 O 736.089 -4.017 -0.00544286 0
M  V30 8513 N 734.295 -2.83807 0.624657 0
M  V30 8514 H 733.842 -2.23339 1.28364 0
M  V30 8515 H 733.8 -3.13828 -0.189641 0
M  V30 8516 N 737.572 -1.44907 -0.619662 0
M  V30 8517 C 738.522 -1.49085 -1.72504 0
M  V30 8518 C 739.506 -0.355372 -1.56926 0
M  V30 8519 O 740.698 -0.601441 -1.66468 0
M  V30 8520 C 737.827 -1.44889 -3.11227 0
M  V30 8521 C 736.913 -2.63593 -3.32234 0
M  V30 8522 N 737.304 -3.88775 -3.23555 0
M  V30 8523 C 735.602 -2.59033 -3.63067 0
M  V30 8524 C 736.303 -4.67932 -3.45564 0
M  V30 8525 N 735.279 -3.9919 -3.68983 0
M  V30 8526 H 739.081 -2.43706 -1.6427 0
M  V30 8527 H 736.595 -1.4003 -0.82252 0
M  V30 8528 H 738.592 -1.45966 -3.90512 0
M  V30 8529 H 737.252 -0.513143 -3.2062 0
M  V30 8530 H 738.263 -4.20574 -3.02221 0
M  V30 8531 H 734.94 -1.7431 -3.79371 0
M  V30 8532 H 736.33 -5.76952 -3.44349 0
M  V30 8533 N 739.05 0.861098 -1.31996 0
M  V30 8534 C 740.297 1.61481 -1.22188 0
M  V30 8535 C 740.625 1.93276 0.217853 0
M  V30 8536 O 739.88 1.56942 1.16909 0
M  V30 8537 C 740.179 2.94822 -2.02027 0
M  V30 8538 C 739.845 2.82483 -3.51446 0
M  V30 8539 C 738.507 2.78825 -3.92186 0
M  V30 8540 C 740.859 2.68878 -4.46491 0
M  V30 8541 C 738.187 2.59433 -5.26224 0
M  V30 8542 C 740.539 2.51022 -5.80664 0
M  V30 8543 C 739.203 2.45753 -6.20614 0
M  V30 8544 H 738.473 0.590902 -0.447119 0
M  V30 8545 H 741.12 0.999376 -1.63355 0
M  V30 8546 H 739.425 3.6045 -1.53569 0
M  V30 8547 H 741.122 3.52149 -1.91812 0
M  V30 8548 H 737.712 2.86152 -3.19085 0
M  V30 8549 H 741.896 2.70754 -4.1594 0
M  V30 8550 H 737.152 2.53784 -5.5624 0
M  V30 8551 H 741.326 2.39473 -6.53931 0
M  V30 8552 H 738.953 2.30485 -7.24417 0
M  V30 8553 N 740.528 1.15101 1.07655 0
M  V30 8554 C 741.753 0.948177 1.84457 0
M  V30 8555 C 742.178 -0.498432 1.81376 0
M  V30 8556 O 741.536 -1.35509 1.20445 0
M  V30 8557 C 741.584 1.46318 3.29581 0
M  V30 8558 O 740.688 0.660342 4.07079 0
M  V30 8559 H 740.029 0.338428 0.571281 0
M  V30 8560 H 742.559 1.5301 1.35828 0
M  V30 8561 H 742.569 1.47468 3.80417 0
M  V30 8562 H 741.244 2.51635 3.31138 0
M  V30 8563 H 739.821 0.718216 3.65918 0
M  V30 8564 N 742.006 -1.2595 0.947325 0
M  V30 8565 C 742.953 -2.26159 0.460497 0
M  V30 8566 C 743.923 -1.58919 -0.483125 0
M  V30 8567 O 745.108 -1.86603 -0.397983 0
M  V30 8568 C 742.248 -3.441 -0.26247 0
M  V30 8569 C 741.361 -4.25999 0.717539 0
M  V30 8570 C 740.496 -5.31193 -0.0272486 0
M  V30 8571 C 739.535 -6.04774 0.944177 0
M  V30 8572 N 738.672 -7.01721 0.230741 0
M  V30 8573 H 743.512 -2.67173 1.31995 0
M  V30 8574 H 741.049 -1.31358 0.662088 0
M  V30 8575 H 743.007 -4.11317 -0.698137 0
M  V30 8576 H 741.637 -3.03983 -1.08602 0
M  V30 8577 H 740.689 -3.58513 1.27171 0
M  V30 8578 H 742.001 -4.76981 1.45913 0
M  V30 8579 H 741.155 -6.04451 -0.521903 0
M  V30 8580 H 739.894 -4.81066 -0.801682 0
M  V30 8581 H 738.899 -5.30338 1.4499 0
M  V30 8582 H 740.124 -6.56991 1.71872 0
M  V30 8583 H 738.07 -6.53895 -0.525088 0
M  V30 8584 H 737.987 -7.50484 0.911556 0
M  V30 8585 H 739.255 -7.79122 -0.242616 0
M  V30 8586 N 743.484 -0.715051 -1.40445 0
M  V30 8587 C 744.431 -0.0621393 -2.30716 0
M  V30 8588 C 745.401 0.750871 -1.48159 0
M  V30 8589 O 746.586 0.714928 -1.76899 0
M  V30 8590 C 743.726 0.854036 -3.34365 0
M  V30 8591 C 742.839 0.0305565 -4.31989 0
M  V30 8592 C 741.974 0.946162 -5.22706 0
M  V30 8593 C 741.013 0.116741 -6.11989 0
M  V30 8594 N 740.15 0.987194 -6.95125 0
M  V30 8595 H 744.99 -0.83764 -2.85985 0
M  V30 8596 H 742.527 -0.424759 -1.40834 0
M  V30 8597 H 744.485 1.39946 -3.93028 0
M  V30 8598 H 743.115 1.59572 -2.806 0
M  V30 8599 H 742.167 -0.632044 -3.75112 0
M  V30 8600 H 743.479 -0.611615 -4.95036 0
M  V30 8601 H 742.633 1.56014 -5.86297 0
M  V30 8602 H 741.372 1.62216 -4.59932 0
M  V30 8603 H 740.377 -0.510176 -5.47428 0
M  V30 8604 H 741.602 -0.555742 -6.76822 0
M  V30 8605 H 739.548 1.64885 -6.3494 0
M  V30 8606 H 739.465 0.401046 -7.54936 0
M  V30 8607 H 740.733 1.58737 -7.63166 0
M  V30 8608 N 744.962 1.50701 -0.461195 0
M  V30 8609 C 745.925 2.2686 0.326679 0
M  V30 8610 C 746.925 1.31243 0.929085 0
M  V30 8611 O 748.115 1.54754 0.799807 0
M  V30 8612 C 745.247 3.07844 1.46441 0
M  V30 8613 H 746.44 2.97954 -0.341095 0
M  V30 8614 H 743.993 1.54814 -0.214984 0
M  V30 8615 H 744.728 2.41223 2.16753 0
M  V30 8616 H 744.513 3.78101 1.03836 0
M  V30 8617 H 746.003 3.65469 2.02044 0
M  V30 8618 N 746.441 0.193421 1.56409 0
M  V30 8619 C 747.388 -0.728124 2.19014 0
M  V30 8620 C 748.358 -1.21098 1.13686 0
M  V30 8621 O 749.543 -1.27517 1.4193 0
M  V30 8622 C 746.683 -1.94277 2.8522 0
M  V30 8623 C 745.796 -1.50143 4.05069 0
M  V30 8624 C 744.931 -2.67145 4.59137 0
M  V30 8625 C 743.97 -2.19609 5.71348 0
M  V30 8626 N 743.107 -3.29782 6.19829 0
M  V30 8627 H 747.947 -0.187499 2.9741 0
M  V30 8628 H 745.484 -0.0808064 1.46878 0
M  V30 8629 H 747.442 -2.65551 3.21774 0
M  V30 8630 H 746.072 -2.45673 2.09391 0
M  V30 8631 H 745.124 -0.684624 3.74189 0
M  V30 8632 H 746.436 -1.11266 4.86232 0
M  V30 8633 H 745.59 -3.46544 4.97988 0
M  V30 8634 H 744.329 -3.09295 3.77078 0
M  V30 8635 H 743.334 -1.38664 5.32027 0
M  V30 8636 H 744.559 -1.78492 6.55223 0
M  V30 8637 H 742.505 -3.71466 5.40693 0
M  V30 8638 H 742.422 -2.95069 6.96039 0
M  V30 8639 H 743.69 -4.094 6.63334 0
M  V30 8640 N 747.919 -1.57396 -0.0801906 0
M  V30 8641 C 748.867 -2.04136 -1.11495 0
M  V30 8642 C 749.861 -0.945137 -1.40583 0
M  V30 8643 O 751.067 -1.13028 -1.40088 0
M  V30 8644 H 747.442 -0.65076 -0.37685 0
M  V30 8645 H 749.413 -2.90205 -0.694526 0
M  V30 8646 C 748.162 -2.49399 -2.42272 0
M  V30 8647 H 747.485 -3.33339 -2.20737 0
M  V30 8648 H 748.925 -2.85864 -3.13142 0
M  V30 8649 C 747.384 -1.37341 -3.07635 0
M  V30 8650 O 747.914 -0.710829 -3.95361 0
M  V30 8651 N 746.12 -1.12064 -2.68123 0
M  V30 8652 H 745.667 -1.66126 -1.96875 0
M  V30 8653 H 745.625 -0.372916 -3.12181 0
M  V30 8654 N 749.397 0.351382 -1.53633 0
M  V30 8655 C 750.329 1.45159 -1.77374 0
M  V30 8656 C 751.342 1.4905 -0.654826 0
M  V30 8657 O 752.531 1.52274 -0.931396 0
M  V30 8658 C 749.631 2.83858 -1.85143 0
M  V30 8659 C 748.804 3.03498 -3.14972 0
M  V30 8660 C 747.863 4.22393 -3.138 0
M  V30 8661 O 746.889 4.16885 -3.87551 0
M  V30 8662 N 748.091 5.30533 -2.35617 0
M  V30 8663 H 750.856 1.25167 -2.72311 0
M  V30 8664 H 748.417 0.54121 -1.52586 0
M  V30 8665 H 750.409 3.61557 -1.8182 0
M  V30 8666 H 748.979 2.9703 -0.974275 0
M  V30 8667 H 748.199 2.13336 -3.31484 0
M  V30 8668 H 749.487 3.13498 -4.00745 0
M  V30 8669 H 748.885 5.37875 -1.75235 0
M  V30 8670 H 747.442 6.06756 -2.38098 0
M  V30 8671 N 750.875 1.45233 0.611969 0
M  V30 8672 C 751.805 1.5641 1.73373 0
M  V30 8673 C 752.786 0.415896 1.64937 0
M  V30 8674 O 753.971 0.638478 1.83404 0
M  V30 8675 C 751.101 1.52627 3.11965 0
M  V30 8676 C 750.055 2.66119 3.35208 0
M  V30 8677 C 749.381 2.4739 4.74028 0
M  V30 8678 C 750.681 4.08157 3.25891 0
M  V30 8679 H 752.375 2.50307 1.64277 0
M  V30 8680 H 749.921 1.20467 0.788904 0
M  V30 8681 H 751.874 1.59043 3.90235 0
M  V30 8682 H 750.598 0.552564 3.21892 0
M  V30 8683 H 749.257 2.59123 2.59327 0
M  V30 8684 H 748.905 1.48168 4.80682 0
M  V30 8685 H 748.605 3.23494 4.90536 0
M  V30 8686 H 750.129 2.55653 5.54503 0
M  V30 8687 H 751.543 4.1642 3.9404 0
M  V30 8688 H 749.94 4.84617 3.5393 0
M  V30 8689 H 751.01 4.30374 2.23397 0
M  V30 8690 N 752.353 -0.854086 1.3245 0
M  V30 8691 C 753.578 -1.64597 1.26185 0
M  V30 8692 C 754.003 -1.87357 -0.167074 0
M  V30 8693 O 753.361 -1.42675 -1.11864 0
M  V30 8694 C 753.409 -2.98213 2.02734 0
M  V30 8695 O 752.513 -3.88784 1.37554 0
M  V30 8696 H 751.854 -0.50179 0.434859 0
M  V30 8697 H 754.384 -1.06372 1.74775 0
M  V30 8698 H 754.394 -3.4803 2.1293 0
M  V30 8699 H 753.069 -2.80969 3.06642 0
M  V30 8700 H 751.646 -3.4725 1.3591 0
M  V30 8701 N 753.831 -1.1567 -1.07043 0
M  V30 8702 C 755.056 -0.957946 -1.83952 0
M  V30 8703 C 755.481 0.488807 -1.81638 0
M  V30 8704 O 754.839 1.34869 -1.21162 0
M  V30 8705 C 754.887 -1.48064 -3.288 0
M  V30 8706 O 753.991 -0.681921 -4.06723 0
M  V30 8707 H 753.332 -0.341453 -0.569479 0
M  V30 8708 H 755.862 -1.53728 -1.35015 0
M  V30 8709 H 755.872 -1.49484 -3.7963 0
M  V30 8710 H 754.547 -2.53388 -3.29799 0
M  V30 8711 H 753.124 -0.737612 -3.65532 0
M  V30 8712 N 755.309 1.25446 -0.953992 0
M  V30 8713 C 756.534 1.97755 -0.625129 0
M  V30 8714 C 756.959 1.70437 0.795787 0
M  V30 8715 O 756.317 0.95992 1.53803 0
M  V30 8716 C 756.365 3.49463 -0.889251 0
M  V30 8717 O 755.469 4.12387 0.0322757 0
M  V30 8718 H 754.81 0.61998 -0.237742 0
M  V30 8719 H 757.34 1.59582 -1.28041 0
M  V30 8720 H 757.35 3.99772 -0.815263 0
M  V30 8721 H 756.025 3.68676 -1.92487 0
M  V30 8722 H 754.602 3.72782 -0.0938625 0
M  V30 8723 N 756.787 0.722489 1.40064 0
M  V30 8724 C 757.717 0.0892452 2.33329 0
M  V30 8725 C 758.698 -0.737992 1.53257 0
M  V30 8726 O 759.883 -0.685516 1.81698 0
M  V30 8727 C 757.013 -0.828139 3.37282 0
M  V30 8728 C 755.967 -0.106005 4.27869 0
M  V30 8729 C 755.293 -1.13957 5.22415 0
M  V30 8730 C 756.593 1.04395 5.11761 0
M  V30 8731 H 758.287 0.868269 2.86534 0
M  V30 8732 H 755.833 0.418982 1.3777 0
M  V30 8733 H 757.786 -1.28058 4.01471 0
M  V30 8734 H 756.51 -1.63914 2.82489 0
M  V30 8735 H 755.169 0.326683 3.65142 0
M  V30 8736 H 754.817 -1.9438 4.63924 0
M  V30 8737 H 754.517 -0.661233 5.83868 0
M  V30 8738 H 756.041 -1.59197 5.89482 0
M  V30 8739 H 757.455 0.670541 5.69365 0
M  V30 8740 H 755.852 1.4511 5.82291 0
M  V30 8741 H 756.922 1.87144 4.47331 0
M  V30 8742 N 758.265 -1.50454 0.469181 0
M  V30 8743 C 759.195 -2.31353 -0.31592 0
M  V30 8744 C 760.176 -1.38172 -0.992094 0
M  V30 8745 O 761.361 -1.67093 -0.989633 0
M  V30 8746 C 758.491 -3.1786 -1.39937 0
M  V30 8747 C 757.445 -4.19578 -0.844909 0
M  V30 8748 C 756.771 -4.9481 -2.0265 0
M  V30 8749 C 758.071 -5.22106 0.142499 0
M  V30 8750 H 759.765 -2.97237 0.359269 0
M  V30 8751 H 757.311 -1.42942 0.174224 0
M  V30 8752 H 759.264 -3.7325 -1.95607 0
M  V30 8753 H 757.988 -2.49858 -2.1033 0
M  V30 8754 H 756.647 -3.65285 -0.310189 0
M  V30 8755 H 756.295 -4.23282 -2.71737 0
M  V30 8756 H 755.995 -5.63613 -1.66174 0
M  V30 8757 H 757.519 -5.53035 -2.58815 0
M  V30 8758 H 758.933 -5.72378 -0.324966 0
M  V30 8759 H 757.33 -5.98618 0.421441 0
M  V30 8760 H 758.4 -4.7297 1.06901 0
M  V30 8761 N 759.743 -0.201713 -1.56304 0
M  V30 8762 C 760.992 0.435557 -1.96941 0
M  V30 8763 C 761.305 1.62299 -1.09172 0
M  V30 8764 O 762.511 2.32849 -1.3962 0
M  V30 8765 C 760.967 0.826298 -3.50286 0
M  V30 8766 C 760.575 -0.337216 -4.46729 0
M  V30 8767 C 762.319 1.43028 -3.99679 0
M  V30 8768 C 760.226 0.0748539 -5.91353 0
M  V30 8769 H 759.156 0.1665 -0.735387 0
M  V30 8770 H 761.807 -0.294781 -1.81117 0
M  V30 8771 H 760.189 1.61349 -3.61639 0
M  V30 8772 H 761.363 -1.11476 -4.47113 0
M  V30 8773 H 759.678 -0.853126 -4.07567 0
M  V30 8774 H 762.275 1.75115 -5.05212 0
M  V30 8775 H 762.618 2.33911 -3.44371 0
M  V30 8776 H 763.151 0.706924 -3.91468 0
M  V30 8777 H 759.89 -0.799957 -6.506 0
M  V30 8778 H 759.41 0.817122 -5.94208 0
M  V30 8779 H 761.089 0.508389 -6.45 0
M  V30 8780 N 761.222 1.57436 0.0718424 0
M  V30 8781 C 762.169 2.03686 1.08539 0
M  V30 8782 C 763.139 0.917474 1.38462 0
M  V30 8783 O 764.324 1.18513 1.4953 0
M  V30 8784 C 761.464 2.48566 2.39393 0
M  V30 8785 C 760.577 3.74122 2.16001 0
M  V30 8786 C 759.712 4.07786 3.40418 0
M  V30 8787 C 758.751 5.26383 3.1239 0
M  V30 8788 N 757.888 5.55685 4.29138 0
M  V30 8789 H 762.728 2.90043 0.684018 0
M  V30 8790 H 760.265 1.43438 0.326183 0
M  V30 8791 H 762.223 2.72639 3.15791 0
M  V30 8792 H 760.853 1.65186 2.77333 0
M  V30 8793 H 759.905 3.57389 1.30296 0
M  V30 8794 H 761.217 4.60659 1.91298 0
M  V30 8795 H 760.371 4.32759 4.25211 0
M  V30 8796 H 759.11 3.19817 3.68197 0
M  V30 8797 H 758.115 5.01206 2.25993 0
M  V30 8798 H 759.34 6.1597 2.85934 0
M  V30 8799 H 757.286 4.70675 4.56948 0
M  V30 8800 H 757.203 6.3664 4.07708 0
M  V30 8801 H 758.471 5.85209 5.14928 0
M  V30 8802 N 762.7 -0.34323 1.53817 0
M  V30 8803 C 763.647 -1.42153 1.81827 0
M  V30 8804 C 764.617 -1.52251 0.663996 0
M  V30 8805 O 765.802 -1.67784 0.908461 0
M  V30 8806 C 762.942 -2.78799 2.03384 0
M  V30 8807 C 762.055 -2.7749 3.31094 0
M  V30 8808 C 761.19 -4.05856 3.42717 0
M  V30 8809 C 760.229 -3.98776 4.64375 0
M  V30 8810 N 759.366 -5.18833 4.73029 0
M  V30 8811 H 764.206 -1.17567 2.73829 0
M  V30 8812 H 761.743 -0.569506 1.35628 0
M  V30 8813 H 763.701 -3.58211 2.13872 0
M  V30 8814 H 762.331 -3.01736 1.14696 0
M  V30 8815 H 761.383 -1.90182 3.29446 0
M  V30 8816 H 762.695 -2.68137 4.206 0
M  V30 8817 H 761.849 -4.93691 3.52638 0
M  V30 8818 H 760.588 -4.1799 2.51267 0
M  V30 8819 H 759.593 -3.09325 4.5453 0
M  V30 8820 H 760.818 -3.88224 5.57189 0
M  V30 8821 H 758.764 -5.31511 3.84489 0
M  V30 8822 H 758.681 -5.11737 5.56472 0
M  V30 8823 H 759.949 -6.08439 4.87261 0
M  V30 8824 N 764.178 -1.45556 -0.604258 0
M  V30 8825 C 765.126 -1.5482 -1.7359 0
M  V30 8826 C 766.12 -0.417966 -1.64163 0
M  V30 8827 O 767.326 -0.594007 -1.69916 0
M  V30 8828 H 763.701 -0.486352 -0.573556 0
M  V30 8829 H 765.672 -2.5001 -1.62903 0
M  V30 8830 C 764.421 -1.53521 -3.11972 0
M  V30 8831 H 763.744 -2.39818 -3.19886 0
M  V30 8832 H 765.184 -1.64061 -3.90973 0
M  V30 8833 C 763.643 -0.260191 -3.35894 0
M  V30 8834 O 764.173 0.658582 -3.96265 0
M  V30 8835 N 762.379 -0.154839 -2.90187 0
M  V30 8836 H 761.926 -0.903378 -2.4124 0
M  V30 8837 H 761.884 0.697437 -3.06567 0
M  V30 8838 N 765.656 0.84705 -1.32902 0
M  V30 8839 C 766.566 1.98845 -1.2449 0
M  V30 8840 C 767.582 1.7329 -0.15702 0
M  V30 8841 O 768.758 1.978 -0.379104 0
M  V30 8842 C 765.823 3.32679 -0.975985 0
M  V30 8843 C 764.884 3.71405 -2.15306 0
M  V30 8844 C 764.117 4.98853 -1.89688 0
M  V30 8845 O 764.34 5.64134 -0.843168 0
M  V30 8846 O 763.274 5.34889 -2.76002 0
M  V30 8847 H 767.1 2.0888 -2.2046 0
M  V30 8848 H 764.685 0.978852 -1.12867 0
M  V30 8849 H 766.567 4.12885 -0.842826 0
M  V30 8850 H 765.242 3.23667 -0.0464954 0
M  V30 8851 H 764.149 2.91743 -2.34172 0
M  V30 8852 H 765.482 3.85073 -3.06561 0
M  V30 8853 N 767.134 1.16236 1.06428 0
M  V30 8854 C 768.081 0.86769 2.13869 0
M  V30 8855 C 769.051 -0.183298 1.65086 0
M  V30 8856 O 770.236 -0.0488002 1.90738 0
M  V30 8857 C 767.376 0.373427 3.43074 0
M  V30 8858 C 766.489 1.48708 4.05598 0
M  V30 8859 C 765.624 0.947977 5.22673 0
M  V30 8860 C 764.663 2.03793 5.77178 0
M  V30 8861 N 763.8 1.51451 6.85571 0
M  V30 8862 H 768.64 1.78781 2.38414 0
M  V30 8863 H 766.177 0.891892 1.16977 0
M  V30 8864 H 768.135 0.0685035 4.17144 0
M  V30 8865 H 766.765 -0.509752 3.1875 0
M  V30 8866 H 765.817 1.908 3.29089 0
M  V30 8867 H 767.129 2.30964 4.42105 0
M  V30 8868 H 766.283 0.596154 6.03764 0
M  V30 8869 H 765.022 0.0947081 4.87608 0
M  V30 8870 H 764.027 2.39847 4.94726 0
M  V30 8871 H 765.252 2.89514 6.14295 0
M  V30 8872 H 763.198 0.683755 6.52427 0
M  V30 8873 H 763.115 2.27325 7.21013 0
M  V30 8874 H 764.383 1.19123 7.70344 0
M  V30 8875 N 768.612 -1.24939 0.960631 0
M  V30 8876 C 769.842 -1.96595 0.635123 0
M  V30 8877 C 770.25 -1.71538 -0.798206 0
M  V30 8878 O 769.593 -0.991727 -1.5463 0
M  V30 8879 C 769.655 -3.49994 0.821248 0
M  V30 8880 C 769.319 -3.98738 2.23287 0
M  V30 8881 C 770.316 -4.08965 3.21004 0
M  V30 8882 C 768.001 -4.32247 2.55867 0
M  V30 8883 C 769.995 -4.52025 4.49391 0
M  V30 8884 C 767.682 -4.74991 3.84482 0
M  V30 8885 C 768.68 -4.84844 4.81056 0
M  V30 8886 O 768.368 -5.26638 6.07378 0
M  V30 8887 H 768.1 -0.633265 0.23654 0
M  V30 8888 H 770.654 -1.5991 1.28911 0
M  V30 8889 H 768.884 -3.86543 0.110105 0
M  V30 8890 H 770.573 -4.02859 0.495892 0
M  V30 8891 H 771.339 -3.83302 2.97161 0
M  V30 8892 H 767.218 -4.23801 1.81421 0
M  V30 8893 H 770.762 -4.5963 5.24773 0
M  V30 8894 H 766.659 -5.00101 4.08129 0
M  V30 8895 H 767.427 -5.44807 6.10842 0
M  V30 8896 N 770.09 -0.729906 -1.39679 0
M  V30 8897 C 771 -0.0880322 -2.34435 0
M  V30 8898 C 772.016 0.727674 -1.58053 0
M  V30 8899 O 773.192 0.657321 -1.90371 0
M  V30 8900 C 770.257 0.812211 -3.37052 0
M  V30 8901 C 769.318 -0.0151681 -4.29297 0
M  V30 8902 C 768.551 0.842202 -5.27013 0
M  V30 8903 O 768.774 2.08108 -5.31081 0
M  V30 8904 O 767.708 0.27357 -6.01278 0
M  V30 8905 H 771.534 -0.869989 -2.90972 0
M  V30 8906 H 769.119 -0.490522 -1.41118 0
M  V30 8907 H 771.001 1.32745 -3.99946 0
M  V30 8908 H 769.676 1.57307 -2.82907 0
M  V30 8909 H 768.583 -0.575811 -3.69642 0
M  V30 8910 H 769.916 -0.738129 -4.86634 0
M  V30 8911 N 771.568 1.50203 -0.477153 0
M  V30 8912 C 772.498 2.31517 0.303646 0
M  V30 8913 C 773.479 1.38696 0.984753 0
M  V30 8914 O 774.664 1.67615 0.980758 0
M  V30 8915 C 771.794 3.18598 1.38249 0
M  V30 8916 C 770.748 4.2002 0.822645 0
M  V30 8917 C 770.074 4.95878 2.00024 0
M  V30 8918 C 771.374 5.22023 -0.170185 0
M  V30 8919 H 773.068 2.97042 -0.375027 0
M  V30 8920 H 770.614 1.42848 -0.181802 0
M  V30 8921 H 772.567 3.74282 1.93625 0
M  V30 8922 H 771.291 2.5097 2.09002 0
M  V30 8923 H 769.95 3.65445 0.290813 0
M  V30 8924 H 769.598 4.24717 2.69489 0
M  V30 8925 H 769.298 5.64487 1.63183 0
M  V30 8926 H 770.822 5.54399 2.55878 0
M  V30 8927 H 772.236 5.72543 0.294606 0
M  V30 8928 H 770.633 5.98386 -0.453181 0
M  V30 8929 H 771.703 4.72396 -1.09408 0
M  V30 8930 N 773.046 0.209999 1.56195 0
M  V30 8931 C 774.276 -0.429373 2.02089 0
M  V30 8932 C 774.684 -1.54703 1.0892 0
M  V30 8933 O 774.027 -1.83485 0.0889535 0
M  V30 8934 C 774.089 -1.03266 3.44349 0
M  V30 8935 C 773.753 -0.0518873 4.56971 0
M  V30 8936 C 774.75 0.744249 5.14545 0
M  V30 8937 C 772.435 0.0635185 5.0226 0
M  V30 8938 C 774.429 1.64261 6.15871 0
M  V30 8939 C 772.116 0.965423 6.03426 0
M  V30 8940 C 773.114 1.75352 6.60106 0
M  V30 8941 O 772.802 2.64029 7.59305 0
M  V30 8942 H 772.534 -0.110604 0.66689 0
M  V30 8943 H 775.088 0.320436 2.02885 0
M  V30 8944 H 773.318 -1.83134 3.40586 0
M  V30 8945 H 775.007 -1.57823 3.73961 0
M  V30 8946 H 775.773 0.665476 4.80413 0
M  V30 8947 H 771.652 -0.539762 4.57829 0
M  V30 8948 H 775.196 2.25819 6.60039 0
M  V30 8949 H 771.093 1.04526 6.36981 0
M  V30 8950 H 771.861 2.57974 7.76783 0
M  V30 8951 N 774.524 -1.57472 -0.0634922 0
M  V30 8952 C 775.772 -1.87283 -0.759563 0
M  V30 8953 C 776.093 -0.803135 -1.77693 0
M  V30 8954 O 775.363 0.167293 -1.95184 0
M  V30 8955 H 773.943 -0.691106 -0.283516 0
M  V30 8956 H 776.605 -1.94864 -0.0376091 0
M  V30 8957 H 775.701 -2.85064 -1.27062 0
M  V30 8958 N 776.003 0.335068 -1.53997 0
M  V30 8959 C 776.95 1.41187 -1.82579 0
M  V30 8960 C 777.92 1.51897 -0.672061 0
M  V30 8961 O 779.105 1.673 -0.917346 0
M  V30 8962 C 776.245 2.77717 -2.0486 0
M  V30 8963 C 775.358 2.7573 -3.32561 0
M  V30 8964 C 774.493 4.04032 -3.44864 0
M  V30 8965 C 773.532 3.96308 -4.66483 0
M  V30 8966 N 772.669 5.16317 -4.75774 0
M  V30 8967 H 777.509 1.16113 -2.74448 0
M  V30 8968 H 775.046 0.562305 -1.35928 0
M  V30 8969 H 777.004 3.57071 -2.15768 0
M  V30 8970 H 775.634 3.01124 -1.16294 0
M  V30 8971 H 774.686 1.88432 -3.3045 0
M  V30 8972 H 775.998 2.65902 -4.22016 0
M  V30 8973 H 775.152 4.91814 -3.55251 0
M  V30 8974 H 773.891 4.16652 -2.53481 0
M  V30 8975 H 772.896 3.06911 -4.56164 0
M  V30 8976 H 774.121 3.85263 -5.5924 0
M  V30 8977 H 772.067 5.29464 -3.87303 0
M  V30 8978 H 771.984 5.08779 -5.59178 0
M  V30 8979 H 773.252 6.05846 -4.9048 0
M  V30 8980 N 777.481 1.45874 0.596531 0
M  V30 8981 C 778.709 1.54013 1.38158 0
M  V30 8982 C 779.124 0.17648 1.87973 0
M  V30 8983 O 778.481 -0.823895 1.62844 0
M  V30 8984 C 778.532 2.53363 2.57855 0
M  V30 8985 O 778.253 3.8443 2.10108 0
M  V30 8986 C 779.754 2.71308 3.50581 0
M  V30 8987 H 776.974 0.521251 0.422538 0
M  V30 8988 H 779.518 1.9116 0.726493 0
M  V30 8989 H 777.673 2.19257 3.19382 0
M  V30 8990 H 778.087 4.38384 2.87958 0
M  V30 8991 H 779.561 3.44776 4.31084 0
M  V30 8992 H 780.038 1.77728 4.01633 0
M  V30 8993 H 780.644 3.06455 2.94899 0
M  V30 8994 N 778.959 -0.83999 1.33349 0
M  V30 8995 C 780.207 -1.59202 1.24496 0
M  V30 8996 C 780.528 -1.94077 -0.189499 0
M  V30 8997 O 779.798 -1.60868 -1.11796 0
M  V30 8998 H 778.378 -0.590276 0.457802 0
M  V30 8999 H 781.04 -1.00394 1.67054 0
M  V30 9000 H 780.136 -2.52247 1.83788 0
M  V30 9001 N 780.437 -1.16799 -1.0581 0
M  V30 9002 C 781.665 -0.97687 -1.82387 0
M  V30 9003 C 782.08 0.474917 -1.82729 0
M  V30 9004 O 781.437 1.3297 -1.25001 0
M  V30 9005 C 781.488 -1.50279 -3.28783 0
M  V30 9006 O 781.209 -2.89772 -3.28578 0
M  V30 9007 C 782.71 -1.35538 -4.22071 0
M  V30 9008 H 779.93 -0.345977 -0.574927 0
M  V30 9009 H 782.474 -1.54942 -1.33466 0
M  V30 9010 H 780.629 -0.972414 -3.74997 0
M  V30 9011 H 781.043 -3.13954 -4.20159 0
M  V30 9012 H 782.517 -1.7716 -5.22799 0
M  V30 9013 H 782.994 -0.301598 -4.38163 0
M  V30 9014 H 783.6 -1.87562 -3.81708 0
M  V30 9015 N 781.915 1.24427 -0.967243 0
M  V30 9016 C 783.163 1.92107 -0.627638 0
M  V30 9017 C 783.484 1.75991 0.83978 0
M  V30 9018 O 782.754 1.13118 1.59941 0
M  V30 9019 H 781.334 0.710986 -0.229145 0
M  V30 9020 H 783.996 1.51331 -1.22821 0
M  V30 9021 H 783.092 2.99791 -0.867844 0
M  V30 9022 N 783.393 0.737304 1.3929 0
M  V30 9023 C 784.642 0.283129 1.99703 0
M  V30 9024 C 784.955 -1.13677 1.59176 0
M  V30 9025 O 786.161 -1.69058 2.12442 0
M  V30 9026 C 784.617 0.455262 3.57009 0
M  V30 9027 C 784.225 1.88319 4.06497 0
M  V30 9028 C 785.969 0.0629786 4.24453 0
M  V30 9029 C 783.876 2.00475 5.56385 0
M  V30 9030 H 782.806 0.102106 0.747054 0
M  V30 9031 H 785.457 0.911515 1.5926 0
M  V30 9032 H 783.839 -0.242057 3.9526 0
M  V30 9033 H 785.013 2.61265 3.79575 0
M  V30 9034 H 783.328 2.2289 3.51723 0
M  V30 9035 H 785.925 0.132787 5.34535 0
M  V30 9036 H 786.268 -0.982128 4.04549 0
M  V30 9037 H 786.801 0.71154 3.91385 0
M  V30 9038 H 783.54 3.03182 5.81172 0
M  V30 9039 H 783.06 1.31969 5.85102 0
M  V30 9040 H 784.739 1.787 6.21832 0
M  V30 9041 N 784.871 -1.49948 0.485112 0
M  V30 9042 C 786.117 -2.02695 -0.0651022 0
M  V30 9043 C 786.45 -1.36534 -1.38102 0
M  V30 9044 O 785.725 -0.495677 -1.88078 0
M  V30 9045 C 786.008 -3.59337 -0.234285 0
M  V30 9046 C 785.861 -4.3605 1.10364 0
M  V30 9047 C 787.18 -4.28996 -0.982351 0
M  V30 9048 H 784.299 -0.736666 -0.0221856 0
M  V30 9049 H 786.941 -1.7913 0.633433 0
M  V30 9050 H 785.091 -3.79546 -0.829262 0
M  V30 9051 H 786.763 -4.27377 1.73627 0
M  V30 9052 H 785.006 -3.99236 1.69686 0
M  V30 9053 H 785.677 -5.43959 0.938743 0
M  V30 9054 H 788.153 -4.13346 -0.477904 0
M  V30 9055 H 787.029 -5.38379 -1.06955 0
M  V30 9056 H 787.29 -3.93135 -2.02231 0
M  V30 9057 N 786.349 -0.21828 -1.56081 0
M  V30 9058 C 787.297 0.709679 -2.21509 0
M  V30 9059 C 788.291 1.20221 -1.19346 0
M  V30 9060 O 789.497 1.16241 -1.37433 0
M  V30 9061 H 785.872 0.247271 -0.710184 0
M  V30 9062 H 787.843 0.134386 -2.98097 0
M  V30 9063 C 786.592 1.90853 -2.90638 0
M  V30 9064 H 785.915 1.53865 -3.69006 0
M  V30 9065 H 787.355 2.53568 -3.39822 0
M  V30 9066 C 785.814 2.76189 -1.92929 0
M  V30 9067 O 786.344 3.74842 -1.44416 0
M  V30 9068 N 784.55 2.42157 -1.6065 0
M  V30 9069 H 784.097 1.61987 -2.00294 0
M  V30 9070 H 784.055 2.99534 -0.955347 0
M  V30 9071 N 787.827 1.57504 0.0551401 0
M  V30 9072 C 789.075 1.87684 0.74962 0
M  V30 9073 C 789.396 0.812547 1.77264 0
M  V30 9074 O 788.666 -0.15694 1.9527 0
M  V30 9075 H 787.246 0.6926 0.279846 0
M  V30 9076 H 789.908 1.94881 0.0272745 0
M  V30 9077 H 789.004 2.85734 1.25548 0
M  V30 9078 N 789.305 -0.326896 1.54172 0
M  V30 9079 C 790.252 -1.40216 1.83325 0
M  V30 9080 C 791.222 -1.51538 0.680107 0
M  V30 9081 O 792.407 -1.66811 0.926206 0
M  V30 9082 C 789.547 -2.76626 2.0633 0
M  V30 9083 C 788.66 -2.73963 3.34019 0
M  V30 9084 C 787.795 -4.02198 3.47002 0
M  V30 9085 C 786.834 -3.93828 4.68578 0
M  V30 9086 N 785.971 -5.13787 4.78506 0
M  V30 9087 H 790.811 -1.14656 2.7506 0
M  V30 9088 H 788.348 -0.555089 1.36225 0
M  V30 9089 H 790.306 -3.55922 2.17659 0
M  V30 9090 H 788.936 -3.00503 1.1789 0
M  V30 9091 H 787.988 -1.86677 3.31445 0
M  V30 9092 H 789.3 -2.6366 4.2342 0
M  V30 9093 H 788.454 -4.89923 3.57855 0
M  V30 9094 H 787.193 -4.15302 2.55687 0
M  V30 9095 H 786.198 -3.04487 4.57786 0
M  V30 9096 H 787.423 -3.82292 5.61275 0
M  V30 9097 H 785.369 -5.27403 3.90105 0
M  V30 9098 H 785.286 -5.05807 5.61868 0
M  V30 9099 H 786.554 -6.03236 4.93686 0
M  V30 9100 N 790.784 -1.46188 -0.588786 0
M  V30 9101 C 792.014 -1.54519 -1.3714 0
M  V30 9102 C 792.422 -0.183075 -1.88312 0
M  V30 9103 O 791.765 0.828815 -1.6394 0
M  V30 9104 C 791.827 -2.48426 -2.59856 0
M  V30 9105 C 791.491 -3.94791 -2.30193 0
M  V30 9106 C 792.488 -4.84173 -1.894 0
M  V30 9107 C 790.173 -4.39872 -2.42525 0
M  V30 9108 C 792.167 -6.16647 -1.61325 0
M  V30 9109 C 789.854 -5.72381 -2.14063 0
M  V30 9110 C 790.852 -6.60589 -1.73527 0
M  V30 9111 O 790.54 -7.9064 -1.4541 0
M  V30 9112 H 790.272 -0.525264 -0.425527 0
M  V30 9113 H 792.826 -1.92242 -0.723344 0
M  V30 9114 H 791.056 -2.05709 -3.27446 0
M  V30 9115 H 792.745 -2.4723 -3.21919 0
M  V30 9116 H 793.511 -4.50603 -1.79393 0
M  V30 9117 H 789.39 -3.71444 -2.7304 0
M  V30 9118 H 792.934 -6.85454 -1.29611 0
M  V30 9119 H 788.831 -6.05501 -2.23693 0
M  V30 9120 H 789.599 -8.02847 -1.59306 0
M  V30 9121 N 792.262 0.832906 -1.33792 0
M  V30 9122 C 793.21 1.96455 -1.24532 0
M  V30 9123 C 794.204 1.68774 -0.145455 0
M  V30 9124 O 795.41 1.77314 -0.309797 0
M  V30 9125 H 791.785 0.645008 -0.386611 0
M  V30 9126 H 793.756 2.01389 -2.20193 0
M  V30 9127 C 792.505 3.32784 -1.00748 0
M  V30 9128 H 791.828 3.54626 -1.84609 0
M  V30 9129 H 793.268 4.12447 -0.98301 0
M  V30 9130 C 791.727 3.35654 0.289475 0
M  V30 9131 O 792.257 3.80281 1.29419 0
M  V30 9132 N 790.463 2.88843 0.3191 0
M  V30 9133 H 790.01 2.52719 -0.499069 0
M  V30 9134 H 789.968 2.91145 1.18667 0
M  V30 9135 N 793.74 1.17359 1.05189 0
M  V30 9136 C 794.688 0.886527 2.15043 0
M  V30 9137 C 795.682 -0.148834 1.68745 0
M  V30 9138 O 796.888 -0.00175123 1.8 0
M  V30 9139 H 793.263 0.269147 0.702185 0
M  V30 9140 H 795.234 1.82016 2.36459 0
M  V30 9141 C 793.983 0.416333 3.45198 0
M  V30 9142 H 793.306 1.20449 3.81225 0
M  V30 9143 H 794.746 0.254362 4.23236 0
M  V30 9144 C 793.205 -0.866016 3.25579 0
M  V30 9145 O 793.735 -1.9328 3.52144 0
M  V30 9146 N 791.941 -0.814179 2.78961 0
M  V30 9147 H 791.488 0.0541618 2.57543 0
M  V30 9148 H 791.446 -1.67264 2.66214 0
M  V30 9149 N 795.218 -1.23913 0.973828 0
M  V30 9150 C 796.466 -1.91771 0.637817 0
M  V30 9151 C 796.787 -1.76434 -0.830435 0
M  V30 9152 O 796.057 -1.13965 -1.59339 0
M  V30 9153 H 794.637 -0.709761 0.232912 0
M  V30 9154 H 797.299 -1.50677 1.23622 0
M  V30 9155 H 796.395 -2.99327 0.883731 0
M  V30 9156 N 796.696 -0.74468 -1.38897 0
M  V30 9157 C 797.942 -0.306249 -2.01081 0
M  V30 9158 C 798.297 1.09724 -1.58046 0
M  V30 9159 O 797.59 1.73923 -0.803834 0
M  V30 9160 C 797.784 -0.357302 -3.55609 0
M  V30 9161 C 797.613 -1.76421 -4.13649 0
M  V30 9162 C 796.383 -2.3787 -4.4581 0
M  V30 9163 C 798.581 -2.71942 -4.36523 0
M  V30 9164 N 796.563 -3.70614 -4.89406 0
M  V30 9165 C 797.934 -3.89437 -4.8243 0
M  V30 9166 C 799.989 -2.69579 -4.18607 0
M  V30 9167 C 798.692 -5.04917 -5.123 0
M  V30 9168 C 800.718 -3.8421 -4.49596 0
M  V30 9169 C 800.08 -5.00442 -4.95719 0
M  V30 9170 H 796.179 -0.158531 -0.765762 0
M  V30 9171 H 798.763 -0.972726 -1.6866 0
M  V30 9172 H 796.934 0.278865 -3.87398 0
M  V30 9173 H 798.666 0.100599 -4.04575 0
M  V30 9174 H 795.421 -1.8971 -4.33943 0
M  V30 9175 H 795.845 -4.38791 -5.1555 0
M  V30 9176 H 800.487 -1.80905 -3.82143 0
M  V30 9177 H 798.205 -5.94213 -5.47665 0
M  V30 9178 H 801.791 -3.83691 -4.37347 0
M  V30 9179 H 800.671 -5.87671 -5.19242 0
M  V30 9180 N 798.174 1.49689 -0.493057 0
M  V30 9181 C 799.421 2.02427 0.0542714 0
M  V30 9182 C 799.749 1.37339 1.37725 0
M  V30 9183 O 799.004 0.495523 1.89323 0
M  V30 9184 C 799.303 3.56427 0.263536 0
M  V30 9185 C 798.969 4.40111 -0.98046 0
M  V30 9186 C 797.631 4.62699 -1.32148 0
M  V30 9187 C 799.983 4.88847 -1.80771 0
M  V30 9188 C 797.311 5.31268 -2.48941 0
M  V30 9189 C 799.663 5.587 -2.96711 0
M  V30 9190 C 798.327 5.79536 -3.31202 0
M  V30 9191 H 797.597 0.740734 0.0198593 0
M  V30 9192 H 800.244 1.80073 -0.651603 0
M  V30 9193 H 798.549 3.77416 1.05186 0
M  V30 9194 H 800.246 3.94819 0.701348 0
M  V30 9195 H 796.836 4.22765 -0.704814 0
M  V30 9196 H 801.02 4.71231 -1.55741 0
M  V30 9197 H 796.276 5.45603 -2.75911 0
M  V30 9198 H 800.45 5.9544 -3.61143 0
M  V30 9199 H 798.077 6.32443 -4.21805 0
M  V30 9200 N 799.652 0.226554 1.55963 0
M  V30 9201 C 800.898 -0.404387 1.98727 0
M  V30 9202 C 801.231 -1.59059 1.11418 0
M  V30 9203 O 800.506 -1.93729 0.172971 0
M  V30 9204 C 800.789 -0.834081 3.50307 0
M  V30 9205 C 800.642 0.356104 4.48388 0
M  V30 9206 C 801.961 -1.68845 4.06423 0
M  V30 9207 H 799.08 -0.145515 0.722492 0
M  V30 9208 H 801.722 0.323791 1.87221 0
M  V30 9209 H 799.872 -1.45454 3.60244 0
M  V30 9210 H 801.544 0.99432 4.50456 0
M  V30 9211 H 799.787 1.0027 4.22053 0
M  V30 9212 H 800.458 0.0124333 5.51999 0
M  V30 9213 H 802.934 -1.16489 3.99461 0
M  V30 9214 H 801.81 -1.958 5.1279 0
M  V30 9215 H 802.071 -2.65347 3.53615 0
M  V30 9216 N 801.13 -1.57531 -0.0467866 0
M  V30 9217 C 802.378 -1.88078 -0.739656 0
M  V30 9218 C 802.699 -0.821936 -1.76831 0
M  V30 9219 O 801.969 0.146582 -1.95351 0
M  V30 9220 H 800.549 -0.694075 -0.276169 0
M  V30 9221 H 803.211 -1.94893 -0.0169391 0
M  V30 9222 H 802.307 -2.86396 -1.24031 0
M  V30 9223 N 802.608 0.318715 -1.54344 0
M  V30 9224 C 803.838 1.07394 -1.76494 0
M  V30 9225 C 804.246 1.82031 -0.515881 0
M  V30 9226 O 803.589 1.7609 0.52325 0
M  V30 9227 C 803.651 2.11401 -2.90775 0
M  V30 9228 C 803.315 1.56118 -4.29507 0
M  V30 9229 C 804.312 1.00043 -5.10184 0
M  V30 9230 C 801.997 1.60215 -4.76063 0
M  V30 9231 C 803.991 0.487993 -6.35529 0
M  V30 9232 C 801.678 1.08584 -6.01376 0
M  V30 9233 C 802.676 0.529714 -6.80943 0
M  V30 9234 O 802.364 0.0211823 -8.03897 0
M  V30 9235 H 802.096 0.325061 -0.592715 0
M  V30 9236 H 804.65 0.36901 -2.02058 0
M  V30 9237 H 802.88 2.85524 -2.60793 0
M  V30 9238 H 804.569 2.72683 -3.00664 0
M  V30 9239 H 805.335 0.961811 -4.75367 0
M  V30 9240 H 801.214 2.02441 -4.14172 0
M  V30 9241 H 804.758 0.0532608 -6.9758 0
M  V30 9242 H 800.655 1.12155 -6.35682 0
M  V30 9243 H 801.423 0.136151 -8.18387 0
M  V30 9244 N 804.086 1.46499 0.581025 0
M  V30 9245 C 805.332 1.52121 1.34116 0
M  V30 9246 C 805.665 0.173031 1.93428 0
M  V30 9247 O 804.94 -0.815729 1.76568 0
M  V30 9248 C 805.223 2.62108 2.46924 0
M  V30 9249 C 805.076 4.06462 1.92636 0
M  V30 9250 C 806.395 2.68167 3.48962 0
M  V30 9251 H 803.514 0.5538 0.486287 0
M  V30 9252 H 806.156 1.78443 0.652538 0
M  V30 9253 H 804.306 2.39794 3.05665 0
M  V30 9254 H 805.978 4.40068 1.3834 0
M  V30 9255 H 804.221 4.15862 1.23455 0
M  V30 9256 H 804.892 4.79152 2.74076 0
M  V30 9257 H 807.368 2.8823 3.00104 0
M  V30 9258 H 806.244 3.46942 4.2535 0
M  V30 9259 H 806.505 1.74284 4.06297 0
M  V30 9260 N 805.565 -0.825799 1.34232 0
M  V30 9261 C 806.814 -1.57686 1.2577 0
M  V30 9262 C 807.127 -1.94848 -0.171372 0
M  V30 9263 O 808.333 -2.68854 -0.378123 0
M  V30 9264 C 806.789 -2.84478 2.20454 0
M  V30 9265 C 806.397 -2.54629 3.68603 0
M  V30 9266 C 808.141 -3.625 2.20893 0
M  V30 9267 C 806.048 -3.77597 4.55164 0
M  V30 9268 H 804.978 -0.591809 0.467203 0
M  V30 9269 H 807.629 -0.909421 1.59379 0
M  V30 9270 H 806.011 -3.52832 1.79793 0
M  V30 9271 H 807.185 -1.94404 4.17784 0
M  V30 9272 H 805.5 -1.89888 3.70582 0
M  V30 9273 H 808.097 -4.538 2.82789 0
M  V30 9274 H 808.44 -3.98404 1.20746 0
M  V30 9275 H 808.973 -3.01086 2.59985 0
M  V30 9276 H 805.712 -3.46815 5.56237 0
M  V30 9277 H 805.232 -4.37116 4.10719 0
M  V30 9278 H 806.911 -4.45039 4.69627 0
M  V30 9279 N 807.043 -1.17915 -1.04565 0
M  V30 9280 C 808.271 -0.99616 -1.8134 0
M  V30 9281 C 808.686 0.455509 -1.83223 0
M  V30 9282 O 808.043 1.31636 -1.26405 0
M  V30 9283 C 808.094 -1.53758 -3.27171 0
M  V30 9284 O 807.815 -2.93241 -3.25486 0
M  V30 9285 C 809.316 -1.40007 -4.2061 0
M  V30 9286 H 806.536 -0.352055 -0.571225 0
M  V30 9287 H 809.08 -1.56349 -1.31815 0
M  V30 9288 H 807.235 -1.01213 -3.73945 0
M  V30 9289 H 807.649 -3.18392 -4.16805 0
M  V30 9290 H 809.123 -1.82695 -5.2089 0
M  V30 9291 H 809.6 -0.348054 -4.37819 0
M  V30 9292 H 810.206 -1.916 -3.79697 0
M  V30 9293 N 808.521 1.23394 -0.980386 0
M  V30 9294 C 809.469 2.26872 -0.513018 0
M  V30 9295 C 810.463 1.63853 0.429948 0
M  V30 9296 O 811.669 1.77417 0.303842 0
M  V30 9297 H 808.044 0.737398 -0.147473 0
M  V30 9298 H 810.015 2.63654 -1.39746 0
M  V30 9299 C 808.764 3.47289 0.168962 0
M  V30 9300 H 808.087 3.96033 -0.547546 0
M  V30 9301 H 809.527 4.21502 0.459616 0
M  V30 9302 C 807.986 3.06425 1.40019 0
M  V30 9303 O 808.516 3.14708 2.49643 0
M  V30 9304 N 806.722 2.61339 1.27084 0
M  V30 9305 H 806.269 2.54799 0.378872 0
M  V30 9306 H 806.227 2.34364 2.09573 0
M  V30 9307 N 809.999 0.752036 1.385 0
M  V30 9308 C 810.949 0.0990189 2.27785 0
M  V30 9309 C 811.933 -0.694867 1.45122 0
M  V30 9310 O 813.125 -0.561077 1.67872 0
M  V30 9311 C 810.254 -0.794531 3.33979 0
M  V30 9312 C 809.34 0.00611984 4.241 0
M  V30 9313 N 809.731 1.04174 4.94956 0
M  V30 9314 C 808.029 -0.220934 4.45452 0
M  V30 9315 C 808.73 1.52601 5.61327 0
M  V30 9316 N 807.706 0.84159 5.37046 0
M  V30 9317 H 811.508 0.892208 2.8003 0
M  V30 9318 H 809.022 0.587934 1.51384 0
M  V30 9319 H 811.019 -1.27797 3.96829 0
M  V30 9320 H 809.679 -1.58669 2.83292 0
M  V30 9321 H 810.69 1.42349 4.97953 0
M  V30 9322 H 807.367 -0.986556 4.05676 0
M  V30 9323 H 808.757 2.38857 6.2801 0
M  V30 9324 N 811.477 -1.49425 0.500989 0
M  V30 9325 C 812.754 -1.9531 -0.106551 0
M  V30 9326 C 813.134 -1.44248 -1.54129 0
M  V30 9327 O 812.482 -0.656237 -2.18874 0
M  V30 9328 C 812.692 -3.48995 -0.0191972 0
M  V30 9329 C 814.04 -4.24161 -0.193129 0
M  V30 9330 O 815.064 -3.56075 -0.0943843 0
M  V30 9331 O 813.923 -5.45064 -0.395869 0
M  V30 9332 H 811.017 -0.82149 -0.0953068 0
M  V30 9333 H 813.563 -1.6007 0.563526 0
M  V30 9334 H 812.335 -3.78794 0.981353 0
M  V30 9335 H 811.958 -3.90852 -0.72942 0
M  V30 9336 N 812.955 -0.234822 -1.55841 0
M  V30 9337 C 813.902 0.6698 -2.20867 0
M  V30 9338 C 814.872 1.18042 -1.16856 0
M  V30 9339 O 816.057 1.23709 -1.45261 0
M  V30 9340 C 813.197 1.86646 -2.90271 0
M  V30 9341 C 812.31 1.39351 -4.08908 0
M  V30 9342 C 811.445 2.54878 -4.66059 0
M  V30 9343 C 810.484 2.04384 -5.76969 0
M  V30 9344 N 809.621 3.13233 -6.28355 0
M  V30 9345 H 814.461 0.10858 -2.97802 0
M  V30 9346 H 811.998 0.041836 -1.4704 0
M  V30 9347 H 813.956 2.56926 -3.28702 0
M  V30 9348 H 812.586 2.40035 -2.15831 0
M  V30 9349 H 811.638 0.585173 -3.75872 0
M  V30 9350 H 812.95 0.983356 -4.89011 0
M  V30 9351 H 812.104 3.33219 -5.07001 0
M  V30 9352 H 810.843 2.99188 -3.85146 0
M  V30 9353 H 809.848 1.24509 -5.35516 0
M  V30 9354 H 811.073 1.61057 -6.59725 0
M  V30 9355 H 809.019 3.57 -5.50352 0
M  V30 9356 H 808.936 2.76511 -7.03618 0
M  V30 9357 H 810.204 3.91669 -6.73955 0
M  V30 9358 N 814.433 1.57553 0.0384317 0
M  V30 9359 C 815.663 1.92813 0.742064 0
M  V30 9360 C 816.071 0.832157 1.69917 0
M  V30 9361 O 815.414 -0.200917 1.82598 0
M  V30 9362 C 815.476 3.23806 1.56172 0
M  V30 9363 C 815.14 4.50459 0.770407 0
M  V30 9364 C 816.137 5.19846 0.0748006 0
M  V30 9365 C 813.822 4.97001 0.727714 0
M  V30 9366 C 815.816 6.34047 -0.652902 0
M  V30 9367 C 813.503 6.111 -0.00373992 0
M  V30 9368 C 814.501 6.79477 -0.692816 0
M  V30 9369 O 814.189 7.91395 -1.41241 0
M  V30 9370 H 813.921 0.641174 0.214179 0
M  V30 9371 H 816.475 2.054 0.00285095 0
M  V30 9372 H 814.705 3.0752 2.34453 0
M  V30 9373 H 816.394 3.44463 2.14709 0
M  V30 9374 H 817.16 4.84899 0.098875 0
M  V30 9375 H 813.039 4.43629 1.25355 0
M  V30 9376 H 816.583 6.87353 -1.1913 0
M  V30 9377 H 812.48 6.45493 -0.0297703 0
M  V30 9378 H 813.248 8.07702 -1.32512 0
M  V30 9379 N 815.911 -0.310526 1.54511 0
M  V30 9380 C 817.141 -1.06456 1.77061 0
M  V30 9381 C 817.549 -1.81755 0.525528 0
M  V30 9382 O 816.892 -1.76365 -0.513904 0
M  V30 9383 C 816.954 -2.09856 2.91892 0
M  V30 9384 C 816.618 -1.53838 4.30329 0
M  V30 9385 C 817.615 -0.973358 5.10707 0
M  V30 9386 C 815.3 -1.57688 4.76906 0
M  V30 9387 C 817.294 -0.454283 6.35779 0
M  V30 9388 C 814.981 -1.05393 6.01943 0
M  V30 9389 C 815.979 -0.493595 6.81214 0
M  V30 9390 O 815.667 0.0214506 8.03897 0
M  V30 9391 H 815.399 -0.321913 0.594431 0
M  V30 9392 H 817.953 -0.358289 2.02251 0
M  V30 9393 H 816.183 -2.84137 2.62304 0
M  V30 9394 H 817.872 -2.71085 3.02106 0
M  V30 9395 H 818.638 -0.936588 4.75871 0
M  V30 9396 H 814.517 -2.00242 4.1524 0
M  V30 9397 H 818.061 -0.0162657 6.97598 0
M  V30 9398 H 813.958 -1.08782 6.36268 0
M  V30 9399 H 814.726 -0.0927478 8.18447 0
M  V30 9400 N 817.389 -1.46805 -0.573248 0
M  V30 9401 C 818.636 -1.52604 -1.3311 0
M  V30 9402 C 818.964 -0.181633 -1.9365 0
M  V30 9403 O 818.219 0.823775 -1.77517 0
M  V30 9404 C 818.518 -2.58001 -2.47326 0
M  V30 9405 C 818.184 -4.01747 -2.04719 0
M  V30 9406 C 816.846 -4.40881 -1.92814 0
M  V30 9407 C 819.198 -4.92008 -1.71982 0
M  V30 9408 C 816.526 -5.68129 -1.46445 0
M  V30 9409 C 818.878 -6.19703 -1.27089 0
M  V30 9410 C 817.542 -6.57733 -1.13768 0
M  V30 9411 H 816.812 -0.558417 -0.487084 0
M  V30 9412 H 819.459 -1.80327 -0.644538 0
M  V30 9413 H 817.764 -2.23974 -3.2147 0
M  V30 9414 H 819.461 -2.59715 -3.05531 0
M  V30 9415 H 816.051 -3.70819 -2.14922 0
M  V30 9416 H 820.235 -4.62485 -1.8006 0
M  V30 9417 H 815.491 -5.96359 -1.34783 0
M  V30 9418 H 819.665 -6.89064 -1.00814 0
M  V30 9419 H 817.292 -7.56228 -0.776142 0
M  V30 9420 N 818.867 0.818669 -1.34668 0
M  V30 9421 C 819.83 1.9114 -1.26483 0
M  V30 9422 C 820.83 1.598 -0.179044 0
M  V30 9423 O 822.02 1.6876 -0.431952 0
M  V30 9424 C 819.152 3.27285 -0.95381 0
M  V30 9425 H 820.345 1.9982 -2.23634 0
M  V30 9426 H 817.898 1.01314 -1.19018 0
M  V30 9427 H 818.633 3.24297 0.0143428 0
M  V30 9428 H 818.418 3.51416 -1.73924 0
M  V30 9429 H 819.908 4.07299 -0.921827 0
M  V30 9430 N 820.346 1.18468 1.03938 0
M  V30 9431 C 821.574 1.00576 1.80809 0
M  V30 9432 C 821.989 -0.445786 1.83462 0
M  V30 9433 O 821.346 -1.30964 1.27101 0
M  V30 9434 C 821.397 1.55491 3.26351 0
M  V30 9435 O 821.118 2.94963 3.23926 0
M  V30 9436 C 822.619 1.42236 4.19862 0
M  V30 9437 H 819.839 0.35508 0.56935 0
M  V30 9438 H 822.383 1.57046 1.30984 0
M  V30 9439 H 820.538 1.03195 3.73403 0
M  V30 9440 H 820.952 3.20598 4.15111 0
M  V30 9441 H 822.426 1.85455 5.19914 0
M  V30 9442 H 822.903 0.371267 4.37628 0
M  V30 9443 H 823.509 1.9361 3.78675 0
M  V30 9444 N 821.824 -1.22873 0.986916 0
M  V30 9445 C 822.774 -2.2237 0.503547 0
M  V30 9446 C 823.758 -1.55186 -0.424998 0
M  V30 9447 O 824.95 -1.75186 -0.252791 0
M  V30 9448 C 822.079 -3.42794 -0.186355 0
M  V30 9449 C 821.165 -4.17196 0.762143 0
M  V30 9450 N 821.556 -4.68453 1.9075 0
M  V30 9451 C 819.854 -4.42255 0.576797 0
M  V30 9452 C 820.555 -5.25126 2.50235 0
M  V30 9453 N 819.531 -5.13437 1.7856 0
M  V30 9454 H 823.333 -2.59636 1.37718 0
M  V30 9455 H 820.847 -1.38476 0.848415 0
M  V30 9456 H 822.844 -4.13256 -0.549993 0
M  V30 9457 H 821.504 -3.07042 -1.05619 0
M  V30 9458 H 822.515 -4.64595 2.28848 0
M  V30 9459 H 819.192 -4.16766 -0.247474 0
M  V30 9460 H 820.582 -5.75363 3.46997 0
M  V30 9461 N 823.302 -0.75937 -1.38099 0
M  V30 9462 C 824.232 -0.151077 -2.33011 0
M  V30 9463 C 825.213 0.697099 -1.5516 0
M  V30 9464 O 826.398 0.637101 -1.83452 0
M  V30 9465 C 823.528 0.738423 -3.39359 0
M  V30 9466 C 822.482 -0.0074741 -4.27999 0
M  V30 9467 C 821.808 1.00066 -5.25253 0
M  V30 9468 C 823.108 -1.17926 -5.08813 0
M  V30 9469 H 824.802 -0.943933 -2.84131 0
M  V30 9470 H 822.348 -0.455362 -1.36611 0
M  V30 9471 H 824.301 1.17369 -4.04725 0
M  V30 9472 H 823.025 1.56366 -2.86735 0
M  V30 9473 H 821.684 -0.423379 -3.64147 0
M  V30 9474 H 821.332 1.82012 -4.68914 0
M  V30 9475 H 821.032 0.506199 -5.85416 0
M  V30 9476 H 822.556 1.43512 -5.93495 0
M  V30 9477 H 823.97 -0.821262 -5.67387 0
M  V30 9478 H 822.367 -1.60497 -5.78239 0
M  V30 9479 H 823.437 -1.98938 -4.42212 0
M  V30 9480 N 824.78 1.49157 -0.508906 0
M  V30 9481 C 826.005 2.07376 0.0315182 0
M  V30 9482 C 826.43 1.36575 1.2934 0
M  V30 9483 O 825.788 0.424963 1.76249 0
M  V30 9484 C 825.836 3.59661 0.260118 0
M  V30 9485 O 824.94 3.90255 1.33322 0
M  V30 9486 H 824.281 0.663334 -0.029739 0
M  V30 9487 H 826.811 1.91857 -0.710791 0
M  V30 9488 H 826.821 4.05056 0.489225 0
M  V30 9489 H 825.496 4.10601 -0.661794 0
M  V30 9490 H 824.073 3.56661 1.08844 0
M  V30 9491 N 826.258 0.243083 1.55714 0
M  V30 9492 C 827.535 -0.432851 1.90751 0
M  V30 9493 C 827.915 -1.76153 1.16333 0
M  V30 9494 O 827.263 -2.26783 0.279565 0
M  V30 9495 C 827.473 -0.604685 3.43722 0
M  V30 9496 C 828.821 -0.90231 4.14902 0
M  V30 9497 O 829.845 -0.690689 3.49439 0
M  V30 9498 O 828.704 -1.3051 5.30688 0
M  V30 9499 H 825.798 -0.231835 0.79384 0
M  V30 9500 H 828.344 0.286867 1.67258 0
M  V30 9501 H 827.116 0.331655 3.89892 0
M  V30 9502 H 826.739 -1.37509 3.73065 0
M  V30 9503 N 827.736 -1.57571 -0.0300757 0
M  V30 9504 C 828.984 -1.88852 -0.719666 0
M  V30 9505 C 829.305 -0.840645 -1.75949 0
M  V30 9506 O 828.575 0.125854 -1.95495 0
M  V30 9507 H 827.155 -0.696965 -0.268792 0
M  V30 9508 H 829.817 -1.949 0.00373285 0
M  V30 9509 H 828.913 -2.87695 -1.20987 0
M  V30 9510 N 829.214 0.302327 -1.54673 0
M  V30 9511 C 830.161 1.37282 -1.85532 0
M  V30 9512 C 831.131 1.50437 -0.704129 0
M  V30 9513 O 832.316 1.65317 -0.952627 0
M  V30 9514 C 829.456 2.73309 -2.10704 0
M  V30 9515 C 828.569 2.68614 -3.38335 0
M  V30 9516 C 827.704 3.96626 -3.53357 0
M  V30 9517 C 826.743 3.86324 -4.74784 0
M  V30 9518 N 825.88 5.06109 -4.86619 0
M  V30 9519 H 830.72 1.10265 -2.76849 0
M  V30 9520 H 828.257 0.533346 -1.37091 0
M  V30 9521 H 830.215 3.52414 -2.23294 0
M  V30 9522 H 828.845 2.98589 -1.22656 0
M  V30 9523 H 827.897 1.81381 -3.34373 0
M  V30 9524 H 829.209 2.56891 -4.27561 0
M  V30 9525 H 828.363 4.84168 -3.65604 0
M  V30 9526 H 827.102 4.11182 -2.62261 0
M  V30 9527 H 826.107 2.97166 -4.62572 0
M  V30 9528 H 827.332 3.73315 -5.67286 0
M  V30 9529 H 825.278 5.2113 -3.98446 0
M  V30 9530 H 825.195 4.96804 -5.69844 0
M  V30 9531 H 826.463 5.95306 -5.03221 0
M  V30 9532 N 830.692 1.47107 0.565454 0
M  V30 9533 C 832.103 1.47266 1.1476 0
M  V30 9534 C 832.454 0.222841 1.9493 0
M  V30 9535 O 831.579 -0.672862 2.05673 0
M  V30 9536 C 832.174 2.66822 2.08785 0
M  V30 9537 C 830.733 2.69967 2.62288 0
M  V30 9538 C 829.88 2.40236 1.38499 0
M  V30 9539 H 832.831 1.54736 0.352479 0
M  V30 9540 H 832.852 2.43323 2.92531 0
M  V30 9541 H 832.364 3.5777 1.50408 0
M  V30 9542 H 830.465 1.83137 3.24487 0
M  V30 9543 H 830.578 3.70426 3.03845 0
M  V30 9544 H 828.942 1.90648 1.68895 0
M  V30 9545 H 829.725 3.33381 0.819274 0
M  V30 9546 N 832.17 -0.811516 1.35101 0
M  V30 9547 C 833.395 -1.60499 1.31358 0
M  V30 9548 C 833.82 -1.87793 -0.107383 0
M  V30 9549 O 833.178 -1.46161 -1.07268 0
M  V30 9550 C 833.226 -2.91612 2.12119 0
M  V30 9551 O 832.33 -3.84211 1.49853 0
M  V30 9552 H 831.671 -0.487702 0.450603 0
M  V30 9553 H 834.201 -1.00758 1.7807 0
M  V30 9554 H 834.211 -3.4108 2.23894 0
M  V30 9555 H 832.886 -2.71071 3.15426 0
M  V30 9556 H 831.463 -3.42751 1.46889 0
M  V30 9557 N 833.648 -1.19017 -1.03309 0
M  V30 9558 C 834.896 -0.988258 -1.76289 0
M  V30 9559 C 835.217 0.482557 -1.88935 0
M  V30 9560 O 834.487 1.34969 -1.41987 0
M  V30 9561 H 833.067 -0.36267 -0.653054 0
M  V30 9562 H 835.729 -1.49836 -1.2464 0
M  V30 9563 H 834.825 -1.43273 -2.77271 0
M  V30 9564 N 835.127 1.22348 -0.993418 0
M  V30 9565 C 836.074 2.24294 -0.544118 0
M  V30 9566 C 837.044 1.60602 0.42381 0
M  V30 9567 O 838.229 1.87952 0.328453 0
M  V30 9568 C 835.369 3.44837 0.134578 0
M  V30 9569 C 834.482 4.23043 -0.875151 0
M  V30 9570 C 833.617 5.30928 -0.169919 0
M  V30 9571 C 832.656 6.00853 -1.16798 0
M  V30 9572 N 831.793 7.00381 -0.491021 0
M  V30 9573 H 836.633 2.6209 -1.4182 0
M  V30 9574 H 834.17 1.2881 -0.710384 0
M  V30 9575 H 836.128 4.13625 0.544998 0
M  V30 9576 H 834.758 3.07804 0.972446 0
M  V30 9577 H 833.81 3.53546 -1.40389 0
M  V30 9578 H 835.122 4.71237 -1.63516 0
M  V30 9579 H 834.276 6.05972 0.297205 0
M  V30 9580 H 833.015 4.8371 0.622586 0
M  V30 9581 H 832.02 5.24591 -1.64573 0
M  V30 9582 H 833.245 6.50159 -1.96137 0
M  V30 9583 H 831.191 6.55393 0.282037 0
M  V30 9584 H 831.108 7.46584 -1.18947 0
M  V30 9585 H 832.376 7.79486 -0.0467169 0
M  V30 9586 N 836.605 0.766683 1.37694 0
M  V30 9587 C 837.553 0.137269 2.32195 0
M  V30 9588 C 838.547 -0.69067 1.54681 0
M  V30 9589 O 839.753 -0.588299 1.70115 0
M  V30 9590 H 836.128 0.0256003 0.751564 0
M  V30 9591 H 838.099 0.950129 2.82869 0
M  V30 9592 C 836.848 -0.731446 3.39919 0
M  V30 9593 H 836.171 -0.103738 3.99665 0
M  V30 9594 H 837.611 -1.13891 4.08417 0
M  V30 9595 C 836.07 -1.87984 2.79578 0
M  V30 9596 O 836.6 -2.97496 2.69924 0
M  V30 9597 N 834.806 -1.6789 2.37195 0
M  V30 9598 H 834.353 -0.788162 2.45246 0
M  V30 9599 H 834.311 -2.44894 1.97165 0
M  V30 9600 N 838.083 -1.48885 0.516809 0
M  V30 9601 C 839.046 -2.27916 -0.242256 0
M  V30 9602 C 840.046 -1.34601 -0.879735 0
M  V30 9603 O 841.236 -1.57616 -0.74182 0
M  V30 9604 C 838.368 -3.13067 -1.34914 0
M  V30 9605 H 839.561 -2.96483 0.451444 0
M  V30 9606 H 837.114 -1.5391 0.272294 0
M  V30 9607 H 837.849 -2.49102 -2.07651 0
M  V30 9608 H 837.634 -3.81695 -0.897313 0
M  V30 9609 H 839.124 -3.72716 -1.88341 0
M  V30 9610 N 839.561 -0.251338 -1.55583 0
M  V30 9611 C 840.471 0.656978 -2.25213 0
M  V30 9612 C 841.487 1.18966 -1.26977 0
M  V30 9613 O 842.663 1.22499 -1.59862 0
M  V30 9614 C 839.728 1.83527 -2.94141 0
M  V30 9615 C 838.789 1.34162 -4.07798 0
M  V30 9616 C 838.022 2.46375 -4.73429 0
M  V30 9617 O 838.245 3.65205 -4.38157 0
M  V30 9618 O 837.179 2.15881 -5.61853 0
M  V30 9619 H 841.005 0.0936395 -3.03556 0
M  V30 9620 H 838.59 -0.0196638 -1.49387 0
M  V30 9621 H 840.472 2.52279 -3.3754 0
M  V30 9622 H 839.147 2.38614 -2.18735 0
M  V30 9623 H 838.054 0.621249 -3.68906 0
M  V30 9624 H 839.387 0.836779 -4.85035 0
M  V30 9625 N 841.039 1.57585 0.0217189 0
M  V30 9626 C 841.969 2.10073 1.01939 0
M  V30 9627 C 842.95 1.0049 1.37243 0
M  V30 9628 O 844.135 1.28055 1.45999 0
M  V30 9629 C 841.265 2.58618 2.31806 0
M  V30 9630 C 840.219 3.72531 2.10724 0
M  V30 9631 C 839.545 4.07309 3.46415 0
M  V30 9632 C 840.845 5.00672 1.48743 0
M  V30 9633 H 842.539 2.9368 0.582432 0
M  V30 9634 H 840.085 1.41277 0.278715 0
M  V30 9635 H 842.038 2.9396 3.01936 0
M  V30 9636 H 840.762 1.72104 2.77575 0
M  V30 9637 H 839.421 3.37549 1.43025 0
M  V30 9638 H 839.069 3.17851 3.89846 0
M  V30 9639 H 838.769 4.84042 3.33132 0
M  V30 9640 H 840.293 4.45192 4.17895 0
M  V30 9641 H 841.707 5.33925 2.088 0
M  V30 9642 H 840.104 5.82065 1.46013 0
M  V30 9643 H 841.174 4.82769 0.45408 0
M  V30 9644 N 842.517 -0.29412 1.54831 0
M  V30 9645 C 843.766 -1.02614 1.73647 0
M  V30 9646 C 844.079 -1.88193 0.533162 0
M  V30 9647 O 845.285 -2.64713 0.603275 0
M  V30 9648 C 843.741 -1.87417 3.07251 0
M  V30 9649 C 843.349 -1.06806 4.35082 0
M  V30 9650 C 845.093 -2.60176 3.35423 0
M  V30 9651 C 843 -1.90926 5.59733 0
M  V30 9652 H 841.93 -0.386834 0.647206 0
M  V30 9653 H 844.581 -0.282789 1.81308 0
M  V30 9654 H 842.963 -2.65765 2.93572 0
M  V30 9655 H 844.137 -0.330226 4.59615 0
M  V30 9656 H 842.452 -0.455979 4.13896 0
M  V30 9657 H 845.049 -3.23476 4.25755 0
M  V30 9658 H 845.392 -3.29365 2.54606 0
M  V30 9659 H 845.925 -1.88871 3.50103 0
M  V30 9660 H 842.664 -1.26194 6.43238 0
M  V30 9661 H 842.184 -2.62363 5.39375 0
M  V30 9662 H 843.863 -2.48807 5.97247 0
M  V30 9663 N 843.995 -1.47404 -0.557645 0
M  V30 9664 C 845.22 -1.57868 -1.34508 0
M  V30 9665 C 845.645 -0.229151 -1.86699 0
M  V30 9666 O 845.003 0.794908 -1.62944 0
M  V30 9667 C 845.051 -2.60712 -2.49122 0
M  V30 9668 O 844.155 -2.15952 -3.51338 0
M  V30 9669 H 843.496 -0.530335 -0.399551 0
M  V30 9670 H 846.026 -1.93181 -0.673954 0
M  V30 9671 H 846.036 -2.81118 -2.95697 0
M  V30 9672 H 844.711 -3.58701 -2.10491 0
M  V30 9673 H 843.288 -2.05644 -3.11071 0
M  V30 9674 N 845.473 0.80434 -1.35529 0
M  V30 9675 C 846.383 1.94784 -1.30753 0
M  V30 9676 C 847.399 1.72703 -0.212071 0
M  V30 9677 O 848.575 1.96494 -0.441841 0
M  V30 9678 C 845.64 3.29406 -1.08133 0
M  V30 9679 C 844.701 3.64367 -2.27013 0
M  V30 9680 C 843.934 4.92566 -2.05463 0
M  V30 9681 O 844.157 5.61166 -1.02222 0
M  V30 9682 O 843.091 5.25838 -2.92879 0
M  V30 9683 H 846.917 2.01761 -2.26994 0
M  V30 9684 H 844.502 0.942448 -1.15924 0
M  V30 9685 H 846.384 4.09995 -0.973756 0
M  V30 9686 H 845.059 3.23355 -0.149444 0
M  V30 9687 H 843.966 2.84146 -2.43335 0
M  V30 9688 H 845.299 3.75125 -3.18656 0
M  V30 9689 N 846.951 1.19563 1.02676 0
M  V30 9690 C 847.898 0.935291 2.11 0
M  V30 9691 C 848.868 -0.130685 1.65585 0
M  V30 9692 O 850.053 0.0119062 1.90796 0
M  V30 9693 C 847.193 0.482384 3.41712 0
M  V30 9694 C 846.306 1.61537 4.00662 0
M  V30 9695 C 845.441 1.11378 5.19392 0
M  V30 9696 C 844.48 2.22052 5.70403 0
M  V30 9697 N 843.617 1.73185 6.80405 0
M  V30 9698 H 848.457 1.86275 2.32606 0
M  V30 9699 H 845.994 0.928656 1.14081 0
M  V30 9700 H 847.952 0.20118 4.16715 0
M  V30 9701 H 846.582 -0.408086 3.2021 0
M  V30 9702 H 845.634 2.01173 3.22852 0
M  V30 9703 H 846.946 2.44912 4.34534 0
M  V30 9704 H 846.1 0.787935 6.01562 0
M  V30 9705 H 844.839 0.249789 4.8706 0
M  V30 9706 H 843.844 2.55465 4.86845 0
M  V30 9707 H 845.069 3.08911 6.04774 0
M  V30 9708 H 843.015 0.890973 6.49921 0
M  V30 9709 H 842.932 2.50148 7.13416 0
M  V30 9710 H 844.2 1.4357 7.66164 0
M  V30 9711 N 848.429 -1.21819 0.999893 0
M  V30 9712 C 849.678 -1.90066 0.675108 0
M  V30 9713 C 849.991 -1.78624 -0.79705 0
M  V30 9714 O 851.197 -2.41851 -1.23371 0
M  V30 9715 C 849.653 -3.40795 1.15702 0
M  V30 9716 C 849.261 -3.60859 2.6549 0
M  V30 9717 C 851.005 -4.147 0.906889 0
M  V30 9718 C 848.912 -5.05324 3.07248 0
M  V30 9719 H 847.842 -0.711763 0.248815 0
M  V30 9720 H 850.493 -1.3792 1.21038 0
M  V30 9721 H 848.875 -3.92164 0.549832 0
M  V30 9722 H 850.049 -3.19951 3.31614 0
M  V30 9723 H 848.364 -3.00298 2.88461 0
M  V30 9724 H 850.961 -5.21187 1.1945 0
M  V30 9725 H 851.304 -4.16004 -0.156923 0
M  V30 9726 H 851.837 -3.69379 1.47662 0
M  V30 9727 H 848.576 -5.09164 4.12834 0
M  V30 9728 H 848.096 -5.47108 2.45832 0
M  V30 9729 H 849.775 -5.73797 2.98941 0
M  V30 9730 N 849.908 -0.773975 -1.37286 0
M  V30 9731 C 850.838 -0.175782 -2.32837 0
M  V30 9732 C 851.819 0.680603 -1.5589 0
M  V30 9733 O 853.004 0.617607 -1.84117 0
M  V30 9734 C 850.134 0.702388 -3.40123 0
M  V30 9735 C 849.088 -0.0528687 -4.27967 0
M  V30 9736 C 848.414 0.944891 -5.26285 0
M  V30 9737 C 849.714 -1.23316 -5.07534 0
M  V30 9738 H 851.408 -0.974016 -2.83114 0
M  V30 9739 H 848.954 -0.469826 -1.3612 0
M  V30 9740 H 850.907 1.13069 -4.05947 0
M  V30 9741 H 849.631 1.53316 -2.88378 0
M  V30 9742 H 848.29 -0.461978 -3.63678 0
M  V30 9743 H 847.938 1.77028 -4.70819 0
M  V30 9744 H 847.638 0.444079 -5.8592 0
M  V30 9745 H 849.162 1.37209 -5.94984 0
M  V30 9746 H 850.576 -0.881395 -5.66484 0
M  V30 9747 H 848.973 -1.66621 -5.76504 0
M  V30 9748 H 850.043 -2.03617 -4.40077 0
M  V30 9749 N 851.386 1.48609 -0.524698 0
M  V30 9750 C 852.333 2.29539 0.240956 0
M  V30 9751 C 853.303 1.37033 0.938681 0
M  V30 9752 O 854.488 1.65996 0.940737 0
M  V30 9753 C 851.628 3.20278 1.28514 0
M  V30 9754 C 850.741 4.27858 0.596798 0
M  V30 9755 C 849.876 5.05784 1.62346 0
M  V30 9756 C 848.915 6.05173 0.918287 0
M  V30 9757 N 848.052 6.76176 1.89025 0
M  V30 9758 H 852.892 2.945 -0.455368 0
M  V30 9759 H 850.429 1.45188 -0.236403 0
M  V30 9760 H 852.387 3.71281 1.90279 0
M  V30 9761 H 851.017 2.57251 1.94992 0
M  V30 9762 H 850.069 3.80162 -0.134668 0
M  V30 9763 H 851.381 4.98782 0.0428506 0
M  V30 9764 H 850.535 5.60775 2.31553 0
M  V30 9765 H 849.274 4.34687 2.2113 0
M  V30 9766 H 848.279 5.49391 0.21212 0
M  V30 9767 H 849.504 6.78265 0.336633 0
M  V30 9768 H 847.45 6.07834 2.46726 0
M  V30 9769 H 847.367 7.43157 1.3876 0
M  V30 9770 H 848.635 7.35759 2.57446 0
M  V30 9771 N 852.864 0.259585 1.55447 0
M  V30 9772 C 853.774 -0.645026 2.25558 0
M  V30 9773 C 854.79 -1.18291 1.27606 0
M  V30 9774 O 855.966 -1.21649 1.6051 0
M  V30 9775 C 853.031 -1.81964 2.9511 0
M  V30 9776 C 852.092 -1.31997 4.08504 0
M  V30 9777 C 851.325 -2.43861 4.74729 0
M  V30 9778 O 851.548 -3.62876 4.40088 0
M  V30 9779 O 850.482 -2.12898 5.6299 0
M  V30 9780 H 854.308 -0.0775399 3.03601 0
M  V30 9781 H 851.893 0.0275859 1.49375 0
M  V30 9782 H 853.775 -2.50485 3.38873 0
M  V30 9783 H 852.45 -2.37451 2.19997 0
M  V30 9784 H 851.357 -0.601676 3.6923 0
M  V30 9785 H 852.69 -0.811045 4.85472 0
M  V30 9786 N 854.342 -1.57594 -0.0133615 0
M  V30 9787 C 855.275 -2.02991 -1.04259 0
M  V30 9788 C 856.253 -0.917193 -1.34262 0
M  V30 9789 O 857.437 -1.18428 -1.46653 0
M  V30 9790 C 854.564 -2.41624 -2.37351 0
M  V30 9791 C 853.61 -3.63495 -2.231 0
M  V30 9792 S 854.443 -5.1198 -1.5696 0
M  V30 9793 C 855.599 -5.5387 -2.91511 0
M  V30 9794 H 855.832 -2.89973 -0.655985 0
M  V30 9795 H 853.365 -1.52769 -0.223827 0
M  V30 9796 H 855.323 -2.64551 -3.13884 0
M  V30 9797 H 853.984 -1.55065 -2.73155 0
M  V30 9798 H 853.177 -3.88233 -3.21389 0
M  V30 9799 H 852.779 -3.405 -1.54711 0
M  V30 9800 H 855.071 -5.55514 -3.87828 0
M  V30 9801 H 856.014 -6.53988 -2.71488 0
M  V30 9802 H 856.422 -4.81404 -2.94806 0
M  V30 9803 N 855.82 0.285905 -1.54985 0
M  V30 9804 C 857.068 1.01718 -1.74636 0
M  V30 9805 C 857.389 1.87277 -0.543342 0
M  V30 9806 O 856.659 1.90847 0.442078 0
M  V30 9807 H 855.239 0.378549 -0.643979 0
M  V30 9808 H 857.901 0.313247 -1.92366 0
M  V30 9809 H 856.997 1.66159 -2.64192 0
M  V30 9810 N 857.298 1.47698 0.54982 0
M  V30 9811 C 858.544 1.54931 1.30859 0
M  V30 9812 C 858.877 0.214021 1.93017 0
M  V30 9813 O 858.152 -0.778093 1.78258 0
M  V30 9814 C 858.435 2.67286 2.41309 0
M  V30 9815 C 858.288 4.10457 1.83971 0
M  V30 9816 C 859.607 2.75509 3.43195 0
M  V30 9817 H 856.726 0.56399 0.474431 0
M  V30 9818 H 859.368 1.79787 0.614541 0
M  V30 9819 H 857.518 2.46224 3.0051 0
M  V30 9820 H 859.19 4.42903 1.28974 0
M  V30 9821 H 857.433 4.18387 1.14606 0
M  V30 9822 H 858.104 4.84857 2.63851 0
M  V30 9823 H 860.58 2.94531 2.93923 0
M  V30 9824 H 859.456 3.55886 4.17895 0
M  V30 9825 H 859.717 1.82863 4.02509 0
M  V30 9826 N 858.776 -0.797141 1.35954 0
M  V30 9827 C 859.706 -1.92387 1.32323 0
M  V30 9828 C 860.687 -1.68967 0.196007 0
M  V30 9829 O 861.872 -1.90193 0.39245 0
M  V30 9830 C 859.002 -3.29286 1.10398 0
M  V30 9831 C 857.956 -3.67212 2.19862 0
M  V30 9832 C 857.282 -5.02377 1.8309 0
M  V30 9833 C 858.582 -3.76602 3.61896 0
M  V30 9834 H 860.276 -1.95683 2.26602 0
M  V30 9835 H 857.822 -0.94007 1.09081 0
M  V30 9836 H 859.775 -4.07721 1.06495 0
M  V30 9837 H 858.499 -3.26358 0.125668 0
M  V30 9838 H 857.158 -2.91069 2.22878 0
M  V30 9839 H 856.806 -4.95961 0.838527 0
M  V30 9840 H 856.506 -5.28722 2.56372 0
M  V30 9841 H 858.03 -5.8324 1.80729 0
M  V30 9842 H 859.444 -4.45246 3.6115 0
M  V30 9843 H 857.841 -4.14425 4.34018 0
M  V30 9844 H 858.911 -2.77906 3.97361 0
M  V30 9845 N 860.254 -1.20106 -1.0204 0
M  V30 9846 C 861.202 -0.943231 -2.12617 0
M  V30 9847 C 862.196 0.104042 -1.6908 0
M  V30 9848 O 863.402 -0.0459732 -1.79941 0
M  V30 9849 H 859.777 -0.28767 -0.694802 0
M  V30 9850 H 861.748 -1.88221 -2.3155 0
M  V30 9851 C 860.497 -0.50771 -3.43973 0
M  V30 9852 H 859.82 -1.30514 -3.77897 0
M  V30 9853 H 861.26 -0.366486 -4.22413 0
M  V30 9854 C 859.719 0.77939 -3.27761 0
M  V30 9855 O 860.249 1.83876 -3.57145 0
M  V30 9856 N 858.455 0.739931 -2.81022 0
M  V30 9857 H 858.002 -0.122426 -2.57309 0
M  V30 9858 H 857.96 1.60147 -2.70556 0
M  V30 9859 N 861.732 1.21287 -1.00634 0
M  V30 9860 C 862.98 1.90013 -0.688438 0
M  V30 9861 C 863.301 1.78573 0.783365 0
M  V30 9862 O 862.571 1.1815 1.56261 0
M  V30 9863 H 861.151 0.703336 -0.251648 0
M  V30 9864 H 863.813 1.47346 -1.27574 0
M  V30 9865 H 862.909 2.96879 -0.962781 0
M  V30 9866 N 863.21 0.781244 1.36873 0
M  V30 9867 C 864.142 0.132075 2.28819 0
M  V30 9868 C 865.155 -0.653925 1.49089 0
M  V30 9869 O 866.344 -0.490453 1.7163 0
M  V30 9870 C 863.444 -0.836297 3.28419 0
M  V30 9871 C 862.617 -0.102097 4.37281 0
M  V30 9872 C 861.676 -0.985217 5.16894 0
M  V30 9873 O 860.702 -0.445478 5.67454 0
M  V30 9874 N 861.904 -2.31043 5.3254 0
M  V30 9875 H 864.669 0.921838 2.85171 0
M  V30 9876 H 862.23 0.634427 1.48952 0
M  V30 9877 H 864.222 -1.43074 3.78566 0
M  V30 9878 H 862.792 -1.52698 2.72767 0
M  V30 9879 H 862.012 0.67335 3.88407 0
M  V30 9880 H 863.3 0.404862 5.07187 0
M  V30 9881 H 862.698 -2.77318 4.93063 0
M  V30 9882 H 861.255 -2.85472 5.8596 0
M  V30 9883 O 864.727 -1.46767 0.67391 0
M  V30 9884 H 865.418 -1.92604 0.205809 0
M  V30 END ATOM
M  V30 BEGIN BOND
M  V30 END BOND
M  V30 END CTAB
M  END
$$$$
