drugbank_target|P18509 Pituitary adenylate cyclase-activating polypeptide (DB03988)
 OpenBabel12092120283D

  0  0  0     0  0            999 V3000
M  V30 BEGIN CTAB
M  V30 COUNTS 2655 2684 0 0 0
M  V30 BEGIN ATOM
M  V30 1 H -0.908 1.98254 -0.117106 0
M  V30 2 N 0 1.576 0 0
M  V30 3 C 0.933 2.03868 1.02534 0
M  V30 4 C 1.911 0.928543 1.3348 0
M  V30 5 O 3.095 1.19667 1.45644 0
M  V30 6 C 0.222 2.43627 2.35294 0
M  V30 7 C -0.732 3.65373 2.2001 0
M  V30 8 S 0.101 5.13292 1.52614 0
M  V30 9 C 1.257 5.56322 2.86805 0
M  V30 10 H 1.49 2.90518 0.631377 0
M  V30 11 H -0.977 1.52953 0.210867 0
M  V30 12 H 0.981 2.67203 3.11629 0
M  V30 13 H -0.358 1.57376 2.7183 0
M  V30 14 H -1.165 3.90944 3.18086 0
M  V30 15 H -1.563 3.418 1.51819 0
M  V30 16 H 0.729 5.58782 3.83104 0
M  V30 17 H 1.672 6.56266 2.65933 0
M  V30 18 H 2.08 4.83886 2.90714 0
M  V30 19 N 1.4781 -0.272755 1.55222 0
M  V30 20 C 2.7061 -1.02255 1.79865 0
M  V30 21 C 3.1211 -1.79924 0.572088 0
M  V30 22 O 2.4781 -1.76638 -0.458842 0
M  V30 23 C 2.5291 -1.98094 3.02392 0
M  V30 24 O 2.2501 -1.23572 4.20311 0
M  V30 25 C 3.7511 -2.84884 3.39641 0
M  V30 26 H 0.9711 -0.302057 0.599168 0
M  V30 27 H 3.5151 -0.303465 2.02236 0
M  V30 28 H 1.6701 -2.65465 2.82147 0
M  V30 29 H 2.0841 -1.88172 4.89583 0
M  V30 30 H 3.5581 -3.47927 4.28545 0
M  V30 31 H 4.0351 -3.54665 2.59055 0
M  V30 32 H 4.6411 -2.23003 3.62146 0
M  V30 33 N 2.9562 -1.48159 -0.537278 0
M  V30 34 C 3.8892 -1.567 -1.65893 0
M  V30 35 C 4.8672 -0.41787 -1.57139 0
M  V30 36 O 6.0512 -0.628461 -1.77715 0
M  V30 37 C 3.1782 -1.48818 -3.04255 0
M  V30 38 C 2.2242 -2.68482 -3.31391 0
M  V30 39 S 3.0572 -4.30516 -3.1846 0
M  V30 40 C 4.2132 -4.2522 -4.59281 0
M  V30 41 H 4.4462 -2.5159 -1.58397 0
M  V30 42 H 1.9792 -1.36602 -0.719672 0
M  V30 43 H 3.9372 -1.44958 -3.84054 0
M  V30 44 H 2.5982 -0.552777 -3.09198 0
M  V30 45 H 1.7912 -2.59085 -4.32309 0
M  V30 46 H 1.3932 -2.69567 -2.59248 0
M  V30 47 H 3.6852 -3.94703 -5.5065 0
M  V30 48 H 4.6282 -5.26292 -4.73732 0
M  V30 49 H 5.0362 -3.55791 -4.38261 0
M  V30 50 N 4.4343 0.785586 -1.36625 0
M  V30 51 C 5.6743 1.55678 -1.32453 0
M  V30 52 C 6.0383 1.91769 0.0941089 0
M  V30 53 O 7.2393 2.67536 0.26042 0
M  V30 54 C 5.5103 2.79701 -2.22491 0
M  V30 55 S 7.0693 3.69907 -2.36038 0
M  V30 56 H 3.8873 0.533141 -0.470405 0
M  V30 57 H 6.4893 0.924953 -1.72235 0
M  V30 58 H 5.1933 2.51244 -3.24507 0
M  V30 59 H 4.7243 3.47854 -1.83742 0
M  V30 60 H 6.7393 4.71016 -1.56072 0
M  V30 61 N 5.9124 1.20967 1.01018 0
M  V30 62 C 7.1374 1.0503 1.78839 0
M  V30 63 C 7.5624 -0.395752 1.8389 0
M  V30 64 O 6.9204 -1.28529 1.27867 0
M  V30 65 C 6.9684 1.64602 3.2084 0
M  V30 66 O 6.0724 0.887988 4.02726 0
M  V30 67 H 5.4134 0.369987 0.551367 0
M  V30 68 H 7.9434 1.60399 1.27018 0
M  V30 69 H 7.9534 1.68607 3.71532 0
M  V30 70 H 6.6284 2.69841 3.16479 0
M  V30 71 H 5.2054 0.922648 3.61305 0
M  V30 72 N 7.3905 -1.2043 1.01659 0
M  V30 73 C 8.6385 -1.89423 0.704522 0
M  V30 74 C 8.9595 -1.79231 -0.768197 0
M  V30 75 O 8.2295 -1.1947 -1.55254 0
M  V30 76 H 6.8095 -0.701178 0.257602 0
M  V30 77 H 9.4715 -1.4626 1.28818 0
M  V30 78 H 8.5675 -2.96052 0.987916 0
M  V30 79 N 8.8686 -0.792821 -1.36206 0
M  V30 80 C 9.8316 -0.199459 -2.2833 0
M  V30 81 C 10.8316 0.605189 -1.48977 0
M  V30 82 O 12.0216 0.425685 -1.68919 0
M  V30 83 C 9.1536 0.723523 -3.33134 0
M  V30 84 H 10.3466 -1.01181 -2.82316 0
M  V30 85 H 7.8996 -0.562485 -1.45828 0
M  V30 86 H 8.6346 1.56008 -2.84309 0
M  V30 87 H 8.4196 0.148436 -3.91819 0
M  V30 88 H 9.9096 1.13344 -4.01924 0
M  V30 89 N 10.3467 1.47872 -0.545128 0
M  V30 90 C 11.7627 1.5829 -0.204032 0
M  V30 91 C 11.9627 1.54529 1.29317 0
M  V30 92 O 11.0187 1.44232 2.07252 0
M  V30 93 C 12.3317 2.89304 -0.819987 0
M  V30 94 C 13.8797 3.02864 -0.790105 0
M  V30 95 C 14.3547 4.3656 -1.38491 0
M  V30 96 N 15.8457 4.43165 -1.34755 0
M  V30 97 C 16.5807 5.45153 -1.77753 0
M  V30 98 N 16.0767 6.54016 -2.2855 0
M  V30 99 N 17.8697 5.36125 -1.68897 0
M  V30 100 H 10.0207 1.4856 -1.51802 0
M  V30 101 H 12.2837 0.706305 -0.632327 0
M  V30 102 H 11.9897 2.97757 -1.87173 0
M  V30 103 H 11.8637 3.75957 -0.305915 0
M  V30 104 H 14.2507 2.94014 0.252913 0
M  V30 105 H 14.3317 2.17782 -1.34181 0
M  V30 106 H 13.9757 4.46164 -2.42693 0
M  V30 107 H 13.9057 5.20353 -0.808754 0
M  V30 108 H 16.3967 3.65083 -0.975855 0
M  V30 109 H 16.7097 7.27994 -2.59314 0
M  V30 110 H 15.0547 6.54938 -2.32553 0
M  V30 111 H 18.2457 4.49975 -1.28998 0
M  V30 112 H 18.4187 6.15472 -2.02726 0
M  V30 113 N 11.8248 0.280983 1.55075 0
M  V30 114 C 12.7548 -0.597469 2.25727 0
M  V30 115 C 13.7358 -1.15417 1.24952 0
M  V30 116 O 14.9208 -1.18722 1.53684 0
M  V30 117 C 12.0508 -1.7789 2.98283 0
M  V30 118 C 11.0048 -1.35347 4.06036 0
M  V30 119 C 10.3308 -2.61846 4.66198 0
M  V30 120 C 11.6308 -0.499354 5.19907 0
M  V30 121 H 13.3248 -0.00824265 2.99399 0
M  V30 122 H 10.8708 -0.0025244 1.44 0
M  V30 123 H 12.8238 -2.39937 3.46422 0
M  V30 124 H 11.5478 -2.39405 2.22155 0
M  V30 125 H 10.2068 -0.756156 3.58717 0
M  V30 126 H 9.8548 -3.21632 3.86732 0
M  V30 127 H 9.5548 -2.3409 5.38958 0
M  V30 128 H 11.0788 -3.24732 5.1709 0
M  V30 129 H 12.4928 -1.02498 5.64063 0
M  V30 130 H 10.8898 -0.316424 5.99265 0
M  V30 131 H 11.9598 0.480459 4.82514 0
M  V30 132 N 13.3029 -1.57598 0.00835791 0
M  V30 133 C 14.2659 -2.07884 -0.965242 0
M  V30 134 C 15.2659 -0.989825 -1.26725 0
M  V30 135 O 16.4559 -1.25218 -1.21104 0
M  V30 136 C 13.5879 -2.52731 -2.28779 0
M  V30 137 H 14.7809 -2.95178 -0.530112 0
M  V30 138 H 12.3339 -1.54458 -0.239283 0
M  V30 139 H 13.0689 -1.68705 -2.76964 0
M  V30 140 H 12.8539 -3.32272 -2.08177 0
M  V30 141 H 14.3439 -2.91933 -2.98605 0
M  V30 142 N 14.781 0.264519 -1.55364 0
M  V30 143 C 15.711 1.33121 -1.91836 0
M  V30 144 C 16.692 1.51101 -0.781192 0
M  V30 145 O 17.877 1.64003 -1.04003 0
M  V30 146 C 15.007 2.68921 -2.19769 0
M  V30 147 C 13.961 2.65661 -3.35571 0
M  V30 148 C 13.287 4.05093 -3.49004 0
M  V30 149 C 14.587 2.24187 -4.71739 0
M  V30 150 H 16.281 1.02844 -2.81182 0
M  V30 151 H 13.827 0.493286 -1.35287 0
M  V30 152 H 15.78 3.43663 -2.43872 0
M  V30 153 H 14.504 3.00799 -1.27231 0
M  V30 154 H 13.163 1.93377 -3.1145 0
M  V30 155 H 12.811 4.34206 -2.53917 0
M  V30 156 H 12.511 4.03804 -4.26868 0
M  V30 157 H 14.035 4.81561 -3.75408 0
M  V30 158 H 15.449 2.88654 -4.9533 0
M  V30 159 H 13.846 2.34044 -5.52579 0
M  V30 160 H 14.916 1.19327 -4.69988 0
M  V30 161 N 16.2591 1.48442 0.529413 0
M  V30 162 C 17.1891 1.65902 1.64313 0
M  V30 163 C 18.1701 0.507897 1.6234 0
M  V30 164 O 19.3551 0.740503 1.79528 0
M  V30 165 C 16.4851 1.69911 3.02898 0
M  V30 166 C 15.4391 2.8453 3.19729 0
M  V30 167 C 14.7651 2.73629 4.59381 0
M  V30 168 C 16.0651 4.25821 3.02447 0
M  V30 169 H 17.7591 2.5914 1.49955 0
M  V30 170 H 15.3051 1.24709 0.719982 0
M  V30 171 H 17.2581 1.80715 3.80684 0
M  V30 172 H 15.9821 0.732524 3.18279 0
M  V30 173 H 14.6411 2.73283 2.44361 0
M  V30 174 H 14.2891 1.74938 4.71599 0
M  V30 175 H 13.9891 3.50541 4.71588 0
M  V30 176 H 15.5131 2.86401 5.39265 0
M  V30 177 H 16.9271 4.37898 3.70024 0
M  V30 178 H 15.3241 5.03735 3.26146 0
M  V30 179 H 16.3941 4.42244 1.98867 0
M  V30 180 N 17.7372 -0.778329 1.37039 0
M  V30 181 C 18.9832 -1.53892 1.32079 0
M  V30 182 C 19.3162 -1.9396 -0.0965386 0
M  V30 183 O 18.5912 -1.63568 -1.05242 0
M  V30 184 C 18.8742 -2.80847 2.25382 0
M  V30 185 C 18.7272 -2.47076 3.75864 0
M  V30 186 C 20.0462 -3.82741 2.1725 0
M  V30 187 H 17.1652 -0.558303 0.48111 0
M  V30 188 H 19.8072 -0.893397 1.67685 0
M  V30 189 H 17.9572 -3.35931 1.95148 0
M  V30 190 H 19.6292 -1.97957 4.16666 0
M  V30 191 H 17.8722 -1.79863 3.94755 0
M  V30 192 H 18.5432 -3.37798 4.36574 0
M  V30 193 H 21.0192 -3.37133 2.43887 0
M  V30 194 H 19.8952 -4.69303 2.84686 0
M  V30 195 H 20.1562 -4.2652 1.16331 0
M  V30 196 N 19.2153 -1.21501 -1.00376 0
M  V30 197 C 20.4453 -1.05746 -1.77486 0
M  V30 198 C 20.8533 0.395655 -1.85017 0
M  V30 199 O 20.1963 1.28626 -1.31152 0
M  V30 200 C 20.2583 -1.58092 -3.22873 0
M  V30 201 C 19.9223 -3.06568 -3.38917 0
M  V30 202 C 20.9193 -4.04106 -3.271 0
M  V30 203 C 18.6043 -3.45799 -3.64319 0
M  V30 204 C 20.5983 -5.38862 -3.40451 0
M  V30 205 C 18.2853 -4.80707 -3.77311 0
M  V30 206 C 19.2833 -5.77047 -3.65384 0
M  V30 207 O 18.9713 -7.09507 -3.77961 0
M  V30 208 H 18.7033 -0.371778 -0.564586 0
M  V30 209 H 21.2573 -1.61319 -1.27143 0
M  V30 210 H 19.4873 -0.969163 -3.74358 0
M  V30 211 H 21.1763 -1.38162 -3.81662 0
M  V30 212 H 21.9423 -3.75141 -3.07399 0
M  V30 213 H 17.8213 -2.71344 -3.72684 0
M  V30 214 H 21.3653 -6.14041 -3.31058 0
M  V30 215 H 17.2623 -5.09357 -3.96517 0
M  V30 216 H 18.0303 -7.16935 -3.94901 0
M  V30 217 N 20.6934 1.19889 -1.02296 0
M  V30 218 C 21.9414 1.89046 -0.714558 0
M  V30 219 C 22.2624 1.79636 0.758681 0
M  V30 220 O 21.5324 1.20292 1.54618 0
M  V30 221 H 20.1124 0.699802 -0.261317 0
M  V30 222 H 22.7744 1.45574 -1.29592 0
M  V30 223 H 21.8704 2.95524 -1.0036 0
M  V30 224 N 22.1715 0.800033 1.35784 0
M  V30 225 C 23.4205 0.37387 1.98205 0
M  V30 226 C 23.7335 -1.06302 1.64193 0
M  V30 227 O 24.9395 -1.59198 2.19928 0
M  V30 228 C 23.3955 0.617532 3.54562 0
M  V30 229 C 23.0035 2.06654 3.9749 0
M  V30 230 C 24.7475 0.256401 4.23725 0
M  V30 231 C 22.6545 2.2563 5.46667 0
M  V30 232 H 21.5845 0.136055 0.741623 0
M  V30 233 H 24.2355 0.983166 1.54939 0
M  V30 234 H 22.6175 -0.0616248 3.95952 0
M  V30 235 H 23.7915 2.78296 3.67271 0
M  V30 236 H 22.1065 2.38691 3.41197 0
M  V30 237 H 24.7035 0.376318 5.33374 0
M  V30 238 H 25.0465 -0.796692 4.08606 0
M  V30 239 H 25.5795 0.889214 3.87734 0
M  V30 240 H 22.3185 3.2936 5.66747 0
M  V30 241 H 21.8385 1.58504 5.78478 0
M  V30 242 H 23.5175 2.06861 6.1304 0
M  V30 243 N 23.6496 -1.47581 0.552962 0
M  V30 244 C 24.8986 -2.01684 0.0251995 0
M  V30 245 C 25.2116 -1.43317 -1.33115 0
M  V30 246 O 26.4176 -1.89057 -1.94858 0
M  V30 247 C 24.8736 -3.599 -0.00542052 0
M  V30 248 C 24.4816 -4.27257 1.34742 0
M  V30 249 C 26.2256 -4.21768 -0.4808 0
M  V30 250 C 24.1326 -5.77467 1.27614 0
M  V30 251 H 23.0626 -0.753979 0.00565033 0
M  V30 252 H 25.7136 -1.69616 0.70018 0
M  V30 253 H 24.0956 -3.88911 -0.745961 0
M  V30 254 H 25.2696 -4.09893 2.10534 0
M  V30 255 H 23.5846 -3.77358 1.76039 0
M  V30 256 H 26.1816 -5.31838 -0.55246 0
M  V30 257 H 26.5246 -3.88651 -1.49184 0
M  V30 258 H 27.0576 -3.97273 0.204752 0
M  V30 259 H 23.7966 -6.15196 2.26304 0
M  V30 260 H 23.3166 -5.9718 0.55996 0
M  V30 261 H 24.9956 -6.3959 0.976421 0
M  V30 262 N 25.1277 -0.289203 -1.54924 0
M  V30 263 C 26.0607 0.633823 -2.19221 0
M  V30 264 C 27.0387 1.14174 -1.15772 0
M  V30 265 O 28.2227 1.21211 -1.44361 0
M  V30 266 C 25.3497 1.86592 -2.82668 0
M  V30 267 C 24.3957 1.49227 -3.99542 0
M  V30 268 S 25.2287 0.558312 -5.32582 0
M  V30 269 C 26.3847 1.79847 -5.99505 0
M  V30 270 H 26.6177 0.0875416 -2.97171 0
M  V30 271 H 24.1507 -0.0733899 -1.54225 0
M  V30 272 H 26.1087 2.57305 -3.19851 0
M  V30 273 H 24.7697 2.38335 -2.04585 0
M  V30 274 H 23.9627 2.40945 -4.42676 0
M  V30 275 H 23.5647 0.865193 -3.63855 0
M  V30 276 H 25.8567 2.7406 -6.19595 0
M  V30 277 H 26.7997 1.4099 -6.93922 0
M  V30 278 H 27.2077 1.96982 -5.29016 0
M  V30 279 N 26.6058 1.57591 -0.0167156 0
M  V30 280 C 27.5558 2.05953 0.978137 0
M  V30 281 C 28.5398 0.957532 1.29306 0
M  V30 282 O 29.7318 1.22119 1.28125 0
M  V30 283 C 26.8608 2.58006 2.26468 0
M  V30 284 C 25.9468 3.75113 1.97867 0
M  V30 285 N 26.3378 4.86187 1.39486 0
M  V30 286 C 24.6358 3.83363 2.27924 0
M  V30 287 C 25.3368 5.67502 1.27735 0
M  V30 288 N 24.3128 5.14023 1.76866 0
M  V30 289 H 28.1148 2.89236 0.521522 0
M  V30 290 H 25.6288 1.61301 0.188596 0
M  V30 291 H 27.6258 2.90937 2.98599 0
M  V30 292 H 26.2858 1.76148 2.72767 0
M  V30 293 H 27.2968 5.06695 1.07147 0
M  V30 294 H 23.9738 3.1239 2.76982 0
M  V30 295 H 25.3638 6.66791 0.826978 0
M  V30 296 N 28.0839 -0.256276 1.55502 0
M  V30 297 C 29.3089 -1.00766 1.81276 0
M  V30 298 C 29.7339 -1.78524 0.59252 0
M  V30 299 O 29.0919 -1.75413 -0.45827 0
M  V30 300 C 29.1399 -1.92869 3.04687 0
M  V30 301 O 28.2439 -3.019 2.80945 0
M  V30 302 H 27.5849 -0.287224 0.598664 0
M  V30 303 H 30.1149 -0.280109 2.02674 0
M  V30 304 H 30.1249 -2.34511 3.33869 0
M  V30 305 H 28.7999 -1.35689 3.93143 0
M  V30 306 H 27.3769 -2.64454 2.62904 0
M  V30 307 N 29.562 -1.4872 -0.521534 0
M  V30 308 C 30.787 -1.61101 -1.30618 0
M  V30 309 C 31.212 -0.274611 -1.86085 0
M  V30 310 O 30.57 0.754937 -1.64834 0
M  V30 311 C 30.618 -2.66709 -2.4269 0
M  V30 312 O 29.722 -2.24456 -3.45967 0
M  V30 313 H 29.063 -0.539921 -0.386499 0
M  V30 314 H 31.593 -1.94767 -0.626645 0
M  V30 315 H 31.603 -2.88245 -2.88754 0
M  V30 316 H 30.278 -3.63727 -2.01682 0
M  V30 317 H 28.855 -2.13168 -3.05964 0
M  V30 318 N 31.0401 0.771051 -1.3745 0
M  V30 319 C 32.2861 1.5319 -1.32894 0
M  V30 320 C 32.6191 1.94008 0.0862511 0
M  V30 321 O 31.8941 1.64124 1.04373 0
M  V30 322 C 32.1771 2.79648 -2.26868 0
M  V30 323 C 32.0301 2.45079 -3.77169 0
M  V30 324 C 33.3491 3.81583 -2.19277 0
M  V30 325 H 30.4681 0.555744 -0.484064 0
M  V30 326 H 33.1101 0.884492 -1.68157 0
M  V30 327 H 31.2601 3.34891 -1.96926 0
M  V30 328 H 32.9321 1.95745 -4.1771 0
M  V30 329 H 31.1751 1.77767 -3.95704 0
M  V30 330 H 31.8461 3.35478 -4.38359 0
M  V30 331 H 34.3221 3.35835 -2.45671 0
M  V30 332 H 33.1981 4.67787 -2.87171 0
M  V30 333 H 33.4591 4.25897 -1.18592 0
M  V30 334 N 32.5182 1.22032 0.997298 0
M  V30 335 C 33.7482 1.06686 1.76923 0
M  V30 336 C 34.1562 -0.385838 1.85224 0
M  V30 337 O 33.4992 -1.27929 1.31833 0
M  V30 338 C 33.5612 1.59802 3.22031 0
M  V30 339 C 33.2252 3.08362 3.37286 0
M  V30 340 C 34.2222 4.05835 3.24952 0
M  V30 341 C 31.9072 3.47727 3.6248 0
M  V30 342 C 33.9012 5.4066 3.37588 0
M  V30 343 C 31.5882 4.82701 3.74757 0
M  V30 344 C 32.5862 5.78977 3.62319 0
M  V30 345 O 32.2742 7.11502 3.74193 0
M  V30 346 H 32.0062 0.374767 0.562606 0
M  V30 347 H 34.5602 1.61991 1.26286 0
M  V30 348 H 32.7902 0.989003 3.73839 0
M  V30 349 H 34.4792 1.40184 3.80924 0
M  V30 350 H 35.2452 3.76766 3.05405 0
M  V30 351 H 31.1242 2.73317 3.7124 0
M  V30 352 H 34.6682 6.15788 3.27796 0
M  V30 353 H 30.5652 5.11453 3.9381 0
M  V30 354 H 31.3332 7.19019 3.91093 0
M  V30 355 N 33.9963 -1.19345 1.0293 0
M  V30 356 C 35.2213 -1.93538 0.745511 0
M  V30 357 C 35.6463 -1.75007 -0.689511 0
M  V30 358 O 35.0043 -1.05265 -1.47611 0
M  V30 359 C 35.0523 -3.43336 1.10239 0
M  V30 360 O 34.1563 -4.11806 0.221289 0
M  V30 361 H 33.4973 -0.604193 0.275404 0
M  V30 362 H 36.0273 -1.5141 1.37609 0
M  V30 363 H 36.0373 -3.94004 1.05947 0
M  V30 364 H 34.7123 -3.56146 2.14786 0
M  V30 365 H 33.2893 -3.715 0.322842 0
M  V30 366 N 35.4744 -0.807222 -1.35358 0
M  V30 367 C 36.6994 -0.399309 -2.0352 0
M  V30 368 C 37.1244 0.981986 -1.60433 0
M  V30 369 O 36.4824 1.63601 -0.781299 0
M  V30 370 C 36.5304 -0.491552 -3.57234 0
M  V30 371 O 35.6344 0.494754 -4.09421 0
M  V30 372 H 34.9754 -0.166682 -0.642739 0
M  V30 373 H 37.5054 -1.09328 -1.72941 0
M  V30 374 H 37.5154 -0.361588 -4.06395 0
M  V30 375 H 36.1904 -1.49907 -3.87944 0
M  V30 376 H 34.7674 0.324977 -3.71481 0
M  V30 377 N 36.9525 1.47285 -0.560781 0
M  V30 378 C 38.3635 1.86258 -0.128343 0
M  V30 379 C 38.7145 1.46699 1.30284 0
M  V30 380 O 37.8395 0.871698 1.98067 0
M  V30 381 C 38.4345 3.38044 -0.22614 0
M  V30 382 C 36.9935 3.76096 0.151283 0
M  V30 383 C 36.1405 2.71335 -0.572084 0
M  V30 384 H 39.0915 1.38752 -0.770297 0
M  V30 385 H 39.1125 3.76441 0.554322 0
M  V30 386 H 38.6245 3.66806 -1.26788 0
M  V30 387 H 36.7255 3.52951 1.19399 0
M  V30 388 H 36.8385 4.78641 -0.209765 0
M  V30 389 H 35.2025 2.54696 -0.0147653 0
M  V30 390 H 35.9855 3.02938 -1.61504 0
M  V30 391 N 38.4306 0.297415 1.54768 0
M  V30 392 C 39.3936 -0.567375 2.22066 0
M  V30 393 C 40.3936 -1.06409 1.20556 0
M  V30 394 O 41.5836 -0.960691 1.45315 0
M  V30 395 C 38.7156 -1.78517 2.90421 0
M  V30 396 H 39.9086 0.0205534 2.99893 0
M  V30 397 H 37.4616 0.0482163 1.56226 0
M  V30 398 H 38.1966 -2.41303 2.16664 0
M  V30 399 H 37.9816 -1.43669 3.64831 0
M  V30 400 H 39.4716 -2.39964 3.41771 0
M  V30 401 N 39.9087 -1.5758 0.0250728 0
M  V30 402 C 40.8717 -2.08896 -0.943139 0
M  V30 403 C 41.8717 -1.00321 -1.25668 0
M  V30 404 O 43.0617 -1.26495 -1.19769 0
M  V30 405 C 40.1937 -2.55143 -2.26086 0
M  V30 406 H 41.3867 -2.95723 -0.498775 0
M  V30 407 H 38.9397 -1.54703 -0.222888 0
M  V30 408 H 39.6747 -1.71633 -2.75159 0
M  V30 409 H 39.4597 -3.34461 -2.04641 0
M  V30 410 H 40.9497 -2.95083 -2.95492 0
M  V30 411 N 41.3868 0.248026 -1.55636 0
M  V30 412 C 42.3498 1.29044 -1.89421 0
M  V30 413 C 43.3498 1.41134 -0.770581 0
M  V30 414 O 44.5398 1.39854 -1.03858 0
M  V30 415 C 41.6718 2.66831 -2.12165 0
M  V30 416 H 42.8648 1.00305 -2.82629 0
M  V30 417 H 40.4178 0.487265 -1.48511 0
M  V30 418 H 41.1528 3.00711 -1.21422 0
M  V30 419 H 40.9378 2.59438 -2.93997 0
M  V30 420 H 42.4278 3.42103 -2.3949 0
M  V30 421 N 42.8649 1.48995 0.513639 0
M  V30 422 C 44.1129 1.57531 1.26604 0
M  V30 423 C 44.4339 0.258236 1.93283 0
M  V30 424 O 43.7039 -0.721502 1.8213 0
M  V30 425 H 42.2839 0.580387 0.470276 0
M  V30 426 H 44.9459 1.85552 0.596373 0
M  V30 427 H 44.0419 2.36486 2.03669 0
M  V30 428 N 44.343 -0.763751 1.37857 0
M  V30 429 C 45.273 -1.89103 1.36975 0
M  V30 430 C 46.254 -1.68439 0.237152 0
M  V30 431 O 47.439 -1.8918 0.438713 0
M  V30 432 C 44.569 -3.26496 1.18395 0
M  V30 433 C 43.523 -3.61741 2.28751 0
M  V30 434 C 42.849 -4.97762 1.95286 0
M  V30 435 C 44.149 -3.67665 3.70972 0
M  V30 436 H 45.843 -1.90099 2.31307 0
M  V30 437 H 43.389 -0.91319 1.11341 0
M  V30 438 H 45.342 -4.05003 1.16406 0
M  V30 439 H 44.066 -3.25955 0.205215 0
M  V30 440 H 42.725 -2.85547 2.29909 0
M  V30 441 H 42.373 -4.93769 0.959221 0
M  V30 442 H 42.073 -5.22313 2.69189 0
M  V30 443 H 43.597 -5.7866 1.94898 0
M  V30 444 H 45.011 -4.36307 3.719 0
M  V30 445 H 43.408 -4.03718 4.43995 0
M  V30 446 H 44.478 -2.68134 4.0402 0
M  V30 447 N 45.8211 -1.22559 -0.990812 0
M  V30 448 C 47.2371 -0.985996 -1.255 0
M  V30 449 C 47.4371 0.319173 -1.98956 0
M  V30 450 O 46.4931 1.04127 -2.3003 0
M  V30 451 C 47.8061 -2.18607 -2.06474 0
M  V30 452 C 49.3541 -2.22985 -2.19651 0
M  V30 453 C 49.8291 -3.4255 -3.04012 0
M  V30 454 N 51.3201 -3.42725 -3.11599 0
M  V30 455 C 52.0551 -4.31892 -3.7717 0
M  V30 456 N 51.5511 -5.31279 -4.44651 0
M  V30 457 N 53.3441 -4.19662 -3.73952 0
M  V30 458 H 45.4951 -2.06469 -0.49841 0
M  V30 459 H 47.7581 -0.904853 -0.282747 0
M  V30 460 H 47.4641 -3.13267 -1.59865 0
M  V30 461 H 47.3381 -2.18838 -3.07229 0
M  V30 462 H 49.7251 -1.28871 -2.65474 0
M  V30 463 H 49.8061 -2.26791 -1.18319 0
M  V30 464 H 49.4501 -4.36965 -2.58889 0
M  V30 465 H 49.3801 -3.35984 -4.0549 0
M  V30 466 H 51.8711 -2.70807 -2.63575 0
M  V30 467 H 52.1841 -5.95593 -4.92431 0
M  V30 468 H 50.5291 -5.3519 -4.43392 0
M  V30 469 H 53.7201 -3.41268 -3.20396 0
M  V30 470 H 53.8931 -4.89358 -4.24774 0
M  V30 471 N 47.2992 1.18797 -1.03562 0
M  V30 472 C 48.5462 1.8865 -0.736023 0
M  V30 473 C 48.8742 1.80041 0.735889 0
M  V30 474 O 48.1292 1.19179 1.55225 0
M  V30 475 C 48.4282 3.38692 -1.14117 0
M  V30 476 C 48.0942 3.67504 -2.6125 0
M  V30 477 C 46.7562 3.75078 -3.01447 0
M  V30 478 C 49.1082 3.80293 -3.56408 0
M  V30 479 C 46.4362 3.92915 -4.35701 0
M  V30 480 C 48.7882 3.99645 -4.90374 0
M  V30 481 C 47.4522 4.05453 -5.30249 0
M  V30 482 H 46.7222 0.690321 -0.26933 0
M  V30 483 H 49.3692 1.40641 -1.29971 0
M  V30 484 H 47.6742 3.88645 -0.496202 0
M  V30 485 H 49.3712 3.91072 -0.886789 0
M  V30 486 H 45.9612 3.62223 -2.29113 0
M  V30 487 H 50.1452 3.73779 -3.26501 0
M  V30 488 H 45.4012 3.95653 -4.66121 0
M  V30 489 H 49.5752 4.08482 -5.64017 0
M  V30 490 H 47.2022 4.19027 -6.34288 0
M  V30 491 N 48.7773 0.814389 1.34928 0
M  V30 492 C 50.1883 0.458364 1.80986 0
M  V30 493 C 50.5393 -1.02042 1.67577 0
M  V30 494 O 49.6643 -1.79352 1.21086 0
M  V30 495 C 50.2593 0.825212 3.28597 0
M  V30 496 C 48.8183 0.521677 3.72767 0
M  V30 497 C 47.9653 1.04668 2.56788 0
M  V30 498 H 50.9163 1.00533 1.22795 0
M  V30 499 H 50.9373 0.12571 3.80292 0
M  V30 500 H 50.4493 1.90154 3.38324 0
M  V30 501 H 48.5503 -0.545589 3.68584 0
M  V30 502 H 48.6633 1.05977 4.67232 0
M  V30 503 H 47.0273 0.468622 2.50352 0
M  V30 504 H 47.8103 2.12927 2.6929 0
M  V30 505 N 50.2554 -1.46986 0.568584 0
M  V30 506 C 51.5034 -2.02041 0.0487022 0
M  V30 507 C 51.8244 -1.44408 -1.31039 0
M  V30 508 O 51.0944 -0.623477 -1.85714 0
M  V30 509 H 49.6744 -0.746849 0.015014 0
M  V30 510 H 52.3364 -1.80257 0.741168 0
M  V30 511 H 51.4324 -3.12085 -0.0308961 0
M  V30 512 N 51.7335 -0.305618 -1.54608 0
M  V30 513 C 52.9825 0.303098 -1.9941 0
M  V30 514 C 53.2955 1.54648 -1.19764 0
M  V30 515 O 54.5015 2.23007 -1.54855 0
M  V30 516 C 52.9575 0.590588 -3.55021 0
M  V30 517 C 52.5655 -0.634719 -4.43481 0
M  V30 518 C 54.3095 1.16025 -4.08336 0
M  V30 519 C 52.2165 -0.320126 -5.90533 0
M  V30 520 H 51.1465 0.117031 -0.744862 0
M  V30 521 H 53.7975 -0.415045 -1.78745 0
M  V30 522 H 52.1795 1.36845 -3.71604 0
M  V30 523 H 53.3535 -1.41079 -4.38672 0
M  V30 524 H 51.6685 -1.12333 -4.00962 0
M  V30 525 H 54.2655 1.40994 -5.15776 0
M  V30 526 H 54.6085 2.10397 -3.5922 0
M  V30 527 H 55.1415 0.443985 -3.95315 0
M  V30 528 H 51.8805 -1.23254 -6.43808 0
M  V30 529 H 51.4005 0.418579 -5.98338 0
M  V30 530 H 53.0795 0.0766241 -6.46955 0
M  V30 531 N 53.2116 1.57565 -0.0334293 0
M  V30 532 C 54.6276 1.56297 0.322997 0
M  V30 533 C 54.8276 1.03945 1.7262 0
M  V30 534 O 53.8836 0.688109 2.42943 0
M  V30 535 C 55.1966 3.00232 0.167664 0
M  V30 536 C 56.7446 3.12078 0.240107 0
M  V30 537 C 57.2196 4.57859 0.113513 0
M  V30 538 N 58.7106 4.62887 0.170359 0
M  V30 539 C 59.4456 5.73319 0.0962517 0
M  V30 540 N 58.9416 6.92794 -0.0291881 0
M  V30 541 N 60.7346 5.61898 0.150551 0
M  V30 542 H 52.8856 1.89923 -0.950956 0
M  V30 543 H 55.1486 0.873824 -0.367608 0
M  V30 544 H 54.8546 3.42501 -0.799102 0
M  V30 545 H 54.7286 3.654 0.936083 0
M  V30 546 H 57.1156 2.69718 1.19733 0
M  V30 547 H 57.1966 2.49623 -0.558763 0
M  V30 548 H 56.8406 5.009 -0.840314 0
M  V30 549 H 56.7706 5.18299 0.931302 0
M  V30 550 H 59.2616 3.76954 0.26728 0
M  V30 551 H 59.5746 7.7276 -0.0789252 0
M  V30 552 H 57.9196 6.94971 -0.0640299 0
M  V30 553 H 61.1106 4.67448 0.246981 0
M  V30 554 H 61.2836 6.47938 0.0893365 0
M  V30 555 N 54.6897 -0.239769 1.55765 0
M  V30 556 C 56.1007 -0.808263 1.68297 0
M  V30 557 C 56.4517 -1.85736 0.632181 0
M  V30 558 O 55.5767 -2.15277 -0.220204 0
M  V30 559 C 56.1717 -1.47284 3.05111 0
M  V30 560 C 54.7307 -1.98895 3.19559 0
M  V30 561 C 53.8777 -0.842575 2.64189 0
M  V30 562 H 56.8287 -0.0154422 1.58692 0
M  V30 563 H 56.8497 -2.34111 2.99954 0
M  V30 564 H 56.3617 -0.709053 3.81568 0
M  V30 565 H 54.4627 -2.78132 2.47938 0
M  V30 566 H 54.5757 -2.18143 4.26556 0
M  V30 567 H 52.9397 -1.24501 2.22197 0
M  V30 568 H 53.7227 -0.0917552 3.43177 0
M  V30 569 N 56.1678 -1.49265 -0.50573 0
M  V30 570 C 57.0778 -1.68312 -1.63427 0
M  V30 571 C 58.0938 -0.565682 -1.64548 0
M  V30 572 O 59.2698 -0.839801 -1.83055 0
M  V30 573 C 56.3348 -1.74107 -2.99813 0
M  V30 574 C 55.3958 -2.97653 -3.09356 0
M  V30 575 C 54.6288 -3.03163 -4.39236 0
M  V30 576 O 54.8518 -2.16396 -5.27758 0
M  V30 577 O 53.7858 -3.9558 -4.53652 0
M  V30 578 H 57.6118 -2.63907 -1.50289 0
M  V30 579 H 55.1968 -1.32951 -0.681502 0
M  V30 580 H 57.0788 -1.803 -3.80881 0
M  V30 581 H 55.7538 -0.816901 -3.13223 0
M  V30 582 H 54.6608 -2.96981 -2.27493 0
M  V30 583 H 55.9938 -3.89535 -3.00871 0
M  V30 584 N 57.6459 0.756429 -1.3826 0
M  V30 585 C 58.5559 1.9009 -1.37488 0
M  V30 586 C 59.5719 1.71855 -0.272366 0
M  V30 587 O 60.7479 1.94827 -0.510318 0
M  V30 588 C 57.8129 3.25421 -1.19592 0
M  V30 589 C 56.8739 3.56202 -2.39622 0
M  V30 590 C 56.1069 4.85075 -2.2257 0
M  V30 591 O 56.3299 5.57246 -1.21793 0
M  V30 592 O 55.2639 5.15269 -3.11098 0
M  V30 593 H 59.0899 1.93695 -2.33914 0
M  V30 594 H 56.6749 0.901313 -1.1915 0
M  V30 595 H 58.5569 4.06337 -1.11661 0
M  V30 596 H 57.2319 3.22634 -0.262486 0
M  V30 597 H 56.1389 2.75458 -2.53128 0
M  V30 598 H 57.4719 3.63747 -3.31586 0
M  V30 599 N 59.124 1.23083 0.984299 0
M  V30 600 C 60.034 1.02515 2.11016 0
M  V30 601 C 61.05 -0.0291702 1.73976 0
M  V30 602 O 62.226 0.165434 2.00719 0
M  V30 603 C 59.291 0.614673 3.41208 0
M  V30 604 C 58.352 1.74359 3.92297 0
M  V30 605 C 57.585 1.35261 5.16275 0
M  V30 606 O 57.808 0.235136 5.69915 0
M  V30 607 O 56.742 2.17227 5.61334 0
M  V30 608 H 60.568 1.96862 2.31255 0
M  V30 609 H 58.153 1.01753 1.09392 0
M  V30 610 H 60.035 0.396518 4.1953 0
M  V30 611 H 58.71 -0.299851 3.22308 0
M  V30 612 H 57.617 2.01635 3.1511 0
M  V30 613 H 58.95 2.63629 4.15645 0
M  V30 614 N 60.6021 -1.18246 1.0419 0
M  V30 615 C 61.5651 -2.20128 0.638452 0
M  V30 616 C 62.5651 -1.57885 -0.304805 0
M  V30 617 O 63.7551 -1.73967 -0.0900369 0
M  V30 618 C 60.8871 -3.4084 -0.0637751 0
M  V30 619 H 62.0801 -2.57336 1.54007 0
M  V30 620 H 59.6331 -1.32152 0.834598 0
M  V30 621 H 60.3681 -3.09166 -0.979136 0
M  V30 622 H 60.1531 -3.8726 0.614198 0
M  V30 623 H 61.6431 -4.16274 -0.332512 0
M  V30 624 N 62.0802 -0.821533 -1.34494 0
M  V30 625 C 63.3102 -0.421272 -2.02259 0
M  V30 626 C 63.7182 0.977047 -1.6202 0
M  V30 627 O 63.0612 1.64348 -0.820703 0
M  V30 628 C 63.1232 -0.44231 -3.56769 0
M  V30 629 C 62.7872 -1.79372 -4.20327 0
M  V30 630 C 63.7842 -2.75435 -4.40944 0
M  V30 631 C 61.4692 -2.08182 -4.57127 0
M  V30 632 C 63.4632 -3.98482 -4.97484 0
M  V30 633 C 61.1502 -3.31489 -5.13379 0
M  V30 634 C 62.1482 -4.26457 -5.33501 0
M  V30 635 O 61.8362 -5.47585 -5.88562 0
M  V30 636 H 61.5682 -0.167473 -0.654927 0
M  V30 637 H 64.1222 -1.11073 -1.72777 0
M  V30 638 H 62.3522 0.303836 -3.85505 0
M  V30 639 H 64.0412 -0.0622925 -4.05852 0
M  V30 640 H 64.8072 -2.54473 -4.12878 0
M  V30 641 H 60.6862 -1.35066 -4.4077 0
M  V30 642 H 64.2302 -4.72618 -5.13106 0
M  V30 643 H 60.1272 -3.52316 -5.40873 0
M  V30 644 H 60.8952 -5.49086 -6.06998 0
M  V30 645 N 63.5583 1.46682 -0.576371 0
M  V30 646 C 64.8063 2.02013 -0.0594163 0
M  V30 647 C 65.1273 1.45101 1.30271 0
M  V30 648 O 64.3973 0.633317 1.8538 0
M  V30 649 H 62.9773 0.746759 -0.0189745 0
M  V30 650 H 65.6393 1.79862 -0.750717 0
M  V30 651 H 64.7353 3.12097 0.014345 0
M  V30 652 N 65.0364 0.313813 1.54444 0
M  V30 653 C 65.9464 -0.565714 2.27677 0
M  V30 654 C 66.9624 -1.13754 1.31666 0
M  V30 655 O 68.1384 -1.15959 1.64668 0
M  V30 656 C 65.2034 -1.71528 3.01296 0
M  V30 657 C 64.2644 -1.17624 4.12872 0
M  V30 658 C 63.4974 -2.27102 4.8297 0
M  V30 659 O 63.7204 -3.47256 4.52514 0
M  V30 660 O 62.6544 -1.9307 5.70094 0
M  V30 661 H 66.4804 0.0287296 3.03686 0
M  V30 662 H 64.0654 0.0798312 1.49187 0
M  V30 663 H 65.9474 -2.38476 3.4743 0
M  V30 664 H 64.6224 -2.29608 2.2817 0
M  V30 665 H 63.5294 -0.472124 3.71109 0
M  V30 666 H 64.8624 -0.640695 4.88012 0
M  V30 667 N 66.5145 -1.57545 0.0417849 0
M  V30 668 C 67.7915 -1.83642 -0.673433 0
M  V30 669 C 68.1715 -0.928298 -1.89594 0
M  V30 670 O 67.5195 0.0129955 -2.28496 0
M  V30 671 C 67.7295 -3.33155 -1.03964 0
M  V30 672 C 69.0775 -3.99941 -1.42592 0
M  V30 673 O 70.1015 -3.37725 -1.13226 0
M  V30 674 O 68.9605 -5.09619 -1.9736 0
M  V30 675 H 66.0545 -0.757638 -0.331533 0
M  V30 676 H 68.6005 -1.69554 0.070433 0
M  V30 677 H 67.3725 -3.9093 -0.170098 0
M  V30 678 H 66.9955 -3.52396 -1.84126 0
M  V30 679 N 67.9926 0.231505 -1.5589 0
M  V30 680 C 69.2406 0.955461 -1.78088 0
M  V30 681 C 69.5616 1.85262 -0.608533 0
M  V30 682 O 68.8316 1.92277 0.375035 0
M  V30 683 H 67.4116 0.355787 -0.656829 0
M  V30 684 H 70.0736 0.245751 -1.93344 0
M  V30 685 H 69.1696 1.56814 -2.69844 0
M  V30 686 N 69.4707 1.49531 0.497807 0
M  V30 687 C 70.4187 1.66926 1.61983 0
M  V30 688 C 71.4127 0.535167 1.60724 0
M  V30 689 O 72.6187 0.714896 1.65195 0
M  V30 690 H 68.9937 0.526415 0.537021 0
M  V30 691 H 70.9647 2.61098 1.44465 0
M  V30 692 C 69.7137 1.75602 3.00099 0
M  V30 693 H 69.0367 2.62244 3.01775 0
M  V30 694 H 70.4767 1.91807 3.78135 0
M  V30 695 C 68.9357 0.501543 3.33146 0
M  V30 696 O 69.4657 -0.371342 3.9998 0
M  V30 697 N 67.6717 0.363531 2.88317 0
M  V30 698 H 67.2187 1.07485 2.34104 0
M  V30 699 H 67.1767 -0.474728 3.10795 0
M  V30 700 N 70.9488 -0.749086 1.3866 0
M  V30 701 C 72.3598 -1.32664 1.31366 0
M  V30 702 C 72.7108 -1.96179 -0.028484 0
M  V30 703 O 71.8358 -1.9537 -0.93057 0
M  V30 704 C 72.4308 -2.41219 2.37905 0
M  V30 705 C 70.9898 -2.94684 2.34176 0
M  V30 706 C 70.1368 -1.68108 2.20533 0
M  V30 707 H 73.0878 -0.547628 1.48952 0
M  V30 708 H 73.1088 -3.21268 2.0388 0
M  V30 709 H 72.6208 -1.94962 3.35576 0
M  V30 710 H 70.7218 -3.45258 1.401 0
M  V30 711 H 70.8348 -3.48757 3.2849 0
M  V30 712 H 69.1988 -1.91907 1.67463 0
M  V30 713 H 69.9818 -1.23923 3.20153 0
M  V30 714 N 72.4269 -1.23603 -0.977757 0
M  V30 715 C 73.3569 -1.04401 -2.0886 0
M  V30 716 C 74.3379 0.0399052 -1.70053 0
M  V30 717 O 75.5229 -0.125246 -1.93796 0
M  V30 718 C 72.6529 -0.637269 -3.41403 0
M  V30 719 C 71.6069 -1.66883 -3.94124 0
M  V30 720 C 70.9329 -1.11745 -5.22893 0
M  V30 721 C 72.2329 -3.06247 -4.23096 0
M  V30 722 H 73.9269 -1.97316 -2.25182 0
M  V30 723 H 71.4729 -0.950096 -1.08209 0
M  V30 724 H 73.4259 -0.48998 -4.18542 0
M  V30 725 H 72.1499 0.327557 -3.24953 0
M  V30 726 H 70.8089 -1.80416 -3.19133 0
M  V30 727 H 70.4569 -0.143527 -5.02795 0
M  V30 728 H 70.1569 -1.80672 -5.59134 0
M  V30 729 H 71.6809 -0.982067 -6.02651 0
M  V30 730 H 73.0949 -2.96001 -4.90975 0
M  V30 731 H 71.4919 -3.72436 -4.70544 0
M  V30 732 H 72.5619 -3.55041 -3.30263 0
M  V30 733 N 73.905 1.17692 -1.04816 0
M  V30 734 C 75.316 1.69501 -0.782698 0
M  V30 735 C 75.667 1.83456 0.695577 0
M  V30 736 O 74.792 1.51942 1.54086 0
M  V30 737 C 75.387 3.07874 -1.41419 0
M  V30 738 C 73.946 3.56864 -1.19686 0
M  V30 739 C 73.093 2.3322 -1.50012 0
M  V30 740 H 76.044 1.02262 -1.2136 0
M  V30 741 H 76.065 3.71528 -0.821428 0
M  V30 742 H 75.577 2.97685 -2.49009 0
M  V30 743 H 73.678 3.72337 -0.140043 0
M  V30 744 H 73.791 4.39851 -1.89916 0
M  V30 745 H 72.155 2.37501 -0.920071 0
M  V30 746 H 72.938 2.25644 -2.58727 0
M  V30 747 N 75.3831 0.828654 1.34056 0
M  V30 748 C 76.6601 0.341809 1.9259 0
M  V30 749 C 77.0401 -1.17158 1.75605 0
M  V30 750 O 76.3881 -1.98132 1.13824 0
M  V30 751 C 76.5981 0.777453 3.4023 0
M  V30 752 C 77.9461 0.779579 4.17382 0
M  V30 753 O 78.9701 0.7204 3.48839 0
M  V30 754 O 77.8291 0.857996 5.39723 0
M  V30 755 H 74.9231 0.0946085 0.821571 0
M  V30 756 H 77.4691 0.913827 1.42994 0
M  V30 757 H 76.2411 1.8196 3.46419 0
M  V30 758 H 75.8641 0.181444 3.97186 0
M  V30 759 N 76.8612 -1.46375 0.584142 0
M  V30 760 C 78.1082 -2.02378 0.0702675 0
M  V30 761 C 78.4362 -1.45545 -1.29023 0
M  V30 762 O 77.6912 -0.610967 -1.85918 0
M  V30 763 C 77.9902 -3.57373 -0.0439342 0
M  V30 764 C 77.6562 -4.33252 1.24915 0
M  V30 765 C 76.3182 -4.53701 1.60341 0
M  V30 766 C 78.6702 -4.7681 2.1048 0
M  V30 767 C 75.9982 -5.1496 2.81128 0
M  V30 768 C 78.3502 -5.39404 3.30494 0
M  V30 769 C 77.0142 -5.5808 3.66201 0
M  V30 770 H 76.2842 -0.740554 0.0257127 0
M  V30 771 H 78.9312 -1.75727 0.761065 0
M  V30 772 H 77.2362 -3.83169 -0.817869 0
M  V30 773 H 78.9332 -3.98384 -0.457318 0
M  V30 774 H 75.5232 -4.17633 0.963364 0
M  V30 775 H 79.7072 -4.60766 1.84414 0
M  V30 776 H 74.9632 -5.27611 3.08928 0
M  V30 777 H 79.1372 -5.72114 3.97063 0
M  V30 778 H 76.7642 -6.05318 4.59885 0
M  V30 779 N 78.3393 -0.321999 -1.54275 0
M  V30 780 C 79.6163 0.335232 -1.92706 0
M  V30 781 C 79.9963 1.70006 -1.25145 0
M  V30 782 O 79.3443 2.25067 -0.394596 0
M  V30 783 C 79.5543 0.429008 -3.46353 0
M  V30 784 C 80.9023 0.690029 -4.18956 0
M  V30 785 O 81.9263 0.511992 -3.52501 0
M  V30 786 O 80.7853 1.03338 -5.36641 0
M  V30 787 H 77.8793 0.191143 -0.804608 0
M  V30 788 H 80.4253 -0.3716 -1.65581 0
M  V30 789 H 79.1973 -0.529611 -3.87699 0
M  V30 790 H 78.8203 1.18348 -3.79578 0
M  V30 791 N 79.8174 1.5752 -0.0501392 0
M  V30 792 C 81.0654 1.9227 0.622642 0
M  V30 793 C 81.3864 0.929083 1.71444 0
M  V30 794 O 80.6564 -0.0262186 1.95882 0
M  V30 795 H 79.2364 0.709739 0.232981 0
M  V30 796 H 81.8984 1.94628 -0.102898 0
M  V30 797 H 80.9944 2.93479 1.06191 0
M  V30 798 N 81.2955 -0.223234 1.56011 0
M  V30 799 C 82.5205 -0.968978 1.83373 0
M  V30 800 C 82.9455 -1.77227 0.630254 0
M  V30 801 O 82.3035 -1.76345 -0.420959 0
M  V30 802 C 82.3515 -1.86363 3.08709 0
M  V30 803 O 81.4555 -2.95873 2.87285 0
M  V30 804 H 80.7965 -0.274461 0.604622 0
M  V30 805 H 83.3265 -0.237056 2.03222 0
M  V30 806 H 83.3365 -2.27376 3.38768 0
M  V30 807 H 82.0115 -1.27319 3.95933 0
M  V30 808 H 80.5885 -2.58818 2.68454 0
M  V30 809 N 82.7736 -1.49793 -0.48987 0
M  V30 810 C 83.6836 -1.70036 -1.61632 0
M  V30 811 C 84.6996 -0.583102 -1.63939 0
M  V30 812 O 85.8756 -0.859169 -1.82154 0
M  V30 813 C 82.9406 -1.77277 -2.97949 0
M  V30 814 C 82.0016 -3.00918 -3.06181 0
M  V30 815 C 81.2346 -3.07804 -4.35996 0
M  V30 816 O 81.4576 -2.21982 -5.25433 0
M  V30 817 O 80.3916 -4.00369 -4.49431 0
M  V30 818 H 84.2176 -2.65486 -1.47482 0
M  V30 819 H 81.8026 -1.33666 -0.667362 0
M  V30 820 H 83.6846 -1.84329 -3.78947 0
M  V30 821 H 82.3596 -0.850076 -3.12339 0
M  V30 822 H 81.2666 -2.99377 -2.2433 0
M  V30 823 H 82.5996 -3.92704 -2.96723 0
M  V30 824 N 84.2517 0.741722 -1.39055 0
M  V30 825 C 85.6627 1.31966 -1.32068 0
M  V30 826 C 86.0137 1.96192 0.0180797 0
M  V30 827 O 85.1387 1.95861 0.920196 0
M  V30 828 C 85.7337 2.39954 -2.39181 0
M  V30 829 C 84.2927 2.93438 -2.35735 0
M  V30 830 C 83.4397 1.66936 -2.21422 0
M  V30 831 H 86.3907 0.539721 -1.4924 0
M  V30 832 H 86.4117 3.20182 -2.05581 0
M  V30 833 H 85.9237 1.9318 -3.36605 0
M  V30 834 H 84.0247 3.4451 -1.41929 0
M  V30 835 H 84.1377 3.4701 -3.30335 0
M  V30 836 H 82.5017 1.91016 -1.68478 0
M  V30 837 H 83.2847 1.22224 -3.20806 0
M  V30 838 N 85.7298 1.2412 0.971189 0
M  V30 839 C 87.1408 1.07236 1.52831 0
M  V30 840 C 87.4918 -0.357352 1.92918 0
M  V30 841 O 86.6168 -1.24528 1.76979 0
M  V30 842 C 87.2118 1.94043 2.77728 0
M  V30 843 C 85.7708 1.81394 3.29808 0
M  V30 844 C 84.9178 1.89189 2.02738 0
M  V30 845 H 87.8688 1.37648 0.789864 0
M  V30 846 H 87.8898 1.47066 3.5093 0
M  V30 847 H 87.4018 2.98093 2.4852 0
M  V30 848 H 85.5028 0.801634 3.63874 0
M  V30 849 H 85.6158 2.65294 3.98944 0
M  V30 850 H 83.9798 1.32877 2.17292 0
M  V30 851 H 84.7628 2.94812 1.759 0
M  V30 852 N 87.2079 -1.17134 1.05439 0
M  V30 853 C 88.4559 -1.87085 0.764429 0
M  V30 854 C 88.7769 -1.81584 -0.710787 0
M  V30 855 O 88.0469 -1.24349 -1.51374 0
M  V30 856 H 86.6269 -0.692627 0.279779 0
M  V30 857 H 89.2889 -1.42087 1.33406 0
M  V30 858 H 88.3849 -2.92759 1.0816 0
M  V30 859 N 88.686 -0.835752 -1.33615 0
M  V30 860 C 89.649 -0.272 -2.2758 0
M  V30 861 C 90.649 0.557487 -1.50827 0
M  V30 862 O 91.839 0.37173 -1.70188 0
M  V30 863 C 88.971 0.617173 -3.35267 0
M  V30 864 H 90.164 -1.10111 -2.78954 0
M  V30 865 H 87.717 -0.608594 -1.43965 0
M  V30 866 H 88.452 1.46884 -2.89129 0
M  V30 867 H 88.237 0.0237066 -3.92093 0
M  V30 868 H 89.727 1.005 -4.05326 0
M  V30 869 N 90.1641 1.46063 -0.591896 0
M  V30 870 C 91.4121 2.01938 -0.0808391 0
M  V30 871 C 91.7331 1.46475 1.28725 0
M  V30 872 O 91.0031 0.652944 1.84698 0
M  V30 873 H 89.5831 0.746516 -0.0268938 0
M  V30 874 H 92.2451 1.79055 -0.769752 0
M  V30 875 H 91.3411 3.12094 -0.0187578 0
M  V30 876 N 91.6422 0.330177 1.54103 0
M  V30 877 C 92.8672 -0.274893 2.0557 0
M  V30 878 C 93.2922 -1.44487 1.20437 0
M  V30 879 O 92.6502 -1.80021 0.214991 0
M  V30 880 C 92.6982 -0.68079 3.54115 0
M  V30 881 O 91.8022 -1.7824 3.71893 0
M  V30 882 H 91.1432 -0.0483849 0.662235 0
M  V30 883 H 93.6732 0.480508 1.98878 0
M  V30 884 H 93.6832 -0.961635 3.96505 0
M  V30 885 H 92.3582 0.174903 4.15532 0
M  V30 886 H 90.9352 -1.49985 3.41407 0
M  V30 887 N 93.1203 -1.57491 0.0584922 0
M  V30 888 C 94.5313 -1.80526 -0.476138 0
M  V30 889 C 94.8823 -0.971334 -1.70469 0
M  V30 890 O 94.0073 -0.190012 -2.15564 0
M  V30 891 C 94.6023 -3.27424 -0.870587 0
M  V30 892 C 93.1613 -3.51351 -1.35015 0
M  V30 893 C 92.3083 -2.75343 -0.32887 0
M  V30 894 H 95.2593 -1.56133 0.284312 0
M  V30 895 H 95.2803 -3.38745 -1.73299 0
M  V30 896 H 94.7923 -3.88093 0.0237627 0
M  V30 897 H 92.8933 -2.95971 -2.26345 0
M  V30 898 H 93.0063 -4.60059 -1.33726 0
M  V30 899 H 91.3703 -2.417 -0.803321 0
M  V30 900 H 92.1533 -3.38743 0.557521 0
M  V30 901 N 94.5984 0.214957 -1.56127 0
M  V30 902 C 95.5614 1.24997 -1.92116 0
M  V30 903 C 96.5614 1.39467 -0.800344 0
M  V30 904 O 97.7514 1.37619 -1.06802 0
M  V30 905 C 94.8834 2.62271 -2.17777 0
M  V30 906 H 96.0764 0.942875 -2.84693 0
M  V30 907 H 93.6294 0.455654 -1.49511 0
M  V30 908 H 94.3644 2.98068 -1.27773 0
M  V30 909 H 94.1494 2.53143 -2.99434 0
M  V30 910 H 95.6394 3.36946 -2.46693 0
M  V30 911 N 96.0765 1.50051 0.48192 0
M  V30 912 C 97.3015 1.64508 1.26301 0
M  V30 913 C 97.7265 0.323851 1.85291 0
M  V30 914 O 97.0845 -0.710969 1.66778 0
M  V30 915 C 97.1325 2.7305 2.35533 0
M  V30 916 O 96.2365 2.3355 3.39895 0
M  V30 917 H 95.5775 0.549978 0.372048 0
M  V30 918 H 98.1075 1.9636 0.574786 0
M  V30 919 H 98.1175 2.95799 2.8101 0
M  V30 920 H 96.7925 3.68946 1.91967 0
M  V30 921 H 95.3695 2.21205 3.00204 0
M  V30 922 N 97.5546 -0.734337 1.39446 0
M  V30 923 C 98.5176 -1.83004 1.37994 0
M  V30 924 C 99.5176 -1.58397 0.276938 0
M  V30 925 O 100.708 -1.65785 0.534875 0
M  V30 926 C 97.8396 -3.20802 1.1532 0
M  V30 927 H 99.0326 -1.85694 2.35494 0
M  V30 928 H 96.5856 -0.938059 1.25021 0
M  V30 929 H 97.3206 -3.23772 0.185036 0
M  V30 930 H 97.1056 -3.4006 1.95197 0
M  V30 931 H 98.5956 -4.00862 1.17046 0
M  V30 932 N 99.0327 -1.24633 -0.964593 0
M  V30 933 C 100.444 -1.08045 -1.5226 0
M  V30 934 C 100.795 0.347116 -1.93105 0
M  V30 935 O 99.9197 1.23588 -1.77637 0
M  V30 936 C 100.515 -1.95514 -2.76695 0
M  V30 937 C 99.0737 -1.8314 -3.28841 0
M  V30 938 C 98.2207 -1.90262 -2.01732 0
M  V30 939 H 101.172 -1.38064 -0.782553 0
M  V30 940 H 101.193 -1.48925 -3.50145 0
M  V30 941 H 100.705 -2.99407 -2.46936 0
M  V30 942 H 98.8057 -0.82092 -3.63444 0
M  V30 943 H 98.9187 -2.67406 -3.97531 0
M  V30 944 H 97.2827 -1.34027 -2.16584 0
M  V30 945 H 98.0657 -2.9574 -1.74334 0
M  V30 946 N 100.511 1.16574 -1.06058 0
M  V30 947 C 101.927 1.3904 -0.783585 0
M  V30 948 C 102.127 1.91784 0.618145 0
M  V30 949 O 101.183 2.11511 1.37911 0
M  V30 950 C 102.496 2.37329 -1.84649 0
M  V30 951 C 104.044 2.51018 -1.86973 0
M  V30 952 C 104.519 3.52588 -2.92311 0
M  V30 953 N 106.01 3.60113 -2.91329 0
M  V30 954 C 106.745 4.38486 -3.69482 0
M  V30 955 N 106.241 5.20302 -4.57447 0
M  V30 956 N 108.034 4.33446 -3.57885 0
M  V30 957 H 100.185 0.806725 -1.96483 0
M  V30 958 H 102.448 0.417117 -0.851303 0
M  V30 959 H 102.154 2.05663 -2.85299 0
M  V30 960 H 102.028 3.36946 -1.6955 0
M  V30 961 H 104.415 2.81989 -0.869827 0
M  V30 962 H 104.496 1.51445 -2.0615 0
M  V30 963 H 104.14 3.22354 -3.92492 0
M  V30 964 H 104.07 4.51886 -2.70383 0
M  V30 965 H 106.561 3.01707 -2.27555 0
M  V30 966 H 106.874 5.77311 -5.13743 0
M  V30 967 H 105.219 5.19653 -4.61503 0
M  V30 968 H 108.41 3.68586 -2.88551 0
M  V30 969 H 108.583 4.94279 -4.19037 0
M  V30 970 N 101.989 0.842826 1.3317 0
M  V30 971 C 102.952 0.284065 2.27433 0
M  V30 972 C 103.952 -0.54948 1.5112 0
M  V30 973 O 105.142 -0.362699 1.70382 0
M  V30 974 C 102.274 -0.599384 3.35589 0
M  V30 975 H 103.467 1.11589 2.78366 0
M  V30 976 H 101.02 0.616221 1.4364 0
M  V30 977 H 101.755 -1.45349 2.89904 0
M  V30 978 H 101.54 -0.00291266 3.921 0
M  V30 979 H 103.03 -0.983488 4.05854 0
M  V30 980 N 103.467 -1.45747 0.599634 0
M  V30 981 C 104.43 -2.28917 -0.113835 0
M  V30 982 C 105.43 -1.3933 -0.802729 0
M  V30 983 O 106.62 -1.61534 -0.652103 0
M  V30 984 C 103.752 -3.20152 -1.17114 0
M  V30 985 H 104.945 -2.93478 0.617289 0
M  V30 986 H 102.498 -1.52137 0.358327 0
M  V30 987 H 103.233 -2.60374 -1.93329 0
M  V30 988 H 103.018 -3.86133 -0.681468 0
M  V30 989 H 104.508 -3.82708 -1.67105 0
M  V30 990 N 104.945 -0.338344 -1.53925 0
M  V30 991 C 105.908 0.508299 -2.23493 0
M  V30 992 C 106.908 1.03175 -1.23335 0
M  V30 993 O 108.098 0.921826 -1.47811 0
M  V30 994 C 105.23 1.70754 -2.95052 0
M  V30 995 H 106.423 -0.100058 -2.99733 0
M  V30 996 H 103.976 -0.0896198 -1.56043 0
M  V30 997 H 104.711 2.35474 -2.22986 0
M  V30 998 H 104.496 1.33946 -3.68512 0
M  V30 999 H 105.986 2.30818 -3.48013 0
M  V30 1000 N 106.423 1.57458 -0.0668435 0
M  V30 1001 C 107.386 2.11323 0.887422 0
M  V30 1002 C 108.386 1.03618 1.22964 0
M  V30 1003 O 109.576 1.29626 1.16373 0
M  V30 1004 C 106.708 2.61048 2.19242 0
M  V30 1005 H 107.901 2.96942 0.420194 0
M  V30 1006 H 105.454 1.55239 0.181793 0
M  V30 1007 H 106.189 1.78868 2.70512 0
M  V30 1008 H 105.974 3.39769 1.95702 0
M  V30 1009 H 107.464 3.02814 2.87565 0
M  V30 1010 N 107.901 -0.206675 1.56239 0
M  V30 1011 C 109.147 -0.925733 1.81113 0
M  V30 1012 C 109.502 -1.81368 0.642135 0
M  V30 1013 O 108.795 -1.88126 -0.363211 0
M  V30 1014 C 108.989 -1.78675 3.09532 0
M  V30 1015 C 108.818 -0.98365 4.3881 0
M  V30 1016 C 107.588 -0.672661 5.00803 0
M  V30 1017 C 109.786 -0.341847 5.13163 0
M  V30 1018 N 107.768 0.150283 6.13716 0
M  V30 1019 C 109.139 0.343815 6.19046 0
M  V30 1020 C 111.194 -0.256392 4.97239 0
M  V30 1021 C 109.897 1.10678 7.10734 0
M  V30 1022 C 111.923 0.493142 5.8934 0
M  V30 1023 C 111.285 1.16729 6.94661 0
M  V30 1024 H 107.384 -0.318524 0.714189 0
M  V30 1025 H 109.968 -0.195378 1.93717 0
M  V30 1026 H 108.139 -2.4888 2.98183 0
M  V30 1027 H 109.871 -2.44441 3.22538 0
M  V30 1028 H 106.626 -0.994294 4.63045 0
M  V30 1029 H 107.05 0.551026 6.74754 0
M  V30 1030 H 111.692 -0.763249 4.15854 0
M  V30 1031 H 109.41 1.6251 7.91591 0
M  V30 1032 H 112.996 0.560465 5.79094 0
M  V30 1033 H 111.876 1.738 7.64698 0
M  V30 1034 N 109.379 -1.50304 -0.473955 0
M  V30 1035 C 110.609 -1.64663 -1.24778 0
M  V30 1036 C 111.017 -0.328174 -1.86332 0
M  V30 1037 O 110.36 0.699536 -1.69859 0
M  V30 1038 C 110.422 -2.6778 -2.39863 0
M  V30 1039 C 110.086 -4.11413 -1.98969 0
M  V30 1040 C 111.083 -4.97372 -1.51385 0
M  V30 1041 C 108.768 -4.57312 -2.07777 0
M  V30 1042 C 110.762 -6.27277 -1.13148 0
M  V30 1043 C 108.449 -5.87223 -1.69152 0
M  V30 1044 C 109.447 -6.72031 -1.21915 0
M  V30 1045 O 109.135 -7.99518 -0.838237 0
M  V30 1046 H 108.867 -0.556602 -0.383627 0
M  V30 1047 H 111.421 -1.9726 -0.572491 0
M  V30 1048 H 109.651 -2.30419 -3.10554 0
M  V30 1049 H 111.34 -2.71388 -3.01833 0
M  V30 1050 H 112.106 -4.63128 -1.44004 0
M  V30 1051 H 107.985 -3.91449 -2.43493 0
M  V30 1052 H 111.529 -6.93425 -0.762077 0
M  V30 1053 H 107.426 -6.20989 -1.76191 0
M  V30 1054 H 108.194 -8.12764 -0.967339 0
M  V30 1055 N 110.857 0.726932 -1.39834 0
M  V30 1056 C 112.273 1.03354 -1.21615 0
M  V30 1057 C 112.473 2.01327 -0.08338 0
M  V30 1058 O 111.529 2.46158 0.56238 0
M  V30 1059 C 112.842 1.58811 -2.55342 0
M  V30 1060 C 114.39 1.70851 -2.62257 0
M  V30 1061 C 114.865 2.29716 -3.96225 0
M  V30 1062 N 116.356 2.37116 -3.97907 0
M  V30 1063 C 117.091 2.83619 -4.98345 0
M  V30 1064 N 116.587 3.29958 -6.09179 0
M  V30 1065 N 118.38 2.82901 -4.8572 0
M  V30 1066 H 110.531 0.0773069 -2.12259 0
M  V30 1067 H 112.794 0.0969102 -0.943034 0
M  V30 1068 H 112.5 0.942855 -3.38826 0
M  V30 1069 H 112.374 2.57502 -2.75632 0
M  V30 1070 H 114.761 2.34497 -1.79152 0
M  V30 1071 H 114.842 0.707913 -2.45809 0
M  V30 1072 H 114.486 1.66696 -4.79765 0
M  V30 1073 H 114.416 3.30469 -4.09997 0
M  V30 1074 H 116.907 2.04374 -3.17868 0
M  V30 1075 H 117.22 3.63976 -6.8172 0
M  V30 1076 H 115.565 3.27946 -6.12761 0
M  V30 1077 H 118.756 2.46027 -3.98231 0
M  V30 1078 H 118.929 3.18827 -5.6414 0
M  V30 1079 N 112.336 1.25143 0.95797 0
M  V30 1080 C 113.747 1.08851 1.51685 0
M  V30 1081 C 114.098 -0.33687 1.93286 0
M  V30 1082 O 113.223 -1.22644 1.7829 0
M  V30 1083 C 113.818 1.96978 2.75654 0
M  V30 1084 C 112.377 1.84881 3.27866 0
M  V30 1085 C 111.524 1.91329 2.0072 0
M  V30 1086 H 114.475 1.38478 0.77522 0
M  V30 1087 H 114.496 1.5078 3.4935 0
M  V30 1088 H 114.008 3.00712 2.45345 0
M  V30 1089 H 112.109 0.840182 3.63004 0
M  V30 1090 H 112.222 2.6951 3.96107 0
M  V30 1091 H 110.586 1.35174 2.15871 0
M  V30 1092 H 111.369 2.96661 1.72764 0
M  V30 1093 N 113.814 -1.1601 1.06675 0
M  V30 1094 C 114.777 -2.18724 0.685001 0
M  V30 1095 C 115.777 -1.58496 -0.271246 0
M  V30 1096 O 116.967 -1.74119 -0.0531156 0
M  V30 1097 C 114.099 -3.40899 0.00853648 0
M  V30 1098 H 115.292 -2.54011 1.59431 0
M  V30 1099 H 112.845 -1.30352 0.862441 0
M  V30 1100 H 113.58 -3.11173 -0.913337 0
M  V30 1101 H 113.365 -3.8587 0.696204 0
M  V30 1102 H 114.855 -4.16886 -0.24414 0
M  V30 1103 N 115.292 -0.849877 -1.32721 0
M  V30 1104 C 116.54 -0.450032 -1.97026 0
M  V30 1105 C 116.861 0.996604 -1.67609 0
M  V30 1106 O 116.131 1.6958 -0.980786 0
M  V30 1107 H 114.711 -0.163426 -0.728904 0
M  V30 1108 H 117.373 -1.08526 -1.6189 0
M  V30 1109 H 116.469 -0.591146 -3.0645 0
M  V30 1110 N 116.77 1.45427 -0.607355 0
M  V30 1111 C 118.186 1.57283 -0.270985 0
M  V30 1112 C 118.386 1.59875 1.22647 0
M  V30 1113 O 117.442 1.52893 2.00948 0
M  V30 1114 C 118.755 2.85566 -0.941952 0
M  V30 1115 C 120.303 2.9924 -0.917849 0
M  V30 1116 C 120.778 4.30293 -1.56882 0
M  V30 1117 N 122.269 4.37051 -1.5343 0
M  V30 1118 C 123.004 5.37123 -2.00715 0
M  V30 1119 N 122.5 6.43734 -2.56084 0
M  V30 1120 N 124.293 5.28479 -1.91484 0
M  V30 1121 H 116.444 1.41988 -1.57966 0
M  V30 1122 H 118.707 0.67885 -0.661715 0
M  V30 1123 H 118.413 2.8955 -1.99633 0
M  V30 1124 H 118.287 3.74322 -0.465096 0
M  V30 1125 H 120.674 2.94822 0.127984 0
M  V30 1126 H 120.755 2.11895 -1.43297 0
M  V30 1127 H 120.399 4.35469 -2.61398 0
M  V30 1128 H 120.329 5.16454 -1.02873 0
M  V30 1129 H 122.82 3.60615 -1.12982 0
M  V30 1130 H 123.133 7.16341 -2.89958 0
M  V30 1131 H 121.478 6.44485 -2.60122 0
M  V30 1132 H 124.669 4.44098 -1.47967 0
M  V30 1133 H 124.842 6.0632 -2.28648 0
M  V30 1134 N 118.248 0.346503 1.53744 0
M  V30 1135 C 119.664 -0.00530975 1.59599 0
M  V30 1136 C 119.864 -1.48465 1.36236 0
M  V30 1137 O 118.92 -2.24376 1.15808 0
M  V30 1138 C 120.233 0.433516 2.97559 0
M  V30 1139 C 121.781 0.386111 3.10609 0
M  V30 1140 C 122.256 0.800451 4.50951 0
M  V30 1141 N 123.747 0.754753 4.5701 0
M  V30 1142 C 124.482 1.04727 5.63755 0
M  V30 1143 N 123.978 1.4081 6.7834 0
M  V30 1144 N 125.771 0.971316 5.53644 0
M  V30 1145 H 117.922 1.31009 1.67184 0
M  V30 1146 H 120.185 0.534242 0.783128 0
M  V30 1147 H 119.891 1.46509 3.19731 0
M  V30 1148 H 119.765 -0.189753 3.76722 0
M  V30 1149 H 122.152 -0.636295 2.88158 0
M  V30 1150 H 122.233 1.04462 2.33498 0
M  V30 1151 H 121.877 1.82088 4.74137 0
M  V30 1152 H 121.807 0.119386 5.26465 0
M  V30 1153 H 124.298 0.488662 3.74727 0
M  V30 1154 H 124.611 1.61607 7.55714 0
M  V30 1155 H 122.956 1.44657 6.79779 0
M  V30 1156 H 126.147 0.688748 4.63005 0
M  V30 1157 H 126.32 1.20263 6.36742 0
M  V30 1158 N 119.726 -1.57421 0.075193 0
M  V30 1159 C 121.003 -1.85029 -0.634329 0
M  V30 1160 C 121.383 -0.968305 -1.87582 0
M  V30 1161 O 120.731 -0.0354749 -2.28472 0
M  V30 1162 C 120.941 -3.35286 -0.968742 0
M  V30 1163 C 122.289 -4.02875 -1.34077 0
M  V30 1164 O 123.313 -3.40051 -1.06037 0
M  V30 1165 O 122.172 -5.13691 -1.86506 0
M  V30 1166 H 119.266 -0.7645 -0.315387 0
M  V30 1167 H 121.812 -1.69366 0.106382 0
M  V30 1168 H 120.584 -3.91203 -0.0871376 0
M  V30 1169 H 120.207 -3.56223 -1.7661 0
M  V30 1170 N 121.204 0.198386 -1.56346 0
M  V30 1171 C 122.45 0.920648 -1.80698 0
M  V30 1172 C 122.783 1.83045 -0.648697 0
M  V30 1173 O 122.058 1.91308 0.350925 0
M  V30 1174 C 122.341 1.73971 -3.15287 0
M  V30 1175 C 122.194 0.85485 -4.41602 0
M  V30 1176 C 123.513 2.71296 -3.46535 0
M  V30 1177 H 120.632 0.333261 -0.657348 0
M  V30 1178 H 123.274 0.188198 -1.89066 0
M  V30 1179 H 121.424 2.36416 -3.08285 0
M  V30 1180 H 123.096 0.245362 -4.60647 0
M  V30 1181 H 121.339 0.161398 -4.335 0
M  V30 1182 H 122.01 1.46286 -5.32264 0
M  V30 1183 H 124.486 2.18983 -3.53816 0
M  V30 1184 H 123.362 3.2569 -4.41834 0
M  V30 1185 H 123.623 3.5018 -2.69864 0
M  V30 1186 N 122.682 1.50554 0.465978 0
M  V30 1187 C 123.645 1.69233 1.54574 0
M  V30 1188 C 124.645 0.562901 1.50626 0
M  V30 1189 O 125.835 0.830016 1.53155 0
M  V30 1190 C 122.967 1.7223 2.94193 0
M  V30 1191 H 124.16 2.65571 1.39327 0
M  V30 1192 H 121.713 1.40111 0.692711 0
M  V30 1193 H 122.448 0.77603 3.14878 0
M  V30 1194 H 122.233 2.54285 2.98466 0
M  V30 1195 H 123.723 1.88618 3.72576 0
M  V30 1196 N 124.16 -0.719506 1.40217 0
M  V30 1197 C 125.11 -1.8251 1.36653 0
M  V30 1198 C 126.094 -1.59028 0.244732 0
M  V30 1199 O 127.286 -1.70268 0.483524 0
M  V30 1200 C 124.415 -3.20599 1.22763 0
M  V30 1201 C 123.501 -3.49858 2.39708 0
M  V30 1202 N 123.892 -3.49957 3.6519 0
M  V30 1203 C 122.19 -3.80297 2.33002 0
M  V30 1204 C 122.891 -3.77449 4.42614 0
M  V30 1205 N 121.867 -3.96002 3.72402 0
M  V30 1206 H 125.669 -1.80914 2.31619 0
M  V30 1207 H 123.183 -0.918455 1.33933 0
M  V30 1208 H 125.18 -3.99766 1.18292 0
M  V30 1209 H 123.84 -3.23424 0.287614 0
M  V30 1210 H 124.851 -3.309 3.98404 0
M  V30 1211 H 121.528 -3.90635 1.47346 0
M  V30 1212 H 122.918 -3.83863 5.51451 0
M  V30 1213 N 125.638 -1.25649 -0.95132 0
M  V30 1214 C 126.886 -1.10375 -1.69298 0
M  V30 1215 C 127.207 0.355339 -1.91735 0
M  V30 1216 O 126.477 1.25188 -1.50681 0
M  V30 1217 H 125.057 -0.405461 -0.627384 0
M  V30 1218 H 127.719 -1.57823 -1.14358 0
M  V30 1219 H 126.815 -1.61465 -2.67087 0
M  V30 1220 N 127.117 1.15442 -1.07289 0
M  V30 1221 C 128.366 1.85557 -0.790669 0
M  V30 1222 C 128.679 1.83186 0.685739 0
M  V30 1223 O 129.885 2.48977 1.0827 0
M  V30 1224 C 128.341 3.33038 -1.36433 0
M  V30 1225 C 127.949 3.43856 -2.8717 0
M  V30 1226 C 129.693 4.0834 -1.1601 0
M  V30 1227 C 127.6 4.85482 -3.3773 0
M  V30 1228 H 126.53 0.695122 -0.292098 0
M  V30 1229 H 129.181 1.30219 -1.29287 0
M  V30 1230 H 127.563 3.88043 -0.789864 0
M  V30 1231 H 128.737 2.98961 -3.50655 0
M  V30 1232 H 127.052 2.81998 -3.06376 0
M  V30 1233 H 129.649 5.12859 -1.51262 0
M  V30 1234 H 129.992 4.16182 -0.0991007 0
M  V30 1235 H 130.525 3.59603 -1.70089 0
M  V30 1236 H 127.264 4.82823 -4.43353 0
M  V30 1237 H 126.784 5.30961 -2.78999 0
M  V30 1238 H 128.463 5.54335 -3.33648 0
M  V30 1239 N 128.595 0.856903 1.32268 0
M  V30 1240 C 129.525 0.31858 2.31316 0
M  V30 1241 C 130.506 -0.583487 1.59779 0
M  V30 1242 O 131.691 -0.503259 1.87566 0
M  V30 1243 C 128.821 -0.491979 3.43798 0
M  V30 1244 C 127.775 0.315849 4.26833 0
M  V30 1245 C 127.101 -0.619586 5.31098 0
M  V30 1246 C 128.401 1.54282 4.98993 0
M  V30 1247 H 130.095 1.14621 2.76591 0
M  V30 1248 H 127.641 0.552613 1.32974 0
M  V30 1249 H 129.594 -0.879012 4.1213 0
M  V30 1250 H 128.318 -1.35299 2.97257 0
M  V30 1251 H 126.977 0.684664 3.6015 0
M  V30 1252 H 126.625 -1.47751 4.8081 0
M  V30 1253 H 126.325 -0.0830621 5.87541 0
M  V30 1254 H 127.849 -1.00375 6.02293 0
M  V30 1255 H 129.263 1.22796 5.59995 0
M  V30 1256 H 127.66 2.01745 5.65172 0
M  V30 1257 H 128.73 2.30285 4.26728 0
M  V30 1258 N 130.073 -1.45103 0.615059 0
M  V30 1259 C 131.021 -2.32331 -0.111791 0
M  V30 1260 C 132.015 -1.46409 -0.852102 0
M  V30 1261 O 133.221 -1.62849 -0.766821 0
M  V30 1262 H 129.596 -0.749993 -0.0549072 0
M  V30 1263 H 131.567 -2.91407 0.642225 0
M  V30 1264 C 130.316 -3.3015 -1.09071 0
M  V30 1265 H 129.639 -3.96265 -0.530485 0
M  V30 1266 H 131.079 -3.93898 -1.56908 0
M  V30 1267 C 129.538 -2.57875 -2.168 0
M  V30 1268 O 130.068 -2.36567 -3.24652 0
M  V30 1269 N 128.274 -2.17884 -1.92289 0
M  V30 1270 H 127.821 -2.35413 -1.04587 0
M  V30 1271 H 127.779 -1.6985 -2.64572 0
M  V30 1272 N 131.551 -0.354651 -1.53558 0
M  V30 1273 C 132.461 0.50515 -2.29097 0
M  V30 1274 C 133.477 1.10223 -1.34636 0
M  V30 1275 O 134.653 1.11553 -1.67684 0
M  V30 1276 C 131.718 1.63479 -3.05738 0
M  V30 1277 C 130.779 1.06636 -4.15845 0
M  V30 1278 C 130.012 2.14217 -4.88822 0
M  V30 1279 O 130.235 3.35137 -4.61562 0
M  V30 1280 O 129.169 1.77887 -5.75013 0
M  V30 1281 H 132.995 -0.109237 -3.03503 0
M  V30 1282 H 130.58 -0.119357 -1.48922 0
M  V30 1283 H 132.462 2.2918 -3.5363 0
M  V30 1284 H 131.137 2.23478 -2.34178 0
M  V30 1285 H 130.044 0.373565 -3.7223 0
M  V30 1286 H 131.377 0.511081 -4.89539 0
M  V30 1287 N 133.029 1.57378 -0.0835403 0
M  V30 1288 C 133.992 2.12252 0.864959 0
M  V30 1289 C 134.992 1.04916 1.21858 0
M  V30 1290 O 136.182 1.30853 1.14991 0
M  V30 1291 C 133.314 2.63358 2.16461 0
M  V30 1292 H 134.507 2.97371 0.388676 0
M  V30 1293 H 132.06 1.55423 0.165317 0
M  V30 1294 H 132.795 1.81727 2.686 0
M  V30 1295 H 132.58 3.41826 1.92087 0
M  V30 1296 H 134.07 3.05847 2.84337 0
M  V30 1297 N 134.507 -0.190092 1.56449 0
M  V30 1298 C 135.737 -0.92443 1.84764 0
M  V30 1299 C 136.145 -1.77146 0.664529 0
M  V30 1300 O 135.488 -1.79812 -0.375957 0
M  V30 1301 C 135.55 -1.86651 3.07248 0
M  V30 1302 C 135.214 -1.20094 4.40938 0
M  V30 1303 C 136.211 -0.575445 5.16706 0
M  V30 1304 C 133.896 -1.2033 4.87674 0
M  V30 1305 C 135.89 0.0388111 6.37388 0
M  V30 1306 C 133.577 -0.585214 6.08291 0
M  V30 1307 C 134.575 0.0347578 6.82991 0
M  V30 1308 O 134.263 0.643147 8.01323 0
M  V30 1309 H 133.995 -0.274974 0.617548 0
M  V30 1310 H 136.549 -0.200788 2.04416 0
M  V30 1311 H 134.779 -2.62998 2.83494 0
M  V30 1312 H 136.468 -2.46907 3.22167 0
M  V30 1313 H 137.234 -0.565728 4.81689 0
M  V30 1314 H 133.113 -1.67526 4.29484 0
M  V30 1315 H 136.657 0.523329 6.95634 0
M  V30 1316 H 132.554 -0.592451 6.42775 0
M  V30 1317 H 133.322 0.540545 8.16713 0
M  V30 1318 N 135.985 -1.50799 -0.457987 0
M  V30 1319 C 137.401 -1.38515 -0.792819 0
M  V30 1320 C 137.601 -0.451409 -1.96379 0
M  V30 1321 O 136.657 0.10112 -2.52297 0
M  V30 1322 C 137.97 -2.80149 -1.09258 0
M  V30 1323 C 139.518 -2.89156 -1.19825 0
M  V30 1324 C 139.993 -4.31651 -1.53106 0
M  V30 1325 N 141.484 -4.34662 -1.60072 0
M  V30 1326 C 142.219 -5.41928 -1.87354 0
M  V30 1327 N 141.715 -6.59384 -2.12568 0
M  V30 1328 N 143.508 -5.29385 -1.88965 0
M  V30 1329 H 135.659 -2.10073 0.313511 0
M  V30 1330 H 137.922 -0.944803 0.0777862 0
M  V30 1331 H 137.628 -3.50374 -0.305084 0
M  V30 1332 H 137.502 -3.18204 -2.02549 0
M  V30 1333 H 139.889 -2.19141 -1.97639 0
M  V30 1334 H 139.97 -2.54626 -0.244821 0
M  V30 1335 H 139.614 -5.02208 -0.758266 0
M  V30 1336 H 139.544 -4.63678 -2.49621 0
M  V30 1337 H 142.035 -3.49973 -1.42573 0
M  V30 1338 H 142.348 -7.36934 -2.32696 0
M  V30 1339 H 140.693 -6.62535 -2.09933 0
M  V30 1340 H 143.884 -4.36616 -1.68772 0
M  V30 1341 H 144.057 -6.13066 -2.09891 0
M  V30 1342 N 137.463 0.71206 -1.40597 0
M  V30 1343 C 138.41 1.82613 -1.41142 0
M  V30 1344 C 139.38 1.63925 -0.267903 0
M  V30 1345 O 140.565 1.85009 -0.466495 0
M  V30 1346 C 137.705 3.20354 -1.28324 0
M  V30 1347 C 136.818 3.50589 -2.52411 0
M  V30 1348 C 135.953 4.77855 -2.32009 0
M  V30 1349 C 134.992 5.01005 -3.51654 0
M  V30 1350 N 134.129 6.19487 -3.30425 0
M  V30 1351 H 138.969 1.81482 -2.36365 0
M  V30 1352 H 136.506 0.886475 -1.17388 0
M  V30 1353 H 138.464 3.99899 -1.18899 0
M  V30 1354 H 137.094 3.20705 -0.367189 0
M  V30 1355 H 136.146 2.65573 -2.72351 0
M  V30 1356 H 137.458 3.63604 -3.41458 0
M  V30 1357 H 136.612 5.65424 -2.19956 0
M  V30 1358 H 135.351 4.67056 -1.40392 0
M  V30 1359 H 134.356 4.1189 -3.64179 0
M  V30 1360 H 135.581 5.13674 -4.44202 0
M  V30 1361 H 133.527 6.09932 -2.41494 0
M  V30 1362 H 133.444 6.33194 -4.13039 0
M  V30 1363 H 134.712 7.09834 -3.22113 0
M  V30 1364 N 138.941 1.26152 0.944643 0
M  V30 1365 C 140.187 1.11657 1.69294 0
M  V30 1366 C 140.52 -0.339926 1.91202 0
M  V30 1367 O 139.795 -1.24994 1.49019 0
M  V30 1368 C 140.078 1.88236 3.06984 0
M  V30 1369 C 139.931 3.41772 2.92424 0
M  V30 1370 C 141.25 1.67343 4.07043 0
M  V30 1371 H 138.369 0.407004 0.614424 0
M  V30 1372 H 141.011 1.55106 1.09737 0
M  V30 1373 H 139.161 1.51308 3.57824 0
M  V30 1374 H 140.833 3.88433 2.48832 0
M  V30 1375 H 139.076 3.68974 2.28124 0
M  V30 1376 H 139.747 3.90579 3.90067 0
M  V30 1377 H 142.223 1.99509 3.65151 0
M  V30 1378 H 141.099 2.23346 5.01406 0
M  V30 1379 H 141.36 0.617158 4.37771 0
M  V30 1380 N 140.419 -1.14872 1.07899 0
M  V30 1381 C 141.349 -2.2193 0.725887 0
M  V30 1382 C 142.33 -1.67622 -0.28927 0
M  V30 1383 O 143.515 -1.93533 -0.160787 0
M  V30 1384 C 140.645 -3.47061 0.128856 0
M  V30 1385 C 139.599 -4.14363 1.07178 0
M  V30 1386 C 138.925 -5.33636 0.337229 0
M  V30 1387 C 140.225 -4.63492 2.40775 0
M  V30 1388 H 141.919 -2.51724 1.62097 0
M  V30 1389 H 139.465 -1.20991 0.780838 0
M  V30 1390 H 141.418 -4.21199 -0.130147 0
M  V30 1391 H 140.142 -3.16617 -0.80134 0
M  V30 1392 H 138.801 -3.42173 1.3158 0
M  V30 1393 H 138.449 -4.99449 -0.596606 0
M  V30 1394 H 138.149 -5.79609 0.965788 0
M  V30 1395 H 139.673 -6.10539 0.0861567 0
M  V30 1396 H 141.087 -5.2913 2.20669 0
M  V30 1397 H 139.484 -5.20148 2.99276 0
M  V30 1398 H 140.554 -3.78834 3.02676 0
M  V30 1399 N 141.898 -0.863906 -1.31812 0
M  V30 1400 C 143.175 -0.39275 -1.91616 0
M  V30 1401 C 143.555 1.12461 -1.7865 0
M  V30 1402 O 142.903 1.95045 -1.19037 0
M  V30 1403 C 143.113 -0.867385 -3.38049 0
M  V30 1404 C 144.461 -0.889966 -4.15168 0
M  V30 1405 O 145.485 -0.812635 -3.46806 0
M  V30 1406 O 144.344 -1.00079 -5.37258 0
M  V30 1407 H 141.438 -0.116358 -0.818773 0
M  V30 1408 H 143.984 -0.951418 -1.40521 0
M  V30 1409 H 142.756 -1.91081 -3.41473 0
M  V30 1410 H 142.379 -0.286687 -3.96565 0
M  V30 1411 N 143.376 1.44774 -0.622745 0
M  V30 1412 C 144.308 2.28856 0.125485 0
M  V30 1413 C 145.321 1.40811 0.817069 0
M  V30 1414 O 146.51 1.65044 0.679918 0
M  V30 1415 C 143.61 3.16963 1.19949 0
M  V30 1416 C 142.783 4.33374 0.592064 0
M  V30 1417 C 141.842 5.02577 1.55893 0
M  V30 1418 O 140.868 5.58873 1.07933 0
M  V30 1419 N 142.07 5.03256 2.89334 0
M  V30 1420 H 144.835 2.93713 -0.596068 0
M  V30 1421 H 142.396 1.55129 -0.463303 0
M  V30 1422 H 144.388 3.60123 1.84644 0
M  V30 1423 H 142.958 2.53913 1.82337 0
M  V30 1424 H 142.178 3.93509 -0.233322 0
M  V30 1425 H 143.466 5.08527 0.166738 0
M  V30 1426 H 142.864 4.58836 3.30887 0
M  V30 1427 H 141.421 5.50232 3.49412 0
M  V30 1428 N 144.854 0.36279 1.53368 0
M  V30 1429 C 145.784 -0.476976 2.28576 0
M  V30 1430 C 146.765 -1.08631 1.30894 0
M  V30 1431 O 147.95 -1.10409 1.59761 0
M  V30 1432 C 145.08 -1.61828 3.07293 0
M  V30 1433 C 144.034 -1.13633 4.1264 0
M  V30 1434 C 143.36 -2.36766 4.79423 0
M  V30 1435 C 144.66 -0.223061 5.21823 0
M  V30 1436 H 146.354 0.150474 2.99022 0
M  V30 1437 H 143.9 0.0738103 1.43811 0
M  V30 1438 H 145.853 -2.21237 3.58653 0
M  V30 1439 H 144.577 -2.27292 2.34533 0
M  V30 1440 H 143.236 -0.564945 3.62221 0
M  V30 1441 H 142.884 -3.0068 4.03238 0
M  V30 1442 H 142.584 -2.05192 5.50609 0
M  V30 1443 H 144.108 -2.96865 5.33576 0
M  V30 1444 H 145.522 -0.724545 5.68703 0
M  V30 1445 H 143.919 0.001678 6.001 0
M  V30 1446 H 144.989 0.735553 4.79289 0
M  V30 1447 N 146.332 -1.57332 0.0918853 0
M  V30 1448 C 147.557 -1.98995 -0.584442 0
M  V30 1449 C 147.982 -0.970528 -1.61128 0
M  V30 1450 O 147.34 0.0613904 -1.81196 0
M  V30 1451 C 147.388 -3.39636 -1.21161 0
M  V30 1452 O 146.492 -3.40447 -2.32744 0
M  V30 1453 H 145.833 -0.647165 -0.148572 0
M  V30 1454 H 148.363 -2.03873 0.172347 0
M  V30 1455 H 148.373 -3.7726 -1.55367 0
M  V30 1456 H 147.048 -4.13356 -0.459313 0
M  V30 1457 H 145.625 -3.14614 -2.0018 0
M  V30 1458 N 147.81 0.181792 -1.56548 0
M  V30 1459 C 148.773 1.20894 -1.94724 0
M  V30 1460 C 149.773 1.37738 -0.829747 0
M  V30 1461 O 150.963 1.35323 -1.09697 0
M  V30 1462 C 148.095 2.57593 -2.23291 0
M  V30 1463 H 149.288 0.882275 -2.86629 0
M  V30 1464 H 146.841 0.423838 -1.50444 0
M  V30 1465 H 147.576 2.95291 -1.34067 0
M  V30 1466 H 147.361 2.46735 -3.04736 0
M  V30 1467 H 148.851 3.31637 -2.53785 0
M  V30 1468 N 149.288 1.51039 0.449983 0
M  V30 1469 C 150.536 1.62759 1.19808 0
M  V30 1470 C 150.857 0.339981 1.92013 0
M  V30 1471 O 150.127 -0.643606 1.85026 0
M  V30 1472 H 148.707 0.599811 0.445237 0
M  V30 1473 H 151.369 1.87914 0.517138 0
M  V30 1474 H 150.465 2.44911 1.93455 0
M  V30 1475 N 150.766 -0.704594 1.40972 0
M  V30 1476 C 151.713 -1.81862 1.42109 0
M  V30 1477 C 152.683 -1.63781 0.276593 0
M  V30 1478 O 153.868 -1.84759 0.4763 0
M  V30 1479 C 151.008 -3.19669 1.30022 0
M  V30 1480 C 150.121 -3.49246 2.54267 0
M  V30 1481 C 149.256 -4.76618 2.3454 0
M  V30 1482 C 148.295 -4.99133 3.54306 0
M  V30 1483 N 147.432 -6.17726 3.33706 0
M  V30 1484 H 152.272 -1.80226 2.37324 0
M  V30 1485 H 149.809 -0.880238 1.17857 0
M  V30 1486 H 151.767 -3.99263 1.21018 0
M  V30 1487 H 150.397 -3.20506 0.384192 0
M  V30 1488 H 149.449 -2.64125 2.73756 0
M  V30 1489 H 150.761 -3.61788 3.43381 0
M  V30 1490 H 149.915 -5.64249 2.22952 0
M  V30 1491 H 148.654 -4.66305 1.42867 0
M  V30 1492 H 147.659 -4.09953 3.66359 0
M  V30 1493 H 148.884 -5.11311 4.4692 0
M  V30 1494 H 146.83 -6.08642 2.44725 0
M  V30 1495 H 146.747 -6.30995 4.16391 0
M  V30 1496 H 148.015 -7.08115 3.25873 0
M  V30 1497 N 152.244 -1.26651 -0.937939 0
M  V30 1498 C 153.194 -1.05156 -2.02302 0
M  V30 1499 C 154.178 0.0171233 -1.60891 0
M  V30 1500 O 155.37 -0.200213 -1.75864 0
M  V30 1501 C 152.499 -0.689962 -3.36295 0
M  V30 1502 C 151.585 -1.79626 -3.84181 0
M  V30 1503 N 151.976 -3.03422 -4.04684 0
M  V30 1504 C 150.274 -1.6806 -4.13124 0
M  V30 1505 C 150.975 -3.75345 -4.444 0
M  V30 1506 N 149.951 -3.03051 -4.51288 0
M  V30 1507 H 153.753 -1.99117 -2.1617 0
M  V30 1508 H 151.267 -1.17216 -1.12402 0
M  V30 1509 H 153.264 -0.517112 -4.13681 0
M  V30 1510 H 151.924 0.242139 -3.23796 0
M  V30 1511 H 152.935 -3.39293 -3.91281 0
M  V30 1512 H 149.612 -0.818629 -4.09396 0
M  V30 1513 H 151.002 -4.81691 -4.68427 0
M  V30 1514 N 153.722 1.14298 -1.08507 0
M  V30 1515 C 154.652 2.21542 -0.737646 0
M  V30 1516 C 155.633 1.67773 0.280377 0
M  V30 1517 O 156.818 1.93616 0.150521 0
M  V30 1518 C 153.948 3.46988 -0.147259 0
M  V30 1519 C 152.902 4.13789 -1.09374 0
M  V30 1520 C 152.228 5.33449 -0.365524 0
M  V30 1521 C 153.528 4.62208 -2.4323 0
M  V30 1522 H 155.222 2.5086 -1.6343 0
M  V30 1523 H 152.768 1.20576 -0.787243 0
M  V30 1524 H 154.721 4.21262 0.107808 0
M  V30 1525 H 153.445 3.17037 0.784538 0
M  V30 1526 H 152.104 3.4147 -1.33393 0
M  V30 1527 H 151.752 4.99759 0.57011 0
M  V30 1528 H 151.452 5.79088 -0.996512 0
M  V30 1529 H 152.976 6.10485 -0.118534 0
M  V30 1530 H 154.39 5.27952 -2.23472 0
M  V30 1531 H 152.787 5.18553 -3.02031 0
M  V30 1532 H 153.857 3.77224 -3.04681 0
M  V30 1533 N 155.201 0.870884 1.31352 0
M  V30 1534 C 156.133 0.28455 2.27427 0
M  V30 1535 C 157.146 -0.552927 1.53123 0
M  V30 1536 O 158.335 -0.374771 1.74521 0
M  V30 1537 C 155.435 -0.615164 3.3327 0
M  V30 1538 C 154.608 0.190079 4.36987 0
M  V30 1539 C 153.667 -0.637917 5.22319 0
M  V30 1540 O 152.693 -0.065626 5.69162 0
M  V30 1541 N 153.895 -1.94973 5.46778 0
M  V30 1542 H 156.66 1.11017 2.7838 0
M  V30 1543 H 154.221 0.732458 1.44384 0
M  V30 1544 H 156.213 -1.1748 3.87273 0
M  V30 1545 H 154.783 -1.34146 2.82354 0
M  V30 1546 H 154.003 0.931165 3.83044 0
M  V30 1547 H 155.291 0.742579 5.03352 0
M  V30 1548 H 154.689 -2.4378 5.10478 0
M  V30 1549 H 153.246 -2.45713 6.03712 0
M  V30 1550 N 156.679 -1.44442 0.630414 0
M  V30 1551 C 157.904 -2.06927 0.139944 0
M  V30 1552 C 158.329 -1.46795 -1.17613 0
M  V30 1553 O 157.687 -0.569144 -1.72135 0
M  V30 1554 C 157.735 -3.6058 0.0379581 0
M  V30 1555 O 156.839 -3.99937 -1.0062 0
M  V30 1556 H 156.18 -0.658608 0.0844483 0
M  V30 1557 H 158.71 -1.85327 0.866891 0
M  V30 1558 H 158.72 -4.07714 -0.152856 0
M  V30 1559 H 157.395 -4.03728 0.998809 0
M  V30 1560 H 155.972 -3.64436 -0.79001 0
M  V30 1561 N 158.157 -0.370918 -1.53173 0
M  V30 1562 C 159.087 0.464847 -2.28826 0
M  V30 1563 C 160.068 1.07936 -1.31468 0
M  V30 1564 O 161.253 1.0956 -1.60344 0
M  V30 1565 C 158.383 1.60196 -3.08147 0
M  V30 1566 C 157.337 1.11443 -4.13237 0
M  V30 1567 C 156.663 2.3422 -4.80672 0
M  V30 1568 C 157.963 0.195384 -5.21934 0
M  V30 1569 H 159.657 -0.166329 -2.98938 0
M  V30 1570 H 157.203 -0.0814359 -1.4377 0
M  V30 1571 H 159.156 2.19332 -3.59822 0
M  V30 1572 H 157.88 2.26045 -2.35735 0
M  V30 1573 H 156.539 0.545727 -3.62515 0
M  V30 1574 H 156.187 2.98537 -4.04827 0
M  V30 1575 H 155.887 2.02269 -5.51689 0
M  V30 1576 H 157.411 2.94032 -5.35143 0
M  V30 1577 H 158.825 0.694375 -5.69079 0
M  V30 1578 H 157.222 -0.0335027 -6.00091 0
M  V30 1579 H 158.292 -0.760961 -4.78892 0
M  V30 1580 N 159.635 1.57281 -0.100228 0
M  V30 1581 C 160.881 1.94826 0.563101 0
M  V30 1582 C 161.214 0.982475 1.67514 0
M  V30 1583 O 160.489 0.0164069 1.94493 0
M  V30 1584 C 160.772 3.42453 1.11346 0
M  V30 1585 C 160.625 4.498 0.00612081 0
M  V30 1586 C 161.944 3.91506 2.01024 0
M  V30 1587 H 159.063 0.708428 0.203221 0
M  V30 1588 H 161.705 1.8922 -0.171979 0
M  V30 1589 H 159.855 3.47361 1.7399 0
M  V30 1590 H 161.527 4.57 -0.628357 0
M  V30 1591 H 159.77 4.28756 -0.659581 0
M  V30 1592 H 160.441 5.50306 0.432109 0
M  V30 1593 H 162.917 3.88784 1.48278 0
M  V30 1594 H 161.793 4.95358 2.36457 0
M  V30 1595 H 162.054 3.31099 2.92961 0
M  V30 1596 N 161.113 -0.173488 1.56642 0
M  V30 1597 C 162.076 -1.19859 1.95362 0
M  V30 1598 C 163.076 -1.37296 0.83704 0
M  V30 1599 O 164.266 -1.34739 1.10413 0
M  V30 1600 C 161.398 -2.56405 2.24654 0
M  V30 1601 H 162.591 -0.867062 2.87092 0
M  V30 1602 H 160.144 -0.415853 1.50666 0
M  V30 1603 H 160.879 -2.94576 1.35631 0
M  V30 1604 H 160.664 -2.45115 3.06041 0
M  V30 1605 H 162.154 -3.30287 2.5554 0
M  V30 1606 N 162.591 -1.51276 -0.441967 0
M  V30 1607 C 164.007 -1.39349 -0.778083 0
M  V30 1608 C 164.207 -0.472212 -1.95889 0
M  V30 1609 O 163.263 0.0743551 -2.5239 0
M  V30 1610 C 164.576 -2.81292 -1.0628 0
M  V30 1611 C 166.124 -2.9041 -1.16751 0
M  V30 1612 C 166.599 -4.33251 -1.48519 0
M  V30 1613 N 168.09 -4.36336 -1.55453 0
M  V30 1614 C 168.825 -5.43885 -1.81596 0
M  V30 1615 N 168.321 -6.61601 -2.05562 0
M  V30 1616 N 170.114 -5.3136 -1.8334 0
M  V30 1617 H 162.265 -2.09729 0.335774 0
M  V30 1618 H 164.528 -0.943925 0.0878028 0
M  V30 1619 H 164.234 -3.50678 -0.267905 0
M  V30 1620 H 164.108 -3.20334 -1.99163 0
M  V30 1621 H 166.495 -2.21225 -1.95304 0
M  V30 1622 H 166.576 -2.54871 -0.217801 0
M  V30 1623 H 166.22 -5.02984 -0.704958 0
M  V30 1624 H 166.15 -4.66299 -2.44689 0
M  V30 1625 H 168.641 -3.51466 -1.38853 0
M  V30 1626 H 168.954 -7.39361 -2.24867 0
M  V30 1627 H 167.299 -6.64725 -2.02894 0
M  V30 1628 H 170.49 -4.38382 -1.64132 0
M  V30 1629 H 170.663 -6.15258 -2.03377 0
M  V30 1630 N 164.069 0.697108 -1.41344 0
M  V30 1631 C 165.317 1.45426 -1.40341 0
M  V30 1632 C 165.638 1.94996 -0.0128787 0
M  V30 1633 O 164.908 1.71599 0.945027 0
M  V30 1634 H 163.488 0.539594 -0.516573 0
M  V30 1635 H 166.15 0.825201 -1.76569 0
M  V30 1636 H 165.246 2.31817 -2.08967 0
M  V30 1637 N 165.547 1.27147 0.931209 0
M  V30 1638 C 166.793 1.13446 1.68101 0
M  V30 1639 C 167.126 -0.319628 1.91552 0
M  V30 1640 O 166.401 -1.23407 1.50336 0
M  V30 1641 C 166.684 1.91482 3.0497 0
M  V30 1642 C 166.537 3.44855 2.88782 0
M  V30 1643 C 167.856 1.71651 4.05246 0
M  V30 1644 H 164.975 0.413498 0.610072 0
M  V30 1645 H 167.617 1.56261 1.08086 0
M  V30 1646 H 165.767 1.55095 3.56199 0
M  V30 1647 H 167.439 3.9105 2.44698 0
M  V30 1648 H 165.682 3.71373 2.24198 0
M  V30 1649 H 166.353 3.94694 3.85902 0
M  V30 1650 H 168.829 2.0337 3.63015 0
M  V30 1651 H 167.705 2.28651 4.99009 0
M  V30 1652 H 167.966 0.663555 4.37092 0
M  V30 1653 N 167.025 -1.13721 1.09112 0
M  V30 1654 C 168.273 -1.84559 0.823562 0
M  V30 1655 C 168.594 -1.83754 -0.652658 0
M  V30 1656 O 167.864 -1.29102 -1.47342 0
M  V30 1657 H 166.444 -0.683376 0.301673 0
M  V30 1658 H 169.106 -1.37771 1.37859 0
M  V30 1659 H 168.202 -2.8917 1.17419 0
M  V30 1660 N 168.503 -0.877838 -1.30888 0
M  V30 1661 C 169.751 -0.491723 -1.96027 0
M  V30 1662 C 170.072 0.960827 -1.69685 0
M  V30 1663 O 169.342 1.67462 -1.01654 0
M  V30 1664 H 167.922 -0.17885 -0.725273 0
M  V30 1665 H 170.584 -1.11935 -1.59551 0
M  V30 1666 H 169.68 -0.656016 -3.05128 0
M  V30 1667 N 169.982 1.44106 -0.638065 0
M  V30 1668 C 171.207 2.0685 -0.150916 0
M  V30 1669 C 171.632 1.47417 1.16833 0
M  V30 1670 O 170.99 0.578264 1.71831 0
M  V30 1671 C 171.038 3.60555 -0.05708 0
M  V30 1672 O 170.142 4.00465 0.984972 0
M  V30 1673 H 169.483 0.658151 -0.0879399 0
M  V30 1674 H 172.013 1.84865 -0.876707 0
M  V30 1675 H 172.023 4.07789 0.131232 0
M  V30 1676 H 170.698 4.03193 -1.02021 0
M  V30 1677 H 169.275 3.64849 0.770672 0
M  V30 1678 N 171.46 0.379036 1.52974 0
M  V30 1679 C 172.39 -0.452706 2.29069 0
M  V30 1680 C 173.371 -1.07237 1.32039 0
M  V30 1681 O 174.556 -1.08708 1.60923 0
M  V30 1682 C 171.686 -1.5856 3.08992 0
M  V30 1683 C 170.64 -1.0925 4.13822 0
M  V30 1684 C 169.966 -2.31668 4.81907 0
M  V30 1685 C 171.266 -0.167702 5.22031 0
M  V30 1686 H 172.96 0.182181 2.98845 0
M  V30 1687 H 170.506 0.0890592 1.43724 0
M  V30 1688 H 172.459 -2.1742 3.6098 0
M  V30 1689 H 171.183 -2.24792 2.36931 0
M  V30 1690 H 169.842 -0.526494 3.628 0
M  V30 1691 H 169.49 -2.96386 4.06404 0
M  V30 1692 H 169.19 -1.9934 5.52754 0
M  V30 1693 H 170.714 -2.91189 5.36695 0
M  V30 1694 H 172.128 -0.664186 5.6944 0
M  V30 1695 H 170.525 0.0653265 6.00064 0
M  V30 1696 H 171.595 0.786347 4.78482 0
M  V30 1697 N 172.938 -1.57226 0.108567 0
M  V30 1698 C 174.186 -1.94448 -0.550853 0
M  V30 1699 C 174.507 -0.992074 -1.67878 0
M  V30 1700 O 173.777 -0.0465 -1.95845 0
M  V30 1701 H 172.357 -0.717897 -0.206479 0
M  V30 1702 H 175.019 -1.94112 0.175062 0
M  V30 1703 H 174.115 -2.97218 -0.952259 0
M  V30 1704 N 174.416 0.165178 -1.56732 0
M  V30 1705 C 175.664 0.879068 -1.8198 0
M  V30 1706 C 175.985 1.82514 -0.686561 0
M  V30 1707 O 175.255 1.93694 0.293146 0
M  V30 1708 H 173.835 0.327608 -0.671329 0
M  V30 1709 H 176.497 0.163526 -1.94213 0
M  V30 1710 H 175.593 1.45228 -2.76252 0
M  V30 1711 N 175.894 1.51508 0.433938 0
M  V30 1712 C 177.142 1.6402 1.18075 0
M  V30 1713 C 177.463 0.360328 1.91642 0
M  V30 1714 O 176.733 -0.623945 1.85698 0
M  V30 1715 H 175.313 0.6045 0.43885 0
M  V30 1716 H 177.975 1.88452 0.497178 0
M  V30 1717 H 177.071 2.46949 1.90847 0
M  V30 1718 N 177.372 -0.689602 1.41712 0
M  V30 1719 C 178.335 -1.78521 1.43746 0
M  V30 1720 C 179.335 -1.57436 0.327191 0
M  V30 1721 O 180.525 -1.64 0.587348 0
M  V30 1722 C 177.657 -3.16971 1.25467 0
M  V30 1723 H 178.85 -1.78108 2.41283 0
M  V30 1724 H 176.403 -0.89781 1.27942 0
M  V30 1725 H 177.138 -3.23019 0.287948 0
M  V30 1726 H 176.923 -3.33678 2.05917 0
M  V30 1727 H 178.413 -3.96935 1.2974 0
M  V30 1728 N 178.85 -1.27639 -0.924453 0
M  V30 1729 C 180.098 -1.13941 -1.66918 0
M  V30 1730 C 180.419 0.314589 -1.92446 0
M  V30 1731 O 179.689 1.21964 -1.53303 0
M  V30 1732 H 178.269 -0.418678 -0.618642 0
M  V30 1733 H 180.931 -1.60213 -1.10985 0
M  V30 1734 H 180.027 -1.67094 -2.63602 0
M  V30 1735 N 180.328 1.1314 -1.09713 0
M  V30 1736 C 181.605 1.80762 -0.747302 0
M  V30 1737 C 181.985 1.96663 0.767265 0
M  V30 1738 O 181.333 1.53706 1.69076 0
M  V30 1739 C 181.543 3.15606 -1.48975 0
M  V30 1740 C 182.891 3.90914 -1.65746 0
M  V30 1741 O 183.915 3.25239 -1.45251 0
M  V30 1742 O 182.774 5.08718 -1.9967 0
M  V30 1743 H 179.868 0.782103 -0.268782 0
M  V30 1744 H 182.414 1.20041 -1.19951 0
M  V30 1745 H 181.186 2.99278 -2.52088 0
M  V30 1746 H 180.809 3.84029 -1.02991 0
M  V30 1747 N 181.806 0.884767 1.30421 0
M  V30 1748 C 183.083 0.423185 1.90967 0
M  V30 1749 C 183.463 -1.09605 1.80416 0
M  V30 1750 O 182.811 -1.93126 1.22125 0
M  V30 1751 C 183.021 0.921056 3.36627 0
M  V30 1752 C 184.369 0.955903 4.137 0
M  V30 1753 O 185.393 0.867706 3.4547 0
M  V30 1754 O 184.252 1.08614 5.35598 0
M  V30 1755 H 181.346 0.129369 0.816819 0
M  V30 1756 H 183.892 0.973653 1.3899 0
M  V30 1757 H 182.664 1.96489 3.3839 0
M  V30 1758 H 182.287 0.349741 3.96059 0
M  V30 1759 N 183.284 -1.43765 0.645699 0
M  V30 1760 C 184.247 -2.29163 -0.0409488 0
M  V30 1761 C 185.247 -1.41813 -0.757996 0
M  V30 1762 O 186.437 -1.63527 -0.600382 0
M  V30 1763 C 183.569 -3.23716 -1.06869 0
M  V30 1764 H 184.762 -2.91366 0.710345 0
M  V30 1765 H 182.315 -1.5092 0.406547 0
M  V30 1766 H 183.05 -2.66393 -1.84947 0
M  V30 1767 H 182.835 -3.88105 -0.558277 0
M  V30 1768 H 184.325 -3.87831 -1.54845 0
M  V30 1769 N 184.763 -0.387143 -1.52771 0
M  V30 1770 C 185.673 0.456442 -2.30117 0
M  V30 1771 C 186.689 1.07342 -1.36944 0
M  V30 1772 O 187.865 1.07971 -1.70013 0
M  V30 1773 C 184.93 1.56957 -3.09136 0
M  V30 1774 C 183.991 0.977916 -4.18014 0
M  V30 1775 C 183.224 2.038 -4.93256 0
M  V30 1776 O 183.447 3.25271 -4.68567 0
M  V30 1777 O 182.381 1.6565 -5.78657 0
M  V30 1778 H 186.207 -0.17359 -3.03203 0
M  V30 1779 H 183.792 -0.150919 -1.48636 0
M  V30 1780 H 185.674 2.21628 -3.58412 0
M  V30 1781 H 184.349 2.18461 -2.38865 0
M  V30 1782 H 183.256 0.294525 -3.72939 0
M  V30 1783 H 184.589 0.407128 -4.90513 0
M  V30 1784 N 186.241 1.57166 -0.116904 0
M  V30 1785 C 187.652 1.82169 0.408809 0
M  V30 1786 C 188.003 1.03393 1.66746 0
M  V30 1787 O 187.128 0.269886 2.1471 0
M  V30 1788 C 187.723 3.30429 0.748466 0
M  V30 1789 C 186.282 3.5612 1.21882 0
M  V30 1790 C 185.429 2.76374 0.226452 0
M  V30 1791 H 188.38 1.5497 -0.342063 0
M  V30 1792 H 188.401 3.44943 1.60607 0
M  V30 1793 H 187.913 3.87737 -0.167784 0
M  V30 1794 H 186.014 3.04168 2.15204 0
M  V30 1795 H 186.127 4.64705 1.16559 0
M  V30 1796 H 184.491 2.44515 0.713063 0
M  V30 1797 H 185.274 3.3644 -0.682859 0
M  V30 1798 N 187.719 -0.156864 1.56817 0
M  V30 1799 C 188.649 -1.19589 2.00551 0
M  V30 1800 C 189.63 -1.4536 0.883426 0
M  V30 1801 O 190.815 -1.56449 1.15054 0
M  V30 1802 C 187.945 -2.53143 2.37773 0
M  V30 1803 C 186.899 -2.41913 3.53075 0
M  V30 1804 C 186.225 -3.80088 3.76081 0
M  V30 1805 C 187.525 -1.91157 4.86062 0
M  V30 1806 H 189.219 -0.832293 2.87599 0
M  V30 1807 H 186.765 -0.398918 1.38364 0
M  V30 1808 H 188.718 -3.26047 2.66967 0
M  V30 1809 H 187.442 -2.91319 1.4765 0
M  V30 1810 H 186.101 -1.71462 3.24031 0
M  V30 1811 H 185.749 -4.15683 2.83225 0
M  V30 1812 H 185.449 -3.73439 4.53671 0
M  V30 1813 H 186.973 -4.54556 4.0769 0
M  V30 1814 H 188.387 -2.53846 5.14038 0
M  V30 1815 H 186.784 -1.95422 5.67389 0
M  V30 1816 H 187.854 -0.866673 4.77092 0
M  V30 1817 N 189.197 -1.51736 -0.425897 0
M  V30 1818 C 190.422 -1.69082 -1.20108 0
M  V30 1819 C 190.847 -0.392398 -1.83962 0
M  V30 1820 O 190.205 0.64858 -1.69302 0
M  V30 1821 C 190.253 -2.81604 -2.25237 0
M  V30 1822 O 189.357 -2.46004 -3.30992 0
M  V30 1823 H 188.698 -0.563408 -0.35138 0
M  V30 1824 H 191.228 -1.98358 -0.501512 0
M  V30 1825 H 191.238 -3.06025 -2.69838 0
M  V30 1826 H 189.913 -3.75817 -1.78142 0
M  V30 1827 H 188.49 -2.32195 -2.91787 0
M  V30 1828 N 190.675 0.682077 -1.42076 0
M  V30 1829 C 191.622 1.79578 -1.44984 0
M  V30 1830 C 192.592 1.6332 -0.302614 0
M  V30 1831 O 193.777 1.83978 -0.505633 0
M  V30 1832 C 190.917 3.1756 -1.35091 0
M  V30 1833 C 190.03 3.45156 -2.59791 0
M  V30 1834 C 189.165 4.72826 -2.42093 0
M  V30 1835 C 188.204 4.93433 -3.62202 0
M  V30 1836 N 187.341 6.12338 -3.43491 0
M  V30 1837 H 192.181 1.76427 -2.40161 0
M  V30 1838 H 189.718 0.861376 -1.19242 0
M  V30 1839 H 191.676 3.97287 -1.27354 0
M  V30 1840 H 190.306 3.19854 -0.435133 0
M  V30 1841 H 189.358 2.59736 -2.77923 0
M  V30 1842 H 190.67 3.5628 -3.49094 0
M  V30 1843 H 189.824 5.60631 -2.319 0
M  V30 1844 H 188.563 4.63973 -1.50268 0
M  V30 1845 H 187.568 4.04073 -3.72834 0
M  V30 1846 H 188.793 5.04136 -4.54998 0
M  V30 1847 H 186.739 6.04672 -2.54377 0
M  V30 1848 H 186.656 6.2429 -4.26377 0
M  V30 1849 H 187.924 7.02841 -3.37097 0
M  V30 1850 N 192.153 1.28127 0.917671 0
M  V30 1851 C 193.569 1.05749 1.19538 0
M  V30 1852 C 193.769 -0.202633 2.00479 0
M  V30 1853 O 192.825 -0.905382 2.3571 0
M  V30 1854 C 194.138 2.30273 1.93378 0
M  V30 1855 C 195.686 2.35412 2.06277 0
M  V30 1856 C 196.161 3.59692 2.83524 0
M  V30 1857 N 197.652 3.60309 2.91087 0
M  V30 1858 C 198.387 4.53147 3.51348 0
M  V30 1859 N 197.883 5.563 4.12919 0
M  V30 1860 N 199.676 4.40751 3.48849 0
M  V30 1861 H 191.827 2.09024 0.377184 0
M  V30 1862 H 194.09 0.919798 0.22951 0
M  V30 1863 H 193.796 3.22055 1.41328 0
M  V30 1864 H 193.67 2.36378 2.93947 0
M  V30 1865 H 196.057 1.4413 2.57508 0
M  V30 1866 H 196.138 2.33304 1.04895 0
M  V30 1867 H 195.782 4.51316 2.32973 0
M  V30 1868 H 195.712 3.59054 3.85211 0
M  V30 1869 H 198.203 2.85714 2.47338 0
M  V30 1870 H 198.516 6.2329 4.56869 0
M  V30 1871 H 196.861 5.60131 4.11435 0
M  V30 1872 H 200.052 3.59367 2.99955 0
M  V30 1873 H 200.225 5.13291 3.9552 0
M  V30 1874 N 193.631 -1.12557 1.10312 0
M  V30 1875 C 194.581 -2.16331 0.720076 0
M  V30 1876 C 195.565 -1.58616 -0.270115 0
M  V30 1877 O 196.757 -1.76823 -0.0790507 0
M  V30 1878 C 193.886 -3.42963 0.152113 0
M  V30 1879 C 192.972 -4.07663 1.16927 0
M  V30 1880 N 193.363 -4.47392 2.35953 0
M  V30 1881 C 191.661 -4.34425 1.0095 0
M  V30 1882 C 192.362 -4.97932 3.0073 0
M  V30 1883 N 191.338 -4.93358 2.28252 0
M  V30 1884 H 195.14 -2.44813 1.62616 0
M  V30 1885 H 192.654 -1.29449 0.980654 0
M  V30 1886 H 194.651 -4.16664 -0.14037 0
M  V30 1887 H 193.311 -3.1595 -0.748701 0
M  V30 1888 H 194.322 -4.39802 2.73486 0
M  V30 1889 H 190.999 -4.17177 0.164134 0
M  V30 1890 H 192.389 -5.38397 4.01969 0
M  V30 1891 N 195.109 -0.891671 -1.2995 0
M  V30 1892 C 196.334 -0.527932 -2.00568 0
M  V30 1893 C 196.759 0.877969 -1.66353 0
M  V30 1894 O 196.117 1.58301 -0.883762 0
M  V30 1895 C 196.165 -0.717745 -3.53385 0
M  V30 1896 O 195.269 0.233376 -4.11739 0
M  V30 1897 H 194.61 -0.20722 -0.630837 0
M  V30 1898 H 197.14 -1.20105 -1.65638 0
M  V30 1899 H 197.15 -0.619307 -4.03272 0
M  V30 1900 H 195.825 -1.74276 -3.77625 0
M  V30 1901 H 194.402 0.0880706 -3.72796 0
M  V30 1902 N 196.587 1.43421 -0.653314 0
M  V30 1903 C 197.864 1.95361 -0.0966581 0
M  V30 1904 C 198.244 1.59461 1.38331 0
M  V30 1905 O 197.592 0.879777 2.10884 0
M  V30 1906 C 197.802 3.47311 -0.342988 0
M  V30 1907 C 199.15 4.23875 -0.24798 0
M  V30 1908 O 200.174 3.55133 -0.275553 0
M  V30 1909 O 199.033 5.4623 -0.171771 0
M  V30 1910 H 196.127 0.826945 0.00956291 0
M  V30 1911 H 198.673 1.5336 -0.726558 0
M  V30 1912 H 197.445 3.66569 -1.36906 0
M  V30 1913 H 197.068 3.9631 0.319975 0
M  V30 1914 N 198.065 0.39524 1.52563 0
M  V30 1915 C 199.313 -0.184678 2.01254 0
M  V30 1916 C 199.634 -1.46822 1.28329 0
M  V30 1917 O 198.904 -1.91666 0.405094 0
M  V30 1918 H 197.484 -0.0712355 0.743596 0
M  V30 1919 H 200.146 0.528293 1.87603 0
M  V30 1920 H 199.242 -0.390681 3.09645 0
M  V30 1921 N 199.544 -1.57102 0.125237 0
M  V30 1922 C 200.793 -1.94582 -0.531095 0
M  V30 1923 C 201.106 -1.01126 -1.6743 0
M  V30 1924 O 202.312 -1.28097 -2.39381 0
M  V30 1925 C 200.768 -3.45839 -0.996164 0
M  V30 1926 C 200.376 -4.47842 0.118926 0
M  V30 1927 C 202.12 -3.92227 -1.62352 0
M  V30 1928 C 200.027 -5.90284 -0.363192 0
M  V30 1929 H 198.957 -0.726391 -0.20217 0
M  V30 1930 H 201.608 -1.82339 0.206092 0
M  V30 1931 H 199.99 -3.53338 -1.78796 0
M  V30 1932 H 201.164 -4.52018 0.895358 0
M  V30 1933 H 199.479 -4.11243 0.653324 0
M  V30 1934 H 202.076 -4.96069 -1.99548 0
M  V30 1935 H 202.419 -3.32552 -2.50429 0
M  V30 1936 H 202.952 -3.87554 -0.897019 0
M  V30 1937 H 199.691 -6.53728 0.481679 0
M  V30 1938 H 199.211 -5.89515 -1.10597 0
M  V30 1939 H 200.89 -6.41752 -0.822377 0
M  V30 1940 N 201.022 0.148545 -1.56898 0
M  V30 1941 C 202.269 0.861418 -1.83264 0
M  V30 1942 C 202.597 1.81239 -0.705883 0
M  V30 1943 O 201.852 1.93305 0.305212 0
M  V30 1944 C 202.151 1.67064 -3.1595 0
M  V30 1945 C 201.817 0.866591 -4.42494 0
M  V30 1946 C 200.479 0.644762 -4.76861 0
M  V30 1947 C 202.831 0.30418 -5.20312 0
M  V30 1948 C 200.159 -0.15021 -5.86508 0
M  V30 1949 C 202.511 -0.477824 -6.30793 0
M  V30 1950 C 201.175 -0.710244 -6.63711 0
M  V30 1951 H 200.445 0.315215 -0.670612 0
M  V30 1952 H 203.092 0.125142 -1.91091 0
M  V30 1953 H 201.397 2.47698 -3.03567 0
M  V30 1954 H 203.094 2.22566 -3.33565 0
M  V30 1955 H 199.684 1.04955 -4.15551 0
M  V30 1956 H 203.868 0.462844 -4.94137 0
M  V30 1957 H 199.124 -0.339796 -6.10455 0
M  V30 1958 H 203.298 -0.92076 -6.90286 0
M  V30 1959 H 200.925 -1.3281 -7.48509 0
M  V30 1960 N 202.5 1.5196 0.417844 0
M  V30 1961 C 203.728 1.69426 1.18753 0
M  V30 1962 C 204.143 0.399955 1.84515 0
M  V30 1963 O 203.5 -0.623288 1.71527 0
M  V30 1964 C 203.551 2.82375 2.25714 0
M  V30 1965 O 203.272 4.06793 1.62638 0
M  V30 1966 C 204.773 3.11277 3.15628 0
M  V30 1967 H 201.993 0.568031 0.357186 0
M  V30 1968 H 204.537 1.98475 0.49273 0
M  V30 1969 H 202.692 2.5587 2.90877 0
M  V30 1970 H 203.106 4.69667 2.3348 0
M  V30 1971 H 204.58 3.93843 3.86771 0
M  V30 1972 H 205.057 2.24473 3.77503 0
M  V30 1973 H 205.663 3.39515 2.56144 0
M  V30 1974 N 203.978 -0.674533 1.42435 0
M  V30 1975 C 205.255 -1.4305 1.33402 0
M  V30 1976 C 205.635 -2.11081 -0.0284674 0
M  V30 1977 O 204.983 -2.03257 -1.04397 0
M  V30 1978 C 205.193 -2.43272 2.50239 0
M  V30 1979 C 206.541 -3.07907 2.92367 0
M  V30 1980 O 207.565 -2.53599 2.50132 0
M  V30 1981 O 206.424 -4.0632 3.65467 0
M  V30 1982 H 203.518 -0.638076 0.526106 0
M  V30 1983 H 206.064 -0.703235 1.54443 0
M  V30 1984 H 204.836 -1.91803 3.41068 0
M  V30 1985 H 204.459 -3.23479 2.31186 0
M  V30 1986 N 205.456 -1.28612 -0.910864 0
M  V30 1987 C 206.681 -1.1891 -1.69927 0
M  V30 1988 C 207.106 0.248372 -1.86453 0
M  V30 1989 O 206.464 1.17961 -1.37676 0
M  V30 1990 C 206.512 -1.89578 -3.06745 0
M  V30 1991 O 205.616 -1.20521 -3.94396 0
M  V30 1992 H 204.957 -0.412632 -0.520222 0
M  V30 1993 H 207.487 -1.69985 -1.1387 0
M  V30 1994 H 207.497 -1.97597 -3.56958 0
M  V30 1995 H 206.172 -2.94136 -2.94035 0
M  V30 1996 H 204.749 -1.20684 -3.52831 0
M  V30 1997 N 206.934 1.1197 -1.10907 0
M  V30 1998 C 208.164 1.8713 -0.875553 0
M  V30 1999 C 208.572 1.8016 0.577843 0
M  V30 2000 O 207.915 1.17699 1.41042 0
M  V30 2001 C 207.977 3.37005 -1.2517 0
M  V30 2002 C 207.641 3.67748 -2.71313 0
M  V30 2003 C 208.638 3.65698 -3.69542 0
M  V30 2004 C 206.323 3.96928 -3.07821 0
M  V30 2005 C 208.317 3.92395 -5.023 0
M  V30 2006 C 206.004 4.23284 -4.40765 0
M  V30 2007 C 207.002 4.21005 -5.37814 0
M  V30 2008 O 206.69 4.46704 -6.68364 0
M  V30 2009 H 206.422 0.598786 -0.313737 0
M  V30 2010 H 208.976 1.42568 -1.47863 0
M  V30 2011 H 207.206 3.82146 -0.591741 0
M  V30 2012 H 208.895 3.93519 -0.994877 0
M  V30 2013 H 209.661 3.43211 -3.42682 0
M  V30 2014 H 205.54 3.97841 -2.32902 0
M  V30 2015 H 209.084 3.90531 -5.78041 0
M  V30 2016 H 204.981 4.45246 -4.67361 0
M  V30 2017 H 205.749 4.64299 -6.74069 0
M  V30 2018 N 208.412 0.89855 1.29475 0
M  V30 2019 C 209.637 0.538561 2.00285 0
M  V30 2020 C 210.062 -0.869135 1.66816 0
M  V30 2021 O 209.42 -1.57831 0.892145 0
M  V30 2022 C 209.468 0.736475 3.52999 0
M  V30 2023 O 208.572 -0.211537 4.11857 0
M  V30 2024 H 207.913 0.210563 0.62973 0
M  V30 2025 H 210.443 1.20982 1.64998 0
M  V30 2026 H 210.453 0.640685 4.02938 0
M  V30 2027 H 209.128 1.76276 3.76696 0
M  V30 2028 H 207.705 -0.0682991 3.72837 0
M  V30 2029 N 209.89 -1.43072 0.660911 0
M  V30 2030 C 211.306 -1.56169 0.329173 0
M  V30 2031 C 211.506 -1.64317 -1.16629 0
M  V30 2032 O 210.562 -1.60245 -1.95135 0
M  V30 2033 C 211.875 -2.81873 1.04729 0
M  V30 2034 C 213.423 -2.95627 1.02828 0
M  V30 2035 C 213.898 -4.24174 1.72744 0
M  V30 2036 N 215.389 -4.31055 1.69545 0
M  V30 2037 C 216.124 -5.29304 2.20511 0
M  V30 2038 N 215.62 -6.33786 2.79799 0
M  V30 2039 N 217.413 -5.21008 2.10966 0
M  V30 2040 H 209.564 -1.36027 1.63127 0
M  V30 2041 H 211.827 -0.653823 0.686454 0
M  V30 2042 H 211.533 -2.81942 2.10242 0
M  V30 2043 H 211.407 -3.72338 0.603702 0
M  V30 2044 H 213.794 -2.95094 -0.0184742 0
M  V30 2045 H 213.875 -2.06431 1.51063 0
M  V30 2046 H 213.519 -4.25467 2.7738 0
M  V30 2047 H 213.449 -5.1228 1.2197 0
M  V30 2048 H 215.94 -3.56174 1.26288 0
M  V30 2049 H 216.253 -7.05086 3.16344 0
M  V30 2050 H 214.598 -6.34387 2.83863 0
M  V30 2051 H 217.789 -4.38301 1.64347 0
M  V30 2052 H 217.962 -5.97416 2.50993 0
M  V30 2053 N 211.368 -0.403325 -1.52352 0
M  V30 2054 C 212.598 0.17376 -2.05868 0
M  V30 2055 C 213.006 1.39898 -1.27378 0
M  V30 2056 O 212.349 1.80939 -0.31729 0
M  V30 2057 C 212.411 0.594756 -3.54546 0
M  V30 2058 C 212.075 -0.518926 -4.54044 0
M  V30 2059 C 213.072 -1.3807 -5.01231 0
M  V30 2060 C 210.757 -0.689961 -4.97539 0
M  V30 2061 C 212.751 -2.39852 -5.90551 0
M  V30 2062 C 210.438 -1.71109 -5.86656 0
M  V30 2063 C 211.436 -2.56378 -6.33056 0
M  V30 2064 O 211.124 -3.56743 -7.20409 0
M  V30 2065 H 210.856 0.0264951 -0.675481 0
M  V30 2066 H 213.41 -0.571179 -1.97299 0
M  V30 2067 H 211.64 1.39189 -3.60782 0
M  V30 2068 H 213.329 1.0991 -3.90736 0
M  V30 2069 H 214.095 -1.25994 -4.68349 0
M  V30 2070 H 209.974 -0.035939 -4.60986 0
M  V30 2071 H 213.518 -3.06441 -6.26689 0
M  V30 2072 H 209.415 -1.83218 -6.18952 0
M  V30 2073 H 210.183 -3.52918 -7.38506 0
M  V30 2074 N 212.846 1.57033 -0.133567 0
M  V30 2075 C 214.262 1.58035 0.222944 0
M  V30 2076 C 214.462 1.14713 1.6566 0
M  V30 2077 O 213.518 0.841218 2.38075 0
M  V30 2078 C 214.831 3.00691 -0.0236116 0
M  V30 2079 C 216.379 3.12973 0.0411512 0
M  V30 2080 C 216.854 4.57654 -0.177899 0
M  V30 2081 N 218.345 4.63033 -0.124365 0
M  V30 2082 C 219.08 5.72771 -0.268553 0
M  V30 2083 N 218.576 6.91206 -0.46972 0
M  V30 2084 N 220.369 5.61718 -0.2071 0
M  V30 2085 H 212.52 1.8349 -1.06981 0
M  V30 2086 H 214.783 0.848677 -0.422436 0
M  V30 2087 H 214.489 3.36726 -1.0153 0
M  V30 2088 H 214.363 3.70614 0.701808 0
M  V30 2089 H 216.75 2.76787 1.02338 0
M  V30 2090 H 216.831 2.45564 -0.716383 0
M  V30 2091 H 216.475 4.94542 -1.15717 0
M  V30 2092 H 216.405 5.23173 0.599797 0
M  V30 2093 H 218.896 3.7789 0.027011 0
M  V30 2094 H 219.209 7.70693 -0.570212 0
M  V30 2095 H 217.554 6.93156 -0.505876 0
M  V30 2096 H 220.745 4.68072 -0.0507986 0
M  V30 2097 H 220.918 6.47195 -0.322909 0
M  V30 2098 N 214.325 -0.140222 1.56975 0
M  V30 2099 C 215.272 -1.17292 1.98774 0
M  V30 2100 C 216.242 -1.4232 0.856408 0
M  V30 2101 O 217.427 -1.54541 1.119 0
M  V30 2102 C 214.567 -2.49973 2.37923 0
M  V30 2103 C 213.68 -2.32062 3.64378 0
M  V30 2104 C 212.815 -3.57825 3.926 0
M  V30 2105 C 211.854 -3.3498 5.12303 0
M  V30 2106 N 210.991 -4.52891 5.36502 0
M  V30 2107 H 215.831 -0.809472 2.86795 0
M  V30 2108 H 213.368 -0.388237 1.41884 0
M  V30 2109 H 215.326 -3.27346 2.58652 0
M  V30 2110 H 213.956 -2.84252 1.52972 0
M  V30 2111 H 213.008 -1.45711 3.51387 0
M  V30 2112 H 214.32 -2.11145 4.51906 0
M  V30 2113 H 213.474 -4.43624 4.13863 0
M  V30 2114 H 212.213 -3.81753 3.03506 0
M  V30 2115 H 211.218 -2.4757 4.90906 0
M  V30 2116 H 212.443 -3.12444 6.02956 0
M  V30 2117 H 210.389 -4.76979 4.50363 0
M  V30 2118 H 210.306 -4.35001 6.18312 0
M  V30 2119 H 211.574 -5.39884 5.62268 0
M  V30 2120 N 215.803 -1.52179 -0.40978 0
M  V30 2121 C 216.735 -1.71703 -1.51825 0
M  V30 2122 C 217.748 -0.597445 -1.51441 0
M  V30 2123 O 218.937 -0.872582 -1.55719 0
M  V30 2124 C 216.037 -1.74171 -2.90719 0
M  V30 2125 C 215.21 -3.03156 -3.15302 0
M  V30 2126 C 214.269 -2.97445 -4.34065 0
M  V30 2127 O 213.295 -3.71352 -4.31377 0
M  V30 2128 N 214.497 -2.15191 -5.39141 0
M  V30 2129 H 217.262 -2.67334 -1.35472 0
M  V30 2130 H 214.823 -1.50409 -0.599069 0
M  V30 2131 H 216.815 -1.67884 -3.68235 0
M  V30 2132 H 215.385 -0.860166 -3.00533 0
M  V30 2133 H 214.605 -3.23097 -2.25836 0
M  V30 2134 H 215.893 -3.88484 -3.28569 0
M  V30 2135 H 215.291 -1.54573 -5.44173 0
M  V30 2136 H 213.848 -2.1476 -6.15403 0
M  V30 2137 N 217.281 0.66697 -1.42791 0
M  V30 2138 C 218.214 1.79177 -1.41318 0
M  V30 2139 C 219.192 1.60234 -0.276401 0
M  V30 2140 O 220.376 1.82602 -0.46785 0
M  V30 2141 C 217.503 3.16289 -1.21157 0
M  V30 2142 C 216.549 3.53964 -2.37932 0
M  V30 2143 S 217.382 3.55501 -4.00474 0
M  V30 2144 C 218.538 4.95292 -3.8267 0
M  V30 2145 H 218.771 1.80153 -2.365 0
M  V30 2146 H 216.304 0.838357 -1.29657 0
M  V30 2147 H 218.262 3.95428 -1.10212 0
M  V30 2148 H 216.923 3.1289 -0.275481 0
M  V30 2149 H 216.116 4.53646 -2.19594 0
M  V30 2150 H 215.718 2.82204 -2.45432 0
M  V30 2151 H 218.01 5.83584 -3.44145 0
M  V30 2152 H 218.953 5.18679 -4.82055 0
M  V30 2153 H 219.361 4.68179 -3.15386 0
M  V30 2154 N 218.759 1.29093 0.90403 0
M  V30 2155 C 219.722 1.1386 1.98919 0
M  V30 2156 C 220.722 0.0753457 1.60623 0
M  V30 2157 O 221.912 0.321931 1.71199 0
M  V30 2158 C 219.044 0.740198 3.32767 0
M  V30 2159 H 220.237 2.10246 2.13861 0
M  V30 2160 H 217.79 1.12218 1.08797 0
M  V30 2161 H 218.525 -0.223997 3.23525 0
M  V30 2162 H 218.31 1.50838 3.61926 0
M  V30 2163 H 219.8 0.656546 4.12407 0
M  V30 2164 N 220.237 -1.11381 1.11499 0
M  V30 2165 C 221.483 -1.83403 0.865512 0
M  V30 2166 C 221.816 -1.84459 -0.607329 0
M  V30 2167 O 221.091 -1.29811 -1.44842 0
M  V30 2168 C 221.374 -3.30552 1.42855 0
M  V30 2169 C 221.227 -3.37886 2.96906 0
M  V30 2170 C 222.546 -4.26643 1.08 0
M  V30 2171 H 219.665 -0.665879 0.31587 0
M  V30 2172 H 222.307 -1.30601 1.37998 0
M  V30 2173 H 220.457 -3.75648 0.990985 0
M  V30 2174 H 222.129 -3.01343 3.49271 0
M  V30 2175 H 220.372 -2.78088 3.32941 0
M  V30 2176 H 221.043 -4.41458 3.31389 0
M  V30 2177 H 223.519 -3.89729 1.45775 0
M  V30 2178 H 222.395 -5.27986 1.50072 0
M  V30 2179 H 222.656 -4.42099 -0.00915037 0
M  V30 2180 N 221.715 -0.905404 -1.28997 0
M  V30 2181 C 222.662 -0.385892 -2.27551 0
M  V30 2182 C 223.632 0.535113 -1.57244 0
M  V30 2183 O 224.817 0.459119 -1.85194 0
M  V30 2184 C 221.957 0.375461 -3.43051 0
M  V30 2185 C 221.07 -0.577092 -4.28128 0
M  V30 2186 C 220.205 0.201879 -5.30816 0
M  V30 2187 C 219.244 -0.744829 -6.07551 0
M  V30 2188 N 218.381 9.42587e-05 -7.021 0
M  V30 2189 H 223.221 -1.23139 -2.71368 0
M  V30 2190 H 220.758 -0.618542 -1.33463 0
M  V30 2191 H 222.716 0.832992 -4.088 0
M  V30 2192 H 221.346 1.18537 -3.00248 0
M  V30 2193 H 220.398 -1.15315 -3.62501 0
M  V30 2194 H 221.71 -1.30152 -4.8152 0
M  V30 2195 H 220.864 0.720351 -6.02408 0
M  V30 2196 H 219.603 0.959413 -4.7817 0
M  V30 2197 H 218.608 -1.27475 -5.34818 0
M  V30 2198 H 219.833 -1.50178 -6.62286 0
M  V30 2199 H 217.779 0.739791 -6.51815 0
M  V30 2200 H 217.696 -0.664321 -7.53076 0
M  V30 2201 H 218.964 0.498644 -7.77903 0
M  V30 2202 N 223.193 1.4272 -0.668489 0
M  V30 2203 C 224.14 2.30796 0.0137489 0
M  V30 2204 C 225.11 1.4561 0.799177 0
M  V30 2205 O 226.295 1.74453 0.772702 0
M  V30 2206 C 223.435 3.31377 0.963507 0
M  V30 2207 C 222.548 4.31655 0.172569 0
M  V30 2208 C 221.683 5.19312 1.1175 0
M  V30 2209 C 220.722 6.11274 0.317886 0
M  V30 2210 N 219.859 6.91504 1.2152 0
M  V30 2211 H 224.699 2.88585 -0.743161 0
M  V30 2212 H 222.236 1.42154 -0.378226 0
M  V30 2213 H 224.194 3.88214 1.52792 0
M  V30 2214 H 222.824 2.75202 1.68712 0
M  V30 2215 H 221.876 3.76988 -0.508374 0
M  V30 2216 H 223.188 4.96779 -0.448527 0
M  V30 2217 H 222.342 5.80851 1.75206 0
M  V30 2218 H 221.081 4.5435 1.77249 0
M  V30 2219 H 220.086 5.48809 -0.329918 0
M  V30 2220 H 221.311 6.78283 -0.332917 0
M  V30 2221 H 219.257 6.29176 1.85671 0
M  V30 2222 H 219.174 7.53209 0.649036 0
M  V30 2223 H 220.442 7.57535 1.83742 0
M  V30 2224 N 224.671 0.411399 1.52136 0
M  V30 2225 C 225.901 -0.16284 2.05957 0
M  V30 2226 C 226.309 -1.3922 1.28119 0
M  V30 2227 O 225.652 -1.80768 0.326881 0
M  V30 2228 C 225.714 -0.575946 3.54856 0
M  V30 2229 C 225.378 0.542998 4.53763 0
M  V30 2230 C 226.375 1.40726 5.00492 0
M  V30 2231 C 224.06 0.716337 4.97166 0
M  V30 2232 C 226.054 2.4298 5.8927 0
M  V30 2233 C 223.741 1.74218 5.8574 0
M  V30 2234 C 224.739 2.59731 6.31687 0
M  V30 2235 O 224.427 3.60558 7.18507 0
M  V30 2236 H 224.159 -0.0229125 0.675612 0
M  V30 2237 H 226.713 0.581634 1.96993 0
M  V30 2238 H 224.943 -1.37274 3.61515 0
M  V30 2239 H 226.632 -1.07836 3.91313 0
M  V30 2240 H 227.398 1.28476 4.67674 0
M  V30 2241 H 223.277 0.0603857 4.6096 0
M  V30 2242 H 226.821 3.0976 6.25055 0
M  V30 2243 H 222.718 1.86498 6.17971 0
M  V30 2244 H 223.486 3.56829 7.36624 0
M  V30 2245 N 226.149 -1.5696 0.141893 0
M  V30 2246 C 227.079 -2.19516 -0.795936 0
M  V30 2247 C 228.06 -1.14187 -1.26077 0
M  V30 2248 O 229.245 -1.42511 -1.31925 0
M  V30 2249 C 226.375 -2.81272 -2.03723 0
M  V30 2250 C 225.329 -3.92384 -1.70936 0
M  V30 2251 C 224.655 -4.41052 -3.02287 0
M  V30 2252 C 225.955 -5.13403 -0.959954 0
M  V30 2253 H 227.649 -2.98138 -0.274596 0
M  V30 2254 H 225.195 -1.43406 -0.130636 0
M  V30 2255 H 227.148 -3.237 -2.69808 0
M  V30 2256 H 225.872 -1.99973 -2.58221 0
M  V30 2257 H 224.531 -3.50566 -1.07232 0
M  V30 2258 H 224.179 -3.56582 -3.54765 0
M  V30 2259 H 223.879 -5.15993 -2.81114 0
M  V30 2260 H 225.403 -4.86146 -3.69451 0
M  V30 2261 H 226.817 -5.52706 -1.52279 0
M  V30 2262 H 225.214 -5.94073 -0.848357 0
M  V30 2263 H 226.284 -4.84875 0.0492434 0
M  V30 2264 N 227.627 0.131896 -1.57047 0
M  V30 2265 C 228.59 1.14638 -1.98471 0
M  V30 2266 C 229.59 1.35029 -0.873148 0
M  V30 2267 O 230.78 1.31764 -1.13946 0
M  V30 2268 C 227.912 2.50358 -2.31373 0
M  V30 2269 H 229.105 0.79064 -2.8929 0
M  V30 2270 H 226.658 0.375761 -1.51716 0
M  V30 2271 H 227.393 2.90876 -1.43393 0
M  V30 2272 H 227.178 2.36915 -3.12432 0
M  V30 2273 H 228.668 3.23395 -2.64207 0
M  V30 2274 N 229.106 1.52395 0.401703 0
M  V30 2275 C 230.069 1.75636 1.47257 0
M  V30 2276 C 231.069 0.62628 1.48103 0
M  V30 2277 O 232.259 0.894227 1.49497 0
M  V30 2278 C 229.391 1.84553 2.86624 0
M  V30 2279 H 230.584 2.71241 1.27938 0
M  V30 2280 H 228.137 1.42923 0.632662 0
M  V30 2281 H 228.872 0.908882 3.11303 0
M  V30 2282 H 228.657 2.66715 2.87412 0
M  V30 2283 H 230.147 2.04251 3.64241 0
M  V30 2284 N 230.584 -0.659388 1.43143 0
M  V30 2285 C 231.83 -1.42145 1.44647 0
M  V30 2286 C 232.163 -1.9408 0.0681907 0
M  V30 2287 O 231.438 -1.71899 -0.910007 0
M  V30 2288 C 231.721 -2.60735 2.48373 0
M  V30 2289 C 231.574 -2.14332 3.95451 0
M  V30 2290 C 232.893 -3.62951 2.48906 0
M  V30 2291 H 230.012 -0.51552 0.526696 0
M  V30 2292 H 232.654 -0.748069 1.74654 0
M  V30 2293 H 230.804 -3.18184 2.22916 0
M  V30 2294 H 232.476 -1.61932 4.31944 0
M  V30 2295 H 230.719 -1.4576 4.08578 0
M  V30 2296 H 231.39 -2.99583 4.63631 0
M  V30 2297 H 233.866 -3.1525 2.71582 0
M  V30 2298 H 232.742 -4.43487 3.23435 0
M  V30 2299 H 233.003 -4.15126 1.52061 0
M  V30 2300 N 232.062 -1.29571 -0.897171 0
M  V30 2301 C 232.992 -1.17473 -2.01798 0
M  V30 2302 C 233.973 -0.068323 -1.69963 0
M  V30 2303 O 235.158 -0.248239 -1.92607 0
M  V30 2304 C 232.288 -0.853099 -3.36659 0
M  V30 2305 C 231.242 -1.9161 -3.82713 0
M  V30 2306 C 230.568 -1.44773 -5.14728 0
M  V30 2307 C 231.868 -3.32535 -4.02763 0
M  V30 2308 H 233.562 -2.11237 -2.12177 0
M  V30 2309 H 231.108 -1.01699 -1.01948 0
M  V30 2310 H 233.061 -0.755165 -4.14578 0
M  V30 2311 H 231.785 0.120236 -3.26379 0
M  V30 2312 H 230.444 -2.00346 -3.07013 0
M  V30 2313 H 230.092 -0.462995 -5.00865 0
M  V30 2314 H 229.792 -2.15865 -5.46513 0
M  V30 2315 H 231.316 -1.36334 -5.95185 0
M  V30 2316 H 232.73 -3.26626 -4.71156 0
M  V30 2317 H 231.127 -4.01607 -4.45905 0
M  V30 2318 H 232.197 -3.75326 -3.07016 0
M  V30 2319 N 233.54 1.10788 -1.12088 0
M  V30 2320 C 234.788 1.8231 -0.872205 0
M  V30 2321 C 235.109 1.85419 0.603709 0
M  V30 2322 O 234.379 1.32963 1.43867 0
M  V30 2323 H 232.959 0.675137 -0.319686 0
M  V30 2324 H 235.621 1.34068 -1.41463 0
M  V30 2325 H 234.717 2.85955 -1.25045 0
M  V30 2326 N 235.018 0.912232 1.28515 0
M  V30 2327 C 235.965 0.397954 2.27343 0
M  V30 2328 C 236.935 -0.526766 1.57526 0
M  V30 2329 O 238.12 -0.449292 1.85435 0
M  V30 2330 C 235.26 -0.357263 3.43246 0
M  V30 2331 C 234.373 0.599788 4.27816 0
M  V30 2332 C 233.508 -0.173725 5.30916 0
M  V30 2333 C 232.547 0.777039 6.07148 0
M  V30 2334 N 231.684 0.0371398 7.0209 0
M  V30 2335 H 236.524 1.24577 2.70711 0
M  V30 2336 H 234.061 0.625612 1.33133 0
M  V30 2337 H 236.019 -0.8113 4.09236 0
M  V30 2338 H 234.649 -1.16943 3.00872 0
M  V30 2339 H 233.701 1.17235 3.61884 0
M  V30 2340 H 235.013 1.32704 4.80823 0
M  V30 2341 H 234.167 -0.688394 6.02782 0
M  V30 2342 H 232.906 -0.934041 4.78672 0
M  V30 2343 H 231.911 1.3031 5.34134 0
M  V30 2344 H 233.136 1.53689 6.61481 0
M  V30 2345 H 231.082 -0.705213 6.52198 0
M  V30 2346 H 230.999 0.704249 7.52713 0
M  V30 2347 H 232.267 -0.457383 7.78157 0
M  V30 2348 N 236.496 -1.42363 0.676048 0
M  V30 2349 C 237.912 -1.55811 0.345718 0
M  V30 2350 C 238.112 -1.65544 -1.14879 0
M  V30 2351 O 237.168 -1.62306 -1.93424 0
M  V30 2352 C 238.481 -2.80746 1.07713 0
M  V30 2353 C 240.029 -2.9452 1.05958 0
M  V30 2354 C 240.504 -4.22318 1.77233 0
M  V30 2355 N 241.995 -4.29233 1.74108 0
M  V30 2356 C 242.73 -5.26935 2.26113 0
M  V30 2357 N 242.226 -6.30783 2.86505 0
M  V30 2358 N 244.019 -5.18741 2.1648 0
M  V30 2359 H 236.17 -1.34289 1.6456 0
M  V30 2360 H 238.433 -0.646506 0.69335 0
M  V30 2361 H 238.139 -2.79696 2.13221 0
M  V30 2362 H 238.013 -3.71676 0.64316 0
M  V30 2363 H 240.4 -2.95097 0.0128255 0
M  V30 2364 H 240.481 -2.04817 1.53244 0
M  V30 2365 H 240.125 -4.22502 2.81877 0
M  V30 2366 H 240.055 -5.10958 1.27396 0
M  V30 2367 H 242.546 -3.54814 1.30059 0
M  V30 2368 H 242.859 -7.01691 3.23805 0
M  V30 2369 H 241.204 -6.31341 2.90575 0
M  V30 2370 H 244.395 -4.36533 1.68987 0
M  V30 2371 H 244.568 -5.94721 2.57316 0
M  V30 2372 N 237.974 -0.419461 -1.51915 0
M  V30 2373 C 239.204 0.151915 -2.06041 0
M  V30 2374 C 239.612 1.38539 -1.28855 0
M  V30 2375 O 238.955 1.80592 -0.336463 0
M  V30 2376 C 239.017 0.557119 -3.55157 0
M  V30 2377 C 238.681 -0.567054 -4.53468 0
M  V30 2378 C 239.678 -1.43379 -4.99738 0
M  V30 2379 C 237.363 -0.742693 -4.96779 0
M  V30 2380 C 239.357 -2.46102 -5.87973 0
M  V30 2381 C 237.044 -1.77322 -5.84808 0
M  V30 2382 C 238.042 -2.63078 -6.30301 0
M  V30 2383 O 237.73 -3.64364 -7.16585 0
M  V30 2384 H 237.462 0.0193293 -0.675724 0
M  V30 2385 H 240.016 -0.592073 -1.96682 0
M  V30 2386 H 238.246 1.35355 -3.62238 0
M  V30 2387 H 239.935 1.05759 -3.9188 0
M  V30 2388 H 240.701 -1.30954 -4.66986 0
M  V30 2389 H 236.58 -0.0848307 -4.60922 0
M  V30 2390 H 240.124 -3.13071 -6.23404 0
M  V30 2391 H 236.021 -1.89773 -6.16974 0
M  V30 2392 H 236.789 -3.60731 -7.34721 0
M  V30 2393 N 239.452 1.56882 -0.150215 0
M  V30 2394 C 240.399 2.16922 0.788244 0
M  V30 2395 C 241.369 1.10303 1.24187 0
M  V30 2396 O 242.554 1.38359 1.31383 0
M  V30 2397 C 239.694 2.79754 2.02068 0
M  V30 2398 C 238.807 4.00775 1.61257 0
M  V30 2399 C 237.942 4.51595 2.79705 0
M  V30 2400 C 236.981 5.65074 2.35282 0
M  V30 2401 N 236.118 6.10499 3.4675 0
M  V30 2402 H 240.958 2.96779 0.269444 0
M  V30 2403 H 238.495 1.46599 0.12128 0
M  V30 2404 H 240.453 3.14329 2.74323 0
M  V30 2405 H 239.083 2.02536 2.51354 0
M  V30 2406 H 238.135 3.72158 0.787553 0
M  V30 2407 H 239.447 4.82978 1.24633 0
M  V30 2408 H 238.601 4.88242 3.60145 0
M  V30 2409 H 237.34 3.68406 3.19576 0
M  V30 2410 H 236.345 5.28 1.53283 0
M  V30 2411 H 237.57 6.50052 1.96493 0
M  V30 2412 H 235.516 5.30243 3.86236 0
M  V30 2413 H 235.433 6.87637 3.14152 0
M  V30 2414 H 236.701 6.51791 4.27537 0
M  V30 2415 N 240.93 -0.123565 1.57115 0
M  V30 2416 C 241.862 -1.17739 1.96648 0
M  V30 2417 C 242.875 -1.37906 0.865201 0
M  V30 2418 O 244.064 -1.37062 1.14351 0
M  V30 2419 C 241.164 -2.53821 2.24562 0
M  V30 2420 C 240.337 -2.54317 3.55867 0
M  V30 2421 C 239.396 -3.72112 3.72047 0
M  V30 2422 O 238.422 -3.55907 4.44206 0
M  V30 2423 N 239.624 -4.90498 3.10471 0
M  V30 2424 H 242.389 -0.841147 2.87654 0
M  V30 2425 H 239.95 -0.31289 1.58848 0
M  V30 2426 H 241.942 -3.31175 2.32606 0
M  V30 2427 H 240.512 -2.79645 1.39705 0
M  V30 2428 H 239.732 -1.62711 3.59053 0
M  V30 2429 H 241.02 -2.51701 4.42181 0
M  V30 2430 H 240.418 -5.06567 2.51806 0
M  V30 2431 H 238.975 -5.65544 3.24043 0
M  V30 2432 N 242.408 -1.52605 -0.393616 0
M  V30 2433 C 243.824 -1.41753 -0.733357 0
M  V30 2434 C 244.024 -0.534293 -1.94287 0
M  V30 2435 O 243.08 -0.0059787 -2.52499 0
M  V30 2436 C 244.393 -2.84531 -0.972772 0
M  V30 2437 C 245.941 -2.93978 -1.07453 0
M  V30 2438 C 246.416 -4.37756 -1.3466 0
M  V30 2439 N 247.907 -4.4106 -1.41492 0
M  V30 2440 C 248.642 -5.49387 -1.642 0
M  V30 2441 N 248.138 -6.67806 -1.8441 0
M  V30 2442 N 249.931 -5.36923 -1.66342 0
M  V30 2443 H 242.082 -2.08555 0.402328 0
M  V30 2444 H 244.345 -0.940654 0.117789 0
M  V30 2445 H 244.051 -3.51353 -0.156204 0
M  V30 2446 H 243.925 -3.26508 -1.88871 0
M  V30 2447 H 246.312 -2.27326 -1.88167 0
M  V30 2448 H 246.393 -2.55435 -0.136605 0
M  V30 2449 H 246.037 -5.04972 -0.544581 0
M  V30 2450 H 245.967 -4.73848 -2.2973 0
M  V30 2451 H 248.458 -3.55705 -1.27601 0
M  V30 2452 H 248.771 -7.46141 -2.01231 0
M  V30 2453 H 247.116 -6.70843 -1.81644 0
M  V30 2454 H 250.307 -4.43381 -1.50102 0
M  V30 2455 H 250.48 -6.21416 -1.837 0
M  V30 2456 N 243.887 0.651787 -1.4349 0
M  V30 2457 C 245.133 1.41376 -1.45398 0
M  V30 2458 C 245.466 1.94041 -0.0784823 0
M  V30 2459 O 244.741 1.72379 0.900878 0
M  V30 2460 C 245.024 2.59414 -2.49752 0
M  V30 2461 C 244.877 2.12232 -3.96582 0
M  V30 2462 C 246.196 3.61626 -2.50827 0
M  V30 2463 H 243.315 0.512719 -0.529422 0
M  V30 2464 H 245.957 0.738796 -1.75048 0
M  V30 2465 H 244.107 3.16997 -2.246 0
M  V30 2466 H 245.779 1.59639 -4.32797 0
M  V30 2467 H 244.022 1.43592 -4.09346 0
M  V30 2468 H 244.693 2.9712 -4.65214 0
M  V30 2469 H 247.169 3.13805 -2.7325 0
M  V30 2470 H 246.045 4.41766 -3.25783 0
M  V30 2471 H 246.306 4.14314 -1.5426 0
M  V30 2472 N 245.365 1.30045 0.890287 0
M  V30 2473 C 246.312 1.15976 1.99545 0
M  V30 2474 C 247.282 0.0506202 1.66023 0
M  V30 2475 O 248.467 0.219847 1.89529 0
M  V30 2476 C 245.607 0.852054 3.34416 0
M  V30 2477 C 244.72 2.04255 3.80662 0
M  V30 2478 C 243.855 1.6734 5.04154 0
M  V30 2479 C 242.894 2.82916 5.42794 0
M  V30 2480 N 242.031 2.46333 6.57468 0
M  V30 2481 H 246.871 2.10524 2.10911 0
M  V30 2482 H 244.408 1.04749 1.03276 0
M  V30 2483 H 246.366 0.654296 4.12037 0
M  V30 2484 H 244.996 -0.0565502 3.2275 0
M  V30 2485 H 244.048 2.35172 2.98995 0
M  V30 2486 H 245.36 2.90826 4.05242 0
M  V30 2487 H 244.514 1.43908 5.89386 0
M  V30 2488 H 243.253 0.779308 4.81433 0
M  V30 2489 H 242.258 3.0702 4.56091 0
M  V30 2490 H 243.483 3.73004 5.6749 0
M  V30 2491 H 241.429 1.59423 6.36334 0
M  V30 2492 H 241.346 3.26436 6.81891 0
M  V30 2493 H 242.614 2.26244 7.45945 0
M  V30 2494 N 246.843 -1.10192 1.12674 0
M  V30 2495 C 247.791 -2.18694 0.792196 0
M  V30 2496 C 248.785 -1.67938 -0.222058 0
M  V30 2497 O 249.991 -1.79822 -0.0800074 0
M  V30 2498 H 246.366 -0.713223 0.238364 0
M  V30 2499 H 248.337 -2.44149 1.71564 0
M  V30 2500 C 247.086 -3.46682 0.265859 0
M  V30 2501 H 246.409 -3.86101 1.03761 0
M  V30 2502 H 247.849 -4.23942 0.0701128 0
M  V30 2503 C 246.308 -3.21506 -1.00675 0
M  V30 2504 O 246.838 -3.43408 -2.08408 0
M  V30 2505 N 245.044 -2.75158 -0.934692 0
M  V30 2506 H 244.591 -2.57535 -0.0578604 0
M  V30 2507 H 244.549 -2.58691 -1.7868 0
M  V30 2508 N 248.321 -0.919034 -1.28029 0
M  V30 2509 C 249.268 -0.410005 -2.27129 0
M  V30 2510 C 250.238 0.518405 -1.57803 0
M  V30 2511 O 251.423 0.439451 -1.8567 0
M  V30 2512 C 248.563 0.339054 -3.4343 0
M  V30 2513 C 247.676 -0.622468 -4.27492 0
M  V30 2514 C 246.811 0.145567 -5.31001 0
M  V30 2515 C 245.85 -0.809226 -6.06727 0
M  V30 2516 N 244.987 -0.0743728 -7.02061 0
M  V30 2517 H 249.827 -1.26011 -2.70047 0
M  V30 2518 H 247.364 -0.632663 -1.328 0
M  V30 2519 H 249.322 0.789586 -4.0966 0
M  V30 2520 H 247.952 1.15346 -3.01488 0
M  V30 2521 H 247.004 -1.19153 -3.61257 0
M  V30 2522 H 248.316 -1.35252 -4.80113 0
M  V30 2523 H 247.47 0.656417 -6.03139 0
M  V30 2524 H 246.209 0.908643 -4.79161 0
M  V30 2525 H 245.214 -1.3314 -5.33436 0
M  V30 2526 H 246.439 -1.57194 -6.60656 0
M  V30 2527 H 244.385 0.670616 -6.52563 0
M  V30 2528 H 244.302 -0.744157 -7.52329 0
M  V30 2529 H 245.57 0.416109 -7.78389 0
M  V30 2530 N 249.799 1.42003 -0.683588 0
M  V30 2531 C 251.047 2.01015 -0.209101 0
M  V30 2532 C 251.368 1.54365 1.19149 0
M  V30 2533 O 250.638 0.769083 1.80172 0
M  V30 2534 H 249.218 0.743294 -0.074315 0
M  V30 2535 H 251.88 1.73798 -0.882066 0
M  V30 2536 H 250.976 3.11343 -0.2172 0
M  V30 2537 N 251.277 0.427512 1.51691 0
M  V30 2538 C 252.693 0.0792977 1.59403 0
M  V30 2539 C 252.893 -1.41035 1.43914 0
M  V30 2540 O 251.949 -2.17922 1.27539 0
M  V30 2541 C 253.262 0.590636 2.94842 0
M  V30 2542 C 254.81 0.550215 3.08126 0
M  V30 2543 C 255.285 1.03836 4.46074 0
M  V30 2544 N 256.776 0.995943 4.52366 0
M  V30 2545 C 257.511 1.34463 5.57411 0
M  V30 2546 N 257.007 1.76569 6.69922 0
M  V30 2547 N 258.8 1.26343 5.47717 0
M  V30 2548 H 250.951 1.39687 1.60004 0
M  V30 2549 H 253.214 0.575003 0.753708 0
M  V30 2550 H 252.92 1.63251 3.11516 0
M  V30 2551 H 252.794 0.0102061 3.77199 0
M  V30 2552 H 255.181 -0.482654 2.91126 0
M  V30 2553 H 255.262 1.16693 2.27632 0
M  V30 2554 H 254.906 2.06965 4.63819 0
M  V30 2555 H 254.836 0.398286 5.25092 0
M  V30 2556 H 257.327 0.68661 3.7161 0
M  V30 2557 H 257.64 2.01438 7.46085 0
M  V30 2558 H 255.985 1.80488 6.71155 0
M  V30 2559 H 259.176 0.933209 4.58703 0
M  V30 2560 H 259.349 1.53846 6.29472 0
M  V30 2561 N 252.755 -1.56801 0.158532 0
M  V30 2562 C 254.171 -1.5837 -0.197774 0
M  V30 2563 C 254.371 -1.17334 -1.63814 0
M  V30 2564 O 253.427 -0.878988 -2.36707 0
M  V30 2565 C 254.74 -3.00615 0.0714459 0
M  V30 2566 C 256.288 -3.12999 0.00864533 0
M  V30 2567 C 256.763 -4.57313 0.250685 0
M  V30 2568 N 258.254 -4.62777 0.198014 0
M  V30 2569 C 258.989 -5.72271 0.359642 0
M  V30 2570 N 258.485 -6.90371 0.579625 0
M  V30 2571 N 260.278 -5.61318 0.296438 0
M  V30 2572 H 252.429 -1.81765 1.09887 0
M  V30 2573 H 254.692 -0.841849 0.435884 0
M  V30 2574 H 254.398 -3.35068 1.06874 0
M  V30 2575 H 254.272 -3.71683 -0.642757 0
M  V30 2576 H 256.659 -2.7838 -0.979217 0
M  V30 2577 H 256.74 -2.44393 0.755359 0
M  V30 2578 H 256.384 -4.92639 1.2357 0
M  V30 2579 H 256.314 -5.24061 -0.516489 0
M  V30 2580 H 258.805 -3.77885 0.0331115 0
M  V30 2581 H 259.118 -7.69689 0.69275 0
M  V30 2582 H 257.463 -6.92264 0.616087 0
M  V30 2583 H 260.654 -4.67932 0.125258 0
M  V30 2584 H 260.827 -6.46599 0.425831 0
M  V30 2585 N 254.233 0.115231 -1.57178 0
M  V30 2586 C 255.482 0.820945 -1.84237 0
M  V30 2587 C 255.795 1.80866 -0.744761 0
M  V30 2588 O 257.001 2.56083 -0.901871 0
M  V30 2589 C 255.457 1.51072 -3.26658 0
M  V30 2590 C 255.065 0.563795 -4.44438 0
M  V30 2591 C 256.809 2.20134 -3.62962 0
M  V30 2592 C 254.716 1.25701 -5.77887 0
M  V30 2593 H 253.646 0.310328 -0.687177 0
M  V30 2594 H 256.297 0.0737134 -1.83352 0
M  V30 2595 H 254.679 2.30471 -3.22024 0
M  V30 2596 H 255.853 -0.197247 -4.60378 0
M  V30 2597 H 254.168 -0.0200638 -4.16395 0
M  V30 2598 H 256.765 2.72696 -4.59936 0
M  V30 2599 H 257.108 2.98107 -2.90582 0
M  V30 2600 H 257.641 1.47619 -3.69396 0
M  V30 2601 H 254.38 0.518493 -6.53446 0
M  V30 2602 H 253.9 1.98997 -5.65827 0
M  V30 2603 H 255.579 1.78915 -6.2177 0
M  V30 2604 N 255.711 1.52812 0.385517 0
M  V30 2605 C 256.674 1.77188 1.45386 0
M  V30 2606 C 257.674 0.641953 1.4743 0
M  V30 2607 O 258.864 0.910033 1.4854 0
M  V30 2608 C 255.996 1.87582 2.8465 0
M  V30 2609 H 257.189 2.72583 1.25054 0
M  V30 2610 H 254.742 1.43586 0.617467 0
M  V30 2611 H 255.477 0.941849 3.10322 0
M  V30 2612 H 255.262 2.69748 2.84567 0
M  V30 2613 H 256.752 2.08102 3.62054 0
M  V30 2614 N 257.189 -0.644168 1.43834 0
M  V30 2615 C 258.419 -1.42939 1.49171 0
M  V30 2616 C 258.827 -1.88874 0.111048 0
M  V30 2617 O 258.17 -1.60656 -0.8908 0
M  V30 2618 C 258.232 -2.69151 2.38324 0
M  V30 2619 C 257.896 -2.45097 3.85715 0
M  V30 2620 C 258.893 -2.07747 4.76589 0
M  V30 2621 C 256.578 -2.59141 4.30292 0
M  V30 2622 C 258.572 -1.8475 6.10038 0
M  V30 2623 C 256.259 -2.35759 5.63792 0
M  V30 2624 C 257.257 -1.9862 6.53482 0
M  V30 2625 O 256.945 -1.75489 7.84512 0
M  V30 2626 H 256.677 -0.445271 0.508635 0
M  V30 2627 H 259.231 -0.79621 1.8934 0
M  V30 2628 H 257.461 -3.3506 1.93058 0
M  V30 2629 H 259.15 -3.31123 2.3476 0
M  V30 2630 H 259.916 -1.96465 4.43426 0
M  V30 2631 H 255.795 -2.87022 3.60749 0
M  V30 2632 H 259.339 -1.55686 6.80006 0
M  V30 2633 H 255.236 -2.46646 5.9652 0
M  V30 2634 H 256.004 -1.89841 7.9618 0
M  V30 2635 N 258.668 -1.30515 -0.883378 0
M  V30 2636 C 259.598 -1.19607 -2.00541 0
M  V30 2637 C 260.579 -0.086346 -1.69881 0
M  V30 2638 O 261.764 -0.268654 -1.92333 0
M  V30 2639 C 258.894 -0.888758 -3.35736 0
M  V30 2640 C 257.848 -1.95659 -3.8066 0
M  V30 2641 C 257.174 -1.50224 -5.13164 0
M  V30 2642 C 258.474 -3.36788 -3.99213 0
M  V30 2643 H 260.168 -2.13476 -2.09925 0
M  V30 2644 H 257.714 -1.02775 -1.00863 0
M  V30 2645 H 259.667 -0.799094 -4.13754 0
M  V30 2646 H 258.391 0.0856125 -3.26488 0
M  V30 2647 H 257.05 -2.03591 -3.04871 0
M  V30 2648 H 256.698 -0.516092 -5.00345 0
M  V30 2649 H 256.398 -2.2165 -5.44192 0
M  V30 2650 H 257.922 -1.42639 -5.93706 0
M  V30 2651 H 259.336 -3.31605 -4.67665 0
M  V30 2652 H 257.733 -4.06314 -4.41621 0
M  V30 2653 H 258.803 -3.78561 -3.03017 0
M  V30 2654 O 260.185 1.01953 -1.25251 0
M  V30 2655 H 260.876 1.63744 -1.03478 0
M  V30 END ATOM
M  V30 BEGIN BOND
M  V30 END BOND
M  V30 END CTAB
M  END
$$$$
