drugbank_target|P18640 Botulinum neurotoxin type C1 (DB13898)
 OpenBabel12092121133D

  0  0  0     0  0            999 V3000
M  V30 BEGIN CTAB
M  V30 COUNTS 20807 21036 0 0 0
M  V30 BEGIN ATOM
M  V30 1 H -0.908 1.98254 -0.117106 0
M  V30 2 N 0 1.576 0 0
M  V30 3 C 0.933 2.03868 1.02534 0
M  V30 4 C 1.911 0.928543 1.3348 0
M  V30 5 O 3.095 1.19667 1.45644 0
M  V30 6 C 0.222 2.43627 2.35294 0
M  V30 7 C -0.732 3.65373 2.2001 0
M  V30 8 S 0.101 5.13292 1.52614 0
M  V30 9 C 1.257 5.56322 2.86805 0
M  V30 10 H 1.49 2.90518 0.631377 0
M  V30 11 H -0.977 1.52953 0.210867 0
M  V30 12 H 0.981 2.67203 3.11629 0
M  V30 13 H -0.358 1.57376 2.7183 0
M  V30 14 H -1.165 3.90944 3.18086 0
M  V30 15 H -1.563 3.418 1.51819 0
M  V30 16 H 0.729 5.58782 3.83104 0
M  V30 17 H 1.672 6.56266 2.65933 0
M  V30 18 H 2.08 4.83886 2.90714 0
M  V30 19 N 1.4781 -0.272755 1.55222 0
M  V30 20 C 2.8891 -0.84378 1.66545 0
M  V30 21 C 3.2401 -1.87035 0.592641 0
M  V30 22 O 2.3651 -2.14761 -0.265818 0
M  V30 23 C 2.9601 -1.53723 3.01918 0
M  V30 24 C 1.5191 -2.05628 3.15268 0
M  V30 25 C 0.6661 -0.898424 2.62343 0
M  V30 26 H 3.6171 -0.0490998 1.58624 0
M  V30 27 H 3.6381 -2.40421 2.94921 0
M  V30 28 H 3.1501 -0.78983 3.79978 0
M  V30 29 H 1.2511 -2.83329 2.41983 0
M  V30 30 H 1.3641 -2.27142 4.21833 0
M  V30 31 H -0.2719 -1.29186 2.19506 0
M  V30 32 H 0.5111 -0.164528 3.42906 0
M  V30 33 N 2.9562 -1.48159 -0.537278 0
M  V30 34 C 4.2052 -1.5506 -1.28993 0
M  V30 35 C 4.5182 -0.226211 -1.94288 0
M  V30 36 O 5.7242 -0.173395 -2.70946 0
M  V30 37 C 4.1802 -2.73429 -2.34018 0
M  V30 38 C 3.7882 -4.1248 -1.74825 0
M  V30 39 C 5.5322 -2.89638 -3.10339 0
M  V30 40 C 3.4392 -5.22121 -2.77747 0
M  V30 41 H 2.3692 -0.577231 -0.485098 0
M  V30 42 H 5.0202 -1.74478 -0.568317 0
M  V30 43 H 3.4022 -2.47431 -3.09182 0
M  V30 44 H 4.5762 -4.48466 -1.05899 0
M  V30 45 H 2.8912 -4.01327 -1.11022 0
M  V30 46 H 5.4882 -3.68718 -3.87235 0
M  V30 47 H 5.8312 -1.9882 -3.65754 0
M  V30 48 H 6.3642 -3.15502 -2.42288 0
M  V30 49 H 3.1032 -6.1488 -2.27161 0
M  V30 50 H 2.6232 -4.90631 -3.45024 0
M  V30 51 H 4.3022 -5.49924 -3.4087 0
M  V30 52 N 4.4343 0.785586 -1.36625 0
M  V30 53 C 5.6623 1.57448 -1.3423 0
M  V30 54 C 6.0773 1.88649 0.0755653 0
M  V30 55 O 5.4343 1.50414 1.03354 0
M  V30 56 C 5.4853 2.89316 -2.16745 0
M  V30 57 O 5.2063 2.59459 -3.53005 0
M  V30 58 C 6.7073 3.83606 -2.22174 0
M  V30 59 H 3.9273 0.488226 -0.4603 0
M  V30 60 H 6.4713 0.974733 -1.79775 0
M  V30 61 H 4.6263 3.4575 -1.74745 0
M  V30 62 H 5.0403 3.43804 -3.96105 0
M  V30 63 H 6.5143 4.73181 -2.8426 0
M  V30 64 H 6.9913 4.21734 -1.22627 0
M  V30 65 H 7.5973 3.33104 -2.64427 0
M  V30 66 N 5.9124 1.20967 1.01018 0
M  V30 67 C 7.1614 1.01796 1.74128 0
M  V30 68 C 7.4744 -0.449691 1.90361 0
M  V30 69 O 8.6804 -0.76068 2.60626 0
M  V30 70 C 7.1364 1.7727 3.13215 0
M  V30 71 C 6.7444 3.28171 3.04972 0
M  V30 72 C 8.4884 1.66489 3.90489 0
M  V30 73 C 6.3954 3.96156 4.39107 0
M  V30 74 H 5.3254 0.377276 0.652824 0
M  V30 75 H 7.9764 1.44651 1.12909 0
M  V30 76 H 6.3584 1.27205 3.75013 0
M  V30 77 H 7.5324 3.85499 2.52443 0
M  V30 78 H 5.8474 3.39437 2.41188 0
M  V30 79 H 8.4444 2.14617 4.89738 0
M  V30 80 H 8.7874 0.6222 4.11624 0
M  V30 81 H 9.3204 2.14003 3.35332 0
M  V30 82 H 6.0594 5.00604 4.23174 0
M  V30 83 H 5.5794 3.43617 4.91617 0
M  V30 84 H 7.2584 4.00774 5.07926 0
M  V30 85 N 7.3905 -1.2043 1.01659 0
M  V30 86 C 8.3385 -2.25249 0.580143 0
M  V30 87 C 9.3325 -1.65057 -0.381115 0
M  V30 88 O 10.5385 -1.78241 -0.251039 0
M  V30 89 H 6.9135 -0.732695 0.169299 0
M  V30 90 H 8.8845 -2.59389 1.47512 0
M  V30 91 C 7.6335 -3.47638 -0.065788 0
M  V30 92 H 6.9565 -3.94233 0.664874 0
M  V30 93 H 8.3965 -4.2268 -0.334282 0
M  V30 94 C 6.8555 -3.10447 -1.3086 0
M  V30 95 O 7.3855 -3.21981 -2.4019 0
M  V30 96 N 5.5915 -2.64996 -1.1927 0
M  V30 97 H 5.1385 -2.55811 -0.303064 0
M  V30 98 H 5.0965 -2.40482 -2.02523 0
M  V30 99 N 8.8686 -0.792821 -1.36206 0
M  V30 100 C 9.8166 -0.181555 -2.3189 0
M  V30 101 C 10.8106 0.661025 -1.55971 0
M  V30 102 O 12.0166 0.555728 -1.71206 0
M  V30 103 H 8.3916 -0.0399382 -0.750939 0
M  V30 104 H 10.3626 -1.00394 -2.81005 0
M  V30 105 C 9.1116 0.666444 -3.41253 0
M  V30 106 H 8.4346 0.0274489 -3.99791 0
M  V30 107 H 9.8746 1.06076 -4.10517 0
M  V30 108 C 8.3336 1.82614 -2.83114 0
M  V30 109 O 8.8636 2.9229 -2.75553 0
M  V30 110 N 7.0696 1.63333 -2.40356 0
M  V30 111 H 6.6166 0.741217 -2.46706 0
M  V30 112 H 6.5746 2.41087 -2.01803 0
M  V30 113 N 10.3467 1.47872 -0.545128 0
M  V30 114 C 11.5937 2.02493 -0.0165858 0
M  V30 115 C 11.9217 1.42073 1.32836 0
M  V30 116 O 11.1767 0.561459 1.87473 0
M  V30 117 C 11.4757 3.57131 0.13867 0
M  V30 118 C 11.1417 4.36411 -1.13384 0
M  V30 119 C 9.8037 4.57792 -1.48256 0
M  V30 120 C 12.1557 4.82223 -1.97764 0
M  V30 121 C 9.4837 5.22233 -2.67376 0
M  V30 122 C 11.8357 5.47977 -3.16076 0
M  V30 123 C 10.4997 5.67593 -3.51275 0
M  V30 124 H 9.7697 0.740975 -0.00606918 0
M  V30 125 H 12.4167 1.77683 -0.714207 0
M  V30 126 H 10.7217 3.80865 0.919172 0
M  V30 127 H 12.4187 3.97031 0.562782 0
M  V30 128 H 9.0087 4.2004 -0.852297 0
M  V30 129 H 13.1927 4.65493 -1.72132 0
M  V30 130 H 8.4487 5.35616 -2.94831 0
M  V30 131 H 12.6227 5.8244 -3.81755 0
M  V30 132 H 10.2497 6.17298 -4.43675 0
M  V30 133 N 11.8248 0.280983 1.55075 0
M  V30 134 C 12.7728 -0.619864 2.24188 0
M  V30 135 C 13.7668 -1.15315 1.24092 0
M  V30 136 O 14.9728 -1.1061 1.42005 0
M  V30 137 H 11.3478 -0.218459 0.719569 0
M  V30 138 H 13.3188 -0.0141831 2.98397 0
M  V30 139 C 12.0678 -1.7899 2.98091 0
M  V30 140 H 11.3908 -1.38874 3.74905 0
M  V30 141 H 12.8308 -2.39672 3.49762 0
M  V30 142 C 11.2898 -2.68192 2.03899 0
M  V30 143 O 11.8198 -3.6872 1.594 0
M  V30 144 N 10.0258 -2.35488 1.70275 0
M  V30 145 H 9.5728 -1.53787 2.06658 0
M  V30 146 H 9.5308 -2.95442 1.07524 0
M  V30 147 N 13.3029 -1.57598 0.00835791 0
M  V30 148 C 14.5329 -1.94931 -0.684496 0
M  V30 149 C 14.9409 -0.882233 -1.67372 0
M  V30 150 O 14.2839 0.146621 -1.83114 0
M  V30 151 C 14.3459 -3.283 -1.4649 0
M  V30 152 C 14.0099 -4.52548 -0.63634 0
M  V30 153 C 15.0069 -5.19839 0.0795586 0
M  V30 154 C 12.6919 -4.98942 -0.579849 0
M  V30 155 C 14.6859 -6.3183 0.840843 0
M  V30 156 C 12.3729 -6.10819 0.185155 0
M  V30 157 C 13.3709 -6.77121 0.894227 0
M  V30 158 O 13.0589 -7.86853 1.64673 0
M  V30 159 H 12.7909 -0.647249 -0.19505 0
M  V30 160 H 15.3449 -2.05318 0.0581272 0
M  V30 161 H 13.5749 -3.14345 -2.2522 0
M  V30 162 H 15.2639 -3.50685 -2.04389 0
M  V30 163 H 16.0299 -4.84979 0.0451202 0
M  V30 164 H 11.9089 -4.47155 -1.1213 0
M  V30 165 H 15.4529 -6.83513 1.39483 0
M  V30 166 H 11.3499 -6.4512 0.221384 0
M  V30 167 H 12.1179 -8.03412 1.56432 0
M  V30 168 N 14.781 0.264519 -1.55364 0
M  V30 169 C 16.006 1.01726 -1.80739 0
M  V30 170 C 16.431 1.78836 -0.583044 0
M  V30 171 O 15.789 1.75167 0.467566 0
M  V30 172 C 15.837 1.94482 -3.03659 0
M  V30 173 O 14.941 3.03386 -2.7934 0
M  V30 174 H 14.282 0.290395 -0.597132 0
M  V30 175 H 16.812 0.290854 -2.02522 0
M  V30 176 H 16.822 2.36278 -3.32621 0
M  V30 177 H 15.497 1.37772 -3.92418 0
M  V30 178 H 14.074 2.65844 -2.61498 0
M  V30 179 N 16.2591 1.48442 0.529413 0
M  V30 180 C 17.5361 1.46978 1.29062 0
M  V30 181 C 17.9161 0.181769 2.10316 0
M  V30 182 O 17.2641 -0.836481 2.12639 0
M  V30 183 C 17.4741 2.7321 2.17157 0
M  V30 184 C 18.8221 3.21562 2.77278 0
M  V30 185 O 19.8461 2.74131 2.27444 0
M  V30 186 O 18.7051 4.04094 3.67927 0
M  V30 187 H 15.7991 0.587003 0.582543 0
M  V30 188 H 18.3451 1.60676 0.546021 0
M  V30 189 H 17.1171 3.58465 1.56903 0
M  V30 190 H 16.7401 2.62235 2.98862 0
M  V30 191 N 17.7372 -0.778329 1.37039 0
M  V30 192 C 19.1482 -1.35421 1.28523 0
M  V30 193 C 19.4992 -1.96075 -0.0700901 0
M  V30 194 O 18.6242 -1.93352 -0.971801 0
M  V30 195 C 19.2192 -2.46211 2.32735 0
M  V30 196 C 17.7782 -2.99585 2.27873 0
M  V30 197 C 16.9252 -1.72748 2.16918 0
M  V30 198 H 19.8762 -0.5791 1.47757 0
M  V30 199 H 19.8972 -3.2552 1.9702 0
M  V30 200 H 19.4092 -2.02036 3.31365 0
M  V30 201 H 17.5102 -3.48152 1.32745 0
M  V30 202 H 17.6232 -3.55646 3.21018 0
M  V30 203 H 15.9872 -1.95416 1.63354 0
M  V30 204 H 16.7702 -1.30686 3.17452 0
M  V30 205 N 19.2153 -1.21501 -1.00376 0
M  V30 206 C 20.4613 -1.03452 -1.74429 0
M  V30 207 C 20.7943 0.430764 -1.89362 0
M  V30 208 O 20.0693 1.31962 -1.42886 0
M  V30 209 C 20.3523 -1.73375 -3.15615 0
M  V30 210 C 20.2053 -3.27431 -3.08397 0
M  V30 211 C 21.5243 -1.47732 -4.14564 0
M  V30 212 H 18.6433 -0.377226 -0.633143 0
M  V30 213 H 21.2853 -1.49693 -1.17013 0
M  V30 214 H 19.4353 -1.34064 -3.64636 0
M  V30 215 H 21.1073 -3.76119 -2.67081 0
M  V30 216 H 19.3503 -3.5767 -2.45468 0
M  V30 217 H 20.0213 -3.71524 -4.08258 0
M  V30 218 H 22.4973 -1.8186 -3.74254 0
M  V30 219 H 21.3733 -1.99169 -5.11491 0
M  V30 220 H 21.6343 -0.407589 -4.40217 0
M  V30 221 N 20.6934 1.19889 -1.02296 0
M  V30 222 C 21.9704 1.85148 -0.630832 0
M  V30 223 C 22.3504 1.91385 0.890782 0
M  V30 224 O 21.6984 1.42642 1.78509 0
M  V30 225 C 21.9084 3.24442 -1.28602 0
M  V30 226 C 23.2564 4.00663 -1.4055 0
M  V30 227 O 24.2804 3.33818 -1.24273 0
M  V30 228 O 23.1394 5.20387 -1.66913 0
M  V30 229 H 20.2334 0.797613 -0.218499 0
M  V30 230 H 22.7794 1.27427 -1.12074 0
M  V30 231 H 21.5514 3.14704 -2.32545 0
M  V30 232 H 21.1744 3.89802 -0.7836 0
M  V30 233 N 22.1715 0.800033 1.35784 0
M  V30 234 C 23.1195 0.193851 2.31791 0
M  V30 235 C 24.1135 -0.652744 1.56319 0
M  V30 236 O 25.3195 -0.546641 1.71499 0
M  V30 237 H 21.6945 0.04392 0.750716 0
M  V30 238 H 23.6655 1.01883 2.80468 0
M  V30 239 C 22.4145 -0.648338 3.41602 0
M  V30 240 H 21.7375 -0.00624665 3.998 0
M  V30 241 H 23.1775 -1.03898 4.11073 0
M  V30 242 C 21.6365 -1.8111 2.84079 0
M  V30 243 O 22.1665 -2.90825 2.77099 0
M  V30 244 N 20.3725 -1.62056 2.41218 0
M  V30 245 H 19.9195 -0.728123 2.47095 0
M  V30 246 H 19.8775 -2.40013 2.03079 0
M  V30 247 N 23.6496 -1.47581 0.552962 0
M  V30 248 C 24.5966 -2.29957 -0.197108 0
M  V30 249 C 25.5666 -1.38799 -0.912359 0
M  V30 250 O 26.7516 -1.67761 -0.908888 0
M  V30 251 C 23.8916 -3.22672 -1.22379 0
M  V30 252 C 23.0046 -4.28919 -0.515038 0
M  V30 253 C 22.1396 -5.0879 -1.52664 0
M  V30 254 C 21.1786 -6.06815 -0.802631 0
M  V30 255 N 20.3156 -6.7966 -1.76086 0
M  V30 256 H 25.1556 -2.93578 0.511486 0
M  V30 257 H 22.6926 -1.4471 0.264067 0
M  V30 258 H 24.6506 -3.74845 -1.83159 0
M  V30 259 H 23.2806 -2.60925 -1.90047 0
M  V30 260 H 22.3326 -3.79835 0.207192 0
M  V30 261 H 23.6446 -4.98773 0.0523425 0
M  V30 262 H 22.7986 -5.65091 -2.20809 0
M  V30 263 H 21.5376 -4.38828 -2.12794 0
M  V30 264 H 20.5426 -5.49695 -0.107238 0
M  V30 265 H 21.7676 -6.78784 -0.207135 0
M  V30 266 H 19.7136 -6.12432 -2.35081 0
M  V30 267 H 19.6306 -7.45669 -1.24552 0
M  V30 268 H 20.8986 -7.40538 -2.43359 0
M  V30 269 N 25.1277 -0.289203 -1.54924 0
M  V30 270 C 26.0757 0.607966 -2.24514 0
M  V30 271 C 27.0697 1.14655 -1.24702 0
M  V30 272 O 28.2757 1.09856 -1.4259 0
M  V30 273 H 24.6507 0.21464 -0.720718 0
M  V30 274 H 26.6217 -0.00164182 -2.984 0
M  V30 275 C 25.3707 1.77406 -2.99036 0
M  V30 276 H 24.6937 1.36884 -3.75637 0
M  V30 277 H 26.1337 2.37814 -3.51028 0
M  V30 278 C 24.5927 2.67107 -2.05318 0
M  V30 279 O 25.1227 3.6787 -1.61353 0
M  V30 280 N 23.3287 2.34582 -1.71521 0
M  V30 281 H 22.8757 1.52688 -2.07471 0
M  V30 282 H 22.8337 2.94867 -1.0909 0
M  V30 283 N 26.6058 1.57591 -0.0167156 0
M  V30 284 C 27.8548 1.90461 0.663877 0
M  V30 285 C 28.1678 0.893515 1.73999 0
M  V30 286 O 29.3738 1.11302 2.47637 0
M  V30 287 C 27.8298 3.38155 1.23204 0
M  V30 288 C 27.4378 4.47597 0.189866 0
M  V30 289 C 29.1818 3.80111 1.88986 0
M  V30 290 C 27.0888 5.86379 0.768964 0
M  V30 291 H 26.0188 0.710738 0.251729 0
M  V30 292 H 28.6698 1.83326 -0.0799926 0
M  V30 293 H 27.0518 3.40182 2.02712 0
M  V30 294 H 28.2258 4.57112 -0.581846 0
M  V30 295 H 26.5408 4.14766 -0.368475 0
M  V30 296 H 29.1378 4.81145 2.33247 0
M  V30 297 H 29.4808 3.14511 2.72743 0
M  V30 298 H 30.0138 3.80454 1.16187 0
M  V30 299 H 26.7528 6.55493 -0.0301957 0
M  V30 300 H 26.2728 5.80496 1.50945 0
M  V30 301 H 27.9518 6.34563 1.26251 0
M  V30 302 N 28.0839 -0.256276 1.55502 0
M  V30 303 C 29.0139 -1.32102 1.92539 0
M  V30 304 C 29.9949 -1.50684 0.789194 0
M  V30 305 O 31.1799 -1.63449 1.04872 0
M  V30 306 C 28.3099 -2.67752 2.21192 0
M  V30 307 C 27.2639 -2.63878 3.36975 0
M  V30 308 C 26.5899 -4.03236 3.51147 0
M  V30 309 C 27.8899 -2.21682 4.72921 0
M  V30 310 H 29.5839 -1.01351 2.81724 0
M  V30 311 H 27.1299 -0.486105 1.35547 0
M  V30 312 H 29.0829 -3.42365 2.45691 0
M  V30 313 H 27.8069 -3.0012 1.28824 0
M  V30 314 H 26.4659 -1.91722 3.12471 0
M  V30 315 H 26.1139 -4.32854 2.56216 0
M  V30 316 H 25.8139 -4.01535 4.29003 0
M  V30 317 H 27.3379 -4.79563 3.77957 0
M  V30 318 H 28.7519 -2.86023 4.96854 0
M  V30 319 H 27.1489 -2.3111 5.53812 0
M  V30 320 H 28.2189 -1.16833 4.70615 0
M  V30 321 N 29.562 -1.4872 -0.521534 0
M  V30 322 C 30.792 -1.6061 -1.29954 0
M  V30 323 C 31.2 -0.268728 -1.87282 0
M  V30 324 O 30.543 0.753221 -1.67548 0
M  V30 325 C 30.605 -2.60013 -2.48261 0
M  V30 326 C 30.269 -4.04874 -2.11957 0
M  V30 327 C 31.266 -4.92304 -1.67132 0
M  V30 328 C 28.951 -4.5047 -2.22221 0
M  V30 329 C 30.945 -6.2336 -1.33047 0
M  V30 330 C 28.632 -5.81544 -1.87748 0
M  V30 331 C 29.63 -6.67812 -1.43234 0
M  V30 332 O 29.318 -7.96446 -1.09217 0
M  V30 333 H 29.05 -0.544116 -0.401141 0
M  V30 334 H 31.604 -1.95339 -0.634958 0
M  V30 335 H 29.834 -2.20422 -3.17728 0
M  V30 336 H 31.523 -2.61648 -3.10315 0
M  V30 337 H 32.289 -4.58312 -1.58665 0
M  V30 338 H 28.168 -3.83504 -2.55823 0
M  V30 339 H 31.712 -6.90649 -0.982299 0
M  V30 340 H 27.609 -6.15069 -1.95858 0
M  V30 341 H 28.377 -8.09275 -1.22542 0
M  V30 342 N 31.0401 0.771051 -1.3745 0
M  V30 343 C 31.9701 1.89827 -1.3597 0
M  V30 344 C 32.9511 1.68562 -0.228216 0
M  V30 345 O 34.1361 1.8941 -0.428675 0
M  V30 346 C 31.2661 3.2712 -1.16662 0
M  V30 347 C 30.2201 3.6295 -2.2683 0
M  V30 348 C 29.5461 4.98791 -1.92644 0
M  V30 349 C 30.8461 3.69627 -3.69017 0
M  V30 350 H 32.5401 1.91323 -2.30295 0
M  V30 351 H 30.0861 0.919082 -1.10855 0
M  V30 352 H 32.0391 4.05615 -1.14256 0
M  V30 353 H 30.7631 3.26059 -0.187926 0
M  V30 354 H 29.4221 2.86763 -2.28392 0
M  V30 355 H 29.0701 4.94271 -0.933021 0
M  V30 356 H 28.7701 5.23733 -2.66416 0
M  V30 357 H 30.2941 5.79685 -1.91826 0
M  V30 358 H 31.7081 4.38273 -3.69581 0
M  V30 359 H 30.1051 4.06067 -4.41848 0
M  V30 360 H 31.1751 2.70273 -4.02592 0
M  V30 361 N 32.5182 1.22032 0.997298 0
M  V30 362 C 33.7952 0.950823 1.70935 0
M  V30 363 C 34.1752 -0.535292 2.042 0
M  V30 364 O 33.5232 -1.50217 1.72183 0
M  V30 365 C 33.7332 1.84386 2.96315 0
M  V30 366 C 35.0812 2.09732 3.69185 0
M  V30 367 O 36.1052 1.81798 3.06314 0
M  V30 368 O 34.9642 2.57018 4.82291 0
M  V30 369 H 32.0582 0.357204 0.745878 0
M  V30 370 H 34.6042 1.32997 1.05404 0
M  V30 371 H 33.3762 2.84928 2.68201 0
M  V30 372 H 32.9992 1.46602 3.69586 0
M  V30 373 N 33.9963 -1.19345 1.0293 0
M  V30 374 C 35.2243 -1.92997 0.745644 0
M  V30 375 C 35.6393 -1.75519 -0.695589 0
M  V30 376 O 34.9963 -1.07737 -1.47306 0
M  V30 377 C 35.0473 -3.44741 1.08792 0
M  V30 378 O 34.7683 -3.61658 2.47256 0
M  V30 379 C 36.2693 -4.35515 0.827129 0
M  V30 380 H 33.4893 -0.613042 0.272801 0
M  V30 381 H 36.0333 -1.51473 1.3739 0
M  V30 382 H 34.1883 -3.84097 0.504832 0
M  V30 383 H 34.6023 -4.55514 2.60015 0
M  V30 384 H 36.0763 -5.40589 1.11658 0
M  V30 385 H 36.5533 -4.38552 -0.238436 0
M  V30 386 H 37.1593 -4.01841 1.39297 0
M  V30 387 N 35.4744 -0.807222 -1.35358 0
M  V30 388 C 36.4244 -0.190706 -2.27201 0
M  V30 389 C 37.4084 0.635838 -1.47804 0
M  V30 390 O 38.6004 0.492991 -1.69996 0
M  V30 391 C 35.7294 0.659337 -3.36909 0
M  V30 392 C 34.8154 -0.176971 -4.23731 0
M  V30 393 N 35.2064 -1.24029 -4.90357 0
M  V30 394 C 33.5044 0.0412953 -4.45981 0
M  V30 395 C 34.2054 -1.75092 -5.54723 0
M  V30 396 N 33.1814 -1.05727 -5.33219 0
M  V30 397 H 36.9834 -1.0043 -2.76208 0
M  V30 398 H 34.4974 -0.648445 -1.48892 0
M  V30 399 H 36.4944 1.11706 -4.01656 0
M  V30 400 H 35.1544 1.47127 -2.89454 0
M  V30 401 H 36.1654 -1.62295 -4.91814 0
M  V30 402 H 32.8424 0.82232 -4.09322 0
M  V30 403 H 34.2324 -2.63963 -6.17878 0
M  V30 404 N 36.9525 1.47285 -0.560781 0
M  V30 405 C 37.8825 2.32857 0.173105 0
M  V30 406 C 38.8635 1.44009 0.905281 0
M  V30 407 O 40.0485 1.7286 0.885046 0
M  V30 408 C 37.1785 3.25861 1.20133 0
M  V30 409 C 36.1325 4.23978 0.585388 0
M  V30 410 C 35.4585 5.06332 1.7185 0
M  V30 411 C 36.7585 5.20242 -0.463178 0
M  V30 412 H 38.4525 2.94466 -0.541307 0
M  V30 413 H 35.9985 1.41601 -0.261764 0
M  V30 414 H 37.9515 3.84569 1.72293 0
M  V30 415 H 36.6755 2.62315 1.94573 0
M  V30 416 H 35.3345 3.66501 0.085054 0
M  V30 417 H 34.9825 4.39186 2.45203 0
M  V30 418 H 34.6825 5.72762 1.31213 0
M  V30 419 H 36.2065 5.67899 2.24329 0
M  V30 420 H 37.6205 5.73293 -0.027502 0
M  V30 421 H 36.0175 5.94896 -0.788627 0
M  V30 422 H 37.0875 4.65504 -1.35773 0
M  V30 423 N 38.4306 0.297415 1.54768 0
M  V30 424 C 39.3786 -0.596051 2.24833 0
M  V30 425 C 40.3726 -1.13992 1.25308 0
M  V30 426 O 41.5786 -1.09098 1.4317 0
M  V30 427 H 37.9536 -0.210814 0.721846 0
M  V30 428 H 39.9246 0.0174667 2.98395 0
M  V30 429 C 38.6736 -1.75818 2.99972 0
M  V30 430 H 37.9966 -1.3489 3.76357 0
M  V30 431 H 39.4366 -2.35949 3.52284 0
M  V30 432 C 37.8956 -2.66014 2.06732 0
M  V30 433 O 38.4256 -3.67009 1.63302 0
M  V30 434 N 36.6316 -2.33669 1.72763 0
M  V30 435 H 36.1786 -1.51586 2.08277 0
M  V30 436 H 36.1366 -2.94285 1.10652 0
M  V30 437 N 39.9087 -1.5758 0.0250728 0
M  V30 438 C 41.1367 -1.9593 -0.664747 0
M  V30 439 C 41.5517 -0.901352 -1.65895 0
M  V30 440 O 40.9087 0.117255 -1.82123 0
M  V30 441 C 40.9597 -3.34342 -1.37468 0
M  V30 442 O 40.6807 -4.36079 -0.420324 0
M  V30 443 C 42.1817 -3.873 -2.1567 0
M  V30 444 H 39.4017 -0.645405 -0.183557 0
M  V30 445 H 41.9457 -2.04329 0.0836372 0
M  V30 446 H 40.1007 -3.27175 -2.0745 0
M  V30 447 H 40.5147 -5.16297 -0.923991 0
M  V30 448 H 41.9887 -4.86504 -2.60803 0
M  V30 449 H 42.4657 -3.21331 -2.99405 0
M  V30 450 H 43.0717 -3.97723 -1.50654 0
M  V30 451 N 41.3868 0.248026 -1.55636 0
M  V30 452 C 42.3168 1.31079 -1.93237 0
M  V30 453 C 43.2978 1.50264 -0.797174 0
M  V30 454 O 44.4828 1.62891 -1.05737 0
M  V30 455 C 41.6128 2.66575 -2.22609 0
M  V30 456 C 40.5668 2.62087 -3.3837 0
M  V30 457 C 39.8928 4.01369 -3.53281 0
M  V30 458 C 41.1928 2.19171 -4.7409 0
M  V30 459 H 42.8868 0.998556 -2.82257 0
M  V30 460 H 40.4328 0.47891 -1.35803 0
M  V30 461 H 42.3858 3.41057 -2.47503 0
M  V30 462 H 41.1098 2.99432 -1.30414 0
M  V30 463 H 39.7688 1.90063 -3.13483 0
M  V30 464 H 39.4168 4.31489 -2.58508 0
M  V30 465 H 39.1168 3.99254 -4.31127 0
M  V30 466 H 40.6408 4.77552 -3.80495 0
M  V30 467 H 42.0548 2.83384 -4.98363 0
M  V30 468 H 40.4518 2.2817 -5.5503 0
M  V30 469 H 41.5218 1.14336 -4.71227 0
M  V30 470 N 42.8649 1.48995 0.513639 0
M  V30 471 C 43.8279 1.64229 1.59879 0
M  V30 472 C 44.8279 0.514696 1.5234 0
M  V30 473 O 46.0179 0.78087 1.55718 0
M  V30 474 C 43.1499 1.62783 2.99524 0
M  V30 475 H 44.3429 2.61004 1.47705 0
M  V30 476 H 41.8959 1.37837 0.736936 0
M  V30 477 H 42.6309 0.675461 3.17188 0
M  V30 478 H 42.4159 2.4466 3.06404 0
M  V30 479 H 43.9059 1.76669 3.78388 0
M  V30 480 N 44.343 -0.763751 1.37857 0
M  V30 481 C 45.291 -1.89864 1.34367 0
M  V30 482 C 46.285 -1.67816 0.231143 0
M  V30 483 O 47.491 -1.75508 0.399617 0
M  V30 484 H 43.866 -0.624501 0.41893 0
M  V30 485 H 45.837 -1.89925 2.30155 0
M  V30 486 C 44.586 -3.27227 1.1755 0
M  V30 487 H 43.909 -3.44773 2.02414 0
M  V30 488 H 45.349 -4.06911 1.1916 0
M  V30 489 C 43.808 -3.36692 -0.118311 0
M  V30 490 O 44.338 -3.86374 -1.09902 0
M  V30 491 N 42.544 -2.90092 -0.171717 0
M  V30 492 H 42.091 -2.49853 0.627012 0
M  V30 493 H 42.049 -2.96806 -1.03699 0
M  V30 494 N 45.8211 -1.22559 -0.990812 0
M  V30 495 C 46.7311 -1.01394 -2.11557 0
M  V30 496 C 47.7471 0.0383962 -1.73958 0
M  V30 497 O 48.9231 -0.154787 -2.00804 0
M  V30 498 C 45.9881 -0.596569 -3.41529 0
M  V30 499 C 45.0491 -1.72276 -3.93217 0
M  V30 500 C 44.2821 -1.32521 -5.16985 0
M  V30 501 O 44.5051 -0.204909 -5.70032 0
M  V30 502 O 43.4391 -2.14247 -5.62478 0
M  V30 503 H 47.2651 -1.95633 -2.32296 0
M  V30 504 H 44.8501 -1.01172 -1.0993 0
M  V30 505 H 46.7321 -0.374263 -4.19735 0
M  V30 506 H 45.4071 0.316939 -3.22145 0
M  V30 507 H 44.3141 -1.99961 -3.16174 0
M  V30 508 H 45.6471 -2.61421 -4.17037 0
M  V30 509 N 47.2992 1.18797 -1.03562 0
M  V30 510 C 48.7102 1.70322 -0.764676 0
M  V30 511 C 49.0612 1.82708 0.714996 0
M  V30 512 O 48.1862 1.50299 1.55689 0
M  V30 513 C 48.7812 3.09356 -1.38145 0
M  V30 514 C 47.3402 3.58114 -1.15895 0
M  V30 515 C 46.4872 2.34798 -1.4753 0
M  V30 516 H 49.4382 1.03543 -1.20268 0
M  V30 517 H 49.4592 3.72378 -0.781977 0
M  V30 518 H 48.9712 3.00309 -2.45837 0
M  V30 519 H 47.0722 3.72464 -0.100544 0
M  V30 520 H 47.1852 4.4184 -1.8524 0
M  V30 521 H 45.5492 2.38464 -0.894829 0
M  V30 522 H 46.3322 2.28375 -2.56319 0
M  V30 523 N 48.7773 0.814389 1.34928 0
M  V30 524 C 49.6873 0.231978 2.3345 0
M  V30 525 C 50.7033 -0.629139 1.62228 0
M  V30 526 O 51.8793 -0.539052 1.94052 0
M  V30 527 C 48.9443 -0.603482 3.41407 0
M  V30 528 C 48.0053 0.279037 4.28392 0
M  V30 529 C 47.2383 -0.516643 5.31193 0
M  V30 530 O 47.4613 -1.75068 5.4287 0
M  V30 531 O 46.3953 0.0965652 6.01823 0
M  V30 532 H 50.2213 1.04721 2.85074 0
M  V30 533 H 47.8063 0.576343 1.37836 0
M  V30 534 H 49.6883 -1.07908 4.0735 0
M  V30 535 H 48.3633 -1.39618 2.92042 0
M  V30 536 H 47.2703 0.801948 3.65403 0
M  V30 537 H 48.6033 1.03588 4.81176 0
M  V30 538 N 50.2554 -1.46986 0.568584 0
M  V30 539 C 51.2024 -2.30153 -0.172707 0
M  V30 540 C 52.1724 -1.39759 -0.897586 0
M  V30 541 O 53.3574 -1.68716 -0.891044 0
M  V30 542 C 50.4974 -3.23952 -1.1895 0
M  V30 543 C 49.6104 -4.29441 -0.469517 0
M  V30 544 C 48.7454 -5.1038 -1.47259 0
M  V30 545 C 47.7844 -6.07632 -0.738225 0
M  V30 546 N 46.9214 -6.8149 -1.68868 0
M  V30 547 H 51.7614 -2.93019 0.542596 0
M  V30 548 H 49.2984 -1.44422 0.279401 0
M  V30 549 H 51.2564 -3.76767 -1.79173 0
M  V30 550 H 49.8864 -2.62926 -1.87269 0
M  V30 551 H 48.9384 -3.79594 0.247467 0
M  V30 552 H 50.2504 -4.98689 0.105241 0
M  V30 553 H 49.4044 -5.67402 -2.14803 0
M  V30 554 H 48.1434 -4.4106 -2.08128 0
M  V30 555 H 47.1484 -5.49778 -0.0489293 0
M  V30 556 H 48.3734 -6.78966 -0.135129 0
M  V30 557 H 46.3194 -6.14891 -2.28573 0
M  V30 558 H 46.2364 -7.46948 -1.16636 0
M  V30 559 H 47.5044 -7.43078 -2.3549 0
M  V30 560 N 51.7335 -0.305618 -1.54608 0
M  V30 561 C 52.6965 0.555591 -2.22364 0
M  V30 562 C 53.6965 1.05768 -1.21119 0
M  V30 563 O 54.8865 0.952972 -1.45822 0
M  V30 564 C 52.0185 1.76974 -2.91364 0
M  V30 565 H 53.2115 -0.0364572 -2.99878 0
M  V30 566 H 50.7645 -0.0565007 -1.56198 0
M  V30 567 H 51.4995 2.40151 -2.17941 0
M  V30 568 H 51.2845 1.41732 -3.65588 0
M  V30 569 H 52.7745 2.38148 -3.43038 0
M  V30 570 N 53.2116 1.57565 -0.0334293 0
M  V30 571 C 54.4586 1.91978 0.644272 0
M  V30 572 C 54.7866 0.910231 1.71887 0
M  V30 573 O 54.0416 -0.0801961 1.95536 0
M  V30 574 C 54.3406 3.33112 1.29504 0
M  V30 575 C 54.0066 4.49537 0.350388 0
M  V30 576 C 52.6686 4.81115 0.0903974 0
M  V30 577 C 55.0206 5.20347 -0.298032 0
M  V30 578 C 52.3486 5.8086 -0.825746 0
M  V30 579 C 54.7006 6.2107 -1.20226 0
M  V30 580 C 53.3646 6.51088 -1.4711 0
M  V30 581 H 52.6346 0.702496 0.235756 0
M  V30 582 H 55.2816 1.91259 -0.0961176 0
M  V30 583 H 53.5866 3.30113 2.11028 0
M  V30 584 H 55.2836 3.57011 1.82603 0
M  V30 585 H 51.8736 4.24883 0.563205 0
M  V30 586 H 56.0576 4.96178 -0.110234 0
M  V30 587 H 51.3136 6.02461 -1.04169 0
M  V30 588 H 55.4876 6.75057 -1.71086 0
M  V30 589 H 53.1146 7.28193 -2.18264 0
M  V30 590 N 54.6897 -0.239769 1.55765 0
M  V30 591 C 56.1057 -0.588624 1.48349 0
M  V30 592 C 56.3057 -1.88005 0.72502 0
M  V30 593 O 55.3617 -2.51186 0.257269 0
M  V30 594 C 56.6747 -0.68474 2.928 0
M  V30 595 C 58.2227 -0.77659 3.03213 0
M  V30 596 C 58.6977 -0.904207 4.48986 0
M  V30 597 N 60.1887 -0.968896 4.52953 0
M  V30 598 C 60.9237 -1.08703 5.63002 0
M  V30 599 N 60.4197 -1.17026 6.82845 0
M  V30 600 N 62.2127 -1.12074 5.50814 0
M  V30 601 H 54.3637 0.607911 2.03515 0
M  V30 602 H 56.6267 0.21083 0.924259 0
M  V30 603 H 56.3327 0.194284 3.51163 0
M  V30 604 H 56.2067 -1.55435 3.43686 0
M  V30 605 H 58.5937 -1.64606 2.44926 0
M  V30 606 H 58.6747 0.118315 2.55526 0
M  V30 607 H 58.3187 -0.0392633 5.07885 0
M  V30 608 H 58.2487 -1.81426 4.9436 0
M  V30 609 H 60.7397 -0.915633 3.6664 0
M  V30 610 H 61.0527 -1.25966 7.62465 0
M  V30 611 H 59.3977 -1.13971 6.85591 0
M  V30 612 H 62.5887 -1.05226 4.5612 0
M  V30 613 H 62.7617 -1.20936 6.36615 0
M  V30 614 N 56.1678 -1.49265 -0.50573 0
M  V30 615 C 57.4168 -1.57761 -1.25675 0
M  V30 616 C 57.7298 -0.267371 -1.93764 0
M  V30 617 O 58.9358 -0.230827 -2.70517 0
M  V30 618 C 57.3918 -2.78332 -2.28165 0
M  V30 619 C 56.9998 -4.16096 -1.66037 0
M  V30 620 C 58.7438 -2.96155 -3.04125 0
M  V30 621 C 56.6508 -5.27895 -2.6661 0
M  V30 622 H 55.5808 -0.587391 -0.472745 0
M  V30 623 H 58.2318 -1.75644 -0.53118 0
M  V30 624 H 56.6138 -2.53934 -3.03865 0
M  V30 625 H 57.7878 -4.50612 -0.963622 0
M  V30 626 H 56.1028 -4.03591 -1.02484 0
M  V30 627 H 58.6998 -3.76849 -3.79327 0
M  V30 628 H 59.0428 -2.06534 -3.61455 0
M  V30 629 H 59.5758 -3.2057 -2.35541 0
M  V30 630 H 56.3148 -6.1956 -2.14068 0
M  V30 631 H 55.8348 -4.97839 -3.34539 0
M  V30 632 H 57.5138 -5.57031 -3.29129 0
M  V30 633 N 57.6459 0.756429 -1.3826 0
M  V30 634 C 58.8739 1.54565 -1.3754 0
M  V30 635 C 59.2889 1.88767 0.0355331 0
M  V30 636 O 58.6459 1.52572 1.0014 0
M  V30 637 C 58.6969 2.84654 -2.22833 0
M  V30 638 O 58.4179 2.51912 -3.5843 0
M  V30 639 C 59.9189 3.78807 -2.30261 0
M  V30 640 H 57.1389 0.478353 -0.470553 0
M  V30 641 H 59.6829 0.936381 -1.81803 0
M  V30 642 H 57.8379 3.41965 -1.8204 0
M  V30 643 H 58.2519 3.35325 -4.03308 0
M  V30 644 H 59.7259 4.67045 -2.94233 0
M  V30 645 H 60.2029 4.19038 -1.31545 0
M  V30 646 H 60.8089 3.2742 -2.71433 0
M  V30 647 N 59.124 1.23083 0.984299 0
M  V30 648 C 60.372 1.05848 1.72165 0
M  V30 649 C 60.693 -0.406049 1.90726 0
M  V30 650 O 59.963 -1.29139 1.47309 0
M  V30 651 H 58.543 0.388685 0.637913 0
M  V30 652 H 61.205 1.54736 1.18503 0
M  V30 653 H 60.301 1.54327 2.71274 0
M  V30 654 N 60.6021 -1.18246 1.0419 0
M  V30 655 C 61.5501 -2.23968 0.627792 0
M  V30 656 C 62.5441 -1.65828 -0.346019 0
M  V30 657 O 63.7501 -1.78733 -0.213175 0
M  V30 658 H 60.1251 -0.728939 0.184802 0
M  V30 659 H 62.0961 -2.56202 1.52981 0
M  V30 660 C 60.8451 -3.47699 0.00796591 0
M  V30 661 H 60.1681 -3.92734 0.748347 0
M  V30 662 H 61.6081 -4.23294 -0.24455 0
M  V30 663 C 60.0671 -3.13153 -1.24246 0
M  V30 664 O 60.5971 -3.27003 -2.33307 0
M  V30 665 N 58.8031 -2.67467 -1.13622 0
M  V30 666 H 58.3501 -2.56396 -0.248734 0
M  V30 667 H 58.3081 -2.44724 -1.97377 0
M  V30 668 N 62.0802 -0.821533 -1.34494 0
M  V30 669 C 63.3292 -0.405355 -1.97585 0
M  V30 670 C 63.6422 1.03677 -1.65863 0
M  V30 671 O 64.8482 1.55679 -2.22433 0
M  V30 672 C 63.3042 -0.673861 -3.53535 0
M  V30 673 C 62.9122 -2.12951 -3.94152 0
M  V30 674 C 64.6562 -0.32378 -4.23263 0
M  V30 675 C 62.5632 -2.34298 -5.43009 0
M  V30 676 H 61.4932 -0.147836 -0.739365 0
M  V30 677 H 64.1442 -1.00769 -1.53355 0
M  V30 678 H 62.5262 -0.00137554 -3.96 0
M  V30 679 H 63.7002 -2.84104 -3.62797 0
M  V30 680 H 62.0152 -2.44089 -3.37356 0
M  V30 681 H 64.6122 -0.461126 -5.32708 0
M  V30 682 H 64.9552 0.731586 -4.09821 0
M  V30 683 H 65.4882 -0.950786 -3.8627 0
M  V30 684 H 62.2272 -3.38335 -5.61435 0
M  V30 685 H 61.7472 -1.67687 -5.75883 0
M  V30 686 H 63.4262 -2.16588 -6.09671 0
M  V30 687 N 63.5583 1.46682 -0.576371 0
M  V30 688 C 64.8043 2.03287 -0.0679305 0
M  V30 689 C 65.1593 1.44063 1.27529 0
M  V30 690 O 64.4523 0.593973 1.82161 0
M  V30 691 C 64.6463 3.57345 0.062886 0
M  V30 692 C 64.4753 4.31509 -1.26611 0
M  V30 693 C 63.2453 4.70664 -1.83856 0
M  V30 694 C 65.4433 4.65444 -2.18783 0
M  V30 695 N 63.4253 5.29552 -3.10561 0
M  V30 696 C 64.7963 5.24835 -3.30072 0
M  V30 697 C 66.8513 4.47375 -2.18542 0
M  V30 698 C 65.5543 5.68063 -4.41244 0
M  V30 699 C 67.5803 4.91614 -3.28739 0
M  V30 700 C 66.9423 5.51071 -4.38748 0
M  V30 701 H 63.0413 0.779083 -0.0674836 0
M  V30 702 H 65.6253 1.78918 -0.767877 0
M  V30 703 H 63.7963 3.8144 0.731988 0
M  V30 704 H 65.5283 4.00592 0.575134 0
M  V30 705 H 62.2833 4.53224 -1.37424 0
M  V30 706 H 62.7073 5.63523 -3.75195 0
M  V30 707 H 67.3493 4.00747 -1.34765 0
M  V30 708 H 65.0673 6.13672 -5.25768 0
M  V30 709 H 68.6533 4.79389 -3.29662 0
M  V30 710 H 67.5333 5.84678 -5.22611 0
M  V30 711 N 65.0364 0.313813 1.54444 0
M  V30 712 C 66.2824 -0.292108 2.00685 0
M  V30 713 C 66.6154 -1.52548 1.20177 0
M  V30 714 O 65.8904 -1.92452 0.281531 0
M  V30 715 C 66.1734 -0.635968 3.5444 0
M  V30 716 C 66.0264 0.607437 4.4568 0
M  V30 717 C 67.3454 -1.45747 4.15266 0
M  V30 718 H 64.4644 -0.104697 0.729526 0
M  V30 719 H 67.1064 0.428457 1.85106 0
M  V30 720 H 65.2564 -1.24986 3.67846 0
M  V30 721 H 66.9284 1.24581 4.44159 0
M  V30 722 H 65.1714 1.23822 4.15753 0
M  V30 723 H 65.8424 0.322515 5.51057 0
M  V30 724 H 68.3184 -0.938645 4.05375 0
M  V30 725 H 67.1944 -1.66683 5.2298 0
M  V30 726 H 67.4554 -2.45063 3.67963 0
M  V30 727 N 66.5145 -1.57545 0.0417849 0
M  V30 728 C 67.7635 -1.91494 -0.633492 0
M  V30 729 C 68.0765 -0.921084 -1.72556 0
M  V30 730 O 69.2825 -1.15228 -2.45835 0
M  V30 731 C 67.7385 -3.40072 -1.17808 0
M  V30 732 C 67.3465 -4.47843 -0.118633 0
M  V30 733 C 69.0905 -3.8307 -1.82915 0
M  V30 734 C 66.9975 -5.87529 -0.675578 0
M  V30 735 H 65.9275 -0.714653 -0.24039 0
M  V30 736 H 68.5785 -1.83175 0.109148 0
M  V30 737 H 66.9605 -3.43364 -1.97274 0
M  V30 738 H 68.1345 -4.56128 0.654494 0
M  V30 739 H 66.4495 -4.14128 0.434414 0
M  V30 740 H 69.0465 -4.84794 -2.25563 0
M  V30 741 H 69.3895 -3.1881 -2.67705 0
M  V30 742 H 69.9225 -3.82255 -1.10119 0
M  V30 743 H 66.6615 -6.55362 0.134475 0
M  V30 744 H 66.1815 -5.82824 -1.4169 0
M  V30 745 H 67.8605 -6.36491 -1.1614 0
M  V30 746 N 67.9926 0.231505 -1.5589 0
M  V30 747 C 69.4036 0.799327 -1.68724 0
M  V30 748 C 69.7546 1.85398 -0.642022 0
M  V30 749 O 68.8796 2.1539 0.208784 0
M  V30 750 C 69.4746 1.45664 -3.05888 0
M  V30 751 C 68.0336 1.97197 -3.20609 0
M  V30 752 C 67.1806 0.828552 -2.64632 0
M  V30 753 H 70.1316 0.00702616 -1.58698 0
M  V30 754 H 70.1526 2.32517 -3.01191 0
M  V30 755 H 69.6646 0.688808 -3.81939 0
M  V30 756 H 67.7656 2.76813 -2.4941 0
M  V30 757 H 67.8786 2.15878 -4.27707 0
M  V30 758 H 66.2426 1.23321 -2.22854 0
M  V30 759 H 67.0256 0.0735544 -3.43221 0
M  V30 760 N 69.4707 1.49531 0.497807 0
M  V30 761 C 70.7477 1.49682 1.25915 0
M  V30 762 C 71.1277 0.226339 2.09883 0
M  V30 763 O 70.4757 -0.791189 2.14365 0
M  V30 764 C 70.6857 2.77755 2.11313 0
M  V30 765 C 72.0337 3.27371 2.70395 0
M  V30 766 O 73.0577 2.78894 2.21578 0
M  V30 767 O 71.9167 4.11808 3.59272 0
M  V30 768 H 69.0107 0.599228 0.56996 0
M  V30 769 H 71.5567 1.61798 0.511816 0
M  V30 770 H 70.3287 3.61713 1.49264 0
M  V30 771 H 69.9517 2.68515 2.93233 0
M  V30 772 N 70.9488 -0.749086 1.3866 0
M  V30 773 C 72.3648 -1.05276 1.19955 0
M  V30 774 C 72.5648 -2.01435 0.05134 0
M  V30 775 O 71.6208 -2.45232 -0.60147 0
M  V30 776 C 72.9338 -1.62853 2.52783 0
M  V30 777 C 74.4818 -1.75002 2.59506 0
M  V30 778 C 74.9568 -2.35991 3.92521 0
M  V30 779 N 76.4478 -2.43416 3.94085 0
M  V30 780 C 77.1828 -2.91511 4.9377 0
M  V30 781 N 76.6788 -3.39608 6.03853 0
M  V30 782 N 78.4718 -2.90592 4.81157 0
M  V30 783 H 70.6228 -0.111066 2.12109 0
M  V30 784 H 72.8858 -0.111901 0.941373 0
M  V30 785 H 72.5918 -0.99664 3.37283 0
M  V30 786 H 72.4658 -2.61854 2.715 0
M  V30 787 H 74.8528 -2.37317 1.75398 0
M  V30 788 H 74.9338 -0.74693 2.44652 0
M  V30 789 H 74.5778 -1.74308 4.77053 0
M  V30 790 H 74.5078 -3.3695 4.04688 0
M  V30 791 H 76.9988 -2.09405 3.14576 0
M  V30 792 H 77.3118 -3.74775 6.75843 0
M  V30 793 H 75.6568 -3.37653 6.07466 0
M  V30 794 H 78.8478 -2.52332 3.94267 0
M  V30 795 H 79.0208 -3.27762 5.58996 0
M  V30 796 N 72.4269 -1.23603 -0.977757 0
M  V30 797 C 73.6739 -1.06971 -1.71941 0
M  V30 798 C 74.0019 0.393009 -1.90488 0
M  V30 799 O 73.2569 1.30719 -1.4564 0
M  V30 800 C 73.5559 -1.7433 -3.11999 0
M  V30 801 C 73.2219 -3.24252 -3.13323 0
M  V30 802 C 71.8839 -3.65156 -3.13392 0
M  V30 803 C 74.2359 -4.20141 -3.08433 0
M  V30 804 C 71.5639 -5.00403 -3.0629 0
M  V30 805 C 73.9159 -5.55384 -3.02873 0
M  V30 806 C 72.5799 -5.95647 -3.01265 0
M  V30 807 H 71.8499 -0.391433 -0.629175 0
M  V30 808 H 74.4969 -1.53572 -1.14403 0
M  V30 809 H 72.8019 -1.20096 -3.7294 0
M  V30 810 H 74.4989 -1.58936 -3.68158 0
M  V30 811 H 71.0889 -2.91692 -3.14029 0
M  V30 812 H 75.2729 -3.89547 -3.07517 0
M  V30 813 H 70.5289 -5.3081 -3.03399 0
M  V30 814 H 74.7029 -6.29398 -2.98046 0
M  V30 815 H 72.3299 -7.0041 -2.95516 0
M  V30 816 N 73.905 1.17692 -1.04816 0
M  V30 817 C 75.13 1.92327 -0.776207 0
M  V30 818 C 75.555 1.76082 0.661581 0
M  V30 819 O 74.913 1.076 1.45917 0
M  V30 820 C 74.961 3.41539 -1.15687 0
M  V30 821 O 74.065 4.11402 -0.286775 0
M  V30 822 H 73.406 0.599735 -0.284981 0
M  V30 823 H 75.936 1.49201 -1.4 0
M  V30 824 H 75.946 3.92269 -1.12202 0
M  V30 825 H 74.621 3.52684 -2.20425 0
M  V30 826 H 73.198 3.70939 -0.381903 0
M  V30 827 N 75.3831 0.828654 1.34056 0
M  V30 828 C 76.7991 0.515135 1.51058 0
M  V30 829 C 76.9991 -0.959581 1.77184 0
M  V30 830 O 76.0551 -1.74382 1.82612 0
M  V30 831 C 77.3681 1.37963 2.67183 0
M  V30 832 C 78.9161 1.37735 2.81066 0
M  V30 833 C 79.3911 2.22645 4.00241 0
M  V30 834 N 80.8821 2.203 4.07458 0
M  V30 835 C 81.6171 2.82744 4.98842 0
M  V30 836 N 81.1131 3.54201 5.9541 0
M  V30 837 N 82.9061 2.72268 4.91759 0
M  V30 838 H 75.0571 1.78343 1.15358 0
M  V30 839 H 77.3201 0.760304 0.566252 0
M  V30 840 H 77.0261 2.42714 2.54525 0
M  V30 841 H 76.9001 1.0484 3.62338 0
M  V30 842 H 79.2871 0.337593 2.93163 0
M  V30 843 H 79.3681 1.74859 1.86703 0
M  V30 844 H 79.0121 3.26674 3.88905 0
M  V30 845 H 78.9421 1.82869 4.93829 0
M  V30 846 H 81.4331 1.68327 3.38341 0
M  V30 847 H 81.7461 3.9908 6.61782 0
M  V30 848 H 80.0911 3.58308 5.95517 0
M  V30 849 H 83.2821 2.16014 4.15278 0
M  V30 850 H 83.4551 3.21219 5.62781 0
M  V30 851 N 76.8612 -1.46375 0.584142 0
M  V30 852 C 77.8092 -2.32042 -0.161047 0
M  V30 853 C 78.8032 -1.44569 -0.882966 0
M  V30 854 O 80.0092 -1.61186 -0.801191 0
M  V30 855 H 76.3842 -0.748659 -0.0708033 0
M  V30 856 H 78.3552 -2.92704 0.580269 0
M  V30 857 C 77.1042 -3.27762 -1.1605 0
M  V30 858 H 76.4272 -3.95051 -0.614419 0
M  V30 859 H 77.8672 -3.90481 -1.65228 0
M  V30 860 C 76.3262 -2.53218 -2.22221 0
M  V30 861 O 76.8562 -2.29628 -3.29597 0
M  V30 862 N 75.0622 -2.13756 -1.96868 0
M  V30 863 H 74.6092 -2.33142 -1.09557 0
M  V30 864 H 74.5672 -1.642 -2.68115 0
M  V30 865 N 78.3393 -0.321999 -1.54275 0
M  V30 866 C 79.5643 0.285791 -2.05422 0
M  V30 867 C 79.9893 1.45124 -1.19669 0
M  V30 868 O 79.3473 1.80132 -0.205441 0
M  V30 869 C 79.3953 0.69956 -3.53749 0
M  V30 870 O 78.4993 1.8021 -3.70942 0
M  V30 871 H 77.8403 0.0518962 -0.661969 0
M  V30 872 H 80.3703 -0.469954 -1.9913 0
M  V30 873 H 80.3803 0.982649 -3.9599 0
M  V30 874 H 79.0553 -0.152864 -4.15619 0
M  V30 875 H 77.6323 1.51794 -3.40607 0
M  V30 876 N 79.8174 1.5752 -0.0501392 0
M  V30 877 C 80.7654 2.12651 0.942459 0
M  V30 878 C 81.7594 1.05807 1.32292 0
M  V30 879 O 82.9654 1.24217 1.3027 0
M  V30 880 H 79.3404 0.679673 0.321789 0
M  V30 881 H 81.3114 2.94951 0.452356 0
M  V30 882 C 80.0604 2.68565 2.20836 0
M  V30 883 H 79.3834 3.50439 1.92439 0
M  V30 884 H 80.8234 3.10761 2.8845 0
M  V30 885 C 79.2824 1.62291 2.95234 0
M  V30 886 O 79.8124 1.03508 3.88135 0
M  V30 887 N 78.0184 1.33836 2.57946 0
M  V30 888 H 77.5654 1.81826 1.82475 0
M  V30 889 H 77.5234 0.629595 3.08032 0
M  V30 890 N 81.2955 -0.223234 1.56011 0
M  V30 891 C 82.7065 -0.790368 1.69145 0
M  V30 892 C 83.0575 -1.85055 0.651845 0
M  V30 893 O 82.1825 -2.15498 -0.197359 0
M  V30 894 C 82.7775 -1.4404 3.06656 0
M  V30 895 C 81.3365 -1.95494 3.2165 0
M  V30 896 C 80.4835 -0.814506 2.65068 0
M  V30 897 H 83.4345 0.00139011 1.587 0
M  V30 898 H 83.4555 -2.30916 3.0242 0
M  V30 899 H 82.9675 -0.668543 3.82298 0
M  V30 900 H 81.0685 -2.75487 2.50874 0
M  V30 901 H 81.1815 -2.13607 4.28846 0
M  V30 902 H 79.5455 -1.22137 2.23505 0
M  V30 903 H 80.3285 -0.0553515 3.43255 0
M  V30 904 N 82.7736 -1.49793 -0.48987 0
M  V30 905 C 83.7216 -1.67783 -1.61095 0
M  V30 906 C 84.7156 -0.543683 -1.60438 0
M  V30 907 O 85.9216 -0.723647 -1.64813 0
M  V30 908 H 82.2966 -0.529255 -0.534222 0
M  V30 909 H 84.2676 -2.61861 -1.43078 0
M  V30 910 C 83.0166 -1.77191 -2.99164 0
M  V30 911 H 82.3396 -2.63841 -3.0038 0
M  V30 912 H 83.7796 -1.93809 -3.77113 0
M  V30 913 C 82.2386 -0.519203 -3.32875 0
M  V30 914 O 82.7686 0.350124 -4.00171 0
M  V30 915 N 80.9746 -0.378816 -2.8812 0
M  V30 916 H 80.5216 -1.08725 -2.33531 0
M  V30 917 H 80.4796 0.458239 -3.11043 0
M  V30 918 N 84.2517 0.741722 -1.39055 0
M  V30 919 C 85.1817 1.869 -1.39966 0
M  V30 920 C 86.1627 1.6804 -0.26392 0
M  V30 921 O 87.3477 1.88458 -0.468755 0
M  V30 922 C 84.4777 3.24572 -1.23574 0
M  V30 923 C 83.4317 3.58056 -2.34477 0
M  V30 924 C 82.7577 4.94593 -2.0318 0
M  V30 925 C 84.0577 3.61716 -3.76774 0
M  V30 926 H 85.7517 1.86395 -2.34302 0
M  V30 927 H 83.2977 0.895361 -1.1278 0
M  V30 928 H 85.2507 4.031 -1.22834 0
M  V30 929 H 83.9747 3.25587 -0.257045 0
M  V30 930 H 82.6337 2.81854 -2.34423 0
M  V30 931 H 82.2817 4.92181 -1.03765 0
M  V30 932 H 81.9817 5.17964 -2.77465 0
M  V30 933 H 83.5057 5.75486 -2.04079 0
M  V30 934 H 84.9197 4.30335 -3.78794 0
M  V30 935 H 83.3167 3.96603 -4.50362 0
M  V30 936 H 84.3867 2.61672 -4.08235 0
M  V30 937 N 85.7298 1.2412 0.971189 0
M  V30 938 C 86.6778 1.02812 2.08644 0
M  V30 939 C 87.6718 -0.0358403 1.69362 0
M  V30 940 O 88.8778 0.118429 1.7961 0
M  V30 941 H 85.2528 0.315428 0.682649 0
M  V30 942 H 87.2238 1.97397 2.23779 0
M  V30 943 C 85.9728 0.645874 3.41649 0
M  V30 944 H 85.2958 1.45632 3.72332 0
M  V30 945 H 86.7358 0.536366 4.20594 0
M  V30 946 C 85.1948 -0.646713 3.30635 0
M  V30 947 O 85.7248 -1.69338 3.64263 0
M  V30 948 N 83.9308 -0.626115 2.83775 0
M  V30 949 H 83.4778 0.225988 2.56607 0
M  V30 950 H 83.4358 -1.49117 2.76788 0
M  V30 951 N 87.2079 -1.17134 1.05439 0
M  V30 952 C 88.1549 -2.21235 0.657539 0
M  V30 953 C 89.1249 -1.62551 -0.341543 0
M  V30 954 O 90.3099 -1.89379 -0.232393 0
M  V30 955 C 87.4499 -3.45076 0.0410575 0
M  V30 956 C 86.5629 -4.18042 1.08927 0
M  V30 957 C 85.6979 -5.29376 0.439848 0
M  V30 958 C 84.7369 -5.94132 1.4722 0
M  V30 959 N 83.8739 -6.96975 0.846756 0
M  V30 960 H 88.7139 -2.54534 1.54972 0
M  V30 961 H 86.2509 -1.25028 0.775006 0
M  V30 962 H 88.2089 -4.15862 -0.33383 0
M  V30 963 H 86.8389 -3.12353 -0.814568 0
M  V30 964 H 85.8909 -3.45945 1.58196 0
M  V30 965 H 87.2029 -4.62306 1.87282 0
M  V30 966 H 86.3569 -6.06699 0.0115125 0
M  V30 967 H 85.0959 -4.86251 -0.375656 0
M  V30 968 H 84.1009 -5.15538 1.91052 0
M  V30 969 H 85.3259 -6.39337 2.28965 0
M  V30 970 H 83.2719 -6.5598 0.0518075 0
M  V30 971 H 83.1889 -7.39565 1.5678 0
M  V30 972 H 84.4569 -7.78239 0.443277 0
M  V30 973 N 88.686 -0.835752 -1.33615 0
M  V30 974 C 90.097 -0.487099 -1.80234 0
M  V30 975 C 90.448 0.993627 -1.69179 0
M  V30 976 O 89.573 1.77403 -1.23924 0
M  V30 977 C 90.168 -0.877385 -3.27242 0
M  V30 978 C 88.727 -0.580915 -3.7189 0
M  V30 979 C 87.874 -1.0874 -2.5509 0
M  V30 980 H 90.825 -1.02474 -1.2118 0
M  V30 981 H 90.846 -0.186195 -3.80044 0
M  V30 982 H 90.358 -1.95512 -3.35256 0
M  V30 983 H 88.459 0.486881 -3.69405 0
M  V30 984 H 88.572 -1.13396 -4.65487 0
M  V30 985 H 86.936 -0.508392 -2.49575 0
M  V30 986 H 87.719 -2.17184 -2.65868 0
M  V30 987 N 90.1641 1.46063 -0.591896 0
M  V30 988 C 91.5751 1.85944 -0.167822 0
M  V30 989 C 91.9261 1.49429 1.27143 0
M  V30 990 O 91.0511 0.913515 1.96173 0
M  V30 991 C 91.6461 3.37489 -0.297794 0
M  V30 992 C 90.2051 3.76332 0.0714732 0
M  V30 993 C 89.3521 2.7006 -0.629509 0
M  V30 994 H 92.3031 1.37087 -0.799555 0
M  V30 995 H 92.3241 3.77532 0.474349 0
M  V30 996 H 91.8361 3.64034 -1.3454 0
M  V30 997 H 89.9371 3.55405 1.11886 0
M  V30 998 H 90.0501 4.78088 -0.311245 0
M  V30 999 H 88.4141 2.54607 -0.0687867 0
M  V30 1000 H 89.1971 2.99444 -1.67894 0
M  V30 1001 N 91.6422 0.330177 1.54103 0
M  V30 1002 C 93.0582 -0.0222371 1.59585 0
M  V30 1003 C 93.2582 -1.49902 1.34654 0
M  V30 1004 O 92.3142 -2.25592 1.13421 0
M  V30 1005 C 93.6272 0.401932 2.98002 0
M  V30 1006 C 95.1752 0.353145 3.11001 0
M  V30 1007 C 95.6502 0.752576 4.51775 0
M  V30 1008 N 97.1412 0.706239 4.57784 0
M  V30 1009 C 97.8762 0.987417 5.64834 0
M  V30 1010 N 97.3722 1.33607 6.79795 0
M  V30 1011 N 99.1652 0.91254 5.54643 0
M  V30 1012 H 91.3162 1.29228 1.68564 0
M  V30 1013 H 93.5792 0.525906 0.78875 0
M  V30 1014 H 93.2852 1.4311 3.21267 0
M  V30 1015 H 93.1592 -0.229699 3.765 0
M  V30 1016 H 95.5462 -0.666822 2.87467 0
M  V30 1017 H 95.6272 1.0198 2.34593 0
M  V30 1018 H 95.2712 1.77049 4.76042 0
M  V30 1019 H 95.2012 0.0635409 5.26562 0
M  V30 1020 H 97.6922 0.44889 3.75224 0
M  V30 1021 H 98.0052 1.53582 7.57385 0
M  V30 1022 H 96.3502 1.37439 6.81275 0
M  V30 1023 H 99.5412 0.639601 4.6371 0
M  V30 1024 H 99.7142 1.13503 6.37982 0
M  V30 1025 N 93.1203 -1.57491 0.0584922 0
M  V30 1026 C 94.3663 -1.93264 -0.614558 0
M  V30 1027 C 94.6993 -0.937717 -1.7006 0
M  V30 1028 O 93.9743 0.0351652 -1.94468 0
M  V30 1029 C 94.2573 -3.3938 -1.20386 0
M  V30 1030 C 94.1103 -4.49625 -0.125375 0
M  V30 1031 C 95.4293 -3.86039 -2.11334 0
M  V30 1032 H 92.5483 -0.702791 -0.221933 0
M  V30 1033 H 95.1903 -1.8961 0.12175 0
M  V30 1034 H 93.3403 -3.42626 -1.83139 0
M  V30 1035 H 95.0123 -4.58506 0.506971 0
M  V30 1036 H 93.2553 -4.30354 0.545672 0
M  V30 1037 H 93.9263 -5.48967 -0.577861 0
M  V30 1038 H 96.4023 -3.84716 -1.58534 0
M  V30 1039 H 95.2783 -4.88914 -2.49507 0
M  V30 1040 H 95.5393 -3.23215 -3.01636 0
M  V30 1041 N 94.5984 0.214957 -1.56127 0
M  V30 1042 C 95.8264 0.955092 -1.83536 0
M  V30 1043 C 96.2414 1.77677 -0.638472 0
M  V30 1044 O 95.5984 1.78219 0.392968 0
M  V30 1045 C 95.6494 1.86734 -3.09536 0
M  V30 1046 O 95.3704 1.07887 -4.24608 0
M  V30 1047 C 96.8714 2.72082 -3.4998 0
M  V30 1048 H 94.0914 0.279611 -0.609966 0
M  V30 1049 H 96.6354 0.228197 -2.03223 0
M  V30 1050 H 94.7904 2.5481 -2.91806 0
M  V30 1051 H 95.2044 1.69872 -4.9623 0
M  V30 1052 H 96.6784 3.31782 -4.41163 0
M  V30 1053 H 97.1554 3.44806 -2.7204 0
M  V30 1054 H 97.7614 2.09409 -3.70173 0
M  V30 1055 N 96.0765 1.50051 0.48192 0
M  V30 1056 C 97.3015 1.64508 1.26301 0
M  V30 1057 C 97.7265 0.323851 1.85291 0
M  V30 1058 O 97.0845 -0.710969 1.66778 0
M  V30 1059 C 97.1325 2.7305 2.35533 0
M  V30 1060 O 96.2365 2.3355 3.39895 0
M  V30 1061 H 95.5775 0.549978 0.372048 0
M  V30 1062 H 98.1075 1.9636 0.574786 0
M  V30 1063 H 98.1175 2.95799 2.8101 0
M  V30 1064 H 96.7925 3.68946 1.91967 0
M  V30 1065 H 95.3695 2.21205 3.00204 0
M  V30 1066 N 97.5546 -0.734337 1.39446 0
M  V30 1067 C 98.9656 -1.31264 1.32766 0
M  V30 1068 C 99.3166 -1.96198 -0.00767497 0
M  V30 1069 O 98.4416 -1.96346 -0.909796 0
M  V30 1070 C 99.0366 -2.38682 2.4045 0
M  V30 1071 C 97.5956 -2.92184 2.37288 0
M  V30 1072 C 96.7426 -1.6576 2.22304 0
M  V30 1073 H 99.6936 -0.531799 1.49525 0
M  V30 1074 H 99.7146 -3.19087 2.07276 0
M  V30 1075 H 99.2266 -1.91392 3.37625 0
M  V30 1076 H 97.3276 -3.43752 1.43754 0
M  V30 1077 H 97.4406 -3.45253 3.3217 0
M  V30 1078 H 95.8046 -1.9012 1.69489 0
M  V30 1079 H 96.5876 -1.20521 3.21449 0
M  V30 1080 N 99.0327 -1.24633 -0.964593 0
M  V30 1081 C 99.9797 -1.04144 -2.05968 0
M  V30 1082 C 100.95 0.046262 -1.66036 0
M  V30 1083 O 102.135 -0.108972 -1.90489 0
M  V30 1084 C 99.2747 -0.65563 -3.38815 0
M  V30 1085 C 98.3877 -1.81714 -3.91923 0
M  V30 1086 C 97.5227 -1.37662 -5.13052 0
M  V30 1087 C 96.5617 -2.50788 -5.58365 0
M  V30 1088 N 95.6987 -2.07582 -6.70712 0
M  V30 1089 H 100.539 -1.9787 -2.22827 0
M  V30 1090 H 98.0757 -0.9855 -1.09208 0
M  V30 1091 H 100.034 -0.412954 -4.15151 0
M  V30 1092 H 98.6637 0.244627 -3.21872 0
M  V30 1093 H 97.7157 -2.1734 -3.12198 0
M  V30 1094 H 99.0277 -2.66705 -4.21509 0
M  V30 1095 H 98.1817 -1.093 -5.96773 0
M  V30 1096 H 96.9207 -0.497293 -4.85158 0
M  V30 1097 H 95.9257 -2.79906 -4.73215 0
M  V30 1098 H 97.1507 -3.39283 -5.88272 0
M  V30 1099 H 95.0967 -1.22051 -6.44546 0
M  V30 1100 H 95.0137 -2.86125 -6.99763 0
M  V30 1101 H 96.2817 -1.82369 -7.57867 0
M  V30 1102 N 100.511 1.16574 -1.06058 0
M  V30 1103 C 101.736 1.91493 -0.796562 0
M  V30 1104 C 102.161 1.76773 0.642868 0
M  V30 1105 O 101.519 1.09142 1.44768 0
M  V30 1106 C 101.567 3.40293 -1.19303 0
M  V30 1107 O 100.671 4.11074 -0.330394 0
M  V30 1108 H 100.012 0.596678 -0.291326 0
M  V30 1109 H 102.542 1.47708 -1.41575 0
M  V30 1110 H 102.552 3.91057 -1.16356 0
M  V30 1111 H 101.227 3.50326 -2.24153 0
M  V30 1112 H 99.8038 3.70513 -0.421225 0
M  V30 1113 N 101.989 0.842826 1.3317 0
M  V30 1114 C 103.237 0.439577 1.97262 0
M  V30 1115 C 103.558 -1.00548 1.67078 0
M  V30 1116 O 102.828 -1.70098 0.971779 0
M  V30 1117 H 101.408 0.159558 0.72976 0
M  V30 1118 H 104.07 1.07665 1.62463 0
M  V30 1119 H 103.166 0.574886 3.0676 0
M  V30 1120 N 103.467 -1.45747 0.599634 0
M  V30 1121 C 104.697 -2.06369 0.0977132 0
M  V30 1122 C 105.105 -1.44624 -1.21985 0
M  V30 1123 O 104.448 -0.551831 -1.75216 0
M  V30 1124 C 104.51 -3.59284 -0.124673 0
M  V30 1125 C 104.174 -4.43318 1.10987 0
M  V30 1126 C 105.171 -4.78796 2.02609 0
M  V30 1127 C 102.856 -4.84194 1.33647 0
M  V30 1128 C 104.85 -5.53997 3.15224 0
M  V30 1129 C 102.537 -5.5915 2.46565 0
M  V30 1130 C 103.535 -5.93968 3.37182 0
M  V30 1131 O 103.223 -6.67405 4.48136 0
M  V30 1132 H 102.955 -0.673122 0.0623153 0
M  V30 1133 H 105.509 -1.88104 0.824981 0
M  V30 1134 H 103.739 -3.75919 -0.906745 0
M  V30 1135 H 105.428 -4.01775 -0.577201 0
M  V30 1136 H 106.194 -4.47781 1.86325 0
M  V30 1137 H 102.073 -4.56534 0.64016 0
M  V30 1138 H 105.617 -5.81091 3.85978 0
M  V30 1139 H 101.514 -5.89579 2.62805 0
M  V30 1140 H 102.282 -6.85847 4.46717 0
M  V30 1141 N 104.945 -0.338344 -1.53925 0
M  V30 1142 C 106.175 0.260919 -2.04946 0
M  V30 1143 C 106.583 1.45174 -1.2133 0
M  V30 1144 O 105.926 1.82122 -0.240262 0
M  V30 1145 C 105.988 0.744596 -3.51704 0
M  V30 1146 C 105.652 -0.325883 -4.55837 0
M  V30 1147 C 106.649 -1.16687 -5.06636 0
M  V30 1148 C 104.334 -0.478317 -5.00017 0
M  V30 1149 C 106.328 -2.14588 -6.00192 0
M  V30 1150 C 104.015 -1.46073 -5.93385 0
M  V30 1151 C 105.013 -2.29297 -6.4336 0
M  V30 1152 O 104.701 -3.25867 -7.34892 0
M  V30 1153 H 104.433 0.0551207 -0.673749 0
M  V30 1154 H 106.987 -0.486984 -1.99544 0
M  V30 1155 H 105.217 1.54366 -3.54553 0
M  V30 1156 H 106.906 1.26383 -3.85723 0
M  V30 1157 H 107.672 -1.06016 -4.73271 0
M  V30 1158 H 103.551 0.159613 -4.60724 0
M  V30 1159 H 107.095 -2.79585 -6.39123 0
M  V30 1160 H 102.992 -1.56802 -6.26166 0
M  V30 1161 H 103.76 -3.21278 -7.5281 0
M  V30 1162 N 106.423 1.57458 -0.0668435 0
M  V30 1163 C 107.7 1.8469 0.644132 0
M  V30 1164 C 108.08 0.958343 1.88093 0
M  V30 1165 O 107.428 0.0233579 2.28488 0
M  V30 1166 C 107.638 3.34767 0.986509 0
M  V30 1167 C 108.986 4.02159 1.36212 0
M  V30 1168 O 110.01 3.39484 1.07839 0
M  V30 1169 O 108.869 5.12694 1.89227 0
M  V30 1170 H 105.963 0.762816 0.319437 0
M  V30 1171 H 108.509 1.6942 -0.0973986 0
M  V30 1172 H 107.281 3.91151 0.107883 0
M  V30 1173 H 106.904 3.55281 1.78497 0
M  V30 1174 N 107.901 -0.206675 1.56239 0
M  V30 1175 C 109.312 -0.772383 1.69974 0
M  V30 1176 C 109.663 -1.84353 0.671436 0
M  V30 1177 O 108.788 -2.15695 -0.174491 0
M  V30 1178 C 109.383 -1.40779 3.08167 0
M  V30 1179 C 107.942 -1.92072 3.23706 0
M  V30 1180 C 107.089 -0.786347 2.65917 0
M  V30 1181 H 110.04 0.0182223 1.5869 0
M  V30 1182 H 110.061 -2.27696 3.04852 0
M  V30 1183 H 109.573 -0.627958 3.82986 0
M  V30 1184 H 107.674 -2.7281 2.53782 0
M  V30 1185 H 107.787 -2.09046 4.31087 0
M  V30 1186 H 106.151 -1.1976 2.24788 0
M  V30 1187 H 106.934 -0.0189416 3.43295 0
M  V30 1188 N 109.379 -1.50304 -0.473955 0
M  V30 1189 C 110.327 -1.69482 -1.59307 0
M  V30 1190 C 111.321 -0.560669 -1.59853 0
M  V30 1191 O 112.527 -0.741087 -1.64036 0
M  V30 1192 H 108.902 -0.534892 -0.528578 0
M  V30 1193 H 110.873 -2.63364 -1.40293 0
M  V30 1194 C 109.622 -1.80354 -2.97267 0
M  V30 1195 H 108.945 -2.67012 -2.97564 0
M  V30 1196 H 110.385 -1.97798 -3.75036 0
M  V30 1197 C 108.844 -0.55448 -3.32306 0
M  V30 1198 O 109.374 0.307661 -4.0052 0
M  V30 1199 N 107.58 -0.409354 -2.87702 0
M  V30 1200 H 107.127 -1.11196 -2.32364 0
M  V30 1201 H 107.085 0.425223 -3.11511 0
M  V30 1202 N 110.857 0.726932 -1.39834 0
M  V30 1203 C 112.087 1.51393 -1.40583 0
M  V30 1204 C 112.495 1.892 -0.000740625 0
M  V30 1205 O 111.838 1.55189 0.982951 0
M  V30 1206 C 111.9 2.82588 -2.22226 0
M  V30 1207 C 111.564 2.67169 -3.70769 0
M  V30 1208 C 112.561 2.3518 -4.63666 0
M  V30 1209 C 110.246 2.83788 -4.14451 0
M  V30 1210 C 112.24 2.20002 -5.98229 0
M  V30 1211 C 109.927 2.68229 -5.49087 0
M  V30 1212 C 110.925 2.36382 -6.4079 0
M  V30 1213 O 110.613 2.2093 -7.72946 0
M  V30 1214 H 110.345 0.474168 -0.48181 0
M  V30 1215 H 112.899 0.905247 -1.84376 0
M  V30 1216 H 111.129 3.45746 -1.73195 0
M  V30 1217 H 112.818 3.44247 -2.15055 0
M  V30 1218 H 113.584 2.21984 -4.31217 0
M  V30 1219 H 109.463 3.07566 -3.43401 0
M  V30 1220 H 113.007 1.95067 -6.69772 0
M  V30 1221 H 108.904 2.81006 -5.81125 0
M  V30 1222 H 109.672 2.35937 -7.83757 0
M  V30 1223 N 112.336 1.25143 0.95797 0
M  V30 1224 C 113.266 1.07711 2.07173 0
M  V30 1225 C 114.247 -0.0128462 1.70095 0
M  V30 1226 O 115.432 0.156061 1.93572 0
M  V30 1227 C 112.562 0.691503 3.40346 0
M  V30 1228 C 111.516 1.73132 3.9142 0
M  V30 1229 C 110.842 1.20049 5.21049 0
M  V30 1230 C 112.142 3.1294 4.1817 0
M  V30 1231 H 113.836 2.00873 2.22014 0
M  V30 1232 H 111.382 0.967191 1.06684 0
M  V30 1233 H 113.335 0.556505 4.17709 0
M  V30 1234 H 112.059 -0.275819 3.25433 0
M  V30 1235 H 110.718 1.8547 3.16222 0
M  V30 1236 H 110.366 0.223499 5.02503 0
M  V30 1237 H 110.066 1.89545 5.56189 0
M  V30 1238 H 111.59 1.07782 6.01012 0
M  V30 1239 H 113.004 3.03775 4.86203 0
M  V30 1240 H 111.401 3.79875 4.64559 0
M  V30 1241 H 112.471 3.6025 3.24573 0
M  V30 1242 N 113.814 -1.1601 1.06675 0
M  V30 1243 C 115.039 -1.91068 0.806706 0
M  V30 1244 C 115.464 -1.77112 -0.633485 0
M  V30 1245 O 114.822 -1.09908 -1.44187 0
M  V30 1246 C 114.87 -3.39655 1.21106 0
M  V30 1247 O 113.974 -4.10893 0.352189 0
M  V30 1248 H 113.315 -0.595125 0.294486 0
M  V30 1249 H 115.845 -1.46955 1.42356 0
M  V30 1250 H 115.855 -3.90434 1.18428 0
M  V30 1251 H 114.53 -3.49132 2.26008 0
M  V30 1252 H 113.107 -3.70285 0.440868 0
M  V30 1253 N 115.292 -0.849877 -1.32721 0
M  V30 1254 C 116.52 -0.464754 -2.01613 0
M  V30 1255 C 116.935 0.937191 -1.63897 0
M  V30 1256 O 116.292 1.61081 -0.857856 0
M  V30 1257 C 116.343 -0.588638 -3.56675 0
M  V30 1258 O 116.064 -1.93535 -3.93034 0
M  V30 1259 C 117.565 -0.2019 -4.4284 0
M  V30 1260 H 114.785 -0.183215 -0.645502 0
M  V30 1261 H 117.329 -1.1455 -1.69407 0
M  V30 1262 H 115.484 0.0443159 -3.87375 0
M  V30 1263 H 115.898 -1.92871 -4.87751 0
M  V30 1264 H 117.372 -0.339599 -5.50954 0
M  V30 1265 H 117.849 0.857224 -4.30753 0
M  V30 1266 H 118.455 -0.809733 -4.17521 0
M  V30 1267 N 116.77 1.45427 -0.607355 0
M  V30 1268 C 118.047 1.9557 -0.0344566 0
M  V30 1269 C 118.427 1.54979 1.43334 0
M  V30 1270 O 117.775 0.812241 2.13576 0
M  V30 1271 C 117.985 3.48226 -0.232321 0
M  V30 1272 C 119.333 4.2445 -0.113001 0
M  V30 1273 O 120.357 3.55829 -0.162431 0
M  V30 1274 O 119.216 5.465 0.00209442 0
M  V30 1275 H 116.31 0.826222 0.0358667 0
M  V30 1276 H 118.856 1.55594 -0.6774 0
M  V30 1277 H 117.628 3.70739 -1.25174 0
M  V30 1278 H 117.251 3.95092 0.445896 0
M  V30 1279 N 118.248 0.346503 1.53744 0
M  V30 1280 C 119.473 -0.253074 2.0585 0
M  V30 1281 C 119.898 -1.43202 1.21962 0
M  V30 1282 O 119.256 -1.79783 0.234073 0
M  V30 1283 C 119.304 -0.643193 3.54817 0
M  V30 1284 O 118.408 -1.74286 3.73762 0
M  V30 1285 H 117.749 -0.0413583 0.662711 0
M  V30 1286 H 120.279 0.501574 1.98357 0
M  V30 1287 H 120.289 -0.919526 3.97503 0
M  V30 1288 H 118.964 0.218966 4.15323 0
M  V30 1289 H 117.541 -1.46356 3.42979 0
M  V30 1290 N 119.726 -1.57421 0.075193 0
M  V30 1291 C 121.003 -1.85029 -0.634329 0
M  V30 1292 C 121.383 -0.968305 -1.87582 0
M  V30 1293 O 120.731 -0.0354749 -2.28472 0
M  V30 1294 C 120.941 -3.35286 -0.968742 0
M  V30 1295 C 122.289 -4.02875 -1.34077 0
M  V30 1296 O 123.313 -3.40051 -1.06037 0
M  V30 1297 O 122.172 -5.13691 -1.86506 0
M  V30 1298 H 119.266 -0.7645 -0.315387 0
M  V30 1299 H 121.812 -1.69366 0.106382 0
M  V30 1300 H 120.584 -3.91203 -0.0871376 0
M  V30 1301 H 120.207 -3.56223 -1.7661 0
M  V30 1302 N 121.204 0.198386 -1.56346 0
M  V30 1303 C 122.151 1.24589 -1.94284 0
M  V30 1304 C 123.121 1.454 -0.802997 0
M  V30 1305 O 124.306 1.58588 -1.06087 0
M  V30 1306 C 121.446 2.58631 -2.28482 0
M  V30 1307 C 120.559 2.45426 -3.55514 0
M  V30 1308 C 119.694 3.7215 -3.79049 0
M  V30 1309 C 118.733 3.53763 -4.99518 0
M  V30 1310 N 117.87 4.72491 -5.19323 0
M  V30 1311 H 122.71 0.915356 -2.83593 0
M  V30 1312 H 120.247 0.440629 -1.40346 0
M  V30 1313 H 122.205 3.3672 -2.46324 0
M  V30 1314 H 120.835 2.89734 -1.42317 0
M  V30 1315 H 119.887 1.58652 -3.45737 0
M  V30 1316 H 121.199 2.27772 -4.43758 0
M  V30 1317 H 120.353 4.58679 -3.97113 0
M  V30 1318 H 119.092 3.92754 -2.89129 0
M  V30 1319 H 118.097 2.65619 -4.8138 0
M  V30 1320 H 119.322 3.34607 -5.90944 0
M  V30 1321 H 117.268 4.93365 -4.3235 0
M  V30 1322 H 117.185 4.5765 -6.01741 0
M  V30 1323 H 118.453 5.6038 -5.41843 0
M  V30 1324 N 122.682 1.50554 0.465978 0
M  V30 1325 C 123.959 1.5232 1.22712 0
M  V30 1326 C 124.339 0.270807 2.09356 0
M  V30 1327 O 123.687 -0.745541 2.15995 0
M  V30 1328 C 123.897 2.82175 2.05374 0
M  V30 1329 C 125.245 3.33033 2.6339 0
M  V30 1330 O 126.269 2.83531 2.15612 0
M  V30 1331 O 125.128 4.19336 3.50456 0
M  V30 1332 H 122.222 0.611183 0.557122 0
M  V30 1333 H 124.768 1.62847 0.477381 0
M  V30 1334 H 123.54 3.64797 1.41558 0
M  V30 1335 H 123.163 2.74675 2.87471 0
M  V30 1336 N 124.16 -0.719506 1.40217 0
M  V30 1337 C 125.571 -1.29848 1.34151 0
M  V30 1338 C 125.922 -1.96196 0.0131349 0
M  V30 1339 O 125.047 -1.973 -0.88892 0
M  V30 1340 C 125.642 -2.36118 2.42968 0
M  V30 1341 C 124.201 -2.8965 2.40374 0
M  V30 1342 C 123.348 -1.63393 2.24049 0
M  V30 1343 H 126.299 -0.51591 1.5008 0
M  V30 1344 H 126.32 -3.16871 2.10649 0
M  V30 1345 H 125.832 -1.878 3.39636 0
M  V30 1346 H 123.933 -3.42208 1.47392 0
M  V30 1347 H 124.046 -3.4171 3.35814 0
M  V30 1348 H 122.41 -1.88312 1.71495 0
M  V30 1349 H 123.193 -1.17104 3.2271 0
M  V30 1350 N 125.638 -1.25649 -0.95132 0
M  V30 1351 C 126.885 -1.10594 -1.69633 0
M  V30 1352 C 127.213 0.352515 -1.91279 0
M  V30 1353 O 126.468 1.27601 -1.4838 0
M  V30 1354 C 126.767 -1.80909 -3.08231 0
M  V30 1355 C 126.433 -3.30825 -3.06375 0
M  V30 1356 C 125.095 -3.71722 -3.05576 0
M  V30 1357 C 127.447 -4.26589 -2.99452 0
M  V30 1358 C 124.775 -5.06788 -2.95606 0
M  V30 1359 C 127.127 -5.61683 -2.91024 0
M  V30 1360 C 125.791 -6.01904 -2.88562 0
M  V30 1361 H 125.061 -0.404691 -0.620731 0
M  V30 1362 H 127.708 -1.55964 -1.11119 0
M  V30 1363 H 126.013 -1.27979 -3.70309 0
M  V30 1364 H 127.71 -1.6671 -3.64704 0
M  V30 1365 H 124.3 -2.98287 -3.07771 0
M  V30 1366 H 128.484 -3.95982 -2.99185 0
M  V30 1367 H 123.74 -5.37126 -2.92071 0
M  V30 1368 H 127.914 -6.35578 -2.84629 0
M  V30 1369 H 125.541 -7.06521 -2.80593 0
M  V30 1370 N 127.117 1.15442 -1.07289 0
M  V30 1371 C 128.047 2.22312 -0.714107 0
M  V30 1372 C 129.028 1.67467 0.298155 0
M  V30 1373 O 130.213 1.93445 0.171048 0
M  V30 1374 C 127.343 3.47124 -0.110448 0
M  V30 1375 C 126.297 4.14926 -1.04979 0
M  V30 1376 C 125.623 5.33807 -0.308924 0
M  V30 1377 C 126.923 4.64762 -2.38314 0
M  V30 1378 H 128.617 2.5258 -1.6076 0
M  V30 1379 H 126.163 1.21404 -0.77441 0
M  V30 1380 H 128.116 4.21124 0.152482 0
M  V30 1381 H 126.84 3.16187 0.81812 0
M  V30 1382 H 125.499 3.42866 -1.29764 0
M  V30 1383 H 125.147 4.99126 0.623084 0
M  V30 1384 H 124.847 5.80113 -0.935036 0
M  V30 1385 H 126.371 6.10576 -0.0537771 0
M  V30 1386 H 127.785 5.30292 -2.1786 0
M  V30 1387 H 126.182 5.21728 -2.96514 0
M  V30 1388 H 127.252 3.80434 -3.00663 0
M  V30 1389 N 128.595 0.856903 1.32268 0
M  V30 1390 C 129.542 0.301172 2.28827 0
M  V30 1391 C 130.512 -0.593104 1.5515 0
M  V30 1392 O 131.697 -0.527537 1.83362 0
M  V30 1393 C 128.837 -0.502523 3.41422 0
M  V30 1394 C 127.95 0.417797 4.29975 0
M  V30 1395 C 127.085 -0.398749 5.29701 0
M  V30 1396 C 126.124 0.518827 6.09897 0
M  V30 1397 N 125.261 -0.260674 7.01616 0
M  V30 1398 H 130.101 1.12983 2.75751 0
M  V30 1399 H 127.638 0.568582 1.35667 0
M  V30 1400 H 129.596 -0.984141 4.05426 0
M  V30 1401 H 128.226 -1.29599 2.95642 0
M  V30 1402 H 127.278 1.01781 3.66531 0
M  V30 1403 H 128.59 1.12191 4.86019 0
M  V30 1404 H 127.744 -0.943435 5.9932 0
M  V30 1405 H 126.483 -1.13622 4.7428 0
M  V30 1406 H 125.488 1.07538 5.39181 0
M  V30 1407 H 126.713 1.25495 6.67404 0
M  V30 1408 H 124.659 -0.981198 6.4862 0
M  V30 1409 H 124.576 0.384364 7.55022 0
M  V30 1410 H 125.844 -0.787014 7.75517 0
M  V30 1411 N 130.073 -1.45103 0.615059 0
M  V30 1412 C 130.983 -2.34382 -0.101034 0
M  V30 1413 C 131.999 -1.51681 -0.852585 0
M  V30 1414 O 133.175 -1.8446 -0.808484 0
M  V30 1415 C 130.24 -3.29417 -1.08099 0
M  V30 1416 C 129.301 -4.28025 -0.330577 0
M  V30 1417 C 128.534 -5.1852 -1.26385 0
M  V30 1418 O 128.757 -5.12598 -2.50198 0
M  V30 1419 O 127.691 -5.97122 -0.756866 0
M  V30 1420 H 131.517 -2.97033 0.632855 0
M  V30 1421 H 129.102 -1.4461 0.375293 0
M  V30 1422 H 130.984 -3.87958 -1.6452 0
M  V30 1423 H 129.659 -2.69321 -1.79577 0
M  V30 1424 H 128.566 -3.73078 0.276283 0
M  V30 1425 H 129.899 -4.90997 0.343866 0
M  V30 1426 N 131.551 -0.354651 -1.53558 0
M  V30 1427 C 132.8 0.239504 -2.00273 0
M  V30 1428 C 133.113 1.50759 -1.24623 0
M  V30 1429 O 134.319 2.17968 -1.61871 0
M  V30 1430 C 132.775 0.477341 -3.5672 0
M  V30 1431 C 132.383 -0.775488 -4.41237 0
M  V30 1432 C 134.127 1.02975 -4.11821 0
M  V30 1433 C 132.034 -0.507838 -5.89216 0
M  V30 1434 H 130.964 0.0932743 -0.748208 0
M  V30 1435 H 133.615 -0.471701 -1.77334 0
M  V30 1436 H 131.997 1.24953 -3.7577 0
M  V30 1437 H 133.171 -1.54963 -4.33962 0
M  V30 1438 H 131.486 -1.25033 -3.97185 0
M  V30 1439 H 134.083 1.24513 -5.2 0
M  V30 1440 H 134.426 1.98862 -3.65731 0
M  V30 1441 H 134.959 0.317994 -3.96527 0
M  V30 1442 H 131.698 -1.43674 -6.39561 0
M  V30 1443 H 131.218 0.228011 -5.99366 0
M  V30 1444 H 132.897 -0.129238 -6.46871 0
M  V30 1445 N 133.029 1.57378 -0.0835403 0
M  V30 1446 C 134.278 1.93106 0.582498 0
M  V30 1447 C 134.591 0.96651 1.70053 0
M  V30 1448 O 135.797 1.21705 2.42693 0
M  V30 1449 C 134.253 3.43076 1.08751 0
M  V30 1450 C 133.861 4.48 -0.000146404 0
M  V30 1451 C 135.605 3.87785 1.72694 0
M  V30 1452 C 133.512 5.89113 0.519568 0
M  V30 1453 H 132.442 0.720775 0.221358 0
M  V30 1454 H 135.093 1.82821 -0.157675 0
M  V30 1455 H 133.475 3.48474 1.88101 0
M  V30 1456 H 134.649 4.54233 -0.775199 0
M  V30 1457 H 132.964 4.1283 -0.54406 0
M  V30 1458 H 135.561 4.90604 2.1263 0
M  V30 1459 H 135.904 3.25796 2.59158 0
M  V30 1460 H 136.437 3.8504 0.999457 0
M  V30 1461 H 133.176 6.54775 -0.308186 0
M  V30 1462 H 132.696 5.86376 1.26188 0
M  V30 1463 H 134.375 6.39346 0.992237 0
M  V30 1464 N 134.507 -0.190092 1.56449 0
M  V30 1465 C 135.454 -1.23557 1.94942 0
M  V30 1466 C 136.424 -1.44972 0.810696 0
M  V30 1467 O 137.609 -1.58023 1.06927 0
M  V30 1468 C 134.749 -2.57416 2.2985 0
M  V30 1469 C 133.862 -2.43537 3.5681 0
M  V30 1470 C 132.997 -3.70134 3.81017 0
M  V30 1471 C 132.036 -3.51109 5.01387 0
M  V30 1472 N 131.173 -4.6973 5.21822 0
M  V30 1473 H 136.013 -0.900304 2.84075 0
M  V30 1474 H 133.55 -0.43318 1.40577 0
M  V30 1475 H 135.508 -3.35409 2.48106 0
M  V30 1476 H 134.138 -2.88975 1.43852 0
M  V30 1477 H 133.19 -1.56816 3.46573 0
M  V30 1478 H 134.502 -2.25415 4.4496 0
M  V30 1479 H 133.656 -4.56566 3.9954 0
M  V30 1480 H 132.395 -3.91215 2.91207 0
M  V30 1481 H 131.4 -2.63063 4.82782 0
M  V30 1482 H 132.625 -3.31468 5.9271 0
M  V30 1483 H 130.571 -4.91065 4.34961 0
M  V30 1484 H 130.488 -4.54452 6.0416 0
M  V30 1485 H 131.756 -5.57499 5.44808 0
M  V30 1486 N 135.985 -1.50799 -0.457987 0
M  V30 1487 C 136.915 -1.73553 -1.5621 0
M  V30 1488 C 137.896 -0.584774 -1.59732 0
M  V30 1489 O 139.081 -0.825314 -1.7579 0
M  V30 1490 C 136.211 -1.84169 -2.94447 0
M  V30 1491 C 135.165 -2.99461 -3.0579 0
M  V30 1492 C 134.491 -2.95235 -4.45803 0
M  V30 1493 C 135.791 -4.39766 -2.81786 0
M  V30 1494 H 137.485 -2.66 -1.37421 0
M  V30 1495 H 135.031 -1.28002 -0.659662 0
M  V30 1496 H 136.984 -1.98672 -3.71628 0
M  V30 1497 H 135.708 -0.883545 -3.14422 0
M  V30 1498 H 134.367 -2.8463 -2.31044 0
M  V30 1499 H 134.015 -1.97239 -4.62715 0
M  V30 1500 H 133.715 -3.72642 -4.54326 0
M  V30 1501 H 135.239 -3.11803 -5.24987 0
M  V30 1502 H 136.653 -4.55054 -3.4871 0
M  V30 1503 H 135.05 -5.18722 -3.0174 0
M  V30 1504 H 136.12 -4.51229 -1.7754 0
M  V30 1505 N 137.463 0.71206 -1.40597 0
M  V30 1506 C 138.71 1.47197 -1.39065 0
M  V30 1507 C 139.038 1.94499 0.00583891 0
M  V30 1508 O 138.293 1.68752 0.99102 0
M  V30 1509 C 138.592 2.71039 -2.32965 0
M  V30 1510 C 138.258 2.42484 -3.80148 0
M  V30 1511 C 136.92 2.34406 -4.20247 0
M  V30 1512 C 139.272 2.18598 -4.73143 0
M  V30 1513 C 136.6 2.00516 -5.51371 0
M  V30 1514 C 138.952 1.8622 -6.0457 0
M  V30 1515 C 137.616 1.76626 -6.43708 0
M  V30 1516 H 136.886 0.538634 -0.508876 0
M  V30 1517 H 139.533 0.815325 -1.73276 0
M  V30 1518 H 137.838 3.41558 -1.91951 0
M  V30 1519 H 139.535 3.29138 -2.29061 0
M  V30 1520 H 136.125 2.49659 -3.4838 0
M  V30 1521 H 140.309 2.23793 -4.42979 0
M  V30 1522 H 135.565 1.91628 -5.80593 0
M  V30 1523 H 139.739 1.66752 -6.76141 0
M  V30 1524 H 137.366 1.50133 -7.45228 0
M  V30 1525 N 138.941 1.26152 0.944643 0
M  V30 1526 C 139.888 1.07408 2.04285 0
M  V30 1527 C 140.858 -0.0198413 1.66088 0
M  V30 1528 O 142.043 0.139264 1.90291 0
M  V30 1529 C 139.183 0.70945 3.37729 0
M  V30 1530 C 138.296 1.87926 3.88983 0
M  V30 1531 C 137.431 1.45807 5.10797 0
M  V30 1532 C 136.47 2.5964 5.54305 0
M  V30 1533 N 135.607 2.18226 6.67324 0
M  V30 1534 H 140.447 2.01389 2.1965 0
M  V30 1535 H 137.984 1.00275 1.07626 0
M  V30 1536 H 139.942 0.478948 4.14442 0
M  V30 1537 H 138.572 -0.193389 3.2222 0
M  V30 1538 H 137.624 2.22279 3.08701 0
M  V30 1539 H 138.936 2.73377 4.17213 0
M  V30 1540 H 138.09 1.18781 5.94959 0
M  V30 1541 H 136.829 0.574414 4.84305 0
M  V30 1542 H 135.834 2.87399 4.68702 0
M  V30 1543 H 137.059 3.48599 5.828 0
M  V30 1544 H 135.005 1.3229 6.42523 0
M  V30 1545 H 134.922 2.97221 6.95123 0
M  V30 1546 H 136.19 1.94403 7.54869 0
M  V30 1547 N 140.419 -1.14872 1.07899 0
M  V30 1548 C 141.835 -1.37776 0.805606 0
M  V30 1549 C 142.035 -1.92743 -0.587555 0
M  V30 1550 O 141.091 -2.13678 -1.34528 0
M  V30 1551 C 142.404 -2.34361 1.88402 0
M  V30 1552 C 143.952 -2.48012 1.90942 0
M  V30 1553 C 144.427 -3.47893 2.97883 0
M  V30 1554 N 145.918 -3.55433 2.97021 0
M  V30 1555 C 146.653 -4.32553 3.76412 0
M  V30 1556 N 146.149 -5.12959 4.65666 0
M  V30 1557 N 147.942 -4.27697 3.64735 0
M  V30 1558 H 140.093 -0.775365 1.97742 0
M  V30 1559 H 142.356 -0.403521 0.857831 0
M  V30 1560 H 142.062 -2.01098 2.88535 0
M  V30 1561 H 141.936 -3.34206 1.74889 0
M  V30 1562 H 144.323 -2.8057 0.914579 0
M  V30 1563 H 144.404 -1.48147 2.08534 0
M  V30 1564 H 144.048 -3.16069 3.97571 0
M  V30 1565 H 143.978 -4.47527 2.77538 0
M  V30 1566 H 146.469 -2.98048 2.32326 0
M  V30 1567 H 146.782 -5.69065 5.22862 0
M  V30 1568 H 145.127 -5.12245 4.69712 0
M  V30 1569 H 148.318 -3.63949 2.94378 0
M  V30 1570 H 148.491 -4.8755 4.26848 0
M  V30 1571 N 141.898 -0.863906 -1.31812 0
M  V30 1572 C 143.147 -0.46801 -1.96195 0
M  V30 1573 C 143.46 0.983474 -1.69077 0
M  V30 1574 O 144.666 1.48523 -2.27273 0
M  V30 1575 C 143.122 -0.785995 -3.51212 0
M  V30 1576 C 142.73 -2.25383 -3.87178 0
M  V30 1577 C 144.474 -0.458274 -4.22019 0
M  V30 1578 C 142.381 -2.51455 -5.3528 0
M  V30 1579 H 141.311 -0.171283 -0.734287 0
M  V30 1580 H 143.962 -1.05597 -1.50072 0
M  V30 1581 H 142.344 -0.127359 -3.95795 0
M  V30 1582 H 143.518 -2.95502 -3.53575 0
M  V30 1583 H 141.833 -2.54698 -3.2942 0
M  V30 1584 H 144.43 -0.630369 -5.30971 0
M  V30 1585 H 144.773 0.600834 -4.11941 0
M  V30 1586 H 145.306 -1.07319 -3.8305 0
M  V30 1587 H 142.045 -3.56025 -5.50387 0
M  V30 1588 H 141.565 -1.85923 -5.70257 0
M  V30 1589 H 143.244 -2.35874 -6.02472 0
M  V30 1590 N 143.376 1.44774 -0.622745 0
M  V30 1591 C 144.324 2.32387 0.0994683 0
M  V30 1592 C 145.318 1.46859 0.844326 0
M  V30 1593 O 146.524 1.63254 0.758174 0
M  V30 1594 H 142.899 0.750273 0.0509291 0
M  V30 1595 H 144.87 2.91062 -0.65767 0
M  V30 1596 C 143.619 3.30723 1.07319 0
M  V30 1597 H 142.942 3.96541 0.509462 0
M  V30 1598 H 144.382 3.94725 1.54817 0
M  V30 1599 C 142.841 2.59021 2.15429 0
M  V30 1600 O 143.371 2.38286 3.23393 0
M  V30 1601 N 141.577 2.189 1.91131 0
M  V30 1602 H 141.124 2.35964 1.03337 0
M  V30 1603 H 141.082 1.71251 2.63668 0
M  V30 1604 N 144.854 0.36279 1.53368 0
M  V30 1605 C 146.079 -0.231226 2.06107 0
M  V30 1606 C 146.504 -1.419 1.23474 0
M  V30 1607 O 145.862 -1.79524 0.253128 0
M  V30 1608 C 145.91 -0.605523 3.5548 0
M  V30 1609 O 145.014 -1.70312 3.7559 0
M  V30 1610 H 144.355 -0.034327 0.663112 0
M  V30 1611 H 146.885 0.522584 1.97814 0
M  V30 1612 H 146.895 -0.877314 3.98456 0
M  V30 1613 H 145.57 0.263004 4.15068 0
M  V30 1614 H 144.147 -1.4271 3.44512 0
M  V30 1615 N 146.332 -1.57332 0.0918853 0
M  V30 1616 C 147.748 -1.57389 -0.264766 0
M  V30 1617 C 147.948 -1.10281 -1.68643 0
M  V30 1618 O 147.004 -0.777801 -2.40222 0
M  V30 1619 C 148.317 -3.00648 -0.0561195 0
M  V30 1620 C 149.865 -3.12754 -0.124116 0
M  V30 1621 C 150.34 -4.57965 0.0564972 0
M  V30 1622 N 151.831 -4.632 0.00155611 0
M  V30 1623 C 152.566 -5.73281 0.116598 0
M  V30 1624 N 152.062 -6.92208 0.286294 0
M  V30 1625 N 153.855 -5.6207 0.0580973 0
M  V30 1626 H 146.006 -1.86262 1.02079 0
M  V30 1627 H 148.269 -0.859579 0.399786 0
M  V30 1628 H 147.975 -3.393 0.925669 0
M  V30 1629 H 147.849 -3.68623 -0.799823 0
M  V30 1630 H 150.236 -2.73976 -1.09641 0
M  V30 1631 H 150.317 -2.47377 0.651024 0
M  V30 1632 H 149.961 -4.97436 1.02564 0
M  V30 1633 H 149.891 -5.21399 -0.738297 0
M  V30 1634 H 152.382 -3.77686 -0.127192 0
M  V30 1635 H 152.695 -7.71934 0.365676 0
M  V30 1636 H 151.04 -6.94254 0.32192 0
M  V30 1637 H 154.231 -4.68043 -0.0733204 0
M  V30 1638 H 154.404 -6.47824 0.151203 0
M  V30 1639 N 147.81 0.181792 -1.56548 0
M  V30 1640 C 148.72 1.24538 -1.98815 0
M  V30 1641 C 149.736 1.49045 -0.897861 0
M  V30 1642 O 150.912 1.61399 -1.20467 0
M  V30 1643 C 147.977 2.56683 -2.33055 0
M  V30 1644 C 147.038 2.40131 -3.55859 0
M  V30 1645 C 146.271 3.65975 -3.88456 0
M  V30 1646 O 146.494 4.70711 -3.22161 0
M  V30 1647 O 145.428 3.6071 -4.81842 0
M  V30 1648 H 149.254 0.916647 -2.89536 0
M  V30 1649 H 146.839 0.387842 -1.44278 0
M  V30 1650 H 148.721 3.34655 -2.56094 0
M  V30 1651 H 147.396 2.89157 -1.45498 0
M  V30 1652 H 146.303 1.60226 -3.38051 0
M  V30 1653 H 147.636 2.12585 -4.43924 0
M  V30 1654 N 149.288 1.51039 0.449983 0
M  V30 1655 C 150.537 1.62317 1.19733 0
M  V30 1656 C 150.85 0.339101 1.92638 0
M  V30 1657 O 152.056 0.331069 2.69474 0
M  V30 1658 C 150.512 2.86608 2.17678 0
M  V30 1659 C 150.12 4.21972 1.50479 0
M  V30 1660 C 151.864 3.07239 2.92924 0
M  V30 1661 C 149.771 5.37426 2.46834 0
M  V30 1662 H 148.701 0.604532 0.450619 0
M  V30 1663 H 151.352 1.77494 0.465625 0
M  V30 1664 H 149.734 2.65037 2.94231 0
M  V30 1665 H 150.908 4.53878 0.795716 0
M  V30 1666 H 149.223 4.07117 0.874344 0
M  V30 1667 H 151.82 3.90668 3.65079 0
M  V30 1668 H 152.163 2.19807 3.5354 0
M  V30 1669 H 152.696 3.29091 2.23481 0
M  V30 1670 H 149.435 6.27079 1.90926 0
M  V30 1671 H 148.955 5.09912 3.15832 0
M  V30 1672 H 150.634 5.68862 3.08228 0
M  V30 1673 N 150.766 -0.704594 1.40972 0
M  V30 1674 C 152.014 -1.46169 1.39568 0
M  V30 1675 C 152.335 -1.95 0.00253745 0
M  V30 1676 O 151.605 -1.71095 -0.954114 0
M  V30 1677 H 150.185 -0.542326 0.513704 0
M  V30 1678 H 152.847 -0.834553 1.76128 0
M  V30 1679 H 151.943 -2.32922 2.07735 0
M  V30 1680 N 152.244 -1.26651 -0.937939 0
M  V30 1681 C 153.154 -1.10276 -2.07066 0
M  V30 1682 C 154.17 -0.0354197 -1.73964 0
M  V30 1683 O 155.346 -0.239816 -1.99967 0
M  V30 1684 C 152.411 -0.740887 -3.38691 0
M  V30 1685 C 151.472 -1.88799 -3.85556 0
M  V30 1686 C 150.705 -1.54329 -5.10899 0
M  V30 1687 O 150.928 -0.446494 -5.6865 0
M  V30 1688 O 149.862 -2.37911 -5.52885 0
M  V30 1689 H 153.688 -2.05309 -2.23789 0
M  V30 1690 H 151.273 -1.05743 -1.0554 0
M  V30 1691 H 153.155 -0.55195 -4.1777 0
M  V30 1692 H 151.83 0.180022 -3.23199 0
M  V30 1693 H 150.737 -2.13191 -3.07409 0
M  V30 1694 H 152.07 -2.78874 -4.05574 0
M  V30 1695 N 153.722 1.14298 -1.08507 0
M  V30 1696 C 154.632 2.23027 -0.727753 0
M  V30 1697 C 155.648 1.71952 0.26619 0
M  V30 1698 O 156.824 2.011 0.109882 0
M  V30 1699 C 153.889 3.46403 -0.143541 0
M  V30 1700 C 152.95 4.12413 -1.19223 0
M  V30 1701 C 152.183 5.29899 -0.635798 0
M  V30 1702 O 152.406 5.67796 0.544393 0
M  V30 1703 O 151.34 5.85717 -1.38634 0
M  V30 1704 H 155.166 2.55945 -1.63481 0
M  V30 1705 H 152.751 1.22248 -0.858817 0
M  V30 1706 H 154.633 4.21018 0.179404 0
M  V30 1707 H 153.308 3.15206 0.736659 0
M  V30 1708 H 152.215 3.39667 -1.56772 0
M  V30 1709 H 153.548 4.47718 -2.04474 0
M  V30 1710 N 155.201 0.870884 1.31352 0
M  V30 1711 C 156.131 0.343096 2.30966 0
M  V30 1712 C 157.112 -0.566507 1.60389 0
M  V30 1713 O 158.297 -0.483336 1.88089 0
M  V30 1714 C 155.427 -0.455487 3.443 0
M  V30 1715 C 154.381 0.361103 4.26474 0
M  V30 1716 C 153.707 -0.563221 5.31725 0
M  V30 1717 C 155.007 1.59566 4.97329 0
M  V30 1718 H 156.701 1.17548 2.75359 0
M  V30 1719 H 154.247 0.566686 1.32381 0
M  V30 1720 H 156.2 -0.83525 4.13039 0
M  V30 1721 H 154.924 -1.32139 2.98675 0
M  V30 1722 H 153.583 0.722825 3.59403 0
M  V30 1723 H 153.231 -1.42643 4.82351 0
M  V30 1724 H 152.931 -0.0207409 5.87596 0
M  V30 1725 H 154.455 -0.939808 6.03324 0
M  V30 1726 H 155.869 1.28728 5.58661 0
M  V30 1727 H 154.266 2.07728 5.63 0
M  V30 1728 H 155.336 2.34798 4.24262 0
M  V30 1729 N 156.679 -1.44442 0.630414 0
M  V30 1730 C 157.928 -2.01267 0.132073 0
M  V30 1731 C 158.241 -1.50172 -1.25331 0
M  V30 1732 O 159.447 -1.9912 -1.84562 0
M  V30 1733 C 157.903 -3.59422 0.185362 0
M  V30 1734 C 157.511 -4.19514 1.57201 0
M  V30 1735 C 159.255 -4.23724 -0.256553 0
M  V30 1736 C 157.162 -5.69891 1.58045 0
M  V30 1737 H 156.092 -0.752619 0.0456092 0
M  V30 1738 H 158.743 -1.65666 0.789106 0
M  V30 1739 H 157.125 -3.92318 -0.538759 0
M  V30 1740 H 158.299 -3.98156 2.31966 0
M  V30 1741 H 156.614 -3.67496 1.95795 0
M  V30 1742 H 159.211 -5.34019 -0.269767 0
M  V30 1743 H 159.554 -3.96013 -1.28372 0
M  V30 1744 H 160.087 -3.95629 0.41505 0
M  V30 1745 H 156.826 -6.02336 2.58597 0
M  V30 1746 H 156.346 -5.93373 0.875725 0
M  V30 1747 H 158.025 -6.33515 1.31408 0
M  V30 1748 N 158.157 -0.370918 -1.53173 0
M  V30 1749 C 159.387 0.217389 -2.05453 0
M  V30 1750 C 159.795 1.42568 -1.24382 0
M  V30 1751 O 159.138 1.81571 -0.278839 0
M  V30 1752 C 159.2 0.669827 -3.53205 0
M  V30 1753 C 158.864 -0.4225 -4.55043 0
M  V30 1754 C 159.861 -1.27407 -5.04047 0
M  V30 1755 C 157.546 -0.58427 -4.9889 0
M  V30 1756 C 159.54 -2.27271 -5.95505 0
M  V30 1757 C 157.227 -1.58627 -5.90153 0
M  V30 1758 C 158.225 -2.42892 -6.38351 0
M  V30 1759 O 157.913 -3.41382 -7.27814 0
M  V30 1760 H 157.645 0.0408171 -0.674767 0
M  V30 1761 H 160.199 -0.5292 -1.98466 0
M  V30 1762 H 158.429 1.4681 -3.57748 0
M  V30 1763 H 160.118 1.18173 -3.88317 0
M  V30 1764 H 160.884 -1.16031 -4.70916 0
M  V30 1765 H 156.763 0.061851 -4.60959 0
M  V30 1766 H 160.307 -2.93079 -6.33049 0
M  V30 1767 H 156.204 -1.70048 -6.22699 0
M  V30 1768 H 156.972 -3.37173 -7.45826 0
M  V30 1769 N 159.635 1.57281 -0.100228 0
M  V30 1770 C 161.051 1.57527 0.256416 0
M  V30 1771 C 161.251 1.11173 1.68056 0
M  V30 1772 O 160.307 0.79053 2.39806 0
M  V30 1773 C 161.62 3.00673 0.0401747 0
M  V30 1774 C 163.168 3.12815 0.107528 0
M  V30 1775 C 163.643 4.57929 -0.0807834 0
M  V30 1776 N 165.134 4.63193 -0.0261207 0
M  V30 1777 C 165.869 5.73212 -0.146999 0
M  V30 1778 N 165.365 6.92047 -0.322999 0
M  V30 1779 N 167.158 5.62031 -0.0879044 0
M  V30 1780 H 159.309 1.85718 -1.03065 0
M  V30 1781 H 161.572 0.857446 -0.404339 0
M  V30 1782 H 161.278 3.38804 -0.943649 0
M  V30 1783 H 161.152 3.69042 0.780262 0
M  V30 1784 H 163.539 2.74554 1.08186 0
M  V30 1785 H 163.62 2.47028 -0.664134 0
M  V30 1786 H 163.264 4.96886 -1.05201 0
M  V30 1787 H 163.194 5.21783 0.710635 0
M  V30 1788 H 165.685 3.77748 0.107161 0
M  V30 1789 H 165.998 7.7173 -0.406608 0
M  V30 1790 H 164.343 6.94074 -0.358733 0
M  V30 1791 H 167.534 4.68075 0.048498 0
M  V30 1792 H 167.707 6.47734 -0.185557 0
M  V30 1793 N 161.113 -0.173488 1.56642 0
M  V30 1794 C 162.043 -1.2171 1.99271 0
M  V30 1795 C 163.024 -1.46289 0.867959 0
M  V30 1796 O 164.209 -1.5766 1.13388 0
M  V30 1797 C 161.339 -2.55651 2.35074 0
M  V30 1798 C 160.293 -2.45645 3.50489 0
M  V30 1799 C 159.619 -3.84056 3.72028 0
M  V30 1800 C 160.919 -1.96302 4.84007 0
M  V30 1801 H 162.613 -0.86275 2.867 0
M  V30 1802 H 160.159 -0.413571 1.37933 0
M  V30 1803 H 162.112 -3.2886 2.63494 0
M  V30 1804 H 160.836 -2.92869 1.44552 0
M  V30 1805 H 159.495 -1.7489 3.22194 0
M  V30 1806 H 159.143 -4.18664 2.788 0
M  V30 1807 H 158.843 -3.7823 4.49684 0
M  V30 1808 H 160.367 -4.58854 4.02846 0
M  V30 1809 H 161.781 -2.59284 5.11317 0
M  V30 1810 H 160.178 -2.01429 5.65284 0
M  V30 1811 H 161.248 -0.917226 4.76146 0
M  V30 1812 N 162.591 -1.51276 -0.441967 0
M  V30 1813 C 163.816 -1.67799 -1.21895 0
M  V30 1814 C 164.241 -0.372864 -1.84367 0
M  V30 1815 O 163.599 0.666501 -1.68604 0
M  V30 1816 C 163.647 -2.79199 -2.28211 0
M  V30 1817 O 162.751 -2.42479 -3.33583 0
M  V30 1818 H 162.092 -0.559649 -0.357336 0
M  V30 1819 H 164.622 -1.97815 -0.522522 0
M  V30 1820 H 164.632 -3.03146 -2.73069 0
M  V30 1821 H 163.307 -3.73906 -1.82118 0
M  V30 1822 H 161.884 -2.29087 -2.94234 0
M  V30 1823 N 164.069 0.697108 -1.41344 0
M  V30 1824 C 165.297 1.48593 -1.43972 0
M  V30 1825 C 165.712 1.88747 -0.0445612 0
M  V30 1826 O 165.069 1.56682 0.935785 0
M  V30 1827 C 165.12 2.74946 -2.34706 0
M  V30 1828 O 164.841 2.36484 -3.68791 0
M  V30 1829 C 166.342 3.687 -2.46121 0
M  V30 1830 H 163.562 0.457964 -0.490418 0
M  V30 1831 H 166.106 0.858429 -1.8561 0
M  V30 1832 H 164.261 3.33937 -1.9638 0
M  V30 1833 H 164.675 3.17918 -4.17167 0
M  V30 1834 H 166.149 4.54145 -3.13777 0
M  V30 1835 H 166.626 4.13081 -1.49199 0
M  V30 1836 H 167.232 3.15613 -2.85076 0
M  V30 1837 N 165.547 1.27147 0.931209 0
M  V30 1838 C 166.824 1.0401 1.65654 0
M  V30 1839 C 167.204 -0.426297 2.06751 0
M  V30 1840 O 166.552 -1.40879 1.79904 0
M  V30 1841 C 166.762 1.99834 2.86125 0
M  V30 1842 C 168.11 2.29007 3.57549 0
M  V30 1843 O 169.134 1.97779 2.96246 0
M  V30 1844 O 167.993 2.82222 4.67989 0
M  V30 1845 H 165.087 0.396239 0.725895 0
M  V30 1846 H 167.633 1.38397 0.982056 0
M  V30 1847 H 166.405 2.98744 2.52721 0
M  V30 1848 H 166.028 1.65987 3.61295 0
M  V30 1849 N 167.025 -1.13721 1.09112 0
M  V30 1850 C 168.274 -1.84275 0.82009 0
M  V30 1851 C 168.587 -1.84253 -0.656509 0
M  V30 1852 O 169.793 -2.50668 -1.04296 0
M  V30 1853 C 168.249 -3.30825 1.41714 0
M  V30 1854 C 167.857 -3.39244 2.92605 0
M  V30 1855 C 169.601 -4.06443 1.22492 0
M  V30 1856 C 167.508 -4.80047 3.45411 0
M  V30 1857 H 166.438 -0.690387 0.30312 0
M  V30 1858 H 169.089 -1.28146 1.31343 0
M  V30 1859 H 167.471 -3.86737 0.851498 0
M  V30 1860 H 168.645 -2.93344 3.55367 0
M  V30 1861 H 166.96 -2.77088 3.10823 0
M  V30 1862 H 169.557 -5.10387 1.59402 0
M  V30 1863 H 169.9 -4.15972 0.165299 0
M  V30 1864 H 170.433 -3.56852 1.75788 0
M  V30 1865 H 167.172 -4.75709 4.50978 0
M  V30 1866 H 166.692 -5.26455 2.87411 0
M  V30 1867 H 168.371 -5.48957 3.42425 0
M  V30 1868 N 168.503 -0.877838 -1.30888 0
M  V30 1869 C 169.914 -0.544193 -1.78593 0
M  V30 1870 C 170.265 0.939301 -1.72254 0
M  V30 1871 O 169.39 1.7337 -1.29505 0
M  V30 1872 C 169.985 -0.98105 -3.24285 0
M  V30 1873 C 168.544 -0.698935 -3.69854 0
M  V30 1874 C 167.691 -1.168 -2.51502 0
M  V30 1875 H 170.642 -1.06278 -1.17859 0
M  V30 1876 H 170.663 -0.307009 -3.79259 0
M  V30 1877 H 170.175 -2.06079 -3.28866 0
M  V30 1878 H 168.276 0.369112 -3.70767 0
M  V30 1879 H 168.389 -1.28148 -4.61644 0
M  V30 1880 H 166.753 -0.587535 -2.47831 0
M  V30 1881 H 167.536 -2.25533 -2.58824 0
M  V30 1882 N 169.982 1.44106 -0.638065 0
M  V30 1883 C 171.229 2.01978 -0.14533 0
M  V30 1884 C 171.557 1.50234 1.23532 0
M  V30 1885 O 170.812 0.679548 1.83523 0
M  V30 1886 C 171.111 3.5729 -0.0887327 0
M  V30 1887 C 170.777 4.28317 -1.40909 0
M  V30 1888 C 169.439 4.47437 -1.77069 0
M  V30 1889 C 171.791 4.6867 -2.28031 0
M  V30 1890 C 169.119 5.04171 -3.00047 0
M  V30 1891 C 171.471 5.26766 -3.50286 0
M  V30 1892 C 170.135 5.44104 -3.86661 0
M  V30 1893 H 169.405 0.739089 -0.0531801 0
M  V30 1894 H 172.052 1.72781 -0.825761 0
M  V30 1895 H 170.357 3.8594 0.675095 0
M  V30 1896 H 172.054 3.99807 0.309145 0
M  V30 1897 H 168.644 4.1377 -1.1177 0
M  V30 1898 H 172.828 4.53604 -2.01388 0
M  V30 1899 H 168.084 5.15782 -3.28298 0
M  V30 1900 H 172.258 5.56983 -4.18023 0
M  V30 1901 H 169.885 5.87832 -4.82034 0
M  V30 1902 N 171.46 0.379036 1.52974 0
M  V30 1903 C 172.871 -0.0972525 1.86447 0
M  V30 1904 C 173.222 -1.47027 1.29914 0
M  V30 1905 O 172.347 -2.07135 0.626433 0
M  V30 1906 C 172.942 -0.183248 3.38304 0
M  V30 1907 C 171.501 -0.603812 3.71525 0
M  V30 1908 C 170.648 0.240632 2.76254 0
M  V30 1909 H 173.599 0.597316 1.4703 0
M  V30 1910 H 173.62 -1.00432 3.67006 0
M  V30 1911 H 173.132 0.816191 3.79421 0
M  V30 1912 H 171.233 -1.61099 3.35973 0
M  V30 1913 H 171.346 -0.369086 4.77676 0
M  V30 1914 H 169.71 -0.292548 2.53014 0
M  V30 1915 H 170.493 1.23786 3.20206 0
M  V30 1916 N 172.938 -1.57226 0.108567 0
M  V30 1917 C 174.186 -1.94448 -0.550853 0
M  V30 1918 C 174.507 -0.992074 -1.67878 0
M  V30 1919 O 173.777 -0.0465 -1.95845 0
M  V30 1920 H 172.357 -0.717897 -0.206479 0
M  V30 1921 H 175.019 -1.94112 0.175062 0
M  V30 1922 H 174.115 -2.97218 -0.952259 0
M  V30 1923 N 174.416 0.165178 -1.56732 0
M  V30 1924 C 175.364 1.22369 -1.97809 0
M  V30 1925 C 176.358 1.45488 -0.867741 0
M  V30 1926 O 177.564 1.45995 -1.05288 0
M  V30 1927 H 173.939 0.411486 -0.629431 0
M  V30 1928 H 175.91 0.850425 -2.86025 0
M  V30 1929 C 174.659 2.55403 -2.35934 0
M  V30 1930 H 173.982 2.38438 -3.20916 0
M  V30 1931 H 175.422 3.2814 -2.68514 0
M  V30 1932 C 173.881 3.14611 -1.20506 0
M  V30 1933 O 174.411 3.98626 -0.496016 0
M  V30 1934 N 172.617 2.7379 -0.97403 0
M  V30 1935 H 172.164 2.0557 -1.55238 0
M  V30 1936 H 172.122 3.1374 -0.203573 0
M  V30 1937 N 175.894 1.51508 0.433938 0
M  V30 1938 C 176.842 1.73646 1.54757 0
M  V30 1939 C 177.836 0.602854 1.5831 0
M  V30 1940 O 179.042 0.784318 1.62014 0
M  V30 1941 H 175.417 0.548718 0.51421 0
M  V30 1942 H 177.388 2.66991 1.33261 0
M  V30 1943 C 176.137 1.88172 2.92381 0
M  V30 1944 H 175.46 2.74808 2.90381 0
M  V30 1945 H 176.9 2.07672 3.6966 0
M  V30 1946 C 175.359 0.64239 3.30719 0
M  V30 1947 O 175.889 -0.201362 4.01195 0
M  V30 1948 N 174.095 0.485489 2.86516 0
M  V30 1949 H 173.642 1.17318 2.29334 0
M  V30 1950 H 173.6 -0.342482 3.12529 0
M  V30 1951 N 177.372 -0.689602 1.41712 0
M  V30 1952 C 178.32 -1.82475 1.44242 0
M  V30 1953 C 179.314 -1.66354 0.319774 0
M  V30 1954 O 180.52 -1.73143 0.492089 0
M  V30 1955 H 176.895 -0.601416 0.451445 0
M  V30 1956 H 178.866 -1.77458 2.39899 0
M  V30 1957 C 177.615 -3.20535 1.3473 0
M  V30 1958 H 176.938 -3.33559 2.20405 0
M  V30 1959 H 178.378 -4.00023 1.40562 0
M  V30 1960 C 176.837 -3.36846 0.0603281 0
M  V30 1961 O 177.367 -3.91656 -0.892663 0
M  V30 1962 N 175.573 -2.90595 -0.0177039 0
M  V30 1963 H 175.12 -2.46178 0.758572 0
M  V30 1964 H 175.078 -3.01886 -0.878201 0
M  V30 1965 N 178.85 -1.27639 -0.924453 0
M  V30 1966 C 180.078 -1.16989 -1.70649 0
M  V30 1967 C 180.493 0.272869 -1.86818 0
M  V30 1968 O 179.85 1.18549 -1.38753 0
M  V30 1969 C 179.901 -1.85229 -3.10439 0
M  V30 1970 O 179.622 -3.23868 -2.95028 0
M  V30 1971 C 181.123 -1.80746 -4.04779 0
M  V30 1972 H 178.343 -0.406595 -0.53378 0
M  V30 1973 H 180.887 -1.68569 -1.15778 0
M  V30 1974 H 179.042 -1.37545 -3.6216 0
M  V30 1975 H 179.456 -3.57889 -3.83426 0
M  V30 1976 H 180.93 -2.33101 -5.00368 0
M  V30 1977 H 181.407 -0.777499 -4.32263 0
M  V30 1978 H 182.013 -2.28059 -3.58984 0
M  V30 1979 N 180.328 1.1314 -1.09713 0
M  V30 1980 C 181.739 1.66029 -0.853885 0
M  V30 1981 C 182.09 1.86241 0.617142 0
M  V30 1982 O 181.215 1.5834 1.47503 0
M  V30 1983 C 181.81 3.01599 -1.5435 0
M  V30 1984 C 180.369 3.51467 -1.34714 0
M  V30 1985 C 179.516 2.26648 -1.59769 0
M  V30 1986 H 182.467 0.970226 -1.25588 0
M  V30 1987 H 182.488 3.67709 -0.978267 0
M  V30 1988 H 182 2.86856 -2.6141 0
M  V30 1989 H 180.101 3.71408 -0.297838 0
M  V30 1990 H 180.214 4.314 -2.08401 0
M  V30 1991 H 178.578 2.33385 -1.01998 0
M  V30 1992 H 179.361 2.14467 -2.68065 0
M  V30 1993 N 181.806 0.884767 1.30421 0
M  V30 1994 C 183.055 0.499164 1.95426 0
M  V30 1995 C 183.368 -0.95645 1.70621 0
M  V30 1996 O 184.574 -1.44889 2.29607 0
M  V30 1997 C 183.03 0.84177 3.49917 0
M  V30 1998 C 182.638 2.31514 3.83543 0
M  V30 1999 C 184.382 0.525355 4.21237 0
M  V30 2000 C 182.289 2.59939 5.31212 0
M  V30 2001 H 181.219 0.182944 0.73147 0
M  V30 2002 H 183.87 1.07971 1.48373 0
M  V30 2003 H 182.252 0.190311 3.95542 0
M  V30 2004 H 183.426 3.0109 3.48829 0
M  V30 2005 H 181.741 2.59907 3.25326 0
M  V30 2006 H 184.338 0.714762 5.29901 0
M  V30 2007 H 184.681 -0.535222 4.12845 0
M  V30 2008 H 185.214 1.134 3.81294 0
M  V30 2009 H 181.953 3.64736 5.44654 0
M  V30 2010 H 181.473 1.94972 5.67227 0
M  V30 2011 H 183.152 2.45429 5.98643 0
M  V30 2012 N 183.284 -1.43765 0.645699 0
M  V30 2013 C 184.232 -2.32516 -0.0624849 0
M  V30 2014 C 185.226 -1.48183 -0.820855 0
M  V30 2015 O 186.432 -1.64439 -0.732106 0
M  V30 2016 H 182.807 -0.750989 -0.0389864 0
M  V30 2017 H 184.778 -2.89979 0.703892 0
M  V30 2018 C 183.527 -3.32389 -1.02044 0
M  V30 2019 H 182.85 -3.97301 -0.446312 0
M  V30 2020 H 184.29 -3.97138 -1.48517 0
M  V30 2021 C 182.749 -2.62416 -2.11281 0
M  V30 2022 O 183.279 -2.434 -3.19561 0
M  V30 2023 N 181.485 -2.21913 -1.87624 0
M  V30 2024 H 181.032 -2.37578 -0.995703 0
M  V30 2025 H 180.99 -1.75424 -2.6091 0
M  V30 2026 N 184.763 -0.387143 -1.52771 0
M  V30 2027 C 185.991 0.195869 -2.05971 0
M  V30 2028 C 186.406 1.40691 -1.25903 0
M  V30 2029 O 185.763 1.79931 -0.305134 0
M  V30 2030 C 185.814 0.56812 -3.57008 0
M  V30 2031 O 185.535 -0.594803 -4.34043 0
M  V30 2032 C 187.036 1.20723 -4.26545 0
M  V30 2033 H 184.256 0.0300578 -0.670326 0
M  V30 2034 H 186.8 -0.551749 -1.96916 0
M  V30 2035 H 184.955 1.26564 -3.66143 0
M  V30 2036 H 185.369 -0.289322 -5.23701 0
M  V30 2037 H 186.843 1.41807 -5.33474 0
M  V30 2038 H 187.32 2.17395 -3.81623 0
M  V30 2039 H 187.926 0.550535 -4.21722 0
M  V30 2040 N 186.241 1.57166 -0.116904 0
M  V30 2041 C 187.488 1.95123 0.541603 0
M  V30 2042 C 187.816 1.00006 1.6682 0
M  V30 2043 O 187.071 0.0235658 1.95686 0
M  V30 2044 C 187.37 3.39508 1.11664 0
M  V30 2045 C 187.036 4.50762 0.111606 0
M  V30 2046 C 185.698 4.80918 -0.164758 0
M  V30 2047 C 188.05 5.18036 -0.573438 0
M  V30 2048 C 185.378 5.75666 -1.13249 0
M  V30 2049 C 187.73 6.13824 -1.52978 0
M  V30 2050 C 186.394 6.42374 -1.81415 0
M  V30 2051 H 185.664 0.714005 0.198187 0
M  V30 2052 H 188.311 1.9048 -0.197365 0
M  V30 2053 H 186.616 3.40835 1.93232 0
M  V30 2054 H 188.313 3.66189 1.63422 0
M  V30 2055 H 184.903 4.27272 0.337192 0
M  V30 2056 H 189.087 4.94896 -0.373092 0
M  V30 2057 H 184.343 5.96092 -1.35958 0
M  V30 2058 H 188.517 6.65039 -2.06629 0
M  V30 2059 H 186.144 7.15599 -2.56557 0
M  V30 2060 N 187.719 -0.156864 1.56817 0
M  V30 2061 C 188.996 -0.899244 1.73704 0
M  V30 2062 C 189.376 -1.99771 0.682254 0
M  V30 2063 O 188.724 -2.26515 -0.300522 0
M  V30 2064 C 188.934 -1.45075 3.17418 0
M  V30 2065 C 190.282 -1.91802 3.7881 0
M  V30 2066 O 191.306 -1.54838 3.20786 0
M  V30 2067 O 190.165 -2.5994 4.80722 0
M  V30 2068 H 187.259 -0.424267 0.709878 0
M  V30 2069 H 189.805 -0.143561 1.69092 0
M  V30 2070 H 188.577 -0.660846 3.85679 0
M  V30 2071 H 188.2 -2.27021 3.26416 0
M  V30 2072 N 189.197 -1.51736 -0.425897 0
M  V30 2073 C 190.444 -1.6497 -1.17436 0
M  V30 2074 C 190.772 -0.371445 -1.9092 0
M  V30 2075 O 190.027 0.644963 -1.84767 0
M  V30 2076 C 190.326 -2.81103 -2.20717 0
M  V30 2077 C 189.992 -4.19954 -1.64162 0
M  V30 2078 C 188.654 -4.57725 -1.48462 0
M  V30 2079 C 191.006 -5.06552 -1.22696 0
M  V30 2080 C 188.334 -5.79789 -0.897873 0
M  V30 2081 C 190.686 -6.29205 -0.654464 0
M  V30 2082 C 189.35 -6.6574 -0.484456 0
M  V30 2083 H 188.62 -0.603668 -0.429727 0
M  V30 2084 H 191.267 -1.85798 -0.463829 0
M  V30 2085 H 189.572 -2.54542 -2.97852 0
M  V30 2086 H 191.269 -2.8854 -2.78471 0
M  V30 2087 H 187.859 -3.90181 -1.77361 0
M  V30 2088 H 192.043 -4.77968 -1.33642 0
M  V30 2089 H 187.299 -6.06733 -0.75402 0
M  V30 2090 H 191.473 -6.95643 -0.324694 0
M  V30 2091 H 189.1 -7.60195 -0.0276833 0
M  V30 2092 N 190.675 0.682077 -1.42076 0
M  V30 2093 C 191.952 1.43755 -1.32642 0
M  V30 2094 C 192.332 2.11063 0.0396611 0
M  V30 2095 O 191.68 2.02701 1.05474 0
M  V30 2096 C 191.89 2.44596 -2.48946 0
M  V30 2097 C 193.238 3.09454 -2.9073 0
M  V30 2098 O 194.262 2.54922 -2.48783 0
M  V30 2099 O 193.121 4.08253 -3.63307 0
M  V30 2100 H 190.215 0.640857 -0.522715 0
M  V30 2101 H 192.761 0.711415 -1.54068 0
M  V30 2102 H 191.533 1.93609 -3.40046 0
M  V30 2103 H 191.156 3.24701 -2.29467 0
M  V30 2104 N 192.153 1.28127 0.917671 0
M  V30 2105 C 193.399 1.15223 1.66888 0
M  V30 2106 C 193.732 -0.299293 1.9188 0
M  V30 2107 O 193.007 -1.21805 1.51637 0
M  V30 2108 C 193.29 1.94706 3.02922 0
M  V30 2109 C 193.143 3.47898 2.85109 0
M  V30 2110 C 194.462 1.75939 4.03402 0
M  V30 2111 H 191.581 0.419946 0.605652 0
M  V30 2112 H 194.223 1.57398 1.06423 0
M  V30 2113 H 192.373 1.58864 3.54534 0
M  V30 2114 H 194.045 3.93624 2.40537 0
M  V30 2115 H 192.288 3.7373 2.20246 0
M  V30 2116 H 192.959 3.98765 3.81694 0
M  V30 2117 H 195.435 2.07209 3.60837 0
M  V30 2118 H 194.311 2.33931 4.96556 0
M  V30 2119 H 194.572 0.709877 4.36364 0
M  V30 2120 N 193.631 -1.12557 1.10312 0
M  V30 2121 C 194.908 -1.80363 0.756878 0
M  V30 2122 C 195.288 -1.97067 -0.756824 0
M  V30 2123 O 194.636 -1.54601 -1.68259 0
M  V30 2124 C 194.846 -3.14812 1.50647 0
M  V30 2125 C 196.194 -3.90029 1.67817 0
M  V30 2126 O 197.218 -3.24464 1.46974 0
M  V30 2127 O 196.077 -5.07652 2.02365 0
M  V30 2128 H 193.171 -0.780667 0.272926 0
M  V30 2129 H 195.717 -1.19404 1.20586 0
M  V30 2130 H 194.489 -2.97936 2.53672 0
M  V30 2131 H 194.112 -3.83478 1.05026 0
M  V30 2132 N 195.109 -0.891671 -1.2995 0
M  V30 2133 C 196.356 -0.513501 -1.95881 0
M  V30 2134 C 196.684 0.938655 -1.70351 0
M  V30 2135 O 195.939 1.67936 -1.00478 0
M  V30 2136 C 196.238 -0.742868 -3.49594 0
M  V30 2137 C 195.904 -2.17114 -3.95186 0
M  V30 2138 C 194.566 -2.56169 -4.07346 0
M  V30 2139 C 196.918 -3.10162 -4.18866 0
M  V30 2140 C 194.246 -3.87469 -4.4055 0
M  V30 2141 C 196.598 -4.41001 -4.53542 0
M  V30 2142 C 195.262 -4.79941 -4.63911 0
M  V30 2143 H 194.532 -0.187903 -0.71678 0
M  V30 2144 H 197.179 -1.1288 -1.54694 0
M  V30 2145 H 195.484 -0.044586 -3.91775 0
M  V30 2146 H 197.181 -0.429767 -3.9869 0
M  V30 2147 H 193.771 -1.85801 -3.86233 0
M  V30 2148 H 197.955 -2.81206 -4.08946 0
M  V30 2149 H 193.211 -4.17371 -4.46779 0
M  V30 2150 H 197.385 -5.13133 -4.70815 0
M  V30 2151 H 195.012 -5.81719 -4.89395 0
M  V30 2152 N 196.587 1.43421 -0.653314 0
M  V30 2153 C 197.535 2.32546 0.0501531 0
M  V30 2154 C 198.529 1.48617 0.812985 0
M  V30 2155 O 199.735 1.64825 0.723375 0
M  V30 2156 H 196.11 0.751185 0.0350032 0
M  V30 2157 H 198.081 2.89602 -0.719261 0
M  V30 2158 C 196.83 3.32925 1.00279 0
M  V30 2159 H 196.153 3.97532 0.425236 0
M  V30 2160 H 197.593 3.9792 1.46409 0
M  V30 2161 C 196.052 2.63532 2.09886 0
M  V30 2162 O 196.582 2.45092 3.18265 0
M  V30 2163 N 194.788 2.22905 1.86445 0
M  V30 2164 H 194.335 2.38103 0.98309 0
M  V30 2165 H 194.293 1.76805 2.59976 0
M  V30 2166 N 198.065 0.39524 1.52563 0
M  V30 2167 C 199.29 -0.187456 2.06551 0
M  V30 2168 C 199.715 -1.39249 1.26457 0
M  V30 2169 O 199.073 -1.78947 0.291151 0
M  V30 2170 C 199.121 -0.529985 3.56684 0
M  V30 2171 O 198.225 -1.62307 3.79118 0
M  V30 2172 H 197.566 -0.0202537 0.663691 0
M  V30 2173 H 200.096 0.564426 1.96661 0
M  V30 2174 H 200.106 -0.792598 4.00227 0
M  V30 2175 H 198.781 0.350987 4.14416 0
M  V30 2176 H 197.358 -1.3537 3.47461 0
M  V30 2177 N 199.544 -1.57102 0.125237 0
M  V30 2178 C 200.79 -1.95697 -0.532035 0
M  V30 2179 C 201.123 -1.009 -1.6593 0
M  V30 2180 O 200.398 -0.047347 -1.94442 0
M  V30 2181 C 200.681 -3.44181 -1.05884 0
M  V30 2182 C 200.534 -4.49752 0.0654392 0
M  V30 2183 C 201.853 -3.94655 -1.9477 0
M  V30 2184 H 198.972 -0.711571 -0.191925 0
M  V30 2185 H 201.614 -1.88923 0.20206 0
M  V30 2186 H 199.764 -3.50085 -1.68442 0
M  V30 2187 H 201.436 -4.55943 0.700982 0
M  V30 2188 H 199.679 -4.27653 0.727709 0
M  V30 2189 H 200.35 -5.50924 -0.344505 0
M  V30 2190 H 202.826 -3.91094 -1.42074 0
M  V30 2191 H 201.702 -4.99057 -2.28546 0
M  V30 2192 H 201.963 -3.35718 -2.87656 0
M  V30 2193 N 201.022 0.148545 -1.56898 0
M  V30 2194 C 202.299 0.890019 -1.74178 0
M  V30 2195 C 202.679 1.99407 -0.692839 0
M  V30 2196 O 202.027 2.26671 0.288505 0
M  V30 2197 C 202.237 1.43389 -3.18183 0
M  V30 2198 C 203.585 1.89791 -3.79822 0
M  V30 2199 O 204.609 1.53134 -3.21603 0
M  V30 2200 O 203.468 2.57387 -4.82093 0
M  V30 2201 H 200.562 0.420496 -0.712118 0
M  V30 2202 H 203.108 0.134591 -1.69165 0
M  V30 2203 H 201.88 0.640383 -3.86024 0
M  V30 2204 H 201.503 2.25287 -3.27615 0
M  V30 2205 N 202.5 1.5196 0.417844 0
M  V30 2206 C 203.746 1.65836 1.16732 0
M  V30 2207 C 204.079 0.382881 1.90388 0
M  V30 2208 O 203.354 -0.618368 1.84408 0
M  V30 2209 C 203.637 2.87466 2.16876 0
M  V30 2210 C 203.49 4.25041 1.47174 0
M  V30 2211 C 204.809 3.04613 3.17646 0
M  V30 2212 H 201.928 0.603515 0.423011 0
M  V30 2213 H 204.57 1.84494 0.454105 0
M  V30 2214 H 202.72 2.71689 2.777 0
M  V30 2215 H 204.392 4.52527 0.895376 0
M  V30 2216 H 202.635 4.26843 0.773806 0
M  V30 2217 H 203.306 5.06176 2.20204 0
M  V30 2218 H 205.782 3.1923 2.66892 0
M  V30 2219 H 204.658 3.91247 3.8499 0
M  V30 2220 H 204.919 2.17541 3.84874 0
M  V30 2221 N 203.978 -0.674533 1.42435 0
M  V30 2222 C 204.925 -1.78807 1.45934 0
M  V30 2223 C 205.895 -1.63157 0.311271 0
M  V30 2224 O 207.08 -1.83707 0.515383 0
M  V30 2225 C 204.22 -3.16839 1.36773 0
M  V30 2226 C 203.333 -3.43774 2.61617 0
M  V30 2227 C 202.468 -4.71536 2.44597 0
M  V30 2228 C 201.507 -4.91505 3.64814 0
M  V30 2229 N 200.644 -6.10508 3.46734 0
M  V30 2230 H 205.484 -1.75151 2.41093 0
M  V30 2231 H 203.021 -0.85504 1.19697 0
M  V30 2232 H 204.979 -3.96606 1.29459 0
M  V30 2233 H 203.609 -3.19619 0.452089 0
M  V30 2234 H 202.661 -2.58259 2.79297 0
M  V30 2235 H 203.973 -3.54423 3.50978 0
M  V30 2236 H 203.127 -5.59393 2.3487 0
M  V30 2237 H 201.866 -4.6317 1.52726 0
M  V30 2238 H 200.871 -4.0209 3.74972 0
M  V30 2239 H 202.096 -5.01716 4.57665 0
M  V30 2240 H 200.042 -6.03315 2.5758 0
M  V30 2241 H 199.959 -6.2202 4.29682 0
M  V30 2242 H 201.227 -7.01044 3.40819 0
M  V30 2243 N 205.456 -1.28612 -0.910864 0
M  V30 2244 C 206.684 -1.18792 -1.69399 0
M  V30 2245 C 207.099 0.253039 -1.87097 0
M  V30 2246 O 206.456 1.17071 -1.40003 0
M  V30 2247 C 206.507 -1.88511 -3.08457 0
M  V30 2248 O 206.228 -3.26979 -2.91576 0
M  V30 2249 C 207.729 -1.85029 -4.02839 0
M  V30 2250 H 204.949 -0.412233 -0.529438 0
M  V30 2251 H 207.493 -1.69788 -1.13984 0
M  V30 2252 H 205.648 -1.41379 -3.60681 0
M  V30 2253 H 206.062 -3.61936 -3.79608 0
M  V30 2254 H 207.536 -2.38395 -4.97867 0
M  V30 2255 H 208.013 -0.823303 -4.31414 0
M  V30 2256 H 208.619 -2.31853 -3.56545 0
M  V30 2257 N 206.934 1.1197 -1.10907 0
M  V30 2258 C 208.35 1.35591 -0.841852 0
M  V30 2259 C 208.55 1.94233 0.536246 0
M  V30 2260 O 207.606 2.1717 1.28816 0
M  V30 2261 C 208.919 2.29284 -1.94549 0
M  V30 2262 C 210.467 2.42862 -1.97451 0
M  V30 2263 C 210.942 3.39873 -3.07002 0
M  V30 2264 N 212.433 3.47433 -3.06341 0
M  V30 2265 C 213.168 4.22421 -3.87748 0
M  V30 2266 N 212.664 5.00432 -4.79103 0
M  V30 2267 N 214.457 4.17876 -3.75946 0
M  V30 2268 H 206.608 0.722664 -1.99728 0
M  V30 2269 H 208.871 0.380635 -0.868229 0
M  V30 2270 H 208.577 1.93378 -2.93765 0
M  V30 2271 H 208.451 3.29452 -1.83688 0
M  V30 2272 H 210.838 2.78046 -0.988645 0
M  V30 2273 H 210.919 1.42566 -2.12388 0
M  V30 2274 H 210.563 3.05417 -4.05811 0
M  V30 2275 H 210.493 4.40011 -2.89306 0
M  V30 2276 H 212.984 2.91784 -2.40147 0
M  V30 2277 H 213.297 5.55002 -5.37766 0
M  V30 2278 H 211.642 4.99612 -4.83128 0
M  V30 2279 H 214.833 3.56016 -3.03924 0
M  V30 2280 H 215.006 4.76061 -4.39624 0
M  V30 2281 N 208.412 0.89855 1.29475 0
M  V30 2282 C 209.344 0.332726 2.26772 0
M  V30 2283 C 210.357 -0.520323 1.54261 0
M  V30 2284 O 211.546 -0.337668 1.75277 0
M  V30 2285 C 208.646 -0.544334 3.345 0
M  V30 2286 C 207.819 0.282728 4.36485 0
M  V30 2287 C 206.878 -0.526982 5.23555 0
M  V30 2288 O 205.904 0.0551165 5.69173 0
M  V30 2289 N 207.106 -1.83331 5.5079 0
M  V30 2290 H 209.871 1.16897 2.75962 0
M  V30 2291 H 207.432 0.762919 1.42798 0
M  V30 2292 H 209.424 -1.09239 3.89678 0
M  V30 2293 H 207.994 -1.28127 2.85136 0
M  V30 2294 H 207.214 1.01221 3.80983 0
M  V30 2295 H 208.502 0.84918 5.01664 0
M  V30 2296 H 207.9 -2.32898 5.15534 0
M  V30 2297 H 206.457 -2.32852 6.08788 0
M  V30 2298 N 209.89 -1.43072 0.660911 0
M  V30 2299 C 211.138 -2.01323 0.177094 0
M  V30 2300 C 211.459 -1.5245 -1.2159 0
M  V30 2301 O 210.729 -0.740322 -1.81373 0
M  V30 2302 H 209.309 -0.744382 0.0624804 0
M  V30 2303 H 211.971 -1.75179 0.854305 0
M  V30 2304 H 211.067 -3.11649 0.167641 0
M  V30 2305 N 211.368 -0.403325 -1.52352 0
M  V30 2306 C 212.316 0.439752 -2.28405 0
M  V30 2307 C 213.31 1.05089 -1.32863 0
M  V30 2308 O 214.516 0.989759 -1.50345 0
M  V30 2309 H 210.891 0.160587 -0.734653 0
M  V30 2310 H 212.862 -0.222983 -2.97566 0
M  V30 2311 C 211.611 1.54736 -3.11371 0
M  V30 2312 H 210.934 1.08643 -3.84755 0
M  V30 2313 H 212.374 2.1112 -3.67701 0
M  V30 2314 C 210.833 2.51141 -2.24566 0
M  V30 2315 O 211.363 3.54887 -1.88196 0
M  V30 2316 N 209.569 2.21213 -1.8845 0
M  V30 2317 H 209.116 1.36878 -2.18225 0
M  V30 2318 H 209.074 2.85963 -1.30662 0
M  V30 2319 N 212.846 1.57033 -0.133567 0
M  V30 2320 C 213.794 2.17348 0.828412 0
M  V30 2321 C 214.788 1.12671 1.26498 0
M  V30 2322 O 215.994 1.30947 1.23502 0
M  V30 2323 H 212.369 0.695775 0.285309 0
M  V30 2324 H 214.34 2.96935 0.295372 0
M  V30 2325 C 213.089 2.79893 2.06289 0
M  V30 2326 H 212.412 3.60147 1.73592 0
M  V30 2327 H 213.852 3.25615 2.71572 0
M  V30 2328 C 212.311 1.77713 2.86216 0
M  V30 2329 O 212.841 1.23937 3.82103 0
M  V30 2330 N 211.047 1.47321 2.50489 0
M  V30 2331 H 210.594 1.91243 1.7258 0
M  V30 2332 H 210.552 0.79199 3.04261 0
M  V30 2333 N 214.325 -0.140222 1.56975 0
M  V30 2334 C 215.571 -0.848084 1.84876 0
M  V30 2335 C 215.926 -1.78481 0.718481 0
M  V30 2336 O 215.219 -1.89497 -0.283093 0
M  V30 2337 C 215.413 -1.65386 3.16832 0
M  V30 2338 C 215.242 -0.79665 4.42587 0
M  V30 2339 C 214.012 -0.459648 5.03205 0
M  V30 2340 C 216.21 -0.12389 5.14151 0
M  V30 2341 N 214.192 0.410446 6.12526 0
M  V30 2342 C 215.563 0.606064 6.17031 0
M  V30 2343 C 217.618 -0.0452654 4.97879 0
M  V30 2344 C 216.321 1.40723 7.054 0
M  V30 2345 C 218.347 0.742658 5.86718 0
M  V30 2346 C 217.709 1.46087 6.89085 0
M  V30 2347 H 213.808 -0.287946 0.727056 0
M  V30 2348 H 216.392 -0.11304 1.94372 0
M  V30 2349 H 214.563 -2.36009 3.08471 0
M  V30 2350 H 216.295 -2.30541 3.32615 0
M  V30 2351 H 213.05 -0.797006 4.66846 0
M  V30 2352 H 213.474 0.836716 6.7181 0
M  V30 2353 H 218.116 -0.586184 4.18717 0
M  V30 2354 H 215.834 1.95938 7.83986 0
M  V30 2355 H 219.42 0.805574 5.76196 0
M  V30 2356 H 218.3 2.06077 7.56639 0
M  V30 2357 N 215.803 -1.52179 -0.40978 0
M  V30 2358 C 217.049 -1.66453 -1.15851 0
M  V30 2359 C 217.382 -0.392972 -1.90182 0
M  V30 2360 O 216.657 0.608579 -1.84734 0
M  V30 2361 C 216.94 -2.88612 -2.15349 0
M  V30 2362 C 216.793 -4.25815 -1.44918 0
M  V30 2363 C 218.112 -3.06294 -3.16026 0
M  V30 2364 H 215.231 -0.60575 -0.419805 0
M  V30 2365 H 217.873 -1.84732 -0.444314 0
M  V30 2366 H 216.023 -2.73158 -2.76255 0
M  V30 2367 H 217.695 -4.52995 -0.871365 0
M  V30 2368 H 215.938 -4.27247 -0.751159 0
M  V30 2369 H 216.609 -5.07337 -2.17516 0
M  V30 2370 H 219.085 -3.20641 -2.65195 0
M  V30 2371 H 217.961 -3.93283 -3.8291 0
M  V30 2372 H 218.222 -2.19579 -3.83715 0
M  V30 2373 N 217.281 0.66697 -1.42791 0
M  V30 2374 C 218.228 1.7803 -1.4688 0
M  V30 2375 C 219.198 1.6299 -0.319919 0
M  V30 2376 O 220.383 1.83432 -0.525118 0
M  V30 2377 C 217.523 3.1611 -1.38451 0
M  V30 2378 C 216.636 3.42381 -2.63437 0
M  V30 2379 C 215.771 4.70232 -2.47094 0
M  V30 2380 C 214.81 4.89564 -3.67415 0
M  V30 2381 N 213.947 6.08661 -3.49966 0
M  V30 2382 H 218.787 1.7387 -2.42019 0
M  V30 2383 H 216.324 0.84868 -1.20149 0
M  V30 2384 H 218.282 3.95914 -1.31561 0
M  V30 2385 H 216.912 3.19374 -0.469033 0
M  V30 2386 H 215.964 2.56774 -2.80662 0
M  V30 2387 H 217.276 3.52557 -3.52853 0
M  V30 2388 H 216.43 5.5814 -2.37834 0
M  V30 2389 H 215.169 4.62353 -1.5518 0
M  V30 2390 H 214.174 4.00096 -3.77099 0
M  V30 2391 H 215.399 4.99282 -4.6032 0
M  V30 2392 H 213.345 6.0194 -2.60776 0
M  V30 2393 H 213.262 6.19733 -4.32975 0
M  V30 2394 H 214.53 6.99226 -3.44532 0
M  V30 2395 N 218.759 1.29093 0.90403 0
M  V30 2396 C 219.987 1.19689 1.68766 0
M  V30 2397 C 220.402 -0.243113 1.87228 0
M  V30 2398 O 219.759 -1.16326 1.40621 0
M  V30 2399 C 219.81 1.90144 3.07453 0
M  V30 2400 O 219.531 3.2852 2.89838 0
M  V30 2401 C 221.032 1.87162 4.01852 0
M  V30 2402 H 218.252 0.415035 0.527244 0
M  V30 2403 H 220.796 1.7039 1.13082 0
M  V30 2404 H 218.951 1.43289 3.59926 0
M  V30 2405 H 219.365 3.63944 3.77684 0
M  V30 2406 H 220.839 2.41032 4.96596 0
M  V30 2407 H 221.316 0.84617 4.30972 0
M  V30 2408 H 221.922 2.33741 3.5531 0
M  V30 2409 N 220.237 -1.11381 1.11499 0
M  V30 2410 C 221.485 -1.8277 0.862524 0
M  V30 2411 C 221.806 -1.85097 -0.613534 0
M  V30 2412 O 221.076 -1.32198 -1.4457 0
M  V30 2413 H 219.656 -0.676823 0.316101 0
M  V30 2414 H 222.318 -1.34816 1.4075 0
M  V30 2415 H 221.414 -2.86614 1.23527 0
M  V30 2416 N 221.715 -0.905404 -1.28997 0
M  V30 2417 C 222.94 -0.549175 -1.99997 0
M  V30 2418 C 223.365 0.860276 -1.67275 0
M  V30 2419 O 222.723 1.57355 -0.900502 0
M  V30 2420 C 222.771 -0.755185 -3.52604 0
M  V30 2421 O 221.875 0.189692 -4.11964 0
M  V30 2422 H 221.216 -0.213899 -0.628604 0
M  V30 2423 H 223.746 -1.21856 -1.64354 0
M  V30 2424 H 223.756 -0.662045 -4.02593 0
M  V30 2425 H 222.431 -1.78271 -3.75755 0
M  V30 2426 H 221.008 0.0485257 -3.72868 0
M  V30 2427 N 223.193 1.4272 -0.668489 0
M  V30 2428 C 224.442 2.00846 -0.185389 0
M  V30 2429 C 224.755 1.53442 1.21305 0
M  V30 2430 O 225.961 2.03944 1.79218 0
M  V30 2431 C 224.417 3.58805 -0.280591 0
M  V30 2432 C 224.025 4.15198 -1.68268 0
M  V30 2433 C 225.769 4.24255 0.14412 0
M  V30 2434 C 223.676 5.655 -1.73099 0
M  V30 2435 H 222.606 0.751145 -0.0655475 0
M  V30 2436 H 225.257 1.63516 -0.832752 0
M  V30 2437 H 223.639 3.93608 0.434553 0
M  V30 2438 H 224.813 3.91866 -2.42441 0
M  V30 2439 H 223.128 3.62176 -2.05469 0
M  V30 2440 H 225.725 5.34547 0.128086 0
M  V30 2441 H 226.068 3.99277 1.17827 0
M  V30 2442 H 226.601 3.94389 -0.519798 0
M  V30 2443 H 223.34 5.95268 -2.74475 0
M  V30 2444 H 222.86 5.90842 -1.03274 0
M  V30 2445 H 224.539 6.29808 -1.48158 0
M  V30 2446 N 224.671 0.411399 1.52136 0
M  V30 2447 C 225.619 -0.427633 2.28635 0
M  V30 2448 C 226.613 -1.04383 1.33419 0
M  V30 2449 O 227.819 -0.981772 1.50868 0
M  V30 2450 H 224.194 -0.156689 0.735495 0
M  V30 2451 H 226.165 0.238761 2.97443 0
M  V30 2452 C 224.914 -1.53082 3.12188 0
M  V30 2453 H 224.237 -1.06601 3.85326 0
M  V30 2454 H 225.677 -2.09167 3.68816 0
M  V30 2455 C 224.136 -2.49946 2.25895 0
M  V30 2456 O 224.666 -3.53884 1.90076 0
M  V30 2457 N 222.872 -2.2021 1.8962 0
M  V30 2458 H 222.419 -1.35719 2.18948 0
M  V30 2459 H 222.377 -2.85266 1.32176 0
M  V30 2460 N 226.149 -1.5696 0.141893 0
M  V30 2461 C 227.56 -1.82797 -0.379776 0
M  V30 2462 C 227.911 -1.06033 -1.6508 0
M  V30 2463 O 227.036 -0.304011 -2.14254 0
M  V30 2464 C 227.631 -3.31578 -0.695802 0
M  V30 2465 C 226.19 -3.58014 -1.16201 0
M  V30 2466 C 225.337 -2.76699 -0.182455 0
M  V30 2467 H 228.288 -1.54406 0.366675 0
M  V30 2468 H 228.309 -3.47454 -1.55099 0
M  V30 2469 H 227.821 -3.87421 0.229449 0
M  V30 2470 H 225.922 -3.07553 -2.10338 0
M  V30 2471 H 226.035 -4.66501 -1.09151 0
M  V30 2472 H 224.399 -2.45618 -0.674072 0
M  V30 2473 H 225.182 -3.35311 0.736297 0
M  V30 2474 N 227.627 0.131896 -1.57047 0
M  V30 2475 C 228.852 0.860418 -1.8871 0
M  V30 2476 C 229.277 1.73251 -0.73251 0
M  V30 2477 O 228.635 1.785 0.317429 0
M  V30 2478 C 228.683 1.68047 -3.19049 0
M  V30 2479 O 227.787 2.7862 -3.04047 0
M  V30 2480 H 227.128 0.238743 -0.619595 0
M  V30 2481 H 229.658 0.118169 -2.04258 0
M  V30 2482 H 229.668 2.07238 -3.51449 0
M  V30 2483 H 228.343 1.04018 -4.02682 0
M  V30 2484 H 226.92 2.42726 -2.83088 0
M  V30 2485 N 229.106 1.52395 0.401703 0
M  V30 2486 C 230.352 1.67065 1.14966 0
M  V30 2487 C 230.685 0.403052 1.89971 0
M  V30 2488 O 229.96 -0.598774 1.85054 0
M  V30 2489 C 230.243 2.8975 2.13815 0
M  V30 2490 C 230.096 4.26578 1.42658 0
M  V30 2491 C 231.415 3.07965 3.14397 0
M  V30 2492 H 228.534 0.607968 0.416587 0
M  V30 2493 H 231.176 1.84965 0.434511 0
M  V30 2494 H 229.326 2.74619 2.74803 0
M  V30 2495 H 230.998 4.53451 0.847329 0
M  V30 2496 H 229.241 4.27639 0.72849 0
M  V30 2497 H 229.912 5.08483 2.14823 0
M  V30 2498 H 232.388 3.22043 2.63491 0
M  V30 2499 H 231.264 3.95308 3.80819 0
M  V30 2500 H 231.525 2.21611 3.82545 0
M  V30 2501 N 230.584 -0.659388 1.43143 0
M  V30 2502 C 231.833 -1.41518 1.43721 0
M  V30 2503 C 232.146 -1.95499 0.0628176 0
M  V30 2504 O 233.352 -2.71446 -0.0539683 0
M  V30 2505 C 231.808 -2.5608 2.52885 0
M  V30 2506 C 231.416 -2.08733 3.96402 0
M  V30 2507 C 233.16 -3.3349 2.62649 0
M  V30 2508 C 231.067 -3.20469 4.97045 0
M  V30 2509 H 229.997 -0.531705 0.534608 0
M  V30 2510 H 232.648 -0.712343 1.69109 0
M  V30 2511 H 231.03 -3.28805 2.20688 0
M  V30 2512 H 232.204 -1.43059 4.3803 0
M  V30 2513 H 230.519 -1.44219 3.90627 0
M  V30 2514 H 233.116 -4.16734 3.35017 0
M  V30 2515 H 233.459 -3.8111 1.67513 0
M  V30 2516 H 233.992 -2.67842 2.94118 0
M  V30 2517 H 230.731 -2.77824 5.93712 0
M  V30 2518 H 230.251 -3.84874 4.60034 0
M  V30 2519 H 231.93 -3.85698 5.19467 0
M  V30 2520 N 232.062 -1.29571 -0.897171 0
M  V30 2521 C 233.311 -1.1706 -1.64256 0
M  V30 2522 C 233.624 0.276476 -1.93636 0
M  V30 2523 O 234.83 0.52294 -2.66416 0
M  V30 2524 C 233.286 -2.0475 -2.95982 0
M  V30 2525 C 232.894 -3.54295 -2.74187 0
M  V30 2526 C 234.638 -2.0097 -3.73914 0
M  V30 2527 C 232.545 -4.34081 -4.01656 0
M  V30 2528 H 231.475 -0.43452 -0.616205 0
M  V30 2529 H 234.126 -1.54229 -0.994268 0
M  V30 2530 H 232.508 -1.60452 -3.62038 0
M  V30 2531 H 233.682 -4.06662 -2.1671 0
M  V30 2532 H 231.997 -3.59773 -2.09648 0
M  V30 2533 H 234.594 -2.57838 -4.68427 0
M  V30 2534 H 234.937 -0.990273 -4.0435 0
M  V30 2535 H 235.47 -2.43325 -3.14703 0
M  V30 2536 H 232.209 -5.36671 -3.76384 0
M  V30 2537 H 231.729 -3.86483 -4.58684 0
M  V30 2538 H 233.408 -4.44877 -4.69781 0
M  V30 2539 N 233.54 1.10788 -1.12088 0
M  V30 2540 C 234.768 1.86461 -0.896651 0
M  V30 2541 C 235.183 1.80492 0.553912 0
M  V30 2542 O 234.54 1.19102 1.38278 0
M  V30 2543 C 234.591 3.35006 -1.35843 0
M  V30 2544 O 234.312 3.40866 -2.75213 0
M  V30 2545 C 235.813 4.27565 -1.1706 0
M  V30 2546 H 233.033 0.589425 -0.320654 0
M  V30 2547 H 235.577 1.40076 -1.48993 0
M  V30 2548 H 233.732 3.7887 -0.808458 0
M  V30 2549 H 234.146 4.33411 -2.9539 0
M  V30 2550 H 235.62 5.30007 -1.54263 0
M  V30 2551 H 236.097 4.3906 -0.110814 0
M  V30 2552 H 236.703 3.89501 -1.70789 0
M  V30 2553 N 235.018 0.912232 1.28515 0
M  V30 2554 C 236.266 0.543523 1.94654 0
M  V30 2555 C 236.587 -0.9155 1.72173 0
M  V30 2556 O 235.857 -1.64708 1.06058 0
M  V30 2557 H 234.437 0.198017 0.720277 0
M  V30 2558 H 237.099 1.16126 1.56527 0
M  V30 2559 H 236.195 0.736684 3.03281 0
M  V30 2560 N 236.496 -1.42363 0.676048 0
M  V30 2561 C 237.907 -1.84649 0.275948 0
M  V30 2562 C 238.258 -1.56588 -1.18214 0
M  V30 2563 O 237.383 -1.02634 -1.90513 0
M  V30 2564 C 237.978 -3.35178 0.494053 0
M  V30 2565 C 236.537 -3.76109 0.148061 0
M  V30 2566 C 235.684 -2.65931 0.785891 0
M  V30 2567 H 238.635 -1.32192 0.878121 0
M  V30 2568 H 238.656 -3.79655 -0.25343 0
M  V30 2569 H 238.168 -3.55571 1.55535 0
M  V30 2570 H 236.269 -3.61323 -0.909742 0
M  V30 2571 H 236.382 -4.7546 0.589454 0
M  V30 2572 H 234.746 -2.53773 0.217113 0
M  V30 2573 H 235.529 -2.89146 1.85067 0
M  V30 2574 N 237.974 -0.419461 -1.51915 0
M  V30 2575 C 239.39 -0.0708431 -1.59443 0
M  V30 2576 C 239.59 1.41796 -1.43164 0
M  V30 2577 O 238.646 2.18596 -1.26381 0
M  V30 2578 C 239.959 -0.574991 -2.95151 0
M  V30 2579 C 241.507 -0.533867 -3.08413 0
M  V30 2580 C 241.982 -1.01469 -4.46618 0
M  V30 2581 N 243.473 -0.971939 -4.52888 0
M  V30 2582 C 244.208 -1.31505 -5.58116 0
M  V30 2583 N 243.704 -1.73014 -6.70849 0
M  V30 2584 N 245.497 -1.23436 -5.48379 0
M  V30 2585 H 237.648 -1.38836 -1.60743 0
M  V30 2586 H 239.911 -0.570998 -0.756747 0
M  V30 2587 H 239.617 -1.61597 -3.12377 0
M  V30 2588 H 239.491 0.00979777 -3.77199 0
M  V30 2589 H 241.878 0.498086 -2.90866 0
M  V30 2590 H 241.959 -1.15484 -2.28248 0
M  V30 2591 H 241.603 -2.04502 -4.6491 0
M  V30 2592 H 241.533 -0.370433 -5.25295 0
M  V30 2593 H 244.024 -0.666893 -3.71969 0
M  V30 2594 H 244.337 -1.97479 -7.47143 0
M  V30 2595 H 242.682 -1.76926 -6.72103 0
M  V30 2596 H 245.873 -0.908869 -4.59192 0
M  V30 2597 H 246.046 -1.50506 -6.30279 0
M  V30 2598 N 239.452 1.56882 -0.150215 0
M  V30 2599 C 240.362 2.20494 0.801222 0
M  V30 2600 C 241.378 1.19019 1.26927 0
M  V30 2601 O 242.554 1.51607 1.32579 0
M  V30 2602 C 239.619 2.81659 2.02161 0
M  V30 2603 C 238.68 3.9827 1.60249 0
M  V30 2604 C 237.913 4.56508 2.7647 0
M  V30 2605 O 238.136 4.13627 3.92771 0
M  V30 2606 O 237.07 5.46719 2.51757 0
M  V30 2607 H 240.896 3.02315 0.289717 0
M  V30 2608 H 238.481 1.49202 0.0769684 0
M  V30 2609 H 240.363 3.20522 2.73576 0
M  V30 2610 H 239.038 2.02849 2.52258 0
M  V30 2611 H 237.945 3.64117 0.858477 0
M  V30 2612 H 239.278 4.78609 1.14864 0
M  V30 2613 N 240.93 -0.123565 1.57115 0
M  V30 2614 C 241.878 -1.17082 2.00984 0
M  V30 2615 C 242.872 -1.43136 0.906009 0
M  V30 2616 O 244.078 -1.43152 1.09121 0
M  V30 2617 H 240.453 -0.394653 0.64012 0
M  V30 2618 H 242.424 -0.774292 2.88179 0
M  V30 2619 C 241.173 -2.49057 2.42623 0
M  V30 2620 H 240.496 -2.29846 3.27125 0
M  V30 2621 H 241.936 -3.20906 2.7712 0
M  V30 2622 C 240.395 -3.11305 1.28805 0
M  V30 2623 O 240.925 -3.97171 0.60153 0
M  V30 2624 N 239.131 -2.71111 1.04628 0
M  V30 2625 H 238.678 -2.01382 1.60634 0
M  V30 2626 H 238.636 -3.1309 0.286685 0
M  V30 2627 N 242.408 -1.52605 -0.393616 0
M  V30 2628 C 243.657 -1.66649 -1.13627 0
M  V30 2629 C 243.97 -0.410364 -1.91247 0
M  V30 2630 O 245.176 -0.430854 -2.68059 0
M  V30 2631 C 243.632 -2.9449 -2.06891 0
M  V30 2632 C 243.24 -4.27266 -1.34714 0
M  V30 2633 C 244.984 -3.17899 -2.81319 0
M  V30 2634 C 242.891 -5.46217 -2.26717 0
M  V30 2635 H 241.821 -0.62084 -0.427871 0
M  V30 2636 H 244.472 -1.791 -0.399428 0
M  V30 2637 H 242.854 -2.75774 -2.84191 0
M  V30 2638 H 244.028 -4.56518 -0.626714 0
M  V30 2639 H 242.343 -4.10081 -0.722643 0
M  V30 2640 H 244.94 -4.03949 -3.50328 0
M  V30 2641 H 245.283 -2.32777 -3.45139 0
M  V30 2642 H 245.816 -3.37159 -2.11113 0
M  V30 2643 H 242.555 -6.33733 -1.67521 0
M  V30 2644 H 242.075 -5.21283 -2.96689 0
M  V30 2645 H 243.754 -5.7991 -2.86903 0
M  V30 2646 N 243.887 0.651787 -1.4349 0
M  V30 2647 C 245.136 1.40754 -1.44469 0
M  V30 2648 C 245.449 1.95463 -0.0731845 0
M  V30 2649 O 246.655 2.71471 0.0395721 0
M  V30 2650 C 245.111 2.54735 -2.5424 0
M  V30 2651 C 244.719 2.06628 -3.97504 0
M  V30 2652 C 246.463 3.32092 -2.64414 0
M  V30 2653 C 244.37 3.17829 -4.98737 0
M  V30 2654 H 243.3 0.528862 -0.53742 0
M  V30 2655 H 245.951 0.703365 -1.69485 0
M  V30 2656 H 244.333 3.2763 -2.22428 0
M  V30 2657 H 245.507 1.40734 -4.38783 0
M  V30 2658 H 243.822 1.42146 -3.91387 0
M  V30 2659 H 246.419 4.14952 -3.37223 0
M  V30 2660 H 246.762 3.80217 -1.69532 0
M  V30 2661 H 247.295 2.66279 -2.95534 0
M  V30 2662 H 244.034 2.74671 -5.95177 0
M  V30 2663 H 243.554 3.82429 -4.62069 0
M  V30 2664 H 245.233 3.82937 -5.21505 0
M  V30 2665 N 245.365 1.30045 0.890287 0
M  V30 2666 C 246.642 1.09227 1.62262 0
M  V30 2667 C 247.022 -0.360305 2.08002 0
M  V30 2668 O 246.37 -1.35084 1.84295 0
M  V30 2669 C 246.58 2.08835 2.79623 0
M  V30 2670 C 247.928 2.40266 3.50082 0
M  V30 2671 O 248.952 2.07104 2.89804 0
M  V30 2672 O 247.811 2.96967 4.58773 0
M  V30 2673 H 244.905 0.419132 0.712922 0
M  V30 2674 H 247.451 1.41451 0.937529 0
M  V30 2675 H 246.223 3.06633 2.43089 0
M  V30 2676 H 245.846 1.77397 3.55832 0
M  V30 2677 N 246.843 -1.10192 1.12674 0
M  V30 2678 C 248.254 -1.63707 0.897604 0
M  V30 2679 C 248.605 -1.87812 -0.567546 0
M  V30 2680 O 247.73 -1.62196 -1.43253 0
M  V30 2681 C 248.325 -2.974 1.62292 0
M  V30 2682 C 246.884 -3.47772 1.43986 0
M  V30 2683 C 246.031 -2.22332 1.65722 0
M  V30 2684 H 248.982 -0.936587 1.28116 0
M  V30 2685 H 249.003 -3.64986 1.07541 0
M  V30 2686 H 248.515 -2.79824 2.68924 0
M  V30 2687 H 246.616 -3.70487 0.396206 0
M  V30 2688 H 246.729 -4.25723 2.19765 0
M  V30 2689 H 245.093 -2.30599 1.08149 0
M  V30 2690 H 245.876 -2.07285 2.73657 0
M  V30 2691 N 248.321 -0.919034 -1.28029 0
M  V30 2692 C 249.231 -0.416756 -2.30869 0
M  V30 2693 C 250.247 0.498235 -1.66714 0
M  V30 2694 O 251.423 0.383144 -1.97722 0
M  V30 2695 C 248.488 0.330274 -3.45123 0
M  V30 2696 C 247.549 -0.618578 -4.2482 0
M  V30 2697 C 246.782 0.0928959 -5.33619 0
M  V30 2698 O 247.005 1.31375 -5.55065 0
M  V30 2699 O 245.939 -0.574499 -5.99152 0
M  V30 2700 H 249.765 -1.27043 -2.75851 0
M  V30 2701 H 247.35 -0.684052 -1.3282 0
M  V30 2702 H 249.232 0.751972 -4.14636 0
M  V30 2703 H 247.907 1.1597 -3.02213 0
M  V30 2704 H 246.814 -1.08978 -3.57875 0
M  V30 2705 H 248.147 -1.41497 -4.71423 0
M  V30 2706 N 249.799 1.42003 -0.683588 0
M  V30 2707 C 251.027 2.05746 -0.218182 0
M  V30 2708 C 251.442 1.51396 1.12804 0
M  V30 2709 O 250.799 0.657303 1.70252 0
M  V30 2710 C 250.85 3.61171 -0.154131 0
M  V30 2711 O 250.571 4.13508 -1.44716 0
M  V30 2712 C 252.072 4.42042 0.333713 0
M  V30 2713 H 249.292 0.662888 -0.10402 0
M  V30 2714 H 251.836 1.81987 -0.9328 0
M  V30 2715 H 249.991 3.84012 0.511231 0
M  V30 2716 H 250.405 5.07453 -1.32632 0
M  V30 2717 H 251.879 5.51028 0.327423 0
M  V30 2718 H 252.356 4.17269 1.37053 0
M  V30 2719 H 252.962 4.24239 -0.300222 0
M  V30 2720 N 251.277 0.427512 1.51691 0
M  V30 2721 C 252.502 -0.143601 2.06902 0
M  V30 2722 C 252.927 -1.36536 1.29382 0
M  V30 2723 O 252.285 -1.78289 0.329043 0
M  V30 2724 C 252.333 -0.454207 3.57728 0
M  V30 2725 O 251.437 -1.54228 3.82475 0
M  V30 2726 H 250.778 -0.00617128 0.663971 0
M  V30 2727 H 253.308 0.606014 1.95419 0
M  V30 2728 H 253.318 -0.707525 4.01818 0
M  V30 2729 H 251.993 0.438812 4.13579 0
M  V30 2730 H 250.57 -1.2797 3.50254 0
M  V30 2731 N 252.755 -1.56801 0.158532 0
M  V30 2732 C 253.983 -2.00859 -0.496303 0
M  V30 2733 C 254.398 -1.03871 -1.57659 0
M  V30 2734 O 253.755 -0.0375165 -1.82461 0
M  V30 2735 C 253.806 -3.4479 -1.08638 0
M  V30 2736 O 253.527 -4.38072 -0.0492322 0
M  V30 2737 C 255.028 -4.04185 -1.8207 0
M  V30 2738 H 252.248 -0.65864 -0.128199 0
M  V30 2739 H 254.792 -2.02885 0.256506 0
M  V30 2740 H 252.947 -3.43579 -1.78975 0
M  V30 2741 H 253.361 -5.2227 -0.483102 0
M  V30 2742 H 254.835 -5.06857 -2.18633 0
M  V30 2743 H 255.312 -3.45549 -2.71095 0
M  V30 2744 H 255.918 -4.0906 -1.16405 0
M  V30 2745 N 254.233 0.115231 -1.57178 0
M  V30 2746 C 255.48 0.822351 -1.8505 0
M  V30 2747 C 255.808 1.79701 -0.744168 0
M  V30 2748 O 255.063 1.93909 0.26414 0
M  V30 2749 C 255.362 1.60324 -3.19423 0
M  V30 2750 C 255.028 0.772536 -4.44233 0
M  V30 2751 C 253.69 0.543468 -4.78121 0
M  V30 2752 C 256.042 0.193746 -5.2084 0
M  V30 2753 C 253.37 -0.274583 -5.86057 0
M  V30 2754 C 255.722 -0.611517 -6.29637 0
M  V30 2755 C 254.386 -0.850867 -6.62055 0
M  V30 2756 H 253.656 0.30092 -0.677147 0
M  V30 2757 H 256.303 0.0845802 -1.91313 0
M  V30 2758 H 254.608 2.41203 -3.08753 0
M  V30 2759 H 256.305 2.1544 -3.38211 0
M  V30 2760 H 252.895 0.96117 -4.17683 0
M  V30 2761 H 257.079 0.357926 -4.95008 0
M  V30 2762 H 252.335 -0.469206 -6.09597 0
M  V30 2763 H 256.509 -1.06697 -6.88178 0
M  V30 2764 H 254.136 -1.48657 -7.45523 0
M  V30 2765 N 255.711 1.52812 0.385517 0
M  V30 2766 C 256.658 1.77838 1.47113 0
M  V30 2767 C 257.628 0.621757 1.54024 0
M  V30 2768 O 258.813 0.861846 1.70226 0
M  V30 2769 C 255.953 1.95618 2.84302 0
M  V30 2770 C 255.066 3.23316 2.86515 0
M  V30 2771 C 254.201 3.31394 4.15152 0
M  V30 2772 C 253.24 4.53201 4.1143 0
M  V30 2773 N 252.377 4.58542 5.3168 0
M  V30 2774 H 257.217 2.70482 1.25073 0
M  V30 2775 H 254.754 1.34006 0.606692 0
M  V30 2776 H 256.712 2.03912 3.63972 0
M  V30 2777 H 255.342 1.06331 3.04784 0
M  V30 2778 H 254.394 3.24076 1.99195 0
M  V30 2779 H 255.706 4.13045 2.79634 0
M  V30 2780 H 254.86 3.3889 5.03228 0
M  V30 2781 H 253.599 2.39645 4.24761 0
M  V30 2782 H 252.604 4.45827 3.21742 0
M  V30 2783 H 253.829 5.46271 4.03442 0
M  V30 2784 H 251.775 3.69686 5.41912 0
M  V30 2785 H 251.692 5.42148 5.26889 0
M  V30 2786 H 252.96 4.70296 6.21644 0
M  V30 2787 N 257.189 -0.644168 1.43834 0
M  V30 2788 C 258.119 -1.76814 1.52509 0
M  V30 2789 C 259.1 -1.65823 0.379052 0
M  V30 2790 O 260.285 -1.84781 0.597466 0
M  V30 2791 C 257.415 -3.15288 1.4564 0
M  V30 2792 C 256.369 -3.41053 2.58586 0
M  V30 2793 C 255.695 -4.79421 2.36769 0
M  V30 2794 C 256.995 -3.34902 4.00797 0
M  V30 2795 H 258.689 -1.69812 2.46586 0
M  V30 2796 H 256.235 -0.815542 1.1868 0
M  V30 2797 H 258.188 -3.93681 1.50311 0
M  V30 2798 H 256.912 -3.23043 0.480725 0
M  V30 2799 H 255.571 -2.65035 2.53282 0
M  V30 2800 H 255.219 -4.83863 1.37424 0
M  V30 2801 H 254.919 -4.9762 3.12487 0
M  V30 2802 H 256.443 -5.6006 2.43238 0
M  V30 2803 H 257.857 -4.03218 4.07539 0
M  V30 2804 H 256.254 -3.64637 4.76613 0
M  V30 2805 H 257.324 -2.32928 4.25291 0
M  V30 2806 N 258.668 -1.30515 -0.883378 0
M  V30 2807 C 259.896 -1.22359 -1.66841 0
M  V30 2808 C 260.311 0.213296 -1.87591 0
M  V30 2809 O 259.668 1.14075 -1.42454 0
M  V30 2810 C 259.719 -1.95011 -3.04389 0
M  V30 2811 O 259.44 -3.3309 -2.84575 0
M  V30 2812 C 260.941 -1.93532 -3.98824 0
M  V30 2813 H 258.161 -0.423371 -0.520575 0
M  V30 2814 H 260.705 -1.72167 -1.10357 0
M  V30 2815 H 258.86 -1.48997 -3.57601 0
M  V30 2816 H 259.274 -3.69907 -3.71846 0
M  V30 2817 H 260.748 -2.48902 -4.92699 0
M  V30 2818 H 261.225 -0.914627 -4.29571 0
M  V30 2819 H 261.831 -2.39364 -3.51547 0
M  V30 2820 N 260.146 1.09593 -1.13257 0
M  V30 2821 C 261.094 2.18271 -0.803783 0
M  V30 2822 C 262.088 1.68054 0.213148 0
M  V30 2823 O 263.294 1.79862 0.0704699 0
M  V30 2824 H 259.669 0.711949 -0.242143 0
M  V30 2825 H 261.64 2.43235 -1.72856 0
M  V30 2826 C 260.389 3.46536 -0.28424 0
M  V30 2827 H 259.712 3.85545 -1.05807 0
M  V30 2828 H 261.152 4.23899 -0.0925945 0
M  V30 2829 C 259.611 3.22036 0.989684 0
M  V30 2830 O 260.141 3.44509 2.06584 0
M  V30 2831 N 258.347 2.7565 0.920086 0
M  V30 2832 H 257.894 2.57562 0.0442019 0
M  V30 2833 H 257.852 2.59635 1.77306 0
M  V30 2834 N 261.624 0.925811 1.2754 0
M  V30 2835 C 262.572 0.413897 2.28888 0
M  V30 2836 C 263.566 -0.500779 1.61829 0
M  V30 2837 O 264.772 -0.38069 1.75928 0
M  V30 2838 H 261.147 0.115274 0.743112 0
M  V30 2839 H 263.118 1.28151 2.69481 0
M  V30 2840 C 261.867 -0.319792 3.46226 0
M  V30 2841 H 261.19 0.374846 3.98039 0
M  V30 2842 H 262.63 -0.642435 4.19105 0
M  V30 2843 C 261.089 -1.53209 3.00048 0
M  V30 2844 O 261.619 -2.6309 3.03557 0
M  V30 2845 N 259.825 -1.38326 2.55566 0
M  V30 2846 H 259.372 -0.489292 2.5291 0
M  V30 2847 H 259.33 -2.19564 2.25031 0
M  V30 2848 N 263.102 -1.41638 0.69111 0
M  V30 2849 C 264.33 -2.05628 0.22909 0
M  V30 2850 C 264.745 -1.51992 -1.11999 0
M  V30 2851 O 264.102 -0.666322 -1.69901 0
M  V30 2852 C 264.153 -3.61084 0.173283 0
M  V30 2853 O 263.874 -4.12735 1.46907 0
M  V30 2854 C 265.375 -4.42213 -0.310266 0
M  V30 2855 H 262.595 -0.662327 0.107534 0
M  V30 2856 H 265.139 -1.81489 0.942438 0
M  V30 2857 H 263.294 -3.84278 -0.490858 0
M  V30 2858 H 263.708 -5.06743 1.35322 0
M  V30 2859 H 265.182 -5.51194 -0.298196 0
M  V30 2860 H 265.659 -4.1799 -1.34838 0
M  V30 2861 H 266.265 -4.24074 0.322716 0
M  V30 2862 N 264.58 -0.43555 -1.51462 0
M  V30 2863 C 265.827 0.131514 -2.02072 0
M  V30 2864 C 266.155 1.42868 -1.31981 0
M  V30 2865 O 265.41 1.91076 -0.422883 0
M  V30 2866 C 265.709 0.39942 -3.55161 0
M  V30 2867 C 265.375 -0.81172 -4.43533 0
M  V30 2868 C 264.037 -1.14387 -4.67407 0
M  V30 2869 C 266.389 -1.61976 -4.95392 0
M  V30 2870 C 263.717 -2.28477 -5.40384 0
M  V30 2871 C 266.069 -2.75164 -5.6962 0
M  V30 2872 C 264.733 -3.08835 -5.91758 0
M  V30 2873 H 264.003 0.0481244 -0.739436 0
M  V30 2874 H 266.65 -0.58238 -1.8243 0
M  V30 2875 H 264.955 1.19519 -3.73125 0
M  V30 2876 H 266.652 0.85157 -3.91854 0
M  V30 2877 H 263.242 -0.542898 -4.25148 0
M  V30 2878 H 267.426 -1.37637 -4.76833 0
M  V30 2879 H 262.682 -2.5488 -5.55739 0
M  V30 2880 H 266.856 -3.38147 -6.08793 0
M  V30 2881 H 264.483 -3.97353 -6.48086 0
M  V30 2882 N 266.058 1.56714 -0.166846 0
M  V30 2883 C 267.021 2.16539 0.751232 0
M  V30 2884 C 268.021 1.11228 1.16125 0
M  V30 2885 O 269.211 1.36765 1.07894 0
M  V30 2886 C 266.343 2.74462 2.02196 0
M  V30 2887 H 267.536 2.99013 0.230499 0
M  V30 2888 H 265.089 1.56081 0.0826982 0
M  V30 2889 H 265.824 1.95709 2.58589 0
M  V30 2890 H 265.609 3.51527 1.73698 0
M  V30 2891 H 267.099 3.20489 2.67725 0
M  V30 2892 N 267.536 -0.106894 1.57237 0
M  V30 2893 C 268.499 -1.11466 2.0027 0
M  V30 2894 C 269.499 -1.33623 0.894519 0
M  V30 2895 O 270.689 -1.29935 1.16028 0
M  V30 2896 C 267.821 -2.46646 2.35327 0
M  V30 2897 H 269.014 -0.744516 2.90512 0
M  V30 2898 H 266.567 -0.351576 1.52295 0
M  V30 2899 H 267.302 -2.88558 1.48003 0
M  V30 2900 H 267.087 -2.31915 3.16161 0
M  V30 2901 H 268.577 -3.19151 2.69318 0
M  V30 2902 N 269.014 -1.53014 -0.377408 0
M  V30 2903 C 269.946 -1.74884 -1.48149 0
M  V30 2904 C 270.959 -0.629433 -1.5014 0
M  V30 2905 O 272.148 -0.905416 -1.53833 0
M  V30 2906 C 269.248 -1.80299 -2.86959 0
M  V30 2907 C 268.421 -3.09776 -3.08801 0
M  V30 2908 C 267.48 -3.06586 -4.27658 0
M  V30 2909 O 266.506 -3.80419 -4.23403 0
M  V30 2910 N 267.708 -2.26578 -5.34455 0
M  V30 2911 H 270.473 -2.70147 -1.29771 0
M  V30 2912 H 268.034 -1.51646 -0.56703 0
M  V30 2913 H 270.026 -1.75657 -3.64591 0
M  V30 2914 H 268.596 -0.92372 -2.98641 0
M  V30 2915 H 267.816 -3.27815 -2.18931 0
M  V30 2916 H 269.104 -3.95366 -3.20255 0
M  V30 2917 H 268.502 -1.66081 -5.40771 0
M  V30 2918 H 267.059 -2.27766 -6.10709 0
M  V30 2919 N 270.492 0.636531 -1.44174 0
M  V30 2920 C 271.402 1.77754 -1.53103 0
M  V30 2921 C 272.418 1.68928 -0.417034 0
M  V30 2922 O 273.594 1.89801 -0.6736 0
M  V30 2923 C 270.659 3.14115 -1.46741 0
M  V30 2924 C 269.72 3.34612 -2.68948 0
M  V30 2925 C 268.953 4.64467 -2.6288 0
M  V30 2926 O 269.176 5.44919 -1.68581 0
M  V30 2927 O 268.11 4.87049 -3.53648 0
M  V30 2928 H 271.936 1.73174 -2.49489 0
M  V30 2929 H 269.521 0.79709 -1.2636 0
M  V30 2930 H 271.403 3.95412 -1.45696 0
M  V30 2931 H 270.078 3.19249 -0.534975 0
M  V30 2932 H 268.985 2.53014 -2.75562 0
M  V30 2933 H 270.318 3.34336 -3.61221 0
M  V30 2934 N 271.97 1.30982 0.876444 0
M  V30 2935 C 273.218 1.20058 1.62575 0
M  V30 2936 C 273.539 -0.242947 1.93481 0
M  V30 2937 O 272.809 -1.1619 1.57724 0
M  V30 2938 H 271.389 0.44135 0.602677 0
M  V30 2939 H 274.051 1.64222 1.04962 0
M  V30 2940 H 273.147 1.76762 2.57219 0
M  V30 2941 N 273.449 -1.08991 1.13837 0
M  V30 2942 C 274.696 -1.81258 0.902882 0
M  V30 2943 C 275.024 -1.85936 -0.570803 0
M  V30 2944 O 274.279 -1.3267 -1.43865 0
M  V30 2945 C 274.578 -3.27042 1.44147 0
M  V30 2946 C 274.244 -3.4249 2.93276 0
M  V30 2947 C 272.906 -3.46414 3.33992 0
M  V30 2948 C 275.258 -3.4666 3.892 0
M  V30 2949 C 272.586 -3.52091 4.69307 0
M  V30 2950 C 274.938 -3.53872 5.24364 0
M  V30 2951 C 273.602 -3.56066 5.646 0
M  V30 2952 H 272.872 -0.663268 0.330388 0
M  V30 2953 H 275.519 -1.28368 1.42105 0
M  V30 2954 H 273.824 -3.82599 0.844097 0
M  V30 2955 H 275.521 -3.81499 1.23528 0
M  V30 2956 H 272.111 -3.40124 2.60794 0
M  V30 2957 H 276.295 -3.42865 3.58828 0
M  V30 2958 H 271.551 -3.52079 4.9985 0
M  V30 2959 H 275.725 -3.56043 5.98503 0
M  V30 2960 H 273.352 -3.60218 6.69438 0
M  V30 2961 N 274.927 -0.932562 -1.27047 0
M  V30 2962 C 276.175 -0.574422 -1.93765 0
M  V30 2963 C 276.496 0.887993 -1.73608 0
M  V30 2964 O 275.766 1.62999 -1.08665 0
M  V30 2965 H 274.346 -0.209451 -0.717035 0
M  V30 2966 H 277.008 -1.18601 -1.5466 0
M  V30 2967 H 276.104 -0.784841 -3.02071 0
M  V30 2968 N 276.405 1.4127 -0.698611 0
M  V30 2969 C 277.368 2.29158 -0.044132 0
M  V30 2970 C 278.368 1.44529 0.704841 0
M  V30 2971 O 279.558 1.65643 0.539276 0
M  V30 2972 C 276.69 3.27459 0.947809 0
M  V30 2973 H 277.883 2.88529 -0.817994 0
M  V30 2974 H 275.436 1.49307 -0.46228 0
M  V30 2975 H 276.171 2.73073 1.74933 0
M  V30 2976 H 275.956 3.8991 0.41385 0
M  V30 2977 H 277.446 3.93311 1.40344 0
M  V30 2978 N 277.883 0.443576 1.51229 0
M  V30 2979 C 278.813 -0.355142 2.30783 0
M  V30 2980 C 279.794 -1.0154 1.36468 0
M  V30 2981 O 280.979 -1.01785 1.65389 0
M  V30 2982 C 278.109 -1.45312 3.15439 0
M  V30 2983 C 277.063 -0.916002 4.18083 0
M  V30 2984 C 276.389 -2.1102 4.91299 0
M  V30 2985 C 277.689 0.0538602 5.22272 0
M  V30 2986 H 279.383 0.308767 2.97804 0
M  V30 2987 H 276.929 0.149937 1.43217 0
M  V30 2988 H 278.882 -2.01914 3.69876 0
M  V30 2989 H 277.606 -2.14541 2.46252 0
M  V30 2990 H 276.265 -0.372145 3.64706 0
M  V30 2991 H 275.913 -2.78882 4.18609 0
M  V30 2992 H 275.613 -1.75717 5.60712 0
M  V30 2993 H 277.137 -2.68164 5.48562 0
M  V30 2994 H 278.551 -0.422069 5.71744 0
M  V30 2995 H 276.948 0.319776 5.99247 0
M  V30 2996 H 278.018 0.98858 4.74716 0
M  V30 2997 N 279.361 -1.56624 0.175154 0
M  V30 2998 C 280.586 -2.01813 -0.478137 0
M  V30 2999 C 281.011 -1.05457 -1.55757 0
M  V30 3000 O 280.369 -0.0347439 -1.81267 0
M  V30 3001 C 280.417 -3.45581 -1.02987 0
M  V30 3002 O 279.521 -3.52305 -2.14371 0
M  V30 3003 H 278.862 -0.65413 -0.114059 0
M  V30 3004 H 281.392 -2.02673 0.280173 0
M  V30 3005 H 281.402 -3.84965 -1.35151 0
M  V30 3006 H 280.077 -4.1521 -0.239556 0
M  V30 3007 H 278.654 -3.24783 -1.83222 0
M  V30 3008 N 280.839 0.0985539 -1.57292 0
M  V30 3009 C 282.088 0.801358 -1.85098 0
M  V30 3010 C 282.401 1.80066 -0.763902 0
M  V30 3011 O 283.607 2.55112 -0.928981 0
M  V30 3012 C 282.063 1.47599 -3.28242 0
M  V30 3013 C 281.671 0.516624 -4.45011 0
M  V30 3014 C 283.415 2.16272 -3.65276 0
M  V30 3015 C 281.322 1.19564 -5.79188 0
M  V30 3016 H 280.252 0.303022 -0.69043 0
M  V30 3017 H 282.903 0.0542623 -1.8342 0
M  V30 3018 H 281.285 2.27042 -3.2445 0
M  V30 3019 H 282.459 -0.246065 -4.60143 0
M  V30 3020 H 280.774 -0.064227 -4.1635 0
M  V30 3021 H 283.371 2.67802 -4.62803 0
M  V30 3022 H 283.714 2.95009 -2.93727 0
M  V30 3023 H 284.247 1.43693 -3.70941 0
M  V30 3024 H 280.986 0.449157 -6.53959 0
M  V30 3025 H 280.506 1.92984 -5.67906 0
M  V30 3026 H 282.185 1.7231 -6.23633 0
M  V30 3027 N 282.317 1.53212 0.369288 0
M  V30 3028 C 283.566 1.68436 1.10961 0
M  V30 3029 C 283.879 0.440738 1.9057 0
M  V30 3030 O 285.085 0.473446 2.6734 0
M  V30 3031 C 283.541 2.97744 2.0218 0
M  V30 3032 C 283.149 4.29355 1.279 0
M  V30 3033 C 284.893 3.22334 2.76226 0
M  V30 3034 C 282.8 5.49755 2.17999 0
M  V30 3035 H 281.73 0.627568 0.41794 0
M  V30 3036 H 284.381 1.79713 0.370884 0
M  V30 3037 H 282.763 2.8026 2.79768 0
M  V30 3038 H 283.937 4.57458 0.554007 0
M  V30 3039 H 282.252 4.11179 0.657311 0
M  V30 3040 H 284.849 4.09471 3.43857 0
M  V30 3041 H 285.192 2.38238 3.41392 0
M  V30 3042 H 285.725 3.40475 2.05723 0
M  V30 3043 H 282.464 6.36318 1.57417 0
M  V30 3044 H 281.984 5.25937 2.88359 0
M  V30 3045 H 283.663 5.84401 2.77641 0
M  V30 3046 N 283.795 -0.628877 1.44509 0
M  V30 3047 C 285.02 -1.42048 1.5112 0
M  V30 3048 C 285.445 -1.87594 0.137818 0
M  V30 3049 O 284.803 -1.58873 -0.873437 0
M  V30 3050 C 284.851 -2.61541 2.48251 0
M  V30 3051 O 283.955 -3.61453 1.98559 0
M  V30 3052 H 283.296 -0.424942 0.510216 0
M  V30 3053 H 285.826 -0.767374 1.89664 0
M  V30 3054 H 285.836 -3.09057 2.66361 0
M  V30 3055 H 284.511 -2.27736 3.48007 0
M  V30 3056 H 283.088 -3.20731 1.90227 0
M  V30 3057 N 285.273 -1.31445 -0.869486 0
M  V30 3058 C 286.522 -1.20517 -1.61736 0
M  V30 3059 C 286.835 0.235341 -1.94179 0
M  V30 3060 O 288.041 0.466312 -2.67465 0
M  V30 3061 C 286.497 -2.10982 -2.91573 0
M  V30 3062 C 286.105 -3.60032 -2.66611 0
M  V30 3063 C 287.849 -2.08856 -3.69567 0
M  V30 3064 C 285.756 -4.42503 -3.92358 0
M  V30 3065 H 284.686 -0.447493 -0.606849 0
M  V30 3066 H 287.337 -1.56303 -0.96133 0
M  V30 3067 H 285.719 -1.68095 -3.58553 0
M  V30 3068 H 286.893 -4.11167 -2.08035 0
M  V30 3069 H 285.208 -3.64139 -2.0197 0
M  V30 3070 H 287.805 -2.67716 -4.62852 0
M  V30 3071 H 288.148 -1.07582 -4.02159 0
M  V30 3072 H 288.681 -2.49945 -3.09471 0
M  V30 3073 H 285.42 -5.44533 -3.64916 0
M  V30 3074 H 284.94 -3.96125 -4.50383 0
M  V30 3075 H 286.619 -4.54741 -4.60238 0
M  V30 3076 N 286.751 1.08385 -1.14413 0
M  V30 3077 C 287.976 1.85057 -0.936413 0
M  V30 3078 C 288.401 1.81055 0.509971 0
M  V30 3079 O 287.759 1.1958 1.36273 0
M  V30 3080 C 287.807 3.30505 -1.44217 0
M  V30 3081 O 286.911 4.07491 -0.634409 0
M  V30 3082 H 286.252 0.573425 -0.334784 0
M  V30 3083 H 288.782 1.36799 -1.52142 0
M  V30 3084 H 288.792 3.81348 -1.45043 0
M  V30 3085 H 287.467 3.32734 -2.49522 0
M  V30 3086 H 286.044 3.66368 -0.694902 0
M  V30 3087 N 288.23 0.939286 1.26551 0
M  V30 3088 C 289.641 0.628782 1.75793 0
M  V30 3089 C 289.992 -0.856046 1.7654 0
M  V30 3090 O 289.117 -1.66994 1.3763 0
M  V30 3091 C 289.712 1.13465 3.19235 0
M  V30 3092 C 288.271 0.874601 3.66098 0
M  V30 3093 C 287.418 1.28667 2.45642 0
M  V30 3094 H 290.369 1.1178 1.12654 0
M  V30 3095 H 290.39 0.487609 3.77363 0
M  V30 3096 H 289.902 2.21535 3.1866 0
M  V30 3097 H 288.003 -0.191793 3.72106 0
M  V30 3098 H 288.116 1.50028 4.55004 0
M  V30 3099 H 286.48 0.705109 2.44745 0
M  V30 3100 H 287.263 2.37625 2.47769 0
M  V30 3101 N 289.708 -1.40897 0.706093 0
M  V30 3102 C 291.124 -1.55042 0.37869 0
M  V30 3103 C 291.324 -1.67944 -1.11342 0
M  V30 3104 O 290.38 -1.66372 -1.89938 0
M  V30 3105 C 291.693 -2.78398 1.13643 0
M  V30 3106 C 293.241 -2.92206 1.12181 0
M  V30 3107 C 293.716 -4.18463 1.86152 0
M  V30 3108 N 295.207 -4.25443 1.83173 0
M  V30 3109 C 295.942 -5.2202 2.37239 0
M  V30 3110 N 295.438 -6.24563 2.99821 0
M  V30 3111 N 297.231 -5.14033 2.27435 0
M  V30 3112 H 289.382 -1.30769 1.67372 0
M  V30 3113 H 291.645 -0.631653 0.706907 0
M  V30 3114 H 291.351 -2.7511 2.19106 0
M  V30 3115 H 291.225 -3.70228 0.721853 0
M  V30 3116 H 293.612 -2.95004 0.0754171 0
M  V30 3117 H 293.693 -2.01521 1.57554 0
M  V30 3118 H 293.337 -4.16427 2.90776 0
M  V30 3119 H 293.267 -5.08141 1.38206 0
M  V30 3120 H 295.758 -3.51976 1.37556 0
M  V30 3121 H 296.071 -6.94665 3.38616 0
M  V30 3122 H 294.416 -6.25035 3.03902 0
M  V30 3123 H 297.607 -4.3285 1.78208 0
M  V30 3124 H 297.78 -5.89129 2.69873 0
M  V30 3125 N 291.186 -0.45159 -1.50991 0
M  V30 3126 C 292.433 0.110074 -2.02201 0
M  V30 3127 C 292.761 1.4146 -1.33489 0
M  V30 3128 O 292.016 1.90617 -0.443125 0
M  V30 3129 C 292.315 0.361728 -3.55565 0
M  V30 3130 C 291.981 -0.858717 -4.42648 0
M  V30 3131 C 290.643 -1.19338 -4.66167 0
M  V30 3132 C 292.995 -1.67221 -4.93646 0
M  V30 3133 C 290.323 -2.34195 -5.37931 0
M  V30 3134 C 292.675 -2.8119 -5.6667 0
M  V30 3135 C 291.339 -3.15094 -5.88449 0
M  V30 3136 H 290.609 0.040279 -0.739904 0
M  V30 3137 H 293.256 -0.601696 -1.81802 0
M  V30 3138 H 291.561 1.15554 -3.74372 0
M  V30 3139 H 293.258 0.80996 -3.92735 0
M  V30 3140 H 289.848 -0.58796 -4.24548 0
M  V30 3141 H 294.032 -1.42686 -4.75347 0
M  V30 3142 H 289.288 -2.6076 -5.53005 0
M  V30 3143 H 293.462 -3.44585 -6.05173 0
M  V30 3144 H 291.089 -4.04204 -6.43835 0
M  V30 3145 N 292.664 1.56529 -0.183458 0
M  V30 3146 C 293.597 2.14417 0.781052 0
M  V30 3147 C 294.575 1.07761 1.21763 0
M  V30 3148 O 295.759 1.35807 1.30724 0
M  V30 3149 C 292.886 2.69361 2.05335 0
M  V30 3150 C 291.932 3.885 1.75982 0
M  V30 3151 S 292.765 5.27568 0.918256 0
M  V30 3152 C 293.921 5.85926 2.20095 0
M  V30 3153 H 294.154 2.95893 0.2889 0
M  V30 3154 H 291.687 1.54368 0.0313844 0
M  V30 3155 H 293.645 3.01662 2.78406 0
M  V30 3156 H 292.306 1.87949 2.51663 0
M  V30 3157 H 291.499 4.25314 2.70415 0
M  V30 3158 H 291.101 3.57149 1.10999 0
M  V30 3159 H 293.393 5.99579 3.15453 0
M  V30 3160 H 294.336 6.82761 1.87731 0
M  V30 3161 H 294.744 5.14438 2.32409 0
M  V30 3162 N 294.142 -0.090211 1.57342 0
M  V30 3163 C 295.072 -1.10976 2.05443 0
M  V30 3164 C 296.053 -1.41482 0.944284 0
M  V30 3165 O 297.238 -1.51428 1.21586 0
M  V30 3166 C 294.368 -2.42831 2.48295 0
M  V30 3167 C 293.322 -2.26721 3.63018 0
M  V30 3168 C 292.648 -3.63796 3.91863 0
M  V30 3169 C 293.948 -1.7037 4.93732 0
M  V30 3170 H 295.642 -0.709564 2.9087 0
M  V30 3171 H 293.188 -0.339874 1.39932 0
M  V30 3172 H 295.141 -3.14431 2.80555 0
M  V30 3173 H 293.865 -2.84795 1.59873 0
M  V30 3174 H 292.524 -1.57565 3.31012 0
M  V30 3175 H 292.172 -4.03297 3.00601 0
M  V30 3176 H 291.872 -3.53861 4.69101 0
M  V30 3177 H 293.396 -4.36855 4.26603 0
M  V30 3178 H 294.81 -2.31816 5.24342 0
M  V30 3179 H 293.207 -1.71181 5.75167 0
M  V30 3180 H 294.277 -0.663542 4.80339 0
M  V30 3181 N 295.62 -1.53406 -0.361157 0
M  V30 3182 C 296.848 -1.73717 -1.12383 0
M  V30 3183 C 297.263 -0.468161 -1.82904 0
M  V30 3184 O 296.62 0.559198 -1.73722 0
M  V30 3185 C 296.671 -2.90558 -2.15078 0
M  V30 3186 O 296.392 -4.12549 -1.47428 0
M  V30 3187 C 297.893 -3.22777 -3.03858 0
M  V30 3188 H 295.113 -0.580896 -0.335858 0
M  V30 3189 H 297.657 -2.00167 -0.418728 0
M  V30 3190 H 295.812 -2.66489 -2.8118 0
M  V30 3191 H 296.226 -4.78009 -2.15887 0
M  V30 3192 H 297.7 -4.07927 -3.71887 0
M  V30 3193 H 298.177 -2.38329 -3.68912 0
M  V30 3194 H 298.783 -3.48787 -2.43367 0
M  V30 3195 N 297.098 0.621204 -1.44841 0
M  V30 3196 C 298.328 1.40548 -1.51426 0
M  V30 3197 C 298.736 1.88673 -0.141083 0
M  V30 3198 O 298.079 1.62053 0.865128 0
M  V30 3199 C 298.141 2.65325 -2.42576 0
M  V30 3200 C 297.805 2.3893 -3.89566 0
M  V30 3201 C 298.802 2.00138 -4.79834 0
M  V30 3202 C 296.487 2.52263 -4.3436 0
M  V30 3203 C 298.481 1.75021 -6.129 0
M  V30 3204 C 296.168 2.2676 -5.67471 0
M  V30 3205 C 297.166 1.88199 -6.56559 0
M  V30 3206 O 296.854 1.62986 -7.87204 0
M  V30 3207 H 296.586 0.437122 -0.515655 0
M  V30 3208 H 299.14 0.765987 -1.90583 0
M  V30 3209 H 297.37 3.31947 -1.98364 0
M  V30 3210 H 299.059 3.27347 -2.39998 0
M  V30 3211 H 299.825 1.89386 -4.46495 0
M  V30 3212 H 295.704 2.81246 -3.65269 0
M  V30 3213 H 299.248 1.44848 -6.82396 0
M  V30 3214 H 295.145 2.37125 -6.00368 0
M  V30 3215 H 295.913 1.7715 -7.991 0
M  V30 3216 N 298.576 1.31904 0.862503 0
M  V30 3217 C 299.801 1.25135 1.65397 0
M  V30 3218 C 300.226 -0.179 1.87246 0
M  V30 3219 O 299.584 -1.1277 1.4196 0
M  V30 3220 C 299.632 2.00832 2.99498 0
M  V30 3221 O 298.736 1.35075 3.89652 0
M  V30 3222 H 298.077 0.431655 0.504549 0
M  V30 3223 H 300.607 1.74094 1.07483 0
M  V30 3224 H 300.617 2.10709 3.49379 0
M  V30 3225 H 299.292 3.04847 2.82916 0
M  V30 3226 H 297.869 1.33696 3.48109 0
M  V30 3227 N 300.054 -1.07777 1.14986 0
M  V30 3228 C 301.002 -2.16964 0.838406 0
M  V30 3229 C 301.996 -1.68372 -0.186386 0
M  V30 3230 O 303.202 -1.79951 -0.0418465 0
M  V30 3231 H 299.577 -0.708006 0.253439 0
M  V30 3232 H 301.548 -2.40454 1.76704 0
M  V30 3233 C 300.297 -3.4604 0.339335 0
M  V30 3234 H 299.62 -3.83813 1.11927 0
M  V30 3235 H 301.06 -4.23698 0.160021 0
M  V30 3236 C 299.519 -3.23569 -0.938325 0
M  V30 3237 O 300.049 -3.47752 -2.01077 0
M  V30 3238 N 298.255 -2.77079 -0.876117 0
M  V30 3239 H 297.802 -2.576 -0.00322037 0
M  V30 3240 H 297.76 -2.62422 -1.73153 0
M  V30 3241 N 301.532 -0.945985 -1.26051 0
M  V30 3242 C 302.495 -0.463897 -2.24456 0
M  V30 3243 C 303.495 0.427655 -1.55009 0
M  V30 3244 O 304.685 0.226157 -1.72726 0
M  V30 3245 C 301.817 0.330812 -3.39291 0
M  V30 3246 H 303.01 -1.33357 -2.68619 0
M  V30 3247 H 300.563 -0.728416 -1.38289 0
M  V30 3248 H 301.298 1.21852 -3.00537 0
M  V30 3249 H 301.083 -0.308679 -3.90883 0
M  V30 3250 H 302.573 0.657865 -4.12386 0
M  V30 3251 N 303.011 1.40521 -0.713556 0
M  V30 3252 C 304.239 2.05237 -0.261775 0
M  V30 3253 C 304.654 1.53755 1.09567 0
M  V30 3254 O 304.011 0.693268 1.6882 0
M  V30 3255 C 304.062 3.60763 -0.230706 0
M  V30 3256 O 303.783 4.10345 -1.53455 0
M  V30 3257 C 305.284 4.42651 0.239874 0
M  V30 3258 H 302.504 0.660533 -0.118057 0
M  V30 3259 H 305.048 1.79967 -0.971192 0
M  V30 3260 H 303.203 3.8501 0.429661 0
M  V30 3261 H 303.617 5.04526 -1.43366 0
M  V30 3262 H 305.091 5.51599 0.210468 0
M  V30 3263 H 305.568 4.20082 1.28171 0
M  V30 3264 H 306.174 4.23507 -0.390142 0
M  V30 3265 N 304.489 0.459591 1.5075 0
M  V30 3266 C 305.437 -0.354678 2.2988 0
M  V30 3267 C 306.431 -1.00086 1.36672 0
M  V30 3268 O 307.637 -0.933277 1.53915 0
M  V30 3269 H 304.012 -0.13321 0.740107 0
M  V30 3270 H 305.983 0.333269 2.96533 0
M  V30 3271 C 304.732 -1.43073 3.169 0
M  V30 3272 H 304.055 -0.942882 3.88523 0
M  V30 3273 H 305.495 -1.97328 3.75284 0
M  V30 3274 C 303.954 -2.42633 2.33732 0
M  V30 3275 O 304.484 -3.47658 2.01238 0
M  V30 3276 N 302.69 -2.14066 1.9653 0
M  V30 3277 H 302.237 -1.28685 2.23155 0
M  V30 3278 H 302.195 -2.80917 1.41185 0
M  V30 3279 N 305.967 -1.56429 0.191757 0
M  V30 3280 C 307.244 -1.89224 -0.495332 0
M  V30 3281 C 307.624 -1.10478 -1.79883 0
M  V30 3282 O 306.972 -0.204852 -2.2758 0
M  V30 3283 C 307.182 -3.41548 -0.717367 0
M  V30 3284 C 308.53 -4.11711 -1.03823 0
M  V30 3285 O 309.554 -3.4698 -0.805204 0
M  V30 3286 O 308.413 -5.2611 -1.47887 0
M  V30 3287 H 305.507 -0.785788 -0.25781 0
M  V30 3288 H 308.053 -1.68111 0.231721 0
M  V30 3289 H 306.825 -3.90772 0.203287 0
M  V30 3290 H 306.448 -3.68342 -1.497 0
M  V30 3291 N 307.445 0.0818655 -1.57387 0
M  V30 3292 C 308.691 0.784074 -1.8703 0
M  V30 3293 C 309.024 1.77729 -0.782689 0
M  V30 3294 O 308.299 1.93384 0.208051 0
M  V30 3295 C 308.582 1.50105 -3.27323 0
M  V30 3296 C 308.435 0.524925 -4.46727 0
M  V30 3297 C 309.754 2.44843 -3.65705 0
M  V30 3298 H 306.873 0.283582 -0.680257 0
M  V30 3299 H 309.515 0.0474352 -1.89941 0
M  V30 3300 H 307.665 2.12897 -3.24972 0
M  V30 3301 H 309.337 -0.0970111 -4.61198 0
M  V30 3302 H 307.58 -0.160606 -4.33503 0
M  V30 3303 H 308.251 1.064 -5.41648 0
M  V30 3304 H 310.727 1.92135 -3.69085 0
M  V30 3305 H 309.603 2.92018 -4.64776 0
M  V30 3306 H 309.864 3.29197 -2.95096 0
M  V30 3307 N 308.923 1.53595 0.353017 0
M  V30 3308 C 310.171 1.70049 1.09215 0
M  V30 3309 C 310.492 0.461406 1.89463 0
M  V30 3310 O 309.762 -0.524633 1.88744 0
M  V30 3311 H 308.342 0.626912 0.40619 0
M  V30 3312 H 311.004 1.90822 0.396585 0
M  V30 3313 H 310.1 2.56718 1.77488 0
M  V30 3314 N 310.401 -0.613514 1.45168 0
M  V30 3315 C 311.311 -1.75296 1.55912 0
M  V30 3316 C 312.327 -1.68244 0.443856 0
M  V30 3317 O 313.503 -1.88706 0.70371 0
M  V30 3318 C 310.568 -3.1174 1.5172 0
M  V30 3319 C 309.629 -3.30291 2.74238 0
M  V30 3320 C 308.862 -4.60226 2.70236 0
M  V30 3321 O 309.085 -5.42168 1.77229 0
M  V30 3322 O 308.019 -4.81361 3.61352 0
M  V30 3323 H 311.845 -1.69183 2.52212 0
M  V30 3324 H 309.43 -0.776886 1.27612 0
M  V30 3325 H 311.312 -3.93044 1.51968 0
M  V30 3326 H 309.987 -3.18357 0.585697 0
M  V30 3327 H 308.894 -2.48598 2.79553 0
M  V30 3328 H 310.227 -3.28547 3.66494 0
M  V30 3329 N 311.879 -1.3236 -0.855495 0
M  V30 3330 C 313.127 -1.22629 -1.60644 0
M  V30 3331 C 313.448 0.212136 -1.93843 0
M  V30 3332 O 312.718 1.13666 -1.59552 0
M  V30 3333 H 311.298 -0.450882 -0.595579 0
M  V30 3334 H 313.96 -1.65871 -1.02337 0
M  V30 3335 H 313.056 -1.80832 -2.54374 0
M  V30 3336 N 313.357 1.07166 -1.15556 0
M  V30 3337 C 314.773 1.31899 -0.898603 0
M  V30 3338 C 314.973 1.96333 0.453383 0
M  V30 3339 O 314.029 2.22438 1.19489 0
M  V30 3340 C 315.342 2.20826 -2.04099 0
M  V30 3341 C 316.89 2.34269 -2.07574 0
M  V30 3342 C 317.365 3.26546 -3.21141 0
M  V30 3343 N 318.856 3.34127 -3.20801 0
M  V30 3344 C 319.591 4.05595 -4.05315 0
M  V30 3345 N 319.087 4.79661 -4.99897 0
M  V30 3346 N 320.88 4.01555 -3.93332 0
M  V30 3347 H 313.031 0.637302 -2.02613 0
M  V30 3348 H 315.294 0.343468 -0.883591 0
M  V30 3349 H 315 1.80744 -3.01703 0
M  V30 3350 H 314.874 3.21364 -1.97496 0
M  V30 3351 H 317.261 2.73603 -1.10568 0
M  V30 3352 H 317.342 1.33429 -2.18244 0
M  V30 3353 H 316.986 2.87931 -4.184 0
M  V30 3354 H 316.916 4.27345 -3.07708 0
M  V30 3355 H 319.407 2.81336 -2.52306 0
M  V30 3356 H 319.72 5.31694 -5.60822 0
M  V30 3357 H 318.065 4.78671 -5.03884 0
M  V30 3358 H 321.256 3.42806 -3.18751 0
M  V30 3359 H 321.429 4.56987 -4.5942 0
M  V30 3360 N 314.835 0.952656 1.25548 0
M  V30 3361 C 316.082 0.606373 1.93208 0
M  V30 3362 C 316.41 -0.85631 1.74636 0
M  V30 3363 O 315.665 -1.62951 1.08376 0
M  V30 3364 C 315.964 0.908818 3.45652 0
M  V30 3365 C 315.63 2.35722 3.84378 0
M  V30 3366 C 314.292 2.75312 3.9466 0
M  V30 3367 C 316.644 3.29793 4.03591 0
M  V30 3368 C 313.972 4.08047 4.21562 0
M  V30 3369 C 316.324 4.62138 4.31985 0
M  V30 3370 C 314.988 5.01528 4.40484 0
M  V30 3371 H 314.258 0.221888 0.706998 0
M  V30 3372 H 316.905 1.20132 1.49133 0
M  V30 3373 H 315.21 0.231456 3.91116 0
M  V30 3374 H 316.907 0.619498 3.96186 0
M  V30 3375 H 313.497 2.04017 3.76928 0
M  V30 3376 H 317.681 3.00397 3.95064 0
M  V30 3377 H 312.937 4.38212 4.26357 0
M  V30 3378 H 317.111 5.35012 4.45797 0
M  V30 3379 H 314.738 6.04406 4.61083 0
M  V30 3380 N 316.313 -1.40141 0.720998 0
M  V30 3381 C 317.538 -2.05618 0.271258 0
M  V30 3382 C 317.963 -1.53978 -1.08039 0
M  V30 3383 O 317.321 -0.677463 -1.68167 0
M  V30 3384 C 317.369 -3.59609 0.267197 0
M  V30 3385 O 316.473 -4.05526 -0.749814 0
M  V30 3386 H 315.814 -0.651904 0.126162 0
M  V30 3387 H 318.344 -1.79439 0.982997 0
M  V30 3388 H 318.354 -4.0786 0.106744 0
M  V30 3389 H 317.029 -3.96559 1.25354 0
M  V30 3390 H 315.606 -3.68722 -0.556644 0
M  V30 3391 N 317.792 -0.46758 -1.50504 0
M  V30 3392 C 318.739 0.328413 -2.28452 0
M  V30 3393 C 319.709 0.990313 -1.33349 0
M  V30 3394 O 320.894 1.00343 -1.62284 0
M  V30 3395 C 318.034 1.40648 -3.15138 0
M  V30 3396 C 317.147 0.759709 -4.25267 0
M  V30 3397 C 316.282 1.81537 -4.99217 0
M  V30 3398 C 315.321 1.14866 -6.01226 0
M  V30 3399 N 314.458 2.14702 -6.68467 0
M  V30 3400 H 319.298 -0.342603 -2.96024 0
M  V30 3401 H 316.835 -0.180801 -1.45985 0
M  V30 3402 H 318.793 2.04315 -3.63746 0
M  V30 3403 H 317.423 2.04671 -2.49619 0
M  V30 3404 H 316.475 0.0105671 -3.80399 0
M  V30 3405 H 317.787 0.233243 -4.98254 0
M  V30 3406 H 316.941 2.52793 -5.51526 0
M  V30 3407 H 315.68 2.37564 -4.25928 0
M  V30 3408 H 314.685 0.42171 -5.4818 0
M  V30 3409 H 315.91 0.595334 -6.76485 0
M  V30 3410 H 313.856 2.69752 -5.97972 0
M  V30 3411 H 313.773 1.6703 -7.37317 0
M  V30 3412 H 315.041 2.85348 -7.25394 0
M  V30 3413 N 319.27 1.56325 -0.20005 0
M  V30 3414 C 320.495 2.02548 0.44597 0
M  V30 3415 C 320.92 1.07922 1.5406 0
M  V30 3416 O 320.278 0.0635775 1.81188 0
M  V30 3417 C 320.326 3.47175 0.974761 0
M  V30 3418 O 319.43 3.55671 2.08739 0
M  V30 3419 H 318.771 0.655862 0.103638 0
M  V30 3420 H 321.301 2.02201 -0.312381 0
M  V30 3421 H 321.311 3.87067 1.2901 0
M  V30 3422 H 319.986 4.15538 0.17347 0
M  V30 3423 H 318.563 3.27657 1.78032 0
M  V30 3424 N 320.748 -0.0735177 1.57428 0
M  V30 3425 C 321.658 -1.10547 2.06922 0
M  V30 3426 C 322.674 -1.42506 0.998402 0
M  V30 3427 O 323.85 -1.52717 1.31299 0
M  V30 3428 C 320.915 -2.40019 2.50184 0
M  V30 3429 C 319.976 -2.15046 3.71556 0
M  V30 3430 C 319.209 -3.38345 4.12745 0
M  V30 3431 O 319.432 -4.47399 3.53822 0
M  V30 3432 O 318.366 -3.2666 5.05546 0
M  V30 3433 H 322.192 -0.715013 2.95163 0
M  V30 3434 H 319.777 -0.287531 1.46607 0
M  V30 3435 H 321.659 -3.16218 2.78539 0
M  V30 3436 H 320.334 -2.78447 1.65072 0
M  V30 3437 H 319.241 -1.36558 3.48285 0
M  V30 3438 H 320.574 -1.81499 4.57514 0
M  V30 3439 N 322.226 -1.5378 -0.344866 0
M  V30 3440 C 323.473 -1.70963 -1.08526 0
M  V30 3441 C 323.801 -0.472126 -1.88683 0
M  V30 3442 O 323.056 0.546116 -1.87926 0
M  V30 3443 C 323.355 -2.92407 -2.05506 0
M  V30 3444 C 323.021 -4.28066 -1.41671 0
M  V30 3445 C 321.683 -4.64951 -1.2399 0
M  V30 3446 C 324.035 -5.12344 -0.956726 0
M  V30 3447 C 321.363 -5.83733 -0.589277 0
M  V30 3448 C 323.715 -6.3179 -0.320015 0
M  V30 3449 C 322.379 -6.67372 -0.130881 0
M  V30 3450 H 321.649 -0.625598 -0.397124 0
M  V30 3451 H 324.296 -1.87995 -0.36469 0
M  V30 3452 H 322.601 -2.69973 -2.8394 0
M  V30 3453 H 324.298 -3.02895 -2.62784 0
M  V30 3454 H 320.888 -3.99034 -1.56429 0
M  V30 3455 H 325.072 -4.8438 -1.08118 0
M  V30 3456 H 320.328 -6.09877 -0.431344 0
M  V30 3457 H 324.502 -6.96386 0.0445072 0
M  V30 3458 H 322.129 -7.59273 0.375318 0
M  V30 3459 N 323.704 0.605807 -1.45491 0
M  V30 3460 C 324.944 1.37606 -1.51142 0
M  V30 3461 C 325.308 1.91413 -0.150075 0
M  V30 3462 O 326.509 2.68677 -0.0812828 0
M  V30 3463 C 324.78 2.49197 -2.56195 0
M  V30 3464 S 326.339 3.36953 -2.81083 0
M  V30 3465 H 323.157 0.469118 -0.534275 0
M  V30 3466 H 325.759 0.698845 -1.82583 0
M  V30 3467 H 324.463 2.0802 -3.53773 0
M  V30 3468 H 323.994 3.21717 -2.26411 0
M  V30 3469 H 326.009 4.47395 -2.14598 0
M  V30 3470 N 325.182 1.32811 0.848464 0
M  V30 3471 C 326.115 1.16601 1.96162 0
M  V30 3472 C 327.093 0.0638855 1.62474 0
M  V30 3473 O 328.277 0.224348 1.8716 0
M  V30 3474 C 325.404 0.786333 3.29446 0
M  V30 3475 C 324.45 1.89459 3.8211 0
M  V30 3476 S 325.283 3.50395 4.04949 0
M  V30 3477 C 326.439 3.14413 5.41198 0
M  V30 3478 H 326.672 2.10832 2.09612 0
M  V30 3479 H 324.205 1.17543 1.00115 0
M  V30 3480 H 326.163 0.574044 4.06466 0
M  V30 3481 H 324.824 -0.137218 3.138 0
M  V30 3482 H 324.017 1.58207 4.78526 0
M  V30 3483 H 323.619 2.06304 3.11953 0
M  V30 3484 H 325.911 2.64642 6.23675 0
M  V30 3485 H 326.854 4.09874 5.77416 0
M  V30 3486 H 327.262 2.51266 5.05495 0
M  V30 3487 N 326.66 -1.06551 1.16123 0
M  V30 3488 C 327.937 -1.76097 0.85142 0
M  V30 3489 C 328.317 -2.00802 -0.6513 0
M  V30 3490 O 327.665 -1.63302 -1.59827 0
M  V30 3491 C 327.875 -3.06384 1.67122 0
M  V30 3492 C 329.223 -3.80585 1.88255 0
M  V30 3493 O 330.247 -3.16218 1.63966 0
M  V30 3494 O 329.106 -4.96212 2.2899 0
M  V30 3495 H 326.2 -0.765102 0.313923 0
M  V30 3496 H 328.746 -1.12844 1.26745 0
M  V30 3497 H 327.518 -2.84071 2.69108 0
M  V30 3498 H 327.141 -3.77371 1.25206 0
M  V30 3499 N 328.138 -0.959301 -1.25041 0
M  V30 3500 C 329.549 -0.65667 -1.74771 0
M  V30 3501 C 329.9 0.827852 -1.77879 0
M  V30 3502 O 329.025 1.64783 -1.40269 0
M  V30 3503 C 329.62 -1.1853 -3.1739 0
M  V30 3504 C 328.179 -0.932734 -3.6466 0
M  V30 3505 C 327.326 -1.32558 -2.43564 0
M  V30 3506 H 330.277 -1.13558 -1.10862 0
M  V30 3507 H 330.298 -0.547582 -3.76539 0
M  V30 3508 H 329.81 -2.26576 -3.15095 0
M  V30 3509 H 327.911 0.13257 -3.72364 0
M  V30 3510 H 328.024 -1.57248 -4.52559 0
M  V30 3511 H 326.388 -0.743956 -2.43593 0
M  V30 3512 H 327.171 -2.41537 -2.43957 0
M  V30 3513 N 329.616 1.39756 -0.72842 0
M  V30 3514 C 330.865 1.99879 -0.270407 0
M  V30 3515 C 331.178 1.58449 1.14688 0
M  V30 3516 O 332.384 2.11362 1.70407 0
M  V30 3517 C 330.84 3.57292 -0.43252 0
M  V30 3518 C 330.448 4.07688 -1.85727 0
M  V30 3519 C 332.192 4.24485 -0.0359507 0
M  V30 3520 C 330.099 5.5765 -1.96928 0
M  V30 3521 H 329.029 0.747689 -0.0973472 0
M  V30 3522 H 331.68 1.59837 -0.901355 0
M  V30 3523 H 330.062 3.95097 0.267219 0
M  V30 3524 H 331.236 3.81231 -2.58843 0
M  V30 3525 H 329.551 3.53135 -2.20646 0
M  V30 3526 H 332.148 5.34609 -0.0987484 0
M  V30 3527 H 332.491 4.03915 1.00787 0
M  V30 3528 H 333.024 3.9183 -0.686604 0
M  V30 3529 H 329.763 5.8309 -2.99476 0
M  V30 3530 H 329.283 5.8593 -1.28241 0
M  V30 3531 H 330.962 6.22957 -1.74737 0
M  V30 3532 N 331.094 0.475555 1.50254 0
M  V30 3533 C 332.024 -0.30611 2.31485 0
M  V30 3534 C 333.005 -0.986228 1.38591 0
M  V30 3535 O 334.19 -0.982541 1.67511 0
M  V30 3536 C 331.32 -1.38588 3.1845 0
M  V30 3537 C 330.274 -0.827115 4.19932 0
M  V30 3538 C 329.6 -2.00551 4.95665 0
M  V30 3539 C 330.9 0.16463 5.2204 0
M  V30 3540 H 332.594 0.371866 2.97082 0
M  V30 3541 H 330.14 0.180282 1.42867 0
M  V30 3542 H 332.093 -1.94023 3.74076 0
M  V30 3543 H 330.817 -2.09269 2.50747 0
M  V30 3544 H 329.476 -0.294702 3.65414 0
M  V30 3545 H 329.124 -2.6994 4.2443 0
M  V30 3546 H 328.824 -1.63784 5.64313 0
M  V30 3547 H 330.348 -2.56468 5.54127 0
M  V30 3548 H 331.762 -0.300699 5.72511 0
M  V30 3549 H 330.159 0.446813 5.98434 0
M  V30 3550 H 331.229 1.08905 4.72512 0
M  V30 3551 N 332.573 -1.56217 0.208337 0
M  V30 3552 C 333.822 -1.97124 -0.427204 0
M  V30 3553 C 334.135 -1.09859 -1.61835 0
M  V30 3554 O 335.341 -1.40606 -2.32255 0
M  V30 3555 C 333.797 -3.50633 -0.811442 0
M  V30 3556 C 333.405 -4.46582 0.35615 0
M  V30 3557 C 335.149 -4.00282 -1.41332 0
M  V30 3558 C 333.056 -5.91379 -0.0497852 0
M  V30 3559 H 331.986 -0.736086 -0.163381 0
M  V30 3560 H 334.637 -1.8099 0.302456 0
M  V30 3561 H 333.019 -3.62319 -1.59815 0
M  V30 3562 H 334.193 -4.46636 1.1337 0
M  V30 3563 H 332.508 -4.07202 0.870396 0
M  V30 3564 H 335.105 -5.0595 -1.72972 0
M  V30 3565 H 335.448 -3.45359 -2.32449 0
M  V30 3566 H 335.981 -3.91764 -0.690323 0
M  V30 3567 H 332.72 -6.50255 0.827529 0
M  V30 3568 H 332.24 -5.94549 -0.791926 0
M  V30 3569 H 333.919 -6.45209 -0.481042 0
M  V30 3570 N 334.051 0.0651679 -1.57465 0
M  V30 3571 C 334.981 1.07693 -2.07182 0
M  V30 3572 C 335.962 1.39962 -0.966673 0
M  V30 3573 O 337.147 1.49475 -1.2398 0
M  V30 3574 C 334.277 2.3885 -2.52127 0
M  V30 3575 C 333.231 2.20917 -3.66579 0
M  V30 3576 C 332.557 3.57515 -3.97601 0
M  V30 3577 C 333.857 1.62493 -4.9638 0
M  V30 3578 H 335.551 0.663199 -2.91962 0
M  V30 3579 H 333.097 0.317569 -1.40455 0
M  V30 3580 H 335.05 3.09928 -2.85522 0
M  V30 3581 H 333.774 2.82215 -1.64384 0
M  V30 3582 H 332.433 1.52279 -3.33477 0
M  V30 3583 H 332.081 3.98463 -3.06979 0
M  V30 3584 H 331.781 3.46353 -4.74672 0
M  V30 3585 H 333.305 4.30013 -4.33499 0
M  V30 3586 H 334.719 2.23445 -5.27963 0
M  V30 3587 H 333.116 1.62009 -5.77818 0
M  V30 3588 H 334.186 0.587041 -4.81333 0
M  V30 3589 N 335.529 1.53961 0.336706 0
M  V30 3590 C 336.462 1.77255 1.43722 0
M  V30 3591 C 337.44 0.62193 1.50236 0
M  V30 3592 O 338.624 0.857874 1.67847 0
M  V30 3593 C 335.751 1.87733 2.81912 0
M  V30 3594 C 334.797 3.09933 2.92991 0
M  V30 3595 S 335.63 4.68836 2.58753 0
M  V30 3596 C 336.786 4.82202 3.99039 0
M  V30 3597 H 337.019 2.70322 1.23748 0
M  V30 3598 H 334.552 1.44917 0.532777 0
M  V30 3599 H 336.51 1.94455 3.61521 0
M  V30 3600 H 335.171 0.956666 2.99177 0
M  V30 3601 H 334.364 3.1396 3.94265 0
M  V30 3602 H 333.966 3.01472 2.21338 0
M  V30 3603 H 336.258 4.64032 4.9364 0
M  V30 3604 H 337.201 5.84298 4.00002 0
M  V30 3605 H 337.609 4.10604 3.87382 0
M  V30 3606 N 337.007 -0.598083 1.45811 0
M  V30 3607 C 337.957 -1.70272 1.51629 0
M  V30 3608 C 338.941 -1.56382 0.378629 0
M  V30 3609 O 340.133 -1.65557 0.626087 0
M  V30 3610 C 337.262 -3.09042 1.49493 0
M  V30 3611 C 336.348 -3.28284 2.68496 0
M  V30 3612 N 336.739 -3.17748 3.93535 0
M  V30 3613 C 335.037 -3.59182 2.64394 0
M  V30 3614 C 335.738 -3.38579 4.7301 0
M  V30 3615 N 334.714 -3.63016 4.04624 0
M  V30 3616 H 338.516 -1.60634 2.46118 0
M  V30 3617 H 336.03 -0.801642 1.41235 0
M  V30 3618 H 338.027 -3.88302 1.51747 0
M  V30 3619 H 336.687 -3.19823 0.560683 0
M  V30 3620 H 337.698 -2.95944 4.25014 0
M  V30 3621 H 334.375 -3.76742 1.79922 0
M  V30 3622 H 335.765 -3.35747 5.82 0
M  V30 3623 N 338.485 -1.33259 -0.841409 0
M  V30 3624 C 339.395 -1.25332 -1.98316 0
M  V30 3625 C 340.411 -0.164364 -1.73222 0
M  V30 3626 O 341.587 -0.387486 -1.97637 0
M  V30 3627 C 338.652 -0.990078 -3.32262 0
M  V30 3628 C 337.713 -2.16879 -3.70489 0
M  V30 3629 C 336.946 -1.91801 -4.98044 0
M  V30 3630 O 337.169 -0.867075 -5.63771 0
M  V30 3631 O 336.103 -2.78267 -5.33714 0
M  V30 3632 H 339.929 -2.21344 -2.07944 0
M  V30 3633 H 337.514 -1.1328 -0.974058 0
M  V30 3634 H 339.396 -0.860321 -4.12524 0
M  V30 3635 H 338.071 -0.0602155 -3.23644 0
M  V30 3636 H 336.978 -2.35407 -2.90748 0
M  V30 3637 H 338.311 -3.0819 -3.8377 0
M  V30 3638 N 339.963 1.05934 -1.16686 0
M  V30 3639 C 340.893 2.1546 -0.899949 0
M  V30 3640 C 341.874 1.69391 0.155154 0
M  V30 3641 O 343.059 1.94199 0.00648693 0
M  V30 3642 C 340.189 3.44939 -0.404241 0
M  V30 3643 C 339.143 4.04536 -1.39767 0
M  V30 3644 C 338.469 5.29268 -0.760216 0
M  V30 3645 C 339.769 4.42893 -2.76845 0
M  V30 3646 H 341.463 2.38046 -1.81588 0
M  V30 3647 H 339.009 1.14404 -0.874514 0
M  V30 3648 H 340.962 4.20901 -0.204971 0
M  V30 3649 H 339.686 3.21983 0.547206 0
M  V30 3650 H 338.345 3.30635 -1.58355 0
M  V30 3651 H 337.993 5.02611 0.197831 0
M  V30 3652 H 337.693 5.70101 -1.42332 0
M  V30 3653 H 339.217 6.07924 -0.57105 0
M  V30 3654 H 340.631 5.09921 -2.62019 0
M  V30 3655 H 339.028 4.94721 -3.39663 0
M  V30 3656 H 340.098 3.53584 -3.31823 0
M  V30 3657 N 341.441 0.965919 1.2453 0
M  V30 3658 C 342.389 0.486506 2.27455 0
M  V30 3659 C 343.383 -0.449041 1.6334 0
M  V30 3660 O 344.589 -0.324527 1.7705 0
M  V30 3661 H 340.964 0.138857 0.739069 0
M  V30 3662 H 342.935 1.3666 2.65267 0
M  V30 3663 C 341.684 -0.209481 3.47068 0
M  V30 3664 H 341.007 0.50129 3.96645 0
M  V30 3665 H 342.447 -0.508775 4.20936 0
M  V30 3666 C 340.906 -1.43586 3.0477 0
M  V30 3667 O 341.436 -2.53299 3.11773 0
M  V30 3668 N 339.642 -1.30126 2.59838 0
M  V30 3669 H 339.189 -0.408583 2.54339 0
M  V30 3670 H 339.147 -2.12294 2.31902 0
M  V30 3671 N 342.919 -1.39368 0.735821 0
M  V30 3672 C 343.869 -2.27885 0.0724287 0
M  V30 3673 C 344.853 -1.44301 -0.711756 0
M  V30 3674 O 346.045 -1.67206 -0.58063 0
M  V30 3675 C 343.174 -3.33029 -0.833454 0
M  V30 3676 C 342.26 -4.24078 -0.0433749 0
M  V30 3677 N 342.651 -4.96138 0.983903 0
M  V30 3678 C 340.949 -4.45164 -0.272905 0
M  V30 3679 C 341.65 -5.63069 1.4604 0
M  V30 3680 N 340.626 -5.37991 0.778857 0
M  V30 3681 H 344.428 -2.81052 0.859467 0
M  V30 3682 H 341.942 -1.5206 0.570227 0
M  V30 3683 H 343.939 -3.95311 -1.32419 0
M  V30 3684 H 342.599 -2.81421 -1.61964 0
M  V30 3685 H 343.61 -4.9958 1.36528 0
M  V30 3686 H 340.287 -4.04497 -1.03383 0
M  V30 3687 H 341.677 -6.30755 2.31511 0
M  V30 3688 N 344.397 -0.483516 -1.5 0
M  V30 3689 C 345.36 0.292965 -2.2732 0
M  V30 3690 C 346.36 0.909499 -1.32608 0
M  V30 3691 O 347.55 0.776745 -1.55924 0
M  V30 3692 C 344.682 1.41854 -3.09984 0
M  V30 3693 H 345.875 -0.385289 -2.97415 0
M  V30 3694 H 343.428 -0.237942 -1.54478 0
M  V30 3695 H 344.163 2.13148 -2.44414 0
M  V30 3696 H 343.948 0.982114 -3.79601 0
M  V30 3697 H 345.438 1.96597 -3.68429 0
M  V30 3698 N 345.875 1.56104 -0.216619 0
M  V30 3699 C 346.808 2.16026 0.735395 0
M  V30 3700 C 347.786 1.1032 1.1945 0
M  V30 3701 O 348.97 1.38549 1.27814 0
M  V30 3702 C 346.097 2.73656 1.99575 0
M  V30 3703 C 345.143 3.92146 1.67702 0
M  V30 3704 S 345.976 5.29397 0.806145 0
M  V30 3705 C 347.132 5.90463 2.07617 0
M  V30 3706 H 347.365 2.96439 0.226072 0
M  V30 3707 H 344.898 1.544 -0.00136639 0
M  V30 3708 H 346.856 3.075 2.71945 0
M  V30 3709 H 345.517 1.93245 2.47619 0
M  V30 3710 H 344.71 4.30954 2.61332 0
M  V30 3711 H 344.312 3.59423 1.03398 0
M  V30 3712 H 346.604 6.06136 3.02664 0
M  V30 3713 H 347.547 6.86589 1.73207 0
M  V30 3714 H 347.955 5.19252 2.21445 0
M  V30 3715 N 347.353 -0.0568162 1.57498 0
M  V30 3716 C 348.303 -1.07315 2.01166 0
M  V30 3717 C 349.287 -1.33632 0.896171 0
M  V30 3718 O 350.479 -1.33682 1.16009 0
M  V30 3719 C 347.608 -2.38257 2.47161 0
M  V30 3720 C 346.694 -2.1515 3.65474 0
M  V30 3721 N 347.085 -1.62014 4.7915 0
M  V30 3722 C 345.383 -2.45559 3.72313 0
M  V30 3723 C 346.084 -1.54069 5.60926 0
M  V30 3724 N 345.06 -2.00652 5.05213 0
M  V30 3725 H 348.862 -0.655878 2.86488 0
M  V30 3726 H 346.376 -0.263635 1.60246 0
M  V30 3727 H 348.373 -3.11845 2.76691 0
M  V30 3728 H 347.033 -2.80687 1.63232 0
M  V30 3729 H 348.044 -1.30667 5.01145 0
M  V30 3730 H 344.721 -2.91253 2.99129 0
M  V30 3731 H 346.111 -1.13712 6.62208 0
M  V30 3732 N 348.832 -1.54138 -0.328536 0
M  V30 3733 C 349.78 -1.83894 -1.42428 0
M  V30 3734 C 350.774 -0.710478 -1.53781 0
M  V30 3735 O 351.98 -0.894062 -1.56226 0
M  V30 3736 H 348.355 -0.582837 -0.475189 0
M  V30 3737 H 350.326 -2.75537 -1.14552 0
M  V30 3738 C 349.075 -2.07866 -2.78724 0
M  V30 3739 H 348.398 -2.94158 -2.7076 0
M  V30 3740 H 349.838 -2.32644 -3.54476 0
M  V30 3741 C 348.297 -0.868689 -3.25508 0
M  V30 3742 O 348.827 -0.0754908 -4.01629 0
M  V30 3743 N 347.033 -0.681711 -2.82491 0
M  V30 3744 H 346.58 -1.32838 -2.20708 0
M  V30 3745 H 346.538 0.126374 -3.14146 0
M  V30 3746 N 350.31 0.590341 -1.46126 0
M  V30 3747 C 351.24 1.71032 -1.58966 0
M  V30 3748 C 352.221 1.64302 -0.440335 0
M  V30 3749 O 353.406 1.82436 -0.665634 0
M  V30 3750 C 350.536 3.09665 -1.57241 0
M  V30 3751 C 349.49 3.31221 -2.71066 0
M  V30 3752 C 348.816 4.70303 -2.54399 0
M  V30 3753 C 350.116 3.19796 -4.1295 0
M  V30 3754 H 351.81 1.60543 -2.52718 0
M  V30 3755 H 349.356 0.770933 -1.21625 0
M  V30 3756 H 351.309 3.87831 -1.64819 0
M  V30 3757 H 350.033 3.21036 -0.600289 0
M  V30 3758 H 348.692 2.55452 -2.62944 0
M  V30 3759 H 348.34 4.78429 -1.55288 0
M  V30 3760 H 348.04 4.85679 -3.30741 0
M  V30 3761 H 349.564 5.50647 -2.63857 0
M  V30 3762 H 350.978 3.87815 -4.22223 0
M  V30 3763 H 349.375 3.46696 -4.89818 0
M  V30 3764 H 350.445 2.16983 -4.33643 0
M  V30 3765 N 351.788 1.33704 0.83433 0
M  V30 3766 C 353.018 1.28281 1.6195 0
M  V30 3767 C 353.426 -0.147603 1.88623 0
M  V30 3768 O 352.769 -1.1016 1.47005 0
M  V30 3769 C 352.831 1.99386 2.99141 0
M  V30 3770 C 352.495 3.48681 2.95416 0
M  V30 3771 C 353.492 4.438 2.70809 0
M  V30 3772 C 351.177 3.90925 3.15409 0
M  V30 3773 C 353.171 5.79138 2.66229 0
M  V30 3774 C 350.858 5.26366 3.10454 0
M  V30 3775 C 351.856 6.20284 2.85895 0
M  V30 3776 O 351.544 7.53245 2.80852 0
M  V30 3777 H 351.276 0.44315 0.510484 0
M  V30 3778 H 353.83 1.76711 1.04702 0
M  V30 3779 H 352.06 1.45554 3.58261 0
M  V30 3780 H 353.749 1.87403 3.60049 0
M  V30 3781 H 354.515 4.12485 2.5511 0
M  V30 3782 H 350.394 3.18229 3.33543 0
M  V30 3783 H 353.938 6.52416 2.4698 0
M  V30 3784 H 349.835 5.57304 3.25703 0
M  V30 3785 H 350.603 7.62846 2.96661 0
M  V30 3786 N 353.266 -1.05314 1.17247 0
M  V30 3787 C 354.514 -1.77941 0.958194 0
M  V30 3788 C 354.835 -1.88089 -0.514556 0
M  V30 3789 O 354.105 -1.39676 -1.37359 0
M  V30 3790 H 352.685 -0.659116 0.351533 0
M  V30 3791 H 355.347 -1.27166 1.47699 0
M  V30 3792 H 354.443 -2.79663 1.38546 0
M  V30 3793 N 354.744 -0.972509 -1.24016 0
M  V30 3794 C 355.993 -0.632603 -1.91523 0
M  V30 3795 C 356.306 0.836641 -1.76804 0
M  V30 3796 O 357.512 1.28728 -2.39043 0
M  V30 3797 C 355.968 -1.08082 -3.43287 0
M  V30 3798 C 355.576 -2.57386 -3.66683 0
M  V30 3799 C 357.32 -0.814288 -4.16617 0
M  V30 3800 C 355.227 -2.95915 -5.12043 0
M  V30 3801 H 354.157 -0.232898 -0.717129 0
M  V30 3802 H 356.808 -1.17936 -1.40582 0
M  V30 3803 H 355.19 -0.462339 -3.93292 0
M  V30 3804 H 356.364 -3.24405 -3.27258 0
M  V30 3805 H 354.679 -2.81701 -3.06649 0
M  V30 3806 H 357.276 -1.0781 -5.23718 0
M  V30 3807 H 357.619 0.24955 -4.15551 0
M  V30 3808 H 358.152 -1.39397 -3.72577 0
M  V30 3809 H 354.891 -4.0139 -5.18234 0
M  V30 3810 H 354.411 -2.33584 -5.52448 0
M  V30 3811 H 356.09 -2.86086 -5.80314 0
M  V30 3812 N 356.222 1.38976 -0.743202 0
M  V30 3813 C 357.185 2.28901 -0.117014 0
M  V30 3814 C 358.185 1.46698 0.658503 0
M  V30 3815 O 359.375 1.67274 0.486305 0
M  V30 3816 C 356.507 3.30309 0.84315 0
M  V30 3817 H 357.7 2.8578 -0.909373 0
M  V30 3818 H 355.253 1.47761 -0.509547 0
M  V30 3819 H 355.988 2.785 1.66157 0
M  V30 3820 H 355.773 3.91029 0.289594 0
M  V30 3821 H 357.263 3.97577 1.2776 0
M  V30 3822 N 357.7 0.491464 1.49741 0
M  V30 3823 C 358.949 -0.0582189 2.01616 0
M  V30 3824 C 359.262 -1.38927 1.3769 0
M  V30 3825 O 360.468 -2.02509 1.80838 0
M  V30 3826 C 358.924 -0.154235 3.59569 0
M  V30 3827 C 358.532 1.1696 4.32463 0
M  V30 3828 C 360.276 -0.65479 4.1942 0
M  V30 3829 C 358.183 1.03627 5.8225 0
M  V30 3830 H 357.113 -0.0255317 0.753568 0
M  V30 3831 H 359.764 0.629445 1.72367 0
M  V30 3832 H 358.146 -0.906138 3.85493 0
M  V30 3833 H 359.32 1.93405 4.18248 0
M  V30 3834 H 357.635 1.60285 3.84315 0
M  V30 3835 H 360.232 -0.771903 5.29099 0
M  V30 3836 H 360.575 -1.65127 3.8215 0
M  V30 3837 H 361.108 0.040304 3.9778 0
M  V30 3838 H 357.847 2.00672 6.24028 0
M  V30 3839 H 357.367 0.312546 5.98985 0
M  V30 3840 H 359.046 0.711114 6.4308 0
M  V30 3841 N 359.178 -1.55987 0.224894 0
M  V30 3842 C 360.589 -1.84553 -0.282345 0
M  V30 3843 C 360.94 -1.14634 -1.59227 0
M  V30 3844 O 360.065 -0.417155 -2.12341 0
M  V30 3845 C 360.66 -3.348 -0.519062 0
M  V30 3846 C 359.219 -3.63671 -0.970604 0
M  V30 3847 C 358.366 -2.77277 -0.0355261 0
M  V30 3848 H 361.317 -1.52245 0.448006 0
M  V30 3849 H 361.338 -3.55187 -1.36463 0
M  V30 3850 H 360.85 -3.8566 0.43449 0
M  V30 3851 H 358.951 -3.1827 -1.9374 0
M  V30 3852 H 359.064 -4.71631 -0.842698 0
M  V30 3853 H 357.428 -2.48846 -0.542927 0
M  V30 3854 H 358.211 -3.30937 0.913003 0
M  V30 3855 N 360.656 0.0484629 -1.57525 0
M  V30 3856 C 361.604 1.07359 -2.06341 0
M  V30 3857 C 362.598 1.3865 -0.973269 0
M  V30 3858 O 363.804 1.37783 -1.15827 0
M  V30 3859 H 360.179 0.363662 -0.65822 0
M  V30 3860 H 362.15 0.635916 -2.91545 0
M  V30 3861 C 360.899 2.37198 -2.54229 0
M  V30 3862 H 360.222 2.13977 -3.37719 0
M  V30 3863 H 361.662 3.07319 -2.92115 0
M  V30 3864 C 360.121 3.04805 -1.43511 0
M  V30 3865 O 360.651 3.93848 -0.79034 0
M  V30 3866 N 358.857 2.65811 -1.17444 0
M  V30 3867 H 358.404 1.93488 -1.70059 0
M  V30 3868 H 358.362 3.11366 -0.435737 0
M  V30 3869 N 362.134 1.5431 0.320358 0
M  V30 3870 C 363.411 1.63322 1.07635 0
M  V30 3871 C 363.791 0.46912 2.05821 0
M  V30 3872 O 363.139 -0.536274 2.22118 0
M  V30 3873 C 363.349 3.00465 1.77544 0
M  V30 3874 C 364.697 3.56621 2.30449 0
M  V30 3875 O 365.721 3.02791 1.87606 0
M  V30 3876 O 364.58 4.5083 3.08892 0
M  V30 3877 H 361.674 0.661502 0.496331 0
M  V30 3878 H 364.22 1.66656 0.319992 0
M  V30 3879 H 362.992 3.76629 1.06143 0
M  V30 3880 H 362.615 3.00824 2.59982 0
M  V30 3881 N 363.613 -0.582584 1.46437 0
M  V30 3882 C 364.545 -1.70618 1.53043 0
M  V30 3883 C 365.558 -1.57322 0.418769 0
M  V30 3884 O 366.747 -1.64744 0.687136 0
M  V30 3885 C 363.847 -3.08869 1.39474 0
M  V30 3886 C 363.02 -3.48166 2.64762 0
M  V30 3887 C 362.079 -4.65478 2.4539 0
M  V30 3888 O 361.105 -4.71333 3.19114 0
M  V30 3889 N 362.307 -5.60365 1.51564 0
M  V30 3890 H 365.072 -1.65405 2.49923 0
M  V30 3891 H 362.633 -0.768567 1.42494 0
M  V30 3892 H 364.625 -3.85143 1.24287 0
M  V30 3893 H 363.195 -3.08449 0.507758 0
M  V30 3894 H 362.415 -2.61598 2.9489 0
M  V30 3895 H 363.703 -3.71188 3.4799 0
M  V30 3896 H 363.101 -5.5837 0.907705 0
M  V30 3897 H 361.658 -6.36068 1.4234 0
M  V30 3898 N 365.091 -1.34144 -0.827227 0
M  V30 3899 C 366.319 -1.29325 -1.61501 0
M  V30 3900 C 366.734 0.13354 -1.88327 0
M  V30 3901 O 366.091 1.0793 -1.47164 0
M  V30 3902 C 366.142 -2.07746 -2.95844 0
M  V30 3903 O 365.863 -3.4486 -2.70191 0
M  V30 3904 C 367.364 -2.10273 -3.90256 0
M  V30 3905 H 364.584 -0.445069 -0.50215 0
M  V30 3906 H 367.128 -1.76693 -1.02955 0
M  V30 3907 H 365.283 -1.6403 -3.5096 0
M  V30 3908 H 365.697 -3.85345 -3.55822 0
M  V30 3909 H 367.171 -2.69575 -4.81698 0
M  V30 3910 H 367.648 -1.096 -4.25305 0
M  V30 3911 H 368.254 -2.54059 -3.41078 0
M  V30 3912 N 366.569 1.04691 -1.17803 0
M  V30 3913 C 367.818 1.77176 -0.963931 0
M  V30 3914 C 368.131 1.88888 0.508015 0
M  V30 3915 O 369.337 2.58164 0.840465 0
M  V30 3916 C 367.793 3.18518 -1.67555 0
M  V30 3917 C 367.401 3.14919 -3.18637 0
M  V30 3918 C 369.145 3.95424 -1.54402 0
M  V30 3919 C 367.052 4.51081 -3.82466 0
M  V30 3920 H 365.982 0.664116 -0.357023 0
M  V30 3921 H 368.633 1.17303 -1.4111 0
M  V30 3922 H 367.015 3.78748 -1.15613 0
M  V30 3923 H 368.189 2.64178 -3.77554 0
M  V30 3924 H 366.504 2.51512 -3.31859 0
M  V30 3925 H 369.101 4.96106 -1.99456 0
M  V30 3926 H 369.444 4.13343 -0.495329 0
M  V30 3927 H 369.977 3.41754 -2.0359 0
M  V30 3928 H 366.716 4.38368 -4.87354 0
M  V30 3929 H 366.236 5.01951 -3.28337 0
M  V30 3930 H 367.915 5.2001 -3.84965 0
M  V30 3931 N 368.047 0.979072 1.23499 0
M  V30 3932 C 369.272 0.664845 1.96455 0
M  V30 3933 C 369.697 -0.761287 1.72006 0
M  V30 3934 O 369.055 -1.51837 0.990713 0
M  V30 3935 C 369.103 0.959479 3.47601 0
M  V30 3936 O 368.207 0.0508168 4.12369 0
M  V30 3937 H 367.548 0.250185 0.615064 0
M  V30 3938 H 370.078 1.31231 1.5697 0
M  V30 3939 H 370.088 0.895642 3.98048 0
M  V30 3940 H 368.763 1.99876 3.64723 0
M  V30 3941 H 367.34 0.16895 3.72517 0
M  V30 3942 N 369.525 -1.3858 0.750561 0
M  V30 3943 C 370.75 -2.04997 0.314812 0
M  V30 3944 C 371.175 -1.56235 -1.04749 0
M  V30 3945 O 370.533 -0.712981 -1.66692 0
M  V30 3946 C 370.581 -3.58961 0.343415 0
M  V30 3947 O 369.685 -4.07025 -0.663628 0
M  V30 3948 H 369.026 -0.649081 0.139962 0
M  V30 3949 H 371.556 -1.77313 1.02084 0
M  V30 3950 H 371.566 -4.07542 0.193233 0
M  V30 3951 H 370.241 -3.93811 1.33738 0
M  V30 3952 H 368.818 -3.6982 -0.478307 0
M  V30 3953 N 371.003 -0.499398 -1.49478 0
M  V30 3954 C 372.249 0.0457576 -2.02748 0
M  V30 3955 C 372.582 1.36793 -1.37846 0
M  V30 3956 O 371.857 1.87596 -0.513601 0
M  V30 3957 C 372.14 0.199986 -3.59544 0
M  V30 3958 C 371.993 -1.1452 -4.34977 0
M  V30 3959 C 373.312 0.94137 -4.29914 0
M  V30 3960 H 370.431 0.0151552 -0.736844 0
M  V30 3961 H 373.073 -0.650498 -1.78518 0
M  V30 3962 H 371.223 0.793007 -3.8032 0
M  V30 3963 H 372.895 -1.77697 -4.25701 0
M  V30 3964 H 371.138 -1.73488 -3.97598 0
M  V30 3965 H 371.809 -0.990607 -5.43039 0
M  V30 3966 H 374.285 0.43844 -4.13784 0
M  V30 3967 H 373.161 1.01812 -5.39375 0
M  V30 3968 H 373.422 1.98471 -3.95046 0
M  V30 3969 N 372.481 1.55866 -0.233164 0
M  V30 3970 C 373.709 2.02998 0.399905 0
M  V30 3971 C 374.124 1.11274 1.52524 0
M  V30 3972 O 373.481 0.124528 1.82075 0
M  V30 3973 C 373.532 3.4958 0.920639 0
M  V30 3974 O 373.253 4.37808 -0.159834 0
M  V30 3975 C 374.754 4.12411 1.62578 0
M  V30 3976 H 371.974 0.664006 0.0966281 0
M  V30 3977 H 374.518 2.0143 -0.353013 0
M  V30 3978 H 372.673 3.51727 1.62379 0
M  V30 3979 H 373.087 5.23981 0.23337 0
M  V30 3980 H 374.561 5.16711 1.94201 0
M  V30 3981 H 375.038 3.5809 2.54299 0
M  V30 3982 H 375.644 4.14148 0.967553 0
M  V30 3983 N 373.959 -0.0401083 1.57549 0
M  V30 3984 C 375.184 -0.748931 1.93406 0
M  V30 3985 C 375.609 -1.68686 0.832274 0
M  V30 3986 O 374.967 -1.80047 -0.212818 0
M  V30 3987 C 375.015 -1.4916 3.28304 0
M  V30 3988 O 374.119 -2.6042 3.19774 0
M  V30 3989 H 373.46 -0.202212 0.63246 0
M  V30 3990 H 375.99 0.00112086 2.046 0
M  V30 3991 H 376 -1.86395 3.62934 0
M  V30 3992 H 374.675 -0.80364 4.08062 0
M  V30 3993 H 373.252 -2.25808 2.96758 0
M  V30 3994 N 375.437 -1.54477 -0.31217 0
M  V30 3995 C 376.385 -1.85395 -1.40469 0
M  V30 3996 C 377.379 -0.726749 -1.53019 0
M  V30 3997 O 378.585 -0.910582 -1.55269 0
M  V30 3998 H 374.96 -0.587845 -0.46898 0
M  V30 3999 H 376.931 -2.76736 -1.11623 0
M  V30 4000 C 375.68 -2.10811 -2.76503 0
M  V30 4001 H 375.003 -2.97014 -2.67625 0
M  V30 4002 H 376.443 -2.3639 -3.51988 0
M  V30 4003 C 374.902 -0.903165 -3.24568 0
M  V30 4004 O 375.432 -0.118085 -4.01526 0
M  V30 4005 N 373.638 -0.711634 -2.81752 0
M  V30 4006 H 373.185 -1.35171 -2.19286 0
M  V30 4007 H 373.143 0.0930473 -3.14262 0
M  V30 4008 N 376.915 0.57481 -1.46744 0
M  V30 4009 C 378.164 1.32898 -1.51727 0
M  V30 4010 C 378.477 1.948 -0.176692 0
M  V30 4011 O 379.683 2.71299 -0.104385 0
M  V30 4012 C 378.139 2.40901 -2.67385 0
M  V30 4013 C 377.747 1.85266 -4.07898 0
M  V30 4014 C 379.491 3.17609 -2.81646 0
M  V30 4015 C 377.398 2.90945 -5.14883 0
M  V30 4016 H 376.328 0.499631 -0.564699 0
M  V30 4017 H 378.979 0.612536 -1.72975 0
M  V30 4018 H 377.361 3.15379 -2.39483 0
M  V30 4019 H 378.535 1.17278 -4.45626 0
M  V30 4020 H 376.85 1.21199 -3.98371 0
M  V30 4021 H 379.447 3.96493 -3.58744 0
M  V30 4022 H 379.79 3.70696 -1.89448 0
M  V30 4023 H 380.323 2.50239 -3.09233 0
M  V30 4024 H 377.062 2.42736 -6.089 0
M  V30 4025 H 376.582 3.57398 -4.81691 0
M  V30 4026 H 378.261 3.54755 -5.41071 0
M  V30 4027 N 378.394 1.34581 0.820102 0
M  V30 4028 C 379.641 1.27096 1.57648 0
M  V30 4029 C 379.969 -0.158317 1.93855 0
M  V30 4030 O 379.224 -1.12028 1.60463 0
M  V30 4031 C 379.523 2.10997 2.8847 0
M  V30 4032 C 379.189 3.59966 2.71543 0
M  V30 4033 C 377.851 4.00575 2.66634 0
M  V30 4034 C 380.203 4.54548 2.55021 0
M  V30 4035 C 377.531 5.33953 2.43128 0
M  V30 4036 C 379.883 5.88109 2.33047 0
M  V30 4037 C 378.547 6.27878 2.26552 0
M  V30 4038 H 377.817 0.465078 0.576874 0
M  V30 4039 H 380.464 1.6635 0.948671 0
M  V30 4040 H 378.769 1.6458 3.55557 0
M  V30 4041 H 380.466 2.0255 3.46084 0
M  V30 4042 H 377.056 3.27733 2.76205 0
M  V30 4043 H 381.24 4.24069 2.57835 0
M  V30 4044 H 376.496 5.63781 2.3656 0
M  V30 4045 H 380.67 6.60985 2.19251 0
M  V30 4046 H 378.297 7.31162 2.081 0
M  V30 4047 N 379.872 -1.04064 1.18357 0
M  V30 4048 C 381.102 -1.80654 1.00238 0
M  V30 4049 C 381.51 -1.83713 -0.452362 0
M  V30 4050 O 380.853 -1.27135 -1.32599 0
M  V30 4051 C 380.915 -3.27582 1.48088 0
M  V30 4052 C 380.579 -3.48184 2.96002 0
M  V30 4053 C 381.576 -3.39372 3.93856 0
M  V30 4054 C 379.261 -3.7478 3.34433 0
M  V30 4055 C 381.255 -3.5686 5.28138 0
M  V30 4056 C 378.942 -3.91915 4.68877 0
M  V30 4057 C 379.94 -3.82956 5.65539 0
M  V30 4058 O 379.628 -3.996 6.97549 0
M  V30 4059 H 379.36 -0.575751 0.354241 0
M  V30 4060 H 381.914 -1.32044 1.57333 0
M  V30 4061 H 380.144 -3.77161 0.853588 0
M  V30 4062 H 381.833 -3.8573 1.2636 0
M  V30 4063 H 382.599 -3.18789 3.65511 0
M  V30 4064 H 378.478 -3.80852 2.59756 0
M  V30 4065 H 382.022 -3.49783 6.03571 0
M  V30 4066 H 377.919 -4.11992 4.96923 0
M  V30 4067 H 378.687 -4.1676 7.04452 0
M  V30 4068 N 381.35 -0.985608 -1.22978 0
M  V30 4069 C 382.575 -0.675254 -1.961 0
M  V30 4070 C 383 0.752154 -1.72407 0
M  V30 4071 O 382.358 1.5131 -0.998751 0
M  V30 4072 C 382.406 -0.977899 -3.47087 0
M  V30 4073 O 381.51 -0.072685 -4.12336 0
M  V30 4074 H 380.851 -0.253443 -0.613728 0
M  V30 4075 H 383.381 -1.32061 -1.56272 0
M  V30 4076 H 383.391 -0.916739 -3.97567 0
M  V30 4077 H 382.066 -2.01807 -3.63657 0
M  V30 4078 H 380.643 -0.188703 -3.72422 0
M  V30 4079 N 382.828 1.3818 -0.7579 0
M  V30 4080 C 383.76 2.2901 -0.0932177 0
M  V30 4081 C 384.773 1.47958 0.679136 0
M  V30 4082 O 385.962 1.70773 0.519514 0
M  V30 4083 C 383.062 3.26953 0.89192 0
M  V30 4084 C 382.235 4.37045 0.176303 0
M  V30 4085 C 381.294 5.15148 1.07281 0
M  V30 4086 O 380.32 5.66616 0.541728 0
M  V30 4087 N 381.522 5.28542 2.40049 0
M  V30 4088 H 384.287 2.86694 -0.873303 0
M  V30 4089 H 381.848 1.50007 -0.609054 0
M  V30 4090 H 383.84 3.76083 1.49479 0
M  V30 4091 H 382.41 2.70136 1.57306 0
M  V30 4092 H 381.63 3.89493 -0.607328 0
M  V30 4093 H 382.918 5.07801 -0.318718 0
M  V30 4094 H 382.316 4.88285 2.85647 0
M  V30 4095 H 380.873 5.8103 2.95376 0
M  V30 4096 N 384.306 0.507319 1.49211 0
M  V30 4097 C 385.536 -0.0315292 2.06576 0
M  V30 4098 C 385.944 -1.30791 1.36713 0
M  V30 4099 O 385.287 -1.78324 0.441181 0
M  V30 4100 C 385.349 -0.349104 3.57801 0
M  V30 4101 C 385.013 0.830475 4.49391 0
M  V30 4102 C 386.01 1.72271 4.90529 0
M  V30 4103 C 383.695 1.03107 4.91604 0
M  V30 4104 C 385.689 2.79964 5.72625 0
M  V30 4105 C 383.376 2.11116 5.73475 0
M  V30 4106 C 384.374 2.99379 6.1389 0
M  V30 4107 O 384.062 4.05523 6.94123 0
M  V30 4108 H 383.794 0.0201002 0.675701 0
M  V30 4109 H 386.348 0.705737 1.92895 0
M  V30 4110 H 384.578 -1.14005 3.69513 0
M  V30 4111 H 386.267 -0.827319 3.97379 0
M  V30 4112 H 387.033 1.57958 4.58557 0
M  V30 4113 H 382.912 0.353417 4.59643 0
M  V30 4114 H 386.456 3.48884 6.04091 0
M  V30 4115 H 382.353 2.25421 6.0486 0
M  V30 4116 H 383.121 4.02953 7.1244 0
M  V30 4117 N 385.784 -1.5574 0.241426 0
M  V30 4118 C 386.732 -2.22538 -0.676718 0
M  V30 4119 C 387.726 -1.21117 -1.18436 0
M  V30 4120 O 388.932 -1.39144 -1.14188 0
M  V30 4121 H 385.307 -0.713776 -0.236701 0
M  V30 4122 H 387.278 -2.98264 -0.0901187 0
M  V30 4123 C 386.027 -2.93439 -1.86518 0
M  V30 4124 H 385.35 -3.7125 -1.4837 0
M  V30 4125 H 386.79 -3.43549 -2.48495 0
M  V30 4126 C 385.249 -1.97008 -2.73294 0
M  V30 4127 O 385.779 -1.49965 -3.72657 0
M  V30 4128 N 383.985 -1.64227 -2.39745 0
M  V30 4129 H 383.532 -2.02677 -1.58996 0
M  V30 4130 H 383.49 -0.999708 -2.98083 0
M  V30 4131 N 387.262 0.0317525 -1.57568 0
M  V30 4132 C 388.508 0.724175 -1.8943 0
M  V30 4133 C 388.841 1.75149 -0.838836 0
M  V30 4134 O 388.116 1.93948 0.146422 0
M  V30 4135 C 388.399 1.39615 -3.31933 0
M  V30 4136 C 388.252 0.382537 -4.4817 0
M  V30 4137 C 389.571 2.33084 -3.73309 0
M  V30 4138 H 386.69 0.261797 -0.688935 0
M  V30 4139 H 389.332 -0.013017 -1.89996 0
M  V30 4140 H 387.482 2.02451 -3.31581 0
M  V30 4141 H 389.154 -0.243689 -4.60656 0
M  V30 4142 H 387.397 -0.29844 -4.32772 0
M  V30 4143 H 388.068 0.891145 -5.44759 0
M  V30 4144 H 390.544 1.80295 -3.7501 0
M  V30 4145 H 389.42 2.77084 -4.73831 0
M  V30 4146 H 389.681 3.19643 -3.05419 0
M  V30 4147 N 388.74 1.54641 0.303973 0
M  V30 4148 C 389.687 1.85386 1.37479 0
M  V30 4149 C 390.657 0.702528 1.50512 0
M  V30 4150 O 391.842 0.950867 1.65418 0
M  V30 4151 C 388.982 2.10413 2.73533 0
M  V30 4152 C 388.095 3.38049 2.68974 0
M  V30 4153 C 387.23 3.52934 3.97002 0
M  V30 4154 C 386.269 4.74373 3.86829 0
M  V30 4155 N 385.406 4.8608 5.06627 0
M  V30 4156 H 390.246 2.76732 1.1056 0
M  V30 4157 H 387.783 1.37034 0.534805 0
M  V30 4158 H 389.741 2.22919 3.52652 0
M  V30 4159 H 388.371 1.22338 2.98719 0
M  V30 4160 H 387.423 3.3418 1.81736 0
M  V30 4161 H 388.735 4.27288 2.57346 0
M  V30 4162 H 387.889 3.65088 4.84557 0
M  V30 4163 H 386.628 2.61824 4.1146 0
M  V30 4164 H 385.633 4.62255 2.97658 0
M  V30 4165 H 386.858 5.66888 3.73918 0
M  V30 4166 H 384.804 3.97891 5.21554 0
M  V30 4167 H 384.721 5.69315 4.9741 0
M  V30 4168 H 385.989 5.02587 5.95841 0
M  V30 4169 N 390.218 -0.567019 1.47046 0
M  V30 4170 C 391.148 -1.68482 1.61667 0
M  V30 4171 C 392.129 -1.6358 0.466418 0
M  V30 4172 O 393.314 -1.81354 0.694574 0
M  V30 4173 C 390.444 -3.07124 1.62148 0
M  V30 4174 C 389.398 -3.26867 2.76301 0
M  V30 4175 C 388.724 -4.66196 2.61849 0
M  V30 4176 C 390.024 -3.13186 4.17986 0
M  V30 4177 H 391.718 -1.56502 2.5524 0
M  V30 4178 H 389.264 -0.751486 1.22836 0
M  V30 4179 H 391.217 -3.8516 1.70968 0
M  V30 4180 H 389.941 -3.2004 0.651287 0
M  V30 4181 H 388.6 -2.51237 2.66975 0
M  V30 4182 H 388.248 -4.75898 1.62879 0
M  V30 4183 H 387.948 -4.80356 3.38425 0
M  V30 4184 H 389.472 -5.46379 2.72584 0
M  V30 4185 H 390.886 -3.81049 4.2834 0
M  V30 4186 H 389.283 -3.3886 4.95272 0
M  V30 4187 H 390.353 -2.10057 4.3704 0
M  V30 4188 N 391.696 -1.35014 -0.812953 0
M  V30 4189 C 392.606 -1.2951 -1.95613 0
M  V30 4190 C 393.622 -0.20107 -1.72834 0
M  V30 4191 O 394.798 -0.42932 -1.96771 0
M  V30 4192 C 391.863 -1.06033 -3.30088 0
M  V30 4193 C 390.924 -2.24688 -3.65805 0
M  V30 4194 C 390.157 -2.02322 -4.93864 0
M  V30 4195 O 390.38 -0.986464 -5.61805 0
M  V30 4196 O 389.314 -2.89525 -5.27692 0
M  V30 4197 H 393.14 -2.25705 -2.03202 0
M  V30 4198 H 390.725 -1.15321 -0.949811 0
M  V30 4199 H 392.607 -0.94763 -4.10607 0
M  V30 4200 H 391.282 -0.128852 -3.23443 0
M  V30 4201 H 390.189 -2.41521 -2.85689 0
M  V30 4202 H 391.522 -3.16261 -3.77147 0
M  V30 4203 N 393.175 1.03435 -1.18907 0
M  V30 4204 C 394.405 1.8012 -1.01195 0
M  V30 4205 C 394.813 1.8395 0.442613 0
M  V30 4206 O 394.156 1.27836 1.31923 0
M  V30 4207 C 394.218 3.26792 -1.49823 0
M  V30 4208 C 393.882 3.46609 -2.97844 0
M  V30 4209 C 394.879 3.37278 -3.95651 0
M  V30 4210 C 392.564 3.73001 -3.36416 0
M  V30 4211 C 394.558 3.54054 -5.30023 0
M  V30 4212 C 392.245 3.89423 -4.70949 0
M  V30 4213 C 393.243 3.79951 -5.67562 0
M  V30 4214 O 392.931 3.95895 -6.99659 0
M  V30 4215 H 392.663 0.573865 -0.357289 0
M  V30 4216 H 395.217 1.31207 -1.58031 0
M  V30 4217 H 393.447 3.76703 -0.873578 0
M  V30 4218 H 395.136 3.85055 -1.28404 0
M  V30 4219 H 395.902 3.16846 -3.67197 0
M  V30 4220 H 391.781 3.79469 -2.61772 0
M  V30 4221 H 395.325 3.46577 -6.05417 0
M  V30 4222 H 391.222 4.09351 -4.99101 0
M  V30 4223 H 391.99 4.13019 -7.06653 0
M  V30 4224 N 394.653 0.992116 1.22453 0
M  V30 4225 C 395.616 0.546883 2.2258 0
M  V30 4226 C 396.616 -0.369829 1.56489 0
M  V30 4227 O 397.806 -0.161896 1.73446 0
M  V30 4228 C 394.938 -0.204659 3.40285 0
M  V30 4229 H 396.131 1.43234 2.63484 0
M  V30 4230 H 393.684 0.779239 1.3549 0
M  V30 4231 H 394.419 -1.10614 3.04853 0
M  V30 4232 H 394.204 0.45354 3.89468 0
M  V30 4233 H 395.694 -0.504358 4.14543 0
M  V30 4234 N 396.131 -1.37776 0.765217 0
M  V30 4235 C 397.041 -2.34135 0.147666 0
M  V30 4236 C 398.057 -1.59854 -0.687215 0
M  V30 4237 O 399.233 -1.91983 -0.608659 0
M  V30 4238 C 396.298 -3.3901 -0.72617 0
M  V30 4239 C 395.359 -4.2912 0.124417 0
M  V30 4240 C 394.592 -5.28986 -0.707807 0
M  V30 4241 O 394.815 -5.36205 -1.94525 0
M  V30 4242 O 393.749 -6.01779 -0.12046 0
M  V30 4243 H 397.575 -2.88664 0.943758 0
M  V30 4244 H 395.16 -1.39824 0.526277 0
M  V30 4245 H 397.042 -4.03195 -1.22524 0
M  V30 4246 H 395.717 -2.86819 -1.50056 0
M  V30 4247 H 394.624 -3.68057 0.669696 0
M  V30 4248 H 395.957 -4.84598 0.861736 0
M  V30 4249 N 397.609 -0.515225 -1.4894 0
M  V30 4250 C 398.858 0.0261361 -2.01683 0
M  V30 4251 C 399.171 1.36719 -1.39883 0
M  V30 4252 O 400.377 1.99606 -1.84037 0
M  V30 4253 C 398.833 0.0970111 -3.59769 0
M  V30 4254 C 398.441 -1.23825 -4.30548 0
M  V30 4255 C 400.185 0.587981 -4.20408 0
M  V30 4256 C 398.092 -1.12877 -5.80528 0
M  V30 4257 H 397.022 0.0135398 -0.753878 0
M  V30 4258 H 399.673 -0.656787 -1.71343 0
M  V30 4259 H 398.055 0.844694 -3.86886 0
M  V30 4260 H 399.229 -2.00034 -4.15118 0
M  V30 4261 H 397.544 -1.66379 -3.81716 0
M  V30 4262 H 400.141 0.68763 -5.3026 0
M  V30 4263 H 400.484 1.59026 -3.84729 0
M  V30 4264 H 401.017 -0.103582 -3.97665 0
M  V30 4265 H 397.756 -2.10575 -6.20756 0
M  V30 4266 H 397.276 -0.407799 -5.98412 0
M  V30 4267 H 398.955 -0.813332 -6.41868 0
M  V30 4268 N 399.087 1.5561 -0.249682 0
M  V30 4269 C 400.317 2.03116 0.377803 0
M  V30 4270 C 400.725 1.12822 1.51881 0
M  V30 4271 O 400.068 0.13562 1.83199 0
M  V30 4272 C 400.13 3.46866 0.944693 0
M  V30 4273 C 399.794 4.56955 -0.0644259 0
M  V30 4274 C 400.791 5.12485 -0.874957 0
M  V30 4275 C 398.476 5.01936 -0.19132 0
M  V30 4276 C 400.47 6.11491 -1.79881 0
M  V30 4277 C 398.157 6.00773 -1.11868 0
M  V30 4278 C 399.155 6.5543 -1.92095 0
M  V30 4279 O 398.843 7.5234 -2.83267 0
M  V30 4280 H 398.575 0.669489 0.0935961 0
M  V30 4281 H 401.129 2.02004 -0.371966 0
M  V30 4282 H 399.359 3.45136 1.74407 0
M  V30 4283 H 401.048 3.77856 1.48255 0
M  V30 4284 H 401.814 4.78564 -0.787523 0
M  V30 4285 H 397.693 4.59055 0.423072 0
M  V30 4286 H 401.237 6.54078 -2.42543 0
M  V30 4287 H 397.134 6.34114 -1.20703 0
M  V30 4288 H 397.902 7.69966 -2.7766 0
M  V30 4289 N 400.565 -0.0233959 1.57583 0
M  V30 4290 C 401.528 -1.00693 2.05897 0
M  V30 4291 C 402.528 -1.28693 0.964092 0
M  V30 4292 O 403.718 -1.23602 1.22753 0
M  V30 4293 C 400.85 -2.33825 2.4807 0
M  V30 4294 H 402.043 -0.589476 2.9405 0
M  V30 4295 H 399.596 -0.270354 1.53944 0
M  V30 4296 H 400.331 -2.80307 1.6309 0
M  V30 4297 H 400.116 -2.1483 3.2801 0
M  V30 4298 H 401.606 -3.04426 2.85857 0
M  V30 4299 N 402.043 -1.548 -0.295768 0
M  V30 4300 C 403.29 -1.74329 -1.03032 0
M  V30 4301 C 403.618 -0.531915 -1.87085 0
M  V30 4302 O 402.873 0.486052 -1.89568 0
M  V30 4303 C 403.172 -2.98797 -1.961 0
M  V30 4304 C 402.838 -4.32356 -1.2798 0
M  V30 4305 C 401.5 -4.68661 -1.09135 0
M  V30 4306 C 403.852 -5.15128 -0.793243 0
M  V30 4307 C 401.18 -5.85312 -0.403269 0
M  V30 4308 C 403.532 -6.32488 -0.118854 0
M  V30 4309 C 402.196 -6.6745 0.0815043 0
M  V30 4310 H 401.466 -0.637916 -0.37702 0
M  V30 4311 H 404.113 -1.8906 -0.304696 0
M  V30 4312 H 402.418 -2.78869 -2.75207 0
M  V30 4313 H 404.115 -3.11102 -2.53015 0
M  V30 4314 H 400.705 -4.03808 -1.43655 0
M  V30 4315 H 404.889 -4.87575 -0.92653 0
M  V30 4316 H 400.145 -6.1094 -0.237098 0
M  V30 4317 H 404.319 -6.95892 0.266035 0
M  V30 4318 H 401.946 -7.57695 0.616685 0
M  V30 4319 N 403.521 0.559213 -1.47345 0
M  V30 4320 C 404.769 1.31388 -1.53563 0
M  V30 4321 C 405.09 1.93985 -0.198678 0
M  V30 4322 O 404.36 1.79825 0.777167 0
M  V30 4323 H 402.94 0.487901 -0.565652 0
M  V30 4324 H 405.602 0.65315 -1.8363 0
M  V30 4325 H 404.698 2.10844 -2.30111 0
M  V30 4326 N 404.999 1.35443 0.805782 0
M  V30 4327 C 406.247 1.28507 1.55982 0
M  V30 4328 C 406.568 -0.140046 1.94496 0
M  V30 4329 O 405.838 -1.07666 1.63661 0
M  V30 4330 H 404.418 0.472676 0.578434 0
M  V30 4331 H 407.08 1.69555 0.961098 0
M  V30 4332 H 406.176 1.90148 2.47488 0
M  V30 4333 N 406.477 -1.02803 1.19454 0
M  V30 4334 C 407.888 -1.57667 0.999899 0
M  V30 4335 C 408.239 -1.91041 -0.446956 0
M  V30 4336 O 407.364 -1.70978 -1.32648 0
M  V30 4337 C 407.959 -2.86477 1.80877 0
M  V30 4338 C 406.518 -3.37911 1.65811 0
M  V30 4339 C 405.665 -2.11343 1.79526 0
M  V30 4340 H 408.616 -0.853214 1.33813 0
M  V30 4341 H 408.637 -3.57408 1.30536 0
M  V30 4342 H 408.149 -2.62155 2.86175 0
M  V30 4343 H 406.25 -3.67218 0.63102 0
M  V30 4344 H 406.363 -4.10885 2.46395 0
M  V30 4345 H 404.727 -2.23254 1.22596 0
M  V30 4346 H 405.51 -1.89461 2.86285 0
M  V30 4347 N 407.956 -0.998596 -1.21925 0
M  V30 4348 C 409.184 -0.696286 -1.94832 0
M  V30 4349 C 409.599 0.740032 -1.73692 0
M  V30 4350 O 408.956 1.5 -1.03953 0
M  V30 4351 C 409.007 -0.999833 -3.47398 0
M  V30 4352 O 408.728 -2.37972 -3.67833 0
M  V30 4353 C 410.229 -0.716025 -4.37479 0
M  V30 4354 H 407.449 -0.257111 -0.619786 0
M  V30 4355 H 409.993 -1.33491 -1.54921 0
M  V30 4356 H 408.148 -0.406918 -3.85257 0
M  V30 4357 H 408.562 -2.48338 -4.61983 0
M  V30 4358 H 410.036 -0.978642 -5.43256 0
M  V30 4359 H 410.513 0.349968 -4.37803 0
M  V30 4360 H 411.119 -1.29025 -4.05256 0
M  V30 4361 N 409.434 1.37368 -0.772513 0
M  V30 4362 C 410.683 1.98918 -0.333861 0
M  V30 4363 C 410.996 1.62017 1.09589 0
M  V30 4364 O 412.202 2.16676 1.63596 0
M  V30 4365 C 410.658 3.55735 -0.545971 0
M  V30 4366 C 410.266 4.01573 -1.98603 0
M  V30 4367 C 412.01 4.24156 -0.170979 0
M  V30 4368 C 409.917 5.51102 -2.1457 0
M  V30 4369 H 408.847 0.744214 -0.121085 0
M  V30 4370 H 411.498 1.56888 -0.95175 0
M  V30 4371 H 409.88 3.95748 0.141387 0
M  V30 4372 H 411.054 3.72803 -2.7084 0
M  V30 4373 H 409.369 3.45937 -2.31769 0
M  V30 4374 H 411.966 5.34024 -0.26878 0
M  V30 4375 H 412.309 4.06917 0.878855 0
M  V30 4376 H 412.842 3.89447 -0.810914 0
M  V30 4377 H 409.581 5.73268 -3.17875 0
M  V30 4378 H 409.101 5.81554 -1.46817 0
M  V30 4379 H 410.78 6.17083 -1.94468 0
M  V30 4380 N 410.912 0.523116 1.48665 0
M  V30 4381 C 412.189 -0.0775449 1.95446 0
M  V30 4382 C 412.569 -1.5197 1.4652 0
M  V30 4383 O 411.917 -2.17876 0.688657 0
M  V30 4384 C 412.127 0.0326135 3.48985 0
M  V30 4385 C 413.475 -0.130141 4.24401 0
M  V30 4386 O 414.499 -0.0415142 3.56176 0
M  V30 4387 O 413.358 -0.31491 5.45592 0
M  V30 4388 H 410.452 -0.0831012 0.822814 0
M  V30 4389 H 412.998 0.587227 1.59216 0
M  V30 4390 H 411.77 1.03748 3.77296 0
M  V30 4391 H 411.393 -0.671317 3.91892 0
M  V30 4392 N 412.39 -1.55475 0.257931 0
M  V30 4393 C 413.32 -2.24815 -0.630912 0
M  V30 4394 C 414.301 -1.23224 -1.17259 0
M  V30 4395 O 415.486 -1.51904 -1.20991 0
M  V30 4396 C 412.616 -2.95609 -1.82298 0
M  V30 4397 C 411.57 -4.03982 -1.41359 0
M  V30 4398 C 410.896 -4.6226 -2.68738 0
M  V30 4399 C 412.196 -5.19109 -0.57648 0
M  V30 4400 H 413.89 -2.99354 -0.0526878 0
M  V30 4401 H 411.436 -1.4398 -0.023901 0
M  V30 4402 H 413.389 -3.42822 -2.45054 0
M  V30 4403 H 412.113 -2.18577 -2.42676 0
M  V30 4404 H 410.772 -3.57555 -0.809324 0
M  V30 4405 H 410.42 -3.81915 -3.27338 0
M  V30 4406 H 410.12 -5.35424 -2.42065 0
M  V30 4407 H 411.644 -5.12212 -3.32372 0
M  V30 4408 H 413.058 -5.62479 -1.10861 0
M  V30 4409 H 411.455 -5.98729 -0.405351 0
M  V30 4410 H 412.525 -4.83174 0.408776 0
M  V30 4411 N 413.868 0.0150385 -1.57593 0
M  V30 4412 C 415.117 0.702115 -1.89085 0
M  V30 4413 C 415.43 1.75764 -0.858277 0
M  V30 4414 O 416.636 2.49829 -1.0629 0
M  V30 4415 C 415.092 1.29992 -3.35604 0
M  V30 4416 C 414.7 0.280007 -4.47124 0
M  V30 4417 C 416.444 1.96606 -3.76227 0
M  V30 4418 C 414.351 0.886949 -5.84711 0
M  V30 4419 H 413.281 0.265997 -0.705522 0
M  V30 4420 H 415.932 -0.0430408 -1.8345 0
M  V30 4421 H 414.314 2.09525 -3.36029 0
M  V30 4422 H 415.488 -0.489631 -4.58191 0
M  V30 4423 H 413.803 -0.284835 -4.15425 0
M  V30 4424 H 416.4 2.42893 -4.76347 0
M  V30 4425 H 416.743 2.79024 -3.08952 0
M  V30 4426 H 417.276 1.23828 -3.78036 0
M  V30 4427 H 414.015 0.101876 -6.55421 0
M  V30 4428 H 413.535 1.6261 -5.77337 0
M  V30 4429 H 415.214 1.39011 -6.3189 0
M  V30 4430 N 415.346 1.54954 0.287554 0
M  V30 4431 C 416.757 1.65732 0.859634 0
M  V30 4432 C 417.108 0.574767 1.87592 0
M  V30 4433 O 416.233 -0.286299 2.14498 0
M  V30 4434 C 416.828 3.00438 1.56597 0
M  V30 4435 C 415.387 3.13292 2.08627 0
M  V30 4436 C 414.534 2.61473 0.923416 0
M  V30 4437 H 417.485 1.5857 0.0642338 0
M  V30 4438 H 417.506 2.92613 2.43224 0
M  V30 4439 H 417.018 3.79207 0.826053 0
M  V30 4440 H 415.119 2.39268 2.85625 0
M  V30 4441 H 415.232 4.19647 2.31157 0
M  V30 4442 H 413.596 2.18264 1.31275 0
M  V30 4443 H 414.379 3.42733 0.197241 0
M  V30 4444 N 416.824 -0.551391 1.4764 0
M  V30 4445 C 417.771 -1.65796 1.60563 0
M  V30 4446 C 418.741 -1.59932 0.448428 0
M  V30 4447 O 419.926 -1.78679 0.669222 0
M  V30 4448 C 417.066 -3.04108 1.63133 0
M  V30 4449 C 416.179 -3.20365 2.89811 0
M  V30 4450 C 415.314 -4.49109 2.8368 0
M  V30 4451 C 414.353 -4.58819 4.05156 0
M  V30 4452 N 413.49 -5.78926 3.97227 0
M  V30 4453 H 418.33 -1.54088 2.5507 0
M  V30 4454 H 415.867 -0.75052 1.26513 0
M  V30 4455 H 417.825 -3.84207 1.62606 0
M  V30 4456 H 416.455 -3.14637 0.721341 0
M  V30 4457 H 415.507 -2.33659 3.00179 0
M  V30 4458 H 416.819 -3.23402 3.79753 0
M  V30 4459 H 415.973 -5.37475 2.81434 0
M  V30 4460 H 414.712 -4.4856 1.91431 0
M  V30 4461 H 413.717 -3.68864 4.077 0
M  V30 4462 H 414.942 -4.61124 4.98539 0
M  V30 4463 H 412.888 -5.79314 3.07785 0
M  V30 4464 H 412.805 -5.83367 4.80853 0
M  V30 4465 H 414.073 -6.69637 3.99007 0
M  V30 4466 N 418.302 -1.35869 -0.798587 0
M  V30 4467 C 419.527 -1.32883 -1.59238 0
M  V30 4468 C 419.952 0.0894587 -1.87887 0
M  V30 4469 O 419.31 1.05869 -1.47178 0
M  V30 4470 C 419.358 -2.14892 -2.89575 0
M  V30 4471 O 418.462 -1.53512 -3.82763 0
M  V30 4472 H 417.803 -0.455236 -0.48338 0
M  V30 4473 H 420.333 -1.79024 -0.990539 0
M  V30 4474 H 420.343 -2.27139 -3.38928 0
M  V30 4475 H 419.018 -3.17998 -2.68049 0
M  V30 4476 H 417.595 -1.50153 -3.41334 0
M  V30 4477 N 419.78 1.02168 -1.19998 0
M  V30 4478 C 420.743 2.08765 -0.94604 0
M  V30 4479 C 421.743 1.60618 0.0763846 0
M  V30 4480 O 422.933 1.73472 -0.159135 0
M  V30 4481 C 420.065 3.38262 -0.423255 0
M  V30 4482 H 421.258 2.32726 -1.89153 0
M  V30 4483 H 418.811 1.1889 -1.01464 0
M  V30 4484 H 419.546 3.19974 0.527938 0
M  V30 4485 H 419.331 3.74532 -1.16053 0
M  V30 4486 H 420.821 4.16759 -0.264911 0
M  V30 4487 N 421.258 1.00505 1.21394 0
M  V30 4488 C 422.674 0.717873 1.42544 0
M  V30 4489 C 422.874 -0.706936 1.88692 0
M  V30 4490 O 421.93 -1.47627 2.04847 0
M  V30 4491 C 423.243 1.73377 2.45684 0
M  V30 4492 C 424.791 1.75059 2.59467 0
M  V30 4493 C 425.266 2.75545 3.6584 0
M  V30 4494 N 426.757 2.74213 3.73311 0
M  V30 4495 C 427.492 3.48626 4.55245 0
M  V30 4496 N 426.988 4.32678 5.41075 0
M  V30 4497 N 428.781 3.37276 4.49668 0
M  V30 4498 H 420.932 1.92506 0.897503 0
M  V30 4499 H 423.195 0.830919 0.456375 0
M  V30 4500 H 422.901 2.75395 2.18748 0
M  V30 4501 H 422.775 1.53647 3.44489 0
M  V30 4502 H 425.162 0.737337 2.8574 0
M  V30 4503 H 425.243 1.98861 1.60897 0
M  V30 4504 H 424.887 3.77028 3.40313 0
M  V30 4505 H 424.817 2.49009 4.64007 0
M  V30 4506 H 427.308 2.13234 3.11993 0
M  V30 4507 H 427.621 4.86253 6.00648 0
M  V30 4508 H 425.966 4.3676 5.40616 0
M  V30 4509 H 429.157 2.71043 3.81646 0
M  V30 4510 H 429.33 3.95524 5.13288 0
M  V30 4511 N 422.737 -1.36956 0.779787 0
M  V30 4512 C 423.684 -2.30175 0.169697 0
M  V30 4513 C 424.654 -1.51501 -0.68094 0
M  V30 4514 O 425.839 -1.80042 -0.631629 0
M  V30 4515 C 422.979 -3.37985 -0.697131 0
M  V30 4516 C 422.092 -4.31661 0.170992 0
M  V30 4517 C 421.227 -5.2655 -0.701298 0
M  V30 4518 C 420.266 -6.11867 0.168869 0
M  V30 4519 N 419.403 -6.98973 -0.661855 0
M  V30 4520 H 424.243 -2.81767 0.970135 0
M  V30 4521 H 421.78 -1.38699 0.489994 0
M  V30 4522 H 423.738 -3.99128 -1.2146 0
M  V30 4523 H 422.368 -2.87739 -1.46309 0
M  V30 4524 H 421.42 -3.71756 0.80634 0
M  V30 4525 H 422.732 -4.91644 0.841875 0
M  V30 4526 H 421.886 -5.92937 -1.28494 0
M  V30 4527 H 420.625 -4.66998 -1.40584 0
M  V30 4528 H 419.63 -5.44452 0.764986 0
M  V30 4529 H 420.855 -6.73493 0.870863 0
M  V30 4530 H 418.801 -6.41941 -1.35086 0
M  V30 4531 H 418.718 -7.55984 -0.0484447 0
M  V30 4532 H 419.986 -7.6974 -1.22963 0
M  V30 4533 N 424.215 -0.530993 -1.48385 0
M  V30 4534 C 425.445 -0.00133928 -2.066 0
M  V30 4535 C 425.853 1.28599 -1.38777 0
M  V30 4536 O 425.196 1.77599 -0.469495 0
M  V30 4537 C 425.258 0.292137 -3.58311 0
M  V30 4538 C 424.922 -0.901864 -4.48013 0
M  V30 4539 C 425.919 -1.80053 -4.87726 0
M  V30 4540 C 423.604 -1.10915 -4.89901 0
M  V30 4541 C 425.598 -2.89038 -5.68098 0
M  V30 4542 C 423.285 -2.20213 -5.70043 0
M  V30 4543 C 424.283 -3.09107 -6.0905 0
M  V30 4544 O 423.971 -4.16514 -6.87583 0
M  V30 4545 H 423.703 -0.0308475 -0.675296 0
M  V30 4546 H 426.257 -0.736335 -1.91748 0
M  V30 4547 H 424.487 1.08112 -3.7128 0
M  V30 4548 H 426.176 0.763994 -3.98645 0
M  V30 4549 H 426.942 -1.65234 -4.55986 0
M  V30 4550 H 422.821 -0.426498 -4.59023 0
M  V30 4551 H 426.365 -3.58451 -5.98464 0
M  V30 4552 H 422.262 -2.35016 -6.01197 0
M  V30 4553 H 423.03 -4.14237 -7.05939 0
M  V30 4554 N 425.693 1.55336 -0.266172 0
M  V30 4555 C 426.94 1.99397 0.353158 0
M  V30 4556 C 427.268 1.15451 1.56529 0
M  V30 4557 O 426.523 0.209974 1.9457 0
M  V30 4558 C 426.822 3.48606 0.787957 0
M  V30 4559 C 426.488 4.49773 -0.318541 0
M  V30 4560 C 425.15 4.77158 -0.62239 0
M  V30 4561 C 427.502 5.10212 -1.06459 0
M  V30 4562 C 424.83 5.62251 -1.67602 0
M  V30 4563 C 427.182 5.96449 -2.10788 0
M  V30 4564 C 425.846 6.22158 -2.41817 0
M  V30 4565 H 425.116 0.729644 0.12923 0
M  V30 4566 H 427.763 1.87732 -0.37802 0
M  V30 4567 H 426.068 3.57701 1.59866 0
M  V30 4568 H 427.765 3.80098 1.27775 0
M  V30 4569 H 424.355 4.2854 -0.0715925 0
M  V30 4570 H 428.539 4.89086 -0.843098 0
M  V30 4571 H 423.795 5.80419 -1.92155 0
M  V30 4572 H 427.969 6.42317 -2.69076 0
M  V30 4573 H 425.596 6.87888 -3.23596 0
M  V30 4574 N 427.171 -0.0066808 1.57599 0
M  V30 4575 C 428.081 -1.01671 2.11424 0
M  V30 4576 C 429.097 -1.38143 1.05795 0
M  V30 4577 O 430.273 -1.47011 1.37658 0
M  V30 4578 C 427.338 -2.29192 2.60139 0
M  V30 4579 C 426.399 -1.99094 3.80342 0
M  V30 4580 C 425.632 -3.20535 4.26724 0
M  V30 4581 O 425.855 -4.3199 3.72479 0
M  V30 4582 O 424.789 -3.04924 5.18946 0
M  V30 4583 H 428.615 -0.589181 2.9793 0
M  V30 4584 H 426.2 -0.225091 1.47695 0
M  V30 4585 H 428.082 -3.0412 2.917 0
M  V30 4586 H 426.757 -2.71195 1.76733 0
M  V30 4587 H 425.664 -1.21663 3.53764 0
M  V30 4588 H 426.997 -1.61931 4.648 0
M  V30 4589 N 428.649 -1.55105 -0.279332 0
M  V30 4590 C 429.559 -1.90638 -1.36727 0
M  V30 4591 C 430.575 -0.802899 -1.54368 0
M  V30 4592 O 431.751 -1.10138 -1.68616 0
M  V30 4593 C 428.816 -2.16547 -2.70755 0
M  V30 4594 C 427.877 -3.40146 -2.61915 0
M  V30 4595 C 427.11 -3.6481 -3.8955 0
M  V30 4596 O 427.333 -2.92095 -4.89935 0
M  V30 4597 O 426.267 -4.58343 -3.90135 0
M  V30 4598 H 430.093 -2.83237 -1.09591 0
M  V30 4599 H 427.678 -1.4157 -0.477306 0
M  V30 4600 H 429.56 -2.34665 -3.50014 0
M  V30 4601 H 428.235 -1.27131 -2.9769 0
M  V30 4602 H 427.142 -3.2737 -1.81052 0
M  V30 4603 H 428.475 -4.29761 -2.3993 0
M  V30 4604 N 430.127 0.543554 -1.4793 0
M  V30 4605 C 431.074 1.64942 -1.6144 0
M  V30 4606 C 432.044 1.59692 -0.456903 0
M  V30 4607 O 433.229 1.78321 -0.678688 0
M  V30 4608 C 430.369 3.03238 -1.64744 0
M  V30 4609 C 429.482 3.18823 -2.91506 0
M  V30 4610 C 428.617 4.47599 -2.86057 0
M  V30 4611 C 427.656 4.56664 -4.07584 0
M  V30 4612 N 426.793 5.76811 -4.00292 0
M  V30 4613 H 431.633 1.52733 -2.55884 0
M  V30 4614 H 429.17 0.7438 -1.2691 0
M  V30 4615 H 431.128 3.83339 -1.64641 0
M  V30 4616 H 429.758 3.1425 -0.738017 0
M  V30 4617 H 428.81 2.32064 -3.01414 0
M  V30 4618 H 430.122 3.21384 -3.81463 0
M  V30 4619 H 429.276 5.35975 -2.84281 0
M  V30 4620 H 428.015 4.47538 -1.93807 0
M  V30 4621 H 427.02 3.66697 -4.09651 0
M  V30 4622 H 428.245 4.58474 -5.00978 0
M  V30 4623 H 426.191 5.77673 -3.10853 0
M  V30 4624 H 426.108 5.80808 -4.8394 0
M  V30 4625 H 427.376 6.67512 -4.02553 0
M  V30 4626 N 431.605 1.3629 0.791371 0
M  V30 4627 C 432.568 1.30309 1.88553 0
M  V30 4628 C 433.568 0.211204 1.59407 0
M  V30 4629 O 434.758 0.465865 1.67855 0
M  V30 4630 C 431.89 1.01956 3.25297 0
M  V30 4631 H 433.083 2.27614 1.95273 0
M  V30 4632 H 430.636 1.21035 0.988953 0
M  V30 4633 H 431.371 0.050998 3.2426 0
M  V30 4634 H 431.156 1.80968 3.4784 0
M  V30 4635 H 432.646 1.0037 4.05359 0
M  V30 4636 N 433.083 -1.0153 1.20538 0
M  V30 4637 C 434.013 -2.11972 0.979295 0
M  V30 4638 C 434.994 -1.6985 -0.0921787 0
M  V30 4639 O 436.179 -1.94089 0.0655932 0
M  V30 4640 C 433.309 -3.43201 0.531984 0
M  V30 4641 C 432.263 -3.9907 1.54685 0
M  V30 4642 C 431.589 -5.26082 0.956127 0
M  V30 4643 C 432.889 -4.32313 2.93092 0
M  V30 4644 H 434.583 -2.31143 1.90298 0
M  V30 4645 H 432.129 -1.11079 0.916372 0
M  V30 4646 H 434.082 -4.1985 0.361044 0
M  V30 4647 H 432.806 -3.23792 -0.427327 0
M  V30 4648 H 431.465 -3.2453 1.70517 0
M  V30 4649 H 431.113 -5.02999 -0.0111538 0
M  V30 4650 H 430.813 -5.64426 1.63393 0
M  V30 4651 H 432.337 -6.05386 0.796284 0
M  V30 4652 H 433.751 -4.99845 2.80763 0
M  V30 4653 H 432.148 -4.81774 3.57791 0
M  V30 4654 H 433.218 -3.41025 3.44717 0
M  V30 4655 N 434.561 -1.01147 -1.20859 0
M  V30 4656 C 435.838 -0.613136 -1.85742 0
M  V30 4657 C 436.218 0.909004 -1.90526 0
M  V30 4658 O 435.566 1.79862 -1.40932 0
M  V30 4659 C 435.776 -1.255 -3.25654 0
M  V30 4660 C 437.124 -1.3672 -4.01986 0
M  V30 4661 O 438.148 -1.21082 -3.34989 0
M  V30 4662 O 437.007 -1.6194 -5.21956 0
M  V30 4663 H 434.101 -0.210878 -0.799662 0
M  V30 4664 H 436.647 -1.10853 -1.2849 0
M  V30 4665 H 435.419 -2.29532 -3.16908 0
M  V30 4666 H 435.042 -0.746369 -3.90532 0
M  V30 4667 N 436.039 1.36541 -0.78704 0
M  V30 4668 C 437.269 2.03266 -0.369662 0
M  V30 4669 C 437.677 1.59481 1.01796 0
M  V30 4670 O 437.02 0.778612 1.66383 0
M  V30 4671 C 437.082 3.57779 -0.351371 0
M  V30 4672 C 436.746 4.24756 -1.68617 0
M  V30 4673 C 437.743 4.47811 -2.64124 0
M  V30 4674 C 435.428 4.62277 -1.96481 0
M  V30 4675 C 437.422 5.07464 -3.85693 0
M  V30 4676 C 435.109 5.21649 -3.18317 0
M  V30 4677 C 436.107 5.44182 -4.12741 0
M  V30 4678 O 435.795 6.02307 -5.32429 0
M  V30 4679 H 435.527 0.658977 -0.150751 0
M  V30 4680 H 438.081 1.75548 -1.0664 0
M  V30 4681 H 436.311 3.84606 0.401847 0
M  V30 4682 H 438 4.05879 0.0410147 0
M  V30 4683 H 438.766 4.19221 -2.43883 0
M  V30 4684 H 434.645 4.44065 -1.23805 0
M  V30 4685 H 438.189 5.24968 -4.59407 0
M  V30 4686 H 434.086 5.49664 -3.38437 0
M  V30 4687 H 434.854 6.20775 -5.33461 0
M  V30 4688 N 437.518 0.538854 1.48102 0
M  V30 4689 C 438.748 0.0122958 2.06596 0
M  V30 4690 C 439.156 -1.27861 1.39457 0
M  V30 4691 O 438.499 -1.77348 0.478907 0
M  V30 4692 C 438.561 -0.273131 3.58461 0
M  V30 4693 C 438.225 0.92561 4.47528 0
M  V30 4694 C 439.222 1.82637 4.86765 0
M  V30 4695 C 436.907 1.13511 4.89306 0
M  V30 4696 C 438.901 2.92047 5.66558 0
M  V30 4697 C 436.588 2.23233 5.68868 0
M  V30 4698 C 437.586 3.12333 6.07402 0
M  V30 4699 O 437.274 4.20155 6.85365 0
M  V30 4700 H 437.006 0.0344283 0.675123 0
M  V30 4701 H 439.56 0.746494 1.91355 0
M  V30 4702 H 437.79 -1.06141 3.71848 0
M  V30 4703 H 439.479 -0.742842 3.99045 0
M  V30 4704 H 440.245 1.67649 4.55103 0
M  V30 4705 H 436.124 0.450835 4.5879 0
M  V30 4706 H 439.668 3.6162 5.96554 0
M  V30 4707 H 435.565 2.38201 5.99942 0
M  V30 4708 H 436.333 4.17975 7.03732 0
M  V30 4709 N 438.996 -1.55193 0.274407 0
M  V30 4710 C 440.412 -1.59401 -0.0797543 0
M  V30 4711 C 440.612 -1.29162 -1.54659 0
M  V30 4712 O 439.668 -1.05215 -2.29534 0
M  V30 4713 C 440.981 -2.99257 0.294238 0
M  V30 4714 C 442.529 -3.12072 0.240796 0
M  V30 4715 C 443.004 -4.54194 0.589218 0
M  V30 4716 N 444.495 -4.60033 0.540744 0
M  V30 4717 C 445.23 -5.68027 0.783147 0
M  V30 4718 N 444.726 -6.8417 1.09013 0
M  V30 4719 N 446.519 -5.57572 0.711993 0
M  V30 4720 H 438.67 -1.73113 1.23067 0
M  V30 4721 H 440.933 -0.807197 0.497129 0
M  V30 4722 H 440.639 -3.26217 1.31435 0
M  V30 4723 H 440.513 -3.75427 -0.365281 0
M  V30 4724 H 442.9 -2.84877 -0.770024 0
M  V30 4725 H 442.981 -2.38117 0.934563 0
M  V30 4726 H 442.625 -4.82115 1.59772 0
M  V30 4727 H 442.555 -5.26448 -0.126331 0
M  V30 4728 H 445.046 -3.76599 0.313327 0
M  V30 4729 H 445.359 -7.6243 1.26178 0
M  V30 4730 H 443.704 -6.85787 1.12789 0
M  V30 4731 H 446.895 -4.65714 0.472014 0
M  V30 4732 H 447.068 -6.41659 0.90429 0
M  V30 4733 N 440.474 -0.00167713 -1.576 0
M  V30 4734 C 441.699 0.69739 -1.95323 0
M  V30 4735 C 442.124 1.6642 -0.876706 0
M  V30 4736 O 441.482 1.80548 0.165007 0
M  V30 4737 C 441.53 1.40403 -3.32144 0
M  V30 4738 O 440.634 2.5185 -3.26566 0
M  V30 4739 H 439.975 0.185373 -0.637599 0
M  V30 4740 H 442.505 -0.0553665 -2.04525 0
M  V30 4741 H 442.515 1.76707 -3.67748 0
M  V30 4742 H 441.19 0.695167 -4.10049 0
M  V30 4743 H 439.767 2.17861 -3.0264 0
M  V30 4744 N 441.952 1.55251 0.271103 0
M  V30 4745 C 443.201 1.75151 1.00025 0
M  V30 4746 C 443.514 0.561041 1.87381 0
M  V30 4747 O 444.72 0.642506 2.63788 0
M  V30 4748 C 443.176 3.09999 1.82835 0
M  V30 4749 C 442.784 4.3662 1.00336 0
M  V30 4750 C 444.528 3.39249 2.55168 0
M  V30 4751 C 442.435 5.62506 1.82595 0
M  V30 4752 H 441.365 0.652877 0.377183 0
M  V30 4753 H 444.016 1.81708 0.255843 0
M  V30 4754 H 442.398 2.97485 2.61378 0
M  V30 4755 H 443.572 4.60055 0.261959 0
M  V30 4756 H 441.887 4.14527 0.394486 0
M  V30 4757 H 444.484 4.3051 3.1712 0
M  V30 4758 H 444.827 2.59467 3.2555 0
M  V30 4759 H 445.36 3.52869 1.83653 0
M  V30 4760 H 442.099 6.45041 1.16631 0
M  V30 4761 H 441.619 5.43211 2.54327 0
M  V30 4762 H 443.298 6.00875 2.39913 0
M  V30 4763 N 443.43 -0.535701 1.48216 0
M  V30 4764 C 444.393 -1.623 1.61838 0
M  V30 4765 C 445.393 -1.53087 0.492024 0
M  V30 4766 O 446.583 -1.5686 0.757668 0
M  V30 4767 C 443.715 -3.01907 1.58319 0
M  V30 4768 H 444.908 -1.51564 2.58783 0
M  V30 4769 H 442.461 -0.757317 1.36727 0
M  V30 4770 H 443.196 -3.18155 0.628299 0
M  V30 4771 H 442.981 -3.10003 2.40085 0
M  V30 4772 H 444.471 -3.80969 1.71033 0
M  V30 4773 N 444.908 -1.36708 -0.784132 0
M  V30 4774 C 445.855 -1.31466 -1.89698 0
M  V30 4775 C 446.825 -0.18239 -1.65096 0
M  V30 4776 O 448.01 -0.369762 -1.87183 0
M  V30 4777 C 445.15 -1.1151 -3.26588 0
M  V30 4778 C 444.263 -2.33859 -3.63227 0
M  V30 4779 C 443.398 -2.06873 -4.89262 0
M  V30 4780 C 442.437 -3.25154 -5.18595 0
M  V30 4781 N 441.574 -2.978 -6.35814 0
M  V30 4782 H 446.414 -2.26619 -1.93515 0
M  V30 4783 H 443.951 -1.12625 -0.946256 0
M  V30 4784 H 445.909 -0.979653 -4.05535 0
M  V30 4785 H 444.539 -0.200103 -3.22179 0
M  V30 4786 H 443.591 -2.58188 -2.79362 0
M  V30 4787 H 444.903 -3.22109 -3.8085 0
M  V30 4788 H 444.057 -1.90289 -5.76086 0
M  V30 4789 H 442.796 -1.15942 -4.73718 0
M  V30 4790 H 441.801 -3.42292 -4.30251 0
M  V30 4791 H 443.026 -4.1692 -5.36055 0
M  V30 4792 H 440.972 -2.09485 -6.21653 0
M  V30 4793 H 440.889 -3.7959 -6.53794 0
M  V30 4794 H 442.157 -2.84805 -7.25607 0
M  V30 4795 N 446.386 1.0089 -1.21074 0
M  V30 4796 C 447.802 1.2695 -0.967257 0
M  V30 4797 C 448.002 1.9846 0.348673 0
M  V30 4798 O 447.058 2.28459 1.0753 0
M  V30 4799 C 448.371 2.09697 -2.15517 0
M  V30 4800 C 449.919 2.22937 -2.197 0
M  V30 4801 C 450.394 3.09064 -3.37999 0
M  V30 4802 N 451.885 3.16653 -3.38061 0
M  V30 4803 C 452.62 3.8354 -4.26245 0
M  V30 4804 N 452.116 4.52488 -5.2462 0
M  V30 4805 N 453.909 3.80141 -4.14064 0
M  V30 4806 H 446.06 0.529005 -2.05707 0
M  V30 4807 H 448.323 0.296148 -0.900556 0
M  V30 4808 H 448.029 1.64497 -3.10859 0
M  V30 4809 H 447.903 3.10444 -2.14253 0
M  V30 4810 H 450.29 2.67357 -1.24916 0
M  V30 4811 H 450.371 1.21673 -2.2501 0
M  V30 4812 H 450.015 2.65347 -4.33074 0
M  V30 4813 H 449.945 4.10433 -3.29928 0
M  V30 4814 H 452.436 2.67566 -2.66865 0
M  V30 4815 H 452.749 5.01219 -5.88217 0
M  V30 4816 H 451.094 4.51288 -5.28549 0
M  V30 4817 H 454.285 3.25427 -3.36474 0
M  V30 4818 H 454.458 4.31992 -4.82998 0
M  V30 4819 N 447.864 1.01787 1.20321 0
M  V30 4820 C 448.794 0.609625 2.25401 0
M  V30 4821 C 449.775 -0.375951 1.65893 0
M  V30 4822 O 450.96 -0.261101 1.92437 0
M  V30 4823 C 448.09 -0.0515995 3.47262 0
M  V30 4824 C 447.044 0.855095 4.19371 0
M  V30 4825 C 446.37 0.0595757 5.34667 0
M  V30 4826 C 447.67 2.16374 4.75373 0
M  V30 4827 H 449.364 1.48803 2.59804 0
M  V30 4828 H 446.91 0.716934 1.24884 0
M  V30 4829 H 448.863 -0.348764 4.19954 0
M  V30 4830 H 447.587 -0.964726 3.12027 0
M  V30 4831 H 446.246 1.13628 3.48546 0
M  V30 4832 H 445.894 -0.85524 4.95676 0
M  V30 4833 H 445.594 0.663406 5.83843 0
M  V30 4834 H 447.118 -0.231105 6.10162 0
M  V30 4835 H 448.532 1.92885 5.39878 0
M  V30 4836 H 446.929 2.71853 5.34991 0
M  V30 4837 H 447.999 2.82589 3.94045 0
M  V30 4838 N 449.342 -1.36122 0.79427 0
M  V30 4839 C 450.29 -2.31871 0.184023 0
M  V30 4840 C 451.284 -1.56041 -0.659365 0
M  V30 4841 O 452.49 -1.71266 -0.553906 0
M  V30 4842 H 448.865 -0.750896 0.0407373 0
M  V30 4843 H 450.836 -2.80898 1.00693 0
M  V30 4844 C 449.585 -3.41324 -0.662813 0
M  V30 4845 H 448.908 -3.99793 -0.0231944 0
M  V30 4846 H 450.348 -4.10629 -1.05639 0
M  V30 4847 C 448.807 -2.83308 -1.82313 0
M  V30 4848 O 449.337 -2.75863 -2.91997 0
M  V30 4849 N 447.543 -2.40529 -1.63077 0
M  V30 4850 H 447.09 -2.46785 -0.738591 0
M  V30 4851 H 447.048 -2.02059 -2.40872 0
M  V30 4852 N 450.82 -0.546701 -1.47814 0
M  V30 4853 C 452.045 -0.021268 -2.07389 0
M  V30 4854 C 452.47 1.25822 -1.39822 0
M  V30 4855 O 451.828 1.75111 -0.46968 0
M  V30 4856 C 451.876 0.168502 -3.60206 0
M  V30 4857 O 450.98 1.23347 -3.93522 0
M  V30 4858 H 450.321 -0.0466108 -0.662362 0
M  V30 4859 H 452.851 -0.759387 -1.89985 0
M  V30 4860 H 452.861 0.385982 -4.0617 0
M  V30 4861 H 451.536 -0.766075 -4.08784 0
M  V30 4862 H 450.113 0.997319 -3.59316 0
M  V30 4863 N 452.299 1.55045 -0.282633 0
M  V30 4864 C 453.548 1.98938 0.332667 0
M  V30 4865 C 453.861 1.17455 1.56409 0
M  V30 4866 O 455.067 1.51527 2.25282 0
M  V30 4867 C 453.523 3.54105 0.643226 0
M  V30 4868 C 453.131 4.44374 -0.568814 0
M  V30 4869 C 454.875 4.06569 1.22074 0
M  V30 4870 C 452.782 5.90943 -0.232426 0
M  V30 4871 H 451.712 0.743043 0.128075 0
M  V30 4872 H 454.363 1.79341 -0.388464 0
M  V30 4873 H 452.745 3.69532 1.42346 0
M  V30 4874 H 453.919 4.40718 -1.34551 0
M  V30 4875 H 452.234 4.02585 -1.06369 0
M  V30 4876 H 454.831 5.13626 1.48635 0
M  V30 4877 H 455.174 3.56057 2.15707 0
M  V30 4878 H 455.707 3.94612 0.502621 0
M  V30 4879 H 452.446 6.45567 -1.13683 0
M  V30 4880 H 451.966 5.9765 0.507357 0
M  V30 4881 H 453.645 6.4677 0.172657 0
M  V30 4882 N 453.777 0.010035 1.57597 0
M  V30 4883 C 455.005 -0.683413 1.95287 0
M  V30 4884 C 455.42 -1.66747 0.885481 0
M  V30 4885 O 454.777 -1.82003 -0.134629 0
M  V30 4886 C 454.828 -1.40652 3.33015 0
M  V30 4887 O 454.549 -0.461916 4.35658 0
M  V30 4888 C 456.05 -2.19356 3.85225 0
M  V30 4889 H 453.27 -0.189708 0.643624 0
M  V30 4890 H 455.814 0.0641359 2.04399 0
M  V30 4891 H 453.969 -2.10562 3.2518 0
M  V30 4892 H 454.383 -0.973215 5.15392 0
M  V30 4893 H 455.857 -2.65433 4.83993 0
M  V30 4894 H 456.334 -3.02457 3.18459 0
M  V30 4895 H 456.94 -1.54442 3.96267 0
M  V30 4896 N 455.255 -1.55392 -0.262866 0
M  V30 4897 C 456.483 -1.80513 -1.01108 0
M  V30 4898 C 456.898 -0.583533 -1.79556 0
M  V30 4899 O 456.255 0.447585 -1.76926 0
M  V30 4900 C 456.306 -3.03648 -1.96164 0
M  V30 4901 O 456.027 -4.2109 -1.20893 0
M  V30 4902 C 457.528 -3.41448 -2.82715 0
M  V30 4903 H 454.748 -0.601079 -0.298236 0
M  V30 4904 H 457.292 -2.02425 -0.290582 0
M  V30 4905 H 455.447 -2.83832 -2.63663 0
M  V30 4906 H 455.861 -4.90771 -1.85051 0
M  V30 4907 H 457.335 -4.30751 -3.45192 0
M  V30 4908 H 457.812 -2.61308 -3.53008 0
M  V30 4909 H 458.418 -3.63559 -2.20693 0
M  V30 4910 N 456.733 0.527833 -1.48498 0
M  V30 4911 C 457.696 1.61439 -1.62696 0
M  V30 4912 C 458.696 1.52824 -0.500136 0
M  V30 4913 O 459.886 1.56456 -0.765976 0
M  V30 4914 C 457.018 3.01063 -1.59918 0
M  V30 4915 H 458.211 1.50189 -2.59583 0
M  V30 4916 H 455.764 0.750055 -1.37127 0
M  V30 4917 H 456.499 3.17818 -0.645163 0
M  V30 4918 H 456.284 3.08725 -2.41726 0
M  V30 4919 H 457.774 3.80057 -1.73051 0
M  V30 4920 N 458.211 1.37122 0.776871 0
M  V30 4921 C 459.159 1.32549 1.91138 0
M  V30 4922 C 460.153 0.215119 1.68029 0
M  V30 4923 O 461.359 0.382852 1.75881 0
M  V30 4924 H 457.734 0.412952 0.62847 0
M  V30 4925 H 459.705 2.28332 1.92112 0
M  V30 4926 C 458.454 1.14422 3.28333 0
M  V30 4927 H 457.777 1.99115 3.46689 0
M  V30 4928 H 459.217 1.15272 4.0803 0
M  V30 4929 C 457.676 -0.150434 3.36564 0
M  V30 4930 O 458.206 -1.13584 3.85307 0
M  V30 4931 N 456.412 -0.19939 2.89915 0
M  V30 4932 H 455.959 0.603142 2.5044 0
M  V30 4933 H 455.917 -1.06526 2.95803 0
M  V30 4934 N 459.689 -1.00246 1.21608 0
M  V30 4935 C 461.1 -1.55511 1.03312 0
M  V30 4936 C 461.451 -1.91946 -0.406332 0
M  V30 4937 O 460.576 -1.73753 -1.28992 0
M  V30 4938 C 461.171 -2.82576 1.86913 0
M  V30 4939 C 459.73 -3.34318 1.72941 0
M  V30 4940 C 458.877 -2.07487 1.83968 0
M  V30 4941 H 461.828 -0.824638 1.35593 0
M  V30 4942 H 461.849 -3.54559 1.38087 0
M  V30 4943 H 461.361 -2.56026 2.91672 0
M  V30 4944 H 459.462 -3.65797 0.70877 0
M  V30 4945 H 459.575 -4.05566 2.55055 0
M  V30 4946 H 457.939 -2.20603 1.27304 0
M  V30 4947 H 458.722 -1.83346 2.9024 0
M  V30 4948 N 461.167 -1.02423 -1.1978 0
M  V30 4949 C 462.392 -0.7373 -1.93852 0
M  V30 4950 C 462.817 0.696923 -1.74713 0
M  V30 4951 O 462.175 1.48056 -1.04638 0
M  V30 4952 C 462.223 -1.08783 -3.438 0
M  V30 4953 O 461.327 -0.20383 -4.11896 0
M  V30 4954 H 460.668 -0.27284 -0.605355 0
M  V30 4955 H 463.198 -1.36966 -1.51992 0
M  V30 4956 H 463.208 -1.04276 -3.9445 0
M  V30 4957 H 461.883 -2.13274 -3.57053 0
M  V30 4958 H 460.46 -0.307091 -3.71633 0
M  V30 4959 N 462.645 1.35699 -0.801477 0
M  V30 4960 C 463.87 2.03687 -0.390678 0
M  V30 4961 C 464.295 1.60015 0.988778 0
M  V30 4962 O 463.653 0.774357 1.63931 0
M  V30 4963 C 463.701 3.57439 -0.476404 0
M  V30 4964 O 462.805 4.09208 0.512106 0
M  V30 4965 H 462.146 0.64344 -0.163956 0
M  V30 4966 H 464.676 1.73403 -1.08594 0
M  V30 4967 H 464.686 4.06544 -0.344357 0
M  V30 4968 H 463.361 3.88576 -1.48262 0
M  V30 4969 H 461.938 3.7134 0.340721 0
M  V30 4970 N 464.123 0.554532 1.47522 0
M  V30 4971 C 465.37 0.029479 2.02479 0
M  V30 4972 C 465.698 -1.31929 1.42916 0
M  V30 4973 O 464.953 -1.87112 0.573385 0
M  V30 4974 C 465.252 -0.115927 3.57212 0
M  V30 4975 C 464.918 1.16161 4.3568 0
M  V30 4976 C 463.58 1.51168 4.56839 0
M  V30 4977 C 465.932 2.0083 4.80954 0
M  V30 4978 C 463.26 2.70696 5.2052 0
M  V30 4979 C 465.612 3.19559 5.45953 0
M  V30 4980 C 464.276 3.54882 5.65345 0
M  V30 4981 H 463.546 0.0107871 0.740921 0
M  V30 4982 H 466.193 0.725506 1.77225 0
M  V30 4983 H 464.498 -0.894902 3.81443 0
M  V30 4984 H 466.195 -0.53749 3.97381 0
M  V30 4985 H 462.785 0.879026 4.19489 0
M  V30 4986 H 466.969 1.75093 4.64388 0
M  V30 4987 H 462.225 2.98236 5.33728 0
M  V30 4988 H 466.399 3.85456 5.79997 0
M  V30 4989 H 464.026 4.47596 6.1446 0
M  V30 4990 N 465.601 -1.54893 0.290851 0
M  V30 4991 C 466.549 -2.24579 -0.605576 0
M  V30 4992 C 467.543 -1.24824 -1.14522 0
M  V30 4993 O 468.749 -1.42706 -1.09704 0
M  V30 4994 H 465.124 -0.720946 -0.213872 0
M  V30 4995 H 467.095 -2.984 0.0048173 0
M  V30 4996 C 465.844 -2.99224 -1.77088 0
M  V30 4997 H 465.167 -3.75782 -1.36484 0
M  V30 4998 H 466.607 -3.51281 -2.3744 0
M  V30 4999 C 465.066 -2.05602 -2.66888 0
M  V30 5000 O 465.596 -1.61745 -3.67698 0
M  V30 5001 N 463.802 -1.71771 -2.34399 0
M  V30 5002 H 463.349 -2.07633 -1.52468 0
M  V30 5003 H 463.307 -1.09403 -2.94751 0
M  V30 5004 N 467.08 -0.0183926 -1.57589 0
M  V30 5005 C 468.027 0.967022 -2.09565 0
M  V30 5006 C 468.997 1.32983 -0.995225 0
M  V30 5007 O 470.182 1.42501 -1.26878 0
M  V30 5008 C 467.322 2.24772 -2.61861 0
M  V30 5009 C 466.435 1.94232 -3.85873 0
M  V30 5010 C 465.57 3.16518 -4.26603 0
M  V30 5011 C 464.609 2.81748 -5.43401 0
M  V30 5012 N 463.746 3.96626 -5.79338 0
M  V30 5013 H 468.586 0.516874 -2.93483 0
M  V30 5014 H 466.123 0.243544 -1.4507 0
M  V30 5015 H 468.081 2.99667 -2.90268 0
M  V30 5016 H 466.711 2.67423 -1.8079 0
M  V30 5017 H 465.763 1.09625 -3.64262 0
M  V30 5018 H 467.075 1.64616 -4.70853 0
M  V30 5019 H 466.229 3.99743 -4.56389 0
M  V30 5020 H 464.968 3.49286 -3.40368 0
M  V30 5021 H 463.973 1.96933 -5.1332 0
M  V30 5022 H 465.198 2.50207 -6.31327 0
M  V30 5023 H 463.144 4.29257 -4.96059 0
M  V30 5024 H 463.061 3.70598 -6.58933 0
M  V30 5025 H 464.329 4.80586 -6.13724 0
M  V30 5026 N 468.558 1.5553 0.254621 0
M  V30 5027 C 469.788 1.80784 1.00004 0
M  V30 5028 C 470.196 0.59071 1.79742 0
M  V30 5029 O 469.539 -0.449988 1.78103 0
M  V30 5030 C 469.601 2.99268 1.99196 0
M  V30 5031 C 469.265 4.35595 1.38224 0
M  V30 5032 C 470.262 5.13884 0.788611 0
M  V30 5033 C 467.947 4.82281 1.40393 0
M  V30 5034 C 469.941 6.37004 0.224783 0
M  V30 5035 C 467.628 6.05351 0.836243 0
M  V30 5036 C 468.626 6.82551 0.24769 0
M  V30 5037 O 468.314 8.03297 -0.311249 0
M  V30 5038 H 468.046 0.60565 0.300274 0
M  V30 5039 H 470.6 2.03411 0.285143 0
M  V30 5040 H 468.83 2.72377 2.74496 0
M  V30 5041 H 470.519 3.11682 2.60018 0
M  V30 5042 H 471.285 4.78938 0.764423 0
M  V30 5043 H 467.164 4.22189 1.85142 0
M  V30 5044 H 470.708 6.97203 -0.235235 0
M  V30 5045 H 466.605 6.39776 0.857733 0
M  V30 5046 H 467.373 8.1825 -0.20237 0
M  V30 5047 N 470.036 -0.519951 1.48776 0
M  V30 5048 C 471.285 -1.27175 1.56555 0
M  V30 5049 C 471.598 -1.9401 0.248869 0
M  V30 5050 O 472.804 -2.70725 0.205004 0
M  V30 5051 C 471.26 -2.30811 2.76142 0
M  V30 5052 C 470.868 -1.7 4.14493 0
M  V30 5053 C 472.612 -3.06937 2.9324 0
M  V30 5054 C 470.519 -2.71635 5.25327 0
M  V30 5055 H 469.449 -0.478329 0.582853 0
M  V30 5056 H 472.1 -0.547916 1.75129 0
M  V30 5057 H 470.482 -3.06274 2.51023 0
M  V30 5058 H 471.656 -1.00658 4.49672 0
M  V30 5059 H 469.971 -1.06331 4.02595 0
M  V30 5060 H 472.568 -3.82905 3.73213 0
M  V30 5061 H 472.911 -3.63409 2.03075 0
M  V30 5062 H 473.444 -2.38589 3.18308 0
M  V30 5063 H 470.183 -2.1997 6.1749 0
M  V30 5064 H 469.703 -3.39275 4.94624 0
M  V30 5065 H 471.382 -3.34429 5.53865 0
M  V30 5066 N 471.514 -1.37532 -0.769588 0
M  V30 5067 C 472.762 -1.32597 -1.5252 0
M  V30 5068 C 473.083 0.0884294 -1.94799 0
M  V30 5069 O 472.353 1.03289 -1.66458 0
M  V30 5070 H 470.933 -0.487846 -0.565699 0
M  V30 5071 H 473.595 -1.72044 -0.915806 0
M  V30 5072 H 472.691 -1.96643 -2.42359 0
M  V30 5073 N 472.992 0.995999 -1.22138 0
M  V30 5074 C 473.902 2.11985 -1.00496 0
M  V30 5075 C 474.918 1.7394 0.0457701 0
M  V30 5076 O 476.094 2.00868 -0.146273 0
M  V30 5077 C 473.159 3.41779 -0.582086 0
M  V30 5078 C 472.22 3.93943 -1.70608 0
M  V30 5079 C 471.453 5.17542 -1.30328 0
M  V30 5080 O 471.676 5.70114 -0.180743 0
M  V30 5081 O 470.61 5.63382 -2.11861 0
M  V30 5082 H 474.436 2.33123 -1.94647 0
M  V30 5083 H 472.021 1.10358 -1.00705 0
M  V30 5084 H 473.903 4.1989 -0.356467 0
M  V30 5085 H 472.578 3.22007 0.330592 0
M  V30 5086 H 471.485 3.17019 -1.98619 0
M  V30 5087 H 472.818 4.18141 -2.59651 0
M  V30 5088 N 474.47 1.03057 1.19235 0
M  V30 5089 C 475.7 0.746613 1.92638 0
M  V30 5090 C 476.108 -0.698708 1.75826 0
M  V30 5091 O 475.451 -1.487 1.07861 0
M  V30 5092 C 475.513 1.02024 3.44719 0
M  V30 5093 C 475.177 2.45745 3.85303 0
M  V30 5094 C 476.174 3.43887 3.8992 0
M  V30 5095 C 473.859 2.8019 4.16892 0
M  V30 5096 C 475.853 4.74529 4.2556 0
M  V30 5097 C 473.54 4.1104 4.52205 0
M  V30 5098 C 474.538 5.0802 4.56513 0
M  V30 5099 O 474.226 6.36527 4.91008 0
M  V30 5100 H 473.958 0.272401 0.618687 0
M  V30 5101 H 476.512 1.37853 1.52269 0
M  V30 5102 H 474.742 0.331184 3.85279 0
M  V30 5103 H 476.431 0.725677 3.9936 0
M  V30 5104 H 477.197 3.18614 3.65664 0
M  V30 5105 H 473.076 2.05382 4.12722 0
M  V30 5106 H 476.62 5.50222 4.28838 0
M  V30 5107 H 472.517 4.36086 4.7592 0
M  V30 5108 H 473.285 6.41025 5.08949 0
M  V30 5109 N 475.948 -1.35272 0.808662 0
M  V30 5110 C 476.895 -2.29764 0.218482 0
M  V30 5111 C 477.865 -1.52911 -0.648652 0
M  V30 5112 O 479.05 -1.81341 -0.593297 0
M  V30 5113 C 476.19 -3.39388 -0.625282 0
M  V30 5114 C 475.303 -4.31202 0.262516 0
M  V30 5115 C 474.438 -5.27919 -0.589451 0
M  V30 5116 C 473.477 -6.11371 0.298617 0
M  V30 5117 N 472.614 -7.0022 -0.513443 0
M  V30 5118 H 477.454 -2.79645 1.02968 0
M  V30 5119 H 474.991 -1.37629 0.519303 0
M  V30 5120 H 476.949 -4.01615 -1.12966 0
M  V30 5121 H 475.579 -2.90777 -1.40173 0
M  V30 5122 H 474.631 -3.69962 0.885013 0
M  V30 5123 H 475.943 -4.89748 0.945971 0
M  V30 5124 H 475.097 -5.95529 -1.15888 0
M  V30 5125 H 473.836 -4.69875 -1.30647 0
M  V30 5126 H 472.841 -5.42707 0.880301 0
M  V30 5127 H 474.066 -6.71494 1.01352 0
M  V30 5128 H 472.012 -6.44662 -1.21439 0
M  V30 5129 H 471.929 -7.55917 0.111922 0
M  V30 5130 H 473.197 -7.72175 -1.06608 0
M  V30 5131 N 477.426 -0.562348 -1.47226 0
M  V30 5132 C 478.358 0.220011 -2.28142 0
M  V30 5133 C 479.371 0.874596 -1.37312 0
M  V30 5134 O 480.56 0.747583 -1.62091 0
M  V30 5135 C 477.66 1.32953 -3.11732 0
M  V30 5136 C 476.833 0.770759 -4.30556 0
M  V30 5137 C 475.892 1.76541 -4.95701 0
M  V30 5138 O 474.918 1.3095 -5.53932 0
M  V30 5139 N 476.12 3.09896 -4.90861 0
M  V30 5140 H 478.885 -0.474107 -2.95926 0
M  V30 5141 H 476.446 -0.398761 -1.56912 0
M  V30 5142 H 478.438 1.99378 -3.5218 0
M  V30 5143 H 477.008 1.92681 -2.46156 0
M  V30 5144 H 476.228 -0.0704056 -3.94137 0
M  V30 5145 H 477.516 0.376872 -5.07402 0
M  V30 5146 H 476.914 3.49577 -4.44761 0
M  V30 5147 H 475.471 3.71865 -5.35313 0
M  V30 5148 N 478.904 1.54736 -0.299062 0
M  V30 5149 C 479.851 2.23448 0.577899 0
M  V30 5150 C 480.821 1.21637 1.13109 0
M  V30 5151 O 482.006 1.50252 1.17597 0
M  V30 5152 C 479.146 2.9774 1.74484 0
M  V30 5153 C 478.259 4.1432 1.22323 0
M  V30 5154 C 477.394 4.76199 2.35388 0
M  V30 5155 C 476.433 5.84927 1.80351 0
M  V30 5156 N 475.57 6.4077 2.86982 0
M  V30 5157 H 480.41 2.97996 -0.0146545 0
M  V30 5158 H 477.947 1.47088 -0.0190013 0
M  V30 5159 H 479.905 3.39045 2.43114 0
M  V30 5160 H 478.535 2.25572 2.30905 0
M  V30 5161 H 477.587 3.7797 0.429249 0
M  V30 5162 H 478.899 4.92659 0.780309 0
M  V30 5163 H 478.053 5.20346 3.11969 0
M  V30 5164 H 476.792 3.97188 2.83006 0
M  V30 5165 H 475.797 5.40207 1.02259 0
M  V30 5166 H 477.022 6.65821 1.3364 0
M  V30 5167 H 474.968 5.64643 3.33938 0
M  V30 5168 H 474.885 7.1445 2.4718 0
M  V30 5169 H 476.153 6.89574 3.63466 0
M  V30 5170 N 480.382 0.0267497 1.57577 0
M  V30 5171 C 481.312 -0.954308 2.13108 0
M  V30 5172 C 482.293 -1.34088 1.04663 0
M  V30 5173 O 483.478 -1.41992 1.32484 0
M  V30 5174 C 480.608 -2.23744 2.65624 0
M  V30 5175 C 479.562 -1.99168 3.78835 0
M  V30 5176 C 478.888 -3.33726 4.17769 0
M  V30 5177 C 480.188 -1.33277 5.0501 0
M  V30 5178 H 481.882 -0.491848 2.95332 0
M  V30 5179 H 479.428 -0.23514 1.42067 0
M  V30 5180 H 481.381 -2.92754 3.03106 0
M  V30 5181 H 480.105 -2.72151 1.80558 0
M  V30 5182 H 478.764 -1.32577 3.41788 0
M  V30 5183 H 478.412 -3.79888 3.29688 0
M  V30 5184 H 478.112 -3.18089 4.94058 0
M  V30 5185 H 479.636 -4.04008 4.57832 0
M  V30 5186 H 481.05 -1.92283 5.40093 0
M  V30 5187 H 479.447 -1.28045 5.8628 0
M  V30 5188 H 480.517 -0.305411 4.83937 0
M  V30 5189 N 481.861 -1.55662 -0.24637 0
M  V30 5190 C 483.11 -1.7672 -0.972254 0
M  V30 5191 C 483.423 -0.59078 -1.86465 0
M  V30 5192 O 484.629 -0.684391 -2.62732 0
M  V30 5193 C 483.085 -3.12869 -1.7788 0
M  V30 5194 C 482.693 -4.38161 -0.933768 0
M  V30 5195 C 484.437 -3.43265 -2.49738 0
M  V30 5196 C 482.344 -5.6534 -1.73623 0
M  V30 5197 H 481.274 -0.658795 -0.366749 0
M  V30 5198 H 483.925 -1.82092 -0.226902 0
M  V30 5199 H 482.307 -3.01606 -2.56612 0
M  V30 5200 H 483.481 -4.60413 -0.188736 0
M  V30 5201 H 481.796 -4.15102 -0.328488 0
M  V30 5202 H 484.393 -4.35501 -3.10231 0
M  V30 5203 H 484.736 -2.64614 -3.2138 0
M  V30 5204 H 485.269 -3.55746 -1.78016 0
M  V30 5205 H 482.008 -6.46814 -1.06354 0
M  V30 5206 H 481.528 -5.47188 -2.45653 0
M  V30 5207 H 483.207 -6.04616 -2.30323 0
M  V30 5208 N 483.339 0.512053 -1.4905 0
M  V30 5209 C 484.755 0.84224 -1.35567 0
M  V30 5210 C 484.955 1.97878 -0.380319 0
M  V30 5211 O 484.011 2.51769 0.19201 0
M  V30 5212 C 485.324 1.19286 -2.76028 0
M  V30 5213 C 486.872 1.30171 -2.84648 0
M  V30 5214 C 487.347 1.68568 -4.25851 0
M  V30 5215 N 488.838 1.75638 -4.28609 0
M  V30 5216 C 489.573 2.06769 -5.34821 0
M  V30 5217 N 489.069 2.36201 -6.51292 0
M  V30 5218 N 490.862 2.07927 -5.22229 0
M  V30 5219 H 483.013 -0.237574 -2.11067 0
M  V30 5220 H 485.276 -0.0436747 -0.946993 0
M  V30 5221 H 484.982 0.431199 -3.49047 0
M  V30 5222 H 484.856 2.13889 -3.10695 0
M  V30 5223 H 487.243 2.05411 -2.11873 0
M  V30 5224 H 487.324 0.336457 -2.53578 0
M  V30 5225 H 486.968 0.938824 -4.99148 0
M  V30 5226 H 486.898 2.66174 -4.54377 0
M  V30 5227 H 489.389 1.55097 -3.44606 0
M  V30 5228 H 489.702 2.59112 -7.28066 0
M  V30 5229 H 488.047 2.33681 -6.54536 0
M  V30 5230 H 491.238 1.84403 -4.30248 0
M  V30 5231 H 491.411 2.31856 -6.05101 0
M  V30 5232 N 484.817 1.37938 0.762283 0
M  V30 5233 C 485.764 1.34467 1.87583 0
M  V30 5234 C 486.734 0.208633 1.64785 0
M  V30 5235 O 487.919 0.399494 1.86571 0
M  V30 5236 C 485.059 1.16692 3.24772 0
M  V30 5237 C 484.172 2.39608 3.59461 0
M  V30 5238 C 483.307 2.14631 4.85908 0
M  V30 5239 C 482.346 3.33364 5.13357 0
M  V30 5240 N 481.483 3.07877 6.30996 0
M  V30 5241 H 486.323 2.29669 1.89885 0
M  V30 5242 H 483.86 1.14116 0.928219 0
M  V30 5243 H 485.818 1.04405 4.03925 0
M  V30 5244 H 484.448 0.251333 3.2182 0
M  V30 5245 H 483.5 2.626 2.75219 0
M  V30 5246 H 484.812 3.28128 3.75678 0
M  V30 5247 H 483.966 1.99429 5.72986 0
M  V30 5248 H 482.705 1.23463 4.71814 0
M  V30 5249 H 481.71 3.49094 4.24751 0
M  V30 5250 H 482.935 4.25395 5.29354 0
M  V30 5251 H 480.881 2.19348 6.18241 0
M  V30 5252 H 480.798 3.89944 6.47673 0
M  V30 5253 H 482.066 2.96313 7.20985 0
M  V30 5254 N 486.295 -0.989507 1.22664 0
M  V30 5255 C 487.525 -1.7624 1.0781 0
M  V30 5256 C 487.933 -1.85466 -0.374036 0
M  V30 5257 O 487.276 -1.32645 -1.27087 0
M  V30 5258 C 487.338 -3.21007 1.61849 0
M  V30 5259 C 487.002 -3.35316 3.10503 0
M  V30 5260 C 487.999 -3.22362 4.07896 0
M  V30 5261 C 485.684 -3.60258 3.50028 0
M  V30 5262 C 487.678 -3.34139 5.42798 0
M  V30 5263 C 485.365 -3.71676 4.85078 0
M  V30 5264 C 486.363 -3.58625 5.81272 0
M  V30 5265 O 486.051 -3.69655 7.1387 0
M  V30 5266 H 485.783 -0.560209 0.378341 0
M  V30 5267 H 488.337 -1.25252 1.62792 0
M  V30 5268 H 486.567 -3.73202 1.01279 0
M  V30 5269 H 488.256 -3.80024 1.42606 0
M  V30 5270 H 489.022 -3.03 3.78703 0
M  V30 5271 H 484.901 -3.69492 2.75675 0
M  V30 5272 H 488.445 -3.23869 6.17863 0
M  V30 5273 H 484.342 -3.90545 5.1395 0
M  V30 5274 H 485.11 -3.86507 7.21495 0
M  V30 5275 N 487.773 -1.03688 -1.18687 0
M  V30 5276 C 489.189 -0.755413 -1.4059 0
M  V30 5277 C 489.389 0.656659 -1.905 0
M  V30 5278 O 488.445 1.42144 -2.08689 0
M  V30 5279 C 489.758 -1.7983 -2.41001 0
M  V30 5280 C 491.306 -1.81877 -2.54735 0
M  V30 5281 C 491.781 -2.85148 -3.58406 0
M  V30 5282 N 493.272 -2.84015 -3.6591 0
M  V30 5283 C 494.007 -3.60573 -4.45841 0
M  V30 5284 N 493.503 -4.46871 -5.29413 0
M  V30 5285 N 495.296 -3.49079 -4.40568 0
M  V30 5286 H 487.447 -1.94818 -0.846148 0
M  V30 5287 H 489.71 -0.842727 -0.434184 0
M  V30 5288 H 489.416 -2.81097 -2.1137 0
M  V30 5289 H 489.29 -1.62727 -3.40294 0
M  V30 5290 H 491.677 -0.812836 -2.83685 0
M  V30 5291 H 491.758 -2.03057 -1.55568 0
M  V30 5292 H 491.402 -3.85918 -3.30197 0
M  V30 5293 H 491.332 -2.61224 -4.57241 0
M  V30 5294 H 493.823 -2.21431 -3.0623 0
M  V30 5295 H 494.136 -5.02007 -5.87545 0
M  V30 5296 H 492.481 -4.5094 -5.28846 0
M  V30 5297 H 495.672 -2.81066 -3.74325 0
M  V30 5298 H 495.845 -4.08994 -5.02621 0
M  V30 5299 N 489.251 1.34841 -0.815825 0
M  V30 5300 C 490.498 1.98499 -0.400535 0
M  V30 5301 C 490.826 1.64699 1.03463 0
M  V30 5302 O 490.081 0.907006 1.73412 0
M  V30 5303 C 490.38 3.53273 -0.541541 0
M  V30 5304 C 490.046 4.06966 -1.94138 0
M  V30 5305 C 488.708 4.21341 -2.32433 0
M  V30 5306 C 491.06 4.35933 -2.85677 0
M  V30 5307 C 488.388 4.62007 -3.61617 0
M  V30 5308 C 490.74 4.78042 -4.14317 0
M  V30 5309 C 489.404 4.90622 -4.52599 0
M  V30 5310 H 488.674 0.72636 -0.146566 0
M  V30 5311 H 491.321 1.60902 -1.0384 0
M  V30 5312 H 489.626 3.91387 0.179741 0
M  V30 5313 H 491.323 4.00497 -0.20085 0
M  V30 5314 H 487.913 3.96235 -1.63388 0
M  V30 5315 H 492.097 4.24372 -2.57337 0
M  V30 5316 H 487.353 4.69937 -3.91113 0
M  V30 5317 H 491.527 4.99415 -4.85342 0
M  V30 5318 H 489.154 5.2189 -5.52752 0
M  V30 5319 N 490.729 0.570148 1.46925 0
M  V30 5320 C 491.975 0.0510284 2.02736 0
M  V30 5321 C 492.308 -1.3006 1.44215 0
M  V30 5322 O 491.583 -1.84932 0.602521 0
M  V30 5323 C 491.866 -0.028215 3.60089 0
M  V30 5324 C 491.719 1.35142 4.29018 0
M  V30 5325 C 493.038 -0.735181 4.33916 0
M  V30 5326 H 490.157 0.0200178 0.736728 0
M  V30 5327 H 492.799 0.73493 1.75211 0
M  V30 5328 H 490.949 -0.610648 3.83671 0
M  V30 5329 H 492.621 1.97806 4.16738 0
M  V30 5330 H 490.864 1.9226 3.88868 0
M  V30 5331 H 491.535 1.24857 5.37694 0
M  V30 5332 H 494.011 -0.240519 4.15404 0
M  V30 5333 H 492.887 -0.759622 5.43618 0
M  V30 5334 H 493.148 -1.79397 4.04066 0
M  V30 5335 N 492.207 -1.54576 0.307264 0
M  V30 5336 C 493.453 -2.0056 -0.300612 0
M  V30 5337 C 493.786 -1.1953 -1.53057 0
M  V30 5338 O 493.061 -0.27337 -1.92569 0
M  V30 5339 C 493.344 -3.54167 -0.650987 0
M  V30 5340 C 493.197 -4.45933 0.588539 0
M  V30 5341 C 494.516 -4.14645 -1.47506 0
M  V30 5342 H 491.635 -0.729075 -0.107788 0
M  V30 5343 H 494.277 -1.85286 0.420606 0
M  V30 5344 H 492.427 -3.67313 -1.26544 0
M  V30 5345 H 494.099 -4.44683 1.22697 0
M  V30 5346 H 492.342 -4.16274 1.22058 0
M  V30 5347 H 493.013 -5.51189 0.299153 0
M  V30 5348 H 495.489 -4.04973 -0.955821 0
M  V30 5349 H 494.365 -5.22269 -1.68899 0
M  V30 5350 H 494.626 -3.66921 -2.4662 0
M  V30 5351 N 493.685 -0.035106 -1.57561 0
M  V30 5352 C 494.595 0.960295 -2.14046 0
M  V30 5353 C 495.611 1.3529 -1.0942 0
M  V30 5354 O 496.787 1.43309 -1.41508 0
M  V30 5355 C 493.852 2.22214 -2.66124 0
M  V30 5356 C 492.913 1.8894 -3.85487 0
M  V30 5357 C 492.146 3.09109 -4.35072 0
M  V30 5358 O 492.369 4.21963 -3.83802 0
M  V30 5359 O 491.303 2.91058 -5.26848 0
M  V30 5360 H 495.129 0.509983 -2.99387 0
M  V30 5361 H 492.714 0.185853 -1.48239 0
M  V30 5362 H 494.596 2.96279 -2.99661 0
M  V30 5363 H 493.271 2.66414 -1.83862 0
M  V30 5364 H 492.178 1.12241 -3.56865 0
M  V30 5365 H 493.511 1.49551 -4.6893 0
M  V30 5366 N 495.163 1.55791 0.238111 0
M  V30 5367 C 496.388 1.8244 0.986432 0
M  V30 5368 C 496.813 0.613314 1.7782 0
M  V30 5369 O 496.171 -0.437767 1.75935 0
M  V30 5370 C 496.219 3.06917 1.893 0
M  V30 5371 O 495.323 2.84449 2.98601 0
M  V30 5372 H 494.664 0.601975 0.280218 0
M  V30 5373 H 497.194 2.02987 0.256437 0
M  V30 5374 H 497.204 3.36583 2.30598 0
M  V30 5375 H 495.879 3.947 1.31091 0
M  V30 5376 H 494.456 2.65972 2.61368 0
M  V30 5377 N 496.642 -0.504142 1.49319 0
M  V30 5378 C 497.867 -1.28729 1.62615 0
M  V30 5379 C 498.292 -1.85752 0.296309 0
M  V30 5380 O 497.65 -1.65704 -0.735649 0
M  V30 5381 C 497.698 -2.39561 2.69524 0
M  V30 5382 O 496.802 -3.43324 2.28478 0
M  V30 5383 H 496.143 -0.380172 0.544395 0
M  V30 5384 H 498.673 -0.603872 1.95485 0
M  V30 5385 H 498.683 -2.8537 2.91595 0
M  V30 5386 H 497.358 -1.97423 3.66056 0
M  V30 5387 H 495.935 -3.03455 2.16725 0
M  V30 5388 N 498.12 -1.38341 -0.754957 0
M  V30 5389 C 499.368 -1.34208 -1.51105 0
M  V30 5390 C 499.689 0.0677634 -1.94882 0
M  V30 5391 O 498.959 1.01517 -1.67544 0
M  V30 5392 H 497.539 -0.493819 -0.560493 0
M  V30 5393 H 500.201 -1.73005 -0.897507 0
M  V30 5394 H 499.297 -1.99203 -2.4026 0
M  V30 5395 N 499.598 0.982988 -1.23187 0
M  V30 5396 C 500.508 2.10907 -1.02739 0
M  V30 5397 C 501.524 1.73979 0.0273188 0
M  V30 5398 O 502.7 2.00702 -0.16757 0
M  V30 5399 C 499.765 3.41142 -0.618304 0
M  V30 5400 C 498.826 3.92112 -1.74777 0
M  V30 5401 C 498.059 5.16131 -1.3581 0
M  V30 5402 O 498.282 5.6989 -0.241201 0
M  V30 5403 O 497.216 5.61103 -2.17824 0
M  V30 5404 H 501.042 2.31046 -1.97108 0
M  V30 5405 H 498.627 1.09284 -1.01869 0
M  V30 5406 H 500.509 4.19488 -0.400982 0
M  V30 5407 H 499.184 3.2234 0.296421 0
M  V30 5408 H 498.091 3.14895 -2.0197 0
M  V30 5409 H 499.424 4.15364 -2.64071 0
M  V30 5410 N 501.076 1.04316 1.18135 0
M  V30 5411 C 502.322 0.749128 1.88457 0
M  V30 5412 C 502.655 -0.72149 1.803 0
M  V30 5413 O 501.93 -1.52676 1.205 0
M  V30 5414 C 502.213 1.21905 3.38838 0
M  V30 5415 C 502.066 2.75195 3.55792 0
M  V30 5416 C 503.385 0.811085 4.32561 0
M  V30 5417 H 500.504 0.273611 0.684329 0
M  V30 5418 H 503.146 1.29561 1.38975 0
M  V30 5419 H 501.296 0.754137 3.8111 0
M  V30 5420 H 502.968 3.29743 3.22595 0
M  V30 5421 H 501.211 3.14899 2.98364 0
M  V30 5422 H 501.882 3.03135 4.61317 0
M  V30 5423 H 504.358 1.21118 3.98082 0
M  V30 5424 H 503.234 1.16761 5.36338 0
M  V30 5425 H 503.495 -0.285596 4.41177 0
M  V30 5426 N 502.554 -1.34406 0.822964 0
M  V30 5427 C 503.782 -2.02508 0.424039 0
M  V30 5428 C 504.197 -1.61975 -0.970022 0
M  V30 5429 O 503.554 -0.825228 -1.62777 0
M  V30 5430 C 503.605 -3.57789 0.516657 0
M  V30 5431 O 503.326 -3.96853 1.85577 0
M  V30 5432 C 504.827 -4.43157 0.112637 0
M  V30 5433 H 502.047 -0.649063 0.170173 0
M  V30 5434 H 504.591 -1.7168 1.11113 0
M  V30 5435 H 502.746 -3.87207 -0.122353 0
M  V30 5436 H 503.16 -4.91538 1.83005 0
M  V30 5437 H 504.634 -5.51527 0.228526 0
M  V30 5438 H 505.111 -4.28939 -0.943837 0
M  V30 5439 H 505.717 -4.19067 0.725449 0
M  V30 5440 N 504.032 -0.577932 -1.46621 0
M  V30 5441 C 505.278 -0.0617793 -2.02706 0
M  V30 5442 C 505.611 1.29294 -1.44903 0
M  V30 5443 O 504.886 1.8461 -0.61232 0
M  V30 5444 C 505.169 0.00911824 -3.60099 0
M  V30 5445 C 505.022 -1.37416 -4.28295 0
M  V30 5446 C 506.341 0.712159 -4.343 0
M  V30 5447 H 503.46 -0.0239246 -0.736612 0
M  V30 5448 H 506.102 -0.744211 -1.74818 0
M  V30 5449 H 504.252 0.590292 -3.83989 0
M  V30 5450 H 505.924 -2.00013 -4.15683 0
M  V30 5451 H 504.167 -1.94319 -3.87843 0
M  V30 5452 H 504.838 -1.27707 -5.37024 0
M  V30 5453 H 507.314 0.218486 -4.15526 0
M  V30 5454 H 506.19 0.730782 -5.44014 0
M  V30 5455 H 506.451 1.77251 -4.05012 0
M  V30 5456 N 505.51 1.54411 -0.315457 0
M  V30 5457 C 506.458 2.25514 0.569771 0
M  V30 5458 C 507.452 1.2663 1.12522 0
M  V30 5459 O 508.658 1.44434 1.07419 0
M  V30 5460 H 505.033 0.724257 0.202376 0
M  V30 5461 H 507.004 2.98354 -0.0522895 0
M  V30 5462 C 505.753 3.02004 1.72305 0
M  V30 5463 H 505.076 3.77906 1.30488 0
M  V30 5464 H 506.516 3.55014 2.31821 0
M  V30 5465 C 504.975 2.09822 2.63583 0
M  V30 5466 O 505.505 1.67574 3.65078 0
M  V30 5467 N 503.711 1.75478 2.31637 0
M  V30 5468 H 503.258 2.10032 1.49145 0
M  V30 5469 H 503.216 1.14079 2.92973 0
M  V30 5470 N 506.988 0.0434614 1.5754 0
M  V30 5471 C 508.404 -0.313039 1.565 0
M  V30 5472 C 508.604 -1.71954 1.05043 0
M  V30 5473 O 507.66 -2.425 0.703564 0
M  V30 5474 C 508.973 -0.148544 3.00333 0
M  V30 5475 C 510.521 -0.220231 3.12224 0
M  V30 5476 C 510.996 -0.0843565 4.57922 0
M  V30 5477 N 512.487 -0.140881 4.62986 0
M  V30 5478 C 513.222 -0.0597443 5.73369 0
M  V30 5479 N 512.718 0.0733004 6.92761 0
M  V30 5480 N 514.511 -0.11477 5.61983 0
M  V30 5481 H 506.662 0.96303 1.89313 0
M  V30 5482 H 508.925 0.373164 0.871466 0
M  V30 5483 H 508.631 0.820894 3.41986 0
M  V30 5484 H 508.505 -0.912798 3.65989 0
M  V30 5485 H 510.892 -1.18014 2.70475 0
M  V30 5486 H 510.973 0.574646 2.49262 0
M  V30 5487 H 510.617 0.872192 5.00355 0
M  V30 5488 H 510.547 -0.898281 5.18882 0
M  V30 5489 H 513.038 -0.243273 3.77116 0
M  V30 5490 H 513.351 0.128128 7.72694 0
M  V30 5491 H 511.696 0.10828 6.94916 0
M  V30 5492 H 514.887 -0.217212 4.67596 0
M  V30 5493 H 515.06 -0.0480779 6.47982 0
M  V30 5494 N 508.466 -1.55915 -0.229846 0
M  V30 5495 C 509.414 -1.9258 -1.30444 0
M  V30 5496 C 510.408 -0.806839 -1.48951 0
M  V30 5497 O 511.614 -0.991606 -1.50224 0
M  V30 5498 H 507.989 -0.611878 -0.437161 0
M  V30 5499 H 509.96 -2.82264 -0.96797 0
M  V30 5500 C 508.709 -2.25171 -2.6494 0
M  V30 5501 H 508.032 -3.10782 -2.51504 0
M  V30 5502 H 509.472 -2.54716 -3.38963 0
M  V30 5503 C 507.931 -1.07394 -3.19324 0
M  V30 5504 O 508.461 -0.330759 -4.00336 0
M  V30 5505 N 506.667 -0.859984 -2.77584 0
M  V30 5506 H 506.214 -1.46605 -2.11813 0
M  V30 5507 H 506.172 -0.0736671 -3.14314 0
M  V30 5508 N 509.944 0.496216 -1.49584 0
M  V30 5509 C 510.891 1.59722 -1.66606 0
M  V30 5510 C 511.861 1.58158 -0.507477 0
M  V30 5511 O 513.046 1.76072 -0.735076 0
M  V30 5512 C 510.186 2.97844 -1.74308 0
M  V30 5513 C 509.299 3.09388 -3.01502 0
M  V30 5514 C 508.434 4.38271 -3.00153 0
M  V30 5515 C 507.473 4.43466 -4.21906 0
M  V30 5516 N 506.61 5.63784 -4.1844 0
M  V30 5517 H 511.45 1.44515 -2.60613 0
M  V30 5518 H 508.987 0.703048 -1.29212 0
M  V30 5519 H 510.945 3.77907 -1.76754 0
M  V30 5520 H 509.575 3.11743 -0.837619 0
M  V30 5521 H 508.627 2.22357 -3.08645 0
M  V30 5522 H 509.939 3.09085 -3.91494 0
M  V30 5523 H 509.093 5.2666 -3.01188 0
M  V30 5524 H 507.832 4.41146 -2.07947 0
M  V30 5525 H 506.837 3.53478 -4.21109 0
M  V30 5526 H 508.062 4.42303 -5.1531 0
M  V30 5527 H 506.008 5.67491 -3.29074 0
M  V30 5528 H 505.925 5.65118 -5.02173 0
M  V30 5529 H 507.193 6.54367 -4.23585 0
M  V30 5530 N 511.423 1.38739 0.74761 0
M  V30 5531 C 512.67 1.35274 1.50689 0
M  V30 5532 C 512.998 -0.0553359 1.94421 0
M  V30 5533 O 512.253 -1.03365 1.66175 0
M  V30 5534 C 512.552 2.25992 2.7688 0
M  V30 5535 C 512.218 3.73854 2.5208 0
M  V30 5536 C 510.88 4.14145 2.45025 0
M  V30 5537 C 513.232 4.67427 2.30568 0
M  V30 5538 C 510.56 5.4609 2.14483 0
M  V30 5539 C 512.912 5.99635 2.01545 0
M  V30 5540 C 511.576 6.39004 1.92951 0
M  V30 5541 H 510.846 0.495003 0.55141 0
M  V30 5542 H 513.493 1.71145 0.859158 0
M  V30 5543 H 511.798 1.83196 3.46333 0
M  V30 5544 H 513.495 2.20611 3.34861 0
M  V30 5545 H 510.085 3.41913 2.58444 0
M  V30 5546 H 514.269 4.3714 2.34994 0
M  V30 5547 H 509.525 5.75528 2.06342 0
M  V30 5548 H 513.699 6.71678 1.83906 0
M  V30 5549 H 511.326 7.41165 1.6905 0
M  V30 5550 N 512.901 -0.976442 1.23707 0
M  V30 5551 C 514.147 -1.72081 1.07312 0
M  V30 5552 C 514.48 -1.90275 -0.388476 0
M  V30 5553 O 513.755 -1.4579 -1.28746 0
M  V30 5554 C 514.038 -3.11675 1.80363 0
M  V30 5555 C 513.891 -3.01027 3.3422 0
M  V30 5556 C 515.21 -4.1117 1.5693 0
M  V30 5557 H 512.329 -0.624583 0.391236 0
M  V30 5558 H 514.971 -1.13649 1.52263 0
M  V30 5559 H 513.121 -3.61559 1.42153 0
M  V30 5560 H 514.793 -2.58637 3.81975 0
M  V30 5561 H 513.036 -2.3744 3.63049 0
M  V30 5562 H 513.707 -3.9988 3.80525 0
M  V30 5563 H 516.183 -3.7011 1.90151 0
M  V30 5564 H 515.059 -5.06928 2.10513 0
M  V30 5565 H 515.32 -4.392 0.505548 0
M  V30 5566 N 514.379 -1.04941 -1.1758 0
M  V30 5567 C 515.289 -0.658826 -2.25159 0
M  V30 5568 C 516.305 0.318941 -1.71052 0
M  V30 5569 O 517.481 0.171669 -2.00667 0
M  V30 5570 C 514.546 -0.0369522 -3.4668 0
M  V30 5571 C 513.607 -1.06484 -4.15884 0
M  V30 5572 C 512.84 -0.472551 -5.31604 0
M  V30 5573 O 513.063 0.718736 -5.65854 0
M  V30 5574 O 511.997 -1.20557 -5.89703 0
M  V30 5575 H 515.823 -1.55533 -2.60851 0
M  V30 5576 H 513.408 -0.820819 -1.24832 0
M  V30 5577 H 515.29 0.308784 -4.20267 0
M  V30 5578 H 513.965 0.833238 -3.12792 0
M  V30 5579 H 512.872 -1.46253 -3.44327 0
M  V30 5580 H 514.205 -1.9061 -4.53794 0
M  V30 5581 N 515.857 1.33968 -0.830081 0
M  V30 5582 C 516.787 2.31911 -0.271911 0
M  V30 5583 C 517.768 1.58571 0.61556 0
M  V30 5584 O 518.953 1.86514 0.540946 0
M  V30 5585 C 516.083 3.42737 0.561146 0
M  V30 5586 C 515.037 4.27383 -0.229789 0
M  V30 5587 C 514.363 5.29742 0.726463 0
M  V30 5588 C 515.663 5.02 -1.44197 0
M  V30 5589 H 517.357 2.78844 -1.09025 0
M  V30 5590 H 514.903 1.34061 -0.52571 0
M  V30 5591 H 516.856 4.10276 0.961867 0
M  V30 5592 H 515.58 2.94471 1.41261 0
M  V30 5593 H 514.239 3.61456 -0.611964 0
M  V30 5594 H 513.887 4.77736 1.57408 0
M  V30 5595 H 513.587 5.87255 0.20142 0
M  V30 5596 H 515.111 6.00149 1.12489 0
M  V30 5597 H 516.525 5.62355 -1.11488 0
M  V30 5598 H 514.922 5.69122 -1.90317 0
M  V30 5599 H 515.992 4.31281 -2.2164 0
M  V30 5600 N 517.335 0.585699 1.46312 0
M  V30 5601 C 518.565 0.0780166 2.06453 0
M  V30 5602 C 518.973 -1.2336 1.43454 0
M  V30 5603 O 518.316 -1.75734 0.535086 0
M  V30 5604 C 518.378 -0.158951 3.59148 0
M  V30 5605 C 518.042 1.06752 4.44357 0
M  V30 5606 C 519.039 1.98031 4.80708 0
M  V30 5607 C 516.724 1.2902 4.85447 0
M  V30 5608 C 518.718 3.09924 5.5698 0
M  V30 5609 C 516.405 2.41218 5.61478 0
M  V30 5610 C 517.403 3.31499 5.97158 0
M  V30 5611 O 517.091 4.41747 6.71651 0
M  V30 5612 H 516.823 0.0558894 0.673686 0
M  V30 5613 H 519.377 0.806994 1.88883 0
M  V30 5614 H 517.607 -0.942575 3.75037 0
M  V30 5615 H 519.296 -0.615513 4.01206 0
M  V30 5616 H 520.062 1.82043 4.49539 0
M  V30 5617 H 515.941 0.596567 4.57124 0
M  V30 5618 H 519.485 3.80415 5.84748 0
M  V30 5619 H 515.382 2.57167 5.9206 0
M  V30 5620 H 516.15 4.40152 6.90079 0
M  V30 5621 N 518.813 -1.54241 0.323641 0
M  V30 5622 C 519.761 -2.25813 -0.557804 0
M  V30 5623 C 520.755 -1.27225 -1.11849 0
M  V30 5624 O 521.961 -1.45001 -1.06652 0
M  V30 5625 H 518.336 -0.72532 -0.198532 0
M  V30 5626 H 520.307 -2.98322 0.0681112 0
M  V30 5627 C 519.056 -3.02913 -1.70701 0
M  V30 5628 H 518.379 -3.78593 -1.28482 0
M  V30 5629 H 519.819 -3.56238 -2.29935 0
M  V30 5630 C 518.278 -2.11217 -2.62467 0
M  V30 5631 O 518.808 -1.69508 -3.64184 0
M  V30 5632 N 517.014 -1.76704 -2.30703 0
M  V30 5633 H 516.561 -2.1082 -1.48029 0
M  V30 5634 H 516.519 -1.15631 -2.92364 0
M  V30 5635 N 520.291 -0.0518155 -1.57515 0
M  V30 5636 C 521.201 0.937539 -2.15052 0
M  V30 5637 C 522.217 1.34121 -1.10849 0
M  V30 5638 O 523.393 1.418 -1.4302 0
M  V30 5639 C 520.458 2.19379 -2.68466 0
M  V30 5640 C 519.519 1.84841 -3.87469 0
M  V30 5641 C 518.752 3.04477 -4.38326 0
M  V30 5642 O 518.975 4.17868 -3.88256 0
M  V30 5643 O 517.909 2.85453 -5.29906 0
M  V30 5644 H 521.735 0.478201 -2.99912 0
M  V30 5645 H 519.32 0.17012 -1.48428 0
M  V30 5646 H 521.202 2.93084 -3.02787 0
M  V30 5647 H 519.877 2.64449 -1.86677 0
M  V30 5648 H 518.784 1.08449 -3.58036 0
M  V30 5649 H 520.117 1.44569 -4.7049 0
M  V30 5650 N 521.769 1.56035 0.221574 0
M  V30 5651 C 522.699 1.95434 1.2778 0
M  V30 5652 C 523.68 0.822564 1.48889 0
M  V30 5653 O 524.865 1.08486 1.61072 0
M  V30 5654 C 521.995 2.27102 2.62759 0
M  V30 5655 C 520.949 3.4277 2.56306 0
M  V30 5656 C 520.275 3.60043 3.95314 0
M  V30 5657 C 521.575 4.77742 2.11093 0
M  V30 5658 H 523.269 2.83912 0.950504 0
M  V30 5659 H 520.815 1.36596 0.455791 0
M  V30 5660 H 522.768 2.53256 3.36807 0
M  V30 5661 H 521.492 1.35478 2.97176 0
M  V30 5662 H 520.151 3.16664 1.84715 0
M  V30 5663 H 519.799 2.65794 4.27039 0
M  V30 5664 H 519.499 4.37841 3.91879 0
M  V30 5665 H 521.023 3.88545 4.71025 0
M  V30 5666 H 522.437 5.03102 2.74885 0
M  V30 5667 H 520.834 5.58823 2.18716 0
M  V30 5668 H 521.904 4.731 1.06321 0
M  V30 5669 N 523.247 -0.488276 1.49845 0
M  V30 5670 C 524.475 -1.26527 1.63702 0
M  V30 5671 C 524.89 -1.8618 0.313447 0
M  V30 5672 O 524.247 -1.68432 -0.702624 0
M  V30 5673 C 524.298 -2.3864 2.71538 0
M  V30 5674 O 524.019 -1.81437 3.98763 0
M  V30 5675 C 525.52 -3.29805 2.96215 0
M  V30 5676 H 522.74 -0.383295 0.55075 0
M  V30 5677 H 525.284 -0.584779 1.95961 0
M  V30 5678 H 523.439 -3.02496 2.42023 0
M  V30 5679 H 523.853 -2.55135 4.58265 0
M  V30 5680 H 525.327 -4.04722 3.75372 0
M  V30 5681 H 525.804 -3.87563 2.06619 0
M  V30 5682 H 526.41 -2.71703 3.27196 0
M  V30 5683 N 524.725 -1.39134 -0.740242 0
M  V30 5684 C 525.657 -1.33332 -1.86428 0
M  V30 5685 C 526.67 -0.243042 -1.60976 0
M  V30 5686 O 527.859 -0.501608 -1.71307 0
M  V30 5687 C 524.959 -1.04626 -3.22346 0
M  V30 5688 C 524.132 -2.24826 -3.75196 0
M  V30 5689 C 523.191 -1.92659 -4.89662 0
M  V30 5690 O 522.217 -2.6529 -5.03597 0
M  V30 5691 N 523.419 -0.889575 -5.73643 0
M  V30 5692 H 526.184 -2.30196 -1.91911 0
M  V30 5693 H 523.745 -1.33168 -0.920756 0
M  V30 5694 H 525.737 -0.811347 -3.96484 0
M  V30 5695 H 524.307 -0.165129 -3.12164 0
M  V30 5696 H 523.527 -2.64301 -2.9247 0
M  V30 5697 H 524.815 -3.05015 -4.07239 0
M  V30 5698 H 524.213 -0.287529 -5.64969 0
M  V30 5699 H 522.77 -0.714557 -6.47871 0
M  V30 5700 N 526.204 0.969867 -1.24223 0
M  V30 5701 C 527.453 1.70687 -1.07466 0
M  V30 5702 C 527.766 1.91736 0.386861 0
M  V30 5703 O 528.972 2.62986 0.674581 0
M  V30 5704 C 527.428 3.07217 -1.87472 0
M  V30 5705 C 527.036 2.94018 -3.3802 0
M  V30 5706 C 528.78 3.84804 -1.79237 0
M  V30 5707 C 526.687 4.25844 -4.10379 0
M  V30 5708 H 525.617 0.640067 -0.398536 0
M  V30 5709 H 528.268 1.08092 -1.48285 0
M  V30 5710 H 526.65 3.70628 -1.39466 0
M  V30 5711 H 527.824 2.39632 -3.9359 0
M  V30 5712 H 526.139 2.29898 -3.47183 0
M  V30 5713 H 528.736 4.82417 -2.30603 0
M  V30 5714 H 529.079 4.09356 -0.757197 0
M  V30 5715 H 529.612 3.28115 -2.24912 0
M  V30 5716 H 526.351 4.06486 -5.14246 0
M  V30 5717 H 525.871 4.80054 -3.59594 0
M  V30 5718 H 527.55 4.94475 -4.17257 0
M  V30 5719 N 527.682 1.05563 1.17022 0
M  V30 5720 C 528.929 0.767937 1.87374 0
M  V30 5721 C 529.257 -0.705224 1.81265 0
M  V30 5722 O 528.512 -1.5318 1.21796 0
M  V30 5723 C 528.811 1.19849 3.36706 0
M  V30 5724 C 528.477 2.6745 3.63017 0
M  V30 5725 C 527.139 3.0777 3.69907 0
M  V30 5726 C 529.491 3.62811 3.74189 0
M  V30 5727 C 526.819 4.42307 3.85463 0
M  V30 5728 C 529.171 4.97087 3.91264 0
M  V30 5729 C 527.835 5.37055 3.96394 0
M  V30 5730 H 527.105 0.281008 0.68565 0
M  V30 5731 H 529.752 1.32339 1.38415 0
M  V30 5732 H 528.057 0.562096 3.87747 0
M  V30 5733 H 529.754 0.953038 3.8951 0
M  V30 5734 H 526.344 2.35228 3.58282 0
M  V30 5735 H 530.528 3.32798 3.68183 0
M  V30 5736 H 525.784 4.72769 3.87684 0
M  V30 5737 H 529.958 5.70869 3.9885 0
M  V30 5738 H 527.585 6.41308 4.082 0
M  V30 5739 N 529.16 -1.33526 0.837174 0
M  V30 5740 C 530.388 -2.02047 0.445494 0
M  V30 5741 C 530.803 -1.62995 -0.952788 0
M  V30 5742 O 530.16 -0.842447 -1.61892 0
M  V30 5743 C 530.211 -3.57221 0.554577 0
M  V30 5744 O 529.932 -3.94863 1.89776 0
M  V30 5745 C 531.433 -4.43012 0.159634 0
M  V30 5746 H 528.653 -0.647221 0.177048 0
M  V30 5747 H 531.197 -1.70492 1.12928 0
M  V30 5748 H 529.352 -3.87315 -0.0812781 0
M  V30 5749 H 529.766 -4.89569 1.88208 0
M  V30 5750 H 531.24 -5.51253 0.28701 0
M  V30 5751 H 531.717 -4.29916 -0.898289 0
M  V30 5752 H 532.323 -4.18274 0.769855 0
M  V30 5753 N 530.638 -0.59345 -1.46 0
M  V30 5754 C 531.548 0.135817 -2.34207 0
M  V30 5755 C 532.564 0.875008 -1.50398 0
M  V30 5756 O 533.74 0.835778 -1.83239 0
M  V30 5757 C 530.805 1.12977 -3.27776 0
M  V30 5758 C 529.866 0.394081 -4.27487 0
M  V30 5759 C 529.099 1.34068 -5.16586 0
M  V30 5760 O 529.322 2.5778 -5.08828 0
M  V30 5761 O 528.256 0.845426 -5.95933 0
M  V30 5762 H 532.082 -0.588691 -2.9794 0
M  V30 5763 H 529.667 -0.353784 -1.45151 0
M  V30 5764 H 531.549 1.70261 -3.85473 0
M  V30 5765 H 530.224 1.83556 -2.66625 0
M  V30 5766 H 529.131 -0.220869 -3.73447 0
M  V30 5767 H 530.464 -0.270939 -4.91454 0
M  V30 5768 N 532.116 1.54067 -0.331816 0
M  V30 5769 C 533.363 2.00715 0.268269 0
M  V30 5770 C 533.691 1.21986 1.51491 0
M  V30 5771 O 532.946 0.292309 1.93505 0
M  V30 5772 C 533.245 3.51634 0.639392 0
M  V30 5773 C 532.911 4.48018 -0.509019 0
M  V30 5774 C 531.573 4.74089 -0.824209 0
M  V30 5775 C 533.925 5.05237 -1.28003 0
M  V30 5776 C 531.253 5.54637 -1.91298 0
M  V30 5777 C 533.605 5.86972 -2.35895 0
M  V30 5778 C 532.269 6.11342 -2.67987 0
M  V30 5779 H 531.539 0.734469 0.0981667 0
M  V30 5780 H 534.186 1.8596 -0.457304 0
M  V30 5781 H 532.491 3.6416 1.44551 0
M  V30 5782 H 534.188 3.85175 1.11539 0
M  V30 5783 H 530.778 4.27851 -0.253287 0
M  V30 5784 H 534.962 4.8507 -1.04978 0
M  V30 5785 H 530.218 5.71747 -2.16599 0
M  V30 5786 H 534.392 6.30327 -2.96076 0
M  V30 5787 H 532.019 6.73544 -3.5248 0
M  V30 5788 N 533.594 0.0601682 1.57485 0
M  V30 5789 C 534.542 -0.928899 2.13247 0
M  V30 5790 C 535.536 -1.31616 1.06647 0
M  V30 5791 O 536.742 -1.29476 1.25043 0
M  V30 5792 H 533.117 -0.317455 0.681708 0
M  V30 5793 H 535.088 -0.433566 2.95233 0
M  V30 5794 C 533.837 -2.19121 2.69965 0
M  V30 5795 H 533.16 -1.90204 3.51657 0
M  V30 5796 H 534.6 -2.86465 3.12592 0
M  V30 5797 C 533.059 -2.94195 1.64168 0
M  V30 5798 O 533.589 -3.87468 1.05978 0
M  V30 5799 N 531.795 -2.57089 1.35476 0
M  V30 5800 H 531.342 -1.81314 1.82984 0
M  V30 5801 H 531.3 -3.07624 0.649196 0
M  V30 5802 N 535.072 -1.5615 -0.213296 0
M  V30 5803 C 536.302 -1.83372 -0.951757 0
M  V30 5804 C 536.71 -0.638158 -1.78113 0
M  V30 5805 O 536.053 0.402609 -1.79234 0
M  V30 5806 C 536.115 -3.04444 -1.91192 0
M  V30 5807 C 535.779 -4.39107 -1.26627 0
M  V30 5808 C 536.776 -5.15794 -0.652087 0
M  V30 5809 C 534.461 -4.85834 -1.27556 0
M  V30 5810 C 536.455 -6.37376 -0.055814 0
M  V30 5811 C 534.142 -6.07356 -0.675451 0
M  V30 5812 C 535.14 -6.82967 -0.0666367 0
M  V30 5813 O 534.828 -8.0219 0.524119 0
M  V30 5814 H 534.56 -0.613398 -0.284111 0
M  V30 5815 H 537.114 -2.04096 -0.231112 0
M  V30 5816 H 535.344 -2.79559 -2.67178 0
M  V30 5817 H 537.033 -3.18466 -2.51662 0
M  V30 5818 H 537.799 -4.80796 -0.637172 0
M  V30 5819 H 533.678 -4.26949 -1.73883 0
M  V30 5820 H 537.222 -6.96334 0.420004 0
M  V30 5821 H 533.119 -6.41825 -0.687806 0
M  V30 5822 H 533.887 -8.17426 0.419243 0
M  V30 5823 N 536.55 0.480323 -1.50102 0
M  V30 5824 C 537.513 1.56181 -1.6775 0
M  V30 5825 C 538.513 1.51156 -0.548503 0
M  V30 5826 O 539.703 1.5394 -0.815363 0
M  V30 5827 C 536.835 2.95823 -1.69415 0
M  V30 5828 H 538.028 1.41855 -2.6423 0
M  V30 5829 H 535.581 0.70605 -1.39444 0
M  V30 5830 H 536.316 3.15604 -0.745948 0
M  V30 5831 H 536.101 3.00878 -2.51425 0
M  V30 5832 H 537.591 3.74359 -1.85054 0
M  V30 5833 N 538.028 1.39524 0.732853 0
M  V30 5834 C 538.975 1.38416 1.84688 0
M  V30 5835 C 539.945 0.243539 1.64305 0
M  V30 5836 O 541.13 0.438979 1.85681 0
M  V30 5837 C 538.27 1.23555 3.22224 0
M  V30 5838 C 537.383 2.47179 3.54298 0
M  V30 5839 C 536.518 2.2489 4.81246 0
M  V30 5840 C 535.557 3.44178 5.0617 0
M  V30 5841 N 534.694 3.21192 6.24323 0
M  V30 5842 H 539.534 2.33645 1.84971 0
M  V30 5843 H 537.071 1.16059 0.903804 0
M  V30 5844 H 539.029 1.12949 4.0162 0
M  V30 5845 H 537.659 0.31954 3.21215 0
M  V30 5846 H 536.711 2.68379 2.69587 0
M  V30 5847 H 538.023 3.36022 3.68633 0
M  V30 5848 H 537.177 2.11538 5.68627 0
M  V30 5849 H 535.916 1.33443 4.69089 0
M  V30 5850 H 534.921 3.58025 4.17251 0
M  V30 5851 H 536.146 4.36528 5.20212 0
M  V30 5852 H 534.092 2.32413 6.1345 0
M  V30 5853 H 534.009 4.03594 6.39256 0
M  V30 5854 H 535.277 3.1154 7.14537 0
M  V30 5855 N 539.506 -0.963266 1.24736 0
M  V30 5856 C 540.755 -1.70115 1.08369 0
M  V30 5857 C 541.068 -1.91939 -0.376688 0
M  V30 5858 O 542.274 -2.6334 -0.660624 0
M  V30 5859 C 540.73 -3.06218 1.89099 0
M  V30 5860 C 540.338 -2.92221 3.39574 0
M  V30 5861 C 542.082 -3.83848 1.81275 0
M  V30 5862 C 539.989 -4.23662 4.12631 0
M  V30 5863 H 538.919 -0.637944 0.401924 0
M  V30 5864 H 541.57 -1.07304 1.48856 0
M  V30 5865 H 539.952 -3.69884 1.41429 0
M  V30 5866 H 541.126 -2.37541 3.94856 0
M  V30 5867 H 539.441 -2.28054 3.48397 0
M  V30 5868 H 542.038 -4.81188 2.33158 0
M  V30 5869 H 542.381 -4.08949 0.778895 0
M  V30 5870 H 542.914 -3.26918 2.26649 0
M  V30 5871 H 539.653 -4.03753 5.16395 0
M  V30 5872 H 539.173 -4.78141 3.62135 0
M  V30 5873 H 540.852 -4.92256 4.19873 0
M  V30 5874 N 540.985 -1.06182 -1.16461 0
M  V30 5875 C 542.215 -0.797425 -1.9059 0
M  V30 5876 C 542.623 0.651845 -1.77616 0
M  V30 5877 O 541.966 1.45788 -1.11766 0
M  V30 5878 C 542.028 -1.11128 -3.41893 0
M  V30 5879 C 541.692 -2.55874 -3.78652 0
M  V30 5880 C 542.689 -3.54104 -3.80665 0
M  V30 5881 C 540.374 -2.91144 -4.09317 0
M  V30 5882 C 542.368 -4.85645 -4.12829 0
M  V30 5883 C 540.055 -4.22885 -4.41148 0
M  V30 5884 C 541.053 -5.19945 -4.42883 0
M  V30 5885 O 540.741 -6.49322 -4.73959 0
M  V30 5886 H 540.473 -0.288709 -0.611247 0
M  V30 5887 H 543.027 -1.41841 -1.4856 0
M  V30 5888 H 541.257 -0.433217 -3.84266 0
M  V30 5889 H 542.946 -0.831306 -3.97296 0
M  V30 5890 H 543.712 -3.28197 -3.57088 0
M  V30 5891 H 539.591 -2.16252 -4.07131 0
M  V30 5892 H 543.135 -5.61398 -4.14099 0
M  V30 5893 H 539.032 -4.48551 -4.6419 0
M  V30 5894 H 539.8 -6.54294 -4.91774 0
M  V30 5895 N 542.463 1.3308 -0.844243 0
M  V30 5896 C 543.411 2.31028 -0.269954 0
M  V30 5897 C 544.405 1.58381 0.600997 0
M  V30 5898 O 545.611 1.73203 0.48996 0
M  V30 5899 H 541.986 0.748866 -0.0685782 0
M  V30 5900 H 543.957 2.76967 -1.11049 0
M  V30 5901 C 542.706 3.43549 0.535676 0
M  V30 5902 H 542.029 3.99604 -0.125202 0
M  V30 5903 H 543.469 4.14267 0.903262 0
M  V30 5904 C 541.928 2.8988 1.71672 0
M  V30 5905 O 542.458 2.86511 2.81557 0
M  V30 5906 N 540.664 2.46416 1.54037 0
M  V30 5907 H 540.211 2.49356 0.64649 0
M  V30 5908 H 540.169 2.1086 2.33207 0
M  V30 5909 N 543.941 0.601185 1.45683 0
M  V30 5910 C 545.187 0.0940202 2.02582 0
M  V30 5911 C 545.52 -1.26972 1.46941 0
M  V30 5912 O 544.795 -1.83613 0.641612 0
M  V30 5913 C 545.078 0.0481715 3.60068 0
M  V30 5914 C 544.931 1.44212 4.26055 0
M  V30 5915 C 546.25 -0.642975 4.35378 0
M  V30 5916 H 543.369 0.0356404 0.736138 0
M  V30 5917 H 546.011 0.771929 1.73612 0
M  V30 5918 H 544.161 -0.529128 3.8488 0
M  V30 5919 H 545.833 2.06601 4.12449 0
M  V30 5920 H 544.076 2.00465 3.84703 0
M  V30 5921 H 544.747 1.36234 5.34925 0
M  V30 5922 H 547.223 -0.152351 4.15821 0
M  V30 5923 H 546.099 -0.644141 5.45107 0
M  V30 5924 H 546.36 -1.70785 4.0778 0
M  V30 5925 N 545.419 -1.53889 0.339982 0
M  V30 5926 C 546.351 -2.22435 -0.55275 0
M  V30 5927 C 547.364 -1.22975 -1.06681 0
M  V30 5928 O 548.553 -1.49351 -0.977575 0
M  V30 5929 C 545.653 -2.8882 -1.77302 0
M  V30 5930 C 544.826 -4.14563 -1.39486 0
M  V30 5931 C 543.885 -4.64391 -2.47442 0
M  V30 5932 O 542.911 -5.28687 -2.10899 0
M  V30 5933 N 544.113 -4.40015 -3.78639 0
M  V30 5934 H 546.878 -2.9968 0.0342669 0
M  V30 5935 H 544.439 -1.61068 0.16394 0
M  V30 5936 H 546.431 -3.19072 -2.48948 0
M  V30 5937 H 545.001 -2.15182 -2.26749 0
M  V30 5938 H 544.221 -3.90896 -0.509321 0
M  V30 5939 H 545.509 -4.96362 -1.11813 0
M  V30 5940 H 544.907 -3.88586 -4.11118 0
M  V30 5941 H 543.464 -4.74881 -4.46465 0
M  V30 5942 N 546.897 -0.0685191 -1.57451 0
M  V30 5943 C 547.845 0.917577 -2.13736 0
M  V30 5944 C 548.839 1.31049 -1.07344 0
M  V30 5945 O 550.045 1.28811 -1.25728 0
M  V30 5946 H 546.42 0.313835 -0.683382 0
M  V30 5947 H 548.391 0.417903 -2.95459 0
M  V30 5948 C 547.14 2.17686 -2.71123 0
M  V30 5949 H 546.463 1.88336 -3.52661 0
M  V30 5950 H 547.903 2.84803 -3.14107 0
M  V30 5951 C 546.362 2.9332 -1.65726 0
M  V30 5952 O 546.892 3.86901 -1.08031 0
M  V30 5953 N 545.098 2.56367 -1.36837 0
M  V30 5954 H 544.645 1.80341 -1.83943 0
M  V30 5955 H 544.603 3.07276 -0.665501 0
M  V30 5956 N 548.375 1.56261 0.205012 0
M  V30 5957 C 549.791 1.49623 0.555433 0
M  V30 5958 C 549.991 0.766719 1.86343 0
M  V30 5959 O 549.047 0.313158 2.50551 0
M  V30 5960 C 550.36 2.94253 0.619347 0
M  V30 5961 C 551.908 3.04868 0.708855 0
M  V30 5962 C 552.383 4.50888 0.803969 0
M  V30 5963 N 553.874 4.54999 0.867758 0
M  V30 5964 C 554.609 5.65284 0.96135 0
M  V30 5965 N 554.105 6.85282 1.01786 0
M  V30 5966 N 555.898 5.53174 0.997771 0
M  V30 5967 H 548.049 2.0211 -0.653094 0
M  V30 5968 H 550.312 0.919333 -0.231366 0
M  V30 5969 H 550.018 3.50643 -0.272458 0
M  V30 5970 H 549.892 3.47063 1.47741 0
M  V30 5971 H 552.279 2.48532 1.5911 0
M  V30 5972 H 552.36 2.55199 -0.175205 0
M  V30 5973 H 552.004 5.07846 -0.0738798 0
M  V30 5974 H 551.934 4.98279 1.70369 0
M  V30 5975 H 554.425 3.68588 0.833735 0
M  V30 5976 H 554.738 7.65081 1.08951 0
M  V30 5977 H 553.083 6.8796 0.986706 0
M  V30 5978 H 556.274 4.5835 0.950392 0
M  V30 5979 H 556.447 6.39151 1.06725 0
M  V30 5980 N 549.853 -0.472356 1.50355 0
M  V30 5981 C 550.8 -1.57051 1.69126 0
M  V30 5982 C 551.77 -1.5733 0.532574 0
M  V30 5983 O 552.955 -1.7488 0.762994 0
M  V30 5984 C 550.095 -2.95033 1.79024 0
M  V30 5985 C 549.208 -3.04552 3.06386 0
M  V30 5986 C 548.343 -4.33441 3.07087 0
M  V30 5987 C 547.382 -4.36697 4.28908 0
M  V30 5988 N 546.519 -5.57056 4.27356 0
M  V30 5989 H 551.359 -1.40351 2.62879 0
M  V30 5990 H 548.896 -0.682403 1.30314 0
M  V30 5991 H 550.854 -3.75048 1.82744 0
M  V30 5992 H 549.484 -3.10371 0.887109 0
M  V30 5993 H 548.536 -2.17419 3.12143 0
M  V30 5994 H 549.848 -3.02818 3.96362 0
M  V30 5995 H 549.002 -5.21801 3.09529 0
M  V30 5996 H 547.741 -4.37782 2.14939 0
M  V30 5997 H 546.746 -3.46734 4.2668 0
M  V30 5998 H 547.971 -4.34049 5.22282 0
M  V30 5999 H 545.917 -5.62184 3.3806 0
M  V30 6000 H 545.834 -5.57058 5.111 0
M  V30 6001 H 547.102 -6.47545 4.33942 0
M  V30 6002 N 551.331 -1.39911 -0.725443 0
M  V30 6003 C 552.58 -1.36963 -1.48068 0
M  V30 6004 C 552.893 0.0284478 -1.95579 0
M  V30 6005 O 554.099 0.180535 -2.70899 0
M  V30 6006 C 552.555 -2.40664 -2.67598 0
M  V30 6007 C 552.163 -3.86234 -2.26997 0
M  V30 6008 C 553.907 -2.46807 -3.45379 0
M  V30 6009 C 551.814 -4.81554 -3.43307 0
M  V30 6010 H 550.744 -0.509223 -0.556065 0
M  V30 6011 H 553.395 -1.65602 -0.790454 0
M  V30 6012 H 551.777 -2.05109 -3.38742 0
M  V30 6013 H 552.951 -4.3088 -1.63337 0
M  V30 6014 H 551.266 -3.83475 -1.62284 0
M  V30 6015 H 553.863 -3.15213 -4.31909 0
M  V30 6016 H 554.206 -1.49552 -3.8851 0
M  V30 6017 H 554.739 -2.81303 -2.81271 0
M  V30 6018 H 551.478 -5.80106 -3.05217 0
M  V30 6019 H 550.998 -4.4158 -4.05915 0
M  V30 6020 H 552.677 -5.0091 -4.0951 0
M  V30 6021 N 552.809 0.956637 -1.25245 0
M  V30 6022 C 554.039 1.7332 -1.12445 0
M  V30 6023 C 554.447 1.86392 0.324732 0
M  V30 6024 O 553.79 1.35967 1.23526 0
M  V30 6025 C 553.852 3.16603 -1.70303 0
M  V30 6026 C 553.516 3.26966 -3.19284 0
M  V30 6027 C 554.513 3.11434 -4.16299 0
M  V30 6028 C 552.198 3.50851 -3.59456 0
M  V30 6029 C 554.192 3.1963 -5.51467 0
M  V30 6030 C 551.879 3.58684 -4.94761 0
M  V30 6031 C 552.877 3.43087 -5.90576 0
M  V30 6032 O 552.565 3.50598 -7.2342 0
M  V30 6033 H 552.297 0.549981 -0.393061 0
M  V30 6034 H 554.851 1.20892 -1.66055 0
M  V30 6035 H 553.081 3.70385 -1.11138 0
M  V30 6036 H 554.77 3.76109 -1.52632 0
M  V30 6037 H 555.536 2.92853 -3.86604 0
M  V30 6038 H 551.415 3.62053 -2.85375 0
M  V30 6039 H 554.959 3.07373 -6.26233 0
M  V30 6040 H 550.856 3.76782 -5.24124 0
M  V30 6041 H 551.624 3.67242 -7.31489 0
M  V30 6042 N 554.287 1.06798 1.15896 0
M  V30 6043 C 555.217 0.704677 2.22613 0
M  V30 6044 C 556.198 -0.305252 1.67339 0
M  V30 6045 O 557.383 -0.179247 1.93371 0
M  V30 6046 C 554.513 0.0957325 3.47168 0
M  V30 6047 C 553.467 1.0322 4.15367 0
M  V30 6048 C 552.793 0.286293 5.33933 0
M  V30 6049 C 554.093 2.36341 4.65768 0
M  V30 6050 H 555.787 1.59688 2.53259 0
M  V30 6051 H 553.333 0.769257 1.21731 0
M  V30 6052 H 555.286 -0.170333 4.21056 0
M  V30 6053 H 554.01 -0.831516 3.15838 0
M  V30 6054 H 552.669 1.28309 3.43413 0
M  V30 6055 H 552.317 -0.644237 4.98857 0
M  V30 6056 H 552.017 0.910436 5.80504 0
M  V30 6057 H 553.541 0.0278938 6.10594 0
M  V30 6058 H 554.955 2.1561 5.31211 0
M  V30 6059 H 553.352 2.94299 5.2298 0
M  V30 6060 H 554.422 2.99047 3.81705 0
M  V30 6061 N 555.766 -1.3263 0.851289 0
M  V30 6062 C 556.991 -2.02097 0.466006 0
M  V30 6063 C 557.416 -1.63574 -0.928709 0
M  V30 6064 O 556.774 -0.834665 -1.60944 0
M  V30 6065 C 556.822 -3.55425 0.608737 0
M  V30 6066 O 555.926 -4.10827 -0.359878 0
M  V30 6067 H 555.267 -0.636911 0.187724 0
M  V30 6068 H 557.797 -1.69253 1.14955 0
M  V30 6069 H 557.807 -4.04986 0.495006 0
M  V30 6070 H 556.482 -3.82806 1.62581 0
M  V30 6071 H 555.059 -3.72349 -0.202666 0
M  V30 6072 N 557.244 -0.608902 -1.45362 0
M  V30 6073 C 558.192 0.121639 -2.32282 0
M  V30 6074 C 559.186 0.858301 -1.46046 0
M  V30 6075 O 560.392 0.773718 -1.62523 0
M  V30 6076 H 556.767 0.058086 -0.749753 0
M  V30 6077 H 558.738 -0.629866 -2.91677 0
M  V30 6078 C 557.487 1.1047 -3.29684 0
M  V30 6079 H 556.81 0.547278 -3.96036 0
M  V30 6080 H 558.25 1.58576 -3.9323 0
M  V30 6081 C 556.709 2.17891 -2.56954 0
M  V30 6082 O 557.239 3.25652 -2.35189 0
M  V30 6083 N 555.445 1.93211 -2.17066 0
M  V30 6084 H 554.992 1.05584 -2.34967 0
M  V30 6085 H 554.95 2.6529 -1.68727 0
M  V30 6086 N 558.722 1.53707 -0.348139 0
M  V30 6087 C 559.968 2.01286 0.247332 0
M  V30 6088 C 560.301 1.23546 1.49834 0
M  V30 6089 O 559.576 0.324331 1.91777 0
M  V30 6090 C 559.859 3.55768 0.556858 0
M  V30 6091 C 559.712 4.44216 -0.706564 0
M  V30 6092 C 561.031 4.1841 1.3646 0
M  V30 6093 H 558.15 0.731677 0.0884201 0
M  V30 6094 H 560.792 1.84106 -0.469584 0
M  V30 6095 H 558.942 3.70539 1.16761 0
M  V30 6096 H 560.614 4.41274 -1.34444 0
M  V30 6097 H 558.857 4.12892 -1.33052 0
M  V30 6098 H 559.528 5.50202 -0.445186 0
M  V30 6099 H 562.004 4.07365 0.848113 0
M  V30 6100 H 560.88 5.26563 1.54992 0
M  V30 6101 H 561.141 3.7333 2.36805 0
M  V30 6102 N 560.2 0.0768682 1.57412 0
M  V30 6103 C 561.43 -0.5991 1.97723 0
M  V30 6104 C 561.838 -1.63378 0.954166 0
M  V30 6105 O 561.181 -1.83578 -0.0668706 0
M  V30 6106 C 561.243 -1.32078 3.34358 0
M  V30 6107 C 560.907 -0.438985 4.54887 0
M  V30 6108 C 561.904 0.305492 5.19002 0
M  V30 6109 C 559.589 -0.362378 5.00991 0
M  V30 6110 C 561.583 1.11475 6.27576 0
M  V30 6111 C 559.27 0.450543 6.09437 0
M  V30 6112 C 560.268 1.18777 6.72593 0
M  V30 6113 O 559.956 1.98727 7.7895 0
M  V30 6114 H 559.688 -0.166725 0.655117 0
M  V30 6115 H 562.242 0.147337 2.04871 0
M  V30 6116 H 560.472 -2.1134 3.2384 0
M  V30 6117 H 562.161 -1.88949 3.5924 0
M  V30 6118 H 562.927 0.25593 4.84324 0
M  V30 6119 H 558.806 -0.925832 4.51608 0
M  V30 6120 H 562.35 1.69068 6.76803 0
M  V30 6121 H 558.247 0.501651 6.43548 0
M  V30 6122 H 559.015 1.91214 7.95851 0
M  V30 6123 N 561.678 -1.56367 -0.196722 0
M  V30 6124 C 562.906 -1.84639 -0.933608 0
M  V30 6125 C 563.321 -0.659164 -1.76919 0
M  V30 6126 O 562.678 0.372142 -1.78665 0
M  V30 6127 C 562.729 -3.11694 -1.83109 0
M  V30 6128 O 562.45 -4.25838 -1.02924 0
M  V30 6129 C 563.951 -3.53132 -2.67979 0
M  V30 6130 H 561.171 -0.613188 -0.272473 0
M  V30 6131 H 563.715 -2.03475 -0.204465 0
M  V30 6132 H 561.87 -2.94759 -2.51387 0
M  V30 6133 H 562.284 -4.98178 -1.64069 0
M  V30 6134 H 563.758 -4.45005 -3.26611 0
M  V30 6135 H 564.235 -2.76045 -3.41608 0
M  V30 6136 H 564.841 -3.72592 -2.05074 0
M  V30 6137 N 563.156 0.464375 -1.50603 0
M  V30 6138 C 564.567 1.04507 -1.5471 0
M  V30 6139 C 564.918 1.9297 -0.354542 0
M  V30 6140 O 564.043 2.09763 0.531812 0
M  V30 6141 C 564.638 1.90207 -2.80369 0
M  V30 6142 C 563.197 2.43373 -2.87135 0
M  V30 6143 C 562.344 1.21886 -2.49076 0
M  V30 6144 H 565.295 0.246716 -1.56771 0
M  V30 6145 H 565.316 2.75353 -2.62604 0
M  V30 6146 H 564.828 1.25796 -3.67147 0
M  V30 6147 H 562.929 3.11318 -2.04724 0
M  V30 6148 H 563.042 2.7802 -3.90181 0
M  V30 6149 H 561.406 1.55575 -2.01664 0
M  V30 6150 H 562.189 0.591268 -3.3817 0
M  V30 6151 N 564.634 1.40294 0.718013 0
M  V30 6152 C 565.88 1.38645 1.48005 0
M  V30 6153 C 566.213 -0.0121202 1.94196 0
M  V30 6154 O 565.488 -0.980309 1.67989 0
M  V30 6155 C 565.771 2.37379 2.70782 0
M  V30 6156 C 565.624 3.8625 2.30501 0
M  V30 6157 C 566.943 2.33685 3.72933 0
M  V30 6158 H 564.062 0.504928 0.536858 0
M  V30 6159 H 566.704 1.71411 0.819649 0
M  V30 6160 H 564.854 2.09568 3.27129 0
M  V30 6161 H 566.526 4.24879 1.79655 0
M  V30 6162 H 564.769 4.02202 1.6253 0
M  V30 6163 H 565.44 4.50847 3.18498 0
M  V30 6164 H 567.916 2.58314 3.2621 0
M  V30 6165 H 566.792 3.0482 4.56482 0
M  V30 6166 H 567.053 1.34765 4.21059 0
M  V30 6167 N 566.112 -0.949982 1.2575 0
M  V30 6168 C 567.34 -1.72972 1.13527 0
M  V30 6169 C 567.755 -1.8623 -0.310453 0
M  V30 6170 O 567.112 -1.36336 -1.2132 0
M  V30 6171 C 567.163 -3.14108 1.78936 0
M  V30 6172 O 566.884 -3.01493 3.17858 0
M  V30 6173 C 568.385 -4.08338 1.72554 0
M  V30 6174 H 565.605 -0.541864 0.395758 0
M  V30 6175 H 568.149 -1.19151 1.66202 0
M  V30 6176 H 566.304 -3.64858 1.30221 0
M  V30 6177 H 566.718 -3.90559 3.50092 0
M  V30 6178 H 568.192 -5.04963 2.22973 0
M  V30 6179 H 568.669 -4.33742 0.690251 0
M  V30 6180 H 569.275 -3.63506 2.2078 0
M  V30 6181 N 567.59 -1.07411 -1.15328 0
M  V30 6182 C 568.553 -0.698914 -2.18284 0
M  V30 6183 C 569.553 0.261149 -1.58665 0
M  V30 6184 O 570.743 0.0420277 -1.74149 0
M  V30 6185 C 567.875 -0.0302427 -3.40887 0
M  V30 6186 H 569.068 -1.61045 -2.52991 0
M  V30 6187 H 566.621 -0.870724 -1.298 0
M  V30 6188 H 567.356 0.893505 -3.11748 0
M  V30 6189 H 567.141 -0.720759 -3.85419 0
M  V30 6190 H 568.631 0.21759 -4.17033 0
M  V30 6191 N 569.068 1.32177 -0.85831 0
M  V30 6192 C 570.016 2.30729 -0.294442 0
M  V30 6193 C 571.01 1.59009 0.584165 0
M  V30 6194 O 572.216 1.73713 0.471562 0
M  V30 6195 H 568.591 0.748097 -0.0765171 0
M  V30 6196 H 570.562 2.75774 -1.1398 0
M  V30 6197 C 569.311 3.44098 0.499208 0
M  V30 6198 H 568.634 3.99449 -0.167579 0
M  V30 6199 H 570.074 4.15202 0.859273 0
M  V30 6200 C 568.533 2.91684 1.68588 0
M  V30 6201 O 569.063 2.89481 2.78503 0
M  V30 6202 N 567.269 2.48036 1.51415 0
M  V30 6203 H 566.816 2.50027 0.620006 0
M  V30 6204 H 566.774 2.13322 2.30957 0
M  V30 6205 N 570.547 0.616602 1.45037 0
M  V30 6206 C 571.796 0.112861 2.01384 0
M  V30 6207 C 572.109 -1.26758 1.48969 0
M  V30 6208 O 573.315 -1.86454 1.9735 0
M  V30 6209 C 571.771 0.151057 3.59583 0
M  V30 6210 C 571.379 1.53191 4.20995 0
M  V30 6211 C 573.123 -0.296974 4.2346 0
M  V30 6212 C 571.03 1.526 5.71373 0
M  V30 6213 H 569.96 0.0384254 0.75302 0
M  V30 6214 H 572.611 0.773262 1.66412 0
M  V30 6215 H 570.993 -0.57617 3.91786 0
M  V30 6216 H 572.167 2.28156 4.00352 0
M  V30 6217 H 570.482 1.92279 3.69348 0
M  V30 6218 H 573.079 -0.320712 5.33737 0
M  V30 6219 H 573.422 -1.32145 3.9477 0
M  V30 6220 H 573.955 0.377279 3.96007 0
M  V30 6221 H 570.694 2.52837 6.04776 0
M  V30 6222 H 570.214 0.819064 5.94181 0
M  V30 6223 H 571.893 1.25357 6.3474 0
M  V30 6224 N 572.025 -1.5352 0.356285 0
M  V30 6225 C 572.955 -2.28372 -0.486661 0
M  V30 6226 C 573.936 -1.30432 -1.09185 0
M  V30 6227 O 575.121 -1.59291 -1.11085 0
M  V30 6228 C 572.251 -3.06604 -1.63129 0
M  V30 6229 C 571.205 -4.12154 -1.15381 0
M  V30 6230 C 570.531 -4.78415 -2.38796 0
M  V30 6231 C 571.831 -5.21724 -0.245179 0
M  V30 6232 H 573.525 -2.99083 0.137797 0
M  V30 6233 H 571.071 -1.43841 0.0677134 0
M  V30 6234 H 573.024 -3.57712 -2.22755 0
M  V30 6235 H 571.748 -2.33568 -2.28284 0
M  V30 6236 H 570.407 -3.61978 -0.580294 0
M  V30 6237 H 570.055 -4.01959 -3.02387 0
M  V30 6238 H 569.755 -5.49734 -2.07524 0
M  V30 6239 H 571.279 -5.32313 -2.99125 0
M  V30 6240 H 572.693 -5.68391 -0.748646 0
M  V30 6241 H 571.09 -6.00095 -0.0237608 0
M  V30 6242 H 572.16 -4.79596 0.715229 0
M  V30 6243 N 573.503 -0.0852151 -1.57369 0
M  V30 6244 C 574.78 0.622534 -1.85429 0
M  V30 6245 C 575.16 1.86962 -0.980229 0
M  V30 6246 O 574.508 2.28445 -0.0500219 0
M  V30 6247 C 574.718 0.947374 -3.35896 0
M  V30 6248 C 576.066 1.31509 -4.03721 0
M  V30 6249 O 577.09 1.03869 -3.40719 0
M  V30 6250 O 575.949 1.83231 -5.14868 0
M  V30 6251 H 573.043 0.310513 -0.766492 0
M  V30 6252 H 575.589 -0.117164 -1.69295 0
M  V30 6253 H 574.361 0.0622264 -3.91251 0
M  V30 6254 H 573.984 1.74338 -3.5734 0
M  V30 6255 N 574.981 1.5647 0.188427 0
M  V30 6256 C 576.258 1.71857 0.934058 0
M  V30 6257 C 576.638 0.641867 2.01105 0
M  V30 6258 O 575.986 -0.346098 2.25864 0
M  V30 6259 C 576.196 3.14431 1.5144 0
M  V30 6260 C 577.544 3.74869 1.99396 0
M  V30 6261 O 578.568 3.17601 1.61269 0
M  V30 6262 O 577.427 4.75387 2.69573 0
M  V30 6263 H 574.521 0.701186 0.438483 0
M  V30 6264 H 577.067 1.68768 0.177599 0
M  V30 6265 H 575.839 3.8427 0.738416 0
M  V30 6266 H 575.462 3.21775 2.33552 0
M  V30 6267 N 576.459 -0.456382 1.50847 0
M  V30 6268 C 577.407 -1.57318 1.71329 0
M  V30 6269 C 578.401 -1.59187 0.579287 0
M  V30 6270 O 579.607 -1.6316 0.76018 0
M  V30 6271 H 575.982 -0.5223 0.541024 0
M  V30 6272 H 577.953 -1.3721 2.64983 0
M  V30 6273 C 576.702 -2.95142 1.83811 0
M  V30 6274 H 576.025 -2.94428 2.70467 0
M  V30 6275 H 577.465 -3.72702 2.02161 0
M  V30 6276 C 575.924 -3.31636 0.593224 0
M  V30 6277 O 576.454 -4.00852 -0.260898 0
M  V30 6278 N 574.66 -2.87205 0.442902 0
M  V30 6279 H 574.207 -2.31051 1.13901 0
M  V30 6280 H 574.165 -3.11986 -0.38884 0
M  V30 6281 N 577.937 -1.40673 -0.710563 0
M  V30 6282 C 579.183 -1.39428 -1.47267 0
M  V30 6283 C 579.516 0.00182129 -1.942 0
M  V30 6284 O 578.791 0.971387 -1.68506 0
M  V30 6285 C 579.074 -2.38812 -2.6952 0
M  V30 6286 C 578.927 -3.87467 -2.28449 0
M  V30 6287 C 580.246 -2.3566 -3.71689 0
M  V30 6288 H 577.365 -0.507768 -0.534173 0
M  V30 6289 H 580.007 -1.71843 -0.810547 0
M  V30 6290 H 578.157 -2.113 -3.26013 0
M  V30 6291 H 579.829 -4.25825 -1.77399 0
M  V30 6292 H 578.072 -4.03058 -1.60395 0
M  V30 6293 H 578.743 -4.5253 -3.16103 0
M  V30 6294 H 581.219 -2.6004 -3.24836 0
M  V30 6295 H 580.095 -3.07237 -4.54859 0
M  V30 6296 H 580.356 -1.36996 -4.20339 0
M  V30 6297 N 579.415 0.9433 -1.26252 0
M  V30 6298 C 580.645 1.72117 -1.14277 0
M  V30 6299 C 581.053 1.86726 0.304944 0
M  V30 6300 O 580.396 1.3727 1.22076 0
M  V30 6301 C 580.458 3.14778 -1.73651 0
M  V30 6302 C 580.122 3.23561 -3.22734 0
M  V30 6303 C 581.119 3.07001 -4.19579 0
M  V30 6304 C 578.804 3.47019 -3.63157 0
M  V30 6305 C 580.798 3.13763 -5.54826 0
M  V30 6306 C 578.485 3.53416 -4.98538 0
M  V30 6307 C 579.483 3.36804 -5.94182 0
M  V30 6308 O 579.171 3.42906 -7.27098 0
M  V30 6309 H 578.903 0.545781 -0.398873 0
M  V30 6310 H 581.457 1.19123 -1.67328 0
M  V30 6311 H 579.687 3.69186 -1.1506 0
M  V30 6312 H 581.376 3.74469 -1.56613 0
M  V30 6313 H 582.142 2.88736 -3.89688 0
M  V30 6314 H 578.021 3.59006 -2.89199 0
M  V30 6315 H 581.565 3.00714 -6.29458 0
M  V30 6316 H 577.462 3.71201 -5.28091 0
M  V30 6317 H 578.23 3.59463 -7.35342 0
M  V30 6318 N 580.893 1.08022 1.14757 0
M  V30 6319 C 582.17 0.720386 1.81851 0
M  V30 6320 C 582.55 -0.796375 1.95502 0
M  V30 6321 O 581.898 -1.71339 1.51179 0
M  V30 6322 C 582.108 1.44273 3.17783 0
M  V30 6323 C 583.456 1.59925 3.93331 0
M  V30 6324 O 584.48 1.40407 3.2736 0
M  V30 6325 O 583.339 1.92096 5.11626 0
M  V30 6326 H 580.433 0.257142 0.786007 0
M  V30 6327 H 582.979 1.18155 1.21809 0
M  V30 6328 H 581.751 2.47618 3.02987 0
M  V30 6329 H 581.374 0.97279 3.85516 0
M  V30 6330 N 582.371 -1.3172 0.865308 0
M  V30 6331 C 583.62 -1.96145 0.470098 0
M  V30 6332 C 583.933 -1.69182 -0.981674 0
M  V30 6333 O 585.139 -2.27431 -1.48281 0
M  V30 6334 C 583.595 -3.51129 0.789732 0
M  V30 6335 C 583.203 -3.86938 2.25795 0
M  V30 6336 C 584.947 -4.2197 0.462765 0
M  V30 6337 C 582.854 -5.35012 2.52024 0
M  V30 6338 H 581.784 -0.734105 0.172065 0
M  V30 6339 H 584.435 -1.49959 1.05757 0
M  V30 6340 H 582.817 -3.95781 0.131571 0
M  V30 6341 H 583.991 -3.5326 2.95879 0
M  V30 6342 H 582.306 -3.29149 2.55049 0
M  V30 6343 H 584.903 -5.30904 0.636019 0
M  V30 6344 H 585.246 -4.12005 -0.59645 0
M  V30 6345 H 585.779 -3.82936 1.07727 0
M  V30 6346 H 582.518 -5.50008 3.56611 0
M  V30 6347 H 582.038 -5.70058 1.8653 0
M  V30 6348 H 583.717 -6.0222 2.36515 0
M  V30 6349 N 583.85 -0.624285 -1.44708 0
M  V30 6350 C 584.782 0.12305 -2.28869 0
M  V30 6351 C 585.795 0.81557 -1.40898 0
M  V30 6352 O 586.984 0.678162 -1.65116 0
M  V30 6353 C 584.084 1.19612 -3.1709 0
M  V30 6354 C 583.257 0.587452 -4.33437 0
M  V30 6355 C 582.316 1.55358 -5.02743 0
M  V30 6356 O 581.341 1.07338 -5.58988 0
M  V30 6357 N 582.543 2.88798 -5.03563 0
M  V30 6358 H 585.308 -0.599193 -2.93649 0
M  V30 6359 H 582.87 -0.464954 -1.5508 0
M  V30 6360 H 584.861 1.84261 -3.60319 0
M  V30 6361 H 583.432 1.82067 -2.54107 0
M  V30 6362 H 582.652 -0.237509 -3.93484 0
M  V30 6363 H 583.94 0.161326 -5.08544 0
M  V30 6364 H 583.338 3.30399 -4.59188 0
M  V30 6365 H 581.894 3.48826 -5.50603 0
M  V30 6366 N 585.328 1.53329 -0.364422 0
M  V30 6367 C 586.276 2.27212 0.497737 0
M  V30 6368 C 587.27 1.30146 1.08437 0
M  V30 6369 O 588.476 1.47778 1.0277 0
M  V30 6370 H 584.851 0.730329 0.179232 0
M  V30 6371 H 586.822 2.98037 -0.147182 0
M  V30 6372 C 585.571 3.07333 1.6261 0
M  V30 6373 H 584.894 3.81866 1.184 0
M  V30 6374 H 586.334 3.62209 2.20409 0
M  V30 6375 C 584.793 2.18102 2.56775 0
M  V30 6376 O 585.323 1.79104 3.59562 0
M  V30 6377 N 583.529 1.82759 2.25937 0
M  V30 6378 H 583.076 2.14671 1.42387 0
M  V30 6379 H 583.034 1.23342 2.89196 0
M  V30 6380 N 586.806 0.0935595 1.57322 0
M  V30 6381 C 588.054 -0.569383 1.93913 0
M  V30 6382 C 588.375 -1.68817 0.976009 0
M  V30 6383 O 587.645 -1.9588 0.0278099 0
M  V30 6384 H 586.225 -0.21332 0.715894 0
M  V30 6385 H 588.887 0.156531 1.9427 0
M  V30 6386 H 587.983 -0.980577 2.96296 0
M  V30 6387 N 588.284 -1.56567 -0.180126 0
M  V30 6388 C 589.531 -1.81492 -0.898167 0
M  V30 6389 C 589.859 -0.669225 -1.82624 0
M  V30 6390 O 589.114 0.344096 -1.92651 0
M  V30 6391 C 589.413 -3.1252 -1.73395 0
M  V30 6392 C 589.079 -4.40658 -0.955567 0
M  V30 6393 C 587.741 -4.75465 -0.740707 0
M  V30 6394 C 590.093 -5.19593 -0.408948 0
M  V30 6395 C 587.421 -5.86691 0.0320128 0
M  V30 6396 C 589.773 -6.31627 0.350638 0
M  V30 6397 C 588.437 -6.65007 0.576378 0
M  V30 6398 H 587.707 -0.664125 -0.328662 0
M  V30 6399 H 590.354 -1.908 -0.163616 0
M  V30 6400 H 588.659 -2.98515 -2.53763 0
M  V30 6401 H 590.356 -3.29013 -2.29241 0
M  V30 6402 H 586.946 -4.13352 -1.13306 0
M  V30 6403 H 591.13 -4.93104 -0.562307 0
M  V30 6404 H 586.386 -6.11016 0.216735 0
M  V30 6405 H 590.56 -6.92001 0.781497 0
M  V30 6406 H 588.187 -7.51033 1.17703 0
M  V30 6407 N 589.762 0.448376 -1.51087 0
M  V30 6408 C 590.71 1.56407 -1.72161 0
M  V30 6409 C 591.704 1.58878 -0.587721 0
M  V30 6410 O 592.91 1.62755 -0.768822 0
M  V30 6411 H 589.285 0.519423 -0.543786 0
M  V30 6412 H 591.256 1.35803 -2.65707 0
M  V30 6413 C 590.005 2.94163 -1.85373 0
M  V30 6414 H 589.328 2.9299 -2.72024 0
M  V30 6415 H 590.768 3.71625 -2.04135 0
M  V30 6416 C 589.227 3.31317 -0.610803 0
M  V30 6417 O 589.757 4.00985 0.239636 0
M  V30 6418 N 587.963 2.86966 -0.458127 0
M  V30 6419 H 587.51 2.30443 -1.15124 0
M  V30 6420 H 587.468 3.12188 0.372289 0
M  V30 6421 N 591.24 1.41047 0.703093 0
M  V30 6422 C 592.489 1.39301 1.4587 0
M  V30 6423 C 592.802 0.00267077 1.956 0
M  V30 6424 O 594.008 -0.137414 2.71152 0
M  V30 6425 C 592.464 2.44891 2.63735 0
M  V30 6426 C 592.072 3.89796 2.20824 0
M  V30 6427 C 593.816 2.5227 3.41409 0
M  V30 6428 C 591.723 4.86955 3.35602 0
M  V30 6429 H 590.653 0.518005 0.547893 0
M  V30 6430 H 593.304 1.66839 0.764009 0
M  V30 6431 H 591.686 2.10472 3.35436 0
M  V30 6432 H 592.86 4.33424 1.56461 0
M  V30 6433 H 591.175 3.86008 1.56163 0
M  V30 6434 H 593.772 3.22044 4.26839 0
M  V30 6435 H 594.115 1.55714 3.86081 0
M  V30 6436 H 594.648 2.85742 2.7676 0
M  V30 6437 H 591.387 5.84888 2.9595 0
M  V30 6438 H 590.907 4.47982 3.98839 0
M  V30 6439 H 592.586 5.07361 4.01489 0
M  V30 6440 N 592.718 -0.936591 1.26751 0
M  V30 6441 C 594.129 -1.49816 1.1141 0
M  V30 6442 C 594.48 -1.9383 -0.304015 0
M  V30 6443 O 593.605 -1.80346 -1.196 0
M  V30 6444 C 594.2 -2.72271 2.01629 0
M  V30 6445 C 592.759 -3.2468 1.9042 0
M  V30 6446 C 591.906 -1.97444 1.94708 0
M  V30 6447 H 594.857 -0.751604 1.39773 0
M  V30 6448 H 594.878 -3.46741 1.56688 0
M  V30 6449 H 594.39 -2.40205 3.04833 0
M  V30 6450 H 592.491 -3.61525 0.901674 0
M  V30 6451 H 592.604 -3.91476 2.76195 0
M  V30 6452 H 590.968 -2.13545 1.38818 0
M  V30 6453 H 591.751 -1.67703 2.9955 0
M  V30 6454 N 594.196 -1.08629 -1.14182 0
M  V30 6455 C 595.143 -0.718299 -2.19338 0
M  V30 6456 C 596.113 0.296587 -1.63431 0
M  V30 6457 O 597.298 0.180079 -1.89948 0
M  V30 6458 C 594.438 -0.136203 -3.44831 0
M  V30 6459 C 593.551 -1.20414 -4.14879 0
M  V30 6460 C 592.686 -0.585666 -5.27962 0
M  V30 6461 C 591.725 -1.63548 -5.89846 0
M  V30 6462 N 590.862 -1.03864 -6.94375 0
M  V30 6463 H 595.702 -1.61932 -2.50164 0
M  V30 6464 H 593.239 -0.80919 -1.22844 0
M  V30 6465 H 595.197 0.219021 -4.16625 0
M  V30 6466 H 593.827 0.728121 -3.14481 0
M  V30 6467 H 592.879 -1.67676 -3.41451 0
M  V30 6468 H 594.191 -1.99959 -4.56966 0
M  V30 6469 H 593.345 -0.178818 -6.06436 0
M  V30 6470 H 592.084 0.24142 -4.87102 0
M  V30 6471 H 591.089 -2.05197 -5.10073 0
M  V30 6472 H 592.314 -2.46509 -6.3278 0
M  V30 6473 H 590.26 -0.232687 -6.55587 0
M  V30 6474 H 590.177 -1.77116 -7.3496 0
M  V30 6475 H 591.445 -0.657724 -7.7672 0
M  V30 6476 N 595.674 1.31259 -0.872281 0
M  V30 6477 C 596.899 2.0133 -0.498099 0
M  V30 6478 C 597.324 1.65031 0.902568 0
M  V30 6479 O 596.682 0.860164 1.59596 0
M  V30 6480 C 596.73 3.54411 -0.665205 0
M  V30 6481 O 595.834 4.11347 0.294473 0
M  V30 6482 H 595.175 0.633844 -0.197832 0
M  V30 6483 H 597.705 1.67402 -1.17633 0
M  V30 6484 H 597.715 4.04147 -0.559373 0
M  V30 6485 H 596.39 3.80171 -1.68651 0
M  V30 6486 H 594.967 3.72624 0.143403 0
M  V30 6487 N 597.152 0.631951 1.44375 0
M  V30 6488 C 598.1 -0.0846693 2.32446 0
M  V30 6489 C 599.094 -0.834957 1.47393 0
M  V30 6490 O 600.3 -0.747764 1.63733 0
M  V30 6491 H 596.675 -0.0461508 0.750583 0
M  V30 6492 H 598.646 0.67619 2.90638 0
M  V30 6493 C 597.395 -1.05211 3.314 0
M  V30 6494 H 596.718 -0.484203 3.96857 0
M  V30 6495 H 598.158 -1.523 3.95703 0
M  V30 6496 C 596.617 -2.13776 2.60387 0
M  V30 6497 O 597.147 -3.21869 2.4034 0
M  V30 6498 N 595.353 -1.89733 2.20113 0
M  V30 6499 H 594.9 -1.01833 2.36618 0
M  V30 6500 H 594.858 -2.62572 1.72926 0
M  V30 6501 N 598.631 -1.53133 0.372548 0
M  V30 6502 C 599.561 -2.28876 -0.462412 0
M  V30 6503 C 600.542 -1.31583 -1.07796 0
M  V30 6504 O 601.727 -1.60461 -1.09389 0
M  V30 6505 C 598.857 -3.08317 -1.59868 0
M  V30 6506 C 597.811 -4.13355 -1.11003 0
M  V30 6507 C 597.137 -4.8092 -2.33708 0
M  V30 6508 C 598.437 -5.21955 -0.18983 0
M  V30 6509 H 600.131 -2.9892 0.169511 0
M  V30 6510 H 597.677 -1.43761 0.0829658 0
M  V30 6511 H 599.63 -3.60055 -2.18949 0
M  V30 6512 H 598.354 -2.35976 -2.25794 0
M  V30 6513 H 597.013 -3.62573 -0.541869 0
M  V30 6514 H 596.661 -4.05144 -2.98106 0
M  V30 6515 H 596.361 -5.51904 -2.01682 0
M  V30 6516 H 597.885 -5.35455 -2.93462 0
M  V30 6517 H 599.299 -5.69153 -0.688319 0
M  V30 6518 H 597.696 -6.00087 0.0398887 0
M  V30 6519 H 598.766 -4.78811 0.766057 0
M  V30 6520 N 600.109 -0.101901 -1.5727 0
M  V30 6521 C 601.057 0.872034 -2.15635 0
M  V30 6522 C 602.051 1.28742 -1.10099 0
M  V30 6523 O 603.257 1.26116 -1.28432 0
M  V30 6524 H 599.632 0.299269 -0.689886 0
M  V30 6525 H 601.603 0.355137 -2.96279 0
M  V30 6526 C 600.352 2.11886 -2.7568 0
M  V30 6527 H 599.675 1.80813 -3.56576 0
M  V30 6528 H 601.115 2.78077 -3.20077 0
M  V30 6529 C 599.574 2.89739 -1.7191 0
M  V30 6530 O 600.104 3.84522 -1.16213 0
M  V30 6531 N 598.31 2.53407 -1.42245 0
M  V30 6532 H 597.857 1.76398 -1.87727 0
M  V30 6533 H 597.815 3.05795 -0.730529 0
M  V30 6534 N 601.587 1.56661 0.17182 0
M  V30 6535 C 602.833 1.82235 0.889845 0
M  V30 6536 C 603.166 0.679673 1.81918 0
M  V30 6537 O 602.441 -0.318404 1.91876 0
M  V30 6538 C 602.724 3.18195 1.68595 0
M  V30 6539 C 602.577 4.42989 0.779773 0
M  V30 6540 C 603.896 3.5109 2.65375 0
M  V30 6541 H 601.015 0.66291 0.322056 0
M  V30 6542 H 603.657 1.89358 0.15608 0
M  V30 6543 H 601.807 3.12253 2.3115 0
M  V30 6544 H 603.479 4.60997 0.16714 0
M  V30 6545 H 601.722 4.33711 0.0877964 0
M  V30 6546 H 602.393 5.3467 1.3723 0
M  V30 6547 H 604.869 3.57482 2.12946 0
M  V30 6548 H 603.745 4.47298 3.18144 0
M  V30 6549 H 604.006 2.75768 3.45549 0
M  V30 6550 N 603.065 -0.440357 1.51323 0
M  V30 6551 C 603.995 -1.54174 1.75364 0
M  V30 6552 C 604.976 -1.59039 0.603375 0
M  V30 6553 O 606.161 -1.74815 0.845774 0
M  V30 6554 C 603.291 -2.92277 1.87593 0
M  V30 6555 C 602.245 -3.02274 3.03009 0
M  V30 6556 C 601.571 -4.42327 3.00418 0
M  V30 6557 C 602.871 -2.76634 4.43024 0
M  V30 6558 H 604.565 -1.34307 2.67585 0
M  V30 6559 H 602.111 -0.644678 1.28763 0
M  V30 6560 H 604.064 -3.69284 2.02995 0
M  V30 6561 H 602.788 -3.13369 0.920179 0
M  V30 6562 H 601.447 -2.27706 2.87307 0
M  V30 6563 H 601.095 -4.60382 2.02626 0
M  V30 6564 H 600.795 -4.49946 3.77918 0
M  V30 6565 H 602.319 -5.21312 3.17909 0
M  V30 6566 H 603.733 -3.43376 4.59093 0
M  V30 6567 H 602.13 -2.95666 5.22208 0
M  V30 6568 H 603.2 -1.72262 4.5327 0
M  V30 6569 N 604.543 -1.41418 -0.695603 0
M  V30 6570 C 605.79 -1.40774 -1.45564 0
M  V30 6571 C 606.118 -0.0168604 -1.94493 0
M  V30 6572 O 605.373 0.971259 -1.69897 0
M  V30 6573 C 605.672 -2.36112 -2.68302 0
M  V30 6574 C 605.338 -3.82952 -2.38031 0
M  V30 6575 C 604 -4.22954 -2.29486 0
M  V30 6576 C 606.352 -4.75662 -2.13061 0
M  V30 6577 C 603.68 -5.53674 -1.94067 0
M  V30 6578 C 606.032 -6.06702 -1.79151 0
M  V30 6579 C 604.696 -6.45725 -1.69102 0
M  V30 6580 H 603.966 -0.515128 -0.532658 0
M  V30 6581 H 606.613 -1.74216 -0.795047 0
M  V30 6582 H 604.918 -1.95924 -3.39295 0
M  V30 6583 H 606.615 -2.32887 -3.26442 0
M  V30 6584 H 603.205 -3.5127 -2.45576 0
M  V30 6585 H 607.389 -4.45561 -2.18608 0
M  V30 6586 H 602.645 -5.8279 -1.8484 0
M  V30 6587 H 606.819 -6.78041 -1.5885 0
M  V30 6588 H 604.446 -7.46929 -1.41426 0
M  V30 6589 N 606.021 0.929856 -1.27246 0
M  V30 6590 C 606.954 2.03069 -1.04106 0
M  V30 6591 C 607.932 1.62556 0.0378417 0
M  V30 6592 O 609.116 1.88197 -0.106869 0
M  V30 6593 C 606.243 3.33718 -0.578778 0
M  V30 6594 C 605.289 3.93209 -1.65193 0
M  V30 6595 S 606.122 4.26068 -3.24386 0
M  V30 6596 C 607.278 5.598 -2.79954 0
M  V30 6597 H 607.511 2.22386 -1.97311 0
M  V30 6598 H 605.044 1.07269 -1.11053 0
M  V30 6599 H 607.002 4.09261 -0.31874 0
M  V30 6600 H 605.663 3.12328 0.333182 0
M  V30 6601 H 604.856 4.87482 -1.27973 0
M  V30 6602 H 604.458 3.24243 -1.86393 0
M  V30 6603 H 606.75 6.39004 -2.25123 0
M  V30 6604 H 607.693 6.01917 -3.72963 0
M  V30 6605 H 608.101 5.20219 -2.19164 0
M  V30 6606 N 607.499 1.09233 1.13605 0
M  V30 6607 C 608.747 0.825525 1.84471 0
M  V30 6608 C 609.068 -0.650702 1.83823 0
M  V30 6609 O 608.338 -1.47204 1.29259 0
M  V30 6610 H 606.918 0.3024 0.683054 0
M  V30 6611 H 609.58 1.38006 1.37624 0
M  V30 6612 H 608.676 1.17727 2.89045 0
M  V30 6613 N 608.977 -1.30795 0.87923 0
M  V30 6614 C 609.909 -2.27241 0.299025 0
M  V30 6615 C 610.922 -1.53472 -0.543166 0
M  V30 6616 O 612.111 -1.74756 -0.363651 0
M  V30 6617 C 609.211 -3.33655 -0.593931 0
M  V30 6618 C 608.384 -4.36857 0.2179 0
M  V30 6619 C 607.443 -5.22715 -0.604646 0
M  V30 6620 O 606.469 -5.69192 -0.0293838 0
M  V30 6621 N 607.671 -5.48008 -1.91488 0
M  V30 6622 H 610.436 -2.77667 1.12788 0
M  V30 6623 H 607.997 -1.43914 0.741637 0
M  V30 6624 H 609.989 -3.88013 -1.15012 0
M  V30 6625 H 608.559 -2.83202 -1.32346 0
M  V30 6626 H 607.779 -3.82444 0.955536 0
M  V30 6627 H 609.067 -5.02869 0.774614 0
M  V30 6628 H 608.465 -5.1202 -2.40525 0
M  V30 6629 H 607.022 -6.05264 -2.41864 0
M  V30 6630 N 610.455 -0.639598 -1.44038 0
M  V30 6631 C 611.403 0.0723409 -2.32487 0
M  V30 6632 C 612.397 0.827129 -1.47834 0
M  V30 6633 O 613.603 0.73907 -1.64127 0
M  V30 6634 H 609.978 0.0421696 -0.750817 0
M  V30 6635 H 611.949 -0.691593 -2.90275 0
M  V30 6636 C 610.698 1.03452 -3.31953 0
M  V30 6637 H 610.021 0.46315 -3.97108 0
M  V30 6638 H 611.461 1.502 -3.96505 0
M  V30 6639 C 609.92 2.12392 -2.61518 0
M  V30 6640 O 610.45 3.2059 -2.42044 0
M  V30 6641 N 608.656 1.88563 -2.21116 0
M  V30 6642 H 608.203 1.00577 -2.37154 0
M  V30 6643 H 608.161 2.61651 -1.74316 0
M  V30 6644 N 611.933 1.52934 -0.380664 0
M  V30 6645 C 612.863 2.29118 0.450268 0
M  V30 6646 C 613.844 1.32153 1.07096 0
M  V30 6647 O 615.029 1.61038 1.08537 0
M  V30 6648 C 612.159 3.09161 1.58231 0
M  V30 6649 C 611.113 4.13938 1.0881 0
M  V30 6650 C 610.439 4.82153 2.31155 0
M  V30 6651 C 611.739 5.22048 0.162146 0
M  V30 6652 H 613.433 2.98826 -0.185361 0
M  V30 6653 H 610.979 1.43715 -0.0905886 0
M  V30 6654 H 612.932 3.61211 2.17036 0
M  V30 6655 H 611.656 2.3717 2.2454 0
M  V30 6656 H 610.315 3.62855 0.522633 0
M  V30 6657 H 609.963 4.06719 2.95953 0
M  V30 6658 H 609.663 5.52966 1.98752 0
M  V30 6659 H 611.187 5.37004 2.90618 0
M  V30 6660 H 612.601 5.6951 0.658126 0
M  V30 6661 H 610.998 6.00057 -0.0717122 0
M  V30 6662 H 612.068 4.78398 -0.791438 0
M  V30 6663 N 613.412 0.11024 1.57214 0
M  V30 6664 C 614.637 -0.561179 1.99664 0
M  V30 6665 C 615.062 -1.59985 0.989266 0
M  V30 6666 O 614.42 -1.81255 -0.0402399 0
M  V30 6667 C 614.468 -1.17189 3.41027 0
M  V30 6668 O 613.572 -2.28755 3.4314 0
M  V30 6669 H 612.913 -0.14101 0.648855 0
M  V30 6670 H 615.443 0.196128 2.03658 0
M  V30 6671 H 615.453 -1.50954 3.79047 0
M  V30 6672 H 614.128 -0.411041 4.13864 0
M  V30 6673 H 612.705 -1.96495 3.16929 0
M  V30 6674 N 614.89 -1.56749 -0.16351 0
M  V30 6675 C 616.306 -1.51043 -0.515567 0
M  V30 6676 C 616.506 -0.815855 -1.84245 0
M  V30 6677 O 615.562 -0.379477 -2.49632 0
M  V30 6678 C 616.875 -2.95791 -0.541114 0
M  V30 6679 C 618.423 -3.0664 -0.627776 0
M  V30 6680 C 618.898 -4.52861 -0.684141 0
M  V30 6681 N 620.389 -4.5714 -0.746818 0
M  V30 6682 C 621.124 -5.67634 -0.811137 0
M  V30 6683 N 620.62 -6.8774 -0.835811 0
M  V30 6684 N 622.413 -5.55624 -0.850756 0
M  V30 6685 H 614.564 -2.00307 0.70645 0
M  V30 6686 H 616.827 -0.912876 0.255659 0
M  V30 6687 H 616.533 -3.49797 0.365329 0
M  V30 6688 H 616.407 -3.50858 -1.38487 0
M  V30 6689 H 618.794 -2.52663 -1.52464 0
M  V30 6690 H 618.875 -2.54645 0.242805 0
M  V30 6691 H 618.519 -5.07472 0.2085 0
M  V30 6692 H 618.449 -5.02621 -1.57098 0
M  V30 6693 H 620.94 -3.70669 -0.735717 0
M  V30 6694 H 621.253 -7.67701 -0.886279 0
M  V30 6695 H 619.598 -6.90334 -0.803958 0
M  V30 6696 H 622.789 -4.60709 -0.828535 0
M  V30 6697 H 622.962 -6.41756 -0.897418 0
M  V30 6698 N 616.368 0.432326 -1.51554 0
M  V30 6699 C 617.316 1.54572 -1.73811 0
M  V30 6700 C 618.31 1.58246 -0.604539 0
M  V30 6701 O 619.516 1.6193 -0.786041 0
M  V30 6702 H 615.891 0.513626 -0.549265 0
M  V30 6703 H 617.862 1.32977 -2.67132 0
M  V30 6704 C 616.611 2.92181 -1.88483 0
M  V30 6705 H 615.934 2.90088 -2.75116 0
M  V30 6706 H 617.374 3.69439 -2.08065 0
M  V30 6707 C 615.833 3.3065 -0.645909 0
M  V30 6708 O 616.363 4.01216 0.197093 0
M  V30 6709 N 614.569 2.86464 -0.488538 0
M  V30 6710 H 614.116 2.29209 -1.17562 0
M  V30 6711 H 614.074 3.12565 0.339156 0
M  V30 6712 N 617.846 1.41785 0.688094 0
M  V30 6713 C 619.257 1.3701 1.26828 0
M  V30 6714 C 619.608 0.056835 1.96118 0
M  V30 6715 O 618.733 -0.84475 1.99231 0
M  V30 6716 C 619.328 2.48168 2.30648 0
M  V30 6717 C 617.887 2.46766 2.84224 0
M  V30 6718 C 617.034 2.27633 1.58361 0
M  V30 6719 H 619.985 1.51192 0.482351 0
M  V30 6720 H 620.006 2.17655 3.121 0
M  V30 6721 H 619.518 3.43735 1.80188 0
M  V30 6722 H 617.619 1.54978 3.3884 0
M  V30 6723 H 617.732 3.43342 3.34145 0
M  V30 6724 H 616.096 1.75648 1.84445 0
M  V30 6725 H 616.879 3.25238 1.09887 0
M  V30 6726 N 619.324 -0.923095 1.27737 0
M  V30 6727 C 620.287 -2.00587 1.10894 0
M  V30 6728 C 621.287 -1.60718 0.0514927 0
M  V30 6729 O 622.477 -1.71658 0.296481 0
M  V30 6730 C 619.609 -3.33829 0.690717 0
M  V30 6731 H 620.802 -2.16959 2.07048 0
M  V30 6732 H 618.355 -1.10451 1.1059 0
M  V30 6733 H 619.09 -3.23157 -0.272 0
M  V30 6734 H 618.875 -3.64125 1.45448 0
M  V30 6735 H 620.365 -4.13336 0.595252 0
M  V30 6736 N 620.802 -1.09834 -1.13024 0
M  V30 6737 C 621.732 -0.763451 -2.20666 0
M  V30 6738 C 622.713 0.260778 -1.68089 0
M  V30 6739 O 623.898 0.127915 -1.93778 0
M  V30 6740 C 621.028 -0.187744 -3.46792 0
M  V30 6741 C 619.982 -1.14196 -4.12484 0
M  V30 6742 C 619.308 -0.427755 -5.32986 0
M  V30 6743 C 620.608 -2.48607 -4.59338 0
M  V30 6744 H 622.302 -1.66347 -2.48936 0
M  V30 6745 H 619.848 -0.801261 -1.19649 0
M  V30 6746 H 621.801 0.0586375 -4.21359 0
M  V30 6747 H 620.525 0.747485 -3.17931 0
M  V30 6748 H 619.184 -1.37369 -3.3989 0
M  V30 6749 H 618.832 0.511747 -5.0039 0
M  V30 6750 H 618.532 -1.06403 -5.77886 0
M  V30 6751 H 620.056 -0.189772 -6.10305 0
M  V30 6752 H 621.47 -2.29618 -5.25308 0
M  V30 6753 H 619.867 -3.08062 -5.14993 0
M  V30 6754 H 620.937 -3.09062 -3.73642 0
M  V30 6755 N 622.28 1.30327 -0.886154 0
M  V30 6756 C 623.696 1.48676 -0.580323 0
M  V30 6757 C 623.896 1.81189 0.881639 0
M  V30 6758 O 622.952 1.90021 1.66278 0
M  V30 6759 C 624.265 2.60932 -1.49449 0
M  V30 6760 C 625.813 2.74812 -1.49824 0
M  V30 6761 C 626.288 3.90183 -2.39836 0
M  V30 6762 N 627.779 3.97495 -2.37806 0
M  V30 6763 C 628.514 4.86078 -3.04165 0
M  V30 6764 N 628.01 5.79448 -3.79753 0
M  V30 6765 N 629.803 4.79456 -2.93391 0
M  V30 6766 H 621.954 1.07495 -1.8319 0
M  V30 6767 H 624.217 0.532661 -0.784204 0
M  V30 6768 H 623.923 2.43731 -2.5355 0
M  V30 6769 H 623.797 3.57437 -1.20494 0
M  V30 6770 H 626.184 2.91418 -0.464731 0
M  V30 6771 H 626.265 1.78924 -1.82811 0
M  V30 6772 H 625.909 3.74334 -3.43273 0
M  V30 6773 H 625.839 4.85411 -2.04166 0
M  V30 6774 H 628.33 3.30703 -1.82877 0
M  V30 6775 H 628.643 6.43805 -4.27475 0
M  V30 6776 H 626.988 5.79376 -3.8386 0
M  V30 6777 H 630.179 4.05494 -2.33864 0
M  V30 6778 H 630.352 5.48283 -3.45383 0
M  V30 6779 N 623.758 0.647228 1.43697 0
M  V30 6780 C 624.705 -0.0480092 2.3075 0
M  V30 6781 C 625.675 -0.820705 1.44408 0
M  V30 6782 O 626.86 -0.798515 1.73287 0
M  V30 6783 C 624 -1.01259 3.2991 0
M  V30 6784 C 623.113 -0.236629 4.31351 0
M  V30 6785 C 622.248 -1.19447 5.17596 0
M  V30 6786 C 621.287 -0.408595 6.10735 0
M  V30 6787 N 620.424 -1.31772 6.89623 0
M  V30 6788 H 625.264 0.700238 2.89656 0
M  V30 6789 H 622.801 0.357082 1.427 0
M  V30 6790 H 624.759 -1.58538 3.85903 0
M  V30 6791 H 623.389 -1.72778 2.72667 0
M  V30 6792 H 622.441 0.452353 3.77701 0
M  V30 6793 H 623.753 0.374731 4.9739 0
M  V30 6794 H 622.907 -1.83809 5.78186 0
M  V30 6795 H 621.646 -1.83975 4.51669 0
M  V30 6796 H 620.651 0.24841 5.49239 0
M  V30 6797 H 621.876 0.232188 6.78703 0
M  V30 6798 H 619.822 -1.94991 6.2635 0
M  V30 6799 H 619.739 -0.760779 7.52162 0
M  V30 6800 H 621.007 -1.94967 7.54724 0
M  V30 6801 N 625.236 -1.5273 0.388769 0
M  V30 6802 C 626.482 -2.01871 -0.193877 0
M  V30 6803 C 626.815 -1.27475 -1.46505 0
M  V30 6804 O 626.09 -0.375063 -1.90849 0
M  V30 6805 C 626.373 -3.5712 -0.462336 0
M  V30 6806 C 626.226 -4.42186 0.824091 0
M  V30 6807 C 627.545 -4.21881 -1.25319 0
M  V30 6808 H 624.664 -0.733764 -0.0689899 0
M  V30 6809 H 627.306 -1.82796 0.518231 0
M  V30 6810 H 625.456 -3.73504 -1.06896 0
M  V30 6811 H 627.128 -4.37554 1.46096 0
M  V30 6812 H 625.371 -4.09219 1.43952 0
M  V30 6813 H 626.042 -5.48828 0.590905 0
M  V30 6814 H 628.518 -4.0947 -0.73981 0
M  V30 6815 H 627.394 -5.30487 -1.40977 0
M  V30 6816 H 627.655 -3.79478 -2.26824 0
M  V30 6817 N 626.714 -0.118576 -1.57153 0
M  V30 6818 C 627.662 0.849114 -2.16547 0
M  V30 6819 C 628.656 1.27567 -1.11458 0
M  V30 6820 O 629.862 1.24746 -1.29763 0
M  V30 6821 H 626.237 0.291935 -0.693021 0
M  V30 6822 H 628.208 0.323693 -2.96639 0
M  V30 6823 C 626.957 2.08951 -2.77912 0
M  V30 6824 H 626.28 1.77021 -3.58474 0
M  V30 6825 H 627.72 2.74666 -3.23008 0
M  V30 6826 C 626.179 2.87899 -1.74974 0
M  V30 6827 O 626.709 3.83268 -1.20285 0
M  V30 6828 N 624.915 2.51884 -1.44924 0
M  V30 6829 H 624.462 1.74397 -1.89587 0
M  V30 6830 H 624.42 3.05003 -0.762921 0
M  V30 6831 N 628.193 1.56834 0.155195 0
M  V30 6832 C 629.604 1.72421 0.716082 0
M  V30 6833 C 629.955 0.731685 1.82046 0
M  V30 6834 O 629.08 -0.103481 2.16152 0
M  V30 6835 C 629.675 3.12629 1.30571 0
M  V30 6836 C 628.234 3.29846 1.81325 0
M  V30 6837 C 627.381 2.68359 0.698494 0
M  V30 6838 H 630.332 1.58544 -0.0703861 0
M  V30 6839 H 630.353 3.12174 2.1755 0
M  V30 6840 H 629.865 3.84844 0.501701 0
M  V30 6841 H 627.966 2.62614 2.64319 0
M  V30 6842 H 628.079 4.37727 1.9476 0
M  V30 6843 H 626.443 2.28604 1.12305 0
M  V30 6844 H 627.226 3.43171 -0.0939366 0
M  V30 6845 N 629.671 -0.424282 1.51781 0
M  V30 6846 C 630.581 -1.54087 1.76902 0
M  V30 6847 C 631.597 -1.61249 0.653826 0
M  V30 6848 O 632.773 -1.78247 0.937552 0
M  V30 6849 C 629.838 -2.8996 1.90063 0
M  V30 6850 C 628.899 -2.92809 3.13945 0
M  V30 6851 C 628.132 -4.22201 3.26469 0
M  V30 6852 O 628.355 -5.15286 2.44616 0
M  V30 6853 O 627.289 -4.31599 4.1953 0
M  V30 6854 H 631.115 -1.358 2.71647 0
M  V30 6855 H 628.7 -0.608618 1.36441 0
M  V30 6856 H 630.582 -3.70575 2.0063 0
M  V30 6857 H 629.257 -3.08347 0.985067 0
M  V30 6858 H 628.164 -2.11102 3.08847 0
M  V30 6859 H 629.497 -2.79369 4.05233 0
M  V30 6860 N 631.149 -1.42148 -0.680565 0
M  V30 6861 C 632.097 -1.45401 -1.81552 0
M  V30 6862 C 633.091 -0.33036 -1.66147 0
M  V30 6863 O 634.297 -0.503103 -1.72826 0
M  V30 6864 H 630.672 -0.455265 -0.59853 0
M  V30 6865 H 632.643 -2.41024 -1.75926 0
M  V30 6866 C 631.392 -1.36769 -3.19671 0
M  V30 6867 H 630.715 -2.22525 -3.32149 0
M  V30 6868 H 632.155 -1.43106 -3.9912 0
M  V30 6869 C 630.614 -0.0817752 -3.36801 0
M  V30 6870 O 631.144 0.867707 -3.92216 0
M  V30 6871 N 629.35 -0.000799811 -2.906 0
M  V30 6872 H 628.897 -0.774231 -2.4569 0
M  V30 6873 H 628.855 0.858961 -3.02439 0
M  V30 6874 N 632.627 0.916307 -1.28225 0
M  V30 6875 C 633.56 2.01954 -1.06254 0
M  V30 6876 C 634.538 1.62587 0.0205983 0
M  V30 6877 O 635.722 1.88073 -0.126824 0
M  V30 6878 C 632.849 3.33086 -0.614141 0
M  V30 6879 C 631.895 3.91435 -1.69354 0
M  V30 6880 S 632.728 4.22603 -3.28887 0
M  V30 6881 C 633.884 5.568 -2.85876 0
M  V30 6882 H 634.117 2.20281 -1.99659 0
M  V30 6883 H 631.65 1.06085 -1.12184 0
M  V30 6884 H 633.608 4.089 -0.36213 0
M  V30 6885 H 632.269 3.12664 0.300036 0
M  V30 6886 H 631.462 4.86098 -1.33136 0
M  V30 6887 H 631.064 3.22248 -1.89821 0
M  V30 6888 H 633.356 6.3658 -2.31888 0
M  V30 6889 H 634.299 5.97927 -3.79326 0
M  V30 6890 H 634.707 5.17865 -2.24669 0
M  V30 6891 N 634.105 1.10431 1.1244 0
M  V30 6892 C 635.035 0.775143 2.20258 0
M  V30 6893 C 636.016 -0.25186 1.68225 0
M  V30 6894 O 637.201 -0.117637 1.93843 0
M  V30 6895 C 634.331 0.206133 3.46688 0
M  V30 6896 C 633.285 1.16382 4.11873 0
M  V30 6897 C 632.611 0.456014 5.32752 0
M  V30 6898 C 633.911 2.5104 4.58013 0
M  V30 6899 H 635.605 1.67665 2.4805 0
M  V30 6900 H 633.151 0.807595 1.19222 0
M  V30 6901 H 635.104 -0.036291 4.21384 0
M  V30 6902 H 633.828 -0.730614 3.18323 0
M  V30 6903 H 632.487 1.39169 3.39157 0
M  V30 6904 H 632.135 -0.485203 5.00654 0
M  V30 6905 H 631.835 1.09466 5.77314 0
M  V30 6906 H 633.359 0.222135 6.10196 0
M  V30 6907 H 634.773 2.32401 5.24083 0
M  V30 6908 H 633.17 3.10789 5.13352 0
M  V30 6909 H 634.24 3.11039 3.71998 0
M  V30 6910 N 635.583 -1.29855 0.893053 0
M  V30 6911 C 636.813 -1.99686 0.530019 0
M  V30 6912 C 637.221 -1.67066 -0.888012 0
M  V30 6913 O 636.564 -0.908366 -1.5967 0
M  V30 6914 C 636.626 -3.53855 0.63457 0
M  V30 6915 C 636.29 -4.10013 2.01837 0
M  V30 6916 C 637.287 -4.25406 2.98874 0
M  V30 6917 C 634.972 -4.45202 2.32595 0
M  V30 6918 C 636.966 -4.7521 4.24799 0
M  V30 6919 C 634.653 -4.94704 3.58763 0
M  V30 6920 C 635.651 -5.09662 4.5468 0
M  V30 6921 O 635.339 -5.58093 5.78608 0
M  V30 6922 H 635.071 -0.644913 0.20264 0
M  V30 6923 H 637.625 -1.66518 1.20253 0
M  V30 6924 H 635.855 -3.86583 -0.0949477 0
M  V30 6925 H 637.544 -4.04922 0.281648 0
M  V30 6926 H 638.31 -3.98515 2.76425 0
M  V30 6927 H 634.189 -4.32822 1.58701 0
M  V30 6928 H 637.733 -4.86801 4.99671 0
M  V30 6929 H 633.63 -5.21032 3.81046 0
M  V30 6930 H 634.398 -5.7642 5.81104 0
M  V30 6931 N 637.061 -0.65484 -1.43351 0
M  V30 6932 C 637.991 0.0221809 -2.33489 0
M  V30 6933 C 638.972 0.810272 -1.49561 0
M  V30 6934 O 640.157 0.771426 -1.78221 0
M  V30 6935 C 637.287 0.988117 -3.32947 0
M  V30 6936 C 636.241 0.310026 -4.26876 0
M  V30 6937 C 635.567 1.38752 -5.16384 0
M  V30 6938 C 636.867 -0.798589 -5.16159 0
M  V30 6939 H 638.561 -0.730571 -2.9035 0
M  V30 6940 H 636.107 -0.352773 -1.39612 0
M  V30 6941 H 638.06 1.47067 -3.94904 0
M  V30 6942 H 636.784 1.77205 -2.74346 0
M  V30 6943 H 635.443 -0.152097 -3.66284 0
M  V30 6944 H 635.091 2.16293 -4.54121 0
M  V30 6945 H 634.791 0.939051 -5.80048 0
M  V30 6946 H 636.315 1.87141 -5.81215 0
M  V30 6947 H 637.729 -0.398126 -5.71916 0
M  V30 6948 H 636.126 -1.17163 -5.88552 0
M  V30 6949 H 637.196 -1.65588 -4.55751 0
M  V30 6950 N 638.539 1.52521 -0.396863 0
M  V30 6951 C 639.786 2.01672 0.182898 0
M  V30 6952 C 640.114 1.28302 1.46181 0
M  V30 6953 O 639.369 0.374118 1.92091 0
M  V30 6954 C 639.668 3.5403 0.489677 0
M  V30 6955 C 639.334 4.45456 -0.698581 0
M  V30 6956 C 637.996 4.70166 -1.02454 0
M  V30 6957 C 640.348 4.99354 -1.49316 0
M  V30 6958 C 637.676 5.46024 -2.1465 0
M  V30 6959 C 640.028 5.76439 -2.60579 0
M  V30 6960 C 638.692 5.99426 -2.93675 0
M  V30 6961 H 637.962 0.737971 0.066927 0
M  V30 6962 H 640.609 1.83853 -0.535764 0
M  V30 6963 H 638.914 3.69963 1.28976 0
M  V30 6964 H 640.611 3.8956 0.951018 0
M  V30 6965 H 637.201 4.26392 -0.434525 0
M  V30 6966 H 641.385 4.80182 -1.25457 0
M  V30 6967 H 636.641 5.62046 -2.40654 0
M  V30 6968 H 640.815 6.17202 -3.22544 0
M  V30 6969 H 638.442 6.57988 -3.80731 0
M  V30 6970 N 640.017 0.126909 1.57088 0
M  V30 6971 C 641.245 -0.53667 1.99819 0
M  V30 6972 C 641.66 -1.5972 1.00673 0
M  V30 6973 O 641.017 -1.825 0.000747365 0
M  V30 6974 C 641.068 -1.15563 3.42531 0
M  V30 6975 O 640.789 -0.137483 4.37884 0
M  V30 6976 C 642.29 -1.90176 4.00435 0
M  V30 6977 H 639.51 -0.141443 0.655923 0
M  V30 6978 H 642.054 0.215578 2.03361 0
M  V30 6979 H 640.209 -1.85861 3.39904 0
M  V30 6980 H 640.623 -0.588229 5.21191 0
M  V30 6981 H 642.097 -2.28801 5.02349 0
M  V30 6982 H 642.574 -2.78002 3.40017 0
M  V30 6983 H 643.18 -1.24623 4.06632 0
M  V30 6984 N 641.495 -1.56914 -0.146875 0
M  V30 6985 C 642.442 -1.98275 -1.18134 0
M  V30 6986 C 643.412 -0.850367 -1.42681 0
M  V30 6987 O 644.597 -1.11244 -1.55014 0
M  V30 6988 C 641.737 -2.36861 -2.5098 0
M  V30 6989 C 640.85 -3.63391 -2.33605 0
M  V30 6990 C 639.985 -3.91079 -3.59486 0
M  V30 6991 C 639.024 -5.10879 -3.37149 0
M  V30 6992 N 638.161 -5.34577 -4.55161 0
M  V30 6993 H 643.001 -2.8645 -0.821622 0
M  V30 6994 H 640.538 -1.41718 -0.394248 0
M  V30 6995 H 642.496 -2.57262 -3.28439 0
M  V30 6996 H 641.126 -1.51766 -2.84898 0
M  V30 6997 H 640.178 -3.50766 -1.47199 0
M  V30 6998 H 641.49 -4.51007 -2.13059 0
M  V30 6999 H 640.644 -4.11979 -4.45374 0
M  V30 7000 H 639.383 -3.01885 -3.83036 0
M  V30 7001 H 638.388 -4.89853 -2.49649 0
M  V30 7002 H 639.613 -6.01626 -3.14997 0
M  V30 7003 H 637.559 -4.48337 -4.78884 0
M  V30 7004 H 637.476 -6.16463 -4.37618 0
M  V30 7005 H 638.744 -5.59975 -5.42263 0
M  V30 7006 N 642.974 0.416227 -1.52004 0
M  V30 7007 C 644.221 1.16383 -1.65714 0
M  V30 7008 C 644.549 1.9068 -0.383594 0
M  V30 7009 O 643.804 1.85174 0.633185 0
M  V30 7010 C 644.103 2.18923 -2.82502 0
M  V30 7011 C 643.769 1.61485 -4.20991 0
M  V30 7012 C 642.431 1.45545 -4.58661 0
M  V30 7013 C 644.783 1.19468 -5.07323 0
M  V30 7014 C 642.111 0.860937 -5.80349 0
M  V30 7015 C 644.463 0.614386 -6.29609 0
M  V30 7016 C 643.127 0.442056 -6.66035 0
M  V30 7017 H 642.397 0.425875 -0.606392 0
M  V30 7018 H 645.044 0.45199 -1.8609 0
M  V30 7019 H 643.349 2.96225 -2.56433 0
M  V30 7020 H 645.046 2.76628 -2.90307 0
M  V30 7021 H 641.636 1.74873 -3.91302 0
M  V30 7022 H 645.82 1.30596 -4.78809 0
M  V30 7023 H 641.076 0.715372 -6.072 0
M  V30 7024 H 645.25 0.280393 -6.95835 0
M  V30 7025 H 642.877 -0.0207218 -7.60197 0
M  V30 7026 N 644.452 1.42507 0.673017 0
M  V30 7027 C 645.692 1.44559 1.44507 0
M  V30 7028 C 646.056 0.0606206 1.91904 0
M  V30 7029 O 647.257 -0.044139 2.68764 0
M  V30 7030 C 645.528 2.44291 2.60877 0
M  V30 7031 S 647.087 2.65059 3.49699 0
M  V30 7032 H 643.905 0.51181 0.49353 0
M  V30 7033 H 646.507 1.79124 0.783256 0
M  V30 7034 H 645.211 3.43685 2.24297 0
M  V30 7035 H 644.742 2.11157 3.31928 0
M  V30 7036 H 646.757 1.93494 4.56919 0
M  V30 7037 N 645.93 -0.909495 1.28709 0
M  V30 7038 C 646.88 -1.9991 1.09636 0
M  V30 7039 C 647.864 -1.60889 0.01872 0
M  V30 7040 O 649.056 -1.75374 0.239338 0
M  V30 7041 C 646.185 -3.34675 0.764702 0
M  V30 7042 C 645.271 -3.80085 1.8814 0
M  V30 7043 N 645.662 -3.97824 3.12361 0
M  V30 7044 C 643.96 -4.09278 1.77221 0
M  V30 7045 C 644.661 -4.35928 3.85151 0
M  V30 7046 N 643.637 -4.44426 3.13028 0
M  V30 7047 H 647.439 -2.11681 2.03883 0
M  V30 7048 H 644.953 -1.09763 1.1969 0
M  V30 7049 H 646.95 -4.12426 0.609132 0
M  V30 7050 H 645.61 -3.24255 -0.169952 0
M  V30 7051 H 646.621 -3.83626 3.47925 0
M  V30 7052 H 643.298 -4.0747 0.909621 0
M  V30 7053 H 644.688 -4.57581 4.92006 0
M  V30 7054 N 647.408 -1.11026 -1.11852 0
M  V30 7055 C 648.355 -0.764662 -2.17765 0
M  V30 7056 C 649.325 0.261854 -1.64023 0
M  V30 7057 O 650.51 0.139748 -1.90288 0
M  V30 7058 C 647.65 -0.209317 -3.44465 0
M  V30 7059 C 646.763 -1.29187 -4.12231 0
M  V30 7060 C 645.898 -0.697523 -5.266 0
M  V30 7061 C 644.937 -1.76023 -5.86244 0
M  V30 7062 N 644.074 -1.18569 -6.92016 0
M  V30 7063 H 648.914 -1.67202 -2.46673 0
M  V30 7064 H 646.451 -0.835065 -1.21099 0
M  V30 7065 H 648.409 0.130599 -4.16996 0
M  V30 7066 H 647.039 0.661251 -3.15955 0
M  V30 7067 H 646.091 -1.74881 -3.37818 0
M  V30 7068 H 647.403 -2.09607 -4.52622 0
M  V30 7069 H 646.557 -0.307412 -6.05921 0
M  V30 7070 H 645.296 0.138044 -4.87505 0
M  V30 7071 H 644.301 -2.1597 -5.05606 0
M  V30 7072 H 645.526 -2.59875 -6.27409 0
M  V30 7073 H 643.472 -0.371695 -6.54946 0
M  V30 7074 H 643.389 -1.92666 -7.31038 0
M  V30 7075 H 644.657 -0.82233 -7.7515 0
M  V30 7076 N 648.886 1.2938 -0.899927 0
M  V30 7077 C 649.849 2.25983 -0.382677 0
M  V30 7078 C 650.849 1.53366 0.483259 0
M  V30 7079 O 652.039 1.71798 0.28828 0
M  V30 7080 C 649.171 3.37878 0.452915 0
M  V30 7081 H 650.364 2.73252 -1.23586 0
M  V30 7082 H 647.917 1.40825 -0.678088 0
M  V30 7083 H 648.652 2.95949 1.32608 0
M  V30 7084 H 648.437 3.91742 -0.167562 0
M  V30 7085 H 649.927 4.09746 0.806107 0
M  V30 7086 N 650.364 0.662433 1.43002 0
M  V30 7087 C 651.613 0.176873 2.00923 0
M  V30 7088 C 651.926 -1.21954 1.52927 0
M  V30 7089 O 653.132 -1.80081 2.03182 0
M  V30 7090 C 651.588 0.265379 3.5892 0
M  V30 7091 C 651.196 1.66507 4.15908 0
M  V30 7092 C 652.94 -0.162103 4.2419 0
M  V30 7093 C 650.847 1.707 5.66229 0
M  V30 7094 H 649.777 0.0623627 0.751417 0
M  V30 7095 H 652.428 0.825813 1.63868 0
M  V30 7096 H 650.81 -0.451235 3.93421 0
M  V30 7097 H 651.984 2.40777 3.92891 0
M  V30 7098 H 650.299 2.03932 3.63044 0
M  V30 7099 H 652.896 -0.150745 5.34487 0
M  V30 7100 H 653.239 -1.19519 3.98774 0
M  V30 7101 H 653.772 0.503075 3.94606 0
M  V30 7102 H 650.511 2.7195 5.96426 0
M  V30 7103 H 650.031 1.00768 5.91275 0
M  V30 7104 H 651.71 1.45487 6.3043 0
M  V30 7105 N 651.842 -1.52309 0.404946 0
M  V30 7106 C 653.119 -1.94237 -0.230544 0
M  V30 7107 C 653.499 -1.34154 -1.6299 0
M  V30 7108 O 652.847 -0.515713 -2.22604 0
M  V30 7109 C 653.057 -3.48166 -0.241106 0
M  V30 7110 C 654.405 -4.22074 -0.462488 0
M  V30 7111 O 655.429 -3.54754 -0.320644 0
M  V30 7112 O 654.288 -5.41443 -0.741708 0
M  V30 7113 H 651.382 -0.813766 -0.147358 0
M  V30 7114 H 653.928 -1.6333 0.460587 0
M  V30 7115 H 652.7 -3.84269 0.738467 0
M  V30 7116 H 652.323 -3.85422 -0.97651 0
M  V30 7117 N 653.32 -0.135238 -1.57019 0
M  V30 7118 C 654.568 0.51777 -1.95355 0
M  V30 7119 C 654.889 1.6617 -1.02042 0
M  V30 7120 O 654.159 1.95738 -0.0797343 0
M  V30 7121 H 652.739 0.194264 -0.721298 0
M  V30 7122 H 655.401 -0.207983 -1.93787 0
M  V30 7123 H 654.497 0.901675 -2.98791 0
M  V30 7124 N 654.798 1.5699 0.138552 0
M  V30 7125 C 656.214 1.51844 0.491472 0
M  V30 7126 C 656.414 0.845063 1.82923 0
M  V30 7127 O 655.47 0.419143 2.48997 0
M  V30 7128 C 656.783 2.96615 0.493987 0
M  V30 7129 C 658.331 3.076 0.578913 0
M  V30 7130 C 658.806 4.53893 0.612009 0
M  V30 7131 N 660.297 4.5827 0.673997 0
M  V30 7132 C 661.032 5.68852 0.720729 0
M  V30 7133 N 660.528 6.88982 0.726292 0
M  V30 7134 N 662.321 5.56908 0.762253 0
M  V30 7135 H 654.472 1.99158 -0.738228 0
M  V30 7136 H 656.735 0.908693 -0.270149 0
M  V30 7137 H 656.441 3.49172 -0.420933 0
M  V30 7138 H 656.315 3.53017 1.32887 0
M  V30 7139 H 658.702 2.55057 1.48425 0
M  V30 7140 H 658.783 2.54227 -0.283286 0
M  V30 7141 H 658.427 5.07076 -0.289208 0
M  V30 7142 H 658.357 5.05057 1.49082 0
M  V30 7143 H 660.848 3.71793 0.676654 0
M  V30 7144 H 661.161 7.69014 0.764032 0
M  V30 7145 H 659.506 6.91526 0.69403 0
M  V30 7146 H 662.697 4.61969 0.755135 0
M  V30 7147 H 662.87 6.43102 0.795207 0
M  V30 7148 N 656.276 -0.40816 1.52223 0
M  V30 7149 C 657.501 -1.18127 1.70472 0
M  V30 7150 C 657.926 -1.83491 0.41384 0
M  V30 7151 O 657.284 -1.70047 -0.628778 0
M  V30 7152 C 657.332 -2.21935 2.84213 0
M  V30 7153 O 656.436 -3.28099 2.4985 0
M  V30 7154 H 655.777 -0.344781 0.56747 0
M  V30 7155 H 658.307 -0.478328 1.9893 0
M  V30 7156 H 658.317 -2.66248 3.09153 0
M  V30 7157 H 656.992 -1.73744 3.7787 0
M  V30 7158 H 655.569 -2.89058 2.35584 0
M  V30 7159 N 657.755 -1.42862 -0.66545 0
M  V30 7160 C 658.685 -1.49867 -1.79059 0
M  V30 7161 C 659.666 -0.354394 -1.66367 0
M  V30 7162 O 660.851 -0.569969 -1.85647 0
M  V30 7163 C 657.981 -1.40943 -3.17415 0
M  V30 7164 C 656.935 -2.53495 -3.44854 0
M  V30 7165 C 656.261 -2.29626 -4.82883 0
M  V30 7166 C 657.561 -3.95781 -3.40815 0
M  V30 7167 H 659.255 -2.44037 -1.73453 0
M  V30 7168 H 656.801 -1.17456 -0.833071 0
M  V30 7169 H 658.754 -1.4445 -3.95869 0
M  V30 7170 H 657.478 -0.432716 -3.23721 0
M  V30 7171 H 656.137 -2.4932 -2.68766 0
M  V30 7172 H 655.785 -1.30226 -4.8585 0
M  V30 7173 H 655.485 -3.05065 -5.02204 0
M  V30 7174 H 657.009 -2.34897 -5.63609 0
M  V30 7175 H 658.423 -4.01508 -4.09224 0
M  V30 7176 H 656.82 -4.71148 -3.71672 0
M  V30 7177 H 657.89 -4.21786 -2.39216 0
M  V30 7178 N 659.233 0.902656 -1.29189 0
M  V30 7179 C 660.463 1.68394 -1.19695 0
M  V30 7180 C 660.871 1.87602 0.245384 0
M  V30 7181 O 660.214 1.41084 1.17648 0
M  V30 7182 C 660.276 3.09094 -1.83578 0
M  V30 7183 C 659.94 3.1313 -3.32864 0
M  V30 7184 C 660.937 2.93497 -4.29134 0
M  V30 7185 C 658.622 3.3529 -3.74013 0
M  V30 7186 C 660.616 2.95953 -5.64527 0
M  V30 7187 C 658.303 3.37377 -5.09529 0
M  V30 7188 C 659.301 3.1773 -6.04596 0
M  V30 7189 O 658.989 3.196 -7.37639 0
M  V30 7190 H 658.721 0.532815 -0.416034 0
M  V30 7191 H 661.275 1.1374 -1.71033 0
M  V30 7192 H 659.505 3.65338 -1.26747 0
M  V30 7193 H 661.194 3.69297 -1.68447 0
M  V30 7194 H 661.96 2.76192 -3.98677 0
M  V30 7195 H 657.839 3.49623 -3.00474 0
M  V30 7196 H 661.383 2.80536 -6.38706 0
M  V30 7197 H 657.28 3.54213 -5.39633 0
M  V30 7198 H 658.048 3.35887 -7.46406 0
M  V30 7199 N 660.711 1.11618 1.11262 0
M  V30 7200 C 661.659 0.771291 2.1944 0
M  V30 7201 C 662.653 -0.238073 1.67719 0
M  V30 7202 O 663.859 -0.0971628 1.79738 0
M  V30 7203 H 660.234 0.231548 0.715465 0
M  V30 7204 H 662.205 1.69226 2.45775 0
M  V30 7205 C 660.954 0.232765 3.4692 0
M  V30 7206 H 660.277 1.00072 3.87073 0
M  V30 7207 H 661.717 0.0296561 4.2399 0
M  V30 7208 C 660.176 -1.03738 3.20531 0
M  V30 7209 O 660.706 -2.11675 3.41404 0
M  V30 7210 N 658.912 -0.960906 2.74253 0
M  V30 7211 H 658.459 -0.0824323 2.57468 0
M  V30 7212 H 658.417 -1.8114 2.56974 0
M  V30 7213 N 662.189 -1.289 0.906776 0
M  V30 7214 C 663.136 -2.2751 0.388313 0
M  V30 7215 C 664.106 -1.57301 -0.533439 0
M  V30 7216 O 665.291 -1.85243 -0.457148 0
M  V30 7217 C 662.431 -3.43091 -0.37181 0
M  V30 7218 C 661.544 -4.28066 0.581647 0
M  V30 7219 C 660.679 -5.30837 -0.19623 0
M  V30 7220 C 659.718 -6.07472 0.751294 0
M  V30 7221 N 658.855 -7.021 0.00737727 0
M  V30 7222 H 663.695 -2.71237 1.23428 0
M  V30 7223 H 661.232 -1.33397 0.619962 0
M  V30 7224 H 663.19 -4.08888 -0.828641 0
M  V30 7225 H 661.82 -3.00374 -1.18218 0
M  V30 7226 H 660.872 -3.62378 1.157 0
M  V30 7227 H 662.184 -4.81382 1.30665 0
M  V30 7228 H 661.338 -6.02485 -0.71394 0
M  V30 7229 H 660.077 -4.78272 -0.954324 0
M  V30 7230 H 659.082 -5.34682 1.28044 0
M  V30 7231 H 660.307 -6.62126 1.50883 0
M  V30 7232 H 658.253 -6.51894 -0.732854 0
M  V30 7233 H 658.17 -7.53004 0.672334 0
M  V30 7234 H 659.438 -7.77956 -0.490365 0
M  V30 7235 N 663.667 -0.670007 -1.42649 0
M  V30 7236 C 664.895 -0.19854 -2.05945 0
M  V30 7237 C 665.31 1.14243 -1.50313 0
M  V30 7238 O 664.667 1.70872 -0.641027 0
M  V30 7239 C 664.718 -0.11966 -3.61302 0
M  V30 7240 O 664.439 -1.40764 -4.1487 0
M  V30 7241 C 665.94 0.375878 -4.41704 0
M  V30 7242 H 663.16 -0.0976894 -0.663851 0
M  V30 7243 H 665.704 -0.915392 -1.82868 0
M  V30 7244 H 663.859 0.547851 -3.83507 0
M  V30 7245 H 664.273 -1.27784 -5.08696 0
M  V30 7246 H 665.747 0.379988 -5.50691 0
M  V30 7247 H 666.224 1.41028 -4.15942 0
M  V30 7248 H 666.83 -0.259727 -4.24506 0
M  V30 7249 N 665.145 1.52092 -0.413018 0
M  V30 7250 C 666.075 2.30021 0.401567 0
M  V30 7251 C 667.056 1.34395 1.04269 0
M  V30 7252 O 668.241 1.63304 1.05097 0
M  V30 7253 C 665.371 3.12447 1.51638 0
M  V30 7254 C 664.325 4.16153 1.00005 0
M  V30 7255 C 663.651 4.86948 2.20875 0
M  V30 7256 C 664.951 5.22275 0.0513757 0
M  V30 7257 H 666.645 2.98365 -0.248704 0
M  V30 7258 H 664.191 1.4349 -0.121052 0
M  V30 7259 H 666.144 3.65733 2.09326 0
M  V30 7260 H 664.868 2.41879 2.19458 0
M  V30 7261 H 663.527 3.63882 0.445549 0
M  V30 7262 H 663.175 4.12905 2.8726 0
M  V30 7263 H 662.875 5.57057 1.86978 0
M  V30 7264 H 664.399 5.43048 2.79162 0
M  V30 7265 H 665.813 5.70778 0.537176 0
M  V30 7266 H 664.21 5.9977 -0.198977 0
M  V30 7267 H 665.28 4.76611 -0.892736 0
M  V30 7268 N 666.623 0.143563 1.56945 0
M  V30 7269 C 667.9 -0.553285 1.87612 0
M  V30 7270 C 668.28 -1.83195 1.04894 0
M  V30 7271 O 667.628 -2.28102 0.134773 0
M  V30 7272 C 667.838 -0.822055 3.3918 0
M  V30 7273 C 669.186 -1.16435 4.08324 0
M  V30 7274 O 670.21 -0.911522 3.4434 0
M  V30 7275 O 669.069 -1.63996 5.21313 0
M  V30 7276 H 666.163 -0.281851 0.777489 0
M  V30 7277 H 668.709 0.179916 1.68744 0
M  V30 7278 H 667.481 0.0830265 3.91212 0
M  V30 7279 H 667.104 -1.60956 3.63564 0
M  V30 7280 N 668.101 -1.57061 -0.130224 0
M  V30 7281 C 669.341 -1.86071 -0.845993 0
M  V30 7282 C 669.705 -0.73009 -1.77577 0
M  V30 7283 O 670.906 -0.901663 -2.53226 0
M  V30 7284 C 669.177 -3.20293 -1.58579 0
M  V30 7285 S 670.736 -3.70905 -2.34467 0
M  V30 7286 H 667.554 -0.652434 -0.282579 0
M  V30 7287 H 670.156 -1.95218 -0.10498 0
M  V30 7288 H 668.86 -4.00533 -0.894509 0
M  V30 7289 H 668.391 -3.14195 -2.36739 0
M  V30 7290 H 670.406 -3.41509 -3.59981 0
M  V30 7291 N 669.579 0.400081 -1.52437 0
M  V30 7292 C 670.995 0.739359 -1.41441 0
M  V30 7293 C 671.195 1.94512 -0.526053 0
M  V30 7294 O 670.251 2.525 0.00472502 0
M  V30 7295 C 671.564 0.984824 -2.84116 0
M  V30 7296 C 673.112 1.08698 -2.93519 0
M  V30 7297 C 673.587 1.36515 -4.37181 0
M  V30 7298 N 675.078 1.43361 -4.40457 0
M  V30 7299 C 675.813 1.66528 -5.48686 0
M  V30 7300 N 675.309 1.87239 -6.67018 0
M  V30 7301 N 677.102 1.68617 -5.36213 0
M  V30 7302 H 669.253 -0.393484 -2.08723 0
M  V30 7303 H 671.516 -0.1138 -0.941145 0
M  V30 7304 H 671.222 0.171096 -3.51284 0
M  V30 7305 H 671.096 1.90253 -3.25705 0
M  V30 7306 H 673.483 1.89129 -2.26526 0
M  V30 7307 H 673.564 0.147432 -2.55375 0
M  V30 7308 H 673.208 0.565982 -5.04737 0
M  V30 7309 H 673.138 2.31737 -4.7287 0
M  V30 7310 H 675.629 1.29108 -3.55161 0
M  V30 7311 H 675.942 2.04392 -7.45281 0
M  V30 7312 H 674.287 1.84486 -6.70067 0
M  V30 7313 H 677.478 1.5198 -4.42741 0
M  V30 7314 H 677.651 1.86332 -6.20632 0
M  V30 7315 N 671.057 1.43213 0.657864 0
M  V30 7316 C 671.967 1.50448 1.80007 0
M  V30 7317 C 672.983 0.39191 1.69529 0
M  V30 7318 O 674.159 0.645349 1.90781 0
M  V30 7319 C 671.224 1.42062 3.16258 0
M  V30 7320 C 670.285 2.63951 3.38568 0
M  V30 7321 C 669.518 2.55956 4.68318 0
M  V30 7322 O 669.741 1.60473 5.47361 0
M  V30 7323 O 668.675 3.46378 4.92245 0
M  V30 7324 H 672.501 2.4689 1.76858 0
M  V30 7325 H 670.086 1.25163 0.81576 0
M  V30 7326 H 671.968 1.3981 3.97531 0
M  V30 7327 H 670.643 0.487524 3.20008 0
M  V30 7328 H 669.55 2.71776 2.57077 0
M  V30 7329 H 670.883 3.56217 3.39662 0
M  V30 7330 N 672.536 -0.895792 1.29666 0
M  V30 7331 C 673.466 -2.01673 1.17688 0
M  V30 7332 C 674.447 -1.69955 0.0701317 0
M  V30 7333 O 675.632 -1.9258 0.250289 0
M  V30 7334 C 672.762 -3.36568 0.856681 0
M  V30 7335 C 671.716 -3.82509 1.92017 0
M  V30 7336 C 671.042 -5.14574 1.4532 0
M  V30 7337 C 672.342 -4.02409 3.32963 0
M  V30 7338 H 674.036 -2.11953 2.11463 0
M  V30 7339 H 671.582 -1.01839 1.01807 0
M  V30 7340 H 673.535 -4.14498 0.759577 0
M  V30 7341 H 672.259 -3.26391 -0.116763 0
M  V30 7342 H 670.918 -3.068 2.00673 0
M  V30 7343 H 670.566 -5.00815 0.468325 0
M  V30 7344 H 670.266 -5.46283 2.16447 0
M  V30 7345 H 671.79 -5.9504 1.36968 0
M  V30 7346 H 673.204 -4.70808 3.27127 0
M  V30 7347 H 671.601 -4.45478 4.02082 0
M  V30 7348 H 672.671 -3.06616 3.75652 0
M  V30 7349 N 674.014 -1.12206 -1.10668 0
M  V30 7350 C 674.944 -0.810086 -2.18997 0
M  V30 7351 C 675.925 0.225065 -1.68604 0
M  V30 7352 O 677.11 0.086783 -1.94006 0
M  V30 7353 C 674.24 -0.261262 -3.46316 0
M  V30 7354 C 673.194 -1.2292 -4.09969 0
M  V30 7355 C 672.52 -0.540713 -5.31959 0
M  V30 7356 C 673.82 -2.58295 -4.53962 0
M  V30 7357 H 675.514 -1.7159 -2.45352 0
M  V30 7358 H 673.06 -0.82646 -1.17922 0
M  V30 7359 H 675.013 -0.0307522 -4.21389 0
M  V30 7360 H 673.737 0.679879 -3.19445 0
M  V30 7361 H 672.396 -1.44548 -3.369 0
M  V30 7362 H 672.044 0.405492 -5.01363 0
M  V30 7363 H 671.744 -1.18637 -5.75499 0
M  V30 7364 H 673.268 -0.319184 -6.09765 0
M  V30 7365 H 674.682 -2.40709 -5.20319 0
M  V30 7366 H 673.079 -3.18916 -5.08343 0
M  V30 7367 H 674.149 -3.16918 -3.67002 0
M  V30 7368 N 675.492 1.28418 -0.913599 0
M  V30 7369 C 676.738 1.9527 -0.547484 0
M  V30 7370 C 677.071 1.71745 0.906486 0
M  V30 7371 O 676.346 1.03834 1.64465 0
M  V30 7372 C 676.629 3.49748 -0.857205 0
M  V30 7373 C 676.482 3.82675 -2.3639 0
M  V30 7374 C 677.801 4.3868 -0.353258 0
M  V30 7375 H 674.92 0.709236 -0.200381 0
M  V30 7376 H 677.562 1.51789 -1.14281 0
M  V30 7377 H 675.712 3.86915 -0.350548 0
M  V30 7378 H 677.384 3.55378 -2.94116 0
M  V30 7379 H 675.627 3.29724 -2.81894 0
M  V30 7380 H 676.298 4.90547 -2.53115 0
M  V30 7381 H 678.774 4.08584 -0.787288 0
M  V30 7382 H 677.65 5.45621 -0.599049 0
M  V30 7383 H 677.911 4.35753 0.746413 0
M  V30 7384 N 676.97 0.677563 1.42291 0
M  V30 7385 C 677.917 0.000947061 2.308 0
M  V30 7386 C 678.887 -0.789889 1.46116 0
M  V30 7387 O 680.072 -0.761578 1.74942 0
M  V30 7388 C 677.212 -0.942387 3.31984 0
M  V30 7389 C 676.325 -0.14508 4.31756 0
M  V30 7390 C 675.46 -1.08442 5.20013 0
M  V30 7391 C 674.499 -0.278958 6.11464 0
M  V30 7392 N 673.636 -1.17115 6.92263 0
M  V30 7393 H 678.476 0.761521 2.88106 0
M  V30 7394 H 676.013 0.38727 1.41911 0
M  V30 7395 H 677.971 -1.50317 3.89179 0
M  V30 7396 H 676.601 -1.66956 2.76271 0
M  V30 7397 H 675.653 0.532368 3.76656 0
M  V30 7398 H 676.965 0.48015 4.96484 0
M  V30 7399 H 676.119 -1.71504 5.81955 0
M  V30 7400 H 674.858 -1.74353 4.55469 0
M  V30 7401 H 673.863 0.364856 5.48588 0
M  V30 7402 H 675.088 0.376099 6.78058 0
M  V30 7403 H 673.034 -1.81661 6.30345 0
M  V30 7404 H 672.951 -0.601063 7.53607 0
M  V30 7405 H 674.219 -1.78915 7.58689 0
M  V30 7406 N 678.448 -1.51871 0.421078 0
M  V30 7407 C 679.396 -2.28903 -0.413066 0
M  V30 7408 C 680.39 -1.3408 -1.03532 0
M  V30 7409 O 681.596 -1.5149 -0.972146 0
M  V30 7410 H 677.971 -0.736478 -0.152003 0
M  V30 7411 H 679.942 -2.97285 0.257695 0
M  V30 7412 C 678.691 -3.13156 -1.51091 0
M  V30 7413 H 678.014 -3.85997 -1.04145 0
M  V30 7414 H 679.454 -3.7014 -2.06814 0
M  V30 7415 C 677.913 -2.27482 -2.48503 0
M  V30 7416 O 678.443 -1.92325 -3.52667 0
M  V30 7417 N 676.649 -1.91019 -2.18998 0
M  V30 7418 H 676.196 -2.19808 -1.34322 0
M  V30 7419 H 676.154 -1.3399 -2.84419 0
M  V30 7420 N 679.926 -0.151884 -1.56866 0
M  V30 7421 C 681.154 0.504813 -2.00647 0
M  V30 7422 C 681.569 1.58098 -1.03201 0
M  V30 7423 O 680.926 1.82476 -0.0297814 0
M  V30 7424 C 680.977 1.10099 -3.44326 0
M  V30 7425 O 680.698 0.0678021 -4.38048 0
M  V30 7426 C 682.199 1.83782 -4.03409 0
M  V30 7427 H 679.419 0.130989 -0.65809 0
M  V30 7428 H 681.963 -0.247903 -2.02992 0
M  V30 7429 H 680.118 1.8043 -3.42817 0
M  V30 7430 H 680.532 0.505237 -5.22061 0
M  V30 7431 H 682.006 2.2078 -5.05925 0
M  V30 7432 H 682.483 2.72557 -3.44397 0
M  V30 7433 H 683.089 1.18138 -4.08563 0
M  V30 7434 N 681.404 1.57128 0.121893 0
M  V30 7435 C 682.681 1.75664 0.860327 0
M  V30 7436 C 683.061 0.726585 1.98202 0
M  V30 7437 O 682.409 -0.24999 2.27128 0
M  V30 7438 C 682.619 3.20571 1.37968 0
M  V30 7439 C 683.967 3.82988 1.83317 0
M  V30 7440 O 684.991 3.24156 1.47654 0
M  V30 7441 O 683.85 4.86393 2.49168 0
M  V30 7442 H 680.944 0.719153 0.408348 0
M  V30 7443 H 683.49 1.6937 0.105859 0
M  V30 7444 H 682.262 3.87056 0.57477 0
M  V30 7445 H 681.885 3.31392 2.19694 0
M  V30 7446 N 682.882 -0.391992 1.52647 0
M  V30 7447 C 683.812 -1.48517 1.8018 0
M  V30 7448 C 684.793 -1.57039 0.653667 0
M  V30 7449 O 685.978 -1.72036 0.900962 0
M  V30 7450 C 683.108 -2.86161 1.96797 0
M  V30 7451 C 682.062 -2.92481 3.12472 0
M  V30 7452 C 681.388 -4.32546 3.14338 0
M  V30 7453 C 682.688 -2.624 4.51601 0
M  V30 7454 H 684.382 -1.25726 2.71723 0
M  V30 7455 H 681.928 -0.603387 1.30749 0
M  V30 7456 H 683.881 -3.62639 2.14641 0
M  V30 7457 H 682.605 -3.10283 1.01941 0
M  V30 7458 H 681.264 -2.18451 2.94406 0
M  V30 7459 H 680.912 -4.53703 2.1717 0
M  V30 7460 H 680.612 -4.37695 3.92042 0
M  V30 7461 H 682.136 -5.10934 3.34333 0
M  V30 7462 H 683.55 -3.28596 4.69785 0
M  V30 7463 H 681.947 -2.78903 5.3135 0
M  V30 7464 H 683.017 -1.57754 4.58521 0
M  V30 7465 N 684.36 -1.4356 -0.65026 0
M  V30 7466 C 685.771 -1.40324 -1.2315 0
M  V30 7467 C 686.122 -0.108812 -1.95898 0
M  V30 7468 O 685.247 0.79163 -2.01401 0
M  V30 7469 C 685.842 -2.54195 -2.23987 0
M  V30 7470 C 684.401 -2.54215 -2.77582 0
M  V30 7471 C 683.548 -2.31752 -1.5227 0
M  V30 7472 H 686.499 -1.52418 -0.442095 0
M  V30 7473 H 686.52 -2.25854 -3.0622 0
M  V30 7474 H 686.032 -3.48392 -1.71011 0
M  V30 7475 H 684.133 -1.63907 -3.34612 0
M  V30 7476 H 684.246 -3.52081 -3.24925 0
M  V30 7477 H 682.61 -1.80476 -1.79723 0
M  V30 7478 H 683.393 -3.28037 -1.01225 0
M  V30 7479 N 685.838 0.888903 -1.30139 0
M  V30 7480 C 687.085 1.64037 -1.18736 0
M  V30 7481 C 687.413 1.92771 0.258801 0
M  V30 7482 O 686.668 1.54427 1.20212 0
M  V30 7483 C 686.967 2.99041 -1.95728 0
M  V30 7484 C 686.633 2.89874 -3.45375 0
M  V30 7485 C 685.295 2.87082 -3.86183 0
M  V30 7486 C 687.647 2.78289 -4.40687 0
M  V30 7487 C 684.975 2.70536 -5.20603 0
M  V30 7488 C 687.327 2.63282 -5.75209 0
M  V30 7489 C 685.991 2.58861 -6.15262 0
M  V30 7490 H 685.261 0.600253 -0.434485 0
M  V30 7491 H 687.908 1.0338 -1.61198 0
M  V30 7492 H 686.213 3.63626 -1.45888 0
M  V30 7493 H 687.91 3.56139 -1.843 0
M  V30 7494 H 684.5 2.92856 -3.12943 0
M  V30 7495 H 688.684 2.79516 -4.10103 0
M  V30 7496 H 683.94 2.65526 -5.50732 0
M  V30 7497 H 688.114 2.5329 -6.48704 0
M  V30 7498 H 685.741 2.45799 -7.19366 0
M  V30 7499 N 687.317 1.12792 1.10072 0
M  V30 7500 C 688.566 0.880232 1.81479 0
M  V30 7501 C 688.879 -0.595575 1.86312 0
M  V30 7502 O 690.085 -0.959979 2.53962 0
M  V30 7503 C 688.541 1.52514 3.25987 0
M  V30 7504 C 688.149 3.036 3.29441 0
M  V30 7505 C 689.893 1.35788 4.02196 0
M  V30 7506 C 687.8 3.61007 4.68431 0
M  V30 7507 H 686.73 0.325654 0.680048 0
M  V30 7508 H 689.381 1.35485 1.23758 0
M  V30 7509 H 687.763 0.978188 3.83728 0
M  V30 7510 H 688.937 3.64819 2.81502 0
M  V30 7511 H 687.252 3.19765 2.66719 0
M  V30 7512 H 689.849 1.76096 5.0487 0
M  V30 7513 H 690.192 0.301972 4.15203 0
M  V30 7514 H 690.725 1.87426 3.50879 0
M  V30 7515 H 687.464 4.66375 4.60625 0
M  V30 7516 H 686.984 3.04564 5.16721 0
M  V30 7517 H 688.663 3.60289 5.37402 0
M  V30 7518 N 688.795 -1.27931 0.920396 0
M  V30 7519 C 690.043 -1.94304 0.555906 0
M  V30 7520 C 690.364 -1.72753 -0.904519 0
M  V30 7521 O 689.634 -1.07104 -1.64029 0
M  V30 7522 H 688.214 -0.719001 0.202599 0
M  V30 7523 H 690.876 -1.55785 1.1712 0
M  V30 7524 H 689.972 -3.02806 0.755981 0
M  V30 7525 N 690.273 -0.685099 -1.4193 0
M  V30 7526 C 691.55 -0.140152 -1.95097 0
M  V30 7527 C 691.93 1.34745 -1.62502 0
M  V30 7528 O 691.278 2.08872 -0.926534 0
M  V30 7529 C 691.488 -0.420268 -3.4646 0
M  V30 7530 C 692.836 -0.342338 -4.23218 0
M  V30 7531 O 693.86 -0.354592 -3.54431 0
M  V30 7532 O 692.719 -0.293404 -5.45712 0
M  V30 7533 H 689.813 -0.00885998 -0.826953 0
M  V30 7534 H 692.359 -0.760539 -1.51703 0
M  V30 7535 H 691.131 -1.45037 -3.63428 0
M  V30 7536 H 690.754 0.231616 -3.96925 0
M  V30 7537 N 691.751 1.51645 -0.429126 0
M  V30 7538 C 693 2.01203 0.141538 0
M  V30 7539 C 693.313 1.31828 1.44502 0
M  V30 7540 O 694.519 1.7231 2.09813 0
M  V30 7541 C 692.975 3.58624 0.302786 0
M  V30 7542 C 692.583 4.3693 -0.989775 0
M  V30 7543 C 694.327 4.16353 0.827661 0
M  V30 7544 C 692.234 5.86037 -0.794619 0
M  V30 7545 H 691.164 0.751867 0.05667 0
M  V30 7546 H 693.815 1.74822 -0.557633 0
M  V30 7547 H 692.197 3.81417 1.06476 0
M  V30 7548 H 693.371 4.25887 -1.75945 0
M  V30 7549 H 691.686 3.90614 -1.44256 0
M  V30 7550 H 694.283 5.25455 0.990026 0
M  V30 7551 H 694.626 3.74995 1.80787 0
M  V30 7552 H 695.159 3.97606 0.124213 0
M  V30 7553 H 691.898 6.31792 -1.74697 0
M  V30 7554 H 691.418 5.99765 -0.0645968 0
M  V30 7555 H 693.097 6.45471 -0.444591 0
M  V30 7556 N 693.229 0.160201 1.56784 0
M  V30 7557 C 694.454 -0.497373 2.01348 0
M  V30 7558 C 694.879 -1.56757 1.03966 0
M  V30 7559 O 694.237 -1.81292 0.0174455 0
M  V30 7560 C 694.285 -1.0628 3.44582 0
M  V30 7561 O 693.389 -2.17723 3.50244 0
M  V30 7562 H 692.73 -0.120295 0.653012 0
M  V30 7563 H 695.26 0.260821 2.02931 0
M  V30 7564 H 695.27 -1.38819 3.83658 0
M  V30 7565 H 693.945 -0.279166 4.14962 0
M  V30 7566 H 692.522 -1.86313 3.2302 0
M  V30 7567 N 694.707 -1.5719 -0.113559 0
M  V30 7568 C 695.984 -1.76117 -0.850999 0
M  V30 7569 C 696.364 -0.737085 -1.97814 0
M  V30 7570 O 695.712 0.237942 -2.27258 0
M  V30 7571 C 695.922 -3.21298 -1.36266 0
M  V30 7572 C 697.27 -3.83955 -1.81283 0
M  V30 7573 O 698.294 -3.24934 -1.45933 0
M  V30 7574 O 697.153 -4.87707 -2.46585 0
M  V30 7575 H 694.247 -0.721308 -0.404529 0
M  V30 7576 H 696.793 -1.69423 -0.0968756 0
M  V30 7577 H 695.565 -3.87355 -0.554235 0
M  V30 7578 H 695.188 -3.32552 -2.17933 0
M  V30 7579 N 696.185 0.383891 -1.52853 0
M  V30 7580 C 697.431 1.13009 -1.68395 0
M  V30 7581 C 697.764 1.89488 -0.425195 0
M  V30 7582 O 697.039 1.8574 0.577136 0
M  V30 7583 C 697.322 2.10419 -2.92226 0
M  V30 7584 C 697.175 1.3767 -4.28214 0
M  V30 7585 C 698.494 3.10781 -3.11614 0
M  V30 7586 H 695.613 0.409463 -0.612788 0
M  V30 7587 H 698.255 0.412895 -1.85459 0
M  V30 7588 H 696.405 2.71579 -2.77808 0
M  V30 7589 H 698.077 0.794352 -4.54409 0
M  V30 7590 H 696.32 0.678533 -4.2846 0
M  V30 7591 H 696.991 2.08874 -5.10956 0
M  V30 7592 H 699.467 2.59715 -3.25096 0
M  V30 7593 H 698.343 3.76179 -3.99725 0
M  V30 7594 H 698.604 3.79933 -2.2606 0
M  V30 7595 N 697.663 1.43903 0.642637 0
M  V30 7596 C 698.61 1.49881 1.75512 0
M  V30 7597 C 699.58 0.347538 1.62423 0
M  V30 7598 O 700.765 0.556177 1.82514 0
M  V30 7599 C 697.905 1.43797 3.13714 0
M  V30 7600 C 697.018 2.6921 3.37861 0
M  V30 7601 C 696.153 2.5504 4.6597 0
M  V30 7602 C 695.192 3.75671 4.83257 0
M  V30 7603 N 694.329 3.60247 6.02633 0
M  V30 7604 H 699.169 2.44935 1.69737 0
M  V30 7605 H 696.706 1.21572 0.828165 0
M  V30 7606 H 698.664 1.38262 3.93624 0
M  V30 7607 H 697.294 0.523173 3.18532 0
M  V30 7608 H 696.346 2.8498 2.51973 0
M  V30 7609 H 697.658 3.58786 3.46517 0
M  V30 7610 H 696.812 2.47273 5.54023 0
M  V30 7611 H 695.551 1.63006 4.59653 0
M  V30 7612 H 694.556 3.83836 3.93637 0
M  V30 7613 H 695.781 4.68728 4.91397 0
M  V30 7614 H 693.727 2.70955 5.97427 0
M  V30 7615 H 693.644 4.43431 6.12295 0
M  V30 7616 H 694.912 3.56351 6.93278 0
M  V30 7617 N 699.141 -0.881989 1.30609 0
M  V30 7618 C 700.369 -1.66711 1.22536 0
M  V30 7619 C 700.784 -1.87614 -0.2113 0
M  V30 7620 O 700.141 -1.42576 -1.13923 0
M  V30 7621 C 700.192 -3.04182 1.95335 0
M  V30 7622 O 699.913 -2.8422 3.33393 0
M  V30 7623 C 701.414 -3.98617 1.93956 0
M  V30 7624 H 698.634 -0.520124 0.423925 0
M  V30 7625 H 701.178 -1.10174 1.72285 0
M  V30 7626 H 699.333 -3.57442 1.49378 0
M  V30 7627 H 699.747 -3.71452 3.70302 0
M  V30 7628 H 701.221 -4.92433 2.49426 0
M  V30 7629 H 701.698 -4.29473 0.919198 0
M  V30 7630 H 702.304 -3.51292 2.39738 0
M  V30 7631 N 700.619 -1.13374 -1.09472 0
M  V30 7632 C 701.896 -0.806329 -1.78207 0
M  V30 7633 C 702.276 0.702191 -1.99079 0
M  V30 7634 O 701.624 1.63931 -1.59182 0
M  V30 7635 C 701.834 -1.59271 -3.10538 0
M  V30 7636 C 703.182 -1.78509 -3.85253 0
M  V30 7637 O 704.206 -1.55866 -3.20288 0
M  V30 7638 O 703.065 -2.16287 -5.01879 0
M  V30 7639 H 700.159 -0.29435 -0.772843 0
M  V30 7640 H 702.705 -1.23833 -1.16033 0
M  V30 7641 H 701.477 -2.61792 -2.90828 0
M  V30 7642 H 701.1 -1.15562 -3.80436 0
M  V30 7643 N 702.098 1.27442 -0.927168 0
M  V30 7644 C 703.347 1.93679 -0.563146 0
M  V30 7645 C 703.66 1.73673 0.899837 0
M  V30 7646 O 704.866 2.34247 1.37262 0
M  V30 7647 C 703.322 3.46961 -0.95636 0
M  V30 7648 C 702.93 3.75724 -2.43999 0
M  V30 7649 C 704.674 4.19282 -0.663565 0
M  V30 7650 C 702.581 5.22378 -2.77263 0
M  V30 7651 H 701.511 0.725059 -0.206894 0
M  V30 7652 H 704.162 1.44743 -1.12791 0
M  V30 7653 H 702.544 3.94703 -0.320254 0
M  V30 7654 H 703.718 3.38741 -3.12396 0
M  V30 7655 H 702.033 3.16605 -2.70463 0
M  V30 7656 H 704.63 5.27265 -0.888596 0
M  V30 7657 H 704.973 4.14382 0.399198 0
M  V30 7658 H 705.506 3.7736 -1.25875 0
M  V30 7659 H 702.245 5.32367 -3.82446 0
M  V30 7660 H 701.765 5.6051 -2.13516 0
M  V30 7661 H 703.444 5.9025 -2.64979 0
M  V30 7662 N 703.576 0.692616 1.41565 0
M  V30 7663 C 704.823 0.222335 2.01276 0
M  V30 7664 C 705.151 -1.17706 1.5484 0
M  V30 7665 O 704.406 -1.80795 0.749118 0
M  V30 7666 C 704.705 0.225073 3.56691 0
M  V30 7667 C 704.371 1.57158 4.22625 0
M  V30 7668 C 703.033 1.94022 4.40351 0
M  V30 7669 C 705.385 2.45758 4.59622 0
M  V30 7670 C 702.713 3.19076 4.92349 0
M  V30 7671 C 705.065 3.70141 5.13009 0
M  V30 7672 C 703.729 4.07152 5.28946 0
M  V30 7673 H 702.999 0.0813581 0.73652 0
M  V30 7674 H 705.646 0.891123 1.69503 0
M  V30 7675 H 703.951 -0.527259 3.88236 0
M  V30 7676 H 705.648 -0.156283 4.00695 0
M  V30 7677 H 702.238 1.27486 4.09201 0
M  V30 7678 H 706.422 2.18558 4.45585 0
M  V30 7679 H 701.678 3.4775 5.02872 0
M  V30 7680 H 705.852 4.38983 5.40617 0
M  V30 7681 H 703.479 5.04125 5.69001 0
M  V30 7682 N 705.054 -1.51416 0.437162 0
M  V30 7683 C 705.984 -2.30631 -0.364922 0
M  V30 7684 C 706.965 -1.36037 -1.02118 0
M  V30 7685 O 708.15 -1.64956 -1.02485 0
M  V30 7686 C 705.28 -3.1482 -1.46648 0
M  V30 7687 C 704.234 -4.17691 -0.933717 0
M  V30 7688 C 703.56 -4.904 -2.13101 0
M  V30 7689 C 704.86 -5.2229 0.0317201 0
M  V30 7690 H 706.554 -2.97932 0.29614 0
M  V30 7691 H 704.1 -1.4328 0.143865 0
M  V30 7692 H 706.053 -3.69017 -2.03481 0
M  V30 7693 H 704.777 -2.4534 -2.15583 0
M  V30 7694 H 703.436 -3.64545 -0.387602 0
M  V30 7695 H 703.084 -4.17423 -2.80654 0
M  V30 7696 H 702.784 -5.59962 -1.78092 0
M  V30 7697 H 704.308 -5.4742 -2.70487 0
M  V30 7698 H 705.722 -5.7156 -0.446302 0
M  V30 7699 H 704.119 -5.99378 0.29437 0
M  V30 7700 H 705.189 -4.75131 0.968447 0
M  V30 7701 N 706.532 -0.168513 -1.56696 0
M  V30 7702 C 707.948 0.187686 -1.58493 0
M  V30 7703 C 708.148 1.63063 -1.18375 0
M  V30 7704 O 707.204 2.36142 -0.894042 0
M  V30 7705 C 708.517 -0.0905858 -3.00564 0
M  V30 7706 C 710.065 -0.028575 -3.12987 0
M  V30 7707 C 710.54 -0.279799 -4.57145 0
M  V30 7708 N 712.031 -0.227476 -4.62641 0
M  V30 7709 C 712.766 -0.396073 -5.7203 0
M  V30 7710 N 712.262 -0.623572 -6.89988 0
M  V30 7711 N 714.055 -0.332173 -5.61118 0
M  V30 7712 H 706.206 -1.11042 -1.81062 0
M  V30 7713 H 708.469 -0.441235 -0.839056 0
M  V30 7714 H 708.175 -1.09006 -3.34381 0
M  V30 7715 H 708.049 0.619078 -3.72085 0
M  V30 7716 H 710.436 0.961471 -2.78998 0
M  V30 7717 H 710.517 -0.770905 -2.43907 0
M  V30 7718 H 710.161 -1.26704 -4.91842 0
M  V30 7719 H 710.091 0.48311 -5.24379 0
M  V30 7720 H 712.582 -0.0571723 -3.77857 0
M  V30 7721 H 712.895 -0.741745 -7.69232 0
M  V30 7722 H 711.24 -0.660153 -6.91858 0
M  V30 7723 H 714.431 -0.155051 -4.67843 0
M  V30 7724 H 714.604 -0.466994 -6.46315 0
M  V30 7725 N 708.01 1.57248 0.105221 0
M  V30 7726 C 708.957 2.01338 1.12835 0
M  V30 7727 C 709.927 0.887897 1.40377 0
M  V30 7728 O 711.112 1.15315 1.5201 0
M  V30 7729 C 708.252 2.43432 2.44611 0
M  V30 7730 C 707.365 3.69457 2.23888 0
M  V30 7731 C 706.5 4.00473 3.48991 0
M  V30 7732 C 705.539 5.19638 3.23485 0
M  V30 7733 N 704.676 5.46457 4.40828 0
M  V30 7734 H 709.516 2.88527 0.745386 0
M  V30 7735 H 707.053 1.42714 0.356535 0
M  V30 7736 H 709.011 2.65879 3.21503 0
M  V30 7737 H 707.641 1.59266 2.80774 0
M  V30 7738 H 706.693 3.54545 1.37847 0
M  V30 7739 H 708.005 4.56497 2.01026 0
M  V30 7740 H 707.159 4.23642 4.34295 0
M  V30 7741 H 705.898 3.11935 3.74897 0
M  V30 7742 H 704.903 4.96299 2.36574 0
M  V30 7743 H 706.128 6.09766 2.98935 0
M  V30 7744 H 704.074 4.60876 4.66829 0
M  V30 7745 H 703.991 6.27849 4.2112 0
M  V30 7746 H 705.259 5.74155 5.27225 0
M  V30 7747 N 709.488 -0.375779 1.53054 0
M  V30 7748 C 710.765 -1.13453 1.59336 0
M  V30 7749 C 711.145 -2.07379 0.394614 0
M  V30 7750 O 710.493 -2.2004 -0.616 0
M  V30 7751 C 710.703 -1.8826 2.93869 0
M  V30 7752 C 712.051 -2.43155 3.48081 0
M  V30 7753 O 713.075 -1.984 2.95831 0
M  V30 7754 O 711.934 -3.24944 4.39401 0
M  V30 7755 H 709.028 -0.519856 0.643179 0
M  V30 7756 H 711.574 -0.379865 1.65394 0
M  V30 7757 H 710.346 -1.19652 3.72558 0
M  V30 7758 H 709.969 -2.70658 2.91256 0
M  V30 7759 N 710.966 -1.44241 -0.634997 0
M  V30 7760 C 712.215 -1.46102 -1.39058 0
M  V30 7761 C 712.528 -0.0959909 -1.95364 0
M  V30 7762 O 713.734 0.00788751 -2.71499 0
M  V30 7763 C 712.19 -2.57195 -2.51751 0
M  V30 7764 C 711.798 -3.99888 -2.01974 0
M  V30 7765 C 713.542 -2.68272 -3.28984 0
M  V30 7766 C 711.449 -5.02412 -3.11987 0
M  V30 7767 H 710.379 -0.543556 -0.522554 0
M  V30 7768 H 713.03 -1.70294 -0.683538 0
M  V30 7769 H 711.412 -2.26237 -3.25012 0
M  V30 7770 H 712.586 -4.40396 -1.35604 0
M  V30 7771 H 710.901 -3.93019 -1.37568 0
M  V30 7772 H 713.498 -3.42042 -4.10988 0
M  V30 7773 H 713.841 -1.73957 -3.78212 0
M  V30 7774 H 714.374 -2.98622 -2.62812 0
M  V30 7775 H 711.113 -5.98342 -2.67707 0
M  V30 7776 H 710.633 -4.66501 -3.77011 0
M  V30 7777 H 712.312 -5.25939 -3.76825 0
M  V30 7778 N 712.444 0.87505 -1.31075 0
M  V30 7779 C 713.392 2.00317 -1.18219 0
M  V30 7780 C 714.386 1.69152 -0.0916872 0
M  V30 7781 O 715.592 1.7821 -0.253229 0
M  V30 7782 H 711.967 0.656981 -0.365895 0
M  V30 7783 H 713.938 2.08293 -2.13674 0
M  V30 7784 C 712.687 3.35821 -0.901095 0
M  V30 7785 H 712.01 3.6032 -1.73233 0
M  V30 7786 H 713.45 4.15366 -0.851295 0
M  V30 7787 C 711.909 3.34563 0.396114 0
M  V30 7788 O 712.439 3.75971 1.41452 0
M  V30 7789 N 710.645 2.87681 0.410832 0
M  V30 7790 H 710.192 2.54179 -0.418415 0
M  V30 7791 H 710.15 2.87223 1.27869 0
M  V30 7792 N 713.922 1.13953 1.08869 0
M  V30 7793 C 714.832 0.835666 2.19212 0
M  V30 7794 C 715.848 -0.182005 1.73045 0
M  V30 7795 O 717.024 -0.0116661 2.01397 0
M  V30 7796 C 714.089 0.312325 3.4529 0
M  V30 7797 C 713.15 1.39196 4.06107 0
M  V30 7798 C 712.383 0.893496 5.26168 0
M  V30 7799 O 712.606 -0.266807 5.69776 0
M  V30 7800 O 711.54 1.67037 5.78258 0
M  V30 7801 H 715.366 1.75769 2.47667 0
M  V30 7802 H 712.951 0.917421 1.17914 0
M  V30 7803 H 714.833 0.0261582 4.21392 0
M  V30 7804 H 713.508 -0.582042 3.18424 0
M  V30 7805 H 712.415 1.73152 3.31616 0
M  V30 7806 H 713.748 2.26068 4.37212 0
M  V30 7807 N 715.4 -1.26948 0.933913 0
M  V30 7808 C 716.31 -2.30366 0.443671 0
M  V30 7809 C 717.326 -1.67284 -0.478745 0
M  V30 7810 O 718.502 -1.98156 -0.360043 0
M  V30 7811 C 715.567 -3.45485 -0.289974 0
M  V30 7812 C 714.628 -4.24069 0.668114 0
M  V30 7813 C 713.861 -5.33691 -0.0306138 0
M  V30 7814 O 714.084 -5.5656 -1.24888 0
M  V30 7815 O 713.018 -5.98441 0.644384 0
M  V30 7816 H 716.844 -2.74349 1.30254 0
M  V30 7817 H 714.429 -1.32012 0.699506 0
M  V30 7818 H 716.311 -4.15486 -0.70353 0
M  V30 7819 H 714.986 -3.03546 -1.12435 0
M  V30 7820 H 713.893 -3.56579 1.13147 0
M  V30 7821 H 715.226 -4.69739 1.46989 0
M  V30 7822 N 716.879 -0.700114 -1.41195 0
M  V30 7823 C 718.107 -0.242179 -2.05478 0
M  V30 7824 C 718.522 1.11029 -1.52702 0
M  V30 7825 O 717.879 1.69473 -0.677127 0
M  V30 7826 C 717.93 -0.196271 -3.60967 0
M  V30 7827 O 717.651 -1.49532 -4.11791 0
M  V30 7828 C 719.152 0.282102 -4.42401 0
M  V30 7829 H 716.372 -0.111749 -0.661629 0
M  V30 7830 H 718.916 -0.953975 -1.80885 0
M  V30 7831 H 717.071 0.46638 -3.84582 0
M  V30 7832 H 717.485 -1.38545 -5.05871 0
M  V30 7833 H 718.959 0.263093 -5.51373 0
M  V30 7834 H 719.436 1.32174 -4.1884 0
M  V30 7835 H 720.042 -0.349712 -4.2386 0
M  V30 7836 N 718.357 1.51182 -0.445186 0
M  V30 7837 C 719.267 2.31692 0.368255 0
M  V30 7838 C 720.283 1.40942 1.02036 0
M  V30 7839 O 721.459 1.74011 1.01401 0
M  V30 7840 C 718.524 3.14903 1.45041 0
M  V30 7841 C 717.585 4.21442 0.817615 0
M  V30 7842 C 716.818 5.00677 1.8482 0
M  V30 7843 O 717.041 4.80644 3.07145 0
M  V30 7844 O 715.975 5.84559 1.43438 0
M  V30 7845 H 719.801 3.0232 -0.289219 0
M  V30 7846 H 717.386 1.47951 -0.207555 0
M  V30 7847 H 719.268 3.66612 2.07783 0
M  V30 7848 H 717.943 2.47031 2.09182 0
M  V30 7849 H 716.85 3.73791 0.151931 0
M  V30 7850 H 718.183 4.9171 0.219564 0
M  V30 7851 N 719.835 0.176821 1.56605 0
M  V30 7852 C 721.081 -0.467406 1.9734 0
M  V30 7853 C 721.414 -1.62523 1.06301 0
M  V30 7854 O 720.689 -1.94182 0.11125 0
M  V30 7855 C 720.972 -0.945106 3.47476 0
M  V30 7856 C 720.825 0.213273 4.49294 0
M  V30 7857 C 722.144 -1.8169 4.00845 0
M  V30 7858 H 719.263 -0.168426 0.717497 0
M  V30 7859 H 721.905 0.264065 1.88156 0
M  V30 7860 H 720.055 -1.56841 3.55434 0
M  V30 7861 H 721.727 0.850508 4.53392 0
M  V30 7862 H 719.97 0.867918 4.25029 0
M  V30 7863 H 720.641 -0.163187 5.51759 0
M  V30 7864 H 723.117 -1.29139 3.95553 0
M  V30 7865 H 721.993 -2.12015 5.06301 0
M  V30 7866 H 722.254 -2.76463 3.44994 0
M  V30 7867 N 721.313 -1.57302 -0.09688 0
M  V30 7868 C 722.562 -1.85183 -0.799388 0
M  V30 7869 C 722.875 -0.765818 -1.79985 0
M  V30 7870 O 724.081 -0.931696 -2.55013 0
M  V30 7871 C 722.537 -3.28399 -1.47249 0
M  V30 7872 C 722.145 -4.45066 -0.511888 0
M  V30 7873 C 723.889 -3.65506 -2.15883 0
M  V30 7874 C 721.796 -5.79315 -1.18948 0
M  V30 7875 H 720.726 -0.690752 -0.302287 0
M  V30 7876 H 723.377 -1.83425 -0.0523104 0
M  V30 7877 H 721.759 -3.24692 -2.26697 0
M  V30 7878 H 722.933 -4.60116 0.250962 0
M  V30 7879 H 721.248 -4.16343 0.0686576 0
M  V30 7880 H 723.845 -4.63087 -2.67309 0
M  V30 7881 H 724.188 -2.94041 -2.94696 0
M  V30 7882 H 724.721 -3.71094 -1.43298 0
M  V30 7883 H 721.46 -6.54007 -0.442198 0
M  V30 7884 H 720.98 -5.68111 -1.9238 0
M  V30 7885 H 722.659 -6.23816 -1.71646 0
M  V30 7886 N 722.791 0.367657 -1.53252 0
M  V30 7887 C 724.021 1.12955 -1.72988 0
M  V30 7888 C 724.429 1.8358 -0.457708 0
M  V30 7889 O 723.772 1.74336 0.579006 0
M  V30 7890 C 723.834 2.20545 -2.83902 0
M  V30 7891 C 723.498 1.69704 -4.24323 0
M  V30 7892 C 724.495 1.16223 -5.06743 0
M  V30 7893 C 722.18 1.7528 -4.70725 0
M  V30 7894 C 724.174 0.689935 -6.33655 0
M  V30 7895 C 721.861 1.27662 -5.97617 0
M  V30 7896 C 722.859 0.746083 -6.78913 0
M  V30 7897 O 722.547 0.276925 -8.03423 0
M  V30 7898 H 722.279 0.343753 -0.582074 0
M  V30 7899 H 724.833 0.433106 -2.00782 0
M  V30 7900 H 723.063 2.93676 -2.51577 0
M  V30 7901 H 724.752 2.82111 -2.91836 0
M  V30 7902 H 725.518 1.11256 -4.72067 0
M  V30 7903 H 721.397 2.15515 -4.07522 0
M  V30 7904 H 724.941 0.275164 -6.97057 0
M  V30 7905 H 720.838 1.32322 -6.31792 0
M  V30 7906 H 721.606 0.396445 -8.17539 0
M  V30 7907 N 724.269 1.44576 0.627338 0
M  V30 7908 C 725.499 1.50829 1.41189 0
M  V30 7909 C 725.907 0.133083 1.88731 0
M  V30 7910 O 725.25 -0.87199 1.61685 0
M  V30 7911 C 725.312 2.41449 2.66351 0
M  V30 7912 C 724.976 3.88549 2.40579 0
M  V30 7913 C 725.973 4.78981 2.0217 0
M  V30 7914 C 723.658 4.33287 2.54102 0
M  V30 7915 C 725.652 6.12153 1.77618 0
M  V30 7916 C 723.339 5.66505 2.29163 0
M  V30 7917 C 724.337 6.55756 1.9098 0
M  V30 7918 O 724.025 7.86506 1.66321 0
M  V30 7919 H 723.757 0.513797 0.439304 0
M  V30 7920 H 726.311 1.90256 0.774059 0
M  V30 7921 H 724.541 1.96955 3.32784 0
M  V30 7922 H 726.23 2.38608 3.28361 0
M  V30 7923 H 726.996 4.45689 1.91277 0
M  V30 7924 H 722.875 3.64074 2.82792 0
M  V30 7925 H 726.419 6.81776 1.47739 0
M  V30 7926 H 722.316 5.99358 2.39668 0
M  V30 7927 H 723.084 7.98341 1.80536 0
M  V30 7928 N 725.747 -0.868086 1.31537 0
M  V30 7929 C 727.158 -1.437 1.19195 0
M  V30 7930 C 727.509 -1.95169 -0.200842 0
M  V30 7931 O 726.634 -1.86432 -1.09872 0
M  V30 7932 C 727.229 -2.612 2.15778 0
M  V30 7933 C 725.788 -3.1413 2.07363 0
M  V30 7934 C 724.935 -1.86845 2.049 0
M  V30 7935 H 727.886 -0.676457 1.43561 0
M  V30 7936 H 727.907 -3.37948 1.74847 0
M  V30 7937 H 727.419 -2.23709 3.17137 0
M  V30 7938 H 725.52 -3.56238 1.09204 0
M  V30 7939 H 725.633 -3.76285 2.96557 0
M  V30 7940 H 723.997 -2.05886 1.49943 0
M  V30 7941 H 724.78 -1.51589 3.08019 0
M  V30 7942 N 727.225 -1.14528 -1.08264 0
M  V30 7943 C 728.502 -0.825185 -1.77342 0
M  V30 7944 C 728.882 0.681037 -1.99813 0
M  V30 7945 O 728.23 1.62234 -1.60912 0
M  V30 7946 C 728.44 -1.62556 -3.08831 0
M  V30 7947 C 729.788 -1.82585 -3.83338 0
M  V30 7948 O 730.812 -1.59254 -3.18617 0
M  V30 7949 O 729.671 -2.21598 -4.99556 0
M  V30 7950 H 726.765 -0.302531 -0.769678 0
M  V30 7951 H 729.311 -1.25056 -1.14713 0
M  V30 7952 H 728.083 -2.64862 -2.88035 0
M  V30 7953 H 727.706 -1.1959 -3.79189 0
M  V30 7954 N 728.703 1.26451 -0.940633 0
M  V30 7955 C 729.651 2.28389 -0.440581 0
M  V30 7956 C 730.645 1.62402 0.481859 0
M  V30 7957 O 731.851 1.76361 0.360132 0
M  V30 7958 H 728.226 0.741716 -0.123938 0
M  V30 7959 H 730.197 2.67967 -1.31288 0
M  V30 7960 C 728.946 3.46576 0.279364 0
M  V30 7961 H 728.269 3.97574 -0.421274 0
M  V30 7962 H 729.709 4.19826 0.59348 0
M  V30 7963 C 728.168 3.01815 1.49697 0
M  V30 7964 O 728.698 3.06607 2.59529 0
M  V30 7965 N 726.904 2.57163 1.35334 0
M  V30 7966 H 726.451 2.53464 0.459743 0
M  V30 7967 H 726.409 2.27578 2.16923 0
M  V30 7968 N 730.181 0.707592 1.40822 0
M  V30 7969 C 731.427 0.244031 2.01326 0
M  V30 7970 C 731.76 -1.15722 1.55955 0
M  V30 7971 O 731.035 -1.78347 0.776044 0
M  V30 7972 C 731.318 0.315128 3.58718 0
M  V30 7973 C 731.171 1.75419 4.14184 0
M  V30 7974 C 732.49 -0.318251 4.38948 0
M  V30 7975 H 729.609 0.0901471 0.731466 0
M  V30 7976 H 732.251 0.898584 1.67408 0
M  V30 7977 H 730.401 -0.242176 3.87744 0
M  V30 7978 H 732.073 2.36626 3.95987 0
M  V30 7979 H 730.316 2.28449 3.68773 0
M  V30 7980 H 730.987 1.75538 5.23345 0
M  V30 7981 H 733.463 0.156514 4.15806 0
M  V30 7982 H 732.339 -0.238019 5.48384 0
M  V30 7983 H 732.6 -1.40067 4.19325 0
M  V30 7984 N 731.66 -1.50943 0.453197 0
M  V30 7985 C 732.885 -2.07116 -0.108463 0
M  V30 7986 C 733.31 -1.31681 -1.3432 0
M  V30 7987 O 732.668 -0.359256 -1.77705 0
M  V30 7988 C 732.716 -3.58447 -0.393424 0
M  V30 7989 O 731.82 -3.85038 -1.47714 0
M  V30 7990 H 731.161 -0.66398 0.0050993 0
M  V30 7991 H 733.691 -1.94362 0.639095 0
M  V30 7992 H 733.701 -4.02961 -0.639222 0
M  V30 7993 H 732.376 -4.12774 0.508946 0
M  V30 7994 H 730.953 -3.52376 -1.22006 0
M  V30 7995 N 733.138 -0.185124 -1.56509 0
M  V30 7996 C 734.384 0.456934 -1.97585 0
M  V30 7997 C 734.717 1.61957 -1.07161 0
M  V30 7998 O 733.992 1.9412 -0.121546 0
M  V30 7999 C 734.275 0.926666 -3.47973 0
M  V30 8000 C 734.128 -0.237097 -4.49175 0
M  V30 8001 C 735.447 1.79561 -4.01803 0
M  V30 8002 H 732.566 0.164619 -0.71838 0
M  V30 8003 H 735.208 -0.274039 -1.88013 0
M  V30 8004 H 733.358 1.54954 -3.56261 0
M  V30 8005 H 735.03 -0.87454 -4.52934 0
M  V30 8006 H 733.273 -0.890446 -4.24563 0
M  V30 8007 H 733.944 0.133924 -5.51838 0
M  V30 8008 H 736.42 1.27039 -3.96232 0
M  V30 8009 H 735.296 2.09327 -5.07418 0
M  V30 8010 H 735.557 2.74629 -3.46455 0
M  V30 8011 N 734.616 1.57351 0.0885366 0
M  V30 8012 C 735.893 1.77449 0.822873 0
M  V30 8013 C 736.273 0.768463 1.96616 0
M  V30 8014 O 735.621 -0.201757 2.27608 0
M  V30 8015 C 735.831 3.23425 1.31137 0
M  V30 8016 C 737.179 3.86791 1.75152 0
M  V30 8017 O 738.203 3.27215 1.40745 0
M  V30 8018 O 737.062 4.91568 2.38794 0
M  V30 8019 H 734.156 0.727653 0.393002 0
M  V30 8020 H 736.702 1.69556 0.0699095 0
M  V30 8021 H 735.474 3.88188 0.49254 0
M  V30 8022 H 735.097 3.35977 2.12615 0
M  V30 8023 N 736.094 -0.359525 1.53444 0
M  V30 8024 C 737.026 -1.46098 1.76602 0
M  V30 8025 C 738.039 -1.49395 0.646912 0
M  V30 8026 O 739.228 -1.52765 0.923307 0
M  V30 8027 C 736.328 -2.84836 1.83635 0
M  V30 8028 C 735.501 -3.05164 3.13358 0
M  V30 8029 C 734.56 -4.24051 3.11556 0
M  V30 8030 O 733.586 -4.18935 3.85334 0
M  V30 8031 N 734.788 -5.31775 2.328 0
M  V30 8032 H 737.553 -1.2661 2.71643 0
M  V30 8033 H 735.114 -0.549294 1.52297 0
M  V30 8034 H 737.106 -3.62516 1.799 0
M  V30 8035 H 735.676 -2.97542 0.958509 0
M  V30 8036 H 734.896 -2.15091 3.30348 0
M  V30 8037 H 736.184 -3.15619 3.99076 0
M  V30 8038 H 735.582 -5.38796 1.7238 0
M  V30 8039 H 734.139 -6.0801 2.34877 0
M  V30 8040 N 737.572 -1.44907 -0.619662 0
M  V30 8041 C 738.818 -1.48512 -1.38102 0
M  V30 8042 C 739.151 -0.121686 -1.93818 0
M  V30 8043 O 738.426 0.862256 -1.74343 0
M  V30 8044 C 738.709 -2.55469 -2.53787 0
M  V30 8045 C 738.562 -4.01212 -2.03345 0
M  V30 8046 C 739.881 -2.58821 -3.55949 0
M  V30 8047 H 737 -0.540712 -0.500799 0
M  V30 8048 H 739.642 -1.7665 -0.69962 0
M  V30 8049 H 737.792 -2.31606 -3.11915 0
M  V30 8050 H 739.464 -4.36245 -1.49959 0
M  V30 8051 H 737.707 -4.12443 -1.34438 0
M  V30 8052 H 738.378 -4.71717 -2.86683 0
M  V30 8053 H 740.854 -2.80172 -3.07641 0
M  V30 8054 H 739.73 -3.35542 -4.34399 0
M  V30 8055 H 739.991 -1.63451 -4.10775 0
M  V30 8056 N 739.05 0.861098 -1.31996 0
M  V30 8057 C 740.299 1.60965 -1.21545 0
M  V30 8058 C 740.612 1.94325 0.222972 0
M  V30 8059 O 741.818 2.67757 0.449272 0
M  V30 8060 C 740.274 2.90223 -2.12834 0
M  V30 8061 C 739.882 2.64313 -3.61722 0
M  V30 8062 C 741.626 3.68229 -2.11205 0
M  V30 8063 C 739.533 3.89532 -4.44993 0
M  V30 8064 H 738.463 0.603988 -0.451348 0
M  V30 8065 H 741.114 0.951358 -1.56912 0
M  V30 8066 H 739.496 3.57475 -1.70375 0
M  V30 8067 H 740.67 2.05413 -4.12483 0
M  V30 8068 H 738.985 1.99647 -3.65418 0
M  V30 8069 H 741.582 4.61138 -2.70658 0
M  V30 8070 H 741.925 4.01466 -1.1014 0
M  V30 8071 H 742.458 3.07873 -2.51911 0
M  V30 8072 H 739.197 3.61441 -5.46846 0
M  V30 8073 H 738.717 4.47851 -3.98985 0
M  V30 8074 H 740.396 4.57334 -4.57663 0
M  V30 8075 N 740.528 1.15101 1.07655 0
M  V30 8076 C 741.458 0.867864 2.16773 0
M  V30 8077 C 742.439 -0.180283 1.69142 0
M  V30 8078 O 743.624 -0.0353152 1.94168 0
M  V30 8079 C 740.754 0.35299 3.45501 0
M  V30 8080 C 739.708 1.33746 4.06566 0
M  V30 8081 C 739.034 0.681562 5.30338 0
M  V30 8082 C 740.334 2.7024 4.46954 0
M  V30 8083 H 742.028 1.78034 2.40716 0
M  V30 8084 H 739.574 0.857435 1.15689 0
M  V30 8085 H 741.527 0.142465 4.21159 0
M  V30 8086 H 740.251 -0.594945 3.21135 0
M  V30 8087 H 738.91 1.53429 3.32949 0
M  V30 8088 H 738.558 -0.272422 5.02262 0
M  V30 8089 H 738.258 1.33853 5.72151 0
M  V30 8090 H 739.782 0.48074 6.08705 0
M  V30 8091 H 741.196 2.5442 5.13754 0
M  V30 8092 H 739.593 3.32282 4.99709 0
M  V30 8093 H 740.663 3.26537 3.58471 0
M  V30 8094 N 742.006 -1.2595 0.947325 0
M  V30 8095 C 743.231 -1.98083 0.614633 0
M  V30 8096 C 743.656 -1.70013 -0.804815 0
M  V30 8097 O 743.014 -0.95175 -1.54309 0
M  V30 8098 C 743.062 -3.4993 0.870706 0
M  V30 8099 O 742.166 -4.12364 -0.0541451 0
M  V30 8100 H 741.507 -0.621232 0.234451 0
M  V30 8101 H 744.037 -1.60259 1.27193 0
M  V30 8102 H 744.047 -4.00198 0.794051 0
M  V30 8103 H 742.722 -3.69691 1.90529 0
M  V30 8104 H 741.299 -3.72826 0.0740917 0
M  V30 8105 N 743.484 -0.715051 -1.40445 0
M  V30 8106 C 744.431 -0.0621393 -2.30716 0
M  V30 8107 C 745.401 0.750871 -1.48159 0
M  V30 8108 O 746.586 0.714928 -1.76899 0
M  V30 8109 C 743.726 0.854036 -3.34365 0
M  V30 8110 C 742.839 0.0305565 -4.31989 0
M  V30 8111 C 741.974 0.946162 -5.22706 0
M  V30 8112 C 741.013 0.116741 -6.11989 0
M  V30 8113 N 740.15 0.987194 -6.95125 0
M  V30 8114 H 744.99 -0.83764 -2.85985 0
M  V30 8115 H 742.527 -0.424759 -1.40834 0
M  V30 8116 H 744.485 1.39946 -3.93028 0
M  V30 8117 H 743.115 1.59572 -2.806 0
M  V30 8118 H 742.167 -0.632044 -3.75112 0
M  V30 8119 H 743.479 -0.611615 -4.95036 0
M  V30 8120 H 742.633 1.56014 -5.86297 0
M  V30 8121 H 741.372 1.62216 -4.59932 0
M  V30 8122 H 740.377 -0.510176 -5.47428 0
M  V30 8123 H 741.602 -0.555742 -6.76822 0
M  V30 8124 H 739.548 1.64885 -6.3494 0
M  V30 8125 H 739.465 0.401046 -7.54936 0
M  V30 8126 H 740.733 1.58737 -7.63166 0
M  V30 8127 N 744.962 1.50701 -0.461195 0
M  V30 8128 C 745.91 2.29918 0.352231 0
M  V30 8129 C 746.904 1.36778 0.999403 0
M  V30 8130 O 748.11 1.54015 0.931639 0
M  V30 8131 H 744.485 0.740249 0.132423 0
M  V30 8132 H 746.456 2.96497 -0.336424 0
M  V30 8133 C 745.205 3.17052 1.42736 0
M  V30 8134 H 744.528 3.88623 0.938747 0
M  V30 8135 H 745.968 3.75493 1.96928 0
M  V30 8136 C 744.427 2.3399 2.42384 0
M  V30 8137 O 744.957 2.01608 3.47444 0
M  V30 8138 N 743.163 1.96758 2.13857 0
M  V30 8139 H 742.71 2.23292 1.28447 0
M  V30 8140 H 742.668 1.41484 2.80766 0
M  V30 8141 N 746.441 0.193421 1.56409 0
M  V30 8142 C 747.669 -0.451438 2.01915 0
M  V30 8143 C 748.084 -1.55306 1.07357 0
M  V30 8144 O 747.441 -1.82333 0.0781512 0
M  V30 8145 C 747.492 -1.00931 3.47124 0
M  V30 8146 O 747.213 0.0483623 4.38073 0
M  V30 8147 C 748.714 -1.73021 4.0814 0
M  V30 8148 H 745.934 -0.113495 0.661332 0
M  V30 8149 H 748.478 0.301636 2.02263 0
M  V30 8150 H 746.633 -1.71277 3.47481 0
M  V30 8151 H 747.047 -0.366644 5.23217 0
M  V30 8152 H 748.521 -2.07289 5.11601 0
M  V30 8153 H 748.998 -2.6333 3.51502 0
M  V30 8154 H 749.604 -1.07264 4.11551 0
M  V30 8155 N 747.919 -1.57396 -0.0801906 0
M  V30 8156 C 749.144 -1.91437 -0.797909 0
M  V30 8157 C 749.569 -0.789075 -1.70749 0
M  V30 8158 O 748.927 0.25857 -1.79447 0
M  V30 8159 C 748.975 -3.24402 -1.57467 0
M  V30 8160 O 748.079 -3.13043 -2.68473 0
M  V30 8161 H 747.42 -0.627109 -0.218243 0
M  V30 8162 H 749.95 -2.04537 -0.050949 0
M  V30 8163 H 749.96 -3.58072 -1.95571 0
M  V30 8164 H 748.635 -4.05884 -0.907229 0
M  V30 8165 H 747.212 -2.90915 -2.33287 0
M  V30 8166 N 749.397 0.351382 -1.53633 0
M  V30 8167 C 750.307 1.45471 -1.84052 0
M  V30 8168 C 751.323 1.57945 -0.730015 0
M  V30 8169 O 752.499 1.73571 -1.02153 0
M  V30 8170 C 749.564 2.80562 -2.03681 0
M  V30 8171 C 748.625 2.77497 -3.27558 0
M  V30 8172 C 747.858 4.06144 -3.46241 0
M  V30 8173 O 748.081 5.03028 -2.68922 0
M  V30 8174 O 747.015 4.11092 -4.39645 0
M  V30 8175 H 750.841 1.22684 -2.77817 0
M  V30 8176 H 748.426 0.542827 -1.3919 0
M  V30 8177 H 750.308 3.6058 -2.18082 0
M  V30 8178 H 748.983 3.03296 -1.13106 0
M  V30 8179 H 747.89 1.96126 -3.18568 0
M  V30 8180 H 749.223 2.59716 -4.18101 0
M  V30 8181 N 750.875 1.45233 0.611969 0
M  V30 8182 C 751.825 1.49997 1.71711 0
M  V30 8183 C 752.809 0.363689 1.56736 0
M  V30 8184 O 754.001 0.610261 1.66147 0
M  V30 8185 C 751.13 1.46537 3.10454 0
M  V30 8186 C 750.216 2.65351 3.30831 0
M  V30 8187 N 750.607 3.90485 3.21489 0
M  V30 8188 C 748.905 2.60955 3.61688 0
M  V30 8189 C 749.606 4.69758 3.43078 0
M  V30 8190 N 748.582 4.01141 3.66861 0
M  V30 8191 H 752.384 2.44574 1.62975 0
M  V30 8192 H 749.898 1.40464 0.815082 0
M  V30 8193 H 751.895 1.48035 3.89732 0
M  V30 8194 H 750.555 0.530139 3.20343 0
M  V30 8195 H 751.566 4.22171 2.99987 0
M  V30 8196 H 748.243 1.76319 3.78441 0
M  V30 8197 H 749.633 5.7877 3.41285 0
M  V30 8198 N 752.353 -0.854086 1.3245 0
M  V30 8199 C 753.601 -1.60513 1.228 0
M  V30 8200 C 753.922 -1.93865 -0.210073 0
M  V30 8201 O 753.192 -1.59673 -1.13496 0
M  V30 8202 H 751.772 -0.595099 0.451516 0
M  V30 8203 H 754.434 -1.0216 1.6598 0
M  V30 8204 H 753.53 -2.54182 1.81102 0
M  V30 8205 N 753.831 -1.1567 -1.07043 0
M  V30 8206 C 754.763 -0.814095 -2.14255 0
M  V30 8207 C 755.776 0.175293 -1.61854 0
M  V30 8208 O 756.965 -0.0483984 -1.78434 0
M  V30 8209 C 754.065 -0.190082 -3.38367 0
M  V30 8210 C 753.238 -1.21768 -4.20109 0
M  V30 8211 C 752.297 -0.614863 -5.22595 0
M  V30 8212 O 751.323 -1.28167 -5.54583 0
M  V30 8213 N 752.525 0.601955 -5.77371 0
M  V30 8214 H 755.29 -1.73677 -2.44247 0
M  V30 8215 H 752.851 -1.05301 -1.22977 0
M  V30 8216 H 754.843 0.22604 -4.04068 0
M  V30 8217 H 753.413 0.635992 -3.06062 0
M  V30 8218 H 752.633 -1.81025 -3.50177 0
M  V30 8219 H 753.921 -1.9114 -4.71533 0
M  V30 8220 H 753.319 1.162 -5.53637 0
M  V30 8221 H 751.876 0.96039 -6.44686 0
M  V30 8222 N 755.309 1.25446 -0.953992 0
M  V30 8223 C 756.239 2.28264 -0.491717 0
M  V30 8224 C 757.22 1.63717 0.461617 0
M  V30 8225 O 758.405 1.90821 0.36071 0
M  V30 8226 C 755.535 3.46525 0.231915 0
M  V30 8227 C 754.489 4.23247 -0.636098 0
M  V30 8228 C 753.815 5.34254 0.218238 0
M  V30 8229 C 755.115 4.85971 -1.91389 0
M  V30 8230 H 756.809 2.67183 -1.35106 0
M  V30 8231 H 754.355 1.2844 -0.651095 0
M  V30 8232 H 756.308 4.17576 0.566439 0
M  V30 8233 H 755.032 3.06594 1.12551 0
M  V30 8234 H 753.691 3.53978 -0.953696 0
M  V30 8235 H 753.339 4.90564 1.11156 0
M  V30 8236 H 753.039 5.86501 -0.359232 0
M  V30 8237 H 754.563 6.08138 0.547743 0
M  V30 8238 H 755.977 5.49168 -1.64581 0
M  V30 8239 H 754.374 5.48391 -2.43696 0
M  V30 8240 H 755.444 4.08192 -2.61738 0
M  V30 8241 N 756.787 0.722489 1.40064 0
M  V30 8242 C 758.064 0.191829 1.94657 0
M  V30 8243 C 758.444 -1.30389 1.66018 0
M  V30 8244 O 757.792 -2.06342 0.981588 0
M  V30 8245 C 758.002 0.511978 3.45224 0
M  V30 8246 C 759.35 0.454426 4.22161 0
M  V30 8247 O 760.374 0.448438 3.53366 0
M  V30 8248 O 759.233 0.437986 5.44742 0
M  V30 8249 H 756.327 0.0307821 0.826427 0
M  V30 8250 H 758.873 0.800493 1.49634 0
M  V30 8251 H 757.645 1.54622 3.59455 0
M  V30 8252 H 757.268 -0.126296 3.97399 0
M  V30 8253 N 758.265 -1.50454 0.469181 0
M  V30 8254 C 759.195 -2.31353 -0.31592 0
M  V30 8255 C 760.176 -1.38172 -0.992094 0
M  V30 8256 O 761.361 -1.67093 -0.989633 0
M  V30 8257 C 758.491 -3.1786 -1.39937 0
M  V30 8258 C 757.445 -4.19578 -0.844909 0
M  V30 8259 C 756.771 -4.9481 -2.0265 0
M  V30 8260 C 758.071 -5.22106 0.142499 0
M  V30 8261 H 759.765 -2.97237 0.359269 0
M  V30 8262 H 757.311 -1.42942 0.174224 0
M  V30 8263 H 759.264 -3.7325 -1.95607 0
M  V30 8264 H 757.988 -2.49858 -2.1033 0
M  V30 8265 H 756.647 -3.65285 -0.310189 0
M  V30 8266 H 756.295 -4.23282 -2.71737 0
M  V30 8267 H 755.995 -5.63613 -1.66174 0
M  V30 8268 H 757.519 -5.53035 -2.58815 0
M  V30 8269 H 758.933 -5.72378 -0.324966 0
M  V30 8270 H 757.33 -5.98618 0.421441 0
M  V30 8271 H 758.4 -4.7297 1.06901 0
M  V30 8272 N 759.743 -0.201713 -1.56304 0
M  V30 8273 C 760.673 0.71155 -2.22394 0
M  V30 8274 C 761.654 1.21625 -1.18917 0
M  V30 8275 O 762.839 1.26388 -1.47444 0
M  V30 8276 C 759.969 1.92837 -2.88845 0
M  V30 8277 C 758.923 1.55831 -3.98623 0
M  V30 8278 C 758.249 2.85228 -4.52271 0
M  V30 8279 C 759.549 0.763249 -5.16693 0
M  V30 8280 H 761.243 0.160573 -2.98969 0
M  V30 8281 H 758.789 0.0757916 -1.438 0
M  V30 8282 H 760.742 2.57253 -3.33764 0
M  V30 8283 H 759.466 2.50398 -2.09686 0
M  V30 8284 H 758.125 0.9377 -3.54405 0
M  V30 8285 H 757.773 3.40893 -3.69866 0
M  V30 8286 H 757.473 2.6121 -5.26349 0
M  V30 8287 H 758.997 3.50622 -4.99897 0
M  V30 8288 H 760.411 1.31066 -5.58117 0
M  V30 8289 H 758.808 0.620935 -5.96879 0
M  V30 8290 H 759.878 -0.234322 -4.84334 0
M  V30 8291 N 761.222 1.57436 0.0718424 0
M  V30 8292 C 762.452 1.91196 0.782795 0
M  V30 8293 C 762.86 0.795927 1.71644 0
M  V30 8294 O 762.203 -0.239604 1.82131 0
M  V30 8295 C 762.265 3.20421 1.63005 0
M  V30 8296 C 761.929 4.48724 0.865782 0
M  V30 8297 C 762.926 5.19571 0.185051 0
M  V30 8298 C 760.611 4.95345 0.832971 0
M  V30 8299 C 762.605 6.3529 -0.518264 0
M  V30 8300 C 760.292 6.1097 0.125884 0
M  V30 8301 C 761.29 6.80794 -0.548533 0
M  V30 8302 O 760.978 7.94213 -1.24423 0
M  V30 8303 H 760.71 0.636486 0.227731 0
M  V30 8304 H 763.264 2.05348 0.0464187 0
M  V30 8305 H 761.494 3.02478 2.40923 0
M  V30 8306 H 763.183 3.39831 2.21968 0
M  V30 8307 H 763.949 4.8458 0.201707 0
M  V30 8308 H 759.828 4.40871 1.34737 0
M  V30 8309 H 763.372 6.89725 -1.04523 0
M  V30 8310 H 759.269 6.45411 0.107155 0
M  V30 8311 H 760.037 8.10331 -1.1535 0
M  V30 8312 N 762.7 -0.34323 1.53817 0
M  V30 8313 C 764.111 -0.918823 1.62525 0
M  V30 8314 C 764.462 -1.89542 0.506765 0
M  V30 8315 O 763.587 -2.13326 -0.363441 0
M  V30 8316 C 764.182 -1.67326 2.94597 0
M  V30 8317 C 762.741 -2.19786 3.05567 0
M  V30 8318 C 761.888 -1.01708 2.57974 0
M  V30 8319 H 764.839 -0.121358 1.58235 0
M  V30 8320 H 764.86 -2.53615 2.83654 0
M  V30 8321 H 764.372 -0.962223 3.75983 0
M  V30 8322 H 762.473 -2.94065 2.28816 0
M  V30 8323 H 762.586 -2.46135 4.1104 0
M  V30 8324 H 760.95 -1.39058 2.13389 0
M  V30 8325 H 761.733 -0.320671 3.41799 0
M  V30 8326 N 764.178 -1.45556 -0.604258 0
M  V30 8327 C 765.403 -1.53509 -1.39462 0
M  V30 8328 C 765.828 -0.169638 -1.87333 0
M  V30 8329 O 765.186 0.846346 -1.60333 0
M  V30 8330 C 765.234 -2.52654 -2.5729 0
M  V30 8331 O 764.338 -2.04666 -3.5803 0
M  V30 8332 H 763.679 -0.517355 -0.416221 0
M  V30 8333 H 766.209 -1.90939 -0.735072 0
M  V30 8334 H 766.219 -2.71568 -3.04491 0
M  V30 8335 H 764.894 -3.51823 -2.21797 0
M  V30 8336 H 763.471 -1.95643 -3.17456 0
M  V30 8337 N 765.656 0.84705 -1.32902 0
M  V30 8338 C 766.905 1.59667 -1.23245 0
M  V30 8339 C 767.218 1.94551 0.202349 0
M  V30 8340 O 768.424 2.68218 0.420847 0
M  V30 8341 C 766.88 2.8795 -2.15901 0
M  V30 8342 C 766.488 2.60461 -3.64505 0
M  V30 8343 C 768.232 3.65968 -2.15098 0
M  V30 8344 C 766.139 3.84791 -4.49099 0
M  V30 8345 H 765.069 0.599167 -0.457728 0
M  V30 8346 H 767.72 0.934662 -1.57912 0
M  V30 8347 H 766.102 3.55648 -1.74157 0
M  V30 8348 H 767.276 2.01026 -4.14639 0
M  V30 8349 H 765.591 1.9576 -3.67515 0
M  V30 8350 H 768.188 4.58241 -2.75534 0
M  V30 8351 H 768.531 4.00275 -1.14392 0
M  V30 8352 H 769.064 3.05184 -2.55162 0
M  V30 8353 H 765.803 3.55621 -5.50649 0
M  V30 8354 H 765.323 4.43594 -4.03713 0
M  V30 8355 H 767.002 4.52454 -4.62487 0
M  V30 8356 N 767.134 1.16236 1.06428 0
M  V30 8357 C 768.411 0.853294 1.76006 0
M  V30 8358 C 768.791 -0.649162 2.00871 0
M  V30 8359 O 768.139 -1.59653 1.63472 0
M  V30 8360 C 768.349 1.67448 3.06206 0
M  V30 8361 C 769.697 1.8866 3.80385 0
M  V30 8362 O 770.721 1.64303 3.16043 0
M  V30 8363 O 769.58 2.29518 4.95968 0
M  V30 8364 H 766.674 0.314737 0.764767 0
M  V30 8365 H 769.22 1.26865 1.12709 0
M  V30 8366 H 767.992 2.69411 2.83784 0
M  V30 8367 H 767.615 1.25608 3.77238 0
M  V30 8368 N 768.612 -1.24939 0.960631 0
M  V30 8369 C 769.837 -1.9742 0.635608 0
M  V30 8370 C 770.262 -1.70857 -0.786737 0
M  V30 8371 O 769.62 -0.968063 -1.53291 0
M  V30 8372 C 769.668 -3.48987 0.907771 0
M  V30 8373 O 768.772 -4.12399 -0.0104053 0
M  V30 8374 H 768.113 -0.61871 0.241027 0
M  V30 8375 H 770.643 -1.58901 1.28886 0
M  V30 8376 H 770.653 -3.99334 0.836453 0
M  V30 8377 H 769.328 -3.6765 1.94439 0
M  V30 8378 H 767.905 -3.72727 0.113631 0
M  V30 8379 N 770.09 -0.729906 -1.39679 0
M  V30 8380 C 771 -0.0880322 -2.34435 0
M  V30 8381 C 772.016 0.727674 -1.58053 0
M  V30 8382 O 773.192 0.657321 -1.90371 0
M  V30 8383 C 770.257 0.812211 -3.37052 0
M  V30 8384 C 769.318 -0.0151681 -4.29297 0
M  V30 8385 C 768.551 0.842202 -5.27013 0
M  V30 8386 O 768.774 2.08108 -5.31081 0
M  V30 8387 O 767.708 0.27357 -6.01278 0
M  V30 8388 H 771.534 -0.869989 -2.90972 0
M  V30 8389 H 769.119 -0.490522 -1.41118 0
M  V30 8390 H 771.001 1.32745 -3.99946 0
M  V30 8391 H 769.676 1.57307 -2.82907 0
M  V30 8392 H 768.583 -0.575811 -3.69642 0
M  V30 8393 H 769.916 -0.738129 -4.86634 0
M  V30 8394 N 771.568 1.50203 -0.477153 0
M  V30 8395 C 772.793 2.07263 0.0754986 0
M  V30 8396 C 773.218 1.33801 1.32208 0
M  V30 8397 O 772.576 0.387482 1.77111 0
M  V30 8398 C 772.624 3.59028 0.336348 0
M  V30 8399 O 771.728 3.87339 1.4157 0
M  V30 8400 H 771.069 0.663815 -0.015662 0
M  V30 8401 H 773.599 1.93321 -0.669936 0
M  V30 8402 H 773.609 4.03927 0.575034 0
M  V30 8403 H 772.284 4.11912 -0.574551 0
M  V30 8404 H 770.861 3.54272 1.16385 0
M  V30 8405 N 773.046 0.209999 1.56195 0
M  V30 8406 C 773.956 -0.716459 2.23392 0
M  V30 8407 C 774.972 -1.22291 1.23778 0
M  V30 8408 O 776.148 -1.26694 1.56558 0
M  V30 8409 C 773.213 -1.91261 2.89172 0
M  V30 8410 C 772.274 -1.44927 4.04097 0
M  V30 8411 C 771.507 -2.5884 4.66731 0
M  V30 8412 O 771.73 -3.76693 4.2832 0
M  V30 8413 O 770.664 -2.30701 5.55932 0
M  V30 8414 H 774.49 -0.174089 3.03201 0
M  V30 8415 H 772.075 -0.0199505 1.49387 0
M  V30 8416 H 773.957 -2.6114 3.30733 0
M  V30 8417 H 772.632 -2.4433 2.12331 0
M  V30 8418 H 771.539 -0.718839 3.67129 0
M  V30 8419 H 772.872 -0.965084 4.82646 0
M  V30 8420 N 774.524 -1.57472 -0.0634922 0
M  V30 8421 C 775.773 -1.86837 -0.759928 0
M  V30 8422 C 776.086 -0.803823 -1.7832 0
M  V30 8423 O 777.292 -0.985578 -2.52979 0
M  V30 8424 C 775.748 -3.31448 -1.4025 0
M  V30 8425 C 775.356 -4.46052 -0.417368 0
M  V30 8426 C 777.1 -3.70003 -2.08082 0
M  V30 8427 C 775.007 -5.81707 -1.06633 0
M  V30 8428 H 773.937 -0.697009 -0.287567 0
M  V30 8429 H 776.588 -1.83495 -0.0133914 0
M  V30 8430 H 774.97 -3.29427 -2.19759 0
M  V30 8431 H 776.144 -4.5948 0.348503 0
M  V30 8432 H 774.459 -4.16104 0.156955 0
M  V30 8433 H 777.056 -4.68653 -2.57426 0
M  V30 8434 H 777.399 -3.00226 -2.88393 0
M  V30 8435 H 777.932 -3.7405 -1.35394 0
M  V30 8436 H 774.671 -6.54798 -0.303374 0
M  V30 8437 H 774.191 -5.72064 -1.80286 0
M  V30 8438 H 775.87 -6.27317 -1.58376 0
M  V30 8439 N 776.003 0.335068 -1.53997 0
M  V30 8440 C 776.933 1.41727 -1.85568 0
M  V30 8441 C 777.914 1.54505 -0.7115 0
M  V30 8442 O 779.099 1.68573 -0.964191 0
M  V30 8443 C 776.229 2.7866 -2.07282 0
M  V30 8444 C 775.183 2.80682 -3.23112 0
M  V30 8445 C 774.509 4.20581 -3.30175 0
M  V30 8446 C 775.809 2.45458 -4.61029 0
M  V30 8447 H 777.503 1.15555 -2.76202 0
M  V30 8448 H 775.049 0.554445 -1.32898 0
M  V30 8449 H 777.002 3.54423 -2.27952 0
M  V30 8450 H 775.726 3.06286 -1.13387 0
M  V30 8451 H 774.385 2.07373 -3.02311 0
M  V30 8452 H 774.033 4.4533 -2.33859 0
M  V30 8453 H 773.733 4.22843 -4.08016 0
M  V30 8454 H 775.257 4.98174 -3.53066 0
M  V30 8455 H 776.671 3.10934 -4.81656 0
M  V30 8456 H 775.068 2.5899 -5.41336 0
M  V30 8457 H 776.138 1.40628 -4.6406 0
M  V30 8458 N 777.481 1.45874 0.596531 0
M  V30 8459 C 778.892 1.44798 1.17857 0
M  V30 8460 C 779.243 0.181443 1.95359 0
M  V30 8461 O 778.368 -0.716336 2.042 0
M  V30 8462 C 778.963 2.62333 2.14398 0
M  V30 8463 C 777.522 2.64342 2.67955 0
M  V30 8464 C 776.669 2.37244 1.43564 0
M  V30 8465 H 779.62 1.53954 0.385222 0
M  V30 8466 H 779.641 2.37063 2.97626 0
M  V30 8467 H 779.153 3.54499 1.57963 0
M  V30 8468 H 777.254 1.76213 3.28298 0
M  V30 8469 H 777.367 3.63897 3.11634 0
M  V30 8470 H 775.731 1.87022 1.72901 0
M  V30 8471 H 776.514 3.31568 0.889805 0
M  V30 8472 N 778.959 -0.83999 1.33349 0
M  V30 8473 C 780.207 -1.59202 1.24496 0
M  V30 8474 C 780.528 -1.94077 -0.189499 0
M  V30 8475 O 779.798 -1.60868 -1.11796 0
M  V30 8476 H 778.378 -0.590276 0.457802 0
M  V30 8477 H 781.04 -1.00394 1.67054 0
M  V30 8478 H 780.136 -2.52247 1.83788 0
M  V30 8479 N 780.437 -1.16799 -1.0581 0
M  V30 8480 C 781.347 -0.893492 -2.16919 0
M  V30 8481 C 782.363 0.136061 -1.73467 0
M  V30 8482 O 783.539 -0.0417348 -2.01357 0
M  V30 8483 C 780.604 -0.403763 -3.44341 0
M  V30 8484 C 779.665 -1.49914 -4.02274 0
M  V30 8485 C 778.898 -1.03269 -5.23614 0
M  V30 8486 O 779.121 0.115647 -5.70283 0
M  V30 8487 O 778.055 -1.8231 -5.73626 0
M  V30 8488 H 781.881 -1.82274 -2.42919 0
M  V30 8489 H 779.466 -0.948361 -1.1544 0
M  V30 8490 H 781.348 -0.137874 -4.21174 0
M  V30 8491 H 780.023 0.497413 -3.19855 0
M  V30 8492 H 778.93 -1.81883 -3.26909 0
M  V30 8493 H 780.263 -2.3758 -4.31064 0
M  V30 8494 N 781.915 1.24427 -0.967243 0
M  V30 8495 C 782.863 2.27403 -0.488927 0
M  V30 8496 C 783.857 1.63388 0.447302 0
M  V30 8497 O 785.063 1.77085 0.322643 0
M  V30 8498 H 781.438 0.738921 -0.139643 0
M  V30 8499 H 783.409 2.65122 -1.36942 0
M  V30 8500 C 782.158 3.4709 0.205787 0
M  V30 8501 H 781.481 3.96591 -0.50551 0
M  V30 8502 H 782.921 4.2099 0.504296 0
M  V30 8503 C 781.38 3.04923 1.43261 0
M  V30 8504 O 781.91 3.12043 2.52967 0
M  V30 8505 N 780.116 2.59976 1.29849 0
M  V30 8506 H 779.663 2.54382 0.405876 0
M  V30 8507 H 779.621 2.32128 2.12047 0
M  V30 8508 N 783.393 0.737304 1.3929 0
M  V30 8509 C 784.325 0.0592106 2.29124 0
M  V30 8510 C 785.338 -0.701026 1.46934 0
M  V30 8511 O 786.527 -0.544808 1.69983 0
M  V30 8512 C 783.627 -0.940358 3.25592 0
M  V30 8513 C 782.8 -0.241163 4.36735 0
M  V30 8514 C 781.859 -1.14916 5.13498 0
M  V30 8515 O 780.885 -0.625783 5.6575 0
M  V30 8516 N 782.087 -2.47869 5.2492 0
M  V30 8517 H 784.852 0.830647 2.87959 0
M  V30 8518 H 782.413 0.586718 1.50895 0
M  V30 8519 H 784.405 -1.55046 3.73822 0
M  V30 8520 H 782.975 -1.61299 2.67771 0
M  V30 8521 H 782.195 0.549441 3.90352 0
M  V30 8522 H 783.483 0.243299 5.08218 0
M  V30 8523 H 782.881 -2.92864 4.83991 0
M  V30 8524 H 781.438 -3.03969 5.76581 0
M  V30 8525 N 784.871 -1.49948 0.485112 0
M  V30 8526 C 786.117 -2.02695 -0.0651022 0
M  V30 8527 C 786.45 -1.36534 -1.38102 0
M  V30 8528 O 785.725 -0.495677 -1.88078 0
M  V30 8529 C 786.008 -3.59337 -0.234285 0
M  V30 8530 C 785.861 -4.3605 1.10364 0
M  V30 8531 C 787.18 -4.28996 -0.982351 0
M  V30 8532 H 784.299 -0.736666 -0.0221856 0
M  V30 8533 H 786.941 -1.7913 0.633433 0
M  V30 8534 H 785.091 -3.79546 -0.829262 0
M  V30 8535 H 786.763 -4.27377 1.73627 0
M  V30 8536 H 785.006 -3.99236 1.69686 0
M  V30 8537 H 785.677 -5.43959 0.938743 0
M  V30 8538 H 788.153 -4.13346 -0.477904 0
M  V30 8539 H 787.029 -5.38379 -1.06955 0
M  V30 8540 H 787.29 -3.93135 -2.02231 0
M  V30 8541 N 786.349 -0.21828 -1.56081 0
M  V30 8542 C 787.596 0.414307 -1.98216 0
M  V30 8543 C 787.924 1.60005 -1.10584 0
M  V30 8544 O 787.179 1.95124 -0.150043 0
M  V30 8545 C 787.478 0.894782 -3.46018 0
M  V30 8546 C 787.144 -0.180083 -4.5054 0
M  V30 8547 C 785.806 -0.475367 -4.78846 0
M  V30 8548 C 788.158 -0.907191 -5.13244 0
M  V30 8549 C 785.486 -1.50233 -5.67139 0
M  V30 8550 C 787.838 -1.92347 -6.02649 0
M  V30 8551 C 786.502 -2.22571 -6.293 0
M  V30 8552 H 785.772 0.151606 -0.725325 0
M  V30 8553 H 788.419 -0.320113 -1.88806 0
M  V30 8554 H 786.724 1.7079 -3.52616 0
M  V30 8555 H 788.421 1.39403 -3.75989 0
M  V30 8556 H 785.011 0.06022 -4.28558 0
M  V30 8557 H 789.195 -0.692303 -4.91448 0
M  V30 8558 H 784.451 -1.74215 -5.86054 0
M  V30 8559 H 788.625 -2.49197 -6.50288 0
M  V30 8560 H 786.252 -3.0229 -6.97513 0
M  V30 8561 N 787.827 1.57504 0.0551401 0
M  V30 8562 C 789.057 1.92015 0.762472 0
M  V30 8563 C 789.465 0.814088 1.7079 0
M  V30 8564 O 788.808 -0.220273 1.82375 0
M  V30 8565 C 788.87 3.22132 1.59598 0
M  V30 8566 C 788.534 4.49617 0.818141 0
M  V30 8567 C 789.531 5.19738 0.129933 0
M  V30 8568 C 787.216 4.96201 0.780387 0
M  V30 8569 C 789.21 6.34704 -0.585616 0
M  V30 8570 C 786.897 6.11069 0.0610756 0
M  V30 8571 C 787.895 6.80174 -0.62071 0
M  V30 8572 O 787.583 7.92849 -1.3284 0
M  V30 8573 H 787.315 0.638866 0.220967 0
M  V30 8574 H 789.869 2.05385 0.0246362 0
M  V30 8575 H 788.099 3.05016 2.37701 0
M  V30 8576 H 789.788 3.42166 2.18351 0
M  V30 8577 H 790.554 4.84767 0.150299 0
M  V30 8578 H 786.433 4.42275 1.30054 0
M  V30 8579 H 789.977 6.88578 -1.11833 0
M  V30 8580 H 785.874 6.45488 0.0386945 0
M  V30 8581 H 786.642 8.09062 -1.23938 0
M  V30 8582 N 789.305 -0.326896 1.54172 0
M  V30 8583 C 790.582 -1.08326 1.62864 0
M  V30 8584 C 790.962 -2.06018 0.46039 0
M  V30 8585 O 790.31 -2.21889 -0.545685 0
M  V30 8586 C 790.52 -1.78816 2.9971 0
M  V30 8587 C 791.868 -2.31958 3.55641 0
M  V30 8588 O 792.892 -1.88888 3.01993 0
M  V30 8589 O 791.751 -3.10801 4.49517 0
M  V30 8590 H 788.845 -0.499131 0.659392 0
M  V30 8591 H 791.391 -0.327054 1.66519 0
M  V30 8592 H 790.163 -1.07739 3.76176 0
M  V30 8593 H 789.786 -2.61255 2.99719 0
M  V30 8594 N 790.784 -1.46188 -0.588786 0
M  V30 8595 C 791.732 -1.56653 -1.71938 0
M  V30 8596 C 792.726 -0.435354 -1.6371 0
M  V30 8597 O 793.932 -0.611996 -1.69277 0
M  V30 8598 H 790.307 -0.492408 -0.568365 0
M  V30 8599 H 792.278 -2.51724 -1.60242 0
M  V30 8600 C 791.027 -1.56822 -3.10326 0
M  V30 8601 H 790.35 -2.43198 -3.17325 0
M  V30 8602 H 791.79 -1.68199 -3.89211 0
M  V30 8603 C 790.249 -0.295802 -3.35599 0
M  V30 8604 O 790.779 0.616515 -3.96941 0
M  V30 8605 N 788.985 -0.185609 -2.90007 0
M  V30 8606 H 788.532 -0.928914 -2.40269 0
M  V30 8607 H 788.49 0.664883 -3.07289 0
M  V30 8608 N 792.262 0.832906 -1.33792 0
M  V30 8609 C 793.678 1.1245 -1.13257 0
M  V30 8610 C 793.878 2.01369 0.0725832 0
M  V30 8611 O 792.934 2.41071 0.751082 0
M  V30 8612 C 794.247 1.78084 -2.42294 0
M  V30 8613 C 795.795 1.90624 -2.48257 0
M  V30 8614 C 796.27 2.59673 -3.77271 0
M  V30 8615 N 797.761 2.67181 -3.78376 0
M  V30 8616 C 798.496 3.21313 -4.74916 0
M  V30 8617 N 797.992 3.76086 -5.81835 0
M  V30 8618 N 799.785 3.19621 -4.62384 0
M  V30 8619 H 791.936 0.241244 -2.11026 0
M  V30 8620 H 794.199 0.169557 -0.932713 0
M  V30 8621 H 793.905 1.20209 -3.30519 0
M  V30 8622 H 793.779 2.78049 -2.5489 0
M  V30 8623 H 796.166 2.4765 -1.60478 0
M  V30 8624 H 796.247 0.89591 -2.39598 0
M  V30 8625 H 795.891 2.03304 -4.65435 0
M  V30 8626 H 795.821 3.61189 -3.8321 0
M  V30 8627 H 798.312 2.28346 -3.01108 0
M  V30 8628 H 798.625 4.15612 -6.51526 0
M  V30 8629 H 796.97 3.74357 -5.85561 0
M  V30 8630 H 800.161 2.76091 -3.7801 0
M  V30 8631 H 800.334 3.61504 -5.37791 0
M  V30 8632 N 793.74 1.17359 1.05189 0
M  V30 8633 C 794.968 0.986529 1.81866 0
M  V30 8634 C 795.383 -0.46522 1.82979 0
M  V30 8635 O 794.74 -1.32305 1.25705 0
M  V30 8636 C 794.791 1.52021 3.27982 0
M  V30 8637 O 794.512 2.91511 3.27037 0
M  V30 8638 C 796.013 1.37774 4.21347 0
M  V30 8639 H 793.233 0.349021 0.573084 0
M  V30 8640 H 795.777 1.55648 1.32643 0
M  V30 8641 H 793.932 0.992287 3.74476 0
M  V30 8642 H 794.346 3.16178 4.18488 0
M  V30 8643 H 795.82 1.7993 5.21852 0
M  V30 8644 H 796.297 0.32483 4.37997 0
M  V30 8645 H 796.903 1.89583 3.80708 0
M  V30 8646 N 795.218 -1.23913 0.973828 0
M  V30 8647 C 796.15 -2.24397 0.466763 0
M  V30 8648 C 797.163 -1.57078 -0.427828 0
M  V30 8649 O 798.352 -1.76973 -0.233019 0
M  V30 8650 C 795.452 -3.37141 -0.344798 0
M  V30 8651 C 794.625 -4.34037 0.541349 0
M  V30 8652 C 793.684 -5.2576 -0.215243 0
M  V30 8653 O 792.71 -5.67842 0.39291 0
M  V30 8654 N 793.912 -5.60702 -1.5031 0
M  V30 8655 H 796.677 -2.68536 1.33074 0
M  V30 8656 H 794.238 -1.38017 0.846346 0
M  V30 8657 H 796.23 -3.95476 -0.859133 0
M  V30 8658 H 794.8 -2.92239 -1.10974 0
M  V30 8659 H 794.02 -3.74302 1.23659 0
M  V30 8660 H 795.308 -4.95738 1.1455 0
M  V30 8661 H 794.706 -5.28451 -2.01882 0
M  V30 8662 H 793.263 -6.21538 -1.96301 0
M  V30 8663 N 796.696 -0.74468 -1.38897 0
M  V30 8664 C 797.644 -0.100312 -2.32384 0
M  V30 8665 C 798.638 0.715191 -1.53562 0
M  V30 8666 O 799.844 0.615288 -1.69157 0
M  V30 8667 H 796.219 -0.0136403 -0.751876 0
M  V30 8668 H 798.19 -0.905007 -2.84345 0
M  V30 8669 C 796.939 0.785432 -3.38713 0
M  V30 8670 H 796.262 0.167308 -3.9945 0
M  V30 8671 H 797.702 1.20374 -4.06554 0
M  V30 8672 C 796.161 1.92408 -2.76552 0
M  V30 8673 O 796.691 3.01752 -2.65157 0
M  V30 8674 N 794.897 1.71642 -2.34494 0
M  V30 8675 H 794.444 0.827079 -2.43961 0
M  V30 8676 H 794.402 2.48 -1.93244 0
M  V30 8677 N 798.174 1.49689 -0.493057 0
M  V30 8678 C 799.42 2.02727 0.0543518 0
M  V30 8679 C 799.753 1.37264 1.37376 0
M  V30 8680 O 799.028 0.505644 1.87812 0
M  V30 8681 C 799.311 3.59456 0.215226 0
M  V30 8682 C 799.164 4.35459 -1.12675 0
M  V30 8683 C 800.483 4.29511 0.959586 0
M  V30 8684 H 797.602 0.736773 0.0182786 0
M  V30 8685 H 800.244 1.78792 -0.642924 0
M  V30 8686 H 798.394 3.79981 0.809122 0
M  V30 8687 H 800.066 4.2645 -1.75891 0
M  V30 8688 H 798.309 3.9833 -1.71801 0
M  V30 8689 H 798.98 5.43454 -0.967578 0
M  V30 8690 H 801.456 4.13594 0.455977 0
M  V30 8691 H 800.332 5.38939 1.04098 0
M  V30 8692 H 800.593 3.94202 2.00144 0
M  V30 8693 N 799.652 0.226554 1.55963 0
M  V30 8694 C 800.929 -0.453058 1.90281 0
M  V30 8695 C 801.309 -1.77377 1.14458 0
M  V30 8696 O 800.657 -2.27067 0.255496 0
M  V30 8697 C 800.867 -0.641108 3.43061 0
M  V30 8698 C 802.215 -0.946265 4.13921 0
M  V30 8699 O 803.239 -0.727713 3.48687 0
M  V30 8700 O 802.098 -1.36131 5.29274 0
M  V30 8701 H 799.192 -0.240242 0.791336 0
M  V30 8702 H 801.738 0.26911 1.67553 0
M  V30 8703 H 800.51 0.290283 3.90222 0
M  V30 8704 H 800.133 -1.41458 3.71585 0
M  V30 8705 N 801.13 -1.57531 -0.0467866 0
M  V30 8706 C 802.36 -1.92417 -0.752279 0
M  V30 8707 C 802.768 -0.823134 -1.70356 0
M  V30 8708 O 802.111 0.210598 -1.82489 0
M  V30 8709 C 802.173 -3.22974 -1.57887 0
M  V30 8710 C 801.837 -4.50045 -0.794285 0
M  V30 8711 C 802.834 -5.19799 -0.102368 0
M  V30 8712 C 800.519 -4.96608 -0.754061 0
M  V30 8713 C 802.513 -6.34385 0.619267 0
M  V30 8714 C 800.2 -6.11093 -0.0286682 0
M  V30 8715 C 801.198 -6.79835 0.656772 0
M  V30 8716 O 800.886 -7.92133 1.37042 0
M  V30 8717 H 800.618 -0.640029 -0.217576 0
M  V30 8718 H 803.172 -2.05395 -0.0137438 0
M  V30 8719 H 801.402 -3.06273 -2.3608 0
M  V30 8720 H 803.091 -3.43319 -2.16533 0
M  V30 8721 H 803.857 -4.8484 -0.124589 0
M  V30 8722 H 799.736 -4.42958 -1.27706 0
M  V30 8723 H 803.28 -6.87975 1.15483 0
M  V30 8724 H 799.177 -6.455 -0.00446214 0
M  V30 8725 H 799.945 -8.08394 1.28227 0
M  V30 8726 N 802.608 0.318715 -1.54344 0
M  V30 8727 C 803.538 1.39751 -1.87061 0
M  V30 8728 C 804.519 1.53741 -0.727848 0
M  V30 8729 O 805.704 1.67541 -0.982016 0
M  V30 8730 C 802.834 2.76446 -2.10226 0
M  V30 8731 C 801.788 2.77239 -3.26071 0
M  V30 8732 C 801.114 4.17056 -3.34617 0
M  V30 8733 C 802.414 2.40555 -4.63606 0
M  V30 8734 H 804.108 1.12619 -2.77412 0
M  V30 8735 H 801.654 0.540318 -1.33479 0
M  V30 8736 H 803.607 3.51985 -2.31699 0
M  V30 8737 H 802.331 3.05066 -1.16629 0
M  V30 8738 H 800.99 2.04155 -3.04493 0
M  V30 8739 H 800.638 4.42824 -2.3857 0
M  V30 8740 H 800.338 4.18492 -4.12478 0
M  V30 8741 H 801.862 4.94401 -3.5833 0
M  V30 8742 H 803.276 3.05808 -4.84927 0
M  V30 8743 H 801.673 2.53234 -5.44052 0
M  V30 8744 H 802.743 1.35698 -4.65526 0
M  V30 8745 N 804.086 1.46499 0.581025 0
M  V30 8746 C 805.034 1.57562 1.71105 0
M  V30 8747 C 806.028 0.44403 1.63477 0
M  V30 8748 O 807.234 0.620964 1.6895 0
M  V30 8749 H 803.609 0.495415 0.565746 0
M  V30 8750 H 805.58 2.5257 1.58905 0
M  V30 8751 C 804.329 1.58465 3.0949 0
M  V30 8752 H 803.652 2.44877 3.16031 0
M  V30 8753 H 805.092 1.70261 3.88313 0
M  V30 8754 C 803.551 0.313596 3.35437 0
M  V30 8755 O 804.081 -0.595456 3.97262 0
M  V30 8756 N 802.287 0.200986 2.89904 0
M  V30 8757 H 801.834 0.941643 2.39773 0
M  V30 8758 H 801.792 -0.648577 3.07638 0
M  V30 8759 N 805.565 -0.825799 1.34232 0
M  V30 8760 C 806.79 -1.61883 1.29648 0
M  V30 8761 C 807.215 -1.87669 -0.127295 0
M  V30 8762 O 806.573 -1.45016 -1.08813 0
M  V30 8763 C 806.621 -2.93846 2.09014 0
M  V30 8764 O 805.725 -3.85778 1.4577 0
M  V30 8765 H 805.066 -0.492454 0.445405 0
M  V30 8766 H 807.596 -1.02641 1.76992 0
M  V30 8767 H 807.606 -3.43435 2.20264 0
M  V30 8768 H 806.281 -2.74401 3.12533 0
M  V30 8769 H 804.858 -3.4429 1.43245 0
M  V30 8770 N 807.043 -1.17915 -1.04565 0
M  V30 8771 C 808.273 -0.994716 -1.81077 0
M  V30 8772 C 808.681 0.460146 -1.83519 0
M  V30 8773 O 808.024 1.33136 -1.26572 0
M  V30 8774 C 808.086 -1.46698 -3.28207 0
M  V30 8775 C 807.75 -2.94523 -3.49436 0
M  V30 8776 C 808.747 -3.92414 -3.41038 0
M  V30 8777 C 806.432 -3.32841 -3.76194 0
M  V30 8778 C 808.426 -5.2662 -3.59096 0
M  V30 8779 C 806.113 -4.67212 -3.93899 0
M  V30 8780 C 807.111 -5.6391 -3.8535 0
M  V30 8781 O 806.799 -6.95849 -4.02554 0
M  V30 8782 H 806.531 -0.351797 -0.577248 0
M  V30 8783 H 809.085 -1.56772 -1.32709 0
M  V30 8784 H 807.315 -0.837592 -3.7752 0
M  V30 8785 H 809.004 -1.24724 -3.86263 0
M  V30 8786 H 809.77 -3.64157 -3.20336 0
M  V30 8787 H 805.649 -2.58139 -3.81949 0
M  V30 8788 H 809.193 -6.02082 -3.52339 0
M  V30 8789 H 805.09 -4.95172 -4.14095 0
M  V30 8790 H 805.858 -7.02679 -4.19743 0
M  V30 8791 N 808.521 1.23394 -0.980386 0
M  V30 8792 C 809.751 1.9556 -0.666319 0
M  V30 8793 C 810.159 1.72786 0.770815 0
M  V30 8794 O 809.502 1.0162 1.53033 0
M  V30 8795 C 809.564 3.48643 -0.876825 0
M  V30 8796 C 809.228 3.95135 -2.29602 0
M  V30 8797 C 810.225 4.03806 -3.2747 0
M  V30 8798 C 807.91 4.28122 -2.62711 0
M  V30 8799 C 809.904 4.44818 -4.56526 0
M  V30 8800 C 807.591 4.68814 -3.9199 0
M  V30 8801 C 808.589 4.77129 -4.88709 0
M  V30 8802 O 808.277 5.16908 -6.15679 0
M  V30 8803 H 808.009 0.629422 -0.246585 0
M  V30 8804 H 810.563 1.57839 -1.31438 0
M  V30 8805 H 808.793 3.86319 -0.171587 0
M  V30 8806 H 810.482 4.0202 -0.55992 0
M  V30 8807 H 811.248 3.78526 -3.03222 0
M  V30 8808 H 807.127 4.20861 -1.8814 0
M  V30 8809 H 810.671 4.51223 -5.32018 0
M  V30 8810 H 806.568 4.93545 -4.16033 0
M  V30 8811 H 807.336 5.3502 -6.19432 0
M  V30 8812 N 809.999 0.752036 1.385 0
M  V30 8813 C 811.229 0.317812 2.04141 0
M  V30 8814 C 811.637 -1.05822 1.56839 0
M  V30 8815 O 810.98 -1.68311 0.736016 0
M  V30 8816 C 811.042 0.260205 3.58557 0
M  V30 8817 C 810.706 1.57753 4.28909 0
M  V30 8818 C 811.703 2.52642 4.54387 0
M  V30 8819 C 809.388 1.84653 4.67128 0
M  V30 8820 C 811.382 3.72653 5.17116 0
M  V30 8821 C 809.069 3.04938 5.29581 0
M  V30 8822 C 810.067 3.98759 5.54509 0
M  V30 8823 O 809.755 5.16929 6.15662 0
M  V30 8824 H 809.487 0.133931 0.6626 0
M  V30 8825 H 812.041 1.02138 1.78205 0
M  V30 8826 H 810.271 -0.499596 3.83459 0
M  V30 8827 H 811.96 -0.144295 4.05643 0
M  V30 8828 H 812.726 2.33135 4.25292 0
M  V30 8829 H 808.605 1.12464 4.47071 0
M  V30 8830 H 812.149 4.45898 5.36489 0
M  V30 8831 H 808.046 3.24339 5.58099 0
M  V30 8832 H 808.814 5.1749 6.3415 0
M  V30 8833 N 811.477 -1.49425 0.500989 0
M  V30 8834 C 812.407 -2.31971 -0.266775 0
M  V30 8835 C 813.388 -1.40245 -0.962563 0
M  V30 8836 O 814.573 -1.69154 -0.953968 0
M  V30 8837 C 811.703 -3.20757 -1.33163 0
M  V30 8838 C 810.657 -4.21275 -0.75572 0
M  V30 8839 C 809.983 -4.98997 -1.92109 0
M  V30 8840 C 811.283 -5.21686 0.253213 0
M  V30 8841 H 812.977 -2.96408 0.422237 0
M  V30 8842 H 810.523 -1.4254 0.204505 0
M  V30 8843 H 812.476 -3.77315 -1.87646 0
M  V30 8844 H 811.2 -2.54263 -2.04983 0
M  V30 8845 H 809.859 -3.65861 -0.232637 0
M  V30 8846 H 809.507 -4.28951 -2.62698 0
M  V30 8847 H 809.207 -5.67011 -1.54182 0
M  V30 8848 H 810.731 -5.584 -2.47026 0
M  V30 8849 H 812.145 -5.72939 -0.203483 0
M  V30 8850 H 810.542 -5.9759 0.548322 0
M  V30 8851 H 811.612 -4.70596 1.16909 0
M  V30 8852 N 812.955 -0.234822 -1.55841 0
M  V30 8853 C 813.865 0.680828 -2.24504 0
M  V30 8854 C 814.881 1.20306 -1.25708 0
M  V30 8855 O 816.057 1.24188 -1.58554 0
M  V30 8856 C 813.122 1.86636 -2.92178 0
M  V30 8857 C 812.183 1.3848 -4.06352 0
M  V30 8858 C 811.416 2.51382 -4.70789 0
M  V30 8859 O 811.639 3.69831 -4.34259 0
M  V30 8860 O 810.573 2.21828 -5.59532 0
M  V30 8861 H 814.399 0.12583 -3.03439 0
M  V30 8862 H 811.984 -0.00381817 -1.494 0
M  V30 8863 H 813.866 2.55845 -3.34845 0
M  V30 8864 H 812.541 2.40921 -2.16192 0
M  V30 8865 H 811.448 0.660341 -3.68226 0
M  V30 8866 H 812.781 0.888177 -4.8412 0
M  V30 8867 N 814.433 1.57553 0.0384317 0
M  V30 8868 C 815.658 1.93485 0.746872 0
M  V30 8869 C 816.083 0.834069 1.68597 0
M  V30 8870 O 815.441 -0.210902 1.80069 0
M  V30 8871 C 815.489 3.28463 1.4881 0
M  V30 8872 O 814.593 3.20051 2.60079 0
M  V30 8873 H 813.934 0.632675 0.201539 0
M  V30 8874 H 816.464 2.046 -0.00329815 0
M  V30 8875 H 816.474 3.63132 1.86009 0
M  V30 8876 H 815.149 4.08147 0.799297 0
M  V30 8877 H 813.726 2.96998 2.25492 0
M  V30 8878 N 815.911 -0.310526 1.54511 0
M  V30 8879 C 816.843 -1.40405 1.8116 0
M  V30 8880 C 817.856 -1.47261 0.694114 0
M  V30 8881 O 819.045 -1.49751 0.971441 0
M  V30 8882 C 816.145 -2.78849 1.92604 0
M  V30 8883 C 815.318 -2.95041 3.22908 0
M  V30 8884 C 814.377 -4.13925 3.24889 0
M  V30 8885 O 813.403 -4.06463 3.98467 0
M  V30 8886 N 814.605 -5.24099 2.496 0
M  V30 8887 H 817.37 -1.17903 2.75534 0
M  V30 8888 H 814.931 -0.500564 1.53967 0
M  V30 8889 H 816.923 -3.5661 1.91342 0
M  V30 8890 H 815.493 -2.94342 1.05268 0
M  V30 8891 H 814.713 -2.04472 3.37023 0
M  V30 8892 H 816.001 -3.02763 4.08916 0
M  V30 8893 H 815.399 -5.33039 1.89435 0
M  V30 8894 H 813.956 -6.0023 2.54102 0
M  V30 8895 N 817.389 -1.46805 -0.573248 0
M  V30 8896 C 818.336 -1.58084 -1.68161 0
M  V30 8897 C 819.306 -0.424636 -1.6058 0
M  V30 8898 O 820.491 -0.642623 -1.79652 0
M  V30 8899 C 817.631 -1.58601 -3.06496 0
M  V30 8900 C 816.744 -2.85023 -3.24632 0
M  V30 8901 C 815.879 -2.76981 -4.53271 0
M  V30 8902 C 814.918 -3.983 -4.64783 0
M  V30 8903 N 814.055 -3.88589 -5.84759 0
M  V30 8904 H 818.895 -2.52755 -1.57858 0
M  V30 8905 H 816.432 -1.25385 -0.769218 0
M  V30 8906 H 818.39 -1.56885 -3.86579 0
M  V30 8907 H 817.02 -0.674553 -3.15673 0
M  V30 8908 H 816.072 -2.96678 -2.38089 0
M  V30 8909 H 817.384 -3.7491 -3.29004 0
M  V30 8910 H 816.538 -2.73424 -5.41594 0
M  V30 8911 H 815.277 -1.84751 -4.51352 0
M  V30 8912 H 814.282 -4.02179 -3.74876 0
M  V30 8913 H 815.507 -4.91639 -4.68474 0
M  V30 8914 H 813.453 -2.99151 -5.83819 0
M  V30 8915 H 813.37 -4.7214 -5.90441 0
M  V30 8916 H 814.638 -3.89022 -6.75486 0
M  V30 8917 N 818.867 0.818669 -1.34668 0
M  V30 8918 C 819.797 1.94468 -1.29245 0
M  V30 8919 C 820.778 1.69257 -0.169101 0
M  V30 8920 O 821.963 1.90794 -0.362143 0
M  V30 8921 C 819.093 3.31001 -1.05145 0
M  V30 8922 C 818.047 3.70663 -2.13992 0
M  V30 8923 C 817.373 5.05226 -1.75074 0
M  V30 8924 C 818.673 3.82312 -3.55858 0
M  V30 8925 H 820.367 1.99263 -2.2346 0
M  V30 8926 H 817.913 0.957304 -1.07572 0
M  V30 8927 H 819.866 4.09364 -0.999949 0
M  V30 8928 H 818.59 3.26517 -0.0737312 0
M  V30 8929 H 817.249 2.94578 -2.18219 0
M  V30 8930 H 816.897 4.97233 -0.759518 0
M  V30 8931 H 816.597 5.32734 -2.47928 0
M  V30 8932 H 818.121 5.86042 -1.71427 0
M  V30 8933 H 819.535 4.50935 -3.5402 0
M  V30 8934 H 817.932 4.21278 -4.2737 0
M  V30 8935 H 819.002 2.84193 -3.9289 0
M  V30 8936 N 820.346 1.18468 1.03938 0
M  V30 8937 C 821.571 1.00638 1.81347 0
M  V30 8938 C 821.996 -0.440477 1.8287 0
M  V30 8939 O 821.354 -1.31609 1.24695 0
M  V30 8940 C 821.402 1.5673 3.24759 0
M  V30 8941 O 820.506 0.789517 4.04772 0
M  V30 8942 H 819.847 0.356432 0.560225 0
M  V30 8943 H 822.377 1.57253 1.30891 0
M  V30 8944 H 822.387 1.59496 3.75533 0
M  V30 8945 H 821.062 2.62043 3.22965 0
M  V30 8946 H 819.639 0.834267 3.63448 0
M  V30 8947 N 821.824 -1.22873 0.986916 0
M  V30 8948 C 823.101 -1.86939 0.575589 0
M  V30 8949 C 823.481 -1.88656 -0.947205 0
M  V30 8950 O 822.829 -1.3728 -1.82665 0
M  V30 8951 C 823.039 -3.28117 1.18914 0
M  V30 8952 C 824.387 -4.04659 1.28593 0
M  V30 8953 O 825.411 -3.3736 1.14308 0
M  V30 8954 O 824.27 -5.25112 1.51391 0
M  V30 8955 H 821.364 -0.803748 0.194724 0
M  V30 8956 H 823.91 -1.30698 1.08241 0
M  V30 8957 H 822.682 -3.21468 2.231 0
M  V30 8958 H 822.305 -3.91956 0.667535 0
M  V30 8959 N 823.302 -0.75937 -1.38099 0
M  V30 8960 C 824.25 -0.124954 -2.32264 0
M  V30 8961 C 825.244 0.698863 -1.54312 0
M  V30 8962 O 826.45 0.597312 -1.698 0
M  V30 8963 H 822.825 -0.0216142 -0.751689 0
M  V30 8964 H 824.796 -0.935115 -2.83369 0
M  V30 8965 C 823.545 0.749463 -3.39527 0
M  V30 8966 H 822.868 0.124932 -3.99605 0
M  V30 8967 H 824.308 1.16055 -4.07808 0
M  V30 8968 C 822.767 1.89464 -2.78577 0
M  V30 8969 O 823.297 2.98923 -2.68343 0
M  V30 8970 N 821.503 1.69145 -2.36301 0
M  V30 8971 H 821.05 0.801157 -2.44825 0
M  V30 8972 H 821.008 2.45936 -1.95864 0
M  V30 8973 N 824.78 1.49157 -0.508906 0
M  V30 8974 C 826.026 2.02773 0.0328469 0
M  V30 8975 C 826.359 1.38714 1.35912 0
M  V30 8976 O 825.634 0.525536 1.87266 0
M  V30 8977 C 825.917 3.59664 0.177088 0
M  V30 8978 C 825.77 4.34239 -1.17287 0
M  V30 8979 C 827.089 4.30505 0.913977 0
M  V30 8980 H 824.208 0.736926 0.0104631 0
M  V30 8981 H 826.85 1.781 -0.661851 0
M  V30 8982 H 825 3.80818 0.768774 0
M  V30 8983 H 826.672 4.24561 -1.80404 0
M  V30 8984 H 824.915 3.96486 -1.76016 0
M  V30 8985 H 825.586 5.42397 -1.02516 0
M  V30 8986 H 828.062 4.14054 0.412084 0
M  V30 8987 H 826.938 5.40012 0.983759 0
M  V30 8988 H 827.199 3.96302 1.95951 0
M  V30 8989 N 826.258 0.243083 1.55714 0
M  V30 8990 C 827.168 -0.668913 2.24862 0
M  V30 8991 C 828.184 -1.19638 1.26344 0
M  V30 8992 O 829.36 -1.23345 1.5921 0
M  V30 8993 C 826.425 -1.85084 2.93163 0
M  V30 8994 C 825.486 -1.36323 4.07081 0
M  V30 8995 C 824.719 -2.48882 4.72116 0
M  V30 8996 O 824.942 -3.67523 4.36214 0
M  V30 8997 O 823.876 -2.18857 5.60701 0
M  V30 8998 H 827.702 -0.109737 3.03502 0
M  V30 8999 H 825.287 0.0117411 1.49395 0
M  V30 9000 H 827.169 -2.54065 3.36197 0
M  V30 9001 H 825.844 -2.39771 2.17466 0
M  V30 9002 H 824.751 -0.640804 3.68571 0
M  V30 9003 H 826.084 -0.86249 4.84584 0
M  V30 9004 N 827.736 -1.57571 -0.0300757 0
M  V30 9005 C 829.013 -1.80381 -0.756447 0
M  V30 9006 C 829.393 -0.840906 -1.93628 0
M  V30 9007 O 828.741 0.117143 -2.282 0
M  V30 9008 C 828.951 -3.2807 -1.19043 0
M  V30 9009 C 830.299 -3.93025 -1.60676 0
M  V30 9010 O 831.323 -3.32213 -1.28503 0
M  V30 9011 O 830.182 -5.00092 -2.20386 0
M  V30 9012 H 827.276 -0.741737 -0.365725 0
M  V30 9013 H 829.822 -1.69699 -0.00693177 0
M  V30 9014 H 828.594 -3.89748 -0.348128 0
M  V30 9015 H 828.217 -3.43637 -1.99999 0
M  V30 9016 N 829.214 0.302327 -1.54673 0
M  V30 9017 C 830.461 1.0377 -1.73891 0
M  V30 9018 C 830.789 1.87309 -0.523979 0
M  V30 9019 O 830.044 1.8936 0.494084 0
M  V30 9020 C 830.343 1.97365 -2.97963 0
M  V30 9021 C 830.009 1.29812 -4.3181 0
M  V30 9022 C 828.671 1.11121 -4.68194 0
M  V30 9023 C 831.023 0.815073 -5.14787 0
M  V30 9024 C 828.351 0.428077 -5.85136 0
M  V30 9025 C 830.703 0.145665 -6.32432 0
M  V30 9026 C 829.367 -0.0532098 -6.67479 0
M  V30 9027 H 828.637 0.379721 -0.636312 0
M  V30 9028 H 831.284 0.312708 -1.8893 0
M  V30 9029 H 829.589 2.76387 -2.777 0
M  V30 9030 H 831.286 2.54331 -3.10027 0
M  V30 9031 H 827.876 1.45366 -4.03196 0
M  V30 9032 H 832.06 0.947191 -4.87178 0
M  V30 9033 H 827.316 0.262995 -6.10834 0
M  V30 9034 H 831.49 -0.236533 -6.95998 0
M  V30 9035 H 829.117 -0.58456 -7.57949 0
M  V30 9036 N 830.692 1.47107 0.565454 0
M  V30 9037 C 831.92 1.56909 1.3486 0
M  V30 9038 C 832.335 0.216312 1.87557 0
M  V30 9039 O 831.692 -0.789168 1.64555 0
M  V30 9040 C 831.743 2.58776 2.52423 0
M  V30 9041 O 831.464 3.888 2.01906 0
M  V30 9042 C 832.965 2.78683 3.44747 0
M  V30 9043 H 830.185 0.530096 0.411387 0
M  V30 9044 H 832.729 1.92658 0.685782 0
M  V30 9045 H 830.884 2.25983 3.1466 0
M  V30 9046 H 831.298 4.44393 2.78595 0
M  V30 9047 H 832.772 3.53842 4.23674 0
M  V30 9048 H 833.249 1.86208 3.97773 0
M  V30 9049 H 833.855 3.12641 2.88333 0
M  V30 9050 N 832.17 -0.811516 1.35101 0
M  V30 9051 C 833.417 -1.56835 1.28098 0
M  V30 9052 C 833.745 -1.93951 -0.14597 0
M  V30 9053 O 833 -1.61173 -1.11004 0
M  V30 9054 C 833.299 -2.87121 2.1283 0
M  V30 9055 C 832.965 -2.69245 3.61688 0
M  V30 9056 C 831.627 -2.64078 4.02264 0
M  V30 9057 C 833.979 -2.52122 4.56162 0
M  V30 9058 C 831.307 -2.39724 5.3549 0
M  V30 9059 C 833.659 -2.29298 5.89581 0
M  V30 9060 C 832.323 -2.2255 6.29307 0
M  V30 9061 H 831.593 -0.5739 0.468742 0
M  V30 9062 H 834.24 -0.93806 1.66951 0
M  V30 9063 H 832.545 -3.54502 1.66841 0
M  V30 9064 H 834.242 -3.44788 2.0475 0
M  V30 9065 H 830.832 -2.74112 3.29485 0
M  V30 9066 H 835.016 -2.5513 4.25702 0
M  V30 9067 H 830.272 -2.32965 5.65276 0
M  V30 9068 H 834.446 -2.15038 6.62368 0
M  V30 9069 H 832.073 -2.0344 7.32473 0
M  V30 9070 N 833.648 -1.19017 -1.03309 0
M  V30 9071 C 834.876 -1.01534 -1.80273 0
M  V30 9072 C 835.291 0.43605 -1.83696 0
M  V30 9073 O 834.648 1.30288 -1.27794 0
M  V30 9074 C 834.699 -1.5722 -3.25522 0
M  V30 9075 O 834.42 -2.96677 -3.22358 0
M  V30 9076 C 835.921 -1.4446 -4.19102 0
M  V30 9077 H 833.141 -0.358094 -0.567459 0
M  V30 9078 H 835.685 -1.57738 -1.3015 0
M  V30 9079 H 833.84 -1.05174 -3.7285 0
M  V30 9080 H 834.254 -3.22795 -4.13405 0
M  V30 9081 H 835.728 -1.88209 -5.18923 0
M  V30 9082 H 836.205 -0.394471 -4.37425 0
M  V30 9083 H 836.811 -1.95616 -3.77643 0
M  V30 9084 N 835.127 1.22348 -0.993418 0
M  V30 9085 C 836.543 1.43222 -0.704238 0
M  V30 9086 C 836.743 1.88009 0.724909 0
M  V30 9087 O 835.799 2.03429 1.49575 0
M  V30 9088 C 837.112 2.47328 -1.71025 0
M  V30 9089 C 838.66 2.61126 -1.72576 0
M  V30 9090 C 839.135 3.68453 -2.72041 0
M  V30 9091 N 840.626 3.75911 -2.70639 0
M  V30 9092 C 841.361 4.58551 -3.44266 0
M  V30 9093 N 840.857 5.45179 -4.27495 0
M  V30 9094 N 842.65 4.52866 -3.32969 0
M  V30 9095 H 834.801 0.915832 -1.91641 0
M  V30 9096 H 837.064 0.464283 -0.826526 0
M  V30 9097 H 836.77 2.21366 -2.73295 0
M  V30 9098 H 836.644 3.45939 -1.50353 0
M  V30 9099 H 839.031 2.86431 -0.710037 0
M  V30 9100 H 839.112 1.62787 -1.97317 0
M  V30 9101 H 838.756 3.43895 -3.73763 0
M  V30 9102 H 838.686 4.66362 -2.4457 0
M  V30 9103 H 841.177 3.14014 -2.10247 0
M  V30 9104 H 841.49 6.0526 -4.80499 0
M  V30 9105 H 839.835 5.44759 -4.31582 0
M  V30 9106 H 843.026 3.84215 -2.67389 0
M  V30 9107 H 843.199 5.17039 -3.90608 0
M  V30 9108 N 836.605 0.766683 1.37694 0
M  V30 9109 C 837.83 0.338715 2.04615 0
M  V30 9110 C 838.255 -1.02918 1.57447 0
M  V30 9111 O 837.613 -1.65849 0.732386 0
M  V30 9112 C 837.661 0.385284 3.58536 0
M  V30 9113 O 836.765 -0.616081 4.07772 0
M  V30 9114 H 836.106 0.147527 0.647404 0
M  V30 9115 H 838.636 1.04146 1.7611 0
M  V30 9116 H 838.646 0.240782 4.07289 0
M  V30 9117 H 837.321 1.38325 3.92223 0
M  V30 9118 H 835.898 -0.435115 3.70353 0
M  V30 9119 N 838.083 -1.48885 0.516809 0
M  V30 9120 C 839.332 -2.01686 -0.0239899 0
M  V30 9121 C 839.645 -1.40029 -1.3657 0
M  V30 9122 O 840.851 -1.84249 -1.9941 0
M  V30 9123 C 839.307 -3.59779 -0.0931825 0
M  V30 9124 C 838.915 -4.30416 1.24283 0
M  V30 9125 C 840.659 -4.20471 -0.583507 0
M  V30 9126 C 838.566 -5.80408 1.13494 0
M  V30 9127 H 837.496 -0.753892 -0.0127376 0
M  V30 9128 H 840.147 -1.71273 0.65861 0
M  V30 9129 H 838.529 -3.86976 -0.840577 0
M  V30 9130 H 839.703 -4.14905 2.00476 0
M  V30 9131 H 838.018 -3.81539 1.66785 0
M  V30 9132 H 840.615 -5.30333 -0.681987 0
M  V30 9133 H 840.958 -3.84898 -1.58617 0
M  V30 9134 H 841.491 -3.97654 0.107814 0
M  V30 9135 H 838.23 -6.20532 2.11235 0
M  V30 9136 H 837.75 -5.98368 0.414167 0
M  V30 9137 H 839.429 -6.41781 0.820162 0
M  V30 9138 N 839.561 -0.251338 -1.55583 0
M  V30 9139 C 840.471 0.656978 -2.25213 0
M  V30 9140 C 841.487 1.18966 -1.26977 0
M  V30 9141 O 842.663 1.22499 -1.59862 0
M  V30 9142 C 839.728 1.83527 -2.94141 0
M  V30 9143 C 838.789 1.34162 -4.07798 0
M  V30 9144 C 838.022 2.46375 -4.73429 0
M  V30 9145 O 838.245 3.65205 -4.38157 0
M  V30 9146 O 837.179 2.15881 -5.61853 0
M  V30 9147 H 841.005 0.0936395 -3.03556 0
M  V30 9148 H 838.59 -0.0196638 -1.49387 0
M  V30 9149 H 840.472 2.52279 -3.3754 0
M  V30 9150 H 839.147 2.38614 -2.18735 0
M  V30 9151 H 838.054 0.621249 -3.68906 0
M  V30 9152 H 839.387 0.836779 -4.85035 0
M  V30 9153 N 841.039 1.57585 0.0217189 0
M  V30 9154 C 841.949 2.10444 1.03684 0
M  V30 9155 C 842.965 1.04472 1.39146 0
M  V30 9156 O 844.141 1.36249 1.48317 0
M  V30 9157 C 841.206 2.5794 2.31664 0
M  V30 9158 C 840.267 3.78425 2.02714 0
M  V30 9159 C 839.5 4.23646 3.24592 0
M  V30 9160 O 839.723 3.6834 4.35525 0
M  V30 9161 O 838.657 5.16013 3.09862 0
M  V30 9162 H 842.483 2.97354 0.617584 0
M  V30 9163 H 840.068 1.47473 0.239174 0
M  V30 9164 H 841.95 2.88785 3.06889 0
M  V30 9165 H 840.625 1.74138 2.7287 0
M  V30 9166 H 839.532 3.52587 1.25033 0
M  V30 9167 H 840.865 4.63234 1.66359 0
M  V30 9168 N 842.517 -0.29412 1.54831 0
M  V30 9169 C 843.48 -1.3461 1.85507 0
M  V30 9170 C 844.48 -1.43359 0.728343 0
M  V30 9171 O 845.67 -1.42875 0.996609 0
M  V30 9172 C 842.802 -2.73012 2.0415 0
M  V30 9173 H 843.995 -1.08651 2.79526 0
M  V30 9174 H 841.548 -0.531138 1.46999 0
M  V30 9175 H 842.283 -3.04183 1.12441 0
M  V30 9176 H 842.068 -2.68051 2.86166 0
M  V30 9177 H 843.558 -3.49061 2.29229 0
M  V30 9178 N 843.995 -1.47404 -0.557645 0
M  V30 9179 C 844.925 -1.62736 -1.67449 0
M  V30 9180 C 845.906 -0.476824 -1.6328 0
M  V30 9181 O 847.091 -0.706108 -1.80908 0
M  V30 9182 C 844.221 -1.641 -3.06086 0
M  V30 9183 C 843.175 -2.78377 -3.25101 0
M  V30 9184 C 842.501 -2.64812 -4.6452 0
M  V30 9185 C 843.801 -4.19971 -3.10518 0
M  V30 9186 H 845.495 -2.56232 -1.54873 0
M  V30 9187 H 843.041 -1.23312 -0.743649 0
M  V30 9188 H 844.994 -1.73417 -3.84063 0
M  V30 9189 H 843.718 -0.671652 -3.19619 0
M  V30 9190 H 842.377 -2.6857 -2.49531 0
M  V30 9191 H 842.025 -1.65906 -4.74852 0
M  V30 9192 H 841.725 -3.41477 -4.78191 0
M  V30 9193 H 843.249 -2.76057 -5.44633 0
M  V30 9194 H 844.663 -4.30757 -3.78313 0
M  V30 9195 H 843.06 -4.97419 -3.35699 0
M  V30 9196 H 844.13 -4.38369 -2.0727 0
M  V30 9197 N 845.473 0.80434 -1.35529 0
M  V30 9198 C 846.75 1.5486 -1.1949 0
M  V30 9199 C 847.13 2.09897 0.22506 0
M  V30 9200 O 846.478 1.92643 1.22886 0
M  V30 9201 C 846.688 2.65535 -2.26478 0
M  V30 9202 C 848.036 3.33814 -2.62399 0
M  V30 9203 O 849.06 2.75807 -2.25409 0
M  V30 9204 O 847.919 4.38612 -3.26009 0
M  V30 9205 H 845.013 0.68433 -0.464351 0
M  V30 9206 H 847.559 0.844107 -1.47217 0
M  V30 9207 H 846.331 2.22754 -3.21709 0
M  V30 9208 H 845.954 3.43617 -2.00033 0
M  V30 9209 N 846.951 1.19563 1.02676 0
M  V30 9210 C 847.899 0.931942 2.13114 0
M  V30 9211 C 848.893 -0.113007 1.69023 0
M  V30 9212 O 850.099 0.0364298 1.79963 0
M  V30 9213 H 846.474 0.283981 0.696318 0
M  V30 9214 H 848.445 1.86991 2.32545 0
M  V30 9215 C 847.194 0.489461 3.44238 0
M  V30 9216 H 846.517 1.28508 3.78584 0
M  V30 9217 H 847.957 0.34408 4.22602 0
M  V30 9218 C 846.416 -0.796761 3.27343 0
M  V30 9219 O 846.946 -1.85767 3.56165 0
M  V30 9220 N 845.152 -0.754824 2.80626 0
M  V30 9221 H 844.699 0.108778 2.5737 0
M  V30 9222 H 844.657 -1.6158 2.69702 0
M  V30 9223 N 848.429 -1.21819 0.999893 0
M  V30 9224 C 849.654 -1.95298 0.698094 0
M  V30 9225 C 850.079 -1.73273 -0.731982 0
M  V30 9226 O 849.437 -1.01634 -1.50134 0
M  V30 9227 C 849.485 -3.45922 1.01834 0
M  V30 9228 O 848.589 -4.12223 0.120801 0
M  V30 9229 H 847.93 -0.610729 0.260588 0
M  V30 9230 H 850.46 -1.5472 1.33876 0
M  V30 9231 H 850.47 -3.96471 0.963074 0
M  V30 9232 H 849.145 -3.61278 2.06037 0
M  V30 9233 H 847.722 -3.72177 0.232153 0
M  V30 9234 N 849.908 -0.773975 -1.37286 0
M  V30 9235 C 850.871 -0.167974 -2.28584 0
M  V30 9236 C 851.871 0.625662 -1.48129 0
M  V30 9237 O 853.061 0.448924 -1.68316 0
M  V30 9238 C 850.193 0.769364 -3.32105 0
M  V30 9239 H 851.386 -0.972806 -2.83684 0
M  V30 9240 H 848.939 -0.542335 -1.46589 0
M  V30 9241 H 849.674 1.59912 -2.82132 0
M  V30 9242 H 849.459 0.202419 -3.91577 0
M  V30 9243 H 850.949 1.18872 -4.00324 0
M  V30 9244 N 851.386 1.48609 -0.524698 0
M  V30 9245 C 852.333 2.29539 0.240956 0
M  V30 9246 C 853.303 1.37033 0.938681 0
M  V30 9247 O 854.488 1.65996 0.940737 0
M  V30 9248 C 851.628 3.20278 1.28514 0
M  V30 9249 C 850.741 4.27858 0.596798 0
M  V30 9250 C 849.876 5.05784 1.62346 0
M  V30 9251 C 848.915 6.05173 0.918287 0
M  V30 9252 N 848.052 6.76176 1.89025 0
M  V30 9253 H 852.892 2.945 -0.455368 0
M  V30 9254 H 850.429 1.45188 -0.236403 0
M  V30 9255 H 852.387 3.71281 1.90279 0
M  V30 9256 H 851.017 2.57251 1.94992 0
M  V30 9257 H 850.069 3.80162 -0.134668 0
M  V30 9258 H 851.381 4.98782 0.0428506 0
M  V30 9259 H 850.535 5.60775 2.31553 0
M  V30 9260 H 849.274 4.34687 2.2113 0
M  V30 9261 H 848.279 5.49391 0.21212 0
M  V30 9262 H 849.504 6.78265 0.336633 0
M  V30 9263 H 847.45 6.07834 2.46726 0
M  V30 9264 H 847.367 7.43157 1.3876 0
M  V30 9265 H 848.635 7.35759 2.57446 0
M  V30 9266 N 852.864 0.259585 1.55447 0
M  V30 9267 C 854.11 -0.362143 1.9954 0
M  V30 9268 C 854.443 -1.5666 1.14767 0
M  V30 9269 O 853.718 -1.93319 0.214025 0
M  V30 9270 C 854.001 -0.759588 3.51998 0
M  V30 9271 C 853.854 0.451134 4.47532 0
M  V30 9272 C 855.173 -1.60186 4.09913 0
M  V30 9273 H 852.292 -0.130157 0.725416 0
M  V30 9274 H 854.934 0.363431 1.86492 0
M  V30 9275 H 853.084 -1.3778 3.63248 0
M  V30 9276 H 854.756 1.08965 4.48246 0
M  V30 9277 H 852.999 1.092 4.19831 0
M  V30 9278 H 853.67 0.129518 5.51848 0
M  V30 9279 H 856.146 -1.0799 4.01842 0
M  V30 9280 H 855.022 -1.84879 5.16828 0
M  V30 9281 H 855.283 -2.57787 3.59163 0
M  V30 9282 N 854.342 -1.57594 -0.0133615 0
M  V30 9283 C 855.572 -1.93969 -0.711295 0
M  V30 9284 C 855.98 -0.859084 -1.68572 0
M  V30 9285 O 855.323 0.171842 -1.82894 0
M  V30 9286 C 855.385 -3.2625 -1.51001 0
M  V30 9287 C 855.049 -4.51628 -0.698645 0
M  V30 9288 C 856.046 -5.19899 0.00791185 0
M  V30 9289 C 853.731 -4.98095 -0.648553 0
M  V30 9290 C 855.725 -6.32928 0.753691 0
M  V30 9291 C 853.412 -6.11017 0.10096 0
M  V30 9292 C 854.41 -6.78289 0.800828 0
M  V30 9293 O 854.098 -7.89048 1.53814 0
M  V30 9294 H 853.83 -0.6445 -0.203951 0
M  V30 9295 H 856.384 -2.05378 0.0298267 0
M  V30 9296 H 854.614 -3.11211 -2.29531 0
M  V30 9297 H 856.303 -3.47835 -2.09202 0
M  V30 9298 H 857.069 -4.84995 -0.0217192 0
M  V30 9299 H 852.948 -4.45568 -1.18282 0
M  V30 9300 H 856.492 -6.85371 1.3005 0
M  V30 9301 H 852.389 -6.45364 0.132459 0
M  V30 9302 H 853.157 -8.05492 1.45345 0
M  V30 9303 N 855.82 0.285905 -1.54985 0
M  V30 9304 C 857.048 1.03776 -1.78992 0
M  V30 9305 C 857.463 1.80402 -0.556814 0
M  V30 9306 O 856.82 1.76242 0.473801 0
M  V30 9307 C 856.871 2.0065 -3.00702 0
M  V30 9308 O 856.592 1.27131 -4.19249 0
M  V30 9309 C 858.093 2.87753 -3.37214 0
M  V30 9310 H 855.313 0.307126 -0.596586 0
M  V30 9311 H 857.857 0.3206 -2.01971 0
M  V30 9312 H 856.012 2.67847 -2.79887 0
M  V30 9313 H 856.426 1.92316 -4.8797 0
M  V30 9314 H 857.9 3.51548 -4.2558 0
M  V30 9315 H 858.377 3.56848 -2.56039 0
M  V30 9316 H 858.983 2.26065 -3.60242 0
M  V30 9317 N 857.298 1.47698 0.54982 0
M  V30 9318 C 858.528 1.58101 1.32995 0
M  V30 9319 C 858.936 0.232939 1.87761 0
M  V30 9320 O 858.279 -0.785058 1.6608 0
M  V30 9321 C 858.341 2.55228 2.53178 0
M  V30 9322 C 858.005 4.00756 2.19645 0
M  V30 9323 C 859.002 4.89025 1.76496 0
M  V30 9324 C 856.687 4.46147 2.30777 0
M  V30 9325 C 858.681 6.20707 1.44919 0
M  V30 9326 C 856.368 5.77856 1.98812 0
M  V30 9327 C 857.366 6.64957 1.55952 0
M  V30 9328 O 857.054 7.94217 1.24396 0
M  V30 9329 H 856.786 0.536362 0.411451 0
M  V30 9330 H 859.34 1.94092 0.67212 0
M  V30 9331 H 857.57 2.14319 3.21876 0
M  V30 9332 H 859.259 2.55678 3.15251 0
M  V30 9333 H 860.025 4.55201 1.67383 0
M  V30 9334 H 855.904 3.78552 2.63096 0
M  V30 9335 H 859.448 6.88649 1.11392 0
M  V30 9336 H 855.345 6.11219 2.0756 0
M  V30 9337 H 856.113 8.06789 1.37964 0
M  V30 9338 N 858.776 -0.797141 1.35954 0
M  V30 9339 C 860.023 -1.55468 1.29754 0
M  V30 9340 C 860.351 -1.94095 -0.125391 0
M  V30 9341 O 859.606 -1.62341 -1.09288 0
M  V30 9342 C 859.905 -2.84847 2.15863 0
M  V30 9343 C 859.571 -2.65394 3.64523 0
M  V30 9344 C 858.233 -2.59796 4.05042 0
M  V30 9345 C 860.585 -2.4727 4.58811 0
M  V30 9346 C 857.913 -2.3403 5.38002 0
M  V30 9347 C 860.265 -2.23032 5.91979 0
M  V30 9348 C 858.929 -2.15862 6.31633 0
M  V30 9349 H 858.199 -0.568897 0.474803 0
M  V30 9350 H 860.846 -0.920299 1.67937 0
M  V30 9351 H 859.151 -3.52712 1.70591 0
M  V30 9352 H 860.848 -3.42597 2.08395 0
M  V30 9353 H 857.438 -2.70602 3.32374 0
M  V30 9354 H 861.622 -2.506 4.28384 0
M  V30 9355 H 856.878 -2.26956 5.67715 0
M  V30 9356 H 861.052 -2.08001 6.64612 0
M  V30 9357 H 858.679 -1.9566 7.34589 0
M  V30 9358 N 860.254 -1.20106 -1.0204 0
M  V30 9359 C 861.665 -1.00992 -1.57027 0
M  V30 9360 C 862.016 0.434782 -1.91322 0
M  V30 9361 O 861.141 1.31557 -1.71819 0
M  V30 9362 C 861.736 -1.82697 -2.85319 0
M  V30 9363 C 860.295 -1.67959 -3.36848 0
M  V30 9364 C 859.442 -1.80868 -2.10195 0
M  V30 9365 H 862.393 -1.34354 -0.844676 0
M  V30 9366 H 862.414 -1.32809 -3.5657 0
M  V30 9367 H 861.926 -2.87839 -2.60328 0
M  V30 9368 H 860.027 -0.654389 -3.66809 0
M  V30 9369 H 860.14 -2.49006 -4.09308 0
M  V30 9370 H 858.504 -1.24015 -2.22469 0
M  V30 9371 H 859.287 -2.87486 -1.87635 0
M  V30 9372 N 861.732 1.21287 -1.00634 0
M  V30 9373 C 862.96 1.94385 -0.708678 0
M  V30 9374 C 863.375 1.7416 0.728957 0
M  V30 9375 O 862.732 1.04906 1.49335 0
M  V30 9376 C 862.783 3.46755 -1.02193 0
M  V30 9377 O 862.504 3.6631 -2.40309 0
M  V30 9378 C 864.005 4.37014 -0.743867 0
M  V30 9379 H 861.225 0.618136 -0.261052 0
M  V30 9380 H 863.769 1.54067 -1.34475 0
M  V30 9381 H 861.924 3.8499 -0.431441 0
M  V30 9382 H 862.338 4.60393 -2.51274 0
M  V30 9383 H 863.812 5.42621 -1.01321 0
M  V30 9384 H 864.289 4.38017 0.322084 0
M  V30 9385 H 864.895 4.04426 -1.31603 0
M  V30 9386 N 863.21 0.781244 1.36873 0
M  V30 9387 C 864.14 0.188128 2.32741 0
M  V30 9388 C 865.121 -0.672326 1.56249 0
M  V30 9389 O 866.306 -0.607835 1.84442 0
M  V30 9390 C 863.436 -0.684341 3.40491 0
M  V30 9391 C 862.39 0.0755641 4.27933 0
M  V30 9392 C 861.716 -0.916968 5.26779 0
M  V30 9393 C 863.016 1.26006 5.06873 0
M  V30 9394 H 864.71 0.989016 2.82593 0
M  V30 9395 H 862.256 0.477038 1.35869 0
M  V30 9396 H 864.209 -1.10915 4.06541 0
M  V30 9397 H 862.933 -1.51785 2.89187 0
M  V30 9398 H 861.592 0.481258 3.63427 0
M  V30 9399 H 861.24 -1.74528 4.71751 0
M  V30 9400 H 860.94 -0.413 5.86147 0
M  V30 9401 H 862.464 -1.34052 5.95703 0
M  V30 9402 H 863.878 0.911425 5.66009 0
M  V30 9403 H 862.275 1.69676 5.75613 0
M  V30 9404 H 863.345 2.05948 4.38991 0
M  V30 9405 N 864.689 -1.48329 0.532571 0
M  V30 9406 C 865.652 -2.2816 -0.218069 0
M  V30 9407 C 866.652 -1.35526 -0.865409 0
M  V30 9408 O 867.842 -1.58394 -0.725061 0
M  V30 9409 C 864.974 -3.1448 -1.31586 0
M  V30 9410 H 866.167 -2.95987 0.482865 0
M  V30 9411 H 863.72 -1.53612 0.288603 0
M  V30 9412 H 864.455 -2.5129 -2.04997 0
M  V30 9413 H 864.24 -3.82625 -0.856779 0
M  V30 9414 H 865.73 -3.74693 -1.84377 0
M  V30 9415 N 866.167 -0.267825 -1.55308 0
M  V30 9416 C 867.115 0.638848 -2.23655 0
M  V30 9417 C 868.109 1.16363 -1.2311 0
M  V30 9418 O 869.315 1.1181 -1.41062 0
M  V30 9419 H 865.69 0.224551 -0.717691 0
M  V30 9420 H 867.661 0.0394809 -2.98374 0
M  V30 9421 C 866.41 1.8151 -2.96562 0
M  V30 9422 H 865.733 1.42048 -3.73715 0
M  V30 9423 H 867.173 2.42629 -3.47717 0
M  V30 9424 C 865.632 2.69911 -2.01618 0
M  V30 9425 O 866.162 3.70058 -1.56268 0
M  V30 9426 N 864.368 2.36924 -1.68272 0
M  V30 9427 H 863.915 1.55533 -2.05347 0
M  V30 9428 H 863.873 2.96343 -1.05016 0
M  V30 9429 N 867.645 1.57599 0.00500368 0
M  V30 9430 C 868.592 2.08106 0.998025 0
M  V30 9431 C 869.562 0.975374 1.34446 0
M  V30 9432 O 870.747 1.24749 1.44369 0
M  V30 9433 C 867.887 2.58496 2.28635 0
M  V30 9434 C 867 3.82947 1.99939 0
M  V30 9435 C 866.135 4.21857 3.22816 0
M  V30 9436 C 865.174 5.39159 2.89783 0
M  V30 9437 N 864.311 5.73386 4.05183 0
M  V30 9438 H 869.151 2.92684 0.560385 0
M  V30 9439 H 866.688 1.44692 0.265053 0
M  V30 9440 H 868.646 2.85787 3.03943 0
M  V30 9441 H 867.276 1.768 2.70077 0
M  V30 9442 H 866.328 3.62594 1.1502 0
M  V30 9443 H 867.64 4.68358 1.71588 0
M  V30 9444 H 866.794 4.50404 4.06474 0
M  V30 9445 H 865.533 3.35145 3.54301 0
M  V30 9446 H 864.538 5.1034 2.04532 0
M  V30 9447 H 865.763 6.27543 2.59551 0
M  V30 9448 H 863.709 4.89632 4.36574 0
M  V30 9449 H 863.626 6.53359 3.80339 0
M  V30 9450 H 864.894 6.06522 4.89644 0
M  V30 9451 N 869.123 -0.277682 1.55134 0
M  V30 9452 C 870.369 -1.0114 1.7578 0
M  V30 9453 C 870.702 -1.86109 0.554719 0
M  V30 9454 O 869.977 -1.89275 -0.447813 0
M  V30 9455 C 870.26 -1.89789 3.06027 0
M  V30 9456 C 870.113 -1.07844 4.3668 0
M  V30 9457 C 871.432 -2.88577 3.32282 0
M  V30 9458 H 868.551 -0.366277 0.639539 0
M  V30 9459 H 871.193 -0.284155 1.87863 0
M  V30 9460 H 869.343 -2.51796 2.95856 0
M  V30 9461 H 871.015 -0.479432 4.58802 0
M  V30 9462 H 869.258 -0.381764 4.32117 0
M  V30 9463 H 869.929 -1.73179 5.24131 0
M  V30 9464 H 872.405 -2.36702 3.42215 0
M  V30 9465 H 871.281 -3.47749 4.2469 0
M  V30 9466 H 871.542 -3.63458 2.51696 0
M  V30 9467 N 870.601 -1.47988 -0.541979 0
M  V30 9468 C 871.549 -1.62044 -1.66867 0
M  V30 9469 C 872.543 -0.487217 -1.62242 0
M  V30 9470 O 873.749 -0.66554 -1.67244 0
M  V30 9471 H 870.124 -0.51024 -0.552412 0
M  V30 9472 H 872.095 -2.56695 -1.52153 0
M  V30 9473 C 870.844 -1.66615 -3.0518 0
M  V30 9474 H 870.167 -2.5317 -3.09427 0
M  V30 9475 H 871.607 -1.80496 -3.83663 0
M  V30 9476 C 870.066 -0.402421 -3.34488 0
M  V30 9477 O 870.596 0.48992 -3.98701 0
M  V30 9478 N 868.802 -0.277778 -2.89269 0
M  V30 9479 H 868.349 -1.00488 -2.37192 0
M  V30 9480 H 868.307 0.566784 -3.09249 0
M  V30 9481 N 872.079 0.78992 -1.36375 0
M  V30 9482 C 873.042 1.88414 -1.30509 0
M  V30 9483 C 874.042 1.59384 -0.2129 0
M  V30 9484 O 875.232 1.67805 -0.467651 0
M  V30 9485 C 872.364 3.25188 -1.02302 0
M  V30 9486 H 873.557 1.95031 -2.27822 0
M  V30 9487 H 871.11 0.987664 -1.2114 0
M  V30 9488 H 871.845 3.24254 -0.0544486 0
M  V30 9489 H 871.63 3.47647 -1.81338 0
M  V30 9490 H 873.12 4.05252 -1.00801 0
M  V30 9491 N 873.557 1.20646 1.01402 0
M  V30 9492 C 874.805 1.01618 1.74695 0
M  V30 9493 C 875.126 -0.452438 1.89679 0
M  V30 9494 O 874.396 -1.32693 1.44116 0
M  V30 9495 H 872.976 0.373013 0.647202 0
M  V30 9496 H 875.638 1.518 1.22241 0
M  V30 9497 H 874.734 1.47666 2.74957 0
M  V30 9498 N 875.035 -1.20752 1.01276 0
M  V30 9499 C 876.281 -1.90302 0.700924 0
M  V30 9500 C 876.614 -1.78406 -0.767142 0
M  V30 9501 O 875.889 -1.16575 -1.55694 0
M  V30 9502 C 876.172 -3.41831 1.13242 0
M  V30 9503 C 876.025 -3.6268 2.66051 0
M  V30 9504 C 877.344 -4.34486 0.700738 0
M  V30 9505 H 874.463 -0.69107 0.256107 0
M  V30 9506 H 877.105 -1.42227 1.25982 0
M  V30 9507 H 875.255 -3.82906 0.656902 0
M  V30 9508 H 876.927 -3.30882 3.21426 0
M  V30 9509 H 875.17 -3.06281 3.07204 0
M  V30 9510 H 875.841 -4.68882 2.91296 0
M  V30 9511 H 878.317 -4.01036 1.10948 0
M  V30 9512 H 877.193 -5.39136 1.03073 0
M  V30 9513 H 877.454 -4.40307 -0.39778 0
M  V30 9514 N 876.513 -0.788492 -1.36457 0
M  V30 9515 C 877.445 -0.144208 -2.28746 0
M  V30 9516 C 878.458 0.646009 -1.49434 0
M  V30 9517 O 879.647 0.481344 -1.71888 0
M  V30 9518 C 876.747 0.818869 -3.28858 0
M  V30 9519 C 875.92 0.0789055 -4.37329 0
M  V30 9520 C 874.979 0.957791 -5.1741 0
M  V30 9521 O 874.005 0.415378 -5.67682 0
M  V30 9522 N 875.207 2.28216 -5.33758 0
M  V30 9523 H 877.972 -0.936949 -2.84678 0
M  V30 9524 H 875.533 -0.642317 -1.48613 0
M  V30 9525 H 877.525 1.41065 -3.79319 0
M  V30 9526 H 876.095 1.51249 -2.73573 0
M  V30 9527 H 875.315 -0.693939 -3.88044 0
M  V30 9528 H 876.603 -0.431753 -5.06965 0
M  V30 9529 H 876.001 2.747 -4.94527 0
M  V30 9530 H 874.558 2.8236 -5.87466 0
M  V30 9531 N 877.991 1.48044 -0.54043 0
M  V30 9532 C 879.239 2.02097 -0.0101367 0
M  V30 9533 C 879.56 1.41881 1.33771 0
M  V30 9534 O 878.83 0.587923 1.8687 0
M  V30 9535 H 877.41 0.747 -0.000758716 0
M  V30 9536 H 880.072 1.81639 -0.706634 0
M  V30 9537 H 879.168 3.11969 0.0904474 0
M  V30 9538 N 879.47 0.276058 1.55163 0
M  V30 9539 C 880.718 -0.339782 1.99223 0
M  V30 9540 C 881.039 -1.56307 1.16589 0
M  V30 9541 O 880.309 -1.94225 0.25564 0
M  V30 9542 H 878.889 -0.128534 0.735859 0
M  V30 9543 H 881.551 0.381612 1.91128 0
M  V30 9544 H 880.647 -0.629 3.05696 0
M  V30 9545 N 880.948 -1.576 0.00335426 0
M  V30 9546 C 881.878 -2.11668 -0.985839 0
M  V30 9547 C 882.859 -1.02661 -1.35627 0
M  V30 9548 O 884.044 -1.30361 -1.43943 0
M  V30 9549 C 881.174 -2.62273 -2.27662 0
M  V30 9550 C 880.128 -3.75837 -2.0477 0
M  V30 9551 C 879.454 -4.12769 -3.39891 0
M  V30 9552 C 880.754 -5.02975 -1.40759 0
M  V30 9553 H 882.448 -2.9457 -0.535637 0
M  V30 9554 H 879.994 -1.41702 -0.256204 0
M  V30 9555 H 881.947 -2.98727 -2.97221 0
M  V30 9556 H 880.671 -1.76498 -2.74802 0
M  V30 9557 H 879.33 -3.39782 -1.37636 0
M  V30 9558 H 878.978 -3.24013 -3.8474 0
M  V30 9559 H 878.678 -4.89281 -3.25389 0
M  V30 9560 H 880.202 -4.51784 -4.1076 0
M  V30 9561 H 881.616 -5.37179 -2.00279 0
M  V30 9562 H 880.013 -5.84315 -1.36734 0
M  V30 9563 H 881.083 -4.83431 -0.377218 0
M  V30 9564 N 882.426 0.269451 -1.5528 0
M  V30 9565 C 883.673 1.00058 -1.76053 0
M  V30 9566 C 884.001 1.86156 -0.563592 0
M  V30 9567 O 883.256 1.90366 0.453806 0
M  V30 9568 C 883.555 1.91 -3.02082 0
M  V30 9569 C 883.221 1.20623 -4.34466 0
M  V30 9570 C 881.883 1.01165 -4.70446 0
M  V30 9571 C 884.235 0.705695 -5.164 0
M  V30 9572 C 881.563 0.303865 -5.85913 0
M  V30 9573 C 883.915 0.0114838 -6.32599 0
M  V30 9574 C 882.579 -0.19478 -6.67216 0
M  V30 9575 H 881.849 0.366138 -0.644223 0
M  V30 9576 H 884.496 0.272563 -1.8955 0
M  V30 9577 H 882.801 2.70435 -2.835 0
M  V30 9578 H 884.498 2.47698 -3.15352 0
M  V30 9579 H 881.088 1.36781 -4.06188 0
M  V30 9580 H 885.272 0.84364 -4.89077 0
M  V30 9581 H 880.528 0.133368 -6.11255 0
M  V30 9582 H 884.702 -0.384111 -6.9534 0
M  V30 9583 H 882.329 -0.745201 -7.56539 0
M  V30 9584 N 883.904 1.48273 0.534124 0
M  V30 9585 C 884.834 1.6538 1.64839 0
M  V30 9586 C 885.815 0.502741 1.62501 0
M  V30 9587 O 887 0.734799 1.79762 0
M  V30 9588 C 884.13 1.68949 3.03436 0
M  V30 9589 C 883.084 2.83513 3.20631 0
M  V30 9590 C 882.41 2.72169 4.60248 0
M  V30 9591 C 883.71 4.24858 3.03797 0
M  V30 9592 H 885.404 2.58663 1.50777 0
M  V30 9593 H 882.95 1.24479 0.723937 0
M  V30 9594 H 884.903 1.79505 3.81256 0
M  V30 9595 H 883.627 0.722415 3.1851 0
M  V30 9596 H 882.286 2.72505 2.45227 0
M  V30 9597 H 881.934 1.7344 4.72152 0
M  V30 9598 H 881.634 3.49042 4.72698 0
M  V30 9599 H 883.158 2.84687 5.40172 0
M  V30 9600 H 884.572 4.36721 3.71413 0
M  V30 9601 H 882.969 5.02697 3.27743 0
M  V30 9602 H 884.039 4.41611 2.0027 0
M  V30 9603 N 885.382 -0.782676 1.36792 0
M  V30 9604 C 886.315 -1.90241 1.2603 0
M  V30 9605 C 887.293 -1.61969 0.143055 0
M  V30 9606 O 888.477 -1.85843 0.315366 0
M  V30 9607 C 885.604 -3.25218 0.946082 0
M  V30 9608 C 884.65 -3.72414 2.0787 0
M  V30 9609 S 885.483 -3.87376 3.69729 0
M  V30 9610 C 886.639 -5.25219 3.40435 0
M  V30 9611 H 886.872 -1.99079 2.20805 0
M  V30 9612 H 884.405 -0.942625 1.22286 0
M  V30 9613 H 886.363 -4.03183 0.771612 0
M  V30 9614 H 885.024 -3.14096 0.0159991 0
M  V30 9615 H 884.217 -4.7024 1.81358 0
M  V30 9616 H 883.819 -3.01519 2.21274 0
M  V30 9617 H 886.111 -6.10025 2.94746 0
M  V30 9618 H 887.054 -5.56738 4.37549 0
M  V30 9619 H 887.462 -4.92638 2.75622 0
M  V30 9620 N 886.86 -1.21182 -1.00761 0
M  V30 9621 C 888.106 -1.03903 -1.74859 0
M  V30 9622 C 888.461 0.423347 -1.87685 0
M  V30 9623 O 887.754 1.31001 -1.39819 0
M  V30 9624 C 887.948 -1.6667 -3.16158 0
M  V30 9625 C 887.777 -3.1886 -3.1711 0
M  V30 9626 C 886.547 -3.87888 -3.23838 0
M  V30 9627 C 888.745 -4.15978 -3.02434 0
M  V30 9628 N 886.727 -5.27289 -3.14388 0
M  V30 9629 C 888.098 -5.42114 -3.00854 0
M  V30 9630 C 890.153 -4.0706 -2.86717 0
M  V30 9631 C 888.856 -6.60358 -2.85166 0
M  V30 9632 C 890.882 -5.24938 -2.72386 0
M  V30 9633 C 890.244 -6.49983 -2.71479 0
M  V30 9634 H 886.343 -0.434522 -0.650165 0
M  V30 9635 H 888.927 -1.53495 -1.1978 0
M  V30 9636 H 887.098 -1.19649 -3.69511 0
M  V30 9637 H 888.83 -1.42622 -3.78736 0
M  V30 9638 H 885.585 -3.38798 -3.30927 0
M  V30 9639 H 886.009 -6.00293 -3.13013 0
M  V30 9640 H 890.651 -3.11183 -2.86226 0
M  V30 9641 H 888.369 -7.56399 -2.84405 0
M  V30 9642 H 891.955 -5.19857 -2.61228 0
M  V30 9643 H 890.835 -7.39662 -2.6052 0
M  V30 9644 N 888.338 1.20213 -1.01915 0
M  V30 9645 C 889.301 2.21307 -0.596327 0
M  V30 9646 C 890.301 1.57274 0.334879 0
M  V30 9647 O 891.491 1.73764 0.12322 0
M  V30 9648 C 888.623 3.40657 0.128808 0
M  V30 9649 H 889.816 2.60228 -1.49068 0
M  V30 9650 H 887.369 1.33721 -0.809226 0
M  V30 9651 H 888.104 3.07241 1.03796 0
M  V30 9652 H 887.889 3.88361 -0.540183 0
M  V30 9653 H 889.379 4.15564 0.411892 0
M  V30 9654 N 889.816 0.795718 1.36037 0
M  V30 9655 C 890.764 0.18649 2.31851 0
M  V30 9656 C 891.758 -0.657704 1.56111 0
M  V30 9657 O 892.964 -0.552083 1.71324 0
M  V30 9658 H 889.339 0.0415363 0.750852 0
M  V30 9659 H 891.31 1.00992 2.8079 0
M  V30 9660 C 890.059 -0.65918 3.41394 0
M  V30 9661 H 889.382 -0.01894 3.99796 0
M  V30 9662 H 890.822 -1.05202 4.10741 0
M  V30 9663 C 889.281 -1.82011 2.83502 0
M  V30 9664 O 889.811 -2.91703 2.76174 0
M  V30 9665 N 888.017 -1.62821 2.40703 0
M  V30 9666 H 887.564 -0.735965 2.46863 0
M  V30 9667 H 887.522 -2.40657 2.02316 0
M  V30 9668 N 891.294 -1.47756 0.548274 0
M  V30 9669 C 892.571 -1.9555 -0.0443603 0
M  V30 9670 C 892.951 -1.49079 -1.49462 0
M  V30 9671 O 892.299 -0.725538 -2.16675 0
M  V30 9672 C 892.509 -3.48879 0.0918425 0
M  V30 9673 C 893.857 -4.2456 -0.0580879 0
M  V30 9674 O 894.881 -3.56195 0.018946 0
M  V30 9675 O 893.74 -5.46048 -0.222261 0
M  V30 9676 H 890.834 -0.824106 -0.0691235 0
M  V30 9677 H 893.38 -1.58196 0.614166 0
M  V30 9678 H 892.152 -3.7548 1.10137 0
M  V30 9679 H 891.775 -3.92975 -0.604704 0
M  V30 9680 N 892.772 -0.284283 -1.55015 0
M  V30 9681 C 894.018 0.330352 -2.00091 0
M  V30 9682 C 894.351 1.54814 -1.17244 0
M  V30 9683 O 893.626 1.92954 -0.244753 0
M  V30 9684 C 893.909 0.703492 -3.53161 0
M  V30 9685 C 893.762 -0.522275 -4.46758 0
M  V30 9686 C 895.081 1.53645 -4.12409 0
M  V30 9687 H 892.2 0.118599 -0.727395 0
M  V30 9688 H 894.842 -0.393054 -1.8589 0
M  V30 9689 H 892.992 1.31983 -3.65394 0
M  V30 9690 H 894.664 -1.16082 -4.46456 0
M  V30 9691 H 892.907 -1.15865 -4.1804 0
M  V30 9692 H 893.578 -0.217295 -5.51572 0
M  V30 9693 H 896.054 1.01583 -4.0351 0
M  V30 9694 H 894.93 1.76633 -5.19704 0
M  V30 9695 H 895.191 2.5204 -3.63219 0
M  V30 9696 N 894.251 1.57596 -0.0117121 0
M  V30 9697 C 895.497 1.91355 0.671661 0
M  V30 9698 C 895.83 0.886818 1.72769 0
M  V30 9699 O 895.105 -0.0928813 1.94278 0
M  V30 9700 C 895.388 3.35657 1.30409 0
M  V30 9701 C 895.241 4.49055 0.2588 0
M  V30 9702 C 896.56 3.79595 2.22701 0
M  V30 9703 H 893.679 0.695893 0.242698 0
M  V30 9704 H 896.321 1.89887 -0.0654071 0
M  V30 9705 H 894.471 3.37038 1.9323 0
M  V30 9706 H 896.143 4.59809 -0.370631 0
M  V30 9707 H 894.386 4.31785 -0.417672 0
M  V30 9708 H 895.057 5.4701 0.740578 0
M  V30 9709 H 897.533 3.7984 1.69885 0
M  V30 9710 H 896.409 4.81292 2.63912 0
M  V30 9711 H 896.67 3.14118 3.11098 0
M  V30 9712 N 895.729 -0.261212 1.5542 0
M  V30 9713 C 896.639 -1.34493 1.92221 0
M  V30 9714 C 897.655 -1.53421 0.82086 0
M  V30 9715 O 898.831 -1.6732 1.12099 0
M  V30 9716 C 895.896 -2.68209 2.19692 0
M  V30 9717 C 894.957 -2.57927 3.43179 0
M  V30 9718 C 894.19 -3.85266 3.69331 0
M  V30 9719 O 894.413 -4.86493 2.97793 0
M  V30 9720 O 893.347 -3.8476 4.62865 0
M  V30 9721 H 897.173 -1.06278 2.84497 0
M  V30 9722 H 894.758 -0.460752 1.42118 0
M  V30 9723 H 896.64 -3.47252 2.38734 0
M  V30 9724 H 895.315 -2.96186 1.30597 0
M  V30 9725 H 894.222 -1.77219 3.2946 0
M  V30 9726 H 895.555 -2.34898 4.32532 0
M  V30 9727 N 897.207 -1.48554 -0.526253 0
M  V30 9728 C 898.484 -1.47252 -1.28748 0
M  V30 9729 C 898.864 -0.186245 -2.10277 0
M  V30 9730 O 898.212 0.831954 -2.12816 0
M  V30 9731 C 898.422 -2.73672 -2.16575 0
M  V30 9732 C 899.77 -3.22151 -2.76593 0
M  V30 9733 O 900.794 -2.74614 -2.2686 0
M  V30 9734 O 899.653 -4.04877 -3.67066 0
M  V30 9735 H 896.747 -0.588242 -0.581292 0
M  V30 9736 H 899.293 -1.60792 -0.5426 0
M  V30 9737 H 898.065 -3.58798 -1.56139 0
M  V30 9738 H 897.688 -2.6287 -2.98304 0
M  V30 9739 N 898.685 0.775411 -1.37205 0
M  V30 9740 C 899.932 1.53384 -1.32211 0
M  V30 9741 C 900.26 1.9427 0.0944958 0
M  V30 9742 O 899.515 1.64059 1.06692 0
M  V30 9743 C 899.814 2.81377 -2.20367 0
M  V30 9744 C 899.48 2.59561 -3.68699 0
M  V30 9745 C 898.142 2.53319 -4.09124 0
M  V30 9746 C 900.494 2.39939 -4.62686 0
M  V30 9747 C 897.822 2.25442 -5.41658 0
M  V30 9748 C 900.174 2.13586 -5.95453 0
M  V30 9749 C 898.838 2.05786 -6.34987 0
M  V30 9750 H 898.108 0.561271 -0.483793 0
M  V30 9751 H 900.755 0.893466 -1.6938 0
M  V30 9752 H 899.06 3.49954 -1.76181 0
M  V30 9753 H 900.757 3.39238 -2.13819 0
M  V30 9754 H 897.347 2.6528 -3.36637 0
M  V30 9755 H 901.531 2.43753 -4.32317 0
M  V30 9756 H 896.787 2.17896 -5.71254 0
M  V30 9757 H 900.961 1.97401 -6.67837 0
M  V30 9758 H 898.588 1.83948 -7.37609 0
M  V30 9759 N 900.163 1.21714 1.00117 0
M  V30 9760 C 901.391 1.06278 1.77518 0
M  V30 9761 C 901.806 -0.387193 1.84787 0
M  V30 9762 O 901.163 -1.26854 1.31203 0
M  V30 9763 C 901.214 1.65795 3.21239 0
M  V30 9764 O 900.935 3.05119 3.14378 0
M  V30 9765 C 902.436 1.55521 4.15124 0
M  V30 9766 H 899.656 0.373013 0.557765 0
M  V30 9767 H 902.2 1.61133 1.25922 0
M  V30 9768 H 900.355 1.15022 3.69931 0
M  V30 9769 H 900.769 3.33643 4.04701 0
M  V30 9770 H 902.243 2.01902 5.13751 0
M  V30 9771 H 902.72 0.510307 4.36225 0
M  V30 9772 H 903.326 2.0556 3.72324 0
M  V30 9773 N 901.641 -1.19671 1.02551 0
M  V30 9774 C 902.869 -1.93233 0.739513 0
M  V30 9775 C 903.284 -1.75298 -0.701158 0
M  V30 9776 O 902.641 -1.07269 -1.47647 0
M  V30 9777 C 902.692 -3.45085 1.07697 0
M  V30 9778 O 902.413 -3.62441 2.46106 0
M  V30 9779 C 903.914 -4.35776 0.813298 0
M  V30 9780 H 901.134 -0.613905 0.270853 0
M  V30 9781 H 903.678 -1.51909 1.36909 0
M  V30 9782 H 901.833 -3.84255 0.492635 0
M  V30 9783 H 902.247 -4.56337 2.58567 0
M  V30 9784 H 903.721 -5.40941 1.09941 0
M  V30 9785 H 904.198 -4.38474 -0.252359 0
M  V30 9786 H 904.804 -4.02282 1.38021 0
M  V30 9787 N 903.119 -0.802921 -1.35613 0
M  V30 9788 C 904.067 -0.198783 -2.31749 0
M  V30 9789 C 905.061 0.649416 -1.56458 0
M  V30 9790 O 906.267 0.542989 -1.71615 0
M  V30 9791 H 902.642 -0.0455177 -0.750621 0
M  V30 9792 H 904.613 -1.02479 -2.80251 0
M  V30 9793 C 903.362 0.641066 -3.41739 0
M  V30 9794 H 902.685 -0.00226244 -3.998 0
M  V30 9795 H 904.125 1.03022 -4.11294 0
M  V30 9796 C 902.584 1.80505 -2.84464 0
M  V30 9797 O 903.114 2.90235 -2.77717 0
M  V30 9798 N 901.32 1.61542 -2.41563 0
M  V30 9799 H 900.867 0.722863 -2.4725 0
M  V30 9800 H 900.825 2.39581 -2.03589 0
M  V30 9801 N 904.597 1.47463 -0.556102 0
M  V30 9802 C 905.846 2.01678 -0.029492 0
M  V30 9803 C 906.159 1.436 1.32809 0
M  V30 9804 O 907.365 1.89472 1.94455 0
M  V30 9805 C 905.821 3.599 -0.00223937 0
M  V30 9806 C 905.429 4.26969 -1.35651 0
M  V30 9807 C 907.173 4.2187 0.471822 0
M  V30 9808 C 905.08 5.77194 -1.28843 0
M  V30 9809 H 904.01 0.753965 -0.00725504 0
M  V30 9810 H 906.661 1.69467 -0.703789 0
M  V30 9811 H 905.043 3.89068 0.737682 0
M  V30 9812 H 906.217 4.09444 -2.11406 0
M  V30 9813 H 904.532 3.76983 -1.76842 0
M  V30 9814 H 907.129 5.31955 0.541139 0
M  V30 9815 H 907.472 3.88968 1.48356 0
M  V30 9816 H 908.005 3.97228 -0.213207 0
M  V30 9817 H 904.744 6.14713 -2.27613 0
M  V30 9818 H 904.264 5.9706 -0.572668 0
M  V30 9819 H 905.943 6.3938 -0.990031 0
M  V30 9820 N 906.075 0.2925 1.54862 0
M  V30 9821 C 907.005 -0.580677 2.26165 0
M  V30 9822 C 907.986 -1.14485 1.25806 0
M  V30 9823 O 909.171 -1.17577 1.54562 0
M  V30 9824 C 906.301 -1.75668 2.99596 0
M  V30 9825 C 905.255 -1.32325 4.07031 0
M  V30 9826 C 904.581 -2.58374 4.68131 0
M  V30 9827 C 905.881 -0.460703 5.20264 0
M  V30 9828 H 907.575 0.0140075 2.99397 0
M  V30 9829 H 905.121 0.00817706 1.43998 0
M  V30 9830 H 907.074 -2.37356 3.48195 0
M  V30 9831 H 905.798 -2.37747 2.23928 0
M  V30 9832 H 904.457 -0.729477 3.59269 0
M  V30 9833 H 904.105 -3.18749 3.89112 0
M  V30 9834 H 903.805 -2.30078 5.40683 0
M  V30 9835 H 905.329 -3.2088 5.19489 0
M  V30 9836 H 906.743 -0.983037 5.64809 0
M  V30 9837 H 905.14 -0.271881 5.99484 0
M  V30 9838 H 906.21 0.516304 4.82143 0
M  V30 9839 N 907.553 -1.57587 0.0200696 0
M  V30 9840 C 908.969 -1.56018 -0.336237 0
M  V30 9841 C 909.169 -1.02478 -1.73495 0
M  V30 9842 O 908.225 -0.667487 -2.43518 0
M  V30 9843 C 909.538 -3.00079 -0.193112 0
M  V30 9844 C 911.086 -3.11863 -0.266557 0
M  V30 9845 C 911.561 -4.57747 -0.152326 0
M  V30 9846 N 913.052 -4.62726 -0.209596 0
M  V30 9847 C 913.787 -5.73217 -0.144855 0
M  V30 9848 N 913.283 -6.92794 -0.0295487 0
M  V30 9849 N 915.076 -5.61751 -0.198184 0
M  V30 9850 H 907.227 -1.90722 0.93482 0
M  V30 9851 H 909.49 -0.876909 0.360186 0
M  V30 9852 H 909.196 -3.43167 0.770036 0
M  V30 9853 H 909.07 -3.64593 -0.967029 0
M  V30 9854 H 911.457 -2.68693 -1.22016 0
M  V30 9855 H 911.538 -2.50087 0.53758 0
M  V30 9856 H 911.182 -5.01595 0.797817 0
M  V30 9857 H 911.112 -5.17491 -0.97521 0
M  V30 9858 H 913.603 -3.76713 -0.299229 0
M  V30 9859 H 913.916 -7.72799 0.0134071 0
M  V30 9860 H 912.261 -6.95 0.00510737 0
M  V30 9861 H 915.452 -4.67222 -0.286603 0
M  V30 9862 H 915.625 -6.47839 -0.144266 0
M  V30 9863 N 909.032 0.252966 -1.55557 0
M  V30 9864 C 909.979 1.3131 -1.89806 0
M  V30 9865 C 910.949 1.48121 -0.751633 0
M  V30 9866 O 912.134 1.62202 -1.00474 0
M  V30 9867 C 909.274 2.66467 -2.19293 0
M  V30 9868 C 908.387 2.57714 -3.46709 0
M  V30 9869 C 907.522 3.85184 -3.65796 0
M  V30 9870 C 906.561 3.71023 -4.86835 0
M  V30 9871 N 905.698 4.90371 -5.02474 0
M  V30 9872 H 910.538 1.01402 -2.80217 0
M  V30 9873 H 908.075 0.489462 -1.38718 0
M  V30 9874 H 910.033 3.45132 -2.34392 0
M  V30 9875 H 908.663 2.94536 -1.32093 0
M  V30 9876 H 907.715 1.70651 -3.39974 0
M  V30 9877 H 909.027 2.43158 -4.35517 0
M  V30 9878 H 908.181 4.72292 -3.80822 0
M  V30 9879 H 906.92 4.0263 -2.7521 0
M  V30 9880 H 905.925 2.82299 -4.71792 0
M  V30 9881 H 907.15 3.55078 -5.78875 0
M  V30 9882 H 905.096 5.0819 -4.14824 0
M  V30 9883 H 905.013 4.78423 -5.85361 0
M  V30 9884 H 906.281 5.78995 -5.21905 0
M  V30 9885 N 910.51 1.48831 0.518367 0
M  V30 9886 C 911.787 1.47933 1.27966 0
M  V30 9887 C 912.167 0.197393 2.10175 0
M  V30 9888 O 911.515 -0.820656 2.13255 0
M  V30 9889 C 911.725 2.74816 2.15121 0
M  V30 9890 C 913.073 3.23613 2.74881 0
M  V30 9891 O 914.097 2.75814 2.254 0
M  V30 9892 O 912.956 4.06818 3.64913 0
M  V30 9893 H 910.05 0.591316 0.578164 0
M  V30 9894 H 912.596 1.61077 0.534065 0
M  V30 9895 H 911.368 3.59621 1.54234 0
M  V30 9896 H 910.991 2.64449 2.96905 0
M  V30 9897 N 911.988 -0.768124 1.37614 0
M  V30 9898 C 913.216 -1.55726 1.36224 0
M  V30 9899 C 913.631 -1.8873 -0.0515357 0
M  V30 9900 O 912.988 -1.51718 -1.0143 0
M  V30 9901 C 913.039 -2.86533 2.20412 0
M  V30 9902 O 912.76 -2.54942 3.56281 0
M  V30 9903 C 914.261 -3.80745 2.27041 0
M  V30 9904 H 911.481 -0.482325 0.46648 0
M  V30 9905 H 914.025 -0.95176 1.81002 0
M  V30 9906 H 912.18 -3.43496 1.79134 0
M  V30 9907 H 912.594 -3.38732 4.00451 0
M  V30 9908 H 914.068 -4.69523 2.90263 0
M  V30 9909 H 914.545 -4.20138 1.27987 0
M  V30 9910 H 915.151 -3.2971 2.68647 0
M  V30 9911 N 913.466 -1.22244 -0.994698 0
M  V30 9912 C 914.396 -1.01513 -2.10279 0
M  V30 9913 C 915.377 0.0633365 -1.69982 0
M  V30 9914 O 916.562 -0.0985268 -1.9395 0
M  V30 9915 C 913.692 -0.59016 -3.42249 0
M  V30 9916 C 912.646 -1.61436 -3.96387 0
M  V30 9917 C 911.972 -1.04528 -5.24383 0
M  V30 9918 C 913.272 -3.00388 -4.27276 0
M  V30 9919 H 914.966 -1.94194 -2.2788 0
M  V30 9920 H 912.512 -0.935094 -1.09508 0
M  V30 9921 H 914.465 -0.432254 -4.19177 0
M  V30 9922 H 913.189 0.372308 -3.24471 0
M  V30 9923 H 911.848 -1.76001 -3.21589 0
M  V30 9924 H 911.496 -0.0742225 -5.02945 0
M  V30 9925 H 911.196 -1.72949 -5.61571 0
M  V30 9926 H 912.72 -0.898922 -6.03947 0
M  V30 9927 H 914.134 -2.89207 -4.95007 0
M  V30 9928 H 912.531 -3.65916 -4.75631 0
M  V30 9929 H 913.601 -3.50456 -3.35125 0
M  V30 9930 N 914.944 1.19125 -1.03184 0
M  V30 9931 C 916.221 1.84674 -0.644574 0
M  V30 9932 C 916.601 1.92042 0.876534 0
M  V30 9933 O 915.949 1.43965 1.77444 0
M  V30 9934 C 916.159 3.23477 -1.3101 0
M  V30 9935 C 917.507 3.99608 -1.43524 0
M  V30 9936 O 918.531 3.32886 -1.2675 0
M  V30 9937 O 917.39 5.19132 -1.70776 0
M  V30 9938 H 914.484 0.795968 -0.22442 0
M  V30 9939 H 917.03 1.2659 -1.13018 0
M  V30 9940 H 915.802 3.12967 -2.34878 0
M  V30 9941 H 915.425 3.89209 -0.812547 0
M  V30 9942 N 916.422 0.810101 1.35185 0
M  V30 9943 C 917.369 0.220927 2.2974 0
M  V30 9944 C 918.339 -0.647024 1.5298 0
M  V30 9945 O 919.524 -0.591367 1.81404 0
M  V30 9946 C 916.664 -0.62167 3.39454 0
M  V30 9947 C 915.777 0.267104 4.31173 0
M  V30 9948 C 914.912 -0.583833 5.27982 0
M  V30 9949 C 913.951 0.305123 6.11339 0
M  V30 9950 N 913.088 -0.505992 7.00274 0
M  V30 9951 H 917.928 1.03266 2.79536 0
M  V30 9952 H 915.465 0.520768 1.37573 0
M  V30 9953 H 917.423 -1.12539 4.01735 0
M  V30 9954 H 916.053 -1.39863 2.90926 0
M  V30 9955 H 915.105 0.88895 3.69867 0
M  V30 9956 H 916.417 0.951182 4.89647 0
M  V30 9957 H 915.571 -1.15254 5.95652 0
M  V30 9958 H 914.31 -1.30146 4.70014 0
M  V30 9959 H 913.315 0.886075 5.42613 0
M  V30 9960 H 914.54 1.02067 6.71386 0
M  V30 9961 H 912.486 -1.20753 6.4479 0
M  V30 9962 H 912.403 0.119966 7.55905 0
M  V30 9963 H 913.671 -1.05787 7.72288 0
M  V30 9964 N 917.9 -1.47166 0.563914 0
M  V30 9965 C 919.149 -2.0166 0.0401871 0
M  V30 9966 C 919.462 -1.44303 -1.32046 0
M  V30 9967 O 920.668 -1.905 -1.93448 0
M  V30 9968 C 919.124 -3.59894 0.0213257 0
M  V30 9969 C 918.732 -4.26244 1.37914 0
M  V30 9970 C 920.476 -4.22114 -0.449442 0
M  V30 9971 C 918.383 -5.76503 1.31902 0
M  V30 9972 H 917.313 -0.753916 0.0112534 0
M  V30 9973 H 919.964 -1.69091 0.712766 0
M  V30 9974 H 918.346 -3.89454 -0.717038 0
M  V30 9975 H 919.52 -4.08317 2.13574 0
M  V30 9976 H 917.835 -3.76039 1.78839 0
M  V30 9977 H 920.432 -5.32234 -0.51292 0
M  V30 9978 H 920.775 -3.89749 -1.46291 0
M  V30 9979 H 921.308 -3.9711 0.23427 0
M  V30 9980 H 918.047 -6.13498 2.3087 0
M  V30 9981 H 917.567 -5.96748 0.604324 0
M  V30 9982 H 919.246 -6.38846 1.02392 0
M  V30 9983 N 919.378 -0.300708 -1.54705 0
M  V30 9984 C 920.603 0.314073 -2.05008 0
M  V30 9985 C 921.028 1.46759 -1.17657 0
M  V30 9986 O 920.386 1.80398 -0.180598 0
M  V30 9987 C 920.434 0.748243 -3.52752 0
M  V30 9988 O 919.538 1.85305 -3.68424 0
M  V30 9989 H 918.879 0.0610139 -0.661191 0
M  V30 9990 H 921.409 -0.442467 -1.99758 0
M  V30 9991 H 921.419 1.03713 -3.94598 0
M  V30 9992 H 920.094 -0.095573 -4.1579 0
M  V30 9993 H 918.671 1.56473 -3.38483 0
M  V30 9994 N 920.856 1.57574 -0.0284266 0
M  V30 9995 C 922.133 1.83064 0.688979 0
M  V30 9996 C 922.513 0.91219 1.90374 0
M  V30 9997 O 921.861 -0.0323672 2.28477 0
M  V30 9998 C 922.071 3.32262 1.06785 0
M  V30 9999 C 923.419 3.98717 1.45978 0
M  V30 10000 O 924.443 3.36753 1.16085 0
M  V30 10001 O 923.302 5.07927 2.01673 0
M  V30 10002 H 920.396 0.7548 0.337944 0
M  V30 10003 H 922.942 1.69607 -0.0560555 0
M  V30 10004 H 921.714 3.90772 0.203235 0
M  V30 10005 H 921.337 3.50823 1.87107 0
M  V30 10006 N 922.334 -0.244713 1.55689 0
M  V30 10007 C 923.58 -0.973886 1.77886 0
M  V30 10008 C 923.913 -1.8489 0.594071 0
M  V30 10009 O 923.188 -1.90182 -0.407564 0
M  V30 10010 C 923.471 -1.83255 3.09983 0
M  V30 10011 C 923.324 -0.985571 4.3887 0
M  V30 10012 C 924.643 -2.81464 3.38329 0
M  V30 10013 H 921.762 -0.352629 0.647165 0
M  V30 10014 H 924.404 -0.244243 1.88424 0
M  V30 10015 H 922.554 -2.45464 3.01131 0
M  V30 10016 H 924.226 -0.382005 4.59716 0
M  V30 10017 H 922.469 -0.29002 4.32829 0
M  V30 10018 H 923.14 -1.62022 5.27686 0
M  V30 10019 H 925.616 -2.2939 3.47159 0
M  V30 10020 H 924.492 -3.38663 4.31971 0
M  V30 10021 H 924.753 -3.58037 2.59349 0
M  V30 10022 N 923.813 -1.49104 -0.510467 0
M  V30 10023 C 925.038 -1.62068 -1.29417 0
M  V30 10024 C 925.463 -0.288432 -1.85875 0
M  V30 10025 O 924.821 0.742667 -1.65391 0
M  V30 10026 C 924.869 -2.68506 -2.40701 0
M  V30 10027 O 923.973 -2.27021 -3.4429 0
M  V30 10028 H 923.314 -0.542778 -0.382476 0
M  V30 10029 H 925.844 -1.95228 -0.612154 0
M  V30 10030 H 925.854 -2.90383 -2.86604 0
M  V30 10031 H 924.529 -3.65216 -1.98973 0
M  V30 10032 H 923.106 -2.15436 -3.04371 0
M  V30 10033 N 925.291 0.760815 -1.38019 0
M  V30 10034 C 926.254 1.85604 -1.34476 0
M  V30 10035 C 927.254 1.58897 -0.24666 0
M  V30 10036 O 928.444 1.66776 -0.50314 0
M  V30 10037 C 925.576 3.22945 -1.09176 0
M  V30 10038 H 926.769 1.90155 -2.31908 0
M  V30 10039 H 924.322 0.961746 -1.23208 0
M  V30 10040 H 925.057 3.24066 -0.123216 0
M  V30 10041 H 924.842 3.43723 -1.88672 0
M  V30 10042 H 926.332 4.03022 -1.09375 0
M  V30 10043 N 926.769 1.22769 0.988202 0
M  V30 10044 C 928.018 1.0492 1.72263 0
M  V30 10045 C 928.331 -0.415282 1.91141 0
M  V30 10046 O 929.537 -0.713547 2.61956 0
M  V30 10047 C 927.993 1.82891 3.09966 0
M  V30 10048 C 927.601 3.33618 2.99003 0
M  V30 10049 C 929.345 1.73505 3.87423 0
M  V30 10050 C 927.252 4.04012 4.3189 0
M  V30 10051 H 926.182 0.38899 0.645912 0
M  V30 10052 H 928.833 1.46664 1.10281 0
M  V30 10053 H 927.215 1.33948 3.72658 0
M  V30 10054 H 928.389 3.8999 2.45448 0
M  V30 10055 H 926.704 3.43732 2.35027 0
M  V30 10056 H 929.301 2.23416 4.85787 0
M  V30 10057 H 929.644 0.696344 4.10435 0
M  V30 10058 H 930.177 2.20016 3.31418 0
M  V30 10059 H 926.916 5.08155 4.14075 0
M  V30 10060 H 926.436 3.52428 4.8534 0
M  V30 10061 H 928.115 4.0987 5.00615 0
M  V30 10062 N 928.247 -1.18576 1.03814 0
M  V30 10063 C 929.496 -1.87822 0.735235 0
M  V30 10064 C 929.809 -1.81069 -0.739819 0
M  V30 10065 O 931.015 -2.45654 -1.15614 0
M  V30 10066 C 929.471 -3.36941 1.26486 0
M  V30 10067 C 929.079 -3.5223 2.76836 0
M  V30 10068 C 930.823 -4.11604 1.03836 0
M  V30 10069 C 928.73 -4.95294 3.23169 0
M  V30 10070 H 927.66 -0.703487 0.271333 0
M  V30 10071 H 930.311 -1.34 1.25365 0
M  V30 10072 H 928.693 -3.90217 0.674318 0
M  V30 10073 H 929.867 -3.09239 3.41625 0
M  V30 10074 H 928.182 -2.90969 2.97869 0
M  V30 10075 H 930.779 -5.17123 1.3597 0
M  V30 10076 H 931.122 -4.16293 -0.0244945 0
M  V30 10077 H 931.655 -3.64494 1.59338 0
M  V30 10078 H 928.394 -4.95772 4.28824 0
M  V30 10079 H 927.914 -5.3901 2.63113 0
M  V30 10080 H 929.593 -5.63996 3.17045 0
M  V30 10081 N 929.725 -0.817259 -1.34754 0
M  V30 10082 C 931.136 -0.462215 -1.80888 0
M  V30 10083 C 931.487 1.01685 -1.67794 0
M  V30 10084 O 930.612 1.79094 -1.21468 0
M  V30 10085 C 931.207 -0.832204 -3.2842 0
M  V30 10086 C 929.766 -0.52961 -3.72655 0
M  V30 10087 C 928.913 -1.05214 -2.56564 0
M  V30 10088 H 931.864 -1.00795 -1.22581 0
M  V30 10089 H 931.885 -0.133804 -3.80265 0
M  V30 10090 H 931.397 -1.90873 -3.37919 0
M  V30 10091 H 929.498 0.537743 -3.68699 0
M  V30 10092 H 929.611 -1.06971 -4.67005 0
M  V30 10093 H 927.975 -0.473949 -2.50251 0
M  V30 10094 H 928.758 -2.135 -2.68836 0
M  V30 10095 N 931.203 1.46865 -0.571711 0
M  V30 10096 C 932.433 2.06518 -0.0583129 0
M  V30 10097 C 932.841 1.4227 1.24723 0
M  V30 10098 O 932.184 0.518293 1.76237 0
M  V30 10099 C 932.246 3.5898 0.193214 0
M  V30 10100 C 931.91 4.45355 -1.02507 0
M  V30 10101 C 932.907 4.82575 -1.93435 0
M  V30 10102 C 930.592 4.86656 -1.24382 0
M  V30 10103 C 932.586 5.59912 -3.04595 0
M  V30 10104 C 930.273 5.63754 -2.35849 0
M  V30 10105 C 931.271 6.00294 -3.25785 0
M  V30 10106 O 930.959 6.75836 -4.35318 0
M  V30 10107 H 930.691 0.674188 -0.0494584 0
M  V30 10108 H 933.245 1.89644 -0.788934 0
M  V30 10109 H 931.475 3.7412 0.978319 0
M  V30 10110 H 933.164 4.006 0.653769 0
M  V30 10111 H 933.93 4.51256 -1.77745 0
M  V30 10112 H 929.809 4.57672 -0.55292 0
M  V30 10113 H 933.353 5.88351 -3.74818 0
M  V30 10114 H 929.25 5.94487 -2.51506 0
M  V30 10115 H 930.018 6.94247 -4.33547 0
M  V30 10116 N 932.681 0.308908 1.54543 0
M  V30 10117 C 933.93 -0.298854 1.99474 0
M  V30 10118 C 934.243 -1.54393 1.20093 0
M  V30 10119 O 935.449 -2.22677 1.55329 0
M  V30 10120 C 933.905 -0.58303 3.55146 0
M  V30 10121 C 933.513 0.644157 4.43345 0
M  V30 10122 C 935.257 -1.15155 4.08582 0
M  V30 10123 C 933.164 0.332694 5.90463 0
M  V30 10124 H 932.094 -0.115445 0.74511 0
M  V30 10125 H 934.745 0.418848 1.78656 0
M  V30 10126 H 933.127 -1.36053 3.71894 0
M  V30 10127 H 934.301 1.42012 4.38371 0
M  V30 10128 H 932.616 1.13186 4.00722 0
M  V30 10129 H 935.213 -1.39896 5.16075 0
M  V30 10130 H 935.556 -2.09632 3.59667 0
M  V30 10131 H 936.089 -0.435571 3.95408 0
M  V30 10132 H 932.828 1.24624 6.43544 0
M  V30 10133 H 932.348 -0.405844 5.98425 0
M  V30 10134 H 934.027 -0.0628545 6.46969 0
M  V30 10135 N 934.159 -1.57557 0.0367827 0
M  V30 10136 C 935.407 -1.91735 -0.63892 0
M  V30 10137 C 935.728 -0.914515 -1.72226 0
M  V30 10138 O 934.998 0.0428248 -1.95853 0
M  V30 10139 H 933.578 -0.707738 -0.23899 0
M  V30 10140 H 936.24 -1.94708 0.0863931 0
M  V30 10141 H 935.336 -2.92568 -1.08676 0
M  V30 10142 N 935.637 0.236453 -1.55816 0
M  V30 10143 C 937.048 0.80468 -1.68469 0
M  V30 10144 C 937.399 1.85601 -0.636133 0
M  V30 10145 O 936.524 2.15323 0.215622 0
M  V30 10146 C 937.119 1.46634 -3.05424 0
M  V30 10147 C 935.678 1.98214 -3.19981 0
M  V30 10148 C 934.825 0.83695 -2.64368 0
M  V30 10149 H 937.776 0.0120647 -1.58695 0
M  V30 10150 H 937.797 2.33472 -3.00451 0
M  V30 10151 H 937.309 0.700931 -3.81718 0
M  V30 10152 H 935.41 2.77604 -2.4853 0
M  V30 10153 H 935.523 2.17235 -4.2702 0
M  V30 10154 H 933.887 1.24028 -2.22462 0
M  V30 10155 H 934.67 0.084451 -3.43196 0
M  V30 10156 N 937.115 1.49373 0.502552 0
M  V30 10157 C 938.078 1.65413 1.58654 0
M  V30 10158 C 939.078 0.526003 1.51953 0
M  V30 10159 O 940.268 0.792421 1.55133 0
M  V30 10160 C 937.4 1.65005 2.98306 0
M  V30 10161 H 938.593 2.62095 1.45762 0
M  V30 10162 H 936.146 1.38381 0.726672 0
M  V30 10163 H 936.881 0.699014 3.16677 0
M  V30 10164 H 936.666 2.46931 3.04578 0
M  V30 10165 H 938.156 1.79477 3.77065 0
M  V30 10166 N 938.594 -0.753485 1.38421 0
M  V30 10167 C 939.524 -1.8808 1.38377 0
M  V30 10168 C 940.505 -1.68258 0.249664 0
M  V30 10169 O 941.69 -1.88848 0.45276 0
M  V30 10170 C 938.82 -3.25608 1.20818 0
M  V30 10171 C 937.774 -3.60032 2.31433 0
M  V30 10172 C 937.1 -4.96297 1.9898 0
M  V30 10173 C 938.4 -3.64898 3.73694 0
M  V30 10174 H 940.094 -1.88375 2.32713 0
M  V30 10175 H 937.64 -0.90489 1.12017 0
M  V30 10176 H 939.593 -4.04127 1.19412 0
M  V30 10177 H 938.317 -3.25793 0.229433 0
M  V30 10178 H 936.976 -2.83831 2.32025 0
M  V30 10179 H 936.624 -4.93043 0.995889 0
M  V30 10180 H 936.324 -5.20298 2.73063 0
M  V30 10181 H 937.848 -5.77196 1.99193 0
M  V30 10182 H 939.262 -4.33531 3.75132 0
M  V30 10183 H 937.659 -4.00407 4.46983 0
M  V30 10184 H 938.729 -2.65124 4.06002 0
M  V30 10185 N 940.072 -1.23292 -0.981677 0
M  V30 10186 C 941.02 -1.0104 -2.09508 0
M  V30 10187 C 942.014 0.0501977 -1.69326 0
M  V30 10188 O 943.22 -0.103197 -1.79704 0
M  V30 10189 H 939.595 -0.309629 -0.685298 0
M  V30 10190 H 941.566 -1.95493 -2.25444 0
M  V30 10191 C 940.315 -0.616885 -3.42184 0
M  V30 10192 H 939.638 -1.4247 -3.73554 0
M  V30 10193 H 941.078 -0.500688 -4.21033 0
M  V30 10194 C 939.537 0.674721 -3.30074 0
M  V30 10195 O 940.067 1.72421 -3.62814 0
M  V30 10196 N 938.273 0.650151 -2.83234 0
M  V30 10197 H 937.82 -0.204225 -2.56789 0
M  V30 10198 H 937.778 1.51458 -2.75514 0
M  V30 10199 N 941.55 1.18024 -1.04442 0
M  V30 10200 C 942.799 1.8743 -0.745185 0
M  V30 10201 C 943.112 1.81459 0.730206 0
M  V30 10202 O 944.318 2.46263 1.1431 0
M  V30 10203 C 942.774 3.36266 -1.28271 0
M  V30 10204 C 942.382 3.50757 -2.787 0
M  V30 10205 C 944.126 4.11048 -1.06018 0
M  V30 10206 C 942.033 4.93573 -3.25791 0
M  V30 10207 H 940.963 0.702038 -0.27506 0
M  V30 10208 H 943.614 1.33333 -1.26073 0
M  V30 10209 H 941.996 3.89853 -0.695002 0
M  V30 10210 H 943.17 3.07423 -3.43261 0
M  V30 10211 H 941.485 2.89385 -2.99408 0
M  V30 10212 H 944.082 5.16395 -1.38711 0
M  V30 10213 H 944.425 4.163 0.00241716 0
M  V30 10214 H 944.958 3.63644 -1.61269 0
M  V30 10215 H 941.697 4.93491 -4.31447 0
M  V30 10216 H 941.217 5.37607 -2.65968 0
M  V30 10217 H 942.896 5.62307 -3.20031 0
M  V30 10218 N 943.028 0.824394 1.34319 0
M  V30 10219 C 944.253 0.425194 2.02995 0
M  V30 10220 C 944.678 -0.961476 1.6167 0
M  V30 10221 O 944.036 -1.62593 0.80207 0
M  V30 10222 C 944.084 0.537004 3.56579 0
M  V30 10223 O 943.188 -0.442576 4.10018 0
M  V30 10224 H 942.529 0.174853 0.640564 0
M  V30 10225 H 945.059 1.11522 1.71534 0
M  V30 10226 H 945.069 0.413311 4.05901 0
M  V30 10227 H 943.744 1.54836 3.86004 0
M  V30 10228 H 942.321 -0.277644 3.71865 0
M  V30 10229 N 944.506 -1.46559 0.579492 0
M  V30 10230 C 945.454 -2.3199 -0.168413 0
M  V30 10231 C 946.448 -1.44288 -0.887551 0
M  V30 10232 O 947.654 -1.60931 -0.806305 0
M  V30 10233 H 944.029 -0.748431 -0.0731799 0
M  V30 10234 H 946 -2.92886 0.570973 0
M  V30 10235 C 944.749 -3.27392 -1.1709 0
M  V30 10236 H 944.072 -3.94853 -0.626958 0
M  V30 10237 H 945.512 -3.89955 -1.66467 0
M  V30 10238 C 943.971 -2.52511 -2.23024 0
M  V30 10239 O 944.501 -2.2858 -3.30324 0
M  V30 10240 N 942.707 -2.1313 -1.97545 0
M  V30 10241 H 942.254 -2.32793 -1.10297 0
M  V30 10242 H 942.212 -1.63348 -2.68635 0
M  V30 10243 N 945.984 -0.3171 -1.54377 0
M  V30 10244 C 947.209 0.292311 -2.0533 0
M  V30 10245 C 947.634 1.45503 -1.19207 0
M  V30 10246 O 946.992 1.80197 -0.199721 0
M  V30 10247 C 947.04 0.710787 -3.53525 0
M  V30 10248 O 946.144 1.81387 -3.70368 0
M  V30 10249 H 945.485 0.0539976 -0.661801 0
M  V30 10250 H 948.015 -0.463629 -1.99278 0
M  V30 10251 H 948.025 0.995216 -3.95676 0
M  V30 10252 H 946.7 -0.139668 -4.15665 0
M  V30 10253 H 945.277 1.52875 -3.40123 0
M  V30 10254 N 947.462 1.57535 -0.0451378 0
M  V30 10255 C 948.708 1.92736 0.630921 0
M  V30 10256 C 949.041 0.923265 1.70849 0
M  V30 10257 O 948.316 -0.0516512 1.94431 0
M  V30 10258 C 948.599 3.38348 1.23259 0
M  V30 10259 C 948.452 4.49503 0.16349 0
M  V30 10260 C 949.771 3.84233 2.14599 0
M  V30 10261 H 946.89 0.700884 0.227883 0
M  V30 10262 H 949.532 1.89706 -0.10567 0
M  V30 10263 H 947.682 3.41061 1.86037 0
M  V30 10264 H 949.354 4.58919 -0.46808 0
M  V30 10265 H 947.597 4.30802 -0.509166 0
M  V30 10266 H 948.268 5.48457 0.624382 0
M  V30 10267 H 950.744 3.83358 1.6179 0
M  V30 10268 H 949.62 4.86781 2.53644 0
M  V30 10269 H 949.881 3.20646 3.04366 0
M  V30 10270 N 948.94 -0.228186 1.55939 0
M  V30 10271 C 950.356 -0.577583 1.48782 0
M  V30 10272 C 950.556 -1.87461 0.738972 0
M  V30 10273 O 949.612 -2.50988 0.275929 0
M  V30 10274 C 950.925 -0.662961 2.93301 0
M  V30 10275 C 952.473 -0.754035 3.03782 0
M  V30 10276 C 952.948 -0.870815 4.49645 0
M  V30 10277 N 954.439 -0.935208 4.53661 0
M  V30 10278 C 955.174 -1.04516 5.63794 0
M  V30 10279 N 954.67 -1.11948 6.83696 0
M  V30 10280 N 956.463 -1.07978 5.51631 0
M  V30 10281 H 948.614 0.623018 2.03057 0
M  V30 10282 H 950.877 0.217692 0.922667 0
M  V30 10283 H 950.583 0.220375 3.51009 0
M  V30 10284 H 950.457 -1.52876 3.44831 0
M  V30 10285 H 952.844 -1.62782 2.46143 0
M  V30 10286 H 952.925 0.137301 2.55431 0
M  V30 10287 H 952.569 -0.0015186 5.079 0
M  V30 10288 H 952.499 -1.77747 4.95695 0
M  V30 10289 H 954.99 -0.88836 3.6731 0
M  V30 10290 H 955.303 -1.20297 7.6338 0
M  V30 10291 H 953.648 -1.08873 6.8642 0
M  V30 10292 H 956.839 -1.01833 4.56889 0
M  V30 10293 H 957.012 -1.16202 6.37496 0
M  V30 10294 N 950.418 -1.49637 -0.494624 0
M  V30 10295 C 951.834 -1.36541 -0.826361 0
M  V30 10296 C 952.034 -0.403386 -1.97421 0
M  V30 10297 O 951.09 0.162614 -2.51976 0
M  V30 10298 C 952.403 -2.77401 -1.16057 0
M  V30 10299 C 953.951 -2.86148 -1.26841 0
M  V30 10300 C 954.426 -4.27789 -1.63587 0
M  V30 10301 N 955.917 -4.3063 -1.70624 0
M  V30 10302 C 956.652 -5.37198 -2.00514 0
M  V30 10303 N 956.148 -6.54004 -2.28584 0
M  V30 10304 N 957.941 -5.2462 -2.01818 0
M  V30 10305 H 950.092 -2.10776 0.26219 0
M  V30 10306 H 952.355 -0.946419 0.0547235 0
M  V30 10307 H 952.061 -3.49526 -0.390434 0
M  V30 10308 H 951.935 -3.1317 -2.10249 0
M  V30 10309 H 954.322 -2.14256 -2.02925 0
M  V30 10310 H 954.403 -2.53953 -0.30684 0
M  V30 10311 H 954.047 -5.00209 -0.880507 0
M  V30 10312 H 953.977 -4.57453 -2.60854 0
M  V30 10313 H 956.468 -3.46393 -1.51065 0
M  V30 10314 H 956.781 -7.31041 -2.50598 0
M  V30 10315 H 955.126 -6.57219 -2.26027 0
M  V30 10316 H 958.317 -4.32371 -1.79369 0
M  V30 10317 H 958.49 -6.07765 -2.24778 0
M  V30 10318 N 951.896 0.746133 -1.38819 0
M  V30 10319 C 953.144 1.50247 -1.35167 0
M  V30 10320 C 953.465 1.94921 0.0553531 0
M  V30 10321 O 952.735 1.68187 1.00449 0
M  V30 10322 H 951.315 0.557337 -0.497377 0
M  V30 10323 H 953.977 0.886472 -1.73573 0
M  V30 10324 H 953.073 2.38986 -2.00728 0
M  V30 10325 N 953.375 1.23811 0.975125 0
M  V30 10326 C 954.323 1.02149 2.0897 0
M  V30 10327 C 955.317 -0.0412172 1.6935 0
M  V30 10328 O 956.523 0.112726 1.79647 0
M  V30 10329 H 952.898 0.313259 0.683647 0
M  V30 10330 H 954.869 1.96686 2.24404 0
M  V30 10331 C 953.618 0.635023 3.41852 0
M  V30 10332 H 952.941 1.44449 3.72793 0
M  V30 10333 H 954.381 0.52301 4.20762 0
M  V30 10334 C 952.84 -0.657207 3.30428 0
M  V30 10335 O 953.37 -1.70494 3.63723 0
M  V30 10336 N 951.576 -0.635122 2.83575 0
M  V30 10337 H 951.123 0.21784 2.56677 0
M  V30 10338 H 951.081 -1.49995 2.76313 0
M  V30 10339 N 954.853 -1.17469 1.05066 0
M  V30 10340 C 956.1 -1.87698 0.759987 0
M  V30 10341 C 956.428 -1.80964 -0.712902 0
M  V30 10342 O 955.683 -1.21146 -1.53695 0
M  V30 10343 C 955.982 -3.37211 1.18421 0
M  V30 10344 C 955.648 -3.64148 2.65909 0
M  V30 10345 C 954.31 -3.71209 3.06199 0
M  V30 10346 C 956.662 -3.75724 3.61222 0
M  V30 10347 C 953.99 -3.87334 4.40669 0
M  V30 10348 C 956.342 -3.93368 4.95424 0
M  V30 10349 C 955.006 -3.98667 5.3537 0
M  V30 10350 H 954.276 -0.686835 0.278099 0
M  V30 10351 H 956.923 -1.38975 1.31751 0
M  V30 10352 H 955.228 -3.87982 0.545654 0
M  V30 10353 H 956.925 -3.89911 0.936518 0
M  V30 10354 H 953.515 -3.59276 2.33707 0
M  V30 10355 H 957.699 -3.69591 3.31235 0
M  V30 10356 H 952.955 -3.89685 4.71122 0
M  V30 10357 H 957.129 -4.01267 5.69173 0
M  V30 10358 H 954.756 -4.10915 6.39572 0
M  V30 10359 N 956.331 -0.831506 -1.3388 0
M  V30 10360 C 957.559 -0.436925 -2.02234 0
M  V30 10361 C 957.974 0.959689 -1.6259 0
M  V30 10362 O 957.331 1.62248 -0.835576 0
M  V30 10363 C 957.382 -0.539429 -3.57453 0
M  V30 10364 O 957.103 -1.88101 -3.95664 0
M  V30 10365 C 958.604 -0.140852 -4.43076 0
M  V30 10366 H 955.824 -0.174302 -0.647966 0
M  V30 10367 H 958.368 -1.12204 -1.70969 0
M  V30 10368 H 956.523 0.0976959 -3.87277 0
M  V30 10369 H 956.937 -1.86131 -4.90363 0
M  V30 10370 H 958.411 -0.26364 -5.5137 0
M  V30 10371 H 958.888 0.916505 -4.29531 0
M  V30 10372 H 959.494 -0.752117 -4.18597 0
M  V30 10373 N 957.809 1.4625 -0.587256 0
M  V30 10374 C 958.719 2.34147 0.145744 0
M  V30 10375 C 959.735 1.50026 0.881376 0
M  V30 10376 O 960.911 1.82884 0.843539 0
M  V30 10377 C 957.976 3.27294 1.14366 0
M  V30 10378 C 957.037 4.27317 0.412199 0
M  V30 10379 C 956.27 5.16013 1.36257 0
M  V30 10380 O 956.493 5.0773 2.59934 0
M  V30 10381 O 955.427 5.95569 0.870681 0
M  V30 10382 H 959.253 2.98187 -0.576055 0
M  V30 10383 H 956.838 1.45299 -0.347628 0
M  V30 10384 H 958.72 3.84747 1.71894 0
M  V30 10385 H 957.395 2.65845 1.84684 0
M  V30 10386 H 956.302 3.73538 -0.205036 0
M  V30 10387 H 957.635 4.91564 -0.250104 0
M  V30 10388 N 959.287 0.325282 1.54207 0
M  V30 10389 C 960.25 -0.527228 2.23054 0
M  V30 10390 C 961.25 -1.04217 1.22456 0
M  V30 10391 O 962.44 -0.934325 1.47024 0
M  V30 10392 C 959.572 -1.7325 2.93594 0
M  V30 10393 H 960.765 0.0746423 2.99807 0
M  V30 10394 H 958.318 0.0763872 1.56113 0
M  V30 10395 H 959.053 -2.37356 2.20981 0
M  V30 10396 H 958.838 -1.37065 3.67363 0
M  V30 10397 H 960.328 -2.3376 3.46043 0
M  V30 10398 N 960.765 -1.57509 0.0534917 0
M  V30 10399 C 962.012 -1.92782 -0.619772 0
M  V30 10400 C 962.34 -0.932046 -1.70714 0
M  V30 10401 O 961.595 0.0552891 -1.95622 0
M  V30 10402 C 961.894 -3.34734 -1.25251 0
M  V30 10403 C 961.56 -4.49946 -0.293113 0
M  V30 10404 C 960.222 -4.81191 -0.0291223 0
M  V30 10405 C 962.574 -5.19925 0.364271 0
M  V30 10406 C 959.902 -5.79761 0.899649 0
M  V30 10407 C 962.254 -6.19489 1.28125 0
M  V30 10408 C 960.918 -6.49161 1.55389 0
M  V30 10409 H 960.188 -0.705441 -0.226791 0
M  V30 10410 H 962.835 -1.91121 0.120466 0
M  V30 10411 H 961.14 -3.32774 -2.06807 0
M  V30 10412 H 962.837 -3.59308 -1.78042 0
M  V30 10413 H 959.427 -4.25566 -0.509053 0
M  V30 10414 H 963.611 -4.95997 0.173411 0
M  V30 10415 H 958.867 -6.01085 1.11833 0
M  V30 10416 H 963.041 -6.72824 1.79669 0
M  V30 10417 H 960.668 -7.25354 2.2752 0
M  V30 10418 N 962.243 0.219913 -1.56058 0
M  V30 10419 C 963.206 1.25606 -1.91718 0
M  V30 10420 C 964.206 1.39721 -0.795912 0
M  V30 10421 O 965.396 1.37958 -1.06364 0
M  V30 10422 C 962.528 2.62961 -2.16943 0
M  V30 10423 H 963.721 0.951909 -2.84392 0
M  V30 10424 H 961.274 0.460398 -1.49365 0
M  V30 10425 H 962.009 2.98472 -1.26826 0
M  V30 10426 H 961.794 2.54093 -2.98629 0
M  V30 10427 H 963.284 3.37727 -2.45622 0
M  V30 10428 N 963.721 1.49897 0.486681 0
M  V30 10429 C 964.967 1.60342 1.2417 0
M  V30 10430 C 965.3 0.295694 1.91936 0
M  V30 10431 O 964.575 -0.701788 1.81398 0
M  V30 10432 C 964.858 2.77281 2.29755 0
M  V30 10433 C 964.711 4.1789 1.66397 0
M  V30 10434 C 966.03 2.89817 3.31201 0
M  V30 10435 H 963.149 0.583605 0.450083 0
M  V30 10436 H 965.791 1.82232 0.537734 0
M  V30 10437 H 963.941 2.58748 2.89796 0
M  V30 10438 H 965.613 4.47975 1.10073 0
M  V30 10439 H 963.856 4.22872 0.967579 0
M  V30 10440 H 964.527 4.95612 2.43049 0
M  V30 10441 H 967.003 3.06732 2.81167 0
M  V30 10442 H 965.879 3.7329 4.02425 0
M  V30 10443 H 966.14 1.9977 3.94391 0
M  V30 10444 N 965.199 -0.738761 1.39212 0
M  V30 10445 C 966.427 -1.52801 1.39497 0
M  V30 10446 C 966.842 -1.88797 -0.0114917 0
M  V30 10447 O 966.199 -1.53835 -0.981887 0
M  V30 10448 C 966.25 -2.81793 2.2644 0
M  V30 10449 O 965.971 -2.47328 3.61608 0
M  V30 10450 C 967.472 -3.75844 2.35067 0
M  V30 10451 H 964.692 -0.472322 0.476606 0
M  V30 10452 H 967.236 -0.913153 1.8298 0
M  V30 10453 H 965.391 -3.3962 1.8638 0
M  V30 10454 H 965.805 -3.30162 4.07545 0
M  V30 10455 H 967.279 -4.6326 3.00157 0
M  V30 10456 H 967.756 -4.17329 1.3687 0
M  V30 10457 H 968.362 -3.23937 2.75581 0
M  V30 10458 N 966.677 -1.24326 -0.968545 0
M  V30 10459 C 967.925 -1.08032 -1.70803 0
M  V30 10460 C 968.246 0.381728 -1.91227 0
M  V30 10461 O 967.516 1.27253 -1.48942 0
M  V30 10462 H 966.096 -0.396777 -0.632912 0
M  V30 10463 H 968.758 -1.56232 -1.16523 0
M  V30 10464 H 967.854 -1.57769 -2.69287 0
M  V30 10465 N 968.156 1.1691 -1.05688 0
M  V30 10466 C 969.402 1.8757 -0.771071 0
M  V30 10467 C 969.735 1.8113 0.700399 0
M  V30 10468 O 969.01 1.22273 1.5126 0
M  V30 10469 C 969.293 3.37392 -1.25851 0
M  V30 10470 C 969.146 3.52556 -2.79329 0
M  V30 10471 C 970.465 4.31585 -0.861512 0
M  V30 10472 H 967.584 0.681089 -0.281579 0
M  V30 10473 H 970.226 1.37453 -1.31174 0
M  V30 10474 H 968.376 3.80204 -0.798563 0
M  V30 10475 H 970.048 3.18725 -3.33485 0
M  V30 10476 H 968.291 2.94668 -3.1836 0
M  V30 10477 H 968.962 4.57748 -3.08498 0
M  V30 10478 H 971.438 3.96642 -1.25756 0
M  V30 10479 H 970.314 5.34939 -1.23012 0
M  V30 10480 H 970.575 4.4148 0.234089 0
M  V30 10481 N 969.634 0.838594 1.33437 0
M  V30 10482 C 970.862 0.447644 2.01999 0
M  V30 10483 C 971.277 -0.951053 1.63096 0
M  V30 10484 O 970.634 -1.61802 0.844169 0
M  V30 10485 C 970.685 0.558378 3.57162 0
M  V30 10486 O 970.406 1.90196 3.94661 0
M  V30 10487 C 971.907 0.164348 4.42995 0
M  V30 10488 H 969.127 0.177736 0.647032 0
M  V30 10489 H 971.671 1.13109 1.70372 0
M  V30 10490 H 969.826 -0.0771563 3.87323 0
M  V30 10491 H 970.24 1.88729 4.89369 0
M  V30 10492 H 971.714 0.292876 5.51222 0
M  V30 10493 H 972.191 -0.893713 4.30011 0
M  V30 10494 H 972.797 0.774306 4.18192 0
M  V30 10495 N 971.112 -1.45937 0.595003 0
M  V30 10496 C 972.361 -2.01529 0.0829531 0
M  V30 10497 C 972.674 -1.47071 -1.28955 0
M  V30 10498 O 973.88 -1.94561 -1.89363 0
M  V30 10499 C 972.336 -3.59767 0.0976597 0
M  V30 10500 C 971.944 -4.23223 1.46924 0
M  V30 10501 C 973.688 -4.22972 -0.359805 0
M  V30 10502 C 971.595 -5.73576 1.44101 0
M  V30 10503 H 970.525 -0.753508 0.0272425 0
M  V30 10504 H 973.176 -1.67541 0.748473 0
M  V30 10505 H 971.558 -3.90888 -0.634268 0
M  V30 10506 H 972.732 -4.03695 2.22187 0
M  V30 10507 H 971.047 -3.72161 1.86775 0
M  V30 10508 H 973.644 -5.33202 -0.39991 0
M  V30 10509 H 973.987 -3.92765 -1.37991 0
M  V30 10510 H 974.52 -3.96523 0.31845 0
M  V30 10511 H 971.259 -6.08462 2.43831 0
M  V30 10512 H 970.779 -5.95332 0.730767 0
M  V30 10513 H 972.458 -6.36531 1.1592 0
M  V30 10514 N 972.59 -0.333456 -1.54032 0
M  V30 10515 C 973.52 0.52051 -2.27625 0
M  V30 10516 C 974.501 1.1111 -1.28797 0
M  V30 10517 O 975.686 1.13438 -1.57625 0
M  V30 10518 C 972.816 1.67663 -3.04149 0
M  V30 10519 C 971.77 1.21487 -4.10396 0
M  V30 10520 C 971.096 2.45872 -4.74817 0
M  V30 10521 C 972.396 0.322603 -5.21303 0
M  V30 10522 H 974.09 -0.0933823 -2.99254 0
M  V30 10523 H 971.636 -0.0463526 -1.43925 0
M  V30 10524 H 973.589 2.28041 -3.54366 0
M  V30 10525 H 972.313 2.31727 -2.30153 0
M  V30 10526 H 970.972 0.633966 -3.61077 0
M  V30 10527 H 970.62 3.0832 -3.97426 0
M  V30 10528 H 970.32 2.15662 -5.46593 0
M  V30 10529 H 971.844 3.06994 -5.27814 0
M  V30 10530 H 973.258 0.832942 -5.67217 0
M  V30 10531 H 971.655 0.112843 -5.99994 0
M  V30 10532 H 972.725 -0.643954 -4.80605 0
M  V30 10533 N 974.068 1.57479 -0.061844 0
M  V30 10534 C 974.998 2.15181 0.9066 0
M  V30 10535 C 975.979 1.07624 1.31724 0
M  V30 10536 O 977.164 1.35614 1.39006 0
M  V30 10537 C 974.294 2.70542 2.17771 0
M  V30 10538 C 973.248 3.83178 1.9068 0
M  V30 10539 C 972.574 4.25099 3.24337 0
M  V30 10540 C 973.874 5.07853 1.21994 0
M  V30 10541 H 975.568 2.96355 0.42594 0
M  V30 10542 H 973.114 1.42556 0.203435 0
M  V30 10543 H 975.067 3.09552 2.85929 0
M  V30 10544 H 973.791 1.86575 2.68062 0
M  V30 10545 H 972.45 3.44656 1.24931 0
M  V30 10546 H 972.098 3.38069 3.72449 0
M  V30 10547 H 971.798 5.01021 3.07005 0
M  V30 10548 H 973.322 4.66718 3.93709 0
M  V30 10549 H 974.736 5.44242 1.80204 0
M  V30 10550 H 973.133 5.88987 1.14954 0
M  V30 10551 H 974.203 4.84497 0.197536 0
M  V30 10552 N 975.546 -0.211634 1.56173 0
M  V30 10553 C 976.456 -1.2831 1.96402 0
M  V30 10554 C 977.472 -1.50731 0.869254 0
M  V30 10555 O 978.648 -1.63669 1.17365 0
M  V30 10556 C 975.713 -2.61084 2.28114 0
M  V30 10557 C 974.774 -2.46879 3.51211 0
M  V30 10558 C 974.007 -3.73321 3.81401 0
M  V30 10559 O 974.23 -4.76773 3.13119 0
M  V30 10560 O 973.164 -3.69839 4.74871 0
M  V30 10561 H 976.99 -0.971733 2.87734 0
M  V30 10562 H 974.575 -0.415305 1.43512 0
M  V30 10563 H 976.457 -3.39481 2.49661 0
M  V30 10564 H 975.132 -2.91881 1.39954 0
M  V30 10565 H 974.039 -1.66648 3.34932 0
M  V30 10566 H 975.372 -2.21018 4.39786 0
M  V30 10567 N 977.024 -1.50153 -0.478725 0
M  V30 10568 C 977.987 -1.67916 -1.56003 0
M  V30 10569 C 978.987 -0.550111 -1.51097 0
M  V30 10570 O 980.177 -0.817001 -1.53853 0
M  V30 10571 C 977.309 -1.6973 -2.95643 0
M  V30 10572 H 978.502 -2.6438 -1.41573 0
M  V30 10573 H 976.055 -1.39519 -0.704565 0
M  V30 10574 H 976.79 -0.749306 -3.15525 0
M  V30 10575 H 976.575 -2.51745 -3.00611 0
M  V30 10576 H 978.065 -1.85453 -3.74162 0
M  V30 10577 N 978.502 0.731368 -1.39602 0
M  V30 10578 C 979.749 1.491 -1.37024 0
M  V30 10579 C 980.077 1.94473 0.0326423 0
M  V30 10580 O 979.332 1.6737 1.01418 0
M  V30 10581 C 979.631 2.74224 -2.29208 0
M  V30 10582 C 979.297 2.477 -3.7677 0
M  V30 10583 C 977.959 2.40175 -4.16976 0
M  V30 10584 C 980.311 2.25098 -4.70086 0
M  V30 10585 C 977.639 2.08095 -5.48556 0
M  V30 10586 C 979.991 1.94534 -6.01946 0
M  V30 10587 C 978.655 1.85481 -6.41212 0
M  V30 10588 H 977.925 0.545595 -0.501405 0
M  V30 10589 H 980.572 0.839127 -1.72136 0
M  V30 10590 H 978.877 3.44171 -1.87225 0
M  V30 10591 H 980.574 3.32264 -2.24504 0
M  V30 10592 H 977.164 2.54436 -3.44906 0
M  V30 10593 H 981.348 2.29876 -4.39853 0
M  V30 10594 H 976.604 1.99611 -5.77897 0
M  V30 10595 H 980.778 1.76054 -6.73779 0
M  V30 10596 H 978.405 1.60389 -7.43088 0
M  V30 10597 N 979.98 1.24838 0.961938 0
M  V30 10598 C 981.391 1.08369 1.5203 0
M  V30 10599 C 981.742 -0.343005 1.93178 0
M  V30 10600 O 980.867 -1.2321 1.779 0
M  V30 10601 C 981.462 1.96102 2.76278 0
M  V30 10602 C 980.021 1.8384 3.28451 0
M  V30 10603 C 979.168 1.9069 2.01327 0
M  V30 10604 H 982.119 1.38231 0.779613 0
M  V30 10605 H 982.14 1.4967 3.49827 0
M  V30 10606 H 981.652 2.99931 2.46298 0
M  V30 10607 H 979.753 0.828653 3.63269 0
M  V30 10608 H 979.866 2.68251 3.96961 0
M  V30 10609 H 978.23 1.34488 2.16299 0
M  V30 10610 H 979.013 2.96111 1.73705 0
M  V30 10611 N 981.458 -1.16348 1.06306 0
M  V30 10612 C 982.368 -2.24375 0.685059 0
M  V30 10613 C 983.384 -1.71413 -0.298956 0
M  V30 10614 O 984.56 -2.00854 -0.148239 0
M  V30 10615 C 981.625 -3.46614 0.0774088 0
M  V30 10616 C 980.686 -4.14613 1.11331 0
M  V30 10617 C 979.919 -5.31016 0.534559 0
M  V30 10618 O 980.142 -5.66654 -0.65265 0
M  V30 10619 O 979.076 -5.88256 1.27431 0
M  V30 10620 H 982.902 -2.59018 1.58566 0
M  V30 10621 H 980.487 -1.23865 0.835332 0
M  V30 10622 H 982.369 -4.20599 -0.259716 0
M  V30 10623 H 981.044 -3.13743 -0.796677 0
M  V30 10624 H 979.951 -3.42597 1.50261 0
M  V30 10625 H 981.284 -4.51538 1.95893 0
M  V30 10626 N 982.937 -0.845659 -1.3299 0
M  V30 10627 C 984.184 -0.444653 -1.97558 0
M  V30 10628 C 984.512 0.997682 -1.66963 0
M  V30 10629 O 983.767 1.71349 -0.94541 0
M  V30 10630 C 984.066 -0.6201 -3.51979 0
M  V30 10631 C 983.732 -2.03155 -4.02541 0
M  V30 10632 C 982.394 -2.4176 -4.16059 0
M  V30 10633 C 984.746 -2.95317 -4.29462 0
M  V30 10634 C 982.074 -3.71818 -4.53837 0
M  V30 10635 C 984.426 -4.24863 -4.68694 0
M  V30 10636 C 983.09 -4.63416 -4.80419 0
M  V30 10637 H 982.36 -0.16271 -0.722915 0
M  V30 10638 H 985.007 -1.07399 -1.58549 0
M  V30 10639 H 983.312 0.092513 -3.91691 0
M  V30 10640 H 985.009 -0.290012 -3.9995 0
M  V30 10641 H 981.599 -1.72174 -3.92497 0
M  V30 10642 H 985.783 -2.66726 -4.18534 0
M  V30 10643 H 981.039 -4.01484 -4.61108 0
M  V30 10644 H 985.213 -4.96347 -4.8848 0
M  V30 10645 H 982.84 -5.6424 -5.09448 0
M  V30 10646 N 984.415 1.45619 -0.602734 0
M  V30 10647 C 985.643 2.06647 -0.102253 0
M  V30 10648 C 986.058 1.4482 1.21131 0
M  V30 10649 O 985.415 0.560621 1.73676 0
M  V30 10650 C 985.466 3.61467 0.0490113 0
M  V30 10651 O 985.187 4.20985 -1.21257 0
M  V30 10652 C 986.688 4.39469 0.581517 0
M  V30 10653 H 983.908 0.667685 -0.0666155 0
M  V30 10654 H 986.452 1.86939 -0.829091 0
M  V30 10655 H 984.607 3.80534 0.726153 0
M  V30 10656 H 985.021 5.14103 -1.03915 0
M  V30 10657 H 986.495 5.48318 0.636462 0
M  V30 10658 H 986.972 4.0891 1.60277 0
M  V30 10659 H 987.578 4.25256 -0.061419 0
M  V30 10660 N 985.893 0.34162 1.53853 0
M  V30 10661 C 987.142 -0.256475 2.00063 0
M  V30 10662 C 987.455 -1.51811 1.23341 0
M  V30 10663 O 988.661 -2.19332 1.60017 0
M  V30 10664 C 987.117 -0.507567 3.56303 0
M  V30 10665 C 986.725 0.738052 4.41879 0
M  V30 10666 C 988.469 -1.06463 4.10933 0
M  V30 10667 C 986.376 0.457865 5.89625 0
M  V30 10668 H 985.306 -0.0996143 0.747391 0
M  V30 10669 H 987.957 0.456649 1.77727 0
M  V30 10670 H 986.339 -1.28134 3.74697 0
M  V30 10671 H 987.513 1.51278 4.3526 0
M  V30 10672 H 985.828 1.21661 3.98231 0
M  V30 10673 H 988.425 -1.28918 5.18926 0
M  V30 10674 H 988.768 -2.01956 3.64032 0
M  V30 10675 H 989.301 -0.351601 3.96243 0
M  V30 10676 H 986.04 1.38247 6.40756 0
M  V30 10677 H 985.56 -0.278818 5.99152 0
M  V30 10678 H 987.239 0.0743914 6.46957 0
M  V30 10679 N 987.371 -1.57444 0.0701946 0
M  V30 10680 C 988.782 -1.80875 -0.462709 0
M  V30 10681 C 989.133 -0.983975 -1.69742 0
M  V30 10682 O 988.258 -0.206027 -2.15417 0
M  V30 10683 C 988.853 -3.28062 -0.84623 0
M  V30 10684 C 987.412 -3.52345 -1.32401 0
M  V30 10685 C 986.559 -2.7558 -0.308399 0
M  V30 10686 H 989.51 -1.55917 0.295907 0
M  V30 10687 H 989.531 -3.40023 -1.70776 0
M  V30 10688 H 989.043 -3.88064 0.0526033 0
M  V30 10689 H 987.144 -2.97645 -2.24139 0
M  V30 10690 H 987.257 -4.6104 -1.30304 0
M  V30 10691 H 985.621 -2.4229 -0.785337 0
M  V30 10692 H 986.404 -3.38319 0.582679 0
M  V30 10693 N 988.849 0.203349 -1.56283 0
M  V30 10694 C 989.812 1.23566 -1.93039 0
M  V30 10695 C 990.812 1.38869 -0.810687 0
M  V30 10696 O 992.002 1.36822 -1.07821 0
M  V30 10697 C 989.134 2.60645 -2.1972 0
M  V30 10698 H 990.327 0.921692 -2.85385 0
M  V30 10699 H 987.88 0.44453 -1.49845 0
M  V30 10700 H 988.615 2.9711 -1.29985 0
M  V30 10701 H 988.4 2.50911 -3.01307 0
M  V30 10702 H 989.89 3.35103 -2.4919 0
M  V30 10703 N 990.327 1.50405 0.470755 0
M  V30 10704 C 991.257 1.72222 1.57676 0
M  V30 10705 C 992.238 0.57121 1.60222 0
M  V30 10706 O 993.423 0.810381 1.76484 0
M  V30 10707 C 990.553 1.81666 2.95998 0
M  V30 10708 C 989.507 2.96857 3.08318 0
M  V30 10709 C 988.833 2.91445 4.4829 0
M  V30 10710 C 990.133 4.37361 2.85504 0
M  V30 10711 H 991.827 2.64825 1.39671 0
M  V30 10712 H 989.373 1.27438 0.67049 0
M  V30 10713 H 991.326 1.95514 3.73299 0
M  V30 10714 H 990.05 0.856856 3.1516 0
M  V30 10715 H 988.709 2.82661 2.33449 0
M  V30 10716 H 988.357 1.93309 4.64371 0
M  V30 10717 H 988.057 3.68776 4.57469 0
M  V30 10718 H 989.581 3.07341 5.27611 0
M  V30 10719 H 990.995 4.52081 3.52555 0
M  V30 10720 H 989.392 5.16145 3.06127 0
M  V30 10721 H 990.462 4.49708 1.81359 0
M  V30 10722 N 991.805 -0.723954 1.39988 0
M  V30 10723 C 993.053 -1.48078 1.3754 0
M  V30 10724 C 993.374 -1.94985 -0.0243358 0
M  V30 10725 O 992.644 -1.69764 -0.977602 0
M  V30 10726 H 991.224 -0.549354 0.506181 0
M  V30 10727 H 993.886 -0.858746 1.74962 0
M  V30 10728 H 992.982 -2.35763 2.04505 0
M  V30 10729 N 993.283 -1.25346 -0.955304 0
M  V30 10730 C 994.246 -1.05754 -2.03344 0
M  V30 10731 C 995.246 -0.0105743 -1.60797 0
M  V30 10732 O 996.436 -0.252699 -1.72357 0
M  V30 10733 C 993.568 -0.605536 -3.35479 0
M  V30 10734 H 994.761 -2.01459 -2.22158 0
M  V30 10735 H 992.314 -1.07744 -1.1323 0
M  V30 10736 H 993.049 0.354154 -3.2236 0
M  V30 10737 H 992.834 -1.36134 -3.67709 0
M  V30 10738 H 994.324 -0.489867 -4.14717 0
M  V30 10739 N 994.761 1.15782 -1.06922 0
M  V30 10740 C 996.008 1.86465 -0.789752 0
M  V30 10741 C 996.336 1.82075 0.684022 0
M  V30 10742 O 995.591 1.23576 1.51748 0
M  V30 10743 C 995.89 3.35284 -1.2377 0
M  V30 10744 C 995.556 3.59871 -2.71668 0
M  V30 10745 C 994.218 3.6629 -3.12066 0
M  V30 10746 C 996.57 3.69929 -3.67154 0
M  V30 10747 C 993.898 3.80275 -4.46775 0
M  V30 10748 C 996.25 3.85436 -5.01619 0
M  V30 10749 C 994.914 3.901 -5.41644 0
M  V30 10750 H 994.184 0.682324 -0.288991 0
M  V30 10751 H 996.831 1.36861 -1.33945 0
M  V30 10752 H 995.136 3.87065 -0.607309 0
M  V30 10753 H 996.833 3.88371 -0.998431 0
M  V30 10754 H 993.423 3.55512 -2.39393 0
M  V30 10755 H 997.607 3.64274 -3.37073 0
M  V30 10756 H 992.863 3.8214 -4.77262 0
M  V30 10757 H 997.037 3.92161 -5.75485 0
M  V30 10758 H 994.664 4.00688 -6.46029 0
M  V30 10759 N 996.239 0.8527 1.3254 0
M  V30 10760 C 997.485 0.455798 1.97612 0
M  V30 10761 C 997.818 -0.985616 1.6733 0
M  V30 10762 O 997.093 -1.69129 0.960493 0
M  V30 10763 C 997.376 0.69312 3.53366 0
M  V30 10764 C 997.229 2.18281 3.93285 0
M  V30 10765 C 998.548 0.148236 4.3985 0
M  V30 10766 H 995.667 0.167078 0.717812 0
M  V30 10767 H 998.309 1.07076 1.56954 0
M  V30 10768 H 996.459 0.169677 3.88129 0
M  V30 10769 H 998.131 2.77218 3.68711 0
M  V30 10770 H 996.374 2.66206 3.42515 0
M  V30 10771 H 997.045 2.29957 5.01821 0
M  V30 10772 H 999.521 0.595834 4.11812 0
M  V30 10773 H 998.397 0.343873 5.47822 0
M  V30 10774 H 998.658 -0.948872 4.31797 0
M  V30 10775 N 997.718 -1.45297 0.610449 0
M  V30 10776 C 998.967 -2.0143 0.104323 0
M  V30 10777 C 999.28 -1.48431 -1.27388 0
M  V30 10778 O 1000.49 -1.96558 -1.87289 0
M  V30 10779 C 998.942 -3.59644 0.135812 0
M  V30 10780 C 998.55 -4.2164 1.51405 0
M  V30 10781 C 1000.29 -4.2333 -0.314922 0
M  V30 10782 C 998.201 -5.72015 1.50176 0
M  V30 10783 H 997.131 -0.753176 0.035233 0
M  V30 10784 H 999.782 -1.66738 0.7662 0
M  V30 10785 H 998.164 -3.91538 -0.592773 0
M  V30 10786 H 999.338 -4.01315 2.26457 0
M  V30 10787 H 997.653 -3.70159 1.90712 0
M  V30 10788 H 1000.25 -5.33597 -0.343335 0
M  V30 10789 H 1000.59 -3.94206 -1.33817 0
M  V30 10790 H 1001.13 -3.96163 0.360489 0
M  V30 10791 H 997.865 -6.05842 2.50271 0
M  V30 10792 H 997.385 -5.94523 0.793869 0
M  V30 10793 H 999.064 -6.35266 1.22665 0
M  V30 10794 N 999.196 -0.349774 -1.5367 0
M  V30 10795 C 1000.43 0.245682 -2.05134 0
M  V30 10796 C 1000.83 1.44269 -1.22406 0
M  V30 10797 O 1000.18 1.81938 -0.25379 0
M  V30 10798 C 1000.24 0.718439 -3.52248 0
M  V30 10799 C 999.903 -0.35975 -4.55582 0
M  V30 10800 C 1000.9 -1.20449 -5.05755 0
M  V30 10801 C 998.585 -0.515463 -4.99648 0
M  V30 10802 C 1000.58 -2.19043 -5.98581 0
M  V30 10803 C 998.266 -1.50479 -5.92283 0
M  V30 10804 C 999.264 -2.34072 -6.41638 0
M  V30 10805 O 998.952 -3.31319 -7.3245 0
M  V30 10806 H 998.684 0.0501122 -0.67414 0
M  V30 10807 H 1001.24 -0.5018 -1.99176 0
M  V30 10808 H 999.468 1.51727 -3.55691 0
M  V30 10809 H 1001.16 1.23513 -3.86651 0
M  V30 10810 H 1001.92 -1.09531 -4.7247 0
M  V30 10811 H 997.802 0.12537 -4.60829 0
M  V30 10812 H 1001.35 -2.84327 -6.37027 0
M  V30 10813 H 997.243 -1.61451 -6.24983 0
M  V30 10814 H 998.011 -3.26863 -7.50402 0
M  V30 10815 N 1000.67 1.57404 -0.0785433 0
M  V30 10816 C 1001.9 1.98492 0.601292 0
M  V30 10817 C 1002.32 0.956832 1.61945 0
M  V30 10818 O 1001.68 -0.0767502 1.81137 0
M  V30 10819 C 1001.73 3.38596 1.24036 0
M  V30 10820 O 1000.83 3.38461 2.35622 0
M  V30 10821 H 1000.17 0.645882 0.154054 0
M  V30 10822 H 1002.7 2.04012 -0.155056 0
M  V30 10823 H 1002.71 3.75929 1.5856 0
M  V30 10824 H 1001.39 4.12952 0.494341 0
M  V30 10825 H 999.967 3.12906 2.02841 0
M  V30 10826 N 1002.15 -0.195058 1.56388 0
M  V30 10827 C 1003.1 -1.24175 1.94549 0
M  V30 10828 C 1004.07 -1.45229 0.806089 0
M  V30 10829 O 1005.25 -1.58362 1.06425 0
M  V30 10830 C 1002.39 -2.58145 2.29031 0
M  V30 10831 C 1001.51 -2.44669 3.56035 0
M  V30 10832 C 1000.64 -3.71342 3.7984 0
M  V30 10833 C 999.681 -3.52699 5.0027 0
M  V30 10834 N 998.818 -4.71385 5.20328 0
M  V30 10835 H 1003.66 -0.909319 2.83788 0
M  V30 10836 H 1001.19 -0.437641 1.40439 0
M  V30 10837 H 1003.15 -3.36195 2.4704 0
M  V30 10838 H 1001.78 -2.8943 1.42933 0
M  V30 10839 H 1000.83 -1.57916 3.46073 0
M  V30 10840 H 1002.15 -2.26827 4.44242 0
M  V30 10841 H 1001.3 -4.57832 3.98088 0
M  V30 10842 H 1000.04 -3.92138 2.89964 0
M  V30 10843 H 999.045 -2.64594 4.81944 0
M  V30 10844 H 1000.27 -3.33349 5.91655 0
M  V30 10845 H 998.216 -4.92444 4.33399 0
M  V30 10846 H 998.133 -4.56368 6.02714 0
M  V30 10847 H 999.401 -5.59226 5.43035 0
M  V30 10848 N 1003.63 -1.50653 -0.462772 0
M  V30 10849 C 1004.88 -1.62297 -1.21603 0
M  V30 10850 C 1005.21 -0.326191 -1.91441 0
M  V30 10851 O 1004.48 0.67284 -1.82491 0
M  V30 10852 C 1004.77 -2.80901 -2.25315 0
M  V30 10853 C 1004.62 -4.20484 -1.59728 0
M  V30 10854 C 1005.94 -2.95049 -3.26549 0
M  V30 10855 H 1003.06 -0.590691 -0.440741 0
M  V30 10856 H 1005.7 -1.83064 -0.508675 0
M  V30 10857 H 1003.85 -2.63325 -2.85643 0
M  V30 10858 H 1005.52 -4.49669 -1.02932 0
M  V30 10859 H 1003.76 -4.24357 -0.900181 0
M  V30 10860 H 1004.44 -4.99416 -2.35133 0
M  V30 10861 H 1006.91 -3.11166 -2.76251 0
M  V30 10862 H 1005.79 -3.79645 -3.96435 0
M  V30 10863 H 1006.05 -2.06019 -3.91163 0
M  V30 10864 N 1005.11 0.71652 -1.4037 0
M  V30 10865 C 1006.04 1.84138 -1.36477 0
M  V30 10866 C 1007.05 1.6054 -0.27033 0
M  V30 10867 O 1008.24 1.70431 -0.530612 0
M  V30 10868 C 1005.34 3.20523 -1.10082 0
M  V30 10869 C 1004.52 3.71326 -2.31162 0
M  V30 10870 C 1003.57 4.86322 -2.00942 0
M  V30 10871 O 1002.6 4.99022 -2.73799 0
M  V30 10872 N 1003.8 5.72051 -0.986812 0
M  V30 10873 H 1006.57 1.87977 -2.3342 0
M  V30 10874 H 1004.13 0.89802 -1.34712 0
M  V30 10875 H 1006.12 3.95049 -0.878526 0
M  V30 10876 H 1004.69 3.11838 -0.21809 0
M  V30 10877 H 1003.91 2.87941 -2.69227 0
M  V30 10878 H 1005.2 4.02003 -3.11883 0
M  V30 10879 H 1004.6 5.64399 -0.383381 0
M  V30 10880 H 1003.15 6.46565 -0.824419 0
M  V30 10881 N 1006.59 1.25851 0.948643 0
M  V30 10882 C 1007.5 1.08516 2.07994 0
M  V30 10883 C 1008.51 0.0206696 1.73988 0
M  V30 10884 O 1009.69 0.222854 2.00163 0
M  V30 10885 C 1006.75 0.712145 3.39307 0
M  V30 10886 C 1005.81 1.85523 3.87143 0
M  V30 10887 C 1005.05 1.49992 5.1219 0
M  V30 10888 O 1005.27 0.398268 5.69008 0
M  V30 10889 O 1004.2 2.33215 5.54882 0
M  V30 10890 H 1008.03 2.03405 2.25522 0
M  V30 10891 H 1005.62 1.04844 1.06433 0
M  V30 10892 H 1007.5 0.516512 4.18223 0
M  V30 10893 H 1006.17 -0.207416 3.23035 0
M  V30 10894 H 1005.08 2.10578 3.09205 0
M  V30 10895 H 1006.41 2.75425 4.07924 0
M  V30 10896 N 1008.06 -1.15214 1.07534 0
M  V30 10897 C 1009.48 -1.38031 0.801228 0
M  V30 10898 C 1009.68 -1.92556 -0.593672 0
M  V30 10899 O 1008.74 -2.1325 -1.35206 0
M  V30 10900 C 1010.05 -2.34958 1.87657 0
M  V30 10901 C 1011.6 -2.48617 1.90154 0
M  V30 10902 C 1012.07 -3.48837 2.96777 0
M  V30 10903 N 1013.56 -3.56374 2.95892 0
M  V30 10904 C 1014.3 -4.33746 3.75036 0
M  V30 10905 N 1013.79 -5.14435 4.64036 0
M  V30 10906 N 1015.59 -4.28853 3.63375 0
M  V30 10907 H 1007.74 -0.781639 1.97495 0
M  V30 10908 H 1010 -0.406243 0.856546 0
M  V30 10909 H 1009.71 -2.02013 2.87895 0
M  V30 10910 H 1009.58 -3.3476 1.73827 0
M  V30 10911 H 1011.97 -2.80859 0.905666 0
M  V30 10912 H 1012.05 -1.48808 2.08062 0
M  V30 10913 H 1011.69 -3.1733 3.96565 0
M  V30 10914 H 1011.62 -4.48406 2.76116 0
M  V30 10915 H 1014.11 -2.98784 2.31379 0
M  V30 10916 H 1014.43 -5.70722 5.21053 0
M  V30 10917 H 1012.77 -5.13734 4.68084 0
M  V30 10918 H 1015.96 -3.64882 2.93221 0
M  V30 10919 H 1016.14 -4.88903 4.25298 0
M  V30 10920 N 1009.54 -0.859717 -1.32086 0
M  V30 10921 C 1010.49 -0.296897 -2.30697 0
M  V30 10922 C 1011.48 0.582473 -1.59071 0
M  V30 10923 O 1012.69 0.469713 -1.73763 0
M  V30 10924 H 1009.07 -0.0773132 -0.748015 0
M  V30 10925 H 1011.04 -1.14273 -2.75652 0
M  V30 10926 C 1009.79 0.495546 -3.44151 0
M  V30 10927 H 1009.11 -0.171829 -3.99431 0
M  V30 10928 H 1010.55 0.854854 -4.15293 0
M  V30 10929 C 1009.01 1.68278 -2.91863 0
M  V30 10930 O 1009.54 2.78194 -2.89777 0
M  V30 10931 N 1007.74 1.51151 -2.48197 0
M  V30 10932 H 1007.29 0.617345 -2.50093 0
M  V30 10933 H 1007.25 2.3073 -2.13567 0
M  V30 10934 N 1011.02 1.44971 -0.618145 0
M  V30 10935 C 1011.93 2.34403 0.0960457 0
M  V30 10936 C 1012.95 1.51862 0.849355 0
M  V30 10937 O 1014.12 1.84632 0.804557 0
M  V30 10938 C 1011.19 3.29646 1.07397 0
M  V30 10939 C 1010.25 4.28095 0.321466 0
M  V30 10940 C 1009.48 5.18787 1.25281 0
M  V30 10941 O 1009.7 5.1313 2.49106 0
M  V30 10942 O 1008.64 5.97282 0.744156 0
M  V30 10943 H 1012.46 2.96898 -0.639176 0
M  V30 10944 H 1010.05 1.44529 -0.37837 0
M  V30 10945 H 1011.93 3.88307 1.63694 0
M  V30 10946 H 1010.61 2.69702 1.79004 0
M  V30 10947 H 1009.51 3.73019 -0.284223 0
M  V30 10948 H 1010.85 4.90923 -0.354315 0
M  V30 10949 N 1012.5 0.357919 1.53482 0
M  V30 10950 C 1013.75 -0.235241 2.00324 0
M  V30 10951 C 1014.06 -1.50494 1.24944 0
M  V30 10952 O 1015.27 -2.17623 1.62335 0
M  V30 10953 C 1013.72 -0.469748 3.56821 0
M  V30 10954 C 1013.33 0.784877 4.41071 0
M  V30 10955 C 1015.07 -1.02098 4.12039 0
M  V30 10956 C 1012.98 0.520377 5.89106 0
M  V30 10957 H 1011.91 -0.0916816 0.748405 0
M  V30 10958 H 1014.56 0.475474 1.77233 0
M  V30 10959 H 1012.94 -1.24153 3.76035 0
M  V30 10960 H 1014.12 1.55886 4.33631 0
M  V30 10961 H 1012.43 1.25878 3.96918 0
M  V30 10962 H 1015.03 -1.23406 5.20264 0
M  V30 10963 H 1015.37 -1.98084 3.66154 0
M  V30 10964 H 1015.91 -0.309554 3.96594 0
M  V30 10965 H 1012.65 1.45035 6.39254 0
M  V30 10966 H 1012.17 -0.215254 5.99414 0
M  V30 10967 H 1013.84 0.143006 6.46842 0
M  V30 10968 N 1013.98 -1.5736 0.0868897 0
M  V30 10969 C 1015.23 -1.93229 -0.578387 0
M  V30 10970 C 1015.54 -0.970127 -1.69847 0
M  V30 10971 O 1016.74 -1.22222 -2.42434 0
M  V30 10972 C 1015.2 -3.43307 -1.0802 0
M  V30 10973 C 1014.81 -4.47999 0.00968135 0
M  V30 10974 C 1016.55 -3.88151 -1.71868 0
M  V30 10975 C 1014.46 -5.89223 -0.507029 0
M  V30 10976 H 1013.39 -0.721245 -0.219823 0
M  V30 10977 H 1016.04 -1.82787 0.161566 0
M  V30 10978 H 1014.42 -3.48873 -1.87359 0
M  V30 10979 H 1015.6 -4.54067 0.784865 0
M  V30 10980 H 1013.91 -4.12714 0.552845 0
M  V30 10981 H 1016.51 -4.91056 -2.11585 0
M  V30 10982 H 1016.85 -3.26347 -2.58464 0
M  V30 10983 H 1017.38 -3.85252 -0.991259 0
M  V30 10984 H 1014.12 -6.54708 0.322121 0
M  V30 10985 H 1013.64 -5.86643 -1.2494 0
M  V30 10986 H 1015.32 -6.39556 -0.978628 0
M  V30 10987 N 1015.45 0.186762 -1.56489 0
M  V30 10988 C 1016.4 1.23141 -1.95205 0
M  V30 10989 C 1017.37 1.44799 -0.81378 0
M  V30 10990 O 1018.56 1.57795 -1.07263 0
M  V30 10991 C 1015.7 2.56926 -2.30397 0
M  V30 10992 C 1014.81 2.42777 -3.57328 0
M  V30 10993 C 1013.94 3.69323 -3.81804 0
M  V30 10994 C 1012.98 3.50041 -5.02133 0
M  V30 10995 N 1012.12 4.68619 -5.2282 0
M  V30 10996 H 1016.96 0.894256 -2.84266 0
M  V30 10997 H 1014.5 0.430187 -1.40669 0
M  V30 10998 H 1016.46 3.3488 -2.4882 0
M  V30 10999 H 1015.09 2.88668 -1.44466 0
M  V30 11000 H 1014.14 1.56078 -3.46906 0
M  V30 11001 H 1015.45 2.24468 -4.45439 0
M  V30 11002 H 1014.6 4.55715 -4.00511 0
M  V30 11003 H 1013.34 3.90595 -2.92039 0
M  V30 11004 H 1012.35 2.62034 -4.8334 0
M  V30 11005 H 1013.57 3.30206 -5.93414 0
M  V30 11006 H 1011.52 4.90139 -4.36005 0
M  V30 11007 H 1011.44 4.53165 -6.05126 0
M  V30 11008 H 1012.7 5.56338 -5.45993 0
M  V30 11009 N 1016.93 1.50896 0.454776 0
M  V30 11010 C 1018.16 1.6648 1.22849 0
M  V30 11011 C 1018.58 0.354841 1.85435 0
M  V30 11012 O 1017.93 -0.664931 1.69956 0
M  V30 11013 C 1017.98 2.76787 2.32532 0
M  V30 11014 O 1017.7 4.02706 1.72509 0
M  V30 11015 C 1019.21 3.03488 3.23125 0
M  V30 11016 H 1016.43 0.559152 0.370932 0
M  V30 11017 H 1018.97 1.97215 0.540983 0
M  V30 11018 H 1017.12 2.48701 2.9703 0
M  V30 11019 H 1017.54 4.63834 2.44863 0
M  V30 11020 H 1019.01 3.84294 3.9626 0
M  V30 11021 H 1019.49 2.152 3.82865 0
M  V30 11022 H 1020.1 3.33167 2.64347 0
M  V30 11023 N 1018.41 -0.709066 1.40748 0
M  V30 11024 C 1019.66 -1.4646 1.38681 0
M  V30 11025 C 1019.97 -1.95599 -0.0056209 0
M  V30 11026 O 1021.18 -2.71091 -0.148907 0
M  V30 11027 C 1019.63 -2.64771 2.43771 0
M  V30 11028 C 1019.24 -2.22474 3.88856 0
M  V30 11029 C 1020.99 -3.42475 2.50821 0
M  V30 11030 C 1018.89 -3.37663 4.85528 0
M  V30 11031 H 1017.82 -0.550084 0.515678 0
M  V30 11032 H 1020.47 -0.771074 1.66513 0
M  V30 11033 H 1018.86 -3.36325 2.09048 0
M  V30 11034 H 1020.03 -1.58297 4.32757 0
M  V30 11035 H 1018.35 -1.57798 3.85342 0
M  V30 11036 H 1020.94 -4.28201 3.20232 0
M  V30 11037 H 1021.29 -3.86738 1.54076 0
M  V30 11038 H 1021.82 -2.77969 2.84567 0
M  V30 11039 H 1018.56 -2.98426 5.83628 0
M  V30 11040 H 1018.08 -4.00734 4.46287 0
M  V30 11041 H 1019.76 -4.03636 5.05655 0
M  V30 11042 N 1019.89 -1.26353 -0.941956 0
M  V30 11043 C 1021.17 -1.02601 -1.6653 0
M  V30 11044 C 1021.55 0.44381 -2.06382 0
M  V30 11045 O 1020.89 1.42399 -1.78703 0
M  V30 11046 C 1021.1 -1.97401 -2.87809 0
M  V30 11047 C 1022.45 -2.25967 -3.59478 0
M  V30 11048 O 1023.48 -1.95261 -2.97912 0
M  V30 11049 O 1022.34 -2.78244 -4.70364 0
M  V30 11050 H 1019.43 -0.39007 -0.729228 0
M  V30 11051 H 1021.98 -1.37559 -0.993754 0
M  V30 11052 H 1020.75 -2.9659 -2.55245 0
M  V30 11053 H 1020.37 -1.62918 -3.62689 0
M  V30 11054 N 1021.37 1.14642 -1.08144 0
M  V30 11055 C 1022.32 2.21708 -0.703448 0
M  V30 11056 C 1023.31 1.66907 0.289535 0
M  V30 11057 O 1024.52 1.79354 0.152387 0
M  V30 11058 H 1020.89 0.722247 -0.209437 0
M  V30 11059 H 1022.86 2.50862 -1.61588 0
M  V30 11060 C 1021.61 3.47472 -0.125975 0
M  V30 11061 H 1020.93 3.89967 -0.881216 0
M  V30 11062 H 1022.37 4.2388 0.100737 0
M  V30 11063 C 1020.83 3.17189 1.13546 0
M  V30 11064 O 1021.36 3.34733 2.22073 0
M  V30 11065 N 1019.57 2.71169 1.04479 0
M  V30 11066 H 1019.12 2.57093 0.161566 0
M  V30 11067 H 1019.07 2.51282 1.88957 0
M  V30 11068 N 1022.85 0.866709 1.31628 0
M  V30 11069 C 1024.09 0.482479 1.98624 0
M  V30 11070 C 1024.45 -0.946844 1.6703 0
M  V30 11071 O 1025.65 -1.43626 2.27212 0
M  V30 11072 C 1023.92 0.728582 3.49895 0
M  V30 11073 S 1025.48 0.443724 4.36551 0
M  V30 11074 H 1022.3 0.180238 0.687776 0
M  V30 11075 H 1024.9 1.12203 1.60096 0
M  V30 11076 H 1023.6 1.76769 3.70379 0
M  V30 11077 H 1023.14 0.075903 3.93327 0
M  V30 11078 H 1025.15 -0.72534 4.9087 0
M  V30 11079 N 1024.32 -1.44642 0.625825 0
M  V30 11080 C 1025.25 -2.33397 -0.0692188 0
M  V30 11081 C 1026.23 -1.47898 -0.840241 0
M  V30 11082 O 1027.42 -1.7663 -0.807176 0
M  V30 11083 C 1024.55 -3.30888 -1.055 0
M  V30 11084 C 1023.5 -4.26164 -0.395968 0
M  V30 11085 C 1022.83 -5.13483 -1.49128 0
M  V30 11086 C 1024.13 -5.17663 0.694433 0
M  V30 11087 H 1025.82 -2.91763 0.671925 0
M  V30 11088 H 1023.37 -1.40294 0.324573 0
M  V30 11089 H 1025.32 -3.91861 -1.54993 0
M  V30 11090 H 1024.05 -2.7072 -1.82696 0
M  V30 11091 H 1022.71 -3.66516 0.0782691 0
M  V30 11092 H 1022.35 -4.49672 -2.25399 0
M  V30 11093 H 1022.05 -5.78038 -1.05573 0
M  V30 11094 H 1023.58 -5.77327 -1.98813 0
M  V30 11095 H 1024.99 -5.72602 0.282818 0
M  V30 11096 H 1023.39 -5.90793 1.05281 0
M  V30 11097 H 1024.46 -4.58994 1.56372 0
M  V30 11098 N 1025.8 -0.366053 -1.5329 0
M  V30 11099 C 1026.71 0.488111 -2.29466 0
M  V30 11100 C 1027.73 1.09219 -1.35452 0
M  V30 11101 O 1028.9 1.10303 -1.68509 0
M  V30 11102 C 1025.97 1.61202 -3.06944 0
M  V30 11103 C 1025.03 1.03543 -4.16626 0
M  V30 11104 C 1024.26 2.10578 -4.904 0
M  V30 11105 O 1024.49 3.31697 -4.6404 0
M  V30 11106 O 1023.42 1.73609 -5.76319 0
M  V30 11107 H 1027.25 -0.131789 -3.03414 0
M  V30 11108 H 1024.83 -0.130421 -1.4883 0
M  V30 11109 H 1026.71 2.26546 -3.55324 0
M  V30 11110 H 1025.39 2.21732 -2.35832 0
M  V30 11111 H 1024.29 0.345892 -3.72498 0
M  V30 11112 H 1025.63 0.474687 -4.89906 0
M  V30 11113 N 1027.28 1.57312 -0.0952337 0
M  V30 11114 C 1028.21 2.11059 0.893678 0
M  V30 11115 C 1029.22 1.04787 1.24594 0
M  V30 11116 O 1030.41 1.32233 1.19903 0
M  V30 11117 C 1027.51 2.57552 2.20272 0
M  V30 11118 C 1026.69 3.87661 2.02578 0
M  V30 11119 C 1025.75 4.2 3.16996 0
M  V30 11120 O 1024.77 4.89219 2.90953 0
M  V30 11121 N 1025.97 3.75414 4.42769 0
M  V30 11122 H 1028.74 2.96532 0.434632 0
M  V30 11123 H 1026.3 1.6165 0.0898661 0
M  V30 11124 H 1028.29 2.76232 2.95766 0
M  V30 11125 H 1026.86 1.7709 2.576 0
M  V30 11126 H 1026.08 3.78128 1.11413 0
M  V30 11127 H 1027.37 4.7278 1.88032 0
M  V30 11128 H 1026.77 3.1954 4.66809 0
M  V30 11129 H 1025.32 3.99249 5.15212 0
M  V30 11130 N 1028.76 -0.17846 1.56586 0
M  V30 11131 C 1030.17 -0.529957 1.50544 0
M  V30 11132 C 1030.37 -1.85015 0.798237 0
M  V30 11133 O 1029.43 -2.49983 0.355639 0
M  V30 11134 C 1030.74 -0.569314 2.95261 0
M  V30 11135 C 1032.29 -0.657008 3.06027 0
M  V30 11136 C 1032.77 -0.727323 4.52188 0
M  V30 11137 N 1034.26 -0.790406 4.56406 0
M  V30 11138 C 1034.99 -0.865265 5.66834 0
M  V30 11139 N 1034.49 -0.901398 6.86911 0
M  V30 11140 N 1036.28 -0.903736 5.54787 0
M  V30 11141 H 1028.43 0.687304 2.00972 0
M  V30 11142 H 1030.69 0.246936 0.915274 0
M  V30 11143 H 1030.4 0.331934 3.5013 0
M  V30 11144 H 1030.27 -1.41828 3.4952 0
M  V30 11145 H 1032.66 -1.54868 2.51197 0
M  V30 11146 H 1032.74 0.218495 2.54865 0
M  V30 11147 H 1032.39 0.160067 5.07648 0
M  V30 11148 H 1032.32 -1.61887 5.01099 0
M  V30 11149 H 1034.81 -0.771054 3.6995 0
M  V30 11150 H 1035.12 -0.959494 7.6682 0
M  V30 11151 H 1033.47 -0.869795 6.89536 0
M  V30 11152 H 1036.66 -0.872459 4.59898 0
M  V30 11153 H 1036.83 -0.958615 6.4087 0
M  V30 11154 N 1030.24 -1.51135 -0.446768 0
M  V30 11155 C 1031.48 -1.62571 -1.19388 0
M  V30 11156 C 1031.8 -0.3432 -1.92566 0
M  V30 11157 O 1033 -0.336804 -2.69403 0
M  V30 11158 C 1031.46 -2.87071 -2.17068 0
M  V30 11159 C 1031.07 -4.22291 -1.49581 0
M  V30 11160 C 1032.81 -3.07862 -2.9227 0
M  V30 11161 C 1030.72 -5.3795 -2.45689 0
M  V30 11162 H 1029.65 -0.60549 -0.449331 0
M  V30 11163 H 1032.3 -1.77593 -0.461846 0
M  V30 11164 H 1030.68 -2.65662 -2.93666 0
M  V30 11165 H 1031.86 -4.54046 -0.786054 0
M  V30 11166 H 1030.17 -4.07302 -0.865677 0
M  V30 11167 H 1032.77 -3.91444 -3.64246 0
M  V30 11168 H 1033.11 -2.20559 -3.53072 0
M  V30 11169 H 1033.64 -3.29566 -2.2278 0
M  V30 11170 H 1030.38 -6.27484 -1.89591 0
M  V30 11171 H 1029.9 -5.10583 -3.14746 0
M  V30 11172 H 1031.58 -5.69517 -3.07017 0
M  V30 11173 N 1031.71 0.701592 -1.41122 0
M  V30 11174 C 1032.66 1.81559 -1.42495 0
M  V30 11175 C 1033.63 1.63722 -0.280078 0
M  V30 11176 O 1034.82 1.84658 -0.480231 0
M  V30 11177 C 1031.96 3.19392 -1.30702 0
M  V30 11178 C 1031.07 3.48704 -2.55009 0
M  V30 11179 C 1030.2 4.76118 -2.35554 0
M  V30 11180 C 1029.24 4.98378 -3.55367 0
M  V30 11181 N 1028.38 6.17014 -3.3502 0
M  V30 11182 H 1033.22 1.7972 -2.37707 0
M  V30 11183 H 1030.76 0.877727 -1.18044 0
M  V30 11184 H 1032.71 3.99004 -1.21867 0
M  V30 11185 H 1031.34 3.20423 -0.391012 0
M  V30 11186 H 1030.4 2.63542 -2.74317 0
M  V30 11187 H 1031.71 3.61057 -3.44151 0
M  V30 11188 H 1030.86 5.63774 -2.24152 0
M  V30 11189 H 1029.6 4.66 -1.43859 0
M  V30 11190 H 1028.61 4.09172 -3.6723 0
M  V30 11191 H 1029.83 5.10359 -4.48007 0
M  V30 11192 H 1027.78 6.0812 -2.4602 0
M  V30 11193 H 1027.69 6.30107 -4.17733 0
M  V30 11194 H 1028.96 7.0742 -3.27379 0
M  V30 11195 N 1033.19 1.2685 0.935242 0
M  V30 11196 C 1034.61 1.04091 1.20984 0
M  V30 11197 C 1034.81 -0.230242 2.0018 0
M  V30 11198 O 1033.86 -0.93778 2.3444 0
M  V30 11199 C 1035.18 2.27586 1.96533 0
M  V30 11200 C 1036.72 2.32547 2.09501 0
M  V30 11201 C 1037.2 3.55751 2.88454 0
M  V30 11202 N 1038.69 3.56263 2.96025 0
M  V30 11203 C 1039.43 4.48262 3.57559 0
M  V30 11204 N 1038.92 5.50557 4.20546 0
M  V30 11205 N 1040.71 4.35901 3.5489 0
M  V30 11206 H 1032.87 2.08484 0.405954 0
M  V30 11207 H 1035.13 0.916548 0.242164 0
M  V30 11208 H 1034.83 3.20076 1.45753 0
M  V30 11209 H 1034.71 2.32305 2.97177 0
M  V30 11210 H 1037.1 1.40568 2.5947 0
M  V30 11211 H 1037.18 2.31836 1.08101 0
M  V30 11212 H 1036.82 4.48063 2.3917 0
M  V30 11213 H 1036.75 3.53711 3.90123 0
M  V30 11214 H 1039.24 2.82278 2.51252 0
M  V30 11215 H 1039.55 6.16935 4.65415 0
M  V30 11216 H 1037.9 5.54407 4.19115 0
M  V30 11217 H 1041.09 3.552 3.04879 0
M  V30 11218 H 1041.26 5.07792 4.02557 0
M  V30 11219 N 1034.67 -1.14067 1.0875 0
M  V30 11220 C 1035.92 -1.85677 0.830392 0
M  V30 11221 C 1036.27 -1.81549 -0.637016 0
M  V30 11222 O 1035.56 -1.23774 -1.46255 0
M  V30 11223 C 1035.76 -3.33273 1.29089 0
M  V30 11224 C 1035.59 -3.51774 2.80153 0
M  V30 11225 C 1034.36 -3.66419 3.47944 0
M  V30 11226 C 1036.56 -3.48399 3.78316 0
M  V30 11227 N 1034.54 -3.73112 4.87504 0
M  V30 11228 C 1035.91 -3.61378 5.03791 0
M  V30 11229 C 1037.96 -3.31758 3.7127 0
M  V30 11230 C 1036.67 -3.59435 6.23056 0
M  V30 11231 C 1038.69 -3.31119 4.90014 0
M  V30 11232 C 1038.05 -3.44643 6.1433 0
M  V30 11233 H 1034.15 -0.695948 0.356625 0
M  V30 11234 H 1036.74 -1.36687 1.38654 0
M  V30 11235 H 1034.91 -3.80846 0.762274 0
M  V30 11236 H 1036.64 -3.92659 0.979828 0
M  V30 11237 H 1033.4 -3.67799 2.98364 0
M  V30 11238 H 1033.82 -3.80167 5.6018 0
M  V30 11239 H 1038.46 -3.2021 2.76089 0
M  V30 11240 H 1036.18 -3.69758 7.18544 0
M  V30 11241 H 1039.77 -3.1945 4.86254 0
M  V30 11242 H 1038.65 -3.44101 7.04673 0
M  V30 11243 N 1036.15 -0.873678 -1.31166 0
M  V30 11244 C 1037.1 -0.330288 -2.28424 0
M  V30 11245 C 1038.07 0.573299 -1.55893 0
M  V30 11246 O 1039.25 0.504143 -1.84019 0
M  V30 11247 C 1036.39 0.459004 -3.42034 0
M  V30 11248 C 1035.5 -0.472519 -4.29408 0
M  V30 11249 C 1034.64 0.331261 -5.30166 0
M  V30 11250 C 1033.68 -0.596453 -6.09187 0
M  V30 11251 N 1032.81 0.171305 -7.01891 0
M  V30 11252 H 1037.65 -1.16485 -2.7429 0
M  V30 11253 H 1035.19 -0.585813 -1.34932 0
M  V30 11254 H 1037.15 0.932432 -4.06647 0
M  V30 11255 H 1035.78 1.25824 -2.97268 0
M  V30 11256 H 1034.83 -1.06441 -3.65205 0
M  V30 11257 H 1036.14 -1.18372 -4.84551 0
M  V30 11258 H 1035.3 0.867038 -6.00473 0
M  V30 11259 H 1034.04 1.07573 -4.75688 0
M  V30 11260 H 1033.04 -1.14395 -5.37767 0
M  V30 11261 H 1034.27 -1.33983 -6.65752 0
M  V30 11262 H 1032.21 0.89852 -6.49817 0
M  V30 11263 H 1032.13 -0.480481 -7.54472 0
M  V30 11264 H 1033.4 0.688192 -7.76456 0
M  V30 11265 N 1037.63 1.44308 -0.633487 0
M  V30 11266 C 1038.9 1.95476 -0.0697262 0
M  V30 11267 C 1039.28 1.57539 1.40516 0
M  V30 11268 O 1038.63 0.850632 2.12077 0
M  V30 11269 C 1038.84 3.4775 -0.295093 0
M  V30 11270 C 1040.19 4.24177 -0.189542 0
M  V30 11271 O 1041.21 3.55479 -0.226586 0
M  V30 11272 O 1040.07 5.46415 -0.096479 0
M  V30 11273 H 1037.17 0.826734 0.0209582 0
M  V30 11274 H 1039.71 1.54347 -0.705354 0
M  V30 11275 H 1038.48 3.6842 -1.31841 0
M  V30 11276 H 1038.11 3.95832 0.37456 0
M  V30 11277 N 1039.1 0.374177 1.53094 0
M  V30 11278 C 1040.33 -0.215903 2.06273 0
M  V30 11279 C 1040.75 -1.40979 1.24526 0
M  V30 11280 O 1040.11 -1.79331 0.266462 0
M  V30 11281 C 1040.16 -0.579089 3.5592 0
M  V30 11282 O 1039.26 -1.67516 3.76845 0
M  V30 11283 H 1038.61 -0.0293981 0.663349 0
M  V30 11284 H 1041.14 0.537271 1.9742 0
M  V30 11285 H 1041.15 -0.847678 3.99097 0
M  V30 11286 H 1039.82 0.293843 4.14861 0
M  V30 11287 H 1038.4 -1.40146 3.45563 0
M  V30 11288 N 1040.58 -1.57259 0.103575 0
M  V30 11289 C 1041.81 -1.98711 -0.565454 0
M  V30 11290 C 1042.22 -0.981759 -1.61735 0
M  V30 11291 O 1041.56 0.0357019 -1.83665 0
M  V30 11292 C 1041.63 -3.36552 -1.26384 0
M  V30 11293 C 1041.29 -4.55566 -0.361714 0
M  V30 11294 C 1042.29 -5.18408 0.393539 0
M  V30 11295 C 1039.97 -5.01534 -0.277292 0
M  V30 11296 C 1041.97 -6.25594 1.2211 0
M  V30 11297 C 1039.65 -6.08584 0.553919 0
M  V30 11298 C 1040.65 -6.7048 1.30176 0
M  V30 11299 O 1040.34 -7.75464 2.1192 0
M  V30 11300 H 1040.07 -0.657853 -0.155582 0
M  V30 11301 H 1042.62 -2.04591 0.182089 0
M  V30 11302 H 1040.85 -3.2738 -2.05813 0
M  V30 11303 H 1042.54 -3.62395 -1.82824 0
M  V30 11304 H 1043.31 -4.8382 0.338098 0
M  V30 11305 H 1039.19 -4.53114 -0.849047 0
M  V30 11306 H 1042.73 -6.73836 1.80531 0
M  V30 11307 H 1038.63 -6.42604 0.610809 0
M  V30 11308 H 1039.4 -7.92491 2.04694 0
M  V30 11309 N 1042.06 0.170153 -1.56679 0
M  V30 11310 C 1042.97 1.23057 -1.99735 0
M  V30 11311 C 1043.99 1.48374 -0.908912 0
M  V30 11312 O 1045.16 1.60499 -1.21663 0
M  V30 11313 C 1042.23 2.54944 -2.34956 0
M  V30 11314 C 1041.29 2.3748 -3.57634 0
M  V30 11315 C 1040.52 3.63078 -3.91165 0
M  V30 11316 O 1040.74 4.68304 -3.2565 0
M  V30 11317 O 1039.68 3.57119 -4.8451 0
M  V30 11318 H 1043.5 0.895104 -2.9021 0
M  V30 11319 H 1041.09 0.377109 -1.44562 0
M  V30 11320 H 1042.97 3.32742 -2.58574 0
M  V30 11321 H 1041.65 2.88068 -1.47643 0
M  V30 11322 H 1040.55 1.57709 -3.39232 0
M  V30 11323 H 1041.89 2.0928 -4.45491 0
M  V30 11324 N 1043.54 1.5137 0.438746 0
M  V30 11325 C 1044.78 1.65173 1.18698 0
M  V30 11326 C 1045.14 0.362753 1.88949 0
M  V30 11327 O 1044.43 -0.641351 1.80547 0
M  V30 11328 C 1044.63 2.79221 2.23093 0
M  V30 11329 C 1044.46 4.19085 1.63088 0
M  V30 11330 C 1043.23 4.85042 1.41642 0
M  V30 11331 C 1045.42 5.02225 1.10789 0
M  V30 11332 N 1043.41 6.09024 0.772198 0
M  V30 11333 C 1044.78 6.17197 0.588854 0
M  V30 11334 C 1046.83 4.87764 0.999516 0
M  V30 11335 C 1045.53 7.19295 -0.0279103 0
M  V30 11336 C 1047.56 5.90068 0.396648 0
M  V30 11337 C 1046.92 7.04311 -0.111855 0
M  V30 11338 H 1043.02 0.658316 0.422071 0
M  V30 11339 H 1045.61 1.88593 0.483808 0
M  V30 11340 H 1043.78 2.57468 2.908 0
M  V30 11341 H 1045.51 2.82213 2.90066 0
M  V30 11342 H 1042.26 4.42886 1.67776 0
M  V30 11343 H 1042.69 6.75383 0.467568 0
M  V30 11344 H 1047.33 3.99695 1.37853 0
M  V30 11345 H 1045.05 8.07013 -0.419056 0
M  V30 11346 H 1048.63 5.80948 0.314715 0
M  V30 11347 H 1047.51 7.82118 -0.571021 0
M  V30 11348 N 1045.02 -0.694098 1.41492 0
M  V30 11349 C 1045.95 -1.81841 1.37873 0
M  V30 11350 C 1046.93 -1.60732 0.245772 0
M  V30 11351 O 1048.11 -1.83461 0.432917 0
M  V30 11352 C 1045.24 -3.18543 1.15099 0
M  V30 11353 C 1044.28 -3.5844 2.31133 0
M  V30 11354 S 1045.12 -3.63079 3.93617 0
M  V30 11355 C 1046.27 -5.02505 3.73148 0
M  V30 11356 H 1046.51 -1.84634 2.33018 0
M  V30 11357 H 1044.04 -0.862948 1.28033 0
M  V30 11358 H 1046 -3.9746 1.02646 0
M  V30 11359 H 1044.66 -3.13358 0.21572 0
M  V30 11360 H 1043.85 -4.57754 2.10896 0
M  V30 11361 H 1043.45 -2.86837 2.40002 0
M  V30 11362 H 1045.75 -5.90046 3.32945 0
M  V30 11363 H 1046.69 -5.27784 4.72069 0
M  V30 11364 H 1047.1 -4.74113 3.06394 0
M  V30 11365 N 1046.49 -1.27344 -0.928501 0
M  V30 11366 C 1047.43 -1.04322 -2.02959 0
M  V30 11367 C 1048.41 0.0361118 -1.6256 0
M  V30 11368 O 1049.59 -0.108872 -1.88185 0
M  V30 11369 C 1046.72 -0.582329 -3.33656 0
M  V30 11370 C 1045.76 -1.65611 -3.93033 0
M  V30 11371 S 1046.6 -3.2484 -4.25722 0
M  V30 11372 C 1047.75 -2.8055 -5.59502 0
M  V30 11373 H 1047.98 -1.97548 -2.22176 0
M  V30 11374 H 1045.52 -1.11167 -1.07151 0
M  V30 11375 H 1047.48 -0.323095 -4.09227 0
M  V30 11376 H 1046.14 0.329858 -3.12363 0
M  V30 11377 H 1045.33 -1.28491 -4.87346 0
M  V30 11378 H 1044.93 -1.86738 -3.24045 0
M  V30 11379 H 1047.22 -2.25803 -6.38764 0
M  V30 11380 H 1048.17 -3.73603 -6.0152 0
M  V30 11381 H 1048.57 -2.19717 -5.19985 0
M  V30 11382 N 1047.97 1.13488 -1.09353 0
M  V30 11383 C 1049.22 1.84383 -0.827488 0
M  V30 11384 C 1049.54 1.83892 0.648745 0
M  V30 11385 O 1048.81 1.29415 1.47066 0
M  V30 11386 H 1047.39 0.682732 -0.303127 0
M  V30 11387 H 1050.05 1.37477 -1.38152 0
M  V30 11388 H 1049.15 2.88919 -1.18035 0
M  V30 11389 N 1049.45 0.880621 1.30701 0
M  V30 11390 C 1050.68 0.511682 2.00473 0
M  V30 11391 C 1051.09 -0.898684 1.6604 0
M  V30 11392 O 1050.45 -1.59035 0.895218 0
M  V30 11393 C 1050.5 0.671723 3.55204 0
M  V30 11394 O 1050.22 2.02656 3.8841 0
M  V30 11395 C 1051.72 0.3052 4.42248 0
M  V30 11396 H 1048.94 0.198231 0.64105 0
M  V30 11397 H 1051.49 1.18472 1.66687 0
M  V30 11398 H 1049.64 0.0461066 3.87373 0
M  V30 11399 H 1050.06 2.04202 4.83117 0
M  V30 11400 H 1051.53 0.468095 5.50012 0
M  V30 11401 H 1052.01 -0.756456 4.32637 0
M  V30 11402 H 1052.61 0.906959 4.15517 0
M  V30 11403 N 1050.93 -1.4397 0.641131 0
M  V30 11404 C 1052.18 -2.02782 0.158406 0
M  V30 11405 C 1052.53 -1.496 -1.20986 0
M  V30 11406 O 1051.82 -0.674517 -1.79334 0
M  V30 11407 C 1052.02 -3.5727 0.0963368 0
M  V30 11408 C 1051.85 -4.25441 1.45704 0
M  V30 11409 C 1050.62 -4.62008 2.04637 0
M  V30 11410 C 1052.81 -4.55238 2.39297 0
M  V30 11411 N 1050.8 -5.15194 3.33839 0
M  V30 11412 C 1052.17 -5.09613 3.53121 0
M  V30 11413 C 1054.22 -4.37197 2.38251 0
M  V30 11414 C 1052.93 -5.47847 4.66108 0
M  V30 11415 C 1054.95 -4.76485 3.50309 0
M  V30 11416 C 1054.31 -5.30982 4.62858 0
M  V30 11417 H 1050.41 -0.775304 0.102117 0
M  V30 11418 H 1053 -1.75321 0.846805 0
M  V30 11419 H 1051.17 -3.84322 -0.561369 0
M  V30 11420 H 1052.9 -4.02757 -0.39614 0
M  V30 11421 H 1049.65 -4.46653 1.57474 0
M  V30 11422 H 1050.08 -5.46253 3.99921 0
M  V30 11423 H 1054.72 -3.94347 1.5248 0
M  V30 11424 H 1052.44 -5.89646 5.52579 0
M  V30 11425 H 1056.02 -4.6423 3.50687 0
M  V30 11426 H 1054.9 -5.6082 5.48133 0
M  V30 11427 N 1052.41 -0.382291 -1.52893 0
M  V30 11428 C 1053.34 0.447829 -2.29165 0
M  V30 11429 C 1054.32 1.06956 -1.32267 0
M  V30 11430 O 1055.5 1.08365 -1.61154 0
M  V30 11431 C 1052.63 1.57902 -3.09329 0
M  V30 11432 C 1051.59 1.08369 -4.14053 0
M  V30 11433 C 1050.91 2.30641 -4.82399 0
M  V30 11434 C 1052.21 0.156591 -5.22065 0
M  V30 11435 H 1053.91 -0.188541 -2.98806 0
M  V30 11436 H 1051.45 -0.0921179 -1.43705 0
M  V30 11437 H 1053.41 2.16652 -3.61442 0
M  V30 11438 H 1052.13 2.24287 -2.37409 0
M  V30 11439 H 1050.79 0.518772 -3.62911 0
M  V30 11440 H 1050.44 2.9552 -4.07034 0
M  V30 11441 H 1050.14 1.98163 -5.53177 0
M  V30 11442 H 1051.66 2.90047 -5.37313 0
M  V30 11443 H 1053.08 0.652065 -5.6958 0
M  V30 11444 H 1051.47 -0.0780978 -6.00049 0
M  V30 11445 H 1052.54 -0.796529 -4.78313 0
M  V30 11446 N 1053.89 1.57202 -0.111913 0
M  V30 11447 C 1055.11 1.99723 0.559054 0
M  V30 11448 C 1055.54 0.990968 1.59879 0
M  V30 11449 O 1054.89 -0.038311 1.8126 0
M  V30 11450 C 1054.94 3.41151 1.16826 0
M  V30 11451 O 1054.05 3.43383 2.2839 0
M  V30 11452 H 1053.39 0.649004 0.140319 0
M  V30 11453 H 1055.92 2.03637 -0.198295 0
M  V30 11454 H 1055.93 3.79208 1.50551 0
M  V30 11455 H 1054.6 4.13907 0.406637 0
M  V30 11456 H 1053.18 3.17138 1.96158 0
M  V30 11457 N 1055.36 -0.161842 1.56767 0
M  V30 11458 C 1056.78 -0.51396 1.51098 0
M  V30 11459 C 1056.98 -1.84158 0.817815 0
M  V30 11460 O 1056.04 -2.49592 0.382133 0
M  V30 11461 C 1057.35 -0.537966 2.95849 0
M  V30 11462 C 1058.9 -0.624512 3.06706 0
M  V30 11463 C 1059.37 -0.679322 4.52934 0
M  V30 11464 N 1060.86 -0.741953 4.57219 0
M  V30 11465 C 1061.6 -0.805096 5.6772 0
M  V30 11466 N 1061.09 -0.828492 6.87828 0
M  V30 11467 N 1062.89 -0.844843 5.55715 0
M  V30 11468 H 1055.04 0.708581 2.00232 0
M  V30 11469 H 1057.3 0.25663 0.912603 0
M  V30 11470 H 1057.01 0.369052 3.49758 0
M  V30 11471 H 1056.88 -1.38113 3.51005 0
M  V30 11472 H 1059.27 -1.52195 2.52825 0
M  V30 11473 H 1059.35 0.245515 2.54619 0
M  V30 11474 H 1058.99 0.213901 5.07449 0
M  V30 11475 H 1058.92 -1.56563 5.02788 0
M  V30 11476 H 1061.41 -0.731772 3.70747 0
M  V30 11477 H 1061.73 -0.878109 7.67795 0
M  V30 11478 H 1060.07 -0.796612 6.9042 0
M  V30 11479 H 1063.26 -0.823632 4.60797 0
M  V30 11480 H 1063.44 -0.890588 6.41851 0
M  V30 11481 N 1056.84 -1.516 -0.430713 0
M  V30 11482 C 1058.09 -1.63829 -1.17657 0
M  V30 11483 C 1058.4 -0.363605 -1.92191 0
M  V30 11484 O 1059.61 -0.365358 -2.6903 0
M  V30 11485 C 1058.07 -2.89357 -2.14011 0
M  V30 11486 C 1057.67 -4.23854 -1.45094 0
M  V30 11487 C 1059.42 -3.10944 -2.88988 0
M  V30 11488 C 1057.32 -5.40526 -2.3997 0
M  V30 11489 H 1056.25 -0.610221 -0.442884 0
M  V30 11490 H 1058.91 -1.78073 -0.442984 0
M  V30 11491 H 1057.29 -2.68762 -2.90832 0
M  V30 11492 H 1058.46 -4.54854 -0.737853 0
M  V30 11493 H 1056.78 -4.08197 -0.822429 0
M  V30 11494 H 1059.37 -3.95286 -3.60074 0
M  V30 11495 H 1059.72 -2.24291 -3.50712 0
M  V30 11496 H 1060.25 -3.3191 -2.19272 0
M  V30 11497 H 1056.99 -6.29459 -1.82925 0
M  V30 11498 H 1056.51 -5.13893 -3.09313 0
M  V30 11499 H 1058.19 -5.72741 -3.00959 0
M  V30 11500 N 1058.32 0.686584 -1.41858 0
M  V30 11501 C 1059.57 1.44235 -1.40994 0
M  V30 11502 C 1059.88 1.95583 -0.0254979 0
M  V30 11503 O 1061.09 2.71294 0.10576 0
M  V30 11504 C 1059.54 2.6086 -2.47952 0
M  V30 11505 C 1059.15 2.16259 -3.92347 0
M  V30 11506 C 1060.9 3.38441 -2.56237 0
M  V30 11507 C 1058.8 3.29896 -4.90838 0
M  V30 11508 H 1057.73 0.54181 -0.524364 0
M  V30 11509 H 1060.38 0.744486 -1.67719 0
M  V30 11510 H 1058.77 3.32957 -2.14373 0
M  V30 11511 H 1059.94 1.51392 -4.35221 0
M  V30 11512 H 1058.25 1.51648 -3.87804 0
M  V30 11513 H 1060.85 4.23052 -3.27003 0
M  V30 11514 H 1061.19 3.84238 -1.6021 0
M  V30 11515 H 1061.73 2.73406 -2.88953 0
M  V30 11516 H 1058.47 2.89104 -5.88302 0
M  V30 11517 H 1057.99 3.93584 -4.52606 0
M  V30 11518 H 1059.67 3.95541 -5.12012 0
M  V30 11519 N 1059.8 1.27835 0.921735 0
M  V30 11520 C 1061.03 1.17352 1.704 0
M  V30 11521 C 1061.44 -0.268892 1.86875 0
M  V30 11522 O 1060.8 -1.18253 1.39005 0
M  V30 11523 C 1060.85 1.85889 3.10045 0
M  V30 11524 O 1060.57 3.24495 2.94338 0
M  V30 11525 C 1062.07 1.81607 4.04393 0
M  V30 11526 H 1059.29 0.40773 0.532914 0
M  V30 11527 H 1061.83 1.68815 1.15419 0
M  V30 11528 H 1059.99 1.38316 3.61867 0
M  V30 11529 H 1060.4 3.58705 3.82663 0
M  V30 11530 H 1061.88 2.34165 4.99871 0
M  V30 11531 H 1062.35 0.786697 4.32097 0
M  V30 11532 H 1062.96 2.28822 3.58498 0
M  V30 11533 N 1061.28 -1.12907 1.09954 0
M  V30 11534 C 1062.21 -2.18194 0.701701 0
M  V30 11535 C 1063.22 -1.60724 -0.259131 0
M  V30 11536 O 1064.41 -1.78445 -0.0443549 0
M  V30 11537 C 1061.51 -3.38897 0.0140602 0
M  V30 11538 C 1060.68 -4.25867 0.997807 0
M  V30 11539 C 1059.74 -5.25084 0.34257 0
M  V30 11540 O 1058.77 -5.60492 0.991857 0
M  V30 11541 N 1059.97 -5.73464 -0.901058 0
M  V30 11542 H 1062.73 -2.52939 1.60755 0
M  V30 11543 H 1060.3 -1.28281 0.987703 0
M  V30 11544 H 1062.29 -4.02349 -0.435628 0
M  V30 11545 H 1060.86 -3.02345 -0.794118 0
M  V30 11546 H 1060.08 -3.59107 1.6259 0
M  V30 11547 H 1061.37 -4.80825 1.66388 0
M  V30 11548 H 1060.76 -5.46854 -1.44802 0
M  V30 11549 H 1059.32 -6.38827 -1.29398 0
M  V30 11550 N 1062.75 -0.88754 -1.30232 0
M  V30 11551 C 1064 -0.507279 -1.96043 0
M  V30 11552 C 1064.33 0.944059 -1.70052 0
M  V30 11553 O 1063.58 1.68255 -0.999444 0
M  V30 11554 C 1063.88 -0.731765 -3.49828 0
M  V30 11555 C 1063.55 -2.15858 -3.95874 0
M  V30 11556 C 1062.21 -2.54875 -4.08157 0
M  V30 11557 C 1064.56 -3.0883 -4.19849 0
M  V30 11558 C 1061.89 -3.86069 -4.41778 0
M  V30 11559 C 1064.24 -4.39559 -4.5494 0
M  V30 11560 C 1062.91 -4.78465 -4.65432 0
M  V30 11561 H 1062.18 -0.185627 -0.717373 0
M  V30 11562 H 1064.82 -1.12388 -1.55052 0
M  V30 11563 H 1063.13 -0.0321473 -3.91787 0
M  V30 11564 H 1064.83 -0.417107 -3.98825 0
M  V30 11565 H 1061.42 -1.84574 -3.86821 0
M  V30 11566 H 1065.6 -2.79906 -4.09837 0
M  V30 11567 H 1060.86 -4.1595 -4.48102 0
M  V30 11568 H 1065.03 -5.11636 -4.72442 0
M  V30 11569 H 1062.66 -5.80162 -4.91239 0
M  V30 11570 N 1064.23 1.43628 -0.648757 0
M  V30 11571 C 1065.18 2.32529 0.057536 0
M  V30 11572 C 1066.17 1.48358 0.817699 0
M  V30 11573 O 1067.38 1.64595 0.728605 0
M  V30 11574 H 1063.76 0.75107 0.037388 0
M  V30 11575 H 1065.73 2.89829 -0.710062 0
M  V30 11576 C 1064.48 3.32605 1.01336 0
M  V30 11577 H 1063.8 3.97395 0.437855 0
M  V30 11578 H 1065.24 3.97453 1.47672 0
M  V30 11579 C 1063.7 2.62865 2.10722 0
M  V30 11580 O 1064.23 2.4408 3.19042 0
M  V30 11581 N 1062.43 2.22312 1.87152 0
M  V30 11582 H 1061.98 2.3779 0.990644 0
M  V30 11583 H 1061.94 1.75979 2.60536 0
M  V30 11584 N 1065.71 0.390394 1.52688 0
M  V30 11585 C 1066.66 -0.4591 2.28024 0
M  V30 11586 C 1067.65 -1.06212 1.31967 0
M  V30 11587 O 1068.86 -1.00247 1.49501 0
M  V30 11588 H 1065.23 -0.16681 0.733266 0
M  V30 11589 H 1067.2 0.197747 2.97744 0
M  V30 11590 C 1065.95 -1.5737 3.10048 0
M  V30 11591 H 1065.28 -1.11901 3.83821 0
M  V30 11592 H 1066.72 -2.1423 3.65898 0
M  V30 11593 C 1065.18 -2.53036 2.22429 0
M  V30 11594 O 1065.71 -3.5647 1.85181 0
M  V30 11595 N 1063.91 -2.22802 1.86567 0
M  V30 11596 H 1063.46 -1.38723 2.17057 0
M  V30 11597 H 1063.42 -2.87061 1.28233 0
M  V30 11598 N 1067.19 -1.57141 0.120249 0
M  V30 11599 C 1068.44 -1.94413 -0.53727 0
M  V30 11600 C 1068.75 -1.00594 -1.67751 0
M  V30 11601 O 1069.96 -1.27336 -2.39787 0
M  V30 11602 C 1068.41 -3.45521 -1.00714 0
M  V30 11603 C 1068.02 -4.47878 0.104706 0
M  V30 11604 C 1069.76 -3.9171 -1.63596 0
M  V30 11605 C 1067.67 -5.90165 -0.381932 0
M  V30 11606 H 1066.6 -0.725745 -0.204475 0
M  V30 11607 H 1069.25 -1.82404 0.200302 0
M  V30 11608 H 1067.63 -3.52769 -1.79917 0
M  V30 11609 H 1068.81 -4.523 0.881002 0
M  V30 11610 H 1067.12 -4.11448 0.640264 0
M  V30 11611 H 1069.72 -4.95433 -2.01122 0
M  V30 11612 H 1070.06 -3.31756 -2.51483 0
M  V30 11613 H 1070.6 -3.87268 -0.909319 0
M  V30 11614 H 1067.34 -6.53877 0.460921 0
M  V30 11615 H 1066.86 -5.89161 -1.12468 0
M  V30 11616 H 1068.53 -6.41488 -0.842748 0
M  V30 11617 N 1068.67 0.153526 -1.5685 0
M  V30 11618 C 1069.89 0.886343 -1.87507 0
M  V30 11619 C 1070.32 1.74244 -0.708565 0
M  V30 11620 O 1069.67 1.78045 0.341997 0
M  V30 11621 C 1069.72 1.72428 -3.16703 0
M  V30 11622 O 1068.83 2.82784 -3.00178 0
M  V30 11623 H 1068.17 0.247259 -0.616246 0
M  V30 11624 H 1070.7 0.146306 -2.04076 0
M  V30 11625 H 1070.71 2.12062 -3.4856 0
M  V30 11626 H 1069.38 1.09558 -4.01211 0
M  V30 11627 H 1067.96 2.46604 -2.79716 0
M  V30 11628 N 1070.14 1.51827 0.422667 0
M  V30 11629 C 1071.37 1.68803 1.19117 0
M  V30 11630 C 1071.78 0.391228 1.85111 0
M  V30 11631 O 1071.13 -0.64148 1.72136 0
M  V30 11632 C 1071.19 2.75767 2.30636 0
M  V30 11633 C 1070.85 4.17929 1.8489 0
M  V30 11634 C 1071.85 5.02223 1.34416 0
M  V30 11635 C 1069.53 4.641 1.92136 0
M  V30 11636 C 1071.53 6.30756 0.917925 0
M  V30 11637 C 1069.21 5.92626 1.49123 0
M  V30 11638 C 1070.21 6.75782 0.990352 0
M  V30 11639 O 1069.9 8.01902 0.566386 0
M  V30 11640 H 1069.63 0.569303 0.364514 0
M  V30 11641 H 1072.19 1.9909 0.505208 0
M  V30 11642 H 1070.42 2.40827 3.02555 0
M  V30 11643 H 1072.11 2.81476 2.92448 0
M  V30 11644 H 1072.87 4.67749 1.28202 0
M  V30 11645 H 1068.75 3.99488 2.30066 0
M  V30 11646 H 1072.29 6.95612 0.52628 0
M  V30 11647 H 1068.19 6.26611 1.55012 0
M  V30 11648 H 1068.96 8.15579 0.690918 0
M  V30 11649 N 1071.62 -0.679052 1.4222 0
M  V30 11650 C 1072.55 -1.80455 1.41311 0
M  V30 11651 C 1073.57 -1.59767 0.312799 0
M  V30 11652 O 1074.76 -1.68964 0.575612 0
M  V30 11653 C 1071.86 -3.17492 1.18541 0
M  V30 11654 C 1071.03 -3.65066 2.40926 0
M  V30 11655 C 1070.09 -4.80823 2.13765 0
M  V30 11656 O 1069.11 -4.91587 2.86934 0
M  V30 11657 N 1070.32 -5.69233 1.13813 0
M  V30 11658 H 1073.08 -1.81722 2.38322 0
M  V30 11659 H 1070.64 -0.861988 1.37045 0
M  V30 11660 H 1072.63 -3.92581 0.982958 0
M  V30 11661 H 1071.2 -3.1115 0.300691 0
M  V30 11662 H 1070.42 -2.80702 2.76767 0
M  V30 11663 H 1071.71 -3.93593 3.22431 0
M  V30 11664 H 1071.11 -5.63185 0.532887 0
M  V30 11665 H 1069.67 -6.44152 0.995554 0
M  V30 11666 N 1073.1 -1.28322 -0.914942 0
M  V30 11667 C 1074.03 -1.06469 -2.01841 0
M  V30 11668 C 1075.01 0.0188681 -1.62589 0
M  V30 11669 O 1076.2 -0.128825 -1.88059 0
M  V30 11670 C 1073.32 -0.617685 -3.3302 0
M  V30 11671 C 1072.37 -1.6977 -3.91255 0
M  V30 11672 S 1073.2 -3.29337 -4.22253 0
M  V30 11673 C 1074.36 -2.86468 -5.56495 0
M  V30 11674 H 1074.59 -1.99893 -2.20068 0
M  V30 11675 H 1072.12 -1.12297 -1.05966 0
M  V30 11676 H 1074.08 -0.366481 -4.08861 0
M  V30 11677 H 1072.74 0.296709 -3.12695 0
M  V30 11678 H 1071.94 -1.33653 -4.85956 0
M  V30 11679 H 1071.54 -1.90164 -3.22046 0
M  V30 11680 H 1073.83 -2.32565 -6.36333 0
M  V30 11681 H 1074.77 -3.79962 -5.97523 0
M  V30 11682 H 1075.18 -2.2522 -5.17626 0
M  V30 11683 N 1074.58 1.12322 -1.10551 0
M  V30 11684 C 1075.81 1.87407 -0.869607 0
M  V30 11685 C 1076.22 1.79976 0.58356 0
M  V30 11686 O 1075.56 1.1725 1.41415 0
M  V30 11687 C 1075.62 3.37401 -1.24099 0
M  V30 11688 C 1075.29 3.68607 -2.70144 0
M  V30 11689 C 1076.28 3.66869 -3.68379 0
M  V30 11690 C 1073.97 3.97903 -3.06559 0
M  V30 11691 C 1075.96 3.93987 -5.01052 0
M  V30 11692 C 1073.65 4.24681 -4.39419 0
M  V30 11693 C 1074.65 4.2271 -5.36475 0
M  V30 11694 O 1074.33 4.48823 -6.66943 0
M  V30 11695 H 1074.07 0.59978 -0.311834 0
M  V30 11696 H 1076.62 1.43037 -1.4741 0
M  V30 11697 H 1074.85 3.82332 -0.579606 0
M  V30 11698 H 1076.54 3.93833 -0.982378 0
M  V30 11699 H 1077.31 3.44297 -3.41591 0
M  V30 11700 H 1073.18 3.98578 -2.31638 0
M  V30 11701 H 1076.73 3.92364 -5.76798 0
M  V30 11702 H 1072.63 4.46727 -4.65945 0
M  V30 11703 H 1073.39 4.66436 -6.72592 0
M  V30 11704 N 1076.06 0.894434 1.2976 0
M  V30 11705 C 1077.33 0.437365 1.90648 0
M  V30 11706 C 1077.71 -1.08261 1.81226 0
M  V30 11707 O 1077.06 -1.92213 1.23557 0
M  V30 11708 C 1077.27 0.946047 3.35933 0
M  V30 11709 C 1078.62 0.986621 4.12978 0
M  V30 11710 O 1079.64 0.893356 3.44815 0
M  V30 11711 O 1078.5 1.12591 5.34776 0
M  V30 11712 H 1075.6 0.135436 0.815835 0
M  V30 11713 H 1078.14 0.983955 1.38262 0
M  V30 11714 H 1076.91 1.98998 3.3692 0
M  V30 11715 H 1076.54 0.379164 3.95788 0
M  V30 11716 N 1077.53 -1.43282 0.656365 0
M  V30 11717 C 1078.76 -2.06641 0.177245 0
M  V30 11718 C 1079.18 -1.48893 -1.14946 0
M  V30 11719 O 1078.54 -0.600099 -1.7108 0
M  V30 11720 C 1078.59 -3.60453 0.10299 0
M  V30 11721 O 1077.69 -4.01687 -0.933895 0
M  V30 11722 H 1077.04 -0.656978 0.096314 0
M  V30 11723 H 1079.57 -1.83733 0.900178 0
M  V30 11724 H 1079.58 -4.07923 -0.079291 0
M  V30 11725 H 1078.25 -4.01861 1.07147 0
M  V30 11726 H 1076.83 -3.65801 -0.724148 0
M  V30 11727 N 1079.01 -0.398486 -1.52479 0
M  V30 11728 C 1079.94 0.423498 -2.29627 0
M  V30 11729 C 1080.92 1.05547 -1.33394 0
M  V30 11730 O 1082.11 1.0665 -1.62294 0
M  V30 11731 C 1079.24 1.54612 -3.10986 0
M  V30 11732 C 1078.19 1.03971 -4.15179 0
M  V30 11733 C 1077.52 2.25512 -4.84818 0
M  V30 11734 C 1078.82 0.10121 -5.22202 0
M  V30 11735 H 1080.51 -0.220222 -2.98589 0
M  V30 11736 H 1078.06 -0.107355 -1.43599 0
M  V30 11737 H 1080.01 2.12806 -3.63719 0
M  V30 11738 H 1078.74 2.21756 -2.39774 0
M  V30 11739 H 1077.4 0.480251 -3.63441 0
M  V30 11740 H 1077.04 2.91187 -4.10145 0
M  V30 11741 H 1076.74 1.92285 -5.55248 0
M  V30 11742 H 1078.27 2.84331 -5.40359 0
M  V30 11743 H 1079.68 0.591617 -5.70239 0
M  V30 11744 H 1078.08 -0.141737 -5.99933 0
M  V30 11745 H 1079.15 -0.847216 -4.77441 0
M  V30 11746 N 1080.49 1.57075 -0.12858 0
M  V30 11747 C 1081.44 2.17084 0.835308 0
M  V30 11748 C 1082.43 1.12268 1.26855 0
M  V30 11749 O 1083.64 1.30554 1.23917 0
M  V30 11750 H 1080.01 0.694866 0.287516 0
M  V30 11751 H 1081.99 2.96839 0.304798 0
M  V30 11752 C 1080.73 2.79237 2.07177 0
M  V30 11753 H 1080.06 3.59594 1.74735 0
M  V30 11754 H 1081.5 3.24751 2.72604 0
M  V30 11755 C 1079.96 1.76803 2.86779 0
M  V30 11756 O 1080.49 1.22723 3.82494 0
M  V30 11757 N 1078.69 1.46525 2.50956 0
M  V30 11758 H 1078.24 1.90694 1.73187 0
M  V30 11759 H 1078.2 0.782326 3.04511 0
M  V30 11760 N 1081.97 -0.145205 1.5693 0
M  V30 11761 C 1083.2 -0.871133 1.87336 0
M  V30 11762 C 1083.61 -1.7517 0.714992 0
M  V30 11763 O 1082.95 -1.80815 -0.324304 0
M  V30 11764 C 1083.01 -1.77775 3.12468 0
M  V30 11765 C 1082.68 -1.07416 4.44197 0
M  V30 11766 C 1083.67 -0.42722 5.18142 0
M  V30 11767 C 1081.36 -1.06313 4.9092 0
M  V30 11768 C 1083.35 0.221348 6.37016 0
M  V30 11769 C 1081.04 -0.410755 6.09718 0
M  V30 11770 C 1082.04 0.230357 6.82611 0
M  V30 11771 O 1081.73 0.872389 7.99152 0
M  V30 11772 H 1081.46 -0.257174 0.62517 0
M  V30 11773 H 1084.01 -0.142159 2.04907 0
M  V30 11774 H 1082.24 -2.54771 2.9091 0
M  V30 11775 H 1083.93 -2.37579 3.29107 0
M  V30 11776 H 1084.7 -0.427536 4.83112 0
M  V30 11777 H 1080.58 -1.55156 4.34105 0
M  V30 11778 H 1084.12 0.722349 6.9385 0
M  V30 11779 H 1080.02 -0.408112 6.44209 0
M  V30 11780 H 1080.78 0.774236 8.1483 0
M  V30 11781 N 1083.45 -1.52049 -0.414609 0
M  V30 11782 C 1084.38 -1.7122 -1.52369 0
M  V30 11783 C 1085.39 -0.592634 -1.5163 0
M  V30 11784 O 1086.58 -0.867634 -1.55995 0
M  V30 11785 C 1083.68 -1.73247 -2.91271 0
M  V30 11786 C 1082.85 -3.02153 -3.16263 0
M  V30 11787 C 1081.91 -2.96066 -4.35007 0
M  V30 11788 O 1080.94 -3.69981 -4.32554 0
M  V30 11789 N 1082.14 -2.13478 -5.39822 0
M  V30 11790 H 1084.91 -2.66902 -1.3632 0
M  V30 11791 H 1082.47 -1.50218 -0.603842 0
M  V30 11792 H 1084.46 -1.66714 -3.68766 0
M  V30 11793 H 1083.03 -0.85062 -3.00804 0
M  V30 11794 H 1082.25 -3.22379 -2.2686 0
M  V30 11795 H 1083.54 -3.87439 -3.29801 0
M  V30 11796 H 1082.94 -1.52844 -5.44661 0
M  V30 11797 H 1081.49 -2.12805 -6.16082 0
M  V30 11798 N 1084.93 0.6715 -1.42579 0
M  V30 11799 C 1085.89 1.76676 -1.46008 0
M  V30 11800 C 1086.89 1.57007 -0.347213 0
M  V30 11801 O 1088.08 1.63238 -0.608185 0
M  V30 11802 C 1085.21 3.15348 -1.29494 0
M  V30 11803 H 1086.4 1.75021 -2.43531 0
M  V30 11804 H 1083.96 0.881444 -1.29075 0
M  V30 11805 H 1084.69 3.22626 -0.32906 0
M  V30 11806 H 1084.48 3.31028 -2.10149 0
M  V30 11807 H 1085.97 3.95251 -1.34784 0
M  V30 11808 N 1086.4 1.28806 0.908124 0
M  V30 11809 C 1087.65 1.16058 1.65454 0
M  V30 11810 C 1087.97 -0.290057 1.92831 0
M  V30 11811 O 1087.24 -1.20001 1.54843 0
M  V30 11812 H 1085.82 0.426522 0.61326 0
M  V30 11813 H 1088.48 1.61614 1.08936 0
M  V30 11814 H 1087.58 1.70437 2.61453 0
M  V30 11815 N 1087.88 -1.11734 1.11145 0
M  V30 11816 C 1088.84 -2.15868 0.770303 0
M  V30 11817 C 1089.84 -1.59438 -0.208842 0
M  V30 11818 O 1091.03 -1.74193 0.0152516 0
M  V30 11819 C 1088.17 -3.40603 0.142303 0
M  V30 11820 H 1089.36 -2.4756 1.69276 0
M  V30 11821 H 1086.91 -1.26867 0.912929 0
M  V30 11822 H 1087.65 -3.14517 -0.790526 0
M  V30 11823 H 1087.43 -3.8284 0.847087 0
M  V30 11824 H 1088.92 -4.17523 -0.0803608 0
M  V30 11825 N 1089.36 -0.901303 -1.29284 0
M  V30 11826 C 1090.61 -0.52401 -1.94774 0
M  V30 11827 C 1090.92 0.934645 -1.71825 0
M  V30 11828 O 1092.13 1.41953 -2.31434 0
M  V30 11829 C 1090.58 -0.886262 -3.48817 0
M  V30 11830 C 1090.19 -2.3638 -3.80564 0
M  V30 11831 C 1091.94 -0.578955 -4.20533 0
M  V30 11832 C 1089.84 -2.66682 -5.27858 0
M  V30 11833 H 1088.77 -0.192244 -0.72908 0
M  V30 11834 H 1091.42 -1.09852 -1.46986 0
M  V30 11835 H 1089.81 -0.240666 -3.95268 0
M  V30 11836 H 1090.98 -3.05508 -3.44966 0
M  V30 11837 H 1089.29 -2.64029 -3.2199 0
M  V30 11838 H 1091.89 -0.782185 -5.28948 0
M  V30 11839 H 1092.23 0.482605 -4.13493 0
M  V30 11840 H 1092.77 -1.18246 -3.79819 0
M  V30 11841 H 1089.51 -3.71643 -5.39965 0
M  V30 11842 H 1089.03 -2.02179 -5.64698 0
M  V30 11843 H 1090.71 -2.53033 -5.95469 0
M  V30 11844 N 1090.84 1.42931 -0.663954 0
M  V30 11845 C 1091.78 2.3079 0.0210764 0
M  V30 11846 C 1092.75 1.45356 0.803796 0
M  V30 11847 O 1093.94 1.74207 0.778237 0
M  V30 11848 C 1091.08 3.31069 0.974023 0
M  V30 11849 C 1090.19 4.31598 0.186273 0
M  V30 11850 C 1089.33 5.18955 1.13399 0
M  V30 11851 C 1088.37 6.1117 0.337292 0
M  V30 11852 N 1087.5 6.91114 1.23715 0
M  V30 11853 H 1092.34 2.88819 -0.733995 0
M  V30 11854 H 1089.88 1.42274 -0.373711 0
M  V30 11855 H 1091.84 3.87727 1.54024 0
M  V30 11856 H 1090.47 2.74665 1.69585 0
M  V30 11857 H 1089.52 3.77147 -0.496402 0
M  V30 11858 H 1090.83 4.96919 -0.432753 0
M  V30 11859 H 1089.99 5.80292 1.77049 0
M  V30 11860 H 1088.73 4.53785 1.78691 0
M  V30 11861 H 1087.73 5.48911 -0.312492 0
M  V30 11862 H 1088.96 6.78386 -0.31138 0
M  V30 11863 H 1086.9 6.28583 1.87668 0
M  V30 11864 H 1086.82 7.52999 0.672946 0
M  V30 11865 H 1088.09 7.56948 1.86146 0
M  V30 11866 N 1092.32 0.406567 1.52266 0
M  V30 11867 C 1093.28 -0.408251 2.25535 0
M  V30 11868 C 1094.28 -0.975795 1.27808 0
M  V30 11869 O 1095.47 -0.855077 1.5177 0
M  V30 11870 C 1092.6 -1.57443 3.02365 0
M  V30 11871 H 1093.79 0.233459 2.9899 0
M  V30 11872 H 1091.35 0.159032 1.55489 0
M  V30 11873 H 1092.08 -2.25308 2.33252 0
M  V30 11874 H 1091.87 -1.17399 3.74112 0
M  V30 11875 H 1093.36 -2.15088 3.57948 0
M  V30 11876 N 1093.79 -1.57004 0.136909 0
M  V30 11877 C 1094.74 -2.16246 -0.806607 0
M  V30 11878 C 1095.71 -1.09246 -1.25118 0
M  V30 11879 O 1096.9 -1.3724 -1.32551 0
M  V30 11880 C 1094.04 -2.78031 -2.04433 0
M  V30 11881 C 1093.15 -3.99393 -1.64649 0
M  V30 11882 C 1092.28 -4.49208 -2.83524 0
M  V30 11883 C 1091.32 -5.63059 -2.40064 0
M  V30 11884 N 1090.46 -6.07537 -3.51913 0
M  V30 11885 H 1095.3 -2.9654 -0.294596 0
M  V30 11886 H 1092.84 -1.46491 -0.133705 0
M  V30 11887 H 1094.8 -3.11992 -2.76978 0
M  V30 11888 H 1093.43 -2.00398 -2.53062 0
M  V30 11889 H 1092.48 -3.71477 -0.819077 0
M  V30 11890 H 1093.79 -4.81904 -1.28723 0
M  V30 11891 H 1092.94 -4.85171 -3.64271 0
M  V30 11892 H 1091.68 -3.65683 -3.22688 0
M  V30 11893 H 1090.69 -5.26682 -1.57754 0
M  V30 11894 H 1091.91 -6.48362 -2.01997 0
M  V30 11895 H 1089.86 -5.2695 -3.90717 0
M  V30 11896 H 1089.78 -6.84949 -3.1997 0
M  V30 11897 H 1091.04 -6.48143 -4.33048 0
M  V30 11898 N 1095.27 0.136881 -1.57004 0
M  V30 11899 C 1096.52 0.846257 -1.83088 0
M  V30 11900 C 1096.83 1.81876 -0.719765 0
M  V30 11901 O 1098.04 2.57302 -0.866494 0
M  V30 11902 C 1096.5 1.55559 -3.24545 0
M  V30 11903 C 1096.1 0.624989 -4.43619 0
M  V30 11904 C 1097.85 2.25115 -3.59893 0
M  V30 11905 C 1095.76 1.33653 -5.761 0
M  V30 11906 H 1094.69 0.319768 -0.682836 0
M  V30 11907 H 1097.34 0.0989741 -1.83233 0
M  V30 11908 H 1095.72 2.34887 -3.18817 0
M  V30 11909 H 1096.89 -0.133783 -4.60606 0
M  V30 11910 H 1095.21 0.0373216 -4.16383 0
M  V30 11911 H 1097.8 2.79008 -4.56134 0
M  V30 11912 H 1098.15 3.02084 -2.86446 0
M  V30 11913 H 1098.68 1.52696 -3.67327 0
M  V30 11914 H 1095.42 0.608495 -6.5267 0
M  V30 11915 H 1094.94 2.06776 -5.63031 0
M  V30 11916 H 1096.62 1.87467 -6.19246 0
M  V30 11917 N 1096.75 1.52266 0.40654 0
M  V30 11918 C 1098.03 1.57018 1.1664 0
M  V30 11919 C 1098.41 0.352752 2.08132 0
M  V30 11920 O 1097.76 -0.660208 2.18754 0
M  V30 11921 C 1097.97 2.90016 1.94143 0
M  V30 11922 C 1099.31 3.43112 2.50119 0
M  V30 11923 O 1100.34 2.91773 2.0432 0
M  V30 11924 O 1099.2 4.32765 3.33731 0
M  V30 11925 H 1096.29 0.632574 0.532709 0
M  V30 11926 H 1098.84 1.64595 0.413111 0
M  V30 11927 H 1097.61 3.70071 1.27134 0
M  V30 11928 H 1097.23 2.85744 2.76471 0
M  V30 11929 N 1098.23 -0.663929 1.42933 0
M  V30 11930 C 1099.16 -1.78899 1.50058 0
M  V30 11931 C 1100.14 -1.66329 0.356164 0
M  V30 11932 O 1101.32 -1.85587 0.571944 0
M  V30 11933 C 1098.45 -3.17265 1.41281 0
M  V30 11934 C 1097.41 -3.44584 2.53861 0
M  V30 11935 C 1096.73 -4.82638 2.3014 0
M  V30 11936 C 1098.03 -3.40394 3.96143 0
M  V30 11937 H 1099.73 -1.73194 2.44222 0
M  V30 11938 H 1097.27 -0.83182 1.17545 0
M  V30 11939 H 1099.23 -3.95715 1.44872 0
M  V30 11940 H 1097.95 -3.23675 0.43616 0
M  V30 11941 H 1096.61 -2.685 2.49606 0
M  V30 11942 H 1096.26 -4.85711 1.30743 0
M  V30 11943 H 1095.96 -5.01879 3.056 0
M  V30 11944 H 1097.48 -5.63359 2.35497 0
M  V30 11945 H 1098.9 -4.08796 4.01943 0
M  V30 11946 H 1097.29 -3.7117 4.71543 0
M  V30 11947 H 1098.36 -2.38767 4.22041 0
M  V30 11948 N 1099.71 -1.29285 -0.901281 0
M  V30 11949 C 1100.62 -1.16161 -2.03823 0
M  V30 11950 C 1101.63 -0.0852298 -1.73791 0
M  V30 11951 O 1102.81 -0.29699 -1.99198 0
M  V30 11952 C 1099.87 -0.837586 -3.3643 0
M  V30 11953 C 1098.93 -1.99764 -3.7999 0
M  V30 11954 C 1098.17 -1.68898 -5.0627 0
M  V30 11955 O 1098.39 -0.609177 -5.67138 0
M  V30 11956 O 1097.32 -2.53648 -5.45845 0
M  V30 11957 H 1101.15 -2.11635 -2.17817 0
M  V30 11958 H 1098.74 -1.08722 -1.02468 0
M  V30 11959 H 1100.62 -0.671376 -4.16017 0
M  V30 11960 H 1099.29 0.0873811 -3.23582 0
M  V30 11961 H 1098.2 -2.21908 -3.01177 0
M  V30 11962 H 1099.53 -2.90376 -3.9742 0
M  V30 11963 N 1101.18 1.11143 -1.11736 0
M  V30 11964 C 1102.41 1.86474 -0.889435 0
M  V30 11965 C 1102.82 1.80584 0.564438 0
M  V30 11966 O 1102.17 1.18743 1.40163 0
M  V30 11967 C 1102.23 3.36066 -1.27671 0
M  V30 11968 C 1101.89 3.65721 -2.74038 0
M  V30 11969 C 1102.89 3.62941 -3.7225 0
M  V30 11970 C 1100.57 3.94629 -3.10762 0
M  V30 11971 C 1102.57 3.88651 -5.05202 0
M  V30 11972 C 1100.25 4.19997 -4.43899 0
M  V30 11973 C 1101.25 4.16996 -5.40928 0
M  V30 11974 O 1100.94 4.41724 -6.71666 0
M  V30 11975 H 1100.67 0.596438 -0.318178 0
M  V30 11976 H 1103.23 1.41465 -1.48918 0
M  V30 11977 H 1101.46 3.81695 -0.620124 0
M  V30 11978 H 1103.15 3.92769 -1.02409 0
M  V30 11979 H 1103.91 3.40655 -3.45223 0
M  V30 11980 H 1099.79 3.96099 -2.35853 0
M  V30 11981 H 1103.33 3.86224 -5.80927 0
M  V30 11982 H 1099.23 4.4176 -4.70657 0
M  V30 11983 H 1100 4.59276 -6.77501 0
M  V30 11984 N 1102.66 0.908147 1.28804 0
M  V30 11985 C 1103.61 0.390734 2.27468 0
M  V30 11986 C 1104.58 -0.531765 1.57358 0
M  V30 11987 O 1105.76 -0.455177 1.85291 0
M  V30 11988 C 1102.9 -0.368159 3.43131 0
M  V30 11989 C 1102.02 0.586202 4.28004 0
M  V30 11990 C 1101.15 -0.190581 5.30858 0
M  V30 11991 C 1100.19 0.757758 6.07391 0
M  V30 11992 N 1099.33 0.0148488 7.02098 0
M  V30 11993 H 1104.17 1.23717 2.71105 0
M  V30 11994 H 1101.71 0.621382 1.33331 0
M  V30 11995 H 1103.66 -0.824289 4.08976 0
M  V30 11996 H 1102.29 -1.17898 3.00499 0
M  V30 11997 H 1101.35 1.16086 3.62254 0
M  V30 11998 H 1102.66 1.31177 4.81242 0
M  V30 11999 H 1101.81 -0.707528 6.0256 0
M  V30 12000 H 1100.55 -0.949234 4.78373 0
M  V30 12001 H 1099.56 1.28613 5.34545 0
M  V30 12002 H 1100.78 1.51588 6.61965 0
M  V30 12003 H 1098.73 -0.725916 6.51971 0
M  V30 12004 H 1098.64 0.680347 7.52932 0
M  V30 12005 H 1099.91 -0.482086 7.78008 0
M  V30 12006 N 1104.14 -1.42577 0.671525 0
M  V30 12007 C 1105.09 -2.30798 -0.00883676 0
M  V30 12008 C 1106.06 -1.4578 -0.796076 0
M  V30 12009 O 1107.24 -1.74617 -0.768987 0
M  V30 12010 C 1104.38 -3.31581 -0.956452 0
M  V30 12011 C 1103.5 -4.31691 -0.163381 0
M  V30 12012 C 1102.63 -5.19549 -1.10645 0
M  V30 12013 C 1101.67 -6.1134 -0.304876 0
M  V30 12014 N 1100.81 -6.91761 -1.20048 0
M  V30 12015 H 1105.65 -2.88426 0.749301 0
M  V30 12016 H 1103.18 -1.42074 0.381251 0
M  V30 12017 H 1105.14 -3.88539 -1.51966 0
M  V30 12018 H 1103.77 -2.75561 -1.68126 0
M  V30 12019 H 1102.82 -3.76879 0.516396 0
M  V30 12020 H 1104.14 -4.96683 0.459099 0
M  V30 12021 H 1103.29 -5.81223 -1.73969 0
M  V30 12022 H 1102.03 -4.54726 -1.76282 0
M  V30 12023 H 1101.03 -5.48738 0.341597 0
M  V30 12024 H 1102.26 -6.78211 0.347352 0
M  V30 12025 H 1100.2 -6.2957 -1.84331 0
M  V30 12026 H 1100.12 -7.53345 -0.633003 0
M  V30 12027 H 1101.39 -7.57924 -1.82129 0
M  V30 12028 N 1105.62 -0.414636 -1.52048 0
M  V30 12029 C 1106.85 0.158456 -2.05991 0
M  V30 12030 C 1107.26 1.38947 -1.28415 0
M  V30 12031 O 1106.6 1.80698 -0.330728 0
M  V30 12032 C 1106.66 0.568392 -3.54978 0
M  V30 12033 C 1106.33 -0.552654 -4.53646 0
M  V30 12034 C 1107.32 -1.41791 -5.00191 0
M  V30 12035 C 1105.01 -0.726917 -4.97012 0
M  V30 12036 C 1107 -2.44234 -5.88752 0
M  V30 12037 C 1104.69 -1.75464 -5.85368 0
M  V30 12038 C 1105.69 -2.61075 -6.31133 0
M  V30 12039 O 1105.37 -3.62087 -7.17738 0
M  V30 12040 H 1105.11 0.0214746 -0.675659 0
M  V30 12041 H 1107.66 -0.585825 -1.96869 0
M  V30 12042 H 1105.89 1.36504 -3.61806 0
M  V30 12043 H 1107.58 1.07003 -3.91542 0
M  V30 12044 H 1108.35 -1.29471 -4.67399 0
M  V30 12045 H 1104.22 -0.0701964 -4.60947 0
M  V30 12046 H 1107.77 -3.1109 -6.24395 0
M  V30 12047 H 1103.67 -1.87813 -6.17573 0
M  V30 12048 H 1104.43 -3.58396 -7.35863 0
M  V30 12049 N 1107.1 1.56929 -0.145233 0
M  V30 12050 C 1108.32 2.00864 0.516564 0
M  V30 12051 C 1108.75 1.02466 1.57741 0
M  V30 12052 O 1108.1 0.000145439 1.813 0
M  V30 12053 C 1108.15 3.43552 1.09563 0
M  V30 12054 O 1107.26 3.4815 2.21055 0
M  V30 12055 H 1106.6 0.651835 0.126521 0
M  V30 12056 H 1109.13 2.0317 -0.241445 0
M  V30 12057 H 1109.14 3.82316 1.42473 0
M  V30 12058 H 1107.81 4.14677 0.318749 0
M  V30 12059 H 1106.39 3.21228 1.89387 0
M  V30 12060 N 1108.58 -0.128553 1.57075 0
M  V30 12061 C 1109.82 -0.836355 1.83982 0
M  V30 12062 C 1110.14 -1.80862 0.728971 0
M  V30 12063 O 1109.41 -1.94326 -0.247859 0
M  V30 12064 H 1107.99 -0.31185 0.678792 0
M  V30 12065 H 1110.66 -0.118153 1.94542 0
M  V30 12066 H 1109.75 -1.38741 2.79567 0
M  V30 12067 N 1110.05 -1.5248 -0.398459 0
M  V30 12068 C 1111.28 -1.71221 -1.17039 0
M  V30 12069 C 1111.7 -0.425515 -1.83224 0
M  V30 12070 O 1111.06 0.617938 -1.70444 0
M  V30 12071 C 1111.11 -2.8562 -2.20121 0
M  V30 12072 O 1110.21 -2.51934 -3.26501 0
M  V30 12073 H 1109.55 -0.569654 -0.34116 0
M  V30 12074 H 1112.08 -1.99231 -0.465652 0
M  V30 12075 H 1112.09 -3.10842 -2.64275 0
M  V30 12076 H 1110.77 -3.78969 -1.71334 0
M  V30 12077 H 1109.35 -2.3742 -2.87552 0
M  V30 12078 N 1111.53 0.65634 -1.43283 0
M  V30 12079 C 1112.81 1.41339 -1.35213 0
M  V30 12080 C 1113.19 2.111 0.00158494 0
M  V30 12081 O 1112.54 2.0457 1.018 0
M  V30 12082 C 1112.75 2.40066 -2.53317 0
M  V30 12083 C 1114.09 3.04159 -2.96264 0
M  V30 12084 O 1115.12 2.50393 -2.53341 0
M  V30 12085 O 1113.98 4.01633 -3.70612 0
M  V30 12086 H 1111.07 0.631325 -0.534189 0
M  V30 12087 H 1113.62 0.68351 -1.55326 0
M  V30 12088 H 1112.39 1.87444 -3.43483 0
M  V30 12089 H 1112.01 3.20509 -2.35287 0
M  V30 12090 N 1113.01 1.29761 0.894412 0
M  V30 12091 C 1113.96 1.15341 1.99912 0
M  V30 12092 C 1114.93 0.0453488 1.66038 0
M  V30 12093 O 1116.11 0.213829 1.89598 0
M  V30 12094 C 1113.25 0.841432 3.34685 0
M  V30 12095 C 1112.36 2.03046 3.81309 0
M  V30 12096 C 1111.5 1.65739 5.04682 0
M  V30 12097 C 1110.54 2.81191 5.43689 0
M  V30 12098 N 1109.68 2.44244 6.58247 0
M  V30 12099 H 1114.52 2.09854 2.11578 0
M  V30 12100 H 1112.05 1.04421 1.03608 0
M  V30 12101 H 1114.01 0.641211 4.12243 0
M  V30 12102 H 1112.64 -0.066797 3.22731 0
M  V30 12103 H 1111.69 2.34222 2.9974 0
M  V30 12104 H 1113 2.89538 4.06164 0
M  V30 12105 H 1112.16 1.42036 5.8984 0
M  V30 12106 H 1110.9 0.764019 4.81678 0
M  V30 12107 H 1109.9 3.0557 4.57064 0
M  V30 12108 H 1111.13 3.712 5.68672 0
M  V30 12109 H 1109.07 1.57402 6.36837 0
M  V30 12110 H 1108.99 3.24269 6.82924 0
M  V30 12111 H 1110.26 2.23875 7.46659 0
M  V30 12112 N 1114.49 -1.10549 1.12324 0
M  V30 12113 C 1115.4 -2.20428 0.803032 0
M  V30 12114 C 1116.41 -1.72756 -0.207674 0
M  V30 12115 O 1117.59 -2.01357 -0.0415623 0
M  V30 12116 C 1114.65 -3.45716 0.261032 0
M  V30 12117 C 1113.72 -4.08129 1.33152 0
M  V30 12118 C 1112.95 -5.27436 0.815288 0
M  V30 12119 O 1113.17 -5.69317 -0.351361 0
M  V30 12120 O 1112.11 -5.80674 1.58434 0
M  V30 12121 H 1115.93 -2.50249 1.72073 0
M  V30 12122 H 1113.52 -1.19263 0.899815 0
M  V30 12123 H 1115.4 -4.21384 -0.0364007 0
M  V30 12124 H 1114.07 -3.17525 -0.629249 0
M  V30 12125 H 1112.98 -3.3415 1.6821 0
M  V30 12126 H 1114.31 -4.4052 2.19552 0
M  V30 12127 N 1115.97 -0.914965 -1.28321 0
M  V30 12128 C 1116.91 -0.394477 -2.29231 0
M  V30 12129 C 1117.91 0.514481 -1.61398 0
M  V30 12130 O 1119.11 0.395591 -1.75599 0
M  V30 12131 H 1115.49 -0.108969 -0.744063 0
M  V30 12132 H 1117.46 -1.25862 -2.70557 0
M  V30 12133 C 1116.21 0.349134 -3.45943 0
M  V30 12134 H 1115.53 -0.341087 -3.98342 0
M  V30 12135 H 1116.97 0.677944 -4.18545 0
M  V30 12136 C 1115.43 1.55747 -2.98738 0
M  V30 12137 O 1115.96 2.65654 -3.01315 0
M  V30 12138 N 1114.17 1.40488 -2.54384 0
M  V30 12139 H 1113.71 0.510716 -2.52487 0
M  V30 12140 H 1113.67 2.21464 -2.23161 0
M  V30 12141 N 1117.44 1.42219 -0.679077 0
M  V30 12142 C 1118.69 2.00703 -0.200309 0
M  V30 12143 C 1119.01 1.54339 1.20161 0
M  V30 12144 O 1120.21 2.0527 1.77698 0
M  V30 12145 C 1118.67 3.58586 -0.307248 0
M  V30 12146 C 1118.28 4.13937 -1.71349 0
M  V30 12147 C 1120.02 4.24351 0.112588 0
M  V30 12148 C 1117.93 5.64198 -1.77297 0
M  V30 12149 H 1116.86 0.750638 -0.0711279 0
M  V30 12150 H 1119.51 1.62893 -0.844881 0
M  V30 12151 H 1117.89 3.93921 0.40529 0
M  V30 12152 H 1119.06 3.90054 -2.45346 0
M  V30 12153 H 1117.38 3.60639 -2.08155 0
M  V30 12154 H 1119.98 5.34627 0.0883578 0
M  V30 12155 H 1120.32 4.00142 1.14857 0
M  V30 12156 H 1120.85 3.93992 -0.549093 0
M  V30 12157 H 1117.59 5.93211 -2.78892 0
M  V30 12158 H 1117.11 5.90058 -1.07662 0
M  V30 12159 H 1118.79 6.2869 -1.52835 0
M  V30 12160 N 1118.92 0.422693 1.51826 0
M  V30 12161 C 1119.87 -0.396088 2.27376 0
M  V30 12162 C 1120.84 -1.02946 1.30351 0
M  V30 12163 O 1122.02 -1.05116 1.59233 0
M  V30 12164 C 1119.16 -1.49942 3.10824 0
M  V30 12165 C 1118.28 -0.885623 4.22825 0
M  V30 12166 C 1117.41 -1.96278 4.93608 0
M  V30 12167 C 1116.45 -1.32664 5.97551 0
M  V30 12168 N 1115.59 -2.34452 6.61798 0
M  V30 12169 H 1120.43 0.254571 2.96911 0
M  V30 12170 H 1117.96 0.137383 1.46457 0
M  V30 12171 H 1119.92 -2.15023 3.57521 0
M  V30 12172 H 1118.55 -2.11991 2.43433 0
M  V30 12173 H 1117.6 -0.123491 3.80199 0
M  V30 12174 H 1118.92 -0.381057 4.97342 0
M  V30 12175 H 1118.07 -2.69055 5.43778 0
M  V30 12176 H 1116.81 -2.50103 4.18688 0
M  V30 12177 H 1115.81 -0.584262 5.46687 0
M  V30 12178 H 1117.04 -0.7959 6.7442 0
M  V30 12179 H 1114.99 -2.87385 5.897 0
M  V30 12180 H 1114.9 -1.88845 7.32034 0
M  V30 12181 H 1116.17 -3.06757 7.16603 0
M  V30 12182 N 1120.4 -1.5685 0.153553 0
M  V30 12183 C 1121.62 -2.01135 -0.505904 0
M  V30 12184 C 1122.05 -1.03301 -1.57196 0
M  V30 12185 O 1121.41 -0.00976022 -1.81297 0
M  V30 12186 C 1121.46 -3.44129 -1.0774 0
M  V30 12187 O 1120.56 -3.49318 -2.19205 0
M  V30 12188 H 1119.9 -0.652496 -0.123062 0
M  V30 12189 H 1122.43 -2.03039 0.252216 0
M  V30 12190 H 1122.44 -3.83066 -1.40444 0
M  V30 12191 H 1121.12 -4.1484 -0.296754 0
M  V30 12192 H 1119.69 -3.22227 -1.8768 0
M  V30 12193 N 1121.88 0.120221 -1.57141 0
M  V30 12194 C 1122.81 1.1732 -1.96898 0
M  V30 12195 C 1123.82 1.37722 -0.868134 0
M  V30 12196 O 1125.01 1.36818 -1.14643 0
M  V30 12197 C 1122.11 2.53343 -2.25102 0
M  V30 12198 C 1121.28 2.53559 -3.56408 0
M  V30 12199 C 1120.34 3.71319 -3.72838 0
M  V30 12200 O 1119.37 3.54961 -4.44962 0
M  V30 12201 N 1120.57 4.89836 -3.11514 0
M  V30 12202 H 1123.34 0.835023 -2.87832 0
M  V30 12203 H 1120.9 0.309508 -1.58914 0
M  V30 12204 H 1122.89 3.30679 -2.3331 0
M  V30 12205 H 1121.46 2.79347 -1.403 0
M  V30 12206 H 1120.68 1.61946 -3.59398 0
M  V30 12207 H 1121.97 2.5076 -4.42716 0
M  V30 12208 H 1121.37 5.0603 -2.52884 0
M  V30 12209 H 1119.92 5.64853 -3.25246 0
M  V30 12210 N 1123.36 1.52689 0.390367 0
M  V30 12211 C 1124.6 1.67914 1.13722 0
M  V30 12212 C 1124.94 0.417159 1.89667 0
M  V30 12213 O 1124.21 -0.585005 1.85494 0
M  V30 12214 C 1124.49 2.91331 2.11656 0
M  V30 12215 C 1124.35 4.27626 1.39484 0
M  V30 12216 C 1125.67 3.10293 3.12099 0
M  V30 12217 H 1122.78 0.611047 0.412057 0
M  V30 12218 H 1125.43 1.85283 0.420753 0
M  V30 12219 H 1123.58 2.76654 2.72754 0
M  V30 12220 H 1125.25 4.54068 0.813607 0
M  V30 12221 H 1123.49 4.28169 0.69669 0
M  V30 12222 H 1124.16 5.10066 2.11038 0
M  V30 12223 H 1126.64 3.23992 2.6109 0
M  V30 12224 H 1125.51 3.98127 3.7787 0
M  V30 12225 H 1125.78 2.24448 3.80888 0
M  V30 12226 N 1124.83 -0.648732 1.43629 0
M  V30 12227 C 1125.74 -1.79046 1.51591 0
M  V30 12228 C 1126.76 -1.69276 0.402697 0
M  V30 12229 O 1127.94 -1.90366 0.657484 0
M  V30 12230 C 1125 -3.15347 1.44073 0
M  V30 12231 C 1124.06 -3.3688 2.66102 0
M  V30 12232 C 1123.3 -4.66679 2.58933 0
M  V30 12233 O 1123.52 -5.46328 1.63956 0
M  V30 12234 O 1122.45 -4.9003 3.49506 0
M  V30 12235 H 1126.28 -1.75283 2.48011 0
M  V30 12236 H 1123.86 -0.807774 1.2568 0
M  V30 12237 H 1125.75 -3.96633 1.42339 0
M  V30 12238 H 1124.42 -3.19691 0.50789 0
M  V30 12239 H 1123.33 -2.55341 2.73407 0
M  V30 12240 H 1124.66 -3.37386 3.58373 0
M  V30 12241 N 1126.31 -1.30234 -0.887518 0
M  V30 12242 C 1127.26 -1.16302 -2.01436 0
M  V30 12243 C 1128.25 -0.0755422 -1.69231 0
M  V30 12244 O 1129.46 -0.236213 -1.78443 0
M  V30 12245 H 1125.84 -0.35961 -0.660443 0
M  V30 12246 H 1127.81 -2.11677 -2.10322 0
M  V30 12247 C 1126.56 -0.869009 -3.36665 0
M  V30 12248 H 1125.88 -1.69787 -3.61956 0
M  V30 12249 H 1127.32 -0.811621 -4.16159 0
M  V30 12250 C 1125.78 0.428021 -3.3417 0
M  V30 12251 O 1126.31 1.45033 -3.74604 0
M  V30 12252 N 1124.51 0.438264 -2.87276 0
M  V30 12253 H 1124.06 -0.394142 -2.54567 0
M  V30 12254 H 1124.02 1.30604 -2.85989 0
M  V30 12255 N 1127.79 1.09952 -1.12909 0
M  V30 12256 C 1128.72 2.18477 -0.824014 0
M  V30 12257 C 1129.7 1.68744 0.214324 0
M  V30 12258 O 1130.89 1.94057 0.0744281 0
M  V30 12259 C 1128.02 3.46143 -0.283308 0
M  V30 12260 C 1126.97 4.09178 -1.25528 0
M  V30 12261 C 1126.3 5.31604 -0.574574 0
M  V30 12262 C 1127.6 4.52308 -2.6118 0
M  V30 12263 H 1129.29 2.44254 -1.73148 0
M  V30 12264 H 1126.84 1.17394 -0.833952 0
M  V30 12265 H 1128.79 4.21361 -0.057583 0
M  V30 12266 H 1127.51 3.19872 0.659525 0
M  V30 12267 H 1126.17 3.35973 -1.4669 0
M  V30 12268 H 1125.82 5.01611 0.37356 0
M  V30 12269 H 1125.52 5.74732 -1.22299 0
M  V30 12270 H 1127.04 6.0955 -0.358004 0
M  V30 12271 H 1128.46 5.18776 -2.44017 0
M  V30 12272 H 1126.86 5.06302 -3.22147 0
M  V30 12273 H 1127.93 3.64977 -3.19249 0
M  V30 12274 N 1129.27 0.921757 1.27833 0
M  V30 12275 C 1130.22 0.414838 2.27041 0
M  V30 12276 C 1131.19 -0.515045 1.57913 0
M  V30 12277 O 1132.37 -0.435499 1.85763 0
M  V30 12278 C 1129.51 -0.331744 3.43502 0
M  V30 12279 C 1128.62 0.631565 4.27358 0
M  V30 12280 C 1127.76 -0.134265 5.3103 0
M  V30 12281 C 1126.8 0.822138 6.06554 0
M  V30 12282 N 1125.93 0.0893149 7.02043 0
M  V30 12283 H 1130.77 1.26585 2.69778 0
M  V30 12284 H 1128.31 0.635488 1.32665 0
M  V30 12285 H 1130.27 -0.780866 4.09827 0
M  V30 12286 H 1128.9 -1.14704 3.01733 0
M  V30 12287 H 1127.95 1.19922 3.61003 0
M  V30 12288 H 1129.26 1.36274 4.79824 0
M  V30 12289 H 1128.42 -0.643579 6.03277 0
M  V30 12290 H 1127.16 -0.898443 4.79353 0
M  V30 12291 H 1126.16 1.34275 5.33151 0
M  V30 12292 H 1127.39 1.586 6.6032 0
M  V30 12293 H 1125.33 -0.656725 6.52704 0
M  V30 12294 H 1125.25 0.760167 7.52169 0
M  V30 12295 H 1126.52 -0.399541 7.78475 0
M  V30 12296 N 1130.75 -1.41857 0.686609 0
M  V30 12297 C 1131.69 -2.326 0.0041351 0
M  V30 12298 C 1132.69 -1.50474 -0.778077 0
M  V30 12299 O 1133.89 -1.66468 -0.684709 0
M  V30 12300 H 1130.27 -0.751797 -0.0174615 0
M  V30 12301 H 1132.24 -2.87844 0.786656 0
M  V30 12302 C 1130.99 -3.35175 -0.924819 0
M  V30 12303 H 1130.31 -3.98416 -0.332339 0
M  V30 12304 H 1131.75 -4.01229 -1.37082 0
M  V30 12305 C 1130.21 -2.68359 -2.03679 0
M  V30 12306 O 1130.74 -2.52453 -3.12459 0
M  V30 12307 N 1128.95 -2.27196 -1.81192 0
M  V30 12308 H 1128.49 -2.40333 -0.92725 0
M  V30 12309 H 1128.45 -1.82824 -2.55778 0
M  V30 12310 N 1132.22 -0.430739 -1.51599 0
M  V30 12311 C 1133.45 0.139197 -2.06932 0
M  V30 12312 C 1133.87 1.3626 -1.29672 0
M  V30 12313 O 1133.23 1.78219 -0.332836 0
M  V30 12314 C 1133.28 0.446593 -3.57824 0
M  V30 12315 O 1132.38 1.53414 -3.82803 0
M  V30 12316 H 1131.73 0.00475812 -0.663983 0
M  V30 12317 H 1134.26 -0.610171 -1.9529 0
M  V30 12318 H 1134.27 0.698972 -4.01968 0
M  V30 12319 H 1132.94 -0.447613 -4.13484 0
M  V30 12320 H 1131.52 1.27224 -3.50526 0
M  V30 12321 N 1133.7 1.56767 -0.161869 0
M  V30 12322 C 1134.63 2.20511 0.767918 0
M  V30 12323 C 1135.61 1.15783 1.24612 0
M  V30 12324 O 1136.8 1.44179 1.301 0
M  V30 12325 C 1133.93 2.83844 2.00125 0
M  V30 12326 C 1132.88 3.94528 1.65926 0
M  V30 12327 C 1132.21 4.44866 2.96646 0
M  V30 12328 C 1133.51 5.14583 0.894497 0
M  V30 12329 H 1135.2 2.98464 0.236607 0
M  V30 12330 H 1132.75 1.43561 0.112363 0
M  V30 12331 H 1134.7 3.27109 2.65664 0
M  V30 12332 H 1133.43 2.03246 2.55654 0
M  V30 12333 H 1132.08 3.51904 1.02759 0
M  V30 12334 H 1131.73 3.61071 3.50196 0
M  V30 12335 H 1131.43 5.19531 2.74521 0
M  V30 12336 H 1132.96 4.90812 3.6323 0
M  V30 12337 H 1134.37 5.54601 1.45228 0
M  V30 12338 H 1132.77 5.95105 0.772636 0
M  V30 12339 H 1133.84 4.84773 -0.110986 0
M  V30 12340 N 1135.18 -0.111886 1.57202 0
M  V30 12341 C 1136.46 -0.849125 1.76208 0
M  V30 12342 C 1136.84 -1.97735 0.73919 0
M  V30 12343 O 1136.19 -2.27283 -0.235523 0
M  V30 12344 C 1136.4 -1.35924 3.21443 0
M  V30 12345 C 1137.74 -1.80874 3.84148 0
M  V30 12346 O 1138.77 -1.45587 3.25089 0
M  V30 12347 O 1137.63 -2.46065 4.87969 0
M  V30 12348 H 1134.72 -0.403761 0.721738 0
M  V30 12349 H 1137.27 -0.0950726 1.69433 0
M  V30 12350 H 1136.04 -0.550113 3.87414 0
M  V30 12351 H 1135.66 -2.17579 3.32784 0
M  V30 12352 N 1136.66 -1.52894 -0.382264 0
M  V30 12353 C 1137.9 -1.68515 -1.12829 0
M  V30 12354 C 1138.24 -0.427211 -1.89443 0
M  V30 12355 O 1137.51 0.57516 -1.85801 0
M  V30 12356 C 1137.8 -2.92449 -2.10108 0
M  V30 12357 C 1137.65 -4.2836 -1.37214 0
M  V30 12358 C 1138.97 -3.11944 -3.1045 0
M  V30 12359 H 1136.09 -0.613223 -0.408811 0
M  V30 12360 H 1138.73 -1.85503 -0.410921 0
M  V30 12361 H 1136.88 -2.78097 -2.71283 0
M  V30 12362 H 1138.55 -4.54493 -0.789516 0
M  V30 12363 H 1136.79 -4.28532 -0.673973 0
M  V30 12364 H 1137.46 -5.11178 -2.0833 0
M  V30 12365 H 1139.94 -3.25372 -2.59369 0
M  V30 12366 H 1138.82 -4.00125 -3.75754 0
M  V30 12367 H 1139.08 -2.26465 -3.79692 0
M  V30 12368 N 1138.14 0.641106 -1.43971 0
M  V30 12369 C 1139.08 1.75352 -1.50068 0
M  V30 12370 C 1140.05 1.62386 -0.349266 0
M  V30 12371 O 1141.24 1.82455 -0.558118 0
M  V30 12372 C 1138.38 3.13561 -1.4413 0
M  V30 12373 C 1137.49 3.37574 -2.6957 0
M  V30 12374 C 1136.63 4.65698 -2.55535 0
M  V30 12375 C 1135.67 4.82857 -3.76186 0
M  V30 12376 N 1134.8 6.02249 -3.60888 0
M  V30 12377 H 1139.64 1.69477 -2.45116 0
M  V30 12378 H 1137.18 0.826871 -1.2166 0
M  V30 12379 H 1139.14 3.93476 -1.38681 0
M  V30 12380 H 1137.77 3.18476 -0.526563 0
M  V30 12381 H 1136.82 2.5167 -2.85248 0
M  V30 12382 H 1138.13 3.46135 -3.59154 0
M  V30 12383 H 1137.29 5.53759 -2.47862 0
M  V30 12384 H 1136.03 4.59479 -1.63495 0
M  V30 12385 H 1135.03 3.93229 -3.84254 0
M  V30 12386 H 1136.26 4.90898 -4.6925 0
M  V30 12387 H 1134.2 5.97138 -2.71591 0
M  V30 12388 H 1134.12 6.11822 -4.44083 0
M  V30 12389 H 1135.39 6.92898 -3.57088 0
M  V30 12390 N 1139.62 1.30703 0.880598 0
M  V30 12391 C 1140.86 1.19142 1.62752 0
M  V30 12392 C 1141.18 -0.251795 1.93973 0
M  V30 12393 O 1142.38 -0.488971 2.67061 0
M  V30 12394 C 1140.84 2.08503 2.93351 0
M  V30 12395 C 1140.45 3.57758 2.69653 0
M  V30 12396 C 1142.19 2.05715 3.71324 0
M  V30 12397 C 1140.1 4.39161 3.96096 0
M  V30 12398 H 1139.03 0.442332 0.610622 0
M  V30 12399 H 1141.68 1.55483 0.974547 0
M  V30 12400 H 1140.06 1.65049 3.59965 0
M  V30 12401 H 1141.24 4.09388 2.11513 0
M  V30 12402 H 1139.55 3.62414 2.0505 0
M  V30 12403 H 1142.15 2.63783 4.65105 0
M  V30 12404 H 1142.49 1.04168 4.03057 0
M  V30 12405 H 1143.02 2.47313 3.11579 0
M  V30 12406 H 1139.76 5.4142 3.69519 0
M  V30 12407 H 1139.28 3.92293 4.53725 0
M  V30 12408 H 1140.96 4.50823 4.64077 0
M  V30 12409 N 1141.09 -1.09351 1.1349 0
M  V30 12410 C 1142.32 -1.85844 0.92069 0
M  V30 12411 C 1142.74 -1.80616 -0.525303 0
M  V30 12412 O 1142.1 -1.1842 -1.37282 0
M  V30 12413 C 1142.15 -3.31716 1.4141 0
M  V30 12414 O 1141.25 -4.08014 0.599838 0
M  V30 12415 H 1140.59 -0.576242 0.32991 0
M  V30 12416 H 1143.12 -1.38084 1.50976 0
M  V30 12417 H 1143.13 -3.82564 1.41805 0
M  V30 12418 H 1141.81 -3.34837 2.46692 0
M  V30 12419 H 1140.39 -3.66944 0.663816 0
M  V30 12420 N 1142.57 -0.928524 -1.27343 0
M  V30 12421 C 1143.48 -0.433901 -2.30553 0
M  V30 12422 C 1144.5 0.485832 -1.6708 0
M  V30 12423 O 1145.67 0.36844 -1.98001 0
M  V30 12424 C 1142.74 0.304617 -3.45359 0
M  V30 12425 C 1141.8 -0.650131 -4.24349 0
M  V30 12426 C 1141.03 0.0532372 -5.33673 0
M  V30 12427 O 1141.26 1.27246 -5.56026 0
M  V30 12428 O 1140.19 -0.619009 -5.98709 0
M  V30 12429 H 1144.02 -1.2909 -2.74899 0
M  V30 12430 H 1141.6 -0.693903 -1.32308 0
M  V30 12431 H 1143.48 0.721137 -4.15184 0
M  V30 12432 H 1142.16 1.13721 -3.03066 0
M  V30 12433 H 1141.06 -1.11635 -3.57055 0
M  V30 12434 H 1142.4 -1.44996 -4.70358 0
M  V30 12435 N 1144.05 1.41491 -0.694123 0
M  V30 12436 C 1145.01 2.2917 -0.0368562 0
M  V30 12437 C 1146.01 1.44305 0.709426 0
M  V30 12438 O 1147.2 1.6547 0.544533 0
M  V30 12439 C 1144.33 3.27156 0.958201 0
M  V30 12440 H 1145.53 2.88787 -0.808829 0
M  V30 12441 H 1143.08 1.49453 -0.457538 0
M  V30 12442 H 1143.82 2.72516 1.75799 0
M  V30 12443 H 1143.6 3.89776 0.426227 0
M  V30 12444 H 1145.09 3.92863 1.41592 0
M  V30 12445 N 1145.53 0.438773 1.51369 0
M  V30 12446 C 1146.46 -0.417215 2.24354 0
M  V30 12447 C 1147.44 -1.02351 1.26345 0
M  V30 12448 O 1148.62 -1.06569 1.55484 0
M  V30 12449 C 1145.75 -1.58163 2.99503 0
M  V30 12450 C 1144.8 -1.09588 4.1218 0
M  V30 12451 S 1145.63 -0.0367491 5.35487 0
M  V30 12452 C 1146.78 -1.2058 6.14175 0
M  V30 12453 H 1147.02 0.202416 2.9661 0
M  V30 12454 H 1144.55 0.223306 1.52777 0
M  V30 12455 H 1146.51 -2.24917 3.43399 0
M  V30 12456 H 1145.17 -2.17268 2.26833 0
M  V30 12457 H 1144.36 -1.96667 4.64045 0
M  V30 12458 H 1143.96 -0.506564 3.70554 0
M  V30 12459 H 1146.26 -2.12387 6.43349 0
M  V30 12460 H 1147.2 -0.727087 7.04357 0
M  V30 12461 H 1147.61 -1.44501 5.45692 0
M  V30 12462 N 1147.01 -1.56678 0.170181 0
M  V30 12463 C 1147.95 -2.19222 -0.777459 0
M  V30 12464 C 1148.95 -1.15592 -1.23834 0
M  V30 12465 O 1150.15 -1.33794 -1.20412 0
M  V30 12466 H 1146.53 -0.702244 -0.268992 0
M  V30 12467 H 1148.5 -2.97543 -0.225989 0
M  V30 12468 C 1147.25 -2.84631 -1.997 0
M  V30 12469 H 1146.57 -3.641 -1.65139 0
M  V30 12470 H 1148.01 -3.31864 -2.63898 0
M  V30 12471 C 1146.47 -1.84345 -2.81991 0
M  V30 12472 O 1147 -1.32821 -3.79106 0
M  V30 12473 N 1145.21 -1.53127 -2.46983 0
M  V30 12474 H 1144.75 -1.95219 -1.6807 0
M  V30 12475 H 1144.71 -0.862787 -3.0233 0
M  V30 12476 N 1148.48 0.103547 -1.57259 0
M  V30 12477 C 1149.43 1.14513 -2.02459 0
M  V30 12478 C 1150.43 1.4197 -0.924163 0
M  V30 12479 O 1151.63 1.41751 -1.10936 0
M  V30 12480 H 1148.01 0.386469 -0.645094 0
M  V30 12481 H 1149.98 0.737531 -2.89142 0
M  V30 12482 C 1148.73 2.45948 -2.45775 0
M  V30 12483 H 1148.05 2.25662 -3.30026 0
M  V30 12484 H 1149.49 3.17351 -2.81184 0
M  V30 12485 C 1147.95 3.09639 -1.32759 0
M  V30 12486 O 1148.48 3.96372 -0.652059 0
M  V30 12487 N 1146.68 2.69757 -1.08072 0
M  V30 12488 H 1146.23 1.9932 -1.63185 0
M  V30 12489 H 1146.19 3.127 -0.326532 0
M  V30 12490 N 1149.96 1.53094 0.37415 0
M  V30 12491 C 1151.21 1.68082 1.11495 0
M  V30 12492 C 1151.52 0.434685 1.90709 0
M  V30 12493 O 1152.73 0.464956 2.67489 0
M  V30 12494 C 1151.19 2.97101 2.03124 0
M  V30 12495 C 1150.79 4.28947 1.29262 0
M  V30 12496 C 1152.54 3.21456 2.77248 0
M  V30 12497 C 1150.44 5.4906 2.19743 0
M  V30 12498 H 1149.37 0.626238 0.419931 0
M  V30 12499 H 1152.03 1.79594 0.376588 0
M  V30 12500 H 1150.41 2.79371 2.80656 0
M  V30 12501 H 1151.58 4.57279 0.568528 0
M  V30 12502 H 1149.9 4.10968 0.670362 0
M  V30 12503 H 1152.49 4.08377 3.45155 0
M  V30 12504 H 1152.84 2.37153 3.42146 0
M  V30 12505 H 1153.37 3.3982 2.06803 0
M  V30 12506 H 1150.11 6.35815 1.59437 0
M  V30 12507 H 1149.63 5.25019 2.90027 0
M  V30 12508 H 1151.31 5.83517 2.79495 0
M  V30 12509 N 1151.44 -0.633461 1.44309 0
M  V30 12510 C 1152.39 -1.76674 1.51292 0
M  V30 12511 C 1153.38 -1.64972 0.384807 0
M  V30 12512 O 1154.59 -1.71079 0.559653 0
M  V30 12513 H 1150.96 -0.583238 0.474697 0
M  V30 12514 H 1152.93 -1.67907 2.46678 0
M  V30 12515 C 1151.68 -3.15002 1.47205 0
M  V30 12516 H 1151.01 -3.24653 2.33325 0
M  V30 12517 H 1152.45 -3.94199 1.56151 0
M  V30 12518 C 1150.9 -3.3635 0.192464 0
M  V30 12519 O 1151.43 -3.94857 -0.738285 0
M  V30 12520 N 1149.64 -2.9044 0.0963424 0
M  V30 12521 H 1149.19 -2.43011 0.85459 0
M  V30 12522 H 1149.15 -3.05099 -0.759061 0
M  V30 12523 N 1152.92 -1.31168 -0.873655 0
M  V30 12524 C 1153.87 -1.18507 -1.98052 0
M  V30 12525 C 1154.84 -0.0717583 -1.65945 0
M  V30 12526 O 1156.02 -0.243965 -1.89234 0
M  V30 12527 C 1153.16 -0.894571 -3.33304 0
M  V30 12528 C 1152.27 -2.09086 -3.7803 0
M  V30 12529 C 1151.41 -1.73747 -5.01982 0
M  V30 12530 C 1150.45 -2.89805 -5.39147 0
M  V30 12531 N 1149.58 -2.54686 -6.54278 0
M  V30 12532 H 1154.42 -2.13193 -2.08213 0
M  V30 12533 H 1151.96 -1.06056 -1.01934 0
M  V30 12534 H 1153.92 -0.706714 -4.11171 0
M  V30 12535 H 1152.55 0.0154449 -3.22796 0
M  V30 12536 H 1151.6 -2.38961 -2.95976 0
M  V30 12537 H 1152.91 -2.95963 -4.01506 0
M  V30 12538 H 1152.07 -1.51402 -5.87505 0
M  V30 12539 H 1150.81 -0.840553 -4.80402 0
M  V30 12540 H 1149.81 -3.12803 -4.52144 0
M  V30 12541 H 1151.04 -3.802 -5.62694 0
M  V30 12542 H 1148.98 -1.67513 -6.34252 0
M  V30 12543 H 1148.9 -3.35093 -6.77679 0
M  V30 12544 H 1150.17 -2.35725 -7.43003 0
M  V30 12545 N 1154.4 1.08748 -1.14068 0
M  V30 12546 C 1155.64 1.81065 -0.906738 0
M  V30 12547 C 1155.97 1.86057 0.566844 0
M  V30 12548 O 1155.23 1.32976 1.43582 0
M  V30 12549 C 1155.53 3.26734 -1.44843 0
M  V30 12550 C 1155.19 3.41866 -2.94005 0
M  V30 12551 C 1153.85 3.45703 -3.34729 0
M  V30 12552 C 1156.21 3.45831 -3.89937 0
M  V30 12553 C 1153.53 3.51092 -4.70055 0
M  V30 12554 C 1155.89 3.52755 -5.25116 0
M  V30 12555 C 1154.55 3.54863 -5.65357 0
M  V30 12556 H 1153.82 0.662564 -0.331799 0
M  V30 12557 H 1156.47 1.28065 -1.42378 0
M  V30 12558 H 1154.77 3.82419 -0.852239 0
M  V30 12559 H 1156.47 3.81236 -1.2434 0
M  V30 12560 H 1153.06 3.39568 -2.61518 0
M  V30 12561 H 1157.24 3.421 -3.59557 0
M  V30 12562 H 1152.5 3.51015 -5.00598 0
M  V30 12563 H 1156.67 3.54768 -5.9926 0
M  V30 12564 H 1154.3 3.58792 -6.70203 0
M  V30 12565 N 1155.87 0.935264 1.26849 0
M  V30 12566 C 1157.12 0.575467 1.93317 0
M  V30 12567 C 1157.44 -0.88876 1.74242 0
M  V30 12568 O 1158.64 -1.35767 2.35116 0
M  V30 12569 C 1157.1 0.978433 3.46345 0
M  V30 12570 C 1156.71 2.46386 3.74163 0
M  V30 12571 C 1158.45 0.690249 4.18851 0
M  V30 12572 C 1156.36 2.80584 5.20602 0
M  V30 12573 H 1155.29 0.211506 0.723727 0
M  V30 12574 H 1157.94 1.1371 1.44022 0
M  V30 12575 H 1156.32 0.345379 3.94491 0
M  V30 12576 H 1157.49 3.14547 3.36745 0
M  V30 12577 H 1155.81 2.72473 3.14877 0
M  V30 12578 H 1158.41 0.922151 5.26688 0
M  V30 12579 H 1158.75 -0.372805 4.14627 0
M  V30 12580 H 1159.28 1.28275 3.76551 0
M  V30 12581 H 1156.02 3.85828 5.29921 0
M  V30 12582 H 1155.54 2.1708 5.59139 0
M  V30 12583 H 1157.22 2.68732 5.88551 0
M  V30 12584 N 1157.35 -1.41121 0.701616 0
M  V30 12585 C 1158.77 -1.55162 0.373766 0
M  V30 12586 C 1158.97 -1.6759 -1.11875 0
M  V30 12587 O 1158.02 -1.65768 -1.90465 0
M  V30 12588 C 1159.34 -2.78758 1.12759 0
M  V30 12589 C 1160.89 -2.92561 1.11253 0
M  V30 12590 C 1161.36 -4.19052 1.84822 0
M  V30 12591 N 1162.85 -4.26023 1.81821 0
M  V30 12592 C 1163.59 -5.22771 2.3558 0
M  V30 12593 N 1163.08 -6.25512 2.97836 0
M  V30 12594 N 1164.88 -5.14752 2.25802 0
M  V30 12595 H 1157.03 -1.31299 1.66956 0
M  V30 12596 H 1159.29 -0.633894 0.704898 0
M  V30 12597 H 1159 -2.75804 2.18231 0
M  V30 12598 H 1158.87 -3.70456 0.710095 0
M  V30 12599 H 1161.26 -2.95026 0.0660506 0
M  V30 12600 H 1161.34 -2.0202 1.56913 0
M  V30 12601 H 1160.98 -4.17349 2.89452 0
M  V30 12602 H 1160.91 -5.08577 1.36592 0
M  V30 12603 H 1163.4 -3.52411 1.36438 0
M  V30 12604 H 1163.72 -6.95736 3.36409 0
M  V30 12605 H 1162.06 -6.25997 3.01916 0
M  V30 12606 H 1165.25 -4.33414 1.76833 0
M  V30 12607 H 1165.42 -5.89983 2.68001 0
M  V30 12608 N 1158.83 -0.446794 -1.51134 0
M  V30 12609 C 1159.74 0.36579 -2.31731 0
M  V30 12610 C 1160.76 1.01886 -1.41051 0
M  V30 12611 O 1161.93 1.01216 -1.74119 0
M  V30 12612 C 1159 1.44705 -3.15058 0
M  V30 12613 C 1158.06 0.813129 -4.21529 0
M  V30 12614 C 1157.29 1.84287 -5.00873 0
M  V30 12615 O 1157.51 3.06633 -4.8097 0
M  V30 12616 O 1156.45 1.42816 -5.84711 0
M  V30 12617 H 1160.27 -0.292436 -3.02289 0
M  V30 12618 H 1157.86 -0.209129 -1.47929 0
M  V30 12619 H 1159.74 2.07393 -3.66833 0
M  V30 12620 H 1158.42 2.08919 -2.47254 0
M  V30 12621 H 1157.32 0.147953 -3.73807 0
M  V30 12622 H 1158.66 0.214331 -4.91733 0
M  V30 12623 N 1160.31 1.56586 -0.178487 0
M  V30 12624 C 1161.55 1.98994 0.466987 0
M  V30 12625 C 1161.91 1.06229 1.59935 0
M  V30 12626 O 1163.11 1.37806 2.30788 0
M  V30 12627 C 1161.38 3.45064 0.930899 0
M  V30 12628 S 1162.94 4.095 1.57655 0
M  V30 12629 H 1159.76 0.695007 0.149955 0
M  V30 12630 H 1162.36 1.93519 -0.27764 0
M  V30 12631 H 1161.07 4.10287 0.0964476 0
M  V30 12632 H 1160.6 3.54321 1.70939 0
M  V30 12633 H 1162.61 4.05139 2.86491 0
M  V30 12634 N 1161.79 -0.095206 1.57312 0
M  V30 12635 C 1163.01 -0.81614 1.90667 0
M  V30 12636 C 1163.44 -1.71494 0.772746 0
M  V30 12637 O 1162.79 -1.79192 -0.275682 0
M  V30 12638 C 1162.84 -1.60555 3.22885 0
M  V30 12639 O 1161.95 -2.71448 3.10467 0
M  V30 12640 H 1161.29 -0.224217 0.624998 0
M  V30 12641 H 1163.82 -0.070464 2.04479 0
M  V30 12642 H 1163.83 -1.98979 3.5619 0
M  V30 12643 H 1162.5 -0.945918 4.05 0
M  V30 12644 H 1161.08 -2.36053 2.88675 0
M  V30 12645 N 1163.26 -1.53291 -0.366026 0
M  V30 12646 C 1164.51 -1.69702 -1.11036 0
M  V30 12647 C 1164.84 -0.44728 -1.88979 0
M  V30 12648 O 1164.12 0.55542 -1.86401 0
M  V30 12649 C 1164.4 -2.94661 -2.06995 0
M  V30 12650 C 1164.25 -4.29791 -1.32663 0
M  V30 12651 C 1165.57 -3.15219 -3.07123 0
M  V30 12652 H 1162.69 -0.617525 -0.402284 0
M  V30 12653 H 1165.33 -1.85929 -0.391223 0
M  V30 12654 H 1163.48 -2.80958 -2.68318 0
M  V30 12655 H 1165.16 -4.55305 -0.741266 0
M  V30 12656 H 1163.4 -4.29223 -0.628484 0
M  V30 12657 H 1164.07 -5.13359 -2.02896 0
M  V30 12658 H 1166.55 -3.28105 -2.55903 0
M  V30 12659 H 1165.42 -4.04088 -3.71489 0
M  V30 12660 H 1165.68 -2.30479 -3.77269 0
M  V30 12661 N 1164.74 0.6258 -1.44643 0
M  V30 12662 C 1165.97 1.41233 -1.51198 0
M  V30 12663 C 1166.39 1.88291 -0.138572 0
M  V30 12664 O 1165.74 1.61151 0.856537 0
M  V30 12665 C 1165.79 2.62908 -2.48117 0
M  V30 12666 O 1165.51 2.1781 -3.80119 0
M  V30 12667 C 1167.02 3.55976 -2.6419 0
M  V30 12668 H 1164.24 0.432954 -0.512632 0
M  V30 12669 H 1166.78 0.76486 -1.89658 0
M  V30 12670 H 1164.93 3.23735 -2.12778 0
M  V30 12671 H 1165.35 2.96732 -4.32493 0
M  V30 12672 H 1166.82 4.37943 -3.3602 0
M  V30 12673 H 1167.3 4.05133 -1.696 0
M  V30 12674 H 1167.91 3.01014 -3.00451 0
M  V30 12675 N 1166.22 1.31629 0.866686 0
M  V30 12676 C 1167.45 1.24293 1.6503 0
M  V30 12677 C 1167.86 -0.193556 1.88207 0
M  V30 12678 O 1167.2 -1.13712 1.44275 0
M  V30 12679 C 1167.26 1.92032 3.03914 0
M  V30 12680 C 1166.93 3.41373 3.03831 0
M  V30 12681 C 1167.92 4.37064 2.81551 0
M  V30 12682 C 1165.61 3.83118 3.24848 0
M  V30 12683 C 1167.6 5.72474 2.80272 0
M  V30 12684 C 1165.29 5.18639 3.23197 0
M  V30 12685 C 1166.29 6.13128 3.00936 0
M  V30 12686 O 1165.98 7.46172 2.99137 0
M  V30 12687 H 1165.71 0.430569 0.521139 0
M  V30 12688 H 1168.26 1.74105 1.0898 0
M  V30 12689 H 1166.49 1.36774 3.61704 0
M  V30 12690 H 1168.18 1.78567 3.64512 0
M  V30 12691 H 1168.95 4.06142 2.65093 0
M  V30 12692 H 1164.83 3.10001 3.41204 0
M  V30 12693 H 1168.37 6.46199 2.62816 0
M  V30 12694 H 1164.27 5.49196 3.39197 0
M  V30 12695 H 1165.04 7.55385 3.15175 0
M  V30 12696 N 1167.7 -1.08142 1.14644 0
M  V30 12697 C 1168.63 -2.17139 0.858667 0
M  V30 12698 C 1169.61 -1.69064 -0.187452 0
M  V30 12699 O 1170.8 -1.94151 -0.0435458 0
M  V30 12700 C 1167.93 -3.45648 0.33834 0
M  V30 12701 C 1166.88 -4.07129 1.32021 0
M  V30 12702 C 1166.21 -5.30623 0.659075 0
M  V30 12703 C 1167.51 -4.48095 2.68343 0
M  V30 12704 H 1169.2 -2.41468 1.77012 0
M  V30 12705 H 1166.75 -1.16052 0.852523 0
M  V30 12706 H 1168.7 -4.21216 0.124611 0
M  V30 12707 H 1167.42 -3.2088 -0.608553 0
M  V30 12708 H 1166.08 -3.33596 1.52016 0
M  V30 12709 H 1165.73 -5.02142 -0.293711 0
M  V30 12710 H 1165.43 -5.72714 1.31427 0
M  V30 12711 H 1166.95 -6.08903 0.454933 0
M  V30 12712 H 1168.37 -5.14828 2.5224 0
M  V30 12713 H 1166.76 -5.01113 3.30161 0
M  V30 12714 H 1167.83 -3.59852 3.25015 0
M  V30 12715 N 1169.18 -0.941978 -1.26351 0
M  V30 12716 C 1170.42 -0.589971 -1.93715 0
M  V30 12717 C 1170.75 0.871085 -1.73903 0
M  V30 12718 O 1170.01 1.63864 -1.06991 0
M  V30 12719 C 1170.31 -0.879481 -3.4641 0
M  V30 12720 C 1169.97 -2.32454 -3.86362 0
M  V30 12721 C 1168.63 -2.71957 -3.9698 0
M  V30 12722 C 1170.99 -3.2636 -4.06373 0
M  V30 12723 C 1168.31 -4.04459 -4.25006 0
M  V30 12724 C 1170.67 -4.58459 -4.35887 0
M  V30 12725 C 1169.33 -4.97775 -4.4472 0
M  V30 12726 H 1168.6 -0.215886 -0.708854 0
M  V30 12727 H 1171.25 -1.18863 -1.50146 0
M  V30 12728 H 1169.55 -0.198289 -3.91298 0
M  V30 12729 H 1171.25 -0.585887 -3.96697 0
M  V30 12730 H 1167.84 -2.00814 -3.78645 0
M  V30 12731 H 1172.02 -2.97037 -3.97596 0
M  V30 12732 H 1167.28 -4.34582 -4.30057 0
M  V30 12733 H 1171.45 -5.31213 -4.50317 0
M  V30 12734 H 1169.08 -6.00475 -4.66191 0
M  V30 12735 N 1170.66 1.40747 -0.709091 0
M  V30 12736 C 1171.6 2.30741 -0.0523584 0
M  V30 12737 C 1172.57 1.4784 0.757145 0
M  V30 12738 O 1173.76 1.76595 0.72242 0
M  V30 12739 C 1170.9 3.34 0.868203 0
M  V30 12740 C 1170.01 4.31972 0.0488686 0
M  V30 12741 C 1169.15 5.223 0.968311 0
M  V30 12742 C 1168.18 6.11934 0.142682 0
M  V30 12743 N 1167.32 6.947 1.01665 0
M  V30 12744 H 1172.16 2.86338 -0.825509 0
M  V30 12745 H 1169.7 1.41013 -0.418785 0
M  V30 12746 H 1171.66 3.92431 1.41611 0
M  V30 12747 H 1170.29 2.79921 1.6076 0
M  V30 12748 H 1169.34 3.75377 -0.616137 0
M  V30 12749 H 1170.65 4.95291 -0.590625 0
M  V30 12750 H 1169.8 5.85631 1.58498 0
M  V30 12751 H 1168.54 4.5924 1.64164 0
M  V30 12752 H 1167.55 5.47639 -0.486965 0
M  V30 12753 H 1168.77 6.77052 -0.527046 0
M  V30 12754 H 1166.72 6.34236 1.67575 0
M  V30 12755 H 1166.64 7.54759 0.433045 0
M  V30 12756 H 1167.9 7.62487 1.6197 0
M  V30 12757 N 1172.13 0.454803 1.50895 0
M  V30 12758 C 1173.08 -0.361974 2.29766 0
M  V30 12759 C 1174.08 -1.00519 1.36353 0
M  V30 12760 O 1175.28 -0.938159 1.53618 0
M  V30 12761 H 1171.66 -0.135559 0.739681 0
M  V30 12762 H 1173.63 0.323853 2.96637 0
M  V30 12763 C 1172.38 -1.44078 3.16444 0
M  V30 12764 H 1171.7 -0.955212 3.88221 0
M  V30 12765 H 1173.14 -1.98518 3.74655 0
M  V30 12766 C 1171.6 -2.43374 2.32961 0
M  V30 12767 O 1172.13 -3.48295 2.00133 0
M  V30 12768 N 1170.33 -2.14689 1.95849 0
M  V30 12769 H 1169.88 -1.29392 2.22745 0
M  V30 12770 H 1169.84 -2.81363 1.40292 0
M  V30 12771 N 1173.61 -1.56489 0.186789 0
M  V30 12772 C 1174.54 -2.14583 -0.776487 0
M  V30 12773 C 1175.52 -1.0802 -1.21534 0
M  V30 12774 O 1176.71 -1.36085 -1.30434 0
M  V30 12775 C 1173.83 -2.69798 -2.04761 0
M  V30 12776 C 1172.88 -3.88874 -1.75155 0
M  V30 12777 S 1173.71 -5.27763 -0.907026 0
M  V30 12778 C 1174.87 -5.86393 -2.18847 0
M  V30 12779 H 1175.1 -2.95954 -0.282602 0
M  V30 12780 H 1172.63 -1.54374 -0.0280989 0
M  V30 12781 H 1174.59 -3.02254 -2.77764 0
M  V30 12782 H 1173.25 -1.88484 -2.51262 0
M  V30 12783 H 1172.45 -4.25888 -2.69509 0
M  V30 12784 H 1172.05 -3.57384 -1.10239 0
M  V30 12785 H 1174.34 -6.00249 -3.14177 0
M  V30 12786 H 1175.28 -6.83159 -1.86278 0
M  V30 12787 H 1175.69 -5.14931 -2.31314 0
M  V30 12788 N 1175.09 0.086862 -1.5736 0
M  V30 12789 C 1176.02 1.10538 -2.05678 0
M  V30 12790 C 1177 1.41281 -0.947293 0
M  V30 12791 O 1178.19 1.51169 -1.21908 0
M  V30 12792 C 1175.32 2.42302 -2.48812 0
M  V30 12793 C 1174.27 2.25948 -3.63499 0
M  V30 12794 C 1173.6 3.62961 -3.92637 0
M  V30 12795 C 1174.9 1.69319 -4.94094 0
M  V30 12796 H 1176.59 0.703371 -2.91021 0
M  V30 12797 H 1174.14 0.336895 -1.40004 0
M  V30 12798 H 1176.09 3.13833 -2.81224 0
M  V30 12799 H 1174.81 2.84454 -1.60479 0
M  V30 12800 H 1173.47 1.5686 -3.31347 0
M  V30 12801 H 1173.12 4.02656 -3.01459 0
M  V30 12802 H 1172.82 3.52862 -4.69853 0
M  V30 12803 H 1174.34 4.35946 -4.27531 0
M  V30 12804 H 1175.76 2.30699 -5.24834 0
M  V30 12805 H 1174.15 1.69957 -5.7553 0
M  V30 12806 H 1175.22 0.653318 -4.80479 0
M  V30 12807 N 1176.57 1.53483 0.357892 0
M  V30 12808 C 1177.98 1.61641 0.934289 0
M  V30 12809 C 1178.33 0.488655 1.90017 0
M  V30 12810 O 1177.45 -0.38378 2.1297 0
M  V30 12811 C 1178.05 2.92987 1.7013 0
M  V30 12812 C 1176.61 3.03456 2.22692 0
M  V30 12813 C 1175.76 2.56992 1.04165 0
M  V30 12814 H 1178.71 1.58112 0.136452 0
M  V30 12815 H 1178.73 2.81221 2.5631 0
M  V30 12816 H 1178.24 3.75047 0.998056 0
M  V30 12817 H 1176.34 2.25999 2.96235 0
M  V30 12818 H 1176.45 4.08673 2.50046 0
M  V30 12819 H 1174.82 2.12052 1.41088 0
M  V30 12820 H 1175.6 3.41477 0.353272 0
M  V30 12821 N 1178.05 -0.61812 1.44973 0
M  V30 12822 C 1178.99 -1.72942 1.52838 0
M  V30 12823 C 1179.96 -1.6181 0.375056 0
M  V30 12824 O 1181.15 -1.81544 0.587075 0
M  V30 12825 C 1178.29 -3.11228 1.49101 0
M  V30 12826 C 1177.4 -3.33243 2.74906 0
M  V30 12827 C 1176.54 -4.61574 2.62912 0
M  V30 12828 C 1175.57 -4.76811 3.8382 0
M  V30 12829 N 1174.71 -5.96432 3.70424 0
M  V30 12830 H 1179.55 -1.65556 2.47781 0
M  V30 12831 H 1177.09 -0.807411 1.2296 0
M  V30 12832 H 1179.05 -3.9122 1.44923 0
M  V30 12833 H 1177.68 -3.17598 0.577163 0
M  V30 12834 H 1176.73 -2.471 2.89216 0
M  V30 12835 H 1178.04 -3.40377 3.64616 0
M  V30 12836 H 1177.19 -5.49746 2.56641 0
M  V30 12837 H 1175.93 -4.5682 1.70784 0
M  V30 12838 H 1174.94 -3.87066 3.90461 0
M  V30 12839 H 1176.16 -4.83371 4.77001 0
M  V30 12840 H 1174.11 -5.92742 2.81057 0
M  V30 12841 H 1174.03 -6.0468 4.5376 0
M  V30 12842 H 1175.29 -6.8713 3.68067 0
M  V30 12843 N 1179.52 -1.32087 -0.859693 0
M  V30 12844 C 1180.77 -1.22542 -1.6159 0
M  V30 12845 C 1181.1 0.213533 -1.93022 0
M  V30 12846 O 1180.38 1.14931 -1.56911 0
M  V30 12847 C 1180.66 -2.08004 -2.93949 0
M  V30 12848 C 1180.51 -3.60252 -2.6933 0
M  V30 12849 C 1181.83 -1.93732 -3.95166 0
M  V30 12850 H 1178.95 -0.446504 -0.586347 0
M  V30 12851 H 1181.59 -1.61982 -0.993064 0
M  V30 12852 H 1179.74 -1.74498 -3.47106 0
M  V30 12853 H 1181.42 -4.03947 -2.22766 0
M  V30 12854 H 1179.66 -3.83169 -2.03382 0
M  V30 12855 H 1180.33 -4.1537 -3.63555 0
M  V30 12856 H 1182.81 -2.23075 -3.5125 0
M  V30 12857 H 1181.68 -2.55815 -4.85644 0
M  V30 12858 H 1181.94 -0.903528 -4.32769 0
M  V30 12859 N 1181 1.07532 -1.15215 0
M  V30 12860 C 1182.25 1.79474 -0.920439 0
M  V30 12861 C 1182.56 1.87593 0.553926 0
M  V30 12862 O 1183.77 2.56037 0.903169 0
M  V30 12863 C 1182.23 3.22509 -1.59738 0
M  V30 12864 C 1181.83 3.22596 -3.10863 0
M  V30 12865 C 1183.58 3.99072 -1.44714 0
M  V30 12866 C 1181.48 4.60273 -3.71352 0
M  V30 12867 H 1180.41 0.672625 -0.340722 0
M  V30 12868 H 1183.07 1.2071 -1.38208 0
M  V30 12869 H 1181.45 3.81454 -1.06342 0
M  V30 12870 H 1182.62 2.73306 -3.70999 0
M  V30 12871 H 1180.94 2.5953 -3.25627 0
M  V30 12872 H 1183.53 5.00823 -1.87299 0
M  V30 12873 H 1183.88 4.14428 -0.394386 0
M  V30 12874 H 1184.41 3.46617 -1.95195 0
M  V30 12875 H 1181.15 4.50122 -4.76519 0
M  V30 12876 H 1180.67 5.09809 -3.15998 0
M  V30 12877 H 1182.35 5.29243 -3.7217 0
M  V30 12878 N 1182.48 0.948665 1.2585 0
M  V30 12879 C 1183.76 0.517832 1.88621 0
M  V30 12880 C 1184.14 -1.00477 1.85654 0
M  V30 12881 O 1183.49 -1.868 1.31598 0
M  V30 12882 C 1183.7 1.08768 3.31618 0
M  V30 12883 C 1185.04 1.16089 4.08422 0
M  V30 12884 O 1186.07 1.0388 3.40716 0
M  V30 12885 O 1184.93 1.35172 5.29519 0
M  V30 12886 H 1182.02 0.169916 0.809356 0
M  V30 12887 H 1184.57 1.04171 1.33964 0
M  V30 12888 H 1183.34 2.13109 3.28177 0
M  V30 12889 H 1182.96 0.54669 3.93824 0
M  V30 12890 N 1183.96 -1.40369 0.716545 0
M  V30 12891 C 1184.87 -2.34508 0.065658 0
M  V30 12892 C 1185.88 -1.57352 -0.742723 0
M  V30 12893 O 1187.06 -1.89735 -0.675456 0
M  V30 12894 C 1184.13 -3.36262 -0.844337 0
M  V30 12895 C 1183.19 -4.29292 -0.0257971 0
M  V30 12896 C 1182.42 -5.26185 -0.892452 0
M  V30 12897 O 1182.64 -5.29071 -2.13166 0
M  V30 12898 O 1181.58 -6.0099 -0.330933 0
M  V30 12899 H 1185.4 -2.91789 0.842184 0
M  V30 12900 H 1182.99 -1.41579 0.477034 0
M  V30 12901 H 1184.87 -3.98661 -1.36555 0
M  V30 12902 H 1183.54 -2.81393 -1.59999 0
M  V30 12903 H 1182.45 -3.70175 0.540512 0
M  V30 12904 H 1183.78 -4.87316 0.69166 0
M  V30 12905 N 1185.44 -0.462799 -1.50652 0
M  V30 12906 C 1186.37 0.325724 -2.31217 0
M  V30 12907 C 1187.35 0.997942 -1.3775 0
M  V30 12908 O 1188.53 0.996707 -1.66671 0
M  V30 12909 C 1185.66 1.41283 -3.17264 0
M  V30 12910 C 1184.62 0.862687 -4.19216 0
M  V30 12911 C 1183.94 2.04746 -4.93946 0
M  V30 12912 C 1185.24 -0.120365 -5.22161 0
M  V30 12913 H 1186.94 -0.346666 -2.97386 0
M  V30 12914 H 1184.48 -0.168163 -1.43015 0
M  V30 12915 H 1186.44 1.97188 -3.72418 0
M  V30 12916 H 1185.16 2.11387 -2.48964 0
M  V30 12917 H 1183.82 0.325671 -3.65151 0
M  V30 12918 H 1183.47 2.73529 -4.22127 0
M  V30 12919 H 1183.17 1.68562 -5.62904 0
M  V30 12920 H 1184.69 2.61157 -5.51932 0
M  V30 12921 H 1186.1 0.349226 -5.72235 0
M  V30 12922 H 1184.5 -0.396061 -5.98792 0
M  V30 12923 H 1185.57 -1.04895 -4.73418 0
M  V30 12924 N 1186.91 1.56388 -0.195085 0
M  V30 12925 C 1187.86 2.20431 0.742484 0
M  V30 12926 C 1188.86 1.17548 1.21979 0
M  V30 12927 O 1190.06 1.35693 1.18269 0
M  V30 12928 H 1186.44 0.706435 0.257786 0
M  V30 12929 H 1188.41 2.97865 0.178624 0
M  V30 12930 C 1187.16 2.87772 1.95147 0
M  V30 12931 H 1186.48 3.66681 1.59326 0
M  V30 12932 H 1187.92 3.36021 2.58585 0
M  V30 12933 C 1186.38 1.88807 2.79022 0
M  V30 12934 O 1186.91 1.38836 3.76945 0
M  V30 12935 N 1185.12 1.57037 2.44515 0
M  V30 12936 H 1184.66 1.97868 1.64943 0
M  V30 12937 H 1184.62 0.910776 3.00919 0
M  V30 12938 N 1188.39 -0.0785156 1.57404 0
M  V30 12939 C 1189.3 -1.11203 2.0657 0
M  V30 12940 C 1190.32 -1.42822 0.993872 0
M  V30 12941 O 1191.49 -1.53133 1.30814 0
M  V30 12942 C 1188.56 -2.40812 2.4942 0
M  V30 12943 C 1187.62 -2.16225 3.70871 0
M  V30 12944 C 1186.85 -3.39654 4.11668 0
M  V30 12945 O 1187.08 -4.48521 3.524 0
M  V30 12946 O 1186.01 -3.28263 5.04507 0
M  V30 12947 H 1189.84 -0.724381 2.94935 0
M  V30 12948 H 1187.42 -0.292184 1.46515 0
M  V30 12949 H 1189.3 -3.17101 2.77534 0
M  V30 12950 H 1187.98 -2.7897 1.64187 0
M  V30 12951 H 1186.89 -1.37663 3.4785 0
M  V30 12952 H 1188.22 -1.82951 4.56935 0
M  V30 12953 N 1189.87 -1.5367 -0.349747 0
M  V30 12954 C 1191.12 -1.70618 -1.09068 0
M  V30 12955 C 1191.45 -0.466133 -1.88832 0
M  V30 12956 O 1190.7 0.552079 -1.87751 0
M  V30 12957 C 1191 -2.91753 -2.06434 0
M  V30 12958 C 1190.67 -4.27614 -1.43029 0
M  V30 12959 C 1189.33 -4.64555 -1.25466 0
M  V30 12960 C 1191.68 -5.12037 -0.972987 0
M  V30 12961 C 1189.01 -5.83543 -0.607807 0
M  V30 12962 C 1191.36 -6.31685 -0.340073 0
M  V30 12963 C 1190.02 -6.67327 -0.152069 0
M  V30 12964 H 1189.29 -0.624334 -0.399108 0
M  V30 12965 H 1191.94 -1.87879 -0.370657 0
M  V30 12966 H 1190.25 -2.6907 -2.84796 0
M  V30 12967 H 1191.94 -3.02059 -2.63744 0
M  V30 12968 H 1188.53 -3.98535 -1.57696 0
M  V30 12969 H 1192.72 -4.84035 -1.09655 0
M  V30 12970 H 1187.97 -6.09737 -0.450705 0
M  V30 12971 H 1192.15 -6.96396 0.0223973 0
M  V30 12972 H 1189.77 -7.59388 0.35121 0
M  V30 12973 N 1191.35 0.610423 -1.45298 0
M  V30 12974 C 1192.63 1.36966 -1.39641 0
M  V30 12975 C 1193.01 2.10998 -0.0655757 0
M  V30 12976 O 1192.35 2.07705 0.952407 0
M  V30 12977 C 1192.56 2.31885 -2.60826 0
M  V30 12978 C 1193.91 2.9458 -3.05791 0
M  V30 12979 O 1194.94 2.42207 -2.61179 0
M  V30 12980 O 1193.79 3.89639 -3.83202 0
M  V30 12981 H 1190.89 0.61401 -0.554004 0
M  V30 12982 H 1193.43 0.633748 -1.57422 0
M  V30 12983 H 1192.21 1.76421 -3.49272 0
M  V30 12984 H 1191.83 3.12861 -2.45364 0
M  V30 12985 N 1192.83 1.32541 0.852676 0
M  V30 12986 C 1194.24 1.11575 1.14119 0
M  V30 12987 C 1194.44 -0.102469 2.01239 0
M  V30 12988 O 1193.5 -0.786786 2.39929 0
M  V30 12989 C 1194.81 2.39624 1.81661 0
M  V30 12990 C 1196.36 2.454 1.94288 0
M  V30 12991 C 1196.83 3.73375 2.65245 0
M  V30 12992 N 1198.33 3.74368 2.72769 0
M  V30 12993 C 1199.06 4.70094 3.28328 0
M  V30 12994 N 1198.56 5.76187 3.84682 0
M  V30 12995 N 1200.35 4.57588 3.26449 0
M  V30 12996 H 1192.5 2.10644 0.272544 0
M  V30 12997 H 1194.76 0.930094 0.183385 0
M  V30 12998 H 1194.47 3.28698 1.25102 0
M  V30 12999 H 1194.34 2.50734 2.81802 0
M  V30 13000 H 1196.73 1.56784 2.50005 0
M  V30 13001 H 1196.81 2.38241 0.931379 0
M  V30 13002 H 1196.46 4.62366 2.10191 0
M  V30 13003 H 1196.39 3.77806 3.66838 0
M  V30 13004 H 1198.88 2.97685 2.32791 0
M  V30 13005 H 1199.19 6.45285 4.25238 0
M  V30 13006 H 1197.53 5.79939 3.83008 0
M  V30 13007 H 1200.73 3.7387 2.81672 0
M  V30 13008 H 1200.9 5.32365 3.69448 0
M  V30 13009 N 1194.3 -1.0692 1.15784 0
M  V30 13010 C 1195.25 -2.16335 0.854506 0
M  V30 13011 C 1196.25 -1.68505 -0.173868 0
M  V30 13012 O 1197.45 -1.79977 -0.0284722 0
M  V30 13013 H 1193.83 -0.706103 0.258694 0
M  V30 13014 H 1195.8 -2.39135 1.78486 0
M  V30 13015 C 1194.55 -3.45778 0.365042 0
M  V30 13016 H 1193.87 -3.82971 1.14776 0
M  V30 13017 H 1195.31 -4.23567 0.191504 0
M  V30 13018 C 1193.77 -3.24258 -0.914253 0
M  V30 13019 O 1194.3 -3.49236 -1.98487 0
M  V30 13020 N 1192.51 -2.77722 -0.855501 0
M  V30 13021 H 1192.05 -2.57595 0.0159233 0
M  V30 13022 H 1192.01 -2.63702 -1.71198 0
M  V30 13023 N 1195.78 -0.955326 -1.25345 0
M  V30 13024 C 1197.01 -0.627693 -1.97149 0
M  V30 13025 C 1197.43 0.800349 -1.70997 0
M  V30 13026 O 1196.78 1.53545 -0.986417 0
M  V30 13027 C 1196.83 -0.877675 -3.50684 0
M  V30 13028 O 1196.55 -2.24957 -3.75934 0
M  V30 13029 C 1198.06 -0.562524 -4.39716 0
M  V30 13030 H 1195.28 -0.235269 -0.628402 0
M  V30 13031 H 1197.82 -1.27989 -1.59496 0
M  V30 13032 H 1195.97 -0.271878 -3.86445 0
M  V30 13033 H 1196.39 -2.32022 -4.70389 0
M  V30 13034 H 1197.86 -0.787972 -5.46347 0
M  V30 13035 H 1198.34 0.50293 -4.36311 0
M  V30 13036 H 1198.95 -1.14767 -4.09522 0
M  V30 13037 N 1197.26 1.39987 -0.723979 0
M  V30 13038 C 1198.21 2.30672 -0.0768286 0
M  V30 13039 C 1199.18 1.48634 0.741422 0
M  V30 13040 O 1200.36 1.77351 0.703649 0
M  V30 13041 C 1197.5 3.34902 0.832729 0
M  V30 13042 C 1196.62 4.32 0.00304942 0
M  V30 13043 C 1195.75 5.23298 0.91286 0
M  V30 13044 C 1194.79 6.12051 0.0777706 0
M  V30 13045 N 1193.93 6.9574 0.942912 0
M  V30 13046 H 1198.77 2.85446 -0.855832 0
M  V30 13047 H 1196.3 1.40561 -0.433718 0
M  V30 13048 H 1198.26 3.93911 1.37441 0
M  V30 13049 H 1196.89 2.81611 1.57782 0
M  V30 13050 H 1195.94 3.74702 -0.655916 0
M  V30 13051 H 1197.26 4.94637 -0.643124 0
M  V30 13052 H 1196.41 5.87279 1.52277 0
M  V30 13053 H 1195.15 4.60956 1.59284 0
M  V30 13054 H 1194.15 5.47092 -0.545022 0
M  V30 13055 H 1195.38 6.76455 -0.598827 0
M  V30 13056 H 1193.33 6.35977 1.60838 0
M  V30 13057 H 1193.24 7.55176 0.352968 0
M  V30 13058 H 1194.51 7.64162 1.53874 0
M  V30 13059 N 1198.74 0.470782 1.50404 0
M  V30 13060 C 1199.7 -0.312227 2.27063 0
M  V30 13061 C 1200.7 -0.920709 1.31832 0
M  V30 13062 O 1201.89 -0.789937 1.5526 0
M  V30 13063 C 1199.02 -1.44477 3.0877 0
M  V30 13064 H 1200.22 0.36006 2.97731 0
M  V30 13065 H 1197.77 0.224837 1.54674 0
M  V30 13066 H 1198.51 -2.15212 2.42599 0
M  V30 13067 H 1198.29 -1.01426 3.78755 0
M  V30 13068 H 1199.78 -1.99713 3.66749 0
M  V30 13069 N 1200.22 -1.56282 0.203376 0
M  V30 13070 C 1201.16 -2.19473 -0.714164 0
M  V30 13071 C 1202.13 -1.14454 -1.20372 0
M  V30 13072 O 1203.32 -1.42739 -1.26611 0
M  V30 13073 C 1200.46 -2.86451 -1.92457 0
M  V30 13074 C 1199.57 -4.06017 -1.47561 0
M  V30 13075 C 1198.71 -4.60829 -2.64216 0
M  V30 13076 C 1197.75 -5.72734 -2.15967 0
M  V30 13077 N 1196.88 -6.21916 -3.25829 0
M  V30 13078 H 1201.72 -2.97523 -0.168558 0
M  V30 13079 H 1199.26 -1.46926 -0.0714525 0
M  V30 13080 H 1201.22 -3.23459 -2.63496 0
M  V30 13081 H 1199.85 -2.10951 -2.44335 0
M  V30 13082 H 1198.9 -3.74617 -0.660784 0
M  V30 13083 H 1200.21 -4.8693 -1.08168 0
M  V30 13084 H 1199.37 -5.00185 -3.43366 0
M  V30 13085 H 1198.11 -3.7904 -3.06887 0
M  V30 13086 H 1197.11 -5.32899 -1.35273 0
M  V30 13087 H 1198.34 -6.56346 -1.74316 0
M  V30 13088 H 1196.28 -5.43047 -3.68016 0
M  V30 13089 H 1196.2 -6.97904 -2.90631 0
M  V30 13090 H 1197.47 -6.65927 -4.05168 0
M  V30 13091 N 1201.7 0.070167 -1.57444 0
M  V30 13092 C 1202.63 1.08351 -2.06839 0
M  V30 13093 C 1203.61 1.40269 -0.962224 0
M  V30 13094 O 1204.79 1.49867 -1.23505 0
M  V30 13095 C 1201.92 2.39649 -2.51368 0
M  V30 13096 C 1200.88 2.22079 -3.65875 0
M  V30 13097 C 1200.2 3.58776 -3.96464 0
M  V30 13098 C 1201.5 1.64069 -4.95862 0
M  V30 13099 H 1203.2 0.672465 -2.9175 0
M  V30 13100 H 1200.74 0.322027 -1.40353 0
M  V30 13101 H 1202.69 3.10833 -2.84537 0
M  V30 13102 H 1201.42 2.82736 -1.63487 0
M  V30 13103 H 1200.08 1.53337 -3.32992 0
M  V30 13104 H 1199.73 3.99436 -3.05712 0
M  V30 13105 H 1199.43 3.47859 -4.7357 0
M  V30 13106 H 1200.95 4.31387 -4.32131 0
M  V30 13107 H 1202.36 2.2512 -5.27251 0
M  V30 13108 H 1200.76 1.63843 -5.773 0
M  V30 13109 H 1201.83 0.60232 -4.81145 0
M  V30 13110 N 1203.17 1.53854 0.341593 0
M  V30 13111 C 1204.42 1.7041 1.07905 0
M  V30 13112 C 1204.74 0.475039 1.89744 0
M  V30 13113 O 1205.94 0.521589 2.66443 0
M  V30 13114 C 1204.4 3.01342 1.96776 0
M  V30 13115 C 1204.01 4.31592 1.20135 0
M  V30 13116 C 1205.75 3.27264 2.70367 0
M  V30 13117 C 1203.66 5.53598 2.08047 0
M  V30 13118 H 1202.59 0.635005 0.406553 0
M  V30 13119 H 1205.24 1.80353 0.338409 0
M  V30 13120 H 1203.62 2.85261 2.74667 0
M  V30 13121 H 1204.79 4.58382 0.471404 0
M  V30 13122 H 1203.11 4.12298 0.583039 0
M  V30 13123 H 1205.71 4.15607 3.36415 0
M  V30 13124 H 1206.05 2.44357 3.37039 0
M  V30 13125 H 1206.58 3.4413 1.99548 0
M  V30 13126 H 1203.32 6.39053 1.45914 0
M  V30 13127 H 1202.84 5.31052 2.78825 0
M  V30 13128 H 1204.52 5.89314 2.67055 0
M  V30 13129 N 1204.65 -0.602709 1.4562 0
M  V30 13130 C 1205.6 -1.73425 1.55005 0
M  V30 13131 C 1206.59 -1.64118 0.419713 0
M  V30 13132 O 1207.8 -1.69853 0.595815 0
M  V30 13133 H 1204.17 -0.573038 0.486962 0
M  V30 13134 H 1206.15 -1.62637 2.50184 0
M  V30 13135 C 1204.89 -3.11808 1.53853 0
M  V30 13136 H 1204.22 -3.19631 2.40158 0
M  V30 13137 H 1205.66 -3.90798 1.64477 0
M  V30 13138 C 1204.12 -3.35866 0.263765 0
M  V30 13139 O 1204.65 -3.96334 -0.654364 0
M  V30 13140 N 1202.85 -2.90171 0.157927 0
M  V30 13141 H 1202.4 -2.41144 0.905944 0
M  V30 13142 H 1202.36 -3.06641 -0.694175 0
M  V30 13143 N 1206.13 -1.32992 -0.845635 0
M  V30 13144 C 1207.06 -1.25301 -1.97033 0
M  V30 13145 C 1208.04 -0.134966 -1.69564 0
M  V30 13146 O 1209.23 -0.323629 -1.91484 0
M  V30 13147 C 1206.36 -0.984551 -3.33052 0
M  V30 13148 C 1205.31 -2.06481 -3.749 0
M  V30 13149 C 1204.64 -1.6486 -5.08651 0
M  V30 13150 C 1205.94 -3.48083 -3.89404 0
M  V30 13151 H 1207.63 -2.194 -2.03725 0
M  V30 13152 H 1205.18 -1.05621 -0.978783 0
M  V30 13153 H 1207.13 -0.917269 -4.11296 0
M  V30 13154 H 1205.85 -0.00793116 -3.26599 0
M  V30 13155 H 1204.51 -2.1224 -2.98915 0
M  V30 13156 H 1204.16 -0.659183 -4.98662 0
M  V30 13157 H 1203.86 -2.37145 -5.37621 0
M  V30 13158 H 1205.38 -1.59585 -5.89377 0
M  V30 13159 H 1206.8 -3.44863 -4.57976 0
M  V30 13160 H 1205.19 -4.18796 -4.29802 0
M  V30 13161 H 1206.26 -3.87084 -2.92051 0
M  V30 13162 N 1207.61 1.06304 -1.1635 0
M  V30 13163 C 1208.86 1.78487 -0.939423 0
M  V30 13164 C 1209.17 1.8817 0.533998 0
M  V30 13165 O 1210.38 2.56981 0.875962 0
M  V30 13166 C 1208.83 3.20796 -1.63149 0
M  V30 13167 C 1208.44 3.19281 -3.14267 0
M  V30 13168 C 1210.18 3.97514 -1.48938 0
M  V30 13169 C 1208.09 4.56309 -3.76213 0
M  V30 13170 H 1207.02 0.668973 -0.347837 0
M  V30 13171 H 1209.67 1.19237 -1.3948 0
M  V30 13172 H 1208.05 3.80305 -1.10382 0
M  V30 13173 H 1209.23 2.69356 -3.73877 0
M  V30 13174 H 1207.54 2.56062 -3.28362 0
M  V30 13175 H 1210.14 4.98808 -1.926 0
M  V30 13176 H 1210.48 4.13986 -0.438319 0
M  V30 13177 H 1211.02 3.44528 -1.98861 0
M  V30 13178 H 1207.75 4.45042 -4.81267 0
M  V30 13179 H 1207.27 5.06429 -3.21388 0
M  V30 13180 H 1208.95 5.25266 -3.77762 0
M  V30 13181 N 1209.09 0.96196 1.24836 0
M  V30 13182 C 1210.36 0.537809 1.88061 0
M  V30 13183 C 1210.74 -0.985023 1.8671 0
M  V30 13184 O 1210.09 -1.85394 1.33572 0
M  V30 13185 C 1210.3 1.12279 3.30446 0
M  V30 13186 C 1211.65 1.20414 4.07168 0
M  V30 13187 O 1212.67 1.07488 3.39595 0
M  V30 13188 O 1211.53 1.4078 5.28056 0
M  V30 13189 H 1208.63 0.178491 0.807509 0
M  V30 13190 H 1211.17 1.05586 1.32852 0
M  V30 13191 H 1209.94 2.16578 3.25898 0
M  V30 13192 H 1209.57 0.58843 3.93222 0
M  V30 13193 N 1210.56 -1.39601 0.731392 0
M  V30 13194 C 1211.79 -2.05411 0.286532 0
M  V30 13195 C 1212.21 -1.54777 -1.06892 0
M  V30 13196 O 1211.57 -0.689942 -1.67659 0
M  V30 13197 C 1211.62 -3.594 0.293914 0
M  V30 13198 O 1210.72 -4.06072 -0.719657 0
M  V30 13199 H 1210.06 -0.650949 0.131004 0
M  V30 13200 H 1212.59 -1.78703 0.996305 0
M  V30 13201 H 1212.6 -4.0777 0.137052 0
M  V30 13202 H 1211.28 -3.95617 1.28298 0
M  V30 13203 H 1209.86 -3.69125 -0.529226 0
M  V30 13204 N 1212.04 -0.478751 -1.50152 0
M  V30 13205 C 1212.99 0.330224 -2.25596 0
M  V30 13206 C 1213.98 0.954871 -1.29503 0
M  V30 13207 O 1215.17 0.866153 -1.54359 0
M  V30 13208 C 1212.3 1.40719 -3.13134 0
M  V30 13209 C 1211.38 0.789896 -4.16679 0
M  V30 13210 N 1211.77 -0.094345 -5.05712 0
M  V30 13211 C 1210.07 1.05299 -4.33391 0
M  V30 13212 C 1210.77 -0.445458 -5.79992 0
M  V30 13213 N 1209.75 0.181237 -5.43298 0
M  V30 13214 H 1213.55 -0.350824 -2.91799 0
M  V30 13215 H 1211.07 -0.293386 -1.59728 0
M  V30 13216 H 1213.06 1.99999 -3.65795 0
M  V30 13217 H 1211.72 2.09015 -2.48481 0
M  V30 13218 H 1212.73 -0.463695 -5.1582 0
M  V30 13219 H 1209.41 1.73036 -3.79954 0
M  V30 13220 H 1210.8 -1.16754 -6.61678 0
M  V30 13221 N 1213.52 1.56172 -0.211661 0
M  V30 13222 C 1214.47 2.21206 0.719063 0
M  V30 13223 C 1215.46 1.18835 1.20725 0
M  V30 13224 O 1216.67 1.36939 1.16823 0
M  V30 13225 H 1213.04 0.709129 0.250279 0
M  V30 13226 H 1215.01 2.98038 0.147022 0
M  V30 13227 C 1213.76 2.89826 1.92084 0
M  V30 13228 H 1213.09 3.68351 1.55428 0
M  V30 13229 H 1214.53 3.38744 2.55006 0
M  V30 13230 C 1212.99 1.91756 2.77004 0
M  V30 13231 O 1213.52 1.42826 3.75451 0
M  V30 13232 N 1211.72 1.59622 2.42836 0
M  V30 13233 H 1211.27 1.99606 1.62835 0
M  V30 13234 H 1211.23 0.942641 2.99936 0
M  V30 13235 N 1215 -0.0618163 1.57479 0
M  V30 13236 C 1216.25 -0.75794 1.86918 0
M  V30 13237 C 1216.56 -1.78234 0.80572 0
M  V30 13238 O 1217.77 -2.52874 0.98827 0
M  V30 13239 C 1216.22 -1.39898 3.31597 0
M  V30 13240 C 1215.83 -0.412621 4.46096 0
M  V30 13241 C 1217.57 -2.07688 3.70224 0
M  V30 13242 C 1215.48 -1.06014 5.8182 0
M  V30 13243 H 1214.41 -0.286825 0.697314 0
M  V30 13244 H 1217.06 -0.0114386 1.83496 0
M  V30 13245 H 1215.44 -2.19408 3.29661 0
M  V30 13246 H 1216.62 0.353392 4.59443 0
M  V30 13247 H 1214.93 0.161383 4.16087 0
M  V30 13248 H 1217.53 -2.56928 4.68927 0
M  V30 13249 H 1217.87 -2.88073 3.00532 0
M  V30 13250 H 1218.41 -1.34996 3.74194 0
M  V30 13251 H 1215.15 -0.296405 6.5483 0
M  V30 13252 H 1214.67 -1.79677 5.72255 0
M  V30 13253 H 1216.34 -1.57708 6.27485 0
M  V30 13254 N 1216.48 -1.54033 -0.333429 0
M  V30 13255 C 1217.73 -1.70979 -1.07 0
M  V30 13256 C 1218.04 -0.485095 -1.89489 0
M  V30 13257 O 1219.24 -0.535712 -2.66162 0
M  V30 13258 C 1217.7 -3.02382 -1.95175 0
M  V30 13259 C 1217.31 -4.32223 -1.17844 0
M  V30 13260 C 1219.05 -3.28693 -2.68628 0
M  V30 13261 C 1216.96 -5.54693 -2.05109 0
M  V30 13262 H 1215.89 -0.637152 -0.403179 0
M  V30 13263 H 1218.54 -1.80529 -0.328839 0
M  V30 13264 H 1216.92 -2.86714 -2.73151 0
M  V30 13265 H 1218.1 -4.58626 -0.447089 0
M  V30 13266 H 1216.41 -4.12601 -0.561166 0
M  V30 13267 H 1219.01 -4.17385 -3.34207 0
M  V30 13268 H 1219.35 -2.46141 -3.35738 0
M  V30 13269 H 1219.88 -3.45183 -1.9772 0
M  V30 13270 H 1216.62 -6.39818 -1.42523 0
M  V30 13271 H 1216.14 -5.32524 -2.76005 0
M  V30 13272 H 1217.82 -5.90722 -2.63926 0
M  V30 13273 N 1217.95 0.594978 -1.45938 0
M  V30 13274 C 1218.88 1.71536 -1.58422 0
M  V30 13275 C 1219.87 1.64441 -0.435116 0
M  V30 13276 O 1221.05 1.82647 -0.659839 0
M  V30 13277 C 1218.18 3.10163 -1.56257 0
M  V30 13278 C 1217.13 3.3208 -2.70013 0
M  V30 13279 C 1216.46 4.71108 -2.52905 0
M  V30 13280 C 1217.76 3.21105 -4.11933 0
M  V30 13281 H 1219.45 1.61344 -2.52207 0
M  V30 13282 H 1217 0.774791 -1.2138 0
M  V30 13283 H 1218.95 3.88352 -1.63587 0
M  V30 13284 H 1217.68 3.21225 -0.590093 0
M  V30 13285 H 1216.34 2.56286 -2.62132 0
M  V30 13286 H 1215.98 4.7892 -1.53768 0
M  V30 13287 H 1215.68 4.86727 -3.29197 0
M  V30 13288 H 1217.21 5.51482 -2.62107 0
M  V30 13289 H 1218.62 3.89153 -4.2099 0
M  V30 13290 H 1217.02 3.4825 -4.88715 0
M  V30 13291 H 1218.09 2.18359 -4.32952 0
M  V30 13292 N 1219.43 1.33438 0.838571 0
M  V30 13293 C 1220.68 1.25097 1.5962 0
M  V30 13294 C 1221.01 -0.182798 1.93338 0
M  V30 13295 O 1220.29 -1.1242 1.5872 0
M  V30 13296 C 1220.57 2.12655 2.90603 0
M  V30 13297 C 1220.42 3.64491 2.63565 0
M  V30 13298 C 1221.74 1.99994 3.92033 0
M  V30 13299 H 1218.86 0.455776 0.579169 0
M  V30 13300 H 1221.5 1.63542 0.967169 0
M  V30 13301 H 1219.65 1.79998 3.44286 0
M  V30 13302 H 1221.32 4.0744 2.16312 0
M  V30 13303 H 1219.57 3.86356 1.9726 0
M  V30 13304 H 1220.24 4.21101 3.569 0
M  V30 13305 H 1222.71 2.28635 3.47657 0
M  V30 13306 H 1221.59 2.63509 4.81512 0
M  V30 13307 H 1221.85 0.972263 4.31277 0
M  V30 13308 N 1220.91 -1.05686 1.16912 0
M  V30 13309 C 1222.16 -1.78244 0.95254 0
M  V30 13310 C 1222.48 -1.87924 -0.520525 0
M  V30 13311 O 1221.75 -1.39239 -1.37802 0
M  V30 13312 H 1220.33 -0.660228 0.349439 0
M  V30 13313 H 1222.99 -1.27634 1.47294 0
M  V30 13314 H 1222.09 -2.80102 1.37657 0
M  V30 13315 N 1222.39 -0.968567 -1.24324 0
M  V30 13316 C 1223.3 -0.50703 -2.29055 0
M  V30 13317 C 1224.31 0.432431 -1.68541 0
M  V30 13318 O 1225.49 0.30526 -1.99073 0
M  V30 13319 C 1222.56 0.194589 -3.46153 0
M  V30 13320 C 1221.62 -0.784805 -4.22066 0
M  V30 13321 C 1220.85 -0.116574 -5.33573 0
M  V30 13322 O 1221.07 1.09492 -5.59792 0
M  V30 13323 O 1220.01 -0.809171 -5.96436 0
M  V30 13324 H 1223.83 -1.3777 -2.70653 0
M  V30 13325 H 1221.42 -0.735645 -1.30033 0
M  V30 13326 H 1223.3 0.588684 -4.17268 0
M  V30 13327 H 1221.97 1.04021 -3.06531 0
M  V30 13328 H 1220.88 -1.22938 -3.53323 0
M  V30 13329 H 1222.21 -1.59887 -4.65507 0
M  V30 13330 N 1223.87 1.39211 -0.738786 0
M  V30 13331 C 1225.11 2.00733 -0.288817 0
M  V30 13332 C 1225.45 1.58494 1.1222 0
M  V30 13333 O 1224.72 0.815579 1.76575 0
M  V30 13334 C 1225 3.57928 -0.394956 0
M  V30 13335 C 1224.86 4.10174 -1.84601 0
M  V30 13336 C 1226.18 4.39548 0.220395 0
M  V30 13337 H 1223.29 0.729276 -0.106418 0
M  V30 13338 H 1225.94 1.65365 -0.935652 0
M  V30 13339 H 1224.09 3.88188 0.155744 0
M  V30 13340 H 1225.76 3.90618 -2.45388 0
M  V30 13341 H 1224 3.63593 -2.36607 0
M  V30 13342 H 1224.67 5.19305 -1.87152 0
M  V30 13343 H 1227.15 4.15354 -0.249098 0
M  V30 13344 H 1226.02 5.48778 0.115806 0
M  V30 13345 H 1226.29 4.22341 1.30691 0
M  V30 13346 N 1225.34 0.486708 1.49896 0
M  V30 13347 C 1226.62 -0.125183 1.95199 0
M  V30 13348 C 1227 -1.55498 1.42771 0
M  V30 13349 O 1226.35 -2.1949 0.635322 0
M  V30 13350 C 1226.56 -0.0524982 3.48961 0
M  V30 13351 C 1227.91 -0.233595 4.23957 0
M  V30 13352 O 1228.93 -0.128357 3.55969 0
M  V30 13353 O 1227.79 -0.447862 5.44662 0
M  V30 13354 H 1224.88 -0.103141 0.820543 0
M  V30 13355 H 1227.43 0.548226 1.60601 0
M  V30 13356 H 1226.2 0.945163 3.79714 0
M  V30 13357 H 1225.83 -0.766683 3.90138 0
M  V30 13358 N 1226.82 -1.56058 0.219941 0
M  V30 13359 C 1227.77 -2.20218 -0.690846 0
M  V30 13360 C 1228.74 -1.15725 -1.19151 0
M  V30 13361 O 1229.93 -1.44073 -1.2509 0
M  V30 13362 C 1227.07 -2.88477 -1.89408 0
M  V30 13363 C 1226.18 -4.07559 -1.43246 0
M  V30 13364 C 1225.31 -4.63605 -2.59314 0
M  V30 13365 C 1224.35 -5.74993 -2.0988 0
M  V30 13366 N 1223.49 -6.25337 -3.19214 0
M  V30 13367 H 1228.33 -2.97685 -0.136992 0
M  V30 13368 H 1225.87 -1.46994 -0.055865 0
M  V30 13369 H 1227.82 -3.26235 -2.60051 0
M  V30 13370 H 1226.45 -2.1353 -2.42084 0
M  V30 13371 H 1225.51 -3.75297 -0.621013 0
M  V30 13372 H 1226.82 -4.8805 -1.02997 0
M  V30 13373 H 1225.97 -5.03798 -3.38041 0
M  V30 13374 H 1224.71 -3.82274 -3.0285 0
M  V30 13375 H 1223.72 -5.34304 -1.29613 0
M  V30 13376 H 1224.94 -6.58158 -1.67345 0
M  V30 13377 H 1222.89 -5.4692 -3.62236 0
M  V30 13378 H 1222.8 -7.00947 -2.83213 0
M  V30 13379 H 1224.07 -6.70187 -3.98083 0
M  V30 13380 N 1228.3 0.053464 -1.57509 0
M  V30 13381 C 1229.23 1.06151 -2.07977 0
M  V30 13382 C 1230.21 1.3924 -0.977047 0
M  V30 13383 O 1231.4 1.48549 -1.25087 0
M  V30 13384 C 1228.53 2.36969 -2.53895 0
M  V30 13385 C 1227.48 2.18186 -3.6821 0
M  V30 13386 C 1226.81 3.54551 -4.00247 0
M  V30 13387 C 1228.11 1.588 -4.97574 0
M  V30 13388 H 1229.8 0.641483 -2.92447 0
M  V30 13389 H 1227.35 0.307122 -1.40687 0
M  V30 13390 H 1229.3 3.07797 -2.87817 0
M  V30 13391 H 1228.02 2.80986 -1.66476 0
M  V30 13392 H 1226.68 1.49796 -3.34599 0
M  V30 13393 H 1226.33 3.96171 -3.09932 0
M  V30 13394 H 1226.03 3.42816 -4.77232 0
M  V30 13395 H 1227.56 4.2678 -4.36682 0
M  V30 13396 H 1228.97 2.19515 -5.29609 0
M  V30 13397 H 1227.37 1.57711 -5.79006 0
M  V30 13398 H 1228.44 0.551254 -4.81756 0
M  V30 13399 N 1229.78 1.54207 0.325255 0
M  V30 13400 C 1230.73 1.83474 1.40021 0
M  V30 13401 C 1231.7 0.681719 1.51466 0
M  V30 13402 O 1232.88 0.92798 1.66713 0
M  V30 13403 C 1230.02 2.06624 2.76407 0
M  V30 13404 C 1229.13 3.3431 2.73607 0
M  V30 13405 C 1228.27 3.4743 4.01828 0
M  V30 13406 C 1227.31 4.68997 3.93329 0
M  V30 13407 N 1226.45 4.79052 5.13277 0
M  V30 13408 H 1231.29 2.75182 1.14363 0
M  V30 13409 H 1228.82 1.36284 0.553639 0
M  V30 13410 H 1230.78 2.18037 3.5569 0
M  V30 13411 H 1229.41 1.18209 3.00377 0
M  V30 13412 H 1228.46 3.31643 1.86324 0
M  V30 13413 H 1229.77 4.237 2.6321 0
M  V30 13414 H 1228.93 3.58376 4.89542 0
M  V30 13415 H 1227.67 2.56128 4.1503 0
M  V30 13416 H 1226.67 4.58109 3.04 0
M  V30 13417 H 1227.9 5.61681 3.81695 0
M  V30 13418 H 1225.84 3.90666 5.26988 0
M  V30 13419 H 1225.76 5.62406 5.05208 0
M  V30 13420 H 1227.03 4.94328 6.02711 0
M  V30 13421 N 1231.26 -0.58723 1.46251 0
M  V30 13422 C 1232.22 -1.67863 1.5606 0
M  V30 13423 C 1233.22 -1.54715 0.438162 0
M  V30 13424 O 1234.41 -1.59415 0.702323 0
M  V30 13425 C 1231.54 -3.07262 1.47659 0
M  V30 13426 H 1232.74 -1.60525 2.53321 0
M  V30 13427 H 1230.29 -0.804691 1.33994 0
M  V30 13428 H 1231.02 -3.20159 0.5166 0
M  V30 13429 H 1230.81 -3.18213 2.29092 0
M  V30 13430 H 1232.3 -3.8672 1.57599 0
M  V30 13431 N 1232.74 -1.33881 -0.831482 0
M  V30 13432 C 1233.68 -1.24748 -1.94182 0
M  V30 13433 C 1234.65 -0.124516 -1.65633 0
M  V30 13434 O 1235.84 -0.304045 -1.88362 0
M  V30 13435 C 1232.98 -1.00016 -3.30289 0
M  V30 13436 C 1232.09 -2.21007 -3.71187 0
M  V30 13437 C 1231.23 -1.89629 -4.962 0
M  V30 13438 C 1230.26 -3.06811 -5.29654 0
M  V30 13439 N 1229.4 -2.75372 -6.45844 0
M  V30 13440 H 1234.24 -2.19709 -2.01325 0
M  V30 13441 H 1231.78 -1.09245 -0.985081 0
M  V30 13442 H 1233.74 -0.837167 -4.08714 0
M  V30 13443 H 1232.37 -0.0872582 -3.22682 0
M  V30 13444 H 1231.42 -2.48256 -2.88224 0
M  V30 13445 H 1232.73 -3.08587 -3.91887 0
M  V30 13446 H 1231.88 -1.70016 -5.82391 0
M  V30 13447 H 1230.62 -0.992964 -4.77485 0
M  V30 13448 H 1229.63 -3.27029 -4.41964 0
M  V30 13449 H 1230.85 -3.97909 -5.50314 0
M  V30 13450 H 1228.8 -1.87607 -6.28601 0
M  V30 13451 H 1228.72 -3.56483 -6.66675 0
M  V30 13452 H 1229.98 -2.59244 -7.35128 0
M  V30 13453 N 1234.21 1.05064 -1.1747 0
M  V30 13454 C 1235.46 1.78352 -0.965311 0
M  V30 13455 C 1235.79 1.87527 0.504707 0
M  V30 13456 O 1235.07 1.376 1.37465 0
M  V30 13457 C 1235.35 3.22173 -1.60862 0
M  V30 13458 C 1235.2 3.21003 -3.15083 0
M  V30 13459 C 1236.52 4.2004 -1.31358 0
M  V30 13460 H 1233.64 0.647452 -0.352101 0
M  V30 13461 H 1236.28 1.22794 -1.44988 0
M  V30 13462 H 1234.43 3.69613 -1.19658 0
M  V30 13463 H 1236.11 2.81629 -3.65353 0
M  V30 13464 H 1234.35 2.59309 -3.47766 0
M  V30 13465 H 1235.02 4.22516 -3.55224 0
M  V30 13466 H 1237.5 3.81099 -1.6704 0
M  V30 13467 H 1236.37 5.1891 -1.78953 0
M  V30 13468 H 1236.63 4.41477 -0.234606 0
M  V30 13469 N 1235.69 0.975146 1.23809 0
M  V30 13470 C 1236.64 0.503396 2.27087 0
M  V30 13471 C 1237.63 -0.43689 1.63669 0
M  V30 13472 O 1238.84 -0.31136 1.77287 0
M  V30 13473 H 1235.21 0.144346 0.738017 0
M  V30 13474 H 1237.19 1.38627 2.64244 0
M  V30 13475 C 1235.93 -0.183682 3.47214 0
M  V30 13476 H 1235.26 0.530753 3.96261 0
M  V30 13477 H 1236.7 -0.477479 4.21303 0
M  V30 13478 C 1235.16 -1.41317 3.05829 0
M  V30 13479 O 1235.69 -2.50975 3.13647 0
M  V30 13480 N 1233.89 -1.28191 2.60798 0
M  V30 13481 H 1233.44 -0.38967 2.54636 0
M  V30 13482 H 1233.4 -2.10565 2.33473 0
M  V30 13483 N 1237.17 -1.38817 0.746158 0
M  V30 13484 C 1238.12 -2.32373 0.102785 0
M  V30 13485 C 1239.11 -1.53638 -0.713556 0
M  V30 13486 O 1240.32 -1.69223 -0.613488 0
M  V30 13487 H 1236.69 -0.751861 0.0144405 0
M  V30 13488 H 1238.66 -2.84249 0.908032 0
M  V30 13489 C 1237.41 -3.38796 -0.781827 0
M  V30 13490 H 1236.74 -3.99467 -0.163057 0
M  V30 13491 H 1238.18 -4.06682 -1.19941 0
M  V30 13492 C 1236.63 -2.76756 -1.92113 0
M  V30 13493 O 1237.16 -2.65478 -3.0147 0
M  V30 13494 N 1235.37 -2.34676 -1.71392 0
M  V30 13495 H 1234.92 -2.44049 -0.824483 0
M  V30 13496 H 1234.88 -1.93508 -2.47794 0
M  V30 13497 N 1238.65 -0.49465 -1.49636 0
M  V30 13498 C 1239.87 0.051305 -2.07337 0
M  V30 13499 C 1240.3 1.30637 -1.35335 0
M  V30 13500 O 1239.66 1.76647 -0.408126 0
M  V30 13501 C 1239.7 0.294425 -3.59396 0
M  V30 13502 O 1238.81 1.3704 -3.88965 0
M  V30 13503 H 1238.15 -0.023408 -0.663587 0
M  V30 13504 H 1240.68 -0.692451 -1.92526 0
M  V30 13505 H 1240.69 0.527854 -4.04571 0
M  V30 13506 H 1239.36 -0.622583 -4.11214 0
M  V30 13507 H 1237.94 1.12242 -3.55607 0
M  V30 13508 N 1240.13 1.55939 -0.228214 0
M  V30 13509 C 1241.37 1.98476 0.401677 0
M  V30 13510 C 1241.7 1.116 1.59297 0
M  V30 13511 O 1240.96 0.162465 1.95024 0
M  V30 13512 C 1241.25 3.46581 0.872732 0
M  V30 13513 C 1240.92 4.50416 -0.208767 0
M  V30 13514 C 1239.58 4.78534 -0.505847 0
M  V30 13515 C 1241.93 5.12656 -0.939852 0
M  V30 13516 C 1239.26 5.66171 -1.53841 0
M  V30 13517 C 1241.61 6.01412 -1.9618 0
M  V30 13518 C 1240.28 6.2787 -2.26573 0
M  V30 13519 H 1239.55 0.726276 0.146984 0
M  V30 13520 H 1242.2 1.88598 -0.332128 0
M  V30 13521 H 1240.5 3.53696 1.68541 0
M  V30 13522 H 1242.2 3.76869 1.37006 0
M  V30 13523 H 1238.79 4.28587 0.0329308 0
M  V30 13524 H 1242.97 4.90997 -0.723581 0
M  V30 13525 H 1238.23 5.84933 -1.77944 0
M  V30 13526 H 1242.4 6.48688 -2.53332 0
M  V30 13527 H 1240.03 6.95574 -3.06725 0
M  V30 13528 N 1241.6 -0.0451101 1.57535 0
M  V30 13529 C 1242.54 -1.07792 2.02271 0
M  V30 13530 C 1243.55 -1.33423 0.932854 0
M  V30 13531 O 1244.74 -1.31193 1.2104 0
M  V30 13532 C 1241.84 -2.42314 2.36933 0
M  V30 13533 C 1241.01 -2.36266 3.68099 0
M  V30 13534 C 1240.07 -3.53108 3.9013 0
M  V30 13535 O 1239.1 -3.33327 4.61391 0
M  V30 13536 N 1240.3 -4.74415 3.3453 0
M  V30 13537 H 1243.06 -0.696744 2.91489 0
M  V30 13538 H 1240.62 -0.233336 1.6021 0
M  V30 13539 H 1242.62 -3.19171 2.48821 0
M  V30 13540 H 1241.19 -2.72335 1.53468 0
M  V30 13541 H 1240.41 -1.44615 3.66715 0
M  V30 13542 H 1241.69 -2.29351 4.54175 0
M  V30 13543 H 1241.09 -4.93388 2.76739 0
M  V30 13544 H 1239.65 -5.48692 3.51825 0
M  V30 13545 N 1243.08 -1.54377 -0.317073 0
M  V30 13546 C 1244.03 -1.84948 -1.41057 0
M  V30 13547 C 1245.02 -0.721887 -1.53249 0
M  V30 13548 O 1246.23 -0.905648 -1.55557 0
M  V30 13549 H 1242.61 -0.586353 -0.470844 0
M  V30 13550 H 1244.58 -2.7638 -1.12501 0
M  V30 13551 C 1243.33 -2.09932 -2.77171 0
M  V30 13552 H 1242.65 -2.96162 -2.68566 0
M  V30 13553 H 1244.09 -2.35272 -3.52737 0
M  V30 13554 C 1242.55 -0.892855 -3.24853 0
M  V30 13555 O 1243.08 -0.105336 -4.01562 0
M  V30 13556 N 1241.28 -0.702685 -2.81976 0
M  V30 13557 H 1240.83 -1.34474 -2.19715 0
M  V30 13558 H 1240.79 0.103024 -3.14231 0
M  V30 13559 N 1244.56 0.579466 -1.4656 0
M  V30 13560 C 1245.79 1.36351 -1.55615 0
M  V30 13561 C 1246.2 1.87755 -0.198405 0
M  V30 13562 O 1245.56 1.63795 0.804834 0
M  V30 13563 C 1245.61 2.54881 -2.56355 0
M  V30 13564 O 1245.33 2.05607 -3.86856 0
M  V30 13565 C 1246.83 3.47391 -2.75381 0
M  V30 13566 H 1244.05 0.416426 -0.526147 0
M  V30 13567 H 1246.6 0.704134 -1.91995 0
M  V30 13568 H 1244.75 3.16802 -2.2297 0
M  V30 13569 H 1245.17 2.82823 -4.41714 0
M  V30 13570 H 1246.64 4.27031 -3.49783 0
M  V30 13571 H 1247.12 3.99532 -1.82403 0
M  V30 13572 H 1247.72 2.91303 -3.09875 0
M  V30 13573 N 1246.04 1.3432 0.824371 0
M  V30 13574 C 1247.29 1.25938 1.57552 0
M  V30 13575 C 1247.6 -0.169298 1.94866 0
M  V30 13576 O 1248.81 -0.375262 2.68894 0
M  V30 13577 C 1247.26 2.20757 2.84244 0
M  V30 13578 C 1246.87 3.68873 2.54237 0
M  V30 13579 C 1248.61 2.21279 3.62265 0
M  V30 13580 C 1246.52 4.55566 3.77113 0
M  V30 13581 H 1245.45 0.467832 0.591311 0
M  V30 13582 H 1248.1 1.59476 0.907724 0
M  V30 13583 H 1246.48 1.80168 3.52641 0
M  V30 13584 H 1247.66 4.17991 1.93959 0
M  V30 13585 H 1245.97 3.70784 1.89494 0
M  V30 13586 H 1248.57 2.83272 4.53499 0
M  V30 13587 H 1248.91 1.2117 3.98276 0
M  V30 13588 H 1249.45 2.60305 3.00809 0
M  V30 13589 H 1246.19 5.56605 3.46223 0
M  V30 13590 H 1245.71 4.11184 4.36678 0
M  V30 13591 H 1247.38 4.701 4.44539 0
M  V30 13592 N 1247.52 -1.0444 1.18026 0
M  V30 13593 C 1248.93 -1.5903 0.978076 0
M  V30 13594 C 1249.28 -1.90407 -0.473241 0
M  V30 13595 O 1248.4 -1.69133 -1.34992 0
M  V30 13596 C 1249 -2.88942 1.76912 0
M  V30 13597 C 1247.56 -3.40164 1.61139 0
M  V30 13598 C 1246.7 -2.13797 1.76596 0
M  V30 13599 H 1249.66 -0.871574 1.32625 0
M  V30 13600 H 1249.68 -3.59173 1.25598 0
M  V30 13601 H 1249.19 -2.66074 2.82535 0
M  V30 13602 H 1247.29 -3.68053 0.580353 0
M  V30 13603 H 1247.4 -4.14241 2.40709 0
M  V30 13604 H 1245.77 -2.24922 1.19507 0
M  V30 13605 H 1246.55 -1.93389 2.83647 0
M  V30 13606 N 1248.99 -0.981699 -1.2329 0
M  V30 13607 C 1250.24 -0.651302 -1.9174 0
M  V30 13608 C 1250.57 0.815318 -1.76587 0
M  V30 13609 O 1249.82 1.60377 -1.1215 0
M  V30 13610 C 1250.12 -0.989244 -3.43437 0
M  V30 13611 C 1249.79 -2.44629 -3.78771 0
M  V30 13612 C 1248.45 -2.84449 -3.88127 0
M  V30 13613 C 1250.8 -3.39123 -3.95784 0
M  V30 13614 C 1248.13 -4.17775 -4.11923 0
M  V30 13615 C 1250.48 -4.72095 -4.21081 0
M  V30 13616 C 1249.15 -5.11672 -4.28659 0
M  V30 13617 H 1248.42 -0.238328 -0.701627 0
M  V30 13618 H 1251.06 -1.2358 -1.46288 0
M  V30 13619 H 1249.37 -0.322677 -3.90469 0
M  V30 13620 H 1251.07 -0.711796 -3.94632 0
M  V30 13621 H 1247.66 -2.12759 -3.72064 0
M  V30 13622 H 1251.84 -3.09536 -3.87945 0
M  V30 13623 H 1247.1 -4.48043 -4.16013 0
M  V30 13624 H 1251.27 -5.45271 -4.33189 0
M  V30 13625 H 1248.9 -6.15003 -4.46851 0
M  V30 13626 N 1250.47 1.3842 -0.753509 0
M  V30 13627 C 1251.42 2.32315 -0.115107 0
M  V30 13628 C 1252.41 1.54015 0.705398 0
M  V30 13629 O 1253.62 1.69546 0.604505 0
M  V30 13630 H 1250 0.751774 -0.0184276 0
M  V30 13631 H 1251.97 2.83763 -0.923094 0
M  V30 13632 C 1250.72 3.39206 0.763849 0
M  V30 13633 H 1250.04 3.99548 0.14187 0
M  V30 13634 H 1251.48 4.07312 1.17783 0
M  V30 13635 C 1249.94 2.77771 1.90643 0
M  V30 13636 O 1250.47 2.67073 3.00058 0
M  V30 13637 N 1248.67 2.35582 1.70145 0
M  V30 13638 H 1248.22 2.44483 0.811528 0
M  V30 13639 H 1248.18 1.9482 2.46764 0
M  V30 13640 N 1251.95 0.502579 1.49372 0
M  V30 13641 C 1253.2 -0.0432341 2.01654 0
M  V30 13642 C 1253.51 -1.379 1.38719 0
M  V30 13643 O 1254.72 -2.01159 1.82338 0
M  V30 13644 C 1253.17 -0.127509 3.59674 0
M  V30 13645 C 1252.78 1.20171 4.31582 0
M  V30 13646 C 1254.53 -0.623603 4.19895 0
M  V30 13647 C 1252.43 1.07951 5.81464 0
M  V30 13648 H 1251.36 -0.0199308 0.753737 0
M  V30 13649 H 1254.01 0.642237 1.71894 0
M  V30 13650 H 1252.4 -0.877465 3.86156 0
M  V30 13651 H 1253.57 1.96508 4.16799 0
M  V30 13652 H 1251.89 1.63136 3.83113 0
M  V30 13653 H 1254.48 -0.732562 5.29658 0
M  V30 13654 H 1254.83 -1.62282 3.83367 0
M  V30 13655 H 1255.36 0.0698641 3.97739 0
M  V30 13656 H 1252.1 2.05304 6.22519 0
M  V30 13657 H 1251.62 0.357051 5.98736 0
M  V30 13658 H 1253.3 0.758885 6.42534 0
M  V30 13659 N 1253.43 -1.55816 0.23648 0
M  V30 13660 C 1254.68 -1.98686 -0.391146 0
M  V30 13661 C 1255 -1.12443 -1.58703 0
M  V30 13662 O 1254.26 -0.172805 -1.94936 0
M  V30 13663 C 1254.56 -3.47039 -0.85434 0
M  V30 13664 C 1254.22 -4.50299 0.232651 0
M  V30 13665 C 1252.89 -4.78259 0.531218 0
M  V30 13666 C 1255.24 -5.1215 0.967027 0
M  V30 13667 C 1252.57 -5.65347 1.56842 0
M  V30 13668 C 1254.92 -6.00363 1.99367 0
M  V30 13669 C 1253.58 -6.2666 2.299 0
M  V30 13670 H 1252.85 -0.727045 -0.14313 0
M  V30 13671 H 1255.5 -1.88419 0.342125 0
M  V30 13672 H 1253.8 -3.54585 -1.66663 0
M  V30 13673 H 1255.5 -3.7759 -1.35005 0
M  V30 13674 H 1252.09 -4.28599 -0.0102014 0
M  V30 13675 H 1256.27 -4.90606 0.749609 0
M  V30 13676 H 1251.53 -5.83981 1.81043 0
M  V30 13677 H 1255.7 -6.47335 2.56769 0
M  V30 13678 H 1253.33 -6.93938 3.1041 0
M  V30 13679 N 1254.91 0.036755 -1.57557 0
M  V30 13680 C 1256.13 0.744813 -1.93565 0
M  V30 13681 C 1256.56 1.68508 -0.835863 0
M  V30 13682 O 1255.91 1.80091 0.208986 0
M  V30 13683 C 1255.96 1.48461 -3.28621 0
M  V30 13684 O 1255.07 2.59739 -3.20327 0
M  V30 13685 H 1254.41 0.200866 -0.632889 0
M  V30 13686 H 1256.94 -0.00547543 -2.04599 0
M  V30 13687 H 1256.95 1.85622 -3.63329 0
M  V30 13688 H 1255.62 0.794953 -4.08232 0
M  V30 13689 H 1254.2 2.25176 -2.97237 0
M  V30 13690 N 1256.39 1.54543 0.308881 0
M  V30 13691 C 1257.62 1.77174 1.06268 0
M  V30 13692 C 1258.02 0.527461 1.81699 0
M  V30 13693 O 1257.37 -0.512027 1.7642 0
M  V30 13694 C 1257.43 2.92115 2.09545 0
M  V30 13695 C 1257.09 4.30492 1.5338 0
M  V30 13696 C 1258.09 5.1081 0.967923 0
M  V30 13697 C 1255.77 4.77074 1.5718 0
M  V30 13698 C 1257.77 6.35827 0.447517 0
M  V30 13699 C 1255.46 6.02055 1.04753 0
M  V30 13700 C 1256.45 6.81266 0.486345 0
M  V30 13701 O 1256.14 8.03894 -0.0300055 0
M  V30 13702 H 1255.87 0.594773 0.321281 0
M  V30 13703 H 1258.43 2.02289 0.356136 0
M  V30 13704 H 1256.66 2.62606 2.83857 0
M  V30 13705 H 1258.35 3.02394 2.70763 0
M  V30 13706 H 1259.11 4.7597 0.931523 0
M  V30 13707 H 1254.99 4.15453 1.998 0
M  V30 13708 H 1258.54 6.97599 0.00884212 0
M  V30 13709 H 1254.43 6.36383 1.08105 0
M  V30 13710 H 1255.2 8.18457 0.0840381 0
M  V30 13711 N 1257.86 -0.571685 1.46866 0
M  V30 13712 C 1259.09 -1.35524 1.56336 0
M  V30 13713 C 1259.51 -1.87647 0.208359 0
M  V30 13714 O 1258.86 -1.64219 -0.796136 0
M  V30 13715 C 1258.91 -2.53518 2.57703 0
M  V30 13716 O 1258.64 -2.03552 3.87941 0
M  V30 13717 C 1260.14 -3.45925 2.77219 0
M  V30 13718 H 1257.36 -0.41363 0.528348 0
M  V30 13719 H 1259.9 -0.693943 1.92366 0
M  V30 13720 H 1258.06 -3.15615 2.24647 0
M  V30 13721 H 1258.47 -2.80476 4.43208 0
M  V30 13722 H 1259.94 -4.2517 3.52043 0
M  V30 13723 H 1260.42 -3.98559 1.8452 0
M  V30 13724 H 1261.03 -2.89655 3.11416 0
M  V30 13725 N 1259.34 -1.34755 -0.817236 0
M  V30 13726 C 1260.29 -1.26816 -1.94988 0
M  V30 13727 C 1261.28 -0.165142 -1.68593 0
M  V30 13728 O 1262.49 -0.330469 -1.7694 0
M  V30 13729 H 1258.86 -0.394113 -0.640452 0
M  V30 13730 H 1260.84 -2.22528 -1.98806 0
M  V30 13731 C 1259.58 -1.04625 -3.31586 0
M  V30 13732 H 1258.91 -1.88735 -3.52447 0
M  V30 13733 H 1260.35 -1.03108 -4.11272 0
M  V30 13734 C 1258.81 0.250283 -3.35969 0
M  V30 13735 O 1259.34 1.24972 -3.81765 0
M  V30 13736 N 1257.54 0.285369 -2.89195 0
M  V30 13737 H 1257.09 -0.528528 -2.5212 0
M  V30 13738 H 1257.05 1.15261 -2.9251 0
M  V30 13739 N 1260.82 1.03812 -1.18578 0
M  V30 13740 C 1261.77 2.13994 -0.911563 0
M  V30 13741 C 1262.76 1.68907 0.129131 0
M  V30 13742 O 1263.97 1.7999 -0.0192557 0
M  V30 13743 H 1260.34 0.698996 -0.277324 0
M  V30 13744 H 1262.31 2.34318 -1.84763 0
M  V30 13745 C 1261.06 3.44689 -0.456591 0
M  V30 13746 H 1260.39 3.79793 -1.2489 0
M  V30 13747 H 1261.83 4.22911 -0.303738 0
M  V30 13748 C 1260.28 3.26568 0.827961 0
M  V30 13749 O 1260.81 3.54376 1.89158 0
M  V30 13750 N 1259.02 2.79893 0.781567 0
M  V30 13751 H 1258.57 2.57462 -0.0842145 0
M  V30 13752 H 1258.53 2.68148 1.64146 0
M  V30 13753 N 1262.3 0.988223 1.22768 0
M  V30 13754 C 1263.52 0.679426 1.95955 0
M  V30 13755 C 1263.95 -0.748483 1.72567 0
M  V30 13756 O 1263.31 -1.51097 1.00197 0
M  V30 13757 C 1263.35 0.985284 3.46878 0
M  V30 13758 O 1262.46 0.0814607 4.1232 0
M  V30 13759 H 1261.8 0.254749 0.613188 0
M  V30 13760 H 1264.33 1.32393 1.55991 0
M  V30 13761 H 1264.34 0.925198 3.97371 0
M  V30 13762 H 1263.01 2.02581 3.63227 0
M  V30 13763 H 1261.59 0.196629 3.72381 0
M  V30 13764 N 1263.78 -1.38018 0.760839 0
M  V30 13765 C 1264.71 -2.32995 0.153557 0
M  V30 13766 C 1265.69 -1.55234 -0.695448 0
M  V30 13767 O 1266.87 -1.8352 -0.635148 0
M  V30 13768 C 1264 -3.39437 -0.734811 0
M  V30 13769 C 1262.96 -4.27998 0.0120287 0
M  V30 13770 C 1262.28 -5.25359 -0.995067 0
M  V30 13771 C 1263.58 -5.08687 1.18468 0
M  V30 13772 H 1265.28 -2.8403 0.946956 0
M  V30 13773 H 1262.82 -1.36562 0.456816 0
M  V30 13774 H 1264.77 -4.0485 -1.16938 0
M  V30 13775 H 1263.5 -2.86901 -1.56061 0
M  V30 13776 H 1262.16 -3.64102 0.427254 0
M  V30 13777 H 1261.81 -4.69108 -1.81512 0
M  V30 13778 H 1261.51 -5.85469 -0.499969 0
M  V30 13779 H 1263.03 -5.93648 -1.4288 0
M  V30 13780 H 1264.44 -5.67299 0.8273 0
M  V30 13781 H 1262.84 -5.78068 1.61112 0
M  V30 13782 H 1263.91 -4.42 1.99409 0
M  V30 13783 N 1265.25 -0.510493 -1.49103 0
M  V30 13784 C 1266.18 0.251999 -2.32136 0
M  V30 13785 C 1267.16 0.953613 -1.40855 0
M  V30 13786 O 1268.35 0.943178 -1.69758 0
M  V30 13787 C 1265.48 1.31118 -3.21598 0
M  V30 13788 C 1264.43 0.72888 -4.21748 0
M  V30 13789 C 1263.76 1.88928 -5.0021 0
M  V30 13790 C 1265.06 -0.286425 -5.21514 0
M  V30 13791 H 1266.75 -0.441102 -2.96133 0
M  V30 13792 H 1264.3 -0.213577 -1.42407 0
M  V30 13793 H 1266.25 1.8524 -3.78503 0
M  V30 13794 H 1264.98 2.0336 -2.55563 0
M  V30 13795 H 1263.64 0.209336 -3.66002 0
M  V30 13796 H 1263.28 2.59961 -4.30615 0
M  V30 13797 H 1262.98 1.50568 -5.67981 0
M  V30 13798 H 1264.51 2.43465 -5.59962 0
M  V30 13799 H 1265.92 0.166997 -5.73057 0
M  V30 13800 H 1264.32 -0.586361 -5.97228 0
M  V30 13801 H 1265.39 -1.19904 -4.69842 0
M  V30 13802 N 1266.73 1.55688 -0.24474 0
M  V30 13803 C 1267.68 2.21289 0.655723 0
M  V30 13804 C 1268.65 1.17606 1.17295 0
M  V30 13805 O 1269.83 1.46045 1.22782 0
M  V30 13806 C 1266.97 2.91453 1.84794 0
M  V30 13807 C 1266.09 4.09787 1.36744 0
M  V30 13808 C 1265.22 4.67672 2.51905 0
M  V30 13809 C 1264.26 5.78259 2.00706 0
M  V30 13810 N 1263.4 6.30336 3.09225 0
M  V30 13811 H 1268.24 2.97865 0.0896156 0
M  V30 13812 H 1265.77 1.47064 0.0324725 0
M  V30 13813 H 1267.73 3.30331 2.54828 0
M  V30 13814 H 1266.36 2.17355 2.38656 0
M  V30 13815 H 1265.41 3.76237 0.561228 0
M  V30 13816 H 1266.73 4.89627 0.952199 0
M  V30 13817 H 1265.88 5.09113 3.29984 0
M  V30 13818 H 1264.62 3.87044 2.9673 0
M  V30 13819 H 1263.62 5.36298 1.21097 0
M  V30 13820 H 1264.85 6.60737 1.56853 0
M  V30 13821 H 1262.8 5.52614 3.53489 0
M  V30 13822 H 1262.71 7.05364 2.72025 0
M  V30 13823 H 1263.98 6.76435 3.8737 0
M  V30 13824 N 1268.21 -0.0283989 1.57574 0
M  V30 13825 C 1269.49 -0.754527 1.80461 0
M  V30 13826 C 1269.87 -1.93539 0.842966 0
M  V30 13827 O 1269.21 -2.28212 -0.114714 0
M  V30 13828 C 1269.42 -1.18694 3.28196 0
M  V30 13829 C 1270.77 -1.60257 3.93196 0
M  V30 13830 O 1271.8 -1.2815 3.32349 0
M  V30 13831 O 1270.66 -2.19853 5.00327 0
M  V30 13832 H 1267.75 -0.364936 0.742126 0
M  V30 13833 H 1270.3 -0.00512589 1.69699 0
M  V30 13834 H 1269.07 -0.34398 3.89785 0
M  V30 13835 H 1268.69 -1.99633 3.43849 0
M  V30 13836 N 1269.69 -1.54705 -0.300681 0
M  V30 13837 C 1270.94 -1.73211 -1.03349 0
M  V30 13838 C 1271.25 -0.52518 -1.88418 0
M  V30 13839 O 1272.46 -0.592049 -2.64966 0
M  V30 13840 C 1270.91 -3.06453 -1.88717 0
M  V30 13841 C 1270.52 -4.34625 -1.0865 0
M  V30 13842 C 1272.26 -3.34317 -2.61595 0
M  V30 13843 C 1270.17 -5.58919 -1.93297 0
M  V30 13844 H 1269.1 -0.64556 -0.389574 0
M  V30 13845 H 1271.75 -1.81186 -0.290472 0
M  V30 13846 H 1270.13 -2.92443 -2.67008 0
M  V30 13847 H 1271.31 -4.59471 -0.349707 0
M  V30 13848 H 1269.62 -4.13699 -0.473521 0
M  V30 13849 H 1272.22 -4.2438 -3.25278 0
M  V30 13850 H 1272.56 -2.53207 -3.30442 0
M  V30 13851 H 1273.1 -3.493 -1.90354 0
M  V30 13852 H 1269.83 -6.42697 -1.2892 0
M  V30 13853 H 1269.35 -5.38258 -2.64647 0
M  V30 13854 H 1271.03 -5.96187 -2.51336 0
M  V30 13855 N 1271.17 0.563888 -1.47167 0
M  V30 13856 C 1272.42 1.31766 -1.5271 0
M  V30 13857 C 1272.73 1.94664 -0.191164 0
M  V30 13858 O 1273.93 2.71214 -0.124543 0
M  V30 13859 C 1272.39 2.38907 -2.69168 0
M  V30 13860 C 1272 1.8223 -4.09263 0
M  V30 13861 C 1273.74 3.15508 -2.83999 0
M  V30 13862 C 1271.65 2.87111 -5.17031 0
M  V30 13863 H 1270.58 0.495421 -0.568396 0
M  V30 13864 H 1273.23 0.599665 -1.73425 0
M  V30 13865 H 1271.61 3.13591 -2.4182 0
M  V30 13866 H 1272.79 1.13963 -4.46485 0
M  V30 13867 H 1271.1 1.18235 -3.99261 0
M  V30 13868 H 1273.7 3.93816 -3.61681 0
M  V30 13869 H 1274.04 3.69277 -1.92197 0
M  V30 13870 H 1274.57 2.47934 -3.11085 0
M  V30 13871 H 1271.31 2.38204 -6.10687 0
M  V30 13872 H 1270.83 3.53809 -4.84334 0
M  V30 13873 H 1272.51 3.50724 -5.43692 0
M  V30 13874 N 1272.64 1.35187 0.810078 0
M  V30 13875 C 1273.59 1.27848 1.94313 0
M  V30 13876 C 1274.59 0.174081 1.68503 0
M  V30 13877 O 1275.79 0.339848 1.76763 0
M  V30 13878 H 1272.17 0.397504 0.638353 0
M  V30 13879 H 1274.14 2.23579 1.97623 0
M  V30 13880 C 1272.89 1.06382 3.31026 0
M  V30 13881 H 1272.21 1.90601 3.51441 0
M  V30 13882 H 1273.65 1.05287 4.1072 0
M  V30 13883 C 1272.11 -0.232462 3.36097 0
M  V30 13884 O 1272.64 -1.22946 3.82423 0
M  V30 13885 N 1270.85 -0.270028 2.89343 0
M  V30 13886 H 1270.39 0.541891 2.51836 0
M  V30 13887 H 1270.35 -1.13708 2.93117 0
M  V30 13888 N 1274.12 -1.03182 1.19127 0
M  V30 13889 C 1275.03 -2.14875 0.94159 0
M  V30 13890 C 1276.05 -1.73727 -0.0973872 0
M  V30 13891 O 1277.22 -2.01214 0.0865775 0
M  V30 13892 C 1274.29 -3.43356 0.480366 0
M  V30 13893 C 1273.35 -3.98835 1.58838 0
M  V30 13894 C 1272.58 -5.21183 1.14907 0
M  V30 13895 O 1272.81 -5.70399 0.0114141 0
M  V30 13896 O 1271.74 -5.69423 1.95042 0
M  V30 13897 H 1275.57 -2.38799 1.8764 0
M  V30 13898 H 1273.15 -1.13299 0.973841 0
M  V30 13899 H 1275.03 -4.20763 0.231658 0
M  V30 13900 H 1273.71 -3.20884 -0.426041 0
M  V30 13901 H 1272.62 -3.22776 1.8912 0
M  V30 13902 H 1273.95 -4.25665 2.47123 0
M  V30 13903 N 1275.6 -0.99472 -1.22242 0
M  V30 13904 C 1276.83 -0.689096 -1.94769 0
M  V30 13905 C 1277.24 0.750597 -1.73674 0
M  V30 13906 O 1276.58 1.51836 -1.03399 0
M  V30 13907 C 1276.64 -0.917454 -3.47596 0
M  V30 13908 C 1276.31 -2.34198 -3.92429 0
M  V30 13909 C 1277.3 -3.3216 -3.99957 0
M  V30 13910 C 1274.99 -2.6769 -4.25026 0
M  V30 13911 C 1276.98 -4.61686 -4.3946 0
M  V30 13912 C 1274.67 -3.97435 -4.64208 0
M  V30 13913 C 1275.67 -4.94244 -4.71394 0
M  V30 13914 O 1275.36 -6.2167 -5.09688 0
M  V30 13915 H 1275.09 -0.253914 -0.626501 0
M  V30 13916 H 1277.64 -1.33271 -1.56294 0
M  V30 13917 H 1275.87 -0.21666 -3.86093 0
M  V30 13918 H 1277.56 -0.6068 -4.01339 0
M  V30 13919 H 1278.33 -3.07619 -3.74961 0
M  V30 13920 H 1274.21 -1.93039 -4.18637 0
M  V30 13921 H 1277.75 -5.37248 -4.44983 0
M  V30 13922 H 1273.65 -4.21765 -4.88656 0
M  V30 13923 H 1274.42 -6.25634 -5.27755 0
M  V30 13924 N 1277.08 1.37613 -0.768148 0
M  V30 13925 C 1278.33 1.99779 -0.330841 0
M  V30 13926 C 1278.65 1.60978 1.09162 0
M  V30 13927 O 1277.91 0.845778 1.7648 0
M  V30 13928 C 1278.21 3.54952 -0.417608 0
M  V30 13929 C 1277.87 4.13509 -1.7978 0
M  V30 13930 C 1276.54 4.29216 -2.17549 0
M  V30 13931 C 1278.89 4.45662 -2.7025 0
M  V30 13932 C 1276.22 4.74376 -3.45231 0
M  V30 13933 C 1278.57 4.92245 -3.97338 0
M  V30 13934 C 1277.23 5.06157 -4.35157 0
M  V30 13935 H 1276.5 0.731044 -0.121063 0
M  V30 13936 H 1279.15 1.64437 -0.98147 0
M  V30 13937 H 1277.45 3.90519 0.316567 0
M  V30 13938 H 1279.15 4.00954 -0.0606037 0
M  V30 13939 H 1275.74 4.01709 -1.49425 0
M  V30 13940 H 1279.92 4.33116 -2.42332 0
M  V30 13941 H 1275.18 4.83333 -3.74431 0
M  V30 13942 H 1279.35 5.16091 -4.67572 0
M  V30 13943 H 1276.98 5.4091 -5.34154 0
M  V30 13944 N 1278.56 0.518393 1.4883 0
M  V30 13945 C 1279.5 -0.264197 2.31095 0
M  V30 13946 C 1280.5 -0.946455 1.40494 0
M  V30 13947 O 1281.7 -0.872161 1.57459 0
M  V30 13948 H 1278.08 -0.104065 0.744765 0
M  V30 13949 H 1280.05 0.449375 2.94997 0
M  V30 13950 C 1278.8 -1.30527 3.2227 0
M  V30 13951 H 1278.12 -0.789695 3.91923 0
M  V30 13952 H 1279.56 -1.82449 3.82738 0
M  V30 13953 C 1278.02 -2.33274 2.43073 0
M  V30 13954 O 1278.55 -3.39493 2.14726 0
M  V30 13955 N 1276.76 -2.06189 2.04779 0
M  V30 13956 H 1276.3 -1.19829 2.28033 0
M  V30 13957 H 1276.26 -2.7516 1.521 0
M  V30 13958 N 1280.03 -1.55556 0.252993 0
M  V30 13959 C 1280.98 -2.23035 -0.660161 0
M  V30 13960 C 1281.98 -1.21994 -1.17532 0
M  V30 13961 O 1283.18 -1.39989 -1.13151 0
M  V30 13962 H 1279.56 -0.715516 -0.23139 0
M  V30 13963 H 1281.53 -2.98323 -0.0679506 0
M  V30 13964 C 1280.28 -2.94817 -1.84332 0
M  V30 13965 H 1279.6 -3.72342 -1.45607 0
M  V30 13966 H 1281.04 -3.45386 -2.45936 0
M  V30 13967 C 1279.5 -1.99033 -2.71822 0
M  V30 13968 O 1280.03 -1.5273 -3.71533 0
M  V30 13969 N 1278.24 -1.66004 -2.38518 0
M  V30 13970 H 1277.78 -2.03853 -1.57485 0
M  V30 13971 H 1277.74 -1.02183 -2.97331 0
M  V30 13972 N 1281.51 0.0200419 -1.57587 0
M  V30 13973 C 1282.76 0.708115 -1.88861 0
M  V30 13974 C 1283.07 1.76036 -0.852693 0
M  V30 13975 O 1284.28 2.50165 -1.05497 0
M  V30 13976 C 1282.74 1.31057 -3.3519 0
M  V30 13977 C 1282.34 0.294202 -4.47033 0
M  V30 13978 C 1284.09 1.97799 -3.756 0
M  V30 13979 C 1282 0.905508 -5.84427 0
M  V30 13980 H 1280.93 0.268236 -0.704674 0
M  V30 13981 H 1283.58 -0.0372162 -1.83462 0
M  V30 13982 H 1281.96 2.1059 -3.35362 0
M  V30 13983 H 1283.13 -0.475081 -4.58344 0
M  V30 13984 H 1281.45 -0.271644 -4.15513 0
M  V30 13985 H 1284.04 2.44404 -4.75574 0
M  V30 13986 H 1284.39 2.80004 -3.08064 0
M  V30 13987 H 1284.92 1.25028 -3.77641 0
M  V30 13988 H 1281.66 0.122685 -6.55385 0
M  V30 13989 H 1281.18 1.64442 -5.76818 0
M  V30 13990 H 1282.86 1.41016 -6.31446 0
M  V30 13991 N 1282.99 1.54862 0.292472 0
M  V30 13992 C 1283.94 1.87168 1.38097 0
M  V30 13993 C 1284.93 0.746176 1.52081 0
M  V30 13994 O 1286.14 0.930281 1.54097 0
M  V30 13995 H 1282.51 0.593769 0.461456 0
M  V30 13996 H 1284.48 2.78135 1.0809 0
M  V30 13997 C 1283.23 2.14315 2.73796 0
M  V30 13998 H 1282.56 3.00398 2.63821 0
M  V30 13999 H 1284 2.40853 3.48949 0
M  V30 14000 C 1282.46 0.944424 3.23392 0
M  V30 14001 O 1282.99 0.169208 4.01343 0
M  V30 14002 N 1281.19 0.747456 2.80823 0
M  V30 14003 H 1280.74 1.37953 2.17547 0
M  V30 14004 H 1280.7 -0.0530199 3.14355 0
M  V30 14005 N 1284.47 -0.556076 1.47464 0
M  V30 14006 C 1285.75 -1.31689 1.44628 0
M  V30 14007 C 1286.13 -2.10609 0.143841 0
M  V30 14008 O 1285.47 -2.11097 -0.874662 0
M  V30 14009 C 1285.68 -2.22045 2.69253 0
M  V30 14010 C 1287.03 -2.83028 3.16513 0
M  V30 14011 O 1288.06 -2.32346 2.69988 0
M  V30 14012 O 1286.91 -3.75148 3.97399 0
M  V30 14013 H 1284.01 -0.593026 0.576411 0
M  V30 14014 H 1286.55 -0.574885 1.59666 0
M  V30 14015 H 1285.33 -1.63337 3.5558 0
M  V30 14016 H 1284.95 -3.03539 2.56807 0
M  V30 14017 N 1285.95 -1.35615 -0.802897 0
M  V30 14018 C 1287.17 -1.32377 -1.59659 0
M  V30 14019 C 1287.6 0.0954235 -1.87858 0
M  V30 14020 O 1286.96 1.06336 -1.46842 0
M  V30 14021 C 1287 -2.13972 -2.90256 0
M  V30 14022 O 1286.11 -1.52296 -3.83249 0
M  V30 14023 H 1285.45 -0.453699 -0.484823 0
M  V30 14024 H 1287.98 -1.78708 -0.996217 0
M  V30 14025 H 1287.99 -2.26061 -3.39647 0
M  V30 14026 H 1286.66 -3.17145 -2.69057 0
M  V30 14027 H 1285.24 -1.49068 -3.41809 0
M  V30 14028 N 1287.43 1.02549 -1.19673 0
M  V30 14029 C 1288.37 2.109 -0.937536 0
M  V30 14030 C 1289.34 1.65599 0.128923 0
M  V30 14031 O 1290.53 1.90795 -0.0139366 0
M  V30 14032 C 1287.67 3.4166 -0.48602 0
M  V30 14033 C 1286.78 4.0049 -1.61963 0
M  V30 14034 C 1285.92 5.19273 -1.11931 0
M  V30 14035 C 1284.95 5.70166 -2.22659 0
M  V30 14036 N 1284.09 6.80221 -1.73909 0
M  V30 14037 H 1288.93 2.32408 -1.86523 0
M  V30 14038 H 1286.47 1.13982 -0.929869 0
M  V30 14039 H 1288.43 4.16693 -0.205614 0
M  V30 14040 H 1287.06 3.20253 0.404678 0
M  V30 14041 H 1286.11 3.22638 -2.01516 0
M  V30 14042 H 1287.42 4.34273 -2.45374 0
M  V30 14043 H 1286.57 6.01478 -0.794336 0
M  V30 14044 H 1285.31 4.87033 -0.254972 0
M  V30 14045 H 1284.32 4.86572 -2.55983 0
M  V30 14046 H 1285.54 6.04444 -3.09554 0
M  V30 14047 H 1283.49 6.49826 -0.897889 0
M  V30 14048 H 1283.41 7.13149 -2.50907 0
M  V30 14049 H 1284.67 7.66011 -1.44386 0
M  V30 14050 N 1288.9 1.00119 1.21713 0
M  V30 14051 C 1290.15 0.67713 1.89994 0
M  V30 14052 C 1290.47 -0.795149 1.78709 0
M  V30 14053 O 1291.67 -1.23113 2.41982 0
M  V30 14054 C 1290.13 1.16065 3.40671 0
M  V30 14055 C 1289.74 2.65874 3.60576 0
M  V30 14056 C 1291.48 0.911302 4.14603 0
M  V30 14057 C 1289.39 3.07785 5.04997 0
M  V30 14058 H 1288.32 0.249572 0.711498 0
M  V30 14059 H 1290.97 1.21185 1.37792 0
M  V30 14060 H 1289.35 0.554005 3.92106 0
M  V30 14061 H 1290.52 3.31954 3.19598 0
M  V30 14062 H 1288.84 2.88781 2.99991 0
M  V30 14063 H 1291.44 1.20004 5.2106 0
M  V30 14064 H 1291.78 -0.152495 4.16021 0
M  V30 14065 H 1292.31 1.48055 3.69222 0
M  V30 14066 H 1289.05 4.13376 5.08724 0
M  V30 14067 H 1288.57 2.46414 5.46846 0
M  V30 14068 H 1290.25 2.99552 5.73479 0
M  V30 14069 N 1290.38 -1.37203 0.775435 0
M  V30 14070 C 1291.31 -2.32819 0.17826 0
M  V30 14071 C 1292.29 -1.55963 -0.678944 0
M  V30 14072 O 1293.48 -1.84183 -0.615648 0
M  V30 14073 C 1290.61 -3.40198 -0.698768 0
M  V30 14074 C 1289.56 -4.27961 0.057423 0
M  V30 14075 C 1288.89 -5.26385 -0.93929 0
M  V30 14076 C 1290.19 -5.07402 1.23856 0
M  V30 14077 H 1291.88 -2.8301 0.977028 0
M  V30 14078 H 1289.43 -1.3607 0.471274 0
M  V30 14079 H 1291.38 -4.06067 -1.12637 0
M  V30 14080 H 1290.1 -2.88541 -1.53009 0
M  V30 14081 H 1288.76 -3.63628 0.465848 0
M  V30 14082 H 1288.41 -4.71007 -1.76527 0
M  V30 14083 H 1288.11 -5.85966 -0.437844 0
M  V30 14084 H 1289.64 -5.9513 -1.36576 0
M  V30 14085 H 1291.05 -5.6639 0.887423 0
M  V30 14086 H 1289.45 -5.76327 1.67234 0
M  V30 14087 H 1290.52 -4.3986 2.04085 0
M  V30 14088 N 1291.86 -0.526279 -1.48553 0
M  V30 14089 C 1293.08 0.00731432 -2.07399 0
M  V30 14090 C 1293.51 1.27737 -1.38075 0
M  V30 14091 O 1292.87 1.75741 -0.445503 0
M  V30 14092 C 1292.92 0.218126 -3.5994 0
M  V30 14093 O 1292.02 1.28759 -3.91784 0
M  V30 14094 H 1291.36 -0.0374784 -0.662941 0
M  V30 14095 H 1293.89 -0.733133 -1.91014 0
M  V30 14096 H 1293.9 0.44192 -4.056 0
M  V30 14097 H 1292.58 -0.709668 -4.09801 0
M  V30 14098 H 1291.15 1.04674 -3.57907 0
M  V30 14099 N 1293.34 1.5542 -0.261239 0
M  V30 14100 C 1294.27 2.24949 0.626126 0
M  V30 14101 C 1295.25 1.23474 1.16997 0
M  V30 14102 O 1296.43 1.52161 1.20667 0
M  V30 14103 C 1293.56 2.95996 1.81669 0
M  V30 14104 C 1292.52 4.04282 1.40499 0
M  V30 14105 C 1291.84 4.62831 2.67753 0
M  V30 14106 C 1293.14 5.1923 0.56543 0
M  V30 14107 H 1294.84 2.99364 0.0463164 0
M  V30 14108 H 1292.38 1.43985 0.0208366 0
M  V30 14109 H 1294.34 3.43343 2.44323 0
M  V30 14110 H 1293.06 2.19093 2.42211 0
M  V30 14111 H 1291.72 3.57726 0.801712 0
M  V30 14112 H 1291.37 3.82611 3.26524 0
M  V30 14113 H 1291.07 5.35938 2.40925 0
M  V30 14114 H 1292.59 5.12918 3.31281 0
M  V30 14115 H 1294.01 5.62714 1.09663 0
M  V30 14116 H 1292.4 5.98814 0.392607 0
M  V30 14117 H 1293.47 4.83086 -0.419059 0
M  V30 14118 N 1294.82 -0.0116844 1.57596 0
M  V30 14119 C 1295.75 -1.03477 2.04512 0
M  V30 14120 C 1296.76 -1.31414 0.960945 0
M  V30 14121 O 1297.95 -1.28596 1.23796 0
M  V30 14122 C 1295.05 -2.37234 2.42019 0
M  V30 14123 C 1294.22 -2.28405 3.73028 0
M  V30 14124 C 1293.28 -3.44753 3.97532 0
M  V30 14125 O 1292.31 -3.23465 4.68358 0
M  V30 14126 N 1293.51 -4.67212 3.44518 0
M  V30 14127 H 1296.27 -0.634758 2.92901 0
M  V30 14128 H 1293.84 -0.1993 1.60669 0
M  V30 14129 H 1295.83 -3.13821 2.55535 0
M  V30 14130 H 1294.4 -2.69018 1.5921 0
M  V30 14131 H 1293.62 -1.36804 3.697 0
M  V30 14132 H 1294.91 -2.19666 4.58938 0
M  V30 14133 H 1294.3 -4.87407 2.87142 0
M  V30 14134 H 1292.86 -5.41105 3.63384 0
M  V30 14135 N 1296.29 -1.55015 -0.284256 0
M  V30 14136 C 1297.24 -1.87898 -1.37102 0
M  V30 14137 C 1298.24 -0.754231 -1.51683 0
M  V30 14138 O 1299.44 -0.93844 -1.53601 0
M  V30 14139 H 1295.82 -0.596208 -0.458301 0
M  V30 14140 H 1297.79 -2.78704 -1.06613 0
M  V30 14141 C 1296.54 -2.15764 -2.72656 0
M  V30 14142 H 1295.86 -3.01792 -2.62224 0
M  V30 14143 H 1297.3 -2.42701 -3.47667 0
M  V30 14144 C 1295.76 -0.961561 -3.22886 0
M  V30 14145 O 1296.29 -0.190489 -4.01248 0
M  V30 14146 N 1294.49 -0.762338 -2.80422 0
M  V30 14147 H 1294.04 -1.39104 -2.16813 0
M  V30 14148 H 1294 0.0363482 -3.14379 0
M  V30 14149 N 1297.77 0.548248 -1.47757 0
M  V30 14150 C 1299.19 0.875048 -1.33473 0
M  V30 14151 C 1299.39 1.98747 -0.331952 0
M  V30 14152 O 1298.44 2.51226 0.253348 0
M  V30 14153 C 1299.76 1.25982 -2.73037 0
M  V30 14154 C 1301.3 1.37074 -2.81389 0
M  V30 14155 C 1301.78 1.78902 -4.21613 0
M  V30 14156 N 1303.27 1.86037 -4.24198 0
M  V30 14157 C 1304.01 2.1975 -5.2962 0
M  V30 14158 N 1303.5 2.52013 -6.45338 0
M  V30 14159 N 1305.29 2.206 -5.17003 0
M  V30 14160 H 1297.45 -0.186033 -2.11584 0
M  V30 14161 H 1299.71 -0.0205687 -0.947777 0
M  V30 14162 H 1299.41 0.516188 -3.47891 0
M  V30 14163 H 1299.29 2.21402 -3.05387 0
M  V30 14164 H 1301.68 2.10517 -2.06801 0
M  V30 14165 H 1301.76 0.398193 -2.52682 0
M  V30 14166 H 1301.4 1.06026 -4.9671 0
M  V30 14167 H 1301.33 2.77176 -4.47751 0
M  V30 14168 H 1303.82 1.63455 -3.40721 0
M  V30 14169 H 1304.13 2.7679 -7.21531 0
M  V30 14170 H 1302.48 2.49573 -6.48643 0
M  V30 14171 H 1305.67 1.9484 -4.25623 0
M  V30 14172 H 1305.84 2.46543 -5.99267 0
M  V30 14173 N 1299.25 1.36039 0.795694 0
M  V30 14174 C 1300.2 1.29853 1.90806 0
M  V30 14175 C 1301.17 0.168387 1.65244 0
M  V30 14176 O 1302.35 0.353879 1.8749 0
M  V30 14177 C 1299.49 1.08737 3.27521 0
M  V30 14178 C 1298.6 2.30771 3.65197 0
M  V30 14179 C 1297.74 2.02718 4.90998 0
M  V30 14180 C 1296.78 3.20746 5.21333 0
M  V30 14181 N 1295.92 2.92399 6.38316 0
M  V30 14182 H 1300.76 2.2497 1.95429 0
M  V30 14183 H 1298.29 1.11819 0.955771 0
M  V30 14184 H 1300.25 0.945236 4.06351 0
M  V30 14185 H 1298.88 0.172781 3.22337 0
M  V30 14186 H 1297.93 2.5581 2.81541 0
M  V30 14187 H 1299.24 3.18869 3.83568 0
M  V30 14188 H 1298.4 1.85398 5.77679 0
M  V30 14189 H 1297.14 1.11921 4.74684 0
M  V30 14190 H 1296.14 3.38632 4.33138 0
M  V30 14191 H 1297.37 4.1236 5.3957 0
M  V30 14192 H 1295.31 2.04207 6.23406 0
M  V30 14193 H 1295.23 3.74034 6.56989 0
M  V30 14194 H 1296.5 2.78643 7.27996 0
M  V30 14195 N 1300.73 -1.01913 1.20215 0
M  V30 14196 C 1301.68 -2.12516 0.945493 0
M  V30 14197 C 1302.67 -1.69091 -0.102243 0
M  V30 14198 O 1303.88 -1.79936 0.047888 0
M  V30 14199 H 1300.25 -0.694496 0.288409 0
M  V30 14200 H 1302.22 -2.31349 1.88468 0
M  V30 14201 C 1300.97 -3.43919 0.51137 0
M  V30 14202 H 1300.29 -3.77758 1.30916 0
M  V30 14203 H 1301.73 -4.22374 0.370981 0
M  V30 14204 C 1300.19 -3.27844 -0.775902 0
M  V30 14205 O 1300.72 -3.5734 -1.83496 0
M  V30 14206 N 1298.93 -2.81101 -0.73694 0
M  V30 14207 H 1298.48 -2.57296 0.125164 0
M  V30 14208 H 1298.43 -2.70726 -1.59859 0
M  V30 14209 N 1302.21 -1.00763 -1.2118 0
M  V30 14210 C 1303.43 -0.710746 -1.94309 0
M  V30 14211 C 1303.85 0.727103 -1.74237 0
M  V30 14212 O 1303.21 1.49223 -1.05065 0
M  V30 14213 C 1303.26 -1.02562 -3.46646 0
M  V30 14214 O 1302.98 -2.40699 -3.66054 0
M  V30 14215 C 1304.48 -0.748517 -4.36935 0
M  V30 14216 H 1301.7 -0.26171 -0.617858 0
M  V30 14217 H 1304.24 -1.34639 -1.53924 0
M  V30 14218 H 1302.4 -0.435537 -3.84944 0
M  V30 14219 H 1302.81 -2.51764 -4.60125 0
M  V30 14220 H 1304.29 -1.01899 -5.42513 0
M  V30 14221 H 1304.76 0.317423 -4.38051 0
M  V30 14222 H 1305.37 -1.32033 -4.04286 0
M  V30 14223 N 1303.68 1.3679 -0.7827 0
M  V30 14224 C 1304.61 2.32721 -0.190604 0
M  V30 14225 C 1305.6 1.56321 0.670663 0
M  V30 14226 O 1306.78 1.84507 0.605871 0
M  V30 14227 C 1303.91 3.40564 0.680717 0
M  V30 14228 C 1302.86 4.27925 -0.080118 0
M  V30 14229 C 1302.19 5.26876 0.911361 0
M  V30 14230 C 1303.49 5.06738 -1.26545 0
M  V30 14231 H 1305.18 2.82488 -0.992023 0
M  V30 14232 H 1302.73 1.35818 -0.478484 0
M  V30 14233 H 1304.68 4.06659 1.10482 0
M  V30 14234 H 1303.41 2.89348 1.51477 0
M  V30 14235 H 1302.07 3.63376 -0.485125 0
M  V30 14236 H 1301.71 4.71936 1.74026 0
M  V30 14237 H 1301.41 5.8619 0.406762 0
M  V30 14238 H 1302.94 5.95846 1.33418 0
M  V30 14239 H 1304.35 5.65911 -0.917448 0
M  V30 14240 H 1302.75 5.75432 -1.70289 0
M  V30 14241 H 1303.82 4.38772 -2.06415 0
M  V30 14242 N 1305.16 0.53415 1.48272 0
M  V30 14243 C 1306.41 0.00157492 2.028 0
M  V30 14244 C 1306.74 -1.33538 1.41001 0
M  V30 14245 O 1306.02 -1.86347 0.557245 0
M  V30 14246 C 1306.3 -0.116016 3.59913 0
M  V30 14247 C 1306.15 1.2464 4.32186 0
M  V30 14248 C 1307.47 -0.840775 4.31994 0
M  V30 14249 H 1304.59 0.00204634 0.736997 0
M  V30 14250 H 1307.23 0.691985 1.76951 0
M  V30 14251 H 1305.38 -0.704027 3.82068 0
M  V30 14252 H 1307.05 1.87584 4.21438 0
M  V30 14253 H 1305.3 1.8272 3.93441 0
M  V30 14254 H 1305.97 1.11708 5.40579 0
M  V30 14255 H 1308.44 -0.341746 4.14694 0
M  V30 14256 H 1307.32 -0.89196 5.41604 0
M  V30 14257 H 1307.58 -1.89197 3.99571 0
M  V30 14258 N 1306.64 -1.55279 0.269478 0
M  V30 14259 C 1307.92 -1.91458 -0.400412 0
M  V30 14260 C 1308.3 -1.19306 -1.74153 0
M  V30 14261 O 1307.65 -0.318017 -2.26276 0
M  V30 14262 C 1307.86 -3.44698 -0.546258 0
M  V30 14263 C 1309.2 -4.16374 -0.831758 0
M  V30 14264 O 1310.23 -3.50561 -0.631279 0
M  V30 14265 O 1309.09 -5.32826 -1.21484 0
M  V30 14266 H 1306.18 -0.79766 -0.218328 0
M  V30 14267 H 1308.73 -1.66747 0.315214 0
M  V30 14268 H 1307.5 -3.89273 0.397784 0
M  V30 14269 H 1307.12 -3.75345 -1.31157 0
M  V30 14270 N 1308.12 0.00332656 -1.576 0
M  V30 14271 C 1309.35 0.699945 -1.94701 0
M  V30 14272 C 1309.76 1.67492 -0.871312 0
M  V30 14273 O 1309.12 1.81882 0.150054 0
M  V30 14274 C 1309.17 1.43471 -3.31811 0
M  V30 14275 O 1308.89 0.498835 -4.35251 0
M  V30 14276 C 1310.39 2.22614 -3.83351 0
M  V30 14277 H 1307.61 0.195158 -0.641993 0
M  V30 14278 H 1310.16 -0.0468044 -2.04446 0
M  V30 14279 H 1308.31 2.13311 -3.23384 0
M  V30 14280 H 1308.72 1.01688 -5.14548 0
M  V30 14281 H 1310.2 2.69527 -4.81725 0
M  V30 14282 H 1310.68 3.05146 -3.15883 0
M  V30 14283 H 1311.28 1.57796 -3.94944 0
M  V30 14284 N 1309.6 1.55164 0.276031 0
M  V30 14285 C 1310.82 1.7998 1.03063 0
M  V30 14286 C 1311.25 0.569769 1.79263 0
M  V30 14287 O 1310.6 -0.48054 1.74816 0
M  V30 14288 C 1310.65 3.02209 1.96728 0
M  V30 14289 O 1309.76 2.77083 3.05449 0
M  V30 14290 H 1309.1 0.594963 0.294814 0
M  V30 14291 H 1311.63 2.02301 0.305861 0
M  V30 14292 H 1311.64 3.3086 2.38738 0
M  V30 14293 H 1310.31 3.91386 1.40677 0
M  V30 14294 H 1308.89 2.5952 2.67776 0
M  V30 14295 N 1311.07 -0.540404 1.48045 0
M  V30 14296 C 1312.32 -1.29422 1.55224 0
M  V30 14297 C 1312.64 -1.93716 0.223365 0
M  V30 14298 O 1311.91 -1.808 -0.754204 0
M  V30 14299 H 1310.49 -0.480658 0.571819 0
M  V30 14300 H 1313.16 -0.629712 1.84447 0
M  V30 14301 H 1312.25 -2.07897 2.32777 0
M  V30 14302 N 1312.55 -1.36459 -0.788468 0
M  V30 14303 C 1313.78 -1.33703 -1.57502 0
M  V30 14304 C 1314.19 0.0834961 -1.89016 0
M  V30 14305 O 1313.53 1.05107 -1.50659 0
M  V30 14306 C 1313.6 -2.09424 -2.92201 0
M  V30 14307 C 1313.26 -3.58507 -2.83411 0
M  V30 14308 C 1314.26 -4.52736 -2.5559 0
M  V30 14309 C 1311.94 -4.01405 -3.01959 0
M  V30 14310 C 1313.94 -5.87841 -2.46419 0
M  V30 14311 C 1311.62 -5.366 -2.92409 0
M  V30 14312 C 1312.62 -6.29631 -2.64677 0
M  V30 14313 O 1312.31 -7.62343 -2.55124 0
M  V30 14314 H 1312.04 -0.460221 -0.495149 0
M  V30 14315 H 1314.59 -1.80163 -0.986437 0
M  V30 14316 H 1312.82 -1.5763 -3.53114 0
M  V30 14317 H 1314.51 -1.99515 -3.53481 0
M  V30 14318 H 1315.28 -4.20906 -2.40962 0
M  V30 14319 H 1311.16 -3.29367 -3.2255 0
M  V30 14320 H 1314.7 -6.60423 -2.24694 0
M  V30 14321 H 1310.6 -5.68038 -3.066 0
M  V30 14322 H 1311.37 -7.72476 -2.70598 0
M  V30 14323 N 1314.03 1.01274 -1.20754 0
M  V30 14324 C 1314.98 2.12012 -0.95675 0
M  V30 14325 C 1315.97 1.69143 0.0932738 0
M  V30 14326 O 1317.18 1.79908 -0.0574298 0
M  V30 14327 H 1313.55 0.692956 -0.292088 0
M  V30 14328 H 1315.52 2.30347 -1.89692 0
M  V30 14329 C 1314.27 3.43643 -0.529602 0
M  V30 14330 H 1313.6 3.77058 -1.32918 0
M  V30 14331 H 1315.04 4.22171 -0.393376 0
M  V30 14332 C 1313.5 3.2825 0.758505 0
M  V30 14333 O 1314.03 3.58309 1.81598 0
M  V30 14334 N 1312.23 2.81487 0.722022 0
M  V30 14335 H 1311.78 2.57226 -0.138807 0
M  V30 14336 H 1311.74 2.7157 1.58421 0
M  V30 14337 N 1315.51 1.01404 1.20644 0
M  V30 14338 C 1316.47 0.586941 2.21557 0
M  V30 14339 C 1317.47 -0.341543 1.57131 0
M  V30 14340 O 1318.66 -0.130585 1.7371 0
M  V30 14341 C 1315.79 -0.143248 3.40599 0
M  V30 14342 H 1316.99 1.47964 2.60858 0
M  V30 14343 H 1314.54 0.803551 1.34063 0
M  V30 14344 H 1315.28 -1.05097 3.06798 0
M  V30 14345 H 1315.06 0.523716 3.88587 0
M  V30 14346 H 1316.55 -0.429504 4.15385 0
M  V30 14347 N 1316.99 -1.36373 0.789944 0
M  V30 14348 C 1317.9 -2.3383 0.189873 0
M  V30 14349 C 1318.91 -1.61068 -0.65827 0
M  V30 14350 O 1320.09 -1.93049 -0.573932 0
M  V30 14351 C 1317.15 -3.40264 -0.664905 0
M  V30 14352 C 1316.22 -4.28825 0.201798 0
M  V30 14353 C 1315.45 -5.30176 -0.612278 0
M  V30 14354 O 1315.67 -5.39627 -1.84821 0
M  V30 14355 O 1314.61 -6.01899 -0.0118964 0
M  V30 14356 H 1318.43 -2.86915 0.995671 0
M  V30 14357 H 1316.02 -1.38852 0.551412 0
M  V30 14358 H 1317.9 -4.05339 -1.15231 0
M  V30 14359 H 1316.57 -2.89478 -1.44858 0
M  V30 14360 H 1315.48 -3.66789 0.735974 0
M  V30 14361 H 1316.81 -4.82965 0.949003 0
M  V30 14362 N 1318.47 -0.542005 -1.47987 0
M  V30 14363 C 1319.71 -0.0123299 -2.02796 0
M  V30 14364 C 1320.04 1.32789 -1.41707 0
M  V30 14365 O 1319.32 1.86048 -0.567119 0
M  V30 14366 C 1319.6 0.0969277 -3.5997 0
M  V30 14367 C 1319.46 -1.26931 -4.31519 0
M  V30 14368 C 1320.77 0.817854 -4.32434 0
M  V30 14369 H 1317.89 -0.00595479 -0.736976 0
M  V30 14370 H 1320.54 -0.70136 -1.76581 0
M  V30 14371 H 1318.69 0.683755 -3.82436 0
M  V30 14372 H 1320.36 -1.89817 -4.20437 0
M  V30 14373 H 1318.6 -1.84804 -3.92467 0
M  V30 14374 H 1319.27 -1.14573 -5.39979 0
M  V30 14375 H 1321.75 0.319749 -4.1487 0
M  V30 14376 H 1320.62 0.863225 -5.4207 0
M  V30 14377 H 1320.88 1.87075 -4.00569 0
M  V30 14378 N 1319.94 1.55134 -0.277709 0
M  V30 14379 C 1321.17 2.04519 0.344472 0
M  V30 14380 C 1321.59 1.15466 1.4849 0
M  V30 14381 O 1320.95 0.153798 1.80646 0
M  V30 14382 C 1321 3.51602 0.800527 0
M  V30 14383 O 1320.1 3.65632 1.90754 0
M  V30 14384 H 1319.44 0.660212 0.0708226 0
M  V30 14385 H 1321.97 2.00393 -0.412764 0
M  V30 14386 H 1321.98 3.93015 1.09559 0
M  V30 14387 H 1320.66 4.15886 -0.033838 0
M  V30 14388 H 1319.24 3.36122 1.61481 0
M  V30 14389 N 1321.42 0.00503138 1.57599 0
M  V30 14390 C 1322.33 -1.00097 2.12174 0
M  V30 14391 C 1323.35 -1.37353 1.06818 0
M  V30 14392 O 1324.52 -1.45984 1.38747 0
M  V30 14393 C 1321.59 -2.27252 2.61835 0
M  V30 14394 C 1320.65 -1.96262 3.81811 0
M  V30 14395 C 1319.88 -3.17355 4.29094 0
M  V30 14396 O 1320.11 -4.2921 3.75679 0
M  V30 14397 O 1319.04 -3.01059 5.21198 0
M  V30 14398 H 1322.87 -0.567024 2.9836 0
M  V30 14399 H 1320.45 -0.214109 1.47858 0
M  V30 14400 H 1322.33 -3.01944 2.93952 0
M  V30 14401 H 1321.01 -2.69875 1.78744 0
M  V30 14402 H 1319.91 -1.19031 3.54658 0
M  V30 14403 H 1321.25 -1.58473 4.65991 0
M  V30 14404 N 1322.9 -1.55308 -0.267798 0
M  V30 14405 C 1323.81 -1.91649 -1.35307 0
M  V30 14406 C 1324.83 -0.814349 -1.53767 0
M  V30 14407 O 1326 -1.11388 -1.67793 0
M  V30 14408 C 1323.07 -2.18553 -2.69138 0
M  V30 14409 C 1322.13 -3.42083 -2.5938 0
M  V30 14410 C 1321.36 -3.67695 -3.86828 0
M  V30 14411 O 1321.58 -2.95728 -4.87751 0
M  V30 14412 O 1320.52 -4.61229 -3.86718 0
M  V30 14413 H 1324.34 -2.84044 -1.07483 0
M  V30 14414 H 1321.93 -1.41921 -0.466772 0
M  V30 14415 H 1323.81 -2.3726 -3.48261 0
M  V30 14416 H 1322.49 -1.2934 -2.96737 0
M  V30 14417 H 1321.39 -3.28706 -1.78614 0
M  V30 14418 H 1322.73 -4.31532 -2.36729 0
M  V30 14419 N 1324.38 0.532545 -1.4833 0
M  V30 14420 C 1325.63 1.28597 -1.55908 0
M  V30 14421 C 1325.95 1.93595 -0.233635 0
M  V30 14422 O 1325.22 1.81197 0.744605 0
M  V30 14423 H 1323.8 0.477619 -0.57436 0
M  V30 14424 H 1326.46 0.619922 -1.84778 0
M  V30 14425 H 1325.55 2.0666 -2.33877 0
M  V30 14426 N 1325.86 1.36875 0.78122 0
M  V30 14427 C 1327.13 1.22101 1.52809 0
M  V30 14428 C 1327.51 -0.189402 2.10249 0
M  V30 14429 O 1326.86 -1.19598 1.94701 0
M  V30 14430 C 1327.07 2.30953 2.61652 0
M  V30 14431 C 1328.42 2.68027 3.29313 0
M  V30 14432 O 1329.44 2.30058 2.71941 0
M  V30 14433 O 1328.3 3.33407 4.33015 0
M  V30 14434 H 1325.4 0.4759 0.676349 0
M  V30 14435 H 1327.94 1.48629 0.818998 0
M  V30 14436 H 1326.71 3.25443 2.17261 0
M  V30 14437 H 1326.34 2.05837 3.40172 0
M  V30 14438 N 1327.33 -1.00632 1.21289 0
M  V30 14439 C 1328.58 -1.74647 1.03084 0
M  V30 14440 C 1328.91 -1.89271 -0.43476 0
M  V30 14441 O 1328.19 -1.42607 -1.32263 0
M  V30 14442 C 1328.47 -3.15981 1.72709 0
M  V30 14443 C 1328.32 -3.09088 3.2678 0
M  V30 14444 C 1329.64 -4.14875 1.46857 0
M  V30 14445 H 1326.76 -0.633938 0.375889 0
M  V30 14446 H 1329.4 -1.17328 1.49446 0
M  V30 14447 H 1327.55 -3.64918 1.33294 0
M  V30 14448 H 1329.23 -2.67875 3.75554 0
M  V30 14449 H 1327.47 -2.46223 3.57151 0
M  V30 14450 H 1328.14 -4.09041 3.70661 0
M  V30 14451 H 1330.62 -3.74637 1.81069 0
M  V30 14452 H 1329.49 -5.1191 1.98088 0
M  V30 14453 H 1329.75 -4.40302 0.398296 0
M  V30 14454 N 1328.81 -1.02043 -1.20104 0
M  V30 14455 C 1329.74 -0.552093 -2.22451 0
M  V30 14456 C 1330.76 0.367547 -1.58597 0
M  V30 14457 O 1331.95 0.165285 -1.77733 0
M  V30 14458 C 1329.05 0.215833 -3.38212 0
M  V30 14459 C 1328.22 -0.70666 -4.31654 0
M  V30 14460 C 1327.28 0.0143628 -5.26198 0
M  V30 14461 O 1326.3 -0.609413 -5.65928 0
M  V30 14462 N 1327.51 1.28794 -5.66032 0
M  V30 14463 H 1330.27 -1.43229 -2.6326 0
M  V30 14464 H 1327.83 -0.89842 -1.34685 0
M  V30 14465 H 1329.82 0.707523 -3.98467 0
M  V30 14466 H 1328.39 0.997358 -2.96263 0
M  V30 14467 H 1327.61 -1.37859 -3.69308 0
M  V30 14468 H 1328.9 -1.33392 -4.91003 0
M  V30 14469 H 1328.3 1.8156 -5.35773 0
M  V30 14470 H 1326.86 1.72429 -6.28579 0
M  V30 14471 N 1330.29 1.35952 -0.797165 0
M  V30 14472 C 1331.22 2.32506 -0.215277 0
M  V30 14473 C 1332.2 1.57023 0.654046 0
M  V30 14474 O 1333.39 1.85139 0.586268 0
M  V30 14475 C 1330.52 3.41266 0.644557 0
M  V30 14476 C 1329.47 4.27816 -0.125501 0
M  V30 14477 C 1328.8 5.27813 0.855428 0
M  V30 14478 C 1330.1 5.05367 -1.31913 0
M  V30 14479 H 1331.79 2.8142 -1.02193 0
M  V30 14480 H 1329.34 1.35303 -0.492862 0
M  V30 14481 H 1331.29 4.07808 1.06163 0
M  V30 14482 H 1330.01 2.90938 1.484 0
M  V30 14483 H 1328.67 3.62841 -0.523639 0
M  V30 14484 H 1328.32 4.73755 1.69011 0
M  V30 14485 H 1328.02 5.86589 0.344566 0
M  V30 14486 H 1329.54 5.97227 1.2709 0
M  V30 14487 H 1330.96 5.64907 -0.977418 0
M  V30 14488 H 1329.36 5.73593 -1.76382 0
M  V30 14489 H 1330.43 4.36558 -2.11057 0
M  V30 14490 N 1331.77 0.549846 1.47697 0
M  V30 14491 C 1332.72 -0.215119 2.31603 0
M  V30 14492 C 1333.71 -0.916441 1.4247 0
M  V30 14493 O 1334.92 -0.838565 1.59274 0
M  V30 14494 H 1331.29 -0.0882441 0.746805 0
M  V30 14495 H 1333.26 0.511847 2.93977 0
M  V30 14496 C 1332.01 -1.23662 3.24966 0
M  V30 14497 H 1331.33 -0.706384 3.9351 0
M  V30 14498 H 1332.77 -1.7429 3.86522 0
M  V30 14499 C 1331.23 -2.28066 2.47967 0
M  V30 14500 O 1331.76 -3.34862 2.21879 0
M  V30 14501 N 1329.97 -2.01799 2.09106 0
M  V30 14502 H 1329.52 -1.14965 2.30523 0
M  V30 14503 H 1329.47 -2.71872 1.57902 0
M  V30 14504 N 1333.25 -1.54984 0.285932 0
M  V30 14505 C 1334.66 -1.85519 -0.209707 0
M  V30 14506 C 1335.01 -1.20794 -1.54606 0
M  V30 14507 O 1334.13 -0.500159 -2.10541 0
M  V30 14508 C 1334.73 -3.36579 -0.387283 0
M  V30 14509 C 1333.29 -3.67199 -0.827148 0
M  V30 14510 C 1332.43 -2.77203 0.073308 0
M  V30 14511 H 1335.39 -1.5037 0.507404 0
M  V30 14512 H 1335.41 -3.60269 -1.2242 0
M  V30 14513 H 1334.92 -3.83658 0.585493 0
M  V30 14514 H 1333.02 -3.25627 -1.81101 0
M  V30 14515 H 1333.13 -4.74574 -0.656976 0
M  V30 14516 H 1331.5 -2.50785 -0.444859 0
M  V30 14517 H 1332.28 -3.27099 1.04216 0
M  V30 14518 N 1334.72 -0.0133892 -1.57594 0
M  V30 14519 C 1335.97 0.667896 -1.90321 0
M  V30 14520 C 1336.29 1.74187 -0.88984 0
M  V30 14521 O 1337.49 2.47871 -1.10779 0
M  V30 14522 C 1335.95 1.23917 -3.37894 0
M  V30 14523 C 1335.56 0.199313 -4.47556 0
M  V30 14524 C 1337.3 1.89788 -3.79712 0
M  V30 14525 C 1335.21 0.781339 -5.86216 0
M  V30 14526 H 1334.14 0.253229 -0.710205 0
M  V30 14527 H 1336.79 -0.0761229 -1.83342 0
M  V30 14528 H 1335.17 2.03429 -3.39754 0
M  V30 14529 H 1336.34 -0.572196 -4.57234 0
M  V30 14530 H 1334.66 -0.359719 -4.14843 0
M  V30 14531 H 1337.26 2.34262 -4.80651 0
M  V30 14532 H 1337.6 2.73406 -3.13934 0
M  V30 14533 H 1338.13 1.16989 -3.80208 0
M  V30 14534 H 1334.87 -0.0163598 -6.55498 0
M  V30 14535 H 1334.39 1.5217 -5.80176 0
M  V30 14536 H 1336.07 1.2759 -6.34295 0
M  V30 14537 N 1336.2 1.55448 0.259558 0
M  V30 14538 C 1337.45 1.76686 0.98935 0
M  V30 14539 C 1337.78 0.575434 1.85793 0
M  V30 14540 O 1337.03 -0.441676 1.90651 0
M  V30 14541 C 1337.33 3.03292 1.89073 0
M  V30 14542 C 1337 4.35225 1.17855 0
M  V30 14543 C 1335.66 4.7108 0.981675 0
M  V30 14544 C 1338.01 5.16839 0.6728 0
M  V30 14545 C 1335.34 5.86094 0.266551 0
M  V30 14546 C 1337.69 6.32593 -0.0287965 0
M  V30 14547 C 1336.36 6.67078 -0.23726 0
M  V30 14548 H 1335.63 0.646542 0.362029 0
M  V30 14549 H 1338.27 1.8972 0.260488 0
M  V30 14550 H 1336.58 2.85217 2.68624 0
M  V30 14551 H 1338.27 3.16923 2.45685 0
M  V30 14552 H 1334.86 4.07051 1.34192 0
M  V30 14553 H 1339.05 4.89604 0.812481 0
M  V30 14554 H 1334.3 6.11327 0.0944447 0
M  V30 14555 H 1338.48 6.95081 -0.428378 0
M  V30 14556 H 1336.11 7.56049 -0.793358 0
M  V30 14557 N 1337.68 -0.524672 1.4861 0
M  V30 14558 C 1339.09 -1.10655 1.50374 0
M  V30 14559 C 1339.44 -1.94242 0.276512 0
M  V30 14560 O 1338.57 -2.07451 -0.615887 0
M  V30 14561 C 1339.16 -2.01348 2.72478 0
M  V30 14562 C 1337.72 -2.54743 2.77097 0
M  V30 14563 C 1336.87 -1.31822 2.43964 0
M  V30 14564 H 1339.82 -0.309674 1.55649 0
M  V30 14565 H 1339.84 -2.85709 2.51297 0
M  V30 14566 H 1339.35 -1.40485 3.61781 0
M  V30 14567 H 1337.45 -3.19313 1.92016 0
M  V30 14568 H 1337.57 -2.93514 3.78664 0
M  V30 14569 H 1335.93 -1.63574 1.95233 0
M  V30 14570 H 1336.71 -0.727026 3.35513 0
M  V30 14571 N 1339.16 -1.37287 -0.77395 0
M  V30 14572 C 1340.41 -1.32374 -1.53243 0
M  V30 14573 C 1340.73 0.0924284 -1.9428 0
M  V30 14574 O 1339.99 1.06517 -1.64173 0
M  V30 14575 C 1340.29 -2.20667 -2.81142 0
M  V30 14576 C 1339.95 -3.68975 -2.59168 0
M  V30 14577 C 1338.62 -4.09394 -2.52884 0
M  V30 14578 C 1340.97 -4.62941 -2.39447 0
M  V30 14579 C 1338.3 -5.41897 -2.24865 0
M  V30 14580 C 1340.65 -5.9568 -2.12952 0
M  V30 14581 C 1339.31 -6.35205 -2.05111 0
M  V30 14582 H 1338.58 -0.48439 -0.560756 0
M  V30 14583 H 1341.23 -1.69475 -0.891663 0
M  V30 14584 H 1339.53 -1.76553 -3.49766 0
M  V30 14585 H 1341.23 -2.1418 -3.3901 0
M  V30 14586 H 1337.82 -3.36919 -2.64922 0
M  V30 14587 H 1342 -4.32576 -2.43293 0
M  V30 14588 H 1337.26 -5.71486 -2.17288 0
M  V30 14589 H 1341.43 -6.68046 -1.9669 0
M  V30 14590 H 1339.06 -7.37804 -1.83163 0
M  V30 14591 N 1340.64 0.999871 -1.21821 0
M  V30 14592 C 1341.91 1.71135 -0.947213 0
M  V30 14593 C 1342.29 2.04087 0.539601 0
M  V30 14594 O 1341.64 1.71866 1.5058 0
M  V30 14595 C 1341.85 2.96704 -1.8376 0
M  V30 14596 C 1343.2 3.69627 -2.08952 0
M  V30 14597 O 1344.22 3.06697 -1.81151 0
M  V30 14598 O 1343.08 4.82832 -2.55999 0
M  V30 14599 H 1340.18 0.746631 -0.355628 0
M  V30 14600 H 1342.72 1.05684 -1.32774 0
M  V30 14601 H 1341.49 2.68802 -2.84361 0
M  V30 14602 H 1341.12 3.69894 -1.45821 0
M  V30 14603 N 1342.11 1.02678 1.19562 0
M  V30 14604 C 1343.36 0.722016 1.89191 0
M  V30 14605 C 1343.69 -0.749217 1.79491 0
M  V30 14606 O 1342.94 -1.56105 1.18025 0
M  V30 14607 C 1343.24 1.11603 3.39529 0
M  V30 14608 C 1342.91 2.58518 3.69431 0
M  V30 14609 C 1341.57 2.98658 3.77302 0
M  V30 14610 C 1343.92 3.53579 3.82925 0
M  V30 14611 C 1341.25 4.32776 3.96134 0
M  V30 14612 C 1343.6 4.87398 4.0327 0
M  V30 14613 C 1342.27 5.27229 4.09373 0
M  V30 14614 H 1341.54 0.264204 0.692298 0
M  V30 14615 H 1344.18 1.28924 1.41601 0
M  V30 14616 H 1342.49 0.467374 3.89002 0
M  V30 14617 H 1344.19 0.857771 3.91718 0
M  V30 14618 H 1340.78 2.26421 3.63911 0
M  V30 14619 H 1344.96 3.23721 3.76189 0
M  V30 14620 H 1340.22 4.63175 3.99098 0
M  V30 14621 H 1344.39 5.60973 4.12653 0
M  V30 14622 H 1342.02 6.31164 4.23718 0
M  V30 14623 N 1343.59 -1.35528 0.804364 0
M  V30 14624 C 1344.54 -2.29832 0.211186 0
M  V30 14625 C 1345.51 -1.52704 -0.653503 0
M  V30 14626 O 1346.69 -1.81152 -0.599052 0
M  V30 14627 C 1343.83 -3.39188 -0.636054 0
M  V30 14628 C 1342.95 -4.31283 0.248824 0
M  V30 14629 C 1342.08 -5.2773 -0.60621 0
M  V30 14630 C 1341.12 -6.11463 0.279205 0
M  V30 14631 N 1340.26 -7.00054 -0.535672 0
M  V30 14632 H 1345.1 -2.79971 1.0208 0
M  V30 14633 H 1342.64 -1.37793 0.514931 0
M  V30 14634 H 1344.59 -4.01254 -1.14241 0
M  V30 14635 H 1343.22 -2.90331 -1.41095 0
M  V30 14636 H 1342.28 -3.70241 0.873263 0
M  V30 14637 H 1343.59 -4.90046 0.930417 0
M  V30 14638 H 1342.74 -5.95158 -1.17778 0
M  V30 14639 H 1341.48 -4.69458 -1.32138 0
M  V30 14640 H 1340.49 -5.42984 0.863066 0
M  V30 14641 H 1341.71 -6.71813 0.9922 0
M  V30 14642 H 1339.66 -6.44273 -1.23486 0
M  V30 14643 H 1339.57 -7.55949 0.0879213 0
M  V30 14644 H 1340.84 -7.71833 -1.09059 0
M  V30 14645 N 1345.07 -0.557671 -1.47404 0
M  V30 14646 C 1346 0.178019 -2.3282 0
M  V30 14647 C 1346.98 0.908318 -1.43818 0
M  V30 14648 O 1348.17 0.888693 -1.72673 0
M  V30 14649 C 1345.3 1.2082 -3.25607 0
M  V30 14650 C 1344.25 0.594335 -4.23853 0
M  V30 14651 C 1343.58 1.72919 -5.05968 0
M  V30 14652 C 1344.88 -0.452196 -5.20339 0
M  V30 14653 H 1346.57 -0.535091 -2.9458 0
M  V30 14654 H 1344.12 -0.258775 -1.41656 0
M  V30 14655 H 1346.07 1.73104 -3.84204 0
M  V30 14656 H 1344.79 1.95126 -2.61903 0
M  V30 14657 H 1343.45 0.0927898 -3.66483 0
M  V30 14658 H 1343.1 2.4613 -4.38668 0
M  V30 14659 H 1342.8 1.32422 -5.72484 0
M  V30 14660 H 1344.33 2.25527 -5.67424 0
M  V30 14661 H 1345.74 -0.0154011 -5.73298 0
M  V30 14662 H 1344.14 -0.776068 -5.95061 0
M  V30 14663 H 1345.21 -1.34791 -4.65789 0
M  V30 14664 N 1346.55 1.54831 -0.294147 0
M  V30 14665 C 1347.8 1.99606 0.316509 0
M  V30 14666 C 1348.12 1.18405 1.54936 0
M  V30 14667 O 1347.39 0.278289 1.93913 0
M  V30 14668 H 1345.97 0.737309 0.119938 0
M  V30 14669 H 1348.63 1.90669 -0.403891 0
M  V30 14670 H 1347.73 3.06409 0.593282 0
M  V30 14671 N 1348.03 0.0217466 1.57585 0
M  V30 14672 C 1349.25 -0.67246 1.96196 0
M  V30 14673 C 1349.68 -1.6529 0.897827 0
M  V30 14674 O 1349.04 -1.80743 -0.142002 0
M  V30 14675 C 1349.08 -1.36162 3.33905 0
M  V30 14676 O 1348.19 -2.47671 3.29747 0
M  V30 14677 H 1347.53 -0.177238 0.639908 0
M  V30 14678 H 1350.06 0.0814073 2.04438 0
M  V30 14679 H 1350.07 -1.7201 3.69968 0
M  V30 14680 H 1348.74 -0.642893 4.10901 0
M  V30 14681 H 1347.32 -2.13989 3.0539 0
M  V30 14682 N 1349.51 -1.55583 -0.251311 0
M  V30 14683 C 1350.73 -1.81597 -1.00186 0
M  V30 14684 C 1351.16 -0.598216 -1.78334 0
M  V30 14685 O 1350.51 0.452667 -1.75558 0
M  V30 14686 C 1350.56 -3.05301 -1.91895 0
M  V30 14687 O 1349.67 -2.81907 -3.01002 0
M  V30 14688 H 1349.01 -0.599578 -0.285311 0
M  V30 14689 H 1351.54 -2.02762 -0.273638 0
M  V30 14690 H 1351.55 -3.34616 -2.33444 0
M  V30 14691 H 1350.22 -3.93574 -1.34433 0
M  V30 14692 H 1348.8 -2.63747 -2.63613 0
M  V30 14693 N 1350.98 0.516783 -1.48886 0
M  V30 14694 C 1352.23 1.26936 -1.57263 0
M  V30 14695 C 1352.55 1.93337 -0.254156 0
M  V30 14696 O 1351.82 1.81977 0.725345 0
M  V30 14697 H 1350.4 0.4715 -0.579393 0
M  V30 14698 H 1353.06 0.600289 -1.85425 0
M  V30 14699 H 1352.16 2.04167 -2.36055 0
M  V30 14700 N 1352.46 1.37696 0.766659 0
M  V30 14701 C 1353.37 1.36075 1.91104 0
M  V30 14702 C 1354.39 0.259617 1.72052 0
M  V30 14703 O 1355.56 0.49586 1.952 0
M  V30 14704 C 1352.63 1.17176 3.26298 0
M  V30 14705 C 1351.69 2.36975 3.57968 0
M  V30 14706 C 1350.92 2.18968 4.86712 0
M  V30 14707 O 1351.15 1.17658 5.58133 0
M  V30 14708 O 1350.08 3.07269 5.17561 0
M  V30 14709 H 1353.91 2.32472 1.95424 0
M  V30 14710 H 1351.49 1.18478 0.910122 0
M  V30 14711 H 1353.37 1.08645 4.07154 0
M  V30 14712 H 1352.05 0.238559 3.2282 0
M  V30 14713 H 1350.95 2.51079 2.77327 0
M  V30 14714 H 1352.29 3.2888 3.66195 0
M  V30 14715 N 1353.94 -0.993397 1.22349 0
M  V30 14716 C 1355.22 -1.7063 0.956275 0
M  V30 14717 C 1355.6 -2.0437 -0.52877 0
M  V30 14718 O 1354.94 -1.72662 -1.49667 0
M  V30 14719 C 1355.15 -2.95725 1.85331 0
M  V30 14720 C 1356.5 -3.68514 2.10909 0
M  V30 14721 O 1357.53 -3.05732 1.82775 0
M  V30 14722 O 1356.39 -4.81468 2.58556 0
M  V30 14723 H 1353.48 -0.744734 0.359583 0
M  V30 14724 H 1356.03 -1.04979 1.33333 0
M  V30 14725 H 1354.8 -2.6729 2.85782 0
M  V30 14726 H 1354.42 -3.69116 1.47781 0
M  V30 14727 N 1355.42 -1.03311 -1.19015 0
M  V30 14728 C 1356.83 -0.750946 -1.4083 0
M  V30 14729 C 1357.03 0.662704 -1.90291 0
M  V30 14730 O 1356.09 1.42806 -2.08237 0
M  V30 14731 C 1357.4 -1.79064 -2.41571 0
M  V30 14732 C 1358.95 -1.81068 -2.55311 0
M  V30 14733 C 1359.43 -2.84008 -3.59309 0
M  V30 14734 N 1360.92 -2.82852 -3.6681 0
M  V30 14735 C 1361.65 -3.59156 -4.46984 0
M  V30 14736 N 1361.15 -4.45188 -5.30829 0
M  V30 14737 N 1362.94 -3.47679 -4.41674 0
M  V30 14738 H 1355.09 -1.94548 -0.852329 0
M  V30 14739 H 1357.35 -0.841344 -0.436858 0
M  V30 14740 H 1357.06 -2.80425 -2.12261 0
M  V30 14741 H 1356.93 -1.61646 -3.40809 0
M  V30 14742 H 1359.32 -0.803825 -2.83941 0
M  V30 14743 H 1359.4 -2.02562 -1.56212 0
M  V30 14744 H 1359.05 -3.84867 -3.3142 0
M  V30 14745 H 1358.98 -2.59771 -4.58069 0
M  V30 14746 H 1361.47 -2.20457 -3.06932 0
M  V30 14747 H 1361.78 -5.00139 -5.89135 0
M  V30 14748 H 1360.13 -4.49259 -5.30275 0
M  V30 14749 H 1363.32 -2.79876 -3.75216 0
M  V30 14750 H 1363.49 -4.07396 -5.03917 0
M  V30 14751 N 1356.9 1.35099 -0.81154 0
M  V30 14752 C 1358.14 1.98233 -0.393453 0
M  V30 14753 C 1358.46 1.64688 1.04417 0
M  V30 14754 O 1357.73 0.931845 1.72318 0
M  V30 14755 H 1356.31 0.733283 -0.142496 0
M  V30 14756 H 1358.98 1.6493 -1.03847 0
M  V30 14757 H 1358.07 3.08017 -0.503188 0
M  V30 14758 N 1358.37 0.56548 1.47106 0
M  V30 14759 C 1359.32 -0.177564 2.30116 0
M  V30 14760 C 1360.29 -0.900534 1.39569 0
M  V30 14761 O 1361.48 -0.894603 1.68527 0
M  V30 14762 C 1358.62 -1.19633 3.237 0
M  V30 14763 C 1357.73 -0.47858 4.29341 0
M  V30 14764 C 1356.86 -1.48336 5.10068 0
M  V30 14765 C 1355.9 -0.751049 6.07475 0
M  V30 14766 N 1355.04 -1.70306 6.81132 0
M  V30 14767 H 1359.88 0.536409 2.93132 0
M  V30 14768 H 1357.42 0.276352 1.44481 0
M  V30 14769 H 1359.37 -1.79967 3.76388 0
M  V30 14770 H 1358 -1.87823 2.6253 0
M  V30 14771 H 1357.06 0.239454 3.79646 0
M  V30 14772 H 1358.37 0.0947147 4.9871 0
M  V30 14773 H 1357.52 -2.16 5.66947 0
M  V30 14774 H 1356.26 -2.09058 4.4062 0
M  V30 14775 H 1355.27 -0.0605336 5.49767 0
M  V30 14776 H 1356.49 -0.14946 6.78936 0
M  V30 14777 H 1354.44 -2.2987 6.14407 0
M  V30 14778 H 1354.35 -1.18213 7.46701 0
M  V30 14779 H 1355.62 -2.37058 7.42579 0
M  V30 14780 N 1359.85 -1.54672 0.302354 0
M  V30 14781 C 1361.1 -2.00463 -0.306978 0
M  V30 14782 C 1361.43 -1.19043 -1.53435 0
M  V30 14783 O 1360.71 -0.267255 -1.92655 0
M  V30 14784 C 1360.99 -3.53958 -0.662229 0
M  V30 14785 C 1360.84 -4.46118 0.574378 0
M  V30 14786 C 1362.16 -4.14174 -1.48821 0
M  V30 14787 H 1359.28 -0.728729 -0.110102 0
M  V30 14788 H 1361.92 -1.85419 0.414722 0
M  V30 14789 H 1360.07 -3.66909 -1.2771 0
M  V30 14790 H 1361.74 -4.45071 1.21284 0
M  V30 14791 H 1359.99 -4.1666 1.20736 0
M  V30 14792 H 1360.66 -5.51281 0.281651 0
M  V30 14793 H 1363.13 -4.04668 -0.968674 0
M  V30 14794 H 1362.01 -5.2173 -1.70556 0
M  V30 14795 H 1362.27 -3.66136 -2.47784 0
M  V30 14796 N 1361.33 -0.0301034 -1.57571 0
M  V30 14797 C 1362.58 0.647672 -1.91019 0
M  V30 14798 C 1362.89 1.73234 -0.908265 0
M  V30 14799 O 1364.1 2.46682 -1.13402 0
M  V30 14800 C 1362.55 1.20327 -3.3919 0
M  V30 14801 C 1362.16 0.151833 -4.47743 0
M  V30 14802 C 1363.91 1.8575 -3.81703 0
M  V30 14803 C 1361.81 0.719119 -5.87012 0
M  V30 14804 H 1360.74 0.245682 -0.712851 0
M  V30 14805 H 1363.39 -0.0955645 -1.83251 0
M  V30 14806 H 1361.78 1.99814 -3.41892 0
M  V30 14807 H 1362.95 -0.620659 -4.56601 0
M  V30 14808 H 1361.27 -0.403699 -4.14438 0
M  V30 14809 H 1363.86 2.29151 -4.83109 0
M  V30 14810 H 1364.21 2.70061 -3.16817 0
M  V30 14811 H 1364.74 1.1295 -3.81428 0
M  V30 14812 H 1361.48 -0.0858832 -6.55444 0
M  V30 14813 H 1361 1.46008 -5.81758 0
M  V30 14814 H 1362.68 1.20856 -6.35612 0
M  V30 14815 N 1362.81 1.55714 0.243056 0
M  V30 14816 C 1364.05 1.77989 0.971993 0
M  V30 14817 C 1364.39 0.596038 1.84827 0
M  V30 14818 O 1363.66 -0.40554 1.90225 0
M  V30 14819 C 1363.95 3.10178 1.82925 0
M  V30 14820 C 1363.8 4.38974 0.9809 0
M  V30 14821 C 1365.12 3.38628 2.81103 0
M  V30 14822 H 1362.24 0.64754 0.35194 0
M  V30 14823 H 1364.88 1.88449 0.242237 0
M  V30 14824 H 1363.03 3.01392 2.45143 0
M  V30 14825 H 1364.7 4.59756 0.377113 0
M  V30 14826 H 1362.94 4.3286 0.285414 0
M  V30 14827 H 1363.61 5.27858 1.61461 0
M  V30 14828 H 1366.09 3.47403 2.29021 0
M  V30 14829 H 1364.97 4.32331 3.38203 0
M  V30 14830 H 1365.23 2.5973 3.57761 0
M  V30 14831 N 1364.29 -0.50888 1.49158 0
M  V30 14832 C 1365.51 -1.28771 1.61943 0
M  V30 14833 C 1365.93 -1.86594 0.287759 0
M  V30 14834 O 1365.29 -1.67448 -0.725769 0
M  V30 14835 C 1365.34 -2.4236 2.68224 0
M  V30 14836 O 1365.06 -1.86915 3.96225 0
M  V30 14837 C 1366.56 -3.33856 2.91642 0
M  V30 14838 H 1363.78 -0.390849 0.545416 0
M  V30 14839 H 1366.32 -0.611729 1.95136 0
M  V30 14840 H 1364.48 -3.05803 2.37831 0
M  V30 14841 H 1364.89 -2.61426 4.54705 0
M  V30 14842 H 1366.37 -4.09856 3.69759 0
M  V30 14843 H 1366.84 -3.90374 2.01258 0
M  V30 14844 H 1367.45 -2.76187 3.23421 0
M  V30 14845 N 1365.76 -1.381 -0.759346 0
M  V30 14846 C 1366.7 -1.3075 -1.88248 0
M  V30 14847 C 1367.71 -0.220835 -1.61295 0
M  V30 14848 O 1368.9 -0.477952 -1.71982 0
M  V30 14849 C 1366 -1.00174 -3.23757 0
M  V30 14850 C 1365.17 -2.19635 -3.78258 0
M  V30 14851 C 1364.23 -1.85892 -4.92271 0
M  V30 14852 O 1363.26 -2.58325 -5.07205 0
M  V30 14853 N 1364.46 -0.810436 -5.74815 0
M  V30 14854 H 1367.22 -2.27529 -1.95065 0
M  V30 14855 H 1364.78 -1.31886 -0.93902 0
M  V30 14856 H 1366.78 -0.756631 -3.97564 0
M  V30 14857 H 1365.35 -0.122094 -3.12361 0
M  V30 14858 H 1364.57 -2.60246 -2.96084 0
M  V30 14859 H 1365.85 -2.99373 -4.11404 0
M  V30 14860 H 1365.25 -0.209644 -5.65311 0
M  V30 14861 H 1363.81 -0.625206 -6.48795 0
M  V30 14862 N 1367.24 0.986894 -1.22875 0
M  V30 14863 C 1368.19 2.09935 -1.00151 0
M  V30 14864 C 1369.18 1.69303 0.0573751 0
M  V30 14865 O 1370.39 1.79746 -0.0955781 0
M  V30 14866 H 1366.77 0.686605 -0.306721 0
M  V30 14867 H 1368.74 2.26271 -1.94535 0
M  V30 14868 C 1367.49 3.42442 -0.602374 0
M  V30 14869 H 1366.81 3.74154 -1.40886 0
M  V30 14870 H 1368.25 4.21242 -0.482836 0
M  V30 14871 C 1366.71 3.29785 0.688707 0
M  V30 14872 O 1367.24 3.6208 1.73957 0
M  V30 14873 N 1365.44 2.82956 0.662152 0
M  V30 14874 H 1364.99 2.56873 -0.193337 0
M  V30 14875 H 1364.95 2.74869 1.52625 0
M  V30 14876 N 1368.72 1.0394 1.18466 0
M  V30 14877 C 1369.63 0.639714 2.2571 0
M  V30 14878 C 1370.65 -0.333431 1.70775 0
M  V30 14879 O 1371.82 -0.188676 2.00514 0
M  V30 14880 C 1368.89 0.007559 3.46699 0
M  V30 14881 C 1367.95 1.02955 4.16772 0
M  V30 14882 C 1367.18 0.427464 5.31985 0
M  V30 14883 O 1367.4 -0.766684 5.65224 0
M  V30 14884 O 1366.34 1.15553 5.90704 0
M  V30 14885 H 1370.16 1.53316 2.6216 0
M  V30 14886 H 1367.75 0.810206 1.25523 0
M  V30 14887 H 1369.63 -0.344404 4.1999 0
M  V30 14888 H 1368.31 -0.859727 3.12074 0
M  V30 14889 H 1367.21 1.43328 3.45554 0
M  V30 14890 H 1368.55 1.86756 4.55393 0
M  V30 14891 N 1370.2 -1.34667 0.818693 0
M  V30 14892 C 1371.15 -2.31501 0.225816 0
M  V30 14893 C 1372.14 -1.57205 -0.631112 0
M  V30 14894 O 1373.35 -1.72237 -0.522924 0
M  V30 14895 H 1369.72 -0.750039 0.0542747 0
M  V30 14896 H 1371.69 -2.79036 1.05743 0
M  V30 14897 C 1370.44 -3.42464 -0.60114 0
M  V30 14898 H 1369.76 -3.9977 0.0489207 0
M  V30 14899 H 1371.2 -4.12468 -0.982154 0
M  V30 14900 C 1369.66 -2.86551 -1.77173 0
M  V30 14901 O 1370.19 -2.81085 -2.86974 0
M  V30 14902 N 1368.4 -2.43432 -1.58712 0
M  V30 14903 H 1367.95 -2.48077 -0.693958 0
M  V30 14904 H 1367.9 -2.06371 -2.37188 0
M  V30 14905 N 1371.68 -0.573274 -1.46804 0
M  V30 14906 C 1372.93 -0.0530267 -2.0163 0
M  V30 14907 C 1373.24 1.31124 -1.45141 0
M  V30 14908 O 1374.44 1.92231 -1.91728 0
M  V30 14909 C 1372.9 -0.0442411 -3.59873 0
M  V30 14910 C 1372.51 -1.40625 -4.25357 0
M  V30 14911 C 1374.25 0.422556 -4.22392 0
M  V30 14912 C 1372.16 -1.3557 -5.75652 0
M  V30 14913 H 1371.09 -0.0160537 -0.753829 0
M  V30 14914 H 1373.74 -0.723518 -1.68634 0
M  V30 14915 H 1372.12 0.692225 -3.89903 0
M  V30 14916 H 1373.3 -2.1617 -4.06949 0
M  V30 14917 H 1371.61 -1.81229 -3.74893 0
M  V30 14918 H 1374.21 0.479021 -5.3255 0
M  V30 14919 H 1374.55 1.43806 -3.90673 0
M  V30 14920 H 1375.08 -0.259551 -3.96952 0
M  V30 14921 H 1371.82 -2.34772 -6.12015 0
M  V30 14922 H 1371.34 -0.642309 -5.96351 0
M  V30 14923 H 1373.02 -1.06458 -6.38182 0
M  V30 14924 N 1373.15 1.5451 -0.310553 0
M  V30 14925 C 1374.4 2.00623 0.296343 0
M  V30 14926 C 1374.73 1.19855 1.52802 0
M  V30 14927 O 1374.01 0.277468 1.92511 0
M  V30 14928 C 1374.29 3.54305 0.643448 0
M  V30 14929 C 1374.14 4.45807 -0.598029 0
M  V30 14930 C 1375.46 4.14958 1.46623 0
M  V30 14931 H 1372.58 0.729303 0.106236 0
M  V30 14932 H 1375.22 1.85196 -0.424549 0
M  V30 14933 H 1373.37 3.67581 1.25762 0
M  V30 14934 H 1375.05 4.44421 -1.23643 0
M  V30 14935 H 1373.29 4.16014 -1.22944 0
M  V30 14936 H 1373.96 5.51124 -0.310883 0
M  V30 14937 H 1376.44 4.05176 0.947199 0
M  V30 14938 H 1375.31 5.22627 1.67787 0
M  V30 14939 H 1375.57 3.67445 2.45839 0
M  V30 14940 N 1374.63 0.0384594 1.57553 0
M  V30 14941 C 1375.86 -0.647137 1.96203 0
M  V30 14942 C 1376.27 -1.65656 0.914042 0
M  V30 14943 O 1375.61 -1.83361 -0.111617 0
M  V30 14944 C 1375.68 -1.40193 3.31038 0
M  V30 14945 C 1375.34 -0.549782 4.53681 0
M  V30 14946 C 1376.34 0.178839 5.19592 0
M  V30 14947 C 1374.02 -0.48444 4.99958 0
M  V30 14948 C 1376.02 0.961376 6.30108 0
M  V30 14949 C 1373.7 0.301795 6.10354 0
M  V30 14950 C 1374.7 1.0234 6.75289 0
M  V30 14951 O 1374.39 1.79673 7.83564 0
M  V30 14952 H 1374.12 -0.182651 0.650857 0
M  V30 14953 H 1376.68 0.0973346 2.05169 0
M  V30 14954 H 1374.91 -2.19175 3.1859 0
M  V30 14955 H 1376.59 -1.97653 3.54525 0
M  V30 14956 H 1377.36 0.137749 4.84804 0
M  V30 14957 H 1373.24 -1.03568 4.49216 0
M  V30 14958 H 1376.78 1.52513 6.80724 0
M  V30 14959 H 1372.68 0.344569 6.4458 0
M  V30 14960 H 1373.45 1.71749 8.00278 0
M  V30 14961 N 1376.11 -1.55841 -0.234795 0
M  V30 14962 C 1377.06 -1.92165 -1.31055 0
M  V30 14963 C 1378.05 -0.802106 -1.49207 0
M  V30 14964 O 1379.26 -0.986832 -1.50538 0
M  V30 14965 H 1375.63 -0.610487 -0.439101 0
M  V30 14966 H 1377.61 -2.81955 -0.976926 0
M  V30 14967 C 1376.35 -2.24329 -2.65654 0
M  V30 14968 H 1375.68 -3.09982 -2.5249 0
M  V30 14969 H 1377.12 -2.53639 -3.3977 0
M  V30 14970 C 1375.58 -1.0638 -3.19664 0
M  V30 14971 O 1376.11 -0.318047 -4.00439 0
M  V30 14972 N 1374.31 -0.851167 -2.77855 0
M  V30 14973 H 1373.86 -1.45932 -2.12277 0
M  V30 14974 H 1373.82 -0.0636875 -3.14335 0
M  V30 14975 N 1377.59 0.500963 -1.49426 0
M  V30 14976 C 1378.81 1.28383 -1.62888 0
M  V30 14977 C 1379.24 1.85688 -0.300262 0
M  V30 14978 O 1378.6 1.6586 0.73212 0
M  V30 14979 C 1378.65 2.38987 -2.70033 0
M  V30 14980 O 1377.75 3.42837 -2.29208 0
M  V30 14981 H 1377.09 0.379012 -0.545202 0
M  V30 14982 H 1379.62 0.59971 -1.95613 0
M  V30 14983 H 1379.63 2.84749 -2.92202 0
M  V30 14984 H 1378.31 1.96643 -3.66475 0
M  V30 14985 H 1376.88 3.02993 -2.1737 0
M  V30 14986 N 1379.07 1.38501 0.752011 0
M  V30 14987 C 1380 1.30236 1.87387 0
M  V30 14988 C 1380.98 0.179099 1.61611 0
M  V30 14989 O 1382.16 0.356686 1.85095 0
M  V30 14990 C 1379.29 1.01829 3.2303 0
M  V30 14991 C 1378.34 2.16114 3.67691 0
M  V30 14992 S 1379.17 3.78266 3.79044 0
M  V30 14993 C 1380.32 3.5205 5.17505 0
M  V30 14994 H 1380.56 2.25185 1.94111 0
M  V30 14995 H 1378.09 1.24356 0.915152 0
M  V30 14996 H 1380.05 0.861231 4.01364 0
M  V30 14997 H 1378.71 0.0859612 3.13982 0
M  V30 14998 H 1377.9 1.91788 4.66083 0
M  V30 14999 H 1377.5 2.27936 2.96515 0
M  V30 15000 H 1379.8 3.08262 6.03308 0
M  V30 15001 H 1380.74 4.49842 5.46853 0
M  V30 15002 H 1381.15 2.86528 4.86377 0
M  V30 15003 N 1380.55 -0.980364 1.23396 0
M  V30 15004 C 1381.78 -1.75434 1.09117 0
M  V30 15005 C 1382.18 -1.85739 -0.360243 0
M  V30 15006 O 1381.53 -1.33585 -1.26098 0
M  V30 15007 C 1381.59 -3.19795 1.6423 0
M  V30 15008 C 1381.25 -3.32999 3.12986 0
M  V30 15009 C 1382.25 -3.19321 4.1028 0
M  V30 15010 C 1379.93 -3.57647 3.52695 0
M  V30 15011 C 1381.93 -3.30096 5.45266 0
M  V30 15012 C 1379.62 -3.68061 4.87826 0
M  V30 15013 C 1380.61 -3.54295 5.83921 0
M  V30 15014 O 1380.3 -3.6434 7.16597 0
M  V30 15015 H 1380.03 -0.557382 0.382494 0
M  V30 15016 H 1382.59 -1.24038 1.63718 0
M  V30 15017 H 1380.82 -3.72439 1.04049 0
M  V30 15018 H 1382.51 -3.78954 1.45427 0
M  V30 15019 H 1383.27 -3.00177 3.80945 0
M  V30 15020 H 1379.15 -3.67433 2.78413 0
M  V30 15021 H 1382.7 -3.19268 6.20253 0
M  V30 15022 H 1378.59 -3.86715 5.16838 0
M  V30 15023 H 1379.36 -3.81135 7.24347 0
M  V30 15024 N 1382.02 -1.04567 -1.17913 0
M  V30 15025 C 1382.93 -0.651674 -2.25367 0
M  V30 15026 C 1383.95 0.32437 -1.7095 0
M  V30 15027 O 1385.13 0.178039 -2.00612 0
M  V30 15028 C 1382.19 -0.0259452 -3.4669 0
M  V30 15029 C 1381.25 -1.05163 -4.1622 0
M  V30 15030 C 1380.48 -0.45567 -5.31751 0
M  V30 15031 O 1380.71 0.736698 -5.65623 0
M  V30 15032 O 1379.64 -1.18684 -5.90083 0
M  V30 15033 H 1383.47 -1.54704 -2.61344 0
M  V30 15034 H 1381.05 -0.816852 -1.25092 0
M  V30 15035 H 1382.93 0.322126 -4.20167 0
M  V30 15036 H 1381.61 0.843165 -3.12526 0
M  V30 15037 H 1380.52 -1.45159 -3.44789 0
M  V30 15038 H 1381.85 -1.89168 -4.54397 0
M  V30 15039 N 1383.5 1.34231 -0.825823 0
M  V30 15040 C 1384.73 2.02949 -0.427354 0
M  V30 15041 C 1385.15 1.61772 0.959755 0
M  V30 15042 O 1384.51 0.803799 1.62508 0
M  V30 15043 C 1384.56 3.56522 -0.540799 0
M  V30 15044 O 1383.66 4.10065 0.438213 0
M  V30 15045 H 1383 0.640378 -0.175535 0
M  V30 15046 H 1385.53 1.71416 -1.11704 0
M  V30 15047 H 1385.54 4.05857 -0.41763 0
M  V30 15048 H 1384.22 3.85839 -1.55246 0
M  V30 15049 H 1382.79 3.71894 0.273687 0
M  V30 15050 N 1384.98 0.581051 1.46498 0
M  V30 15051 C 1386.23 0.0659956 2.02392 0
M  V30 15052 C 1386.55 -1.29329 1.45273 0
M  V30 15053 O 1385.81 -1.86047 0.607041 0
M  V30 15054 C 1386.11 -0.0514774 3.57363 0
M  V30 15055 C 1385.77 1.24 4.33514 0
M  V30 15056 C 1384.44 1.59383 4.54038 0
M  V30 15057 C 1386.79 2.09473 4.77253 0
M  V30 15058 C 1384.12 2.8004 5.15552 0
M  V30 15059 C 1386.47 3.29355 5.401 0
M  V30 15060 C 1385.13 3.65022 5.58852 0
M  V30 15061 H 1384.4 0.0241495 0.740606 0
M  V30 15062 H 1387.05 0.757354 1.75887 0
M  V30 15063 H 1385.35 -0.825955 3.82995 0
M  V30 15064 H 1387.05 -0.465726 3.98286 0
M  V30 15065 H 1383.64 0.954547 4.17835 0
M  V30 15066 H 1387.83 1.83441 4.61154 0
M  V30 15067 H 1383.08 3.07814 5.28262 0
M  V30 15068 H 1387.26 3.95855 5.7295 0
M  V30 15069 H 1384.88 4.58607 6.06287 0
M  V30 15070 N 1386.46 -1.54343 0.318742 0
M  V30 15071 C 1387.68 -2.05361 -0.290126 0
M  V30 15072 C 1388.11 -1.19362 -1.45376 0
M  V30 15073 O 1387.47 -0.201639 -1.80175 0
M  V30 15074 C 1387.51 -3.53601 -0.707025 0
M  V30 15075 O 1386.62 -3.70561 -1.80992 0
M  V30 15076 H 1385.96 -0.661858 -0.0532933 0
M  V30 15077 H 1388.49 -1.99228 0.46575 0
M  V30 15078 H 1388.5 -3.95782 -0.991005 0
M  V30 15079 H 1387.17 -4.1565 0.144091 0
M  V30 15080 H 1385.75 -3.40286 -1.52513 0
M  V30 15081 N 1387.94 -0.0468143 -1.5753 0
M  V30 15082 C 1389.18 0.627375 -1.91695 0
M  V30 15083 C 1389.5 1.72261 -0.926588 0
M  V30 15084 O 1390.7 2.45466 -1.16012 0
M  V30 15085 C 1389.16 1.16722 -3.40447 0
M  V30 15086 C 1388.77 0.104335 -4.47878 0
M  V30 15087 C 1390.51 1.81691 -3.83652 0
M  V30 15088 C 1388.42 0.656818 -5.87741 0
M  V30 15089 H 1387.35 0.238107 -0.715417 0
M  V30 15090 H 1390 -0.114995 -1.83139 0
M  V30 15091 H 1388.38 1.96177 -3.43992 0
M  V30 15092 H 1389.56 -0.669053 -4.55917 0
M  V30 15093 H 1387.87 -0.447633 -4.13987 0
M  V30 15094 H 1390.47 2.24014 -4.85512 0
M  V30 15095 H 1390.81 2.66686 -3.19663 0
M  V30 15096 H 1391.34 1.08898 -3.82604 0
M  V30 15097 H 1388.08 -0.155397 -6.55316 0
M  V30 15098 H 1387.6 1.39829 -5.83273 0
M  V30 15099 H 1389.28 1.14107 -6.36858 0
M  V30 15100 N 1389.41 1.55964 0.226527 0
M  V30 15101 C 1390.64 1.83168 0.972846 0
M  V30 15102 C 1391.06 0.626512 1.7736 0
M  V30 15103 O 1390.42 -0.42468 1.76256 0
M  V30 15104 C 1390.47 3.08315 1.87014 0
M  V30 15105 O 1389.57 2.8666 2.96479 0
M  V30 15106 H 1388.92 0.604041 0.275736 0
M  V30 15107 H 1391.45 2.03172 0.241345 0
M  V30 15108 H 1391.46 3.38288 2.28091 0
M  V30 15109 H 1390.13 3.95663 1.28154 0
M  V30 15110 H 1388.71 2.67907 2.59384 0
M  V30 15111 N 1390.89 -0.493031 1.4969 0
M  V30 15112 C 1392.14 -1.24664 1.59578 0
M  V30 15113 C 1392.47 -1.92385 0.286075 0
M  V30 15114 O 1391.72 -1.81712 -0.726586 0
M  V30 15115 C 1392.02 -2.33014 2.70997 0
M  V30 15116 C 1391.69 -1.82697 4.12229 0
M  V30 15117 C 1390.35 -1.68694 4.50662 0
M  V30 15118 C 1392.7 -1.45127 5.00587 0
M  V30 15119 C 1390.03 -1.15512 5.75216 0
M  V30 15120 C 1392.38 -0.933951 6.25668 0
M  V30 15121 C 1391.05 -0.780378 6.62923 0
M  V30 15122 H 1390.32 -0.456178 0.583937 0
M  V30 15123 H 1392.96 -0.546091 1.83549 0
M  V30 15124 H 1391.27 -3.08889 2.41029 0
M  V30 15125 H 1392.96 -2.91041 2.75855 0
M  V30 15126 H 1389.55 -1.94557 3.81897 0
M  V30 15127 H 1393.74 -1.5479 4.71544 0
M  V30 15128 H 1388.99 -1.0234 6.02774 0
M  V30 15129 H 1393.17 -0.634088 6.93507 0
M  V30 15130 H 1390.8 -0.366111 7.59318 0
M  V30 15131 N 1392.37 -1.38898 -0.744656 0
M  V30 15132 C 1393.62 -1.368 -1.50523 0
M  V30 15133 C 1393.97 0.0391042 -1.9236 0
M  V30 15134 O 1393.26 1.00363 -1.63211 0
M  V30 15135 C 1393.46 -2.2658 -2.76398 0
M  V30 15136 C 1393.29 -3.7588 -2.46868 0
M  V30 15137 C 1392.06 -4.44859 -2.39643 0
M  V30 15138 C 1394.26 -4.68096 -2.1305 0
M  V30 15139 N 1392.24 -5.79547 -2.02482 0
M  V30 15140 C 1393.61 -5.91362 -1.86254 0
M  V30 15141 C 1395.66 -4.56212 -1.99436 0
M  V30 15142 C 1394.37 -7.04074 -1.47216 0
M  V30 15143 C 1396.39 -5.68836 -1.618 0
M  V30 15144 C 1395.75 -6.9117 -1.35882 0
M  V30 15145 H 1391.85 -0.555867 -0.550032 0
M  V30 15146 H 1394.44 -1.74364 -0.866324 0
M  V30 15147 H 1392.61 -1.9119 -3.38084 0
M  V30 15148 H 1394.34 -2.15545 -3.42524 0
M  V30 15149 H 1391.1 -3.98181 -2.56415 0
M  V30 15150 H 1391.52 -6.50799 -1.86522 0
M  V30 15151 H 1396.16 -3.62177 -2.18146 0
M  V30 15152 H 1393.88 -7.98019 -1.27247 0
M  V30 15153 H 1397.47 -5.61624 -1.51886 0
M  V30 15154 H 1396.35 -7.76839 -1.07195 0
M  V30 15155 N 1393.85 0.973806 -1.23914 0
M  V30 15156 C 1395.1 1.71027 -1.06923 0
M  V30 15157 C 1395.41 1.91612 0.392947 0
M  V30 15158 O 1396.62 2.62771 0.682927 0
M  V30 15159 C 1395.07 3.07811 -1.86496 0
M  V30 15160 C 1394.68 2.9509 -3.37085 0
M  V30 15161 C 1396.42 3.85371 -1.78015 0
M  V30 15162 C 1394.33 4.27145 -4.09024 0
M  V30 15163 H 1393.26 0.641329 -0.396501 0
M  V30 15164 H 1395.91 1.08562 -1.47941 0
M  V30 15165 H 1394.29 3.71069 -1.38288 0
M  V30 15166 H 1395.47 2.4088 -3.92827 0
M  V30 15167 H 1393.78 2.30999 -3.46451 0
M  V30 15168 H 1396.38 4.83147 -2.2907 0
M  V30 15169 H 1396.72 4.09594 -0.744196 0
M  V30 15170 H 1397.26 3.28827 -2.23869 0
M  V30 15171 H 1394 4.08117 -5.12953 0
M  V30 15172 H 1393.52 4.81194 -3.58068 0
M  V30 15173 H 1395.19 4.95798 -4.15685 0
M  V30 15174 N 1395.33 1.05191 1.17357 0
M  V30 15175 C 1396.74 0.773255 1.39617 0
M  V30 15176 C 1396.94 -0.632346 1.91321 0
M  V30 15177 O 1396 -1.39475 2.10483 0
M  V30 15178 C 1397.31 1.82885 2.38692 0
M  V30 15179 C 1398.86 1.85106 2.52398 0
M  V30 15180 C 1399.33 2.89689 3.54746 0
M  V30 15181 N 1400.83 2.88651 3.62263 0
M  V30 15182 C 1401.56 3.66221 4.41214 0
M  V30 15183 N 1401.06 4.53577 5.23679 0
M  V30 15184 N 1402.85 3.54661 4.36087 0
M  V30 15185 H 1395 1.9588 0.82127 0
M  V30 15186 H 1397.26 0.848187 0.423417 0
M  V30 15187 H 1396.97 2.83766 2.07773 0
M  V30 15188 H 1396.84 1.67047 3.38194 0
M  V30 15189 H 1399.23 0.848896 2.82627 0
M  V30 15190 H 1399.31 2.05022 1.5297 0
M  V30 15191 H 1398.96 3.90091 3.25255 0
M  V30 15192 H 1398.89 2.67025 4.53878 0
M  V30 15193 H 1401.38 2.25312 3.03386 0
M  V30 15194 H 1401.69 5.09449 5.81104 0
M  V30 15195 H 1400.03 4.57638 5.23061 0
M  V30 15196 H 1403.23 2.8581 3.70716 0
M  V30 15197 H 1403.4 4.15361 4.97372 0
M  V30 15198 N 1396.8 -1.33791 0.83293 0
M  V30 15199 C 1398.05 -1.97233 0.422127 0
M  V30 15200 C 1398.37 -1.66738 -1.02264 0
M  V30 15201 O 1399.57 -2.23747 -1.53783 0
M  V30 15202 C 1398.03 -3.5295 0.703872 0
M  V30 15203 C 1397.64 -3.92329 2.16292 0
M  V30 15204 C 1399.38 -4.22973 0.359727 0
M  V30 15205 C 1397.29 -5.40999 2.38903 0
M  V30 15206 H 1396.22 -0.738082 0.154112 0
M  V30 15207 H 1398.87 -1.52494 1.02068 0
M  V30 15208 H 1397.25 -3.95985 0.0350184 0
M  V30 15209 H 1398.42 -3.6037 2.87176 0
M  V30 15210 H 1396.74 -3.35271 2.46947 0
M  V30 15211 H 1399.34 -5.32297 0.506366 0
M  V30 15212 H 1399.68 -4.10428 -0.696743 0
M  V30 15213 H 1400.21 -3.85449 0.983568 0
M  V30 15214 H 1396.95 -5.58541 3.43093 0
M  V30 15215 H 1396.47 -5.74438 1.72573 0
M  V30 15216 H 1398.15 -6.07809 2.2176 0
M  V30 15217 N 1398.28 -0.588812 -1.46187 0
M  V30 15218 C 1399.23 0.153638 -2.32092 0
M  V30 15219 C 1400.22 0.878346 -1.4485 0
M  V30 15220 O 1401.43 0.796042 -1.61441 0
M  V30 15221 H 1397.81 0.0684129 -0.748882 0
M  V30 15222 H 1399.78 -0.58961 -2.92517 0
M  V30 15223 C 1398.53 1.15003 -3.28131 0
M  V30 15224 H 1397.85 0.601804 -3.95245 0
M  V30 15225 H 1399.29 1.6398 -3.91007 0
M  V30 15226 C 1397.75 2.21411 -2.53926 0
M  V30 15227 O 1398.28 3.28862 -2.30679 0
M  V30 15228 N 1396.48 1.96184 -2.14383 0
M  V30 15229 H 1396.03 1.08812 -2.3349 0
M  V30 15230 H 1395.99 2.6759 -1.65055 0
M  V30 15231 N 1399.76 1.54172 -0.326923 0
M  V30 15232 C 1400.71 2.24454 0.537501 0
M  V30 15233 C 1401.68 1.23658 1.10896 0
M  V30 15234 O 1402.86 1.52348 1.14868 0
M  V30 15235 C 1400 3.00839 1.69085 0
M  V30 15236 C 1399.12 4.16459 1.1483 0
M  V30 15237 C 1398.25 4.80368 2.26761 0
M  V30 15238 C 1397.29 5.88085 1.69771 0
M  V30 15239 N 1396.43 6.45842 2.75378 0
M  V30 15240 H 1401.27 2.97921 -0.0684022 0
M  V30 15241 H 1398.8 1.4703 -0.0455287 0
M  V30 15242 H 1400.76 3.43375 2.36959 0
M  V30 15243 H 1399.39 2.297 2.26799 0
M  V30 15244 H 1398.44 3.78683 0.361004 0
M  V30 15245 H 1399.76 4.93986 0.69132 0
M  V30 15246 H 1398.91 5.25889 3.02533 0
M  V30 15247 H 1397.65 4.02228 2.75796 0
M  V30 15248 H 1396.65 5.41963 0.924985 0
M  V30 15249 H 1397.88 6.68123 1.21609 0
M  V30 15250 H 1395.82 5.70574 3.23699 0
M  V30 15251 H 1395.74 7.18792 2.34253 0
M  V30 15252 H 1397.01 6.96018 3.50969 0
M  V30 15253 N 1401.24 0.0551678 1.57503 0
M  V30 15254 C 1402.48 -0.612713 1.93952 0
M  V30 15255 C 1402.84 -1.68215 0.933889 0
M  V30 15256 O 1402.13 -1.91544 -0.0463465 0
M  V30 15257 C 1402.33 -1.24895 3.34867 0
M  V30 15258 C 1402.16 -0.242666 4.49045 0
M  V30 15259 C 1400.93 0.16678 5.05025 0
M  V30 15260 C 1403.12 0.513505 5.1173 0
M  V30 15261 N 1401.11 1.16551 6.02735 0
M  V30 15262 C 1402.48 1.3652 6.04783 0
M  V30 15263 C 1404.53 0.571384 4.94611 0
M  V30 15264 C 1403.23 2.26959 6.82556 0
M  V30 15265 C 1405.26 1.46322 5.73013 0
M  V30 15266 C 1404.62 2.30262 6.65702 0
M  V30 15267 H 1400.72 -0.195733 0.757108 0
M  V30 15268 H 1403.31 0.128432 1.94276 0
M  V30 15269 H 1401.48 -1.9601 3.35313 0
M  V30 15270 H 1403.21 -1.87595 3.58595 0
M  V30 15271 H 1399.96 -0.212991 4.73121 0
M  V30 15272 H 1400.39 1.66188 6.56285 0
M  V30 15273 H 1405.03 -0.0633664 4.22753 0
M  V30 15274 H 1402.75 2.91477 7.53702 0
M  V30 15275 H 1406.33 1.51262 5.61793 0
M  V30 15276 H 1405.21 2.98153 7.2531 0
M  V30 15277 N 1402.72 -1.56081 -0.218252 0
M  V30 15278 C 1403.96 -1.79513 -0.943553 0
M  V30 15279 C 1404.3 -0.625367 -1.83855 0
M  V30 15280 O 1403.57 0.375226 -1.90846 0
M  V30 15281 C 1403.85 -3.13049 -1.77967 0
M  V30 15282 C 1403.71 -4.40479 -0.910939 0
M  V30 15283 C 1405.03 -3.43057 -2.7568 0
M  V30 15284 H 1402.14 -0.653057 -0.341593 0
M  V30 15285 H 1404.79 -1.88811 -0.212226 0
M  V30 15286 H 1402.94 -3.05254 -2.40318 0
M  V30 15287 H 1404.61 -4.60298 -0.303922 0
M  V30 15288 H 1402.85 -4.33259 -0.216513 0
M  V30 15289 H 1403.52 -5.3036 -1.53042 0
M  V30 15290 H 1406 -3.51002 -2.23465 0
M  V30 15291 H 1404.87 -4.37657 -3.31282 0
M  V30 15292 H 1405.14 -2.65389 -3.53584 0
M  V30 15293 N 1404.2 0.485086 -1.49949 0
M  V30 15294 C 1405.42 1.26648 -1.64241 0
M  V30 15295 C 1405.85 1.85359 -0.319939 0
M  V30 15296 O 1405.2 1.66628 0.714487 0
M  V30 15297 C 1405.25 2.36109 -2.72552 0
M  V30 15298 O 1404.36 3.40387 -2.32832 0
M  V30 15299 H 1403.7 0.373208 -0.549192 0
M  V30 15300 H 1406.23 0.578929 -1.96239 0
M  V30 15301 H 1406.24 2.81634 -2.95205 0
M  V30 15302 H 1404.91 1.92745 -3.6854 0
M  V30 15303 H 1403.49 3.0067 -2.20571 0
M  V30 15304 N 1405.67 1.39291 0.737279 0
M  V30 15305 C 1406.62 1.37969 1.87263 0
M  V30 15306 C 1407.62 0.263156 1.67344 0
M  V30 15307 O 1408.82 0.433069 1.74713 0
M  V30 15308 H 1405.2 0.430782 0.616385 0
M  V30 15309 H 1407.17 2.33741 1.85494 0
M  V30 15310 C 1405.92 1.23779 3.24922 0
M  V30 15311 H 1405.24 2.08963 3.40844 0
M  V30 15312 H 1406.68 1.26911 4.04561 0
M  V30 15313 C 1405.14 -0.0539778 3.36857 0
M  V30 15314 O 1405.67 -1.02501 3.88402 0
M  V30 15315 N 1403.87 -0.116275 2.90367 0
M  V30 15316 H 1403.42 0.674622 2.48609 0
M  V30 15317 H 1403.38 -0.980107 2.98733 0
M  V30 15318 N 1407.15 -0.967221 1.24429 0
M  V30 15319 C 1408.08 -2.07966 1.06172 0
M  V30 15320 C 1409.06 -1.70081 -0.0254566 0
M  V30 15321 O 1410.25 -1.93682 0.141705 0
M  V30 15322 C 1407.38 -3.4085 0.666251 0
M  V30 15323 C 1406.33 -3.92692 1.70225 0
M  V30 15324 C 1405.66 -5.21925 1.16183 0
M  V30 15325 C 1406.96 -4.20478 3.09831 0
M  V30 15326 H 1408.65 -2.23497 1.99222 0
M  V30 15327 H 1406.2 -1.07398 0.959255 0
M  V30 15328 H 1408.15 -4.1811 0.52552 0
M  V30 15329 H 1406.87 -3.2522 -0.299939 0
M  V30 15330 H 1405.53 -3.17588 1.83121 0
M  V30 15331 H 1405.18 -5.02655 0.186237 0
M  V30 15332 H 1404.88 -5.57579 1.85416 0
M  V30 15333 H 1406.41 -6.01795 1.03323 0
M  V30 15334 H 1407.82 -4.88442 3.00162 0
M  V30 15335 H 1406.22 -4.67362 3.7642 0
M  V30 15336 H 1407.29 -3.27235 3.57834 0
M  V30 15337 N 1408.63 -1.05812 -1.16797 0
M  V30 15338 C 1410.04 -0.79707 -1.6883 0
M  V30 15339 C 1410.39 0.679967 -1.8404 0
M  V30 15340 O 1409.52 1.5279 -1.53245 0
M  V30 15341 C 1410.11 -1.44029 -3.06661 0
M  V30 15342 C 1408.67 -1.22714 -3.55835 0
M  V30 15343 C 1407.82 -1.51988 -2.31937 0
M  V30 15344 H 1410.77 -1.22224 -1.01227 0
M  V30 15345 H 1410.79 -0.852962 -3.70816 0
M  V30 15346 H 1410.3 -2.51529 -2.95559 0
M  V30 15347 H 1408.4 -0.171671 -3.72204 0
M  V30 15348 H 1408.52 -1.93646 -4.38221 0
M  V30 15349 H 1406.88 -0.940215 -2.36711 0
M  V30 15350 H 1407.66 -2.60635 -2.23438 0
M  V30 15351 N 1410.11 1.33347 -0.840014 0
M  V30 15352 C 1411.36 1.97354 -0.435412 0
M  V30 15353 C 1411.68 1.66866 1.009 0
M  V30 15354 O 1410.95 0.968186 1.70303 0
M  V30 15355 H 1409.53 0.730096 -0.158017 0
M  V30 15356 H 1412.19 1.6269 -1.07322 0
M  V30 15357 H 1411.28 3.0688 -0.56841 0
M  V30 15358 N 1411.59 0.596556 1.45873 0
M  V30 15359 C 1412.82 0.093357 2.06389 0
M  V30 15360 C 1413.22 -1.2229 1.44367 0
M  V30 15361 O 1412.57 -1.75332 0.548131 0
M  V30 15362 C 1412.63 -0.132256 3.59257 0
M  V30 15363 C 1412.29 1.10051 4.43551 0
M  V30 15364 C 1413.29 2.01598 4.79223 0
M  V30 15365 C 1410.97 1.32625 4.84475 0
M  V30 15366 C 1412.97 3.14054 5.54661 0
M  V30 15367 C 1410.66 2.45384 5.5967 0
M  V30 15368 C 1411.65 3.35927 5.94678 0
M  V30 15369 O 1411.34 4.46726 6.6835 0
M  V30 15370 H 1411.07 0.0608944 0.673252 0
M  V30 15371 H 1413.63 0.821009 1.88278 0
M  V30 15372 H 1411.86 -0.914678 3.75727 0
M  V30 15373 H 1413.55 -0.585681 4.01652 0
M  V30 15374 H 1414.31 1.85379 4.48174 0
M  V30 15375 H 1410.19 0.630522 4.56668 0
M  V30 15376 H 1413.74 3.8475 5.81904 0
M  V30 15377 H 1409.63 2.6156 5.90133 0
M  V30 15378 H 1410.4 4.45268 6.86789 0
M  V30 15379 N 1413.06 -1.53996 0.335095 0
M  V30 15380 C 1414.29 -2.05188 -0.26563 0
M  V30 15381 C 1414.71 -1.21058 -1.44881 0
M  V30 15382 O 1414.06 -0.243919 -1.80863 0
M  V30 15383 C 1414.11 -3.54875 -0.688904 0
M  V30 15384 O 1413.84 -4.35811 0.447217 0
M  V30 15385 C 1415.34 -4.22204 -1.35123 0
M  V30 15386 H 1412.56 -0.668921 -0.0527806 0
M  V30 15387 H 1415.1 -1.98675 0.48463 0
M  V30 15388 H 1413.26 -3.61638 -1.38912 0
M  V30 15389 H 1413.67 -5.24381 0.111495 0
M  V30 15390 H 1415.14 -5.28356 -1.59823 0
M  V30 15391 H 1415.62 -3.74029 -2.30216 0
M  V30 15392 H 1416.23 -4.19611 -0.693283 0
M  V30 15393 N 1414.54 -0.0635198 -1.57472 0
M  V30 15394 C 1415.79 0.607008 -1.92349 0
M  V30 15395 C 1416.1 1.71268 -0.944806 0
M  V30 15396 O 1417.31 2.44221 -1.18609 0
M  V30 15397 C 1415.77 1.13105 -3.41666 0
M  V30 15398 C 1415.37 0.0568256 -4.47964 0
M  V30 15399 C 1417.12 1.77611 -3.85557 0
M  V30 15400 C 1415.02 0.594443 -5.88405 0
M  V30 15401 H 1413.95 0.230506 -0.717902 0
M  V30 15402 H 1416.61 -0.134413 -1.83007 0
M  V30 15403 H 1414.99 1.92517 -3.46054 0
M  V30 15404 H 1416.16 -0.717371 -4.55182 0
M  V30 15405 H 1414.48 -0.491517 -4.13489 0
M  V30 15406 H 1417.07 2.18852 -4.87861 0
M  V30 15407 H 1417.42 2.6328 -3.22474 0
M  V30 15408 H 1417.95 1.04834 -3.83738 0
M  V30 15409 H 1414.69 -0.224893 -6.55114 0
M  V30 15410 H 1414.21 1.33635 -5.84724 0
M  V30 15411 H 1415.89 1.07346 -6.38033 0
M  V30 15412 N 1416.02 1.56195 0.209972 0
M  V30 15413 C 1417.27 1.78941 0.930744 0
M  V30 15414 C 1417.58 0.634139 1.85035 0
M  V30 15415 O 1418.79 0.745524 2.61064 0
M  V30 15416 C 1417.24 3.16935 1.70529 0
M  V30 15417 C 1416.85 4.40221 0.83125 0
M  V30 15418 C 1418.6 3.49 2.41659 0
M  V30 15419 C 1416.5 5.69238 1.60381 0
M  V30 15420 H 1415.43 0.667176 0.351273 0
M  V30 15421 H 1418.08 1.82572 0.184341 0
M  V30 15422 H 1416.47 3.07513 2.49503 0
M  V30 15423 H 1417.64 4.60728 0.081227 0
M  V30 15424 H 1415.95 4.15756 0.231517 0
M  V30 15425 H 1418.55 4.42623 2.99982 0
M  V30 15426 H 1418.89 2.72042 3.15117 0
M  V30 15427 H 1419.43 3.59804 1.69665 0
M  V30 15428 H 1416.17 6.49121 0.912292 0
M  V30 15429 H 1415.69 5.52772 2.32815 0
M  V30 15430 H 1417.37 6.09827 2.16149 0
M  V30 15431 N 1417.5 -0.477127 1.50204 0
M  V30 15432 C 1418.77 -1.23837 1.51406 0
M  V30 15433 C 1419.15 -2.09551 0.255278 0
M  V30 15434 O 1418.5 -2.15437 -0.761535 0
M  V30 15435 C 1418.71 -2.0746 2.80644 0
M  V30 15436 C 1420.06 -2.65852 3.31071 0
M  V30 15437 O 1421.08 -2.17708 2.81925 0
M  V30 15438 O 1419.94 -3.53556 4.16726 0
M  V30 15439 H 1417.04 -0.561638 0.607036 0
M  V30 15440 H 1419.58 -0.489442 1.62489 0
M  V30 15441 H 1418.36 -1.44258 3.63738 0
M  V30 15442 H 1417.98 -2.895 2.72536 0
M  V30 15443 N 1418.98 -1.3968 -0.729882 0
M  V30 15444 C 1420.2 -1.40654 -1.52418 0
M  V30 15445 C 1420.63 -0.00428997 -1.881 0
M  V30 15446 O 1419.98 0.984023 -1.52272 0
M  V30 15447 C 1420.03 -2.29057 -2.78506 0
M  V30 15448 O 1419.14 -1.72397 -3.74637 0
M  V30 15449 H 1418.48 -0.478761 -0.460091 0
M  V30 15450 H 1421.01 -1.83738 -0.900087 0
M  V30 15451 H 1421.02 -2.43748 -3.27187 0
M  V30 15452 H 1419.69 -3.30961 -2.51868 0
M  V30 15453 H 1418.27 -1.66977 -3.33426 0
M  V30 15454 N 1420.45 0.960609 -1.2494 0
M  V30 15455 C 1421.7 1.70701 -1.09495 0
M  V30 15456 C 1422.03 1.90754 0.364214 0
M  V30 15457 O 1421.31 1.47417 1.26879 0
M  V30 15458 C 1421.59 3.09353 -1.84317 0
M  V30 15459 C 1421.44 2.96747 -3.38026 0
M  V30 15460 C 1422.76 4.09139 -1.62153 0
M  V30 15461 H 1419.88 0.61955 -0.399158 0
M  V30 15462 H 1422.52 1.11701 -1.53698 0
M  V30 15463 H 1420.67 3.59719 -1.46746 0
M  V30 15464 H 1422.35 2.53752 -3.85237 0
M  V30 15465 H 1420.59 2.32798 -3.66043 0
M  V30 15466 H 1421.26 3.95002 -3.85587 0
M  V30 15467 H 1423.74 3.67659 -1.94849 0
M  V30 15468 H 1422.61 5.04206 -2.16951 0
M  V30 15469 H 1422.87 4.38521 -0.561437 0
M  V30 15470 N 1421.93 1.0643 1.16234 0
M  V30 15471 C 1422.88 0.676311 2.20669 0
M  V30 15472 C 1423.85 -0.327721 1.62835 0
M  V30 15473 O 1425.03 -0.216296 1.8957 0
M  V30 15474 C 1422.17 0.0703726 3.45028 0
M  V30 15475 C 1421.29 1.12475 4.17101 0
M  V30 15476 C 1420.42 0.484806 5.28983 0
M  V30 15477 C 1419.46 1.52262 5.9286 0
M  V30 15478 N 1418.6 0.905938 6.96231 0
M  V30 15479 H 1423.44 1.57129 2.53209 0
M  V30 15480 H 1420.98 0.7856 1.24365 0
M  V30 15481 H 1422.93 -0.298488 4.16131 0
M  V30 15482 H 1421.56 -0.788002 3.13034 0
M  V30 15483 H 1420.62 1.6113 3.44589 0
M  V30 15484 H 1421.93 1.91202 4.60698 0
M  V30 15485 H 1421.08 0.0630553 6.06667 0
M  V30 15486 H 1419.82 -0.334332 4.86553 0
M  V30 15487 H 1418.83 1.95425 5.13896 0
M  V30 15488 H 1420.05 2.34388 6.37369 0
M  V30 15489 H 1418 0.107536 6.55912 0
M  V30 15490 H 1417.91 1.63058 7.38206 0
M  V30 15491 H 1419.18 0.509378 7.77834 0
M  V30 15492 N 1423.41 -1.329 0.847073 0
M  V30 15493 C 1424.36 -2.3097 0.27487 0
M  V30 15494 C 1425.35 -1.58508 -0.597625 0
M  V30 15495 O 1426.56 -1.73307 -0.486273 0
M  V30 15496 H 1422.93 -0.748719 0.0701719 0
M  V30 15497 H 1424.9 -2.7673 1.11638 0
M  V30 15498 C 1423.65 -3.43662 -0.528363 0
M  V30 15499 H 1422.98 -3.99576 0.133707 0
M  V30 15500 H 1424.42 -4.14458 -0.894443 0
M  V30 15501 C 1422.88 -2.90244 -1.71055 0
M  V30 15502 O 1423.41 -2.87109 -2.80947 0
M  V30 15503 N 1421.61 -2.46743 -1.53512 0
M  V30 15504 H 1421.16 -2.49493 -0.641181 0
M  V30 15505 H 1421.12 -2.11356 -2.32757 0
M  V30 15506 N 1424.89 -0.604284 -1.45555 0
M  V30 15507 C 1425.84 0.129013 -2.32242 0
M  V30 15508 C 1426.83 0.862933 -1.45773 0
M  V30 15509 O 1428.04 0.778874 -1.62276 0
M  V30 15510 H 1424.41 0.0604661 -0.749565 0
M  V30 15511 H 1426.38 -0.620603 -2.91875 0
M  V30 15512 C 1425.13 1.11516 -3.29332 0
M  V30 15513 H 1424.45 0.559849 -3.95861 0
M  V30 15514 H 1425.89 1.59824 -3.92724 0
M  V30 15515 C 1424.35 2.18706 -2.5626 0
M  V30 15516 O 1424.88 3.26397 -2.34154 0
M  V30 15517 N 1423.09 1.93899 -2.16452 0
M  V30 15518 H 1422.64 1.0633 -2.34631 0
M  V30 15519 H 1422.59 2.65824 -1.67884 0
M  V30 15520 N 1426.37 1.53816 -0.343257 0
M  V30 15521 C 1427.59 2.05796 0.257418 0
M  V30 15522 C 1428.02 1.2166 1.43459 0
M  V30 15523 O 1427.37 0.230278 1.79832 0
M  V30 15524 C 1427.42 3.54681 0.65068 0
M  V30 15525 O 1426.53 3.73394 1.75074 0
M  V30 15526 H 1425.87 0.662622 0.042757 0
M  V30 15527 H 1428.4 1.98462 -0.497386 0
M  V30 15528 H 1428.41 3.97308 0.927914 0
M  V30 15529 H 1427.08 4.15368 -0.210199 0
M  V30 15530 H 1425.66 3.42669 1.4708 0
M  V30 15531 N 1427.84 0.0718701 1.57436 0
M  V30 15532 C 1429.09 -0.596052 1.9311 0
M  V30 15533 C 1429.41 -1.70146 0.952652 0
M  V30 15534 O 1428.68 -1.959 0.000812941 0
M  V30 15535 H 1427.26 -0.223165 0.712886 0
M  V30 15536 H 1429.93 0.129744 1.94468 0
M  V30 15537 H 1429.02 -1.02132 2.94916 0
M  V30 15538 N 1429.32 -1.56304 -0.201686 0
M  V30 15539 C 1430.57 -1.81407 -0.919946 0
M  V30 15540 C 1430.92 -0.647922 -1.81162 0
M  V30 15541 O 1430.22 0.357203 -1.88241 0
M  V30 15542 C 1430.41 -3.10101 -1.77686 0
M  V30 15543 C 1430.24 -4.39122 -0.969636 0
M  V30 15544 C 1429.01 -5.01015 -0.65667 0
M  V30 15545 C 1431.21 -5.13269 -0.325463 0
M  V30 15546 N 1429.19 -6.13665 0.169875 0
M  V30 15547 C 1430.56 -6.18933 0.363576 0
M  V30 15548 C 1432.62 -4.97319 -0.240517 0
M  V30 15549 C 1431.32 -7.10377 1.12946 0
M  V30 15550 C 1433.34 -5.8918 0.511954 0
M  V30 15551 C 1432.71 -6.94285 1.18946 0
M  V30 15552 H 1428.81 -0.715203 -0.316242 0
M  V30 15553 H 1431.39 -1.93779 -0.189193 0
M  V30 15554 H 1429.56 -2.98976 -2.47927 0
M  V30 15555 H 1431.29 -3.23317 -2.4341 0
M  V30 15556 H 1428.05 -4.6336 -0.979506 0
M  V30 15557 H 1428.47 -6.74574 0.572565 0
M  V30 15558 H 1433.11 -4.16095 -0.749969 0
M  V30 15559 H 1430.83 -7.91068 1.65037 0
M  V30 15560 H 1434.42 -5.78912 0.578949 0
M  V30 15561 H 1433.3 -7.64139 1.7624 0
M  V30 15562 N 1430.8 0.469154 -1.50455 0
M  V30 15563 C 1432.03 1.24899 -1.65575 0
M  V30 15564 C 1432.45 1.85009 -0.339581 0
M  V30 15565 O 1431.81 1.67376 0.696774 0
M  V30 15566 C 1431.86 2.33205 -2.75041 0
M  V30 15567 O 1430.96 3.37898 -2.36429 0
M  V30 15568 H 1430.3 0.367362 -0.553119 0
M  V30 15569 H 1432.83 0.558083 -1.96842 0
M  V30 15570 H 1432.84 2.78487 -2.98176 0
M  V30 15571 H 1431.52 1.88826 -3.70564 0
M  V30 15572 H 1430.09 2.98314 -2.23748 0
M  V30 15573 N 1432.28 1.40065 0.722464 0
M  V30 15574 C 1433.53 1.37277 1.47776 0
M  V30 15575 C 1433.84 -0.0242852 1.95585 0
M  V30 15576 O 1435.05 -0.174769 2.70937 0
M  V30 15577 C 1433.5 2.41233 2.67085 0
M  V30 15578 C 1433.11 3.86716 2.26174 0
M  V30 15579 C 1434.85 2.47541 3.44853 0
M  V30 15580 C 1432.76 4.82284 3.42281 0
M  V30 15581 H 1431.69 0.510405 0.55498 0
M  V30 15582 H 1434.34 1.6577 0.786928 0
M  V30 15583 H 1432.72 2.0583 3.38305 0
M  V30 15584 H 1433.9 4.31227 1.6242 0
M  V30 15585 H 1432.21 3.83819 1.61468 0
M  V30 15586 H 1434.81 3.16131 4.31237 0
M  V30 15587 H 1435.15 1.50379 3.8819 0
M  V30 15588 H 1435.69 2.81901 2.80672 0
M  V30 15589 H 1432.43 5.80754 3.03982 0
M  V30 15590 H 1431.95 4.42443 4.04975 0
M  V30 15591 H 1433.62 5.0178 4.08443 0
M  V30 15592 N 1433.76 -0.95397 1.25448 0
M  V30 15593 C 1435.01 -1.6953 1.10018 0
M  V30 15594 C 1435.33 -1.9166 -0.359385 0
M  V30 15595 O 1434.6 -1.50417 -1.25506 0
M  V30 15596 H 1433.18 -0.628238 0.404136 0
M  V30 15597 H 1435.84 -1.14691 1.57581 0
M  V30 15598 H 1434.93 -2.67427 1.60901 0
M  V30 15599 N 1435.24 -1.07045 -1.15668 0
M  V30 15600 C 1436.48 -0.786751 -1.85723 0
M  V30 15601 C 1436.8 0.689604 -1.83041 0
M  V30 15602 O 1438 1.08796 -2.48748 0
M  V30 15603 C 1436.46 -1.35729 -3.33325 0
M  V30 15604 C 1436.07 -2.86444 -3.44462 0
M  V30 15605 C 1437.81 -1.15148 -4.08584 0
M  V30 15606 C 1435.72 -3.36705 -4.86193 0
M  V30 15607 H 1434.65 -0.29063 -0.695737 0
M  V30 15608 H 1437.3 -1.29012 -1.30492 0
M  V30 15609 H 1435.68 -0.781671 -3.88209 0
M  V30 15610 H 1436.86 -3.50023 -2.997 0
M  V30 15611 H 1435.17 -3.0578 -2.82644 0
M  V30 15612 H 1437.77 -1.50179 -5.13177 0
M  V30 15613 H 1438.11 -0.0903159 -4.16202 0
M  V30 15614 H 1438.64 -1.6933 -3.59962 0
M  V30 15615 H 1435.38 -4.42333 -4.83758 0
M  V30 15616 H 1434.9 -2.77877 -5.31549 0
M  V30 15617 H 1436.58 -3.32478 -5.55038 0
M  V30 15618 N 1436.71 1.32449 -0.85411 0
M  V30 15619 C 1437.96 1.96537 -0.453451 0
M  V30 15620 C 1438.28 1.68344 0.995982 0
M  V30 15621 O 1439.48 2.26166 1.50204 0
M  V30 15622 C 1437.94 3.51785 -0.759934 0
M  V30 15623 C 1437.55 3.88838 -2.22506 0
M  V30 15624 C 1439.29 4.22347 -0.426973 0
M  V30 15625 C 1437.2 5.37129 -2.47479 0
M  V30 15626 H 1436.13 0.735537 -0.165835 0
M  V30 15627 H 1438.78 1.50851 -1.04481 0
M  V30 15628 H 1437.16 3.95879 -0.0980116 0
M  V30 15629 H 1438.33 3.55756 -2.92873 0
M  V30 15630 H 1436.65 3.31299 -2.52249 0
M  V30 15631 H 1439.25 5.31424 -0.590986 0
M  V30 15632 H 1439.59 4.11485 0.631359 0
M  V30 15633 H 1440.12 3.83835 -1.04477 0
M  V30 15634 H 1436.86 5.53012 -3.51935 0
M  V30 15635 H 1436.38 5.71619 -1.8169 0
M  V30 15636 H 1438.06 6.04204 -2.31401 0
M  V30 15637 N 1438.19 0.611994 1.45232 0
M  V30 15638 C 1439.42 0.113618 2.07089 0
M  V30 15639 C 1439.84 -1.1947 1.45288 0
M  V30 15640 O 1439.2 -1.72845 0.547207 0
M  V30 15641 C 1439.25 -0.00789978 3.60599 0
M  V30 15642 O 1438.35 -1.05697 3.98625 0
M  V30 15643 H 1437.69 0.076066 0.659629 0
M  V30 15644 H 1440.22 0.843253 1.86415 0
M  V30 15645 H 1440.23 -0.204692 4.07486 0
M  V30 15646 H 1438.91 0.947386 4.04966 0
M  V30 15647 H 1437.48 -0.836291 3.63401 0
M  V30 15648 N 1439.67 -1.53632 0.351409 0
M  V30 15649 C 1440.62 -2.26782 -0.516983 0
M  V30 15650 C 1441.61 -1.29222 -1.09536 0
M  V30 15651 O 1442.82 -1.46901 -1.04019 0
M  V30 15652 H 1439.19 -0.728783 -0.185417 0
M  V30 15653 H 1441.16 -2.98151 0.121909 0
M  V30 15654 C 1439.91 -3.05943 -1.6521 0
M  V30 15655 H 1439.24 -3.80848 -1.21633 0
M  V30 15656 H 1440.68 -3.60328 -2.23472 0
M  V30 15657 C 1439.13 -2.15917 -2.58614 0
M  V30 15658 O 1439.66 -1.76049 -3.61067 0
M  V30 15659 N 1437.87 -1.80837 -2.27478 0
M  V30 15660 H 1437.42 -2.13456 -1.44202 0
M  V30 15661 H 1437.38 -1.20886 -2.90231 0
M  V30 15662 N 1441.15 -0.0802183 -1.57396 0
M  V30 15663 C 1442.39 0.586962 -1.93807 0
M  V30 15664 C 1442.72 1.69107 -0.960887 0
M  V30 15665 O 1441.98 1.95688 0.0220779 0
M  V30 15666 C 1442.28 1.19551 -3.36812 0
M  V30 15667 C 1441.94 0.216701 -4.50379 0
M  V30 15668 C 1440.6 -0.0525552 -4.81171 0
M  V30 15669 C 1442.96 -0.452467 -5.19232 0
M  V30 15670 C 1440.28 -0.997923 -5.78151 0
M  V30 15671 C 1442.64 -1.38621 -6.17225 0
M  V30 15672 C 1441.3 -1.66385 -6.4643 0
M  V30 15673 H 1440.57 0.214785 -0.709189 0
M  V30 15674 H 1443.22 -0.152888 -1.90889 0
M  V30 15675 H 1441.52 2.01129 -3.36236 0
M  V30 15676 H 1443.22 1.71918 -3.62278 0
M  V30 15677 H 1439.81 0.436747 -4.26369 0
M  V30 15678 H 1443.99 -0.257573 -4.95631 0
M  V30 15679 H 1439.25 -1.22019 -5.991 0
M  V30 15680 H 1443.42 -1.91063 -6.69677 0
M  V30 15681 H 1441.05 -2.39799 -7.21388 0
M  V30 15682 N 1442.63 1.56409 0.193394 0
M  V30 15683 C 1443.56 1.97707 1.24234 0
M  V30 15684 C 1444.54 0.849286 1.47381 0
M  V30 15685 O 1445.72 1.11374 1.59089 0
M  V30 15686 C 1442.85 2.31804 2.5862 0
M  V30 15687 C 1441.81 3.47337 2.50082 0
M  V30 15688 C 1441.13 3.67114 3.88756 0
M  V30 15689 C 1442.43 4.81472 2.02441 0
M  V30 15690 H 1444.13 2.8558 0.89914 0
M  V30 15691 H 1441.67 1.37396 0.431078 0
M  V30 15692 H 1443.62 2.5929 3.32185 0
M  V30 15693 H 1442.35 1.40816 2.94684 0
M  V30 15694 H 1441.01 3.19944 1.78973 0
M  V30 15695 H 1440.66 2.73454 4.22175 0
M  V30 15696 H 1440.36 4.44838 3.83918 0
M  V30 15697 H 1441.88 3.96978 4.6394 0
M  V30 15698 H 1443.29 5.07978 2.65766 0
M  V30 15699 H 1441.69 5.62677 2.08601 0
M  V30 15700 H 1442.76 4.74941 0.977704 0
M  V30 15701 N 1444.1 -0.461169 1.50702 0
M  V30 15702 C 1445.35 -1.21431 1.62427 0
M  V30 15703 C 1445.68 -1.91406 0.328228 0
M  V30 15704 O 1444.96 -1.82563 -0.670898 0
M  V30 15705 C 1445.24 -2.25016 2.8114 0
M  V30 15706 C 1445.09 -1.5928 4.20654 0
M  V30 15707 C 1446.41 -3.26234 2.95397 0
M  V30 15708 H 1443.53 -0.440113 0.59116 0
M  V30 15709 H 1446.17 -0.506726 1.83118 0
M  V30 15710 H 1444.32 -2.85363 2.63629 0
M  V30 15711 H 1446 -1.02454 4.49779 0
M  V30 15712 H 1444.24 -0.895665 4.24453 0
M  V30 15713 H 1444.91 -2.34602 4.99666 0
M  V30 15714 H 1447.39 -2.7592 3.1146 0
M  V30 15715 H 1446.26 -3.96031 3.80067 0
M  V30 15716 H 1446.52 -3.90943 2.06436 0
M  V30 15717 N 1445.58 -1.40446 -0.715026 0
M  V30 15718 C 1446.83 -1.38754 -1.47491 0
M  V30 15719 C 1447.16 0.0099443 -1.94497 0
M  V30 15720 O 1446.41 0.99458 -1.68543 0
M  V30 15721 C 1446.71 -2.32392 -2.7153 0
M  V30 15722 C 1446.38 -3.79635 -2.43286 0
M  V30 15723 C 1445.04 -4.19751 -2.35293 0
M  V30 15724 C 1447.39 -4.72681 -2.19596 0
M  V30 15725 C 1444.72 -5.50947 -2.01679 0
M  V30 15726 C 1447.07 -6.04176 -1.87495 0
M  V30 15727 C 1445.73 -6.43333 -1.77985 0
M  V30 15728 H 1445 -0.507738 -0.539706 0
M  V30 15729 H 1447.65 -1.73104 -0.81898 0
M  V30 15730 H 1445.96 -1.91229 -3.41963 0
M  V30 15731 H 1447.65 -2.28366 -3.29621 0
M  V30 15732 H 1444.24 -3.47852 -2.50393 0
M  V30 15733 H 1448.43 -4.42506 -2.24727 0
M  V30 15734 H 1443.68 -5.80187 -1.92854 0
M  V30 15735 H 1447.86 -6.75788 -1.68179 0
M  V30 15736 H 1445.48 -7.44909 -1.51706 0
M  V30 15737 N 1447.06 0.947303 -1.25952 0
M  V30 15738 C 1448.29 1.7273 -1.13895 0
M  V30 15739 C 1448.7 1.86296 0.306488 0
M  V30 15740 O 1448.06 1.36594 1.2103 0
M  V30 15741 C 1448.11 3.13727 -1.79604 0
M  V30 15742 O 1447.83 3.00816 -3.18499 0
M  V30 15743 C 1449.33 4.0797 -1.73422 0
M  V30 15744 H 1446.55 0.54102 -0.39691 0
M  V30 15745 H 1449.1 1.18797 -1.66456 0
M  V30 15746 H 1447.25 3.6458 -1.30997 0
M  V30 15747 H 1447.67 3.89813 -3.50922 0
M  V30 15748 H 1449.14 5.04487 -2.24047 0
M  V30 15749 H 1449.62 4.33594 -0.699481 0
M  V30 15750 H 1450.22 3.63035 -2.21553 0
M  V30 15751 N 1448.54 1.07657 1.15099 0
M  V30 15752 C 1449.47 0.721201 2.22083 0
M  V30 15753 C 1450.45 -0.292808 1.67561 0
M  V30 15754 O 1451.63 -0.164872 1.93499 0
M  V30 15755 C 1448.76 0.12153 3.47087 0
M  V30 15756 C 1447.72 1.06303 4.14588 0
M  V30 15757 C 1447.04 0.325964 5.33706 0
M  V30 15758 C 1448.34 2.39796 4.63999 0
M  V30 15759 H 1450.04 1.61566 2.52065 0
M  V30 15760 H 1447.58 0.778282 1.21156 0
M  V30 15761 H 1449.54 -0.139037 4.21171 0
M  V30 15762 H 1448.26 -0.808022 3.16447 0
M  V30 15763 H 1446.92 1.30858 3.4245 0
M  V30 15764 H 1446.57 -0.607147 4.99322 0
M  V30 15765 H 1446.27 0.953552 5.79811 0
M  V30 15766 H 1447.79 0.0732695 6.10556 0
M  V30 15767 H 1449.21 2.19552 5.29594 0
M  V30 15768 H 1447.6 2.98178 5.20778 0
M  V30 15769 H 1448.67 3.01876 3.79472 0
M  V30 15770 N 1450.02 -1.31994 0.861122 0
M  V30 15771 C 1450.96 -2.28729 0.308476 0
M  V30 15772 C 1451.93 -1.55338 -0.588148 0
M  V30 15773 O 1453.12 -1.8353 -0.52168 0
M  V30 15774 C 1450.26 -3.4158 -0.491621 0
M  V30 15775 C 1449.37 -4.29839 0.431522 0
M  V30 15776 C 1448.51 -5.29826 -0.381836 0
M  V30 15777 C 1447.55 -6.09728 0.538296 0
M  V30 15778 N 1446.68 -7.01696 -0.238274 0
M  V30 15779 H 1451.52 -2.75389 1.13863 0
M  V30 15780 H 1449.06 -1.35485 0.572911 0
M  V30 15781 H 1451.02 -4.05738 -0.971193 0
M  V30 15782 H 1449.65 -2.96054 -1.28654 0
M  V30 15783 H 1448.7 -3.66204 1.02951 0
M  V30 15784 H 1450.01 -4.85658 1.13742 0
M  V30 15785 H 1449.17 -5.99618 -0.924297 0
M  V30 15786 H 1447.9 -4.7464 -1.12107 0
M  V30 15787 H 1446.91 -5.38834 1.09259 0
M  V30 15788 H 1448.13 -6.67 1.27625 0
M  V30 15789 H 1446.08 -6.4893 -0.960486 0
M  V30 15790 H 1446 -7.54896 0.408466 0
M  V30 15791 H 1447.27 -7.75764 -0.762252 0
M  V30 15792 N 1451.49 -0.619688 -1.44906 0
M  V30 15793 C 1452.43 0.130316 -2.28829 0
M  V30 15794 C 1453.44 0.820039 -1.40639 0
M  V30 15795 O 1454.63 0.683401 -1.649 0
M  V30 15796 C 1451.73 1.20618 -3.16709 0
M  V30 15797 C 1450.9 0.60121 -4.33248 0
M  V30 15798 C 1449.96 1.56954 -5.02247 0
M  V30 15799 O 1448.99 1.09112 -5.58644 0
M  V30 15800 N 1450.19 2.90395 -5.02644 0
M  V30 15801 H 1452.95 -0.589867 -2.93838 0
M  V30 15802 H 1450.51 -0.460028 -1.55227 0
M  V30 15803 H 1452.51 1.85404 -3.59732 0
M  V30 15804 H 1451.08 1.82873 -2.53528 0
M  V30 15805 H 1450.3 -0.225015 -3.93557 0
M  V30 15806 H 1451.58 0.177471 -5.0849 0
M  V30 15807 H 1450.98 3.31855 -4.58136 0
M  V30 15808 H 1449.54 3.50572 -5.49493 0
M  V30 15809 N 1452.97 1.53444 -0.359552 0
M  V30 15810 C 1453.92 2.27053 0.504949 0
M  V30 15811 C 1454.91 1.29801 1.08849 0
M  V30 15812 O 1456.12 1.47451 1.03239 0
M  V30 15813 H 1452.5 0.729756 0.181549 0
M  V30 15814 H 1454.47 2.98082 -0.137719 0
M  V30 15815 C 1453.22 3.06815 1.63585 0
M  V30 15816 H 1452.54 3.81488 1.19611 0
M  V30 15817 H 1453.98 3.61508 2.21558 0
M  V30 15818 C 1452.44 2.17286 2.57466 0
M  V30 15819 O 1452.97 1.77961 3.60129 0
M  V30 15820 N 1451.17 1.82041 2.26516 0
M  V30 15821 H 1450.72 2.14218 1.43068 0
M  V30 15822 H 1450.68 1.22423 2.89586 0
M  V30 15823 N 1454.45 0.0885642 1.57351 0
M  V30 15824 C 1455.36 -0.887092 2.17182 0
M  V30 15825 C 1456.38 -1.31498 1.13949 0
M  V30 15826 O 1457.55 -1.38424 1.4629 0
M  V30 15827 C 1454.62 -2.13053 2.73513 0
M  V30 15828 C 1453.68 -1.75747 3.91678 0
M  V30 15829 C 1452.91 -2.94163 4.45313 0
M  V30 15830 O 1453.13 -4.08693 3.97903 0
M  V30 15831 O 1452.07 -2.73008 5.36424 0
M  V30 15832 H 1455.89 -0.408073 3.00946 0
M  V30 15833 H 1453.48 -0.135431 1.48785 0
M  V30 15834 H 1455.36 -2.85937 3.09545 0
M  V30 15835 H 1454.04 -2.6002 1.92798 0
M  V30 15836 H 1452.94 -1.00064 3.60469 0
M  V30 15837 H 1454.28 -1.33549 4.73736 0
M  V30 15838 N 1455.93 -1.56509 -0.185096 0
M  V30 15839 C 1457.21 -1.72055 -0.930398 0
M  V30 15840 C 1457.59 -0.646145 -2.00968 0
M  V30 15841 O 1456.93 0.34129 -2.25937 0
M  V30 15842 C 1457.14 -3.14752 -1.50771 0
M  V30 15843 C 1458.49 -3.75292 -1.98597 0
M  V30 15844 O 1459.52 -3.17944 -1.60593 0
M  V30 15845 O 1458.37 -4.7596 -2.68561 0
M  V30 15846 H 1455.47 -0.702118 -0.436989 0
M  V30 15847 H 1458.01 -1.68806 -0.174007 0
M  V30 15848 H 1456.79 -3.84426 -0.730236 0
M  V30 15849 H 1456.41 -3.22272 -2.32866 0
M  V30 15850 N 1457.41 0.45317 -1.50944 0
M  V30 15851 C 1458.63 1.23136 -1.6689 0
M  V30 15852 C 1459.06 1.84639 -0.359185 0
M  V30 15853 O 1458.41 1.68106 0.678983 0
M  V30 15854 C 1458.46 2.30275 -2.77499 0
M  V30 15855 O 1457.57 3.35371 -2.39999 0
M  V30 15856 H 1456.91 0.361475 -0.556984 0
M  V30 15857 H 1459.44 0.537174 -1.97422 0
M  V30 15858 H 1459.45 2.75309 -3.01113 0
M  V30 15859 H 1458.12 1.84885 -3.72546 0
M  V30 15860 H 1456.7 2.95924 -2.26899 0
M  V30 15861 N 1458.88 1.40823 0.707568 0
M  V30 15862 C 1459.79 1.44058 1.85161 0
M  V30 15863 C 1460.81 0.332357 1.70796 0
M  V30 15864 O 1461.99 0.578205 1.92922 0
M  V30 15865 C 1459.05 1.3091 3.21035 0
M  V30 15866 C 1458.11 2.51944 3.47595 0
M  V30 15867 C 1457.35 2.39414 4.76987 0
M  V30 15868 O 1457.57 1.41224 5.52641 0
M  V30 15869 O 1456.5 3.28944 5.04063 0
M  V30 15870 H 1460.33 2.40551 1.85388 0
M  V30 15871 H 1457.91 1.22232 0.859052 0
M  V30 15872 H 1459.8 1.25816 4.02179 0
M  V30 15873 H 1458.47 0.375263 3.21517 0
M  V30 15874 H 1457.38 2.62615 2.66428 0
M  V30 15875 H 1458.71 3.44115 3.51917 0
M  V30 15876 N 1460.36 -0.94061 1.26453 0
M  V30 15877 C 1461.29 -2.04322 1.03852 0
M  V30 15878 C 1462.31 -1.628 -0.00122618 0
M  V30 15879 O 1463.5 -1.76894 0.238911 0
M  V30 15880 C 1460.6 -3.34394 0.550789 0
M  V30 15881 C 1459.77 -4.0468 1.6599 0
M  V30 15882 C 1458.83 -5.13025 1.17012 0
M  V30 15883 O 1457.85 -5.37699 1.8673 0
M  V30 15884 N 1459.06 -5.80497 0.0188478 0
M  V30 15885 H 1461.82 -2.24276 1.98797 0
M  V30 15886 H 1459.38 -1.11013 1.17846 0
M  V30 15887 H 1461.37 -4.04169 0.207305 0
M  V30 15888 H 1459.94 -3.11108 -0.30509 0
M  V30 15889 H 1459.16 -3.28813 2.17429 0
M  V30 15890 H 1460.45 -4.48392 2.40463 0
M  V30 15891 H 1459.85 -5.62888 -0.563368 0
M  V30 15892 H 1458.41 -6.51259 -0.265556 0
M  V30 15893 N 1461.84 -1.08266 -1.14527 0
M  V30 15894 C 1463.07 -0.832994 -1.89937 0
M  V30 15895 C 1463.49 0.608985 -1.77969 0
M  V30 15896 O 1462.85 1.42657 -1.11887 0
M  V30 15897 C 1462.9 -1.25782 -3.37952 0
M  V30 15898 O 1462 -0.408853 -4.10368 0
M  V30 15899 H 1461.34 -0.30267 -0.591005 0
M  V30 15900 H 1463.87 -1.44371 -1.44977 0
M  V30 15901 H 1463.88 -1.23804 -3.88763 0
M  V30 15902 H 1462.56 -2.30804 -3.4598 0
M  V30 15903 H 1461.13 -0.49192 -3.69641 0
M  V30 15904 N 1463.32 1.31536 -0.86811 0
M  V30 15905 C 1464.57 1.96045 -0.474271 0
M  V30 15906 C 1464.88 1.6939 0.978071 0
M  V30 15907 O 1466.09 2.27746 1.47797 0
M  V30 15908 C 1464.54 3.5096 -0.797203 0
M  V30 15909 C 1464.15 3.86456 -2.26618 0
M  V30 15910 C 1465.9 4.21871 -0.471745 0
M  V30 15911 C 1463.8 5.34474 -2.53162 0
M  V30 15912 H 1462.73 0.733737 -0.173627 0
M  V30 15913 H 1465.38 1.49734 -1.06076 0
M  V30 15914 H 1463.77 3.95752 -0.139994 0
M  V30 15915 H 1464.94 3.52629 -2.9663 0
M  V30 15916 H 1463.25 3.28605 -2.55749 0
M  V30 15917 H 1465.85 5.30767 -0.647317 0
M  V30 15918 H 1466.19 4.12131 0.58768 0
M  V30 15919 H 1466.73 3.82706 -1.08542 0
M  V30 15920 H 1463.47 5.49248 -3.57781 0
M  V30 15921 H 1462.99 5.6966 -1.87743 0
M  V30 15922 H 1464.67 6.01716 -2.37797 0
M  V30 15923 N 1464.8 0.627364 1.44575 0
M  V30 15924 C 1465.75 -0.0920488 2.32418 0
M  V30 15925 C 1466.74 -0.839633 1.47128 0
M  V30 15926 O 1467.95 -0.752958 1.63495 0
M  V30 15927 H 1464.32 -0.0485336 0.750432 0
M  V30 15928 H 1466.29 0.666959 2.90851 0
M  V30 15929 C 1465.04 -1.06262 3.31064 0
M  V30 15930 H 1464.36 -0.4968 3.96701 0
M  V30 15931 H 1465.8 -1.53556 3.95217 0
M  V30 15932 C 1464.26 -2.14601 2.59707 0
M  V30 15933 O 1464.79 -3.2263 2.39317 0
M  V30 15934 N 1463 -1.90431 2.19509 0
M  V30 15935 H 1462.55 -1.02584 2.36293 0
M  V30 15936 H 1462.5 -2.6312 1.72091 0
M  V30 15937 N 1466.28 -1.53251 0.367684 0
M  V30 15938 C 1467.52 -2.01287 -0.221351 0
M  V30 15939 C 1467.85 -1.25489 -1.48603 0
M  V30 15940 O 1467.11 -0.337392 -1.9277 0
M  V30 15941 C 1467.4 -3.53031 -0.557149 0
M  V30 15942 C 1467.07 -4.46708 0.613444 0
M  V30 15943 C 1465.73 -4.72036 0.934633 0
M  V30 15944 C 1468.08 -5.02112 1.3976 0
M  V30 15945 C 1465.41 -5.50021 2.04191 0
M  V30 15946 C 1467.76 -5.81306 2.49531 0
M  V30 15947 C 1466.43 -6.04921 2.82182 0
M  V30 15948 H 1465.7 -0.73656 -0.080998 0
M  V30 15949 H 1468.35 -1.84842 0.500581 0
M  V30 15950 H 1466.65 -3.67434 -1.36012 0
M  V30 15951 H 1468.35 -3.87674 -1.02519 0
M  V30 15952 H 1464.94 -4.27143 0.353075 0
M  V30 15953 H 1469.12 -4.82488 1.1627 0
M  V30 15954 H 1464.38 -5.66536 2.29884 0
M  V30 15955 H 1468.55 -6.23245 3.10707 0
M  V30 15956 H 1466.18 -6.65134 3.68104 0
M  V30 15957 N 1467.75 -0.0969077 -1.57302 0
M  V30 15958 C 1468.98 0.578086 -1.99181 0
M  V30 15959 C 1469.4 1.60818 -0.975667 0
M  V30 15960 O 1468.76 1.81215 0.0556054 0
M  V30 15961 C 1468.81 1.20076 -3.40021 0
M  V30 15962 O 1467.91 2.31656 -3.41188 0
M  V30 15963 H 1467.25 0.146506 -0.647636 0
M  V30 15964 H 1469.78 -0.178855 -2.03817 0
M  V30 15965 H 1469.79 1.54162 -3.77754 0
M  V30 15966 H 1468.47 0.446114 -4.135 0
M  V30 15967 H 1467.05 1.99175 -3.15252 0
M  V30 15968 N 1469.23 1.56605 0.176793 0
M  V30 15969 C 1470.46 1.85543 0.9087 0
M  V30 15970 C 1470.87 0.679554 1.76575 0
M  V30 15971 O 1470.21 -0.360668 1.80125 0
M  V30 15972 C 1470.27 3.08823 1.84034 0
M  V30 15973 C 1469.94 4.41942 1.16344 0
M  V30 15974 C 1470.94 5.17176 0.531526 0
M  V30 15975 C 1468.62 4.88679 1.16183 0
M  V30 15976 C 1470.61 6.37332 -0.0929601 0
M  V30 15977 C 1468.3 6.08767 0.533514 0
M  V30 15978 C 1469.3 6.82937 -0.0927812 0
M  V30 15979 O 1468.99 8.00748 -0.711202 0
M  V30 15980 H 1468.72 0.619862 0.269717 0
M  V30 15981 H 1471.27 2.04579 0.183414 0
M  V30 15982 H 1469.5 2.85718 2.6058 0
M  V30 15983 H 1471.19 3.24253 2.44161 0
M  V30 15984 H 1471.96 4.82152 0.524784 0
M  V30 15985 H 1467.84 4.30891 1.63871 0
M  V30 15986 H 1471.38 6.95165 -0.582409 0
M  V30 15987 H 1467.28 6.43256 0.537821 0
M  V30 15988 H 1468.05 8.16224 -0.609911 0
M  V30 15989 N 1470.71 -0.445159 1.51182 0
M  V30 15990 C 1471.99 -1.20598 1.53998 0
M  V30 15991 C 1472.37 -2.08962 0.29967 0
M  V30 15992 O 1471.71 -2.17003 -0.715666 0
M  V30 15993 C 1471.92 -2.01461 2.84982 0
M  V30 15994 C 1473.27 -2.5877 3.36635 0
M  V30 15995 O 1474.3 -2.11679 2.86479 0
M  V30 15996 O 1473.16 -3.44637 4.24132 0
M  V30 15997 H 1470.25 -0.548635 0.618812 0
M  V30 15998 H 1472.8 -0.454865 1.6349 0
M  V30 15999 H 1471.57 -1.36511 3.66716 0
M  V30 16000 H 1471.19 -2.83654 2.78615 0
M  V30 16001 N 1472.19 -1.41197 -0.700089 0
M  V30 16002 C 1473.44 -1.39611 -1.45574 0
M  V30 16003 C 1473.75 -0.00683378 -1.95599 0
M  V30 16004 O 1474.96 0.131643 -2.71181 0
M  V30 16005 C 1473.41 -2.45452 -2.63214 0
M  V30 16006 C 1473.02 -3.90265 -2.19993 0
M  V30 16007 C 1474.76 -2.52996 -3.40871 0
M  V30 16008 C 1472.67 -4.87668 -3.34565 0
M  V30 16009 H 1471.6 -0.51917 -0.546789 0
M  V30 16010 H 1474.25 -1.67001 -0.760456 0
M  V30 16011 H 1472.63 -2.11186 -3.34987 0
M  V30 16012 H 1473.81 -4.33756 -1.55539 0
M  V30 16013 H 1472.12 -3.86339 -1.55341 0
M  V30 16014 H 1474.72 -3.22952 -4.26153 0
M  V30 16015 H 1475.06 -1.56536 -3.85749 0
M  V30 16016 H 1475.6 -2.86331 -2.76151 0
M  V30 16017 H 1472.33 -5.85517 -2.94704 0
M  V30 16018 H 1471.85 -4.4883 -3.97884 0
M  V30 16019 H 1473.53 -5.08215 -4.00409 0
M  V30 16020 N 1473.67 0.933891 -1.2695 0
M  V30 16021 C 1474.89 1.72042 -1.15828 0
M  V30 16022 C 1475.32 1.85975 0.28193 0
M  V30 16023 O 1474.67 1.35528 1.20423 0
M  V30 16024 C 1474.72 3.10112 -1.84019 0
M  V30 16025 O 1473.83 3.96504 -1.13394 0
M  V30 16026 H 1473.17 0.527573 -0.40319 0
M  V30 16027 H 1475.7 1.16914 -1.67905 0
M  V30 16028 H 1475.71 3.60461 -1.91133 0
M  V30 16029 H 1474.38 2.99287 -2.8879 0
M  V30 16030 H 1472.96 3.54948 -1.14307 0
M  V30 16031 N 1475.14 1.08871 1.13951 0
M  V30 16032 C 1476.09 0.71755 2.21255 0
M  V30 16033 C 1477.09 -0.278901 1.67088 0
M  V30 16034 O 1478.29 -0.140964 1.79447 0
M  V30 16035 H 1474.67 0.214032 0.720898 0
M  V30 16036 H 1476.64 1.63182 2.49828 0
M  V30 16037 C 1475.39 0.148098 3.47384 0
M  V30 16038 H 1474.71 0.906028 3.89398 0
M  V30 16039 H 1476.15 -0.0737451 4.23936 0
M  V30 16040 C 1474.61 -1.11524 3.17906 0
M  V30 16041 O 1475.14 -2.19937 3.3614 0
M  V30 16042 N 1473.34 -1.0275 2.71829 0
M  V30 16043 H 1472.89 -0.145193 2.5719 0
M  V30 16044 H 1472.85 -1.87353 2.5248 0
M  V30 16045 N 1476.62 -1.31073 0.875073 0
M  V30 16046 C 1477.57 -2.30335 0.3238 0
M  V30 16047 C 1478.56 -1.5974 -0.563869 0
M  V30 16048 O 1479.77 -1.743 -0.449402 0
M  V30 16049 H 1476.14 -0.747062 0.0860376 0
M  V30 16050 H 1478.12 -2.743 1.17483 0
M  V30 16051 C 1476.86 -3.44705 -0.455348 0
M  V30 16052 H 1476.19 -3.99203 0.218433 0
M  V30 16053 H 1477.63 -4.16262 -0.806329 0
M  V30 16054 C 1476.09 -2.93807 -1.6486 0
M  V30 16055 O 1476.62 -2.93004 -2.74794 0
M  V30 16056 N 1474.82 -2.49944 -1.48244 0
M  V30 16057 H 1474.37 -2.50797 -0.588116 0
M  V30 16058 H 1474.33 -2.16245 -2.28222 0
M  V30 16059 N 1478.1 -0.635022 -1.4424 0
M  V30 16060 C 1479.06 0.0579377 -2.29127 0
M  V30 16061 C 1480.06 0.768489 -1.41248 0
M  V30 16062 O 1481.25 0.612489 -1.63077 0
M  V30 16063 C 1478.39 1.09266 -3.22914 0
M  V30 16064 H 1479.58 -0.688723 -2.91885 0
M  V30 16065 H 1477.13 -0.395347 -1.51217 0
M  V30 16066 H 1477.87 1.86917 -2.65014 0
M  V30 16067 H 1477.65 0.587036 -3.87681 0
M  V30 16068 H 1479.14 1.57716 -3.86672 0
M  V30 16069 N 1479.58 1.53054 -0.375806 0
M  V30 16070 C 1480.99 1.86426 0.101188 0
M  V30 16071 C 1481.34 1.29603 1.47301 0
M  V30 16072 O 1480.47 0.622059 2.07266 0
M  V30 16073 C 1481.06 3.38265 0.190389 0
M  V30 16074 C 1479.62 3.71397 0.611653 0
M  V30 16075 C 1478.77 2.76304 -0.234801 0
M  V30 16076 H 1481.72 1.47156 -0.594211 0
M  V30 16077 H 1481.74 3.66793 1.01207 0
M  V30 16078 H 1481.25 3.79592 -0.80818 0
M  V30 16079 H 1479.35 3.35632 1.61808 0
M  V30 16080 H 1479.46 4.77597 0.379168 0
M  V30 16081 H 1477.83 2.52952 0.297888 0
M  V30 16082 H 1478.61 3.20467 -1.2311 0
M  V30 16083 N 1481.06 0.105248 1.57248 0
M  V30 16084 C 1482.3 -0.554956 1.94331 0
M  V30 16085 C 1482.63 -1.68087 0.988528 0
M  V30 16086 O 1481.9 -1.95854 0.042366 0
M  V30 16087 H 1480.48 -0.207994 0.717459 0
M  V30 16088 H 1483.14 0.170964 1.94149 0
M  V30 16089 H 1482.23 -0.95853 2.97016 0
M  V30 16090 N 1482.53 -1.56697 -0.168486 0
M  V30 16091 C 1483.76 -1.86022 -0.898847 0
M  V30 16092 C 1484.17 -0.688909 -1.76212 0
M  V30 16093 O 1483.52 0.35111 -1.80313 0
M  V30 16094 C 1483.58 -3.09795 -1.82394 0
M  V30 16095 C 1483.24 -4.42553 -1.13999 0
M  V30 16096 C 1484.24 -5.1745 -0.504092 0
M  V30 16097 C 1481.92 -4.89288 -1.1359 0
M  V30 16098 C 1483.92 -6.37274 0.126758 0
M  V30 16099 C 1481.6 -6.09041 -0.501222 0
M  V30 16100 C 1482.6 -6.82878 0.128998 0
M  V30 16101 O 1482.29 -8.00359 0.753658 0
M  V30 16102 H 1482.02 -0.621283 -0.266426 0
M  V30 16103 H 1484.58 -2.04674 -0.172562 0
M  V30 16104 H 1482.81 -2.87096 -2.59061 0
M  V30 16105 H 1484.5 -3.25544 -2.42438 0
M  V30 16106 H 1485.26 -4.82424 -0.499207 0
M  V30 16107 H 1481.14 -4.31754 -1.61584 0
M  V30 16108 H 1484.68 -6.94846 0.619267 0
M  V30 16109 H 1480.58 -6.43532 -0.5037 0
M  V30 16110 H 1481.35 -8.1589 0.653188 0
M  V30 16111 N 1484.01 0.437135 -1.51416 0
M  V30 16112 C 1484.96 1.55124 -1.73319 0
M  V30 16113 C 1485.95 1.58437 -0.599511 0
M  V30 16114 O 1487.16 1.62179 -0.780896 0
M  V30 16115 H 1483.54 0.515368 -0.547632 0
M  V30 16116 H 1485.51 1.33824 -2.66709 0
M  V30 16117 C 1484.26 2.92778 -1.87554 0
M  V30 16118 H 1483.58 2.9096 -2.74194 0
M  V30 16119 H 1485.02 3.70097 -2.06891 0
M  V30 16120 C 1483.48 3.30854 -0.635408 0
M  V30 16121 O 1484.01 4.01152 0.20983 0
M  V30 16122 N 1482.21 2.86618 -0.47944 0
M  V30 16123 H 1481.76 2.29582 -1.16834 0
M  V30 16124 H 1481.72 3.12456 0.349078 0
M  V30 16125 N 1485.49 1.41566 0.692592 0
M  V30 16126 C 1486.44 1.43648 1.80648 0
M  V30 16127 C 1487.41 0.290497 1.6354 0
M  V30 16128 O 1488.59 0.491979 1.84348 0
M  V30 16129 C 1485.73 1.32733 3.18553 0
M  V30 16130 C 1484.85 2.57224 3.47073 0
M  V30 16131 C 1483.98 2.38581 4.74608 0
M  V30 16132 C 1483.02 3.58534 4.96105 0
M  V30 16133 N 1482.16 3.38942 6.14868 0
M  V30 16134 H 1487 2.38847 1.78203 0
M  V30 16135 H 1484.53 1.186 0.870193 0
M  V30 16136 H 1486.49 1.24405 3.9822 0
M  V30 16137 H 1485.12 0.411407 3.20168 0
M  V30 16138 H 1484.17 2.7599 2.6179 0
M  V30 16139 H 1485.49 3.46443 3.58858 0
M  V30 16140 H 1484.64 2.27738 5.62335 0
M  V30 16141 H 1483.38 1.46824 4.65074 0
M  V30 16142 H 1482.38 3.69828 4.06826 0
M  V30 16143 H 1483.61 4.51248 5.07496 0
M  V30 16144 H 1481.55 2.49887 6.06541 0
M  V30 16145 H 1481.47 4.21737 6.27434 0
M  V30 16146 H 1482.74 3.31877 7.05321 0
M  V30 16147 N 1486.97 -0.927146 1.27443 0
M  V30 16148 C 1488.21 -1.67775 1.14991 0
M  V30 16149 C 1488.57 -1.90029 -0.301107 0
M  V30 16150 O 1487.86 -1.47997 -1.21686 0
M  V30 16151 C 1488.06 -3.0472 1.86764 0
M  V30 16152 C 1487.89 -2.95829 3.38696 0
M  V30 16153 C 1486.66 -2.9808 4.08015 0
M  V30 16154 C 1488.85 -2.74905 4.34663 0
M  V30 16155 N 1486.84 -2.79636 5.46513 0
M  V30 16156 C 1488.21 -2.65172 5.60432 0
M  V30 16157 C 1490.26 -2.59797 4.24747 0
M  V30 16158 C 1488.96 -2.41872 6.77415 0
M  V30 16159 C 1490.99 -2.37874 5.41452 0
M  V30 16160 C 1490.35 -2.28884 6.66177 0
M  V30 16161 H 1486.45 -0.620709 0.475651 0
M  V30 16162 H 1489.04 -1.09605 1.60919 0
M  V30 16163 H 1487.21 -3.61002 1.43291 0
M  V30 16164 H 1488.94 -3.68722 1.66812 0
M  V30 16165 H 1485.69 -3.08329 3.59486 0
M  V30 16166 H 1486.12 -2.73544 6.19276 0
M  V30 16167 H 1490.76 -2.65506 3.29039 0
M  V30 16168 H 1488.48 -2.34903 7.73205 0
M  V30 16169 H 1492.06 -2.27069 5.35659 0
M  V30 16170 H 1490.94 -2.12149 7.54959 0
M  V30 16171 N 1488.45 -1.09474 -1.13372 0
M  V30 16172 C 1489.69 -0.831091 -1.84659 0
M  V30 16173 C 1490.02 0.643294 -1.83554 0
M  V30 16174 O 1489.28 1.48958 -1.26925 0
M  V30 16175 C 1489.58 -1.31208 -3.32444 0
M  V30 16176 C 1489.24 -2.79617 -3.5373 0
M  V30 16177 C 1487.9 -3.20147 -3.59248 0
M  V30 16178 C 1490.26 -3.75303 -3.61659 0
M  V30 16179 C 1487.58 -4.55135 -3.70228 0
M  V30 16180 C 1489.94 -5.1008 -3.74167 0
M  V30 16181 C 1488.6 -5.50199 -3.77938 0
M  V30 16182 H 1487.87 -0.304118 -0.675717 0
M  V30 16183 H 1490.52 -1.36961 -1.33843 0
M  V30 16184 H 1488.82 -0.693379 -3.85616 0
M  V30 16185 H 1490.52 -1.08469 -3.86051 0
M  V30 16186 H 1487.11 -2.47253 -3.50091 0
M  V30 16187 H 1491.29 -3.45103 -3.56676 0
M  V30 16188 H 1486.55 -4.85656 -3.71414 0
M  V30 16189 H 1490.72 -5.84077 -3.79245 0
M  V30 16190 H 1488.35 -6.54794 -3.86198 0
M  V30 16191 N 1489.92 1.30607 -0.882012 0
M  V30 16192 C 1491.17 1.96256 -0.498964 0
M  V30 16193 C 1491.5 1.69651 0.951259 0
M  V30 16194 O 1490.75 0.992303 1.68677 0
M  V30 16195 C 1491.05 3.50136 -0.716929 0
M  V30 16196 C 1490.72 3.96785 -2.14178 0
M  V30 16197 C 1489.38 4.09234 -2.53142 0
M  V30 16198 C 1491.73 4.21154 -3.07048 0
M  V30 16199 C 1489.06 4.43411 -3.84192 0
M  V30 16200 C 1491.41 4.56799 -4.37627 0
M  V30 16201 C 1490.08 4.67456 -4.76488 0
M  V30 16202 H 1489.35 0.718153 -0.182584 0
M  V30 16203 H 1491.99 1.55527 -1.1173 0
M  V30 16204 H 1490.3 3.91797 -0.0155388 0
M  V30 16205 H 1492 3.98998 -0.400196 0
M  V30 16206 H 1488.59 3.876 -1.82932 0
M  V30 16207 H 1492.77 4.1102 -2.78167 0
M  V30 16208 H 1488.03 4.49861 -4.14047 0
M  V30 16209 H 1492.2 4.74607 -5.09629 0
M  V30 16210 H 1489.83 4.93694 -5.78074 0
M  V30 16211 N 1491.4 0.642663 1.43901 0
M  V30 16212 C 1492.65 0.152003 2.0223 0
M  V30 16213 C 1492.98 -1.22711 1.50518 0
M  V30 16214 O 1492.26 -1.817 0.693937 0
M  V30 16215 C 1492.54 0.151278 3.59782 0
M  V30 16216 C 1492.39 1.56356 4.2175 0
M  V30 16217 C 1493.71 -0.518016 4.37041 0
M  V30 16218 H 1490.83 0.0567094 0.734815 0
M  V30 16219 H 1493.47 0.821337 1.7133 0
M  V30 16220 H 1491.62 -0.418679 3.86237 0
M  V30 16221 H 1493.29 2.18329 4.06362 0
M  V30 16222 H 1491.54 2.11401 3.78803 0
M  V30 16223 H 1492.21 1.51499 5.30803 0
M  V30 16224 H 1494.68 -0.0331947 4.16087 0
M  V30 16225 H 1493.56 -0.487754 5.46729 0
M  V30 16226 H 1493.82 -1.59036 4.12504 0
M  V30 16227 N 1492.88 -1.52852 0.383918 0
M  V30 16228 C 1494.11 -2.05929 -0.200216 0
M  V30 16229 C 1494.52 -1.25606 -1.40956 0
M  V30 16230 O 1493.88 -0.301336 -1.79995 0
M  V30 16231 C 1493.93 -3.56887 -0.575655 0
M  V30 16232 O 1493.65 -4.34168 0.58564 0
M  V30 16233 C 1495.15 -4.2629 -1.21623 0
M  V30 16234 H 1492.37 -0.670261 -0.0314727 0
M  V30 16235 H 1494.92 -1.97032 0.547591 0
M  V30 16236 H 1493.07 -3.65875 -1.27336 0
M  V30 16237 H 1493.49 -5.23761 0.278267 0
M  V30 16238 H 1494.96 -5.33174 -1.42933 0
M  V30 16239 H 1495.44 -3.81163 -2.182 0
M  V30 16240 H 1496.04 -4.21605 -0.559435 0
M  V30 16241 N 1494.36 -0.113586 -1.5719 0
M  V30 16242 C 1495.61 0.546529 -1.95297 0
M  V30 16243 C 1495.94 1.66674 -0.996671 0
M  V30 16244 O 1495.21 1.94472 -0.0329298 0
M  V30 16245 C 1495.5 1.08433 -3.43387 0
M  V30 16246 C 1495.35 -0.0320929 -4.49789 0
M  V30 16247 C 1496.67 1.97691 -3.932 0
M  V30 16248 H 1493.79 0.197195 -0.710129 0
M  V30 16249 H 1496.43 -0.188048 -1.89067 0
M  V30 16250 H 1494.58 1.71033 -3.48827 0
M  V30 16251 H 1496.25 -0.66716 -4.5645 0
M  V30 16252 H 1494.49 -0.695983 -4.2818 0
M  V30 16253 H 1495.17 0.385341 -5.50653 0
M  V30 16254 H 1497.64 1.4497 -3.90029 0
M  V30 16255 H 1496.52 2.3224 -4.97349 0
M  V30 16256 H 1496.78 2.90137 -3.33576 0
M  V30 16257 N 1495.84 1.56784 0.160173 0
M  V30 16258 C 1497.07 1.86767 0.89026 0
M  V30 16259 C 1497.48 0.700276 1.75333 0
M  V30 16260 O 1496.84 -0.330342 1.79485 0
M  V30 16261 C 1496.89 3.15883 1.75784 0
M  V30 16262 O 1496.61 4.28124 0.929575 0
M  V30 16263 C 1498.11 3.5929 2.59664 0
M  V30 16264 H 1495.33 0.61938 0.258088 0
M  V30 16265 H 1497.87 2.03897 0.156919 0
M  V30 16266 H 1496.03 3.00546 2.4444 0
M  V30 16267 H 1496.44 5.01872 1.52397 0
M  V30 16268 H 1497.92 4.52506 3.16136 0
M  V30 16269 H 1498.39 2.83943 3.35072 0
M  V30 16270 H 1499 3.77277 1.96323 0
M  V30 16271 N 1497.32 -0.429099 1.51646 0
M  V30 16272 C 1498.26 -1.54202 1.74139 0
M  V30 16273 C 1499.26 -1.58117 0.607905 0
M  V30 16274 O 1500.46 -1.61763 0.789486 0
M  V30 16275 H 1496.84 -0.512456 0.550357 0
M  V30 16276 H 1498.81 -1.32408 2.67415 0
M  V30 16277 C 1497.56 -2.91779 1.89104 0
M  V30 16278 H 1496.88 -2.89502 2.75733 0
M  V30 16279 H 1498.32 -3.68995 2.08851 0
M  V30 16280 C 1496.78 -3.30512 0.652945 0
M  V30 16281 O 1497.31 -4.01257 -0.188553 0
M  V30 16282 N 1495.52 -2.86359 0.494634 0
M  V30 16283 H 1495.06 -2.28959 1.18049 0
M  V30 16284 H 1495.02 -3.12637 -0.332503 0
M  V30 16285 N 1498.79 -1.41931 -0.685074 0
M  V30 16286 C 1499.74 -1.44824 -1.82013 0
M  V30 16287 C 1500.74 -0.325083 -1.66252 0
M  V30 16288 O 1501.94 -0.497614 -1.72985 0
M  V30 16289 H 1498.32 -0.453362 -0.599972 0
M  V30 16290 H 1500.29 -2.40464 -1.76691 0
M  V30 16291 C 1499.04 -1.35753 -3.20104 0
M  V30 16292 H 1498.36 -2.21469 -3.32854 0
M  V30 16293 H 1499.8 -1.41838 -3.99572 0
M  V30 16294 C 1498.26 -0.0710816 -3.36825 0
M  V30 16295 O 1498.79 0.880155 -3.91939 0
M  V30 16296 N 1496.99 0.00842652 -2.90599 0
M  V30 16297 H 1496.54 -0.766427 -2.45934 0
M  V30 16298 H 1496.5 0.868559 -3.02165 0
M  V30 16299 N 1500.27 0.920374 -1.27933 0
M  V30 16300 C 1501.2 2.0229 -1.05612 0
M  V30 16301 C 1502.18 1.6258 0.0257603 0
M  V30 16302 O 1503.37 1.88112 -0.120852 0
M  V30 16303 C 1500.49 3.33279 -0.603563 0
M  V30 16304 C 1499.54 3.91971 -1.6811 0
M  V30 16305 S 1500.37 4.23645 -3.27544 0
M  V30 16306 C 1501.53 5.57704 -2.84107 0
M  V30 16307 H 1501.76 2.20913 -1.98959 0
M  V30 16308 H 1499.29 1.06441 -1.11847 0
M  V30 16309 H 1501.25 4.09012 -0.349146 0
M  V30 16310 H 1499.91 3.12567 0.309962 0
M  V30 16311 H 1499.11 4.86518 -1.31592 0
M  V30 16312 H 1498.71 3.22849 -1.88797 0
M  V30 16313 H 1501 6.37313 -2.29866 0
M  V30 16314 H 1501.94 5.99129 -3.77426 0
M  V30 16315 H 1502.35 5.18576 -2.23024 0
M  V30 16316 N 1501.75 1.10074 1.1279 0
M  V30 16317 C 1502.68 0.690084 2.17516 0
M  V30 16318 C 1503.66 -0.306745 1.5968 0
M  V30 16319 O 1504.84 -0.206533 1.87365 0
M  V30 16320 C 1501.97 0.0176562 3.38695 0
M  V30 16321 C 1501.02 0.97736 4.1515 0
M  V30 16322 S 1501.85 2.49282 4.7394 0
M  V30 16323 C 1503.01 1.83299 5.98458 0
M  V30 16324 H 1503.24 1.57723 2.52013 0
M  V30 16325 H 1500.77 0.917373 1.24192 0
M  V30 16326 H 1502.73 -0.363992 4.08883 0
M  V30 16327 H 1501.39 -0.846237 3.02486 0
M  V30 16328 H 1500.58 0.454057 5.01951 0
M  V30 16329 H 1500.19 1.30073 3.50652 0
M  V30 16330 H 1502.48 1.16098 6.67478 0
M  V30 16331 H 1503.42 2.68041 6.55408 0
M  V30 16332 H 1503.83 1.29909 5.49349 0
M  V30 16333 N 1503.23 -1.30138 0.888926 0
M  V30 16334 C 1504.48 -1.95602 0.508359 0
M  V30 16335 C 1504.8 -1.70495 -0.946377 0
M  V30 16336 O 1504.07 -1.03073 -1.66592 0
M  V30 16337 H 1502.65 -0.723728 0.185006 0
M  V30 16338 H 1505.31 -1.58594 1.13286 0
M  V30 16339 H 1504.4 -3.04559 0.681915 0
M  V30 16340 N 1504.71 -0.650285 -1.43559 0
M  V30 16341 C 1505.65 0.0550615 -2.32535 0
M  V30 16342 C 1506.65 0.81612 -1.48445 0
M  V30 16343 O 1507.85 0.726853 -1.64672 0
M  V30 16344 H 1504.23 0.0365887 -0.751109 0
M  V30 16345 H 1506.2 -0.713146 -2.89753 0
M  V30 16346 C 1504.95 1.00982 -3.32713 0
M  V30 16347 H 1504.27 0.433626 -3.97441 0
M  V30 16348 H 1505.71 1.47249 -3.9761 0
M  V30 16349 C 1504.17 2.10442 -2.63089 0
M  V30 16350 O 1504.7 3.18782 -2.44419 0
M  V30 16351 N 1502.91 1.86915 -2.22511 0
M  V30 16352 H 1502.45 0.988113 -2.37895 0
M  V30 16353 H 1502.41 2.60348 -1.76256 0
M  V30 16354 N 1506.18 1.52647 -0.392018 0
M  V30 16355 C 1507.12 2.22965 0.486007 0
M  V30 16356 C 1508.09 1.23138 1.06188 0
M  V30 16357 O 1509.28 1.52133 1.113 0
M  V30 16358 C 1506.41 2.94498 1.67298 0
M  V30 16359 C 1505.45 4.08616 1.22211 0
M  V30 16360 S 1506.28 5.35121 0.201397 0
M  V30 16361 C 1507.44 6.10177 1.39409 0
M  V30 16362 H 1507.67 2.97092 -0.111111 0
M  V30 16363 H 1505.21 1.53391 -0.176221 0
M  V30 16364 H 1507.16 3.3632 2.3537 0
M  V30 16365 H 1505.83 2.20045 2.24141 0
M  V30 16366 H 1505.02 4.57778 2.10844 0
M  V30 16367 H 1504.62 3.68821 0.620272 0
M  V30 16368 H 1506.91 6.36514 2.3207 0
M  V30 16369 H 1507.86 7.01788 0.943337 0
M  V30 16370 H 1508.26 5.4099 1.61213 0
M  V30 16371 N 1507.66 0.121921 1.57128 0
M  V30 16372 C 1508.61 -0.827205 2.15467 0
M  V30 16373 C 1509.58 -1.26155 1.08047 0
M  V30 16374 O 1510.76 -1.33855 1.35969 0
M  V30 16375 C 1507.9 -2.07077 2.76067 0
M  V30 16376 C 1507.02 -1.68452 3.97804 0
M  V30 16377 C 1506.15 -2.87797 4.46482 0
M  V30 16378 C 1505.19 -2.45426 5.60743 0
M  V30 16379 N 1504.33 -3.57695 6.04151 0
M  V30 16380 H 1509.17 -0.322879 2.96246 0
M  V30 16381 H 1506.71 -0.147677 1.46357 0
M  V30 16382 H 1508.66 -2.79943 3.09335 0
M  V30 16383 H 1507.29 -2.54963 1.97974 0
M  V30 16384 H 1506.35 -0.854487 3.70679 0
M  V30 16385 H 1507.66 -1.33316 4.80654 0
M  V30 16386 H 1506.81 -3.68885 4.81673 0
M  V30 16387 H 1505.55 -3.26162 3.62587 0
M  V30 16388 H 1504.56 -1.62772 5.25153 0
M  V30 16389 H 1505.78 -2.08175 6.46405 0
M  V30 16390 H 1503.73 -3.95728 5.23197 0
M  V30 16391 H 1503.64 -3.26491 6.81865 0
M  V30 16392 H 1504.91 -4.39213 6.43981 0
M  V30 16393 N 1509.14 -1.56867 -0.151857 0
M  V30 16394 C 1510.39 -1.82273 -0.863689 0
M  V30 16395 C 1510.7 -0.702377 -1.82554 0
M  V30 16396 O 1511.91 -0.841903 -2.58117 0
M  V30 16397 C 1510.36 -3.23046 -1.58649 0
M  V30 16398 C 1509.97 -4.43003 -0.667292 0
M  V30 16399 C 1511.72 -3.57729 -2.28539 0
M  V30 16400 C 1509.62 -5.74798 -1.39144 0
M  V30 16401 H 1508.55 -0.679753 -0.326269 0
M  V30 16402 H 1511.2 -1.8313 -0.116454 0
M  V30 16403 H 1509.59 -3.16561 -2.37918 0
M  V30 16404 H 1510.76 -4.60712 0.0898254 0
M  V30 16405 H 1509.08 -4.16329 -0.0770521 0
M  V30 16406 H 1511.67 -4.53451 -2.83348 0
M  V30 16407 H 1512.02 -2.8355 -3.04803 0
M  V30 16408 H 1512.55 -3.65853 -1.56194 0
M  V30 16409 H 1509.29 -6.52059 -0.670747 0
M  V30 16410 H 1508.81 -5.61032 -2.12139 0
M  V30 16411 H 1510.49 -6.17429 -1.93367 0
M  V30 16412 N 1510.62 0.421051 -1.51871 0
M  V30 16413 C 1511.85 1.18938 -1.6893 0
M  V30 16414 C 1512.26 1.85069 -0.393198 0
M  V30 16415 O 1511.6 1.72204 0.639648 0
M  V30 16416 C 1511.66 2.30343 -2.76012 0
M  V30 16417 C 1511.33 1.84446 -4.18125 0
M  V30 16418 C 1512.32 1.33882 -5.02366 0
M  V30 16419 C 1510.01 1.91642 -4.64305 0
M  V30 16420 C 1512 0.911212 -6.30853 0
M  V30 16421 C 1509.69 1.48492 -5.92784 0
M  V30 16422 C 1510.69 0.98316 -6.75887 0
M  V30 16423 O 1510.37 0.557853 -8.01962 0
M  V30 16424 H 1510.11 0.363908 -0.56969 0
M  V30 16425 H 1512.66 0.503089 -1.99144 0
M  V30 16426 H 1510.89 3.02298 -2.41148 0
M  V30 16427 H 1512.58 2.92148 -2.81787 0
M  V30 16428 H 1513.35 1.27704 -4.67885 0
M  V30 16429 H 1509.22 2.29641 -3.99732 0
M  V30 16430 H 1512.77 0.518877 -6.95668 0
M  V30 16431 H 1508.67 1.54345 -6.26776 0
M  V30 16432 H 1509.43 0.682238 -8.15652 0
M  V30 16433 N 1512.1 1.42293 0.677538 0
M  V30 16434 C 1513.35 1.41909 1.43334 0
M  V30 16435 C 1513.66 0.037951 1.95563 0
M  V30 16436 O 1514.86 -0.0884836 2.71356 0
M  V30 16437 C 1513.32 2.49608 2.59275 0
M  V30 16438 C 1512.93 3.93716 2.13757 0
M  V30 16439 C 1514.67 2.58387 3.36803 0
M  V30 16440 C 1512.58 4.92929 3.26764 0
M  V30 16441 H 1511.51 0.527803 0.538461 0
M  V30 16442 H 1514.16 1.6819 0.733791 0
M  V30 16443 H 1512.54 2.16488 3.31585 0
M  V30 16444 H 1513.72 4.36176 1.48618 0
M  V30 16445 H 1512.03 3.88762 1.49175 0
M  V30 16446 H 1514.63 3.29691 4.20961 0
M  V30 16447 H 1514.97 1.62653 3.8321 0
M  V30 16448 H 1515.5 2.90688 2.71561 0
M  V30 16449 H 1512.24 5.90131 2.85352 0
M  V30 16450 H 1511.76 4.55103 3.90694 0
M  V30 16451 H 1513.44 5.1452 3.92273 0
M  V30 16452 N 1513.57 -0.913576 1.28419 0
M  V30 16453 C 1514.52 -2.03739 1.1222 0
M  V30 16454 C 1515.52 -1.69349 0.0414309 0
M  V30 16455 O 1516.72 -1.78883 0.200213 0
M  V30 16456 H 1513.1 -0.667554 0.34623 0
M  V30 16457 H 1515.07 -2.14544 2.07397 0
M  V30 16458 C 1513.82 -3.38348 0.801003 0
M  V30 16459 H 1513.14 -3.65304 1.6246 0
M  V30 16460 H 1514.58 -4.1771 0.727611 0
M  V30 16461 C 1513.04 -3.3324 -0.495261 0
M  V30 16462 O 1513.57 -3.71606 -1.52551 0
M  V30 16463 N 1511.78 -2.86335 -0.496054 0
M  V30 16464 H 1511.32 -2.55309 0.342773 0
M  V30 16465 H 1511.28 -2.833 -1.3634 0
M  V30 16466 N 1515.05 -1.1067 -1.12204 0
M  V30 16467 C 1516.3 -0.84895 -1.83405 0
M  V30 16468 C 1516.62 0.62724 -1.84637 0
M  V30 16469 O 1515.89 1.45546 -1.31123 0
M  V30 16470 H 1514.47 -0.311074 -0.679148 0
M  V30 16471 H 1517.13 -1.39747 -1.35856 0
M  V30 16472 H 1516.23 -1.21398 -2.87522 0
M  V30 16473 N 1516.53 1.29665 -0.895815 0
M  V30 16474 C 1517.48 2.27831 -0.369011 0
M  V30 16475 C 1518.45 1.56843 0.546756 0
M  V30 16476 O 1519.63 1.84848 0.472837 0
M  V30 16477 C 1516.77 3.42764 0.400884 0
M  V30 16478 C 1515.89 4.28544 -0.545335 0
M  V30 16479 C 1515.02 5.30652 0.241228 0
M  V30 16480 C 1514.06 6.08087 -0.699765 0
M  V30 16481 N 1513.2 7.02081 0.0521477 0
M  V30 16482 H 1518.04 2.72274 -1.21124 0
M  V30 16483 H 1515.57 1.33918 -0.608631 0
M  V30 16484 H 1517.53 4.08171 0.863277 0
M  V30 16485 H 1516.16 2.99361 1.2076 0
M  V30 16486 H 1515.21 3.63346 -1.12624 0
M  V30 16487 H 1516.53 4.82472 -1.26579 0
M  V30 16488 H 1515.68 6.01858 0.764994 0
M  V30 16489 H 1514.42 4.77446 0.994838 0
M  V30 16490 H 1513.42 5.35748 -1.23507 0
M  V30 16491 H 1514.65 6.63382 -1.45264 0
M  V30 16492 H 1512.59 6.51249 0.788096 0
M  V30 16493 H 1512.51 7.53547 -0.60847 0
M  V30 16494 H 1513.78 7.77512 0.556304 0
M  V30 16495 N 1518.01 0.657889 1.43212 0
M  V30 16496 C 1518.94 -0.0172114 2.33494 0
M  V30 16497 C 1519.92 -0.807087 1.49733 0
M  V30 16498 O 1521.1 -0.767631 1.78385 0
M  V30 16499 C 1518.23 -0.981029 3.33156 0
M  V30 16500 C 1517.19 -0.30094 4.26941 0
M  V30 16501 C 1516.51 -1.37653 5.16678 0
M  V30 16502 C 1517.81 0.809572 5.15988 0
M  V30 16503 H 1519.51 0.736749 2.90194 0
M  V30 16504 H 1517.05 0.355744 1.39537 0
M  V30 16505 H 1519.01 -1.46226 3.95216 0
M  V30 16506 H 1517.73 -1.76621 2.74723 0
M  V30 16507 H 1516.39 0.159893 3.66251 0
M  V30 16508 H 1516.04 -2.15326 4.54581 0
M  V30 16509 H 1515.74 -0.926704 5.80246 0
M  V30 16510 H 1517.26 -1.85903 5.81612 0
M  V30 16511 H 1518.68 0.410297 5.7183 0
M  V30 16512 H 1517.07 1.18415 5.88301 0
M  V30 16513 H 1518.14 1.66558 4.55397 0
M  V30 16514 N 1519.49 -1.52437 0.400108 0
M  V30 16515 C 1520.74 -2.00896 -0.179909 0
M  V30 16516 C 1521.05 -1.29046 -1.46991 0
M  V30 16517 O 1522.25 -1.68274 -2.13063 0
M  V30 16518 C 1520.71 -3.57981 -0.371169 0
M  V30 16519 C 1520.32 -4.38739 0.906213 0
M  V30 16520 C 1522.06 -4.14698 -0.906965 0
M  V30 16521 C 1519.97 -5.87447 0.682637 0
M  V30 16522 H 1518.9 -0.750649 -0.071008 0
M  V30 16523 H 1521.55 -1.75854 0.524169 0
M  V30 16524 H 1519.93 -3.79315 -1.13736 0
M  V30 16525 H 1521.11 -4.29167 1.67785 0
M  V30 16526 H 1519.42 -3.93296 1.36776 0
M  V30 16527 H 1522.02 -5.2347 -1.09012 0
M  V30 16528 H 1522.36 -3.71477 -1.87911 0
M  V30 16529 H 1522.89 -3.97297 -0.200068 0
M  V30 16530 H 1519.63 -6.35011 1.62608 0
M  V30 16531 H 1519.15 -5.99779 -0.0498716 0
M  V30 16532 H 1520.83 -6.46202 0.321331 0
M  V30 16533 N 1520.96 -0.130252 -1.57061 0
M  V30 16534 C 1522.24 0.569171 -1.87136 0
M  V30 16535 C 1522.62 1.84078 -1.03337 0
M  V30 16536 O 1521.97 2.28208 -0.11543 0
M  V30 16537 C 1522.18 0.850782 -3.38471 0
M  V30 16538 C 1523.53 1.19892 -4.07322 0
M  V30 16539 O 1524.55 0.940682 -3.43554 0
M  V30 16540 O 1523.41 1.6841 -5.19904 0
M  V30 16541 H 1520.5 0.288433 -0.775071 0
M  V30 16542 H 1523.05 -0.165603 -1.6889 0
M  V30 16543 H 1521.82 -0.0498562 -3.91268 0
M  V30 16544 H 1521.45 1.64032 -3.62187 0
M  V30 16545 N 1522.44 1.56945 0.143535 0
M  V30 16546 C 1523.67 1.87701 0.870401 0
M  V30 16547 C 1524.09 0.718833 1.7458 0
M  V30 16548 O 1523.44 -0.311286 1.79826 0
M  V30 16549 C 1523.49 3.1773 1.72424 0
M  V30 16550 O 1523.22 4.29086 0.884115 0
M  V30 16551 C 1524.72 3.62024 2.55839 0
M  V30 16552 H 1521.94 0.622083 0.251504 0
M  V30 16553 H 1524.48 2.04052 0.135285 0
M  V30 16554 H 1522.64 3.03122 2.41238 0
M  V30 16555 H 1523.05 5.0346 1.47065 0
M  V30 16556 H 1524.52 4.55834 3.11319 0
M  V30 16557 H 1525 2.87481 3.32041 0
M  V30 16558 H 1525.61 3.79338 1.9231 0
M  V30 16559 N 1523.92 -0.412991 1.52093 0
M  V30 16560 C 1525.17 -1.15737 1.65191 0
M  V30 16561 C 1525.48 -1.91753 0.38601 0
M  V30 16562 O 1526.69 -2.68586 0.396731 0
M  V30 16563 C 1525.15 -2.10619 2.91835 0
M  V30 16564 C 1524.75 -1.40137 4.25518 0
M  V30 16565 C 1526.5 -2.85339 3.14296 0
M  V30 16566 C 1524.4 -2.33645 5.4329 0
M  V30 16567 H 1523.33 -0.435732 0.615348 0
M  V30 16568 H 1525.99 -0.422172 1.78578 0
M  V30 16569 H 1524.37 -2.87675 2.72138 0
M  V30 16570 H 1525.54 -0.684719 4.55684 0
M  V30 16571 H 1523.86 -0.774734 4.09129 0
M  V30 16572 H 1526.45 -3.55437 3.99461 0
M  V30 16573 H 1526.8 -3.48071 2.28369 0
M  V30 16574 H 1527.33 -2.15384 3.34447 0
M  V30 16575 H 1524.07 -1.75566 6.31551 0
M  V30 16576 H 1523.59 -3.03294 5.17467 0
M  V30 16577 H 1525.27 -2.94255 5.76215 0
M  V30 16578 N 1525.4 -1.4265 -0.669982 0
M  V30 16579 C 1526.35 -1.46504 -1.7834 0
M  V30 16580 C 1527.32 -0.316478 -1.63057 0
M  V30 16581 O 1528.5 -0.521245 -1.83542 0
M  V30 16582 C 1525.64 -1.37784 -3.16401 0
M  V30 16583 C 1524.75 -2.62714 -3.42937 0
M  V30 16584 C 1523.89 -2.46101 -4.70752 0
M  V30 16585 C 1522.93 -3.66381 -4.90338 0
M  V30 16586 N 1522.07 -3.48681 -6.09398 0
M  V30 16587 H 1526.91 -2.41651 -1.74381 0
M  V30 16588 H 1524.44 -1.1997 -0.851215 0
M  V30 16589 H 1526.4 -1.30725 -3.9619 0
M  V30 16590 H 1525.03 -0.462291 -3.19473 0
M  V30 16591 H 1524.08 -2.8012 -2.57366 0
M  V30 16592 H 1525.39 -3.52108 -3.53301 0
M  V30 16593 H 1524.55 -2.36655 -5.58641 0
M  V30 16594 H 1523.29 -1.54204 -4.6268 0
M  V30 16595 H 1522.29 -3.76254 -4.00891 0
M  V30 16596 H 1523.52 -4.59265 -5.00253 0
M  V30 16597 H 1521.46 -2.59505 -6.02489 0
M  V30 16598 H 1521.38 -4.31666 -6.20645 0
M  V30 16599 H 1522.65 -3.43056 -6.99952 0
M  V30 16600 N 1526.88 0.906753 -1.28902 0
M  V30 16601 C 1528.12 1.65903 -1.16636 0
M  V30 16602 C 1528.46 1.92127 0.282981 0
M  V30 16603 O 1527.73 1.52666 1.20513 0
M  V30 16604 C 1528.01 3.01257 -1.97272 0
M  V30 16605 C 1527.87 2.82143 -3.50308 0
M  V30 16606 C 1529.19 4.01893 -1.7936 0
M  V30 16607 H 1526.31 0.602063 -0.425076 0
M  V30 16608 H 1528.95 1.05081 -1.58297 0
M  V30 16609 H 1527.1 3.53172 -1.61871 0
M  V30 16610 H 1528.77 2.37184 -3.95653 0
M  V30 16611 H 1527.01 2.17063 -3.75588 0
M  V30 16612 H 1527.68 3.78293 -4.01993 0
M  V30 16613 H 1530.16 3.59064 -2.10267 0
M  V30 16614 H 1529.04 4.9455 -2.38141 0
M  V30 16615 H 1529.3 4.35745 -0.746923 0
M  V30 16616 N 1528.36 1.11264 1.11616 0
M  V30 16617 C 1529.3 0.769295 2.17602 0
M  V30 16618 C 1530.27 -0.258362 1.64078 0
M  V30 16619 O 1531.46 -0.135698 1.90317 0
M  V30 16620 C 1528.6 0.216647 3.44419 0
M  V30 16621 C 1527.71 1.30064 4.11955 0
M  V30 16622 C 1526.85 0.708729 5.26451 0
M  V30 16623 C 1525.88 1.7727 5.85868 0
M  V30 16624 N 1525.02 1.20042 6.91762 0
M  V30 16625 H 1529.86 1.67727 2.46316 0
M  V30 16626 H 1527.4 0.83764 1.20921 0
M  V30 16627 H 1529.36 -0.121724 4.17022 0
M  V30 16628 H 1527.99 -0.654525 3.16095 0
M  V30 16629 H 1527.04 1.756 3.37445 0
M  V30 16630 H 1528.35 2.1057 4.52174 0
M  V30 16631 H 1527.5 0.320307 6.05854 0
M  V30 16632 H 1526.24 -0.127668 4.87533 0
M  V30 16633 H 1525.25 2.17046 5.05145 0
M  V30 16634 H 1526.47 2.6121 6.26854 0
M  V30 16635 H 1524.42 0.385633 6.54866 0
M  V30 16636 H 1524.34 1.94221 7.30626 0
M  V30 16637 H 1525.6 0.838825 7.74974 0
M  V30 16638 N 1529.83 -1.29188 0.902679 0
M  V30 16639 C 1530.74 -2.3138 0.387363 0
M  V30 16640 C 1531.76 -1.66067 -0.519396 0
M  V30 16641 O 1532.94 -1.97219 -0.408257 0
M  V30 16642 C 1530 -3.44675 -0.374137 0
M  V30 16643 C 1529.06 -4.25572 0.564503 0
M  V30 16644 C 1528.29 -5.33458 -0.160748 0
M  V30 16645 O 1528.52 -5.53349 -1.38423 0
M  V30 16646 O 1527.45 -5.99834 0.498259 0
M  V30 16647 H 1531.28 -2.77444 1.23525 0
M  V30 16648 H 1528.86 -1.33679 0.667106 0
M  V30 16649 H 1530.74 -4.13647 -0.80464 0
M  V30 16650 H 1529.42 -3.00714 -1.19804 0
M  V30 16651 H 1528.33 -3.59232 1.04418 0
M  V30 16652 H 1529.66 -4.73184 1.3549 0
M  V30 16653 N 1531.31 -0.665475 -1.42861 0
M  V30 16654 C 1532.24 0.00482845 -2.335 0
M  V30 16655 C 1533.22 0.799135 -1.50159 0
M  V30 16656 O 1534.41 0.75816 -1.78789 0
M  V30 16657 C 1531.54 0.963347 -3.33672 0
M  V30 16658 C 1530.49 0.278294 -4.27094 0
M  V30 16659 C 1529.82 1.34911 -5.174 0
M  V30 16660 C 1531.12 -0.836925 -5.15551 0
M  V30 16661 H 1532.81 -0.752129 -2.89799 0
M  V30 16662 H 1530.36 -0.363139 -1.39346 0
M  V30 16663 H 1532.31 1.44128 -3.95986 0
M  V30 16664 H 1531.03 1.75161 -2.75656 0
M  V30 16665 H 1529.69 -0.179314 -3.66161 0
M  V30 16666 H 1529.34 2.12912 -4.55716 0
M  V30 16667 H 1529.04 0.895919 -5.8073 0
M  V30 16668 H 1530.57 1.82816 -5.8259 0
M  V30 16669 H 1531.98 -0.440617 -5.71604 0
M  V30 16670 H 1530.38 -1.21533 -5.87665 0
M  V30 16671 H 1531.45 -1.6897 -4.54507 0
M  V30 16672 N 1532.79 1.52222 -0.408187 0
M  V30 16673 C 1534.02 2.06221 0.16743 0
M  V30 16674 C 1534.43 1.27832 1.3894 0
M  V30 16675 O 1533.79 0.329933 1.79493 0
M  V30 16676 C 1533.84 3.57758 0.518804 0
M  V30 16677 O 1533.56 4.33181 -0.654639 0
M  V30 16678 C 1535.06 4.28171 1.14825 0
M  V30 16679 H 1532.28 0.670677 0.0208054 0
M  V30 16680 H 1534.83 1.96136 -0.578868 0
M  V30 16681 H 1532.98 3.67854 1.215 0
M  V30 16682 H 1533.4 5.23252 -0.361558 0
M  V30 16683 H 1534.87 5.3538 1.34433 0
M  V30 16684 H 1535.35 3.84586 2.12108 0
M  V30 16685 H 1535.95 4.22441 0.492291 0
M  V30 16686 N 1534.27 0.138579 1.5699 0
M  V30 16687 C 1535.52 -0.513611 1.95465 0
M  V30 16688 C 1535.84 -1.65952 1.02396 0
M  V30 16689 O 1535.11 -1.9572 0.0839001 0
M  V30 16690 H 1533.69 -0.192729 0.72171 0
M  V30 16691 H 1536.35 0.212107 1.93742 0
M  V30 16692 H 1535.44 -0.895313 2.98983 0
M  V30 16693 N 1535.75 -1.57019 -0.13521 0
M  V30 16694 C 1536.99 -1.83178 -0.844308 0
M  V30 16695 C 1537.31 -0.7217 -1.81799 0
M  V30 16696 O 1538.51 -0.869232 -2.57209 0
M  V30 16697 C 1536.97 -3.2471 -1.55214 0
M  V30 16698 C 1536.58 -4.43685 -0.620268 0
M  V30 16699 C 1538.32 -3.60133 -2.24732 0
M  V30 16700 C 1536.23 -5.76242 -1.3304 0
M  V30 16701 H 1535.16 -0.683175 -0.319041 0
M  V30 16702 H 1537.81 -1.83243 -0.0970242 0
M  V30 16703 H 1536.19 -3.19067 -2.34547 0
M  V30 16704 H 1537.37 -4.60591 0.138685 0
M  V30 16705 H 1535.68 -4.16387 -0.0328906 0
M  V30 16706 H 1538.28 -4.56431 -2.78522 0
M  V30 16707 H 1538.62 -2.86767 -3.01779 0
M  V30 16708 H 1539.15 -3.67489 -1.52305 0
M  V30 16709 H 1535.89 -6.52734 -0.60155 0
M  V30 16710 H 1535.41 -5.63251 -2.06176 0
M  V30 16711 H 1537.09 -6.19445 -1.86808 0
M  V30 16712 N 1537.22 0.404919 -1.52309 0
M  V30 16713 C 1538.17 1.51412 -1.7657 0
M  V30 16714 C 1539.17 1.5713 -0.632983 0
M  V30 16715 O 1540.37 1.60486 -0.815121 0
M  V30 16716 H 1536.75 0.503636 -0.55844 0
M  V30 16717 H 1538.72 1.28137 -2.69488 0
M  V30 16718 C 1537.47 2.88733 -1.93722 0
M  V30 16719 H 1536.79 2.85078 -2.80304 0
M  V30 16720 H 1538.23 3.65626 -2.14695 0
M  V30 16721 C 1536.69 3.29431 -0.705444 0
M  V30 16722 O 1537.22 4.01506 0.124693 0
M  V30 16723 N 1535.43 2.85536 -0.540128 0
M  V30 16724 H 1534.97 2.27052 -1.21677 0
M  V30 16725 H 1534.93 3.13126 0.282723 0
M  V30 16726 N 1538.7 1.43003 0.662408 0
M  V30 16727 C 1539.95 1.44133 1.42239 0
M  V30 16728 C 1540.28 0.062249 1.944 0
M  V30 16729 O 1539.53 -0.931341 1.72118 0
M  V30 16730 C 1539.83 2.4231 2.62718 0
M  V30 16731 C 1539.5 3.88403 2.29028 0
M  V30 16732 C 1538.16 4.28194 2.19552 0
M  V30 16733 C 1540.51 4.80505 2.01902 0
M  V30 16734 C 1537.84 5.58052 1.81092 0
M  V30 16735 C 1540.19 6.10718 1.64943 0
M  V30 16736 C 1538.86 6.49496 1.53985 0
M  V30 16737 H 1538.13 0.527419 0.52049 0
M  V30 16738 H 1540.77 1.76024 0.75417 0
M  V30 16739 H 1539.08 2.03789 3.3463 0
M  V30 16740 H 1540.77 2.40442 3.20918 0
M  V30 16741 H 1537.36 3.56906 2.37311 0
M  V30 16742 H 1541.55 4.50542 2.08149 0
M  V30 16743 H 1536.8 5.86945 1.71187 0
M  V30 16744 H 1540.98 6.81564 1.42982 0
M  V30 16745 H 1538.61 7.50026 1.23954 0
M  V30 16746 N 1540.18 -0.899904 1.29381 0
M  V30 16747 C 1541.41 -1.68911 1.20349 0
M  V30 16748 C 1541.83 -1.86657 -0.232523 0
M  V30 16749 O 1541.19 -1.38674 -1.16787 0
M  V30 16750 C 1541.24 -3.05124 1.92177 0
M  V30 16751 O 1540.34 -3.93358 1.23867 0
M  V30 16752 H 1539.68 -0.516698 0.417036 0
M  V30 16753 H 1542.21 -1.12422 1.70946 0
M  V30 16754 H 1542.22 -3.55267 2.00623 0
M  V30 16755 H 1540.9 -2.91525 2.96624 0
M  V30 16756 H 1539.47 -3.51793 1.23677 0
M  V30 16757 N 1541.66 -1.11854 -1.11024 0
M  V30 16758 C 1542.61 -0.780825 -2.17191 0
M  V30 16759 C 1543.58 0.249657 -1.64213 0
M  V30 16760 O 1544.76 0.125603 -1.90386 0
M  V30 16761 C 1541.9 -0.23491 -3.443 0
M  V30 16762 C 1541.01 -1.32247 -4.1126 0
M  V30 16763 C 1540.15 -0.736638 -5.26068 0
M  V30 16764 C 1539.19 -1.80375 -5.8492 0
M  V30 16765 N 1538.32 -1.23709 -6.91115 0
M  V30 16766 H 1543.16 -1.69031 -2.45423 0
M  V30 16767 H 1540.7 -0.844041 -1.20476 0
M  V30 16768 H 1542.66 0.0996064 -4.17081 0
M  V30 16769 H 1541.29 0.637752 -3.16437 0
M  V30 16770 H 1540.34 -1.77387 -3.36509 0
M  V30 16771 H 1541.65 -2.12965 -4.51051 0
M  V30 16772 H 1540.81 -0.352432 -6.05675 0
M  V30 16773 H 1539.55 0.101811 -4.87594 0
M  V30 16774 H 1538.55 -2.19721 -5.03987 0
M  V30 16775 H 1539.78 -2.64531 -6.2546 0
M  V30 16776 H 1537.72 -0.420357 -6.54652 0
M  V30 16777 H 1537.64 -1.98093 -7.29586 0
M  V30 16778 H 1538.91 -0.879912 -7.74518 0
M  V30 16779 N 1543.14 1.28707 -0.909517 0
M  V30 16780 C 1544.36 1.99283 -0.556211 0
M  V30 16781 C 1544.78 1.68 0.861475 0
M  V30 16782 O 1544.14 0.930421 1.57001 0
M  V30 16783 C 1544.19 3.5362 -0.75068 0
M  V30 16784 O 1543.91 3.83799 -2.11258 0
M  V30 16785 C 1545.41 4.41459 -0.403637 0
M  V30 16786 H 1542.63 0.636476 -0.212462 0
M  V30 16787 H 1545.17 1.64007 -1.22156 0
M  V30 16788 H 1543.33 3.87174 -0.132384 0
M  V30 16789 H 1543.74 4.78448 -2.14913 0
M  V30 16790 H 1545.22 5.48833 -0.590496 0
M  V30 16791 H 1545.69 4.34214 0.659897 0
M  V30 16792 H 1546.3 4.13394 -0.999292 0
M  V30 16793 N 1544.61 0.673042 1.42506 0
M  V30 16794 C 1545.86 0.1918 2.00786 0
M  V30 16795 C 1546.18 -1.20814 1.53829 0
M  V30 16796 O 1547.38 -1.78566 2.04515 0
M  V30 16797 C 1545.84 0.292045 3.58713 0
M  V30 16798 C 1545.45 1.69593 4.14659 0
M  V30 16799 C 1547.19 -0.130575 4.24299 0
M  V30 16800 C 1545.1 1.74904 5.64945 0
M  V30 16801 H 1544.03 0.0679452 0.750932 0
M  V30 16802 H 1546.68 0.837968 1.63249 0
M  V30 16803 H 1545.06 -0.421985 3.93745 0
M  V30 16804 H 1546.23 2.4369 3.9109 0
M  V30 16805 H 1544.55 2.06625 3.61518 0
M  V30 16806 H 1547.15 -0.11102 5.34585 0
M  V30 16807 H 1547.49 -1.16552 3.99651 0
M  V30 16808 H 1548.02 0.532386 3.94221 0
M  V30 16809 H 1544.76 2.76374 5.94388 0
M  V30 16810 H 1544.28 1.0516 5.9051 0
M  V30 16811 H 1545.96 1.50168 6.29332 0
M  V30 16812 N 1546.09 -1.52004 0.416254 0
M  V30 16813 C 1547.32 -2.06307 -0.156491 0
M  V30 16814 C 1547.74 -1.28567 -1.3826 0
M  V30 16815 O 1547.09 -0.339447 -1.79315 0
M  V30 16816 C 1547.14 -3.58028 -0.499824 0
M  V30 16817 O 1546.86 -4.32828 0.677602 0
M  V30 16818 C 1548.37 -4.28773 -1.12553 0
M  V30 16819 H 1545.59 -0.670778 -0.0172483 0
M  V30 16820 H 1548.13 -1.95826 0.589262 0
M  V30 16821 H 1546.28 -3.68493 -1.19547 0
M  V30 16822 H 1546.7 -5.23053 0.389302 0
M  V30 16823 H 1548.17 -5.36085 -1.31592 0
M  V30 16824 H 1548.65 -3.85706 -2.10066 0
M  V30 16825 H 1549.26 -4.22696 -0.469881 0
M  V30 16826 N 1547.57 -0.146903 -1.56914 0
M  V30 16827 C 1548.82 0.504234 -1.96122 0
M  V30 16828 C 1549.15 1.64879 -1.03175 0
M  V30 16829 O 1548.4 1.95605 -0.0609397 0
M  V30 16830 C 1548.7 1.05159 -3.41579 0
M  V30 16831 C 1548.37 0.0254845 -4.50893 0
M  V30 16832 C 1547.03 -0.256589 -4.80515 0
M  V30 16833 C 1549.38 -0.672284 -5.16846 0
M  V30 16834 C 1546.71 -1.24224 -5.73398 0
M  V30 16835 C 1549.06 -1.64675 -6.1079 0
M  V30 16836 C 1547.72 -1.93652 -6.38792 0
M  V30 16837 H 1546.99 0.184512 -0.71766 0
M  V30 16838 H 1549.64 -0.233712 -1.90069 0
M  V30 16839 H 1547.95 1.86687 -3.44464 0
M  V30 16840 H 1549.64 1.56398 -3.69244 0
M  V30 16841 H 1546.23 0.255517 -4.27838 0
M  V30 16842 H 1550.42 -0.467555 -4.94093 0
M  V30 16843 H 1545.67 -1.47319 -5.93386 0
M  V30 16844 H 1549.85 -2.19294 -6.60971 0
M  V30 16845 H 1547.47 -2.70179 -7.10568 0
M  V30 16846 N 1549.05 1.57088 0.126881 0
M  V30 16847 C 1549.96 2.03053 1.17502 0
M  V30 16848 C 1550.97 0.949484 1.45811 0
M  V30 16849 O 1552.15 1.26043 1.57083 0
M  V30 16850 C 1549.22 2.41897 2.48368 0
M  V30 16851 C 1548.28 3.64047 2.27527 0
M  V30 16852 C 1547.51 4.01029 3.52153 0
M  V30 16853 O 1547.73 3.38441 4.59145 0
M  V30 16854 O 1546.67 4.94174 3.43622 0
M  V30 16855 H 1550.49 2.92568 0.814733 0
M  V30 16856 H 1548.08 1.45547 0.3371 0
M  V30 16857 H 1549.96 2.67652 3.25485 0
M  V30 16858 H 1548.63 1.55531 2.83887 0
M  V30 16859 H 1547.54 3.43452 1.48294 0
M  V30 16860 H 1548.87 4.51093 1.96916 0
M  V30 16861 N 1550.53 -0.396836 1.52522 0
M  V30 16862 C 1551.78 -1.13978 1.66409 0
M  V30 16863 C 1552.09 -1.91333 0.406326 0
M  V30 16864 O 1553.29 -2.6815 0.425195 0
M  V30 16865 C 1551.75 -2.07512 2.94052 0
M  V30 16866 C 1551.36 -1.35616 4.2698 0
M  V30 16867 C 1553.1 -2.8199 3.17304 0
M  V30 16868 C 1551.01 -2.2787 5.45737 0
M  V30 16869 H 1549.94 -0.429181 0.619935 0
M  V30 16870 H 1552.59 -0.403207 1.79015 0
M  V30 16871 H 1550.97 -2.84773 2.75174 0
M  V30 16872 H 1552.15 -0.636349 4.56385 0
M  V30 16873 H 1550.46 -0.731297 4.09928 0
M  V30 16874 H 1553.06 -3.5118 4.03208 0
M  V30 16875 H 1553.4 -3.45629 2.32048 0
M  V30 16876 H 1553.93 -2.11824 3.36712 0
M  V30 16877 H 1550.67 -1.68858 6.33378 0
M  V30 16878 H 1550.19 -2.97789 5.20655 0
M  V30 16879 H 1551.87 -2.88126 5.79303 0
M  V30 16880 N 1552.01 -1.43353 -0.654814 0
M  V30 16881 C 1552.95 -1.48652 -1.789 0
M  V30 16882 C 1553.95 -0.360274 -1.65525 0
M  V30 16883 O 1555.15 -0.534194 -1.71891 0
M  V30 16884 H 1551.53 -0.465987 -0.590221 0
M  V30 16885 H 1553.5 -2.44158 -1.7155 0
M  V30 16886 C 1552.25 -1.42512 -3.17152 0
M  V30 16887 H 1551.57 -2.28479 -3.28081 0
M  V30 16888 H 1553.01 -1.50282 -3.96474 0
M  V30 16889 C 1551.47 -0.142511 -3.36598 0
M  V30 16890 O 1552 0.796821 -3.93718 0
M  V30 16891 N 1550.21 -0.0532157 -2.90551 0
M  V30 16892 H 1549.75 -0.818421 -2.44253 0
M  V30 16893 H 1549.71 0.80427 -3.03939 0
M  V30 16894 N 1553.48 0.89303 -1.29857 0
M  V30 16895 C 1554.43 1.9979 -1.15554 0
M  V30 16896 C 1555.4 1.66033 -0.0471157 0
M  V30 16897 O 1556.59 1.89575 -0.215846 0
M  V30 16898 C 1553.73 3.34595 -0.844993 0
M  V30 16899 C 1552.84 3.81093 -2.03451 0
M  V30 16900 C 1551.97 5.04506 -1.66275 0
M  V30 16901 C 1551.01 5.4339 -2.8177 0
M  V30 16902 N 1550.15 6.57987 -2.44945 0
M  V30 16903 H 1554.99 2.11355 -2.10079 0
M  V30 16904 H 1552.53 1.03497 -1.04531 0
M  V30 16905 H 1554.48 4.12175 -0.645598 0
M  V30 16906 H 1553.11 3.22738 0.0633626 0
M  V30 16907 H 1552.17 2.99491 -2.34541 0
M  V30 16908 H 1553.48 4.05855 -2.8997 0
M  V30 16909 H 1552.63 5.89688 -1.42664 0
M  V30 16910 H 1551.37 4.81597 -0.769144 0
M  V30 16911 H 1550.38 4.56738 -3.06056 0
M  V30 16912 H 1551.6 5.68276 -3.71805 0
M  V30 16913 H 1549.55 6.36669 -1.58079 0
M  V30 16914 H 1549.46 6.82579 -3.24996 0
M  V30 16915 H 1550.73 7.46421 -2.24669 0
M  V30 16916 N 1554.96 1.12442 1.10429 0
M  V30 16917 C 1556.21 0.874466 1.81758 0
M  V30 16918 C 1556.52 -0.601487 1.86122 0
M  V30 16919 O 1557.73 -0.968037 2.53656 0
M  V30 16920 C 1556.19 1.51478 3.2647 0
M  V30 16921 C 1555.79 3.02552 3.30403 0
M  V30 16922 C 1557.54 1.34511 4.02625 0
M  V30 16923 C 1555.44 3.59518 4.69575 0
M  V30 16924 H 1554.37 0.323494 0.681078 0
M  V30 16925 H 1557.03 1.35091 1.24188 0
M  V30 16926 H 1555.41 0.966 3.84037 0
M  V30 16927 H 1556.58 3.63924 2.82659 0
M  V30 16928 H 1554.9 3.18917 2.67733 0
M  V30 16929 H 1557.49 1.74492 5.05427 0
M  V30 16930 H 1557.84 0.288788 4.15297 0
M  V30 16931 H 1558.37 1.86311 3.51473 0
M  V30 16932 H 1555.11 4.6491 4.62103 0
M  V30 16933 H 1554.63 3.02922 5.17686 0
M  V30 16934 H 1556.31 3.58581 5.38543 0
M  V30 16935 N 1556.44 -1.28223 0.91633 0
M  V30 16936 C 1557.85 -1.76898 0.597003 0
M  V30 16937 C 1558.2 -1.74969 -0.887719 0
M  V30 16938 O 1557.33 -1.34598 -1.69447 0
M  V30 16939 C 1557.92 -3.21228 1.07694 0
M  V30 16940 C 1556.48 -3.67614 0.80849 0
M  V30 16941 C 1555.63 -2.47921 1.24219 0
M  V30 16942 H 1558.58 -1.1465 1.09732 0
M  V30 16943 H 1558.6 -3.7818 0.419531 0
M  V30 16944 H 1558.11 -3.226 2.15757 0
M  V30 16945 H 1556.21 -3.717 -0.258814 0
M  V30 16946 H 1556.33 -4.57633 1.41804 0
M  V30 16947 H 1554.69 -2.45976 0.660892 0
M  V30 16948 H 1555.47 -2.5201 2.33122 0
M  V30 16949 N 1557.92 -0.68059 -1.42147 0
M  V30 16950 C 1559.19 -0.133957 -1.95141 0
M  V30 16951 C 1559.57 1.3526 -1.62074 0
M  V30 16952 O 1558.92 2.09165 -0.919898 0
M  V30 16953 C 1559.13 -0.409266 -3.46592 0
M  V30 16954 C 1560.48 -0.328899 -4.23324 0
M  V30 16955 O 1561.5 -0.343337 -3.54541 0
M  V30 16956 O 1560.36 -0.276076 -5.45802 0
M  V30 16957 H 1557.46 -0.00623443 -0.826977 0
M  V30 16958 H 1560 -0.755719 -1.51944 0
M  V30 16959 H 1558.78 -1.43883 -3.63887 0
M  V30 16960 H 1558.4 0.244216 -3.96849 0
M  V30 16961 N 1559.4 1.51781 -0.424309 0
M  V30 16962 C 1560.62 2.06387 0.145548 0
M  V30 16963 C 1561.04 1.29299 1.37576 0
M  V30 16964 O 1560.4 0.348952 1.79133 0
M  V30 16965 C 1560.45 3.58288 0.48083 0
M  V30 16966 O 1560.17 4.32463 -0.700546 0
M  V30 16967 C 1561.67 4.29364 1.10278 0
M  V30 16968 H 1558.89 0.67086 0.0136908 0
M  V30 16969 H 1561.43 1.95511 -0.599639 0
M  V30 16970 H 1559.59 3.69122 1.17591 0
M  V30 16971 H 1560 5.22839 -0.417035 0
M  V30 16972 H 1561.48 5.36776 1.28747 0
M  V30 16973 H 1561.95 3.86815 2.08017 0
M  V30 16974 H 1562.56 4.2294 0.447458 0
M  V30 16975 N 1560.87 0.155222 1.56834 0
M  V30 16976 C 1562.12 -0.49285 1.95998 0
M  V30 16977 C 1562.44 -1.64857 1.0415 0
M  V30 16978 O 1561.71 -1.9562 0.104654 0
M  V30 16979 H 1560.29 -0.185063 0.723713 0
M  V30 16980 H 1562.95 0.232644 1.93507 0
M  V30 16981 H 1562.05 -0.863552 2.99915 0
M  V30 16982 N 1562.35 -1.57153 -0.118549 0
M  V30 16983 C 1563.28 -2.03409 -1.1466 0
M  V30 16984 C 1564.26 -0.918636 -1.43161 0
M  V30 16985 O 1565.45 -1.18838 -1.53594 0
M  V30 16986 C 1562.58 -2.43879 -2.47265 0
M  V30 16987 C 1561.53 -3.58873 -2.33225 0
M  V30 16988 C 1560.86 -3.85244 -3.70798 0
M  V30 16989 C 1562.16 -4.90582 -1.79239 0
M  V30 16990 H 1563.85 -2.89545 -0.761862 0
M  V30 16991 H 1561.4 -1.39296 -0.365034 0
M  V30 16992 H 1563.35 -2.74844 -3.19435 0
M  V30 16993 H 1562.07 -1.54715 -2.8763 0
M  V30 16994 H 1560.73 -3.28119 -1.63504 0
M  V30 16995 H 1560.38 -2.93285 -4.08648 0
M  V30 16996 H 1560.08 -4.62649 -3.62257 0
M  V30 16997 H 1561.61 -4.18661 -4.44472 0
M  V30 16998 H 1563.02 -5.20079 -2.41227 0
M  V30 16999 H 1561.42 -5.71989 -1.81518 0
M  V30 17000 H 1562.49 -4.79065 -0.74999 0
M  V30 17001 N 1563.83 0.388742 -1.5273 0
M  V30 17002 C 1565.08 1.13094 -1.67011 0
M  V30 17003 C 1565.39 1.91115 -0.416467 0
M  V30 17004 O 1566.6 2.67921 -0.43941 0
M  V30 17005 C 1565.05 2.0595 -2.95149 0
M  V30 17006 C 1564.66 1.3335 -4.27694 0
M  V30 17007 C 1566.41 2.80303 -3.18795 0
M  V30 17008 C 1564.31 2.24973 -5.46938 0
M  V30 17009 H 1563.24 0.425887 -0.622203 0
M  V30 17010 H 1565.89 0.393708 -1.79227 0
M  V30 17011 H 1564.28 2.83309 -2.7668 0
M  V30 17012 H 1565.45 0.612137 -4.56716 0
M  V30 17013 H 1563.76 0.709547 -4.1031 0
M  V30 17014 H 1566.36 3.49036 -4.05065 0
M  V30 17015 H 1566.7 3.44394 -2.33877 0
M  V30 17016 H 1567.24 2.10036 -3.37831 0
M  V30 17017 H 1563.98 1.65497 -6.34264 0
M  V30 17018 H 1563.5 2.95024 -5.22227 0
M  V30 17019 H 1565.18 2.8505 -5.80823 0
M  V30 17020 N 1565.31 1.43698 0.647203 0
M  V30 17021 C 1566.54 1.49085 1.43462 0
M  V30 17022 C 1566.95 0.110605 1.88476 0
M  V30 17023 O 1566.31 -0.880365 1.59862 0
M  V30 17024 C 1566.36 2.44186 2.66562 0
M  V30 17025 O 1566.08 3.76844 2.23429 0
M  V30 17026 C 1567.58 2.58876 3.59858 0
M  V30 17027 H 1564.8 0.506148 0.440517 0
M  V30 17028 H 1567.34 1.88502 0.792931 0
M  V30 17029 H 1565.5 2.07949 3.26858 0
M  V30 17030 H 1565.91 4.2804 3.0312 0
M  V30 17031 H 1567.39 3.29482 4.42883 0
M  V30 17032 H 1567.86 1.63567 4.07606 0
M  V30 17033 H 1568.47 2.95949 3.05441 0
M  V30 17034 N 1566.79 -0.886131 1.30328 0
M  V30 17035 C 1568.01 -1.67625 1.22134 0
M  V30 17036 C 1568.44 -1.86893 -0.212712 0
M  V30 17037 O 1567.79 -1.39905 -1.1531 0
M  V30 17038 C 1567.84 -3.03068 1.95402 0
M  V30 17039 O 1566.95 -3.92022 1.28032 0
M  V30 17040 H 1566.29 -0.512246 0.422493 0
M  V30 17041 H 1568.82 -1.10602 1.72129 0
M  V30 17042 H 1568.83 -3.53119 2.04379 0
M  V30 17043 H 1567.5 -2.88363 2.99699 0
M  V30 17044 H 1566.08 -3.50461 1.27402 0
M  V30 17045 N 1568.26 -1.13026 -1.09832 0
M  V30 17046 C 1569.54 -0.800667 -1.78462 0
M  V30 17047 C 1569.92 0.708508 -1.98855 0
M  V30 17048 O 1569.27 1.64436 -1.58661 0
M  V30 17049 C 1569.48 -1.58284 -3.11042 0
M  V30 17050 C 1570.83 -1.77285 -3.85818 0
M  V30 17051 O 1571.85 -1.54848 -3.20781 0
M  V30 17052 O 1570.71 -2.14693 -5.02563 0
M  V30 17053 H 1567.8 -0.291895 -0.773774 0
M  V30 17054 H 1570.35 -1.23464 -1.16425 0
M  V30 17055 H 1569.12 -2.60867 -2.91657 0
M  V30 17056 H 1568.75 -1.14353 -3.80801 0
M  V30 17057 N 1569.74 1.27735 -0.923117 0
M  V30 17058 C 1570.97 1.9922 -0.57672 0
M  V30 17059 C 1571.39 1.68446 0.837113 0
M  V30 17060 O 1570.75 0.922129 1.56098 0
M  V30 17061 C 1570.8 3.51528 -0.803768 0
M  V30 17062 O 1569.9 4.12186 0.132829 0
M  V30 17063 H 1569.24 0.625593 -0.222553 0
M  V30 17064 H 1571.77 1.62657 -1.24112 0
M  V30 17065 H 1571.78 4.01641 -0.717534 0
M  V30 17066 H 1570.46 3.7326 -1.83439 0
M  V30 17067 H 1569.04 3.729 -0.00292957 0
M  V30 17068 N 1571.22 0.688118 1.41784 0
M  V30 17069 C 1572.5 0.144304 1.95067 0
M  V30 17070 C 1572.88 -1.34399 1.62789 0
M  V30 17071 O 1572.23 -2.08675 0.930978 0
M  V30 17072 C 1572.44 0.427641 3.4637 0
M  V30 17073 C 1573.78 0.351345 4.23144 0
M  V30 17074 O 1574.81 0.362134 3.54354 0
M  V30 17075 O 1573.67 0.305018 5.45648 0
M  V30 17076 H 1570.76 0.01062 0.826932 0
M  V30 17077 H 1573.31 0.763766 1.51541 0
M  V30 17078 H 1572.08 1.4581 3.63119 0
M  V30 17079 H 1571.7 -0.223167 3.96973 0
M  V30 17080 N 1572.7 -1.51554 0.432352 0
M  V30 17081 C 1573.65 -2.29204 -0.396044 0
M  V30 17082 C 1574.64 -1.34846 -1.02532 0
M  V30 17083 O 1575.85 -1.52209 -0.960861 0
M  V30 17084 H 1572.22 -0.737587 -0.146525 0
M  V30 17085 H 1574.19 -2.97085 0.279781 0
M  V30 17086 C 1572.94 -3.1427 -1.4876 0
M  V30 17087 H 1572.26 -3.8676 -1.01274 0
M  V30 17088 H 1573.7 -3.71667 -2.04058 0
M  V30 17089 C 1572.16 -2.29322 -2.46806 0
M  V30 17090 O 1572.69 -1.94941 -3.51228 0
M  V30 17091 N 1570.9 -1.92641 -2.17573 0
M  V30 17092 H 1570.45 -2.208 -1.32685 0
M  V30 17093 H 1570.4 -1.361 -2.83415 0
M  V30 17094 N 1574.18 -0.163538 -1.56749 0
M  V30 17095 C 1575.43 0.483453 -1.9582 0
M  V30 17096 C 1575.74 1.64913 -1.05181 0
M  V30 17097 O 1576.94 2.36184 -1.33901 0
M  V30 17098 C 1575.4 0.911471 -3.48167 0
M  V30 17099 C 1575.01 -0.228178 -4.47419 0
M  V30 17100 C 1576.75 1.52732 -3.96072 0
M  V30 17101 C 1574.66 0.219036 -5.90994 0
M  V30 17102 H 1573.59 0.184383 -0.731108 0
M  V30 17103 H 1576.24 -0.250527 -1.81782 0
M  V30 17104 H 1574.62 1.7012 -3.57596 0
M  V30 17105 H 1575.8 -1.0054 -4.49698 0
M  V30 17106 H 1574.11 -0.753485 -4.09526 0
M  V30 17107 H 1576.71 1.87383 -5.00791 0
M  V30 17108 H 1577.05 2.42239 -3.38565 0
M  V30 17109 H 1577.58 0.802176 -3.89628 0
M  V30 17110 H 1574.32 -0.641066 -6.52358 0
M  V30 17111 H 1573.84 0.96178 -5.92039 0
M  V30 17112 H 1575.52 0.665524 -6.43568 0
M  V30 17113 N 1575.65 1.57214 0.110213 0
M  V30 17114 C 1576.6 2.01971 1.1537 0
M  V30 17115 C 1577.6 0.918137 1.42361 0
M  V30 17116 O 1578.8 1.10334 1.4222 0
M  V30 17117 H 1575.18 0.64345 0.3892 0
M  V30 17118 H 1577.15 2.88827 0.749781 0
M  V30 17119 C 1575.9 2.4473 2.46987 0
M  V30 17120 H 1575.22 3.29066 2.27059 0
M  V30 17121 H 1576.66 2.79836 3.1854 0
M  V30 17122 C 1575.12 1.31445 3.10199 0
M  V30 17123 O 1575.65 0.635251 3.96645 0
M  V30 17124 N 1573.86 1.06927 2.70213 0
M  V30 17125 H 1573.4 1.62339 2.0001 0
M  V30 17126 H 1573.36 0.313273 3.12835 0
M  V30 17127 N 1577.13 -0.380637 1.52934 0
M  V30 17128 C 1578.07 -1.48737 1.73068 0
M  V30 17129 C 1579.04 -1.51954 0.578673 0
M  V30 17130 O 1580.23 -1.70234 0.809479 0
M  V30 17131 C 1577.35 -2.8717 1.79587 0
M  V30 17132 C 1576.4 -3.01742 3.0142 0
M  V30 17133 S 1577.23 -2.72067 4.61237 0
M  V30 17134 C 1578.39 -4.12677 4.70583 0
M  V30 17135 H 1578.62 -1.31435 2.66669 0
M  V30 17136 H 1576.16 -0.574038 1.43332 0
M  V30 17137 H 1578.11 -3.66939 1.84028 0
M  V30 17138 H 1576.77 -3.01792 0.87064 0
M  V30 17139 H 1575.97 -4.0309 3.02546 0
M  V30 17140 H 1575.57 -2.29876 2.95013 0
M  V30 17141 H 1577.86 -5.0672 4.49712 0
M  V30 17142 H 1578.8 -4.16563 5.72609 0
M  V30 17143 H 1579.21 -3.98976 3.99348 0
M  V30 17144 N 1578.61 -1.44039 -0.639573 0
M  V30 17145 C 1579.86 -1.47589 -1.39961 0
M  V30 17146 C 1580.21 -0.103692 -1.9212 0
M  V30 17147 O 1579.5 0.879803 -1.70206 0
M  V30 17148 C 1579.7 -2.46459 -2.5883 0
M  V30 17149 C 1579.53 -3.93157 -2.18306 0
M  V30 17150 C 1578.3 -4.61409 -2.05984 0
M  V30 17151 C 1580.5 -4.8261 -1.77741 0
M  V30 17152 N 1578.48 -5.9297 -1.58935 0
M  V30 17153 C 1579.85 -6.03549 -1.41875 0
M  V30 17154 C 1581.9 -4.69749 -1.65046 0
M  V30 17155 C 1580.61 -7.13054 -0.94584 0
M  V30 17156 C 1582.63 -5.79271 -1.1916 0
M  V30 17157 C 1581.99 -6.99345 -0.842389 0
M  V30 17158 H 1578.09 -0.595136 -0.507284 0
M  V30 17159 H 1580.68 -1.8031 -0.734598 0
M  V30 17160 H 1578.85 -2.15742 -3.22971 0
M  V30 17161 H 1580.58 -2.40359 -3.25592 0
M  V30 17162 H 1577.34 -4.16104 -2.26173 0
M  V30 17163 H 1577.76 -6.62841 -1.37733 0
M  V30 17164 H 1582.4 -3.77361 -1.90679 0
M  V30 17165 H 1580.12 -8.05259 -0.677011 0
M  V30 17166 H 1583.71 -5.71344 -1.09808 0
M  V30 17167 H 1582.59 -7.8265 -0.492752 0
M  V30 17168 N 1580.09 0.879207 -1.30796 0
M  V30 17169 C 1581.34 1.62625 -1.19315 0
M  V30 17170 C 1581.65 1.93999 0.249731 0
M  V30 17171 O 1582.86 2.67112 0.486129 0
M  V30 17172 C 1581.31 2.93129 -2.08815 0
M  V30 17173 C 1580.92 2.69272 -3.58045 0
M  V30 17174 C 1582.66 3.71105 -2.0611 0
M  V30 17175 C 1580.57 3.95628 -4.39582 0
M  V30 17176 H 1579.5 0.61015 -0.442981 0
M  V30 17177 H 1582.15 0.972892 -1.55586 0
M  V30 17178 H 1580.53 3.59789 -1.65432 0
M  V30 17179 H 1581.71 2.11078 -4.09613 0
M  V30 17180 H 1580.02 2.04664 -3.62632 0
M  V30 17181 H 1582.62 4.64824 -2.64277 0
M  V30 17182 H 1582.96 4.02946 -1.04597 0
M  V30 17183 H 1583.5 3.11315 -2.47644 0
M  V30 17184 H 1580.24 3.68943 -5.41813 0
M  V30 17185 H 1579.76 4.53307 -3.92775 0
M  V30 17186 H 1581.43 4.63597 -4.51317 0
M  V30 17187 N 1581.57 1.13606 1.09231 0
M  V30 17188 C 1582.98 0.87469 1.33497 0
M  V30 17189 C 1583.18 -0.488687 1.95484 0
M  V30 17190 O 1582.24 -1.23478 2.20249 0
M  V30 17191 C 1583.55 2.00086 2.24468 0
M  V30 17192 C 1585.1 2.03319 2.37972 0
M  V30 17193 C 1585.58 3.15205 3.3228 0
M  V30 17194 N 1587.07 3.14728 3.39854 0
M  V30 17195 C 1587.8 3.97941 4.12833 0
M  V30 17196 N 1587.3 4.91172 4.88591 0
M  V30 17197 N 1589.09 3.86032 4.08578 0
M  V30 17198 H 1581.24 2.01432 0.673709 0
M  V30 17199 H 1583.5 0.877259 0.359334 0
M  V30 17200 H 1583.21 2.98397 1.86151 0
M  V30 17201 H 1583.08 1.91673 3.24871 0
M  V30 17202 H 1585.47 1.0562 2.75551 0
M  V30 17203 H 1585.55 2.15804 1.3734 0
M  V30 17204 H 1585.2 4.13143 2.95423 0
M  V30 17205 H 1585.13 2.99957 4.3282 0
M  V30 17206 H 1587.62 2.47196 2.85837 0
M  V30 17207 H 1587.93 5.5115 5.41714 0
M  V30 17208 H 1586.28 4.95177 4.87673 0
M  V30 17209 H 1589.47 3.12522 3.48494 0
M  V30 17210 H 1589.64 4.51111 4.65191 0
M  V30 17211 N 1583.05 -1.27244 0.929878 0
M  V30 17212 C 1584.32 -1.89369 0.489774 0
M  V30 17213 C 1584.7 -1.84142 -1.03222 0
M  V30 17214 O 1584.05 -1.2881 -1.88733 0
M  V30 17215 C 1584.26 -3.33196 1.03833 0
M  V30 17216 C 1585.61 -4.101 1.10013 0
M  V30 17217 O 1586.63 -3.42221 0.988106 0
M  V30 17218 O 1585.49 -5.31468 1.27296 0
M  V30 17219 H 1582.59 -0.811789 0.157882 0
M  V30 17220 H 1585.13 -1.35496 1.02171 0
M  V30 17221 H 1583.9 -3.31304 2.08214 0
M  V30 17222 H 1583.53 -3.94592 0.488167 0
M  V30 17223 N 1584.52 -0.695628 -1.41417 0
M  V30 17224 C 1585.77 -0.226618 -2.01228 0
M  V30 17225 C 1586.1 1.17376 -1.5509 0
M  V30 17226 O 1585.35 1.80635 -0.752964 0
M  V30 17227 C 1585.65 -0.232664 -3.56642 0
M  V30 17228 C 1585.32 -1.58057 -4.2229 0
M  V30 17229 C 1583.98 -1.94959 -4.39937 0
M  V30 17230 C 1586.33 -2.46735 -4.59098 0
M  V30 17231 C 1583.66 -3.20123 -4.91669 0
M  V30 17232 C 1586.01 -3.71232 -5.1222 0
M  V30 17233 C 1584.68 -4.08277 -5.28078 0
M  V30 17234 H 1583.95 -0.0829255 -0.736345 0
M  V30 17235 H 1586.59 -0.894729 -1.69313 0
M  V30 17236 H 1584.9 0.518995 -3.88347 0
M  V30 17237 H 1586.6 0.147754 -4.00728 0
M  V30 17238 H 1583.19 -1.28356 -4.08929 0
M  V30 17239 H 1587.37 -2.19506 -4.45119 0
M  V30 17240 H 1582.63 -3.48819 -5.02131 0
M  V30 17241 H 1586.8 -4.40132 -5.39682 0
M  V30 17242 H 1584.43 -5.05335 -5.67927 0
M  V30 17243 N 1586 1.51322 -0.440383 0
M  V30 17244 C 1587.23 2.06231 0.12347 0
M  V30 17245 C 1587.64 1.30754 1.36748 0
M  V30 17246 O 1586.98 0.36135 1.80111 0
M  V30 17247 C 1587.04 3.55892 0.508059 0
M  V30 17248 C 1586.71 4.52643 -0.629572 0
M  V30 17249 C 1587.71 4.97712 -1.50261 0
M  V30 17250 C 1585.39 4.95707 -0.81117 0
M  V30 17251 C 1587.38 5.84522 -2.54191 0
M  V30 17252 C 1585.07 5.82305 -1.85374 0
M  V30 17253 C 1586.07 6.26611 -2.7175 0
M  V30 17254 O 1585.76 7.11489 -3.74217 0
M  V30 17255 H 1585.49 0.675926 0.0100034 0
M  V30 17256 H 1588.04 1.95846 -0.619156 0
M  V30 17257 H 1586.27 3.64071 1.30343 0
M  V30 17258 H 1587.96 3.93302 1.00342 0
M  V30 17259 H 1588.73 4.65135 -1.37386 0
M  V30 17260 H 1584.61 4.60761 -0.148423 0
M  V30 17261 H 1588.15 6.19025 -3.21643 0
M  V30 17262 H 1584.05 6.14296 -1.98268 0
M  V30 17263 H 1584.82 7.29674 -3.70834 0
M  V30 17264 N 1587.48 0.171848 1.5666 0
M  V30 17265 C 1588.73 -0.473061 1.96074 0
M  V30 17266 C 1589.04 -1.64353 1.06054 0
M  V30 17267 O 1590.25 -2.35471 1.35151 0
M  V30 17268 C 1588.7 -0.892995 3.48645 0
M  V30 17269 C 1588.31 0.251902 4.47291 0
M  V30 17270 C 1590.06 -1.50629 3.96877 0
M  V30 17271 C 1587.96 -0.187691 5.91102 0
M  V30 17272 H 1586.89 -0.180503 0.732075 0
M  V30 17273 H 1589.54 0.260164 1.81646 0
M  V30 17274 H 1587.93 -1.68221 3.58494 0
M  V30 17275 H 1589.1 1.02923 4.49159 0
M  V30 17276 H 1587.41 0.775193 4.09121 0
M  V30 17277 H 1590.01 -1.84724 5.01778 0
M  V30 17278 H 1590.35 -2.4044 3.39844 0
M  V30 17279 H 1590.89 -0.781502 3.90048 0
M  V30 17280 H 1587.63 0.675653 6.52009 0
M  V30 17281 H 1587.15 -0.93037 5.9254 0
M  V30 17282 H 1588.83 -0.631385 6.43912 0
M  V30 17283 N 1588.96 -1.5727 -0.101874 0
M  V30 17284 C 1590.2 -1.85742 -0.8066 0
M  V30 17285 C 1590.53 -0.759408 -1.79062 0
M  V30 17286 O 1589.79 0.247657 -1.94127 0
M  V30 17287 C 1590.09 -3.20773 -1.57605 0
M  V30 17288 C 1589.75 -4.44873 -0.734768 0
M  V30 17289 C 1588.41 -4.78566 -0.502829 0
M  V30 17290 C 1590.77 -5.20986 -0.14949 0
M  V30 17291 C 1588.09 -5.85803 0.324363 0
M  V30 17292 C 1590.45 -6.29095 0.664987 0
M  V30 17293 C 1589.11 -6.61308 0.907082 0
M  V30 17294 H 1588.38 -0.679679 -0.295156 0
M  V30 17295 H 1591.03 -1.91378 -0.0683238 0
M  V30 17296 H 1589.33 -3.10791 -2.38571 0
M  V30 17297 H 1591.03 -3.40029 -2.12559 0
M  V30 17298 H 1587.62 -4.18485 -0.92565 0
M  V30 17299 H 1591.8 -4.95294 -0.315859 0
M  V30 17300 H 1587.06 -6.09176 0.520978 0
M  V30 17301 H 1591.23 -6.87246 1.1254 0
M  V30 17302 H 1588.86 -7.44234 1.54986 0
M  V30 17303 N 1590.44 0.372521 -1.53134 0
M  V30 17304 C 1591.4 1.43875 -1.78417 0
M  V30 17305 C 1592.4 1.46879 -0.654455 0
M  V30 17306 O 1593.59 1.47761 -0.922619 0
M  V30 17307 C 1590.72 2.83046 -1.89994 0
M  V30 17308 H 1591.91 1.22733 -2.73636 0
M  V30 17309 H 1589.47 0.605247 -1.44106 0
M  V30 17310 H 1590.2 3.09511 -0.968179 0
M  V30 17311 H 1589.99 2.82265 -2.72156 0
M  V30 17312 H 1591.48 3.60273 -2.11171 0
M  V30 17313 N 1591.91 1.44376 0.631925 0
M  V30 17314 C 1592.86 1.51181 1.74393 0
M  V30 17315 C 1593.83 0.359599 1.62161 0
M  V30 17316 O 1595.02 0.569725 1.82096 0
M  V30 17317 C 1592.16 1.46124 3.12637 0
M  V30 17318 C 1591.27 2.71714 3.35851 0
M  V30 17319 C 1590.4 2.58496 4.64062 0
M  V30 17320 C 1589.44 3.79252 4.80452 0
M  V30 17321 N 1588.58 3.64715 5.99939 0
M  V30 17322 H 1593.42 2.4619 1.67912 0
M  V30 17323 H 1590.96 1.22184 0.819108 0
M  V30 17324 H 1592.91 1.41183 3.92585 0
M  V30 17325 H 1591.54 0.546831 3.18135 0
M  V30 17326 H 1590.6 2.86845 2.49848 0
M  V30 17327 H 1591.91 3.61351 3.43841 0
M  V30 17328 H 1591.06 2.51383 5.5217 0
M  V30 17329 H 1589.8 1.66417 4.58428 0
M  V30 17330 H 1588.81 3.8675 3.90774 0
M  V30 17331 H 1590.03 4.72367 4.879 0
M  V30 17332 H 1587.98 2.75388 5.95397 0
M  V30 17333 H 1587.89 4.47969 6.08982 0
M  V30 17334 H 1589.16 3.61493 6.90611 0
M  V30 17335 N 1593.39 -0.872258 1.31261 0
M  V30 17336 C 1594.3 -2.01185 1.20673 0
M  V30 17337 C 1595.32 -1.73558 0.123921 0
M  V30 17338 O 1596.49 -1.98487 0.341288 0
M  V30 17339 C 1593.56 -3.34481 0.91232 0
M  V30 17340 C 1592.62 -3.75446 2.08179 0
M  V30 17341 C 1591.85 -5.02382 1.80134 0
M  V30 17342 O 1592.08 -5.6564 0.735358 0
M  V30 17343 O 1591.01 -5.40059 2.65744 0
M  V30 17344 H 1594.84 -2.13049 2.16434 0
M  V30 17345 H 1592.42 -1.00021 1.10978 0
M  V30 17346 H 1594.3 -4.14419 0.763879 0
M  V30 17347 H 1592.98 -3.23696 -0.0152802 0
M  V30 17348 H 1591.88 -2.96159 2.28562 0
M  V30 17349 H 1593.22 -3.90853 2.99156 0
M  V30 17350 N 1594.87 -1.14184 -1.08627 0
M  V30 17351 C 1595.8 -0.849455 -2.17501 0
M  V30 17352 C 1596.78 0.194617 -1.68983 0
M  V30 17353 O 1597.97 0.0517757 -1.94131 0
M  V30 17354 C 1595.1 -0.323685 -3.45788 0
M  V30 17355 C 1594.05 -1.30294 -4.07685 0
M  V30 17356 C 1593.38 -0.636575 -5.30897 0
M  V30 17357 C 1594.68 -2.66441 -4.49229 0
M  V30 17358 H 1596.37 -1.75987 -2.42217 0
M  V30 17359 H 1593.92 -0.847595 -1.16412 0
M  V30 17360 H 1595.87 -0.106754 -4.21265 0
M  V30 17361 H 1594.59 0.62215 -3.20619 0
M  V30 17362 H 1593.25 -1.50601 -3.34238 0
M  V30 17363 H 1592.9 0.314995 -5.02013 0
M  V30 17364 H 1592.6 -1.28998 -5.73266 0
M  V30 17365 H 1594.12 -0.429117 -6.0909 0
M  V30 17366 H 1595.54 -2.50055 -5.15893 0
M  V30 17367 H 1593.93 -3.28033 -5.02508 0
M  V30 17368 H 1595 -3.23486 -3.61226 0
M  V30 17369 N 1596.35 1.26749 -0.936613 0
M  V30 17370 C 1597.63 1.89106 -0.49981 0
M  V30 17371 C 1598.01 1.84687 1.02244 0
M  V30 17372 O 1597.35 1.2981 1.88047 0
M  V30 17373 C 1597.56 3.32641 -1.05598 0
M  V30 17374 C 1598.91 4.09511 -1.12187 0
M  V30 17375 O 1599.94 3.41692 -1.00624 0
M  V30 17376 O 1598.79 5.30785 -1.30113 0
M  V30 17377 H 1595.89 0.810941 -0.162185 0
M  V30 17378 H 1598.43 1.34952 -1.02888 0
M  V30 17379 H 1597.21 3.30196 -2.09968 0
M  V30 17380 H 1596.83 3.94327 -0.509086 0
M  V30 17381 N 1597.83 0.703118 1.41046 0
M  V30 17382 C 1599.07 0.236818 2.00708 0
M  V30 17383 C 1599.4 -1.17008 1.55994 0
M  V30 17384 O 1598.67 -1.79094 0.793871 0
M  V30 17385 H 1597.25 0.0845643 0.742198 0
M  V30 17386 H 1599.91 0.905964 1.72564 0
M  V30 17387 H 1599 0.260141 3.11014 0
M  V30 17388 N 1599.3 -1.51086 0.448402 0
M  V30 17389 C 1600.25 -2.28015 -0.357438 0
M  V30 17390 C 1601.22 -1.32079 -1.00719 0
M  V30 17391 O 1602.41 -1.60995 -1.02398 0
M  V30 17392 C 1599.55 -3.13324 -1.44644 0
M  V30 17393 C 1598.66 -4.24267 -0.813729 0
M  V30 17394 C 1597.79 -4.96868 -1.87871 0
M  V30 17395 C 1596.83 -5.99716 -1.22502 0
M  V30 17396 N 1595.97 -6.65682 -2.23185 0
M  V30 17397 H 1600.81 -2.96436 0.30493 0
M  V30 17398 H 1598.35 -1.46203 0.162222 0
M  V30 17399 H 1600.31 -3.61119 -2.08924 0
M  V30 17400 H 1598.94 -2.46996 -2.07829 0
M  V30 17401 H 1597.99 -3.80354 -0.0589414 0
M  V30 17402 H 1599.3 -4.97917 -0.296587 0
M  V30 17403 H 1598.45 -5.48266 -2.59786 0
M  V30 17404 H 1597.19 -4.22873 -2.42961 0
M  V30 17405 H 1596.2 -5.476 -0.491388 0
M  V30 17406 H 1597.42 -6.75674 -0.681315 0
M  V30 17407 H 1595.37 -5.94493 -2.77334 0
M  V30 17408 H 1595.29 -7.35134 -1.76393 0
M  V30 17409 H 1596.55 -7.21707 -2.9455 0
M  V30 17410 N 1600.78 -0.180154 -1.56567 0
M  V30 17411 C 1602.06 0.509347 -1.88852 0
M  V30 17412 C 1602.44 1.80697 -1.09141 0
M  V30 17413 O 1601.79 2.27726 -0.187974 0
M  V30 17414 C 1602 0.742669 -3.41006 0
M  V30 17415 C 1603.35 1.06873 -4.1093 0
M  V30 17416 O 1604.37 0.830907 -3.46373 0
M  V30 17417 O 1603.23 1.51784 -5.24999 0
M  V30 17418 H 1600.32 0.263629 -0.783855 0
M  V30 17419 H 1602.87 -0.219251 -1.68278 0
M  V30 17420 H 1601.64 -0.17431 -3.90912 0
M  V30 17421 H 1601.26 1.52427 -3.67222 0
M  V30 17422 N 1602.26 1.57322 0.0935319 0
M  V30 17423 C 1603.51 1.85353 0.795445 0
M  V30 17424 C 1603.82 0.769647 1.79822 0
M  V30 17425 O 1605.03 0.937121 2.54814 0
M  V30 17426 C 1603.48 3.28711 1.4655 0
M  V30 17427 C 1603.09 4.45174 0.502415 0
M  V30 17428 C 1604.84 3.65965 2.15105 0
M  V30 17429 C 1602.74 5.79566 1.17715 0
M  V30 17430 H 1601.67 0.691394 0.300816 0
M  V30 17431 H 1604.32 1.83436 0.0484063 0
M  V30 17432 H 1602.71 3.25173 2.26005 0
M  V30 17433 H 1603.88 4.60062 -0.260754 0
M  V30 17434 H 1602.2 4.16328 -0.0775186 0
M  V30 17435 H 1604.79 4.63655 2.66323 0
M  V30 17436 H 1605.14 2.94667 2.94069 0
M  V30 17437 H 1605.67 3.71398 1.42508 0
M  V30 17438 H 1602.41 6.54099 0.428277 0
M  V30 17439 H 1601.93 5.68519 1.9117 0
M  V30 17440 H 1603.61 6.2418 1.70318 0
M  V30 17441 N 1603.74 -0.364395 1.53329 0
M  V30 17442 C 1604.69 -1.46678 1.80523 0
M  V30 17443 C 1605.68 -1.55396 0.674421 0
M  V30 17444 O 1606.89 -1.58268 0.857385 0
M  V30 17445 H 1603.26 -0.488652 0.571597 0
M  V30 17446 H 1605.23 -1.20947 2.7279 0
M  V30 17447 C 1603.98 -2.83496 2.01309 0
M  V30 17448 H 1603.3 -2.77546 2.87764 0
M  V30 17449 H 1604.74 -3.59805 2.24313 0
M  V30 17450 C 1603.2 -3.27445 0.792539 0
M  V30 17451 O 1603.73 -4.01696 -0.0181965 0
M  V30 17452 N 1601.94 -2.84004 0.615643 0
M  V30 17453 H 1601.49 -2.23746 1.27654 0
M  V30 17454 H 1601.44 -3.13766 -0.199604 0
M  V30 17455 N 1605.22 -1.44709 -0.62426 0
M  V30 17456 C 1606.47 -1.47131 -1.37968 0
M  V30 17457 C 1606.78 -0.110507 -1.95288 0
M  V30 17458 O 1607.98 -0.0122892 -2.71497 0
M  V30 17459 C 1606.44 -2.59059 -2.49833 0
M  V30 17460 C 1606.05 -4.01378 -1.98997 0
M  V30 17461 C 1607.79 -2.70709 -3.26981 0
M  V30 17462 C 1605.7 -5.04717 -3.08244 0
M  V30 17463 H 1604.63 -0.547424 -0.5185 0
M  V30 17464 H 1607.28 -1.70797 -0.670863 0
M  V30 17465 H 1605.66 -2.28646 -3.23322 0
M  V30 17466 H 1606.84 -4.41391 -1.32327 0
M  V30 17467 H 1605.15 -3.9403 -1.34644 0
M  V30 17468 H 1607.75 -3.45087 -4.08435 0
M  V30 17469 H 1608.09 -1.76763 -3.76909 0
M  V30 17470 H 1608.62 -3.00566 -2.60585 0
M  V30 17471 H 1605.36 -6.00315 -2.63253 0
M  V30 17472 H 1604.88 -4.6929 -3.73534 0
M  V30 17473 H 1606.56 -5.28725 -3.72906 0
M  V30 17474 N 1606.69 0.865285 -1.31722 0
M  V30 17475 C 1607.62 1.98871 -1.22362 0
M  V30 17476 C 1608.61 1.69745 -0.109779 0
M  V30 17477 O 1609.79 1.91944 -0.295167 0
M  V30 17478 C 1606.92 3.34477 -0.935 0
M  V30 17479 C 1605.87 3.77924 -2.00892 0
M  V30 17480 C 1605.2 5.11042 -1.57291 0
M  V30 17481 C 1606.5 3.94528 -3.42264 0
M  V30 17482 H 1608.19 2.06959 -2.16352 0
M  V30 17483 H 1605.74 0.994355 -1.04157 0
M  V30 17484 H 1607.69 4.12612 -0.856111 0
M  V30 17485 H 1606.42 3.26575 0.0405536 0
M  V30 17486 H 1605.08 3.02032 -2.07779 0
M  V30 17487 H 1604.72 4.99586 -0.585084 0
M  V30 17488 H 1604.42 5.41082 -2.29138 0
M  V30 17489 H 1605.95 5.91681 -1.50818 0
M  V30 17490 H 1607.36 4.63045 -3.38027 0
M  V30 17491 H 1605.76 4.35972 -4.12369 0
M  V30 17492 H 1606.83 2.97765 -3.82706 0
M  V30 17493 N 1608.17 1.14759 1.0802 0
M  V30 17494 C 1609.42 0.918248 1.80484 0
M  V30 17495 C 1609.75 -0.554986 1.86414 0
M  V30 17496 O 1609 -1.42732 1.33888 0
M  V30 17497 C 1609.3 1.4692 3.25805 0
M  V30 17498 C 1608.97 2.96176 3.39987 0
M  V30 17499 C 1607.63 3.36923 3.43564 0
M  V30 17500 C 1609.98 3.92131 3.43341 0
M  V30 17501 C 1607.31 4.72281 3.48092 0
M  V30 17502 C 1609.66 5.27351 3.49404 0
M  V30 17503 C 1608.33 5.67605 3.51256 0
M  V30 17504 H 1607.6 0.336011 0.660437 0
M  V30 17505 H 1610.24 1.43191 1.27156 0
M  V30 17506 H 1608.55 0.876571 3.81868 0
M  V30 17507 H 1610.24 1.26765 3.80436 0
M  V30 17508 H 1606.83 2.63675 3.37896 0
M  V30 17509 H 1611.02 3.61728 3.39804 0
M  V30 17510 H 1606.27 5.02823 3.4782 0
M  V30 17511 H 1610.45 6.01507 3.50946 0
M  V30 17512 H 1608.08 6.72474 3.54517 0
M  V30 17513 N 1609.65 -1.26251 0.943322 0
M  V30 17514 C 1610.6 -2.28295 0.445441 0
M  V30 17515 C 1611.59 -1.62504 -0.478401 0
M  V30 17516 O 1612.8 -1.76437 -0.356378 0
M  V30 17517 H 1609.17 -0.741451 0.125517 0
M  V30 17518 H 1611.14 -2.67687 1.31858 0
M  V30 17519 C 1609.89 -3.46635 -0.271987 0
M  V30 17520 H 1609.22 -3.97484 0.429734 0
M  V30 17521 H 1610.66 -4.19951 -0.584544 0
M  V30 17522 C 1609.12 -3.02133 -1.49054 0
M  V30 17523 O 1609.65 -3.07158 -2.58876 0
M  V30 17524 N 1607.85 -2.57451 -1.34787 0
M  V30 17525 H 1607.4 -2.53562 -0.454347 0
M  V30 17526 H 1607.36 -2.28039 -2.16438 0
M  V30 17527 N 1611.13 -0.710588 -1.40671 0
M  V30 17528 C 1612.35 -0.256007 -2.05814 0
M  V30 17529 C 1612.78 1.09178 -1.53173 0
M  V30 17530 O 1612.14 1.68665 -0.664977 0
M  V30 17531 C 1612.19 -0.240528 -3.59797 0
M  V30 17532 O 1611.29 0.779859 -4.04959 0
M  V30 17533 H 1610.63 -0.121326 -0.652822 0
M  V30 17534 H 1613.16 -0.969667 -1.80163 0
M  V30 17535 H 1613.17 -0.0765027 -4.07928 0
M  V30 17536 H 1611.85 -1.22411 -3.97478 0
M  V30 17537 H 1610.42 0.583965 -3.68299 0
M  V30 17538 N 1612.61 1.50847 -0.456408 0
M  V30 17539 C 1613.54 2.31077 0.335523 0
M  V30 17540 C 1614.52 1.37326 1.00377 0
M  V30 17541 O 1615.7 1.66247 1.00376 0
M  V30 17542 C 1612.83 3.16662 1.42627 0
M  V30 17543 C 1611.79 4.18846 0.88045 0
M  V30 17544 C 1611.11 4.93074 2.06838 0
M  V30 17545 C 1612.41 5.22208 -0.0982288 0
M  V30 17546 H 1614.11 2.97531 -0.334056 0
M  V30 17547 H 1611.65 1.43085 -0.162099 0
M  V30 17548 H 1613.61 3.71578 1.98765 0
M  V30 17549 H 1612.33 2.48066 2.12441 0
M  V30 17550 H 1610.99 3.65009 0.341147 0
M  V30 17551 H 1610.64 4.20963 2.75316 0
M  V30 17552 H 1610.34 5.62184 1.70947 0
M  V30 17553 H 1611.86 5.5082 2.63494 0
M  V30 17554 H 1613.28 5.72082 0.373481 0
M  V30 17555 H 1611.67 5.98954 -0.370674 0
M  V30 17556 H 1612.74 4.73859 -1.02887 0
M  V30 17557 N 1614.09 0.188454 1.56469 0
M  V30 17558 C 1615.02 -0.766806 2.15992 0
M  V30 17559 C 1616.03 -1.18153 1.11998 0
M  V30 17560 O 1617.22 -1.11842 1.39118 0
M  V30 17561 C 1614.32 -2.04594 2.70175 0
M  V30 17562 C 1613.49 -1.79207 3.99003 0
M  V30 17563 C 1612.55 -2.91504 4.38078 0
M  V30 17564 O 1611.58 -2.61397 5.05628 0
M  V30 17565 N 1612.78 -4.19702 4.01037 0
M  V30 17566 H 1615.54 -0.257829 2.98589 0
M  V30 17567 H 1613.11 0.00625645 1.61899 0
M  V30 17568 H 1615.1 -2.78846 2.93303 0
M  V30 17569 H 1613.67 -2.46633 1.9207 0
M  V30 17570 H 1612.89 -0.88769 3.84075 0
M  V30 17571 H 1614.18 -1.59634 4.83109 0
M  V30 17572 H 1613.57 -4.47016 3.46689 0
M  V30 17573 H 1612.13 -4.90602 4.2913 0
M  V30 17574 N 1615.56 -1.5737 -0.0851874 0
M  V30 17575 C 1616.79 -1.90525 -0.798977 0
M  V30 17576 C 1617.2 -0.781347 -1.72313 0
M  V30 17577 O 1616.54 0.255036 -1.81921 0
M  V30 17578 C 1616.61 -3.19027 -1.65716 0
M  V30 17579 C 1616.27 -4.47974 -0.903795 0
M  V30 17580 C 1617.27 -5.19395 -0.229094 0
M  V30 17581 C 1614.95 -4.94621 -0.874937 0
M  V30 17582 C 1616.95 -6.35706 0.464385 0
M  V30 17583 C 1614.63 -6.10842 -0.177678 0
M  V30 17584 C 1615.63 -6.81234 0.490795 0
M  V30 17585 O 1615.32 -7.95239 1.17685 0
M  V30 17586 H 1615.05 -0.634533 -0.233119 0
M  V30 17587 H 1617.61 -2.05301 -0.0638265 0
M  V30 17588 H 1615.84 -3.00425 -2.43479 0
M  V30 17589 H 1617.52 -3.37937 -2.24841 0
M  V30 17590 H 1618.29 -4.84392 -0.242783 0
M  V30 17591 H 1614.17 -4.39712 -1.3847 0
M  V30 17592 H 1617.71 -6.90586 0.986719 0
M  V30 17593 H 1613.61 -6.45297 -0.16187 0
M  V30 17594 H 1614.38 -8.1128 1.08476 0
M  V30 17595 N 1617.04 0.356258 -1.53521 0
M  V30 17596 C 1618.27 1.11828 -1.74075 0
M  V30 17597 C 1618.68 1.82753 -0.473998 0
M  V30 17598 O 1618.04 1.73899 0.553649 0
M  V30 17599 C 1618.09 2.14149 -2.91243 0
M  V30 17600 O 1617.81 1.4611 -4.13017 0
M  V30 17601 C 1619.31 3.02826 -3.23746 0
M  V30 17602 H 1616.53 0.334002 -0.581965 0
M  V30 17603 H 1619.08 0.412336 -2.003 0
M  V30 17604 H 1617.23 2.80328 -2.67386 0
M  V30 17605 H 1617.65 2.1436 -4.78696 0
M  V30 17606 H 1619.12 3.70583 -4.09112 0
M  V30 17607 H 1619.6 3.68149 -2.39505 0
M  V30 17608 H 1620.2 2.42252 -3.49563 0
M  V30 17609 N 1618.52 1.45038 0.616577 0
M  V30 17610 C 1619.47 1.53343 1.74896 0
M  V30 17611 C 1620.46 0.404033 1.64511 0
M  V30 17612 O 1621.67 0.57958 1.70414 0
M  V30 17613 H 1618.04 0.481471 0.577658 0
M  V30 17614 H 1620.01 2.4862 1.65017 0
M  V30 17615 C 1618.76 1.50871 3.13262 0
M  V30 17616 H 1618.09 2.37098 3.21908 0
M  V30 17617 H 1619.53 1.60741 3.9235 0
M  V30 17618 C 1617.98 0.231704 3.36102 0
M  V30 17619 O 1618.51 -0.692154 3.95692 0
M  V30 17620 N 1616.72 0.130232 2.90308 0
M  V30 17621 H 1616.27 0.882893 2.41997 0
M  V30 17622 H 1616.23 -0.723403 3.05964 0
M  V30 17623 N 1620 -0.858287 1.32179 0
M  V30 17624 C 1621.24 -1.6146 1.22713 0
M  V30 17625 C 1621.58 -1.93045 -0.211479 0
M  V30 17626 O 1620.85 -1.57034 -1.14764 0
M  V30 17627 C 1621.13 -2.93728 2.08317 0
M  V30 17628 C 1620.99 -2.68947 3.60538 0
M  V30 17629 C 1622.31 -3.94959 1.94153 0
M  V30 17630 H 1619.43 -0.585872 0.447128 0
M  V30 17631 H 1622.07 -0.99134 1.62088 0
M  V30 17632 H 1620.22 -3.4692 1.74867 0
M  V30 17633 H 1621.89 -2.22336 4.04183 0
M  V30 17634 H 1620.13 -2.02974 3.83385 0
M  V30 17635 H 1620.8 -3.63112 4.15756 0
M  V30 17636 H 1623.28 -3.51013 2.23449 0
M  V30 17637 H 1622.16 -4.85371 2.56332 0
M  V30 17638 H 1622.42 -4.32672 0.908132 0
M  V30 17639 N 1621.48 -1.1533 -1.07409 0
M  V30 17640 C 1622.72 -0.929181 -1.80261 0
M  V30 17641 C 1623.05 0.542387 -1.86472 0
M  V30 17642 O 1622.33 1.40209 -1.34802 0
M  V30 17643 C 1622.61 -1.54339 -3.25348 0
M  V30 17644 C 1622.47 -3.08551 -3.27286 0
M  V30 17645 C 1623.78 -1.22868 -4.22601 0
M  V30 17646 H 1620.9 -0.338985 -0.654414 0
M  V30 17647 H 1623.55 -1.42485 -1.2569 0
M  V30 17648 H 1621.7 -1.12187 -3.71949 0
M  V30 17649 H 1623.37 -3.59605 -2.88932 0
M  V30 17650 H 1621.61 -3.42471 -2.66263 0
M  V30 17651 H 1622.28 -3.4664 -4.29587 0
M  V30 17652 H 1624.76 -1.59328 -3.84388 0
M  V30 17653 H 1623.63 -1.68462 -5.2241 0
M  V30 17654 H 1623.89 -0.145612 -4.4186 0
M  V30 17655 N 1622.95 1.25748 -0.950004 0
M  V30 17656 C 1623.9 2.26061 -0.46531 0
M  V30 17657 C 1624.87 1.59021 0.479742 0
M  V30 17658 O 1626.06 1.86687 0.394011 0
M  V30 17659 C 1623.2 3.44156 0.255146 0
M  V30 17660 C 1622.31 4.25846 -0.726604 0
M  V30 17661 C 1621.44 5.31198 0.0159429 0
M  V30 17662 C 1620.48 6.04572 -0.957046 0
M  V30 17663 N 1619.62 7.0167 -0.245676 0
M  V30 17664 H 1624.46 2.66891 -1.32563 0
M  V30 17665 H 1622 1.31216 -0.664882 0
M  V30 17666 H 1623.95 4.11465 0.689381 0
M  V30 17667 H 1622.58 3.04213 1.07954 0
M  V30 17668 H 1621.64 3.58242 -1.27933 0
M  V30 17669 H 1622.95 4.76669 -1.46928 0
M  V30 17670 H 1622.1 6.04561 0.509037 0
M  V30 17671 H 1620.84 4.81235 0.791442 0
M  V30 17672 H 1619.85 5.30028 -1.46118 0
M  V30 17673 H 1621.07 6.56624 -1.7327 0
M  V30 17674 H 1619.02 6.54005 0.51117 0
M  V30 17675 H 1618.93 7.50289 -0.927527 0
M  V30 17676 H 1620.2 7.79172 0.226034 0
M  V30 17677 N 1624.43 0.718038 1.40292 0
M  V30 17678 C 1625.71 0.185648 1.94717 0
M  V30 17679 C 1626.09 -1.30916 1.65603 0
M  V30 17680 O 1625.44 -2.06653 0.975031 0
M  V30 17681 C 1625.65 0.501015 3.45385 0
M  V30 17682 C 1626.99 0.441021 4.22303 0
M  V30 17683 O 1628.02 0.437217 3.53507 0
M  V30 17684 O 1626.88 0.420689 5.44878 0
M  V30 17685 H 1623.97 0.0281581 0.82652 0
M  V30 17686 H 1626.52 0.795738 1.49887 0
M  V30 17687 H 1625.29 1.5348 3.59944 0
M  V30 17688 H 1624.91 -0.138913 3.97357 0
M  V30 17689 N 1625.91 -1.50602 0.464402 0
M  V30 17690 C 1627.14 -2.06401 -0.0906449 0
M  V30 17691 C 1627.55 -1.32913 -1.3465 0
M  V30 17692 O 1626.89 -0.389959 -1.79513 0
M  V30 17693 C 1626.95 -3.56655 -0.451375 0
M  V30 17694 C 1626.62 -4.51584 0.701504 0
M  V30 17695 C 1627.61 -4.95259 1.5816 0
M  V30 17696 C 1625.3 -4.94354 0.88993 0
M  V30 17697 C 1627.29 -5.80404 2.63458 0
M  V30 17698 C 1624.98 -5.79283 1.94615 0
M  V30 17699 C 1625.98 -6.22208 2.81684 0
M  V30 17700 O 1625.67 -7.05446 3.85489 0
M  V30 17701 H 1625.4 -0.676 0.000751268 0
M  V30 17702 H 1627.95 -1.94836 0.650235 0
M  V30 17703 H 1626.18 -3.66098 -1.24535 0
M  V30 17704 H 1627.87 -3.94848 -0.940722 0
M  V30 17705 H 1628.64 -4.6289 1.44768 0
M  V30 17706 H 1624.52 -4.60467 0.221708 0
M  V30 17707 H 1628.06 -6.13829 3.3145 0
M  V30 17708 H 1623.96 -6.11064 2.08016 0
M  V30 17709 H 1624.73 -7.23682 3.82396 0
M  V30 17710 N 1627.39 -0.19675 -1.56367 0
M  V30 17711 C 1628.63 0.435602 -1.98681 0
M  V30 17712 C 1628.99 1.59124 -1.08155 0
M  V30 17713 O 1628.28 1.91183 -0.126295 0
M  V30 17714 C 1628.48 0.942382 -3.44752 0
M  V30 17715 C 1628.31 -0.162611 -4.49406 0
M  V30 17716 C 1627.08 -0.620794 -5.01472 0
M  V30 17717 C 1629.27 -0.972148 -5.05028 0
M  V30 17718 N 1627.26 -1.70344 -5.89793 0
M  V30 17719 C 1628.63 -1.90416 -5.90035 0
M  V30 17720 C 1630.68 -1.01438 -4.87457 0
M  V30 17721 C 1629.38 -2.8749 -6.5935 0
M  V30 17722 C 1631.41 -1.97318 -5.57512 0
M  V30 17723 C 1630.77 -2.89262 -6.42267 0
M  V30 17724 H 1626.87 0.126773 -0.771656 0
M  V30 17725 H 1629.46 -0.302824 -1.92331 0
M  V30 17726 H 1627.63 1.65024 -3.51598 0
M  V30 17727 H 1629.36 1.54548 -3.74028 0
M  V30 17728 H 1626.11 -0.213841 -4.73117 0
M  V30 17729 H 1626.54 -2.24601 -6.38658 0
M  V30 17730 H 1631.18 -0.31751 -4.21606 0
M  V30 17731 H 1628.9 -3.58152 -7.24398 0
M  V30 17732 H 1632.48 -2.01228 -5.45892 0
M  V30 17733 H 1631.36 -3.62244 -6.95521 0
M  V30 17734 N 1628.87 1.57413 0.0768405 0
M  V30 17735 C 1630.11 1.86633 0.775414 0
M  V30 17736 C 1630.44 0.788041 1.78367 0
M  V30 17737 O 1629.71 -0.183835 1.95036 0
M  V30 17738 H 1628.29 0.688678 0.289365 0
M  V30 17739 H 1630.95 1.94825 0.0541285 0
M  V30 17740 H 1630.04 2.83977 1.29474 0
M  V30 17741 N 1630.34 -0.348112 1.53707 0
M  V30 17742 C 1631.29 -1.44755 1.82068 0
M  V30 17743 C 1632.29 -1.54672 0.690865 0
M  V30 17744 O 1633.49 -1.5735 0.874123 0
M  V30 17745 H 1629.87 -0.482562 0.576747 0
M  V30 17746 H 1631.84 -1.18047 2.74058 0
M  V30 17747 C 1630.59 -2.81345 2.04305 0
M  V30 17748 H 1629.91 -2.74479 2.90691 0
M  V30 17749 H 1631.35 -3.57405 2.28117 0
M  V30 17750 C 1629.81 -3.26586 0.827224 0
M  V30 17751 O 1630.34 -4.01693 0.0244098 0
M  V30 17752 N 1628.55 -2.83335 0.645731 0
M  V30 17753 H 1628.09 -2.22379 1.3002 0
M  V30 17754 H 1628.05 -3.1396 -0.166313 0
M  V30 17755 N 1631.82 -1.45363 -0.608876 0
M  V30 17756 C 1633.1 -1.39787 -1.36817 0
M  V30 17757 C 1633.48 -0.067821 -2.10991 0
M  V30 17758 O 1632.83 0.950196 -2.07806 0
M  V30 17759 C 1633.04 -2.61073 -2.31608 0
M  V30 17760 C 1634.39 -3.06104 -2.94254 0
M  V30 17761 O 1635.41 -2.61436 -2.41929 0
M  V30 17762 O 1634.27 -3.83616 -3.89231 0
M  V30 17763 H 1631.36 -0.554657 -0.61342 0
M  V30 17764 H 1633.91 -1.57489 -0.632073 0
M  V30 17765 H 1632.68 -3.4946 -1.76049 0
M  V30 17766 H 1632.3 -2.45697 -3.126 0
M  V30 17767 N 1633.3 0.851265 -1.32632 0
M  V30 17768 C 1634.23 1.97562 -1.24465 0
M  V30 17769 C 1635.21 1.69619 -0.127777 0
M  V30 17770 O 1636.4 1.9162 -0.315509 0
M  V30 17771 C 1633.53 3.33467 -0.970423 0
M  V30 17772 C 1632.48 3.75772 -2.0489 0
M  V30 17773 C 1631.81 5.09345 -1.62702 0
M  V30 17774 C 1633.11 3.90876 -3.4643 0
M  V30 17775 H 1634.8 2.04653 -2.18535 0
M  V30 17776 H 1632.35 0.983252 -1.05205 0
M  V30 17777 H 1634.3 4.11681 -0.899825 0
M  V30 17778 H 1633.02 3.26599 0.00591373 0
M  V30 17779 H 1631.68 2.99812 -2.1097 0
M  V30 17780 H 1631.33 4.98937 -0.638039 0
M  V30 17781 H 1631.03 5.38621 -2.34864 0
M  V30 17782 H 1632.55 5.90048 -1.57085 0
M  V30 17783 H 1633.97 4.59434 -3.42919 0
M  V30 17784 H 1632.37 4.31574 -4.1697 0
M  V30 17785 H 1633.44 2.93689 -3.85843 0
M  V30 17786 N 1634.78 1.15898 1.06796 0
M  V30 17787 C 1636.19 0.902809 1.31611 0
M  V30 17788 C 1636.39 -0.447112 1.96477 0
M  V30 17789 O 1635.45 -1.18778 2.22818 0
M  V30 17790 C 1636.76 2.04803 2.20173 0
M  V30 17791 C 1638.31 2.08321 2.33605 0
M  V30 17792 C 1638.79 3.22182 3.25519 0
M  V30 17793 N 1640.28 3.21866 3.33101 0
M  V30 17794 C 1641.01 4.06608 4.04299 0
M  V30 17795 N 1640.51 5.01426 4.78063 0
M  V30 17796 N 1642.3 3.94612 4.00297 0
M  V30 17797 H 1634.45 2.02816 0.630831 0
M  V30 17798 H 1636.72 0.884683 0.340646 0
M  V30 17799 H 1636.42 3.02278 1.7978 0
M  V30 17800 H 1636.3 1.98521 3.20732 0
M  V30 17801 H 1638.68 1.11441 2.73249 0
M  V30 17802 H 1638.76 2.18668 1.32732 0
M  V30 17803 H 1638.41 4.19317 2.86594 0
M  V30 17804 H 1638.34 3.0907 4.2636 0
M  V30 17805 H 1640.83 2.53203 2.80529 0
M  V30 17806 H 1641.14 5.62517 5.29901 0
M  V30 17807 H 1639.49 5.0541 4.7706 0
M  V30 17808 H 1642.68 3.19843 3.41786 0
M  V30 17809 H 1642.85 4.60877 4.55518 0
M  V30 17810 N 1636.26 -1.25243 0.956659 0
M  V30 17811 C 1637.49 -1.96796 0.628878 0
M  V30 17812 C 1637.89 -1.71284 -0.803648 0
M  V30 17813 O 1637.24 -0.986812 -1.54944 0
M  V30 17814 C 1637.3 -3.50253 0.810132 0
M  V30 17815 C 1636.96 -3.99445 2.2202 0
M  V30 17816 C 1637.96 -4.09982 3.19704 0
M  V30 17817 C 1635.65 -4.33057 2.54493 0
M  V30 17818 C 1637.64 -4.53449 4.47954 0
M  V30 17819 C 1635.33 -4.7621 3.82972 0
M  V30 17820 C 1636.32 -4.86369 4.79515 0
M  V30 17821 O 1636.01 -5.28563 6.05703 0
M  V30 17822 H 1635.74 -0.634013 0.234529 0
M  V30 17823 H 1638.3 -1.60318 1.28402 0
M  V30 17824 H 1636.53 -3.86576 0.0978322 0
M  V30 17825 H 1638.22 -4.03015 0.483099 0
M  V30 17826 H 1638.98 -3.84243 2.95943 0
M  V30 17827 H 1634.86 -4.24375 1.80075 0
M  V30 17828 H 1638.41 -4.61294 5.23311 0
M  V30 17829 H 1634.3 -5.01394 4.06539 0
M  V30 17830 H 1635.07 -5.46744 6.09109 0
M  V30 17831 N 1637.73 -0.725468 -1.3991 0
M  V30 17832 C 1638.68 -0.0682776 -2.325 0
M  V30 17833 C 1639.68 0.736285 -1.52562 0
M  V30 17834 O 1640.88 0.638542 -1.68293 0
M  V30 17835 H 1637.26 -0.00327742 -0.751993 0
M  V30 17836 H 1639.23 -0.865735 -2.85565 0
M  V30 17837 C 1637.98 0.832036 -3.37598 0
M  V30 17838 H 1637.3 0.222341 -3.99181 0
M  V30 17839 H 1638.74 1.25965 -4.04856 0
M  V30 17840 C 1637.2 1.96201 -2.73874 0
M  V30 17841 O 1637.73 3.05378 -2.60974 0
M  V30 17842 N 1635.94 1.74857 -2.32106 0
M  V30 17843 H 1635.48 0.860621 -2.42798 0
M  V30 17844 H 1635.44 2.50639 -1.89808 0
M  V30 17845 N 1639.21 1.50354 -0.472382 0
M  V30 17846 C 1640.16 2.28555 0.321118 0
M  V30 17847 C 1641.13 1.33665 0.98605 0
M  V30 17848 O 1642.31 1.62603 0.998239 0
M  V30 17849 C 1639.45 3.15586 1.39641 0
M  V30 17850 C 1638.57 4.25508 0.746129 0
M  V30 17851 C 1637.7 4.99794 1.79943 0
M  V30 17852 C 1636.74 6.01589 1.12946 0
M  V30 17853 N 1635.88 6.69149 2.12567 0
M  V30 17854 H 1640.72 2.95913 -0.352051 0
M  V30 17855 H 1638.26 1.45926 -0.185461 0
M  V30 17856 H 1640.21 3.64397 2.03152 0
M  V30 17857 H 1638.84 2.50271 2.03873 0
M  V30 17858 H 1637.9 3.804 -0.00157718 0
M  V30 17859 H 1639.21 4.98326 0.217335 0
M  V30 17860 H 1638.36 5.5233 2.51031 0
M  V30 17861 H 1637.1 4.26684 2.36203 0
M  V30 17862 H 1636.11 5.48312 0.404207 0
M  V30 17863 H 1637.33 6.76672 0.573735 0
M  V30 17864 H 1635.28 5.9883 2.67841 0
M  V30 17865 H 1635.19 7.37847 1.64676 0
M  V30 17866 H 1636.46 7.26301 2.83031 0
M  V30 17867 N 1640.69 0.205039 1.56261 0
M  V30 17868 C 1641.6 -0.723548 2.23164 0
M  V30 17869 C 1642.62 -1.22683 1.23389 0
M  V30 17870 O 1643.79 -1.27191 1.56155 0
M  V30 17871 C 1640.86 -1.92178 2.88563 0
M  V30 17872 C 1639.92 -1.46209 4.03635 0
M  V30 17873 C 1639.15 -2.60321 4.65906 0
M  V30 17874 O 1639.38 -3.78051 4.27122 0
M  V30 17875 O 1638.31 -2.32465 5.55197 0
M  V30 17876 H 1642.14 -0.183715 3.03144 0
M  V30 17877 H 1639.72 -0.0246933 1.4938 0
M  V30 17878 H 1641.6 -2.62188 3.29902 0
M  V30 17879 H 1640.28 -2.45003 2.11555 0
M  V30 17880 H 1639.18 -0.730492 3.66899 0
M  V30 17881 H 1640.52 -0.980402 4.82337 0
M  V30 17882 N 1642.17 -1.57451 -0.0684915 0
M  V30 17883 C 1643.4 -1.91362 -0.778724 0
M  V30 17884 C 1643.81 -0.799579 -1.71474 0
M  V30 17885 O 1643.15 0.235727 -1.82181 0
M  V30 17886 C 1643.21 -3.20767 -1.62323 0
M  V30 17887 C 1642.88 -4.48907 -0.85623 0
M  V30 17888 C 1643.87 -5.19609 -0.173992 0
M  V30 17889 C 1641.56 -4.95521 -0.822427 0
M  V30 17890 C 1643.55 -6.35178 0.531784 0
M  V30 17891 C 1641.24 -6.10996 -0.11288 0
M  V30 17892 C 1642.24 -6.80675 0.563022 0
M  V30 17893 O 1641.93 -7.93946 1.26113 0
M  V30 17894 H 1641.66 -0.636969 -0.226376 0
M  V30 17895 H 1644.21 -2.05357 -0.0420481 0
M  V30 17896 H 1642.44 -3.0299 -2.40279 0
M  V30 17897 H 1644.13 -3.40303 -2.21244 0
M  V30 17898 H 1644.9 -4.84622 -0.191393 0
M  V30 17899 H 1640.78 -4.41156 -1.33798 0
M  V30 17900 H 1644.32 -6.89501 1.05991 0
M  V30 17901 H 1640.22 -6.45432 -0.0934182 0
M  V30 17902 H 1640.98 -8.10084 1.17074 0
M  V30 17903 N 1643.65 0.339955 -1.5389 0
M  V30 17904 C 1644.88 1.09816 -1.74997 0
M  V30 17905 C 1645.29 1.82725 -0.490746 0
M  V30 17906 O 1644.63 1.75352 0.547467 0
M  V30 17907 C 1644.69 2.15388 -2.87834 0
M  V30 17908 C 1644.35 1.62022 -4.27315 0
M  V30 17909 C 1645.35 1.07064 -5.08757 0
M  V30 17910 C 1643.04 1.6676 -4.7381 0
M  V30 17911 C 1645.03 0.575529 -6.34796 0
M  V30 17912 C 1642.72 1.16861 -5.99822 0
M  V30 17913 C 1643.72 0.623505 -6.80148 0
M  V30 17914 O 1643.4 0.131966 -8.03792 0
M  V30 17915 H 1643.14 0.333199 -0.588179 0
M  V30 17916 H 1645.69 0.39682 -2.0153 0
M  V30 17917 H 1643.92 2.89091 -2.56834 0
M  V30 17918 H 1645.61 2.76801 -2.96877 0
M  V30 17919 H 1646.37 1.02723 -4.73997 0
M  V30 17920 H 1642.25 2.08129 -4.11343 0
M  V30 17921 H 1645.8 0.149389 -6.9744 0
M  V30 17922 H 1641.69 1.20904 -6.34076 0
M  V30 17923 H 1642.46 0.24892 -8.18121 0
M  V30 17924 N 1645.13 1.45684 0.601159 0
M  V30 17925 C 1646.06 1.49342 1.72546 0
M  V30 17926 C 1647.04 0.349184 1.58806 0
M  V30 17927 O 1648.22 0.550634 1.80278 0
M  V30 17928 C 1645.35 1.35455 3.10435 0
M  V30 17929 C 1644.39 2.53826 3.42746 0
M  V30 17930 S 1645.23 4.16269 3.36869 0
M  V30 17931 C 1646.38 4.04858 4.77326 0
M  V30 17932 H 1646.62 2.44469 1.69181 0
M  V30 17933 H 1644.15 1.33345 0.778358 0
M  V30 17934 H 1646.11 1.2813 3.89991 0
M  V30 17935 H 1644.77 0.417881 3.11308 0
M  V30 17936 H 1643.96 2.40053 4.4316 0
M  V30 17937 H 1643.56 2.58046 2.70718 0
M  V30 17938 H 1645.85 3.704 5.67283 0
M  V30 17939 H 1646.8 5.05207 4.96157 0
M  V30 17940 H 1647.21 3.36408 4.5331 0
M  V30 17941 N 1646.6 -0.84422 1.33082 0
M  V30 17942 C 1647.85 -1.60149 1.24419 0
M  V30 17943 C 1648.18 -1.93259 -0.190992 0
M  V30 17944 O 1647.46 -1.58242 -1.13092 0
M  V30 17945 C 1647.74 -2.91502 2.11421 0
M  V30 17946 C 1647.59 -2.65108 3.6337 0
M  V30 17947 C 1648.91 -3.92878 1.98331 0
M  V30 17948 H 1646.03 -0.581096 0.453317 0
M  V30 17949 H 1648.67 -0.974093 1.6313 0
M  V30 17950 H 1646.82 -3.45046 1.78537 0
M  V30 17951 H 1648.5 -2.18037 4.06519 0
M  V30 17952 H 1646.74 -1.98896 3.85516 0
M  V30 17953 H 1647.41 -3.58682 4.19584 0
M  V30 17954 H 1649.89 -3.48623 2.27159 0
M  V30 17955 H 1648.76 -4.82625 2.61466 0
M  V30 17956 H 1649.02 -4.31685 0.953972 0
M  V30 17957 N 1648.08 -1.16463 -1.0618 0
M  V30 17958 C 1649.03 -0.868264 -2.15787 0
M  V30 17959 C 1650.02 0.163135 -1.68613 0
M  V30 17960 O 1651.23 0.0170117 -1.79992 0
M  V30 17961 H 1647.6 -0.263184 -0.704442 0
M  V30 17962 H 1649.58 -1.80005 -2.37993 0
M  V30 17963 C 1648.32 -0.387052 -3.45539 0
M  V30 17964 H 1647.65 -1.17212 -3.82232 0
M  V30 17965 H 1649.09 -0.218471 -4.23437 0
M  V30 17966 C 1647.55 0.893588 -3.24833 0
M  V30 17967 O 1648.08 1.96259 -3.50493 0
M  V30 17968 N 1646.28 0.8378 -2.78261 0
M  V30 17969 H 1645.83 -0.0323251 -2.5758 0
M  V30 17970 H 1645.79 1.69515 -2.64787 0
M  V30 17971 N 1649.56 1.24734 -0.963288 0
M  V30 17972 C 1650.81 1.91987 -0.618386 0
M  V30 17973 C 1651.12 1.76179 0.849726 0
M  V30 17974 O 1652.33 2.38082 1.30496 0
M  V30 17975 C 1650.78 3.44079 -1.05534 0
M  V30 17976 C 1650.39 3.68582 -2.5466 0
M  V30 17977 C 1652.14 4.17209 -0.783378 0
M  V30 17978 C 1650.04 5.14223 -2.92111 0
M  V30 17979 H 1648.97 0.718836 -0.227575 0
M  V30 17980 H 1651.62 1.41453 -1.1689 0
M  V30 17981 H 1650.01 3.93624 -0.433168 0
M  V30 17982 H 1651.18 3.29655 -3.2197 0
M  V30 17983 H 1649.49 3.08729 -2.79419 0
M  V30 17984 H 1652.09 5.24503 -1.03924 0
M  V30 17985 H 1652.43 4.15355 0.280352 0
M  V30 17986 H 1652.97 3.736 -1.36631 0
M  V30 17987 H 1649.71 5.21195 -3.97537 0
M  V30 17988 H 1649.23 5.54164 -2.29482 0
M  V30 17989 H 1650.91 5.82419 -2.81775 0
M  V30 17990 N 1651.04 0.732878 1.39523 0
M  V30 17991 C 1652.31 0.20629 1.94509 0
M  V30 17992 C 1652.69 -1.29152 1.66982 0
M  V30 17993 O 1652.04 -2.05607 0.996895 0
M  V30 17994 C 1652.25 0.537619 3.44834 0
M  V30 17995 C 1653.6 0.485787 4.21812 0
M  V30 17996 O 1654.62 0.474686 3.53023 0
M  V30 17997 O 1653.48 0.478457 5.44402 0
M  V30 17998 H 1650.58 0.0369228 0.826175 0
M  V30 17999 H 1653.12 0.811591 1.49035 0
M  V30 18000 H 1651.9 1.57289 3.58296 0
M  V30 18001 H 1651.52 -0.0967601 3.97482 0
M  V30 18002 N 1652.52 -1.50101 0.480349 0
M  V30 18003 C 1653.75 -2.06486 -0.0687482 0
M  V30 18004 C 1654.15 -1.34334 -1.33233 0
M  V30 18005 O 1653.5 -0.408976 -1.7909 0
M  V30 18006 C 1653.56 -3.57114 -0.413522 0
M  V30 18007 C 1653.22 -4.50814 0.749361 0
M  V30 18008 C 1654.22 -4.93554 1.63404 0
M  V30 18009 C 1651.9 -4.93382 0.942313 0
M  V30 18010 C 1653.9 -5.77577 2.696 0
M  V30 18011 C 1651.59 -5.77186 2.00748 0
M  V30 18012 C 1652.58 -6.19185 2.88268 0
M  V30 18013 O 1652.27 -7.01317 3.92949 0
M  V30 18014 H 1652 -0.675954 0.00792111 0
M  V30 18015 H 1654.56 -1.94135 0.670863 0
M  V30 18016 H 1652.79 -3.67399 -1.20645 0
M  V30 18017 H 1654.48 -3.95824 -0.89879 0
M  V30 18018 H 1655.24 -4.61329 1.4967 0
M  V30 18019 H 1651.12 -4.60206 0.270534 0
M  V30 18020 H 1654.67 -6.10279 3.37942 0
M  V30 18021 H 1650.56 -6.08824 2.14486 0
M  V30 18022 H 1651.33 -7.19585 3.9005 0
M  V30 18023 N 1653.99 -0.213323 -1.5615 0
M  V30 18024 C 1654.92 0.695003 -2.22917 0
M  V30 18025 C 1655.9 1.20738 -1.19818 0
M  V30 18026 O 1657.09 1.25289 -1.48379 0
M  V30 18027 C 1654.22 1.90685 -2.9027 0
M  V30 18028 C 1653.17 1.52865 -3.9977 0
M  V30 18029 C 1652.5 2.81859 -4.54378 0
M  V30 18030 C 1653.8 0.724829 -5.17246 0
M  V30 18031 H 1655.49 0.138351 -2.9908 0
M  V30 18032 H 1653.04 0.0651029 -1.43853 0
M  V30 18033 H 1654.99 2.54766 -3.35667 0
M  V30 18034 H 1653.72 2.48833 -2.11541 0
M  V30 18035 H 1652.38 0.911336 -3.55092 0
M  V30 18036 H 1652.02 3.38135 -3.72389 0
M  V30 18037 H 1651.72 2.57291 -5.28275 0
M  V30 18038 H 1653.25 3.46897 -5.02489 0
M  V30 18039 H 1654.66 1.26915 -5.59076 0
M  V30 18040 H 1653.06 0.57656 -5.97324 0
M  V30 18041 H 1654.13 -0.270309 -4.84146 0
M  V30 18042 N 1655.47 1.57485 0.0601405 0
M  V30 18043 C 1656.42 2.0554 1.08886 0
M  V30 18044 C 1657.41 0.962963 1.39368 0
M  V30 18045 O 1658.62 1.14802 1.38638 0
M  V30 18046 H 1655 0.655506 0.368532 0
M  V30 18047 H 1656.97 2.91066 0.657513 0
M  V30 18048 C 1655.72 2.52464 2.39076 0
M  V30 18049 H 1655.04 3.36123 2.16475 0
M  V30 18050 H 1656.48 2.89829 3.09476 0
M  V30 18051 C 1654.94 1.41248 3.05861 0
M  V30 18052 O 1655.47 0.761119 3.94423 0
M  V30 18053 N 1653.67 1.1547 2.66674 0
M  V30 18054 H 1653.22 1.6862 1.94744 0
M  V30 18055 H 1653.18 0.412641 3.1168 0
M  V30 18056 N 1656.95 -0.331789 1.54068 0
M  V30 18057 C 1658.37 -0.675628 1.44594 0
M  V30 18058 C 1658.57 -1.91976 0.612166 0
M  V30 18059 O 1657.62 -2.5227 0.107742 0
M  V30 18060 C 1658.94 -0.857303 2.8822 0
M  V30 18061 C 1660.48 -0.955171 2.9807 0
M  V30 18062 C 1660.96 -1.16908 4.42828 0
M  V30 18063 N 1662.45 -1.23601 4.46405 0
M  V30 18064 C 1663.18 -1.41924 5.55558 0
M  V30 18065 N 1662.68 -1.57345 6.74696 0
M  V30 18066 N 1664.47 -1.44566 5.43191 0
M  V30 18067 H 1656.62 0.486058 2.06764 0
M  V30 18068 H 1658.89 0.155605 0.935142 0
M  V30 18069 H 1658.59 -0.0144659 3.51697 0
M  V30 18070 H 1658.47 -1.75558 3.33855 0
M  V30 18071 H 1660.85 -1.78852 2.34725 0
M  V30 18072 H 1660.94 -0.0335425 2.55778 0
M  V30 18073 H 1660.58 -0.340612 5.06757 0
M  V30 18074 H 1660.51 -2.10445 4.82722 0
M  V30 18075 H 1663 -1.13161 3.60559 0
M  V30 18076 H 1663.31 -1.70995 7.53645 0
M  V30 18077 H 1661.66 -1.54458 6.77619 0
M  V30 18078 H 1664.85 -1.3211 4.49071 0
M  V30 18079 H 1665.02 -1.58505 6.28315 0
M  V30 18080 N 1658.43 -1.46001 -0.593424 0
M  V30 18081 C 1659.66 -1.54083 -1.3763 0
M  V30 18082 C 1660.07 -0.177096 -1.88369 0
M  V30 18083 O 1659.41 0.834016 -1.63676 0
M  V30 18084 C 1659.47 -2.47599 -2.60643 0
M  V30 18085 C 1659.14 -3.94058 -2.31445 0
M  V30 18086 C 1660.13 -4.83569 -1.90936 0
M  V30 18087 C 1657.82 -4.39099 -2.4392 0
M  V30 18088 C 1659.81 -6.16131 -1.63282 0
M  V30 18089 C 1657.5 -5.71699 -2.15879 0
M  V30 18090 C 1658.5 -6.60034 -1.75624 0
M  V30 18091 O 1658.18 -7.90174 -1.4792 0
M  V30 18092 H 1657.92 -0.52391 -0.427193 0
M  V30 18093 H 1660.47 -1.92011 -0.729444 0
M  V30 18094 H 1658.7 -2.04669 -3.28097 0
M  V30 18095 H 1660.39 -2.46207 -3.22703 0
M  V30 18096 H 1661.16 -4.50031 -1.80822 0
M  V30 18097 H 1657.03 -3.70575 -2.74218 0
M  V30 18098 H 1660.58 -6.85039 -1.31787 0
M  V30 18099 H 1656.48 -6.04788 -2.25614 0
M  V30 18100 H 1657.24 -8.02338 -1.61854 0
M  V30 18101 N 1659.91 0.83715 -1.33527 0
M  V30 18102 C 1660.84 1.95164 -1.18263 0
M  V30 18103 C 1661.82 1.62414 -0.0776864 0
M  V30 18104 O 1663 1.86963 -0.24024 0
M  V30 18105 C 1660.13 3.28766 -0.814294 0
M  V30 18106 C 1659.17 3.80486 -1.92698 0
M  V30 18107 S 1660.01 4.01957 -3.53823 0
M  V30 18108 C 1661.16 5.38507 -3.19 0
M  V30 18109 H 1661.4 2.07813 -2.12605 0
M  V30 18110 H 1658.93 0.991125 -1.18389 0
M  V30 18111 H 1660.89 4.05964 -0.608556 0
M  V30 18112 H 1659.55 3.13905 0.110553 0
M  V30 18113 H 1658.74 4.77164 -1.62266 0
M  V30 18114 H 1658.34 3.10189 -2.08947 0
M  V30 18115 H 1660.64 6.21404 -2.69931 0
M  V30 18116 H 1661.58 5.73913 -4.14764 0
M  V30 18117 H 1661.99 5.03342 -2.55552 0
M  V30 18118 N 1661.38 1.17024 1.05561 0
M  V30 18119 C 1662.61 0.979328 1.81914 0
M  V30 18120 C 1663.02 -0.475688 1.83122 0
M  V30 18121 O 1662.37 -1.34205 1.25438 0
M  V30 18122 C 1662.43 1.4391 3.29439 0
M  V30 18123 C 1662.09 2.9155 3.5192 0
M  V30 18124 C 1663.09 3.89509 3.44353 0
M  V30 18125 C 1660.77 3.2964 3.79003 0
M  V30 18126 C 1662.77 5.23557 3.63548 0
M  V30 18127 C 1660.45 4.63855 3.97846 0
M  V30 18128 C 1661.45 5.60623 3.90117 0
M  V30 18129 O 1661.14 6.92411 4.08439 0
M  V30 18130 H 1660.87 0.34689 0.58021 0
M  V30 18131 H 1663.43 1.55641 1.34034 0
M  V30 18132 H 1661.66 0.805555 3.78216 0
M  V30 18133 H 1663.35 1.21445 3.87306 0
M  V30 18134 H 1664.11 3.61428 3.23412 0
M  V30 18135 H 1659.99 2.54891 3.84124 0
M  V30 18136 H 1663.53 5.99074 3.5743 0
M  V30 18137 H 1659.43 4.91644 4.18278 0
M  V30 18138 H 1660.2 6.99095 4.25685 0
M  V30 18139 N 1662.86 -1.24221 0.969889 0
M  V30 18140 C 1663.83 -2.23529 0.506686 0
M  V30 18141 C 1664.83 -1.55797 -0.397968 0
M  V30 18142 O 1666.02 -1.73126 -0.193124 0
M  V30 18143 C 1663.15 -3.39861 -0.265943 0
M  V30 18144 H 1664.34 -2.66022 1.38463 0
M  V30 18145 H 1661.89 -1.36872 0.754698 0
M  V30 18146 H 1662.63 -3.0281 -1.16089 0
M  V30 18147 H 1662.41 -3.90222 0.383286 0
M  V30 18148 H 1663.9 -4.13567 -0.578975 0
M  V30 18149 N 1664.34 -0.740267 -1.39132 0
M  V30 18150 C 1665.29 -0.0929334 -2.32414 0
M  V30 18151 C 1666.28 0.720062 -1.53334 0
M  V30 18152 O 1667.49 0.620656 -1.68961 0
M  V30 18153 H 1663.86 -0.0112531 -0.751916 0
M  V30 18154 H 1665.83 -0.895975 -2.84631 0
M  V30 18155 C 1664.58 0.796182 -3.38462 0
M  V30 18156 H 1663.91 0.17999 -3.99395 0
M  V30 18157 H 1665.35 1.21664 -4.0617 0
M  V30 18158 C 1663.81 1.93285 -2.75939 0
M  V30 18159 O 1664.34 3.02593 -2.64198 0
M  V30 18160 N 1662.54 1.72386 -2.33948 0
M  V30 18161 H 1662.09 0.834821 -2.43698 0
M  V30 18162 H 1662.05 2.48612 -1.92456 0
M  V30 18163 N 1665.82 1.49844 -0.488302 0
M  V30 18164 C 1667.04 2.07313 0.0600937 0
M  V30 18165 C 1667.47 1.3478 1.3121 0
M  V30 18166 O 1666.83 0.400634 1.76818 0
M  V30 18167 C 1666.87 3.59268 0.309658 0
M  V30 18168 O 1665.98 3.88381 1.38688 0
M  V30 18169 H 1665.32 0.663681 -0.0205947 0
M  V30 18170 H 1667.85 1.92818 -0.684284 0
M  V30 18171 H 1667.86 4.04344 0.545 0
M  V30 18172 H 1666.53 4.11474 -0.605146 0
M  V30 18173 H 1665.11 3.55128 1.13749 0
M  V30 18174 N 1667.3 0.221601 1.56034 0
M  V30 18175 C 1668.71 -0.133783 1.59038 0
M  V30 18176 C 1668.91 -1.58952 1.23841 0
M  V30 18177 O 1667.97 -2.32972 0.973677 0
M  V30 18178 C 1669.28 0.192549 3.00083 0
M  V30 18179 C 1670.83 0.134791 3.1271 0
M  V30 18180 C 1671.3 0.434799 4.55931 0
M  V30 18181 N 1672.8 0.384372 4.61602 0
M  V30 18182 C 1673.53 0.59 5.70357 0
M  V30 18183 N 1673.03 0.857405 6.87474 0
M  V30 18184 N 1674.82 0.522433 5.59667 0
M  V30 18185 H 1666.97 1.17124 1.77189 0
M  V30 18186 H 1669.23 0.46946 0.823597 0
M  V30 18187 H 1668.94 1.20292 3.30488 0
M  V30 18188 H 1668.81 -0.49243 3.73972 0
M  V30 18189 H 1671.2 -0.866221 2.821 0
M  V30 18190 H 1671.28 0.853247 2.4115 0
M  V30 18191 H 1670.93 1.43325 4.87258 0
M  V30 18192 H 1670.86 -0.304849 5.25717 0
M  V30 18193 H 1673.35 0.185389 3.77445 0
M  V30 18194 H 1673.66 1.00241 7.66271 0
M  V30 18195 H 1672 0.894599 6.89218 0
M  V30 18196 H 1675.2 0.313754 4.67047 0
M  V30 18197 H 1675.37 0.686094 6.44358 0
M  V30 18198 N 1668.77 -1.57515 -0.0517878 0
M  V30 18199 C 1669.71 -2.01812 -1.08649 0
M  V30 18200 C 1670.72 -0.92719 -1.33817 0
M  V30 18201 O 1671.91 -1.20483 -1.31705 0
M  V30 18202 C 1669.01 -2.35903 -2.43316 0
M  V30 18203 C 1668.18 -3.67095 -2.37824 0
M  V30 18204 C 1667.24 -3.8863 -3.54758 0
M  V30 18205 O 1666.27 -4.59974 -3.3528 0
M  V30 18206 N 1667.47 -3.32516 -4.75829 0
M  V30 18207 H 1670.23 -2.91191 -0.709094 0
M  V30 18208 H 1667.79 -1.60109 -0.240125 0
M  V30 18209 H 1669.79 -2.47466 -3.20223 0
M  V30 18210 H 1668.36 -1.52312 -2.72983 0
M  V30 18211 H 1667.58 -3.66099 -1.46168 0
M  V30 18212 H 1668.86 -4.53199 -2.31275 0
M  V30 18213 H 1668.26 -2.74645 -4.94557 0
M  V30 18214 H 1666.82 -3.49496 -5.50178 0
M  V30 18215 N 1670.25 0.323614 -1.54242 0
M  V30 18216 C 1671.5 1.05909 -1.71657 0
M  V30 18217 C 1671.82 1.89177 -0.497151 0
M  V30 18218 O 1673.02 2.65816 -0.552649 0
M  V30 18219 C 1671.48 1.93246 -3.03618 0
M  V30 18220 C 1671.09 1.1509 -4.32965 0
M  V30 18221 C 1672.83 2.6653 -3.30397 0
M  V30 18222 C 1670.74 2.01573 -5.55988 0
M  V30 18223 H 1669.67 0.399114 -0.639706 0
M  V30 18224 H 1672.32 0.317338 -1.80735 0
M  V30 18225 H 1670.7 2.71319 -2.88447 0
M  V30 18226 H 1671.87 0.417877 -4.58901 0
M  V30 18227 H 1670.19 0.534882 -4.1295 0
M  V30 18228 H 1672.79 3.31542 -4.19504 0
M  V30 18229 H 1673.13 3.34164 -2.48274 0
M  V30 18230 H 1673.66 1.95518 -3.46435 0
M  V30 18231 H 1670.4 1.38446 -6.40713 0
M  V30 18232 H 1669.92 2.72609 -5.3427 0
M  V30 18233 H 1671.6 2.60159 -5.9239 0
M  V30 18234 N 1671.73 1.46313 0.585673 0
M  V30 18235 C 1672.98 1.51694 1.34598 0
M  V30 18236 C 1673.31 0.166889 1.93482 0
M  V30 18237 O 1672.59 -0.821331 1.76308 0
M  V30 18238 C 1672.87 2.61322 2.47755 0
M  V30 18239 C 1672.72 4.05848 1.93926 0
M  V30 18240 C 1674.04 2.67058 3.49812 0
M  V30 18241 H 1671.16 0.552253 0.488043 0
M  V30 18242 H 1673.8 1.78235 0.658201 0
M  V30 18243 H 1671.95 2.38822 3.06425 0
M  V30 18244 H 1673.62 4.39626 1.39736 0
M  V30 18245 H 1671.87 4.15468 1.24775 0
M  V30 18246 H 1672.54 4.78279 2.75596 0
M  V30 18247 H 1675.01 2.87276 3.01018 0
M  V30 18248 H 1673.89 3.45589 4.2645 0
M  V30 18249 H 1674.15 1.72993 4.06849 0
M  V30 18250 N 1673.21 -0.830057 1.33969 0
M  V30 18251 C 1674.46 -1.58586 1.25924 0
M  V30 18252 C 1674.78 -1.93732 -0.172685 0
M  V30 18253 O 1674.04 -1.59628 -1.13214 0
M  V30 18254 C 1674.34 -2.90026 2.08853 0
M  V30 18255 C 1674 -2.74204 3.57943 0
M  V30 18256 C 1672.67 -2.69596 3.98587 0
M  V30 18257 C 1675.02 -2.58384 4.52644 0
M  V30 18258 C 1672.35 -2.4708 5.32135 0
M  V30 18259 C 1674.7 -2.37401 5.86365 0
M  V30 18260 C 1673.36 -2.31201 6.26181 0
M  V30 18261 H 1672.63 -0.580306 0.460789 0
M  V30 18262 H 1675.28 -0.960978 1.65643 0
M  V30 18263 H 1673.58 -3.56767 1.6194 0
M  V30 18264 H 1675.28 -3.47576 1.99979 0
M  V30 18265 H 1671.87 -2.78627 3.25676 0
M  V30 18266 H 1676.06 -2.60972 4.22146 0
M  V30 18267 H 1671.31 -2.40733 5.62012 0
M  V30 18268 H 1675.49 -2.24146 6.59342 0
M  V30 18269 H 1673.11 -2.13515 7.29599 0
M  V30 18270 N 1674.69 -1.17582 -1.04939 0
M  V30 18271 C 1675.64 -0.891102 -2.14854 0
M  V30 18272 C 1676.63 0.145242 -1.68776 0
M  V30 18273 O 1677.84 -0.00207978 -1.8 0
M  V30 18274 H 1674.21 -0.270641 -0.701611 0
M  V30 18275 H 1676.18 -1.82519 -2.36071 0
M  V30 18276 C 1674.93 -0.423679 -3.45109 0
M  V30 18277 H 1674.25 -1.2126 -3.80967 0
M  V30 18278 H 1675.69 -0.263369 -4.23181 0
M  V30 18279 C 1674.15 0.859085 -3.25763 0
M  V30 18280 O 1674.68 1.9253 -3.52555 0
M  V30 18281 N 1672.89 0.80824 -2.79134 0
M  V30 18282 H 1672.44 -0.0596431 -2.57531 0
M  V30 18283 H 1672.39 1.66697 -2.6657 0
M  V30 18284 N 1676.17 1.23705 -0.976463 0
M  V30 18285 C 1677.39 1.96055 -0.661065 0
M  V30 18286 C 1677.81 1.7233 0.77121 0
M  V30 18287 O 1677.17 1.01234 1.51849 0
M  V30 18288 C 1677.22 3.49144 -0.937071 0
M  V30 18289 O 1676.94 3.72061 -2.31305 0
M  V30 18290 C 1678.44 4.38698 -0.637077 0
M  V30 18291 H 1675.66 0.624319 -0.245901 0
M  V30 18292 H 1678.2 1.57301 -1.30678 0
M  V30 18293 H 1676.36 3.85928 -0.33743 0
M  V30 18294 H 1676.77 4.66383 -2.39973 0
M  V30 18295 H 1678.25 5.44931 -0.88059 0
M  V30 18296 H 1678.72 4.37102 0.428802 0
M  V30 18297 H 1679.33 4.07515 -1.21702 0
M  V30 18298 N 1677.64 0.747635 1.38738 0
M  V30 18299 C 1679.06 0.424577 1.53849 0
M  V30 18300 C 1679.26 -1.06304 1.71177 0
M  V30 18301 O 1678.32 -1.84912 1.71941 0
M  V30 18302 C 1679.63 1.21863 2.749 0
M  V30 18303 C 1681.18 1.20811 2.88745 0
M  V30 18304 C 1681.65 1.985 4.12749 0
M  V30 18305 N 1683.14 1.9573 4.19814 0
M  V30 18306 C 1683.88 2.52641 5.14743 0
M  V30 18307 N 1683.37 3.18241 6.15382 0
M  V30 18308 N 1685.17 2.42604 5.0705 0
M  V30 18309 H 1677.32 1.71182 1.25739 0
M  V30 18310 H 1679.58 0.725358 0.610376 0
M  V30 18311 H 1679.29 2.27181 2.6848 0
M  V30 18312 H 1679.16 0.831509 3.67921 0
M  V30 18313 H 1681.55 0.163013 2.94649 0
M  V30 18314 H 1681.63 1.6347 1.96752 0
M  V30 18315 H 1681.27 3.03017 4.07606 0
M  V30 18316 H 1681.2 1.53239 5.03811 0
M  V30 18317 H 1683.69 1.4795 3.47734 0
M  V30 18318 H 1684.01 3.59101 6.843 0
M  V30 18319 H 1682.35 3.22334 6.15732 0
M  V30 18320 H 1685.54 1.90987 4.27366 0
M  V30 18321 H 1685.72 2.87253 5.80852 0
M  V30 18322 N 1679.12 -1.49583 0.496242 0
M  V30 18323 C 1680.54 -1.58875 0.151907 0
M  V30 18324 C 1680.74 -1.50196 -1.34326 0
M  V30 18325 O 1679.79 -1.37344 -2.11879 0
M  V30 18326 C 1681.11 -2.91842 0.724478 0
M  V30 18327 C 1682.65 -3.05296 0.690157 0
M  V30 18328 C 1683.13 -4.40875 1.24071 0
M  V30 18329 N 1684.62 -4.47354 1.2012 0
M  V30 18330 C 1685.36 -5.50699 1.59743 0
M  V30 18331 N 1684.85 -6.61173 2.06936 0
M  V30 18332 N 1686.64 -5.41386 1.51189 0
M  V30 18333 H 1678.8 -1.53468 1.46838 0
M  V30 18334 H 1681.06 -0.726702 0.608776 0
M  V30 18335 H 1680.76 -3.03747 1.77287 0
M  V30 18336 H 1680.64 -3.7676 0.182209 0
M  V30 18337 H 1683.03 -2.93024 -0.34939 0
M  V30 18338 H 1683.11 -2.22074 1.26952 0
M  V30 18339 H 1682.75 -4.53898 2.27901 0
M  V30 18340 H 1682.68 -5.22729 0.637328 0
M  V30 18341 H 1685.17 -3.68092 0.855361 0
M  V30 18342 H 1685.48 -7.36122 2.35252 0
M  V30 18343 H 1683.83 -6.62226 2.10906 0
M  V30 18344 H 1687.02 -4.53971 1.14142 0
M  V30 18345 H 1687.19 -6.21802 1.82392 0
M  V30 18346 N 1680.6 -0.229873 -1.55915 0
M  V30 18347 C 1681.55 0.693198 -2.2203 0
M  V30 18348 C 1682.54 1.1933 -1.20236 0
M  V30 18349 O 1683.75 1.15217 -1.38294 0
M  V30 18350 H 1680.12 0.241986 -0.712002 0
M  V30 18351 H 1682.09 0.112229 -2.98189 0
M  V30 18352 C 1680.84 1.88688 -2.92048 0
M  V30 18353 H 1680.17 1.51119 -3.70139 0
M  V30 18354 H 1681.61 2.51036 -3.41697 0
M  V30 18355 C 1680.06 2.74747 -1.94976 0
M  V30 18356 O 1680.59 3.73759 -1.47198 0
M  V30 18357 N 1678.8 2.40956 -1.62445 0
M  V30 18358 H 1678.35 1.60494 -2.01493 0
M  V30 18359 H 1678.31 2.98816 -0.977581 0
M  V30 18360 N 1682.08 1.5754 0.0434337 0
M  V30 18361 C 1683.03 2.06683 1.067 0
M  V30 18362 C 1684.02 0.977691 1.38339 0
M  V30 18363 O 1685.23 1.16266 1.37412 0
M  V30 18364 H 1681.6 0.659378 0.361559 0
M  V30 18365 H 1683.57 2.91747 0.626605 0
M  V30 18366 C 1682.32 2.54985 2.36385 0
M  V30 18367 H 1681.64 3.384 2.12897 0
M  V30 18368 H 1683.08 2.93095 3.06384 0
M  V30 18369 C 1681.54 1.44484 3.04345 0
M  V30 18370 O 1682.07 0.80291 3.93594 0
M  V30 18371 N 1680.28 1.18292 2.65434 0
M  V30 18372 H 1679.83 1.70676 1.92944 0
M  V30 18373 H 1679.78 0.445676 3.11225 0
M  V30 18374 N 1683.56 -0.31543 1.54411 0
M  V30 18375 C 1684.5 -1.4086 1.85098 0
M  V30 18376 C 1685.5 -1.53172 0.723518 0
M  V30 18377 O 1686.7 -1.55461 0.907303 0
M  V30 18378 H 1683.08 -0.47022 0.586853 0
M  V30 18379 H 1685.05 -1.12207 2.765 0
M  V30 18380 C 1683.8 -2.76948 2.10227 0
M  V30 18381 H 1683.12 -2.68251 2.96448 0
M  V30 18382 H 1684.56 -3.52486 2.35647 0
M  V30 18383 C 1683.02 -3.24758 0.896312 0
M  V30 18384 O 1683.55 -4.0155 0.109609 0
M  V30 18385 N 1681.76 -2.81901 0.705685 0
M  V30 18386 H 1681.3 -2.19571 1.34708 0
M  V30 18387 H 1681.26 -3.14242 -0.0996804 0
M  V30 18388 N 1685.03 -1.46622 -0.577906 0
M  V30 18389 C 1686.31 -1.42657 -1.33822 0
M  V30 18390 C 1686.69 -0.11256 -2.108 0
M  V30 18391 O 1686.04 0.905903 -2.09775 0
M  V30 18392 C 1686.25 -2.65927 -2.26018 0
M  V30 18393 C 1687.6 -3.12277 -2.87695 0
M  V30 18394 O 1688.62 -2.66509 -2.36329 0
M  V30 18395 O 1687.48 -3.91786 -3.81007 0
M  V30 18396 H 1684.57 -0.567544 -0.601517 0
M  V30 18397 H 1687.12 -1.58795 -0.598524 0
M  V30 18398 H 1685.89 -3.53116 -1.68597 0
M  V30 18399 H 1685.52 -2.52272 -3.07318 0
M  V30 18400 N 1686.51 0.822941 -1.34408 0
M  V30 18401 C 1687.76 1.57916 -1.26763 0
M  V30 18402 C 1688.09 1.93821 0.162408 0
M  V30 18403 O 1687.34 1.60226 1.12366 0
M  V30 18404 C 1687.64 2.88915 -2.10388 0
M  V30 18405 C 1687.31 2.72302 -3.59392 0
M  V30 18406 C 1685.97 2.67479 -4.00011 0
M  V30 18407 C 1688.32 2.5598 -4.54008 0
M  V30 18408 C 1685.65 2.44255 -5.33438 0
M  V30 18409 C 1688 2.34288 -5.87615 0
M  V30 18410 C 1686.67 2.27877 -6.27398 0
M  V30 18411 H 1685.94 0.577854 -0.46386 0
M  V30 18412 H 1688.58 0.95218 -1.6615 0
M  V30 18413 H 1686.89 3.55903 -1.63829 0
M  V30 18414 H 1688.58 3.46511 -2.01819 0
M  V30 18415 H 1685.17 2.76896 -3.27149 0
M  V30 18416 H 1689.36 2.5873 -4.23524 0
M  V30 18417 H 1684.61 2.37749 -5.63281 0
M  V30 18418 H 1688.79 2.20646 -6.60521 0
M  V30 18419 H 1686.42 2.09643 -7.30722 0
M  V30 18420 N 1687.99 1.18137 1.04314 0
M  V30 18421 C 1688.94 0.902484 2.14378 0
M  V30 18422 C 1689.93 -0.136289 1.68851 0
M  V30 18423 O 1691.14 0.0116256 1.79996 0
M  V30 18424 H 1687.51 0.274358 0.700165 0
M  V30 18425 H 1689.48 1.83768 2.35099 0
M  V30 18426 C 1688.23 0.441975 3.4488 0
M  V30 18427 H 1687.56 1.23279 3.80319 0
M  V30 18428 H 1689 0.285808 4.23036 0
M  V30 18429 C 1687.46 -0.841797 3.26214 0
M  V30 18430 O 1687.99 -1.90658 3.53571 0
M  V30 18431 N 1686.19 -0.793425 2.79559 0
M  V30 18432 H 1685.74 0.0732997 2.57496 0
M  V30 18433 H 1685.7 -1.65281 2.6745 0
M  V30 18434 N 1689.47 -1.23186 0.98301 0
M  V30 18435 C 1690.38 -2.28448 0.533727 0
M  V30 18436 C 1691.39 -1.69034 -0.412732 0
M  V30 18437 O 1692.57 -1.99416 -0.282007 0
M  V30 18438 C 1689.64 -3.46357 -0.154179 0
M  V30 18439 C 1688.7 -4.21121 0.834009 0
M  V30 18440 C 1687.93 -5.334 0.178836 0
M  V30 18441 O 1688.15 -5.61032 -1.02952 0
M  V30 18442 O 1687.09 -5.95451 0.878722 0
M  V30 18443 H 1690.91 -2.69027 1.40919 0
M  V30 18444 H 1688.5 -1.29166 0.75077 0
M  V30 18445 H 1690.38 -4.17926 -0.539947 0
M  V30 18446 H 1689.05 -3.07724 -1.00437 0
M  V30 18447 H 1687.96 -3.51864 1.27053 0
M  V30 18448 H 1689.29 -4.6361 1.65309 0
M  V30 18449 N 1690.95 -0.754982 -1.38339 0
M  V30 18450 C 1692.19 -0.311146 -1.9969 0
M  V30 18451 C 1692.52 1.11138 -1.60229 0
M  V30 18452 O 1691.79 1.76024 -0.859794 0
M  V30 18453 H 1690.37 -0.112052 -0.738548 0
M  V30 18454 H 1693.03 -0.969386 -1.69083 0
M  V30 18455 H 1692.12 -0.375392 -3.09834 0
M  V30 18456 N 1692.42 1.49318 -0.504168 0
M  V30 18457 C 1693.65 2.06569 0.0358894 0
M  V30 18458 C 1694.06 1.36437 1.31079 0
M  V30 18459 O 1693.41 0.437416 1.78416 0
M  V30 18460 C 1693.47 3.57726 0.356656 0
M  V30 18461 C 1693.13 4.49565 -0.820987 0
M  V30 18462 C 1694.13 4.90892 -1.71235 0
M  V30 18463 C 1691.81 4.9182 -1.02069 0
M  V30 18464 C 1693.81 5.73214 -2.78754 0
M  V30 18465 C 1691.49 5.73919 -2.09905 0
M  V30 18466 C 1692.49 6.14521 -2.98082 0
M  V30 18467 O 1692.18 6.94977 -4.04057 0
M  V30 18468 H 1691.91 0.675742 -0.0186739 0
M  V30 18469 H 1694.47 1.93044 -0.701664 0
M  V30 18470 H 1692.7 3.69271 1.14785 0
M  V30 18471 H 1694.39 3.97204 0.835704 0
M  V30 18472 H 1695.15 4.58889 -1.5699 0
M  V30 18473 H 1691.03 4.59717 -0.343714 0
M  V30 18474 H 1694.57 6.04826 -3.47609 0
M  V30 18475 H 1690.47 6.05334 -2.24144 0
M  V30 18476 H 1691.24 7.13289 -4.01449 0
M  V30 18477 N 1693.9 0.238138 1.5579 0
M  V30 18478 C 1694.85 -0.665098 2.21009 0
M  V30 18479 C 1695.82 -1.17793 1.17107 0
M  V30 18480 O 1697 -1.234 1.45523 0
M  V30 18481 C 1694.14 -1.86028 2.90667 0
M  V30 18482 C 1693.26 -1.3848 4.09203 0
M  V30 18483 C 1692.39 -2.53885 4.666 0
M  V30 18484 C 1691.43 -2.03155 5.77403 0
M  V30 18485 N 1690.57 -3.11895 6.2902 0
M  V30 18486 H 1695.41 -0.102242 2.97825 0
M  V30 18487 H 1692.95 -0.0387064 1.47049 0
M  V30 18488 H 1694.9 -2.56226 3.29248 0
M  V30 18489 H 1693.53 -2.39575 2.16341 0
M  V30 18490 H 1692.59 -0.577172 3.75996 0
M  V30 18491 H 1693.9 -0.972946 4.89219 0
M  V30 18492 H 1693.05 -3.32139 5.07709 0
M  V30 18493 H 1691.79 -2.98368 3.85782 0
M  V30 18494 H 1690.8 -1.23369 5.3578 0
M  V30 18495 H 1692.02 -1.59653 6.60067 0
M  V30 18496 H 1689.97 -3.55828 5.5111 0
M  V30 18497 H 1689.88 -2.75013 7.04204 0
M  V30 18498 H 1691.15 -3.90234 6.74787 0
M  V30 18499 N 1695.38 -1.57561 -0.0350783 0
M  V30 18500 C 1696.63 -1.88177 -0.726105 0
M  V30 18501 C 1696.94 -0.835856 -1.76841 0
M  V30 18502 O 1698.15 -1.03105 -2.51161 0
M  V30 18503 C 1696.6 -3.33924 -1.34249 0
M  V30 18504 C 1696.21 -4.46732 -0.336845 0
M  V30 18505 C 1697.96 -3.73696 -2.01374 0
M  V30 18506 C 1695.86 -5.83536 -0.961234 0
M  V30 18507 H 1694.79 -0.702082 -0.274948 0
M  V30 18508 H 1697.44 -1.83489 0.0197081 0
M  V30 18509 H 1695.83 -3.33337 -2.13781 0
M  V30 18510 H 1697 -4.58777 0.431323 0
M  V30 18511 H 1695.32 -4.15753 0.231983 0
M  V30 18512 H 1697.91 -4.7322 -2.48931 0
M  V30 18513 H 1698.26 -3.05379 -2.8293 0
M  V30 18514 H 1698.79 -3.76431 -1.28626 0
M  V30 18515 H 1695.53 -6.55238 -0.185217 0
M  V30 18516 H 1695.05 -5.75223 -1.69938 0
M  V30 18517 H 1696.73 -6.30071 -1.47035 0
M  V30 18518 N 1696.86 0.307236 -1.54576 0
M  V30 18519 C 1698.11 1.04082 -1.72771 0
M  V30 18520 C 1698.42 1.88639 -0.517188 0
M  V30 18521 O 1699.63 2.65215 -0.580811 0
M  V30 18522 C 1698.08 1.90015 -3.05651 0
M  V30 18523 C 1697.69 1.10491 -4.34161 0
M  V30 18524 C 1699.43 2.6301 -3.33205 0
M  V30 18525 C 1697.34 1.95664 -5.58094 0
M  V30 18526 H 1696.27 0.392307 -0.643903 0
M  V30 18527 H 1698.92 0.29815 -1.81062 0
M  V30 18528 H 1697.3 2.68245 -2.91309 0
M  V30 18529 H 1698.48 0.369181 -4.59319 0
M  V30 18530 H 1696.79 0.491053 -4.13494 0
M  V30 18531 H 1699.39 3.27074 -4.22997 0
M  V30 18532 H 1699.73 3.31512 -2.51804 0
M  V30 18533 H 1700.27 1.91833 -3.4849 0
M  V30 18534 H 1697.01 1.31643 -6.42145 0
M  V30 18535 H 1696.53 2.66927 -5.37131 0
M  V30 18536 H 1698.2 2.53861 -5.95116 0
M  V30 18537 N 1698.34 1.46926 0.570122 0
M  V30 18538 C 1699.59 1.52151 1.32413 0
M  V30 18539 C 1699.9 0.18291 1.94743 0
M  V30 18540 O 1701.1 0.113045 2.71265 0
M  V30 18541 C 1699.56 2.68153 2.40046 0
M  V30 18542 C 1699.17 4.08487 1.83963 0
M  V30 18543 C 1700.91 2.82659 3.16709 0
M  V30 18544 C 1698.82 5.1581 2.893 0
M  V30 18545 H 1697.75 0.566291 0.497826 0
M  V30 18546 H 1700.4 1.73169 0.607011 0
M  V30 18547 H 1698.78 2.40488 3.14613 0
M  V30 18548 H 1699.96 4.45998 1.15854 0
M  V30 18549 H 1698.27 3.98756 1.19927 0
M  V30 18550 H 1700.87 3.60008 3.95346 0
M  V30 18551 H 1701.21 1.9063 3.70089 0
M  V30 18552 H 1701.74 3.10031 2.4925 0
M  V30 18553 H 1698.48 6.09672 2.40791 0
M  V30 18554 H 1698 4.8283 3.55859 0
M  V30 18555 H 1699.68 5.42201 3.53026 0
M  V30 18556 N 1699.82 -0.815801 1.34842 0
M  V30 18557 C 1700.76 -1.92713 1.27006 0
M  V30 18558 C 1701.73 -1.65476 0.143838 0
M  V30 18559 O 1702.92 -1.87994 0.326007 0
M  V30 18560 C 1700.06 -3.29099 1.03863 0
M  V30 18561 C 1699.17 -3.68583 2.25324 0
M  V30 18562 C 1698.31 -4.93953 1.95407 0
M  V30 18563 C 1697.34 -5.26037 3.12971 0
M  V30 18564 N 1696.48 -6.42586 2.82891 0
M  V30 18565 H 1701.32 -1.98747 2.22044 0
M  V30 18566 H 1698.86 -0.972265 1.10388 0
M  V30 18567 H 1700.82 -4.07709 0.884809 0
M  V30 18568 H 1699.45 -3.22558 0.124911 0
M  V30 18569 H 1698.5 -2.85307 2.51603 0
M  V30 18570 H 1699.81 -3.88259 3.1314 0
M  V30 18571 H 1698.96 -5.80367 1.76801 0
M  V30 18572 H 1697.7 -4.76293 1.04862 0
M  V30 18573 H 1696.71 -4.38117 3.32165 0
M  V30 18574 H 1697.93 -5.45632 4.04305 0
M  V30 18575 H 1695.88 -6.26369 1.9493 0
M  V30 18576 H 1695.8 -6.62469 3.64239 0
M  V30 18577 H 1697.06 -7.32052 2.67805 0
M  V30 18578 N 1701.29 -1.18689 -1.03686 0
M  V30 18579 C 1702.71 -0.937386 -1.29171 0
M  V30 18580 C 1702.91 0.394863 -1.97593 0
M  V30 18581 O 1701.97 1.12829 -2.25889 0
M  V30 18582 C 1703.28 -2.10568 -2.14666 0
M  V30 18583 C 1704.83 -2.14441 -2.28 0
M  V30 18584 C 1705.3 -3.30699 -3.16863 0
M  V30 18585 N 1706.79 -3.30584 -3.24451 0
M  V30 18586 C 1707.53 -4.17184 -3.93376 0
M  V30 18587 N 1707.02 -5.13924 -4.646 0
M  V30 18588 N 1708.82 -4.05086 -3.89694 0
M  V30 18589 H 1700.97 -2.04417 -0.576836 0
M  V30 18590 H 1703.23 -0.893404 -0.31707 0
M  V30 18591 H 1702.94 -3.06938 -1.71702 0
M  V30 18592 H 1702.81 -2.06955 -3.15356 0
M  V30 18593 H 1705.2 -1.18647 -2.70198 0
M  V30 18594 H 1705.28 -2.22111 -1.26888 0
M  V30 18595 H 1704.92 -4.26768 -2.75375 0
M  V30 18596 H 1704.85 -3.20266 -4.18016 0
M  V30 18597 H 1707.34 -2.60552 -2.73717 0
M  V30 18598 H 1707.66 -5.76368 -5.14801 0
M  V30 18599 H 1706 -5.1788 -4.63492 0
M  V30 18600 H 1709.19 -3.28793 -3.33186 0
M  V30 18601 H 1709.37 -4.72792 -4.43139 0
M  V30 18602 N 1702.77 1.22662 -0.989529 0
M  V30 18603 C 1704.02 1.90632 -0.65897 0
M  V30 18604 C 1704.33 1.77942 0.812165 0
M  V30 18605 O 1705.54 2.40796 1.25417 0
M  V30 18606 C 1704 3.41763 -1.12809 0
M  V30 18607 C 1703.6 3.63097 -2.62421 0
M  V30 18608 C 1705.35 4.15454 -0.871698 0
M  V30 18609 C 1703.25 5.07911 -3.02953 0
M  V30 18610 H 1702.18 0.713847 -0.242772 0
M  V30 18611 H 1704.84 1.38942 -1.19864 0
M  V30 18612 H 1703.22 3.92616 -0.516564 0
M  V30 18613 H 1704.39 3.22751 -3.2889 0
M  V30 18614 H 1702.71 3.02733 -2.85905 0
M  V30 18615 H 1705.3 5.22181 -1.15027 0
M  V30 18616 H 1705.65 4.15856 0.192186 0
M  V30 18617 H 1706.18 3.70618 -1.44525 0
M  V30 18618 H 1702.92 5.12646 -4.08503 0
M  V30 18619 H 1702.44 5.49172 -2.41185 0
M  V30 18620 H 1704.12 5.76311 -2.94066 0
M  V30 18621 N 1704.25 0.762308 1.37937 0
M  V30 18622 C 1705.67 0.440871 1.5339 0
M  V30 18623 C 1705.87 -1.04483 1.72295 0
M  V30 18624 O 1704.92 -1.83078 1.73892 0
M  V30 18625 C 1706.23 1.24772 2.73592 0
M  V30 18626 C 1707.78 1.23867 2.87447 0
M  V30 18627 C 1708.26 2.02866 4.10621 0
M  V30 18628 N 1709.75 2.00171 4.17715 0
M  V30 18629 C 1710.48 2.58086 5.12034 0
M  V30 18630 N 1709.98 3.2475 6.11972 0
M  V30 18631 N 1711.77 2.47968 5.04449 0
M  V30 18632 H 1703.92 1.72506 1.23916 0
M  V30 18633 H 1706.19 0.731791 0.602649 0
M  V30 18634 H 1705.89 2.30016 2.66056 0
M  V30 18635 H 1705.77 0.870485 3.67018 0
M  V30 18636 H 1708.15 0.194255 2.9446 0
M  V30 18637 H 1708.23 1.65548 1.95007 0
M  V30 18638 H 1707.88 3.07323 4.04369 0
M  V30 18639 H 1707.81 1.58574 5.02157 0
M  V30 18640 H 1710.3 1.5163 3.46146 0
M  V30 18641 H 1710.61 3.66339 6.80453 0
M  V30 18642 H 1708.96 3.28846 6.12279 0
M  V30 18643 H 1712.15 1.95509 4.25316 0
M  V30 18644 H 1712.32 2.93398 5.77773 0
M  V30 18645 N 1705.73 -1.49049 0.51208 0
M  V30 18646 C 1706.98 -2.0208 -0.0284326 0
M  V30 18647 C 1707.3 -1.39303 -1.36454 0
M  V30 18648 O 1706.57 -0.552155 -1.87958 0
M  V30 18649 H 1705.15 -0.746878 -0.0134968 0
M  V30 18650 H 1707.81 -1.82954 0.671842 0
M  V30 18651 H 1706.9 -3.11739 -0.149966 0
M  V30 18652 N 1707.21 -0.246397 -1.55662 0
M  V30 18653 C 1708.15 0.66961 -2.22753 0
M  V30 18654 C 1709.15 1.18048 -1.21495 0
M  V30 18655 O 1710.35 1.13743 -1.39508 0
M  V30 18656 H 1706.73 0.234421 -0.714529 0
M  V30 18657 H 1708.7 0.0805962 -2.98291 0
M  V30 18658 C 1707.45 1.8558 -2.94033 0
M  V30 18659 H 1706.77 1.47184 -3.71721 0
M  V30 18660 H 1708.21 2.47397 -3.44341 0
M  V30 18661 C 1706.67 2.72664 -1.97879 0
M  V30 18662 O 1707.2 3.72177 -1.51154 0
M  V30 18663 N 1705.41 2.3922 -1.64991 0
M  V30 18664 H 1704.95 1.58348 -2.03184 0
M  V30 18665 H 1704.91 2.97762 -1.00922 0
M  V30 18666 N 1708.68 1.57577 0.026722 0
M  V30 18667 C 1709.91 1.9364 0.728771 0
M  V30 18668 C 1710.33 0.846352 1.68767 0
M  V30 18669 O 1709.68 -0.177038 1.81639 0
M  V30 18670 C 1709.73 3.29644 1.48381 0
M  V30 18671 O 1709.46 4.34462 0.563393 0
M  V30 18672 C 1710.96 3.80004 2.2828 0
M  V30 18673 H 1708.18 0.639025 0.204666 0
M  V30 18674 H 1710.72 2.04493 -0.016449 0
M  V30 18675 H 1708.88 3.20181 2.18089 0
M  V30 18676 H 1709.29 5.12982 1.09315 0
M  V30 18677 H 1710.76 4.77671 2.76649 0
M  V30 18678 H 1711.24 3.11319 3.09802 0
M  V30 18679 H 1711.85 3.92558 1.63642 0
M  V30 18680 N 1710.16 -0.299034 1.54737 0
M  V30 18681 C 1711.11 -1.38889 1.86581 0
M  V30 18682 C 1712.1 -1.52396 0.739723 0
M  V30 18683 O 1713.31 -1.5449 0.92374 0
M  V30 18684 H 1709.68 -0.463969 0.591808 0
M  V30 18685 H 1711.66 -1.09268 2.77674 0
M  V30 18686 C 1710.4 -2.74702 2.13152 0
M  V30 18687 H 1709.73 -2.65092 2.99277 0
M  V30 18688 H 1711.17 -3.49967 2.39372 0
M  V30 18689 C 1709.63 -3.23789 0.930706 0
M  V30 18690 O 1710.16 -4.01412 0.152193 0
M  V30 18691 N 1708.36 -2.81137 0.735545 0
M  V30 18692 H 1707.91 -2.1813 1.37029 0
M  V30 18693 H 1707.87 -3.1433 -0.0663452 0
M  V30 18694 N 1711.64 -1.47227 -0.562322 0
M  V30 18695 C 1712.92 -1.44069 -1.32301 0
M  V30 18696 C 1713.3 -0.134912 -2.10668 0
M  V30 18697 O 1712.64 0.883603 -2.10724 0
M  V30 18698 C 1712.85 -2.68309 -2.23184 0
M  V30 18699 C 1714.2 -3.1531 -2.84367 0
M  V30 18700 O 1715.23 -2.69001 -2.33489 0
M  V30 18701 O 1714.09 -3.95805 -3.7683 0
M  V30 18702 H 1711.18 -0.573892 -0.595464 0
M  V30 18703 H 1713.73 -1.59421 -0.581648 0
M  V30 18704 H 1712.5 -3.54884 -1.64842 0
M  V30 18705 H 1712.12 -2.55518 -3.04625 0
M  V30 18706 N 1713.12 0.808639 -1.35273 0
M  V30 18707 C 1714.35 1.59701 -1.31541 0
M  V30 18708 C 1714.76 1.88493 0.107541 0
M  V30 18709 O 1714.12 1.4864 1.05889 0
M  V30 18710 C 1714.17 2.9295 -2.11808 0
M  V30 18711 O 1713.89 2.65407 -3.48555 0
M  V30 18712 C 1715.39 3.87318 -2.15638 0
M  V30 18713 H 1712.61 0.495961 -0.451956 0
M  V30 18714 H 1715.15 1.00507 -1.78097 0
M  V30 18715 H 1713.31 3.48663 -1.68858 0
M  V30 18716 H 1713.72 3.50471 -3.90218 0
M  V30 18717 H 1715.2 4.77933 -2.76196 0
M  V30 18718 H 1715.67 4.23752 -1.15458 0
M  V30 18719 H 1716.28 3.3754 -2.58741 0
M  V30 18720 N 1714.6 1.19237 1.03055 0
M  V30 18721 C 1716.01 0.944224 1.28672 0
M  V30 18722 C 1716.21 -0.384378 1.978 0
M  V30 18723 O 1715.27 -1.11629 2.26484 0
M  V30 18724 C 1716.58 2.11704 2.13546 0
M  V30 18725 C 1718.13 2.15647 2.2686 0
M  V30 18726 C 1718.6 3.32375 3.15105 0
M  V30 18727 N 1720.1 3.323 3.22693 0
M  V30 18728 C 1720.83 4.19265 3.91158 0
M  V30 18729 N 1720.33 5.16381 4.61868 0
M  V30 18730 N 1722.12 4.07147 3.87541 0
M  V30 18731 H 1714.27 2.0472 0.565987 0
M  V30 18732 H 1716.53 0.895073 0.312328 0
M  V30 18733 H 1716.24 3.07845 1.70072 0
M  V30 18734 H 1716.11 2.08624 3.14254 0
M  V30 18735 H 1718.5 1.20078 2.69565 0
M  V30 18736 H 1718.58 2.22781 1.25708 0
M  V30 18737 H 1718.23 4.28222 2.73108 0
M  V30 18738 H 1718.16 3.22478 4.16312 0
M  V30 18739 H 1720.65 2.62 2.72331 0
M  V30 18740 H 1720.96 5.7909 5.11737 0
M  V30 18741 H 1719.3 5.20331 4.60739 0
M  V30 18742 H 1722.5 3.30555 3.31438 0
M  V30 18743 H 1722.67 4.75135 4.40625 0
M  V30 18744 N 1716.07 -1.22136 0.99602 0
M  V30 18745 C 1717.32 -1.9125 0.674632 0
M  V30 18746 C 1717.65 -1.77331 -0.791655 0
M  V30 18747 O 1716.93 -1.14419 -1.57285 0
M  V30 18748 C 1717.21 -3.43359 1.08521 0
M  V30 18749 C 1717.06 -3.66312 2.61028 0
M  V30 18750 C 1718.38 -4.3541 0.640795 0
M  V30 18751 H 1715.5 -0.694534 0.246559 0
M  V30 18752 H 1718.14 -1.4395 1.2401 0
M  V30 18753 H 1716.29 -3.83775 0.604071 0
M  V30 18754 H 1717.97 -3.3528 3.16836 0
M  V30 18755 H 1716.21 -3.10485 3.02954 0
M  V30 18756 H 1716.88 -4.72852 2.84807 0
M  V30 18757 H 1719.36 -4.02527 1.05411 0
M  V30 18758 H 1718.23 -5.40505 0.956337 0
M  V30 18759 H 1718.49 -4.39717 -0.458421 0
M  V30 18760 N 1717.55 -0.769612 -1.37531 0
M  V30 18761 C 1718.97 -0.449 -1.53154 0
M  V30 18762 C 1719.17 1.03568 -1.72847 0
M  V30 18763 O 1718.22 1.82154 -1.74861 0
M  V30 18764 C 1719.54 -1.26221 -2.72926 0
M  V30 18765 C 1721.09 -1.2539 -2.86786 0
M  V30 18766 C 1721.56 -2.05041 -4.09539 0
M  V30 18767 N 1723.05 -2.02384 -4.16647 0
M  V30 18768 C 1723.79 -2.60798 -5.10658 0
M  V30 18769 N 1723.28 -3.27991 -6.10241 0
M  V30 18770 N 1725.08 -2.5064 -5.03126 0
M  V30 18771 H 1717.23 -1.73161 -1.23 0
M  V30 18772 H 1719.49 -0.734977 -0.598759 0
M  V30 18773 H 1719.2 -2.31423 -2.64832 0
M  V30 18774 H 1719.07 -0.889937 -3.66551 0
M  V30 18775 H 1721.46 -0.209869 -2.94353 0
M  V30 18776 H 1721.54 -1.6658 -1.94126 0
M  V30 18777 H 1721.18 -3.09464 -4.02734 0
M  V30 18778 H 1721.11 -1.61234 -5.01309 0
M  V30 18779 H 1723.6 -1.53464 -3.45337 0
M  V30 18780 H 1723.92 -3.69942 -6.785 0
M  V30 18781 H 1722.26 -3.32089 -6.10526 0
M  V30 18782 H 1725.45 -1.97762 -4.24273 0
M  V30 18783 H 1725.62 -2.96458 -5.76209 0
M  V30 18784 N 1719.03 1.48775 -0.519977 0
M  V30 18785 C 1720.28 2.02092 0.0177154 0
M  V30 18786 C 1720.6 1.40024 1.35714 0
M  V30 18787 O 1719.87 0.562115 1.87662 0
M  V30 18788 H 1718.45 0.746939 0.00953578 0
M  V30 18789 H 1721.11 1.82595 -0.681535 0
M  V30 18790 H 1720.21 3.11815 0.133431 0
M  V30 18791 N 1720.51 0.254649 1.55529 0
M  V30 18792 C 1721.76 -0.367205 1.98736 0
M  V30 18793 C 1722.08 -1.57899 1.14424 0
M  V30 18794 O 1721.35 -1.94559 0.228849 0
M  V30 18795 H 1719.93 -0.138663 0.734017 0
M  V30 18796 H 1722.59 0.355236 1.91635 0
M  V30 18797 H 1721.69 -0.671069 3.048 0
M  V30 18798 N 1721.99 -1.57589 -0.0183649 0
M  V30 18799 C 1723.26 -1.80938 -0.743021 0
M  V30 18800 C 1723.64 -0.855272 -1.92998 0
M  V30 18801 O 1722.99 0.100181 -2.2828 0
M  V30 18802 C 1723.2 -3.28945 -1.16602 0
M  V30 18803 C 1724.55 -3.94208 -1.5775 0
M  V30 18804 O 1725.57 -3.33159 -1.26031 0
M  V30 18805 O 1724.43 -5.01716 -2.16663 0
M  V30 18806 H 1721.53 -0.744435 -0.360203 0
M  V30 18807 H 1724.07 -1.69699 0.00567963 0
M  V30 18808 H 1722.84 -3.89996 -0.319154 0
M  V30 18809 H 1722.47 -3.45113 -1.9744 0
M  V30 18810 N 1723.46 0.290824 -1.54893 0
M  V30 18811 C 1724.71 1.02244 -1.73865 0
M  V30 18812 C 1725.03 1.88079 -0.537166 0
M  V30 18813 O 1726.23 2.64584 -0.608908 0
M  V30 18814 C 1724.69 1.86762 -3.07649 0
M  V30 18815 C 1724.3 1.0588 -4.35308 0
M  V30 18816 C 1726.04 2.59461 -3.35976 0
M  V30 18817 C 1723.95 1.89734 -5.60138 0
M  V30 18818 H 1722.88 0.385455 -0.648028 0
M  V30 18819 H 1725.53 0.27893 -1.81368 0
M  V30 18820 H 1723.91 2.6514 -2.94137 0
M  V30 18821 H 1725.08 0.320443 -4.59684 0
M  V30 18822 H 1723.4 0.447169 -4.13992 0
M  V30 18823 H 1726 3.22569 -4.26442 0
M  V30 18824 H 1726.34 3.28823 -2.55306 0
M  V30 18825 H 1726.87 1.88126 -3.50505 0
M  V30 18826 H 1723.61 1.24825 -6.43505 0
M  V30 18827 H 1723.13 2.61215 -5.39932 0
M  V30 18828 H 1724.81 2.47535 -5.97775 0
M  V30 18829 N 1724.94 1.47523 0.554506 0
M  V30 18830 C 1725.87 1.63093 1.67102 0
M  V30 18831 C 1726.85 0.480298 1.63178 0
M  V30 18832 O 1728.04 0.709956 1.80757 0
M  V30 18833 C 1725.17 1.64751 3.05736 0
M  V30 18834 C 1724.12 2.79068 3.24507 0
M  V30 18835 C 1723.45 2.65801 4.63955 0
M  V30 18836 C 1724.75 4.20631 3.09623 0
M  V30 18837 H 1726.44 2.56561 1.54328 0
M  V30 18838 H 1723.99 1.2347 0.741023 0
M  V30 18839 H 1725.94 1.74234 3.83693 0
M  V30 18840 H 1724.67 0.678453 3.19475 0
M  V30 18841 H 1723.32 2.691 2.48959 0
M  V30 18842 H 1722.97 1.66917 4.74497 0
M  V30 18843 H 1722.67 3.42494 4.77464 0
M  V30 18844 H 1724.2 2.77216 5.44044 0
M  V30 18845 H 1725.61 4.31562 3.77396 0
M  V30 18846 H 1724.01 4.98133 3.3464 0
M  V30 18847 H 1725.08 4.38809 2.06336 0
M  V30 18848 N 1726.42 -0.801453 1.357 0
M  V30 18849 C 1727.65 -1.58771 1.32194 0
M  V30 18850 C 1728.06 -1.88927 -0.101529 0
M  V30 18851 O 1727.4 -1.49649 -1.0654 0
M  V30 18852 C 1727.46 -2.94186 2.06627 0
M  V30 18853 C 1727.13 -2.86819 3.55786 0
M  V30 18854 C 1728.12 -2.59898 4.50276 0
M  V30 18855 C 1725.81 -3.05775 3.98506 0
M  V30 18856 C 1727.8 -2.52017 5.85462 0
M  V30 18857 C 1725.49 -2.97516 5.33786 0
M  V30 18858 C 1726.49 -2.70673 6.27076 0
M  V30 18859 O 1726.18 -2.62387 7.59874 0
M  V30 18860 H 1725.91 -0.499518 0.455475 0
M  V30 18861 H 1728.46 -1.00358 1.79213 0
M  V30 18862 H 1726.69 -3.54602 1.54253 0
M  V30 18863 H 1728.38 -3.55368 1.96133 0
M  V30 18864 H 1729.15 -2.44968 4.18588 0
M  V30 18865 H 1725.03 -3.25678 3.26274 0
M  V30 18866 H 1728.57 -2.30985 6.58249 0
M  V30 18867 H 1724.47 -3.12006 5.65086 0
M  V30 18868 H 1725.24 -2.77957 7.69859 0
M  V30 18869 N 1727.9 -1.19782 -1.02421 0
M  V30 18870 C 1729.15 -1.00331 -1.75897 0
M  V30 18871 C 1729.47 0.465413 -1.8885 0
M  V30 18872 O 1728.73 1.36182 -1.40545 0
M  V30 18873 C 1729.03 -1.62297 -3.18425 0
M  V30 18874 C 1728.69 -3.12059 -3.25468 0
M  V30 18875 C 1727.36 -3.52931 -3.27098 0
M  V30 18876 C 1729.71 -4.08065 -3.24241 0
M  V30 18877 C 1727.04 -4.88351 -3.25162 0
M  V30 18878 C 1729.39 -5.43421 -3.23846 0
M  V30 18879 C 1728.05 -5.83717 -3.23775 0
M  V30 18880 H 1727.32 -0.367139 -0.643654 0
M  V30 18881 H 1729.97 -1.49094 -1.2018 0
M  V30 18882 H 1728.27 -1.05777 -3.77251 0
M  V30 18883 H 1729.97 -1.44772 -3.73955 0
M  V30 18884 H 1726.56 -2.79496 -3.24931 0
M  V30 18885 H 1730.74 -3.77528 -3.22159 0
M  V30 18886 H 1726 -5.18845 -3.23434 0
M  V30 18887 H 1730.17 -6.17566 -3.21847 0
M  V30 18888 H 1727.8 -6.88623 -3.22029 0
M  V30 18889 N 1729.38 1.21606 -1.00248 0
M  V30 18890 C 1730.65 1.86191 -0.599348 0
M  V30 18891 C 1731.03 1.89847 0.923104 0
M  V30 18892 O 1730.38 1.39595 1.80902 0
M  V30 18893 C 1730.59 3.26576 -1.23082 0
M  V30 18894 C 1731.94 4.02989 -1.33736 0
M  V30 18895 O 1732.96 3.35877 -1.18595 0
M  V30 18896 O 1731.82 5.23142 -1.58065 0
M  V30 18897 H 1728.92 0.801204 -0.204943 0
M  V30 18898 H 1731.46 1.29309 -1.09897 0
M  V30 18899 H 1730.24 3.18601 -2.27176 0
M  V30 18900 H 1729.86 3.91074 -0.717394 0
M  V30 18901 N 1730.86 0.776895 1.37121 0
M  V30 18902 C 1731.79 0.11287 2.27921 0
M  V30 18903 C 1732.77 -0.703619 1.46588 0
M  V30 18904 O 1733.95 -0.677283 1.75912 0
M  V30 18905 C 1731.08 -0.846221 3.27959 0
M  V30 18906 C 1730.12 -0.11309 4.2635 0
M  V30 18907 S 1730.96 1.20246 5.21825 0
M  V30 18908 C 1732.11 0.247048 6.25412 0
M  V30 18909 H 1732.35 0.882787 2.83891 0
M  V30 18910 H 1729.88 0.570523 1.43473 0
M  V30 18911 H 1731.84 -1.39416 3.861 0
M  V30 18912 H 1730.5 -1.58929 2.70925 0
M  V30 18913 H 1729.69 -0.840352 4.96945 0
M  V30 18914 H 1729.29 0.364002 3.72224 0
M  V30 18915 H 1731.58 -0.578684 6.75024 0
M  V30 18916 H 1732.53 0.921318 7.02081 0
M  V30 18917 H 1732.94 -0.144038 5.64316 0
M  V30 18918 N 1732.33 -1.48497 0.527859 0
M  V30 18919 C 1733.56 -2.069 -0.00302594 0
M  V30 18920 C 1733.98 -1.38469 -1.28342 0
M  V30 18921 O 1733.33 -0.471524 -1.76303 0
M  V30 18922 C 1733.38 -3.60749 -0.232871 0
M  V30 18923 O 1733.11 -4.26609 0.996797 0
M  V30 18924 C 1734.61 -4.35941 -0.804376 0
M  V30 18925 H 1731.83 -0.67021 0.0325559 0
M  V30 18926 H 1734.37 -1.90916 0.732897 0
M  V30 18927 H 1732.53 -3.76346 -0.918837 0
M  V30 18928 H 1732.94 -5.18725 0.776217 0
M  V30 18929 H 1734.41 -5.4437 -0.914635 0
M  V30 18930 H 1734.89 -4.00225 -1.80876 0
M  V30 18931 H 1735.5 -4.25017 -0.155041 0
M  V30 18932 N 1733.81 -0.262893 -1.55392 0
M  V30 18933 C 1735.06 0.357939 -1.98499 0
M  V30 18934 C 1735.37 1.5789 -1.15456 0
M  V30 18935 O 1736.58 2.2719 -1.4865 0
M  V30 18936 C 1735.04 0.688205 -3.53259 0
M  V30 18937 C 1734.64 -0.512257 -4.45062 0
M  V30 18938 C 1736.39 1.27234 -4.04984 0
M  V30 18939 C 1734.29 -0.157257 -5.91191 0
M  V30 18940 H 1733.22 0.137514 -0.741354 0
M  V30 18941 H 1735.88 -0.365626 -1.79821 0
M  V30 18942 H 1734.26 1.47034 -3.67692 0
M  V30 18943 H 1735.43 -1.28935 -4.42394 0
M  V30 18944 H 1733.75 -1.0124 -4.03905 0
M  V30 18945 H 1736.34 1.55155 -5.11694 0
M  V30 18946 H 1736.69 2.20217 -3.53285 0
M  V30 18947 H 1737.22 0.552763 -3.93941 0
M  V30 18948 H 1733.96 -1.05464 -6.4696 0
M  V30 18949 H 1733.48 0.583319 -5.96957 0
M  V30 18950 H 1735.16 0.254892 -6.46498 0
M  V30 18951 N 1735.29 1.57597 0.0100073 0
M  V30 18952 C 1736.24 2.089 1.02292 0
M  V30 18953 C 1737.23 1.00681 1.36234 0
M  V30 18954 O 1738.44 1.19155 1.34915 0
M  V30 18955 H 1734.81 0.666899 0.347491 0
M  V30 18956 H 1736.78 2.9301 0.56458 0
M  V30 18957 C 1735.53 2.59942 2.30923 0
M  V30 18958 H 1734.86 3.4284 2.05672 0
M  V30 18959 H 1736.3 2.99528 3.00098 0
M  V30 18960 C 1734.75 1.50907 3.01212 0
M  V30 18961 O 1735.28 0.886216 3.91802 0
M  V30 18962 N 1733.49 1.23895 2.62866 0
M  V30 18963 H 1733.04 1.7473 1.89281 0
M  V30 18964 H 1733 0.511591 3.1021 0
M  V30 18965 N 1736.77 -0.282606 1.55045 0
M  V30 18966 C 1737.72 -1.36902 1.88044 0
M  V30 18967 C 1738.71 -1.51603 0.755845 0
M  V30 18968 O 1739.92 -1.53501 0.940074 0
M  V30 18969 H 1736.29 -0.457666 0.596696 0
M  V30 18970 H 1738.26 -1.06317 2.78818 0
M  V30 18971 C 1737.01 -2.72426 2.16054 0
M  V30 18972 H 1736.33 -2.61903 3.02071 0
M  V30 18973 H 1737.77 -3.47409 2.43071 0
M  V30 18974 C 1736.23 -3.22784 0.964996 0
M  V30 18975 O 1736.76 -4.01228 0.194759 0
M  V30 18976 N 1734.97 -2.80341 0.765322 0
M  V30 18977 H 1734.52 -2.16665 1.39335 0
M  V30 18978 H 1734.47 -3.14383 -0.0330026 0
M  V30 18979 N 1738.25 -1.47815 -0.546675 0
M  V30 18980 C 1739.19 -1.61092 -1.65282 0
M  V30 18981 C 1740.16 -0.453531 -1.59788 0
M  V30 18982 O 1741.35 -0.674923 -1.78464 0
M  V30 18983 C 1738.49 -1.64103 -3.03585 0
M  V30 18984 C 1737.6 -2.90832 -3.19438 0
M  V30 18985 C 1736.74 -2.85112 -4.48201 0
M  V30 18986 C 1735.77 -4.06619 -4.57523 0
M  V30 18987 N 1734.91 -3.99073 -5.77655 0
M  V30 18988 H 1739.75 -2.55561 -1.53273 0
M  V30 18989 H 1737.29 -1.26752 -0.746477 0
M  V30 18990 H 1739.25 -1.63832 -3.83686 0
M  V30 18991 H 1737.88 -0.731382 -3.14405 0
M  V30 18992 H 1736.93 -3.00924 -2.327 0
M  V30 18993 H 1738.24 -3.80783 -3.22188 0
M  V30 18994 H 1737.39 -2.83149 -5.36574 0
M  V30 18995 H 1736.13 -1.92862 -4.47946 0
M  V30 18996 H 1735.14 -4.08876 -3.67561 0
M  V30 18997 H 1736.36 -5.00009 -4.5953 0
M  V30 18998 H 1734.31 -3.09633 -5.78328 0
M  V30 18999 H 1734.23 -4.82713 -5.81829 0
M  V30 19000 H 1735.49 -4.01143 -6.6836 0
M  V30 19001 N 1739.72 0.794246 -1.36123 0
M  V30 19002 C 1740.69 1.88828 -1.2991 0
M  V30 19003 C 1741.69 1.59451 -0.207839 0
M  V30 19004 O 1742.88 1.67953 -0.462321 0
M  V30 19005 C 1740.01 3.25511 -1.01269 0
M  V30 19006 H 1741.2 1.95753 -2.27202 0
M  V30 19007 H 1738.75 0.991505 -1.20826 0
M  V30 19008 H 1739.49 3.2427 -0.0441535 0
M  V30 19009 H 1739.27 3.48221 -1.80234 0
M  V30 19010 H 1740.76 4.0557 -0.995142 0
M  V30 19011 N 1741.2 1.20323 1.01785 0
M  V30 19012 C 1742.43 1.03671 1.78706 0
M  V30 19013 C 1742.84 -0.417188 1.84543 0
M  V30 19014 O 1742.18 -1.30146 1.29645 0
M  V30 19015 C 1742.24 1.54318 3.24694 0
M  V30 19016 C 1741.91 3.02598 3.42466 0
M  V30 19017 C 1742.91 4.00267 3.31787 0
M  V30 19018 C 1740.59 3.41531 3.68323 0
M  V30 19019 C 1742.58 5.34858 3.46707 0
M  V30 19020 C 1740.27 4.76278 3.82887 0
M  V30 19021 C 1741.27 5.7275 3.72083 0
M  V30 19022 O 1740.96 7.05055 3.86203 0
M  V30 19023 H 1740.69 0.365174 0.56888 0
M  V30 19024 H 1743.24 1.59826 1.29014 0
M  V30 19025 H 1741.47 0.925474 3.75462 0
M  V30 19026 H 1743.16 1.33705 3.83246 0
M  V30 19027 H 1743.93 3.71534 3.11749 0
M  V30 19028 H 1739.81 2.66983 3.75821 0
M  V30 19029 H 1743.35 6.10142 3.3819 0
M  V30 19030 H 1739.25 5.04702 4.02425 0
M  V30 19031 H 1740.02 7.12284 4.03228 0
M  V30 19032 N 1742.68 -1.21073 1.00892 0
M  V30 19033 C 1743.63 -2.25613 0.565829 0
M  V30 19034 C 1744.62 -1.64812 -0.391588 0
M  V30 19035 O 1745.83 -1.78078 -0.262352 0
M  V30 19036 H 1742.2 -0.733755 0.164643 0
M  V30 19037 H 1744.17 -2.60321 1.45862 0
M  V30 19038 C 1742.92 -3.47589 -0.087861 0
M  V30 19039 H 1742.25 -3.94647 0.639828 0
M  V30 19040 H 1743.69 -4.22459 -0.361115 0
M  V30 19041 C 1742.14 -3.09609 -1.32829 0
M  V30 19042 O 1742.67 -3.20449 -2.4223 0
M  V30 19043 N 1740.88 -2.64234 -1.2095 0
M  V30 19044 H 1740.43 -2.55613 -0.319301 0
M  V30 19045 H 1740.39 -2.39191 -2.04046 0
M  V30 19046 N 1744.16 -0.784156 -1.36707 0
M  V30 19047 C 1745.09 -0.193081 -2.327 0
M  V30 19048 C 1746.07 0.668999 -1.56392 0
M  V30 19049 O 1747.25 0.603908 -1.84571 0
M  V30 19050 C 1744.38 0.677092 -3.40636 0
M  V30 19051 C 1743.34 -0.0846718 -4.27916 0
M  V30 19052 C 1742.66 0.905754 -5.26973 0
M  V30 19053 C 1743.96 -1.27085 -5.06603 0
M  V30 19054 H 1745.66 -0.995029 -2.82382 0
M  V30 19055 H 1743.2 -0.479929 -1.35767 0
M  V30 19056 H 1745.16 1.1005 -4.06776 0
M  V30 19057 H 1743.88 1.51169 -2.89509 0
M  V30 19058 H 1742.54 -0.488992 -3.63324 0
M  V30 19059 H 1742.19 1.73524 -4.72121 0
M  V30 19060 H 1741.89 0.400524 -5.86233 0
M  V30 19061 H 1743.41 1.32784 -5.95987 0
M  V30 19062 H 1744.83 -0.923469 -5.65814 0
M  V30 19063 H 1743.22 -1.70901 -5.7525 0
M  V30 19064 H 1744.29 -2.06882 -4.38552 0
M  V30 19065 N 1745.64 1.48215 -0.535727 0
M  V30 19066 C 1746.88 2.025 -0.00372753 0
M  V30 19067 C 1747.21 1.41227 1.33735 0
M  V30 19068 O 1746.47 0.549544 1.87826 0
M  V30 19069 C 1746.77 3.57036 0.161344 0
M  V30 19070 C 1746.43 4.37122 -1.10611 0
M  V30 19071 C 1745.09 4.58724 -1.45346 0
M  V30 19072 C 1747.45 4.83469 -1.94698 0
M  V30 19073 C 1744.77 5.2392 -2.64055 0
M  V30 19074 C 1747.13 5.49973 -3.1259 0
M  V30 19075 C 1745.79 5.69812 -3.47664 0
M  V30 19076 H 1745.06 0.740999 -0.001364 0
M  V30 19077 H 1747.71 1.78133 -0.70291 0
M  V30 19078 H 1746.01 3.80274 0.943337 0
M  V30 19079 H 1747.71 3.96666 0.587981 0
M  V30 19080 H 1744.3 4.20573 -0.825608 0
M  V30 19081 H 1748.48 4.66577 -1.69173 0
M  V30 19082 H 1743.74 5.37477 -2.91424 0
M  V30 19083 H 1747.91 5.84852 -3.78049 0
M  V30 19084 H 1745.54 6.20103 -4.39746 0
M  V30 19085 N 1747.11 0.27113 1.5525 0
M  V30 19086 C 1748.05 -0.659325 2.18468 0
M  V30 19087 C 1749.03 -1.15515 1.14433 0
M  V30 19088 O 1750.21 -1.22885 1.42939 0
M  V30 19089 C 1747.34 -1.89873 2.80474 0
M  V30 19090 C 1746.38 -1.53872 3.97776 0
M  V30 19091 S 1747.22 -0.620335 5.31895 0
M  V30 19092 C 1748.37 -1.86821 5.97368 0
M  V30 19093 H 1748.6 -0.122165 2.97049 0
M  V30 19094 H 1746.14 0.0554132 1.54301 0
M  V30 19095 H 1748.1 -2.61014 3.16831 0
M  V30 19096 H 1746.76 -2.40703 2.01794 0
M  V30 19097 H 1745.95 -2.46087 4.39838 0
M  V30 19098 H 1745.55 -0.907534 3.62822 0
M  V30 19099 H 1747.84 -2.81261 6.16359 0
M  V30 19100 H 1748.79 -1.49066 6.92232 0
M  V30 19101 H 1749.19 -2.03133 5.26685 0
M  V30 19102 N 1748.59 -1.576 -0.00164943 0
M  V30 19103 C 1749.54 -2.08318 -0.993594 0
M  V30 19104 C 1750.51 -0.978234 -1.34238 0
M  V30 19105 O 1751.69 -1.25056 -1.44103 0
M  V30 19106 C 1748.83 -2.58982 -2.28084 0
M  V30 19107 C 1747.95 -3.83372 -1.99123 0
M  V30 19108 C 1747.08 -4.22543 -3.21917 0
M  V30 19109 C 1746.12 -5.39774 -2.88635 0
M  V30 19110 N 1745.26 -5.74247 -4.03962 0
M  V30 19111 H 1750.1 -2.92802 -0.554154 0
M  V30 19112 H 1747.64 -1.44748 -0.261973 0
M  V30 19113 H 1749.59 -2.86434 -3.03334 0
M  V30 19114 H 1748.22 -1.77374 -2.697 0
M  V30 19115 H 1747.28 -3.62838 -1.14248 0
M  V30 19116 H 1748.59 -4.68722 -1.70591 0
M  V30 19117 H 1747.74 -4.51268 -4.05514 0
M  V30 19118 H 1746.48 -3.35899 -3.53587 0
M  V30 19119 H 1745.49 -5.10774 -2.03445 0
M  V30 19120 H 1746.71 -6.28094 -2.58215 0
M  V30 19121 H 1744.66 -4.9056 -4.35531 0
M  V30 19122 H 1744.57 -6.54167 -3.78948 0
M  V30 19123 H 1745.84 -6.07563 -4.88352 0
M  V30 19124 N 1750.07 0.274379 -1.55193 0
M  V30 19125 C 1751.02 1.35903 -1.88767 0
M  V30 19126 C 1752.01 1.512 -0.763874 0
M  V30 19127 O 1753.22 1.53 -0.948201 0
M  V30 19128 H 1749.59 0.454495 -0.599114 0
M  V30 19129 H 1751.56 1.04837 -2.79378 0
M  V30 19130 C 1750.31 2.71277 -2.17496 0
M  V30 19131 H 1749.64 2.60297 -3.03456 0
M  V30 19132 H 1751.08 3.46115 -2.44909 0
M  V30 19133 C 1749.54 3.22268 -0.982101 0
M  V30 19134 O 1750.07 4.01119 -0.216035 0
M  V30 19135 N 1748.27 2.79931 -0.780179 0
M  V30 19136 H 1747.82 2.15923 -1.40482 0
M  V30 19137 H 1747.78 3.14396 0.0163297 0
M  V30 19138 N 1751.55 1.48103 0.538828 0
M  V30 19139 C 1752.46 1.64632 1.67133 0
M  V30 19140 C 1753.47 0.528917 1.65766 0
M  V30 19141 O 1754.65 0.798849 1.84879 0
M  V30 19142 C 1751.72 1.67391 3.03614 0
M  V30 19143 C 1750.78 2.90694 3.15904 0
M  V30 19144 C 1750.01 2.93311 4.45875 0
M  V30 19145 O 1750.23 2.04596 5.32444 0
M  V30 19146 O 1749.17 3.85384 4.62345 0
M  V30 19147 H 1752.99 2.60496 1.56126 0
M  V30 19148 H 1750.58 1.31401 0.710925 0
M  V30 19149 H 1752.46 1.71777 3.84799 0
M  V30 19150 H 1751.13 0.746982 3.14963 0
M  V30 19151 H 1750.04 2.91844 2.34047 0
M  V30 19152 H 1751.37 3.82742 3.09467 0
M  V30 19153 N 1753.03 -0.787016 1.36542 0
M  V30 19154 C 1754.25 -1.57588 1.34065 0
M  V30 19155 C 1754.67 -1.88641 -0.0775397 0
M  V30 19156 O 1754.03 -1.50306 -1.03511 0
M  V30 19157 C 1754.08 -2.89543 2.16442 0
M  V30 19158 O 1753.8 -2.59828 3.52734 0
M  V30 19159 C 1755.3 -3.83838 2.21773 0
M  V30 19160 H 1752.52 -0.488708 0.459789 0
M  V30 19161 H 1755.06 -0.976614 1.79673 0
M  V30 19162 H 1753.22 -3.45933 1.74383 0
M  V30 19163 H 1753.63 -3.44219 3.95744 0
M  V30 19164 H 1755.11 -4.73478 2.83765 0
M  V30 19165 H 1755.58 -4.21862 1.22185 0
M  V30 19166 H 1756.19 -3.33381 2.64078 0
M  V30 19167 N 1754.5 -1.20861 -1.01145 0
M  V30 19168 C 1755.44 -0.905387 -2.09471 0
M  V30 19169 C 1756.42 0.144563 -1.61956 0
M  V30 19170 O 1757.6 0.0170118 -1.88492 0
M  V30 19171 C 1754.73 -0.358266 -3.368 0
M  V30 19172 C 1753.77 -1.39001 -4.03213 0
M  V30 19173 S 1754.61 -2.95692 -4.4646 0
M  V30 19174 C 1755.76 -2.42569 -5.76984 0
M  V30 19175 H 1755.99 -1.82274 -2.34869 0
M  V30 19176 H 1753.53 -1.03765 -1.14334 0
M  V30 19177 H 1755.49 -0.0491564 -4.10471 0
M  V30 19178 H 1754.15 0.537669 -3.09464 0
M  V30 19179 H 1753.34 -0.956674 -4.94837 0
M  V30 19180 H 1752.94 -1.64686 -3.35789 0
M  V30 19181 H 1755.23 -1.82652 -6.52414 0
M  V30 19182 H 1756.18 -3.3261 -6.25121 0
M  V30 19183 H 1756.58 -1.8451 -5.33494 0
M  V30 19184 N 1755.98 1.20536 -1.01532 0
M  V30 19185 C 1757.21 1.93571 -0.722055 0
M  V30 19186 C 1757.62 1.74923 0.721011 0
M  V30 19187 O 1756.96 1.05961 1.5006 0
M  V30 19188 C 1757.03 3.45989 -0.97632 0
M  V30 19189 C 1756.69 3.88397 -2.40825 0
M  V30 19190 C 1757.69 3.94262 -3.38901 0
M  V30 19191 C 1755.37 4.20422 -2.74865 0
M  V30 19192 C 1757.37 4.3156 -4.69078 0
M  V30 19193 C 1755.05 4.57395 -4.05256 0
M  V30 19194 C 1756.05 4.62937 -5.02174 0
M  V30 19195 O 1755.74 4.99063 -6.30232 0
M  V30 19196 H 1755.47 0.622101 -0.264511 0
M  V30 19197 H 1758.02 1.5401 -1.35905 0
M  V30 19198 H 1756.25 3.85669 -0.282161 0
M  V30 19199 H 1757.94 4.00251 -0.674832 0
M  V30 19200 H 1758.71 3.69686 -3.13938 0
M  V30 19201 H 1754.59 4.153 -2.00117 0
M  V30 19202 H 1758.13 4.358 -5.44724 0
M  V30 19203 H 1754.03 4.81427 -4.29998 0
M  V30 19204 H 1754.8 5.1706 -6.34501 0
M  V30 19205 N 1757.46 0.791395 1.36289 0
M  V30 19206 C 1758.42 0.197069 2.28351 0
M  V30 19207 C 1759.42 -0.606748 1.48913 0
M  V30 19208 O 1760.61 -0.427453 1.68874 0
M  V30 19209 C 1757.75 -0.727009 3.33058 0
M  V30 19210 H 1758.94 1.00885 2.82422 0
M  V30 19211 H 1756.49 0.560959 1.45887 0
M  V30 19212 H 1757.23 -1.56306 2.84146 0
M  V30 19213 H 1757.01 -0.152537 3.91803 0
M  V30 19214 H 1758.5 -1.13765 4.01805 0
M  V30 19215 N 1758.94 -1.47929 0.54358 0
M  V30 19216 C 1760.22 -1.95535 -0.0505687 0
M  V30 19217 C 1760.6 -1.48603 -1.49934 0
M  V30 19218 O 1759.94 -0.718655 -2.16905 0
M  V30 19219 C 1760.15 -3.48907 0.0807654 0
M  V30 19220 C 1761.5 -4.2454 -0.0715671 0
M  V30 19221 O 1762.53 -3.56199 0.007637 0
M  V30 19222 O 1761.39 -5.45975 -0.239596 0
M  V30 19223 H 1758.48 -0.823883 -0.0717396 0
M  V30 19224 H 1761.03 -1.58391 0.60914 0
M  V30 19225 H 1759.8 -3.75828 1.08944 0
M  V30 19226 H 1759.42 -3.92781 -0.617178 0
M  V30 19227 N 1760.42 -0.27936 -1.55104 0
M  V30 19228 C 1761.37 0.62221 -2.24123 0
M  V30 19229 C 1762.36 1.15445 -1.23971 0
M  V30 19230 O 1763.57 1.10759 -1.41889 0
M  V30 19231 H 1759.94 0.219212 -0.71934 0
M  V30 19232 H 1761.91 0.0173061 -2.98395 0
M  V30 19233 C 1760.66 1.79301 -2.97903 0
M  V30 19234 H 1759.98 1.39266 -3.7476 0
M  V30 19235 H 1761.42 2.40038 -3.49511 0
M  V30 19236 C 1759.88 2.68405 -2.03618 0
M  V30 19237 O 1760.41 3.68887 -1.59014 0
M  V30 19238 N 1758.62 2.35666 -1.70028 0
M  V30 19239 H 1758.17 1.54003 -2.06497 0
M  V30 19240 H 1758.12 2.95554 -1.07215 0
M  V30 19241 N 1761.9 1.57599 -0.0067085 0
M  V30 19242 C 1762.85 2.05327 0.991194 0
M  V30 19243 C 1763.83 0.949302 1.29912 0
M  V30 19244 O 1765.02 1.21303 1.28898 0
M  V30 19245 C 1762.15 2.56563 2.28102 0
M  V30 19246 C 1761.24 3.73849 2.00244 0
M  V30 19247 N 1761.63 4.85291 1.4257 0
M  V30 19248 C 1759.93 3.81908 2.30353 0
M  V30 19249 C 1760.63 5.6668 1.31336 0
M  V30 19250 N 1759.6 5.12889 1.80127 0
M  V30 19251 H 1763.4 2.88899 0.539877 0
M  V30 19252 H 1760.92 1.61178 0.198835 0
M  V30 19253 H 1762.92 2.89035 3.0044 0
M  V30 19254 H 1761.58 1.74412 2.7388 0
M  V30 19255 H 1762.59 5.06004 1.10363 0
M  V30 19256 H 1759.26 3.10624 2.7896 0
M  V30 19257 H 1760.65 6.66253 0.869302 0
M  V30 19258 N 1763.37 -0.266145 1.55336 0
M  V30 19259 C 1764.6 -1.01915 1.80633 0
M  V30 19260 C 1765.02 -1.78897 0.581172 0
M  V30 19261 O 1764.38 -1.75118 -0.469399 0
M  V30 19262 C 1764.43 -1.948 3.03456 0
M  V30 19263 O 1763.53 -3.03678 2.79022 0
M  V30 19264 H 1762.87 -0.29102 0.596828 0
M  V30 19265 H 1765.4 -0.292973 2.02492 0
M  V30 19266 H 1765.41 -2.36626 3.32373 0
M  V30 19267 H 1764.09 -1.38182 3.92273 0
M  V30 19268 H 1762.67 -2.66118 2.61219 0
M  V30 19269 N 1764.85 -1.48386 -0.530967 0
M  V30 19270 C 1766.08 -1.60014 -1.31161 0
M  V30 19271 C 1766.49 -0.260028 -1.87001 0
M  V30 19272 O 1765.85 0.750547 -1.66352 0
M  V30 19273 C 1765.9 -2.64597 -2.46315 0
M  V30 19274 O 1765.62 -3.93407 -1.92777 0
M  V30 19275 C 1767.12 -2.86654 -3.38149 0
M  V30 19276 H 1764.34 -0.539553 -0.398902 0
M  V30 19277 H 1766.89 -1.94207 -0.64063 0
M  V30 19278 H 1765.04 -2.33265 -3.093 0
M  V30 19279 H 1765.46 -4.50774 -2.68147 0
M  V30 19280 H 1766.93 -3.63634 -4.153 0
M  V30 19281 H 1767.41 -1.95441 -3.93319 0
M  V30 19282 H 1768.01 -3.19285 -2.80957 0
M  V30 19283 N 1766.33 0.779763 -1.36958 0
M  V30 19284 C 1767.24 1.92394 -1.34245 0
M  V30 19285 C 1768.26 1.72292 -0.243187 0
M  V30 19286 O 1769.43 1.95665 -0.477211 0
M  V30 19287 C 1766.5 3.27402 -1.14057 0
M  V30 19288 C 1765.56 3.60213 -2.33548 0
M  V30 19289 C 1764.79 4.88779 -2.14314 0
M  V30 19290 O 1765.01 5.59231 -1.12327 0
M  V30 19291 O 1763.95 5.20469 -3.02316 0
M  V30 19292 H 1767.77 1.97633 -2.30596 0
M  V30 19293 H 1765.36 0.921386 -1.17605 0
M  V30 19294 H 1767.24 4.08172 -1.04755 0
M  V30 19295 H 1765.92 3.23033 -0.207744 0
M  V30 19296 H 1764.82 2.7971 -2.48421 0
M  V30 19297 H 1766.16 3.69317 -3.25371 0
M  V30 19298 N 1767.81 1.21396 1.00503 0
M  V30 19299 C 1769.08 0.93995 1.71535 0
M  V30 19300 C 1769.46 -0.548247 2.03856 0
M  V30 19301 O 1768.81 -1.51308 1.71226 0
M  V30 19302 C 1769.02 1.82501 2.9748 0
M  V30 19303 C 1770.37 2.07383 3.7051 0
M  V30 19304 O 1771.39 1.79849 3.07462 0
M  V30 19305 O 1770.25 2.5395 4.83913 0
M  V30 19306 H 1767.35 0.35246 0.748132 0
M  V30 19307 H 1769.89 1.32325 1.06246 0
M  V30 19308 H 1768.67 2.83219 2.70005 0
M  V30 19309 H 1768.29 1.44252 3.70509 0
M  V30 19310 N 1769.29 -1.19996 1.0217 0
M  V30 19311 C 1770.53 -1.88818 0.709281 0
M  V30 19312 C 1770.85 -1.80032 -0.764702 0
M  V30 19313 O 1772.05 -2.44037 -1.18988 0
M  V30 19314 C 1770.51 -3.38652 1.2183 0
M  V30 19315 C 1770.12 -3.56012 2.71955 0
M  V30 19316 C 1771.86 -4.12996 0.981542 0
M  V30 19317 C 1769.77 -4.997 3.16313 0
M  V30 19318 H 1768.7 -0.70716 0.261613 0
M  V30 19319 H 1771.35 -1.35715 1.23506 0
M  V30 19320 H 1769.73 -3.91109 0.620478 0
M  V30 19321 H 1770.91 -3.13918 3.37331 0
M  V30 19322 H 1769.22 -2.95046 2.93831 0
M  V30 19323 H 1771.82 -5.18948 1.28831 0
M  V30 19324 H 1772.16 -4.1622 -0.0818616 0
M  V30 19325 H 1772.69 -3.66656 1.543 0
M  V30 19326 H 1769.43 -5.01635 4.21951 0
M  V30 19327 H 1768.95 -5.42585 2.5566 0
M  V30 19328 H 1770.63 -5.68312 3.09242 0
M  V30 19329 N 1770.76 -0.798611 -1.35867 0
M  V30 19330 C 1771.99 -0.386918 -2.02945 0
M  V30 19331 C 1772.4 1.00438 -1.6034 0
M  V30 19332 O 1771.74 1.65716 -0.792719 0
M  V30 19333 C 1771.81 -0.381754 -3.57467 0
M  V30 19334 C 1771.47 -1.72219 -4.23308 0
M  V30 19335 C 1772.47 -2.67919 -4.45551 0
M  V30 19336 C 1770.15 -2.00402 -4.60591 0
M  V30 19337 C 1772.15 -3.8999 -5.04169 0
M  V30 19338 C 1769.83 -3.22737 -5.18926 0
M  V30 19339 C 1770.83 -4.1735 -5.40655 0
M  V30 19340 O 1770.52 -5.37527 -5.97762 0
M  V30 19341 H 1770.25 -0.156344 -0.657672 0
M  V30 19342 H 1772.81 -1.08128 -1.74635 0
M  V30 19343 H 1771.04 0.369157 -3.84934 0
M  V30 19344 H 1772.72 0.00653107 -4.05899 0
M  V30 19345 H 1773.49 -2.47436 -4.17134 0
M  V30 19346 H 1769.37 -1.27573 -4.42997 0
M  V30 19347 H 1772.91 -4.6385 -5.21046 0
M  V30 19348 H 1768.81 -3.43094 -5.46769 0
M  V30 19349 H 1769.58 -5.38716 -6.16221 0
M  V30 19350 N 1772.24 1.47639 -0.551417 0
M  V30 19351 C 1773.2 2.28419 0.188996 0
M  V30 19352 C 1774.2 1.36617 0.84808 0
M  V30 19353 O 1775.39 1.59304 0.704831 0
M  V30 19354 C 1772.53 3.16131 1.27571 0
M  V30 19355 H 1773.72 2.95348 -0.520518 0
M  V30 19356 H 1771.27 1.53232 -0.308141 0
M  V30 19357 H 1772.01 2.5388 2.0178 0
M  V30 19358 H 1771.79 3.83685 0.807984 0
M  V30 19359 H 1773.28 3.77011 1.79591 0
M  V30 19360 N 1773.72 0.287581 1.54954 0
M  V30 19361 C 1774.97 -0.326315 1.99043 0
M  V30 19362 C 1775.28 -1.56033 1.17954 0
M  V30 19363 O 1776.49 -2.24797 1.52246 0
M  V30 19364 C 1774.94 -0.631918 3.54309 0
M  V30 19365 C 1774.55 0.582998 4.4419 0
M  V30 19366 C 1776.3 -1.20775 4.06957 0
M  V30 19367 C 1774.2 0.251291 5.90866 0
M  V30 19368 H 1773.13 -0.125703 0.743448 0
M  V30 19369 H 1775.78 0.394188 1.79216 0
M  V30 19370 H 1774.17 -1.41166 3.69984 0
M  V30 19371 H 1775.34 1.35957 4.40287 0
M  V30 19372 H 1773.66 1.07653 4.02243 0
M  V30 19373 H 1776.25 -1.46995 5.14098 0
M  V30 19374 H 1776.6 -2.14569 3.56743 0
M  V30 19375 H 1777.13 -0.490021 3.9477 0
M  V30 19376 H 1773.87 1.15744 6.452 0
M  V30 19377 H 1773.39 -0.488274 5.97809 0
M  V30 19378 H 1775.07 -0.152008 6.46821 0
M  V30 19379 N 1775.2 -1.57593 0.0150662 0
M  V30 19380 C 1776.45 -1.90836 -0.665282 0
M  V30 19381 C 1776.77 -0.890693 -1.73469 0
M  V30 19382 O 1776.04 0.0698113 -1.95776 0
M  V30 19383 H 1774.62 -0.704377 -0.24872 0
M  V30 19384 H 1777.28 -1.94809 0.0595521 0
M  V30 19385 H 1776.38 -2.91043 -1.12697 0
M  V30 19386 N 1776.68 0.257904 -1.55475 0
M  V30 19387 C 1777.61 1.32303 -1.92401 0
M  V30 19388 C 1778.59 1.50767 -0.787617 0
M  V30 19389 O 1779.77 1.63559 -1.047 0
M  V30 19390 C 1776.9 2.67984 -2.20912 0
M  V30 19391 C 1775.86 2.64231 -3.36699 0
M  V30 19392 C 1775.18 4.03604 -3.50725 0
M  V30 19393 C 1776.48 2.22177 -4.72689 0
M  V30 19394 H 1778.18 1.01646 -2.81618 0
M  V30 19395 H 1775.72 0.487523 -1.35496 0
M  V30 19396 H 1777.68 3.42622 -2.45332 0
M  V30 19397 H 1776.4 3.00254 -1.2851 0
M  V30 19398 H 1775.06 1.92049 -3.1227 0
M  V30 19399 H 1774.71 4.33122 -2.55763 0
M  V30 19400 H 1774.41 4.01983 -4.28583 0
M  V30 19401 H 1775.93 4.79959 -3.77455 0
M  V30 19402 H 1777.34 2.86543 -4.96554 0
M  V30 19403 H 1775.74 2.3169 -5.5357 0
M  V30 19404 H 1776.81 1.17326 -4.70492 0
M  V30 19405 N 1778.15 1.48666 0.52309 0
M  V30 19406 C 1779.57 1.34939 0.852268 0
M  V30 19407 C 1779.77 0.365638 1.98155 0
M  V30 19408 O 1778.83 -0.210671 2.5162 0
M  V30 19409 C 1780.14 2.75136 1.21329 0
M  V30 19410 C 1781.69 2.83675 1.32278 0
M  V30 19411 C 1782.16 4.24589 1.71721 0
M  V30 19412 N 1783.65 4.27295 1.78811 0
M  V30 19413 C 1784.39 5.33274 2.10729 0
M  V30 19414 N 1783.88 6.49523 2.41023 0
M  V30 19415 N 1785.68 5.20673 2.11793 0
M  V30 19416 H 1777.83 2.11237 -0.221919 0
M  V30 19417 H 1780.09 0.947291 -0.0366525 0
M  V30 19418 H 1779.8 3.48717 0.457065 0
M  V30 19419 H 1779.67 3.091 2.16187 0
M  V30 19420 H 1782.06 2.10345 2.06976 0
M  V30 19421 H 1782.14 2.53321 0.355248 0
M  V30 19422 H 1781.78 4.98438 0.975805 0
M  V30 19423 H 1781.71 4.52391 2.69536 0
M  V30 19424 H 1784.2 3.43447 1.57648 0
M  V30 19425 H 1784.52 7.26125 2.64503 0
M  V30 19426 H 1782.86 6.52786 2.38528 0
M  V30 19427 H 1786.05 4.28869 1.87588 0
M  V30 19428 H 1786.23 6.03365 2.36336 0
M  V30 19429 N 1779.63 -0.772489 1.37369 0
M  V30 19430 C 1780.54 -1.91679 1.35263 0
M  V30 19431 C 1781.56 -1.72161 0.252321 0
M  V30 19432 O 1782.73 -1.95409 0.487581 0
M  V30 19433 C 1779.8 -3.26792 1.15792 0
M  V30 19434 C 1778.86 -3.5897 2.35455 0
M  V30 19435 C 1778.09 -4.87636 2.16903 0
M  V30 19436 O 1778.32 -5.58627 1.15291 0
M  V30 19437 O 1777.25 -5.18859 3.05072 0
M  V30 19438 H 1781.08 -1.96408 2.31641 0
M  V30 19439 H 1778.66 -0.915136 1.18092 0
M  V30 19440 H 1780.54 -4.07611 1.06918 0
M  V30 19441 H 1779.22 -3.22918 0.224872 0
M  V30 19442 H 1778.13 -2.78389 2.49901 0
M  V30 19443 H 1779.46 -3.67586 3.27325 0
M  V30 19444 N 1781.11 -1.21927 -0.998575 0
M  V30 19445 C 1782.04 -0.942076 -2.08944 0
M  V30 19446 C 1783.06 0.0771683 -1.62617 0
M  V30 19447 O 1784.24 -0.156133 -1.77816 0
M  V30 19448 C 1781.34 -0.394201 -3.366 0
M  V30 19449 C 1780.52 -1.46931 -4.11983 0
M  V30 19450 C 1779.58 -0.929531 -5.17925 0
M  V30 19451 O 1778.6 -1.61444 -5.45824 0
M  V30 19452 N 1779.8 0.251965 -5.79953 0
M  V30 19453 H 1782.57 -1.88119 -2.33306 0
M  V30 19454 H 1780.13 -1.12539 -1.16389 0
M  V30 19455 H 1782.12 -0.0185416 -4.04696 0
M  V30 19456 H 1780.69 0.449884 -3.09346 0
M  V30 19457 H 1779.91 -2.01854 -3.38598 0
M  V30 19458 H 1781.2 -2.19284 -4.59121 0
M  V30 19459 H 1780.6 0.825333 -5.59647 0
M  V30 19460 H 1779.16 0.569068 -6.49311 0
M  V30 19461 N 1782.59 1.19452 -1.02805 0
M  V30 19462 C 1783.82 1.93075 -0.743624 0
M  V30 19463 C 1784.23 1.75446 0.697425 0
M  V30 19464 O 1783.59 1.07583 1.47418 0
M  V30 19465 C 1783.64 3.44855 -1.08431 0
M  V30 19466 O 1783.36 3.61916 -2.46877 0
M  V30 19467 C 1784.86 4.35601 -0.822571 0
M  V30 19468 H 1782.08 0.613327 -0.272159 0
M  V30 19469 H 1784.63 1.51617 -1.37232 0
M  V30 19470 H 1782.78 3.84149 -0.500812 0
M  V30 19471 H 1783.19 4.55785 -2.59538 0
M  V30 19472 H 1784.67 5.40706 -1.11092 0
M  V30 19473 H 1785.15 4.38527 0.243026 0
M  V30 19474 H 1785.75 4.01987 -1.38876 0
M  V30 19475 N 1784.07 0.805805 1.35442 0
M  V30 19476 C 1785.01 0.213632 2.29809 0
M  V30 19477 C 1785.98 -0.651878 1.52774 0
M  V30 19478 O 1787.17 -0.597124 1.81216 0
M  V30 19479 C 1784.31 -0.632444 3.39255 0
M  V30 19480 C 1783.42 0.253414 4.31256 0
M  V30 19481 C 1782.56 -0.600593 5.27794 0
M  V30 19482 C 1781.6 0.285712 6.11433 0
M  V30 19483 N 1780.73 -0.528222 7.0011 0
M  V30 19484 H 1785.57 1.02378 2.79862 0
M  V30 19485 H 1783.11 0.516397 1.37738 0
M  V30 19486 H 1785.07 -1.13814 4.01376 0
M  V30 19487 H 1783.7 -1.40786 2.90481 0
M  V30 19488 H 1782.75 0.877202 3.70148 0
M  V30 19489 H 1784.06 0.935631 4.89946 0
M  V30 19490 H 1783.22 -1.17145 5.95283 0
M  V30 19491 H 1781.95 -1.31638 4.69598 0
M  V30 19492 H 1780.96 0.868843 5.42891 0
M  V30 19493 H 1782.18 0.999349 6.71707 0
M  V30 19494 H 1780.13 -1.228 6.44404 0
M  V30 19495 H 1780.05 0.0959658 7.55939 0
M  V30 19496 H 1781.32 -1.08238 7.71949 0
M  V30 19497 N 1785.54 -1.47344 0.559239 0
M  V30 19498 C 1786.82 -1.95577 -0.0298268 0
M  V30 19499 C 1787.2 -1.50185 -1.4835 0
M  V30 19500 O 1786.55 -0.74162 -2.1613 0
M  V30 19501 C 1786.76 -3.48801 0.117767 0
M  V30 19502 C 1788.11 -4.24592 -0.026535 0
M  V30 19503 O 1789.13 -3.56171 0.0454163 0
M  V30 19504 O 1787.99 -5.46198 -0.181675 0
M  V30 19505 H 1785.08 -0.824597 -0.0629972 0
M  V30 19506 H 1787.63 -1.57736 0.625905 0
M  V30 19507 H 1786.4 -3.74652 1.12924 0
M  V30 19508 H 1786.03 -3.93413 -0.575483 0
M  V30 19509 N 1787.02 -0.295795 -1.54799 0
M  V30 19510 C 1788.27 0.315754 -1.99213 0
M  V30 19511 C 1788.58 1.55405 -1.18779 0
M  V30 19512 O 1789.79 2.23986 -1.53436 0
M  V30 19513 C 1788.25 0.613119 -3.54639 0
M  V30 19514 C 1787.85 -0.606546 -4.43875 0
M  V30 19515 C 1789.6 1.18615 -4.07591 0
M  V30 19516 C 1787.51 -0.282622 -5.90724 0
M  V30 19517 H 1786.44 0.121758 -0.744104 0
M  V30 19518 H 1789.09 -0.403686 -1.79005 0
M  V30 19519 H 1787.47 1.39202 -3.70728 0
M  V30 19520 H 1788.64 -1.3829 -4.39559 0
M  V30 19521 H 1786.96 -1.09785 -4.01667 0
M  V30 19522 H 1789.55 1.44266 -5.1487 0
M  V30 19523 H 1789.9 2.12674 -3.57876 0
M  V30 19524 H 1790.43 0.469078 -3.95025 0
M  V30 19525 H 1787.17 -1.19164 -6.44578 0
M  V30 19526 H 1786.69 0.456564 -5.9806 0
M  V30 19527 H 1788.37 0.117703 -6.46893 0
M  V30 19528 N 1788.5 1.57583 -0.0234236 0
M  V30 19529 C 1789.45 2.11023 0.978379 0
M  V30 19530 C 1790.44 1.03548 1.34067 0
M  V30 19531 O 1791.65 1.2199 1.32357 0
M  V30 19532 H 1788.02 0.674119 0.333267 0
M  V30 19533 H 1790 2.94142 0.502301 0
M  V30 19534 C 1788.74 2.64782 2.25358 0
M  V30 19535 H 1788.07 3.47125 1.98353 0
M  V30 19536 H 1789.51 3.05826 2.93678 0
M  V30 19537 C 1787.97 1.57262 2.97943 0
M  V30 19538 O 1788.5 0.969124 3.89834 0
M  V30 19539 N 1786.7 1.29443 2.60178 0
M  V30 19540 H 1786.25 1.78706 1.85532 0
M  V30 19541 H 1786.21 0.577276 3.09055 0
M  V30 19542 N 1789.98 -0.249655 1.5561 0
M  V30 19543 C 1791.26 -1.00075 1.68061 0
M  V30 19544 C 1791.64 -2.03468 0.562492 0
M  V30 19545 O 1790.98 -2.24332 -0.434424 0
M  V30 19546 C 1791.19 -1.63657 3.08249 0
M  V30 19547 C 1792.54 -2.13946 3.66759 0
M  V30 19548 O 1793.57 -1.73603 3.11031 0
M  V30 19549 O 1792.43 -2.88012 4.64447 0
M  V30 19550 H 1789.52 -0.465648 0.683448 0
M  V30 19551 H 1792.07 -0.243659 1.67942 0
M  V30 19552 H 1790.84 -0.888572 3.81078 0
M  V30 19553 H 1790.46 -2.45993 3.12367 0
M  V30 19554 N 1791.46 -1.48941 -0.515198 0
M  V30 19555 C 1792.41 -1.65027 -1.63917 0
M  V30 19556 C 1793.4 -0.516402 -1.61337 0
M  V30 19557 O 1794.61 -0.695598 -1.66016 0
M  V30 19558 H 1790.98 -0.520121 -0.543119 0
M  V30 19559 H 1792.95 -2.59397 -1.47498 0
M  V30 19560 C 1791.7 -1.72093 -3.02125 0
M  V30 19561 H 1791.02 -2.5871 -3.0481 0
M  V30 19562 H 1792.46 -1.87387 -3.80345 0
M  V30 19563 C 1790.92 -0.462688 -3.33708 0
M  V30 19564 O 1791.45 0.417925 -3.9952 0
M  V30 19565 N 1789.66 -0.329909 -2.88721 0
M  V30 19566 H 1789.21 -1.0475 -2.35341 0
M  V30 19567 H 1789.16 0.510912 -3.10221 0
M  V30 19568 N 1792.94 0.765193 -1.37777 0
M  V30 19569 C 1794.18 1.51928 -1.32668 0
M  V30 19570 C 1794.5 1.95418 0.0844172 0
M  V30 19571 O 1795.7 2.70271 0.258001 0
M  V30 19572 C 1794.16 2.74377 -2.32906 0
M  V30 19573 C 1793.77 2.37959 -3.79578 0
M  V30 19574 C 1795.51 3.52302 -2.3682 0
M  V30 19575 C 1793.42 3.5695 -4.7153 0
M  V30 19576 H 1792.35 0.570412 -0.493098 0
M  V30 19577 H 1795 0.837531 -1.63272 0
M  V30 19578 H 1793.38 3.44474 -1.95329 0
M  V30 19579 H 1794.56 1.75603 -4.26028 0
M  V30 19580 H 1792.87 1.73194 -3.78672 0
M  V30 19581 H 1795.47 4.40754 -3.02721 0
M  V30 19582 H 1795.81 3.92631 -1.38371 0
M  V30 19583 H 1796.34 2.89207 -2.73137 0
M  V30 19584 H 1793.08 3.21697 -5.71132 0
M  V30 19585 H 1792.6 4.18388 -4.2978 0
M  V30 19586 H 1794.28 4.2368 -4.88983 0
M  V30 19587 N 1794.41 1.22455 0.992094 0
M  V30 19588 C 1795.66 1.04373 1.72596 0
M  V30 19589 C 1795.98 -0.421349 1.91008 0
M  V30 19590 O 1797.18 -0.72186 2.61728 0
M  V30 19591 C 1795.64 1.81906 3.10545 0
M  V30 19592 C 1795.25 3.32667 3.00061 0
M  V30 19593 C 1796.99 1.72274 3.87972 0
M  V30 19594 C 1794.9 4.02638 4.3317 0
M  V30 19595 H 1793.83 0.386937 0.647144 0
M  V30 19596 H 1796.48 1.46313 1.10746 0
M  V30 19597 H 1794.86 1.32764 3.73081 0
M  V30 19598 H 1796.03 3.89208 2.46685 0
M  V30 19599 H 1794.35 3.42984 2.36117 0
M  V30 19600 H 1796.95 2.21872 4.86494 0
M  V30 19601 H 1797.29 0.68331 4.10654 0
M  V30 19602 H 1797.82 2.18963 3.32115 0
M  V30 19603 H 1794.56 5.06838 4.15687 0
M  V30 19604 H 1794.08 3.50885 4.86456 0
M  V30 19605 H 1795.76 4.08279 5.01914 0
M  V30 19606 N 1795.89 -1.18905 1.03437 0
M  V30 19607 C 1797.14 -1.88727 0.734048 0
M  V30 19608 C 1797.47 -1.79964 -0.737773 0
M  V30 19609 O 1796.72 -1.19016 -1.5535 0
M  V30 19610 C 1797.02 -3.38811 1.13762 0
M  V30 19611 C 1796.69 -3.67777 2.60865 0
M  V30 19612 C 1795.35 -3.75393 3.01054 0
M  V30 19613 C 1797.7 -3.80666 3.5601 0
M  V30 19614 C 1795.03 -3.9337 4.35289 0
M  V30 19615 C 1797.38 -4.00158 4.89955 0
M  V30 19616 C 1796.04 -4.06007 5.29825 0
M  V30 19617 H 1795.31 -0.690602 0.268607 0
M  V30 19618 H 1797.96 -1.40777 1.29823 0
M  V30 19619 H 1796.27 -3.88697 0.492134 0
M  V30 19620 H 1797.96 -3.91164 0.882696 0
M  V30 19621 H 1794.55 -3.62462 2.28733 0
M  V30 19622 H 1798.74 -3.7412 3.2611 0
M  V30 19623 H 1793.99 -3.9614 4.65707 0
M  V30 19624 H 1798.17 -4.09073 5.63589 0
M  V30 19625 H 1795.79 -4.1969 6.33849 0
M  V30 19626 N 1797.37 -0.812977 -1.35013 0
M  V30 19627 C 1798.3 -0.185443 -2.28449 0
M  V30 19628 C 1799.31 0.618951 -1.50575 0
M  V30 19629 O 1800.5 0.450262 -1.72728 0
M  V30 19630 C 1797.6 0.759419 -3.30282 0
M  V30 19631 C 1796.78 1.09356e-05 -4.374 0
M  V30 19632 C 1795.84 0.864309 -5.19053 0
M  V30 19633 O 1794.86 0.312916 -5.68339 0
M  V30 19634 N 1796.06 2.18551 -5.37788 0
M  V30 19635 H 1798.83 -0.988144 -2.82941 0
M  V30 19636 H 1796.39 -0.669018 -1.47431 0
M  V30 19637 H 1798.38 1.342 -3.81802 0
M  V30 19638 H 1796.95 1.4629 -2.76257 0
M  V30 19639 H 1796.17 -0.763818 -3.86729 0
M  V30 19640 H 1797.46 -0.523125 -5.06104 0
M  V30 19641 H 1796.86 2.65735 -4.99401 0
M  V30 19642 H 1795.41 2.71718 -5.92463 0
M  V30 19643 N 1798.85 1.47045 -0.567045 0
M  V30 19644 C 1800.1 2.01651 -0.044479 0
M  V30 19645 C 1800.41 1.44583 1.31738 0
M  V30 19646 O 1801.62 1.90911 1.93042 0
M  V30 19647 C 1800.07 3.59888 -0.0289854 0
M  V30 19648 C 1799.68 4.25949 -1.38821 0
M  V30 19649 C 1801.42 4.22209 0.440457 0
M  V30 19650 C 1799.33 5.76221 -1.33129 0
M  V30 19651 H 1798.26 0.75389 -0.012858 0
M  V30 19652 H 1800.91 1.68939 -0.716363 0
M  V30 19653 H 1799.29 3.89606 0.708747 0
M  V30 19654 H 1800.47 4.07861 -2.14443 0
M  V30 19655 H 1798.78 3.75658 -1.79639 0
M  V30 19656 H 1801.38 5.32342 0.501592 0
M  V30 19657 H 1801.72 3.9006 1.45461 0
M  V30 19658 H 1802.26 3.97059 -0.242721 0
M  V30 19659 H 1798.99 6.13005 -2.32175 0
M  V30 19660 H 1798.51 5.96618 -0.617023 0
M  V30 19661 H 1800.19 6.38627 -1.03752 0
M  V30 19662 N 1800.33 0.304 1.5464 0
M  V30 19663 C 1801.26 -0.604475 2.21085 0
M  V30 19664 C 1802.27 -1.0952 1.20454 0
M  V30 19665 O 1803.46 -1.01214 1.47031 0
M  V30 19666 C 1800.56 -1.8399 2.84607 0
M  V30 19667 C 1799.73 -1.49116 4.11197 0
M  V30 19668 C 1798.79 -2.58205 4.58494 0
M  V30 19669 O 1797.82 -2.23171 5.23625 0
M  V30 19670 N 1799.02 -3.88798 4.31065 0
M  V30 19671 H 1801.78 -0.035633 2.99679 0
M  V30 19672 H 1799.35 0.126332 1.61406 0
M  V30 19673 H 1801.34 -2.56322 3.13179 0
M  V30 19674 H 1799.91 -2.31706 2.09836 0
M  V30 19675 H 1799.13 -0.600347 3.89602 0
M  V30 19676 H 1800.42 -1.23358 4.93619 0
M  V30 19677 H 1799.81 -4.20068 3.78892 0
M  V30 19678 H 1798.37 -4.57419 4.6434 0
M  V30 19679 N 1801.8 -1.57568 0.0317802 0
M  V30 19680 C 1803.21 -1.79693 -0.506679 0
M  V30 19681 C 1803.57 -0.94229 -1.72091 0
M  V30 19682 O 1802.69 -0.153435 -2.15855 0
M  V30 19683 C 1803.29 -3.259 -0.925978 0
M  V30 19684 C 1801.84 -3.49012 -1.40953 0
M  V30 19685 C 1800.99 -2.74746 -0.375509 0
M  V30 19686 H 1803.94 -1.56592 0.257798 0
M  V30 19687 H 1803.96 -3.35757 -1.79017 0
M  V30 19688 H 1803.48 -3.88077 -0.0420441 0
M  V30 19689 H 1801.58 -2.9209 -2.31331 0
M  V30 19690 H 1801.69 -4.57725 -1.41508 0
M  V30 19691 H 1800.05 -2.40303 -0.844187 0
M  V30 19692 H 1800.84 -3.39639 0.500005 0
M  V30 19693 N 1803.28 0.241399 -1.5574 0
M  V30 19694 C 1804.22 1.32551 -1.85757 0
M  V30 19695 C 1805.19 1.46127 -0.713133 0
M  V30 19696 O 1806.38 1.62255 -0.959459 0
M  V30 19697 C 1803.5 2.69835 -2.04712 0
M  V30 19698 C 1802.55 2.73379 -3.27363 0
M  V30 19699 S 1803.38 2.29435 -4.83859 0
M  V30 19700 C 1804.54 3.68633 -5.05827 0
M  V30 19701 H 1804.77 1.06892 -2.77419 0
M  V30 19702 H 1802.31 0.44266 -1.47918 0
M  V30 19703 H 1804.26 3.4888 -2.16317 0
M  V30 19704 H 1802.92 2.92728 -1.13882 0
M  V30 19705 H 1802.12 3.74214 -3.37609 0
M  V30 19706 H 1801.72 2.02382 -3.14512 0
M  V30 19707 H 1804.01 4.64173 -4.93507 0
M  V30 19708 H 1804.95 3.63317 -6.07788 0
M  V30 19709 H 1805.36 3.61401 -4.33647 0
M  V30 19710 N 1804.76 1.49212 0.507292 0
M  V30 19711 C 1805.71 1.65894 1.6304 0
M  V30 19712 C 1806.7 0.524951 1.61061 0
M  V30 19713 O 1807.91 0.704392 1.65645 0
M  V30 19714 H 1804.28 0.522994 0.540353 0
M  V30 19715 H 1806.25 2.60176 1.4612 0
M  V30 19716 C 1805 1.73692 3.01208 0
M  V30 19717 H 1804.33 2.60323 3.03434 0
M  V30 19718 H 1805.77 1.89402 3.79346 0
M  V30 19719 C 1804.23 0.480378 3.33458 0
M  V30 19720 O 1804.76 -0.396732 3.99736 0
M  V30 19721 N 1802.96 0.345216 2.88542 0
M  V30 19722 H 1802.51 1.05997 2.34782 0
M  V30 19723 H 1802.47 -0.494453 3.10488 0
M  V30 19724 N 1806.24 -0.757876 1.38181 0
M  V30 19725 C 1807.19 -1.8929 1.35174 0
M  V30 19726 C 1808.18 -1.67716 0.238284 0
M  V30 19727 O 1809.39 -1.75336 0.407085 0
M  V30 19728 H 1805.76 -0.622712 0.421585 0
M  V30 19729 H 1807.73 -1.88943 2.30961 0
M  V30 19730 C 1806.48 -3.26723 1.18942 0
M  V30 19731 H 1805.8 -3.43909 2.0388 0
M  V30 19732 H 1807.24 -4.06401 1.20891 0
M  V30 19733 C 1805.7 -3.3674 -0.103978 0
M  V30 19734 O 1806.23 -3.86838 -1.08256 0
M  V30 19735 N 1804.44 -2.90163 -0.159367 0
M  V30 19736 H 1803.99 -2.49583 0.637642 0
M  V30 19737 H 1803.94 -2.97245 -1.02435 0
M  V30 19738 N 1807.72 -1.22979 -0.985586 0
M  V30 19739 C 1808.94 -1.0853 -1.7615 0
M  V30 19740 C 1809.36 0.36363 -1.85265 0
M  V30 19741 O 1808.72 1.25173 -1.32808 0
M  V30 19742 C 1808.77 -1.69872 -3.19101 0
M  V30 19743 O 1808.49 -3.09098 -3.10467 0
M  V30 19744 C 1809.99 -1.60795 -4.1311 0
M  V30 19745 H 1807.21 -0.380086 -0.55297 0
M  V30 19746 H 1809.75 -1.62724 -1.2386 0
M  V30 19747 H 1807.91 -1.19724 -3.68436 0
M  V30 19748 H 1808.32 -3.38769 -4.00419 0
M  V30 19749 H 1809.8 -2.08428 -5.11138 0
M  V30 19750 H 1810.27 -0.565817 -4.3554 0
M  V30 19751 H 1810.88 -2.10284 -3.69676 0
M  V30 19752 N 1809.19 1.18355 -1.04066 0
M  V30 19753 C 1810.42 1.91996 -0.762952 0
M  V30 19754 C 1810.83 1.76413 0.683745 0
M  V30 19755 O 1810.18 1.09121 1.47778 0
M  V30 19756 C 1810.24 3.4384 -1.04949 0
M  V30 19757 C 1809.9 3.83201 -2.4901 0
M  V30 19758 C 1810.9 3.86984 -3.47187 0
M  V30 19759 C 1808.58 4.14497 -2.83721 0
M  V30 19760 C 1810.58 4.21513 -4.78127 0
M  V30 19761 C 1808.26 4.48696 -4.14867 0
M  V30 19762 C 1809.26 4.52181 -5.1188 0
M  V30 19763 O 1808.95 4.85582 -6.40676 0
M  V30 19764 H 1808.68 0.616351 -0.277647 0
M  V30 19765 H 1811.24 1.51092 -1.39141 0
M  V30 19766 H 1809.47 3.84984 -0.363904 0
M  V30 19767 H 1811.16 3.98729 -0.759579 0
M  V30 19768 H 1811.92 3.62944 -3.21709 0
M  V30 19769 H 1807.8 4.10962 -2.08881 0
M  V30 19770 H 1811.34 4.24148 -5.53845 0
M  V30 19771 H 1807.24 4.72198 -4.40113 0
M  V30 19772 H 1808.01 5.03485 -6.45326 0
M  V30 19773 N 1810.67 0.820125 1.3458 0
M  V30 19774 C 1811.9 0.419155 2.02303 0
M  V30 19775 C 1812.31 -0.978742 1.61918 0
M  V30 19776 O 1811.65 -1.64433 0.818983 0
M  V30 19777 C 1811.72 0.438576 3.56815 0
M  V30 19778 C 1811.38 1.78932 4.20514 0
M  V30 19779 C 1812.38 2.74974 4.41232 0
M  V30 19780 C 1810.06 2.07704 4.57345 0
M  V30 19781 C 1812.06 3.97961 4.97901 0
M  V30 19782 C 1809.74 3.30952 5.13726 0
M  V30 19783 C 1810.74 4.25898 5.33947 0
M  V30 19784 O 1810.43 5.46969 5.89135 0
M  V30 19785 H 1810.16 0.166787 0.655102 0
M  V30 19786 H 1812.71 1.10892 1.72893 0
M  V30 19787 H 1810.94 -0.307871 3.85472 0
M  V30 19788 H 1812.63 0.0580448 4.05858 0
M  V30 19789 H 1813.4 2.54041 4.13144 0
M  V30 19790 H 1809.28 1.34605 4.40911 0
M  V30 19791 H 1812.82 4.72081 5.136 0
M  V30 19792 H 1808.72 3.5175 5.41242 0
M  V30 19793 H 1809.49 5.48451 6.07572 0
M  V30 19794 N 1812.15 -1.46743 0.574835 0
M  V30 19795 C 1813.38 -2.06505 0.0627081 0
M  V30 19796 C 1813.79 -1.42535 -1.2442 0
M  V30 19797 O 1813.13 -0.522043 -1.76126 0
M  V30 19798 C 1813.19 -3.59021 -0.185574 0
M  V30 19799 C 1812.86 -4.45136 1.03455 0
M  V30 19800 C 1813.85 -4.82163 1.94461 0
M  V30 19801 C 1811.54 -4.8639 1.25418 0
M  V30 19802 C 1813.53 -5.59262 3.05786 0
M  V30 19803 C 1811.22 -5.63251 2.37049 0
M  V30 19804 C 1812.22 -5.99599 3.27062 0
M  V30 19805 O 1811.91 -6.74908 4.36755 0
M  V30 19806 H 1811.64 -0.674082 0.0508932 0
M  V30 19807 H 1814.19 -1.89476 0.792968 0
M  V30 19808 H 1812.42 -3.74327 -0.970354 0
M  V30 19809 H 1814.11 -4.00739 -0.645242 0
M  V30 19810 H 1814.88 -4.50876 1.78705 0
M  V30 19811 H 1810.76 -4.57553 0.56266 0
M  V30 19812 H 1814.3 -5.87552 3.7607 0
M  V30 19813 H 1810.2 -5.93951 2.5277 0
M  V30 19814 H 1810.97 -6.93323 4.35024 0
M  V30 19815 N 1813.63 -0.312197 -1.54477 0
M  V30 19816 C 1814.59 0.54612 -2.22599 0
M  V30 19817 C 1815.59 1.05252 -1.21568 0
M  V30 19818 O 1816.78 0.946756 -1.46226 0
M  V30 19819 C 1813.91 1.75733 -2.92114 0
M  V30 19820 H 1815.11 -0.0492216 -2.9986 0
M  V30 19821 H 1812.66 -0.063149 -1.56172 0
M  V30 19822 H 1813.39 2.39221 -2.18961 0
M  V30 19823 H 1813.18 1.40175 -3.66188 0
M  V30 19824 H 1814.67 2.36685 -3.44049 0
M  V30 19825 N 1815.11 1.57549 -0.040136 0
M  V30 19826 C 1816.33 1.96967 0.649517 0
M  V30 19827 C 1816.76 0.917056 1.64231 0
M  V30 19828 O 1816.11 -0.120899 1.80896 0
M  V30 19829 C 1816.16 3.35471 1.32256 0
M  V30 19830 O 1815.27 3.32615 2.43806 0
M  V30 19831 H 1814.61 0.641933 0.169758 0
M  V30 19832 H 1817.14 2.04329 -0.105261 0
M  V30 19833 H 1817.15 3.71951 1.6768 0
M  V30 19834 H 1815.82 4.11623 0.594895 0
M  V30 19835 H 1814.4 3.07867 2.10411 0
M  V30 19836 N 1816.58 -0.233136 1.55866 0
M  V30 19837 C 1817.52 -1.31202 1.87932 0
M  V30 19838 C 1818.53 -1.43619 0.766642 0
M  V30 19839 O 1819.72 -1.44723 1.04487 0
M  V30 19840 C 1816.82 -2.68904 2.06262 0
M  V30 19841 C 1815.99 -2.78581 3.37211 0
M  V30 19842 C 1815.05 -3.97219 3.45114 0
M  V30 19843 O 1814.08 -3.861 4.18229 0
M  V30 19844 N 1815.28 -5.11009 2.7541 0
M  V30 19845 H 1818.04 -1.04025 2.81067 0
M  V30 19846 H 1815.6 -0.423209 1.56271 0
M  V30 19847 H 1817.6 -3.46631 2.08876 0
M  V30 19848 H 1816.17 -2.8873 1.19807 0
M  V30 19849 H 1815.39 -1.87422 3.46795 0
M  V30 19850 H 1816.67 -2.82008 4.23496 0
M  V30 19851 H 1816.07 -5.22936 2.15764 0
M  V30 19852 H 1814.63 -5.8682 2.837 0
M  V30 19853 N 1818.06 -1.49479 -0.499372 0
M  V30 19854 C 1819.31 -1.58295 -1.25003 0
M  V30 19855 C 1819.63 -0.275616 -1.93648 0
M  V30 19856 O 1820.83 -0.24234 -2.70416 0
M  V30 19857 C 1819.29 -2.793 -2.26979 0
M  V30 19858 C 1818.9 -4.16799 -1.64264 0
M  V30 19859 C 1820.64 -2.97447 -3.02862 0
M  V30 19860 C 1818.55 -5.29025 -2.6436 0
M  V30 19861 H 1817.48 -0.589398 -0.470241 0
M  V30 19862 H 1820.13 -1.75868 -0.523698 0
M  V30 19863 H 1818.51 -2.55225 -3.02781 0
M  V30 19864 H 1819.68 -4.51018 -0.944432 0
M  V30 19865 H 1818 -4.04024 -1.00765 0
M  V30 19866 H 1820.6 -3.78461 -3.77719 0
M  V30 19867 H 1820.94 -2.08071 -3.60572 0
M  V30 19868 H 1821.47 -3.2157 -2.34175 0
M  V30 19869 H 1818.21 -6.20466 -2.11429 0
M  V30 19870 H 1817.73 -4.99258 -3.32417 0
M  V30 19871 H 1819.41 -5.58427 -3.26755 0
M  V30 19872 N 1819.54 0.750537 -1.38581 0
M  V30 19873 C 1820.79 1.50974 -1.34956 0
M  V30 19874 C 1821.12 1.94409 0.0594396 0
M  V30 19875 O 1820.37 1.65957 1.03715 0
M  V30 19876 C 1820.67 2.77356 -2.25407 0
M  V30 19877 C 1820.34 2.52868 -3.73321 0
M  V30 19878 C 1819 2.45899 -4.13627 0
M  V30 19879 C 1821.35 2.31554 -4.66939 0
M  V30 19880 C 1818.68 2.15635 -5.45636 0
M  V30 19881 C 1821.03 2.02811 -5.99208 0
M  V30 19882 C 1819.69 1.943 -6.38595 0
M  V30 19883 H 1818.96 0.552453 -0.493838 0
M  V30 19884 H 1821.61 0.862769 -1.70964 0
M  V30 19885 H 1819.92 3.46719 -1.82465 0
M  V30 19886 H 1821.61 3.35326 -2.19904 0
M  V30 19887 H 1818.2 2.59165 -3.41367 0
M  V30 19888 H 1822.39 2.35916 -4.36643 0
M  V30 19889 H 1817.64 2.07556 -5.75092 0
M  V30 19890 H 1821.82 1.85323 -6.71289 0
M  V30 19891 H 1819.44 1.70614 -7.40807 0
M  V30 19892 N 1821.02 1.235 0.979051 0
M  V30 19893 C 1821.97 1.01737 2.07167 0
M  V30 19894 C 1822.94 -0.0656067 1.6597 0
M  V30 19895 O 1824.12 0.0867676 1.90603 0
M  V30 19896 C 1821.26 0.616104 3.39556 0
M  V30 19897 C 1820.37 1.77135 3.94014 0
M  V30 19898 C 1819.51 1.31674 5.14622 0
M  V30 19899 C 1818.55 2.44265 5.6125 0
M  V30 19900 N 1817.69 1.99752 6.73085 0
M  V30 19901 H 1822.53 1.9526 2.25117 0
M  V30 19902 H 1820.06 0.972707 1.10349 0
M  V30 19903 H 1822.02 0.364549 4.15604 0
M  V30 19904 H 1820.65 -0.282117 3.21565 0
M  V30 19905 H 1819.7 2.13687 3.14709 0
M  V30 19906 H 1821.01 2.61775 4.24588 0
M  V30 19907 H 1820.17 1.02339 5.98006 0
M  V30 19908 H 1818.91 0.440724 4.85705 0
M  V30 19909 H 1817.91 2.74373 4.76445 0
M  V30 19910 H 1819.14 3.32405 5.92186 0
M  V30 19911 H 1817.08 1.14532 6.45924 0
M  V30 19912 H 1817 2.77951 7.0305 0
M  V30 19913 H 1818.27 1.73525 7.5994 0
M  V30 19914 N 1822.5 -1.17802 1.04693 0
M  V30 19915 C 1823.72 -1.92408 0.774194 0
M  V30 19916 C 1824.15 -1.76012 -0.663424 0
M  V30 19917 O 1823.51 -1.07447 -1.4603 0
M  V30 19918 C 1823.55 -3.4166 1.1533 0
M  V30 19919 O 1822.66 -4.11431 0.282469 0
M  V30 19920 H 1822 -0.600033 0.284353 0
M  V30 19921 H 1824.53 -1.49348 1.39844 0
M  V30 19922 H 1824.54 -3.92386 1.11791 0
M  V30 19923 H 1823.21 -3.52914 2.20056 0
M  V30 19924 H 1821.79 -3.70979 0.378021 0
M  V30 19925 N 1823.98 -0.827251 -1.34143 0
M  V30 19926 C 1824.92 -0.240552 -2.31353 0
M  V30 19927 C 1825.92 0.62109 -1.57603 0
M  V30 19928 O 1827.12 0.511947 -1.72566 0
M  V30 19929 H 1823.5 -0.0590494 -0.749678 0
M  V30 19930 H 1825.47 -1.07518 -2.78357 0
M  V30 19931 C 1824.22 0.579321 -3.4284 0
M  V30 19932 H 1823.54 -0.0743746 -3.99731 0
M  V30 19933 H 1824.98 0.955871 -4.13085 0
M  V30 19934 C 1823.44 1.75345 -2.87673 0
M  V30 19935 O 1823.97 2.85178 -2.82907 0
M  V30 19936 N 1822.18 1.57158 -2.44437 0
M  V30 19937 H 1821.72 0.678148 -2.48513 0
M  V30 19938 H 1821.68 2.35869 -2.07877 0
M  V30 19939 N 1825.45 1.46436 -0.582609 0
M  V30 19940 C 1826.7 2.02385 -0.0681494 0
M  V30 19941 C 1827.03 1.4541 1.29175 0
M  V30 19942 O 1826.28 0.609021 1.85982 0
M  V30 19943 C 1826.58 3.57368 0.0476745 0
M  V30 19944 C 1826.25 4.33382 -1.24462 0
M  V30 19945 C 1824.91 4.53868 -1.59866 0
M  V30 19946 C 1827.26 4.7703 -2.09981 0
M  V30 19947 C 1824.59 5.15254 -2.80589 0
M  V30 19948 C 1826.94 5.39749 -3.29929 0
M  V30 19949 C 1825.61 5.58463 -3.65616 0
M  V30 19950 H 1824.88 0.74058 -0.0249376 0
M  V30 19951 H 1827.52 1.75807 -0.759226 0
M  V30 19952 H 1825.83 3.83083 0.821879 0
M  V30 19953 H 1827.53 3.98336 0.461487 0
M  V30 19954 H 1824.12 4.17734 -0.958993 0
M  V30 19955 H 1828.3 4.60959 -1.83931 0
M  V30 19956 H 1823.56 5.27934 -3.08376 0
M  V30 19957 H 1827.73 5.72529 -3.96464 0
M  V30 19958 H 1825.36 6.05799 -4.59252 0
M  V30 19959 N 1826.93 0.320385 1.54309 0
M  V30 19960 C 1827.88 -0.562569 2.25694 0
M  V30 19961 C 1828.87 -1.12117 1.26988 0
M  V30 19962 O 1830.08 -1.06958 1.44776 0
M  V30 19963 H 1826.45 -0.200063 0.724899 0
M  V30 19964 H 1828.43 0.0618142 2.98336 0
M  V30 19965 C 1827.17 -1.7134 3.02552 0
M  V30 19966 H 1826.5 -1.29281 3.7832 0
M  V30 19967 H 1827.94 -2.30687 3.55752 0
M  V30 19968 C 1826.4 -2.62912 2.10663 0
M  V30 19969 O 1826.93 -3.64541 1.68739 0
M  V30 19970 N 1825.13 -2.31076 1.76217 0
M  V30 19971 H 1824.68 -1.48474 2.10507 0
M  V30 19972 H 1824.64 -2.92608 1.15014 0
M  V30 19973 N 1828.41 -1.57525 0.0484906 0
M  V30 19974 C 1829.66 -1.92204 -0.624654 0
M  V30 19975 C 1829.98 -0.927289 -1.71541 0
M  V30 19976 O 1829.25 0.0282687 -1.9588 0
M  V30 19977 H 1827.83 -0.709494 -0.233724 0
M  V30 19978 H 1830.49 -1.94639 0.100861 0
M  V30 19979 H 1829.59 -2.93368 -1.06498 0
M  V30 19980 N 1829.89 0.224867 -1.55988 0
M  V30 19981 C 1830.8 1.2997 -1.95307 0
M  V30 19982 C 1831.81 1.51463 -0.856444 0
M  V30 19983 O 1832.99 1.64658 -1.15973 0
M  V30 19984 C 1830.05 2.63009 -2.25892 0
M  V30 19985 C 1829.12 2.49847 -3.49106 0
M  V30 19986 C 1828.35 3.76541 -3.78223 0
M  V30 19987 O 1828.57 4.7941 -3.09066 0
M  V30 19988 O 1827.51 3.73852 -4.71718 0
M  V30 19989 H 1831.33 0.996093 -2.869 0
M  V30 19990 H 1828.92 0.427457 -1.43154 0
M  V30 19991 H 1830.8 3.41586 -2.46774 0
M  V30 19992 H 1829.47 2.93057 -1.37474 0
M  V30 19993 H 1828.38 1.69482 -3.33507 0
M  V30 19994 H 1829.71 2.24739 -4.37896 0
M  V30 19995 N 1831.37 1.49742 0.491438 0
M  V30 19996 C 1832.31 1.67614 1.61271 0
M  V30 19997 C 1833.31 0.542004 1.60495 0
M  V30 19998 O 1834.51 0.721922 1.64889 0
M  V30 19999 H 1830.89 0.528696 0.534775 0
M  V30 20000 H 1832.86 2.61711 1.43352 0
M  V30 20001 C 1831.61 1.76877 2.99349 0
M  V30 20002 H 1830.93 2.63526 3.00656 0
M  V30 20003 H 1832.37 1.93414 3.77315 0
M  V30 20004 C 1830.83 0.515719 3.32929 0
M  V30 20005 O 1831.36 -0.354312 4.00134 0
M  V30 20006 N 1829.57 0.3758 2.8816 0
M  V30 20007 H 1829.11 1.08481 2.33644 0
M  V30 20008 H 1829.07 -0.461494 3.10995 0
M  V30 20009 N 1832.84 -0.743177 1.38977 0
M  V30 20010 C 1834.09 -1.49798 1.35069 0
M  V30 20011 C 1834.41 -1.95527 -0.0533172 0
M  V30 20012 O 1835.61 -2.70648 -0.21497 0
M  V30 20013 C 1834.07 -2.70637 2.37242 0
M  V30 20014 C 1833.68 -2.3189 3.83316 0
M  V30 20015 C 1835.42 -3.4849 2.42395 0
M  V30 20016 C 1833.33 -3.49403 4.77149 0
M  V30 20017 H 1832.26 -0.562495 0.50211 0
M  V30 20018 H 1834.91 -0.81145 1.64584 0
M  V30 20019 H 1833.29 -3.41323 2.00785 0
M  V30 20020 H 1834.46 -1.68803 4.28768 0
M  V30 20021 H 1832.78 -1.67148 3.8138 0
M  V30 20022 H 1835.38 -4.35882 3.09694 0
M  V30 20023 H 1835.72 -3.9038 1.446 0
M  V30 20024 H 1836.25 -2.84825 2.77704 0
M  V30 20025 H 1832.99 -3.1257 5.76177 0
M  V30 20026 H 1832.51 -4.11498 4.36382 0
M  V30 20027 H 1834.19 -4.15847 4.95661 0
M  V30 20028 N 1834.32 -1.24018 -0.972487 0
M  V30 20029 C 1835.55 -1.10483 -1.75523 0
M  V30 20030 C 1835.97 0.338985 -1.8502 0
M  V30 20031 O 1835.33 1.24534 -1.31761 0
M  V30 20032 C 1835.38 -1.74396 -3.15624 0
M  V30 20033 O 1834.48 -1.01148 -3.99804 0
M  V30 20034 H 1833.82 -0.386777 -0.539722 0
M  V30 20035 H 1836.35 -1.64231 -1.22022 0
M  V30 20036 H 1836.36 -1.79958 -3.66168 0
M  V30 20037 H 1835.04 -2.7945 -3.08026 0
M  V30 20038 H 1833.62 -1.03338 -3.58296 0
M  V30 20039 N 1835.8 1.17245 -1.05316 0
M  V30 20040 C 1837.05 1.87165 -0.762471 0
M  V30 20041 C 1837.37 1.8151 0.712687 0
M  V30 20042 O 1836.64 1.2419 1.51504 0
M  V30 20043 H 1835.22 0.69292 -0.279054 0
M  V30 20044 H 1837.88 1.42227 -1.33257 0
M  V30 20045 H 1836.98 2.92872 -1.07854 0
M  V30 20046 N 1837.28 0.834353 1.33702 0
M  V30 20047 C 1838.53 0.424225 1.97188 0
M  V30 20048 C 1838.84 -1.02086 1.66846 0
M  V30 20049 O 1840.05 -1.53545 2.23911 0
M  V30 20050 C 1838.5 0.707628 3.52875 0
M  V30 20051 C 1838.11 2.16709 3.92098 0
M  V30 20052 C 1839.85 0.364228 4.22935 0
M  V30 20053 C 1837.76 2.39478 5.40744 0
M  V30 20054 H 1836.69 0.154897 0.737918 0
M  V30 20055 H 1839.34 1.02231 1.52385 0
M  V30 20056 H 1837.72 0.0392323 3.95981 0
M  V30 20057 H 1838.9 2.87559 3.60064 0
M  V30 20058 H 1837.21 2.47303 3.35008 0
M  V30 20059 H 1839.81 0.512031 5.32243 0
M  V30 20060 H 1840.15 -0.692375 4.10502 0
M  V30 20061 H 1840.69 0.98767 3.85344 0
M  V30 20062 H 1837.43 3.43687 5.58175 0
M  V30 20063 H 1836.95 1.73184 5.74254 0
M  V30 20064 H 1838.62 2.22406 6.07573 0
M  V30 20065 N 1838.76 -1.46125 0.590367 0
M  V30 20066 C 1840 -2.04237 0.0816639 0
M  V30 20067 C 1840.36 -1.45099 -1.25739 0
M  V30 20068 O 1841.56 -1.94458 -1.85578 0
M  V30 20069 C 1839.83 -3.57391 0.0248878 0
M  V30 20070 S 1841.39 -4.36736 -0.425128 0
M  V30 20071 H 1838.21 -0.709806 0.0411891 0
M  V30 20072 H 1840.81 -1.79065 0.784592 0
M  V30 20073 H 1839.52 -3.97948 1.00327 0
M  V30 20074 H 1839.05 -3.87112 -0.700572 0
M  V30 20075 H 1841.06 -4.66956 -1.6783 0
M  V30 20076 N 1840.23 -0.328564 -1.54137 0
M  V30 20077 C 1841.46 0.277044 -2.05541 0
M  V30 20078 C 1841.88 1.44613 -1.20285 0
M  V30 20079 O 1841.24 1.80043 -0.213107 0
M  V30 20080 C 1841.29 0.684495 -3.54044 0
M  V30 20081 O 1840.39 1.78629 -3.71706 0
M  V30 20082 H 1839.74 0.049078 -0.662184 0
M  V30 20083 H 1842.27 -0.478426 -1.98928 0
M  V30 20084 H 1842.28 0.965784 -3.96405 0
M  V30 20085 H 1840.95 -0.170554 -4.1555 0
M  V30 20086 H 1839.53 1.50343 -3.4125 0
M  V30 20087 N 1841.71 1.57497 -0.0568439 0
M  V30 20088 C 1842.96 1.9209 0.615157 0
M  V30 20089 C 1843.27 0.937538 1.71667 0
M  V30 20090 O 1844.48 1.17573 2.44722 0
M  V30 20091 C 1842.94 3.41183 1.14552 0
M  V30 20092 C 1842.54 4.47936 0.0758146 0
M  V30 20093 C 1844.29 3.84801 1.79244 0
M  V30 20094 C 1842.2 5.88148 0.619381 0
M  V30 20095 H 1841.13 0.716918 0.233547 0
M  V30 20096 H 1843.78 1.83062 -0.126654 0
M  V30 20097 H 1842.16 3.45234 1.93983 0
M  V30 20098 H 1843.33 4.55482 -0.69807 0
M  V30 20099 H 1841.65 4.13694 -0.473984 0
M  V30 20100 H 1844.24 4.86929 2.20918 0
M  V30 20101 H 1844.59 3.21355 2.64645 0
M  V30 20102 H 1845.12 3.8329 1.0646 0
M  V30 20103 H 1841.86 6.55204 -0.19712 0
M  V30 20104 H 1841.38 5.84152 1.36112 0
M  V30 20105 H 1843.06 6.37572 1.1005 0
M  V30 20106 N 1843.19 -0.216591 1.56105 0
M  V30 20107 C 1844.44 -0.938392 1.78993 0
M  V30 20108 C 1844.76 -1.84671 0.626215 0
M  V30 20109 O 1844.03 -1.92626 -0.356636 0
M  V30 20110 H 1842.61 -0.349491 0.660201 0
M  V30 20111 H 1845.27 -0.227256 1.93571 0
M  V30 20112 H 1844.37 -1.54227 2.71331 0
M  V30 20113 N 1844.67 -1.5 -0.48349 0
M  V30 20114 C 1845.9 -1.64105 -1.26004 0
M  V30 20115 C 1846.31 -0.319389 -1.86079 0
M  V30 20116 O 1845.67 0.697243 -1.68656 0
M  V30 20117 C 1845.72 -2.72299 -2.37772 0
M  V30 20118 O 1845.44 -3.99341 -1.80163 0
M  V30 20119 C 1846.94 -2.97266 -3.28858 0
M  V30 20120 H 1844.16 -0.551971 -0.381535 0
M  V30 20121 H 1846.71 -1.96146 -0.57852 0
M  V30 20122 H 1844.86 -2.42987 -3.01722 0
M  V30 20123 H 1845.27 -4.59077 -2.5367 0
M  V30 20124 H 1846.75 -3.76662 -4.03521 0
M  V30 20125 H 1847.23 -2.07855 -3.86902 0
M  V30 20126 H 1847.83 -3.28062 -2.70657 0
M  V30 20127 N 1846.15 0.735796 -1.39369 0
M  V30 20128 C 1847.38 1.52283 -1.39619 0
M  V30 20129 C 1847.78 1.89197 0.0112732 0
M  V30 20130 O 1847.13 1.54562 0.992786 0
M  V30 20131 C 1847.19 2.83993 -2.20427 0
M  V30 20132 C 1846.85 2.69518 -3.69065 0
M  V30 20133 C 1847.85 2.38119 -4.62164 0
M  V30 20134 C 1845.54 2.86414 -4.12641 0
M  V30 20135 C 1847.53 2.23797 -5.9682 0
M  V30 20136 C 1845.22 2.7171 -5.47373 0
M  V30 20137 C 1846.21 2.40447 -6.39277 0
M  V30 20138 O 1845.9 2.25833 -7.71527 0
M  V30 20139 H 1845.63 0.477218 -0.478789 0
M  V30 20140 H 1848.19 0.916936 -1.83797 0
M  V30 20141 H 1846.42 3.46839 -1.70996 0
M  V30 20142 H 1848.11 3.45606 -2.12865 0
M  V30 20143 H 1848.87 2.24717 -4.29799 0
M  V30 20144 H 1844.75 3.0974 -3.41441 0
M  V30 20145 H 1848.3 1.99316 -6.6852 0
M  V30 20146 H 1844.19 2.8469 -5.79329 0
M  V30 20147 H 1844.96 2.40909 -7.82244 0
M  V30 20148 N 1847.63 1.24532 0.965897 0
M  V30 20149 C 1849.04 1.0111 1.23486 0
M  V30 20150 C 1849.24 -0.278989 1.99559 0
M  V30 20151 O 1848.3 -0.99467 2.32083 0
M  V30 20152 C 1849.61 2.22726 2.02024 0
M  V30 20153 C 1851.16 2.27369 2.1511 0
M  V30 20154 C 1851.63 3.48611 2.97043 0
M  V30 20155 N 1853.12 3.48938 3.04625 0
M  V30 20156 C 1853.86 4.3941 3.68384 0
M  V30 20157 N 1853.36 5.40138 4.33847 0
M  V30 20158 N 1855.15 4.27117 3.65414 0
M  V30 20159 H 1847.3 2.07433 0.456674 0
M  V30 20160 H 1849.56 0.91037 0.264443 0
M  V30 20161 H 1849.27 3.16427 1.53515 0
M  V30 20162 H 1849.14 2.24989 3.02754 0
M  V30 20163 H 1851.53 1.34198 2.62821 0
M  V30 20164 H 1851.61 2.29131 1.13722 0
M  V30 20165 H 1851.25 4.42097 2.50025 0
M  V30 20166 H 1851.18 3.44093 3.98632 0
M  V30 20167 H 1853.68 2.76067 2.58061 0
M  V30 20168 H 1853.99 6.05402 4.80321 0
M  V30 20169 H 1852.33 5.44022 4.3251 0
M  V30 20170 H 1855.52 3.47659 3.1345 0
M  V30 20171 H 1855.7 4.97824 4.1482 0
M  V30 20172 N 1849.1 -1.16685 1.05936 0
M  V30 20173 C 1850.35 -1.87128 0.773915 0
M  V30 20174 C 1850.68 -1.81489 -0.699434 0
M  V30 20175 O 1849.93 -1.22285 -1.5279 0
M  V30 20176 C 1850.23 -3.36322 1.20923 0
M  V30 20177 C 1849.9 -3.62161 2.68607 0
M  V30 20178 C 1848.56 -3.68923 3.08949 0
M  V30 20179 C 1850.91 -3.73029 3.64004 0
M  V30 20180 C 1848.24 -3.84049 4.43535 0
M  V30 20181 C 1850.59 -3.89675 4.98333 0
M  V30 20182 C 1849.26 -3.94678 5.38317 0
M  V30 20183 H 1848.53 -0.684749 0.283195 0
M  V30 20184 H 1851.17 -1.37992 1.3278 0
M  V30 20185 H 1849.48 -3.87566 0.574472 0
M  V30 20186 H 1851.18 -3.89204 0.965469 0
M  V30 20187 H 1847.77 -3.57529 2.3637 0
M  V30 20188 H 1851.95 -3.67119 3.33972 0
M  V30 20189 H 1847.21 -3.86173 4.74005 0
M  V30 20190 H 1851.38 -3.97026 5.72139 0
M  V30 20191 H 1849.01 -4.06151 6.42608 0
M  V30 20192 N 1850.58 -0.841432 -1.33258 0
M  V30 20193 C 1852 -0.529552 -1.50559 0
M  V30 20194 C 1852.2 0.942598 -1.78094 0
M  V30 20195 O 1851.25 1.72628 -1.84271 0
M  V30 20196 C 1852.57 -1.40511 -2.65852 0
M  V30 20197 C 1854.11 -1.40415 -2.79737 0
M  V30 20198 C 1854.59 -2.26462 -3.98094 0
M  V30 20199 N 1856.08 -2.24185 -4.05334 0
M  V30 20200 C 1856.82 -2.875 -4.96116 0
M  V30 20201 N 1856.31 -3.59877 -5.91997 0
M  V30 20202 N 1858.1 -2.76957 -4.89133 0
M  V30 20203 H 1850.26 -1.79438 -1.13648 0
M  V30 20204 H 1852.52 -0.765683 -0.558958 0
M  V30 20205 H 1852.22 -2.45136 -2.52193 0
M  V30 20206 H 1852.1 -1.08299 -3.61319 0
M  V30 20207 H 1854.49 -0.365604 -2.92826 0
M  V30 20208 H 1854.57 -1.76636 -1.85023 0
M  V30 20209 H 1854.21 -3.30377 -3.85764 0
M  V30 20210 H 1854.14 -1.87581 -4.92058 0
M  V30 20211 H 1856.63 -1.71553 -3.36716 0
M  V30 20212 H 1856.94 -4.05388 -6.57936 0
M  V30 20213 H 1855.29 -3.63985 -5.92064 0
M  V30 20214 H 1858.48 -2.19974 -4.13194 0
M  V30 20215 H 1858.65 -3.26585 -5.59684 0
M  V30 20216 N 1852.06 1.4581 -0.598108 0
M  V30 20217 C 1852.99 2.33223 0.113747 0
M  V30 20218 C 1853.97 1.46268 0.868312 0
M  V30 20219 O 1855.16 1.75058 0.840737 0
M  V30 20220 C 1852.29 3.28815 1.11795 0
M  V30 20221 C 1851.24 4.25331 0.477223 0
M  V30 20222 C 1850.57 5.10544 1.589 0
M  V30 20223 C 1851.87 5.18894 -0.595518 0
M  V30 20224 H 1853.56 2.92992 -0.616123 0
M  V30 20225 H 1851.11 1.40888 -0.297741 0
M  V30 20226 H 1853.06 3.88832 1.62443 0
M  V30 20227 H 1851.78 2.67185 1.87829 0
M  V30 20228 H 1850.44 3.66599 -0.00831044 0
M  V30 20229 H 1850.09 4.45288 2.33939 0
M  V30 20230 H 1849.79 5.75918 1.16584 0
M  V30 20231 H 1851.31 5.73427 2.09794 0
M  V30 20232 H 1852.73 5.73037 -0.173494 0
M  V30 20233 H 1851.12 5.92694 -0.939873 0
M  V30 20234 H 1852.19 4.61895 -1.47584 0
M  V30 20235 N 1853.54 0.336733 1.53961 0
M  V30 20236 C 1854.79 -0.261343 2.00403 0
M  V30 20237 C 1855.11 -1.51612 1.22633 0
M  V30 20238 O 1854.38 -1.93072 0.331659 0
M  V30 20239 H 1852.96 -0.0995594 0.740336 0
M  V30 20240 H 1855.62 0.456319 1.89483 0
M  V30 20241 H 1854.71 -0.508557 3.07929 0
M  V30 20242 N 1855.02 -1.57465 0.0651956 0
M  V30 20243 C 1856.26 -1.92856 -0.604233 0
M  V30 20244 C 1856.58 -0.945431 -1.70548 0
M  V30 20245 O 1855.85 0.00749144 -1.95899 0
M  V30 20246 H 1854.43 -0.711933 -0.226185 0
M  V30 20247 H 1857.1 -1.94521 0.121499 0
M  V30 20248 H 1856.19 -2.94481 -1.03381 0
M  V30 20249 N 1856.49 0.20831 -1.56217 0
M  V30 20250 C 1857.77 0.955838 -1.70655 0
M  V30 20251 C 1858.15 2.01905 -0.61624 0
M  V30 20252 O 1857.5 2.25405 0.374793 0
M  V30 20253 C 1857.71 1.55427 -3.1248 0
M  V30 20254 C 1859.06 2.04147 -3.72303 0
M  V30 20255 O 1860.08 1.65295 -3.15525 0
M  V30 20256 O 1858.94 2.75597 -4.7192 0
M  V30 20257 H 1856.03 0.447364 -0.695553 0
M  V30 20258 H 1858.58 0.199047 -1.68529 0
M  V30 20259 H 1857.35 0.787224 -3.83299 0
M  V30 20260 H 1856.97 2.37625 -3.18779 0
M  V30 20261 N 1857.97 1.50255 0.475528 0
M  V30 20262 C 1859.22 1.6223 1.22691 0
M  V30 20263 C 1859.57 0.316569 1.89778 0
M  V30 20264 O 1858.87 -0.685188 1.78929 0
M  V30 20265 C 1859.06 2.73698 2.29835 0
M  V30 20266 C 1858.89 4.14984 1.73259 0
M  V30 20267 C 1857.66 4.81444 1.53428 0
M  V30 20268 C 1859.86 4.99374 1.23004 0
M  V30 20269 N 1857.84 6.0696 0.920483 0
M  V30 20270 C 1859.21 6.15578 0.739186 0
M  V30 20271 C 1861.26 4.85182 1.11816 0
M  V30 20272 C 1859.97 7.19149 0.147502 0
M  V30 20273 C 1861.99 5.88926 0.540422 0
M  V30 20274 C 1861.36 7.04375 0.0599282 0
M  V30 20275 H 1857.45 0.647828 0.437999 0
M  V30 20276 H 1860.04 1.87357 0.529653 0
M  V30 20277 H 1858.21 2.503 2.96992 0
M  V30 20278 H 1859.94 2.75055 2.96861 0
M  V30 20279 H 1856.7 4.38663 1.78526 0
M  V30 20280 H 1857.12 6.74042 0.632126 0
M  V30 20281 H 1861.76 3.96215 1.47559 0
M  V30 20282 H 1859.48 8.07795 -0.222137 0
M  V30 20283 H 1863.07 5.80008 0.456289 0
M  V30 20284 H 1861.95 7.83278 -0.380127 0
M  V30 20285 N 1859.45 -0.728395 1.39758 0
M  V30 20286 C 1860.68 -1.5154 1.40425 0
M  V30 20287 C 1861.09 -1.892 -0.00123953 0
M  V30 20288 O 1860.43 -1.55086 -0.984575 0
M  V30 20289 C 1860.49 -2.8282 2.2193 0
M  V30 20290 C 1860.16 -2.67557 3.70489 0
M  V30 20291 C 1861.15 -2.35665 4.6342 0
M  V30 20292 C 1858.84 -2.84221 4.14154 0
M  V30 20293 C 1860.83 -2.20628 5.97998 0
M  V30 20294 C 1858.52 -2.68803 5.48806 0
M  V30 20295 C 1859.52 -2.37053 6.40543 0
M  V30 20296 O 1859.21 -2.21738 7.72714 0
M  V30 20297 H 1858.94 -0.474672 0.481313 0
M  V30 20298 H 1861.49 -0.907176 1.84281 0
M  V30 20299 H 1859.72 -3.45927 1.72833 0
M  V30 20300 H 1861.41 -3.44472 2.14695 0
M  V30 20301 H 1862.18 -2.22435 4.30985 0
M  V30 20302 H 1858.06 -3.07925 3.43079 0
M  V30 20303 H 1861.6 -1.95768 6.69567 0
M  V30 20304 H 1857.5 -2.81614 5.8083 0
M  V30 20305 H 1858.26 -2.36758 7.8351 0
M  V30 20306 N 1860.93 -1.25042 -0.959279 0
M  V30 20307 C 1862.34 -1.01764 -1.22948 0
M  V30 20308 C 1862.54 0.268402 -1.99704 0
M  V30 20309 O 1861.6 0.982348 -2.32607 0
M  V30 20310 C 1862.91 -2.23794 -2.0084 0
M  V30 20311 C 1864.46 -2.28507 -2.13901 0
M  V30 20312 C 1864.94 -3.50181 -2.9519 0
M  V30 20313 N 1866.43 -3.50549 -3.0277 0
M  V30 20314 C 1867.16 -4.41357 -3.66049 0
M  V30 20315 N 1866.66 -5.42431 -4.30976 0
M  V30 20316 N 1868.45 -4.29049 -3.63143 0
M  V30 20317 H 1860.6 -2.07672 -0.445667 0
M  V30 20318 H 1862.86 -0.91176 -0.259611 0
M  V30 20319 H 1862.57 -3.17237 -1.51835 0
M  V30 20320 H 1862.44 -2.26592 -3.01556 0
M  V30 20321 H 1864.83 -1.3559 -2.62105 0
M  V30 20322 H 1864.91 -2.29731 -1.12505 0
M  V30 20323 H 1864.56 -4.43417 -2.47677 0
M  V30 20324 H 1864.49 -3.46202 -3.96802 0
M  V30 20325 H 1866.98 -2.77432 -2.56593 0
M  V30 20326 H 1867.29 -6.07941 -4.77104 0
M  V30 20327 H 1865.64 -5.46308 -4.29619 0
M  V30 20328 H 1868.83 -3.49317 -3.11601 0
M  V30 20329 H 1869 -5.00017 -4.12174 0
M  V30 20330 N 1862.41 1.16121 -1.06553 0
M  V30 20331 C 1863.36 2.1858 -0.6486 0
M  V30 20332 C 1864.34 1.57643 0.322091 0
M  V30 20333 O 1865.53 1.76468 0.137113 0
M  V30 20334 C 1862.66 3.43277 -0.0393328 0
M  V30 20335 C 1861.75 4.11285 -1.03468 0
M  V30 20336 N 1862.14 4.54904 -2.21124 0
M  V30 20337 C 1860.44 4.37508 -0.8662 0
M  V30 20338 C 1861.14 5.07546 -2.84205 0
M  V30 20339 N 1860.11 5.00592 -2.11917 0
M  V30 20340 H 1863.92 2.50024 -1.54483 0
M  V30 20341 H 1861.43 1.32601 -0.937587 0
M  V30 20342 H 1863.43 4.15977 0.277211 0
M  V30 20343 H 1862.09 3.13319 0.852119 0
M  V30 20344 H 1863.1 4.48551 -2.58887 0
M  V30 20345 H 1859.77 4.17491 -0.0269599 0
M  V30 20346 H 1861.16 5.51315 -3.8406 0
M  V30 20347 N 1863.88 0.848487 1.3281 0
M  V30 20348 C 1864.83 0.277328 2.30941 0
M  V30 20349 C 1865.83 -0.595938 1.58572 0
M  V30 20350 O 1867.03 -0.484428 1.73359 0
M  V30 20351 H 1863.41 0.0709686 0.748644 0
M  V30 20352 H 1865.38 1.11932 2.76611 0
M  V30 20353 C 1864.13 -0.524705 3.43718 0
M  V30 20354 H 1863.45 0.137959 3.99562 0
M  V30 20355 H 1864.89 -0.890032 4.14553 0
M  V30 20356 C 1863.35 -1.70746 2.90426 0
M  V30 20357 O 1863.88 -2.80641 2.87408 0
M  V30 20358 N 1862.09 -1.5325 2.46907 0
M  V30 20359 H 1861.63 -0.638526 2.49561 0
M  V30 20360 H 1861.59 -2.32532 2.11603 0
M  V30 20361 N 1865.36 -1.4549 0.605832 0
M  V30 20362 C 1866.59 -2.06325 0.106497 0
M  V30 20363 C 1867 -1.45142 -1.21369 0
M  V30 20364 O 1866.34 -0.559284 -1.74979 0
M  V30 20365 C 1866.41 -3.59334 -0.109378 0
M  V30 20366 C 1866.07 -4.42842 1.12873 0
M  V30 20367 C 1867.07 -4.77929 2.04645 0
M  V30 20368 C 1864.75 -4.83621 1.35707 0
M  V30 20369 C 1866.75 -5.5265 3.1758 0
M  V30 20370 C 1864.43 -5.58096 2.48943 0
M  V30 20371 C 1865.43 -5.92527 3.39707 0
M  V30 20372 O 1865.12 -6.65492 4.50973 0
M  V30 20373 H 1864.85 -0.67285 0.06518 0
M  V30 20374 H 1867.4 -1.87751 0.83298 0
M  V30 20375 H 1865.63 -3.76301 -0.890735 0
M  V30 20376 H 1867.32 -4.02017 -0.560094 0
M  V30 20377 H 1868.09 -4.46984 1.88229 0
M  V30 20378 H 1863.97 -4.56257 0.659587 0
M  V30 20379 H 1867.51 -5.79443 3.88448 0
M  V30 20380 H 1863.41 -5.88455 2.65312 0
M  V30 20381 H 1864.18 -6.8394 4.49632 0
M  V30 20382 N 1866.84 -0.344893 -1.5378 0
M  V30 20383 C 1867.77 0.503579 -2.28005 0
M  V30 20384 C 1868.75 1.10149 -1.29619 0
M  V30 20385 O 1869.94 1.12263 -1.58463 0
M  V30 20386 C 1867.07 1.65398 -3.05386 0
M  V30 20387 C 1866.02 1.18434 -4.11288 0
M  V30 20388 C 1865.35 2.42336 -4.76631 0
M  V30 20389 C 1866.65 0.283853 -5.21528 0
M  V30 20390 H 1868.34 -0.115619 -2.99177 0
M  V30 20391 H 1865.89 -0.0570472 -1.43887 0
M  V30 20392 H 1867.84 2.25401 -3.56051 0
M  V30 20393 H 1866.56 2.3001 -2.31869 0
M  V30 20394 H 1865.22 0.607115 -3.61538 0
M  V30 20395 H 1864.87 3.05358 -3.99707 0
M  V30 20396 H 1864.57 2.11594 -5.4818 0
M  V30 20397 H 1866.09 3.03063 -5.3008 0
M  V30 20398 H 1867.51 0.790766 -5.6782 0
M  V30 20399 H 1865.91 0.0682509 -6.00061 0
M  V30 20400 H 1866.98 -0.679653 -4.80113 0
M  V30 20401 N 1868.32 1.57428 -0.0735454 0
M  V30 20402 C 1869.56 1.93843 0.596054 0
M  V30 20403 C 1869.9 0.953931 1.69156 0
M  V30 20404 O 1869.17 -0.0165729 1.94493 0
M  V30 20405 C 1869.46 3.40516 1.17137 0
M  V30 20406 C 1869.31 4.49725 0.0823861 0
M  V30 20407 C 1870.63 3.88042 2.07634 0
M  V30 20408 H 1867.75 0.70488 0.215204 0
M  V30 20409 H 1870.39 1.89484 -0.139871 0
M  V30 20410 H 1868.54 3.44361 1.79855 0
M  V30 20411 H 1870.21 4.58 -0.55078 0
M  V30 20412 H 1868.45 4.29813 -0.586788 0
M  V30 20413 H 1869.12 5.49494 0.525354 0
M  V30 20414 H 1871.6 3.86214 1.54849 0
M  V30 20415 H 1870.48 4.91277 2.44822 0
M  V30 20416 H 1870.74 3.26084 2.98532 0
M  V30 20417 N 1869.8 -0.200022 1.56326 0
M  V30 20418 C 1871.21 -0.765141 1.70301 0
M  V30 20419 C 1871.56 -1.84066 0.679277 0
M  V30 20420 O 1870.68 -2.15768 -0.165308 0
M  V30 20421 C 1871.28 -1.39466 3.08763 0
M  V30 20422 C 1869.84 -1.90692 3.2452 0
M  V30 20423 C 1868.98 -0.77502 2.66249 0
M  V30 20424 H 1871.94 0.024977 1.5868 0
M  V30 20425 H 1871.96 -2.26396 3.05819 0
M  V30 20426 H 1871.47 -0.61165 3.8325 0
M  V30 20427 H 1869.57 -2.71728 2.54941 0
M  V30 20428 H 1869.68 -2.0721 4.31973 0
M  V30 20429 H 1868.05 -1.18802 2.25296 0
M  V30 20430 H 1868.83 -0.00432851 3.433 0
M  V30 20431 N 1871.27 -1.50505 -0.467553 0
M  V30 20432 C 1872.5 -1.65433 -1.24256 0
M  V30 20433 C 1872.92 -0.339107 -1.8573 0
M  V30 20434 O 1872.27 0.679316 -1.69386 0
M  V30 20435 C 1872.33 -2.74805 -2.34871 0
M  V30 20436 O 1872.05 -4.01229 -1.75917 0
M  V30 20437 C 1873.55 -3.00738 -3.25687 0
M  V30 20438 H 1870.77 -0.555987 -0.375659 0
M  V30 20439 H 1873.31 -1.96749 -0.557684 0
M  V30 20440 H 1871.47 -2.46174 -2.99128 0
M  V30 20441 H 1871.88 -4.61742 -2.48787 0
M  V30 20442 H 1873.35 -3.80921 -3.99504 0
M  V30 20443 H 1873.83 -2.11947 -3.84675 0
M  V30 20444 H 1874.44 -3.30914 -2.67163 0
M  V30 20445 N 1872.75 0.720973 -1.40142 0
M  V30 20446 C 1874 1.48297 -1.38332 0
M  V30 20447 C 1874.33 1.94193 0.0162191 0
M  V30 20448 O 1873.61 1.67781 0.983853 0
M  V30 20449 C 1873.89 2.71283 -2.36807 0
M  V30 20450 C 1873.74 2.31316 -3.85763 0
M  V30 20451 C 1875.06 3.73426 -2.32897 0
M  V30 20452 H 1872.18 0.537922 -0.503794 0
M  V30 20453 H 1874.82 0.823265 -1.71238 0
M  V30 20454 H 1872.97 3.27571 -2.08877 0
M  V30 20455 H 1874.64 1.80551 -4.24499 0
M  V30 20456 H 1872.89 1.63379 -4.01858 0
M  V30 20457 H 1873.56 3.19449 -4.50174 0
M  V30 20458 H 1876.03 3.26755 -2.57624 0
M  V30 20459 H 1874.91 4.57124 -3.03856 0
M  V30 20460 H 1875.17 4.21343 -1.33876 0
M  V30 20461 N 1874.23 1.25549 0.952634 0
M  V30 20462 C 1875.18 1.06108 2.04963 0
M  V30 20463 C 1876.15 -0.0303872 1.66072 0
M  V30 20464 O 1877.33 0.127178 1.90376 0
M  V30 20465 C 1874.47 0.68799 3.38173 0
M  V30 20466 C 1873.59 1.85452 3.90168 0
M  V30 20467 C 1872.72 1.4256 5.11713 0
M  V30 20468 C 1871.76 2.56115 5.55942 0
M  V30 20469 N 1870.9 2.13984 6.68697 0
M  V30 20470 H 1875.74 1.99991 2.20925 0
M  V30 20471 H 1873.27 0.995895 1.08261 0
M  V30 20472 H 1875.23 0.452622 4.14737 0
M  V30 20473 H 1873.86 -0.213845 3.22091 0
M  V30 20474 H 1872.91 2.20314 3.10106 0
M  V30 20475 H 1874.23 2.70722 4.1894 0
M  V30 20476 H 1873.38 1.15 5.95701 0
M  V30 20477 H 1872.12 0.54365 4.8466 0
M  V30 20478 H 1871.12 2.84417 4.70518 0
M  V30 20479 H 1872.35 3.44891 5.85002 0
M  V30 20480 H 1870.29 1.28208 6.4335 0
M  V30 20481 H 1870.21 2.92801 6.96996 0
M  V30 20482 H 1871.48 1.89605 7.56089 0
M  V30 20483 N 1875.71 -1.15554 1.07168 0
M  V30 20484 C 1876.64 -2.19841 0.648285 0
M  V30 20485 C 1877.65 -1.60045 -0.298247 0
M  V30 20486 O 1878.84 -1.78284 -0.0878565 0
M  V30 20487 C 1875.94 -3.38831 -0.068586 0
M  V30 20488 C 1875.12 -4.28173 0.89366 0
M  V30 20489 C 1874.17 -5.25763 0.214424 0
M  V30 20490 O 1873.2 -5.62744 0.854883 0
M  V30 20491 N 1874.4 -5.71096 -1.04063 0
M  V30 20492 H 1877.17 -2.56784 1.54539 0
M  V30 20493 H 1874.73 -1.30652 0.956127 0
M  V30 20494 H 1876.72 -4.01167 -0.533614 0
M  V30 20495 H 1875.29 -3.00319 -0.86761 0
M  V30 20496 H 1874.51 -3.62965 1.53785 0
M  V30 20497 H 1875.8 -4.84739 1.54613 0
M  V30 20498 H 1875.2 -5.4316 -1.58095 0
M  V30 20499 H 1873.75 -6.35481 -1.44937 0
M  V30 20500 N 1877.19 -0.855519 -1.32358 0
M  V30 20501 C 1878.44 -0.458415 -1.96832 0
M  V30 20502 C 1878.76 0.98946 -1.68032 0
M  V30 20503 O 1878.03 1.69161 -0.987995 0
M  V30 20504 H 1876.61 -0.166527 -0.728202 0
M  V30 20505 H 1879.27 -1.09214 -1.61426 0
M  V30 20506 H 1878.36 -0.604185 -3.06196 0
M  V30 20507 N 1878.67 1.45167 -0.61354 0
M  V30 20508 C 1879.61 2.32319 0.114222 0
M  V30 20509 C 1880.61 1.4632 0.853634 0
M  V30 20510 O 1881.81 1.62769 0.768525 0
M  V30 20511 H 1878.19 0.749935 0.0556921 0
M  V30 20512 H 1880.16 2.91474 -0.639175 0
M  V30 20513 C 1878.91 3.30035 1.09417 0
M  V30 20514 H 1878.23 3.96209 0.534632 0
M  V30 20515 H 1879.67 3.93734 1.5732 0
M  V30 20516 C 1878.13 2.57648 2.1707 0
M  V30 20517 O 1878.66 2.36227 3.24899 0
M  V30 20518 N 1876.87 2.17682 1.92517 0
M  V30 20519 H 1876.41 2.35303 1.04834 0
M  V30 20520 H 1876.37 1.69573 2.6475 0
M  V30 20521 N 1880.14 0.353044 1.53595 0
M  V30 20522 C 1881.37 -0.241315 2.05186 0
M  V30 20523 C 1881.78 -1.44008 1.22713 0
M  V30 20524 O 1881.12 -1.81884 0.257661 0
M  V30 20525 C 1881.19 -0.71094 3.524 0
M  V30 20526 C 1880.85 0.369445 4.55504 0
M  V30 20527 C 1881.85 1.21525 5.05497 0
M  V30 20528 C 1879.53 0.526096 4.99537 0
M  V30 20529 C 1881.53 2.20316 5.98113 0
M  V30 20530 C 1879.21 1.51739 5.91962 0
M  V30 20531 C 1880.21 2.35437 6.41138 0
M  V30 20532 O 1879.9 3.32877 7.31743 0
M  V30 20533 H 1879.63 -0.0486773 0.674245 0
M  V30 20534 H 1882.19 0.506038 1.99069 0
M  V30 20535 H 1880.42 -1.50969 3.56013 0
M  V30 20536 H 1882.1 -1.2269 3.86913 0
M  V30 20537 H 1882.87 1.10536 4.72236 0
M  V30 20538 H 1878.75 -0.115562 4.60855 0
M  V30 20539 H 1882.29 2.85682 6.36421 0
M  V30 20540 H 1878.19 1.62781 6.24638 0
M  V30 20541 H 1878.96 3.2846 7.49704 0
M  V30 20542 N 1881.62 -1.57387 0.0818932 0
M  V30 20543 C 1882.58 -2.12162 -0.86718 0
M  V30 20544 C 1883.58 -1.04788 -1.21967 0
M  V30 20545 O 1884.77 -1.30733 -1.15128 0
M  V30 20546 C 1881.91 -2.63132 -2.16736 0
M  V30 20547 H 1883.1 -2.9733 -0.391788 0
M  V30 20548 H 1880.65 -1.55406 -0.166944 0
M  V30 20549 H 1881.39 -1.81446 -2.6879 0
M  V30 20550 H 1881.17 -3.41625 -1.92445 0
M  V30 20551 H 1882.66 -3.05549 -2.84657 0
M  V30 20552 N 1883.1 0.191729 -1.56429 0
M  V30 20553 C 1884.32 0.931804 -1.85289 0
M  V30 20554 C 1884.75 1.7592 -0.665864 0
M  V30 20555 O 1884.11 1.77158 0.385313 0
M  V30 20556 C 1884.16 1.801 -3.12404 0
M  V30 20557 O 1883.26 2.9002 -2.93193 0
M  V30 20558 H 1882.6 0.262213 -0.610033 0
M  V30 20559 H 1885.13 0.196028 -2.03659 0
M  V30 20560 H 1885.14 2.20499 -3.43285 0
M  V30 20561 H 1883.82 1.19309 -3.9842 0
M  V30 20562 H 1882.39 2.53352 -2.73619 0
M  V30 20563 N 1884.58 1.50751 0.459565 0
M  V30 20564 C 1885.51 1.73389 1.56392 0
M  V30 20565 C 1886.49 0.583101 1.59793 0
M  V30 20566 O 1887.67 0.823474 1.75876 0
M  V30 20567 C 1884.8 1.83861 2.94639 0
M  V30 20568 C 1883.76 2.9914 3.06103 0
M  V30 20569 C 1883.08 2.94768 4.46112 0
M  V30 20570 C 1884.38 4.39471 2.82246 0
M  V30 20571 H 1886.08 2.65856 1.37699 0
M  V30 20572 H 1883.62 1.27933 0.661001 0
M  V30 20573 H 1885.58 1.98283 3.71836 0
M  V30 20574 H 1884.3 0.880254 3.14514 0
M  V30 20575 H 1882.96 2.84388 2.31342 0
M  V30 20576 H 1882.61 1.96755 4.62922 0
M  V30 20577 H 1882.31 3.72166 4.54716 0
M  V30 20578 H 1883.83 3.11254 5.25313 0
M  V30 20579 H 1885.25 4.54689 3.49186 0
M  V30 20580 H 1883.64 5.18406 3.02283 0
M  V30 20581 H 1884.71 4.51043 1.78012 0
M  V30 20582 N 1886.06 -0.713531 1.40522 0
M  V30 20583 C 1886.99 -1.8404 1.43707 0
M  V30 20584 C 1887.97 -1.67474 0.297751 0
M  V30 20585 O 1889.15 -1.87474 0.506662 0
M  V30 20586 C 1886.28 -3.22014 1.30094 0
M  V30 20587 C 1885.24 -3.53255 2.4165 0
M  V30 20588 C 1884.56 -4.90395 2.13113 0
M  V30 20589 C 1885.86 -3.54045 3.83991 0
M  V30 20590 H 1887.56 -1.81632 2.38013 0
M  V30 20591 H 1885.1 -0.872437 1.14562 0
M  V30 20592 H 1887.05 -4.00541 1.30938 0
M  V30 20593 H 1885.78 -3.25002 0.322648 0
M  V30 20594 H 1884.44 -2.77069 2.40059 0
M  V30 20595 H 1884.09 -4.89988 1.13669 0
M  V30 20596 H 1883.79 -5.12264 2.87853 0
M  V30 20597 H 1885.31 -5.71254 2.15642 0
M  V30 20598 H 1886.72 -4.22609 3.87395 0
M  V30 20599 H 1885.12 -3.87441 4.58268 0
M  V30 20600 H 1886.19 -2.53387 4.13428 0
M  V30 20601 N 1887.53 -1.26053 -0.945962 0
M  V30 20602 C 1888.44 -1.08959 -2.07762 0
M  V30 20603 C 1889.46 -0.0243726 -1.73983 0
M  V30 20604 O 1890.64 -0.227113 -2.00115 0
M  V30 20605 C 1887.7 -0.719365 -3.39155 0
M  V30 20606 C 1886.76 -1.86347 -3.86747 0
M  V30 20607 C 1885.99 -1.51082 -5.11869 0
M  V30 20608 O 1886.22 -0.410377 -5.68922 0
M  V30 20609 O 1885.15 -2.34395 -5.54385 0
M  V30 20610 H 1888.98 -2.03884 -2.25089 0
M  V30 20611 H 1886.56 -1.05071 -1.0621 0
M  V30 20612 H 1888.44 -0.525412 -4.18112 0
M  V30 20613 H 1887.12 0.20054 -3.23078 0
M  V30 20614 H 1886.03 -2.11235 -3.08756 0
M  V30 20615 H 1887.36 -2.76293 -4.07336 0
M  V30 20616 N 1889.01 1.14984 -1.07779 0
M  V30 20617 C 1890.24 1.90288 -0.824935 0
M  V30 20618 C 1890.66 1.77709 0.616524 0
M  V30 20619 O 1890.02 1.11281 1.4313 0
M  V30 20620 C 1890.07 3.38482 -1.24348 0
M  V30 20621 O 1889.17 4.10538 -0.391454 0
M  V30 20622 H 1888.51 0.592283 -0.300162 0
M  V30 20623 H 1891.04 1.45588 -1.43755 0
M  V30 20624 H 1891.05 3.89284 -1.22155 0
M  V30 20625 H 1889.73 3.46956 -2.29335 0
M  V30 20626 H 1888.3 3.69846 -0.476247 0
M  V30 20627 N 1890.49 0.862526 1.31902 0
M  V30 20628 C 1891.72 0.484006 2.01159 0
M  V30 20629 C 1892.13 -0.92148 1.64785 0
M  V30 20630 O 1891.49 -1.60254 0.873216 0
M  V30 20631 C 1891.54 0.622709 3.56096 0
M  V30 20632 O 1891.26 1.97284 3.91166 0
M  V30 20633 C 1892.76 0.244225 4.42627 0
M  V30 20634 H 1889.98 0.189378 0.643721 0
M  V30 20635 H 1892.53 1.16164 1.68304 0
M  V30 20636 H 1890.68 -0.00728166 3.87399 0
M  V30 20637 H 1891.1 1.97525 4.85885 0
M  V30 20638 H 1892.57 0.392254 5.50605 0
M  V30 20639 H 1893.05 -0.816006 4.31553 0
M  V30 20640 H 1893.65 0.84961 4.16727 0
M  V30 20641 N 1891.97 -1.4484 0.62123 0
M  V30 20642 C 1893.19 -2.07012 0.126801 0
M  V30 20643 C 1893.62 -1.46046 -1.18542 0
M  V30 20644 O 1892.98 -0.558202 -1.72493 0
M  V30 20645 C 1893.02 -3.60597 0.0150611 0
M  V30 20646 O 1892.13 -3.9929 -1.03157 0
M  V30 20647 H 1891.47 -0.659131 0.0802646 0
M  V30 20648 H 1894 -1.85874 0.855105 0
M  V30 20649 H 1894.01 -4.07608 -0.178742 0
M  V30 20650 H 1892.68 -4.04354 0.973153 0
M  V30 20651 H 1891.26 -3.63927 -0.813135 0
M  V30 20652 N 1893.45 -0.361184 -1.53405 0
M  V30 20653 C 1894.67 0.230765 -2.05609 0
M  V30 20654 C 1895.09 1.42805 -1.23499 0
M  V30 20655 O 1894.45 1.80423 -0.274582 0
M  V30 20656 C 1894.5 0.628571 -3.55993 0
M  V30 20657 O 1894.22 -0.521123 -4.3499 0
M  V30 20658 C 1895.72 1.27938 -4.24437 0
M  V30 20659 H 1892.94 0.0414193 -0.66972 0
M  V30 20660 H 1895.48 -0.518281 -1.97823 0
M  V30 20661 H 1893.64 1.32754 -3.63944 0
M  V30 20662 H 1894.05 -0.200483 -5.24117 0
M  V30 20663 H 1895.53 1.50832 -5.30993 0
M  V30 20664 H 1896 2.23834 -3.77882 0
M  V30 20665 H 1896.61 0.621961 -4.20728 0
M  V30 20666 N 1894.92 1.57341 -0.0902386 0
M  V30 20667 C 1895.87 2.10293 0.880961 0
M  V30 20668 C 1896.86 1.01683 1.24697 0
M  V30 20669 O 1898.05 1.27965 1.22286 0
M  V30 20670 C 1895.18 2.68293 2.14182 0
M  V30 20671 C 1894.27 3.83938 1.80146 0
M  V30 20672 N 1894.66 4.92166 1.16646 0
M  V30 20673 C 1892.95 3.93581 2.09785 0
M  V30 20674 C 1893.66 5.72845 1.01113 0
M  V30 20675 N 1892.63 5.21716 1.52686 0
M  V30 20676 H 1896.43 2.91354 0.385979 0
M  V30 20677 H 1893.95 1.62006 0.113118 0
M  V30 20678 H 1895.94 3.04555 2.84697 0
M  V30 20679 H 1894.6 1.88685 2.6425 0
M  V30 20680 H 1895.62 5.11143 0.833854 0
M  V30 20681 H 1892.29 3.24975 2.62102 0
M  V30 20682 H 1893.68 6.69924 0.514913 0
M  V30 20683 N 1896.4 -0.183431 1.56529 0
M  V30 20684 C 1897.65 -0.898713 1.82468 0
M  V30 20685 C 1898 -1.80394 0.66902 0
M  V30 20686 O 1897.3 -1.88645 -0.33521 0
M  V30 20687 C 1897.49 -1.74055 3.12153 0
M  V30 20688 C 1897.32 -0.918322 4.40224 0
M  V30 20689 C 1896.09 -0.598154 5.01747 0
M  V30 20690 C 1898.29 -0.26554 5.13614 0
M  V30 20691 N 1896.27 0.241481 6.13425 0
M  V30 20692 C 1897.64 0.435784 6.18467 0
M  V30 20693 C 1899.7 -0.182461 4.97566 0
M  V30 20694 C 1898.4 1.21229 7.09011 0
M  V30 20695 C 1900.42 0.580679 5.88542 0
M  V30 20696 C 1899.79 1.27041 6.92849 0
M  V30 20697 H 1895.89 -0.307874 0.718845 0
M  V30 20698 H 1898.47 -0.166565 1.93986 0
M  V30 20699 H 1896.64 -2.44421 3.01849 0
M  V30 20700 H 1898.37 -2.3962 3.26135 0
M  V30 20701 H 1895.13 -0.925363 4.64472 0
M  V30 20702 H 1895.55 0.651252 6.7386 0
M  V30 20703 H 1900.19 -0.701357 4.16942 0
M  V30 20704 H 1897.91 1.74257 7.89088 0
M  V30 20705 H 1901.5 0.646471 5.78197 0
M  V30 20706 H 1900.38 1.85146 7.62031 0
M  V30 20707 N 1897.88 -1.50992 -0.451564 0
M  V30 20708 C 1899.13 -1.62633 -1.19978 0
M  V30 20709 C 1899.45 -0.337971 -1.92049 0
M  V30 20710 O 1898.72 0.645542 -1.84958 0
M  V30 20711 H 1897.3 -0.599345 -0.445864 0
M  V30 20712 H 1899.96 -1.8786 -0.519104 0
M  V30 20713 H 1899.06 -2.44709 -1.93711 0
M  V30 20714 N 1899.36 0.706069 -1.40899 0
M  V30 20715 C 1900.61 1.46604 -1.39691 0
M  V30 20716 C 1900.93 1.945 -0.00244032 0
M  V30 20717 O 1900.19 1.69172 0.983828 0
M  V30 20718 C 1900.49 2.70045 -2.34116 0
M  V30 20719 C 1900.15 2.40863 -3.81177 0
M  V30 20720 C 1898.82 2.32615 -4.21241 0
M  V30 20721 C 1901.17 2.16582 -4.74069 0
M  V30 20722 C 1898.5 1.98167 -5.5222 0
M  V30 20723 C 1900.85 1.83645 -6.05357 0
M  V30 20724 C 1899.51 1.73885 -6.44454 0
M  V30 20725 H 1898.78 0.536463 -0.511164 0
M  V30 20726 H 1901.43 0.807941 -1.73622 0
M  V30 20727 H 1899.73 3.40738 -1.93403 0
M  V30 20728 H 1901.43 3.2816 -2.3046 0
M  V30 20729 H 1898.02 2.48173 -3.49439 0
M  V30 20730 H 1902.2 2.21905 -4.43928 0
M  V30 20731 H 1897.46 1.89155 -5.81404 0
M  V30 20732 H 1901.63 1.63873 -6.76845 0
M  V30 20733 H 1899.26 1.46959 -7.4586 0
M  V30 20734 N 1900.84 1.26553 0.939264 0
M  V30 20735 C 1902.08 1.12376 1.68818 0
M  V30 20736 C 1902.42 -0.331784 1.91345 0
M  V30 20737 O 1901.69 -1.24359 1.4955 0
M  V30 20738 C 1901.97 1.89541 3.0618 0
M  V30 20739 C 1901.83 3.43014 2.90966 0
M  V30 20740 C 1903.15 1.69074 4.06327 0
M  V30 20741 H 1900.26 0.409616 0.612686 0
M  V30 20742 H 1902.91 1.55571 1.09076 0
M  V30 20743 H 1901.06 1.5283 3.57177 0
M  V30 20744 H 1902.73 3.89489 2.47176 0
M  V30 20745 H 1900.97 3.69942 2.26551 0
M  V30 20746 H 1901.64 3.92236 3.88401 0
M  V30 20747 H 1904.12 2.01061 3.64299 0
M  V30 20748 H 1902.99 2.25478 5.00451 0
M  V30 20749 H 1903.26 0.635787 4.37504 0
M  V30 20750 N 1902.31 -1.14411 1.08387 0
M  V30 20751 C 1903.73 -1.67013 0.83448 0
M  V30 20752 C 1904.08 -1.85509 -0.638802 0
M  V30 20753 O 1903.2 -1.56611 -1.49338 0
M  V30 20754 C 1903.8 -3.03377 1.50825 0
M  V30 20755 C 1902.36 -3.53013 1.3061 0
M  V30 20756 C 1901.5 -2.28494 1.57117 0
M  V30 20757 H 1904.45 -0.984794 1.24449 0
M  V30 20758 H 1904.47 -3.68824 0.935352 0
M  V30 20759 H 1903.99 -2.89883 2.5805 0
M  V30 20760 H 1902.09 -3.7173 0.254538 0
M  V30 20761 H 1902.2 -4.33799 2.0336 0
M  V30 20762 H 1900.56 -2.34558 0.99271 0
M  V30 20763 H 1901.35 -2.17576 2.65547 0
M  V30 20764 N 1903.79 -0.869509 -1.31443 0
M  V30 20765 C 1905.04 -0.480925 -1.97015 0
M  V30 20766 C 1905.37 0.964227 -1.68571 0
M  V30 20767 O 1904.65 1.67893 -0.981953 0
M  V30 20768 C 1904.93 -0.738064 -3.52455 0
M  V30 20769 C 1904.78 -2.23272 -3.90474 0
M  V30 20770 C 1906.1 -0.204237 -4.39626 0
M  V30 20771 H 1903.22 -0.176206 -0.715626 0
M  V30 20772 H 1905.86 -1.09066 -1.55578 0
M  V30 20773 H 1904.01 -0.21909 -3.87882 0
M  V30 20774 H 1905.68 -2.81891 -3.65151 0
M  V30 20775 H 1903.93 -2.70546 -3.39098 0
M  V30 20776 H 1904.6 -2.36328 -4.98852 0
M  V30 20777 H 1907.07 -0.648228 -4.1102 0
M  V30 20778 H 1905.95 -0.413608 -5.47339 0
M  V30 20779 H 1906.21 0.893807 -4.32971 0
M  V30 20780 N 1905.27 1.44508 -0.628902 0
M  V30 20781 C 1906.5 2.06942 -0.137778 0
M  V30 20782 C 1906.92 1.46672 1.17766 0
M  V30 20783 O 1906.28 0.567342 1.72194 0
M  V30 20784 C 1906.33 3.60584 -0.0341843 0
M  V30 20785 O 1905.43 3.99831 1.01038 0
M  V30 20786 H 1904.77 0.658696 -0.083759 0
M  V30 20787 H 1907.3 1.85418 -0.864951 0
M  V30 20788 H 1907.31 4.07697 0.157123 0
M  V30 20789 H 1905.99 4.03833 -0.994583 0
M  V30 20790 H 1904.56 3.64353 0.793824 0
M  V30 20791 N 1906.75 0.369315 1.53212 0
M  V30 20792 C 1907.66 -0.483226 2.29569 0
M  V30 20793 C 1908.68 -1.08931 1.35684 0
M  V30 20794 O 1909.85 -1.09944 1.68743 0
M  V30 20795 C 1906.92 -1.60549 3.07286 0
M  V30 20796 C 1905.98 -1.02656 4.16846 0
M  V30 20797 C 1905.21 -2.09534 4.90847 0
M  V30 20798 O 1905.43 -3.30709 4.64745 0
M  V30 20799 O 1904.37 -1.72382 5.76687 0
M  V30 20800 H 1908.19 0.138246 3.03385 0
M  V30 20801 H 1905.78 0.133589 1.48802 0
M  V30 20802 H 1907.66 -2.25789 3.55805 0
M  V30 20803 H 1906.34 -2.21229 2.36303 0
M  V30 20804 H 1905.24 -0.337963 3.7257 0
M  V30 20805 H 1906.58 -0.464259 4.90006 0
M  V30 20806 O 1908.27 -1.59727 0.23868 0
M  V30 20807 H 1908.96 -1.90719 -0.33852 0
M  V30 END ATOM
M  V30 BEGIN BOND
M  V30 END BOND
M  V30 END CTAB
M  END
$$$$
