drugbank_target|P18843 NH(3)-dependent NAD(+) synthetase (DB02937; DB04099)
 OpenBabel12092119523D

  0  0  0     0  0            999 V3000
M  V30 BEGIN CTAB
M  V30 COUNTS 4318 4355 0 0 0
M  V30 BEGIN ATOM
M  V30 1 H -0.908 1.98254 -0.117106 0
M  V30 2 N 0 1.576 0 0
M  V30 3 C 0.933 2.03868 1.02534 0
M  V30 4 C 1.911 0.928543 1.3348 0
M  V30 5 O 3.095 1.19667 1.45644 0
M  V30 6 C 0.222 2.43627 2.35294 0
M  V30 7 C -0.732 3.65373 2.2001 0
M  V30 8 S 0.101 5.13292 1.52614 0
M  V30 9 C 1.257 5.56322 2.86805 0
M  V30 10 H 1.49 2.90518 0.631377 0
M  V30 11 H -0.977 1.52953 0.210867 0
M  V30 12 H 0.981 2.67203 3.11629 0
M  V30 13 H -0.358 1.57376 2.7183 0
M  V30 14 H -1.165 3.90944 3.18086 0
M  V30 15 H -1.563 3.418 1.51819 0
M  V30 16 H 0.729 5.58782 3.83104 0
M  V30 17 H 1.672 6.56266 2.65933 0
M  V30 18 H 2.08 4.83886 2.90714 0
M  V30 19 N 1.4781 -0.272755 1.55222 0
M  V30 20 C 2.7061 -1.02255 1.79865 0
M  V30 21 C 3.1211 -1.79924 0.572088 0
M  V30 22 O 2.4781 -1.76638 -0.458842 0
M  V30 23 C 2.5291 -1.98094 3.02392 0
M  V30 24 O 2.2501 -1.23572 4.20311 0
M  V30 25 C 3.7511 -2.84884 3.39641 0
M  V30 26 H 0.9711 -0.302057 0.599168 0
M  V30 27 H 3.5151 -0.303465 2.02236 0
M  V30 28 H 1.6701 -2.65465 2.82147 0
M  V30 29 H 2.0841 -1.88172 4.89583 0
M  V30 30 H 3.5581 -3.47927 4.28545 0
M  V30 31 H 4.0351 -3.54665 2.59055 0
M  V30 32 H 4.6411 -2.23003 3.62146 0
M  V30 33 N 2.9562 -1.48159 -0.537278 0
M  V30 34 C 3.8862 -1.65029 -1.6519 0
M  V30 35 C 4.8672 -0.499281 -1.62607 0
M  V30 36 O 6.0522 -0.730972 -1.79918 0
M  V30 37 C 3.1822 -1.68303 -3.03795 0
M  V30 38 C 2.1362 -2.8283 -3.21234 0
M  V30 39 C 1.4622 -2.71189 -4.60826 0
M  V30 40 C 2.7622 -4.24211 -3.04701 0
M  V30 41 H 4.4562 -2.58341 -1.51328 0
M  V30 42 H 2.0022 -1.24325 -0.726585 0
M  V30 43 H 3.9552 -1.78693 -3.81637 0
M  V30 44 H 2.6792 -0.715635 -3.18663 0
M  V30 45 H 1.3382 -2.71983 -2.45807 0
M  V30 46 H 0.9862 -1.72435 -4.7252 0
M  V30 47 H 0.6862 -3.48035 -4.7344 0
M  V30 48 H 2.2102 -2.83537 -5.40777 0
M  V30 49 H 3.6242 -4.3593 -3.72341 0
M  V30 50 H 2.0212 -5.01998 -3.28813 0
M  V30 51 H 3.0912 -4.41184 -2.01209 0
M  V30 52 N 4.4343 0.785586 -1.36625 0
M  V30 53 C 5.3663 1.90711 -1.2713 0
M  V30 54 C 6.3793 1.61688 -0.189986 0
M  V30 55 O 7.5683 1.72864 -0.445014 0
M  V30 56 C 4.6683 3.25611 -0.939713 0
M  V30 57 C 3.8413 3.82385 -2.12369 0
M  V30 58 C 2.9003 4.95732 -1.76456 0
M  V30 59 O 1.9263 5.12047 -2.48589 0
M  V30 60 N 3.1283 5.76258 -0.700492 0
M  V30 61 H 5.8933 1.99376 -2.23762 0
M  V30 62 H 3.4543 0.964041 -1.30069 0
M  V30 63 H 5.4463 3.98937 -0.680554 0
M  V30 64 H 4.0163 3.12538 -0.0624074 0
M  V30 65 H 3.2363 3.01001 -2.54543 0
M  V30 66 H 4.5243 4.17047 -2.9146 0
M  V30 67 H 3.9223 5.65609 -0.101624 0
M  V30 68 H 2.4793 6.4987 -0.501165 0
M  V30 69 N 5.9124 1.20967 1.01018 0
M  V30 70 C 6.8444 0.922059 2.09835 0
M  V30 71 C 7.8574 -0.0927106 1.62536 0
M  V30 72 O 9.0464 0.139127 1.77957 0
M  V30 73 C 6.1464 0.362004 3.36961 0
M  V30 74 C 5.3194 1.42986 4.13369 0
M  V30 75 C 4.3784 0.879976 5.1879 0
M  V30 76 O 3.4044 1.56219 5.47343 0
M  V30 77 N 4.6064 -0.307396 5.79686 0
M  V30 78 H 7.3714 1.8588 2.35093 0
M  V30 79 H 4.9324 1.11422 1.1746 0
M  V30 80 H 6.9244 -0.0201474 4.04695 0
M  V30 81 H 5.4944 -0.479437 3.08902 0
M  V30 82 H 4.7144 1.98608 3.40512 0
M  V30 83 H 6.0024 2.14885 4.61196 0
M  V30 84 H 5.4004 -0.878796 5.58832 0
M  V30 85 H 3.9574 -0.631115 6.48737 0
M  V30 86 N 7.3905 -1.2043 1.01659 0
M  V30 87 C 8.3225 -2.22626 0.544988 0
M  V30 88 C 9.3355 -1.58479 -0.372609 0
M  V30 89 O 10.5245 -1.77679 -0.170958 0
M  V30 90 C 7.6245 -3.38141 -0.22663 0
M  V30 91 C 6.7975 -4.31877 0.692876 0
M  V30 92 C 5.8565 -5.26191 -0.0311616 0
M  V30 93 O 4.8825 -5.6612 0.591343 0
M  V30 94 N 6.0845 -5.65618 -1.30601 0
M  V30 95 H 8.8495 -2.63716 1.42388 0
M  V30 96 H 6.4105 -1.34971 0.894116 0
M  V30 97 H 8.4025 -3.98239 -0.72024 0
M  V30 98 H 6.9725 -2.95943 -1.00681 0
M  V30 99 H 6.1925 -3.69746 1.36679 0
M  V30 100 H 7.4805 -4.91426 1.31824 0
M  V30 101 H 6.8785 -5.3519 -1.83269 0
M  V30 102 H 5.4355 -6.28025 -1.74435 0
M  V30 103 N 8.8686 -0.792821 -1.36206 0
M  V30 104 C 10.1176 -0.363353 -1.984 0
M  V30 105 C 10.4306 1.07172 -1.63626 0
M  V30 106 O 11.6366 1.60362 -2.19081 0
M  V30 107 C 10.0926 -0.59872 -3.54885 0
M  V30 108 C 9.7006 -2.04543 -3.9858 0
M  V30 109 C 11.4446 -0.233926 -4.23855 0
M  V30 110 C 9.3516 -2.22727 -5.47856 0
M  V30 111 H 8.2816 -0.13212 -0.742334 0
M  V30 112 H 10.9326 -0.974935 -1.55458 0
M  V30 113 H 9.3146 0.0826222 -3.95914 0
M  V30 114 H 10.4886 -2.76345 -3.68741 0
M  V30 115 H 8.8036 -2.36879 -3.42458 0
M  V30 116 H 11.4006 -0.348027 -5.33566 0
M  V30 117 H 11.7436 0.818351 -4.08177 0
M  V30 118 H 12.2766 -0.868639 -3.882 0
M  V30 119 H 9.0156 -3.2635 -5.68486 0
M  V30 120 H 8.5356 -1.55434 -5.7931 0
M  V30 121 H 10.2146 -2.03607 -6.14128 0
M  V30 122 N 10.3467 1.47872 -0.545128 0
M  V30 123 C 11.5957 2.01695 -0.0145033 0
M  V30 124 C 11.9087 1.42609 1.33873 0
M  V30 125 O 13.1147 1.88021 1.95858 0
M  V30 126 C 11.5707 3.59892 0.0245068 0
M  V30 127 C 11.1787 4.27966 -1.32475 0
M  V30 128 C 12.9227 4.21507 0.50316 0
M  V30 129 C 10.8297 5.78136 -1.2455 0
M  V30 130 H 9.7597 0.753998 -0.00165172 0
M  V30 131 H 12.4107 1.69985 -0.691175 0
M  V30 132 H 10.7927 3.88509 0.766575 0
M  V30 133 H 11.9667 4.11003 -2.08357 0
M  V30 134 H 10.2817 3.78286 -1.74036 0
M  V30 135 H 12.8787 5.31538 0.580656 0
M  V30 136 H 13.2217 3.87855 1.51243 0
M  V30 137 H 13.7547 3.97376 -0.183681 0
M  V30 138 H 10.4937 6.16388 -2.23039 0
M  V30 139 H 10.0137 5.97469 -0.528282 0
M  V30 140 H 11.6927 6.40099 -0.942488 0
M  V30 141 N 11.8248 0.280983 1.55075 0
M  V30 142 C 12.7718 -0.603937 2.22758 0
M  V30 143 C 13.7418 -1.1452 1.20309 0
M  V30 144 O 14.9268 -1.19343 1.48869 0
M  V30 145 C 12.0668 -1.77947 2.95684 0
M  V30 146 C 11.1798 -1.2715 4.12864 0
M  V30 147 C 10.3148 -2.4093 4.7342 0
M  V30 148 C 9.3538 -1.87165 5.82783 0
M  V30 149 N 8.4908 -2.94441 6.37377 0
M  V30 150 H 13.3308 -0.020124 2.97993 0
M  V30 151 H 10.8678 0.00183425 1.471 0
M  V30 152 H 12.8258 -2.47055 3.36184 0
M  V30 153 H 11.4558 -2.33522 2.22861 0
M  V30 154 H 10.5078 -0.473331 3.77444 0
M  V30 155 H 11.8198 -0.837751 4.91715 0
M  V30 156 H 10.9738 -3.18021 5.1667 0
M  V30 157 H 9.7128 -2.87623 3.93859 0
M  V30 158 H 8.7178 -1.08556 5.38976 0
M  V30 159 H 9.9428 -1.41401 6.64216 0
M  V30 160 H 7.8888 -3.40505 5.60707 0
M  V30 161 H 7.8058 -2.55501 7.11516 0
M  V30 162 H 9.0738 -3.71489 6.85285 0
M  V30 163 N 13.3029 -1.57598 0.00835791 0
M  V30 164 C 14.2659 -2.07884 -0.965242 0
M  V30 165 C 15.2659 -0.989825 -1.26725 0
M  V30 166 O 16.4559 -1.25218 -1.21104 0
M  V30 167 C 13.5879 -2.52731 -2.28779 0
M  V30 168 H 14.7809 -2.95178 -0.530112 0
M  V30 169 H 12.3339 -1.54458 -0.239283 0
M  V30 170 H 13.0689 -1.68705 -2.76964 0
M  V30 171 H 12.8539 -3.32272 -2.08177 0
M  V30 172 H 14.3439 -2.91933 -2.98605 0
M  V30 173 N 14.781 0.264519 -1.55364 0
M  V30 174 C 15.711 1.33121 -1.91836 0
M  V30 175 C 16.692 1.51101 -0.781192 0
M  V30 176 O 17.877 1.64003 -1.04003 0
M  V30 177 C 15.007 2.68921 -2.19769 0
M  V30 178 C 13.961 2.65661 -3.35571 0
M  V30 179 C 13.287 4.05093 -3.49004 0
M  V30 180 C 14.587 2.24187 -4.71739 0
M  V30 181 H 16.281 1.02844 -2.81182 0
M  V30 182 H 13.827 0.493286 -1.35287 0
M  V30 183 H 15.78 3.43663 -2.43872 0
M  V30 184 H 14.504 3.00799 -1.27231 0
M  V30 185 H 13.163 1.93377 -3.1145 0
M  V30 186 H 12.811 4.34206 -2.53917 0
M  V30 187 H 12.511 4.03804 -4.26868 0
M  V30 188 H 14.035 4.81561 -3.75408 0
M  V30 189 H 15.449 2.88654 -4.9533 0
M  V30 190 H 13.846 2.34044 -5.52579 0
M  V30 191 H 14.916 1.19327 -4.69988 0
M  V30 192 N 16.2591 1.48442 0.529413 0
M  V30 193 C 17.5071 1.56179 1.28267 0
M  V30 194 C 17.8281 0.237721 1.93546 0
M  V30 195 O 17.0981 -0.740779 1.81354 0
M  V30 196 H 15.6781 0.575367 0.476405 0
M  V30 197 H 18.3401 1.84909 0.61602 0
M  V30 198 H 17.4361 2.34312 2.06165 0
M  V30 199 N 17.7372 -0.778329 1.37039 0
M  V30 200 C 18.7002 -1.87301 1.32102 0
M  V30 201 C 19.7002 -1.59198 0.226405 0
M  V30 202 O 20.8902 -1.67403 0.481861 0
M  V30 203 C 18.0222 -3.24309 1.05055 0
M  V30 204 H 19.2152 -1.93093 2.29467 0
M  V30 205 H 16.7682 -0.977358 1.21973 0
M  V30 206 H 17.5032 -3.24196 0.0819373 0
M  V30 207 H 17.2882 -3.46098 1.84279 0
M  V30 208 H 18.7782 -4.04382 1.04234 0
M  V30 209 N 19.2153 -1.21501 -1.00376 0
M  V30 210 C 20.1623 -0.975387 -2.09177 0
M  V30 211 C 21.1323 0.0990615 -1.65804 0
M  V30 212 O 22.3173 -0.0483147 -1.90739 0
M  V30 213 C 19.4573 -0.547507 -3.40729 0
M  V30 214 C 18.5703 -1.69153 -3.97506 0
M  V30 215 C 17.7053 -1.2127 -5.17172 0
M  V30 216 C 16.7443 -2.32897 -5.66061 0
M  V30 217 N 15.8813 -1.86138 -6.76976 0
M  V30 218 H 20.7213 -1.9068 -2.29009 0
M  V30 219 H 18.2583 -0.950257 -1.12288 0
M  V30 220 H 20.2163 -0.280667 -4.16255 0
M  V30 221 H 18.8463 0.346904 -3.20931 0
M  V30 222 H 17.8983 -2.07298 -3.18954 0
M  V30 223 H 19.2103 -2.5316 -4.29781 0
M  V30 224 H 18.3643 -0.902591 -5.99948 0
M  V30 225 H 17.1033 -0.342692 -4.86495 0
M  V30 226 H 16.1083 -2.64709 -4.81881 0
M  V30 227 H 17.3333 -3.20396 -5.98768 0
M  V30 228 H 15.2793 -1.01484 -6.48103 0
M  V30 229 H 15.1963 -2.63717 -7.08512 0
M  V30 230 H 16.4643 -1.58165 -7.63285 0
M  V30 231 N 20.6934 1.19889 -1.02296 0
M  V30 232 C 22.1044 1.71124 -0.746568 0
M  V30 233 C 22.4554 1.81939 0.734335 0
M  V30 234 O 21.5804 1.48639 1.57275 0
M  V30 235 C 22.1754 3.10804 -1.34857 0
M  V30 236 C 20.7344 3.59323 -1.1209 0
M  V30 237 C 19.8814 2.3635 -1.45031 0
M  V30 238 H 22.8324 1.04813 -1.19163 0
M  V30 239 H 22.8534 3.73186 -0.742437 0
M  V30 240 H 22.3654 3.029 -2.42638 0
M  V30 241 H 20.4664 3.7255 -0.0610337 0
M  V30 242 H 20.5794 4.4378 -1.80544 0
M  V30 243 H 18.9434 2.39399 -0.869487 0
M  V30 244 H 19.7264 2.31081 -2.53883 0
M  V30 245 N 22.1715 0.800033 1.35784 0
M  V30 246 C 23.1035 0.163596 2.28615 0
M  V30 247 C 24.1165 -0.633317 1.49976 0
M  V30 248 O 25.3055 -0.466754 1.72289 0
M  V30 249 C 22.4055 -0.790958 3.29541 0
M  V30 250 C 21.5785 -0.0418255 4.3738 0
M  V30 251 C 20.6375 -0.91389 5.18203 0
M  V30 252 O 19.6635 -0.367234 5.68014 0
M  V30 253 N 20.8655 -2.23682 5.35674 0
M  V30 254 H 23.6305 0.96105 2.83873 0
M  V30 255 H 21.1915 0.654894 1.48063 0
M  V30 256 H 23.1835 -1.37844 3.80501 0
M  V30 257 H 21.7535 -1.48925 2.74846 0
M  V30 258 H 20.9735 0.726813 3.87442 0
M  V30 259 H 22.2615 0.474719 5.06581 0
M  V30 260 H 21.6595 -2.70497 4.96838 0
M  V30 261 H 20.2165 -2.77369 5.89839 0
M  V30 262 N 23.6496 -1.47581 0.552962 0
M  V30 263 C 24.8986 -2.01684 0.0251995 0
M  V30 264 C 25.2116 -1.43317 -1.33115 0
M  V30 265 O 26.4176 -1.89057 -1.94858 0
M  V30 266 C 24.8736 -3.599 -0.00542052 0
M  V30 267 C 24.4816 -4.27257 1.34742 0
M  V30 268 C 26.2256 -4.21768 -0.4808 0
M  V30 269 C 24.1326 -5.77467 1.27614 0
M  V30 270 H 23.0626 -0.753979 0.00565033 0
M  V30 271 H 25.7136 -1.69616 0.70018 0
M  V30 272 H 24.0956 -3.88911 -0.745961 0
M  V30 273 H 25.2696 -4.09893 2.10534 0
M  V30 274 H 23.5846 -3.77358 1.76039 0
M  V30 275 H 26.1816 -5.31838 -0.55246 0
M  V30 276 H 26.5246 -3.88651 -1.49184 0
M  V30 277 H 27.0576 -3.97273 0.204752 0
M  V30 278 H 23.7966 -6.15196 2.26304 0
M  V30 279 H 23.3166 -5.9718 0.55996 0
M  V30 280 H 24.9956 -6.3959 0.976421 0
M  V30 281 N 25.1277 -0.289203 -1.54924 0
M  V30 282 C 26.0757 0.607966 -2.24514 0
M  V30 283 C 27.0697 1.14655 -1.24702 0
M  V30 284 O 28.2757 1.09856 -1.4259 0
M  V30 285 H 24.6507 0.21464 -0.720718 0
M  V30 286 H 26.6217 -0.00164182 -2.984 0
M  V30 287 C 25.3707 1.77406 -2.99036 0
M  V30 288 H 24.6937 1.36884 -3.75637 0
M  V30 289 H 26.1337 2.37814 -3.51028 0
M  V30 290 C 24.5927 2.67107 -2.05318 0
M  V30 291 O 25.1227 3.6787 -1.61353 0
M  V30 292 N 23.3287 2.34582 -1.71521 0
M  V30 293 H 22.8757 1.52688 -2.07471 0
M  V30 294 H 22.8337 2.94867 -1.0909 0
M  V30 295 N 26.6058 1.57591 -0.0167156 0
M  V30 296 C 27.5688 2.08393 0.954204 0
M  V30 297 C 28.5688 0.996531 1.26198 0
M  V30 298 O 29.7588 1.25858 1.20438 0
M  V30 299 C 26.8908 2.5394 2.27436 0
M  V30 300 H 28.0838 2.95455 0.514451 0
M  V30 301 H 25.6368 1.54582 0.231089 0
M  V30 302 H 26.3718 1.70171 2.76066 0
M  V30 303 H 26.1568 3.33371 2.06412 0
M  V30 304 H 27.6468 2.93512 2.97053 0
M  V30 305 N 28.0839 -0.256276 1.55502 0
M  V30 306 C 28.9939 -1.33882 1.92647 0
M  V30 307 C 30.0099 -1.53159 0.825727 0
M  V30 308 O 31.1859 -1.66963 1.12629 0
M  V30 309 C 28.2509 -2.6751 2.20543 0
M  V30 310 C 27.3119 -2.56836 3.43997 0
M  V30 311 C 26.5449 -3.84092 3.70553 0
M  V30 312 O 26.7679 -4.85545 2.99336 0
M  V30 313 O 25.7019 -3.83288 4.64084 0
M  V30 314 H 29.5279 -1.05374 2.84833 0
M  V30 315 H 27.1129 -0.456237 1.42263 0
M  V30 316 H 28.9949 -3.46492 2.39835 0
M  V30 317 H 27.6699 -2.9577 1.31536 0
M  V30 318 H 26.5769 -1.76172 3.30021 0
M  V30 319 H 27.9099 -2.33523 4.33275 0
M  V30 320 N 29.562 -1.4872 -0.521534 0
M  V30 321 C 30.472 -1.66569 -1.65203 0
M  V30 322 C 31.488 -0.548197 -1.65139 0
M  V30 323 O 32.664 -0.820339 -1.83936 0
M  V30 324 C 29.729 -1.70917 -3.01642 0
M  V30 325 C 28.79 -2.94356 -3.12495 0
M  V30 326 C 28.023 -2.98487 -4.42426 0
M  V30 327 O 28.246 -2.10786 -5.30024 0
M  V30 328 O 27.18 -3.90746 -4.57822 0
M  V30 329 H 31.006 -2.62298 -1.5308 0
M  V30 330 H 28.591 -1.3222 -0.695565 0
M  V30 331 H 30.473 -1.7625 -3.82771 0
M  V30 332 H 29.148 -0.783633 -3.14071 0
M  V30 333 H 28.055 -2.94552 -2.3063 0
M  V30 334 H 29.388 -3.86322 -3.04986 0
M  V30 335 N 31.0401 0.771051 -1.3745 0
M  V30 336 C 31.9501 1.91538 -1.35464 0
M  V30 337 C 32.9661 1.72134 -0.254123 0
M  V30 338 O 34.1421 1.95358 -0.489626 0
M  V30 339 C 31.2071 3.26671 -1.16134 0
M  V30 340 C 30.2681 3.58723 -2.35831 0
M  V30 341 C 29.5011 4.87409 -2.17413 0
M  V30 342 O 29.7241 5.58506 -1.15876 0
M  V30 343 O 28.6581 5.18539 -3.05615 0
M  V30 344 H 32.4841 1.96165 -2.31847 0
M  V30 345 H 30.0691 0.9139 -1.18187 0
M  V30 346 H 31.9511 4.07499 -1.07345 0
M  V30 347 H 30.6261 3.22894 -0.228251 0
M  V30 348 H 29.5331 2.78127 -2.50192 0
M  V30 349 H 30.8661 3.67243 -3.27709 0
M  V30 350 N 32.5182 1.22032 0.997298 0
M  V30 351 C 33.7672 1.03637 1.73038 0
M  V30 352 C 34.0802 -0.429475 1.90827 0
M  V30 353 O 35.2862 -0.732995 2.61418 0
M  V30 354 C 33.7422 1.80582 3.11317 0
M  V30 355 C 33.3502 3.31387 3.01474 0
M  V30 356 C 35.0942 1.70621 3.88701 0
M  V30 357 C 33.0012 4.00791 4.3488 0
M  V30 358 H 31.9312 0.384179 0.648785 0
M  V30 359 H 34.5822 1.4584 1.11368 0
M  V30 360 H 32.9642 1.31175 3.73643 0
M  V30 361 H 34.1382 3.88155 2.4834 0
M  V30 362 H 32.4532 3.41976 2.37575 0
M  V30 363 H 35.0502 2.19799 4.87434 0
M  V30 364 H 35.3932 0.665823 4.10941 0
M  V30 365 H 35.9262 2.17547 3.33044 0
M  V30 366 H 32.6652 5.05064 4.1784 0
M  V30 367 H 32.1852 3.48811 4.87945 0
M  V30 368 H 33.8642 4.06139 5.03647 0
M  V30 369 N 33.9963 -1.19345 1.0293 0
M  V30 370 C 35.4123 -1.41069 0.746446 0
M  V30 371 C 35.6123 -1.90078 -0.668776 0
M  V30 372 O 34.6683 -2.0778 -1.4347 0
M  V30 373 C 35.9813 -2.42141 1.78292 0
M  V30 374 C 37.5293 -2.55887 1.80252 0
M  V30 375 C 38.0043 -3.60214 2.8286 0
M  V30 376 N 39.4953 -3.67711 2.81679 0
M  V30 377 C 40.2303 -4.48128 3.57727 0
M  V30 378 N 39.7263 -5.32248 4.43491 0
M  V30 379 N 41.5193 -4.42782 3.46267 0
M  V30 380 H 33.6703 -0.858536 1.94275 0
M  V30 381 H 35.9333 -0.439541 0.839945 0
M  V30 382 H 35.6393 -2.13155 2.79746 0
M  V30 383 H 35.5133 -3.41323 1.60557 0
M  V30 384 H 37.9003 -2.84196 0.794757 0
M  V30 385 H 37.9813 -1.56858 2.02062 0
M  V30 386 H 37.6253 -3.32647 3.83807 0
M  V30 387 H 37.5553 -4.58895 2.58307 0
M  V30 388 H 40.0463 -3.07634 2.19476 0
M  V30 389 H 40.3593 -5.90729 4.98256 0
M  V30 390 H 38.7043 -5.31707 4.47564 0
M  V30 391 H 41.8953 -3.76107 2.78677 0
M  V30 392 H 42.0683 -5.05215 4.05785 0
M  V30 393 N 35.4744 -0.807222 -1.35358 0
M  V30 394 C 36.8904 -0.491038 -1.51858 0
M  V30 395 C 37.0904 0.987648 -1.75635 0
M  V30 396 O 36.1464 1.77265 -1.79815 0
M  V30 397 C 37.4594 -1.33695 -2.69344 0
M  V30 398 C 39.0074 -1.33246 -2.83222 0
M  V30 399 C 39.4824 -2.1625 -4.03733 0
M  V30 400 N 40.9734 -2.1379 -4.10911 0
M  V30 401 C 41.7084 -2.74772 -5.03277 0
M  V30 402 N 41.2044 -3.44684 -6.0097 0
M  V30 403 N 42.9974 -2.6441 -4.96028 0
M  V30 404 H 35.1484 -1.76485 -1.18181 0
M  V30 405 H 37.4114 -0.751199 -0.578276 0
M  V30 406 H 37.1174 -2.38634 -2.58354 0
M  V30 407 H 36.9914 -0.990618 -3.6396 0
M  V30 408 H 39.3784 -0.290911 -2.93663 0
M  V30 409 H 39.4594 -1.71866 -1.89461 0
M  V30 410 H 39.1034 -3.20445 -3.94052 0
M  V30 411 H 39.0334 -1.74989 -4.96675 0
M  V30 412 H 41.5244 -1.62923 -3.40976 0
M  V30 413 H 41.8374 -3.88501 -6.68047 0
M  V30 414 H 40.1824 -3.48788 -6.01142 0
M  V30 415 H 43.3734 -2.0938 -4.18662 0
M  V30 416 H 43.5464 -3.12225 -5.6782 0
M  V30 417 N 36.9525 1.47285 -0.560781 0
M  V30 418 C 38.1775 2.07359 -0.0410566 0
M  V30 419 C 38.6025 1.41017 1.24483 0
M  V30 420 O 37.9605 0.486368 1.74654 0
M  V30 421 C 38.0085 3.6035 0.134123 0
M  V30 422 O 37.1125 3.94681 1.19587 0
M  V30 423 H 36.4535 0.661887 -0.0529291 0
M  V30 424 H 38.9835 1.89252 -0.777482 0
M  V30 425 H 38.9935 4.0652 0.347207 0
M  V30 426 H 37.6685 4.08034 -0.805047 0
M  V30 427 H 36.2455 3.60251 0.962987 0
M  V30 428 N 38.4306 0.297415 1.54768 0
M  V30 429 C 39.6766 -0.313376 2.00364 0
M  V30 430 C 40.0096 -1.53815 1.18553 0
M  V30 431 O 39.2846 -1.92739 0.261103 0
M  V30 432 C 39.5676 -0.673525 3.53745 0
M  V30 433 C 39.4206 0.560133 4.46299 0
M  V30 434 C 40.7396 -1.50143 4.13697 0
M  V30 435 H 37.8586 -0.112428 0.728374 0
M  V30 436 H 40.5006 0.4088 1.8555 0
M  V30 437 H 38.6506 -1.28881 3.665 0
M  V30 438 H 40.3226 1.19863 4.45455 0
M  V30 439 H 38.5656 1.19405 4.17043 0
M  V30 440 H 39.2366 0.26405 5.51368 0
M  V30 441 H 41.7126 -0.981588 4.04356 0
M  V30 442 H 40.5886 -1.72221 5.21182 0
M  V30 443 H 40.8496 -2.48952 3.65343 0
M  V30 444 N 39.9087 -1.5758 0.0250728 0
M  V30 445 C 41.1857 -1.82917 -0.692873 0
M  V30 446 C 41.5657 -0.908137 -1.90568 0
M  V30 447 O 40.9137 0.0372298 -2.2847 0
M  V30 448 C 41.1237 -3.32034 -1.07492 0
M  V30 449 C 42.4717 -3.98406 -1.46826 0
M  V30 450 O 43.4957 -3.36505 -1.16801 0
M  V30 451 O 42.3547 -5.07497 -2.02754 0
M  V30 452 H 39.4487 -0.754079 -0.33955 0
M  V30 453 H 41.9947 -1.69619 0.0524456 0
M  V30 454 H 40.7667 -3.90728 -0.211552 0
M  V30 455 H 40.3897 -3.50424 -1.87854 0
M  V30 456 N 41.3868 0.248026 -1.55636 0
M  V30 457 C 42.6338 0.976224 -1.77415 0
M  V30 458 C 42.9618 1.85361 -0.589193 0
M  V30 459 O 42.2168 1.90973 0.427529 0
M  V30 460 C 42.5158 1.86819 -3.04686 0
M  V30 461 C 42.1818 1.14625 -4.36087 0
M  V30 462 C 40.8438 0.946723 -4.71795 0
M  V30 463 C 43.1958 0.634463 -5.17324 0
M  V30 464 C 40.5238 0.223091 -5.86276 0
M  V30 465 C 42.8758 -0.0756959 -6.32555 0
M  V30 466 C 41.5398 -0.286711 -6.66884 0
M  V30 467 H 40.8098 0.357226 -0.649208 0
M  V30 468 H 43.4568 0.246415 -1.89908 0
M  V30 469 H 41.7618 2.66502 -2.872 0
M  V30 470 H 43.4588 2.43329 -3.18735 0
M  V30 471 H 40.0488 1.3117 -4.08035 0
M  V30 472 H 44.2328 0.77616 -4.90193 0
M  V30 473 H 39.4888 0.0491185 -6.1138 0
M  V30 474 H 43.6628 -0.479899 -6.94745 0
M  V30 475 H 41.2898 -0.849389 -7.5544 0
M  V30 476 N 42.8649 1.48995 0.513639 0
M  V30 477 C 43.7949 1.67636 1.62544 0
M  V30 478 C 44.7759 0.525087 1.61793 0
M  V30 479 O 45.9609 0.759502 1.78732 0
M  V30 480 C 43.0909 1.73114 3.01079 0
M  V30 481 C 42.0449 2.87905 3.16693 0
M  V30 482 C 41.3709 2.78486 4.56453 0
M  V30 483 C 42.6709 4.29005 2.97913 0
M  V30 484 H 44.3649 2.60716 1.47198 0
M  V30 485 H 41.9109 1.25465 0.706714 0
M  V30 486 H 43.8639 1.84742 3.78746 0
M  V30 487 H 42.5879 0.766241 3.17484 0
M  V30 488 H 41.2469 2.75859 2.41448 0
M  V30 489 H 40.8949 1.7993 4.69717 0
M  V30 490 H 40.5949 3.55523 4.67843 0
M  V30 491 H 42.1189 2.92104 5.36197 0
M  V30 492 H 43.5329 4.41798 3.65359 0
M  V30 493 H 41.9299 5.07166 3.20785 0
M  V30 494 H 42.9999 4.44329 1.94165 0
M  V30 495 N 44.343 -0.763751 1.37857 0
M  V30 496 C 45.29 -1.87726 1.34267 0
M  V30 497 C 46.26 -1.64807 0.206879 0
M  V30 498 O 47.445 -1.86613 0.397508 0
M  V30 499 C 44.585 -3.24896 1.16346 0
M  V30 500 C 43.698 -3.59716 2.39225 0
M  V30 501 C 42.833 -4.86137 2.14114 0
M  V30 502 C 41.872 -5.13711 3.32817 0
M  V30 503 N 41.009 -6.31323 3.07206 0
M  V30 504 H 45.849 -1.90129 2.29466 0
M  V30 505 H 43.386 -0.929433 1.14017 0
M  V30 506 H 45.344 -4.04036 1.03975 0
M  V30 507 H 43.974 -3.21847 0.247909 0
M  V30 508 H 43.026 -2.75498 2.62307 0
M  V30 509 H 44.338 -3.76027 3.27728 0
M  V30 510 H 43.492 -5.73198 1.9882 0
M  V30 511 H 42.231 -4.71945 1.22961 0
M  V30 512 H 41.236 -4.25123 3.48641 0
M  V30 513 H 42.461 -5.29807 4.24832 0
M  V30 514 H 40.407 -6.18474 2.1869 0
M  V30 515 H 40.324 -6.48087 3.89254 0
M  V30 516 H 41.592 -7.213 2.95546 0
M  V30 517 N 45.8211 -1.22559 -0.990812 0
M  V30 518 C 47.0461 -1.07862 -1.77145 0
M  V30 519 C 47.4711 0.366447 -1.84496 0
M  V30 520 O 46.8291 1.26478 -1.29896 0
M  V30 521 C 46.8771 -1.69686 -3.18181 0
M  V30 522 O 45.9811 -0.951946 -4.01263 0
M  V30 523 H 45.3221 -0.378712 -0.545411 0
M  V30 524 H 47.8521 -1.62399 -1.2445 0
M  V30 525 H 47.8621 -1.74496 -3.68802 0
M  V30 526 H 46.5371 -2.74841 -3.12146 0
M  V30 527 H 45.1141 -0.980011 -3.59792 0
M  V30 528 N 47.2992 1.18797 -1.03562 0
M  V30 529 C 48.5292 1.92319 -0.754773 0
M  V30 530 C 48.9372 1.7612 0.691248 0
M  V30 531 O 48.2802 1.08491 1.48241 0
M  V30 532 C 48.3422 3.44284 -1.03484 0
M  V30 533 C 48.0062 3.84258 -2.47376 0
M  V30 534 C 49.0032 3.88459 -3.45537 0
M  V30 535 C 46.6882 4.15701 -2.81954 0
M  V30 536 C 48.6822 4.23545 -4.76328 0
M  V30 537 C 46.3692 4.50458 -4.12954 0
M  V30 538 C 47.3672 4.54356 -5.09951 0
M  V30 539 O 47.0552 4.88305 -6.38603 0
M  V30 540 H 46.7872 0.617527 -0.275021 0
M  V30 541 H 49.3412 1.51683 -1.38497 0
M  V30 542 H 47.5712 3.85135 -0.347513 0
M  V30 543 H 49.2602 3.99049 -0.7426 0
M  V30 544 H 50.0262 3.6431 -3.20162 0
M  V30 545 H 45.9052 4.11847 -2.0713 0
M  V30 546 H 49.4492 4.26502 -5.52035 0
M  V30 547 H 45.3462 4.74067 -4.38099 0
M  V30 548 H 46.1142 5.06227 -6.43177 0
M  V30 549 N 48.7773 0.814389 1.34928 0
M  V30 550 C 49.7073 0.244827 2.32213 0
M  V30 551 C 50.6883 -0.634024 1.57842 0
M  V30 552 O 51.8733 -0.562676 1.8587 0
M  V30 553 C 49.0033 -0.601106 3.42058 0
M  V30 554 C 47.9573 0.179896 4.27622 0
M  V30 555 C 47.2833 -0.788237 5.28858 0
M  V30 556 C 48.5833 1.38329 5.03649 0
M  V30 557 H 50.2773 1.05763 2.80097 0
M  V30 558 H 47.8233 0.510029 1.34665 0
M  V30 559 H 49.7763 -1.00968 4.09125 0
M  V30 560 H 48.5003 -1.44688 2.92802 0
M  V30 561 H 47.1593 0.569739 3.62146 0
M  V30 562 H 46.8073 -1.62973 4.75866 0
M  V30 563 H 46.5073 -0.269942 5.8698 0
M  V30 564 H 48.0313 -1.19485 5.98795 0
M  V30 565 H 49.4453 1.04918 5.63618 0
M  V30 566 H 47.8423 1.83662 5.71304 0
M  V30 567 H 48.9123 2.16592 4.33839 0
M  V30 568 N 50.2554 -1.46986 0.568584 0
M  V30 569 C 51.1874 -2.28233 -0.210337 0
M  V30 570 C 52.2004 -1.37682 -0.868767 0
M  V30 571 O 53.3894 -1.62406 -0.740705 0
M  V30 572 C 50.4894 -3.12293 -1.3163 0
M  V30 573 C 49.6624 -4.30878 -0.7525 0
M  V30 574 C 48.7214 -4.96445 -1.74439 0
M  V30 575 O 47.7474 -5.54482 -1.286 0
M  V30 576 N 48.9494 -4.92171 -3.07812 0
M  V30 577 H 51.7144 -2.95723 0.486648 0
M  V30 578 H 49.2754 -1.56742 0.405409 0
M  V30 579 H 51.2674 -3.53022 -1.97883 0
M  V30 580 H 49.8374 -2.46971 -1.91636 0
M  V30 581 H 49.0574 -3.94104 0.0871128 0
M  V30 582 H 50.3454 -5.07558 -0.35536 0
M  V30 583 H 49.7434 -4.46239 -3.47688 0
M  V30 584 H 48.3004 -5.36884 -3.69592 0
M  V30 585 N 51.7335 -0.305618 -1.54608 0
M  V30 586 C 52.9615 0.304775 -2.04643 0
M  V30 587 C 53.3765 1.47167 -1.18268 0
M  V30 588 O 52.7335 1.81296 -0.209328 0
M  V30 589 C 52.7845 0.756564 -3.53495 0
M  V30 590 O 52.5055 -0.36389 -4.36586 0
M  V30 591 C 54.0065 1.43163 -4.19546 0
M  V30 592 H 51.2265 0.0655481 -0.667791 0
M  V30 593 H 53.7705 -0.446592 -1.99564 0
M  V30 594 H 51.9255 1.45794 -3.58919 0
M  V30 595 H 52.3395 -0.0113121 -5.24499 0
M  V30 596 H 53.8135 1.69886 -5.25207 0
M  V30 597 H 54.2905 2.37318 -3.69563 0
M  V30 598 H 54.8965 0.773307 -4.18211 0
M  V30 599 N 53.2116 1.57565 -0.0334293 0
M  V30 600 C 54.4416 1.95996 0.653398 0
M  V30 601 C 54.8496 0.908749 1.65947 0
M  V30 602 O 54.1926 -0.117471 1.83324 0
M  V30 603 C 54.2546 3.30589 1.41249 0
M  V30 604 C 53.9186 4.53503 0.564263 0
M  V30 605 C 54.9156 5.19647 -0.16225 0
M  V30 606 C 52.6006 4.99801 0.500398 0
M  V30 607 C 54.5946 6.30412 -0.941255 0
M  V30 608 C 52.2816 6.10448 -0.282308 0
M  V30 609 C 53.2796 6.75612 -1.00184 0
M  V30 610 O 52.9676 7.84134 -1.77171 0
M  V30 611 H 52.6996 0.65027 0.184728 0
M  V30 612 H 55.2536 2.05199 -0.0907841 0
M  V30 613 H 53.4836 3.17888 2.20191 0
M  V30 614 H 55.1726 3.53892 1.98784 0
M  V30 615 H 55.9386 4.84846 -0.12227 0
M  V30 616 H 51.8176 4.48883 1.05002 0
M  V30 617 H 55.3616 6.81208 -1.50339 0
M  V30 618 H 51.2586 6.44686 -0.323989 0
M  V30 619 H 52.0266 8.00822 -1.69194 0
M  V30 620 N 54.6897 -0.239769 1.55765 0
M  V30 621 C 56.1007 -0.808263 1.68297 0
M  V30 622 C 56.4517 -1.85736 0.632181 0
M  V30 623 O 55.5767 -2.15277 -0.220204 0
M  V30 624 C 56.1717 -1.47284 3.05111 0
M  V30 625 C 54.7307 -1.98895 3.19559 0
M  V30 626 C 53.8777 -0.842575 2.64189 0
M  V30 627 H 56.8287 -0.0154422 1.58692 0
M  V30 628 H 56.8497 -2.34111 2.99954 0
M  V30 629 H 56.3617 -0.709053 3.81568 0
M  V30 630 H 54.4627 -2.78132 2.47938 0
M  V30 631 H 54.5757 -2.18143 4.26556 0
M  V30 632 H 52.9397 -1.24501 2.22197 0
M  V30 633 H 53.7227 -0.0917552 3.43177 0
M  V30 634 N 56.1678 -1.49265 -0.50573 0
M  V30 635 C 57.4148 -1.58513 -1.26015 0
M  V30 636 C 57.7428 -0.26972 -1.92621 0
M  V30 637 O 56.9978 0.741997 -1.81088 0
M  V30 638 C 57.2968 -2.69008 -2.35308 0
M  V30 639 C 56.9628 -4.10662 -1.86192 0
M  V30 640 C 55.6248 -4.49212 -1.72516 0
M  V30 641 C 57.9768 -4.99336 -1.49375 0
M  V30 642 C 55.3048 -5.74214 -1.20394 0
M  V30 643 C 57.6568 -6.24852 -0.987072 0
M  V30 644 C 56.3208 -6.62236 -0.836669 0
M  V30 645 H 55.5908 -0.580041 -0.461122 0
M  V30 646 H 58.2378 -1.83078 -0.561665 0
M  V30 647 H 56.5428 -2.38396 -3.10926 0
M  V30 648 H 58.2398 -2.73373 -2.93374 0
M  V30 649 H 54.8298 -3.8023 -1.97795 0
M  V30 650 H 59.0138 -4.70212 -1.5879 0
M  V30 651 H 54.2698 -6.01883 -1.07458 0
M  V30 652 H 58.4438 -6.92944 -0.692983 0
M  V30 653 H 56.0708 -7.58979 -0.430607 0
M  V30 654 N 57.6459 0.756429 -1.3826 0
M  V30 655 C 58.8949 1.51082 -1.3363 0
M  V30 656 C 59.2079 1.95467 0.0720068 0
M  V30 657 O 60.4139 2.7043 0.240834 0
M  V30 658 C 58.8699 2.72893 -2.34644 0
M  V30 659 C 58.4779 2.35544 -3.81081 0
M  V30 660 C 60.2219 3.50791 -2.39052 0
M  V30 661 C 58.1289 3.53948 -4.73787 0
M  V30 662 H 57.0589 0.56727 -0.49671 0
M  V30 663 H 59.7099 0.827147 -1.638 0
M  V30 664 H 58.0919 3.43227 -1.97513 0
M  V30 665 H 59.2659 1.72894 -4.27135 0
M  V30 666 H 57.5809 1.70786 -3.79764 0
M  V30 667 H 60.1779 4.38823 -3.05513 0
M  V30 668 H 60.5209 3.91745 -1.40861 0
M  V30 669 H 61.0539 2.87467 -2.74968 0
M  V30 670 H 57.7929 3.18064 -5.73163 0
M  V30 671 H 57.3129 4.15651 -4.32428 0
M  V30 672 H 58.9919 4.20566 -4.91663 0
M  V30 673 N 59.124 1.23083 0.984299 0
M  V30 674 C 60.071 1.00854 2.07598 0
M  V30 675 C 61.041 -0.0726709 1.65941 0
M  V30 676 O 62.226 0.0786535 1.90638 0
M  V30 677 C 59.366 0.601645 3.39815 0
M  V30 678 C 58.479 1.75456 3.94765 0
M  V30 679 C 57.614 1.29482 5.15177 0
M  V30 680 C 56.653 2.41873 5.62284 0
M  V30 681 N 55.79 1.96885 6.73929 0
M  V30 682 H 60.63 1.943 2.25946 0
M  V30 683 H 58.167 0.968001 1.10762 0
M  V30 684 H 60.125 0.346854 4.15756 0
M  V30 685 H 58.755 -0.295803 3.21442 0
M  V30 686 H 57.807 2.12346 3.15616 0
M  V30 687 H 59.119 2.59965 4.25699 0
M  V30 688 H 58.273 0.997923 5.98437 0
M  V30 689 H 57.012 0.420046 4.85888 0
M  V30 690 H 56.017 2.72342 4.77608 0
M  V30 691 H 57.242 3.29881 5.93595 0
M  V30 692 H 55.188 1.11782 6.46406 0
M  V30 693 H 55.105 2.74956 7.04227 0
M  V30 694 H 56.373 1.70289 7.60672 0
M  V30 695 N 60.6021 -1.18246 1.0419 0
M  V30 696 C 61.8271 -1.92736 0.765996 0
M  V30 697 C 62.2521 -1.75728 -0.67091 0
M  V30 698 O 61.6101 -1.06825 -1.46486 0
M  V30 699 C 61.6581 -3.42148 1.13875 0
M  V30 700 O 60.7621 -4.11548 0.264954 0
M  V30 701 H 60.1031 -0.601238 0.281797 0
M  V30 702 H 62.6331 -1.49942 1.39207 0
M  V30 703 H 62.6431 -3.92858 1.1012 0
M  V30 704 H 61.3181 -3.53848 2.18551 0
M  V30 705 H 59.8951 -3.71137 0.362226 0
M  V30 706 N 62.0802 -0.821533 -1.34494 0
M  V30 707 C 63.0102 -0.257138 -2.3208 0
M  V30 708 C 63.9912 0.625645 -1.58176 0
M  V30 709 O 65.1762 0.552811 -1.86166 0
M  V30 710 C 62.3062 0.582958 -3.42372 0
M  V30 711 C 61.2602 -0.202571 -4.2752 0
M  V30 712 C 60.5862 0.760179 -5.29269 0
M  V30 713 C 61.8862 -1.40998 -5.02908 0
M  V30 714 H 63.5802 -1.07247 -2.79532 0
M  V30 715 H 61.1262 -0.517163 -1.34393 0
M  V30 716 H 63.0792 0.987972 -4.09655 0
M  V30 717 H 61.8032 1.43133 -2.93565 0
M  V30 718 H 60.4622 -0.588936 -3.61838 0
M  V30 719 H 60.1102 1.60447 -4.76724 0
M  V30 720 H 59.8102 0.238809 -5.87115 0
M  V30 721 H 61.3342 1.16308 -5.9942 0
M  V30 722 H 62.7482 -1.07905 -5.63054 0
M  V30 723 H 61.1452 -1.86689 -5.70322 0
M  V30 724 H 62.2152 -2.1889 -4.32684 0
M  V30 725 N 63.5583 1.46682 -0.576371 0
M  V30 726 C 64.8043 2.02712 -0.0596221 0
M  V30 727 C 65.1373 1.44765 1.29448 0
M  V30 728 O 64.4123 0.610355 1.84675 0
M  V30 729 C 64.6953 3.60098 0.0129503 0
M  V30 730 C 64.5483 4.28441 -1.3696 0
M  V30 731 C 65.8673 4.34224 0.71678 0
M  V30 732 H 62.9863 0.736637 -0.0231407 0
M  V30 733 H 65.6283 1.74898 -0.742351 0
M  V30 734 H 63.7783 3.83926 0.594378 0
M  V30 735 H 65.4503 4.15896 -1.9957 0
M  V30 736 H 63.6933 3.8805 -1.93907 0
M  V30 737 H 64.3643 5.3716 -1.27135 0
M  V30 738 H 66.8403 4.15503 0.222908 0
M  V30 739 H 65.7163 5.43936 0.73657 0
M  V30 740 H 65.9773 4.04823 1.77682 0
M  V30 741 N 65.0364 0.313813 1.54444 0
M  V30 742 C 65.9664 -0.549454 2.26943 0
M  V30 743 C 66.9474 -1.12741 1.27372 0
M  V30 744 O 68.1324 -1.15436 1.56167 0
M  V30 745 C 65.2624 -1.71523 3.01989 0
M  V30 746 C 64.2164 -1.26703 4.08816 0
M  V30 747 C 63.5424 -2.51898 4.71647 0
M  V30 748 C 64.8424 -0.388962 5.2085 0
M  V30 749 H 66.5364 0.0552661 2.99349 0
M  V30 750 H 64.0824 0.0280207 1.43973 0
M  V30 751 H 66.0354 -2.32535 3.51433 0
M  V30 752 H 64.7594 -2.34639 2.27183 0
M  V30 753 H 63.4184 -0.679896 3.6024 0
M  V30 754 H 63.0664 -3.13356 3.93468 0
M  V30 755 H 62.7664 -2.22605 5.43802 0
M  V30 756 H 64.2904 -3.1369 5.23861 0
M  V30 757 H 65.7044 -0.905107 5.6611 0
M  V30 758 H 64.1014 -0.18924 5.99802 0
M  V30 759 H 65.1714 0.582699 4.81386 0
M  V30 760 N 66.5145 -1.57545 0.0417849 0
M  V30 761 C 67.7625 -1.91937 -0.632829 0
M  V30 762 C 68.0835 -0.919978 -1.71934 0
M  V30 763 O 67.3535 0.0366064 -1.95866 0
M  V30 764 H 65.9335 -0.708493 -0.236742 0
M  V30 765 H 68.5955 -1.9468 0.0925745 0
M  V30 766 H 67.6915 -2.92912 -1.07746 0
M  V30 767 N 67.9926 0.231505 -1.5589 0
M  V30 768 C 69.2416 0.955346 -1.7764 0
M  V30 769 C 69.5546 1.85893 -0.608546 0
M  V30 770 O 70.7606 2.62067 -0.70943 0
M  V30 771 C 69.2166 1.74886 -3.14552 0
M  V30 772 C 68.8246 0.891915 -4.39032 0
M  V30 773 C 70.5686 2.46452 -3.45633 0
M  V30 774 C 68.4756 1.68221 -5.66971 0
M  V30 775 H 67.4056 0.360446 -0.662265 0
M  V30 776 H 70.0566 0.209516 -1.823 0
M  V30 777 H 68.4386 2.53723 -3.04041 0
M  V30 778 H 69.6126 0.144793 -4.60572 0
M  V30 779 H 67.9276 0.288863 -4.15397 0
M  V30 780 H 70.5246 3.06061 -4.38441 0
M  V30 781 H 70.8676 3.18841 -2.67668 0
M  V30 782 H 71.4006 1.74613 -3.57428 0
M  V30 783 H 68.1396 1.00178 -6.478 0
M  V30 784 H 67.6596 2.4042 -5.49507 0
M  V30 785 H 69.3386 2.24544 -6.06786 0
M  V30 786 N 69.4707 1.49531 0.497807 0
M  V30 787 C 70.6957 1.63159 1.28039 0
M  V30 788 C 71.1207 0.30418 1.85624 0
M  V30 789 O 70.4787 -0.728618 1.66015 0
M  V30 790 C 70.5267 2.70537 2.38416 0
M  V30 791 O 69.6307 2.29931 3.42353 0
M  V30 792 H 68.9717 0.546001 0.377861 0
M  V30 793 H 71.5017 1.9574 0.59558 0
M  V30 794 H 71.5117 2.92802 2.84132 0
M  V30 795 H 70.1867 3.6689 1.95869 0
M  V30 796 H 68.7637 2.18009 3.02533 0
M  V30 797 N 70.9488 -0.749086 1.3866 0
M  V30 798 C 72.1968 -1.50535 1.34847 0
M  V30 799 C 72.5178 -1.94909 -0.0595016 0
M  V30 800 O 71.7878 -1.67973 -1.00806 0
M  V30 801 H 70.3678 -0.558395 0.49619 0
M  V30 802 H 73.0298 -0.890165 1.73384 0
M  V30 803 H 72.1258 -2.39413 2.00219 0
M  V30 804 N 72.4269 -1.23603 -0.977757 0
M  V30 805 C 73.6749 -1.06759 -1.71601 0
M  V30 806 C 73.9959 0.395929 -1.90938 0
M  V30 807 O 73.2659 1.28356 -1.47992 0
M  V30 808 H 71.8459 -0.392062 -0.635843 0
M  V30 809 H 74.5079 -1.55362 -1.1768 0
M  V30 810 H 73.6039 -1.55763 -2.70452 0
M  V30 811 N 73.905 1.17692 -1.04816 0
M  V30 812 C 74.837 2.21103 -0.603822 0
M  V30 813 C 75.85 1.59411 0.33046 0
M  V30 814 O 77.039 1.7807 0.12379 0
M  V30 815 C 74.139 3.38623 0.136898 0
M  V30 816 C 73.312 4.29888 -0.807137 0
M  V30 817 C 72.371 5.26088 -0.10836 0
M  V30 818 O 71.397 5.64353 -0.741232 0
M  V30 819 N 72.599 5.68882 1.15558 0
M  V30 820 H 75.364 2.59848 -1.49329 0
M  V30 821 H 72.925 1.32553 -0.929587 0
M  V30 822 H 74.917 4.00009 0.614401 0
M  V30 823 H 73.487 2.98508 0.927993 0
M  V30 824 H 72.707 3.65993 -1.46434 0
M  V30 825 H 73.995 4.87759 -1.44807 0
M  V30 826 H 73.393 5.39861 1.69015 0
M  V30 827 H 71.95 6.32429 1.57722 0
M  V30 828 N 75.3831 0.828654 1.34056 0
M  V30 829 C 76.6601 0.341809 1.9259 0
M  V30 830 C 77.0401 -1.17158 1.75605 0
M  V30 831 O 76.3881 -1.98132 1.13824 0
M  V30 832 C 76.5981 0.777453 3.4023 0
M  V30 833 C 77.9461 0.779579 4.17382 0
M  V30 834 O 78.9701 0.7204 3.48839 0
M  V30 835 O 77.8291 0.857996 5.39723 0
M  V30 836 H 74.9231 0.0946085 0.821571 0
M  V30 837 H 77.4691 0.913827 1.42994 0
M  V30 838 H 76.2411 1.8196 3.46419 0
M  V30 839 H 75.8641 0.181444 3.97186 0
M  V30 840 N 76.8612 -1.46375 0.584142 0
M  V30 841 C 78.0862 -2.07268 0.0740405 0
M  V30 842 C 78.5112 -1.42979 -1.22223 0
M  V30 843 O 77.8692 -0.514092 -1.73859 0
M  V30 844 C 77.9172 -3.60518 -0.0767769 0
M  V30 845 O 77.0212 -3.96533 -1.13292 0
M  V30 846 H 76.3622 -0.660961 0.0634524 0
M  V30 847 H 78.8922 -1.87991 0.807492 0
M  V30 848 H 78.9022 -4.07021 -0.282489 0
M  V30 849 H 77.5772 -4.06702 0.86986 0
M  V30 850 H 76.1542 -3.61738 -0.905553 0
M  V30 851 N 78.3393 -0.321999 -1.54275 0
M  V30 852 C 79.5673 0.283052 -2.04955 0
M  V30 853 C 79.9823 1.45904 -1.19823 0
M  V30 854 O 79.3393 1.81063 -0.228545 0
M  V30 855 C 79.3903 0.719028 -3.54277 0
M  V30 856 O 79.1113 -0.410175 -4.36176 0
M  V30 857 C 80.6123 1.38705 -4.21041 0
M  V30 858 H 77.8323 0.0584616 -0.668448 0
M  V30 859 H 80.3763 -0.467734 -1.99079 0
M  V30 860 H 78.5313 1.41979 -3.60445 0
M  V30 861 H 78.9453 -0.0669416 -5.24457 0
M  V30 862 H 80.4193 1.64306 -5.2698 0
M  V30 863 H 80.8963 2.33385 -3.72059 0
M  V30 864 H 81.5023 0.728906 -4.19007 0
M  V30 865 N 79.8174 1.5752 -0.0501392 0
M  V30 866 C 80.7474 2.14502 0.922566 0
M  V30 867 C 81.7284 1.06642 1.3252 0
M  V30 868 O 82.9134 1.34577 1.4001 0
M  V30 869 C 80.0434 2.68916 2.19776 0
M  V30 870 C 78.9974 3.8175 1.93523 0
M  V30 871 C 78.3234 4.22677 3.27487 0
M  V30 872 C 79.6234 5.06932 1.25765 0
M  V30 873 H 81.3174 2.9603 0.447952 0
M  V30 874 H 78.8634 1.42401 0.214024 0
M  V30 875 H 80.8164 3.07419 2.88222 0
M  V30 876 H 79.5404 1.84578 2.69441 0
M  V30 877 H 78.1994 3.43718 1.27489 0
M  V30 878 H 77.8474 3.35291 3.74952 0
M  V30 879 H 77.5474 4.98725 3.1072 0
M  V30 880 H 79.0714 4.63779 3.97166 0
M  V30 881 H 80.4854 5.42888 1.84244 0
M  V30 882 H 78.8824 5.88116 1.19328 0
M  V30 883 H 79.9524 4.84337 0.233536 0
M  V30 884 N 81.2955 -0.223234 1.56011 0
M  V30 885 C 82.2585 -1.26014 1.9145 0
M  V30 886 C 83.2585 -1.3989 0.792937 0
M  V30 887 O 84.4485 -1.38184 1.0607 0
M  V30 888 C 81.5805 -2.63422 2.16383 0
M  V30 889 H 82.7735 -0.95796 2.84189 0
M  V30 890 H 80.3265 -0.463576 1.49267 0
M  V30 891 H 81.0615 -2.98741 1.2619 0
M  V30 892 H 80.8465 -2.54728 2.98088 0
M  V30 893 H 82.3365 -3.38249 2.44903 0
M  V30 894 N 82.7736 -1.49793 -0.48987 0
M  V30 895 C 84.0216 -1.59525 -1.24081 0
M  V30 896 C 84.3426 -0.288953 -1.92847 0
M  V30 897 O 83.6126 0.692436 -1.83254 0
M  V30 898 H 82.1926 -0.587796 -0.460983 0
M  V30 899 H 84.8546 -1.86477 -0.566778 0
M  V30 900 H 83.9506 -2.39696 -1.99881 0
M  V30 901 N 84.2517 0.741722 -1.39055 0
M  V30 902 C 85.1987 1.85566 -1.37237 0
M  V30 903 C 86.1687 1.64457 -0.233072 0
M  V30 904 O 87.3537 1.85957 -0.427147 0
M  V30 905 C 84.4937 3.23004 -1.215 0
M  V30 906 C 83.6067 3.55864 -2.44918 0
M  V30 907 C 82.7417 4.82669 -2.21821 0
M  V30 908 C 81.7807 5.08351 -3.40948 0
M  V30 909 N 80.9177 6.26356 -3.17211 0
M  V30 910 H 85.7577 1.86455 -2.32462 0
M  V30 911 H 83.2947 0.911176 -1.15482 0
M  V30 912 H 85.2527 4.02331 -1.10389 0
M  V30 913 H 83.8827 3.21411 -0.29908 0
M  V30 914 H 82.9347 2.7129 -2.66657 0
M  V30 915 H 84.2467 3.70765 -3.33668 0
M  V30 916 H 83.4007 5.69962 -2.07914 0
M  V30 917 H 82.1397 4.69929 -1.30454 0
M  V30 918 H 81.1447 4.19522 -3.55361 0
M  V30 919 H 82.3697 5.22981 -4.33207 0
M  V30 920 H 80.3157 6.14917 -2.28502 0
M  V30 921 H 80.2327 6.41813 -3.99515 0
M  V30 922 H 81.5007 7.16506 -3.06984 0
M  V30 923 N 85.7298 1.2412 0.971189 0
M  V30 924 C 86.6598 1.05508 2.08304 0
M  V30 925 C 87.6408 -0.0308864 1.70072 0
M  V30 926 O 88.8258 0.135521 1.93727 0
M  V30 927 C 85.9558 0.655365 3.4106 0
M  V30 928 C 84.9098 1.68971 3.93234 0
M  V30 929 C 84.2358 1.14516 5.22293 0
M  V30 930 C 85.5358 3.08487 4.21465 0
M  V30 931 H 87.2298 1.98507 2.24132 0
M  V30 932 H 84.7758 0.955821 1.07704 0
M  V30 933 H 86.7288 0.51217 4.18276 0
M  V30 934 H 85.4528 -0.31032 3.25122 0
M  V30 935 H 84.1118 1.82106 3.18171 0
M  V30 936 H 83.7598 0.170189 5.02712 0
M  V30 937 H 83.4598 1.83635 5.58168 0
M  V30 938 H 84.9838 1.01401 6.02121 0
M  V30 939 H 86.3978 2.98601 4.89398 0
M  V30 940 H 84.7948 3.74926 4.68562 0
M  V30 941 H 85.8648 3.56787 3.28376 0
M  V30 942 N 87.2079 -1.17134 1.05439 0
M  V30 943 C 88.4479 -1.89137 0.77502 0
M  V30 944 C 88.8119 -1.79345 -0.685526 0
M  V30 945 O 90.0129 -2.46188 -1.0791 0
M  V30 946 C 88.2839 -3.35003 1.2453 0
M  V30 947 S 89.8429 -4.24952 1.09367 0
M  V30 948 H 86.6609 -0.652949 0.281387 0
M  V30 949 H 89.2629 -1.4145 1.34953 0
M  V30 950 H 87.9669 -3.39666 2.30338 0
M  V30 951 H 87.4979 -3.87736 0.665166 0
M  V30 952 H 89.5129 -4.96196 0.0193397 0
M  V30 953 N 88.686 -0.835752 -1.33615 0
M  V30 954 C 89.618 -0.224151 -2.28101 0
M  V30 955 C 90.631 0.593331 -1.51603 0
M  V30 956 O 91.82 0.420911 -1.73466 0
M  V30 957 C 88.92 0.703309 -3.31522 0
M  V30 958 C 88.093 -0.0741528 -4.37337 0
M  V30 959 C 87.152 0.776176 -5.20444 0
M  V30 960 O 86.178 0.216506 -5.68788 0
M  V30 961 N 87.38 2.09401 -5.41416 0
M  V30 962 H 90.145 -1.03598 -2.81225 0
M  V30 963 H 87.706 -0.69392 -1.46275 0
M  V30 964 H 89.698 1.27707 -3.84022 0
M  V30 965 H 88.268 1.41585 -2.78698 0
M  V30 966 H 87.488 -0.82928 -3.85378 0
M  V30 967 H 88.776 -0.608863 -5.05144 0
M  V30 968 H 88.174 2.57229 -5.03835 0
M  V30 969 H 86.731 2.61633 -5.96985 0
M  V30 970 N 90.1641 1.46063 -0.591896 0
M  V30 971 C 91.0971 2.27452 0.184617 0
M  V30 972 C 92.0751 1.36188 0.888351 0
M  V30 973 O 93.2591 1.65606 0.90039 0
M  V30 974 C 90.3861 3.14162 1.26571 0
M  V30 975 C 89.4321 4.21255 0.666814 0
M  V30 976 S 90.2651 5.33034 -0.513345 0
M  V30 977 C 91.4211 6.23311 0.56872 0
M  V30 978 H 91.6541 2.92963 -0.505939 0
M  V30 979 H 89.1871 1.49676 -0.379014 0
M  V30 980 H 91.1451 3.6468 1.88463 0
M  V30 981 H 89.8061 2.47946 1.92826 0
M  V30 982 H 88.9991 4.81788 1.47974 0
M  V30 983 H 88.6011 3.73797 0.123359 0
M  V30 984 H 90.8931 6.61758 1.45198 0
M  V30 985 H 91.8361 7.081 -7.23824e-05 0
M  V30 986 H 92.2441 5.57646 0.876996 0
M  V30 987 N 91.6422 0.330177 1.54103 0
M  V30 988 C 92.6052 -0.520144 2.2322 0
M  V30 989 C 93.6052 -1.03828 1.22786 0
M  V30 990 O 94.7952 -0.929652 1.4732 0
M  V30 991 C 91.9272 -1.72317 2.94142 0
M  V30 992 H 93.1202 0.0841605 2.99782 0
M  V30 993 H 90.6732 0.0813433 1.56088 0
M  V30 994 H 91.4082 -2.36653 2.21734 0
M  V30 995 H 91.1932 -1.35898 3.67796 0
M  V30 996 H 92.6832 -2.3266 3.46784 0
M  V30 997 N 93.1203 -1.57491 0.0584922 0
M  V30 998 C 94.3693 -1.92155 -0.613146 0
M  V30 999 C 94.6823 -0.939334 -1.71569 0
M  V30 1000 O 95.8883 -1.17829 -2.44599 0
M  V30 1001 C 94.3443 -3.41303 -1.14195 0
M  V30 1002 C 93.9523 -4.47944 -0.0711265 0
M  V30 1003 C 95.6963 -3.84988 -1.78841 0
M  V30 1004 C 93.6033 -5.88212 -0.613225 0
M  V30 1005 H 92.5333 -0.717162 -0.232796 0
M  V30 1006 H 95.1843 -1.83049 0.12857 0
M  V30 1007 H 93.5663 -3.45437 -1.93621 0
M  V30 1008 H 94.7403 -4.55408 0.702836 0
M  V30 1009 H 93.0553 -4.13644 0.478313 0
M  V30 1010 H 95.6523 -4.87159 -2.20408 0
M  V30 1011 H 95.9953 -3.21632 -2.64308 0
M  V30 1012 H 96.5283 -3.83401 -1.06059 0
M  V30 1013 H 93.2673 -6.55183 0.203978 0
M  V30 1014 H 92.7873 -5.84294 -1.35501 0
M  V30 1015 H 94.4663 -6.37687 -1.09383 0
M  V30 1016 N 94.5984 0.214957 -1.56127 0
M  V30 1017 C 95.5464 1.28601 -1.93816 0
M  V30 1018 C 96.5404 1.48175 -0.821016 0
M  V30 1019 O 97.7464 1.49271 -1.0059 0
M  V30 1020 H 94.1214 0.431302 -0.616022 0
M  V30 1021 H 96.0924 0.940991 -2.83175 0
M  V30 1022 C 94.8414 2.62779 -2.27689 0
M  V30 1023 H 94.1644 2.48527 -3.13168 0
M  V30 1024 H 95.6044 3.36517 -2.57939 0
M  V30 1025 C 94.0634 3.18285 -1.10436 0
M  V30 1026 O 94.5934 4.00002 -0.368945 0
M  V30 1027 N 92.7994 2.7675 -0.886433 0
M  V30 1028 H 92.3464 2.10404 -1.48619 0
M  V30 1029 H 92.3044 3.14229 -0.103656 0
M  V30 1030 N 96.0765 1.50051 0.48192 0
M  V30 1031 C 96.9865 1.7089 1.60728 0
M  V30 1032 C 98.0025 0.591788 1.63627 0
M  V30 1033 O 99.1785 0.868817 1.81696 0
M  V30 1034 C 96.2435 1.78855 2.97005 0
M  V30 1035 C 95.3045 3.02537 3.04581 0
M  V30 1036 C 94.5375 3.10112 4.34357 0
M  V30 1037 O 94.7605 2.24765 5.24249 0
M  V30 1038 O 93.6945 4.02747 4.47301 0
M  V30 1039 H 97.5205 2.66264 1.46072 0
M  V30 1040 H 95.1055 1.34018 0.660264 0
M  V30 1041 H 96.9875 1.86336 3.77964 0
M  V30 1042 H 95.6625 0.866628 3.11883 0
M  V30 1043 H 94.5695 3.00563 2.22739 0
M  V30 1044 H 95.9025 3.94272 2.94636 0
M  V30 1045 N 97.5546 -0.734337 1.39446 0
M  V30 1046 C 98.4846 -1.86155 1.40955 0
M  V30 1047 C 99.4656 -1.67898 0.272827 0
M  V30 1048 O 100.651 -1.88207 0.478743 0
M  V30 1049 C 97.7806 -3.23912 1.25294 0
M  V30 1050 C 96.7346 -3.56808 2.36373 0
M  V30 1051 C 96.0606 -4.93508 2.058 0
M  V30 1052 C 97.3606 -3.59713 3.78687 0
M  V30 1053 H 99.0546 -1.8515 2.35287 0
M  V30 1054 H 96.6006 -0.889367 1.13253 0
M  V30 1055 H 98.5536 -4.02443 1.2497 0
M  V30 1056 H 97.2776 -3.25446 0.274308 0
M  V30 1057 H 95.9366 -2.80606 2.35914 0
M  V30 1058 H 95.5846 -4.91623 1.06374 0
M  V30 1059 H 95.2846 -5.16486 2.80208 0
M  V30 1060 H 96.8086 -5.74396 2.07128 0
M  V30 1061 H 98.2226 -4.2832 3.81071 0
M  V30 1062 H 96.6196 -3.94209 4.52459 0
M  V30 1063 H 97.6896 -2.59504 4.09617 0
M  V30 1064 N 99.0327 -1.24633 -0.964593 0
M  V30 1065 C 100.449 -1.01239 -1.2338 0
M  V30 1066 C 100.649 0.2769 -1.99588 0
M  V30 1067 O 99.7047 0.992241 -2.32187 0
M  V30 1068 C 101.018 -2.22937 -2.01791 0
M  V30 1069 C 102.566 -2.27594 -2.14872 0
M  V30 1070 C 103.041 -3.48921 -2.96678 0
M  V30 1071 N 104.532 -3.49257 -3.04259 0
M  V30 1072 C 105.267 -4.39795 -3.67924 0
M  V30 1073 N 104.763 -5.40591 -4.33281 0
M  V30 1074 N 106.556 -4.275 -3.64966 0
M  V30 1075 H 98.7067 -2.0748 -0.454502 0
M  V30 1076 H 100.97 -0.910647 -0.26349 0
M  V30 1077 H 100.676 -3.16587 -1.53184 0
M  V30 1078 H 100.55 -2.25306 -3.02518 0
M  V30 1079 H 102.937 -1.34473 -2.6268 0
M  V30 1080 H 103.018 -2.2925 -1.13482 0
M  V30 1081 H 102.662 -4.42359 -2.49562 0
M  V30 1082 H 102.592 -3.4451 -3.98272 0
M  V30 1083 H 105.083 -2.76337 -2.57771 0
M  V30 1084 H 105.396 -6.05904 -4.79687 0
M  V30 1085 H 103.741 -5.44475 -4.3194 0
M  V30 1086 H 106.932 -3.47987 -3.13086 0
M  V30 1087 H 107.105 -4.98258 -4.14298 0
M  V30 1088 N 100.511 1.16574 -1.06058 0
M  V30 1089 C 101.441 2.23057 -0.690488 0
M  V30 1090 C 102.422 1.67141 0.315901 0
M  V30 1091 O 103.607 1.93253 0.191556 0
M  V30 1092 C 100.737 3.47222 -0.073625 0
M  V30 1093 C 99.6908 4.16016 -1.00573 0
M  V30 1094 C 99.0168 5.34104 -0.252289 0
M  V30 1095 C 100.317 4.67264 -2.33371 0
M  V30 1096 H 102.011 2.54271 -1.58072 0
M  V30 1097 H 99.5568 1.22218 -0.76149 0
M  V30 1098 H 101.51 4.20939 0.19714 0
M  V30 1099 H 100.234 3.15302 0.85161 0
M  V30 1100 H 98.8928 3.44223 -1.2612 0
M  V30 1101 H 98.5408 4.98437 0.675988 0
M  V30 1102 H 98.2408 5.81072 -0.873455 0
M  V30 1103 H 99.7648 6.10599 0.0109857 0
M  V30 1104 H 101.179 5.32573 -2.12223 0
M  V30 1105 H 99.5758 5.24843 -2.90963 0
M  V30 1106 H 100.646 3.83602 -2.96611 0
M  V30 1107 N 101.989 0.842826 1.3317 0
M  V30 1108 C 102.899 0.281444 2.32906 0
M  V30 1109 C 103.915 -0.594587 1.63526 0
M  V30 1110 O 105.091 -0.49777 1.95152 0
M  V30 1111 C 102.156 -0.530929 3.42611 0
M  V30 1112 C 101.217 0.369843 4.27704 0
M  V30 1113 C 100.45 -0.403853 5.3217 0
M  V30 1114 O 100.673 -1.63513 5.46461 0
M  V30 1115 O 99.6069 0.224199 6.01482 0
M  V30 1116 H 103.433 1.10744 2.82789 0
M  V30 1117 H 101.018 0.60545 1.36582 0
M  V30 1118 H 102.9 -0.992437 4.09547 0
M  V30 1119 H 101.575 -1.33392 2.94938 0
M  V30 1120 H 100.482 0.879275 3.6362 0
M  V30 1121 H 101.815 1.13771 4.78871 0
M  V30 1122 N 103.467 -1.45747 0.599634 0
M  V30 1123 C 104.695 -2.06668 0.0978551 0
M  V30 1124 C 105.11 -1.44562 -1.21439 0
M  V30 1125 O 104.467 -0.556923 -1.73795 0
M  V30 1126 C 104.518 -3.61456 -0.0567044 0
M  V30 1127 O 104.239 -4.21242 1.20361 0
M  V30 1128 C 105.74 -4.39345 -0.590869 0
M  V30 1129 H 102.96 -0.667825 0.0651943 0
M  V30 1130 H 105.504 -1.87115 0.82511 0
M  V30 1131 H 103.659 -3.80378 -0.734251 0
M  V30 1132 H 104.073 -5.14323 1.02821 0
M  V30 1133 H 105.547 -5.48182 -0.648131 0
M  V30 1134 H 106.024 -4.08568 -1.61147 0
M  V30 1135 H 106.63 -4.25268 0.0523679 0
M  V30 1136 N 104.945 -0.338344 -1.53925 0
M  V30 1137 C 106.193 0.259245 -2.0043 0
M  V30 1138 C 106.514 1.51484 -1.22791 0
M  V30 1139 O 105.784 1.93037 -0.33368 0
M  V30 1140 H 104.364 0.0987845 -0.740439 0
M  V30 1141 H 107.026 -0.458302 -1.89435 0
M  V30 1142 H 106.122 0.505334 -3.07982 0
M  V30 1143 N 106.423 1.57458 -0.0668435 0
M  V30 1144 C 107.371 2.13639 0.919851 0
M  V30 1145 C 108.365 1.07204 1.31163 0
M  V30 1146 O 109.571 1.25591 1.28945 0
M  V30 1147 H 105.946 0.683048 0.314562 0
M  V30 1148 H 107.917 2.95415 0.421047 0
M  V30 1149 C 106.666 2.70892 2.17975 0
M  V30 1150 H 105.989 3.5246 1.88711 0
M  V30 1151 H 107.429 3.13803 2.85138 0
M  V30 1152 C 105.888 1.65414 2.93496 0
M  V30 1153 O 106.418 1.07619 3.87015 0
M  V30 1154 N 104.624 1.36564 2.56512 0
M  V30 1155 H 104.171 1.83751 1.80536 0
M  V30 1156 H 104.129 0.66223 3.07347 0
M  V30 1157 N 107.901 -0.206675 1.56239 0
M  V30 1158 C 108.811 -1.27686 1.96808 0
M  V30 1159 C 109.827 -1.50455 0.874035 0
M  V30 1160 O 111.003 -1.63295 1.17884 0
M  V30 1161 C 108.068 -2.60358 2.28942 0
M  V30 1162 C 107.129 -2.45762 3.51994 0
M  V30 1163 C 106.362 -3.72108 3.82585 0
M  V30 1164 O 106.585 -4.75776 3.14631 0
M  V30 1165 O 105.519 -3.6833 4.76043 0
M  V30 1166 H 109.345 -0.962593 2.88041 0
M  V30 1167 H 106.93 -0.410746 1.43643 0
M  V30 1168 H 108.812 -3.38687 2.50737 0
M  V30 1169 H 107.487 -2.91435 1.4088 0
M  V30 1170 H 106.394 -1.65584 3.35459 0
M  V30 1171 H 107.727 -2.19621 4.40486 0
M  V30 1172 N 109.379 -1.50304 -0.473955 0
M  V30 1173 C 110.604 -1.65175 -1.25427 0
M  V30 1174 C 111.029 -0.333673 -1.85117 0
M  V30 1175 O 110.387 0.702114 -1.67153 0
M  V30 1176 C 110.435 -2.74295 -2.34082 0
M  V30 1177 O 109.539 -2.35349 -3.38651 0
M  V30 1178 H 108.88 -0.551944 -0.369126 0
M  V30 1179 H 111.41 -1.96662 -0.564364 0
M  V30 1180 H 111.42 -2.97285 -2.79438 0
M  V30 1181 H 110.095 -3.69959 -1.90008 0
M  V30 1182 H 108.672 -2.22794 -2.99027 0
M  V30 1183 N 110.857 0.726932 -1.39834 0
M  V30 1184 C 111.787 1.85405 -1.41941 0
M  V30 1185 C 112.768 1.67751 -0.281728 0
M  V30 1186 O 113.953 1.8795 -0.488717 0
M  V30 1187 C 111.083 3.23243 -1.2701 0
M  V30 1188 C 110.037 3.55549 -2.38262 0
M  V30 1189 C 109.363 4.9241 -2.08415 0
M  V30 1190 C 110.663 3.577 -3.80589 0
M  V30 1191 H 112.357 1.83899 -2.36266 0
M  V30 1192 H 109.903 0.883349 -1.13723 0
M  V30 1193 H 111.856 4.01775 -1.27103 0
M  V30 1194 H 110.58 3.25296 -0.291564 0
M  V30 1195 H 109.239 2.79351 -2.37399 0
M  V30 1196 H 108.887 4.91052 -1.0898 0
M  V30 1197 H 108.587 5.14992 -2.82943 0
M  V30 1198 H 110.111 5.73289 -2.10171 0
M  V30 1199 H 111.525 4.26293 -3.83337 0
M  V30 1200 H 109.922 3.91804 -4.54543 0
M  V30 1201 H 110.992 2.57328 -4.10987 0
M  V30 1202 N 112.336 1.25143 0.95797 0
M  V30 1203 C 113.268 1.01023 2.05735 0
M  V30 1204 C 114.281 -0.0236902 1.62783 0
M  V30 1205 O 115.47 0.21448 1.77207 0
M  V30 1206 C 112.57 0.504595 3.35122 0
M  V30 1207 C 111.743 1.6039 4.06932 0
M  V30 1208 C 110.802 1.09922 5.14591 0
M  V30 1209 O 109.828 1.79293 5.40225 0
M  V30 1210 N 111.03 -0.0612545 5.80468 0
M  V30 1211 H 113.795 1.95683 2.26998 0
M  V30 1212 H 111.356 1.16303 1.12629 0
M  V30 1213 H 113.348 0.151516 4.04416 0
M  V30 1214 H 111.918 -0.347989 3.10657 0
M  V30 1215 H 111.138 2.12872 3.31782 0
M  V30 1216 H 112.426 2.34252 4.51667 0
M  V30 1217 H 111.824 -0.640985 5.62057 0
M  V30 1218 H 110.381 -0.355395 6.5083 0
M  V30 1219 N 113.814 -1.1601 1.06675 0
M  V30 1220 C 115.061 -1.86633 0.785781 0
M  V30 1221 C 115.389 -1.81929 -0.687896 0
M  V30 1222 O 114.644 -1.23253 -1.52011 0
M  V30 1223 C 114.943 -3.35547 1.23057 0
M  V30 1224 C 114.609 -3.60448 2.70902 0
M  V30 1225 C 113.271 -3.66954 3.11285 0
M  V30 1226 C 115.623 -3.7071 3.66365 0
M  V30 1227 C 112.951 -3.81225 4.45965 0
M  V30 1228 C 115.303 -3.86503 5.00797 0
M  V30 1229 C 113.967 -3.91252 5.40813 0
M  V30 1230 H 113.237 -0.682937 0.287538 0
M  V30 1231 H 115.884 -1.37146 1.33654 0
M  V30 1232 H 114.189 -3.87193 0.59907 0
M  V30 1233 H 115.886 -3.88583 0.990163 0
M  V30 1234 H 112.476 -3.56021 2.38636 0
M  V30 1235 H 116.66 -3.64991 3.36296 0
M  V30 1236 H 111.916 -3.83155 4.76447 0
M  V30 1237 H 116.09 -3.93385 5.74649 0
M  V30 1238 H 113.717 -4.02062 6.45174 0
M  V30 1239 N 115.292 -0.849877 -1.32721 0
M  V30 1240 C 116.541 -0.447175 -1.96681 0
M  V30 1241 C 116.854 1.00135 -1.68025 0
M  V30 1242 O 118.06 1.50926 -2.25685 0
M  V30 1243 C 116.516 -0.7487 -3.52026 0
M  V30 1244 C 116.124 -2.21264 -3.89546 0
M  V30 1245 C 117.868 -0.413487 -4.22481 0
M  V30 1246 C 115.775 -2.45763 -5.37917 0
M  V30 1247 H 114.705 -0.163486 -0.736063 0
M  V30 1248 H 117.356 -1.03999 -1.51183 0
M  V30 1249 H 115.738 -0.0853727 -3.95908 0
M  V30 1250 H 116.912 -2.91736 -3.56689 0
M  V30 1251 H 115.227 -2.5119 -3.32103 0
M  V30 1252 H 117.824 -0.574017 -5.3161 0
M  V30 1253 H 118.167 0.644492 -4.11281 0
M  V30 1254 H 118.7 -1.03251 -3.84167 0
M  V30 1255 H 115.439 -3.50168 -5.54132 0
M  V30 1256 H 114.959 -1.79864 -5.72197 0
M  V30 1257 H 116.638 -2.29471 -6.0494 0
M  V30 1258 N 116.77 1.45427 -0.607355 0
M  V30 1259 C 117.733 2.28974 0.101693 0
M  V30 1260 C 118.733 1.39754 0.795329 0
M  V30 1261 O 119.923 1.61878 0.643527 0
M  V30 1262 C 117.055 3.20768 1.15414 0
M  V30 1263 H 118.248 2.93147 -0.632844 0
M  V30 1264 H 115.801 1.51945 -0.366391 0
M  V30 1265 H 116.536 2.61395 1.91945 0
M  V30 1266 H 116.321 3.86489 0.66098 0
M  V30 1267 H 117.811 3.83589 1.65073 0
M  V30 1268 N 118.248 0.346503 1.53744 0
M  V30 1269 C 119.494 -0.249473 2.0126 0
M  V30 1270 C 119.827 -1.49965 1.23386 0
M  V30 1271 O 119.102 -1.91811 0.32229 0
M  V30 1272 C 119.385 -0.560643 3.55709 0
M  V30 1273 C 119.238 0.701836 4.44291 0
M  V30 1274 C 120.557 -1.36905 4.18264 0
M  V30 1275 H 117.676 -0.0891987 0.731582 0
M  V30 1276 H 120.318 0.467624 1.84156 0
M  V30 1277 H 118.468 -1.17156 3.70414 0
M  V30 1278 H 120.14 1.33974 4.41417 0
M  V30 1279 H 118.383 1.32612 4.13033 0
M  V30 1280 H 119.054 0.43933 5.50249 0
M  V30 1281 H 121.53 -0.852448 4.07275 0
M  V30 1282 H 120.406 -1.55553 5.26398 0
M  V30 1283 H 120.667 -2.37203 3.73078 0
M  V30 1284 N 119.726 -1.57421 0.075193 0
M  V30 1285 C 121.142 -1.57099 -0.281444 0
M  V30 1286 C 121.342 -1.08486 -1.69803 0
M  V30 1287 O 120.398 -0.752279 -2.41033 0
M  V30 1288 C 121.711 -3.00571 -0.0880041 0
M  V30 1289 C 123.259 -3.12605 -0.157281 0
M  V30 1290 C 123.734 -4.57999 0.0079207 0
M  V30 1291 N 125.225 -4.63176 -0.0475725 0
M  V30 1292 C 125.96 -5.73373 0.0557876 0
M  V30 1293 N 125.456 -6.92473 0.21286 0
M  V30 1294 N 127.249 -5.621 -0.00152098 0
M  V30 1295 H 119.4 -1.87335 1.00098 0
M  V30 1296 H 121.663 -0.86377 0.390646 0
M  V30 1297 H 121.369 -3.40262 0.889629 0
M  V30 1298 H 121.243 -3.67754 -0.838875 0
M  V30 1299 H 123.63 -2.72798 -1.1254 0
M  V30 1300 H 123.711 -2.48053 0.62475 0
M  V30 1301 H 123.355 -4.98496 0.972824 0
M  V30 1302 H 123.285 -5.20586 -0.793556 0
M  V30 1303 H 125.776 -3.7753 -0.167244 0
M  V30 1304 H 126.089 -7.72279 0.283781 0
M  V30 1305 H 124.434 -6.94556 0.248267 0
M  V30 1306 H 127.625 -4.67938 -0.122958 0
M  V30 1307 H 127.798 -6.47948 0.0824844 0
M  V30 1308 N 121.204 0.198386 -1.56346 0
M  V30 1309 C 122.134 1.24865 -1.9731 0
M  V30 1310 C 123.115 1.47651 -0.844576 0
M  V30 1311 O 124.3 1.59444 -1.10866 0
M  V30 1312 C 121.43 2.59358 -2.30977 0
M  V30 1313 C 120.384 2.5119 -3.46537 0
M  V30 1314 C 119.71 3.89926 -3.65871 0
M  V30 1315 C 121.01 2.03977 -4.80823 0
M  V30 1316 H 122.704 0.908252 -2.85291 0
M  V30 1317 H 120.25 0.435462 -1.37258 0
M  V30 1318 H 122.203 3.33011 -2.58228 0
M  V30 1319 H 120.927 2.95132 -1.39874 0
M  V30 1320 H 119.586 1.79993 -3.19371 0
M  V30 1321 H 119.234 4.23046 -2.72105 0
M  V30 1322 H 118.934 3.85336 -4.4361 0
M  V30 1323 H 120.458 4.65205 -3.95495 0
M  V30 1324 H 121.872 2.67386 -5.07127 0
M  V30 1325 H 120.269 2.10397 -5.62008 0
M  V30 1326 H 121.339 0.992861 -4.74626 0
M  V30 1327 N 122.682 1.50554 0.465978 0
M  V30 1328 C 124.093 1.54599 1.04671 0
M  V30 1329 C 124.444 0.352488 1.93008 0
M  V30 1330 O 123.569 -0.534044 2.09707 0
M  V30 1331 C 124.164 2.80166 1.90505 0
M  V30 1332 C 122.723 2.86876 2.43678 0
M  V30 1333 C 121.87 2.48947 1.22151 0
M  V30 1334 H 124.821 1.56744 0.248384 0
M  V30 1335 H 124.842 2.62311 2.75633 0
M  V30 1336 H 124.354 3.67013 1.26186 0
M  V30 1337 H 122.455 2.04393 3.11536 0
M  V30 1338 H 122.568 3.89885 2.78436 0
M  V30 1339 H 120.932 2.01498 1.5579 0
M  V30 1340 H 121.715 3.38107 0.594866 0
M  V30 1341 N 124.16 -0.719506 1.40217 0
M  V30 1342 C 125.39 -1.50646 1.41384 0
M  V30 1343 C 125.798 -1.89197 0.0107743 0
M  V30 1344 O 125.141 -1.55709 -0.974708 0
M  V30 1345 C 125.203 -2.81405 2.23722 0
M  V30 1346 C 124.867 -2.65199 3.72181 0
M  V30 1347 C 125.864 -2.32717 4.64907 0
M  V30 1348 C 123.549 -2.81586 4.1595 0
M  V30 1349 C 125.543 -2.16827 5.99387 0
M  V30 1350 C 123.23 -2.65313 5.50502 0
M  V30 1351 C 124.228 -2.32981 6.42035 0
M  V30 1352 O 123.916 -2.16827 7.74107 0
M  V30 1353 H 123.648 -0.471606 0.484318 0
M  V30 1354 H 126.202 -0.895456 1.84853 0
M  V30 1355 H 124.432 -3.44823 1.75026 0
M  V30 1356 H 126.121 -3.43102 2.16878 0
M  V30 1357 H 126.887 -2.19694 4.32388 0
M  V30 1358 H 122.766 -3.0574 3.45027 0
M  V30 1359 H 126.31 -1.91513 6.70797 0
M  V30 1360 H 122.207 -2.7792 5.82607 0
M  V30 1361 H 122.975 -2.31778 7.84998 0
M  V30 1362 N 125.638 -1.25649 -0.95132 0
M  V30 1363 C 126.886 -1.10375 -1.69298 0
M  V30 1364 C 127.207 0.355339 -1.91735 0
M  V30 1365 O 126.477 1.25188 -1.50681 0
M  V30 1366 H 125.057 -0.405461 -0.627384 0
M  V30 1367 H 127.719 -1.57823 -1.14358 0
M  V30 1368 H 126.815 -1.61465 -2.67087 0
M  V30 1369 N 127.117 1.15442 -1.07289 0
M  V30 1370 C 128.363 1.86489 -0.796846 0
M  V30 1371 C 128.696 1.82078 0.675371 0
M  V30 1372 O 127.971 1.24346 1.4956 0
M  V30 1373 C 128.254 3.35626 -1.30489 0
M  V30 1374 C 128.107 3.48673 -2.84161 0
M  V30 1375 C 129.426 4.30357 -0.920907 0
M  V30 1376 H 126.545 0.677144 -0.290939 0
M  V30 1377 H 129.187 1.35633 -1.33056 0
M  V30 1378 H 127.337 3.79068 -0.850883 0
M  V30 1379 H 129.009 3.14099 -3.37846 0
M  V30 1380 H 127.252 2.90253 -3.22391 0
M  V30 1381 H 127.923 4.53453 -3.14777 0
M  V30 1382 H 130.399 3.94871 -1.3121 0
M  V30 1383 H 129.275 5.33193 -1.30372 0
M  V30 1384 H 129.536 4.4176 0.173226 0
M  V30 1385 N 128.595 0.856903 1.32268 0
M  V30 1386 C 129.527 0.260412 2.27716 0
M  V30 1387 C 130.54 -0.569137 1.52528 0
M  V30 1388 O 131.729 -0.39326 1.74114 0
M  V30 1389 C 128.829 -0.650477 3.32599 0
M  V30 1390 C 128.002 0.14372 4.37164 0
M  V30 1391 C 127.061 -0.69328 5.21613 0
M  V30 1392 O 126.087 -0.12599 5.69061 0
M  V30 1393 N 127.289 -2.00761 5.44679 0
M  V30 1394 H 130.054 1.08059 2.79541 0
M  V30 1395 H 127.615 0.717103 1.45152 0
M  V30 1396 H 129.607 -1.21581 3.86005 0
M  V30 1397 H 128.177 -1.37133 2.80915 0
M  V30 1398 H 127.397 0.890486 3.8401 0
M  V30 1399 H 128.685 0.68915 5.04111 0
M  V30 1400 H 128.083 -2.49181 5.07863 0
M  V30 1401 H 126.64 -2.52103 6.01072 0
M  V30 1402 N 130.073 -1.45103 0.615059 0
M  V30 1403 C 131.036 -2.29025 -0.0895485 0
M  V30 1404 C 132.036 -1.40174 -0.787906 0
M  V30 1405 O 133.226 -1.62217 -0.634933 0
M  V30 1406 C 130.358 -3.21376 -1.13711 0
M  V30 1407 H 131.551 -2.92807 0.648382 0
M  V30 1408 H 129.104 -1.51749 0.374444 0
M  V30 1409 H 129.839 -2.6241 -1.90556 0
M  V30 1410 H 129.624 -3.86834 -0.640475 0
M  V30 1411 H 131.114 -3.84459 -1.63036 0
M  V30 1412 N 131.551 -0.354651 -1.53558 0
M  V30 1413 C 132.828 0.294281 -1.93374 0
M  V30 1414 C 133.208 1.67313 -1.28723 0
M  V30 1415 O 132.556 2.24179 -0.442247 0
M  V30 1416 C 132.766 0.355445 -3.47185 0
M  V30 1417 C 134.114 0.601007 -4.20325 0
M  V30 1418 O 135.138 0.437106 -3.53508 0
M  V30 1419 O 133.997 0.919322 -5.38712 0
M  V30 1420 H 131.091 0.174033 -0.808481 0
M  V30 1421 H 133.637 -0.406638 -1.64756 0
M  V30 1422 H 132.409 -0.611729 -3.86489 0
M  V30 1423 H 132.032 1.1027 -3.82003 0
M  V30 1424 N 133.029 1.57378 -0.0835403 0
M  V30 1425 C 133.939 2.16897 0.894021 0
M  V30 1426 C 134.955 1.13528 1.31861 0
M  V30 1427 O 136.131 1.45848 1.3889 0
M  V30 1428 C 133.196 2.72831 2.13925 0
M  V30 1429 C 132.257 3.91115 1.76997 0
M  V30 1430 C 131.49 4.44371 2.95584 0
M  V30 1431 O 131.713 3.96596 4.09961 0
M  V30 1432 O 130.647 5.35549 2.74719 0
M  V30 1433 H 134.473 3.00814 0.417679 0
M  V30 1434 H 132.058 1.48741 0.140181 0
M  V30 1435 H 133.94 3.0863 2.86924 0
M  V30 1436 H 132.615 1.91967 2.60635 0
M  V30 1437 H 131.522 3.60148 1.01214 0
M  V30 1438 H 132.855 4.73307 1.3506 0
M  V30 1439 N 134.507 -0.190092 1.56449 0
M  V30 1440 C 135.439 -1.25973 1.91477 0
M  V30 1441 C 136.452 -1.41452 0.805931 0
M  V30 1442 O 137.641 -1.41789 1.08435 0
M  V30 1443 C 134.741 -2.63117 2.13594 0
M  V30 1444 C 133.914 -2.69182 3.4476 0
M  V30 1445 C 132.973 -3.87557 3.5593 0
M  V30 1446 O 131.999 -3.74427 4.28711 0
M  V30 1447 N 133.201 -5.03224 2.89388 0
M  V30 1448 H 135.966 -0.962394 2.83828 0
M  V30 1449 H 133.527 -0.379981 1.57378 0
M  V30 1450 H 135.519 -3.40742 2.1835 0
M  V30 1451 H 134.089 -2.85319 1.27719 0
M  V30 1452 H 133.309 -1.77793 3.51828 0
M  V30 1453 H 134.597 -2.70229 4.31107 0
M  V30 1454 H 133.995 -5.16791 2.30094 0
M  V30 1455 H 132.552 -5.78778 2.99764 0
M  V30 1456 N 135.985 -1.50799 -0.457987 0
M  V30 1457 C 137.262 -1.52968 -1.21902 0
M  V30 1458 C 137.642 -0.281906 -2.09209 0
M  V30 1459 O 136.99 0.734076 -2.16388 0
M  V30 1460 C 137.2 -2.8326 -2.03875 0
M  V30 1461 C 138.548 -3.34425 -2.6162 0
M  V30 1462 O 139.572 -2.8467 -2.14106 0
M  V30 1463 O 138.431 -4.21188 -3.48228 0
M  V30 1464 H 135.525 -0.614129 -0.553873 0
M  V30 1465 H 138.071 -1.63098 -0.468739 0
M  V30 1466 H 136.843 -3.65543 -1.39621 0
M  V30 1467 H 136.466 -2.76195 -2.8601 0
M  V30 1468 N 137.463 0.71206 -1.40597 0
M  V30 1469 C 138.703 1.48438 -1.40519 0
M  V30 1470 C 139.067 1.91998 -0.00767611 0
M  V30 1471 O 140.268 2.6854 0.118239 0
M  V30 1472 C 138.539 2.67514 -2.37004 0
M  V30 1473 S 140.098 3.56875 -2.55315 0
M  V30 1474 H 136.916 0.507457 -0.498005 0
M  V30 1475 H 139.518 0.832355 -1.76896 0
M  V30 1476 H 138.222 2.33689 -3.37368 0
M  V30 1477 H 137.753 3.37625 -2.01923 0
M  V30 1478 H 139.768 4.62081 -1.8082 0
M  V30 1479 N 138.941 1.26152 0.944643 0
M  V30 1480 C 139.873 1.03199 2.04652 0
M  V30 1481 C 140.886 -0.00642356 1.62799 0
M  V30 1482 O 142.075 0.233263 1.76969 0
M  V30 1483 C 139.175 0.540111 3.34568 0
M  V30 1484 C 138.348 1.64697 4.05208 0
M  V30 1485 C 137.407 1.15374 5.13396 0
M  V30 1486 O 136.433 1.85013 5.38293 0
M  V30 1487 N 137.635 0.00031529 5.805 0
M  V30 1488 H 140.4 1.9808 2.2491 0
M  V30 1489 H 137.961 1.17491 1.11389 0
M  V30 1490 H 139.953 0.194401 4.04233 0
M  V30 1491 H 138.523 -0.315021 3.11009 0
M  V30 1492 H 137.743 2.16379 3.29506 0
M  V30 1493 H 139.031 2.3903 4.49157 0
M  V30 1494 H 138.429 -0.581336 5.62705 0
M  V30 1495 H 136.986 -0.286346 6.51171 0
M  V30 1496 N 140.419 -1.14872 1.07899 0
M  V30 1497 C 141.696 -1.81928 0.71845 0
M  V30 1498 C 142.076 -1.95417 -0.798455 0
M  V30 1499 O 141.424 -1.50997 -1.715 0
M  V30 1500 C 141.634 -3.17937 1.43935 0
M  V30 1501 C 142.982 -3.93501 1.59506 0
M  V30 1502 O 144.006 -3.27509 1.40058 0
M  V30 1503 O 142.865 -5.1183 1.91551 0
M  V30 1504 H 139.959 -0.78628 0.256305 0
M  V30 1505 H 142.505 -1.21934 1.18026 0
M  V30 1506 H 141.277 -3.0325 2.47295 0
M  V30 1507 H 140.9 -3.85619 0.968687 0
M  V30 1508 N 141.898 -0.863906 -1.31812 0
M  V30 1509 C 142.861 -0.320212 -2.26952 0
M  V30 1510 C 143.861 0.525369 -1.51975 0
M  V30 1511 O 145.051 0.335547 -1.70938 0
M  V30 1512 C 142.183 0.545919 -3.365 0
M  V30 1513 H 143.376 -1.16004 -2.76556 0
M  V30 1514 H 140.929 -0.638995 -1.42641 0
M  V30 1515 H 141.664 1.40718 -2.92179 0
M  V30 1516 H 141.449 -0.0594674 -3.92055 0
M  V30 1517 H 142.939 0.918796 -4.07367 0
M  V30 1518 N 143.376 1.44774 -0.622745 0
M  V30 1519 C 144.625 2.01334 -0.121397 0
M  V30 1520 C 144.938 1.49505 1.26125 0
M  V30 1521 O 146.144 1.98139 1.85616 0
M  V30 1522 C 144.6 3.59516 -0.166298 0
M  V30 1523 C 144.208 4.20342 -1.54974 0
M  V30 1524 C 145.952 4.23582 0.279021 0
M  V30 1525 C 143.859 5.70721 -1.55021 0
M  V30 1526 H 142.789 0.752851 -0.0416172 0
M  V30 1527 H 145.44 1.66083 -0.780309 0
M  V30 1528 H 143.822 3.92027 0.559557 0
M  V30 1529 H 144.996 3.99381 -2.29851 0
M  V30 1530 H 143.311 3.68529 -1.93843 0
M  V30 1531 H 145.908 5.33868 0.298083 0
M  V30 1532 H 146.251 3.95327 1.30471 0
M  V30 1533 H 146.784 3.95843 -0.394063 0
M  V30 1534 H 143.523 6.03698 -2.55399 0
M  V30 1535 H 143.043 5.93829 -0.844245 0
M  V30 1536 H 144.722 6.34203 -1.28047 0
M  V30 1537 N 144.854 0.36279 1.53368 0
M  V30 1538 C 145.817 -0.472679 2.24273 0
M  V30 1539 C 146.817 -1.012 1.24961 0
M  V30 1540 O 148.007 -0.898194 1.49259 0
M  V30 1541 C 145.139 -1.66039 2.97731 0
M  V30 1542 H 146.332 0.14773 2.99536 0
M  V30 1543 H 143.885 0.114434 1.55881 0
M  V30 1544 H 144.62 -2.31896 2.26704 0
M  V30 1545 H 144.405 -1.28066 3.70596 0
M  V30 1546 H 145.895 -2.25252 3.51641 0
M  V30 1547 N 146.332 -1.57332 0.0918853 0
M  V30 1548 C 147.579 -1.94236 -0.572577 0
M  V30 1549 C 147.907 -0.973398 -1.6839 0
M  V30 1550 O 147.162 0.00756912 -1.95699 0
M  V30 1551 C 147.461 -3.37689 -1.17051 0
M  V30 1552 C 147.127 -4.50527 -0.183304 0
M  V30 1553 C 145.789 -4.81119 0.0882276 0
M  V30 1554 C 148.141 -5.18883 0.49095 0
M  V30 1555 C 145.469 -5.77395 1.04076 0
M  V30 1556 C 147.821 -6.1618 1.43193 0
M  V30 1557 C 146.485 -6.45179 1.71173 0
M  V30 1558 H 145.755 -0.710762 -0.209521 0
M  V30 1559 H 148.402 -1.9077 0.167036 0
M  V30 1560 H 146.707 -3.37718 -1.9863 0
M  V30 1561 H 148.404 -3.63543 -1.69227 0
M  V30 1562 H 144.994 -4.26681 -0.405124 0
M  V30 1563 H 149.178 -4.95427 0.294312 0
M  V30 1564 H 144.434 -5.98179 1.26457 0
M  V30 1565 H 148.608 -6.68243 1.96023 0
M  V30 1566 H 146.235 -7.1959 2.4514 0
M  V30 1567 N 147.81 0.181792 -1.56548 0
M  V30 1568 C 149.059 0.898348 -1.8059 0
M  V30 1569 C 149.372 1.83862 -0.667379 0
M  V30 1570 O 150.578 2.59678 -0.792446 0
M  V30 1571 C 149.034 1.64791 -3.19956 0
M  V30 1572 C 148.642 0.751789 -4.41647 0
M  V30 1573 C 150.386 2.35331 -3.53298 0
M  V30 1574 C 148.293 1.50098 -5.72035 0
M  V30 1575 H 147.223 0.339194 -0.673397 0
M  V30 1576 H 149.874 0.151413 -1.82874 0
M  V30 1577 H 148.256 2.43921 -3.11959 0
M  V30 1578 H 149.43 -0.0018076 -4.608 0
M  V30 1579 H 147.745 0.156562 -4.16106 0
M  V30 1580 H 150.342 2.91958 -4.47956 0
M  V30 1581 H 150.685 3.10164 -2.77676 0
M  V30 1582 H 151.218 1.63154 -3.62803 0
M  V30 1583 H 147.957 0.795175 -6.50659 0
M  V30 1584 H 147.477 2.22817 -5.56878 0
M  V30 1585 H 149.156 2.05125 -6.13622 0
M  V30 1586 N 149.288 1.51039 0.449983 0
M  V30 1587 C 150.22 1.67617 1.56324 0
M  V30 1588 C 151.233 0.557083 1.52972 0
M  V30 1589 O 152.422 0.830989 1.57977 0
M  V30 1590 C 149.522 1.66402 2.95235 0
M  V30 1591 C 148.695 2.9469 3.23229 0
M  V30 1592 C 147.754 2.85832 4.41799 0
M  V30 1593 O 146.78 3.59785 4.41071 0
M  V30 1594 N 147.982 2.00821 5.44657 0
M  V30 1595 H 150.747 2.63648 1.42512 0
M  V30 1596 H 148.308 1.48767 0.638737 0
M  V30 1597 H 150.3 1.58062 3.72557 0
M  V30 1598 H 148.87 0.780182 3.02708 0
M  V30 1599 H 148.09 3.16996 2.34323 0
M  V30 1600 H 149.378 3.79636 3.38754 0
M  V30 1601 H 148.776 1.40091 5.48079 0
M  V30 1602 H 147.333 1.98368 6.20881 0
M  V30 1603 N 150.766 -0.704594 1.40972 0
M  V30 1604 C 152.177 -1.28418 1.3552 0
M  V30 1605 C 152.528 -1.96171 0.0339434 0
M  V30 1606 O 151.653 -1.98231 -0.867944 0
M  V30 1607 C 152.248 -2.33528 2.45459 0
M  V30 1608 C 150.807 -2.87085 2.43433 0
M  V30 1609 C 149.954 -1.61007 2.2577 0
M  V30 1610 H 152.905 -0.499963 1.50619 0
M  V30 1611 H 152.926 -3.14619 2.13998 0
M  V30 1612 H 152.438 -1.84187 3.41609 0
M  V30 1613 H 150.539 -3.40626 1.51013 0
M  V30 1614 H 150.652 -3.3813 3.39419 0
M  V30 1615 H 149.016 -1.86482 1.73483 0
M  V30 1616 H 149.799 -1.13675 3.23933 0
M  V30 1617 N 152.244 -1.26651 -0.937939 0
M  V30 1618 C 153.521 -1.0313 -1.66204 0
M  V30 1619 C 153.901 0.437256 -2.06522 0
M  V30 1620 O 153.249 1.41831 -1.79154 0
M  V30 1621 C 153.459 -1.98314 -2.87181 0
M  V30 1622 C 154.807 -2.27107 -3.58758 0
M  V30 1623 O 155.831 -1.96205 -2.97291 0
M  V30 1624 O 154.69 -2.79736 -4.69479 0
M  V30 1625 H 151.784 -0.392384 -0.727986 0
M  V30 1626 H 154.33 -1.37874 -0.989382 0
M  V30 1627 H 153.102 -2.97399 -2.54302 0
M  V30 1628 H 152.725 -1.64068 -3.6217 0
M  V30 1629 N 153.722 1.14298 -1.08507 0
M  V30 1630 C 155.138 1.37347 -0.812901 0
M  V30 1631 C 155.338 1.93052 0.577325 0
M  V30 1632 O 154.394 2.14389 1.33393 0
M  V30 1633 C 155.707 2.33359 -1.89642 0
M  V30 1634 C 157.255 2.46996 -1.92255 0
M  V30 1635 C 157.73 3.46309 -2.99724 0
M  V30 1636 N 159.221 3.53853 -2.98902 0
M  V30 1637 C 159.956 4.3055 -3.787 0
M  V30 1638 N 159.452 5.10482 -4.6838 0
M  V30 1639 N 161.245 4.25757 -3.66998 0
M  V30 1640 H 153.396 0.764867 -1.9815 0
M  V30 1641 H 155.659 0.398966 -0.859959 0
M  V30 1642 H 155.365 1.99565 -2.89597 0
M  V30 1643 H 155.239 3.33274 -1.76659 0
M  V30 1644 H 157.626 2.80081 -0.929445 0
M  V30 1645 H 157.707 1.47039 -2.09316 0
M  V30 1646 H 157.351 3.13957 -3.99241 0
M  V30 1647 H 157.281 4.46049 -2.79907 0
M  V30 1648 H 159.772 2.96812 -2.33904 0
M  V30 1649 H 160.085 5.66284 -5.25873 0
M  V30 1650 H 158.43 5.09747 -4.72422 0
M  V30 1651 H 161.621 3.62383 -2.96304 0
M  V30 1652 H 161.794 4.85279 -4.29427 0
M  V30 1653 N 155.201 0.870884 1.31352 0
M  V30 1654 C 156.447 0.482987 1.96965 0
M  V30 1655 C 156.78 -0.962462 1.68672 0
M  V30 1656 O 156.055 -1.6779 0.98371 0
M  V30 1657 C 156.338 0.741752 3.52378 0
M  V30 1658 C 156.191 2.2368 3.9024 0
M  V30 1659 C 157.51 0.208838 4.39604 0
M  V30 1660 H 154.629 0.176955 0.715441 0
M  V30 1661 H 157.271 1.09229 1.55464 0
M  V30 1662 H 155.421 0.223149 3.87859 0
M  V30 1663 H 157.093 2.82273 3.64856 0
M  V30 1664 H 155.336 2.70901 3.38814 0
M  V30 1665 H 156.007 2.3685 4.98604 0
M  V30 1666 H 158.483 0.652529 4.10952 0
M  V30 1667 H 157.359 0.419336 5.47296 0
M  V30 1668 H 157.62 -0.889275 4.33064 0
M  V30 1669 N 156.679 -1.44442 0.630414 0
M  V30 1670 C 157.609 -2.33418 -0.0618083 0
M  V30 1671 C 158.59 -1.48165 -0.835541 0
M  V30 1672 O 159.775 -1.76886 -0.801564 0
M  V30 1673 C 156.905 -3.31222 -1.04449 0
M  V30 1674 C 155.859 -4.26288 -0.382436 0
M  V30 1675 C 155.185 -5.13954 -1.47497 0
M  V30 1676 C 156.485 -5.1744 0.710865 0
M  V30 1677 H 158.179 -2.91548 0.681184 0
M  V30 1678 H 155.725 -1.40191 0.329026 0
M  V30 1679 H 157.678 -3.92351 -1.53748 0
M  V30 1680 H 156.402 -2.71299 -1.81836 0
M  V30 1681 H 155.061 -3.6649 0.0899054 0
M  V30 1682 H 154.709 -4.50385 -2.2397 0
M  V30 1683 H 154.409 -5.7837 -1.03737 0
M  V30 1684 H 155.933 -5.77955 -1.96979 0
M  V30 1685 H 157.347 -5.72509 0.300996 0
M  V30 1686 H 155.744 -5.90455 1.07156 0
M  V30 1687 H 156.814 -4.58496 1.57829 0
M  V30 1688 N 158.157 -0.370918 -1.53173 0
M  V30 1689 C 159.385 0.217704 -2.05751 0
M  V30 1690 C 159.8 1.42018 -1.24404 0
M  V30 1691 O 159.157 1.80245 -0.286033 0
M  V30 1692 C 159.208 0.605954 -3.56385 0
M  V30 1693 O 158.929 -0.548734 -4.3465 0
M  V30 1694 C 160.43 1.2524 -4.25241 0
M  V30 1695 H 157.65 0.0371659 -0.66997 0
M  V30 1696 H 160.194 -0.530832 -1.9749 0
M  V30 1697 H 158.349 1.3044 -3.6478 0
M  V30 1698 H 158.763 -0.23376 -5.23979 0
M  V30 1699 H 160.237 1.47458 -5.3194 0
M  V30 1700 H 160.714 2.2143 -3.79296 0
M  V30 1701 H 161.32 0.595233 -4.21114 0
M  V30 1702 N 159.635 1.57281 -0.100228 0
M  V30 1703 C 160.881 1.94826 0.563101 0
M  V30 1704 C 161.214 0.982475 1.67514 0
M  V30 1705 O 160.489 0.0164069 1.94493 0
M  V30 1706 C 160.772 3.42453 1.11346 0
M  V30 1707 C 160.625 4.498 0.00612081 0
M  V30 1708 C 161.944 3.91506 2.01024 0
M  V30 1709 H 159.063 0.708428 0.203221 0
M  V30 1710 H 161.705 1.8922 -0.171979 0
M  V30 1711 H 159.855 3.47361 1.7399 0
M  V30 1712 H 161.527 4.57 -0.628357 0
M  V30 1713 H 159.77 4.28756 -0.659581 0
M  V30 1714 H 160.441 5.50306 0.432109 0
M  V30 1715 H 162.917 3.88784 1.48278 0
M  V30 1716 H 161.793 4.95358 2.36457 0
M  V30 1717 H 162.054 3.31099 2.92961 0
M  V30 1718 N 161.113 -0.173488 1.56642 0
M  V30 1719 C 162.061 -1.23417 1.97157 0
M  V30 1720 C 163.055 -1.45946 0.860013 0
M  V30 1721 O 164.261 -1.46551 1.04512 0
M  V30 1722 H 160.636 -0.414818 0.62724 0
M  V30 1723 H 162.607 -0.865582 2.8557 0
M  V30 1724 C 161.356 -2.5665 2.34576 0
M  V30 1725 H 160.679 -2.40137 3.19647 0
M  V30 1726 H 162.119 -3.2956 2.6677 0
M  V30 1727 C 160.578 -3.15245 1.18836 0
M  V30 1728 O 161.108 -3.98883 0.474869 0
M  V30 1729 N 159.314 -2.74303 0.959497 0
M  V30 1730 H 158.861 -2.0639 1.54146 0
M  V30 1731 H 158.819 -3.13844 0.186932 0
M  V30 1732 N 162.591 -1.51276 -0.441967 0
M  V30 1733 C 163.84 -1.6295 -1.18871 0
M  V30 1734 C 164.153 -0.349312 -1.92456 0
M  V30 1735 O 165.359 -0.345355 -2.69295 0
M  V30 1736 C 163.815 -2.87759 -2.16155 0
M  V30 1737 C 163.423 -4.22764 -1.48239 0
M  V30 1738 C 165.167 -3.08788 -2.91291 0
M  V30 1739 C 163.074 -5.38728 -2.4398 0
M  V30 1740 H 162.004 -0.606913 -0.447406 0
M  V30 1741 H 164.655 -1.77739 -0.456205 0
M  V30 1742 H 163.037 -2.66593 -2.92821 0
M  V30 1743 H 164.211 -4.54293 -0.771635 0
M  V30 1744 H 162.526 -4.07575 -0.852741 0
M  V30 1745 H 165.123 -3.92599 -3.63002 0
M  V30 1746 H 165.466 -2.21679 -3.5237 0
M  V30 1747 H 165.999 -3.30272 -2.21733 0
M  V30 1748 H 162.738 -6.28082 -1.87598 0
M  V30 1749 H 162.258 -5.1158 -3.13123 0
M  V30 1750 H 163.937 -5.70489 -3.05207 0
M  V30 1751 N 164.069 0.697108 -1.41344 0
M  V30 1752 C 165.016 1.81106 -1.43071 0
M  V30 1753 C 165.986 1.63632 -0.285275 0
M  V30 1754 O 167.171 1.84504 -0.486091 0
M  V30 1755 C 164.311 3.18975 -1.31715 0
M  V30 1756 C 163.424 3.47892 -2.56115 0
M  V30 1757 C 162.559 4.75367 -2.37064 0
M  V30 1758 C 161.598 4.97247 -3.56948 0
M  V30 1759 N 160.735 6.15947 -3.36977 0
M  V30 1760 H 165.575 1.78965 -2.38276 0
M  V30 1761 H 163.112 0.873975 -1.18322 0
M  V30 1762 H 165.07 3.98615 -1.23133 0
M  V30 1763 H 163.7 3.20297 -0.401183 0
M  V30 1764 H 162.752 2.62669 -2.75153 0
M  V30 1765 H 164.064 3.59962 -3.45295 0
M  V30 1766 H 163.218 5.63059 -2.25941 0
M  V30 1767 H 161.957 4.65541 -1.45338 0
M  V30 1768 H 160.962 4.08004 -3.68527 0
M  V30 1769 H 162.187 5.08934 -4.49626 0
M  V30 1770 H 160.133 6.07336 -2.47949 0
M  V30 1771 H 160.05 6.28777 -4.19732 0
M  V30 1772 H 161.318 7.06377 -3.29623 0
M  V30 1773 N 165.547 1.27147 0.931209 0
M  V30 1774 C 166.795 1.13055 1.6752 0
M  V30 1775 C 167.116 -0.324791 1.92276 0
M  V30 1776 O 166.386 -1.22775 1.52654 0
M  V30 1777 H 164.966 0.415391 0.620854 0
M  V30 1778 H 167.628 1.59623 1.11833 0
M  V30 1779 H 166.724 1.65694 2.64485 0
M  V30 1780 N 167.025 -1.13721 1.09112 0
M  V30 1781 C 167.988 -2.17222 0.731241 0
M  V30 1782 C 168.988 -1.59035 -0.237566 0
M  V30 1783 O 170.178 -1.74192 -0.0161704 0
M  V30 1784 C 167.31 -3.40804 0.0808443 0
M  V30 1785 H 168.503 -2.50573 1.64783 0
M  V30 1786 H 166.056 -1.28493 0.889897 0
M  V30 1787 H 166.791 -3.1304 -0.847127 0
M  V30 1788 H 166.576 -3.84306 0.777896 0
M  V30 1789 H 168.066 -4.1731 -0.155657 0
M  V30 1790 N 168.503 -0.877838 -1.30888 0
M  V30 1791 C 169.749 -0.493426 -1.96706 0
M  V30 1792 C 170.082 0.953504 -1.6918 0
M  V30 1793 O 169.357 1.67266 -0.992594 0
M  V30 1794 C 169.64 -0.760429 -3.51979 0
M  V30 1795 C 169.493 -2.25747 -3.89048 0
M  V30 1796 C 170.812 -0.232148 -4.39487 0
M  V30 1797 H 167.931 -0.180746 -0.714493 0
M  V30 1798 H 170.573 -1.10052 -1.54882 0
M  V30 1799 H 168.723 -0.243715 -3.87735 0
M  V30 1800 H 170.395 -2.84204 -3.63354 0
M  V30 1801 H 168.638 -2.72694 -3.37373 0
M  V30 1802 H 169.309 -2.39491 -4.97341 0
M  V30 1803 H 171.785 -0.674314 -4.106 0
M  V30 1804 H 170.661 -0.448355 -5.47066 0
M  V30 1805 H 170.922 0.866297 -4.33529 0
M  V30 1806 N 169.982 1.44106 -0.638065 0
M  V30 1807 C 170.912 2.33448 0.0494287 0
M  V30 1808 C 171.893 1.48606 0.827672 0
M  V30 1809 O 173.078 1.77308 0.792173 0
M  V30 1810 C 170.208 3.31771 1.02691 0
M  V30 1811 C 169.162 4.26485 0.359823 0
M  V30 1812 C 168.488 5.14729 1.44769 0
M  V30 1813 C 169.788 5.17056 -0.738296 0
M  V30 1814 H 171.482 2.91183 -0.696636 0
M  V30 1815 H 169.028 1.40014 -0.336456 0
M  V30 1816 H 170.981 3.93161 1.51666 0
M  V30 1817 H 169.705 2.7226 1.80395 0
M  V30 1818 H 168.364 3.66437 -0.10934 0
M  V30 1819 H 168.012 4.51566 2.21578 0
M  V30 1820 H 167.712 5.78913 1.00668 0
M  V30 1821 H 169.236 5.78991 1.93911 0
M  V30 1822 H 170.65 5.72342 -0.331354 0
M  V30 1823 H 169.047 5.89879 -1.10286 0
M  V30 1824 H 170.117 4.57652 -1.60258 0
M  V30 1825 N 171.46 0.379036 1.52974 0
M  V30 1826 C 172.423 -0.448865 2.24762 0
M  V30 1827 C 173.423 -0.998689 1.26027 0
M  V30 1828 O 174.613 -0.882313 1.50203 0
M  V30 1829 C 171.745 -1.62872 2.99476 0
M  V30 1830 H 172.938 0.179491 2.99362 0
M  V30 1831 H 170.491 0.13096 1.5575 0
M  V30 1832 H 171.226 -2.29479 2.29151 0
M  V30 1833 H 171.011 -1.24128 3.71934 0
M  V30 1834 H 172.501 -2.2151 3.5401 0
M  V30 1835 N 172.938 -1.57226 0.108567 0
M  V30 1836 C 174.163 -1.99604 -0.563303 0
M  V30 1837 C 174.588 -0.987563 -1.6009 0
M  V30 1838 O 173.946 0.0421687 -1.81251 0
M  V30 1839 C 173.994 -3.40902 -1.17552 0
M  V30 1840 O 173.098 -3.42896 -2.2912 0
M  V30 1841 H 172.439 -0.648704 -0.1417 0
M  V30 1842 H 174.969 -2.03679 0.193961 0
M  V30 1843 H 174.979 -3.78886 -1.51357 0
M  V30 1844 H 173.654 -4.1382 -0.415445 0
M  V30 1845 H 172.231 -3.1672 -1.96832 0
M  V30 1846 N 174.416 0.165178 -1.56732 0
M  V30 1847 C 175.326 1.22423 -2.00125 0
M  V30 1848 C 176.342 1.48084 -0.913619 0
M  V30 1849 O 177.518 1.60112 -1.22172 0
M  V30 1850 C 174.583 2.54197 -2.35764 0
M  V30 1851 C 173.644 2.36343 -3.58386 0
M  V30 1852 C 172.877 3.61834 -3.92316 0
M  V30 1853 O 173.1 4.67267 -3.27135 0
M  V30 1854 O 172.034 3.55579 -4.85641 0
M  V30 1855 H 175.86 0.885886 -2.90492 0
M  V30 1856 H 173.445 0.372518 -1.44681 0
M  V30 1857 H 175.327 3.3192 -2.59629 0
M  V30 1858 H 174.002 2.87598 -1.48557 0
M  V30 1859 H 172.909 1.56632 -3.39731 0
M  V30 1860 H 174.242 2.07865 -4.46154 0
M  V30 1861 N 175.894 1.51508 0.433938 0
M  V30 1862 C 176.826 1.69266 1.54537 0
M  V30 1863 C 177.839 0.573276 1.52373 0
M  V30 1864 O 179.028 0.847698 1.57087 0
M  V30 1865 C 176.128 1.69524 2.93453 0
M  V30 1866 C 175.301 2.98101 3.20085 0
M  V30 1867 C 174.36 2.90502 4.38742 0
M  V30 1868 O 173.386 3.64442 4.3723 0
M  V30 1869 N 174.588 2.06586 5.42496 0
M  V30 1870 H 177.353 2.65145 1.39708 0
M  V30 1871 H 174.914 1.49437 0.622922 0
M  V30 1872 H 176.906 1.62004 3.70859 0
M  V30 1873 H 175.476 0.812245 3.01863 0
M  V30 1874 H 174.696 3.19464 2.30947 0
M  V30 1875 H 175.984 3.83207 3.34708 0
M  V30 1876 H 175.382 1.45896 5.46563 0
M  V30 1877 H 173.939 2.04943 6.18742 0
M  V30 1878 N 177.372 -0.689602 1.41712 0
M  V30 1879 C 178.335 -1.78521 1.43746 0
M  V30 1880 C 179.335 -1.57436 0.327191 0
M  V30 1881 O 180.525 -1.64 0.587348 0
M  V30 1882 C 177.657 -3.16971 1.25467 0
M  V30 1883 H 178.85 -1.78108 2.41283 0
M  V30 1884 H 176.403 -0.89781 1.27942 0
M  V30 1885 H 177.138 -3.23019 0.287948 0
M  V30 1886 H 176.923 -3.33678 2.05917 0
M  V30 1887 H 178.413 -3.96935 1.2974 0
M  V30 1888 N 178.85 -1.27639 -0.924453 0
M  V30 1889 C 179.78 -1.13166 -2.04244 0
M  V30 1890 C 180.761 -0.032256 -1.70069 0
M  V30 1891 O 181.946 -0.207328 -1.9309 0
M  V30 1892 C 179.076 -0.781496 -3.38393 0
M  V30 1893 C 178.03 -1.83449 -3.86692 0
M  V30 1894 C 177.356 -1.33822 -5.17683 0
M  V30 1895 C 178.656 -3.23917 -4.09726 0
M  V30 1896 H 180.35 -2.06689 -2.1661 0
M  V30 1897 H 177.896 -0.995136 -1.04082 0
M  V30 1898 H 179.849 -0.667057 -4.16087 0
M  V30 1899 H 178.573 0.189439 -3.2605 0
M  V30 1900 H 177.232 -1.93789 -3.11193 0
M  V30 1901 H 176.88 -0.35665 -5.01734 0
M  V30 1902 H 176.58 -2.04224 -5.50968 0
M  V30 1903 H 178.104 -1.23679 -5.97943 0
M  V30 1904 H 179.518 -3.16559 -4.77978 0
M  V30 1905 H 177.915 -3.92059 -4.54324 0
M  V30 1906 H 178.985 -3.68729 -3.14908 0
M  V30 1907 N 180.328 1.1314 -1.09713 0
M  V30 1908 C 181.744 1.36477 -0.827423 0
M  V30 1909 C 181.944 1.93654 0.556817 0
M  V30 1910 O 181 2.15791 1.31112 0
M  V30 1911 C 182.313 2.31334 -1.92106 0
M  V30 1912 C 183.861 2.44943 -1.94864 0
M  V30 1913 C 184.336 3.4311 -3.0338 0
M  V30 1914 N 185.827 3.50662 -3.02639 0
M  V30 1915 C 186.562 4.2651 -3.83246 0
M  V30 1916 N 186.058 5.05485 -4.73768 0
M  V30 1917 N 187.851 4.2184 -3.71493 0
M  V30 1918 H 180.002 0.743807 -1.9895 0
M  V30 1919 H 182.265 0.389823 -0.864143 0
M  V30 1920 H 181.971 1.96483 -2.91698 0
M  V30 1921 H 181.845 3.31381 -1.80184 0
M  V30 1922 H 184.232 2.79079 -0.959099 0
M  V30 1923 H 184.313 1.4481 -2.10864 0
M  V30 1924 H 183.957 3.09704 -4.02549 0
M  V30 1925 H 183.887 4.43055 -2.84622 0
M  V30 1926 H 186.378 2.94315 -2.37039 0
M  V30 1927 H 186.691 5.60675 -5.3185 0
M  V30 1928 H 185.036 5.04708 -4.77802 0
M  V30 1929 H 188.227 3.5922 -3.00131 0
M  V30 1930 H 188.4 4.80697 -4.3455 0
M  V30 1931 N 181.806 0.884767 1.30421 0
M  V30 1932 C 182.716 0.355398 2.31892 0
M  V30 1933 C 183.732 -0.542261 1.65335 0
M  V30 1934 O 184.908 -0.435432 1.96637 0
M  V30 1935 C 181.973 -0.421661 3.44126 0
M  V30 1936 C 181.034 0.505727 4.26311 0
M  V30 1937 C 180.267 -0.234343 5.33185 0
M  V30 1938 O 180.49 -1.46045 5.51386 0
M  V30 1939 O 179.424 0.415443 6.00465 0
M  V30 1940 H 183.25 1.19685 2.79122 0
M  V30 1941 H 180.835 0.648596 1.34587 0
M  V30 1942 H 182.717 -0.861641 4.12497 0
M  V30 1943 H 181.392 -1.23942 2.99032 0
M  V30 1944 H 180.299 0.994513 3.60639 0
M  V30 1945 H 181.632 1.28948 4.75009 0
M  V30 1946 N 183.284 -1.43765 0.645699 0
M  V30 1947 C 184.247 -2.29163 -0.0409488 0
M  V30 1948 C 185.247 -1.41813 -0.757996 0
M  V30 1949 O 186.437 -1.63527 -0.600382 0
M  V30 1950 C 183.569 -3.23716 -1.06869 0
M  V30 1951 H 184.762 -2.91366 0.710345 0
M  V30 1952 H 182.315 -1.5092 0.406547 0
M  V30 1953 H 183.05 -2.66393 -1.84947 0
M  V30 1954 H 182.835 -3.88105 -0.558277 0
M  V30 1955 H 184.325 -3.87831 -1.54845 0
M  V30 1956 N 184.763 -0.387143 -1.52771 0
M  V30 1957 C 186.011 0.195349 -2.01154 0
M  V30 1958 C 186.332 1.475 -1.27549 0
M  V30 1959 O 185.602 1.91878 -0.394924 0
M  V30 1960 H 184.182 0.075178 -0.743207 0
M  V30 1961 H 186.844 -0.518337 -1.87881 0
M  V30 1962 H 185.94 0.407096 -3.09434 0
M  V30 1963 N 186.241 1.57166 -0.116904 0
M  V30 1964 C 187.49 1.94298 0.541407 0
M  V30 1965 C 187.803 1.00236 1.67964 0
M  V30 1966 O 189.009 1.26826 2.40057 0
M  V30 1967 C 187.465 3.45306 1.01449 0
M  V30 1968 C 187.073 4.47899 -0.0951738 0
M  V30 1969 C 188.817 3.91361 1.6443 0
M  V30 1970 C 186.724 5.90083 0.394491 0
M  V30 1971 H 185.654 0.725308 0.206019 0
M  V30 1972 H 188.305 1.82446 -0.196419 0
M  V30 1973 H 186.687 3.52385 1.80667 0
M  V30 1974 H 187.861 4.52486 -0.871374 0
M  V30 1975 H 186.176 4.11583 -0.631505 0
M  V30 1976 H 188.773 4.95004 2.02176 0
M  V30 1977 H 189.116 3.3122 2.52189 0
M  V30 1978 H 189.649 3.87073 0.917559 0
M  V30 1979 H 186.388 6.53974 -0.447004 0
M  V30 1980 H 185.908 5.88921 1.13722 0
M  V30 1981 H 187.587 6.41307 0.856399 0
M  V30 1982 N 187.719 -0.156864 1.56817 0
M  V30 1983 C 188.629 -1.2136 2.00771 0
M  V30 1984 C 189.645 -1.47598 0.921459 0
M  V30 1985 O 190.821 -1.59462 1.2302 0
M  V30 1986 C 187.886 -2.52943 2.37109 0
M  V30 1987 C 186.947 -2.34439 3.59634 0
M  V30 1988 C 186.18 -3.59748 3.94229 0
M  V30 1989 O 186.403 -4.65526 3.29609 0
M  V30 1990 O 185.337 -3.52998 4.8752 0
M  V30 1991 H 189.163 -0.870468 2.90958 0
M  V30 1992 H 186.748 -0.36484 1.44877 0
M  V30 1993 H 188.63 -3.30538 2.61386 0
M  V30 1994 H 187.305 -2.86806 1.5008 0
M  V30 1995 H 186.212 -1.54828 3.40557 0
M  V30 1996 H 187.545 -2.05496 4.4725 0
M  V30 1997 N 189.197 -1.51736 -0.425897 0
M  V30 1998 C 190.127 -1.76827 -1.52494 0
M  V30 1999 C 191.108 -0.618524 -1.58456 0
M  V30 2000 O 192.293 -0.862416 -1.74 0
M  V30 2001 C 189.423 -1.90374 -2.90474 0
M  V30 2002 C 188.377 -3.0588 -2.99369 0
M  V30 2003 C 187.703 -3.04625 -4.3944 0
M  V30 2004 C 189.003 -4.45644 -2.72394 0
M  V30 2005 H 190.697 -2.68855 -1.31748 0
M  V30 2006 H 188.243 -1.29372 -0.632362 0
M  V30 2007 H 190.196 -2.0651 -3.6733 0
M  V30 2008 H 188.92 -0.95004 -3.12477 0
M  V30 2009 H 187.579 -2.89467 -2.24954 0
M  V30 2010 H 187.227 -2.0701 -4.58428 0
M  V30 2011 H 186.927 -3.82195 -4.46319 0
M  V30 2012 H 188.451 -3.22869 -5.18255 0
M  V30 2013 H 189.865 -4.62348 -3.38979 0
M  V30 2014 H 188.262 -5.25006 -2.9067 0
M  V30 2015 H 189.332 -4.54893 -1.67929 0
M  V30 2016 N 190.675 0.682077 -1.42076 0
M  V30 2017 C 191.9 1.47558 -1.45744 0
M  V30 2018 C 192.325 1.87977 -0.0680981 0
M  V30 2019 O 191.683 1.55522 0.9318 0
M  V30 2020 C 191.731 2.70575 -2.38373 0
M  V30 2021 O 190.835 3.68573 -1.85007 0
M  V30 2022 H 190.176 0.443585 -0.494093 0
M  V30 2023 H 192.706 0.837238 -1.86686 0
M  V30 2024 H 192.716 3.18729 -2.54707 0
M  V30 2025 H 191.391 2.40495 -3.39315 0
M  V30 2026 H 189.968 3.2757 -1.78192 0
M  V30 2027 N 192.153 1.28127 0.917671 0
M  V30 2028 C 193.43 1.05761 1.64542 0
M  V30 2029 C 193.81 -0.404344 2.07191 0
M  V30 2030 O 193.158 -1.38963 1.81388 0
M  V30 2031 C 193.368 2.02857 2.83989 0
M  V30 2032 C 194.716 2.32786 3.551 0
M  V30 2033 O 195.74 2.0091 2.94132 0
M  V30 2034 O 194.599 2.87169 4.64969 0
M  V30 2035 H 191.693 0.403916 0.721652 0
M  V30 2036 H 194.239 1.39431 0.967322 0
M  V30 2037 H 193.011 3.01407 2.49538 0
M  V30 2038 H 192.634 1.69809 3.59514 0
M  V30 2039 N 193.631 -1.12557 1.10312 0
M  V30 2040 C 194.878 -1.84038 0.844759 0
M  V30 2041 C 195.206 -1.84026 -0.629668 0
M  V30 2042 O 194.461 -1.28026 -1.48013 0
M  V30 2043 C 194.76 -3.31462 1.33669 0
M  V30 2044 C 194.426 -3.51647 2.82232 0
M  V30 2045 C 193.088 -3.56864 3.22802 0
M  V30 2046 C 195.44 -3.58867 3.77974 0
M  V30 2047 C 192.768 -3.66844 4.57867 0
M  V30 2048 C 195.12 -3.70375 5.1284 0
M  V30 2049 C 193.784 -3.73848 5.52986 0
M  V30 2050 H 193.054 -0.673444 0.309119 0
M  V30 2051 H 195.701 -1.32824 1.37949 0
M  V30 2052 H 194.006 -3.85091 0.721949 0
M  V30 2053 H 195.703 -3.85236 1.11329 0
M  V30 2054 H 192.293 -3.48249 2.49842 0
M  V30 2055 H 196.477 -3.54107 3.47738 0
M  V30 2056 H 191.733 -3.67804 4.88396 0
M  V30 2057 H 195.907 -3.74904 5.86873 0
M  V30 2058 H 193.534 -3.81333 6.57639 0
M  V30 2059 N 195.109 -0.891671 -1.2995 0
M  V30 2060 C 196.355 -0.514261 -1.96171 0
M  V30 2061 C 196.688 0.935506 -1.70182 0
M  V30 2062 O 195.963 1.66204 -1.01028 0
M  V30 2063 C 196.246 -0.797719 -3.51153 0
M  V30 2064 C 196.099 -2.2986 -3.86632 0
M  V30 2065 C 197.418 -0.278749 -4.39216 0
M  V30 2066 H 194.537 -0.188314 -0.712535 0
M  V30 2067 H 197.179 -1.11689 -1.53706 0
M  V30 2068 H 195.329 -0.284826 -3.87455 0
M  V30 2069 H 197.001 -2.88042 -3.60319 0
M  V30 2070 H 195.244 -2.76257 -3.34462 0
M  V30 2071 H 195.915 -2.44753 -4.94773 0
M  V30 2072 H 198.391 -0.717825 -4.09862 0
M  V30 2073 H 197.267 -0.506353 -5.46559 0
M  V30 2074 H 197.528 0.820266 -4.34424 0
M  V30 2075 N 196.587 1.43421 -0.653314 0
M  V30 2076 C 198.003 1.56341 -0.320886 0
M  V30 2077 C 198.203 1.63696 1.17499 0
M  V30 2078 O 197.259 1.59208 1.95982 0
M  V30 2079 C 198.572 2.82424 -1.03233 0
M  V30 2080 C 200.12 2.96168 -1.01259 0
M  V30 2081 C 200.595 4.25084 -1.70492 0
M  V30 2082 N 202.086 4.31948 -1.67257 0
M  V30 2083 C 202.821 5.30466 -2.17701 0
M  V30 2084 N 202.317 6.35261 -2.76434 0
M  V30 2085 N 204.11 5.2212 -2.082 0
M  V30 2086 H 196.261 1.3689 -1.62403 0
M  V30 2087 H 198.524 0.657455 -0.682977 0
M  V30 2088 H 198.23 2.83053 -2.08744 0
M  V30 2089 H 198.104 3.72653 -0.583948 0
M  V30 2090 H 200.491 2.9508 0.0341235 0
M  V30 2091 H 200.572 2.07229 -1.49966 0
M  V30 2092 H 200.216 4.26932 -2.7512 0
M  V30 2093 H 200.146 5.1292 -1.19251 0
M  V30 2094 H 202.637 3.56838 -1.24398 0
M  V30 2095 H 202.95 7.06754 -3.12601 0
M  V30 2096 H 201.295 6.35884 -2.80495 0
M  V30 2097 H 204.486 4.39166 -1.62021 0
M  V30 2098 H 204.659 5.98739 -2.47822 0
M  V30 2099 N 198.065 0.39524 1.52563 0
M  V30 2100 C 199.313 -0.184678 2.01254 0
M  V30 2101 C 199.634 -1.46822 1.28329 0
M  V30 2102 O 198.904 -1.91666 0.405094 0
M  V30 2103 H 197.484 -0.0712355 0.743596 0
M  V30 2104 H 200.146 0.528293 1.87603 0
M  V30 2105 H 199.242 -0.390681 3.09645 0
M  V30 2106 N 199.544 -1.57102 0.125237 0
M  V30 2107 C 200.492 -2.16905 -0.839927 0
M  V30 2108 C 201.486 -1.11998 -1.27094 0
M  V30 2109 O 202.692 -1.3029 -1.24195 0
M  V30 2110 H 199.067 -0.694252 -0.288995 0
M  V30 2111 H 201.038 -2.96774 -0.311115 0
M  V30 2112 C 199.787 -2.78795 -2.07771 0
M  V30 2113 H 199.11 -3.59221 -1.755 0
M  V30 2114 H 200.55 -3.2417 -2.73295 0
M  V30 2115 C 199.009 -1.76193 -2.87155 0
M  V30 2116 O 199.539 -1.21909 -3.82755 0
M  V30 2117 N 197.745 -1.45991 -2.51267 0
M  V30 2118 H 197.292 -1.90325 -1.73592 0
M  V30 2119 H 197.25 -0.775844 -3.04677 0
M  V30 2120 N 201.022 0.148545 -1.56898 0
M  V30 2121 C 201.932 1.20293 -2.01412 0
M  V30 2122 C 202.948 1.47107 -0.929273 0
M  V30 2123 O 204.124 1.58807 -1.23863 0
M  V30 2124 C 201.189 2.51682 -2.38447 0
M  V30 2125 C 200.25 2.32529 -3.60872 0
M  V30 2126 C 199.483 3.57653 -3.96132 0
M  V30 2127 O 199.706 4.63771 -3.32073 0
M  V30 2128 O 198.64 3.50408 -4.89385 0
M  V30 2129 H 202.466 0.855025 -2.91416 0
M  V30 2130 H 200.051 0.357151 -1.45068 0
M  V30 2131 H 201.933 3.29147 -2.63135 0
M  V30 2132 H 200.608 2.86006 -1.51599 0
M  V30 2133 H 199.515 1.53019 -3.41373 0
M  V30 2134 H 200.848 2.03121 -4.48333 0
M  V30 2135 N 202.5 1.5196 0.417844 0
M  V30 2136 C 203.447 1.74678 1.50852 0
M  V30 2137 C 204.417 0.588947 1.55308 0
M  V30 2138 O 205.602 0.825544 1.72016 0
M  V30 2139 C 202.742 1.89544 2.88387 0
M  V30 2140 C 201.855 3.17166 2.93309 0
M  V30 2141 C 200.99 3.22513 4.22088 0
M  V30 2142 C 200.029 4.44372 4.20951 0
M  V30 2143 N 199.166 4.47161 5.41287 0
M  V30 2144 H 204.006 2.67768 1.30783 0
M  V30 2145 H 201.543 1.32689 0.63498 0
M  V30 2146 H 203.501 1.96146 3.68216 0
M  V30 2147 H 202.131 0.998424 3.06971 0
M  V30 2148 H 201.183 3.19778 2.06024 0
M  V30 2149 H 202.495 4.07021 2.88332 0
M  V30 2150 H 201.649 3.28139 5.10303 0
M  V30 2151 H 200.388 2.30581 4.29748 0
M  V30 2152 H 199.393 4.38902 3.31127 0
M  V30 2153 H 200.618 5.3759 4.14938 0
M  V30 2154 H 198.564 3.58108 5.49632 0
M  V30 2155 H 198.481 5.3085 5.3827 0
M  V30 2156 H 199.749 4.57005 6.3148 0
M  V30 2157 N 203.978 -0.674533 1.42435 0
M  V30 2158 C 204.941 -1.76986 1.45632 0
M  V30 2159 C 205.941 -1.5708 0.343871 0
M  V30 2160 O 207.131 -1.63367 0.604709 0
M  V30 2161 C 204.263 -3.15623 1.28822 0
M  V30 2162 H 205.456 -1.75539 2.43158 0
M  V30 2163 H 203.009 -0.884189 1.28887 0
M  V30 2164 H 203.744 -3.22696 0.322193 0
M  V30 2165 H 203.529 -3.31475 2.09444 0
M  V30 2166 H 205.019 -3.95537 1.33942 0
M  V30 2167 N 205.456 -1.28612 -0.910864 0
M  V30 2168 C 206.872 -1.06381 -1.18976 0
M  V30 2169 C 207.072 0.191998 -2.00583 0
M  V30 2170 O 206.128 0.892869 -2.36187 0
M  V30 2171 C 207.441 -2.31295 -1.92154 0
M  V30 2172 C 208.989 -2.36503 -2.05025 0
M  V30 2173 C 209.464 -3.61191 -2.81612 0
M  V30 2174 N 210.955 -3.61847 -2.89172 0
M  V30 2175 C 211.69 -4.55004 -3.4894 0
M  V30 2176 N 211.186 -5.58482 -4.09963 0
M  V30 2177 N 212.979 -4.42594 -3.46506 0
M  V30 2178 H 205.13 -2.09221 -0.366094 0
M  V30 2179 H 207.393 -0.921003 -0.224629 0
M  V30 2180 H 207.099 -3.228 -1.39618 0
M  V30 2181 H 206.973 -2.37934 -2.9269 0
M  V30 2182 H 209.36 -1.45494 -2.5674 0
M  V30 2183 H 209.441 -2.33857 -1.03657 0
M  V30 2184 H 209.085 -4.52545 -2.30576 0
M  V30 2185 H 209.015 -3.61092 -3.83302 0
M  V30 2186 H 211.506 -2.87022 -2.45819 0
M  V30 2187 H 211.819 -6.25704 -4.53557 0
M  V30 2188 H 210.164 -5.62305 -4.08459 0
M  V30 2189 H 213.355 -3.60953 -2.98045 0
M  V30 2190 H 213.528 -5.15381 -3.92793 0
M  V30 2191 N 206.934 1.1197 -1.10907 0
M  V30 2192 C 207.844 2.21433 -0.774896 0
M  V30 2193 C 208.86 1.72478 0.229657 0
M  V30 2194 O 210.036 2.01288 0.0672008 0
M  V30 2195 C 207.101 3.4602 -0.216986 0
M  V30 2196 C 206.162 4.09791 -1.27944 0
M  V30 2197 C 205.395 5.28431 -0.748055 0
M  V30 2198 O 205.618 5.68823 0.423833 0
M  V30 2199 O 204.552 5.82644 -1.51027 0
M  V30 2200 H 208.378 2.5242 -1.68873 0
M  V30 2201 H 205.963 1.20399 -0.884555 0
M  V30 2202 H 207.845 4.21304 0.090059 0
M  V30 2203 H 206.52 3.16698 0.669633 0
M  V30 2204 H 205.427 3.36265 -1.63941 0
M  V30 2205 H 206.76 4.4328 -2.13925 0
M  V30 2206 N 208.412 0.89855 1.29475 0
M  V30 2207 C 209.828 0.594483 1.48115 0
M  V30 2208 C 210.028 -0.86431 1.82022 0
M  V30 2209 O 209.084 -1.64457 1.91599 0
M  V30 2210 C 210.397 1.51932 2.59494 0
M  V30 2211 C 211.945 1.5244 2.7337 0
M  V30 2212 C 212.42 2.43548 3.87877 0
M  V30 2213 N 213.911 2.41589 3.95208 0
M  V30 2214 C 214.646 3.08789 4.83153 0
M  V30 2215 N 214.142 3.85265 5.75798 0
M  V30 2216 N 215.935 2.97952 4.76635 0
M  V30 2217 H 208.086 1.84207 1.05742 0
M  V30 2218 H 210.349 0.789251 0.525154 0
M  V30 2219 H 210.055 2.55865 2.41301 0
M  V30 2220 H 209.929 1.23899 3.56271 0
M  V30 2221 H 212.316 0.492518 2.90961 0
M  V30 2222 H 212.397 1.8451 1.77172 0
M  V30 2223 H 212.041 3.46829 3.71041 0
M  V30 2224 H 211.971 2.08788 4.83441 0
M  V30 2225 H 214.462 1.86025 3.28943 0
M  V30 2226 H 214.775 4.33598 6.39697 0
M  V30 2227 H 213.12 3.89371 5.75687 0
M  V30 2228 H 216.311 2.37723 4.03244 0
M  V30 2229 H 216.484 3.50599 5.44962 0
M  V30 2230 N 209.89 -1.43072 0.660911 0
M  V30 2231 C 210.823 -2.28074 -0.0758862 0
M  V30 2232 C 211.801 -1.40271 -0.822362 0
M  V30 2233 O 212.985 -1.69713 -0.820352 0
M  V30 2234 C 210.112 -3.19843 -1.11437 0
M  V30 2235 C 209.158 -4.23957 -0.465069 0
M  V30 2236 S 209.991 -5.29978 0.767078 0
M  V30 2237 C 211.147 -6.25314 -0.270682 0
M  V30 2238 H 211.38 -2.90216 0.645139 0
M  V30 2239 H 208.913 -1.47697 0.449995 0
M  V30 2240 H 210.871 -3.73257 -1.70849 0
M  V30 2241 H 209.532 -2.56863 -1.80776 0
M  V30 2242 H 208.725 -4.88299 -1.24819 0
M  V30 2243 H 208.327 -3.73959 0.0551242 0
M  V30 2244 H 210.619 -6.67932 -1.13459 0
M  V30 2245 H 211.562 -7.07293 0.337916 0
M  V30 2246 H 211.97 -5.61195 -0.609937 0
M  V30 2247 N 211.368 -0.403325 -1.52352 0
M  V30 2248 C 212.315 0.425011 -2.26853 0
M  V30 2249 C 213.285 1.04598 -1.29029 0
M  V30 2250 O 214.47 1.07135 -1.57882 0
M  V30 2251 C 211.61 1.53888 -3.08889 0
M  V30 2252 C 210.723 0.939396 -4.21663 0
M  V30 2253 C 209.858 2.02547 -4.91068 0
M  V30 2254 C 208.897 1.40263 -5.95813 0
M  V30 2255 N 208.034 2.4286 -6.58759 0
M  V30 2256 H 212.874 -0.21674 -2.97211 0
M  V30 2257 H 210.411 -0.118722 -1.4662 0
M  V30 2258 H 212.369 2.19558 -3.54753 0
M  V30 2259 H 210.999 2.15074 -2.40714 0
M  V30 2260 H 210.051 0.171898 -3.80011 0
M  V30 2261 H 211.363 0.44436 -4.96817 0
M  V30 2262 H 210.517 2.75958 -5.40308 0
M  V30 2263 H 209.256 2.55415 -4.15469 0
M  V30 2264 H 208.261 0.653833 -5.45898 0
M  V30 2265 H 209.486 0.881719 -6.73352 0
M  V30 2266 H 207.432 2.94871 -5.85992 0
M  V30 2267 H 207.349 1.98152 -7.2957 0
M  V30 2268 H 208.617 3.15858 -7.12639 0
M  V30 2269 N 212.846 1.57033 -0.133567 0
M  V30 2270 C 213.809 2.14897 0.796995 0
M  V30 2271 C 214.809 1.0874 1.18458 0
M  V30 2272 O 215.999 1.34446 1.1077 0
M  V30 2273 C 213.131 2.70112 2.07973 0
M  V30 2274 H 214.324 2.98457 0.293873 0
M  V30 2275 H 211.877 1.55871 0.115787 0
M  V30 2276 H 212.612 1.9018 2.62682 0
M  V30 2277 H 212.397 3.47764 1.81115 0
M  V30 2278 H 213.887 3.14738 2.74462 0
M  V30 2279 N 214.325 -0.140222 1.56975 0
M  V30 2280 C 215.257 -1.19818 1.95388 0
M  V30 2281 C 216.27 -1.38816 0.850525 0
M  V30 2282 O 217.459 -1.38267 1.12891 0
M  V30 2283 C 214.559 -2.56189 2.21857 0
M  V30 2284 C 213.732 -2.58077 3.5315 0
M  V30 2285 C 212.791 -3.76037 3.6808 0
M  V30 2286 O 211.817 -3.60598 4.40406 0
M  V30 2287 N 213.019 -4.93763 3.05251 0
M  V30 2288 H 215.784 -0.871609 2.86746 0
M  V30 2289 H 213.345 -0.32972 1.58507 0
M  V30 2290 H 215.337 -3.33623 2.2908 0
M  V30 2291 H 213.907 -2.81111 1.36731 0
M  V30 2292 H 213.127 -1.6651 3.57307 0
M  V30 2293 H 214.415 -2.56377 4.39486 0
M  V30 2294 H 213.813 -5.09209 2.46419 0
M  V30 2295 H 212.37 -5.68949 3.18026 0
M  V30 2296 N 215.803 -1.52179 -0.40978 0
M  V30 2297 C 217.033 -1.69807 -1.17682 0
M  V30 2298 C 217.441 -0.406908 -1.84773 0
M  V30 2299 O 216.784 0.626863 -1.72673 0
M  V30 2300 C 216.846 -2.77712 -2.2829 0
M  V30 2301 C 216.51 -4.19481 -1.81341 0
M  V30 2302 C 217.507 -5.03345 -1.30154 0
M  V30 2303 C 215.192 -4.65713 -1.88194 0
M  V30 2304 C 217.186 -6.31511 -0.864416 0
M  V30 2305 C 214.873 -5.93869 -1.44093 0
M  V30 2306 C 215.871 -6.76597 -0.933023 0
M  V30 2307 O 215.559 -8.02354 -0.49838 0
M  V30 2308 H 215.291 -0.572372 -0.359675 0
M  V30 2309 H 217.845 -1.99511 -0.488311 0
M  V30 2310 H 216.075 -2.43383 -3.00502 0
M  V30 2311 H 217.764 -2.83946 -2.90051 0
M  V30 2312 H 218.53 -4.68819 -1.24232 0
M  V30 2313 H 214.409 -4.01424 -2.26671 0
M  V30 2314 H 217.953 -6.96033 -0.467286 0
M  V30 2315 H 213.85 -6.27903 -1.49694 0
M  V30 2316 H 214.618 -8.16135 -0.621747 0
M  V30 2317 N 217.281 0.66697 -1.42791 0
M  V30 2318 C 218.506 1.46004 -1.47301 0
M  V30 2319 C 218.931 1.87894 -0.0880317 0
M  V30 2320 O 218.289 1.56502 0.915253 0
M  V30 2321 C 218.337 2.68031 -2.41229 0
M  V30 2322 O 217.441 3.6659 -1.88906 0
M  V30 2323 H 216.782 0.43832 -0.49877 0
M  V30 2324 H 219.312 0.817391 -1.87563 0
M  V30 2325 H 219.322 3.1601 -2.58073 0
M  V30 2326 H 217.997 2.36883 -3.41847 0
M  V30 2327 H 216.574 3.25661 -1.81656 0
M  V30 2328 N 218.759 1.29093 0.90403 0
M  V30 2329 C 220.008 1.16187 1.64874 0
M  V30 2330 C 220.321 -0.286742 1.93487 0
M  V30 2331 O 221.527 -0.537062 2.66135 0
M  V30 2332 C 219.983 2.03177 2.97064 0
M  V30 2333 C 219.591 3.52836 2.76062 0
M  V30 2334 C 221.335 1.98984 3.74974 0
M  V30 2335 C 219.242 4.31945 4.03952 0
M  V30 2336 H 218.172 0.431246 0.618501 0
M  V30 2337 H 220.823 1.53699 1.00243 0
M  V30 2338 H 219.205 1.5853 3.62883 0
M  V30 2339 H 220.379 4.05507 2.18863 0
M  V30 2340 H 218.694 3.58656 2.11553 0
M  V30 2341 H 221.291 2.55351 4.69787 0
M  V30 2342 H 221.634 0.968815 4.0487 0
M  V30 2343 H 222.167 2.41652 3.15989 0
M  V30 2344 H 218.906 5.34667 3.79225 0
M  V30 2345 H 218.426 3.84045 4.60727 0
M  V30 2346 H 220.105 4.42379 4.72133 0
M  V30 2347 N 220.237 -1.11381 1.11499 0
M  V30 2348 C 221.2 -2.15622 0.777153 0
M  V30 2349 C 222.2 -1.59504 -0.203779 0
M  V30 2350 O 223.39 -1.74188 0.020782 0
M  V30 2351 C 220.522 -3.40556 0.153116 0
M  V30 2352 H 221.715 -2.47021 1.70061 0
M  V30 2353 H 219.268 -1.26577 0.916952 0
M  V30 2354 H 220.003 -3.14767 -0.780536 0
M  V30 2355 H 219.788 -3.8257 0.859238 0
M  V30 2356 H 221.278 -4.17546 -0.0671044 0
M  V30 2357 N 221.715 -0.905404 -1.28997 0
M  V30 2358 C 222.963 -0.533192 -1.9494 0
M  V30 2359 C 223.284 0.924618 -1.71685 0
M  V30 2360 O 222.554 1.65268 -1.05183 0
M  V30 2361 H 221.134 -0.194194 -0.721317 0
M  V30 2362 H 223.796 -1.15294 -1.57141 0
M  V30 2363 H 222.892 -0.72059 -3.03667 0
M  V30 2364 N 223.193 1.4272 -0.668489 0
M  V30 2365 C 224.126 2.28111 0.0637898 0
M  V30 2366 C 225.104 1.40705 0.814912 0
M  V30 2367 O 226.288 1.70146 0.81134 0
M  V30 2368 C 223.415 3.20429 1.0974 0
M  V30 2369 C 222.461 4.24197 0.442579 0
M  V30 2370 S 223.294 5.29563 -0.795173 0
M  V30 2371 C 224.45 6.25449 0.237516 0
M  V30 2372 H 224.683 2.8987 -0.660521 0
M  V30 2373 H 222.216 1.47456 -0.457821 0
M  V30 2374 H 224.174 3.74158 1.68868 0
M  V30 2375 H 222.835 2.57818 1.79411 0
M  V30 2376 H 222.028 4.88954 1.22227 0
M  V30 2377 H 221.63 3.73925 -0.0749554 0
M  V30 2378 H 223.922 6.68524 1.09915 0
M  V30 2379 H 224.865 7.07104 -0.375421 0
M  V30 2380 H 225.273 5.61511 0.580167 0
M  V30 2381 N 224.671 0.411399 1.52136 0
M  V30 2382 C 225.899 -0.163076 2.06256 0
M  V30 2383 C 226.314 -1.3867 1.28125 0
M  V30 2384 O 225.671 -1.79423 0.333721 0
M  V30 2385 C 225.722 -0.511252 3.57867 0
M  V30 2386 O 225.443 0.66378 4.33042 0
M  V30 2387 C 226.944 -1.13921 4.28412 0
M  V30 2388 H 224.164 -0.0193897 0.67072 0
M  V30 2389 H 226.708 0.583007 1.96013 0
M  V30 2390 H 224.863 -1.20723 3.6811 0
M  V30 2391 H 225.277 0.372601 5.23175 0
M  V30 2392 H 226.751 -1.33302 5.35663 0
M  V30 2393 H 227.228 -2.11296 3.85033 0
M  V30 2394 H 227.834 -0.483373 4.22544 0
M  V30 2395 N 226.149 -1.5696 0.141893 0
M  V30 2396 C 227.374 -2.00754 -0.520838 0
M  V30 2397 C 227.799 -1.0213 -1.57959 0
M  V30 2398 O 227.157 0.00371324 -1.813 0
M  V30 2399 C 227.205 -3.43318 -1.10294 0
M  V30 2400 O 226.309 -3.47679 -2.21795 0
M  V30 2401 H 225.65 -0.651564 -0.127908 0
M  V30 2402 H 228.18 -2.03221 0.23712 0
M  V30 2403 H 228.19 -3.82012 -1.43287 0
M  V30 2404 H 226.865 -4.14608 -0.327574 0
M  V30 2405 H 225.442 -3.20824 -1.9007 0
M  V30 2406 N 227.627 0.131896 -1.57047 0
M  V30 2407 C 228.875 0.840269 -1.83804 0
M  V30 2408 C 229.196 1.81017 -0.72512 0
M  V30 2409 O 228.466 1.94272 0.251995 0
M  V30 2410 H 227.046 0.313294 -0.678127 0
M  V30 2411 H 229.708 0.122294 -1.94516 0
M  V30 2412 H 228.804 1.39335 -2.79271 0
M  V30 2413 N 229.106 1.52395 0.401703 0
M  V30 2414 C 230.352 1.67065 1.14966 0
M  V30 2415 C 230.685 0.403052 1.89971 0
M  V30 2416 O 229.96 -0.598774 1.85054 0
M  V30 2417 C 230.243 2.8975 2.13815 0
M  V30 2418 C 230.096 4.26578 1.42658 0
M  V30 2419 C 231.415 3.07965 3.14397 0
M  V30 2420 H 228.534 0.607968 0.416587 0
M  V30 2421 H 231.176 1.84965 0.434511 0
M  V30 2422 H 229.326 2.74619 2.74803 0
M  V30 2423 H 230.998 4.53451 0.847329 0
M  V30 2424 H 229.241 4.27639 0.72849 0
M  V30 2425 H 229.912 5.08483 2.14823 0
M  V30 2426 H 232.388 3.22043 2.63491 0
M  V30 2427 H 231.264 3.95308 3.80819 0
M  V30 2428 H 231.525 2.21611 3.82545 0
M  V30 2429 N 230.584 -0.659388 1.43143 0
M  V30 2430 C 231.83 -1.42145 1.44647 0
M  V30 2431 C 232.163 -1.9408 0.0681907 0
M  V30 2432 O 231.438 -1.71899 -0.910007 0
M  V30 2433 C 231.721 -2.60735 2.48373 0
M  V30 2434 C 231.574 -2.14332 3.95451 0
M  V30 2435 C 232.893 -3.62951 2.48906 0
M  V30 2436 H 230.012 -0.51552 0.526696 0
M  V30 2437 H 232.654 -0.748069 1.74654 0
M  V30 2438 H 230.804 -3.18184 2.22916 0
M  V30 2439 H 232.476 -1.61932 4.31944 0
M  V30 2440 H 230.719 -1.4576 4.08578 0
M  V30 2441 H 231.39 -2.99583 4.63631 0
M  V30 2442 H 233.866 -3.1525 2.71582 0
M  V30 2443 H 232.742 -4.43487 3.23435 0
M  V30 2444 H 233.003 -4.15126 1.52061 0
M  V30 2445 N 232.062 -1.29571 -0.897171 0
M  V30 2446 C 233.308 -1.17863 -1.65034 0
M  V30 2447 C 233.641 0.268729 -1.92332 0
M  V30 2448 O 232.916 1.19378 -1.53555 0
M  V30 2449 C 233.199 -1.995 -2.99786 0
M  V30 2450 C 233.052 -3.5239 -2.79538 0
M  V30 2451 C 234.371 -1.82335 -4.00552 0
M  V30 2452 H 231.49 -0.429528 -0.598895 0
M  V30 2453 H 234.132 -1.59072 -1.03905 0
M  V30 2454 H 232.282 -1.64485 -3.51962 0
M  V30 2455 H 233.954 -3.97401 -2.34244 0
M  V30 2456 H 232.197 -3.77187 -2.14273 0
M  V30 2457 H 232.868 -4.04787 -3.75302 0
M  V30 2458 H 235.344 -2.12924 -3.57495 0
M  V30 2459 H 234.22 -2.41801 -4.92771 0
M  V30 2460 H 234.481 -0.779209 -4.35179 0
M  V30 2461 N 233.54 1.10788 -1.12088 0
M  V30 2462 C 234.788 1.8231 -0.872205 0
M  V30 2463 C 235.109 1.85419 0.603709 0
M  V30 2464 O 234.379 1.32963 1.43867 0
M  V30 2465 H 232.959 0.675137 -0.319686 0
M  V30 2466 H 235.621 1.34068 -1.41463 0
M  V30 2467 H 234.717 2.85955 -1.25045 0
M  V30 2468 N 235.018 0.912232 1.28515 0
M  V30 2469 C 236.246 0.560416 1.99166 0
M  V30 2470 C 236.661 -0.857927 1.68182 0
M  V30 2471 O 236.018 -1.56805 0.933733 0
M  V30 2472 C 236.069 0.758142 3.53461 0
M  V30 2473 O 235.79 2.12067 3.83352 0
M  V30 2474 C 237.291 0.412954 4.41372 0
M  V30 2475 H 234.511 0.213805 0.636026 0
M  V30 2476 H 237.055 1.22502 1.63749 0
M  V30 2477 H 235.21 0.140556 3.87145 0
M  V30 2478 H 235.624 2.15923 4.77993 0
M  V30 2479 H 237.098 0.60208 5.48707 0
M  V30 2480 H 237.575 -0.65073 4.34353 0
M  V30 2481 H 238.181 1.00802 4.13182 0
M  V30 2482 N 236.496 -1.42363 0.676048 0
M  V30 2483 C 237.773 -1.95183 0.127726 0
M  V30 2484 C 238.153 -1.61641 -1.35777 0
M  V30 2485 O 237.501 -0.913216 -2.09458 0
M  V30 2486 C 237.711 -3.46721 0.398199 0
M  V30 2487 C 239.059 -4.23427 0.315383 0
M  V30 2488 O 240.083 -3.54649 0.332016 0
M  V30 2489 O 238.942 -5.45888 0.25865 0
M  V30 2490 H 236.036 -0.826992 0.00359427 0
M  V30 2491 H 238.582 -1.52184 0.750864 0
M  V30 2492 H 237.354 -3.64344 1.4272 0
M  V30 2493 H 236.977 -3.96769 -0.256885 0
M  V30 2494 N 237.974 -0.419461 -1.51915 0
M  V30 2495 C 238.924 0.418496 -2.24126 0
M  V30 2496 C 239.908 1.00495 -1.25656 0
M  V30 2497 O 241.1 0.926058 -1.50842 0
M  V30 2498 C 238.229 1.52899 -3.07371 0
M  V30 2499 C 237.315 0.952797 -4.13258 0
M  V30 2500 N 237.706 0.104175 -5.05693 0
M  V30 2501 C 236.004 1.22224 -4.28926 0
M  V30 2502 C 236.705 -0.21752 -5.81293 0
M  V30 2503 N 235.681 0.394293 -5.42168 0
M  V30 2504 H 239.483 -0.236048 -2.92951 0
M  V30 2505 H 236.997 -0.230481 -1.60756 0
M  V30 2506 H 238.994 2.14199 -3.57665 0
M  V30 2507 H 237.654 2.18605 -2.40088 0
M  V30 2508 H 238.665 -0.260924 -5.17242 0
M  V30 2509 H 235.342 1.87812 -3.72871 0
M  V30 2510 H 236.732 -0.906992 -6.6575 0
M  V30 2511 N 239.452 1.56882 -0.150215 0
M  V30 2512 C 240.415 2.1573 0.774157 0
M  V30 2513 C 241.415 1.0999 1.17298 0
M  V30 2514 O 242.605 1.35613 1.09338 0
M  V30 2515 C 239.737 2.72302 2.05096 0
M  V30 2516 H 240.93 2.98752 0.262201 0
M  V30 2517 H 238.483 1.55985 0.099248 0
M  V30 2518 H 239.218 1.92956 2.6065 0
M  V30 2519 H 239.003 3.49665 1.77416 0
M  V30 2520 H 240.493 3.17632 2.71109 0
M  V30 2521 N 240.93 -0.123565 1.57115 0
M  V30 2522 C 241.893 -1.13583 1.99076 0
M  V30 2523 C 242.893 -1.34564 0.880296 0
M  V30 2524 O 244.083 -1.31158 1.14644 0
M  V30 2525 C 241.215 -2.49128 2.32698 0
M  V30 2526 H 242.408 -0.775287 2.89706 0
M  V30 2527 H 239.961 -0.36771 1.51913 0
M  V30 2528 H 240.696 -2.90111 1.44934 0
M  V30 2529 H 240.481 -2.35255 3.13684 0
M  V30 2530 H 241.971 -3.2199 2.65918 0
M  V30 2531 N 242.408 -1.52605 -0.393616 0
M  V30 2532 C 243.318 -1.79971 -1.50492 0
M  V30 2533 C 244.334 -0.686181 -1.59899 0
M  V30 2534 O 245.51 -0.973274 -1.76322 0
M  V30 2535 C 242.575 -1.95867 -2.86072 0
M  V30 2536 C 241.636 -3.19781 -2.86424 0
M  V30 2537 C 240.869 -3.34909 -4.15538 0
M  V30 2538 O 241.092 -2.54948 -5.10253 0
M  V30 2539 O 240.026 -4.28141 -4.23059 0
M  V30 2540 H 243.852 -2.74328 -1.30299 0
M  V30 2541 H 241.437 -1.3764 -0.581005 0
M  V30 2542 H 243.319 -2.08056 -3.66457 0
M  V30 2543 H 241.994 -1.04699 -3.063 0
M  V30 2544 H 240.901 -3.13038 -2.04837 0
M  V30 2545 H 242.234 -4.1078 -2.71147 0
M  V30 2546 N 243.887 0.651787 -1.4349 0
M  V30 2547 C 244.85 1.74647 -1.48429 0
M  V30 2548 C 245.85 1.56513 -0.368817 0
M  V30 2549 O 247.04 1.62385 -0.630623 0
M  V30 2550 C 244.172 3.13533 -1.33827 0
M  V30 2551 H 245.365 1.71649 -2.4592 0
M  V30 2552 H 242.918 0.863573 -1.30277 0
M  V30 2553 H 243.653 3.22142 -0.37349 0
M  V30 2554 H 243.438 3.28101 -2.14691 0
M  V30 2555 H 244.928 3.93356 -1.40218 0
M  V30 2556 N 245.365 1.30045 0.890287 0
M  V30 2557 C 246.614 1.17929 1.63633 0
M  V30 2558 C 246.927 -0.266204 1.9378 0
M  V30 2559 O 248.133 -0.508804 2.6669 0
M  V30 2560 C 246.589 2.06317 2.94892 0
M  V30 2561 C 246.197 3.55745 2.72305 0
M  V30 2562 C 247.941 2.0295 3.72843 0
M  V30 2563 C 245.848 4.36205 3.99348 0
M  V30 2564 H 244.778 0.437782 0.613892 0
M  V30 2565 H 247.429 1.54754 0.986075 0
M  V30 2566 H 245.811 1.6237 3.61182 0
M  V30 2567 H 246.985 4.07805 2.1455 0
M  V30 2568 H 245.3 3.6088 2.07737 0
M  V30 2569 H 247.897 2.60319 4.67053 0
M  V30 2570 H 248.24 1.0117 4.0382 0
M  V30 2571 H 248.773 2.4499 3.13408 0
M  V30 2572 H 245.512 5.38659 3.73533 0
M  V30 2573 H 245.032 3.8891 4.56628 0
M  V30 2574 H 246.711 4.47362 4.67415 0
M  V30 2575 N 246.843 -1.10192 1.12674 0
M  V30 2576 C 248.071 -1.85983 0.906527 0
M  V30 2577 C 248.486 -1.80783 -0.544333 0
M  V30 2578 O 247.843 -1.19834 -1.37645 0
M  V30 2579 C 247.894 -3.34281 1.37618 0
M  V30 2580 O 247.615 -3.39401 2.77017 0
M  V30 2581 C 249.116 -4.26938 1.19325 0
M  V30 2582 H 246.336 -0.587716 0.323775 0
M  V30 2583 H 248.88 -1.39284 1.49734 0
M  V30 2584 H 247.035 -3.78436 0.828539 0
M  V30 2585 H 247.449 -4.31838 2.97684 0
M  V30 2586 H 248.923 -5.29181 1.57071 0
M  V30 2587 H 249.4 -4.38995 0.134097 0
M  V30 2588 H 250.006 -3.8859 1.72852 0
M  V30 2589 N 248.321 -0.919034 -1.28029 0
M  V30 2590 C 249.569 -0.553838 -1.94363 0
M  V30 2591 C 249.89 0.906357 -1.72656 0
M  V30 2592 O 249.16 1.64143 -1.0693 0
M  V30 2593 H 247.74 -0.201834 -0.719216 0
M  V30 2594 H 250.402 -1.16954 -1.55909 0
M  V30 2595 H 249.498 -0.752758 -3.02886 0
M  V30 2596 N 249.799 1.42003 -0.683588 0
M  V30 2597 C 251.046 2.01413 -0.209514 0
M  V30 2598 C 251.374 1.54088 1.1869 0
M  V30 2599 O 250.629 0.737591 1.81268 0
M  V30 2600 C 250.928 3.56827 -0.202357 0
M  V30 2601 C 250.594 4.23617 -1.54464 0
M  V30 2602 C 249.256 4.41577 -1.91215 0
M  V30 2603 C 251.608 4.61178 -2.42826 0
M  V30 2604 C 248.936 4.9437 -3.15935 0
M  V30 2605 C 251.288 5.15355 -3.66867 0
M  V30 2606 C 249.952 5.31528 -4.03776 0
M  V30 2607 H 249.222 0.737023 -0.0766668 0
M  V30 2608 H 251.869 1.70067 -0.880312 0
M  V30 2609 H 250.174 3.87892 0.551969 0
M  V30 2610 H 251.871 4.00588 0.181793 0
M  V30 2611 H 248.461 4.10004 -1.24877 0
M  V30 2612 H 252.645 4.46968 -2.15717 0
M  V30 2613 H 247.901 5.05076 -3.44541 0
M  V30 2614 H 252.075 5.43402 -4.35531 0
M  V30 2615 H 249.702 5.72199 -5.00492 0
M  V30 2616 N 251.277 0.427512 1.51691 0
M  V30 2617 C 252.524 -0.142229 2.02 0
M  V30 2618 C 252.852 -1.43566 1.31221 0
M  V30 2619 O 252.107 -1.91298 0.412744 0
M  V30 2620 C 252.406 -0.418249 3.54944 0
M  V30 2621 C 252.072 0.788187 4.43958 0
M  V30 2622 C 250.734 1.11906 4.68007 0
M  V30 2623 C 253.086 1.59347 4.96244 0
M  V30 2624 C 250.414 2.25608 5.41588 0
M  V30 2625 C 252.766 2.7214 5.71072 0
M  V30 2626 C 251.43 3.05692 5.93387 0
M  V30 2627 H 250.7 -0.0520451 0.73917 0
M  V30 2628 H 253.347 0.572697 1.82736 0
M  V30 2629 H 251.652 -1.21496 3.72486 0
M  V30 2630 H 253.349 -0.872339 3.91397 0
M  V30 2631 H 249.939 0.520344 4.2543 0
M  V30 2632 H 254.123 1.35106 4.77556 0
M  V30 2633 H 249.379 2.51929 5.57083 0
M  V30 2634 H 253.553 3.34914 6.10578 0
M  V30 2635 H 251.18 3.9391 6.50184 0
M  V30 2636 N 252.755 -1.56801 0.158532 0
M  V30 2637 C 253.983 -2.00859 -0.496303 0
M  V30 2638 C 254.398 -1.03871 -1.57659 0
M  V30 2639 O 253.755 -0.0375165 -1.82461 0
M  V30 2640 C 253.806 -3.4479 -1.08638 0
M  V30 2641 O 253.527 -4.38072 -0.0492322 0
M  V30 2642 C 255.028 -4.04185 -1.8207 0
M  V30 2643 H 252.248 -0.65864 -0.128199 0
M  V30 2644 H 254.792 -2.02885 0.256506 0
M  V30 2645 H 252.947 -3.43579 -1.78975 0
M  V30 2646 H 253.361 -5.2227 -0.483102 0
M  V30 2647 H 254.835 -5.06857 -2.18633 0
M  V30 2648 H 255.312 -3.45549 -2.71095 0
M  V30 2649 H 255.918 -4.0906 -1.16405 0
M  V30 2650 N 254.233 0.115231 -1.57178 0
M  V30 2651 C 255.18 1.14115 -2.00615 0
M  V30 2652 C 256.15 1.40939 -0.878941 0
M  V30 2653 O 257.335 1.52741 -1.14345 0
M  V30 2654 C 254.475 2.46156 -2.4187 0
M  V30 2655 C 253.588 2.26236 -3.68024 0
M  V30 2656 C 252.723 3.51534 -3.98243 0
M  V30 2657 C 251.762 3.26787 -5.17568 0
M  V30 2658 N 250.899 4.44298 -5.43639 0
M  V30 2659 H 255.739 0.763743 -2.88047 0
M  V30 2660 H 253.276 0.365615 -1.42484 0
M  V30 2661 H 255.234 3.23189 -2.63827 0
M  V30 2662 H 253.864 2.81783 -1.57475 0
M  V30 2663 H 252.916 1.40102 -3.5366 0
M  V30 2664 H 254.228 2.03929 -4.55208 0
M  V30 2665 H 253.382 4.36984 -4.20868 0
M  V30 2666 H 252.121 3.76876 -3.09541 0
M  V30 2667 H 251.126 2.39729 -4.94783 0
M  V30 2668 H 252.351 3.02812 -6.0785 0
M  V30 2669 H 250.297 4.69754 -4.57895 0
M  V30 2670 H 250.214 4.25109 -6.25154 0
M  V30 2671 H 251.482 5.3087 -5.70786 0
M  V30 2672 N 255.711 1.52812 0.385517 0
M  V30 2673 C 256.941 1.71658 1.14966 0
M  V30 2674 C 257.349 0.436253 1.84102 0
M  V30 2675 O 256.692 -0.599313 1.73649 0
M  V30 2676 C 256.754 2.81309 2.23843 0
M  V30 2677 C 256.418 4.22313 1.74644 0
M  V30 2678 C 257.415 5.05352 1.22129 0
M  V30 2679 C 255.1 4.68648 1.80761 0
M  V30 2680 C 257.094 6.32807 0.763838 0
M  V30 2681 C 254.781 5.96086 1.34627 0
M  V30 2682 C 255.779 6.77996 0.825264 0
M  V30 2683 O 255.467 8.03045 0.370669 0
M  V30 2684 H 255.199 0.578022 0.350523 0
M  V30 2685 H 257.753 2.00263 0.456509 0
M  V30 2686 H 255.983 2.48133 2.96592 0
M  V30 2687 H 257.672 2.88524 2.85497 0
M  V30 2688 H 258.438 4.70736 1.16758 0
M  V30 2689 H 254.317 4.04979 2.20256 0
M  V30 2690 H 257.861 6.96689 0.356494 0
M  V30 2691 H 253.758 6.30205 1.39686 0
M  V30 2692 H 254.526 8.17021 0.491829 0
M  V30 2693 N 257.189 -0.644168 1.43834 0
M  V30 2694 C 258.437 -1.40117 1.45642 0
M  V30 2695 C 258.758 -1.94814 0.0852413 0
M  V30 2696 O 258.028 -1.74988 -0.880688 0
M  V30 2697 H 256.608 -0.52005 0.536243 0
M  V30 2698 H 259.27 -0.7591 1.7951 0
M  V30 2699 H 258.366 -2.23902 2.17427 0
M  V30 2700 N 258.668 -1.30515 -0.883378 0
M  V30 2701 C 259.945 -1.10086 -1.6168 0
M  V30 2702 C 260.325 0.349269 -2.08191 0
M  V30 2703 O 259.673 1.34105 -1.85008 0
M  V30 2704 C 259.883 -2.10315 -2.78511 0
M  V30 2705 C 261.231 -2.42119 -3.48803 0
M  V30 2706 O 262.255 -2.08638 -2.88702 0
M  V30 2707 O 261.114 -2.99396 -4.57192 0
M  V30 2708 H 258.208 -0.422907 -0.710689 0
M  V30 2709 H 260.754 -1.41947 -0.930015 0
M  V30 2710 H 259.526 -3.07917 -2.41459 0
M  V30 2711 H 259.149 -1.79282 -3.54886 0
M  V30 2712 N 260.146 1.09593 -1.13257 0
M  V30 2713 C 261.394 1.81375 -0.891492 0
M  V30 2714 C 261.715 1.86049 0.584009 0
M  V30 2715 O 260.985 1.34481 1.42449 0
M  V30 2716 H 259.565 0.671708 -0.326828 0
M  V30 2717 H 262.227 1.3256 -1.42877 0
M  V30 2718 H 261.323 2.84612 -1.28071 0
M  V30 2719 N 261.624 0.925811 1.2754 0
M  V30 2720 C 262.872 0.564138 1.94067 0
M  V30 2721 C 263.193 -0.897188 1.73134 0
M  V30 2722 O 262.463 -1.63573 1.07799 0
M  V30 2723 H 261.043 0.205645 0.718136 0
M  V30 2724 H 263.705 1.1778 1.55287 0
M  V30 2725 H 262.801 0.76881 3.02483 0
M  V30 2726 N 263.102 -1.41638 0.69111 0
M  V30 2727 C 264.33 -2.05628 0.22909 0
M  V30 2728 C 264.745 -1.51992 -1.11999 0
M  V30 2729 O 264.102 -0.666322 -1.69901 0
M  V30 2730 C 264.153 -3.61084 0.173283 0
M  V30 2731 O 263.874 -4.12735 1.46907 0
M  V30 2732 C 265.375 -4.42213 -0.310266 0
M  V30 2733 H 262.595 -0.662327 0.107534 0
M  V30 2734 H 265.139 -1.81489 0.942438 0
M  V30 2735 H 263.294 -3.84278 -0.490858 0
M  V30 2736 H 263.708 -5.06743 1.35322 0
M  V30 2737 H 265.182 -5.51194 -0.298196 0
M  V30 2738 H 265.659 -4.1799 -1.34838 0
M  V30 2739 H 266.265 -4.24074 0.322716 0
M  V30 2740 N 264.58 -0.43555 -1.51462 0
M  V30 2741 C 265.857 0.191364 -1.94662 0
M  V30 2742 C 266.237 1.60254 -1.37411 0
M  V30 2743 O 265.585 2.2152 -0.560458 0
M  V30 2744 C 265.795 0.17091 -3.48581 0
M  V30 2745 C 267.143 0.377357 -4.2292 0
M  V30 2746 O 268.167 0.249104 -3.55328 0
M  V30 2747 O 267.026 0.63247 -5.42828 0
M  V30 2748 H 264.12 0.130932 -0.816569 0
M  V30 2749 H 266.666 -0.4934 -1.62369 0
M  V30 2750 H 265.438 -0.815738 -3.82703 0
M  V30 2751 H 265.061 0.898659 -3.87311 0
M  V30 2752 N 266.058 1.56714 -0.166846 0
M  V30 2753 C 267.307 1.95922 0.479318 0
M  V30 2754 C 267.62 1.05529 1.6469 0
M  V30 2755 O 268.826 1.34399 2.35901 0
M  V30 2756 C 267.282 3.48359 0.90412 0
M  V30 2757 C 266.89 4.47369 -0.237621 0
M  V30 2758 C 268.634 3.96394 1.51896 0
M  V30 2759 C 266.541 5.91039 0.206561 0
M  V30 2760 H 265.471 0.731495 0.18284 0
M  V30 2761 H 268.122 1.81728 -0.254363 0
M  V30 2762 H 266.504 3.57955 1.69365 0
M  V30 2763 H 267.678 4.49485 -1.01489 0
M  V30 2764 H 265.993 4.09366 -0.762128 0
M  V30 2765 H 268.59 5.01186 1.86325 0
M  V30 2766 H 268.933 3.39075 2.41524 0
M  V30 2767 H 269.466 3.89796 0.79395 0
M  V30 2768 H 266.205 6.52221 -0.654834 0
M  V30 2769 H 265.725 5.9224 0.949282 0
M  V30 2770 H 267.404 6.43707 0.651939 0
M  V30 2771 N 267.536 -0.106894 1.57237 0
M  V30 2772 C 268.484 -1.14944 2.02215 0
M  V30 2773 C 269.478 -1.42167 0.92114 0
M  V30 2774 O 270.684 -1.41987 1.10634 0
M  V30 2775 H 267.059 -0.387841 0.64427 0
M  V30 2776 H 269.03 -0.743683 2.88984 0
M  V30 2777 C 267.779 -2.4647 2.4525 0
M  V30 2778 H 267.102 -2.26363 3.29545 0
M  V30 2779 H 268.542 -3.17948 2.80508 0
M  V30 2780 C 267.001 -3.09921 1.321 0
M  V30 2781 O 267.531 -3.9651 0.643622 0
M  V30 2782 N 265.737 -2.69986 1.07497 0
M  V30 2783 H 265.284 -1.99667 1.62761 0
M  V30 2784 H 265.242 -3.12769 0.319876 0
M  V30 2785 N 269.014 -1.53014 -0.377408 0
M  V30 2786 C 270.425 -1.60438 -0.954798 0
M  V30 2787 C 270.776 -0.464418 -1.90624 0
M  V30 2788 O 269.901 0.41087 -2.12464 0
M  V30 2789 C 270.496 -2.90797 -1.73847 0
M  V30 2790 C 269.055 -3.00595 -2.26538 0
M  V30 2791 C 268.202 -2.55645 -1.07429 0
M  V30 2792 H 271.153 -1.57926 -0.156575 0
M  V30 2793 H 271.174 -2.77935 -2.5987 0
M  V30 2794 H 270.686 -3.73746 -1.04574 0
M  V30 2795 H 268.787 -2.22208 -2.99089 0
M  V30 2796 H 268.9 -4.05456 -2.5523 0
M  V30 2797 H 267.264 -2.10239 -1.43777 0
M  V30 2798 H 268.047 -3.41 -0.396728 0
M  V30 2799 N 270.492 0.636531 -1.44174 0
M  V30 2800 C 271.422 1.76003 -1.53444 0
M  V30 2801 C 272.403 1.65619 -0.387841 0
M  V30 2802 O 273.588 1.84461 -0.607257 0
M  V30 2803 C 270.718 3.14511 -1.4731 0
M  V30 2804 C 269.672 3.39677 -2.60391 0
M  V30 2805 C 268.998 4.78159 -2.39308 0
M  V30 2806 C 270.298 3.32772 -4.02567 0
M  V30 2807 H 271.992 1.68501 -2.47483 0
M  V30 2808 H 269.538 0.809237 -1.19111 0
M  V30 2809 H 271.491 3.92878 -1.52397 0
M  V30 2810 H 270.215 3.22783 -0.49785 0
M  V30 2811 H 268.874 2.63688 -2.54684 0
M  V30 2812 H 268.522 4.83128 -1.39988 0
M  V30 2813 H 268.222 4.95956 -3.15122 0
M  V30 2814 H 269.746 5.58762 -2.46205 0
M  V30 2815 H 271.16 4.01051 -4.09672 0
M  V30 2816 H 269.557 3.62104 -4.7854 0
M  V30 2817 H 270.627 2.30669 -4.2652 0
M  V30 2818 N 271.97 1.30982 0.876444 0
M  V30 2819 C 273.2 1.23063 1.65949 0
M  V30 2820 C 273.608 -0.207537 1.88058 0
M  V30 2821 O 272.951 -1.14781 1.43426 0
M  V30 2822 C 273.013 1.89768 3.05333 0
M  V30 2823 C 272.677 3.39106 3.0636 0
M  V30 2824 C 273.674 4.3496 2.84791 0
M  V30 2825 C 271.359 3.80693 3.27686 0
M  V30 2826 C 273.353 5.70375 2.84519 0
M  V30 2827 C 271.04 5.16223 3.27043 0
M  V30 2828 C 272.038 6.10875 3.05485 0
M  V30 2829 O 271.726 7.43928 3.04674 0
M  V30 2830 H 271.458 0.426685 0.524324 0
M  V30 2831 H 274.012 1.7329 1.10271 0
M  V30 2832 H 272.242 1.34082 3.6271 0
M  V30 2833 H 273.931 1.75853 3.65829 0
M  V30 2834 H 274.697 4.0416 2.68103 0
M  V30 2835 H 270.576 3.07457 3.43499 0
M  V30 2836 H 274.12 6.44228 2.67611 0
M  V30 2837 H 270.017 5.4666 3.43269 0
M  V30 2838 H 270.785 7.53022 3.2078 0
M  V30 2839 N 273.449 -1.08991 1.13837 0
M  V30 2840 C 274.865 -1.33312 0.877506 0
M  V30 2841 C 275.065 -1.95587 -0.48456 0
M  V30 2842 O 274.121 -2.20509 -1.23013 0
M  V30 2843 C 275.434 -2.24045 2.0056 0
M  V30 2844 C 276.982 -2.37542 2.03821 0
M  V30 2845 C 277.457 -3.31614 3.15905 0
M  V30 2846 N 278.948 -3.39189 3.15445 0
M  V30 2847 C 279.683 -4.11992 3.98811 0
M  V30 2848 N 279.179 -4.87553 4.92203 0
M  V30 2849 N 280.972 -4.07762 3.86894 0
M  V30 2850 H 273.123 -0.669456 2.01574 0
M  V30 2851 H 275.386 -0.357482 0.878015 0
M  V30 2852 H 275.092 -1.85521 2.98789 0
M  V30 2853 H 274.966 -3.24466 1.92359 0
M  V30 2854 H 277.353 -2.75327 1.06202 0
M  V30 2855 H 277.434 -1.36884 2.16093 0
M  V30 2856 H 277.078 -2.94551 4.13766 0
M  V30 2857 H 277.008 -4.32186 3.0087 0
M  V30 2858 H 279.499 -2.85314 2.47799 0
M  V30 2859 H 279.812 -5.40549 5.52292 0
M  V30 2860 H 278.157 -4.86627 4.96205 0
M  V30 2861 H 281.348 -3.47833 3.13257 0
M  V30 2862 H 281.521 -4.64238 4.52092 0
M  V30 2863 N 274.927 -0.932562 -1.27047 0
M  V30 2864 C 275.857 -0.452902 -2.29066 0
M  V30 2865 C 276.838 0.489338 -1.62909 0
M  V30 2866 O 278.023 0.393046 -1.90181 0
M  V30 2867 C 275.153 0.290698 -3.46081 0
M  V30 2868 C 274.107 -0.564168 -4.24265 0
M  V30 2869 C 273.433 0.308886 -5.33807 0
M  V30 2870 C 274.733 -1.83112 -4.89149 0
M  V30 2871 H 276.427 -1.30552 -2.69437 0
M  V30 2872 H 273.973 -0.629201 -1.29526 0
M  V30 2873 H 275.926 0.637233 -4.16554 0
M  V30 2874 H 274.65 1.17738 -3.0464 0
M  V30 2875 H 273.309 -0.893477 -3.55545 0
M  V30 2876 H 272.957 1.19467 -4.88607 0
M  V30 2877 H 272.657 -0.259633 -5.87026 0
M  V30 2878 H 274.181 0.650884 -6.07121 0
M  V30 2879 H 275.595 -1.55236 -5.51883 0
M  V30 2880 H 273.992 -2.34353 -5.52448 0
M  V30 2881 H 275.062 -2.54772 -4.12576 0
M  V30 2882 N 276.405 1.4127 -0.698611 0
M  V30 2883 C 277.353 2.32588 -0.023855 0
M  V30 2884 C 278.347 1.51128 0.765292 0
M  V30 2885 O 279.553 1.67043 0.670571 0
M  V30 2886 H 275.928 0.751918 0.0110871 0
M  V30 2887 H 277.899 2.87167 -0.811031 0
M  V30 2888 C 276.648 3.35947 0.896369 0
M  V30 2889 H 275.971 3.98684 0.298548 0
M  V30 2890 H 277.411 4.02376 1.33676 0
M  V30 2891 C 275.87 2.70076 2.01396 0
M  V30 2892 O 276.4 2.55093 3.10307 0
M  V30 2893 N 274.606 2.28724 1.79259 0
M  V30 2894 H 274.153 2.4111 0.906841 0
M  V30 2895 H 274.111 1.84986 2.54219 0
M  V30 2896 N 277.883 0.443576 1.51229 0
M  V30 2897 C 278.83 -0.364716 2.279 0
M  V30 2898 C 279.8 -1.0114 1.31757 0
M  V30 2899 O 280.985 -1.02912 1.60667 0
M  V30 2900 C 278.125 -1.45644 3.12861 0
M  V30 2901 C 277.238 -0.827269 4.24005 0
M  V30 2902 C 276.373 -1.89456 4.96266 0
M  V30 2903 C 275.412 -1.24416 5.99322 0
M  V30 2904 N 274.549 -2.25309 6.64966 0
M  V30 2905 H 279.389 0.295464 2.96532 0
M  V30 2906 H 276.926 0.157554 1.46254 0
M  V30 2907 H 278.884 -2.10076 3.6045 0
M  V30 2908 H 277.514 -2.08616 2.46331 0
M  V30 2909 H 276.566 -0.0710839 3.80334 0
M  V30 2910 H 277.878 -0.312481 4.9782 0
M  V30 2911 H 277.032 -2.61535 5.47434 0
M  V30 2912 H 275.771 -2.4431 4.22095 0
M  V30 2913 H 274.776 -0.508868 5.4744 0
M  V30 2914 H 276.001 -0.702882 6.75453 0
M  V30 2915 H 273.947 -2.79231 5.93604 0
M  V30 2916 H 273.864 -1.78739 7.34567 0
M  V30 2917 H 275.132 -2.96853 7.20763 0
M  V30 2918 N 279.361 -1.56624 0.175154 0
M  V30 2919 C 280.777 -1.58571 -0.180966 0
M  V30 2920 C 280.977 -1.19065 -1.6256 0
M  V30 2921 O 280.033 -0.904044 -2.35761 0
M  V30 2922 C 281.346 -3.00522 0.103326 0
M  V30 2923 C 282.894 -3.12972 0.0418426 0
M  V30 2924 C 283.369 -4.57022 0.299175 0
M  V30 2925 N 284.86 -4.62541 0.247086 0
M  V30 2926 C 285.595 -5.71857 0.420318 0
M  V30 2927 N 285.091 -6.89717 0.652816 0
M  V30 2928 N 286.884 -5.60972 0.355957 0
M  V30 2929 H 279.035 -1.80589 1.11809 0
M  V30 2930 H 281.298 -0.837178 0.444788 0
M  V30 2931 H 281.004 -3.33916 1.10422 0
M  V30 2932 H 280.878 -3.72344 -0.603299 0
M  V30 2933 H 283.265 -2.79403 -0.949636 0
M  V30 2934 H 283.346 -2.43578 0.781238 0
M  V30 2935 H 282.99 -4.913 1.28788 0
M  V30 2936 H 282.92 -5.24579 -0.460876 0
M  V30 2937 H 285.411 -3.77829 0.0731895 0
M  V30 2938 H 285.724 -7.68911 0.774347 0
M  V30 2939 H 284.069 -6.91572 0.689476 0
M  V30 2940 H 287.26 -4.67773 0.174882 0
M  V30 2941 H 287.433 -6.46111 0.494388 0
M  V30 2942 N 280.839 0.0985539 -1.57292 0
M  V30 2943 C 281.771 1.14595 -1.98496 0
M  V30 2944 C 282.784 1.36512 -0.887031 0
M  V30 2945 O 283.973 1.35225 -1.16518 0
M  V30 2946 C 281.073 2.50216 -2.28572 0
M  V30 2947 C 280.246 2.48624 -3.59868 0
M  V30 2948 C 279.305 3.66146 -3.7792 0
M  V30 2949 O 278.331 3.48795 -4.49812 0
M  V30 2950 N 279.533 4.85496 -3.18235 0
M  V30 2951 H 282.298 0.795277 -2.88956 0
M  V30 2952 H 279.859 0.287579 -1.59325 0
M  V30 2953 H 281.851 3.27432 -2.37845 0
M  V30 2954 H 280.421 2.77387 -1.44136 0
M  V30 2955 H 279.641 1.56978 -3.61596 0
M  V30 2956 H 280.929 2.44635 -4.46129 0
M  V30 2957 H 280.327 5.02497 -2.59833 0
M  V30 2958 H 278.884 5.60317 -3.32999 0
M  V30 2959 N 282.317 1.53212 0.369288 0
M  V30 2960 C 283.565 1.68881 1.11012 0
M  V30 2961 C 283.886 0.441285 1.89941 0
M  V30 2962 O 283.156 -0.544623 1.88177 0
M  V30 2963 H 281.736 0.622569 0.412816 0
M  V30 2964 H 284.398 1.90391 0.416802 0
M  V30 2965 H 283.494 2.54822 1.80201 0
M  V30 2966 N 283.795 -0.628877 1.44509 0
M  V30 2967 C 284.742 -1.74074 1.51549 0
M  V30 2968 C 285.712 -1.62084 0.363021 0
M  V30 2969 O 286.897 -1.81975 0.573567 0
M  V30 2970 C 284.037 -3.12328 1.46784 0
M  V30 2971 C 283.15 -3.35277 2.72422 0
M  V30 2972 C 282.285 -4.63515 2.59475 0
M  V30 2973 C 281.324 -4.7965 3.80266 0
M  V30 2974 N 280.461 -5.99168 3.65981 0
M  V30 2975 H 285.301 -1.67392 2.46544 0
M  V30 2976 H 282.838 -0.816527 1.22357 0
M  V30 2977 H 284.796 -3.92286 1.42012 0
M  V30 2978 H 283.426 -3.18018 0.553544 0
M  V30 2979 H 282.478 -2.49242 2.87372 0
M  V30 2980 H 283.79 -3.43078 3.62076 0
M  V30 2981 H 282.944 -5.51638 2.52548 0
M  V30 2982 H 281.683 -4.58076 1.67384 0
M  V30 2983 H 280.688 -3.89957 3.87574 0
M  V30 2984 H 281.913 -4.86902 4.73395 0
M  V30 2985 H 279.859 -5.94814 2.76644 0
M  V30 2986 H 279.776 -6.08035 4.49254 0
M  V30 2987 H 281.044 -6.89846 3.6295 0
M  V30 2988 N 285.273 -1.31445 -0.869486 0
M  V30 2989 C 286.205 -1.14955 -1.98287 0
M  V30 2990 C 287.218 -0.0885037 -1.62559 0
M  V30 2991 O 288.407 -0.336044 -1.75308 0
M  V30 2992 C 285.507 -0.734255 -3.3085 0
M  V30 2993 C 284.68 -1.88042 -3.94917 0
M  V30 2994 C 283.739 -1.4511 -5.05796 0
M  V30 2995 O 282.765 -2.16082 -5.2659 0
M  V30 2996 N 283.967 -0.338763 -5.79511 0
M  V30 2997 H 286.732 -2.10856 -2.12979 0
M  V30 2998 H 284.293 -1.23786 -1.04349 0
M  V30 2999 H 286.285 -0.42975 -4.02412 0
M  V30 3000 H 284.855 0.133158 -3.12316 0
M  V30 3001 H 284.075 -2.35222 -3.1633 0
M  V30 3002 H 285.363 -2.6481 -4.34457 0
M  V30 3003 H 284.761 0.252274 -5.65137 0
M  V30 3004 H 283.318 -0.0937925 -6.51733 0
M  V30 3005 N 286.751 1.08385 -1.14413 0
M  V30 3006 C 287.681 2.17321 -0.854044 0
M  V30 3007 C 288.662 1.69024 0.191049 0
M  V30 3008 O 289.847 1.94141 0.0476779 0
M  V30 3009 C 286.977 3.45719 -0.330983 0
M  V30 3010 C 285.931 4.07409 -1.31155 0
M  V30 3011 C 285.257 5.30762 -0.64778 0
M  V30 3012 C 286.557 4.48665 -2.67388 0
M  V30 3013 H 288.251 2.41845 -1.76498 0
M  V30 3014 H 285.797 1.16233 -0.850051 0
M  V30 3015 H 287.75 4.21241 -0.115645 0
M  V30 3016 H 286.474 3.2075 0.615381 0
M  V30 3017 H 285.133 3.33919 -1.51306 0
M  V30 3018 H 284.781 5.02078 0.304398 0
M  V30 3019 H 284.481 5.72992 -1.30207 0
M  V30 3020 H 286.005 6.08998 -0.441972 0
M  V30 3021 H 287.419 5.15364 -2.51143 0
M  V30 3022 H 285.816 5.01814 -3.29093 0
M  V30 3023 H 286.886 3.60543 -3.24248 0
M  V30 3024 N 288.23 0.939286 1.26551 0
M  V30 3025 C 289.16 0.465044 2.28822 0
M  V30 3026 C 290.141 -0.480692 1.63167 0
M  V30 3027 O 291.326 -0.382955 1.90387 0
M  V30 3028 C 288.456 -0.27234 3.46231 0
M  V30 3029 C 287.41 0.58666 4.2396 0
M  V30 3030 C 286.736 -0.280573 5.33963 0
M  V30 3031 C 288.036 1.85704 4.88171 0
M  V30 3032 H 289.73 1.31979 2.68741 0
M  V30 3033 H 287.276 0.636061 1.29191 0
M  V30 3034 H 289.229 -0.615133 4.16886 0
M  V30 3035 H 287.953 -1.16121 3.0526 0
M  V30 3036 H 286.612 0.91232 3.55067 0
M  V30 3037 H 286.26 -1.16874 4.89234 0
M  V30 3038 H 285.96 0.29076 5.8688 0
M  V30 3039 H 287.484 -0.618678 6.07458 0
M  V30 3040 H 288.898 1.58161 5.51052 0
M  V30 3041 H 287.295 2.37279 5.51197 0
M  V30 3042 H 288.365 2.56957 4.11219 0
M  V30 3043 N 289.708 -1.40897 0.706093 0
M  V30 3044 C 290.671 -2.29131 0.0562841 0
M  V30 3045 C 291.671 -1.44901 -0.697166 0
M  V30 3046 O 292.861 -1.65926 -0.530484 0
M  V30 3047 C 289.993 -3.27957 -0.93043 0
M  V30 3048 H 291.186 -2.88091 0.833284 0
M  V30 3049 H 288.739 -1.4906 0.470192 0
M  V30 3050 H 289.474 -2.73997 -1.73482 0
M  V30 3051 H 289.259 -3.90124 -0.393166 0
M  V30 3052 H 290.749 -3.94049 -1.38256 0
M  V30 3053 N 291.186 -0.45159 -1.50991 0
M  V30 3054 C 292.149 0.341117 -2.26647 0
M  V30 3055 C 293.149 0.937422 -1.30649 0
M  V30 3056 O 294.339 0.809644 -1.54241 0
M  V30 3057 C 291.471 1.48398 -3.06905 0
M  V30 3058 H 292.664 -0.322117 -2.98165 0
M  V30 3059 H 290.217 -0.205122 -1.54948 0
M  V30 3060 H 290.952 2.18284 -2.39838 0
M  V30 3061 H 290.737 1.06241 -3.77432 0
M  V30 3062 H 292.227 2.04367 -3.64176 0
M  V30 3063 N 292.664 1.56529 -0.183458 0
M  V30 3064 C 293.594 2.21549 0.737456 0
M  V30 3065 C 294.575 1.17489 1.23005 0
M  V30 3066 O 295.76 1.45959 1.281 0
M  V30 3067 C 292.89 2.86575 1.96194 0
M  V30 3068 C 291.844 3.96778 1.60473 0
M  V30 3069 C 291.17 4.48911 2.90487 0
M  V30 3070 C 292.47 5.15767 0.823497 0
M  V30 3071 H 294.164 2.98761 0.195453 0
M  V30 3072 H 291.71 1.43702 0.0925686 0
M  V30 3073 H 293.663 3.30739 2.61131 0
M  V30 3074 H 292.387 2.06749 2.52828 0
M  V30 3075 H 291.046 3.53286 0.978997 0
M  V30 3076 H 290.694 3.65862 3.45186 0
M  V30 3077 H 290.394 5.23265 2.67335 0
M  V30 3078 H 291.918 4.95771 3.56432 0
M  V30 3079 H 293.332 5.56549 1.37571 0
M  V30 3080 H 291.729 5.96114 0.690551 0
M  V30 3081 H 292.799 4.84574 -0.177782 0
M  V30 3082 N 294.142 -0.090211 1.57342 0
M  V30 3083 C 295.105 -1.09335 2.01441 0
M  V30 3084 C 296.105 -1.32666 0.908641 0
M  V30 3085 O 297.295 -1.28697 1.174 0
M  V30 3086 C 294.427 -2.44136 2.3793 0
M  V30 3087 H 295.62 -0.713662 2.91285 0
M  V30 3088 H 293.173 -0.335404 1.52659 0
M  V30 3089 H 293.908 -2.86972 1.51055 0
M  V30 3090 H 293.693 -2.28548 3.18603 0
M  V30 3091 H 295.183 -3.16277 2.72688 0
M  V30 3092 N 295.62 -1.53406 -0.361157 0
M  V30 3093 C 296.86 -1.71507 -1.11197 0
M  V30 3094 C 297.224 -0.459337 -1.86425 0
M  V30 3095 O 298.425 -0.517102 -2.63779 0
M  V30 3096 C 296.696 -2.93307 -2.0422 0
M  V30 3097 S 298.255 -3.32135 -2.86761 0
M  V30 3098 H 295.073 -0.603448 -0.375995 0
M  V30 3099 H 297.675 -1.91516 -0.392642 0
M  V30 3100 H 296.379 -3.82891 -1.47724 0
M  V30 3101 H 295.91 -2.75712 -2.80618 0
M  V30 3102 H 297.925 -2.84493 -4.06544 0
M  V30 3103 N 297.098 0.621204 -1.44841 0
M  V30 3104 C 298.509 1.20298 -1.42777 0
M  V30 3105 C 298.86 1.95639 -0.148259 0
M  V30 3106 O 297.985 2.02955 0.750892 0
M  V30 3107 C 298.58 2.1882 -2.58657 0
M  V30 3108 C 297.139 2.72403 -2.59756 0
M  V30 3109 C 296.286 1.4757 -2.34773 0
M  V30 3110 H 299.237 0.411297 -1.53278 0
M  V30 3111 H 299.258 3.01607 -2.31977 0
M  V30 3112 H 298.77 1.63957 -3.51766 0
M  V30 3113 H 296.871 3.31242 -1.70615 0
M  V30 3114 H 296.984 3.17765 -3.58556 0
M  V30 3115 H 295.348 1.76051 -1.8406 0
M  V30 3116 H 296.131 0.945954 -3.3001 0
M  V30 3117 N 298.576 1.31904 0.862503 0
M  V30 3118 C 299.486 1.22161 2.00285 0
M  V30 3119 C 300.502 0.136785 1.73462 0
M  V30 3120 O 301.678 0.355994 1.98229 0
M  V30 3121 C 298.743 0.937093 3.33796 0
M  V30 3122 C 297.804 2.10957 3.73893 0
M  V30 3123 C 297.037 1.83853 5.01033 0
M  V30 3124 O 297.26 0.777274 5.65079 0
M  V30 3125 O 296.194 2.69741 5.38074 0
M  V30 3126 H 300.02 2.18008 2.11439 0
M  V30 3127 H 297.605 1.11716 0.991957 0
M  V30 3128 H 299.487 0.794583 4.13841 0
M  V30 3129 H 298.162 0.00871894 3.23699 0
M  V30 3130 H 297.069 2.30752 2.94456 0
M  V30 3131 H 298.402 3.02046 3.88625 0
M  V30 3132 N 300.054 -1.07777 1.14986 0
M  V30 3133 C 301.004 -2.13082 0.811181 0
M  V30 3134 C 301.988 -1.59619 -0.202597 0
M  V30 3135 O 303.18 -1.77 -0.00398275 0
M  V30 3136 C 300.309 -3.42009 0.297439 0
M  V30 3137 C 299.395 -4.02337 1.34112 0
M  V30 3138 N 299.786 -4.36982 2.54716 0
M  V30 3139 C 298.084 -4.29752 1.19285 0
M  V30 3140 C 298.785 -4.84729 3.21578 0
M  V30 3141 N 297.761 -4.83233 2.48972 0
M  V30 3142 H 301.563 -2.37696 1.72853 0
M  V30 3143 H 299.077 -1.25173 1.03468 0
M  V30 3144 H 301.074 -4.16884 0.0364777 0
M  V30 3145 H 299.734 -3.18841 -0.614022 0
M  V30 3146 H 300.745 -4.27807 2.91894 0
M  V30 3147 H 297.422 -4.16106 0.340926 0
M  V30 3148 H 298.812 -5.20863 4.24442 0
M  V30 3149 N 301.532 -0.945985 -1.26051 0
M  V30 3150 C 302.462 -0.477172 -2.28572 0
M  V30 3151 C 303.443 0.472032 -1.63419 0
M  V30 3152 O 304.628 0.372853 -1.90587 0
M  V30 3153 C 301.758 0.253975 -3.4637 0
M  V30 3154 C 300.712 -0.609135 -4.23643 0
M  V30 3155 C 300.038 0.252252 -5.34105 0
M  V30 3156 C 301.338 -1.8829 -4.8718 0
M  V30 3157 H 303.032 -1.33402 -2.68038 0
M  V30 3158 H 300.578 -0.642904 -1.28852 0
M  V30 3159 H 302.531 0.593016 -4.17207 0
M  V30 3160 H 301.255 1.145 -3.05871 0
M  V30 3161 H 299.914 -0.931138 -3.54578 0
M  V30 3162 H 299.562 1.14278 -4.89846 0
M  V30 3163 H 299.262 -0.32188 -5.86718 0
M  V30 3164 H 300.786 0.586454 -6.07777 0
M  V30 3165 H 302.2 -1.61081 -5.50205 0
M  V30 3166 H 300.597 -2.40199 -5.49931 0
M  V30 3167 H 301.667 -2.59134 -4.09851 0
M  V30 3168 N 303.011 1.40521 -0.713556 0
M  V30 3169 C 304.241 2.0494 -0.261395 0
M  V30 3170 C 304.649 1.53861 1.10107 0
M  V30 3171 O 303.992 0.689321 1.70276 0
M  V30 3172 C 304.054 3.59138 -0.161227 0
M  V30 3173 C 303.718 4.33096 -1.45865 0
M  V30 3174 C 304.715 4.61182 -2.40016 0
M  V30 3175 C 302.4 4.72043 -1.71701 0
M  V30 3176 C 304.394 5.27196 -3.58251 0
M  V30 3177 C 302.081 5.37789 -2.90218 0
M  V30 3178 C 303.079 5.65295 -3.83315 0
M  V30 3179 O 302.767 6.29683 -4.99754 0
M  V30 3180 H 302.499 0.666041 -0.115608 0
M  V30 3181 H 305.053 1.80954 -0.971849 0
M  V30 3182 H 303.283 3.81936 0.605153 0
M  V30 3183 H 304.972 4.05091 0.256105 0
M  V30 3184 H 305.738 4.31559 -2.21318 0
M  V30 3185 H 301.617 4.50003 -1.00092 0
M  V30 3186 H 305.161 5.48582 -4.30934 0
M  V30 3187 H 301.058 5.66831 -3.08825 0
M  V30 3188 H 301.826 6.4818 -4.99805 0
M  V30 3189 N 304.489 0.459591 1.5075 0
M  V30 3190 C 305.436 -0.340524 2.28274 0
M  V30 3191 C 306.406 -0.997371 1.32822 0
M  V30 3192 O 307.591 -1.01202 1.61749 0
M  V30 3193 C 304.731 -1.42317 3.14388 0
M  V30 3194 C 303.844 -0.782251 4.24859 0
M  V30 3195 C 302.979 -1.84182 4.98247 0
M  V30 3196 C 302.018 -1.18053 6.00608 0
M  V30 3197 N 301.155 -2.18244 6.67319 0
M  V30 3198 H 305.995 0.326899 2.96202 0
M  V30 3199 H 303.532 0.173057 1.46078 0
M  V30 3200 H 305.49 -2.06241 3.62658 0
M  V30 3201 H 304.12 -2.05992 2.4853 0
M  V30 3202 H 303.172 -0.0307404 3.80388 0
M  V30 3203 H 304.484 -0.259663 4.98124 0
M  V30 3204 H 303.638 -2.55714 5.50177 0
M  V30 3205 H 302.377 -2.39819 4.24662 0
M  V30 3206 H 301.382 -0.450776 5.47949 0
M  V30 3207 H 302.607 -0.631202 6.7616 0
M  V30 3208 H 300.553 -2.72919 5.96533 0
M  V30 3209 H 300.47 -1.70938 7.36421 0
M  V30 3210 H 301.738 -2.89191 7.23871 0
M  V30 3211 N 305.967 -1.56429 0.191757 0
M  V30 3212 C 306.914 -2.18936 -0.730454 0
M  V30 3213 C 307.884 -1.13557 -1.21219 0
M  V30 3214 O 309.069 -1.41794 -1.27668 0
M  V30 3215 C 306.209 -2.85013 -1.9458 0
M  V30 3216 C 305.322 -4.04909 -1.50574 0
M  V30 3217 C 304.457 -4.58853 -2.67634 0
M  V30 3218 C 303.496 -5.71114 -2.20217 0
M  V30 3219 N 302.633 -6.19478 -3.30442 0
M  V30 3220 H 307.473 -2.97389 -0.190664 0
M  V30 3221 H 305.01 -1.46869 -0.0823694 0
M  V30 3222 H 306.968 -3.21492 -2.65893 0
M  V30 3223 H 305.598 -2.09129 -2.45896 0
M  V30 3224 H 304.65 -3.74115 -0.688605 0
M  V30 3225 H 305.962 -4.86113 -1.11784 0
M  V30 3226 H 305.116 -4.97619 -3.47074 0
M  V30 3227 H 303.855 -3.76749 -3.09696 0
M  V30 3228 H 302.86 -5.31879 -1.3923 0
M  V30 3229 H 304.085 -6.55033 -1.79189 0
M  V30 3230 H 302.031 -5.40297 -3.72041 0
M  V30 3231 H 301.948 -6.95725 -2.9581 0
M  V30 3232 H 303.216 -6.62898 -4.10106 0
M  V30 3233 N 307.445 0.0818655 -1.57387 0
M  V30 3234 C 308.408 1.08265 -2.02018 0
M  V30 3235 C 309.408 1.32183 -0.915664 0
M  V30 3236 O 310.598 1.28073 -1.18081 0
M  V30 3237 C 307.73 2.42871 -2.39221 0
M  V30 3238 H 308.923 0.698204 -2.91659 0
M  V30 3239 H 306.476 0.327303 -1.52835 0
M  V30 3240 H 307.211 2.86167 -1.52575 0
M  V30 3241 H 306.996 2.26855 -3.19811 0
M  V30 3242 H 308.486 3.14826 -2.74362 0
M  V30 3243 N 308.923 1.53595 0.353017 0
M  V30 3244 C 310.334 1.61937 0.929153 0
M  V30 3245 C 310.685 0.494686 1.89861 0
M  V30 3246 O 309.81 -0.377017 2.1309 0
M  V30 3247 C 310.405 2.93526 1.69199 0
M  V30 3248 C 308.964 3.04161 2.21727 0
M  V30 3249 C 308.111 2.57322 1.03348 0
M  V30 3250 H 311.062 1.58155 0.131431 0
M  V30 3251 H 311.083 2.82034 2.55416 0
M  V30 3252 H 310.595 3.75362 0.986144 0
M  V30 3253 H 308.696 2.26938 2.95516 0
M  V30 3254 H 308.809 4.09465 2.48748 0
M  V30 3255 H 307.173 2.12499 1.40414 0
M  V30 3256 H 307.956 3.41588 0.342428 0
M  V30 3257 N 310.401 -0.613514 1.45168 0
M  V30 3258 C 311.629 -1.39946 1.5239 0
M  V30 3259 C 312.044 -1.88167 0.154531 0
M  V30 3260 O 311.401 -1.61872 -0.842843 0
M  V30 3261 C 311.452 -2.60795 2.50337 0
M  V30 3262 O 311.173 -2.1458 3.81952 0
M  V30 3263 C 312.674 -3.53723 2.67198 0
M  V30 3264 H 309.894 -0.428593 0.516284 0
M  V30 3265 H 312.438 -0.748753 1.903 0
M  V30 3266 H 310.593 -3.21919 2.15515 0
M  V30 3267 H 311.007 -2.93055 4.34993 0
M  V30 3268 H 312.481 -4.35079 3.39721 0
M  V30 3269 H 312.958 -4.0368 1.73029 0
M  V30 3270 H 313.564 -2.98456 3.02992 0
M  V30 3271 N 311.879 -1.3236 -0.855495 0
M  V30 3272 C 312.842 -1.21164 -1.94556 0
M  V30 3273 C 313.842 -0.134908 -1.60233 0
M  V30 3274 O 315.032 -0.385249 -1.69887 0
M  V30 3275 C 312.164 -0.863192 -3.29791 0
M  V30 3276 H 313.357 -2.18038 -2.05911 0
M  V30 3277 H 310.91 -1.16179 -1.04557 0
M  V30 3278 H 311.645 0.103769 -3.24134 0
M  V30 3279 H 311.43 -1.64166 -3.56078 0
M  V30 3280 H 312.92 -0.809156 -4.09686 0
M  V30 3281 N 313.357 1.07166 -1.15556 0
M  V30 3282 C 314.634 1.76546 -0.842069 0
M  V30 3283 C 315.014 2.00453 0.661939 0
M  V30 3284 O 314.362 1.62452 1.60691 0
M  V30 3285 C 314.572 3.07266 -1.65495 0
M  V30 3286 C 315.92 3.81578 -1.86234 0
M  V30 3287 O 316.944 3.17083 -1.62287 0
M  V30 3288 O 315.803 4.97419 -2.26355 0
M  V30 3289 H 312.897 0.766756 -0.309862 0
M  V30 3290 H 315.443 1.13514 -1.26145 0
M  V30 3291 H 314.215 2.85494 -2.67598 0
M  V30 3292 H 313.838 3.7803 -1.23203 0
M  V30 3293 N 314.835 0.952656 1.25548 0
M  V30 3294 C 315.765 0.489287 2.28316 0
M  V30 3295 C 316.746 -0.463359 1.63667 0
M  V30 3296 O 317.931 -0.36274 1.90782 0
M  V30 3297 C 315.061 -0.235603 3.465 0
M  V30 3298 C 314.015 0.631593 4.23314 0
M  V30 3299 C 313.341 -0.223923 5.34231 0
M  V30 3300 C 314.641 1.90871 4.86174 0
M  V30 3301 H 316.335 1.34822 2.67326 0
M  V30 3302 H 313.881 0.649728 1.28509 0
M  V30 3303 H 315.834 -0.570882 4.17515 0
M  V30 3304 H 314.558 -1.12877 3.06474 0
M  V30 3305 H 313.217 0.949929 3.54079 0
M  V30 3306 H 312.865 -1.11678 4.90446 0
M  V30 3307 H 312.565 0.35299 5.86539 0
M  V30 3308 H 314.089 -0.554214 6.0808 0
M  V30 3309 H 315.503 1.63997 5.49343 0
M  V30 3310 H 313.9 2.43112 5.4865 0
M  V30 3311 H 314.97 2.61304 4.08471 0
M  V30 3312 N 316.313 -1.40141 0.720998 0
M  V30 3313 C 317.223 -2.34486 0.0731031 0
M  V30 3314 C 318.239 -1.57587 -0.737723 0
M  V30 3315 O 319.415 -1.89949 -0.669429 0
M  V30 3316 C 316.48 -3.36528 -0.833656 0
M  V30 3317 C 315.541 -4.29298 -0.0121673 0
M  V30 3318 C 314.774 -5.26466 -0.875742 0
M  V30 3319 O 314.997 -5.29745 -2.11485 0
M  V30 3320 O 313.931 -6.01092 -0.31185 0
M  V30 3321 H 317.757 -2.9152 0.851444 0
M  V30 3322 H 315.342 -1.41427 0.481527 0
M  V30 3323 H 317.224 -3.99093 -1.35289 0
M  V30 3324 H 315.899 -2.81899 -1.59105 0
M  V30 3325 H 314.806 -3.70001 0.552262 0
M  V30 3326 H 316.139 -4.87094 0.707129 0
M  V30 3327 N 317.792 -0.46758 -1.50504 0
M  V30 3328 C 319.069 0.15003 -1.95024 0
M  V30 3329 C 319.449 1.57304 -1.40779 0
M  V30 3330 O 318.797 2.20281 -0.607319 0
M  V30 3331 C 319.007 0.0969324 -3.48865 0
M  V30 3332 C 320.355 0.287565 -4.23625 0
M  V30 3333 O 321.379 0.173678 -3.55776 0
M  V30 3334 O 320.238 0.517186 -5.44047 0
M  V30 3335 H 317.332 0.113582 -0.819163 0
M  V30 3336 H 319.878 -0.52773 -1.61286 0
M  V30 3337 H 318.65 -0.896732 -3.80886 0
M  V30 3338 H 318.273 0.816303 -3.8913 0
M  V30 3339 N 319.27 1.56325 -0.20005 0
M  V30 3340 C 320.547 1.89484 0.48529 0
M  V30 3341 C 320.927 1.1143 1.79294 0
M  V30 3342 O 320.275 0.216919 2.27468 0
M  V30 3343 C 320.485 3.41923 0.699243 0
M  V30 3344 C 321.833 4.12256 1.01638 0
M  V30 3345 O 322.857 3.47402 0.786792 0
M  V30 3346 O 321.716 5.26887 1.45095 0
M  V30 3347 H 318.81 0.787144 0.253639 0
M  V30 3348 H 321.356 1.67985 -0.240633 0
M  V30 3349 H 320.128 3.90658 -0.224008 0
M  V30 3350 H 319.751 3.69131 1.47744 0
M  V30 3351 N 320.748 -0.0735177 1.57428 0
M  V30 3352 C 322.164 -0.428264 1.53747 0
M  V30 3353 C 322.364 -1.79272 0.91998 0
M  V30 3354 O 321.42 -2.47051 0.521745 0
M  V30 3355 C 322.733 -0.370914 2.98404 0
M  V30 3356 C 324.281 -0.451224 3.0973 0
M  V30 3357 C 324.756 -0.4238 4.56035 0
M  V30 3358 N 326.247 -0.483925 4.60665 0
M  V30 3359 C 326.982 -0.484891 5.71346 0
M  V30 3360 N 326.478 -0.440775 6.91396 0
M  V30 3361 N 328.271 -0.531319 5.59583 0
M  V30 3362 H 320.422 0.819949 1.95935 0
M  V30 3363 H 322.685 0.307493 0.896745 0
M  V30 3364 H 322.391 0.564956 3.47133 0
M  V30 3365 H 322.265 -1.18176 3.5821 0
M  V30 3366 H 324.652 -1.37752 2.60976 0
M  V30 3367 H 324.733 0.388167 2.52838 0
M  V30 3368 H 324.377 0.498638 5.05446 0
M  V30 3369 H 324.307 -1.2807 5.10789 0
M  V30 3370 H 326.798 -0.522338 3.74273 0
M  V30 3371 H 327.111 -0.44539 7.71515 0
M  V30 3372 H 325.456 -0.40749 6.93804 0
M  V30 3373 H 328.647 -0.563464 4.64696 0
M  V30 3374 H 328.82 -0.528603 6.4584 0
M  V30 3375 N 322.226 -1.5378 -0.344866 0
M  V30 3376 C 323.637 -1.62428 -0.920552 0
M  V30 3377 C 323.988 -0.504747 -1.89596 0
M  V30 3378 O 323.113 0.365711 -2.13287 0
M  V30 3379 C 323.708 -2.94419 -1.67639 0
M  V30 3380 C 322.267 -3.05333 -2.20111 0
M  V30 3381 C 321.414 -2.57866 -1.01982 0
M  V30 3382 H 324.365 -1.58222 -0.123042 0
M  V30 3383 H 324.386 -2.83384 -2.53917 0
M  V30 3384 H 323.898 -3.7588 -0.966224 0
M  V30 3385 H 321.999 -2.28502 -2.94308 0
M  V30 3386 H 322.112 -4.10778 -2.46573 0
M  V30 3387 H 320.476 -2.13241 -1.39285 0
M  V30 3388 H 321.259 -3.41765 -0.324308 0
M  V30 3389 N 323.704 0.605807 -1.45491 0
M  V30 3390 C 324.929 1.39625 -1.53361 0
M  V30 3391 C 325.354 1.87351 -0.167645 0
M  V30 3392 O 324.712 1.60243 0.848051 0
M  V30 3393 C 324.76 2.57559 -2.5238 0
M  V30 3394 O 323.864 3.58248 -2.04285 0
M  V30 3395 H 323.205 0.416771 -0.516912 0
M  V30 3396 H 325.735 0.737103 -1.90861 0
M  V30 3397 H 325.745 3.0478 -2.71244 0
M  V30 3398 H 324.42 2.22171 -3.51586 0
M  V30 3399 H 322.997 3.17664 -1.95305 0
M  V30 3400 N 325.182 1.32811 0.848464 0
M  V30 3401 C 326.112 1.24882 1.97299 0
M  V30 3402 C 327.093 0.131357 1.69592 0
M  V30 3403 O 328.278 0.319553 1.91553 0
M  V30 3404 C 325.408 0.97746 3.33261 0
M  V30 3405 C 324.362 2.05682 3.75338 0
M  V30 3406 C 323.688 1.63777 5.09 0
M  V30 3407 C 324.988 3.47254 3.90144 0
M  V30 3408 H 326.682 2.18966 2.04191 0
M  V30 3409 H 324.228 1.05413 0.981029 0
M  V30 3410 H 326.181 0.908513 4.1149 0
M  V30 3411 H 324.905 0.000980011 3.266 0
M  V30 3412 H 323.564 2.11603 2.99366 0
M  V30 3413 H 323.212 0.648569 4.98801 0
M  V30 3414 H 322.912 2.36 5.38124 0
M  V30 3415 H 324.436 1.5833 5.89715 0
M  V30 3416 H 325.85 3.43888 4.58709 0
M  V30 3417 H 324.247 4.1788 4.30693 0
M  V30 3418 H 325.317 3.86462 2.92874 0
M  V30 3419 N 326.66 -1.06551 1.16123 0
M  V30 3420 C 328.071 -1.60768 0.949232 0
M  V30 3421 C 328.422 -1.89523 -0.507508 0
M  V30 3422 O 327.547 -1.66671 -1.38021 0
M  V30 3423 C 328.142 -2.92086 1.71671 0
M  V30 3424 C 326.701 -3.43015 1.54977 0
M  V30 3425 C 325.848 -2.16947 1.72711 0
M  V30 3426 H 328.799 -0.895354 1.31031 0
M  V30 3427 H 328.82 -3.6138 1.19099 0
M  V30 3428 H 328.332 -2.71127 2.7769 0
M  V30 3429 H 326.433 -3.69039 0.513873 0
M  V30 3430 H 326.546 -4.18516 2.33198 0
M  V30 3431 H 324.91 -2.27041 1.15431 0
M  V30 3432 H 325.693 -1.98473 2.80113 0
M  V30 3433 N 328.138 -0.959301 -1.25041 0
M  V30 3434 C 329.415 -0.533805 -1.88175 0
M  V30 3435 C 329.795 0.988994 -1.865 0
M  V30 3436 O 329.143 1.85677 -1.33177 0
M  V30 3437 C 329.353 -1.11575 -3.30684 0
M  V30 3438 C 330.701 -1.19548 -4.07423 0
M  V30 3439 O 331.725 -1.06765 -3.39823 0
M  V30 3440 O 330.584 -1.39656 -5.28354 0
M  V30 3441 H 327.678 -0.176772 -0.807887 0
M  V30 3442 H 330.224 -1.05303 -1.33076 0
M  V30 3443 H 328.996 -2.15884 -3.26358 0
M  V30 3444 H 328.619 -0.580059 -3.93346 0
M  V30 3445 N 329.616 1.39756 -0.72842 0
M  V30 3446 C 330.526 2.34444 -0.0855374 0
M  V30 3447 C 331.542 1.57976 0.729356 0
M  V30 3448 O 332.718 1.90301 0.659346 0
M  V30 3449 C 329.783 3.36965 0.815798 0
M  V30 3450 C 328.844 4.29299 -0.0105996 0
M  V30 3451 C 328.077 5.26923 0.84781 0
M  V30 3452 O 328.3 5.30859 2.08673 0
M  V30 3453 O 327.234 6.01249 0.279969 0
M  V30 3454 H 331.06 2.91065 -0.866892 0
M  V30 3455 H 328.645 1.4117 -0.48902 0
M  V30 3456 H 330.527 3.99804 1.33171 0
M  V30 3457 H 329.202 2.82739 1.57608 0
M  V30 3458 H 328.109 3.69703 -0.571877 0
M  V30 3459 H 329.442 4.86712 -0.73295 0
M  V30 3460 N 331.094 0.475555 1.50254 0
M  V30 3461 C 332.34 -0.0780073 2.0265 0
M  V30 3462 C 332.673 -1.38968 1.35652 0
M  V30 3463 O 331.948 -1.8839 0.483691 0
M  V30 3464 C 332.231 -0.257161 3.59181 0
M  V30 3465 C 332.084 1.07585 4.36744 0
M  V30 3466 C 333.403 -1.00965 4.28362 0
M  V30 3467 H 330.522 -0.0268758 0.73651 0
M  V30 3468 H 333.164 0.622015 1.7953 0
M  V30 3469 H 331.314 -0.853412 3.79011 0
M  V30 3470 H 332.986 1.70902 4.28474 0
M  V30 3471 H 331.229 1.6714 4.00308 0
M  V30 3472 H 331.9 0.904088 5.44546 0
M  V30 3473 H 334.376 -0.504214 4.13034 0
M  V30 3474 H 333.252 -1.10381 5.37687 0
M  V30 3475 H 333.513 -2.04731 3.91839 0
M  V30 3476 N 332.573 -1.56217 0.208337 0
M  V30 3477 C 333.536 -2.18455 -0.693557 0
M  V30 3478 C 334.536 -1.14268 -1.13135 0
M  V30 3479 O 335.726 -1.39577 -1.0423 0
M  V30 3480 C 332.858 -2.79727 -1.94848 0
M  V30 3481 H 334.051 -2.99519 -0.15114 0
M  V30 3482 H 331.604 -1.56245 -0.041287 0
M  V30 3483 H 332.339 -2.02497 -2.53309 0
M  V30 3484 H 332.124 -3.56009 -1.64316 0
M  V30 3485 H 333.614 -3.27475 -2.59133 0
M  V30 3486 N 334.051 0.0651679 -1.57465 0
M  V30 3487 C 334.981 1.07693 -2.07182 0
M  V30 3488 C 335.962 1.39962 -0.966673 0
M  V30 3489 O 337.147 1.49475 -1.2398 0
M  V30 3490 C 334.277 2.3885 -2.52127 0
M  V30 3491 C 333.231 2.20917 -3.66579 0
M  V30 3492 C 332.557 3.57515 -3.97601 0
M  V30 3493 C 333.857 1.62493 -4.9638 0
M  V30 3494 H 335.551 0.663199 -2.91962 0
M  V30 3495 H 333.097 0.317569 -1.40455 0
M  V30 3496 H 335.05 3.09928 -2.85522 0
M  V30 3497 H 333.774 2.82215 -1.64384 0
M  V30 3498 H 332.433 1.52279 -3.33477 0
M  V30 3499 H 332.081 3.98463 -3.06979 0
M  V30 3500 H 331.781 3.46353 -4.74672 0
M  V30 3501 H 333.305 4.30013 -4.33499 0
M  V30 3502 H 334.719 2.23445 -5.27963 0
M  V30 3503 H 333.116 1.62009 -5.77818 0
M  V30 3504 H 334.186 0.587041 -4.81333 0
M  V30 3505 N 335.529 1.53961 0.336706 0
M  V30 3506 C 336.777 1.71197 1.07405 0
M  V30 3507 C 337.098 0.481475 1.88962 0
M  V30 3508 O 336.368 -0.504585 1.8929 0
M  V30 3509 H 334.948 0.631185 0.399517 0
M  V30 3510 H 337.61 1.91232 0.376323 0
M  V30 3511 H 336.706 2.58587 1.74755 0
M  V30 3512 N 337.007 -0.598083 1.45811 0
M  V30 3513 C 338.253 -1.35882 1.50545 0
M  V30 3514 C 338.586 -1.93616 0.150445 0
M  V30 3515 O 337.861 -1.75604 -0.83628 0
M  V30 3516 C 338.144 -2.49966 2.59208 0
M  V30 3517 C 337.997 -1.97367 4.04186 0
M  V30 3518 C 339.316 -3.52068 2.64076 0
M  V30 3519 H 336.435 -0.492717 0.548087 0
M  V30 3520 H 339.077 -0.673319 1.77669 0
M  V30 3521 H 337.227 -3.08443 2.3621 0
M  V30 3522 H 338.899 -1.43466 4.38423 0
M  V30 3523 H 337.142 -1.283 4.14393 0
M  V30 3524 H 337.813 -2.79649 4.75921 0
M  V30 3525 H 340.289 -3.03448 2.84708 0
M  V30 3526 H 339.165 -4.2937 3.41954 0
M  V30 3527 H 339.426 -4.08304 1.69531 0
M  V30 3528 N 338.485 -1.33259 -0.841409 0
M  V30 3529 C 339.713 -1.27605 -1.62864 0
M  V30 3530 C 340.128 0.153507 -1.88175 0
M  V30 3531 O 339.485 1.09485 -1.46011 0
M  V30 3532 C 339.536 -2.04596 -2.98031 0
M  V30 3533 O 339.257 -3.41975 -2.73834 0
M  V30 3534 C 340.758 -2.06122 -3.92465 0
M  V30 3535 H 337.978 -0.439718 -0.506842 0
M  V30 3536 H 340.522 -1.75591 -1.04824 0
M  V30 3537 H 338.677 -1.60299 -3.5268 0
M  V30 3538 H 339.091 -3.81549 -3.59889 0
M  V30 3539 H 340.565 -2.64451 -4.84531 0
M  V30 3540 H 341.042 -1.05083 -4.26444 0
M  V30 3541 H 341.648 -2.50427 -3.43753 0
M  V30 3542 N 339.963 1.05934 -1.16686 0
M  V30 3543 C 341.193 1.82226 -0.973515 0
M  V30 3544 C 341.601 1.8297 0.481532 0
M  V30 3545 O 340.944 1.25009 1.34604 0
M  V30 3546 C 341.006 3.29897 -1.42858 0
M  V30 3547 C 340.67 3.52849 -2.90425 0
M  V30 3548 C 341.667 3.45595 -3.88407 0
M  V30 3549 C 339.352 3.80053 -3.28428 0
M  V30 3550 C 341.346 3.65217 -5.22394 0
M  V30 3551 C 339.033 3.99325 -4.62583 0
M  V30 3552 C 340.031 3.91905 -5.59374 0
M  V30 3553 O 339.719 4.10647 -6.91104 0
M  V30 3554 H 339.451 0.581314 -0.345036 0
M  V30 3555 H 342.005 1.3453 -1.55212 0
M  V30 3556 H 340.235 3.78472 -0.793477 0
M  V30 3557 H 341.924 3.87692 -1.20207 0
M  V30 3558 H 342.69 3.24564 -3.60393 0
M  V30 3559 H 338.569 3.84936 -2.53664 0
M  V30 3560 H 342.113 3.59341 -5.9793 0
M  V30 3561 H 338.01 4.19846 -4.90306 0
M  V30 3562 H 338.778 4.27915 -6.97733 0
M  V30 3563 N 341.441 0.965919 1.2453 0
M  V30 3564 C 342.718 0.543777 1.87889 0
M  V30 3565 C 343.098 -0.97909 1.87021 0
M  V30 3566 O 342.446 -1.84969 1.3416 0
M  V30 3567 C 342.656 1.13327 3.30088 0
M  V30 3568 C 344.004 1.21707 4.06783 0
M  V30 3569 O 345.028 1.08566 3.39252 0
M  V30 3570 O 343.887 1.42456 5.27606 0
M  V30 3571 H 340.981 0.181054 0.806938 0
M  V30 3572 H 343.527 1.06007 1.32516 0
M  V30 3573 H 342.299 2.17612 3.25209 0
M  V30 3574 H 341.922 0.600911 3.93033 0
M  V30 3575 N 342.919 -1.39368 0.735821 0
M  V30 3576 C 343.867 -2.32443 0.0855131 0
M  V30 3577 C 344.861 -1.53104 -0.724954 0
M  V30 3578 O 346.067 -1.68762 -0.626047 0
M  V30 3579 H 342.442 -0.751948 0.00885257 0
M  V30 3580 H 344.413 -2.84916 0.886883 0
M  V30 3581 C 343.162 -3.38206 -0.806983 0
M  V30 3582 H 342.485 -3.99335 -0.19274 0
M  V30 3583 H 343.925 -4.05779 -1.2296 0
M  V30 3584 C 342.384 -2.75321 -1.94165 0
M  V30 3585 O 342.914 -2.63231 -3.03435 0
M  V30 3586 N 341.12 -2.33396 -1.73132 0
M  V30 3587 H 340.667 -2.4343 -0.842596 0
M  V30 3588 H 340.625 -1.91661 -2.49225 0
M  V30 3589 N 344.397 -0.483516 -1.5 0
M  V30 3590 C 345.646 0.0689102 -2.01582 0
M  V30 3591 C 345.959 1.39655 -1.36952 0
M  V30 3592 O 347.165 2.03465 -1.79762 0
M  V30 3593 C 345.621 0.173302 -3.59483 0
M  V30 3594 C 345.229 -1.14665 -4.33077 0
M  V30 3595 C 346.973 0.677024 -4.19066 0
M  V30 3596 C 344.88 -1.00537 -5.82792 0
M  V30 3597 H 343.81 0.0295277 -0.753422 0
M  V30 3598 H 346.461 -0.620295 -1.72698 0
M  V30 3599 H 344.843 0.926569 -3.85007 0
M  V30 3600 H 346.017 -1.91184 -4.19268 0
M  V30 3601 H 344.332 -1.58244 -3.85159 0
M  V30 3602 H 346.929 0.799952 -5.28682 0
M  V30 3603 H 347.272 1.67151 -3.81269 0
M  V30 3604 H 347.805 -0.0192083 -3.97795 0
M  V30 3605 H 344.544 -1.9736 -6.25083 0
M  V30 3606 H 344.064 -0.280776 -5.99142 0
M  V30 3607 H 345.743 -0.677 -6.43448 0
M  V30 3608 N 345.875 1.56104 -0.216619 0
M  V30 3609 C 347.152 1.89988 0.465165 0
M  V30 3610 C 347.532 1.13326 1.78102 0
M  V30 3611 O 346.88 0.241033 2.27225 0
M  V30 3612 C 347.09 3.42646 0.662939 0
M  V30 3613 C 348.438 4.13311 0.972602 0
M  V30 3614 O 349.462 3.48217 0.749901 0
M  V30 3615 O 348.321 5.28396 1.39499 0
M  V30 3616 H 345.415 0.78979 0.245276 0
M  V30 3617 H 347.961 1.67721 -0.258436 0
M  V30 3618 H 346.733 3.90399 -0.26543 0
M  V30 3619 H 346.356 3.70677 1.43821 0
M  V30 3620 N 347.353 -0.0568162 1.57498 0
M  V30 3621 C 348.63 -0.786954 1.79071 0
M  V30 3622 C 349.01 -1.95028 0.80792 0
M  V30 3623 O 348.358 -2.27968 -0.155858 0
M  V30 3624 C 348.568 -1.24594 3.26002 0
M  V30 3625 C 349.916 -1.67323 3.90241 0
M  V30 3626 O 350.94 -1.34124 3.29984 0
M  V30 3627 O 349.799 -2.28842 4.9628 0
M  V30 3628 H 346.893 -0.378262 0.735423 0
M  V30 3629 H 349.439 -0.035734 1.69662 0
M  V30 3630 H 348.211 -0.41423 3.89101 0
M  V30 3631 H 347.834 -2.05803 3.40192 0
M  V30 3632 N 348.832 -1.54138 -0.328536 0
M  V30 3633 C 350.062 -1.75807 -1.08516 0
M  V30 3634 C 350.47 -0.50428 -1.82356 0
M  V30 3635 O 349.813 0.534451 -1.75754 0
M  V30 3636 C 349.875 -2.89423 -2.13248 0
M  V30 3637 C 349.539 -4.28504 -1.5885 0
M  V30 3638 C 350.536 -5.09536 -1.03289 0
M  V30 3639 C 348.221 -4.75034 -1.63243 0
M  V30 3640 C 350.215 -6.35206 -0.52845 0
M  V30 3641 C 347.902 -6.00672 -1.12411 0
M  V30 3642 C 348.9 -6.80592 -0.573062 0
M  V30 3643 O 348.588 -8.03867 -0.0723692 0
M  V30 3644 H 348.32 -0.590633 -0.328829 0
M  V30 3645 H 350.874 -2.01819 -0.381868 0
M  V30 3646 H 349.104 -2.5897 -2.87178 0
M  V30 3647 H 350.793 -2.98921 -2.74592 0
M  V30 3648 H 351.559 -4.74745 -0.99206 0
M  V30 3649 H 347.438 -4.12875 -2.05074 0
M  V30 3650 H 350.982 -6.97532 -0.0976774 0
M  V30 3651 H 346.879 -6.34955 -1.162 0
M  V30 3652 H 347.647 -8.18283 -0.188258 0
M  V30 3653 N 350.31 0.590341 -1.46126 0
M  V30 3654 C 351.24 1.71032 -1.58966 0
M  V30 3655 C 352.221 1.64302 -0.440335 0
M  V30 3656 O 353.406 1.82436 -0.665634 0
M  V30 3657 C 350.536 3.09665 -1.57241 0
M  V30 3658 C 349.49 3.31221 -2.71066 0
M  V30 3659 C 348.816 4.70303 -2.54399 0
M  V30 3660 C 350.116 3.19796 -4.1295 0
M  V30 3661 H 351.81 1.60543 -2.52718 0
M  V30 3662 H 349.356 0.770933 -1.21625 0
M  V30 3663 H 351.309 3.87831 -1.64819 0
M  V30 3664 H 350.033 3.21036 -0.600289 0
M  V30 3665 H 348.692 2.55452 -2.62944 0
M  V30 3666 H 348.34 4.78429 -1.55288 0
M  V30 3667 H 348.04 4.85679 -3.30741 0
M  V30 3668 H 349.564 5.50647 -2.63857 0
M  V30 3669 H 350.978 3.87815 -4.22223 0
M  V30 3670 H 349.375 3.46696 -4.89818 0
M  V30 3671 H 350.445 2.16983 -4.33643 0
M  V30 3672 N 351.788 1.33704 0.83433 0
M  V30 3673 C 352.698 1.26382 1.97648 0
M  V30 3674 C 353.714 0.173548 1.73132 0
M  V30 3675 O 354.89 0.397962 1.97429 0
M  V30 3676 C 351.955 1.00769 3.31733 0
M  V30 3677 C 351.016 2.1884 3.69334 0
M  V30 3678 C 350.249 1.9444 4.9702 0
M  V30 3679 O 350.472 0.896961 5.63303 0
M  V30 3680 O 349.406 2.81093 5.32231 0
M  V30 3681 H 353.232 2.22444 2.06767 0
M  V30 3682 H 350.817 1.13795 0.968037 0
M  V30 3683 H 352.699 0.882186 4.12062 0
M  V30 3684 H 351.374 0.0773783 3.23608 0
M  V30 3685 H 350.281 2.36946 2.89495 0
M  V30 3686 H 351.614 3.10221 3.82131 0
M  V30 3687 N 353.266 -1.05314 1.17247 0
M  V30 3688 C 354.514 -1.77941 0.958194 0
M  V30 3689 C 354.835 -1.88089 -0.514556 0
M  V30 3690 O 354.105 -1.39676 -1.37359 0
M  V30 3691 H 352.685 -0.659116 0.351533 0
M  V30 3692 H 355.347 -1.27166 1.47699 0
M  V30 3693 H 354.443 -2.79663 1.38546 0
M  V30 3694 N 354.744 -0.972509 -1.24016 0
M  V30 3695 C 355.691 -0.505969 -2.25186 0
M  V30 3696 C 356.661 0.451009 -1.5986 0
M  V30 3697 O 357.846 0.360307 -1.87367 0
M  V30 3698 C 354.986 0.193089 -3.44559 0
M  V30 3699 C 354.099 -0.803222 -4.24467 0
M  V30 3700 C 353.234 -0.0797793 -5.3114 0
M  V30 3701 C 352.273 -1.06583 -6.02749 0
M  V30 3702 N 351.41 -0.372074 -7.01113 0
M  V30 3703 H 356.25 -1.37351 -2.64459 0
M  V30 3704 H 353.787 -0.688419 -1.29997 0
M  V30 3705 H 355.745 0.615125 -4.1264 0
M  V30 3706 H 354.375 1.02455 -3.06109 0
M  V30 3707 H 353.427 -1.34368 -3.55878 0
M  V30 3708 H 354.739 -1.55494 -4.73944 0
M  V30 3709 H 353.893 0.400015 -6.0538 0
M  V30 3710 H 352.632 0.704597 -4.82583 0
M  V30 3711 H 351.637 -1.55645 -5.27309 0
M  V30 3712 H 352.862 -1.85074 -6.53395 0
M  V30 3713 H 350.808 0.393238 -6.5482 0
M  V30 3714 H 350.725 -1.06258 -7.48495 0
M  V30 3715 H 351.993 0.0855932 -7.79453 0
M  V30 3716 N 356.222 1.38976 -0.743202 0
M  V30 3717 C 357.17 2.32394 -0.0978389 0
M  V30 3718 C 358.164 1.53486 0.716824 0
M  V30 3719 O 359.37 1.69092 0.617088 0
M  V30 3720 H 355.745 0.75189 -0.0128402 0
M  V30 3721 H 357.716 2.84441 -0.901981 0
M  V30 3722 C 356.465 3.38629 0.789036 0
M  V30 3723 H 355.788 3.99432 0.171559 0
M  V30 3724 H 357.228 4.06426 1.20807 0
M  V30 3725 C 355.687 2.76347 1.92702 0
M  V30 3726 O 356.217 2.64836 3.02034 0
M  V30 3727 N 354.423 2.34311 1.71891 0
M  V30 3728 H 353.97 2.43873 0.829675 0
M  V30 3729 H 353.928 1.9298 2.48205 0
M  V30 3730 N 357.7 0.491464 1.49741 0
M  V30 3731 C 358.946 -0.0565092 2.02721 0
M  V30 3732 C 359.279 -1.37522 1.37118 0
M  V30 3733 O 358.554 -1.87866 0.503645 0
M  V30 3734 C 358.837 -0.219051 3.59433 0
M  V30 3735 C 358.69 1.12211 4.35579 0
M  V30 3736 C 360.009 -0.964157 4.29409 0
M  V30 3737 H 357.128 -0.0190627 0.736753 0
M  V30 3738 H 359.77 0.641021 1.7886 0
M  V30 3739 H 357.92 -0.813165 3.79895 0
M  V30 3740 H 359.592 1.75437 4.26637 0
M  V30 3741 H 357.835 1.71377 3.98513 0
M  V30 3742 H 358.506 0.961794 5.43556 0
M  V30 3743 H 360.982 -0.460378 4.13545 0
M  V30 3744 H 359.858 -1.04671 5.38828 0
M  V30 3745 H 360.119 -2.00563 3.93988 0
M  V30 3746 N 359.178 -1.55987 0.224894 0
M  V30 3747 C 360.589 -1.84553 -0.282345 0
M  V30 3748 C 360.94 -1.14634 -1.59227 0
M  V30 3749 O 360.065 -0.417155 -2.12341 0
M  V30 3750 C 360.66 -3.348 -0.519062 0
M  V30 3751 C 359.219 -3.63671 -0.970604 0
M  V30 3752 C 358.366 -2.77277 -0.0355261 0
M  V30 3753 H 361.317 -1.52245 0.448006 0
M  V30 3754 H 361.338 -3.55187 -1.36463 0
M  V30 3755 H 360.85 -3.8566 0.43449 0
M  V30 3756 H 358.951 -3.1827 -1.9374 0
M  V30 3757 H 359.064 -4.71631 -0.842698 0
M  V30 3758 H 357.428 -2.48846 -0.542927 0
M  V30 3759 H 358.211 -3.30937 0.913003 0
M  V30 3760 N 360.656 0.0484629 -1.57525 0
M  V30 3761 C 361.588 1.08222 -2.02041 0
M  V30 3762 C 362.601 1.33621 -0.930012 0
M  V30 3763 O 363.79 1.3145 -1.20761 0
M  V30 3764 C 360.89 2.42818 -2.36416 0
M  V30 3765 C 360.063 2.37049 -3.67596 0
M  V30 3766 C 359.122 3.53937 -3.89378 0
M  V30 3767 O 358.148 3.34308 -4.60681 0
M  V30 3768 N 359.35 4.75126 -3.3352 0
M  V30 3769 H 362.115 0.702946 -2.9134 0
M  V30 3770 H 359.676 0.236745 -1.6016 0
M  V30 3771 H 361.668 3.197 -2.48141 0
M  V30 3772 H 360.238 2.72661 -1.52888 0
M  V30 3773 H 359.458 1.45395 -3.66407 0
M  V30 3774 H 360.746 2.30318 -4.53686 0
M  V30 3775 H 360.144 4.93976 -2.75688 0
M  V30 3776 H 358.701 5.49439 -3.50656 0
M  V30 3777 N 362.134 1.5431 0.320358 0
M  V30 3778 C 363.066 1.80262 1.41556 0
M  V30 3779 C 364.079 0.684723 1.477 0
M  V30 3780 O 365.268 0.961886 1.50366 0
M  V30 3781 C 362.368 1.90825 2.8007 0
M  V30 3782 C 361.541 3.21023 2.97091 0
M  V30 3783 C 360.6 3.22247 4.15985 0
M  V30 3784 O 359.626 3.95871 4.08992 0
M  V30 3785 N 360.828 2.46258 5.25678 0
M  V30 3786 H 363.593 2.74778 1.19655 0
M  V30 3787 H 361.154 1.53646 0.510358 0
M  V30 3788 H 363.146 1.89067 3.57821 0
M  V30 3789 H 361.716 1.03392 2.95006 0
M  V30 3790 H 360.936 3.35715 2.06614 0
M  V30 3791 H 362.224 4.0698 3.05361 0
M  V30 3792 H 361.622 1.86037 5.34235 0
M  V30 3793 H 360.179 2.50275 6.01835 0
M  V30 3794 N 363.613 -0.582584 1.46437 0
M  V30 3795 C 364.859 -1.34278 1.51978 0
M  V30 3796 C 365.192 -1.93446 0.170973 0
M  V30 3797 O 364.467 -1.76481 -0.817608 0
M  V30 3798 C 364.75 -2.47203 2.61845 0
M  V30 3799 C 364.603 -1.93069 4.06257 0
M  V30 3800 C 365.922 -3.49247 2.67795 0
M  V30 3801 H 363.041 -0.486876 0.553282 0
M  V30 3802 H 365.683 -0.654437 1.78374 0
M  V30 3803 H 363.833 -3.0592 2.39469 0
M  V30 3804 H 365.505 -1.38808 4.3992 0
M  V30 3805 H 363.748 -1.23898 4.1573 0
M  V30 3806 H 364.419 -2.74586 4.7886 0
M  V30 3807 H 366.895 -3.00411 2.8791 0
M  V30 3808 H 365.771 -4.25719 3.46489 0
M  V30 3809 H 366.032 -4.06482 1.73852 0
M  V30 3810 N 365.091 -1.34144 -0.827227 0
M  V30 3811 C 366.054 -1.25264 -1.91942 0
M  V30 3812 C 367.054 -0.168866 -1.59911 0
M  V30 3813 O 368.244 -0.421198 -1.69031 0
M  V30 3814 C 365.376 -0.932952 -3.27885 0
M  V30 3815 H 366.569 -2.22357 -2.0124 0
M  V30 3816 H 364.122 -1.1837 -1.0207 0
M  V30 3817 H 364.857 0.0349917 -3.24281 0
M  V30 3818 H 364.642 -1.71682 -3.52516 0
M  V30 3819 H 366.132 -0.895874 -4.07877 0
M  V30 3820 N 366.569 1.04691 -1.17803 0
M  V30 3821 C 367.985 1.29963 -0.926379 0
M  V30 3822 C 368.185 1.97251 0.411635 0
M  V30 3823 O 367.241 2.24922 1.14744 0
M  V30 3824 C 368.554 2.16447 -2.08737 0
M  V30 3825 C 370.102 2.29814 -2.12496 0
M  V30 3826 C 370.577 3.19661 -3.27995 0
M  V30 3827 N 372.068 3.27247 -3.27816 0
M  V30 3828 C 372.803 3.96906 -4.13827 0
M  V30 3829 N 372.299 4.6895 -5.09959 0
M  V30 3830 N 374.092 3.93122 -4.01761 0
M  V30 3831 H 366.243 0.594182 -2.0392 0
M  V30 3832 H 368.506 0.324649 -0.890678 0
M  V30 3833 H 368.212 1.74304 -3.05469 0
M  V30 3834 H 368.086 3.17103 -2.04268 0
M  V30 3835 H 370.473 2.71196 -1.16347 0
M  V30 3836 H 370.554 1.2877 -2.21025 0
M  V30 3837 H 370.198 2.78991 -4.24413 0
M  V30 3838 H 370.128 4.20722 -3.16703 0
M  V30 3839 H 372.619 2.75921 -2.58217 0
M  V30 3840 H 372.932 5.19679 -5.71974 0
M  V30 3841 H 371.277 4.67875 -5.13924 0
M  V30 3842 H 374.468 3.35967 -3.2595 0
M  V30 3843 H 374.641 4.47139 -4.6901 0
M  V30 3844 N 368.047 0.979072 1.23499 0
M  V30 3845 C 369.275 0.665202 1.95915 0
M  V30 3846 C 369.69 -0.767571 1.72493 0
M  V30 3847 O 369.047 -1.51635 1.01554 0
M  V30 3848 C 369.098 0.944438 3.48945 0
M  V30 3849 O 368.819 2.3209 3.71572 0
M  V30 3850 C 370.32 0.646336 4.38563 0
M  V30 3851 H 367.54 0.247218 0.623798 0
M  V30 3852 H 370.084 1.31009 1.57025 0
M  V30 3853 H 368.239 0.345575 3.85856 0
M  V30 3854 H 368.653 2.40957 4.65876 0
M  V30 3855 H 370.127 0.892091 5.44744 0
M  V30 3856 H 370.604 -0.419575 4.37191 0
M  V30 3857 H 371.21 1.22562 4.07258 0
M  V30 3858 N 369.525 -1.3858 0.750561 0
M  V30 3859 C 370.774 -1.99424 0.302172 0
M  V30 3860 C 371.087 -1.60254 -1.12152 0
M  V30 3861 O 372.293 -2.14046 -1.67023 0
M  V30 3862 C 370.749 -3.56558 0.489307 0
M  V30 3863 C 370.357 -4.04682 1.92189 0
M  V30 3864 C 372.101 -4.24374 0.103478 0
M  V30 3865 C 370.008 -5.54446 2.05775 0
M  V30 3866 H 368.938 -0.746046 0.10923 0
M  V30 3867 H 371.589 -1.58383 0.92667 0
M  V30 3868 H 369.971 -3.95472 -0.204329 0
M  V30 3869 H 371.145 -3.77065 2.64875 0
M  V30 3870 H 369.46 -3.4958 2.26236 0
M  V30 3871 H 372.057 -5.34384 0.183787 0
M  V30 3872 H 372.4 -4.05468 -0.943481 0
M  V30 3873 H 372.933 -3.90688 0.748854 0
M  V30 3874 H 369.672 -5.78252 3.08714 0
M  V30 3875 H 369.192 -5.83816 1.37546 0
M  V30 3876 H 370.871 -6.20099 1.84626 0
M  V30 3877 N 371.003 -0.499398 -1.49478 0
M  V30 3878 C 371.913 0.284489 -2.32869 0
M  V30 3879 C 372.929 0.968885 -1.44529 0
M  V30 3880 O 374.105 0.95062 -1.77553 0
M  V30 3881 C 371.17 1.33594 -3.19928 0
M  V30 3882 C 370.231 0.665149 -4.24116 0
M  V30 3883 C 369.464 1.6665 -5.07014 0
M  V30 3884 O 369.687 2.89618 -4.91404 0
M  V30 3885 O 368.621 1.22271 -5.8935 0
M  V30 3886 H 372.447 -0.39802 -3.01081 0
M  V30 3887 H 370.032 -0.260758 -1.47107 0
M  V30 3888 H 371.914 1.94431 -3.73864 0
M  V30 3889 H 370.589 2.0014 -2.54412 0
M  V30 3890 H 369.496 0.0170769 -3.74096 0
M  V30 3891 H 370.829 0.0421555 -4.92182 0
M  V30 3892 N 372.481 1.55866 -0.233164 0
M  V30 3893 C 373.429 2.22176 0.68851 0
M  V30 3894 C 374.423 1.20487 1.19076 0
M  V30 3895 O 375.629 1.38536 1.14925 0
M  V30 3896 H 372.004 0.712511 0.240483 0
M  V30 3897 H 373.975 2.98212 0.105935 0
M  V30 3898 C 372.724 2.92446 1.88071 0
M  V30 3899 H 372.047 3.70458 1.50337 0
M  V30 3900 H 373.487 3.42226 2.50314 0
M  V30 3901 C 371.946 1.95555 2.74335 0
M  V30 3902 O 372.476 1.47986 3.73447 0
M  V30 3903 N 370.682 1.62953 2.40613 0
M  V30 3904 H 370.229 2.01831 1.60069 0
M  V30 3905 H 370.187 0.983886 2.98609 0
M  V30 3906 N 373.959 -0.0401083 1.57549 0
M  V30 3907 C 375.205 -0.728793 1.89895 0
M  V30 3908 C 375.56 -1.73551 0.830535 0
M  V30 3909 O 374.853 -1.90914 -0.162007 0
M  V30 3910 C 375.047 -1.44902 3.26708 0
M  V30 3911 C 374.876 -0.513568 4.46758 0
M  V30 3912 C 373.646 -0.138698 5.0511 0
M  V30 3913 C 375.844 0.203341 5.13898 0
M  V30 3914 N 373.826 0.799159 6.08676 0
M  V30 3915 C 375.197 0.997246 6.11927 0
M  V30 3916 C 377.252 0.271459 4.97159 0
M  V30 3917 C 375.955 1.85299 6.95023 0
M  V30 3918 C 377.981 1.11429 5.80808 0
M  V30 3919 C 377.343 1.89615 6.78399 0
M  V30 3920 H 373.442 -0.241125 0.743897 0
M  V30 3921 H 376.026 0.0108016 1.94697 0
M  V30 3922 H 374.197 -2.15914 3.22856 0
M  V30 3923 H 375.929 -2.08921 3.46603 0
M  V30 3924 H 372.684 -0.498496 4.70969 0
M  V30 3925 H 373.108 1.26227 6.65128 0
M  V30 3926 H 377.75 -0.318709 4.21597 0
M  V30 3927 H 375.468 2.454 7.69938 0
M  V30 3928 H 379.054 1.17038 5.69906 0
M  V30 3929 H 377.934 2.53779 7.42001 0
M  V30 3930 N 375.437 -1.54477 -0.31217 0
M  V30 3931 C 376.667 -1.76948 -1.06645 0
M  V30 3932 C 377.075 -0.523593 -1.81811 0
M  V30 3933 O 376.418 0.51578 -1.76311 0
M  V30 3934 C 376.48 -2.91668 -2.10166 0
M  V30 3935 C 376.144 -4.30165 -1.54296 0
M  V30 3936 C 377.141 -5.10603 -0.978793 0
M  V30 3937 C 374.826 -4.76738 -1.58196 0
M  V30 3938 C 376.82 -6.3573 -0.461048 0
M  V30 3939 C 374.507 -6.01831 -1.06034 0
M  V30 3940 C 375.505 -6.81161 -0.500844 0
M  V30 3941 O 375.193 -8.03899 0.0128958 0
M  V30 3942 H 374.925 -0.594088 -0.322546 0
M  V30 3943 H 377.479 -2.02213 -0.360441 0
M  V30 3944 H 375.709 -2.62001 -2.84416 0
M  V30 3945 H 377.398 -3.01817 -2.71406 0
M  V30 3946 H 378.164 -4.75771 -0.941651 0
M  V30 3947 H 374.043 -4.15027 -2.00683 0
M  V30 3948 H 377.587 -6.97596 -0.0236894 0
M  V30 3949 H 373.484 -6.36152 -1.09459 0
M  V30 3950 H 374.252 -8.18437 -0.101457 0
M  V30 3951 N 376.915 0.57481 -1.46744 0
M  V30 3952 C 377.845 1.69337 -1.60771 0
M  V30 3953 C 378.826 1.63825 -0.457736 0
M  V30 3954 O 380.011 1.8172 -0.684947 0
M  V30 3955 C 377.141 3.0798 -1.60517 0
M  V30 3956 C 376.095 3.28327 -2.74564 0
M  V30 3957 C 375.421 4.67578 -2.59373 0
M  V30 3958 C 376.721 3.15398 -4.16319 0
M  V30 3959 H 378.415 1.57853 -2.54407 0
M  V30 3960 H 375.961 0.75799 -1.22436 0
M  V30 3961 H 377.914 3.86061 -1.68923 0
M  V30 3962 H 376.638 3.20381 -0.634305 0
M  V30 3963 H 375.297 2.52649 -2.65639 0
M  V30 3964 H 374.945 4.76755 -1.60353 0
M  V30 3965 H 374.645 4.82144 -3.35873 0
M  V30 3966 H 376.169 5.47817 -2.69682 0
M  V30 3967 H 377.583 3.83315 -4.26313 0
M  V30 3968 H 375.98 3.41482 -4.93468 0
M  V30 3969 H 377.05 2.12372 -4.3592 0
M  V30 3970 N 378.394 1.34581 0.820102 0
M  V30 3971 C 379.341 1.2639 1.93117 0
M  V30 3972 C 380.311 0.138554 1.65521 0
M  V30 3973 O 381.496 0.320004 1.88097 0
M  V30 3974 C 378.636 1.02812 3.29429 0
M  V30 3975 C 377.749 2.24146 3.693 0
M  V30 3976 C 376.884 1.93829 4.94574 0
M  V30 3977 C 375.923 3.1129 5.27034 0
M  V30 3978 N 375.06 2.80838 6.43486 0
M  V30 3979 H 379.9 2.21408 1.99455 0
M  V30 3980 H 377.437 1.10077 0.975784 0
M  V30 3981 H 379.395 0.871788 4.0799 0
M  V30 3982 H 378.025 0.114612 3.22596 0
M  V30 3983 H 377.077 2.50691 2.86109 0
M  V30 3984 H 378.389 3.11899 3.89257 0
M  V30 3985 H 377.543 1.74948 5.80929 0
M  V30 3986 H 376.282 1.03341 4.76626 0
M  V30 3987 H 375.287 3.30764 4.39175 0
M  V30 3988 H 376.512 4.02561 5.4692 0
M  V30 3989 H 374.458 1.92929 6.26988 0
M  V30 3990 H 374.375 3.62123 6.63629 0
M  V30 3991 H 375.643 2.65467 7.32903 0
M  V30 3992 N 379.872 -1.04064 1.18357 0
M  V30 3993 C 381.1 -1.80916 1.00384 0
M  V30 3994 C 381.515 -1.83414 -0.447738 0
M  V30 3995 O 380.872 -1.26962 -1.31099 0
M  V30 3996 C 380.923 -3.26516 1.55144 0
M  V30 3997 O 380.644 -3.2424 2.94618 0
M  V30 3998 C 382.145 -4.20013 1.41789 0
M  V30 3999 H 379.365 -0.569728 0.354474 0
M  V30 4000 H 381.909 -1.31151 1.56906 0
M  V30 4001 H 380.064 -3.73512 1.02798 0
M  V30 4002 H 380.478 -4.15452 3.20156 0
M  V30 4003 H 381.952 -5.20111 1.84901 0
M  V30 4004 H 382.429 -4.37667 0.36661 0
M  V30 4005 H 383.035 -3.78881 1.93207 0
M  V30 4006 N 381.35 -0.985608 -1.22978 0
M  V30 4007 C 382.26 -0.538548 -2.28335 0
M  V30 4008 C 383.276 0.409163 -1.69121 0
M  V30 4009 O 384.452 0.277797 -1.99475 0
M  V30 4010 C 381.517 0.146867 -3.46389 0
M  V30 4011 C 380.578 -0.842896 -4.20944 0
M  V30 4012 C 379.811 -0.190095 -5.33361 0
M  V30 4013 O 380.034 1.01767 -5.61248 0
M  V30 4014 O 378.968 -0.891289 -5.95264 0
M  V30 4015 H 382.794 -1.41487 -2.68729 0
M  V30 4016 H 380.379 -0.753495 -1.29007 0
M  V30 4017 H 382.261 0.531125 -4.1804 0
M  V30 4018 H 380.936 0.997871 -3.07935 0
M  V30 4019 H 379.843 -1.27795 -3.51595 0
M  V30 4020 H 381.176 -1.66287 -4.6326 0
M  V30 4021 N 382.828 1.3818 -0.7579 0
M  V30 4022 C 383.778 2.27741 -0.108674 0
M  V30 4023 C 384.762 1.45415 0.688709 0
M  V30 4024 O 385.954 1.68108 0.553956 0
M  V30 4025 C 383.083 3.34313 0.780367 0
M  V30 4026 C 382.169 4.24093 -0.0240977 0
M  V30 4027 N 382.56 4.9451 -1.06271 0
M  V30 4028 C 380.858 4.45542 0.202049 0
M  V30 4029 C 381.559 5.60675 -1.54979 0
M  V30 4030 N 380.535 5.36684 -0.864348 0
M  V30 4031 H 384.337 2.79649 -0.904071 0
M  V30 4032 H 381.851 1.51133 -0.594346 0
M  V30 4033 H 383.848 3.97368 1.26114 0
M  V30 4034 H 382.508 2.83962 1.57467 0
M  V30 4035 H 383.519 4.97345 -1.44459 0
M  V30 4036 H 380.196 4.06091 0.96935 0
M  V30 4037 H 381.586 6.26992 -2.41517 0
M  V30 4038 N 384.306 0.507319 1.49211 0
M  V30 4039 C 385.253 -0.267728 2.29242 0
M  V30 4040 C 386.223 -0.954609 1.35928 0
M  V30 4041 O 387.408 -0.960046 1.64887 0
M  V30 4042 C 384.548 -1.32243 3.18756 0
M  V30 4043 C 383.661 -0.64669 4.27132 0
M  V30 4044 C 382.796 -1.68238 5.03855 0
M  V30 4045 C 381.835 -0.98885 6.0406 0
M  V30 4046 N 380.972 -1.96903 6.73924 0
M  V30 4047 H 385.812 0.420968 2.95012 0
M  V30 4048 H 383.349 0.219443 1.45454 0
M  V30 4049 H 385.307 -1.94599 3.69036 0
M  V30 4050 H 383.937 -1.97981 2.54958 0
M  V30 4051 H 382.989 0.0902926 3.80293 0
M  V30 4052 H 384.301 -0.101058 4.98698 0
M  V30 4053 H 383.455 -2.38081 5.58034 0
M  V30 4054 H 382.194 -2.26187 4.32077 0
M  V30 4055 H 381.199 -0.276222 5.49106 0
M  V30 4056 H 382.424 -0.415767 6.77826 0
M  V30 4057 H 380.37 -2.53803 6.04913 0
M  V30 4058 H 380.287 -1.47423 7.41487 0
M  V30 4059 H 381.555 -2.66015 7.32705 0
M  V30 4060 N 385.784 -1.5574 0.241426 0
M  V30 4061 C 387.2 -1.59196 -0.113548 0
M  V30 4062 C 387.4 -1.25852 -1.57364 0
M  V30 4063 O 386.456 -1.00322 -2.31715 0
M  V30 4064 C 387.769 -2.99814 0.230695 0
M  V30 4065 C 389.317 -3.12513 0.174547 0
M  V30 4066 C 389.792 -4.55342 0.492744 0
M  V30 4067 N 391.283 -4.61076 0.443043 0
M  V30 4068 C 392.018 -5.6956 0.662484 0
M  V30 4069 N 391.514 -6.86328 0.944761 0
M  V30 4070 N 393.307 -5.58957 0.593564 0
M  V30 4071 H 385.458 -1.75685 1.19368 0
M  V30 4072 H 387.721 -0.81756 0.479896 0
M  V30 4073 H 387.427 -3.28932 1.24485 0
M  V30 4074 H 387.301 -3.74568 -0.444833 0
M  V30 4075 H 389.688 -2.83179 -0.830277 0
M  V30 4076 H 389.769 -2.40045 0.883845 0
M  V30 4077 H 389.413 -4.85396 1.4951 0
M  V30 4078 H 389.343 -5.26062 -0.23797 0
M  V30 4079 H 391.834 -3.77179 0.233374 0
M  V30 4080 H 392.147 -7.64935 1.09977 0
M  V30 4081 H 390.492 -6.88025 0.982175 0
M  V30 4082 H 393.683 -4.66611 0.373123 0
M  V30 4083 H 393.856 -6.43433 0.767981 0
M  V30 4084 N 387.262 0.0317525 -1.57568 0
M  V30 4085 C 388.678 0.38735 -1.54828 0
M  V30 4086 C 388.878 1.7677 -0.967187 0
M  V30 4087 O 387.934 2.45581 -0.587063 0
M  V30 4088 C 389.247 0.291667 -2.99282 0
M  V30 4089 C 390.795 0.368946 -3.10818 0
M  V30 4090 C 391.27 0.302741 -4.56998 0
M  V30 4091 N 392.761 0.361617 -4.61786 0
M  V30 4092 C 393.496 0.333238 -5.72431 0
M  V30 4093 N 392.992 0.257308 -6.92322 0
M  V30 4094 N 394.785 0.382769 -5.60795 0
M  V30 4095 H 386.936 -0.871609 -1.93692 0
M  V30 4096 H 389.199 -0.331161 -0.888277 0
M  V30 4097 H 388.905 -0.656794 -3.45513 0
M  V30 4098 H 388.779 1.08638 -3.61217 0
M  V30 4099 H 391.166 1.30784 -2.64536 0
M  V30 4100 H 391.247 -0.455066 -2.5172 0
M  V30 4101 H 390.891 -0.632473 -5.03947 0
M  V30 4102 H 390.821 1.14482 -5.14005 0
M  V30 4103 H 393.312 0.422923 -3.75526 0
M  V30 4104 H 393.625 0.24068 -7.72425 0
M  V30 4105 H 391.97 0.223396 -6.94641 0
M  V30 4106 H 395.161 0.44006 -4.66027 0
M  V30 4107 H 395.334 0.357184 -6.47015 0
M  V30 4108 N 388.74 1.54641 0.303973 0
M  V30 4109 C 390.151 1.64811 0.877163 0
M  V30 4110 C 390.502 0.554838 1.88191 0
M  V30 4111 O 389.627 -0.309033 2.14182 0
M  V30 4112 C 390.222 2.9876 1.59775 0
M  V30 4113 C 388.781 3.11061 2.11938 0
M  V30 4114 C 387.928 2.60479 0.951097 0
M  V30 4115 H 390.879 1.58493 0.0810486 0
M  V30 4116 H 390.9 2.90017 2.46314 0
M  V30 4117 H 390.412 3.7831 0.866226 0
M  V30 4118 H 388.513 2.36225 2.88146 0
M  V30 4119 H 388.626 4.17171 2.35595 0
M  V30 4120 H 386.99 2.16859 1.33583 0
M  V30 4121 H 387.773 3.42504 0.233581 0
M  V30 4122 N 390.218 -0.567019 1.47046 0
M  V30 4123 C 391.629 -1.14916 1.47143 0
M  V30 4124 C 391.98 -1.94954 0.220767 0
M  V30 4125 O 391.105 -2.05602 -0.67505 0
M  V30 4126 C 391.7 -2.09069 2.666 0
M  V30 4127 C 390.259 -2.62575 2.69687 0
M  V30 4128 C 389.406 -1.38755 2.40088 0
M  V30 4129 H 392.357 -0.354126 1.54699 0
M  V30 4130 H 392.378 -2.92789 2.43011 0
M  V30 4131 H 391.89 -1.50789 3.57609 0
M  V30 4132 H 389.991 -3.24681 1.82792 0
M  V30 4133 H 390.104 -3.04239 3.70102 0
M  V30 4134 H 388.468 -1.69098 1.90468 0
M  V30 4135 H 389.251 -0.822822 3.33293 0
M  V30 4136 N 391.696 -1.35014 -0.812953 0
M  V30 4137 C 392.945 -1.27269 -1.56479 0
M  V30 4138 C 393.258 0.152771 -1.95002 0
M  V30 4139 O 394.464 0.352451 -2.69203 0
M  V30 4140 C 392.92 -2.23159 -2.82362 0
M  V30 4141 C 392.528 -3.71016 -2.511 0
M  V30 4142 C 394.272 -2.24342 -3.60376 0
M  V30 4143 C 392.179 -4.58746 -3.73237 0
M  V30 4144 H 391.109 -0.472829 -0.587324 0
M  V30 4145 H 393.76 -1.6024 -0.894171 0
M  V30 4146 H 392.142 -1.83151 -3.51101 0
M  V30 4147 H 393.316 -4.1962 -1.90409 0
M  V30 4148 H 391.631 -3.72378 -1.86343 0
M  V30 4149 H 394.228 -2.87107 -4.51081 0
M  V30 4150 H 394.571 -1.24542 -3.97234 0
M  V30 4151 H 395.104 -2.62846 -2.98591 0
M  V30 4152 H 391.843 -5.59521 -3.41492 0
M  V30 4153 H 391.363 -4.14871 -4.33176 0
M  V30 4154 H 393.042 -4.73852 -4.40537 0
M  V30 4155 N 393.175 1.03435 -1.18907 0
M  V30 4156 C 394.403 1.80381 -1.01342 0
M  V30 4157 C 394.818 1.83649 0.438005 0
M  V30 4158 O 394.175 1.27655 1.30424 0
M  V30 4159 C 394.226 3.25689 -1.56873 0
M  V30 4160 O 393.947 3.22673 -2.96334 0
M  V30 4161 C 395.448 4.19255 -1.44014 0
M  V30 4162 H 392.668 0.56784 -0.35749 0
M  V30 4163 H 395.212 1.30317 -1.576 0
M  V30 4164 H 393.367 3.72962 -1.04777 0
M  V30 4165 H 393.781 4.13748 -3.22355 0
M  V30 4166 H 395.255 5.19123 -1.87657 0
M  V30 4167 H 395.732 4.37467 -0.389815 0
M  V30 4168 H 396.338 3.77851 -1.95214 0
M  V30 4169 N 394.653 0.992116 1.22453 0
M  V30 4170 C 395.899 0.668523 1.91464 0
M  V30 4171 C 396.232 -0.797313 1.77078 0
M  V30 4172 O 395.507 -1.5765 1.13916 0
M  V30 4173 C 395.79 1.07424 3.43703 0
M  V30 4174 C 395.643 2.59857 3.67143 0
M  V30 4175 C 396.962 0.626891 4.35612 0
M  V30 4176 H 394.081 0.244341 0.695318 0
M  V30 4177 H 396.723 1.2355 1.44345 0
M  V30 4178 H 394.873 0.591816 3.83966 0
M  V30 4179 H 396.545 3.15764 3.3629 0
M  V30 4180 H 394.788 3.01961 3.11451 0
M  V30 4181 H 395.459 2.83296 4.73759 0
M  V30 4182 H 397.935 1.04125 4.02861 0
M  V30 4183 H 396.811 0.939076 5.40807 0
M  V30 4184 H 397.072 -0.472457 4.39568 0
M  V30 4185 N 396.131 -1.37776 0.765217 0
M  V30 4186 C 397.378 -1.99849 0.326588 0
M  V30 4187 C 397.706 -1.60746 -1.09504 0
M  V30 4188 O 396.961 -0.84202 -1.76659 0
M  V30 4189 C 397.26 -3.5504 0.410053 0
M  V30 4190 C 396.926 -4.13891 1.78899 0
M  V30 4191 C 395.588 -4.29678 2.16635 0
M  V30 4192 C 397.94 -4.46236 2.69301 0
M  V30 4193 C 395.268 -4.7511 3.44221 0
M  V30 4194 C 397.62 -4.93089 3.9629 0
M  V30 4195 C 396.284 -5.07082 4.34078 0
M  V30 4196 H 395.554 -0.7313 0.119507 0
M  V30 4197 H 398.201 -1.64645 0.977968 0
M  V30 4198 H 396.506 -3.90451 -0.324878 0
M  V30 4199 H 398.203 -4.00966 0.0520699 0
M  V30 4200 H 394.793 -4.02026 1.48569 0
M  V30 4201 H 398.977 -4.3363 2.41409 0
M  V30 4202 H 394.233 -4.84129 3.73402 0
M  V30 4203 H 398.407 -5.17084 4.66472 0
M  V30 4204 H 396.034 -5.42046 5.33001 0
M  V30 4205 N 397.609 -0.515225 -1.4894 0
M  V30 4206 C 398.886 0.0879088 -1.95402 0
M  V30 4207 C 399.266 1.52745 -1.45712 0
M  V30 4208 O 398.614 2.18238 -0.677093 0
M  V30 4209 C 398.824 -0.0141055 -3.48997 0
M  V30 4210 C 400.172 0.152646 -4.24326 0
M  V30 4211 O 401.196 0.0604025 -3.56149 0
M  V30 4212 O 400.055 0.34384 -5.45417 0
M  V30 4213 H 397.149 0.0874636 -0.822362 0
M  V30 4214 H 399.695 -0.578775 -1.59525 0
M  V30 4215 H 398.467 -1.01745 -3.77841 0
M  V30 4216 H 398.09 0.692091 -3.9153 0
M  V30 4217 N 399.087 1.5561 -0.249682 0
M  V30 4218 C 400.364 1.90932 0.424761 0
M  V30 4219 C 400.744 1.17078 1.75658 0
M  V30 4220 O 400.092 0.289176 2.26663 0
M  V30 4221 C 400.302 3.43975 0.590109 0
M  V30 4222 C 401.65 4.15281 0.884714 0
M  V30 4223 O 402.674 3.49729 0.67587 0
M  V30 4224 O 401.533 5.31236 1.28259 0
M  V30 4225 H 398.627 0.794815 0.228468 0
M  V30 4226 H 401.173 1.67135 -0.293954 0
M  V30 4227 H 399.945 3.89748 -0.34818 0
M  V30 4228 H 399.568 3.73644 1.35926 0
M  V30 4229 N 400.565 -0.0233959 1.57583 0
M  V30 4230 C 401.812 -0.713063 1.8953 0
M  V30 4231 C 402.14 -1.75056 0.847673 0
M  V30 4232 O 401.395 -1.95119 -0.150636 0
M  V30 4233 C 401.694 -1.41428 3.28227 0
M  V30 4234 C 401.36 -0.512222 4.47981 0
M  V30 4235 C 400.022 -0.263785 4.80476 0
M  V30 4236 C 402.374 0.110248 5.21083 0
M  V30 4237 C 399.702 0.615804 5.83459 0
M  V30 4238 C 402.054 0.977573 6.25001 0
M  V30 4239 C 400.718 1.23542 6.55968 0
M  V30 4240 H 399.988 -0.260928 0.69354 0
M  V30 4241 H 402.635 0.0271047 1.91481 0
M  V30 4242 H 400.94 -2.22791 3.22291 0
M  V30 4243 H 402.637 -1.95355 3.50196 0
M  V30 4244 H 399.227 -0.716013 4.22577 0
M  V30 4245 H 403.411 -0.0687137 4.96252 0
M  V30 4246 H 398.667 0.82382 6.05824 0
M  V30 4247 H 402.841 1.46638 6.80786 0
M  V30 4248 H 400.468 1.91871 7.35588 0
M  V30 4249 N 402.043 -1.548 -0.295768 0
M  V30 4250 C 403.289 -1.75517 -1.02789 0
M  V30 4251 C 403.644 -0.537266 -1.84746 0
M  V30 4252 O 402.937 0.470299 -1.85738 0
M  V30 4253 C 403.131 -2.98797 -1.961 0
M  V30 4254 C 402.96 -4.3246 -1.23321 0
M  V30 4255 C 401.73 -4.96131 -0.95822 0
M  V30 4256 C 403.928 -5.10365 -0.635024 0
M  V30 4257 N 401.91 -6.1357 -0.201257 0
M  V30 4258 C 403.281 -6.19999 -0.0110937 0
M  V30 4259 C 405.336 -4.94957 -0.540594 0
M  V30 4260 C 404.039 -7.15904 0.698136 0
M  V30 4261 C 406.065 -5.91197 0.154992 0
M  V30 4262 C 405.427 -7.00203 0.767752 0
M  V30 4263 H 401.526 -0.694786 -0.358882 0
M  V30 4264 H 404.11 -1.92281 -0.305943 0
M  V30 4265 H 402.281 -2.83448 -2.6554 0
M  V30 4266 H 404.013 -3.08017 -2.62502 0
M  V30 4267 H 400.768 -4.56595 -1.25771 0
M  V30 4268 H 401.192 -6.76802 0.16389 0
M  V30 4269 H 405.834 -4.10803 -1.00003 0
M  V30 4270 H 403.552 -7.99595 1.16933 0
M  V30 4271 H 407.138 -5.81353 0.228069 0
M  V30 4272 H 406.018 -7.73393 1.29743 0
M  V30 4273 N 403.521 0.559213 -1.47345 0
M  V30 4274 C 404.468 1.66645 -1.59682 0
M  V30 4275 C 405.438 1.60168 -0.43994 0
M  V30 4276 O 406.623 1.79031 -0.659736 0
M  V30 4277 C 403.763 3.04969 -1.61518 0
M  V30 4278 C 402.876 3.21897 -2.88108 0
M  V30 4279 C 402.011 4.50608 -2.81294 0
M  V30 4280 C 401.05 4.60961 -4.02717 0
M  V30 4281 N 400.187 5.81024 -3.94151 0
M  V30 4282 H 405.027 1.55439 -2.54249 0
M  V30 4283 H 402.564 0.757219 -1.26113 0
M  V30 4284 H 404.522 3.85064 -1.60566 0
M  V30 4285 H 403.152 3.15015 -0.704645 0
M  V30 4286 H 402.204 2.35248 -2.98936 0
M  V30 4287 H 403.516 3.25412 -3.78032 0
M  V30 4288 H 402.67 5.3896 -2.7858 0
M  V30 4289 H 401.409 4.49568 -1.89049 0
M  V30 4290 H 400.414 3.71021 -4.05738 0
M  V30 4291 H 401.639 4.63761 -4.96087 0
M  V30 4292 H 399.585 5.80938 -3.04708 0
M  V30 4293 H 399.502 5.85909 -4.77752 0
M  V30 4294 H 400.77 6.71744 -3.9545 0
M  V30 4295 N 404.999 1.35443 0.805782 0
M  V30 4296 C 405.946 1.28431 1.91766 0
M  V30 4297 C 406.916 0.156102 1.65365 0
M  V30 4298 O 408.101 0.339936 1.87747 0
M  V30 4299 C 405.241 1.06301 3.2832 0
M  V30 4300 C 404.354 2.2805 3.66902 0
M  V30 4301 C 403.489 1.99064 4.92491 0
M  V30 4302 C 402.528 3.16863 5.23703 0
M  V30 4303 N 401.665 2.87647 6.40471 0
M  V30 4304 H 406.505 2.23511 1.97096 0
M  V30 4305 H 404.042 1.11105 0.964054 0
M  V30 4306 H 406 0.915012 4.07042 0
M  V30 4307 H 404.63 0.148822 3.22457 0
M  V30 4308 H 403.682 2.53711 2.83434 0
M  V30 4309 H 404.994 3.1601 3.85927 0
M  V30 4310 H 404.148 1.81099 5.7904 0
M  V30 4311 H 402.887 1.0839 4.75503 0
M  V30 4312 H 401.892 3.35404 4.35642 0
M  V30 4313 H 403.117 4.08339 5.4262 0
M  V30 4314 H 401.063 1.99568 6.24907 0
M  V30 4315 H 400.98 3.69141 6.59751 0
M  V30 4316 H 402.248 2.73226 7.30047 0
M  V30 4317 O 406.516 -0.944775 1.30982 0
M  V30 4318 H 407.207 -1.57432 1.12848 0
M  V30 END ATOM
M  V30 BEGIN BOND
M  V30 END BOND
M  V30 END CTAB
M  END
$$$$
