drugbank_target|P18850 Cyclic AMP-dependent transcription factor ATF-6 alpha (DB00852)
 OpenBabel12092121013D

  0  0  0     0  0            999 V3000
M  V30 BEGIN CTAB
M  V30 COUNTS 10494 10598 0 0 0
M  V30 BEGIN ATOM
M  V30 1 H -0.908 1.98254 -0.117106 0
M  V30 2 N 0 1.576 0 0
M  V30 3 C 0.933 2.03868 1.02534 0
M  V30 4 C 1.911 0.928543 1.3348 0
M  V30 5 O 3.095 1.19667 1.45644 0
M  V30 6 C 0.222 2.43627 2.35294 0
M  V30 7 C -0.732 3.65373 2.2001 0
M  V30 8 S 0.101 5.13292 1.52614 0
M  V30 9 C 1.257 5.56322 2.86805 0
M  V30 10 H 1.49 2.90518 0.631377 0
M  V30 11 H -0.977 1.52953 0.210867 0
M  V30 12 H 0.981 2.67203 3.11629 0
M  V30 13 H -0.358 1.57376 2.7183 0
M  V30 14 H -1.165 3.90944 3.18086 0
M  V30 15 H -1.563 3.418 1.51819 0
M  V30 16 H 0.729 5.58782 3.83104 0
M  V30 17 H 1.672 6.56266 2.65933 0
M  V30 18 H 2.08 4.83886 2.90714 0
M  V30 19 N 1.4781 -0.272755 1.55222 0
M  V30 20 C 2.7261 -1.00234 1.75492 0
M  V30 21 C 3.0471 -1.8681 0.5592 0
M  V30 22 O 2.3171 -1.91215 -0.425882 0
M  V30 23 H 0.8971 -0.373076 0.647166 0
M  V30 24 H 3.5591 -0.296926 1.92625 0
M  V30 25 H 2.6551 -1.63913 2.65592 0
M  V30 26 N 2.9562 -1.48159 -0.537278 0
M  V30 27 C 3.8662 -1.64807 -1.6696 0
M  V30 28 C 4.8822 -0.530651 -1.65711 0
M  V30 29 O 6.0582 -0.800784 -1.84796 0
M  V30 30 C 3.1232 -1.67708 -3.03438 0
M  V30 31 C 2.1842 -2.91025 -3.156 0
M  V30 32 C 1.4172 -2.93778 -4.45567 0
M  V30 33 O 1.6402 -2.05153 -5.3223 0
M  V30 34 O 0.5742 -3.85868 -4.61941 0
M  V30 35 H 4.4002 -2.6066 -1.55853 0
M  V30 36 H 1.9852 -1.31475 -0.709549 0
M  V30 37 H 3.8672 -1.7218 -3.84619 0
M  V30 38 H 2.5422 -0.750278 -3.14885 0
M  V30 39 H 1.4492 -2.92089 -2.33741 0
M  V30 40 H 2.7822 -3.83065 -3.09066 0
M  V30 41 N 4.4343 0.785586 -1.36625 0
M  V30 42 C 5.8453 1.36101 -1.27803 0
M  V30 43 C 6.1963 1.96035 0.0804875 0
M  V30 44 O 5.3213 1.92834 0.982042 0
M  V30 45 C 5.9163 2.47442 -2.31426 0
M  V30 46 C 4.4753 3.00789 -2.26281 0
M  V30 47 C 3.6223 1.73896 -2.15999 0
M  V30 48 H 6.5733 0.586928 -1.47448 0
M  V30 49 H 6.5943 3.2656 -1.95291 0
M  V30 50 H 6.1063 2.03791 -3.30289 0
M  V30 51 H 4.2073 3.48851 -1.30896 0
M  V30 52 H 4.3203 3.57343 -3.19128 0
M  V30 53 H 2.6843 1.9628 -1.62316 0
M  V30 54 H 3.4673 1.32368 -3.16755 0
M  V30 55 N 5.9124 1.20967 1.01018 0
M  V30 56 C 6.8754 0.965918 2.07853 0
M  V30 57 C 7.8754 -0.0610545 1.60684 0
M  V30 58 O 9.0654 0.175681 1.73312 0
M  V30 59 C 6.1974 0.455513 3.37843 0
M  V30 60 H 7.3904 1.91365 2.3091 0
M  V30 61 H 4.9434 1.02594 1.17916 0
M  V30 62 H 5.6784 -0.497381 3.20463 0
M  V30 63 H 5.4634 1.19622 3.73407 0
M  V30 64 H 6.9534 0.304667 4.16487 0
M  V30 65 N 7.3905 -1.2043 1.01659 0
M  V30 66 C 8.6385 -1.89423 0.704522 0
M  V30 67 C 8.9595 -1.79231 -0.768197 0
M  V30 68 O 8.2295 -1.1947 -1.55254 0
M  V30 69 H 6.8095 -0.701178 0.257602 0
M  V30 70 H 9.4715 -1.4626 1.28818 0
M  V30 71 H 8.5675 -2.96052 0.987916 0
M  V30 72 N 8.8686 -0.792821 -1.36206 0
M  V30 73 C 10.1146 -0.36733 -1.99446 0
M  V30 74 C 10.4476 1.05917 -1.62774 0
M  V30 75 O 9.7226 1.7324 -0.88421 0
M  V30 76 C 10.0056 -0.535044 -3.56103 0
M  V30 77 C 9.8586 -2.00548 -4.02617 0
M  V30 78 C 11.1776 0.0478191 -4.40074 0
M  V30 79 H 8.2966 -0.134941 -0.724541 0
M  V30 80 H 10.9386 -0.999794 -1.61568 0
M  V30 81 H 9.0886 0.00336329 -3.885 0
M  V30 82 H 10.7606 -2.60521 -3.80692 0
M  V30 83 H 9.0036 -2.50686 -3.54032 0
M  V30 84 H 9.6746 -2.07377 -5.11565 0
M  V30 85 H 12.1506 -0.411822 -4.14057 0
M  V30 86 H 11.0266 -0.0995336 -5.4881 0
M  V30 87 H 11.2876 1.14025 -4.27142 0
M  V30 88 N 10.3467 1.47872 -0.545128 0
M  V30 89 C 11.3097 2.28337 0.198717 0
M  V30 90 C 12.3097 1.36255 0.853888 0
M  V30 91 O 13.4997 1.59003 0.711606 0
M  V30 92 C 10.6317 3.15585 1.28915 0
M  V30 93 H 11.8247 2.95567 -0.507941 0
M  V30 94 H 9.3777 1.53362 -0.301616 0
M  V30 95 H 10.1127 2.53019 2.02859 0
M  V30 96 H 9.8977 3.83337 0.824309 0
M  V30 97 H 11.3877 3.76243 1.81194 0
M  V30 98 N 11.8248 0.280983 1.55075 0
M  V30 99 C 13.0728 -0.333455 1.9933 0
M  V30 100 C 13.3938 -1.55937 1.17085 0
M  V30 101 O 12.6638 -1.94143 0.261805 0
M  V30 102 H 11.2438 -0.126197 0.736263 0
M  V30 103 H 13.9058 0.387678 1.91005 0
M  V30 104 H 13.0018 -0.619292 3.05894 0
M  V30 105 N 13.3029 -1.57598 0.00835791 0
M  V30 106 C 14.5309 -1.95214 -0.68549 0
M  V30 107 C 14.9459 -0.883706 -1.66841 0
M  V30 108 O 14.3029 0.136565 -1.81988 0
M  V30 109 C 14.3539 -3.32865 -1.41007 0
M  V30 110 O 14.0749 -4.35609 -0.466552 0
M  V30 111 C 15.5759 -3.84991 -2.19765 0
M  V30 112 H 12.7959 -0.643422 -0.190392 0
M  V30 113 H 15.3399 -2.04406 0.0619607 0
M  V30 114 H 13.4949 -3.24956 -2.10908 0
M  V30 115 H 13.9089 -5.15288 -0.978699 0
M  V30 116 H 15.3829 -4.8371 -2.65948 0
M  V30 117 H 15.8599 -3.18137 -3.02796 0
M  V30 118 H 16.4659 -3.96103 -1.54864 0
M  V30 119 N 14.781 0.264519 -1.55364 0
M  V30 120 C 15.714 1.35297 -1.83766 0
M  V30 121 C 16.692 1.47171 -0.691336 0
M  V30 122 O 17.876 1.63663 -0.935238 0
M  V30 123 C 15.003 2.72847 -2.00679 0
M  V30 124 C 14.049 2.78214 -3.23263 0
M  V30 125 S 14.882 2.36601 -4.80396 0
M  V30 126 C 16.038 3.7611 -5.00292 0
M  V30 127 H 16.271 1.11003 -2.758 0
M  V30 128 H 13.804 0.464596 -1.47244 0
M  V30 129 H 15.762 3.52057 -2.11108 0
M  V30 130 H 14.423 2.94388 -1.09518 0
M  V30 131 H 13.616 3.7919 -3.3201 0
M  V30 132 H 13.218 2.07034 -3.11469 0
M  V30 133 H 15.51 4.71457 -4.86554 0
M  V30 134 H 16.453 3.7231 -6.02321 0
M  V30 135 H 16.861 3.67806 -4.28228 0
M  V30 136 N 16.2591 1.48442 0.529413 0
M  V30 137 C 17.1691 1.6569 1.66084 0
M  V30 138 C 18.1851 0.539432 1.65427 0
M  V30 139 O 19.3611 0.810572 1.84368 0
M  V30 140 C 16.4261 1.69315 3.02545 0
M  V30 141 C 15.4871 2.92694 3.14052 0
M  V30 142 C 14.7201 2.96137 4.44003 0
M  V30 143 O 14.9431 2.07973 5.31134 0
M  V30 144 O 13.8771 3.88312 4.59888 0
M  V30 145 H 17.7031 2.61483 1.54469 0
M  V30 146 H 15.2881 1.3185 0.702567 0
M  V30 147 H 17.1701 1.74217 3.83701 0
M  V30 148 H 15.8451 0.766966 3.14483 0
M  V30 149 H 14.7521 2.93324 2.32189 0
M  V30 150 H 16.0851 3.84699 3.0703 0
M  V30 151 N 17.7372 -0.778329 1.37039 0
M  V30 152 C 18.9622 -1.57248 1.35233 0
M  V30 153 C 19.3872 -1.87999 -0.0615568 0
M  V30 154 O 18.7452 -1.48734 -1.03672 0
M  V30 155 C 18.7932 -2.86353 2.19167 0
M  V30 156 O 17.8972 -3.80442 1.59178 0
M  V30 157 H 17.2382 -0.476569 0.462362 0
M  V30 158 H 19.7682 -0.963853 1.80474 0
M  V30 159 H 19.7782 -3.35519 2.32145 0
M  V30 160 H 18.4532 -2.63299 3.21942 0
M  V30 161 H 17.0302 -3.39067 1.55203 0
M  V30 162 N 19.2153 -1.21501 -1.00376 0
M  V30 163 C 20.6263 -1.03146 -1.55621 0
M  V30 164 C 20.9773 0.408375 -1.91903 0
M  V30 165 O 20.1023 1.29177 -1.73616 0
M  V30 166 C 20.6973 -1.86612 -2.82775 0
M  V30 167 C 19.2563 -1.72586 -3.34501 0
M  V30 168 C 18.4033 -1.83747 -2.07683 0
M  V30 169 H 21.3543 -1.35505 -0.826081 0
M  V30 170 H 21.3753 -1.3771 -3.54706 0
M  V30 171 H 20.8873 -2.91399 -2.56336 0
M  V30 172 H 18.9883 -0.704877 -3.65872 0
M  V30 173 H 19.1013 -2.54623 -4.05837 0
M  V30 174 H 17.4653 -1.27069 -2.20739 0
M  V30 175 H 18.2483 -2.90044 -1.83655 0
M  V30 176 N 20.6934 1.19889 -1.02296 0
M  V30 177 C 21.9404 1.8942 -0.715972 0
M  V30 178 C 22.2684 1.79251 0.754944 0
M  V30 179 O 21.5234 1.17526 1.56481 0
M  V30 180 C 21.8224 3.39883 -1.10518 0
M  V30 181 C 21.4884 3.70254 -2.57337 0
M  V30 182 C 20.1504 3.78254 -2.97452 0
M  V30 183 C 22.5024 3.84052 -3.52354 0
M  V30 184 C 19.8304 3.97514 -4.31509 0
M  V30 185 C 22.1824 4.04824 -4.86108 0
M  V30 186 C 20.8464 4.11054 -5.25919 0
M  V30 187 H 20.1164 0.693138 -0.261993 0
M  V30 188 H 22.7634 1.42012 -1.28472 0
M  V30 189 H 21.0684 3.8915 -0.454953 0
M  V30 190 H 22.7654 3.9199 -0.845261 0
M  V30 191 H 19.3554 3.64632 -2.25258 0
M  V30 192 H 23.5394 3.77221 -3.22518 0
M  V30 193 H 18.7954 4.00574 -4.61898 0
M  V30 194 H 22.9694 4.14442 -5.59653 0
M  V30 195 H 20.5964 4.2573 -6.29808 0
M  V30 196 N 22.1715 0.800033 1.35784 0
M  V30 197 C 23.3965 0.388511 2.03729 0
M  V30 198 C 23.8215 -0.990481 1.5991 0
M  V30 199 O 23.1795 -1.64013 0.772612 0
M  V30 200 C 23.2275 0.4726 3.5749 0
M  V30 201 O 22.3315 -0.51646 4.09153 0
M  V30 202 H 21.6725 0.163271 0.643614 0
M  V30 203 H 24.2025 1.0841 1.73518 0
M  V30 204 H 24.2125 0.34003 4.06581 0
M  V30 205 H 22.8875 1.47848 3.88734 0
M  V30 206 H 21.4645 -0.344673 3.71304 0
M  V30 207 N 23.6496 -1.47581 0.552962 0
M  V30 208 C 25.0606 -1.86324 0.118463 0
M  V30 209 C 25.4116 -1.46006 -1.3106 0
M  V30 210 O 24.5366 -0.861182 -1.98526 0
M  V30 211 C 25.1316 -3.3816 0.20821 0
M  V30 212 C 23.6906 -3.7601 -0.171226 0
M  V30 213 C 22.8376 -2.71634 0.557686 0
M  V30 214 H 25.7886 -1.39159 0.762928 0
M  V30 215 H 25.8096 -3.76141 -0.574278 0
M  V30 216 H 25.3216 -3.67473 1.24841 0
M  V30 217 H 23.4226 -3.52313 -1.21269 0
M  V30 218 H 23.5356 -4.78745 0.184379 0
M  V30 219 H 21.8996 -2.547 0.00125792 0
M  V30 220 H 22.6826 -3.0379 1.59896 0
M  V30 221 N 25.1277 -0.289203 -1.54924 0
M  V30 222 C 26.3757 0.322879 -1.99504 0
M  V30 223 C 26.6967 1.55313 -1.1791 0
M  V30 224 O 25.9667 1.94001 -0.272097 0
M  V30 225 H 24.5467 0.122291 -0.736922 0
M  V30 226 H 27.2087 -0.397802 -1.90797 0
M  V30 227 H 26.3047 0.603061 -3.06218 0
M  V30 228 N 26.6058 1.57591 -0.0167156 0
M  V30 229 C 27.5358 2.12496 0.967858 0
M  V30 230 C 28.5168 1.03807 1.34752 0
M  V30 231 O 29.7018 1.31577 1.42833 0
M  V30 232 C 26.8318 2.64194 2.25431 0
M  V30 233 C 25.7858 3.77559 2.01576 0
M  V30 234 C 25.1118 4.15636 3.36379 0
M  V30 235 C 26.4118 5.04151 1.36489 0
M  V30 236 H 28.1058 2.95013 0.510643 0
M  V30 237 H 25.6518 1.41915 0.244181 0
M  V30 238 H 27.6048 3.01236 2.94678 0
M  V30 239 H 26.3288 1.78821 2.73296 0
M  V30 240 H 24.9878 3.40937 1.34751 0
M  V30 241 H 24.6358 3.27263 3.81979 0
M  V30 242 H 24.3358 4.92022 3.21229 0
M  V30 243 H 25.8598 4.5525 4.06915 0
M  V30 244 H 27.2738 5.38857 1.95718 0
M  V30 245 H 25.6708 5.85453 1.31776 0
M  V30 246 H 26.7408 4.83733 0.336219 0
M  V30 247 N 28.0839 -0.256276 1.55502 0
M  V30 248 C 29.3309 -0.985619 1.76895 0
M  V30 249 C 29.6589 -1.85671 0.579355 0
M  V30 250 O 28.9139 -1.90744 -0.437651 0
M  V30 251 C 29.2129 -1.88432 3.03691 0
M  V30 252 C 28.8789 -1.16936 4.35473 0
M  V30 253 C 27.5409 -0.97173 4.71286 0
M  V30 254 C 29.8929 -0.661889 5.1698 0
M  V30 255 C 27.2209 -0.254179 5.86149 0
M  V30 256 C 29.5729 0.042149 6.32586 0
M  V30 257 C 28.2369 0.25134 6.67027 0
M  V30 258 H 27.5069 -0.360663 0.647304 0
M  V30 259 H 30.1539 -0.256483 1.89775 0
M  V30 260 H 28.4589 -2.68021 2.85783 0
M  V30 261 H 30.1559 -2.45015 3.1744 0
M  V30 262 H 26.7459 -1.33332 4.07333 0
M  V30 263 H 30.9299 -0.802145 4.89775 0
M  V30 264 H 26.1859 -0.0815408 6.11346 0
M  V30 265 H 30.3599 0.443049 6.94989 0
M  V30 266 H 27.9869 0.809314 7.5588 0
M  V30 267 N 29.562 -1.4872 -0.521534 0
M  V30 268 C 30.512 -1.60269 -1.62166 0
M  V30 269 C 31.496 -0.45935 -1.54204 0
M  V30 270 O 32.688 -0.711241 -1.62081 0
M  V30 271 C 29.817 -1.65344 -3.00859 0
M  V30 272 C 28.903 -2.85187 -3.13894 0
M  V30 273 N 29.294 -4.09509 -2.96877 0
M  V30 274 C 27.592 -2.82695 -3.44963 0
M  V30 275 C 28.293 -4.89959 -3.13552 0
M  V30 276 N 27.269 -4.22934 -3.41508 0
M  V30 277 H 31.071 -2.5413 -1.47632 0
M  V30 278 H 28.585 -1.45209 -0.727194 0
M  V30 279 H 30.582 -1.71713 -3.79895 0
M  V30 280 H 29.242 -0.726058 -3.16478 0
M  V30 281 H 30.253 -4.39814 -2.73467 0
M  V30 282 H 26.93 -1.99249 -3.66887 0
M  V30 283 H 28.32 -5.98654 -3.05061 0
M  V30 284 N 31.0401 0.771051 -1.3745 0
M  V30 285 C 32.4561 1.07171 -1.18265 0
M  V30 286 C 32.6561 2.01491 -0.019287 0
M  V30 287 O 31.7121 2.44244 0.640408 0
M  V30 288 C 33.0251 1.66854 -2.50161 0
M  V30 289 C 34.5731 1.79109 -2.56689 0
M  V30 290 C 35.0481 2.42205 -3.88717 0
M  V30 291 N 36.5391 2.49655 -3.90162 0
M  V30 292 C 37.2741 2.9933 -4.8907 0
M  V30 293 N 36.7701 3.49172 -5.98374 0
M  V30 294 N 38.5631 2.9821 -4.76474 0
M  V30 295 H 30.7141 0.144796 -2.11906 0
M  V30 296 H 32.9771 0.126863 -0.939473 0
M  V30 297 H 32.6831 1.05017 -3.35655 0
M  V30 298 H 32.5571 2.6614 -2.673 0
M  V30 299 H 34.9441 2.40077 -1.71601 0
M  V30 300 H 35.0251 0.785757 -2.43433 0
M  V30 301 H 34.6691 1.81875 -4.74219 0
M  V30 302 H 34.5991 3.43345 -3.99276 0
M  V30 303 H 37.0901 2.14383 -3.11205 0
M  V30 304 H 37.4031 3.8548 -6.69795 0
M  V30 305 H 35.7481 3.47275 -6.02018 0
M  V30 306 H 38.9391 2.58572 -3.90203 0
M  V30 307 H 39.1121 3.36613 -5.53711 0
M  V30 308 N 32.5182 1.22032 0.997298 0
M  V30 309 C 33.4482 1.01065 2.10495 0
M  V30 310 C 34.4292 -0.0669542 1.69968 0
M  V30 311 O 35.6142 0.0943987 1.9397 0
M  V30 312 C 32.7442 0.582874 3.42374 0
M  V30 313 C 31.6982 1.60592 3.96729 0
M  V30 314 C 31.0242 1.03412 5.24605 0
M  V30 315 C 32.3242 2.99478 4.27914 0
M  V30 316 H 34.0182 1.93708 2.28292 0
M  V30 317 H 31.5642 0.932761 1.09707 0
M  V30 318 H 33.5172 0.423332 4.19268 0
M  V30 319 H 32.2412 -0.379213 3.24391 0
M  V30 320 H 30.9002 1.75316 3.21963 0
M  V30 321 H 30.5482 0.063518 5.0296 0
M  V30 322 H 30.2482 1.71754 5.61938 0
M  V30 323 H 31.7722 0.886066 6.04137 0
M  V30 324 H 33.1862 2.88153 4.95622 0
M  V30 325 H 31.5832 3.64903 4.76409 0
M  V30 326 H 32.6532 3.49742 3.3587 0
M  V30 327 N 33.9963 -1.19345 1.0293 0
M  V30 328 C 35.2733 -1.84811 0.640642 0
M  V30 329 C 35.6533 -1.91855 -0.88062 0
M  V30 330 O 35.0013 -1.43587 -1.7775 0
M  V30 331 C 35.2113 -3.23755 1.30321 0
M  V30 332 C 36.5593 -3.99912 1.42673 0
M  V30 333 O 37.5833 -3.33155 1.26041 0
M  V30 334 O 36.4423 -5.19494 1.6967 0
M  V30 335 H 33.5363 -0.796443 0.222726 0
M  V30 336 H 36.0823 -1.26831 1.12748 0
M  V30 337 H 34.8543 -3.13466 2.34211 0
M  V30 338 H 34.4773 -3.89381 0.804261 0
M  V30 339 N 35.4744 -0.807222 -1.35358 0
M  V30 340 C 36.3844 -0.219594 -2.3357 0
M  V30 341 C 37.4004 0.637734 -1.61892 0
M  V30 342 O 38.5764 0.549336 -1.93763 0
M  V30 343 C 35.6414 0.62158 -3.41083 0
M  V30 344 C 34.7024 -0.256315 -4.28534 0
M  V30 345 C 33.9354 0.544807 -5.30912 0
M  V30 346 O 34.1584 1.77944 -5.41934 0
M  V30 347 O 33.0924 -0.0646478 -6.01865 0
M  V30 348 H 36.9184 -1.03208 -2.85625 0
M  V30 349 H 34.5034 -0.569025 -1.38139 0
M  V30 350 H 36.3854 1.10067 -4.06772 0
M  V30 351 H 35.0604 1.41165 -2.91297 0
M  V30 352 H 33.9674 -0.782559 -3.65823 0
M  V30 353 H 35.3004 -1.01034 -4.81719 0
M  V30 354 N 36.9525 1.47285 -0.560781 0
M  V30 355 C 38.2295 1.9558 0.0277798 0
M  V30 356 C 38.6095 1.5034 1.48192 0
M  V30 357 O 37.9575 0.743882 2.16052 0
M  V30 358 C 38.1675 3.48789 -0.121418 0
M  V30 359 C 39.5155 4.24594 0.0220912 0
M  V30 360 O 40.5395 3.56166 -0.0491439 0
M  V30 361 O 39.3985 5.46217 0.175958 0
M  V30 362 H 36.4925 0.824663 0.0621342 0
M  V30 363 H 39.0385 1.5767 -0.627556 0
M  V30 364 H 37.8105 3.74533 -1.13316 0
M  V30 365 H 37.4335 3.93473 0.571366 0
M  V30 366 N 38.4306 0.297415 1.54768 0
M  V30 367 C 39.6766 -0.306263 2.01081 0
M  V30 368 C 40.0316 -1.518 1.18214 0
M  V30 369 O 39.3246 -1.89967 0.249613 0
M  V30 370 C 39.5186 -0.717561 3.50123 0
M  V30 371 C 39.3476 0.45277 4.47415 0
M  V30 372 C 38.1176 0.943651 4.9641 0
M  V30 373 C 40.3156 1.29657 4.97688 0
M  V30 374 N 38.2976 2.08112 5.77549 0
M  V30 375 C 39.6686 2.28158 5.76493 0
M  V30 376 C 41.7236 1.32735 4.79881 0
M  V30 377 C 40.4266 3.29509 6.39387 0
M  V30 378 C 42.4526 2.32943 5.43591 0
M  V30 379 C 41.8146 3.30174 6.22225 0
M  V30 380 H 37.9136 -0.0766274 0.778237 0
M  V30 381 H 40.4976 0.426515 1.89971 0
M  V30 382 H 38.6686 -1.41952 3.6153 0
M  V30 383 H 40.4006 -1.30047 3.83236 0
M  V30 384 H 37.1556 0.51922 4.70745 0
M  V30 385 H 37.5796 2.65414 6.22803 0
M  V30 386 H 42.2216 0.589375 4.18672 0
M  V30 387 H 39.9396 4.04228 6.99732 0
M  V30 388 H 43.5256 2.36094 5.31743 0
M  V30 389 H 42.4056 4.06445 6.7065 0
M  V30 390 N 39.9087 -1.5758 0.0250728 0
M  V30 391 C 41.1857 -1.82917 -0.692873 0
M  V30 392 C 41.5657 -0.908137 -1.90568 0
M  V30 393 O 40.9137 0.0372298 -2.2847 0
M  V30 394 C 41.1237 -3.32034 -1.07492 0
M  V30 395 C 42.4717 -3.98406 -1.46826 0
M  V30 396 O 43.4957 -3.36505 -1.16801 0
M  V30 397 O 42.3547 -5.07497 -2.02754 0
M  V30 398 H 39.4487 -0.754079 -0.33955 0
M  V30 399 H 41.9947 -1.69619 0.0524456 0
M  V30 400 H 40.7667 -3.90728 -0.211552 0
M  V30 401 H 40.3897 -3.50424 -1.87854 0
M  V30 402 N 41.3868 0.248026 -1.55636 0
M  V30 403 C 42.6118 0.998028 -1.81808 0
M  V30 404 C 43.0368 1.78207 -0.601979 0
M  V30 405 O 42.3948 1.75653 0.448961 0
M  V30 406 C 42.4428 1.9125 -3.05705 0
M  V30 407 O 41.5468 3.00406 -2.82542 0
M  V30 408 H 40.8878 0.284045 -0.600179 0
M  V30 409 H 43.4178 0.269357 -2.02819 0
M  V30 410 H 43.4278 2.32737 -3.35108 0
M  V30 411 H 42.1028 1.33602 -3.93857 0
M  V30 412 H 40.6798 2.63056 -2.64303 0
M  V30 413 N 42.8649 1.48995 0.513639 0
M  V30 414 C 43.8279 1.64229 1.59879 0
M  V30 415 C 44.8279 0.514696 1.5234 0
M  V30 416 O 46.0179 0.78087 1.55718 0
M  V30 417 C 43.1499 1.62783 2.99524 0
M  V30 418 H 44.3429 2.61004 1.47705 0
M  V30 419 H 41.8959 1.37837 0.736936 0
M  V30 420 H 42.6309 0.675461 3.17188 0
M  V30 421 H 42.4159 2.4466 3.06404 0
M  V30 422 H 43.9059 1.76669 3.78388 0
M  V30 423 N 44.343 -0.763751 1.37857 0
M  V30 424 C 45.273 -1.89103 1.36975 0
M  V30 425 C 46.254 -1.68439 0.237152 0
M  V30 426 O 47.439 -1.8918 0.438713 0
M  V30 427 C 44.569 -3.26496 1.18395 0
M  V30 428 C 43.523 -3.61741 2.28751 0
M  V30 429 C 42.849 -4.97762 1.95286 0
M  V30 430 C 44.149 -3.67665 3.70972 0
M  V30 431 H 45.843 -1.90099 2.31307 0
M  V30 432 H 43.389 -0.91319 1.11341 0
M  V30 433 H 45.342 -4.05003 1.16406 0
M  V30 434 H 44.066 -3.25955 0.205215 0
M  V30 435 H 42.725 -2.85547 2.29909 0
M  V30 436 H 42.373 -4.93769 0.959221 0
M  V30 437 H 42.073 -5.22313 2.69189 0
M  V30 438 H 43.597 -5.7866 1.94898 0
M  V30 439 H 45.011 -4.36307 3.719 0
M  V30 440 H 43.408 -4.03718 4.43995 0
M  V30 441 H 44.478 -2.68134 4.0402 0
M  V30 442 N 45.8211 -1.22559 -0.990812 0
M  V30 443 C 47.0681 -1.05141 -1.73065 0
M  V30 444 C 47.3961 0.413191 -1.9006 0
M  V30 445 O 46.6511 1.32257 -1.44245 0
M  V30 446 C 46.9501 -1.71011 -3.13831 0
M  V30 447 C 46.6161 -3.20911 -3.16745 0
M  V30 448 C 45.2781 -3.61812 -3.17247 0
M  V30 449 C 47.6301 -4.16846 -3.12872 0
M  V30 450 C 44.9581 -4.97127 -3.1158 0
M  V30 451 C 47.3101 -5.5214 -3.08746 0
M  V30 452 C 45.9741 -5.92419 -3.07565 0
M  V30 453 H 45.2441 -0.384738 -0.633291 0
M  V30 454 H 47.8911 -1.5235 -1.16025 0
M  V30 455 H 46.1961 -1.16133 -3.74193 0
M  V30 456 H 47.8931 -1.55023 -3.69823 0
M  V30 457 H 44.4831 -2.88344 -3.17105 0
M  V30 458 H 48.6671 -3.86263 -3.11632 0
M  V30 459 H 43.9231 -5.27562 -3.09012 0
M  V30 460 H 48.0971 -6.26201 -3.04705 0
M  V30 461 H 45.7241 -6.97236 -3.02929 0
M  V30 462 N 47.2992 1.18797 -1.03562 0
M  V30 463 C 48.2622 2.20464 -0.626769 0
M  V30 464 C 49.2622 1.57721 0.313173 0
M  V30 465 O 50.4522 1.73917 0.0992615 0
M  V30 466 C 47.5842 3.40802 0.0818498 0
M  V30 467 H 48.7772 2.58149 -1.5264 0
M  V30 468 H 46.3302 1.32593 -0.827578 0
M  V30 469 H 47.0652 3.08642 0.995518 0
M  V30 470 H 46.8502 3.8758 -0.593652 0
M  V30 471 H 48.3402 4.16092 0.354584 0
M  V30 472 N 48.7773 0.814389 1.34928 0
M  V30 473 C 49.6873 0.231978 2.3345 0
M  V30 474 C 50.7033 -0.629139 1.62228 0
M  V30 475 O 51.8793 -0.539052 1.94052 0
M  V30 476 C 48.9443 -0.603482 3.41407 0
M  V30 477 C 48.0053 0.279037 4.28392 0
M  V30 478 C 47.2383 -0.516643 5.31193 0
M  V30 479 O 47.4613 -1.75068 5.4287 0
M  V30 480 O 46.3953 0.0965652 6.01823 0
M  V30 481 H 50.2213 1.04721 2.85074 0
M  V30 482 H 47.8063 0.576343 1.37836 0
M  V30 483 H 49.6883 -1.07908 4.0735 0
M  V30 484 H 48.3633 -1.39618 2.92042 0
M  V30 485 H 47.2703 0.801948 3.65403 0
M  V30 486 H 48.6033 1.03588 4.81176 0
M  V30 487 N 50.2554 -1.46986 0.568584 0
M  V30 488 C 51.1854 -2.32946 -0.160753 0
M  V30 489 C 52.1664 -1.44487 -0.897631 0
M  V30 490 O 53.3514 -1.73327 -0.875867 0
M  V30 491 C 50.4814 -3.26494 -1.18403 0
M  V30 492 C 49.4354 -4.24282 -0.562895 0
M  V30 493 C 48.7614 -5.07236 -1.69163 0
M  V30 494 C 50.0614 -5.19989 0.490761 0
M  V30 495 H 51.7554 -2.94175 0.556916 0
M  V30 496 H 49.3014 -1.4146 0.26927 0
M  V30 497 H 51.2544 -3.85477 -1.70251 0
M  V30 498 H 49.9784 -2.63343 -1.93179 0
M  V30 499 H 48.6374 -3.66541 -0.0656164 0
M  V30 500 H 48.2854 -4.4048 -2.42871 0
M  V30 501 H 47.9854 -5.7345 -1.28174 0
M  V30 502 H 49.5094 -5.6908 -2.21314 0
M  V30 503 H 50.9234 -5.73271 0.0579047 0
M  V30 504 H 49.3204 -5.94469 0.820165 0
M  V30 505 H 50.3904 -4.64777 1.3824 0
M  V30 506 N 51.7335 -0.305618 -1.54608 0
M  V30 507 C 52.9815 0.301701 -1.99835 0
M  V30 508 C 53.3025 1.54054 -1.19551 0
M  V30 509 O 52.5725 1.93702 -0.292658 0
M  V30 510 H 51.1525 0.114468 -0.738178 0
M  V30 511 H 53.8145 -0.418016 -1.90364 0
M  V30 512 H 52.9105 0.570548 -3.06841 0
M  V30 513 N 53.2116 1.57565 -0.0334293 0
M  V30 514 C 54.4416 1.95996 0.653398 0
M  V30 515 C 54.8496 0.908749 1.65947 0
M  V30 516 O 54.1926 -0.117471 1.83324 0
M  V30 517 C 54.2546 3.30589 1.41249 0
M  V30 518 C 53.9186 4.53503 0.564263 0
M  V30 519 C 54.9156 5.19647 -0.16225 0
M  V30 520 C 52.6006 4.99801 0.500398 0
M  V30 521 C 54.5946 6.30412 -0.941255 0
M  V30 522 C 52.2816 6.10448 -0.282308 0
M  V30 523 C 53.2796 6.75612 -1.00184 0
M  V30 524 O 52.9676 7.84134 -1.77171 0
M  V30 525 H 52.6996 0.65027 0.184728 0
M  V30 526 H 55.2536 2.05199 -0.0907841 0
M  V30 527 H 53.4836 3.17888 2.20191 0
M  V30 528 H 55.1726 3.53892 1.98784 0
M  V30 529 H 55.9386 4.84846 -0.12227 0
M  V30 530 H 51.8176 4.48883 1.05002 0
M  V30 531 H 55.3616 6.81208 -1.50339 0
M  V30 532 H 51.2586 6.44686 -0.323989 0
M  V30 533 H 52.0266 8.00822 -1.69194 0
M  V30 534 N 54.6897 -0.239769 1.55765 0
M  V30 535 C 55.9367 -0.966801 1.7793 0
M  V30 536 C 56.2647 -1.85046 0.599015 0
M  V30 537 O 55.5197 -1.91197 -0.417395 0
M  V30 538 C 55.8187 -1.852 3.05672 0
M  V30 539 C 55.4847 -1.1231 4.36689 0
M  V30 540 C 54.1467 -0.921689 4.72291 0
M  V30 541 C 56.4987 -0.607019 5.17653 0
M  V30 542 C 53.8267 -0.191996 5.86386 0
M  V30 543 C 56.1787 0.109241 6.32506 0
M  V30 544 C 54.8427 0.322073 6.66723 0
M  V30 545 H 54.1127 -0.353778 0.651093 0
M  V30 546 H 56.7597 -0.23634 1.90036 0
M  V30 547 H 55.0647 -2.64975 2.8861 0
M  V30 548 H 56.7617 -2.41635 3.20021 0
M  V30 549 H 53.3517 -1.29004 4.08725 0
M  V30 550 H 57.5357 -0.750153 4.90598 0
M  V30 551 H 52.7917 -0.0166949 6.11398 0
M  V30 552 H 56.9657 0.516737 6.9448 0
M  V30 553 H 54.5927 0.88944 7.54979 0
M  V30 554 N 56.1678 -1.49265 -0.50573 0
M  V30 555 C 57.3958 -1.62215 -1.28429 0
M  V30 556 C 57.8108 -0.291697 -1.86533 0
M  V30 557 O 57.1678 0.722233 -1.67601 0
M  V30 558 C 57.2188 -2.68735 -2.41793 0
M  V30 559 O 56.9398 -3.96619 -1.86078 0
M  V30 560 C 58.4408 -2.92346 -3.3324 0
M  V30 561 H 55.6608 -0.546239 -0.389697 0
M  V30 562 H 58.2048 -1.95265 -0.607609 0
M  V30 563 H 56.3598 -2.38476 -3.053 0
M  V30 564 H 56.7738 -4.55256 -2.60465 0
M  V30 565 H 58.2478 -3.70623 -4.09075 0
M  V30 566 H 58.7248 -2.02081 -3.89948 0
M  V30 567 H 59.3308 -3.24003 -2.75503 0
M  V30 568 N 57.6459 0.756429 -1.3826 0
M  V30 569 C 58.9229 1.50584 -1.24835 0
M  V30 570 C 59.3029 2.10556 0.151485 0
M  V30 571 O 58.6509 1.96825 1.1607 0
M  V30 572 C 58.8609 2.57448 -2.3563 0
M  V30 573 C 60.2089 3.24429 -2.73917 0
M  V30 574 O 61.2329 2.67751 -2.34921 0
M  V30 575 O 60.0919 4.26937 -3.41156 0
M  V30 576 H 57.1859 0.667664 -0.48801 0
M  V30 577 H 59.7319 0.792083 -1.5008 0
M  V30 578 H 58.5039 2.11362 -3.29305 0
M  V30 579 H 58.1269 3.36408 -2.11933 0
M  V30 580 N 59.124 1.23083 0.984299 0
M  V30 581 C 60.352 1.08714 1.76037 0
M  V30 582 C 60.767 -0.361691 1.85303 0
M  V30 583 O 60.124 -1.25034 1.32939 0
M  V30 584 C 60.175 1.70206 3.18923 0
M  V30 585 O 59.896 3.09423 3.10144 0
M  V30 586 C 61.397 1.61227 4.12941 0
M  V30 587 H 58.617 0.380664 0.552572 0
M  V30 588 H 61.161 1.62853 1.23689 0
M  V30 589 H 59.316 1.20109 3.6831 0
M  V30 590 H 59.73 3.39188 4.00065 0
M  V30 591 H 61.204 2.08962 5.10919 0
M  V30 592 H 61.681 0.570375 4.35481 0
M  V30 593 H 62.287 2.10671 3.69456 0
M  V30 594 N 60.6021 -1.18246 1.0419 0
M  V30 595 C 61.8791 -1.84121 0.660208 0
M  V30 596 C 62.2591 -1.92778 -0.860221 0
M  V30 597 O 61.6071 -1.45464 -1.76217 0
M  V30 598 C 61.8171 -3.22355 1.33747 0
M  V30 599 C 63.1651 -3.98376 1.46906 0
M  V30 600 O 64.1891 -3.31799 1.29568 0
M  V30 601 O 63.0481 -5.17665 1.75171 0
M  V30 602 H 60.1421 -0.794036 0.231161 0
M  V30 603 H 62.6881 -1.25628 1.14087 0
M  V30 604 H 61.4601 -3.10964 2.37522 0
M  V30 605 H 61.0831 -3.88506 0.845515 0
M  V30 606 N 62.0802 -0.821533 -1.34494 0
M  V30 607 C 62.9902 -0.244355 -2.33324 0
M  V30 608 C 64.0062 0.620527 -1.62559 0
M  V30 609 O 65.1822 0.528754 -1.94335 0
M  V30 610 C 62.2472 0.585368 -3.41723 0
M  V30 611 C 61.3082 -0.301752 -4.28238 0
M  V30 612 C 60.5412 0.488466 -5.3146 0
M  V30 613 O 60.7642 1.72186 -5.4379 0
M  V30 614 O 59.6982 -0.12848 -6.01763 0
M  V30 615 H 63.5242 -1.06231 -2.84515 0
M  V30 616 H 61.1092 -0.583645 -1.37528 0
M  V30 617 H 62.9912 1.05747 -4.07916 0
M  V30 618 H 61.6662 1.38068 -2.92778 0
M  V30 619 H 60.5732 -0.821315 -3.64973 0
M  V30 620 H 61.9062 -1.06138 -4.8062 0
M  V30 621 N 63.5583 1.46682 -0.576371 0
M  V30 622 C 64.4883 2.33028 0.148397 0
M  V30 623 C 65.4693 1.44961 0.889956 0
M  V30 624 O 66.6543 1.73789 0.866662 0
M  V30 625 C 63.7843 3.27117 1.1667 0
M  V30 626 C 62.7383 4.24575 0.540386 0
M  V30 627 C 62.0643 5.08126 1.6647 0
M  V30 628 C 63.3643 5.19722 -0.518331 0
M  V30 629 H 65.0583 2.93875 -0.572509 0
M  V30 630 H 62.6043 1.41315 -0.276768 0
M  V30 631 H 64.5573 3.86374 1.68204 0
M  V30 632 H 63.2813 2.64364 1.9178 0
M  V30 633 H 61.9403 3.66571 0.0461769 0
M  V30 634 H 61.5883 4.41762 2.40531 0
M  V30 635 H 61.2883 5.74122 1.25131 0
M  V30 636 H 62.8123 5.70246 2.18293 0
M  V30 637 H 64.2263 5.73232 -0.0883058 0
M  V30 638 H 62.6233 5.94026 -0.851679 0
M  V30 639 H 63.6933 4.64037 -1.40703 0
M  V30 640 N 65.0364 0.313813 1.54444 0
M  V30 641 C 65.9684 -0.590425 2.21465 0
M  V30 642 C 66.9814 -1.08753 1.21147 0
M  V30 643 O 68.1704 -1.00278 1.4767 0
M  V30 644 C 65.2704 -1.82179 2.85769 0
M  V30 645 C 64.4434 -1.46502 4.12136 0
M  V30 646 C 63.5024 -2.55288 4.60124 0
M  V30 647 O 62.5284 -2.19842 5.25032 0
M  V30 648 N 63.7304 -3.86053 4.33525 0
M  V30 649 H 66.4954 -0.0166033 2.99695 0
M  V30 650 H 64.0564 0.136578 1.61323 0
M  V30 651 H 66.0484 -2.54328 3.14801 0
M  V30 652 H 64.6184 -2.30369 2.11303 0
M  V30 653 H 63.8384 -0.575595 3.89975 0
M  V30 654 H 65.1264 -1.20221 4.94393 0
M  V30 655 H 64.5244 -4.17654 3.81552 0
M  V30 656 H 63.0814 -4.54461 4.67235 0
M  V30 657 N 66.5145 -1.57545 0.0417849 0
M  V30 658 C 67.4445 -2.14009 -0.933929 0
M  V30 659 C 68.4255 -1.05938 -1.33083 0
M  V30 660 O 69.6105 -1.33833 -1.40721 0
M  V30 661 C 66.7405 -2.67747 -2.21199 0
M  V30 662 C 65.6945 -3.80718 -1.95544 0
M  V30 663 C 65.0205 -4.20935 -3.29724 0
M  V30 664 C 66.3205 -5.06258 -1.28452 0
M  V30 665 H 68.0145 -2.95788 -0.463645 0
M  V30 666 H 65.5605 -1.42285 -0.221573 0
M  V30 667 H 67.5135 -3.05886 -2.89848 0
M  V30 668 H 66.2375 -1.83147 -2.70416 0
M  V30 669 H 64.8965 -3.43037 -1.2931 0
M  V30 670 H 64.5445 -3.33298 -3.76724 0
M  V30 671 H 64.2445 -4.9707 -3.13361 0
M  V30 672 H 65.7685 -4.61666 -3.9962 0
M  V30 673 H 67.1825 -5.41903 -1.8712 0
M  V30 674 H 65.5795 -5.87475 -1.22445 0
M  V30 675 H 66.6495 -4.84207 -0.259219 0
M  V30 676 N 67.9926 0.231505 -1.5589 0
M  V30 677 C 68.9026 1.308 -1.94752 0
M  V30 678 C 69.9186 1.51826 -0.849989 0
M  V30 679 O 71.0946 1.6515 -1.15271 0
M  V30 680 C 68.1596 2.63968 -2.24771 0
M  V30 681 C 67.2206 2.51331 -3.48039 0
M  V30 682 C 66.4536 3.78148 -3.76616 0
M  V30 683 O 66.6766 4.80722 -3.07022 0
M  V30 684 O 65.6106 3.75857 -4.70123 0
M  V30 685 H 69.4366 1.0083 -2.86474 0
M  V30 686 H 67.0216 0.433547 -1.42971 0
M  V30 687 H 68.9036 3.42633 -2.45318 0
M  V30 688 H 67.5786 2.9364 -1.36225 0
M  V30 689 H 66.4856 1.709 -3.32782 0
M  V30 690 H 67.8186 2.26601 -4.36936 0
M  V30 691 N 69.4707 1.49531 0.497807 0
M  V30 692 C 70.4337 1.65916 1.58128 0
M  V30 693 C 71.4337 0.530825 1.51786 0
M  V30 694 O 72.6237 0.797342 1.54881 0
M  V30 695 C 69.7557 1.65951 2.9778 0
M  V30 696 H 70.9487 2.62556 1.44929 0
M  V30 697 H 68.5017 1.38611 0.722275 0
M  V30 698 H 69.2367 0.709065 3.16453 0
M  V30 699 H 69.0217 2.47897 3.03792 0
M  V30 700 H 70.5117 1.80673 3.76493 0
M  V30 701 N 70.9488 -0.749086 1.3866 0
M  V30 702 C 71.9118 -1.84457 1.36045 0
M  V30 703 C 72.9118 -1.58682 0.260122 0
M  V30 704 O 74.1018 -1.66343 0.517261 0
M  V30 705 C 71.2338 -3.22008 1.11911 0
M  V30 706 H 72.4268 -1.88182 2.33512 0
M  V30 707 H 69.9798 -0.951266 1.24019 0
M  V30 708 H 70.7148 -3.2395 0.150686 0
M  V30 709 H 70.4998 -3.42111 1.91579 0
M  V30 710 H 71.9898 -4.0208 1.12788 0
M  V30 711 N 72.4269 -1.23603 -0.977757 0
M  V30 712 C 73.3749 -1.01704 -2.09187 0
M  V30 713 C 74.3689 0.0448214 -1.69341 0
M  V30 714 O 75.5749 -0.108902 -1.7967 0
M  V30 715 H 71.9499 -0.311803 -0.684312 0
M  V30 716 H 73.9209 -1.96207 -2.24823 0
M  V30 717 C 72.6699 -0.627746 -3.41986 0
M  V30 718 H 71.9929 -1.43656 -3.73099 0
M  V30 719 H 73.4329 -0.514053 -4.20872 0
M  V30 720 C 71.8919 0.664238 -3.30287 0
M  V30 721 O 72.4219 1.71268 -3.6336 0
M  V30 722 N 70.6279 0.641156 -2.83439 0
M  V30 723 H 70.1749 -0.212376 -2.56723 0
M  V30 724 H 70.1329 1.50583 -2.75993 0
M  V30 725 N 73.905 1.17692 -1.04816 0
M  V30 726 C 74.815 2.25229 -0.65643 0
M  V30 727 C 75.831 1.71018 0.320761 0
M  V30 728 O 77.007 2.00649 0.173805 0
M  V30 729 C 74.072 3.46684 -0.0332629 0
M  V30 730 C 73.133 4.15997 -1.06042 0
M  V30 731 C 72.366 5.31654 -0.466893 0
M  V30 732 O 72.589 5.65777 0.724758 0
M  V30 733 O 71.523 5.89831 -1.1993 0
M  V30 734 H 75.349 2.61016 -1.55255 0
M  V30 735 H 72.934 1.24919 -0.81949 0
M  V30 736 H 74.816 4.20234 0.313256 0
M  V30 737 H 73.491 3.12703 0.836566 0
M  V30 738 H 72.398 3.44482 -1.45886 0
M  V30 739 H 73.731 4.53996 -1.90127 0
M  V30 740 N 75.3831 0.828654 1.34056 0
M  V30 741 C 76.6111 0.43262 2.02326 0
M  V30 742 C 77.0261 -0.963147 1.62385 0
M  V30 743 O 76.3831 -1.62425 0.832121 0
M  V30 744 C 76.4341 0.53182 3.57567 0
M  V30 745 O 76.1551 1.87258 3.96063 0
M  V30 746 C 77.6561 0.131422 4.43105 0
M  V30 747 H 74.8761 0.172923 0.648335 0
M  V30 748 H 77.4201 1.1184 1.71208 0
M  V30 749 H 75.5751 -0.105938 3.87255 0
M  V30 750 H 75.9891 1.85087 4.90758 0
M  V30 751 H 77.4631 0.251904 5.51425 0
M  V30 752 H 77.9401 -0.925645 4.29335 0
M  V30 753 H 78.5461 0.743207 4.18756 0
M  V30 754 N 76.8612 -1.46375 0.584142 0
M  V30 755 C 78.0912 -2.06461 0.0758195 0
M  V30 756 C 78.4992 -1.43322 -1.23512 0
M  V30 757 O 77.8422 -0.533216 -1.75791 0
M  V30 758 C 77.9042 -3.59131 -0.162773 0
M  V30 759 C 77.5682 -4.4447 1.06279 0
M  V30 760 C 78.5652 -4.80918 1.97519 0
M  V30 761 C 76.2502 -4.85584 1.28504 0
M  V30 762 C 78.2442 -5.57309 3.09331 0
M  V30 763 C 75.9312 -5.61734 2.4062 0
M  V30 764 C 76.9292 -5.9751 3.30863 0
M  V30 765 O 76.6172 -6.72121 4.41032 0
M  V30 766 H 76.3492 -0.673745 0.0551725 0
M  V30 767 H 78.9032 -1.88969 0.804984 0
M  V30 768 H 77.1332 -3.74936 -0.946565 0
M  V30 769 H 78.8222 -4.0114 -0.619782 0
M  V30 770 H 79.5882 -4.49732 1.81565 0
M  V30 771 H 75.4672 -4.57187 0.591702 0
M  V30 772 H 79.0112 -5.85152 3.79793 0
M  V30 773 H 74.9082 -5.92334 2.56537 0
M  V30 774 H 75.6762 -6.90547 4.39417 0
M  V30 775 N 78.3393 -0.321999 -1.54275 0
M  V30 776 C 79.2493 0.553631 -2.27974 0
M  V30 777 C 80.2653 1.13054 -1.32268 0
M  V30 778 O 81.4413 1.15084 -1.6528 0
M  V30 779 C 78.5063 1.69927 -3.02201 0
M  V30 780 C 77.5673 1.15433 -4.1349 0
M  V30 781 C 76.8003 2.24537 -4.84168 0
M  V30 782 O 77.0233 3.44852 -4.5435 0
M  V30 783 O 75.9573 1.90044 -5.7111 0
M  V30 784 H 79.7833 -0.0448345 -3.03667 0
M  V30 785 H 77.3683 -0.0877418 -1.49142 0
M  V30 786 H 79.2503 2.3663 -3.48689 0
M  V30 787 H 77.9253 2.28395 -2.29385 0
M  V30 788 H 76.8323 0.452436 -3.71354 0
M  V30 789 H 78.1653 0.614805 -4.88345 0
M  V30 790 N 79.8174 1.5752 -0.0501392 0
M  V30 791 C 80.7654 2.12651 0.942459 0
M  V30 792 C 81.7594 1.05807 1.32292 0
M  V30 793 O 82.9654 1.24217 1.3027 0
M  V30 794 H 79.3404 0.679673 0.321789 0
M  V30 795 H 81.3114 2.94951 0.452356 0
M  V30 796 C 80.0604 2.68565 2.20836 0
M  V30 797 H 79.3834 3.50439 1.92439 0
M  V30 798 H 80.8234 3.10761 2.8845 0
M  V30 799 C 79.2824 1.62291 2.95234 0
M  V30 800 O 79.8124 1.03508 3.88135 0
M  V30 801 N 78.0184 1.33836 2.57946 0
M  V30 802 H 77.5654 1.81826 1.82475 0
M  V30 803 H 77.5234 0.629595 3.08032 0
M  V30 804 N 81.2955 -0.223234 1.56011 0
M  V30 805 C 82.2435 -1.29627 1.93131 0
M  V30 806 C 83.2375 -1.48608 0.813146 0
M  V30 807 O 84.4435 -1.49802 0.997966 0
M  V30 808 H 80.8185 -0.434563 0.613726 0
M  V30 809 H 82.7895 -0.955995 2.82672 0
M  V30 810 C 81.5385 -2.63983 2.26292 0
M  V30 811 H 80.8615 -2.50185 3.11846 0
M  V30 812 H 82.3015 -3.3788 2.56151 0
M  V30 813 C 80.7605 -3.18866 1.08747 0
M  V30 814 O 81.2905 -4.00192 0.347727 0
M  V30 815 N 79.4965 -2.77217 0.871743 0
M  V30 816 H 79.0435 -2.1119 1.47501 0
M  V30 817 H 79.0015 -3.1428 0.0869905 0
M  V30 818 N 82.7736 -1.49793 -0.48987 0
M  V30 819 C 84.0206 -1.59841 -1.24327 0
M  V30 820 C 84.3486 -0.290135 -1.92324 0
M  V30 821 O 83.6036 0.722749 -1.81865 0
M  V30 822 C 83.9026 -2.71488 -2.32441 0
M  V30 823 C 83.5686 -4.12614 -1.81826 0
M  V30 824 C 82.2306 -4.51017 -1.67742 0
M  V30 825 C 84.5826 -5.00892 -1.4407 0
M  V30 826 C 81.9106 -5.75459 -1.14297 0
M  V30 827 C 84.2626 -6.25863 -0.920742 0
M  V30 828 C 82.9266 -6.63086 -0.766383 0
M  V30 829 H 82.1966 -0.584899 -0.454944 0
M  V30 830 H 84.8436 -1.83663 -0.542215 0
M  V30 831 H 83.1486 -2.4168 -3.0838 0
M  V30 832 H 84.8456 -2.76469 -2.90458 0
M  V30 833 H 81.4356 -3.82307 -1.93751 0
M  V30 834 H 85.6196 -4.7187 -1.53794 0
M  V30 835 H 80.8756 -6.02989 -1.01068 0
M  V30 836 H 85.0496 -6.9364 -0.619448 0
M  V30 837 H 82.6766 -7.59393 -0.350083 0
M  V30 838 N 84.2517 0.741722 -1.39055 0
M  V30 839 C 85.5287 1.49252 -1.26425 0
M  V30 840 C 85.9087 2.10705 0.129144 0
M  V30 841 O 85.2567 1.98045 1.13976 0
M  V30 842 C 85.4667 2.54934 -2.38347 0
M  V30 843 C 86.8147 3.21506 -2.77343 0
M  V30 844 O 87.8387 2.65245 -2.37747 0
M  V30 845 O 86.6977 4.23294 -3.45665 0
M  V30 846 H 83.7917 0.662451 -0.495064 0
M  V30 847 H 86.3377 0.776121 -1.50912 0
M  V30 848 H 85.1097 2.07857 -3.31529 0
M  V30 849 H 84.7327 3.34141 -2.15489 0
M  V30 850 N 85.7298 1.2412 0.971189 0
M  V30 851 C 86.6778 1.02812 2.08644 0
M  V30 852 C 87.6718 -0.0358403 1.69362 0
M  V30 853 O 88.8778 0.118429 1.7961 0
M  V30 854 H 85.2528 0.315428 0.682649 0
M  V30 855 H 87.2238 1.97397 2.23779 0
M  V30 856 C 85.9728 0.645874 3.41649 0
M  V30 857 H 85.2958 1.45632 3.72332 0
M  V30 858 H 86.7358 0.536366 4.20594 0
M  V30 859 C 85.1948 -0.646713 3.30635 0
M  V30 860 O 85.7248 -1.69338 3.64263 0
M  V30 861 N 83.9308 -0.626115 2.83775 0
M  V30 862 H 83.4778 0.225988 2.56607 0
M  V30 863 H 83.4358 -1.49117 2.76788 0
M  V30 864 N 87.2079 -1.17134 1.05439 0
M  V30 865 C 88.1379 -2.2342 0.678649 0
M  V30 866 C 89.1189 -1.66971 -0.32476 0
M  V30 867 O 90.3039 -1.93149 -0.201802 0
M  V30 868 C 87.4339 -3.47256 0.0552099 0
M  V30 869 C 86.3879 -4.16543 0.98365 0
M  V30 870 C 85.7139 -5.34231 0.223961 0
M  V30 871 C 87.0139 -4.68495 2.3089 0
M  V30 872 H 88.7079 -2.55105 1.56722 0
M  V30 873 H 86.2539 -1.2262 0.754998 0
M  V30 874 H 88.2069 -4.20828 -0.21946 0
M  V30 875 H 86.9309 -3.14846 -0.868319 0
M  V30 876 H 85.5899 -3.44887 1.24293 0
M  V30 877 H 85.2379 -4.98071 -0.702412 0
M  V30 878 H 84.9379 -5.81527 0.842627 0
M  V30 879 H 86.4619 -6.10585 -0.0433671 0
M  V30 880 H 87.8759 -5.33691 2.09396 0
M  V30 881 H 86.2729 -5.26379 2.88176 0
M  V30 882 H 87.3429 -3.85169 2.94572 0
M  V30 883 N 88.686 -0.835752 -1.33615 0
M  V30 884 C 89.963 -0.352017 -1.92406 0
M  V30 885 C 90.343 1.16225 -1.76224 0
M  V30 886 O 89.691 1.97526 -1.14873 0
M  V30 887 C 89.901 -0.795485 -3.39813 0
M  V30 888 C 91.249 -0.801703 -4.16963 0
M  V30 889 O 92.273 -0.738889 -3.48452 0
M  V30 890 O 91.132 -0.886607 -5.3926 0
M  V30 891 H 88.226 -0.0989641 -0.821057 0
M  V30 892 H 90.772 -0.921397 -1.42507 0
M  V30 893 H 89.544 -1.83795 -3.45449 0
M  V30 894 H 89.167 -0.202505 -3.97084 0
M  V30 895 N 90.1641 1.46063 -0.591896 0
M  V30 896 C 91.4111 2.02338 -0.0809991 0
M  V30 897 C 91.7391 1.46228 1.28249 0
M  V30 898 O 90.9941 0.620818 1.85592 0
M  V30 899 C 91.2931 3.57391 0.0249813 0
M  V30 900 C 90.9591 4.32583 -1.27211 0
M  V30 901 C 89.6211 4.52844 -1.62745 0
M  V30 902 C 91.9731 4.75687 -2.13005 0
M  V30 903 C 89.3011 5.13462 -2.83855 0
M  V30 904 C 91.6531 5.37644 -3.3335 0
M  V30 905 C 90.3171 5.5613 -3.69155 0
M  V30 906 H 89.5871 0.740407 -0.0296397 0
M  V30 907 H 92.2341 1.75321 -0.770374 0
M  V30 908 H 90.5391 3.83597 0.797537 0
M  V30 909 H 92.2361 3.98621 0.436184 0
M  V30 910 H 88.8261 4.17116 -0.985499 0
M  V30 911 H 93.0101 4.59782 -1.86855 0
M  V30 912 H 88.2661 5.25965 -3.11722 0
M  V30 913 H 92.4401 5.7 -4.00092 0
M  V30 914 H 90.0671 6.0287 -4.63089 0
M  V30 915 N 91.6422 0.330177 1.54103 0
M  V30 916 C 92.9192 -0.325007 1.92881 0
M  V30 917 C 93.2992 -1.6934 1.26045 0
M  V30 918 O 92.6472 -2.24855 0.406526 0
M  V30 919 C 92.8572 -0.410634 3.46576 0
M  V30 920 C 94.2052 -0.667801 4.19316 0
M  V30 921 O 95.2292 -0.49329 3.52768 0
M  V30 922 O 94.0882 -1.00491 5.37181 0
M  V30 923 H 91.1822 -0.186873 0.80561 0
M  V30 924 H 93.7282 0.380376 1.65382 0
M  V30 925 H 92.5002 0.550164 3.87413 0
M  V30 926 H 92.1232 -1.16333 3.802 0
M  V30 927 N 93.1203 -1.57491 0.0584922 0
M  V30 928 C 94.0503 -2.14988 -0.911178 0
M  V30 929 C 95.0313 -1.07343 -1.31952 0
M  V30 930 O 96.2163 -1.35318 -1.39294 0
M  V30 931 C 93.3463 -2.70078 -2.18347 0
M  V30 932 C 92.3003 -3.82771 -1.91495 0
M  V30 933 C 91.6263 -4.24408 -3.25241 0
M  V30 934 C 92.9263 -5.07592 -1.23075 0
M  V30 935 H 94.6203 -2.96263 -0.432246 0
M  V30 936 H 92.1663 -1.42512 -0.206469 0
M  V30 937 H 94.1193 -3.08943 -2.86587 0
M  V30 938 H 92.8433 -1.86005 -2.68458 0
M  V30 939 H 91.5023 -3.44389 -1.25664 0
M  V30 940 H 91.1503 -3.37275 -3.73168 0
M  V30 941 H 90.8503 -5.00366 -3.08071 0
M  V30 942 H 92.3743 -4.65879 -3.94701 0
M  V30 943 H 93.7883 -5.43857 -1.81362 0
M  V30 944 H 92.1853 -5.88741 -1.16207 0
M  V30 945 H 93.2553 -4.84454 -0.207847 0
M  V30 946 N 94.5984 0.214957 -1.56127 0
M  V30 947 C 95.8754 0.963093 -1.70247 0
M  V30 948 C 96.2554 2.02166 -0.60764 0
M  V30 949 O 95.6034 2.25244 0.384385 0
M  V30 950 C 95.8134 1.56756 -3.11815 0
M  V30 951 C 97.1614 2.0573 -3.7143 0
M  V30 952 O 98.1854 1.66637 -3.14818 0
M  V30 953 O 97.0444 2.77603 -4.70743 0
M  V30 954 H 94.1384 0.450321 -0.693643 0
M  V30 955 H 96.6844 0.206219 -1.68442 0
M  V30 956 H 95.4564 0.803533 -3.82961 0
M  V30 957 H 95.0794 2.3898 -3.17765 0
M  V30 958 N 96.0765 1.50051 0.48192 0
M  V30 959 C 97.0065 1.71046 1.58951 0
M  V30 960 C 97.9875 0.559288 1.60642 0
M  V30 961 O 99.1725 0.797243 1.77081 0
M  V30 962 C 96.3025 1.79462 2.97339 0
M  V30 963 C 95.2565 2.94558 3.10515 0
M  V30 964 C 94.5825 2.88105 4.50444 0
M  V30 965 C 95.8825 4.35227 2.88747 0
M  V30 966 H 97.5765 2.6378 1.41635 0
M  V30 967 H 95.1225 1.26936 0.679942 0
M  V30 968 H 97.0755 1.92734 3.74742 0
M  V30 969 H 95.7995 0.833412 3.15788 0
M  V30 970 H 94.4585 2.80918 2.35543 0
M  V30 971 H 94.1065 1.89853 4.65795 0
M  V30 972 H 93.8065 3.65366 4.60197 0
M  V30 973 H 95.3305 3.03412 5.29881 0
M  V30 974 H 96.7445 4.49449 3.55905 0
M  V30 975 H 95.1415 5.13856 3.09955 0
M  V30 976 H 96.2115 4.48347 1.84696 0
M  V30 977 N 97.5546 -0.734337 1.39446 0
M  V30 978 C 98.4876 -1.85715 1.32609 0
M  V30 979 C 99.4656 -1.6137 0.199636 0
M  V30 980 O 100.65 -1.84626 0.380195 0
M  V30 981 C 97.7766 -3.21709 1.05929 0
M  V30 982 C 96.8226 -3.64913 2.20773 0
M  V30 983 S 97.6556 -3.74203 3.83056 0
M  V30 984 C 98.8116 -5.12986 3.58603 0
M  V30 985 H 99.0446 -1.91232 2.27635 0
M  V30 986 H 96.5776 -0.899263 1.25509 0
M  V30 987 H 98.5356 -4.00236 0.912203 0
M  V30 988 H 97.1966 -3.13848 0.125883 0
M  V30 989 H 96.3896 -4.63606 1.97699 0
M  V30 990 H 95.9916 -2.93593 2.31688 0
M  V30 991 H 98.2836 -5.99339 3.15909 0
M  V30 992 H 99.2266 -5.41088 4.5676 0
M  V30 993 H 99.6346 -4.82694 2.9269 0
M  V30 994 N 99.0327 -1.24633 -0.964593 0
M  V30 995 C 100.444 -1.08045 -1.5226 0
M  V30 996 C 100.795 0.347116 -1.93105 0
M  V30 997 O 99.9197 1.23588 -1.77637 0
M  V30 998 C 100.515 -1.95514 -2.76695 0
M  V30 999 C 99.0737 -1.8314 -3.28841 0
M  V30 1000 C 98.2207 -1.90262 -2.01732 0
M  V30 1001 H 101.172 -1.38064 -0.782553 0
M  V30 1002 H 101.193 -1.48925 -3.50145 0
M  V30 1003 H 100.705 -2.99407 -2.46936 0
M  V30 1004 H 98.8057 -0.82092 -3.63444 0
M  V30 1005 H 98.9187 -2.67406 -3.97531 0
M  V30 1006 H 97.2827 -1.34027 -2.16584 0
M  V30 1007 H 98.0657 -2.9574 -1.74334 0
M  V30 1008 N 100.511 1.16574 -1.06058 0
M  V30 1009 C 101.757 1.87565 -0.78683 0
M  V30 1010 C 102.112 1.80012 0.679214 0
M  V30 1011 O 101.405 1.20327 1.49104 0
M  V30 1012 C 101.599 3.36195 -1.21275 0
M  V30 1013 C 101.428 3.58216 -2.71866 0
M  V30 1014 C 100.198 3.7444 -3.39298 0
M  V30 1015 C 102.396 3.57134 -3.70081 0
M  V30 1016 N 100.378 3.84389 -4.78663 0
M  V30 1017 C 101.749 3.73038 -4.9522 0
M  V30 1018 C 103.804 3.40332 -3.63426 0
M  V30 1019 C 102.507 3.73879 -6.14497 0
M  V30 1020 C 104.533 3.42466 -4.82153 0
M  V30 1021 C 103.895 3.58887 -6.06118 0
M  V30 1022 H 99.9938 0.704081 -0.340284 0
M  V30 1023 H 102.578 1.39885 -1.35426 0
M  V30 1024 H 100.749 3.82522 -0.673179 0
M  V30 1025 H 102.481 3.94839 -0.887917 0
M  V30 1026 H 99.2358 3.74662 -2.89699 0
M  V30 1027 H 99.6598 3.93138 -5.51155 0
M  V30 1028 H 104.302 3.26566 -2.68541 0
M  V30 1029 H 102.02 3.86427 -7.09718 0
M  V30 1030 H 105.606 3.30712 -4.78666 0
M  V30 1031 H 104.486 3.60454 -6.9645 0
M  V30 1032 N 101.989 0.842826 1.3317 0
M  V30 1033 C 102.899 0.281444 2.32906 0
M  V30 1034 C 103.915 -0.594587 1.63526 0
M  V30 1035 O 105.091 -0.49777 1.95152 0
M  V30 1036 C 102.156 -0.530929 3.42611 0
M  V30 1037 C 101.217 0.369843 4.27704 0
M  V30 1038 C 100.45 -0.403853 5.3217 0
M  V30 1039 O 100.673 -1.63513 5.46461 0
M  V30 1040 O 99.6069 0.224199 6.01482 0
M  V30 1041 H 103.433 1.10744 2.82789 0
M  V30 1042 H 101.018 0.60545 1.36582 0
M  V30 1043 H 102.9 -0.992437 4.09547 0
M  V30 1044 H 101.575 -1.33392 2.94938 0
M  V30 1045 H 100.482 0.879275 3.6362 0
M  V30 1046 H 101.815 1.13771 4.78871 0
M  V30 1047 N 103.467 -1.45747 0.599634 0
M  V30 1048 C 104.692 -2.07178 0.0960198 0
M  V30 1049 C 105.117 -1.44268 -1.207 0
M  V30 1050 O 104.475 -0.532503 -1.73303 0
M  V30 1051 C 104.523 -3.60579 -0.0385348 0
M  V30 1052 O 103.627 -3.97713 -1.0908 0
M  V30 1053 H 102.968 -0.660251 0.0704593 0
M  V30 1054 H 105.498 -1.87124 0.827385 0
M  V30 1055 H 105.508 -4.07298 -0.239304 0
M  V30 1056 H 104.183 -4.05756 0.912947 0
M  V30 1057 H 102.76 -3.62678 -0.867135 0
M  V30 1058 N 104.945 -0.338344 -1.53925 0
M  V30 1059 C 106.222 0.314774 -1.93051 0
M  V30 1060 C 106.602 1.68669 -1.26941 0
M  V30 1061 O 105.95 2.24636 -0.418445 0
M  V30 1062 C 106.16 0.392249 -3.46789 0
M  V30 1063 C 107.508 0.645554 -4.19664 0
M  V30 1064 O 108.532 0.474575 -3.53024 0
M  V30 1065 O 107.391 0.976408 -5.37707 0
M  V30 1066 H 104.485 0.182598 -0.80659 0
M  V30 1067 H 107.031 -0.389141 -1.65178 0
M  V30 1068 H 105.803 -0.570702 -3.87116 0
M  V30 1069 H 105.426 1.14316 -3.80812 0
M  V30 1070 N 106.423 1.57458 -0.0668435 0
M  V30 1071 C 107.672 1.92477 0.602947 0
M  V30 1072 C 107.985 0.948419 1.71068 0
M  V30 1073 O 109.191 1.19124 2.43971 0
M  V30 1074 C 107.647 3.41903 1.12383 0
M  V30 1075 C 107.255 4.47975 0.04737 0
M  V30 1076 C 108.999 3.85931 1.76797 0
M  V30 1077 C 106.906 5.88529 0.582022 0
M  V30 1078 H 105.836 0.718387 0.22899 0
M  V30 1079 H 108.487 1.82978 -0.138276 0
M  V30 1080 H 106.869 3.46459 1.91787 0
M  V30 1081 H 108.043 4.55029 -0.726978 0
M  V30 1082 H 106.358 4.13384 -0.500243 0
M  V30 1083 H 108.955 4.88322 2.17821 0
M  V30 1084 H 109.298 3.23029 2.62599 0
M  V30 1085 H 109.831 3.83958 1.04024 0
M  V30 1086 H 106.57 6.55065 -0.238721 0
M  V30 1087 H 106.09 5.85004 1.324 0
M  V30 1088 H 107.769 6.38258 1.05999 0
M  V30 1089 N 107.901 -0.206675 1.56239 0
M  V30 1090 C 109.147 -0.925733 1.81113 0
M  V30 1091 C 109.502 -1.81368 0.642135 0
M  V30 1092 O 108.795 -1.88126 -0.363211 0
M  V30 1093 C 108.989 -1.78675 3.09532 0
M  V30 1094 C 108.818 -0.98365 4.3881 0
M  V30 1095 C 107.588 -0.672661 5.00803 0
M  V30 1096 C 109.786 -0.341847 5.13163 0
M  V30 1097 N 107.768 0.150283 6.13716 0
M  V30 1098 C 109.139 0.343815 6.19046 0
M  V30 1099 C 111.194 -0.256392 4.97239 0
M  V30 1100 C 109.897 1.10678 7.10734 0
M  V30 1101 C 111.923 0.493142 5.8934 0
M  V30 1102 C 111.285 1.16729 6.94661 0
M  V30 1103 H 107.384 -0.318524 0.714189 0
M  V30 1104 H 109.968 -0.195378 1.93717 0
M  V30 1105 H 108.139 -2.4888 2.98183 0
M  V30 1106 H 109.871 -2.44441 3.22538 0
M  V30 1107 H 106.626 -0.994294 4.63045 0
M  V30 1108 H 107.05 0.551026 6.74754 0
M  V30 1109 H 111.692 -0.763249 4.15854 0
M  V30 1110 H 109.41 1.6251 7.91591 0
M  V30 1111 H 112.996 0.560465 5.79094 0
M  V30 1112 H 111.876 1.738 7.64698 0
M  V30 1113 N 109.379 -1.50304 -0.473955 0
M  V30 1114 C 110.656 -1.51667 -1.23518 0
M  V30 1115 C 111.036 -0.259701 -2.09496 0
M  V30 1116 O 110.384 0.756986 -2.15597 0
M  V30 1117 C 110.594 -2.81082 -2.06868 0
M  V30 1118 C 111.942 -3.31631 -2.65153 0
M  V30 1119 O 112.966 -2.82384 -2.17113 0
M  V30 1120 O 111.825 -4.17471 -3.52675 0
M  V30 1121 H 108.919 -0.60822 -0.560355 0
M  V30 1122 H 111.465 -1.62592 -0.486011 0
M  V30 1123 H 110.237 -3.64041 -1.4349 0
M  V30 1124 H 109.86 -2.73146 -2.88924 0
M  V30 1125 N 110.857 0.726932 -1.39834 0
M  V30 1126 C 112.106 1.48214 -1.36805 0
M  V30 1127 C 112.419 1.95576 0.0305291 0
M  V30 1128 O 113.625 2.7088 0.183417 0
M  V30 1129 C 112.081 2.67854 -2.40379 0
M  V30 1130 C 111.689 2.27408 -3.85992 0
M  V30 1131 C 113.433 3.45641 -2.46439 0
M  V30 1132 C 111.34 3.43819 -4.81189 0
M  V30 1133 H 110.27 0.556606 -0.508631 0
M  V30 1134 H 112.921 0.792216 -1.65518 0
M  V30 1135 H 111.303 3.3896 -2.04749 0
M  V30 1136 H 112.477 1.63795 -4.30706 0
M  V30 1137 H 110.792 1.62692 -3.83302 0
M  V30 1138 H 113.389 4.32244 -3.14753 0
M  V30 1139 H 113.732 3.88669 -1.49139 0
M  V30 1140 H 114.265 2.8157 -2.81004 0
M  V30 1141 H 111.004 3.05834 -5.79781 0
M  V30 1142 H 110.524 4.06385 -4.41148 0
M  V30 1143 H 112.203 4.10043 -5.00474 0
M  V30 1144 N 112.336 1.25143 0.95797 0
M  V30 1145 C 113.284 1.05019 2.07542 0
M  V30 1146 C 114.278 -0.0178751 1.69391 0
M  V30 1147 O 115.484 0.137472 1.79474 0
M  V30 1148 H 111.859 0.32265 0.679265 0
M  V30 1149 H 113.83 1.99759 2.21673 0
M  V30 1150 C 112.579 0.682074 3.40944 0
M  V30 1151 H 111.902 1.49573 3.70767 0
M  V30 1152 H 113.342 0.580945 4.20001 0
M  V30 1153 C 111.801 -0.611608 3.31302 0
M  V30 1154 O 112.331 -1.65465 3.66038 0
M  V30 1155 N 110.537 -0.595982 2.84423 0
M  V30 1156 H 110.084 0.253192 2.56353 0
M  V30 1157 H 110.042 -1.46173 2.78354 0
M  V30 1158 N 113.814 -1.1601 1.06675 0
M  V30 1159 C 114.762 -2.22586 0.675157 0
M  V30 1160 C 115.756 -1.66525 -0.310766 0
M  V30 1161 O 116.962 -1.79145 -0.175215 0
M  V30 1162 H 113.337 -0.724855 0.200223 0
M  V30 1163 H 115.308 -2.52899 1.58381 0
M  V30 1164 C 114.057 -3.47604 0.0817162 0
M  V30 1165 H 113.38 -3.91058 0.831484 0
M  V30 1166 H 114.82 -4.23718 -0.154708 0
M  V30 1167 C 113.279 -3.15718 -1.17576 0
M  V30 1168 O 113.809 -3.31878 -2.26318 0
M  V30 1169 N 112.015 -2.69816 -1.07923 0
M  V30 1170 H 111.562 -2.56866 -0.194293 0
M  V30 1171 H 111.52 -2.48855 -1.92141 0
M  V30 1172 N 115.292 -0.849877 -1.32721 0
M  V30 1173 C 116.224 -0.248332 -2.27851 0
M  V30 1174 C 117.237 0.577218 -1.52224 0
M  V30 1175 O 118.426 0.402489 -1.73903 0
M  V30 1176 C 115.526 0.668107 -3.32249 0
M  V30 1177 C 114.699 -0.120534 -4.37234 0
M  V30 1178 C 113.758 0.720932 -5.21238 0
M  V30 1179 O 112.784 0.156166 -5.68986 0
M  V30 1180 N 113.986 2.03647 -5.43607 0
M  V30 1181 H 116.751 -1.06575 -2.80111 0
M  V30 1182 H 114.312 -0.709395 -1.45531 0
M  V30 1183 H 116.304 1.23627 -3.85355 0
M  V30 1184 H 114.874 1.38621 -2.80184 0
M  V30 1185 H 114.094 -0.870108 -3.84477 0
M  V30 1186 H 115.382 -0.662406 -5.0447 0
M  V30 1187 H 114.78 2.51871 -5.06535 0
M  V30 1188 H 113.337 2.55287 -5.99727 0
M  V30 1189 N 116.77 1.45427 -0.607355 0
M  V30 1190 C 118.019 2.01452 -0.100036 0
M  V30 1191 C 118.332 1.48159 1.27704 0
M  V30 1192 O 119.538 1.96159 1.87707 0
M  V30 1193 C 117.994 3.59672 -0.128158 0
M  V30 1194 C 117.602 4.21962 -1.50507 0
M  V30 1195 C 119.346 4.23262 0.323932 0
M  V30 1196 C 117.253 5.72333 -1.48959 0
M  V30 1197 H 116.183 0.75325 -0.0336299 0
M  V30 1198 H 118.834 1.66901 -0.76265 0
M  V30 1199 H 117.216 3.91411 0.601105 0
M  V30 1200 H 118.39 4.01796 -2.25602 0
M  V30 1201 H 116.705 3.70565 -1.89923 0
M  V30 1202 H 119.302 5.33522 0.354691 0
M  V30 1203 H 119.645 3.93921 1.34656 0
M  V30 1204 H 120.178 3.96239 -0.352056 0
M  V30 1205 H 116.917 6.06373 -2.48981 0
M  V30 1206 H 116.437 5.94691 -0.781214 0
M  V30 1207 H 118.116 6.35525 -1.21313 0
M  V30 1208 N 118.248 0.346503 1.53744 0
M  V30 1209 C 119.488 -0.249413 2.02873 0
M  V30 1210 C 119.852 -1.47532 1.22876 0
M  V30 1211 O 121.053 -2.1456 1.61918 0
M  V30 1212 C 119.324 -0.552909 3.53097 0
M  V30 1213 S 120.883 -1.12521 4.24128 0
M  V30 1214 H 117.701 -0.074042 0.707134 0
M  V30 1215 H 120.303 0.48495 1.8939 0
M  V30 1216 H 119.007 0.347083 4.0893 0
M  V30 1217 H 118.538 -1.31686 3.70705 0
M  V30 1218 H 120.553 -2.41075 4.33702 0
M  V30 1219 N 119.726 -1.57421 0.075193 0
M  V30 1220 C 120.954 -1.97946 -0.602076 0
M  V30 1221 C 121.369 -0.953674 -1.62943 0
M  V30 1222 O 120.726 0.0592551 -1.82404 0
M  V30 1223 C 120.777 -3.38546 -1.26762 0
M  V30 1224 O 120.498 -4.37195 -0.281376 0
M  V30 1225 C 121.999 -3.93966 -2.03239 0
M  V30 1226 H 119.219 -0.650918 -0.162931 0
M  V30 1227 H 121.763 -2.03959 0.148601 0
M  V30 1228 H 119.918 -3.33609 -1.96936 0
M  V30 1229 H 120.332 -5.18975 -0.759267 0
M  V30 1230 H 121.806 -4.94555 -2.45193 0
M  V30 1231 H 122.283 -3.30693 -2.8903 0
M  V30 1232 H 122.889 -4.02315 -1.37924 0
M  V30 1233 N 121.204 0.198386 -1.56346 0
M  V30 1234 C 122.45 0.920648 -1.80698 0
M  V30 1235 C 122.783 1.83045 -0.648697 0
M  V30 1236 O 122.058 1.91308 0.350925 0
M  V30 1237 C 122.341 1.73971 -3.15287 0
M  V30 1238 C 122.194 0.85485 -4.41602 0
M  V30 1239 C 123.513 2.71296 -3.46535 0
M  V30 1240 H 120.632 0.333261 -0.657348 0
M  V30 1241 H 123.274 0.188198 -1.89066 0
M  V30 1242 H 121.424 2.36416 -3.08285 0
M  V30 1243 H 123.096 0.245362 -4.60647 0
M  V30 1244 H 121.339 0.161398 -4.335 0
M  V30 1245 H 122.01 1.46286 -5.32264 0
M  V30 1246 H 124.486 2.18983 -3.53816 0
M  V30 1247 H 123.362 3.2569 -4.41834 0
M  V30 1248 H 123.623 3.5018 -2.69864 0
M  V30 1249 N 122.682 1.50554 0.465978 0
M  V30 1250 C 123.629 1.6979 1.56333 0
M  V30 1251 C 124.599 0.539239 1.57103 0
M  V30 1252 O 125.784 0.770401 1.74555 0
M  V30 1253 C 122.924 1.80273 2.94271 0
M  V30 1254 C 122.037 3.07674 3.0325 0
M  V30 1255 C 121.172 3.08922 4.32135 0
M  V30 1256 C 120.211 4.30755 4.34875 0
M  V30 1257 N 119.348 4.29714 5.55239 0
M  V30 1258 H 124.188 2.63472 1.39235 0
M  V30 1259 H 121.725 1.30602 0.676873 0
M  V30 1260 H 123.683 1.84332 3.74269 0
M  V30 1261 H 122.313 0.900258 3.09992 0
M  V30 1262 H 121.365 3.13062 2.16094 0
M  V30 1263 H 122.677 3.97642 3.01135 0
M  V30 1264 H 121.831 3.11738 5.20485 0
M  V30 1265 H 120.57 2.16792 4.36866 0
M  V30 1266 H 119.575 4.28146 3.44922 0
M  V30 1267 H 120.8 5.24117 4.31831 0
M  V30 1268 H 118.746 3.4044 5.60746 0
M  V30 1269 H 118.663 5.13456 5.54886 0
M  V30 1270 H 119.931 4.36683 6.457 0
M  V30 1271 N 124.16 -0.719506 1.40217 0
M  V30 1272 C 125.437 -1.47221 1.28784 0
M  V30 1273 C 125.817 -2.10883 -0.0956067 0
M  V30 1274 O 125.165 -1.99833 -1.10811 0
M  V30 1275 C 125.375 -2.5111 2.42373 0
M  V30 1276 C 126.723 -3.17053 2.82423 0
M  V30 1277 O 127.747 -2.61429 2.41937 0
M  V30 1278 O 126.606 -4.17742 3.52355 0
M  V30 1279 H 123.7 -0.654491 0.50554 0
M  V30 1280 H 126.246 -0.752014 1.52128 0
M  V30 1281 H 125.018 -2.02556 3.34793 0
M  V30 1282 H 124.641 -3.3067 2.20778 0
M  V30 1283 N 125.638 -1.25649 -0.95132 0
M  V30 1284 C 126.887 -1.09988 -1.69073 0
M  V30 1285 C 127.2 0.358355 -1.92289 0
M  V30 1286 O 128.406 0.635466 -2.63958 0
M  V30 1287 C 126.862 -1.92012 -3.044 0
M  V30 1288 C 126.47 -3.42347 -2.88968 0
M  V30 1289 C 128.214 -1.8493 -3.82101 0
M  V30 1290 C 126.121 -4.16655 -4.19705 0
M  V30 1291 H 125.051 -0.407993 -0.63408 0
M  V30 1292 H 127.702 -1.49873 -1.05879 0
M  V30 1293 H 126.084 -1.44952 -3.68517 0
M  V30 1294 H 127.258 -3.97104 -2.33762 0
M  V30 1295 H 125.573 -3.50557 -2.24719 0
M  V30 1296 H 128.17 -2.37739 -4.78941 0
M  V30 1297 H 128.513 -0.817883 -4.08187 0
M  V30 1298 H 129.046 -2.29758 -3.2474 0
M  V30 1299 H 125.785 -5.20224 -3.98807 0
M  V30 1300 H 125.305 -3.66681 -4.74663 0
M  V30 1301 H 126.984 -4.24551 -4.88227 0
M  V30 1302 N 127.117 1.15442 -1.07289 0
M  V30 1303 C 128.064 2.20161 -0.692653 0
M  V30 1304 C 129.034 1.63073 0.31564 0
M  V30 1305 O 130.219 1.89725 0.202235 0
M  V30 1306 C 127.359 3.44967 -0.0959509 0
M  V30 1307 C 126.472 4.16256 -1.15564 0
M  V30 1308 C 125.607 5.28609 -0.524011 0
M  V30 1309 C 124.646 5.91715 -1.56653 0
M  V30 1310 N 123.783 6.9554 -0.957531 0
M  V30 1311 H 128.623 2.52037 -1.59002 0
M  V30 1312 H 126.16 1.2378 -0.794798 0
M  V30 1313 H 128.118 4.16341 0.267628 0
M  V30 1314 H 126.748 3.1361 0.764772 0
M  V30 1315 H 125.8 3.43385 -1.6368 0
M  V30 1316 H 127.112 4.59268 -1.94613 0
M  V30 1317 H 126.266 6.06604 -0.108032 0
M  V30 1318 H 125.005 4.86787 0.29825 0
M  V30 1319 H 124.01 5.12433 -1.9923 0
M  V30 1320 H 125.235 6.35614 -2.39107 0
M  V30 1321 H 123.181 6.55814 -0.156162 0
M  V30 1322 H 123.098 7.36977 -1.68526 0
M  V30 1323 H 124.366 7.77435 -0.567032 0
M  V30 1324 N 128.595 0.856903 1.32268 0
M  V30 1325 C 129.558 0.308171 2.27119 0
M  V30 1326 C 130.558 -0.533421 1.51695 0
M  V30 1327 O 131.748 -0.344607 1.70757 0
M  V30 1328 C 128.88 -0.563757 3.36206 0
M  V30 1329 H 130.073 1.14535 2.77167 0
M  V30 1330 H 127.626 0.631421 1.42978 0
M  V30 1331 H 128.361 -1.42266 2.91429 0
M  V30 1332 H 128.146 0.0386749 3.92081 0
M  V30 1333 H 129.636 -0.940386 4.06874 0
M  V30 1334 N 130.073 -1.45103 0.615059 0
M  V30 1335 C 130.983 -2.34382 -0.101034 0
M  V30 1336 C 131.999 -1.51681 -0.852585 0
M  V30 1337 O 133.175 -1.8446 -0.808484 0
M  V30 1338 C 130.24 -3.29417 -1.08099 0
M  V30 1339 C 129.301 -4.28025 -0.330577 0
M  V30 1340 C 128.534 -5.1852 -1.26385 0
M  V30 1341 O 128.757 -5.12598 -2.50198 0
M  V30 1342 O 127.691 -5.97122 -0.756866 0
M  V30 1343 H 131.517 -2.97033 0.632855 0
M  V30 1344 H 129.102 -1.4461 0.375293 0
M  V30 1345 H 130.984 -3.87958 -1.6452 0
M  V30 1346 H 129.659 -2.69321 -1.79577 0
M  V30 1347 H 128.566 -3.73078 0.276283 0
M  V30 1348 H 129.899 -4.90997 0.343866 0
M  V30 1349 N 131.551 -0.354651 -1.53558 0
M  V30 1350 C 132.962 0.126902 -1.86268 0
M  V30 1351 C 133.313 1.49075 -1.27558 0
M  V30 1352 O 132.438 2.08105 -0.5934 0
M  V30 1353 C 133.033 0.237046 -3.3797 0
M  V30 1354 C 131.592 0.662842 -3.70518 0
M  V30 1355 C 130.739 -0.196652 -2.76602 0
M  V30 1356 H 133.69 -0.573849 -1.47962 0
M  V30 1357 H 133.711 1.06259 -3.65362 0
M  V30 1358 H 133.223 -0.755725 -3.80671 0
M  V30 1359 H 131.324 1.66424 -3.33367 0
M  V30 1360 H 131.437 0.445034 -4.77029 0
M  V30 1361 H 129.801 0.332763 -2.52517 0
M  V30 1362 H 130.584 -1.18676 -3.22135 0
M  V30 1363 N 133.029 1.57378 -0.0835403 0
M  V30 1364 C 133.961 2.10389 0.909338 0
M  V30 1365 C 134.974 1.03858 1.25369 0
M  V30 1366 O 136.163 1.31338 1.20882 0
M  V30 1367 C 133.263 2.55908 2.2218 0
M  V30 1368 C 132.436 3.86145 2.05453 0
M  V30 1369 C 131.495 4.17633 3.20108 0
M  V30 1370 O 130.521 4.87043 2.94581 0
M  V30 1371 N 131.723 3.72113 4.45547 0
M  V30 1372 H 134.488 2.962 0.456657 0
M  V30 1373 H 132.049 1.61579 0.101877 0
M  V30 1374 H 134.041 2.74027 2.97811 0
M  V30 1375 H 132.611 1.75171 2.58909 0
M  V30 1376 H 131.831 3.7729 1.1422 0
M  V30 1377 H 133.119 4.7137 1.91541 0
M  V30 1378 H 132.517 3.16062 4.69171 0
M  V30 1379 H 131.074 3.95409 5.18165 0
M  V30 1380 N 134.507 -0.190092 1.56449 0
M  V30 1381 C 135.918 -0.754312 1.70784 0
M  V30 1382 C 136.269 -1.83631 0.690951 0
M  V30 1383 O 135.394 -2.15868 -0.151604 0
M  V30 1384 C 135.989 -1.37503 3.09642 0
M  V30 1385 C 134.548 -1.88628 3.25725 0
M  V30 1386 C 133.695 -0.758098 2.66736 0
M  V30 1387 H 136.646 0.0350524 1.58661 0
M  V30 1388 H 136.667 -2.2445 3.0725 0
M  V30 1389 H 136.179 -0.587302 3.83631 0
M  V30 1390 H 134.28 -2.70103 2.56661 0
M  V30 1391 H 134.393 -2.04462 4.3328 0
M  V30 1392 H 132.757 -1.17369 2.26046 0
M  V30 1393 H 133.54 0.0174705 3.43296 0
M  V30 1394 N 135.985 -1.50799 -0.457987 0
M  V30 1395 C 136.915 -1.73553 -1.5621 0
M  V30 1396 C 137.896 -0.584774 -1.59732 0
M  V30 1397 O 139.081 -0.825314 -1.7579 0
M  V30 1398 C 136.211 -1.84169 -2.94447 0
M  V30 1399 C 135.165 -2.99461 -3.0579 0
M  V30 1400 C 134.491 -2.95235 -4.45803 0
M  V30 1401 C 135.791 -4.39766 -2.81786 0
M  V30 1402 H 137.485 -2.66 -1.37421 0
M  V30 1403 H 135.031 -1.28002 -0.659662 0
M  V30 1404 H 136.984 -1.98672 -3.71628 0
M  V30 1405 H 135.708 -0.883545 -3.14422 0
M  V30 1406 H 134.367 -2.8463 -2.31044 0
M  V30 1407 H 134.015 -1.97239 -4.62715 0
M  V30 1408 H 133.715 -3.72642 -4.54326 0
M  V30 1409 H 135.239 -3.11803 -5.24987 0
M  V30 1410 H 136.653 -4.55054 -3.4871 0
M  V30 1411 H 135.05 -5.18722 -3.0174 0
M  V30 1412 H 136.12 -4.51229 -1.7754 0
M  V30 1413 N 137.463 0.71206 -1.40597 0
M  V30 1414 C 138.688 1.50617 -1.42581 0
M  V30 1415 C 139.113 1.88079 -0.0282102 0
M  V30 1416 O 138.471 1.53511 0.964579 0
M  V30 1417 C 138.519 2.7557 -2.3258 0
M  V30 1418 O 137.623 3.72414 -1.77148 0
M  V30 1419 H 136.964 0.453966 -0.484573 0
M  V30 1420 H 139.494 0.876649 -1.84868 0
M  V30 1421 H 139.504 3.2406 -2.47889 0
M  V30 1422 H 138.179 2.47639 -3.34138 0
M  V30 1423 H 136.756 3.31276 -1.71204 0
M  V30 1424 N 138.941 1.26152 0.944643 0
M  V30 1425 C 140.352 1.10454 1.50522 0
M  V30 1426 C 140.703 -0.31635 1.93633 0
M  V30 1427 O 139.828 -1.20746 1.79581 0
M  V30 1428 C 140.423 1.99891 2.73549 0
M  V30 1429 C 138.982 1.88348 3.25886 0
M  V30 1430 C 138.129 1.93447 1.9868 0
M  V30 1431 H 141.08 1.39292 0.760489 0
M  V30 1432 H 141.101 1.54477 3.47732 0
M  V30 1433 H 140.613 3.03297 2.42141 0
M  V30 1434 H 138.714 0.878636 3.62092 0
M  V30 1435 H 138.827 2.73696 3.93227 0
M  V30 1436 H 137.191 1.37456 2.14425 0
M  V30 1437 H 137.974 2.98476 1.69607 0
M  V30 1438 N 140.419 -1.14872 1.07899 0
M  V30 1439 C 141.382 -2.17986 0.708161 0
M  V30 1440 C 142.382 -1.58775 -0.25442 0
M  V30 1441 O 143.572 -1.74166 -0.034645 0
M  V30 1442 C 140.704 -3.40871 0.0446929 0
M  V30 1443 H 141.897 -2.52306 1.62116 0
M  V30 1444 H 139.45 -1.2943 0.876218 0
M  V30 1445 H 140.185 -3.12124 -0.880281 0
M  V30 1446 H 139.97 -3.8511 0.737091 0
M  V30 1447 H 141.46 -4.17121 -0.19991 0
M  V30 1448 N 141.898 -0.863906 -1.31812 0
M  V30 1449 C 143.123 -0.48527 -2.01643 0
M  V30 1450 C 143.548 0.913058 -1.64453 0
M  V30 1451 O 142.906 1.6014 -0.849985 0
M  V30 1452 C 142.954 -0.642625 -3.54828 0
M  V30 1453 O 142.058 0.320659 -4.11151 0
M  V30 1454 H 141.399 -0.193793 -0.635091 0
M  V30 1455 H 143.929 -1.16565 -1.68148 0
M  V30 1456 H 143.939 -0.533628 -4.04495 0
M  V30 1457 H 142.614 -1.66227 -3.81237 0
M  V30 1458 H 141.191 0.167126 -3.72525 0
M  V30 1459 N 143.376 1.44774 -0.622745 0
M  V30 1460 C 144.601 2.06999 -0.128968 0
M  V30 1461 C 145.026 1.4617 1.1839 0
M  V30 1462 O 144.384 0.560007 1.72434 0
M  V30 1463 C 144.432 3.60595 -0.0188351 0
M  V30 1464 O 143.536 3.99398 1.02739 0
M  V30 1465 H 142.877 0.659047 -0.0809544 0
M  V30 1466 H 145.407 1.85784 -0.85705 0
M  V30 1467 H 145.417 4.07627 0.174476 0
M  V30 1468 H 144.092 4.04252 -0.977384 0
M  V30 1469 H 142.669 3.64011 0.809326 0
M  V30 1470 N 144.854 0.36279 1.53368 0
M  V30 1471 C 146.079 -0.231226 2.06107 0
M  V30 1472 C 146.504 -1.419 1.23474 0
M  V30 1473 O 145.862 -1.79524 0.253128 0
M  V30 1474 C 145.91 -0.605523 3.5548 0
M  V30 1475 O 145.014 -1.70312 3.7559 0
M  V30 1476 H 144.355 -0.034327 0.663112 0
M  V30 1477 H 146.885 0.522584 1.97814 0
M  V30 1478 H 146.895 -0.877314 3.98456 0
M  V30 1479 H 145.57 0.263004 4.15068 0
M  V30 1480 H 144.147 -1.4271 3.44512 0
M  V30 1481 N 146.332 -1.57332 0.0918853 0
M  V30 1482 C 147.562 -1.98286 -0.580205 0
M  V30 1483 C 147.97 -0.969713 -1.6246 0
M  V30 1484 O 147.313 0.0493501 -1.83634 0
M  V30 1485 C 147.375 -3.35603 -1.28882 0
M  V30 1486 C 147.039 -4.55285 -0.395559 0
M  V30 1487 C 148.036 -5.18687 0.355002 0
M  V30 1488 C 145.721 -5.01314 -0.314556 0
M  V30 1489 C 147.715 -6.26484 1.17458 0
M  V30 1490 C 145.402 -6.08979 0.508677 0
M  V30 1491 C 146.4 -6.71429 1.2519 0
M  V30 1492 O 146.088 -7.77018 2.06151 0
M  V30 1493 H 145.82 -0.656678 -0.160466 0
M  V30 1494 H 148.374 -2.04721 0.16688 0
M  V30 1495 H 146.604 -3.25842 -2.08241 0
M  V30 1496 H 148.293 -3.61026 -1.85512 0
M  V30 1497 H 149.059 -4.84058 0.302134 0
M  V30 1498 H 144.938 -4.5247 -0.882697 0
M  V30 1499 H 148.482 -6.75159 1.75518 0
M  V30 1500 H 144.379 -6.4304 0.563037 0
M  V30 1501 H 145.147 -7.93991 1.98799 0
M  V30 1502 N 147.81 0.181792 -1.56548 0
M  V30 1503 C 149.035 0.920019 -1.85877 0
M  V30 1504 C 149.46 1.75494 -0.677021 0
M  V30 1505 O 148.818 1.77399 0.374056 0
M  V30 1506 C 148.866 1.78112 -3.13542 0
M  V30 1507 O 147.97 2.88152 -2.95029 0
M  V30 1508 H 147.311 0.258334 -0.611686 0
M  V30 1509 H 149.841 0.183092 -2.03779 0
M  V30 1510 H 149.851 2.18314 -3.44678 0
M  V30 1511 H 148.526 1.16777 -3.99169 0
M  V30 1512 H 147.103 2.51609 -2.75222 0
M  V30 1513 N 149.288 1.51039 0.449983 0
M  V30 1514 C 150.534 1.63322 1.20223 0
M  V30 1515 C 150.867 0.34241 1.91158 0
M  V30 1516 O 150.142 -0.657344 1.83055 0
M  V30 1517 C 150.425 2.82801 2.22925 0
M  V30 1518 C 150.278 4.21823 1.56157 0
M  V30 1519 C 151.597 2.97807 3.24035 0
M  V30 1520 H 148.716 0.594407 0.435718 0
M  V30 1521 H 151.358 1.83489 0.493136 0
M  V30 1522 H 149.508 2.65738 2.834 0
M  V30 1523 H 151.18 4.50526 0.991162 0
M  V30 1524 H 149.423 4.25105 0.864172 0
M  V30 1525 H 150.094 5.01391 2.30891 0
M  V30 1526 H 152.57 3.13497 2.73603 0
M  V30 1527 H 151.446 3.82992 3.93202 0
M  V30 1528 H 151.707 2.09328 3.89402 0
M  V30 1529 N 150.766 -0.704594 1.40972 0
M  V30 1530 C 151.991 -1.49858 1.43378 0
M  V30 1531 C 152.416 -1.88061 0.038184 0
M  V30 1532 O 151.774 -1.5402 -0.956425 0
M  V30 1533 C 151.822 -2.74333 2.34038 0
M  V30 1534 O 150.926 -3.7147 1.7912 0
M  V30 1535 H 150.267 -0.45139 0.486974 0
M  V30 1536 H 152.797 -0.866832 1.8533 0
M  V30 1537 H 152.807 -3.22741 2.49604 0
M  V30 1538 H 151.482 -2.45863 3.35446 0
M  V30 1539 H 150.059 -3.30363 1.72958 0
M  V30 1540 N 152.244 -1.26651 -0.937939 0
M  V30 1541 C 153.469 -1.15279 -1.72411 0
M  V30 1542 C 153.894 0.287866 -1.85884 0
M  V30 1543 O 153.252 1.20855 -1.35143 0
M  V30 1544 C 153.3 -1.83028 -3.10698 0
M  V30 1545 O 152.404 -1.12128 -3.96864 0
M  V30 1546 H 151.745 -0.401504 -0.528858 0
M  V30 1547 H 154.275 -1.67531 -1.1745 0
M  V30 1548 H 154.285 -1.89981 -3.6107 0
M  V30 1549 H 152.96 -2.87833 -3.00208 0
M  V30 1550 H 151.537 -1.13173 -3.55312 0
M  V30 1551 N 153.722 1.14298 -1.08507 0
M  V30 1552 C 155.133 1.66926 -0.836227 0
M  V30 1553 C 155.484 1.85576 0.63686 0
M  V30 1554 O 154.609 1.56767 1.49175 0
M  V30 1555 C 155.204 3.03219 -1.51142 0
M  V30 1556 C 153.763 3.52876 -1.30979 0
M  V30 1557 C 152.91 2.2833 -1.57356 0
M  V30 1558 H 155.861 0.983491 -1.24552 0
M  V30 1559 H 155.882 3.68726 -0.939211 0
M  V30 1560 H 155.394 2.89612 -2.58353 0
M  V30 1561 H 153.495 3.71703 -0.258429 0
M  V30 1562 H 153.608 4.33586 -2.03814 0
M  V30 1563 H 151.972 2.34454 -0.995164 0
M  V30 1564 H 152.755 2.17298 -2.65775 0
M  V30 1565 N 155.201 0.870884 1.31352 0
M  V30 1566 C 156.617 0.562932 1.49343 0
M  V30 1567 C 156.817 -0.902725 1.80148 0
M  V30 1568 O 155.873 -1.68484 1.88067 0
M  V30 1569 C 157.186 1.46393 2.62659 0
M  V30 1570 C 158.734 1.46607 2.76542 0
M  V30 1571 C 159.209 2.35266 3.92955 0
M  V30 1572 N 160.7 2.33151 4.00243 0
M  V30 1573 C 161.435 2.98471 4.89594 0
M  V30 1574 N 160.931 3.72964 5.8384 0
M  V30 1575 N 162.724 2.87775 4.82848 0
M  V30 1576 H 154.875 1.81923 1.09626 0
M  V30 1577 H 157.138 0.777934 0.541777 0
M  V30 1578 H 156.844 2.50689 2.46674 0
M  V30 1579 H 156.718 1.16314 3.58819 0
M  V30 1580 H 159.105 0.43069 2.9194 0
M  V30 1581 H 159.186 1.8071 1.81046 0
M  V30 1582 H 158.83 3.38881 3.78315 0
M  V30 1583 H 158.76 1.98487 4.87761 0
M  V30 1584 H 161.251 1.79006 3.32814 0
M  V30 1585 H 161.564 4.19932 6.4875 0
M  V30 1586 H 159.909 3.77073 5.83816 0
M  V30 1587 H 163.1 2.29116 4.08195 0
M  V30 1588 H 163.273 3.38961 5.52277 0
M  V30 1589 N 156.679 -1.44442 0.630414 0
M  V30 1590 C 157.904 -2.06927 0.139944 0
M  V30 1591 C 158.329 -1.46795 -1.17613 0
M  V30 1592 O 157.687 -0.569144 -1.72135 0
M  V30 1593 C 157.735 -3.6058 0.0379581 0
M  V30 1594 O 156.839 -3.99937 -1.0062 0
M  V30 1595 H 156.18 -0.658608 0.0844483 0
M  V30 1596 H 158.71 -1.85327 0.866891 0
M  V30 1597 H 158.72 -4.07714 -0.152856 0
M  V30 1598 H 157.395 -4.03728 0.998809 0
M  V30 1599 H 155.972 -3.64436 -0.79001 0
M  V30 1600 N 158.157 -0.370918 -1.53173 0
M  V30 1601 C 159.403 0.217423 -2.01631 0
M  V30 1602 C 159.736 1.47983 -1.25756 0
M  V30 1603 O 159.011 1.91274 -0.352764 0
M  V30 1604 C 159.294 0.503982 -3.56556 0
M  V30 1605 C 159.147 -0.77243 -4.43118 0
M  V30 1606 C 160.466 1.30234 -4.20389 0
M  V30 1607 H 157.585 0.0775486 -0.732909 0
M  V30 1608 H 160.227 -0.496863 -1.83388 0
M  V30 1609 H 158.377 1.11248 -3.72231 0
M  V30 1610 H 160.049 -1.4098 -4.39229 0
M  V30 1611 H 158.292 -1.39167 -4.10871 0
M  V30 1612 H 158.963 -0.526815 -5.4948 0
M  V30 1613 H 161.439 0.787546 -4.08579 0
M  V30 1614 H 160.315 1.47158 -5.28806 0
M  V30 1615 H 160.576 2.31237 -3.76805 0
M  V30 1616 N 159.635 1.57281 -0.100228 0
M  V30 1617 C 160.912 1.86014 0.604812 0
M  V30 1618 C 161.292 0.998025 1.86018 0
M  V30 1619 O 160.64 0.0718184 2.28387 0
M  V30 1620 C 160.85 3.36784 0.915278 0
M  V30 1621 C 162.198 4.04957 1.27651 0
M  V30 1622 O 163.222 3.41695 1.00613 0
M  V30 1623 O 162.081 5.16593 1.7831 0
M  V30 1624 H 159.175 0.76942 0.303185 0
M  V30 1625 H 161.721 1.69176 -0.133313 0
M  V30 1626 H 160.493 3.91292 0.0248896 0
M  V30 1627 H 160.116 3.58987 1.70921 0
M  V30 1628 N 161.113 -0.173488 1.56642 0
M  V30 1629 C 162.338 -0.910149 1.86363 0
M  V30 1630 C 162.763 -1.75132 0.686318 0
M  V30 1631 O 162.121 -1.77595 -0.364643 0
M  V30 1632 C 162.169 -1.76447 3.14482 0
M  V30 1633 O 161.273 -2.86584 2.96553 0
M  V30 1634 H 160.614 -0.255086 0.613047 0
M  V30 1635 H 163.144 -0.172283 2.03873 0
M  V30 1636 H 163.154 -2.16483 3.45831 0
M  V30 1637 H 161.829 -1.14658 3.99783 0
M  V30 1638 H 160.406 -2.50146 2.76553 0
M  V30 1639 N 162.591 -1.51276 -0.441967 0
M  V30 1640 C 163.821 -1.67273 -1.21257 0
M  V30 1641 C 164.229 -0.367624 -1.85594 0
M  V30 1642 O 163.572 0.663349 -1.71305 0
M  V30 1643 C 163.634 -2.72807 -2.34129 0
M  V30 1644 C 163.298 -4.1554 -1.90198 0
M  V30 1645 C 164.295 -5.00471 -1.40801 0
M  V30 1646 C 161.98 -4.61616 -1.9803 0
M  V30 1647 C 163.974 -6.29536 -0.998174 0
M  V30 1648 C 161.661 -5.90679 -1.56658 0
M  V30 1649 C 162.659 -6.74466 -1.07633 0
M  V30 1650 O 162.347 -8.01116 -0.668459 0
M  V30 1651 H 162.079 -0.564614 -0.371734 0
M  V30 1652 H 164.633 -1.9843 -0.530521 0
M  V30 1653 H 162.863 -2.36954 -3.05597 0
M  V30 1654 H 164.552 -2.77729 -2.96009 0
M  V30 1655 H 165.318 -4.66079 -1.34148 0
M  V30 1656 H 161.197 -3.96526 -2.35135 0
M  V30 1657 H 164.741 -6.94885 -0.61482 0
M  V30 1658 H 160.638 -6.24586 -1.62979 0
M  V30 1659 H 161.406 -8.14633 -0.794722 0
M  V30 1660 N 164.069 0.697108 -1.41344 0
M  V30 1661 C 165.294 1.49096 -1.44171 0
M  V30 1662 C 165.719 1.88038 -0.0481568 0
M  V30 1663 O 165.077 1.54525 0.948243 0
M  V30 1664 C 165.125 2.73088 -2.3549 0
M  V30 1665 O 164.229 3.70514 -1.81088 0
M  V30 1666 H 163.57 0.448801 -0.489361 0
M  V30 1667 H 166.1 0.856992 -1.85787 0
M  V30 1668 H 166.11 3.21413 -2.51312 0
M  V30 1669 H 164.785 2.44081 -3.36745 0
M  V30 1670 H 163.362 3.29441 -1.74708 0
M  V30 1671 N 165.547 1.27147 0.931209 0
M  V30 1672 C 166.772 1.16191 1.71797 0
M  V30 1673 C 167.197 -0.278004 1.86034 0
M  V30 1674 O 166.555 -1.20137 1.35782 0
M  V30 1675 C 166.603 1.84673 3.09723 0
M  V30 1676 O 165.707 1.14231 3.96264 0
M  V30 1677 H 165.048 0.404303 0.526721 0
M  V30 1678 H 167.578 1.68152 1.1656 0
M  V30 1679 H 167.588 1.91893 3.60057 0
M  V30 1680 H 166.263 2.89421 2.98677 0
M  V30 1681 H 164.84 1.15056 3.54706 0
M  V30 1682 N 167.025 -1.13721 1.09112 0
M  V30 1683 C 168.253 -1.88773 0.846899 0
M  V30 1684 C 168.668 -1.7896 -0.601572 0
M  V30 1685 O 168.025 -1.15394 -1.41388 0
M  V30 1686 C 168.076 -3.3849 1.26913 0
M  V30 1687 O 167.797 -3.48043 2.66079 0
M  V30 1688 C 169.298 -4.30518 1.05682 0
M  V30 1689 H 166.518 -0.59772 0.304914 0
M  V30 1690 H 169.062 -1.43977 1.45227 0
M  V30 1691 H 167.217 -3.80881 0.707723 0
M  V30 1692 H 167.631 -4.4109 2.83795 0
M  V30 1693 H 169.105 -5.3391 1.40156 0
M  V30 1694 H 169.582 -4.392 -0.00563416 0
M  V30 1695 H 170.188 -3.93893 1.60402 0
M  V30 1696 N 168.503 -0.877838 -1.30888 0
M  V30 1697 C 169.435 -0.296607 -2.27273 0
M  V30 1698 C 170.448 0.544799 -1.53414 0
M  V30 1699 O 171.637 0.365511 -1.74718 0
M  V30 1700 C 168.737 0.597481 -3.33592 0
M  V30 1701 C 167.91 -0.213251 -4.3688 0
M  V30 1702 C 166.969 0.610208 -5.2265 0
M  V30 1703 O 165.995 0.035441 -5.69189 0
M  V30 1704 N 167.197 1.92071 -5.47804 0
M  V30 1705 H 169.962 -1.12492 -2.77787 0
M  V30 1706 H 167.523 -0.740105 -1.43993 0
M  V30 1707 H 169.515 1.15425 -3.87891 0
M  V30 1708 H 168.085 1.32647 -2.83061 0
M  V30 1709 H 167.305 -0.951466 -3.82545 0
M  V30 1710 H 168.593 -0.769262 -5.02951 0
M  V30 1711 H 167.991 2.4107 -5.11763 0
M  V30 1712 H 166.548 2.42508 -6.05007 0
M  V30 1713 N 169.982 1.44106 -0.638065 0
M  V30 1714 C 170.932 2.27843 0.0847285 0
M  V30 1715 C 171.916 1.39055 0.809471 0
M  V30 1716 O 173.108 1.62808 0.694435 0
M  V30 1717 C 170.237 3.26497 1.06089 0
M  V30 1718 C 169.323 4.22772 0.33541 0
M  V30 1719 N 169.714 5.01737 -0.639787 0
M  V30 1720 C 168.012 4.42227 0.578921 0
M  V30 1721 C 168.713 5.71792 -1.06904 0
M  V30 1722 N 167.689 5.42079 -0.406395 0
M  V30 1723 H 171.491 2.86305 -0.663814 0
M  V30 1724 H 169.005 1.55627 -0.464122 0
M  V30 1725 H 171.002 3.8525 1.59337 0
M  V30 1726 H 169.662 2.69595 1.80966 0
M  V30 1727 H 170.673 5.07799 -1.01789 0
M  V30 1728 H 167.35 3.96415 1.31003 0
M  V30 1729 H 168.74 6.45205 -1.8751 0
M  V30 1730 N 171.46 0.379036 1.52974 0
M  V30 1731 C 172.706 -0.206727 2.01744 0
M  V30 1732 C 173.039 -1.47314 1.26539 0
M  V30 1733 O 172.314 -1.91084 0.362903 0
M  V30 1734 C 172.597 -0.485066 3.56818 0
M  V30 1735 C 172.45 0.795919 4.42702 0
M  V30 1736 C 173.769 -1.28003 4.21074 0
M  V30 1737 H 170.888 -0.0736607 0.73331 0
M  V30 1738 H 173.53 0.506581 1.83122 0
M  V30 1739 H 171.68 -1.09272 3.72816 0
M  V30 1740 H 173.352 1.43307 4.38476 0
M  V30 1741 H 171.595 1.41344 4.10127 0
M  V30 1742 H 172.266 0.555947 5.49193 0
M  V30 1743 H 174.742 -0.765867 4.08991 0
M  V30 1744 H 173.618 -1.44352 5.29579 0
M  V30 1745 H 173.879 -2.29236 3.78026 0
M  V30 1746 N 172.938 -1.57226 0.108567 0
M  V30 1747 C 174.349 -1.8195 -0.418464 0
M  V30 1748 C 174.7 -1.02508 -1.67292 0
M  V30 1749 O 173.825 -0.258496 -2.14851 0
M  V30 1750 C 174.42 -3.30028 -0.765979 0
M  V30 1751 C 172.979 -3.55469 -1.23769 0
M  V30 1752 C 172.126 -2.7625 -0.241106 0
M  V30 1753 H 175.077 -1.55149 0.33384 0
M  V30 1754 H 175.098 -3.44086 -1.62434 0
M  V30 1755 H 174.61 -3.87821 0.147219 0
M  V30 1756 H 172.711 -3.03022 -2.16814 0
M  V30 1757 H 172.824 -4.6408 -1.19022 0
M  V30 1758 H 171.188 -2.44133 -0.72602 0
M  V30 1759 H 171.971 -3.36797 0.665007 0
M  V30 1760 N 174.416 0.165178 -1.56732 0
M  V30 1761 C 175.326 1.22423 -2.00125 0
M  V30 1762 C 176.342 1.48084 -0.913619 0
M  V30 1763 O 177.518 1.60112 -1.22172 0
M  V30 1764 C 174.583 2.54197 -2.35764 0
M  V30 1765 C 173.644 2.36343 -3.58386 0
M  V30 1766 C 172.877 3.61834 -3.92316 0
M  V30 1767 O 173.1 4.67267 -3.27135 0
M  V30 1768 O 172.034 3.55579 -4.85641 0
M  V30 1769 H 175.86 0.885886 -2.90492 0
M  V30 1770 H 173.445 0.372518 -1.44681 0
M  V30 1771 H 175.327 3.3192 -2.59629 0
M  V30 1772 H 174.002 2.87598 -1.48557 0
M  V30 1773 H 172.909 1.56632 -3.39731 0
M  V30 1774 H 174.242 2.07865 -4.46154 0
M  V30 1775 N 175.894 1.51508 0.433938 0
M  V30 1776 C 176.804 1.75917 1.5521 0
M  V30 1777 C 177.82 0.643545 1.61662 0
M  V30 1778 O 178.996 0.926183 1.7884 0
M  V30 1779 C 176.061 1.88213 2.91164 0
M  V30 1780 C 175.122 3.12074 2.94802 0
M  V30 1781 C 174.355 3.23774 4.24271 0
M  V30 1782 O 174.578 2.4133 5.16833 0
M  V30 1783 O 173.512 4.16774 4.34262 0
M  V30 1784 H 177.338 2.70777 1.37527 0
M  V30 1785 H 174.923 1.36051 0.617293 0
M  V30 1786 H 176.805 1.98267 3.71845 0
M  V30 1787 H 175.48 0.965413 3.08968 0
M  V30 1788 H 174.387 3.07497 2.13065 0
M  V30 1789 H 175.72 4.03446 2.81943 0
M  V30 1790 N 177.372 -0.689602 1.41712 0
M  V30 1791 C 178.302 -1.81577 1.46806 0
M  V30 1792 C 179.283 -1.66945 0.326105 0
M  V30 1793 O 180.468 -1.86588 0.538377 0
M  V30 1794 C 177.598 -3.19762 1.35535 0
M  V30 1795 C 176.552 -3.49107 2.47605 0
M  V30 1796 C 175.878 -4.86711 2.21397 0
M  V30 1797 C 177.178 -3.47483 3.89939 0
M  V30 1798 H 178.872 -1.7757 2.41058 0
M  V30 1799 H 176.418 -0.852887 1.16025 0
M  V30 1800 H 178.371 -3.98263 1.3771 0
M  V30 1801 H 177.095 -3.24409 0.377708 0
M  V30 1802 H 175.754 -2.72959 2.44722 0
M  V30 1803 H 175.402 -4.8799 1.21961 0
M  V30 1804 H 175.102 -5.0731 2.96497 0
M  V30 1805 H 176.626 -5.67515 2.25297 0
M  V30 1806 H 178.04 -4.1598 3.94505 0
M  V30 1807 H 176.437 -3.79615 4.64771 0
M  V30 1808 H 177.507 -2.46341 4.17665 0
M  V30 1809 N 178.85 -1.27639 -0.924453 0
M  V30 1810 C 180.127 -1.04887 -1.651 0
M  V30 1811 C 180.507 0.415327 -2.06974 0
M  V30 1812 O 179.855 1.39923 -1.80648 0
M  V30 1813 C 180.065 -2.01348 -2.85061 0
M  V30 1814 C 181.413 -2.30899 -3.56329 0
M  V30 1815 O 182.437 -1.99348 -2.95193 0
M  V30 1816 O 181.296 -2.84699 -4.66485 0
M  V30 1817 H 178.39 -0.400083 -0.723784 0
M  V30 1818 H 180.936 -1.38916 -0.974703 0
M  V30 1819 H 179.708 -3.0008 -2.51133 0
M  V30 1820 H 179.331 -1.679 -3.6041 0
M  V30 1821 N 180.328 1.1314 -1.09713 0
M  V30 1822 C 181.258 2.20748 -0.761102 0
M  V30 1823 C 182.239 1.68061 0.262566 0
M  V30 1824 O 183.424 1.93765 0.129977 0
M  V30 1825 C 180.554 3.46812 -0.184054 0
M  V30 1826 C 179.508 4.12606 -1.13757 0
M  V30 1827 C 178.834 5.33031 -0.422083 0
M  V30 1828 C 180.134 4.59603 -2.48118 0
M  V30 1829 H 181.828 2.49113 -1.66082 0
M  V30 1830 H 179.374 1.19734 -0.799987 0
M  V30 1831 H 181.327 4.21353 0.0631215 0
M  V30 1832 H 180.051 3.17851 0.750868 0
M  V30 1833 H 178.71 3.40036 -1.37007 0
M  V30 1834 H 178.358 5.00335 0.517072 0
M  V30 1835 H 178.058 5.77999 -1.05788 0
M  V30 1836 H 179.582 6.10325 -0.183277 0
M  V30 1837 H 180.996 5.25552 -2.29059 0
M  V30 1838 H 179.393 5.15321 -3.07514 0
M  V30 1839 H 180.463 3.73971 -3.08665 0
M  V30 1840 N 181.806 0.884767 1.30421 0
M  V30 1841 C 183.031 0.517288 2.00845 0
M  V30 1842 C 183.456 -0.886779 1.65885 0
M  V30 1843 O 182.814 -1.58768 0.875354 0
M  V30 1844 C 182.862 0.698994 3.5376 0
M  V30 1845 O 181.966 -0.255208 4.1161 0
M  V30 1846 H 181.307 0.203872 0.631927 0
M  V30 1847 H 183.837 1.19225 1.66272 0
M  V30 1848 H 183.847 0.597912 4.03595 0
M  V30 1849 H 182.522 1.72271 3.78544 0
M  V30 1850 H 181.099 -0.10784 3.72744 0
M  V30 1851 N 183.284 -1.43765 0.645699 0
M  V30 1852 C 184.509 -2.06767 0.161883 0
M  V30 1853 C 184.934 -1.48034 -1.16049 0
M  V30 1854 O 184.292 -0.587369 -1.71522 0
M  V30 1855 C 184.34 -3.60519 0.0762003 0
M  V30 1856 O 183.444 -4.00982 -0.963721 0
M  V30 1857 H 182.785 -0.657675 0.091429 0
M  V30 1858 H 185.315 -1.84397 0.886499 0
M  V30 1859 H 185.325 -4.07853 -0.109604 0
M  V30 1860 H 184 -4.02646 1.04157 0
M  V30 1861 H 182.577 -3.65253 -0.751312 0
M  V30 1862 N 184.763 -0.387143 -1.52771 0
M  V30 1863 C 185.988 0.198407 -2.06449 0
M  V30 1864 C 186.413 1.39918 -1.25716 0
M  V30 1865 O 185.771 1.79099 -0.281657 0
M  V30 1866 C 185.819 0.548893 -3.56398 0
M  V30 1867 O 184.923 1.64315 -3.78252 0
M  V30 1868 H 184.264 0.0237731 -0.663574 0
M  V30 1869 H 186.794 -0.553989 -1.96957 0
M  V30 1870 H 186.804 0.813812 -3.99801 0
M  V30 1871 H 185.479 -0.329005 -4.14597 0
M  V30 1872 H 184.056 1.37211 -3.46738 0
M  V30 1873 N 186.241 1.57166 -0.116904 0
M  V30 1874 C 187.466 1.999 0.55271 0
M  V30 1875 C 187.891 0.996039 1.59564 0
M  V30 1876 O 187.249 -0.032556 1.81271 0
M  V30 1877 C 187.297 3.4152 1.15742 0
M  V30 1878 O 186.401 3.44106 2.27299 0
M  V30 1879 H 185.742 0.649447 0.138258 0
M  V30 1880 H 188.272 2.03573 -0.204759 0
M  V30 1881 H 188.282 3.79684 1.49346 0
M  V30 1882 H 186.957 4.14034 0.393493 0
M  V30 1883 H 185.534 3.17759 1.9515 0
M  V30 1884 N 187.719 -0.156864 1.56817 0
M  V30 1885 C 188.651 -1.21883 1.94106 0
M  V30 1886 C 189.664 -1.3971 0.835754 0
M  V30 1887 O 190.853 -1.39457 1.11418 0
M  V30 1888 C 187.953 -2.58527 2.19127 0
M  V30 1889 C 187.126 -2.61809 3.50393 0
M  V30 1890 C 186.185 -3.7992 3.64071 0
M  V30 1891 O 185.211 -3.65249 4.36557 0
M  V30 1892 N 186.413 -4.96973 2.99997 0
M  V30 1893 H 189.178 -0.901974 2.85805 0
M  V30 1894 H 186.739 -0.346513 1.58148 0
M  V30 1895 H 188.731 -3.36034 2.25529 0
M  V30 1896 H 187.301 -2.82545 1.33742 0
M  V30 1897 H 186.521 -1.7029 3.5552 0
M  V30 1898 H 187.809 -2.61024 4.36742 0
M  V30 1899 H 187.207 -5.11794 2.41004 0
M  V30 1900 H 185.764 -5.7229 3.11974 0
M  V30 1901 N 189.197 -1.51736 -0.425897 0
M  V30 1902 C 190.13 -1.68574 -1.53812 0
M  V30 1903 C 191.108 -0.53328 -1.53606 0
M  V30 1904 O 192.292 -0.758555 -1.72564 0
M  V30 1905 C 189.419 -1.70977 -2.92377 0
M  V30 1906 C 188.465 -2.92324 -3.10563 0
M  V30 1907 S 189.298 -4.52952 -2.85648 0
M  V30 1908 C 190.454 -4.58117 -4.26474 0
M  V30 1909 H 190.687 -2.62647 -1.39298 0
M  V30 1910 H 188.22 -1.41564 -0.616361 0
M  V30 1911 H 190.178 -1.73047 -3.72243 0
M  V30 1912 H 188.839 -0.78061 -3.04245 0
M  V30 1913 H 188.032 -2.90439 -4.11899 0
M  V30 1914 H 187.634 -2.88055 -2.38538 0
M  V30 1915 H 189.926 -4.34462 -5.19855 0
M  V30 1916 H 190.869 -5.59983 -4.33388 0
M  V30 1917 H 191.277 -3.8732 -4.10662 0
M  V30 1918 N 190.675 0.682077 -1.42076 0
M  V30 1919 C 191.9 1.47558 -1.45744 0
M  V30 1920 C 192.325 1.87977 -0.0680981 0
M  V30 1921 O 191.683 1.55522 0.9318 0
M  V30 1922 C 191.731 2.70575 -2.38373 0
M  V30 1923 O 190.835 3.68573 -1.85007 0
M  V30 1924 H 190.176 0.443585 -0.494093 0
M  V30 1925 H 192.706 0.837238 -1.86686 0
M  V30 1926 H 192.716 3.18729 -2.54707 0
M  V30 1927 H 191.391 2.40495 -3.39315 0
M  V30 1928 H 189.968 3.2757 -1.78192 0
M  V30 1929 N 192.153 1.28127 0.917671 0
M  V30 1930 C 193.564 1.13622 1.48145 0
M  V30 1931 C 193.915 -0.275207 1.9426 0
M  V30 1932 O 193.04 -1.1691 1.82102 0
M  V30 1933 C 193.635 2.05648 2.69248 0
M  V30 1934 C 192.194 1.95219 3.21818 0
M  V30 1935 C 191.341 1.97618 1.94532 0
M  V30 1936 H 194.292 1.40874 0.730772 0
M  V30 1937 H 194.313 1.61818 3.44377 0
M  V30 1938 H 193.825 3.08365 2.35653 0
M  V30 1939 H 191.926 0.955244 3.60147 0
M  V30 1940 H 192.039 2.81976 3.87333 0
M  V30 1941 H 190.403 1.41973 2.11461 0
M  V30 1942 H 191.186 3.02007 1.63238 0
M  V30 1943 N 193.631 -1.12557 1.10312 0
M  V30 1944 C 194.561 -2.20341 0.772798 0
M  V30 1945 C 195.542 -1.68198 -0.25365 0
M  V30 1946 O 196.727 -1.93831 -0.119699 0
M  V30 1947 C 193.857 -3.46709 0.202443 0
M  V30 1948 C 192.811 -4.11996 1.15943 0
M  V30 1949 C 192.137 -5.328 0.450345 0
M  V30 1950 C 193.437 -4.5828 2.50552 0
M  V30 1951 H 195.131 -2.48229 1.674 0
M  V30 1952 H 192.677 -1.19308 0.806326 0
M  V30 1953 H 194.63 -4.2138 -0.0407752 0
M  V30 1954 H 193.354 -3.18245 -0.734001 0
M  V30 1955 H 192.013 -3.39305 1.38808 0
M  V30 1956 H 191.661 -5.00602 -0.490531 0
M  V30 1957 H 191.361 -5.7743 1.08851 0
M  V30 1958 H 192.885 -6.10219 0.215642 0
M  V30 1959 H 194.299 -5.2433 2.31843 0
M  V30 1960 H 192.696 -5.13683 3.10242 0
M  V30 1961 H 193.766 -3.72329 3.10643 0
M  V30 1962 N 195.109 -0.891671 -1.2995 0
M  V30 1963 C 196.334 -0.527932 -2.00568 0
M  V30 1964 C 196.759 0.877969 -1.66353 0
M  V30 1965 O 196.117 1.58301 -0.883762 0
M  V30 1966 C 196.165 -0.717745 -3.53385 0
M  V30 1967 O 195.269 0.233376 -4.11739 0
M  V30 1968 H 194.61 -0.20722 -0.630837 0
M  V30 1969 H 197.14 -1.20105 -1.65638 0
M  V30 1970 H 197.15 -0.619307 -4.03272 0
M  V30 1971 H 195.825 -1.74276 -3.77625 0
M  V30 1972 H 194.402 0.0880706 -3.72796 0
M  V30 1973 N 196.587 1.43421 -0.653314 0
M  V30 1974 C 197.517 2.33487 0.0246656 0
M  V30 1975 C 198.498 1.49475 0.811863 0
M  V30 1976 O 199.683 1.78139 0.773322 0
M  V30 1977 C 196.813 3.32841 0.99166 0
M  V30 1978 C 195.767 4.26842 0.314568 0
M  V30 1979 C 195.093 5.16236 1.39302 0
M  V30 1980 C 196.393 5.16243 -0.793095 0
M  V30 1981 H 198.087 2.90427 -0.727481 0
M  V30 1982 H 195.633 1.39649 -0.351287 0
M  V30 1983 H 197.586 3.94747 1.47487 0
M  V30 1984 H 196.31 2.74158 1.77497 0
M  V30 1985 H 194.969 3.663 -0.148199 0
M  V30 1986 H 194.617 4.53891 2.16776 0
M  V30 1987 H 194.317 5.79948 0.945223 0
M  V30 1988 H 195.841 5.81015 1.87759 0
M  V30 1989 H 197.255 5.71958 -0.392039 0
M  V30 1990 H 195.652 5.88676 -1.16536 0
M  V30 1991 H 196.722 4.55927 -1.65103 0
M  V30 1992 N 198.065 0.39524 1.52563 0
M  V30 1993 C 199.295 -0.184675 2.05773 0
M  V30 1994 C 199.703 -1.40571 1.26635 0
M  V30 1995 O 199.046 -1.81105 0.30769 0
M  V30 1996 C 199.108 -0.613551 3.54226 0
M  V30 1997 C 198.772 0.49484 4.54313 0
M  V30 1998 C 199.769 1.3541 5.01956 0
M  V30 1999 C 197.454 0.663565 4.97898 0
M  V30 2000 C 199.448 2.36716 5.91814 0
M  V30 2001 C 197.135 1.67996 5.87555 0
M  V30 2002 C 198.133 2.53017 6.34406 0
M  V30 2003 O 197.821 3.52917 7.22291 0
M  V30 2004 H 197.553 -0.030077 0.675331 0
M  V30 2005 H 200.107 0.560708 1.97599 0
M  V30 2006 H 198.337 -1.411 3.60038 0
M  V30 2007 H 200.026 -1.11981 3.90148 0
M  V30 2008 H 200.792 1.23509 4.6901 0
M  V30 2009 H 196.671 0.0114913 4.60999 0
M  V30 2010 H 200.215 3.03113 6.28306 0
M  V30 2011 H 196.112 1.79933 6.19915 0
M  V30 2012 H 196.88 3.48996 7.40367 0
M  V30 2013 N 199.544 -1.57102 0.125237 0
M  V30 2014 C 200.792 -1.95021 -0.530198 0
M  V30 2015 C 201.113 -1.00982 -1.66816 0
M  V30 2016 O 200.383 -0.0672693 -1.95784 0
M  V30 2017 H 198.963 -0.720046 -0.198853 0
M  V30 2018 H 201.625 -1.93916 0.19564 0
M  V30 2019 H 200.721 -2.98211 -0.920681 0
M  V30 2020 N 201.022 0.148545 -1.56898 0
M  V30 2021 C 201.932 1.20293 -2.01412 0
M  V30 2022 C 202.948 1.47107 -0.929273 0
M  V30 2023 O 204.124 1.58807 -1.23863 0
M  V30 2024 C 201.189 2.51682 -2.38447 0
M  V30 2025 C 200.25 2.32529 -3.60872 0
M  V30 2026 C 199.483 3.57653 -3.96132 0
M  V30 2027 O 199.706 4.63771 -3.32073 0
M  V30 2028 O 198.64 3.50408 -4.89385 0
M  V30 2029 H 202.466 0.855025 -2.91416 0
M  V30 2030 H 200.051 0.357151 -1.45068 0
M  V30 2031 H 201.933 3.29147 -2.63135 0
M  V30 2032 H 200.608 2.86006 -1.51599 0
M  V30 2033 H 199.515 1.53019 -3.41373 0
M  V30 2034 H 200.848 2.03121 -4.48333 0
M  V30 2035 N 202.5 1.5196 0.417844 0
M  V30 2036 C 203.448 1.75278 1.52907 0
M  V30 2037 C 204.442 0.619611 1.57662 0
M  V30 2038 O 205.648 0.801457 1.61173 0
M  V30 2039 H 202.023 0.554141 0.508362 0
M  V30 2040 H 203.994 2.68389 1.30422 0
M  V30 2041 C 202.743 1.91262 2.90369 0
M  V30 2042 H 202.066 2.77872 2.8745 0
M  V30 2043 H 203.506 2.11581 3.67436 0
M  V30 2044 C 201.965 0.677431 3.30019 0
M  V30 2045 O 202.495 -0.158799 4.01386 0
M  V30 2046 N 200.701 0.515851 2.85985 0
M  V30 2047 H 200.248 1.19744 2.28077 0
M  V30 2048 H 200.206 -0.309315 3.12875 0
M  V30 2049 N 203.978 -0.674533 1.42435 0
M  V30 2050 C 205.203 -1.46784 1.46524 0
M  V30 2051 C 205.628 -1.87938 0.078066 0
M  V30 2052 O 204.986 -1.56014 -0.92354 0
M  V30 2053 C 205.034 -2.69307 2.39805 0
M  V30 2054 O 204.138 -3.67587 1.86959 0
M  V30 2055 H 203.479 -0.440959 0.496439 0
M  V30 2056 H 206.009 -0.827326 1.87127 0
M  V30 2057 H 206.019 -3.17374 2.56393 0
M  V30 2058 H 204.694 -2.38692 3.40586 0
M  V30 2059 H 203.271 -3.2662 1.79927 0
M  V30 2060 N 205.456 -1.28612 -0.910864 0
M  V30 2061 C 206.404 -1.1265 -2.03501 0
M  V30 2062 C 207.398 -0.0450054 -1.6934 0
M  V30 2063 O 208.604 -0.203988 -1.7884 0
M  V30 2064 H 204.979 -0.347639 -0.666822 0
M  V30 2065 H 206.95 -2.07849 -2.14106 0
M  V30 2066 C 205.699 -0.808143 -3.38178 0
M  V30 2067 H 205.022 -1.63231 -3.6496 0
M  V30 2068 H 206.462 -0.736426 -4.17556 0
M  V30 2069 C 204.921 0.488226 -3.33344 0
M  V30 2070 O 205.451 1.51766 -3.71927 0
M  V30 2071 N 203.657 0.490009 -2.86439 0
M  V30 2072 H 203.204 -0.348161 -2.55236 0
M  V30 2073 H 203.162 1.35741 -2.83587 0
M  V30 2074 N 206.934 1.1197 -1.10907 0
M  V30 2075 C 208.159 1.87942 -0.877064 0
M  V30 2076 C 208.584 1.79341 0.567314 0
M  V30 2077 O 207.942 1.15184 1.40009 0
M  V30 2078 C 207.99 3.34926 -1.33629 0
M  V30 2079 O 207.094 4.09303 -0.504447 0
M  V30 2080 H 206.435 0.583785 -0.316371 0
M  V30 2081 H 208.965 1.4157 -1.47712 0
M  V30 2082 H 208.975 3.8577 -1.32837 0
M  V30 2083 H 207.65 3.40504 -2.3881 0
M  V30 2084 H 206.227 3.68393 -0.577993 0
M  V30 2085 N 208.412 0.89855 1.29475 0
M  V30 2086 C 209.342 0.39201 2.30186 0
M  V30 2087 C 210.323 -0.532359 1.61555 0
M  V30 2088 O 211.508 -0.443331 1.89072 0
M  V30 2089 C 208.638 -0.382353 3.45189 0
M  V30 2090 C 207.592 0.451483 4.25612 0
M  V30 2091 C 206.918 -0.450307 5.328 0
M  V30 2092 C 208.218 1.70079 4.93832 0
M  V30 2093 H 209.912 1.23362 2.72804 0
M  V30 2094 H 207.458 0.594638 1.31149 0
M  V30 2095 H 209.411 -0.747451 4.14718 0
M  V30 2096 H 208.135 -1.25774 3.01411 0
M  V30 2097 H 206.794 0.798897 3.57789 0
M  V30 2098 H 206.442 -1.32379 4.85268 0
M  V30 2099 H 206.142 0.103902 5.87508 0
M  V30 2100 H 207.666 -0.811623 6.05182 0
M  V30 2101 H 209.08 1.40549 5.55805 0
M  V30 2102 H 207.477 2.19623 5.58467 0
M  V30 2103 H 208.547 2.43744 4.19186 0
M  V30 2104 N 209.89 -1.43072 0.660911 0
M  V30 2105 C 211.115 -2.06584 0.183805 0
M  V30 2106 C 211.54 -1.49257 -1.14472 0
M  V30 2107 O 210.898 -0.605528 -1.70889 0
M  V30 2108 C 210.946 -3.60418 0.114434 0
M  V30 2109 O 210.05 -4.01981 -0.921137 0
M  V30 2110 H 209.391 -0.656669 0.0983994 0
M  V30 2111 H 211.921 -1.83447 0.906006 0
M  V30 2112 H 211.931 -4.07946 -0.0663394 0
M  V30 2113 H 210.606 -4.01519 1.08422 0
M  V30 2114 H 209.183 -3.66029 -0.71253 0
M  V30 2115 N 211.368 -0.403325 -1.52352 0
M  V30 2116 C 212.593 0.176499 -2.06648 0
M  V30 2117 C 213.018 1.38577 -1.27193 0
M  V30 2118 O 212.376 1.7879 -0.300637 0
M  V30 2119 C 212.424 0.511061 -3.5696 0
M  V30 2120 O 211.528 1.60294 -3.79973 0
M  V30 2121 H 210.869 0.0167337 -0.663789 0
M  V30 2122 H 213.399 -0.574848 -1.96359 0
M  V30 2123 H 213.409 0.771362 -4.00642 0
M  V30 2124 H 212.084 -0.37296 -4.14224 0
M  V30 2125 H 210.661 1.33526 -3.48174 0
M  V30 2126 N 212.846 1.57033 -0.133567 0
M  V30 2127 C 213.809 2.14897 0.796995 0
M  V30 2128 C 214.809 1.0874 1.18458 0
M  V30 2129 O 215.999 1.34446 1.1077 0
M  V30 2130 C 213.131 2.70112 2.07973 0
M  V30 2131 H 214.324 2.98457 0.293873 0
M  V30 2132 H 211.877 1.55871 0.115787 0
M  V30 2133 H 212.612 1.9018 2.62682 0
M  V30 2134 H 212.397 3.47764 1.81115 0
M  V30 2135 H 213.887 3.14738 2.74462 0
M  V30 2136 N 214.325 -0.140222 1.56975 0
M  V30 2137 C 215.235 -1.19223 2.02047 0
M  V30 2138 C 216.251 -1.46612 0.937062 0
M  V30 2139 O 217.427 -1.58148 1.24704 0
M  V30 2140 C 214.492 -2.50414 2.39778 0
M  V30 2141 C 213.553 -2.30612 3.621 0
M  V30 2142 C 212.786 -3.55547 3.98023 0
M  V30 2143 O 213.009 -4.62004 3.34528 0
M  V30 2144 O 211.943 -3.47808 4.91237 0
M  V30 2145 H 215.769 -0.839559 2.91865 0
M  V30 2146 H 213.354 -0.349453 1.45256 0
M  V30 2147 H 215.236 -3.27747 2.64877 0
M  V30 2148 H 213.911 -2.85198 1.53114 0
M  V30 2149 H 212.818 -1.51207 3.4218 0
M  V30 2150 H 214.151 -2.00741 4.49404 0
M  V30 2151 N 215.803 -1.52179 -0.40978 0
M  V30 2152 C 217.214 -1.58377 -0.988615 0
M  V30 2153 C 217.565 -0.423879 -1.91566 0
M  V30 2154 O 216.69 0.455844 -2.11544 0
M  V30 2155 C 217.285 -2.87044 -1.79976 0
M  V30 2156 C 215.844 -2.95722 -2.32863 0
M  V30 2157 C 214.991 -2.53309 -1.12828 0
M  V30 2158 H 217.942 -1.57558 -0.190039 0
M  V30 2159 H 217.963 -2.7236 -2.65707 0
M  V30 2160 H 217.475 -3.71444 -1.12478 0
M  V30 2161 H 215.576 -2.15814 -3.03735 0
M  V30 2162 H 215.689 -3.99951 -2.63773 0
M  V30 2163 H 214.053 -2.07142 -1.48204 0
M  V30 2164 H 214.836 -3.40082 -0.46897 0
M  V30 2165 N 217.281 0.66697 -1.42791 0
M  V30 2166 C 218.211 1.79218 -1.49677 0
M  V30 2167 C 219.192 1.66405 -0.352623 0
M  V30 2168 O 220.377 1.85708 -0.567993 0
M  V30 2169 C 217.507 3.17565 -1.40605 0
M  V30 2170 C 216.461 3.45124 -2.53127 0
M  V30 2171 C 215.787 4.83127 -2.29112 0
M  V30 2172 C 217.087 3.41236 -3.95418 0
M  V30 2173 H 218.781 1.73713 -2.43853 0
M  V30 2174 H 216.327 0.83432 -1.17367 0
M  V30 2175 H 218.28 3.96022 -1.44029 0
M  V30 2176 H 217.004 3.23767 -0.429271 0
M  V30 2177 H 215.663 2.69031 -2.49034 0
M  V30 2178 H 215.311 4.85988 -1.29709 0
M  V30 2179 H 215.011 5.02528 -3.04531 0
M  V30 2180 H 216.535 5.63859 -2.34297 0
M  V30 2181 H 217.949 4.09651 -4.01073 0
M  V30 2182 H 216.346 3.72173 -4.70752 0
M  V30 2183 H 217.416 2.39665 -4.21532 0
M  V30 2184 N 218.759 1.29093 0.90403 0
M  V30 2185 C 219.706 1.13853 2.00764 0
M  V30 2186 C 220.676 0.0330084 1.66067 0
M  V30 2187 O 221.861 0.199733 1.89752 0
M  V30 2188 C 219.001 0.816537 3.35301 0
M  V30 2189 C 218.114 2.00206 3.82807 0
M  V30 2190 C 217.249 1.61983 5.059 0
M  V30 2191 C 216.288 2.77143 5.45764 0
M  V30 2192 N 215.425 2.39346 6.60044 0
M  V30 2193 H 220.265 2.08276 2.13132 0
M  V30 2194 H 217.802 1.03648 1.04381 0
M  V30 2195 H 219.76 0.610557 4.12708 0
M  V30 2196 H 218.39 -0.090779 3.22672 0
M  V30 2197 H 217.442 2.31988 3.01473 0
M  V30 2198 H 218.754 2.86512 4.08304 0
M  V30 2199 H 217.908 1.37649 5.90879 0
M  V30 2200 H 216.647 0.728202 4.82233 0
M  V30 2201 H 215.652 3.02165 4.59322 0
M  V30 2202 H 216.877 3.66964 5.71414 0
M  V30 2203 H 214.823 1.52665 6.37989 0
M  V30 2204 H 214.74 3.19185 6.85315 0
M  V30 2205 H 216.008 2.1832 7.48303 0
M  V30 2206 N 220.237 -1.11381 1.11499 0
M  V30 2207 C 221.147 -2.21019 0.786628 0
M  V30 2208 C 222.163 -1.72597 -0.220507 0
M  V30 2209 O 223.339 -2.01321 -0.0565251 0
M  V30 2210 C 220.404 -3.459 0.235333 0
M  V30 2211 C 219.465 -4.09107 1.30115 0
M  V30 2212 C 218.698 -5.28027 0.776068 0
M  V30 2213 O 218.921 -5.6904 -0.393661 0
M  V30 2214 O 217.855 -5.81835 1.54114 0
M  V30 2215 H 221.681 -2.51521 1.70209 0
M  V30 2216 H 219.266 -1.19928 0.890928 0
M  V30 2217 H 221.148 -4.21346 -0.067715 0
M  V30 2218 H 219.823 -3.17049 -0.652828 0
M  V30 2219 H 218.73 -3.35391 1.65722 0
M  V30 2220 H 220.063 -4.42139 2.16273 0
M  V30 2221 N 221.715 -0.905404 -1.28997 0
M  V30 2222 C 222.992 -0.453513 -1.9027 0
M  V30 2223 C 223.372 1.06721 -1.82137 0
M  V30 2224 O 222.72 1.91159 -1.25182 0
M  V30 2225 C 222.93 -0.974494 -3.35119 0
M  V30 2226 C 224.278 -1.0216 -4.12127 0
M  V30 2227 O 225.302 -0.922557 -3.44046 0
M  V30 2228 O 224.161 -1.17121 -5.33802 0
M  V30 2229 H 221.255 -0.142347 -0.814657 0
M  V30 2230 H 223.801 -0.995642 -1.37423 0
M  V30 2231 H 222.573 -2.01848 -3.35221 0
M  V30 2232 H 222.196 -0.412706 -3.95452 0
M  V30 2233 N 223.193 1.4272 -0.668489 0
M  V30 2234 C 224.14 2.30796 0.0137489 0
M  V30 2235 C 225.11 1.4561 0.799177 0
M  V30 2236 O 226.295 1.74453 0.772702 0
M  V30 2237 C 223.435 3.31377 0.963507 0
M  V30 2238 C 222.548 4.31655 0.172569 0
M  V30 2239 C 221.683 5.19312 1.1175 0
M  V30 2240 C 220.722 6.11274 0.317886 0
M  V30 2241 N 219.859 6.91504 1.2152 0
M  V30 2242 H 224.699 2.88585 -0.743161 0
M  V30 2243 H 222.236 1.42154 -0.378226 0
M  V30 2244 H 224.194 3.88214 1.52792 0
M  V30 2245 H 222.824 2.75202 1.68712 0
M  V30 2246 H 221.876 3.76988 -0.508374 0
M  V30 2247 H 223.188 4.96779 -0.448527 0
M  V30 2248 H 222.342 5.80851 1.75206 0
M  V30 2249 H 221.081 4.5435 1.77249 0
M  V30 2250 H 220.086 5.48809 -0.329918 0
M  V30 2251 H 221.311 6.78283 -0.332917 0
M  V30 2252 H 219.257 6.29176 1.85671 0
M  V30 2253 H 219.174 7.53209 0.649036 0
M  V30 2254 H 220.442 7.57535 1.83742 0
M  V30 2255 N 224.671 0.411399 1.52136 0
M  V30 2256 C 226.082 -0.0576826 1.86611 0
M  V30 2257 C 226.433 -1.44238 1.33003 0
M  V30 2258 O 225.558 -2.05759 0.670228 0
M  V30 2259 C 226.153 -0.111448 3.38617 0
M  V30 2260 C 224.712 -0.52487 3.72723 0
M  V30 2261 C 223.859 0.299176 2.75681 0
M  V30 2262 H 226.81 0.628368 1.4573 0
M  V30 2263 H 226.831 -0.926252 3.69054 0
M  V30 2264 H 226.343 0.896488 3.77604 0
M  V30 2265 H 224.444 -1.53936 3.39315 0
M  V30 2266 H 224.557 -0.267681 4.78352 0
M  V30 2267 H 222.921 -0.238814 2.53578 0
M  V30 2268 H 223.704 1.3055 3.17508 0
M  V30 2269 N 226.149 -1.5696 0.141893 0
M  V30 2270 C 227.395 -1.9625 -0.511248 0
M  V30 2271 C 227.728 -1.02654 -1.64851 0
M  V30 2272 O 227.003 -0.0679676 -1.94381 0
M  V30 2273 C 227.286 -3.45285 -1.02227 0
M  V30 2274 C 227.139 -4.49658 0.113138 0
M  V30 2275 C 228.458 -3.96698 -1.90574 0
M  V30 2276 H 225.577 -0.713567 -0.184367 0
M  V30 2277 H 228.219 -1.88698 0.222087 0
M  V30 2278 H 226.369 -3.51852 -1.64719 0
M  V30 2279 H 228.041 -4.55174 0.749302 0
M  V30 2280 H 226.284 -4.26857 0.773026 0
M  V30 2281 H 226.955 -5.51258 -0.286053 0
M  V30 2282 H 229.431 -3.92578 -1.37918 0
M  V30 2283 H 228.307 -5.01453 -2.2324 0
M  V30 2284 H 228.568 -3.3875 -2.84079 0
M  V30 2285 N 227.627 0.131896 -1.57047 0
M  V30 2286 C 228.855 0.856461 -1.88341 0
M  V30 2287 C 229.27 1.74042 -0.731757 0
M  V30 2288 O 228.627 1.80051 0.297945 0
M  V30 2289 C 228.678 1.70064 -3.18999 0
M  V30 2290 O 228.399 0.852278 -4.2973 0
M  V30 2291 C 229.9 2.53148 -3.63911 0
M  V30 2292 H 227.12 0.246885 -0.62393 0
M  V30 2293 H 229.664 0.120152 -2.04147 0
M  V30 2294 H 227.819 2.38984 -3.04902 0
M  V30 2295 H 228.233 1.43329 -5.04537 0
M  V30 2296 H 229.707 3.07931 -4.58129 0
M  V30 2297 H 230.184 3.29901 -2.89935 0
M  V30 2298 H 230.79 1.89492 -3.80753 0
M  V30 2299 N 229.106 1.52395 0.401703 0
M  V30 2300 C 230.354 1.66488 1.14569 0
M  V30 2301 C 230.675 0.400897 1.90835 0
M  V30 2302 O 229.945 -0.584415 1.8698 0
M  V30 2303 H 228.525 0.613672 0.425929 0
M  V30 2304 H 231.187 1.89464 0.457093 0
M  V30 2305 H 230.283 2.50942 1.85566 0
M  V30 2306 N 230.584 -0.659388 1.43143 0
M  V30 2307 C 231.995 -1.24041 1.39537 0
M  V30 2308 C 232.346 -1.95963 0.0963364 0
M  V30 2309 O 231.471 -2.00892 -0.804438 0
M  V30 2310 C 232.066 -2.25601 2.52764 0
M  V30 2311 C 230.625 -2.79195 2.52443 0
M  V30 2312 C 229.772 -1.53743 2.30778 0
M  V30 2313 H 232.723 -0.451792 1.52133 0
M  V30 2314 H 232.744 -3.07651 2.23899 0
M  V30 2315 H 232.256 -1.73226 3.47296 0
M  V30 2316 H 230.357 -3.35649 1.61773 0
M  V30 2317 H 230.47 -3.2716 3.50004 0
M  V30 2318 H 228.834 -1.80869 1.79328 0
M  V30 2319 H 229.617 -1.03312 3.27386 0
M  V30 2320 N 232.062 -1.29571 -0.897171 0
M  V30 2321 C 233.478 -1.07637 -1.17841 0
M  V30 2322 C 233.678 0.170713 -2.00776 0
M  V30 2323 O 232.734 0.867768 -2.3712 0
M  V30 2324 C 234.047 -2.3332 -1.8969 0
M  V30 2325 C 235.595 -2.38664 -2.02505 0
M  V30 2326 C 236.07 -3.64157 -2.77765 0
M  V30 2327 N 237.561 -3.64894 -2.85318 0
M  V30 2328 C 238.296 -4.58679 -3.44094 0
M  V30 2329 N 237.792 -5.62799 -4.04017 0
M  V30 2330 N 239.585 -4.46245 -3.41793 0
M  V30 2331 H 231.736 -2.09598 -0.343883 0
M  V30 2332 H 233.999 -0.923333 -0.214848 0
M  V30 2333 H 233.705 -3.24262 -1.36187 0
M  V30 2334 H 233.579 -2.41025 -2.9015 0
M  V30 2335 H 235.966 -1.48208 -2.55183 0
M  V30 2336 H 236.047 -2.34943 -1.01171 0
M  V30 2337 H 235.691 -4.54965 -2.25763 0
M  V30 2338 H 235.621 -3.65137 -3.7945 0
M  V30 2339 H 238.112 -2.89613 -2.42761 0
M  V30 2340 H 238.425 -6.3048 -4.46895 0
M  V30 2341 H 236.77 -5.66605 -4.02472 0
M  V30 2342 H 239.961 -3.64094 -2.94199 0
M  V30 2343 H 240.134 -5.19518 -3.87304 0
M  V30 2344 N 233.54 1.10788 -1.12088 0
M  V30 2345 C 234.488 2.19111 -0.780587 0
M  V30 2346 C 235.482 1.67818 0.230961 0
M  V30 2347 O 236.688 1.79777 0.0895427 0
M  V30 2348 H 233.063 0.714477 -0.234578 0
M  V30 2349 H 235.034 2.45055 -1.70266 0
M  V30 2350 C 233.783 3.46818 -0.24747 0
M  V30 2351 H 233.106 3.86646 -1.01712 0
M  V30 2352 H 234.546 4.23973 -0.0476291 0
M  V30 2353 C 233.005 3.20968 1.02378 0
M  V30 2354 O 233.535 3.42298 2.10226 0
M  V30 2355 N 231.741 2.74658 0.949271 0
M  V30 2356 H 231.288 2.57501 0.0715173 0
M  V30 2357 H 231.246 2.57739 1.80049 0
M  V30 2358 N 235.018 0.912232 1.28515 0
M  V30 2359 C 235.965 0.397954 2.27343 0
M  V30 2360 C 236.935 -0.526766 1.57526 0
M  V30 2361 O 238.12 -0.449292 1.85435 0
M  V30 2362 C 235.26 -0.357263 3.43246 0
M  V30 2363 C 234.373 0.599788 4.27816 0
M  V30 2364 C 233.508 -0.173725 5.30916 0
M  V30 2365 C 232.547 0.777039 6.07148 0
M  V30 2366 N 231.684 0.0371398 7.0209 0
M  V30 2367 H 236.524 1.24577 2.70711 0
M  V30 2368 H 234.061 0.625612 1.33133 0
M  V30 2369 H 236.019 -0.8113 4.09236 0
M  V30 2370 H 234.649 -1.16943 3.00872 0
M  V30 2371 H 233.701 1.17235 3.61884 0
M  V30 2372 H 235.013 1.32704 4.80823 0
M  V30 2373 H 234.167 -0.688394 6.02782 0
M  V30 2374 H 232.906 -0.934041 4.78672 0
M  V30 2375 H 231.911 1.3031 5.34134 0
M  V30 2376 H 233.136 1.53689 6.61481 0
M  V30 2377 H 231.082 -0.705213 6.52198 0
M  V30 2378 H 230.999 0.704249 7.52713 0
M  V30 2379 H 232.267 -0.457383 7.78157 0
M  V30 2380 N 236.496 -1.42363 0.676048 0
M  V30 2381 C 237.724 -2.05859 0.207268 0
M  V30 2382 C 238.139 -1.50796 -1.13605 0
M  V30 2383 O 237.496 -0.648265 -1.70598 0
M  V30 2384 C 237.547 -3.61248 0.134975 0
M  V30 2385 O 237.268 -4.1427 1.42521 0
M  V30 2386 C 238.769 -4.41859 -0.357151 0
M  V30 2387 H 235.989 -0.663431 0.100503 0
M  V30 2388 H 238.533 -1.82479 0.923136 0
M  V30 2389 H 236.688 -3.83735 -0.531588 0
M  V30 2390 H 237.102 -5.0815 1.29939 0
M  V30 2391 H 238.576 -5.50847 -0.356641 0
M  V30 2392 H 239.053 -4.16536 -1.39264 0
M  V30 2393 H 239.659 -4.24392 0.27772 0
M  V30 2394 N 237.974 -0.419461 -1.51915 0
M  V30 2395 C 238.884 0.407528 -2.31033 0
M  V30 2396 C 239.9 1.04413 -1.3919 0
M  V30 2397 O 241.076 1.0434 -1.72265 0
M  V30 2398 C 238.141 1.50365 -3.12396 0
M  V30 2399 C 237.202 0.889029 -4.19994 0
M  V30 2400 C 236.435 1.93291 -4.97468 0
M  V30 2401 O 236.658 3.15259 -4.75361 0
M  V30 2402 O 235.592 1.53339 -5.8204 0
M  V30 2403 H 239.418 -0.237865 -3.02767 0
M  V30 2404 H 237.003 -0.182413 -1.48282 0
M  V30 2405 H 238.885 2.13975 -3.63032 0
M  V30 2406 H 237.56 2.13345 -2.43445 0
M  V30 2407 H 236.467 0.215353 -3.7348 0
M  V30 2408 H 237.8 0.302991 -4.91267 0
M  V30 2409 N 239.452 1.56882 -0.150215 0
M  V30 2410 C 240.4 2.18214 0.805313 0
M  V30 2411 C 241.394 1.14006 1.25296 0
M  V30 2412 O 242.6 1.3225 1.22107 0
M  V30 2413 H 238.975 0.698762 0.277913 0
M  V30 2414 H 240.946 2.97231 0.263862 0
M  V30 2415 C 239.695 2.82065 2.03309 0
M  V30 2416 H 239.018 3.61968 1.69763 0
M  V30 2417 H 240.458 3.28477 2.68103 0
M  V30 2418 C 238.917 1.80739 2.84315 0
M  V30 2419 O 239.447 1.27983 3.80767 0
M  V30 2420 N 237.653 1.4997 2.48913 0
M  V30 2421 H 237.2 1.93062 1.70542 0
M  V30 2422 H 237.158 0.824217 3.03404 0
M  V30 2423 N 240.93 -0.123565 1.57115 0
M  V30 2424 C 242.178 -0.83051 1.84247 0
M  V30 2425 C 242.499 -1.80629 0.73471 0
M  V30 2426 O 241.769 -1.94403 -0.241688 0
M  V30 2427 H 240.349 -0.309694 0.679778 0
M  V30 2428 H 243.011 -0.111976 1.94578 0
M  V30 2429 H 242.107 -1.37852 2.80006 0
M  V30 2430 N 242.408 -1.52605 -0.393616 0
M  V30 2431 C 243.338 -1.80022 -1.48709 0
M  V30 2432 C 244.319 -0.651995 -1.57108 0
M  V30 2433 O 245.504 -0.89913 -1.72132 0
M  V30 2434 C 242.634 -1.96492 -2.86371 0
M  V30 2435 C 241.588 -3.12161 -2.92813 0
M  V30 2436 C 240.914 -3.13877 -4.3288 0
M  V30 2437 C 242.214 -4.51322 -2.6288 0
M  V30 2438 H 243.908 -2.71589 -1.26015 0
M  V30 2439 H 241.454 -1.30684 -0.604778 0
M  V30 2440 H 243.407 -2.14255 -3.62867 0
M  V30 2441 H 242.131 -1.01611 -3.10391 0
M  V30 2442 H 240.79 -2.94173 -2.18764 0
M  V30 2443 H 240.438 -2.16687 -4.53933 0
M  V30 2444 H 240.138 -3.91576 -4.38112 0
M  V30 2445 H 241.662 -3.33789 -5.1129 0
M  V30 2446 H 243.076 -4.69435 -3.29096 0
M  V30 2447 H 241.473 -5.31053 -2.79468 0
M  V30 2448 H 242.543 -4.58353 -1.58242 0
M  V30 2449 N 243.887 0.651787 -1.4349 0
M  V30 2450 C 245.115 1.43937 -1.48626 0
M  V30 2451 C 245.53 1.8851 -0.104587 0
M  V30 2452 O 244.887 1.5958 0.885464 0
M  V30 2453 C 244.938 2.6734 -2.43334 0
M  V30 2454 O 244.659 2.24631 -3.76128 0
M  V30 2455 C 246.16 3.60683 -2.57726 0
M  V30 2456 H 243.38 0.44213 -0.504739 0
M  V30 2457 H 245.924 0.798944 -1.88248 0
M  V30 2458 H 244.079 3.2752 -2.06904 0
M  V30 2459 H 244.493 3.04485 -4.2707 0
M  V30 2460 H 245.967 4.43933 -3.28067 0
M  V30 2461 H 246.444 4.08126 -1.62265 0
M  V30 2462 H 247.05 3.06384 -2.94973 0
M  V30 2463 N 245.365 1.30045 0.890287 0
M  V30 2464 C 246.776 1.16738 1.45702 0
M  V30 2465 C 247.127 -0.233939 1.948 0
M  V30 2466 O 246.252 -1.13021 1.84541 0
M  V30 2467 C 246.847 2.11313 2.64825 0
M  V30 2468 C 245.406 2.02001 3.17604 0
M  V30 2469 C 244.553 2.01699 1.90296 0
M  V30 2470 H 247.504 1.42392 0.700726 0
M  V30 2471 H 247.525 1.69086 3.40867 0
M  V30 2472 H 247.037 3.13294 2.2906 0
M  V30 2473 H 245.138 1.03142 3.5804 0
M  V30 2474 H 245.251 2.90128 3.81264 0
M  V30 2475 H 243.615 1.46427 2.08402 0
M  V30 2476 H 244.398 3.05402 1.56795 0
M  V30 2477 N 246.843 -1.10192 1.12674 0
M  V30 2478 C 247.79 -2.16606 0.796906 0
M  V30 2479 C 248.76 -1.64394 -0.237476 0
M  V30 2480 O 249.945 -1.90474 -0.111484 0
M  V30 2481 C 247.085 -3.44116 0.26043 0
M  V30 2482 C 246.198 -4.10268 1.35293 0
M  V30 2483 C 245.333 -5.25507 0.775621 0
M  V30 2484 C 244.372 -5.83567 1.84706 0
M  V30 2485 N 243.509 -6.90179 1.28829 0
M  V30 2486 H 248.349 -2.44163 1.70846 0
M  V30 2487 H 245.886 -1.19846 0.85295 0
M  V30 2488 H 247.844 -4.17143 -0.0686814 0
M  V30 2489 H 246.474 -3.16901 -0.614274 0
M  V30 2490 H 245.526 -3.35184 1.79877 0
M  V30 2491 H 246.838 -4.4946 2.16303 0
M  V30 2492 H 245.992 -6.05398 0.397327 0
M  V30 2493 H 244.731 -4.87656 -0.0656581 0
M  V30 2494 H 243.736 -5.02344 2.23452 0
M  V30 2495 H 244.961 -6.23482 2.69161 0
M  V30 2496 H 242.907 -6.54322 0.468881 0
M  V30 2497 H 242.824 -7.28097 2.03497 0
M  V30 2498 H 244.092 -7.73844 0.937311 0
M  V30 2499 N 248.321 -0.919034 -1.28029 0
M  V30 2500 C 249.268 -0.410005 -2.27129 0
M  V30 2501 C 250.238 0.518405 -1.57803 0
M  V30 2502 O 251.423 0.439451 -1.8567 0
M  V30 2503 C 248.563 0.339054 -3.4343 0
M  V30 2504 C 247.676 -0.622468 -4.27492 0
M  V30 2505 C 246.811 0.145567 -5.31001 0
M  V30 2506 C 245.85 -0.809226 -6.06727 0
M  V30 2507 N 244.987 -0.0743728 -7.02061 0
M  V30 2508 H 249.827 -1.26011 -2.70047 0
M  V30 2509 H 247.364 -0.632663 -1.328 0
M  V30 2510 H 249.322 0.789586 -4.0966 0
M  V30 2511 H 247.952 1.15346 -3.01488 0
M  V30 2512 H 247.004 -1.19153 -3.61257 0
M  V30 2513 H 248.316 -1.35252 -4.80113 0
M  V30 2514 H 247.47 0.656417 -6.03139 0
M  V30 2515 H 246.209 0.908643 -4.79161 0
M  V30 2516 H 245.214 -1.3314 -5.33436 0
M  V30 2517 H 246.439 -1.57194 -6.60656 0
M  V30 2518 H 244.385 0.670616 -6.52563 0
M  V30 2519 H 244.302 -0.744157 -7.52329 0
M  V30 2520 H 245.57 0.416109 -7.78389 0
M  V30 2521 N 249.799 1.42003 -0.683588 0
M  V30 2522 C 250.746 2.30798 -0.0107309 0
M  V30 2523 C 251.716 1.4645 0.783688 0
M  V30 2524 O 252.901 1.75263 0.754156 0
M  V30 2525 C 250.041 3.3238 0.928306 0
M  V30 2526 C 249.154 4.31814 0.126776 0
M  V30 2527 C 248.289 5.20468 1.06236 0
M  V30 2528 C 247.328 6.11577 0.253035 0
M  V30 2529 N 246.465 6.92754 1.14179 0
M  V30 2530 H 251.305 2.8778 -0.773727 0
M  V30 2531 H 248.842 1.41745 -0.393283 0
M  V30 2532 H 250.8 3.89813 1.48666 0
M  V30 2533 H 249.43 2.76976 1.65783 0
M  V30 2534 H 248.482 3.76427 -0.54833 0
M  V30 2535 H 249.794 4.96276 -0.501192 0
M  V30 2536 H 248.948 5.82677 1.69035 0
M  V30 2537 H 247.687 4.56204 1.7242 0
M  V30 2538 H 246.692 5.48428 -0.388108 0
M  V30 2539 H 247.917 6.77892 -0.404839 0
M  V30 2540 H 245.863 6.3111 1.78987 0
M  V30 2541 H 245.78 7.53855 0.569111 0
M  V30 2542 H 247.048 7.59441 1.75697 0
M  V30 2543 N 251.277 0.427512 1.51691 0
M  V30 2544 C 252.526 -0.143679 2.01188 0
M  V30 2545 C 252.839 -1.44642 1.31674 0
M  V30 2546 O 254.045 -2.09997 1.72086 0
M  V30 2547 C 252.501 -0.306602 3.58592 0
M  V30 2548 C 252.109 0.985125 4.37035 0
M  V30 2549 C 253.853 -0.832091 4.16265 0
M  V30 2550 C 251.76 0.788382 5.86122 0
M  V30 2551 H 250.69 -0.0574701 0.751807 0
M  V30 2552 H 253.341 0.555772 1.74881 0
M  V30 2553 H 251.723 -1.06882 3.81303 0
M  V30 2554 H 252.897 1.75492 4.26074 0
M  V30 2555 H 251.212 1.4384 3.90767 0
M  V30 2556 H 253.809 -0.995617 5.25349 0
M  V30 2557 H 254.152 -1.81186 3.74803 0
M  V30 2558 H 254.685 -0.128444 3.97593 0
M  V30 2559 H 251.424 1.74025 6.31978 0
M  V30 2560 H 250.944 0.0582143 5.99772 0
M  V30 2561 H 252.623 0.437722 6.45518 0
M  V30 2562 N 252.755 -1.56801 0.158532 0
M  V30 2563 C 253.687 -2.14488 -0.807923 0
M  V30 2564 C 254.7 -1.09721 -1.20271 0
M  V30 2565 O 255.889 -1.36956 -1.14478 0
M  V30 2566 C 252.989 -2.66217 -2.09718 0
M  V30 2567 C 252.162 -3.95507 -1.86796 0
M  V30 2568 C 251.221 -4.3243 -2.99818 0
M  V30 2569 O 250.247 -5.00543 -2.71008 0
M  V30 2570 N 251.449 -3.92947 -4.27285 0
M  V30 2571 H 254.214 -2.98042 -0.314816 0
M  V30 2572 H 251.775 -1.61881 -0.0246692 0
M  V30 2573 H 253.767 -2.87924 -2.84398 0
M  V30 2574 H 252.337 -1.87324 -2.50257 0
M  V30 2575 H 251.557 -3.82309 -0.96089 0
M  V30 2576 H 252.845 -4.79972 -1.68833 0
M  V30 2577 H 252.243 -3.38087 -4.53557 0
M  V30 2578 H 250.8 -4.19681 -4.9871 0
M  V30 2579 N 254.233 0.115231 -1.57178 0
M  V30 2580 C 255.479 0.82357 -1.85325 0
M  V30 2581 C 255.812 1.79349 -0.744814 0
M  V30 2582 O 255.087 1.92899 0.249024 0
M  V30 2583 C 255.37 1.57014 -3.24066 0
M  V30 2584 C 255.223 0.619565 -4.45513 0
M  V30 2585 C 256.542 2.52545 -3.60429 0
M  V30 2586 H 253.661 0.297948 -0.674089 0
M  V30 2587 H 256.303 0.0877138 -1.89797 0
M  V30 2588 H 254.453 2.19742 -3.20383 0
M  V30 2589 H 256.125 0.000837639 -4.613 0
M  V30 2590 H 254.368 -0.0686174 -4.33746 0
M  V30 2591 H 255.039 1.17866 -5.3927 0
M  V30 2592 H 257.515 1.9992 -3.64926 0
M  V30 2593 H 256.391 3.01811 -4.58477 0
M  V30 2594 H 256.652 3.35383 -2.88047 0
M  V30 2595 N 255.711 1.52812 0.385517 0
M  V30 2596 C 256.659 1.78482 1.49155 0
M  V30 2597 C 257.653 0.652914 1.56312 0
M  V30 2598 O 258.859 0.835464 1.59436 0
M  V30 2599 H 255.234 0.5648 0.496493 0
M  V30 2600 H 257.205 2.71095 1.24699 0
M  V30 2601 C 255.954 1.97378 2.86247 0
M  V30 2602 H 255.277 2.83907 2.81491 0
M  V30 2603 H 256.717 2.19327 3.62866 0
M  V30 2604 C 255.176 0.74728 3.28508 0
M  V30 2605 O 255.706 -0.0736232 4.01633 0
M  V30 2606 N 253.912 0.576396 2.84826 0
M  V30 2607 H 253.459 1.24555 2.25486 0
M  V30 2608 H 253.417 -0.24288 3.1346 0
M  V30 2609 N 257.189 -0.644168 1.43834 0
M  V30 2610 C 258.414 -1.43642 1.49605 0
M  V30 2611 C 258.839 -1.8773 0.117913 0
M  V30 2612 O 258.197 -1.57938 -0.890239 0
M  V30 2613 C 258.245 -2.6416 2.45463 0
M  V30 2614 O 257.349 -3.63538 1.94714 0
M  V30 2615 H 256.69 -0.430329 0.50568 0
M  V30 2616 H 259.22 -0.787448 1.8884 0
M  V30 2617 H 259.23 -3.11864 2.63068 0
M  V30 2618 H 257.905 -2.31414 3.45572 0
M  V30 2619 H 256.482 -3.2273 1.86814 0
M  V30 2620 N 258.668 -1.30515 -0.883378 0
M  V30 2621 C 259.615 -1.17032 -1.98927 0
M  V30 2622 C 260.585 -0.0594241 -1.65994 0
M  V30 2623 O 261.77 -0.229895 -1.8941 0
M  V30 2624 C 258.91 -0.869777 -3.33959 0
M  V30 2625 C 258.023 -2.06271 -3.79574 0
M  V30 2626 C 257.158 -1.70011 -5.03259 0
M  V30 2627 C 256.197 -2.8579 -5.41286 0
M  V30 2628 N 255.334 -2.49816 -6.56153 0
M  V30 2629 H 260.174 -2.1164 -2.09792 0
M  V30 2630 H 257.711 -1.05296 -1.02719 0
M  V30 2631 H 259.669 -0.676138 -4.11685 0
M  V30 2632 H 258.299 0.0394332 -3.22776 0
M  V30 2633 H 257.351 -2.36755 -2.97744 0
M  V30 2634 H 258.663 -2.92971 -4.03694 0
M  V30 2635 H 257.817 -1.47032 -5.88614 0
M  V30 2636 H 256.556 -0.804829 -4.81013 0
M  V30 2637 H 255.561 -3.09434 -4.54456 0
M  V30 2638 H 256.786 -3.76008 -5.65504 0
M  V30 2639 H 254.732 -1.62795 -6.35479 0
M  V30 2640 H 254.649 -3.30048 -6.8015 0
M  V30 2641 H 255.917 -2.30197 -7.44735 0
M  V30 2642 N 260.146 1.09593 -1.13257 0
M  V30 2643 C 261.557 1.63229 -0.906274 0
M  V30 2644 C 261.908 1.8811 0.557578 0
M  V30 2645 O 261.033 1.62953 1.42391 0
M  V30 2646 C 261.628 2.96535 -1.63867 0
M  V30 2647 C 260.187 3.47003 -1.45828 0
M  V30 2648 C 259.334 2.2145 -1.66898 0
M  V30 2649 H 262.285 0.92978 -1.28611 0
M  V30 2650 H 262.306 3.64411 -1.09476 0
M  V30 2651 H 261.818 2.78394 -2.70404 0
M  V30 2652 H 259.919 3.70272 -0.415848 0
M  V30 2653 H 260.032 4.24551 -2.2202 0
M  V30 2654 H 258.396 2.30022 -1.09371 0
M  V30 2655 H 259.179 2.0583 -2.74752 0
M  V30 2656 N 261.624 0.925811 1.2754 0
M  V30 2657 C 262.849 0.580924 1.99098 0
M  V30 2658 C 263.274 -0.833555 1.68622 0
M  V30 2659 O 262.632 -1.55903 0.925422 0
M  V30 2660 C 262.68 0.811186 3.51358 0
M  V30 2661 O 261.784 -0.124129 4.12213 0
M  V30 2662 H 261.125 0.223873 0.625122 0
M  V30 2663 H 263.655 1.24455 1.62395 0
M  V30 2664 H 263.665 0.72601 4.01489 0
M  V30 2665 H 262.34 1.84227 3.72872 0
M  V30 2666 H 260.917 0.0108006 3.72898 0
M  V30 2667 N 263.102 -1.41638 0.69111 0
M  V30 2668 C 264.351 -2.00526 0.217318 0
M  V30 2669 C 264.664 -1.55353 -1.18848 0
M  V30 2670 O 265.87 -2.06769 -1.75951 0
M  V30 2671 C 264.326 -3.58313 0.337639 0
M  V30 2672 C 263.934 -4.12469 1.74852 0
M  V30 2673 C 265.678 -4.24431 -0.0766066 0
M  V30 2674 C 263.585 -5.62675 1.82074 0
M  V30 2675 H 262.515 -0.750008 0.0774893 0
M  V30 2676 H 265.166 -1.6217 0.858661 0
M  V30 2677 H 263.548 -3.9425 -0.371879 0
M  V30 2678 H 264.722 -3.8796 2.48644 0
M  V30 2679 H 263.037 -3.58861 2.11205 0
M  V30 2680 H 265.634 -5.34683 -0.0430284 0
M  V30 2681 H 265.977 -4.01101 -1.1146 0
M  V30 2682 H 266.51 -3.93512 0.582476 0
M  V30 2683 H 263.249 -5.90826 2.83911 0
M  V30 2684 H 262.769 -5.89124 1.12661 0
M  V30 2685 H 264.448 -6.27371 1.58159 0
M  V30 2686 N 264.58 -0.43555 -1.51462 0
M  V30 2687 C 265.512 0.41257 -2.25456 0
M  V30 2688 C 266.525 0.987822 -1.29406 0
M  V30 2689 O 267.714 0.882266 -1.55172 0
M  V30 2690 C 264.814 1.58894 -2.99342 0
M  V30 2691 C 263.987 1.13288 -4.22474 0
M  V30 2692 C 263.046 2.17917 -4.78956 0
M  V30 2693 O 262.072 1.77425 -5.40841 0
M  V30 2694 N 263.274 3.50382 -4.62832 0
M  V30 2695 H 266.039 -0.221603 -2.9888 0
M  V30 2696 H 263.6 -0.264342 -1.59727 0
M  V30 2697 H 265.592 2.28508 -3.34015 0
M  V30 2698 H 264.162 2.12849 -2.28941 0
M  V30 2699 H 263.382 0.263881 -3.93316 0
M  V30 2700 H 264.67 0.805542 -5.02383 0
M  V30 2701 H 264.068 3.86013 -4.13534 0
M  V30 2702 H 262.625 4.15895 -5.01871 0
M  V30 2703 N 266.058 1.56714 -0.166846 0
M  V30 2704 C 267.469 1.83378 0.350646 0
M  V30 2705 C 267.82 1.08646 1.63372 0
M  V30 2706 O 266.945 0.338058 2.13743 0
M  V30 2707 C 267.54 3.32643 0.642963 0
M  V30 2708 C 266.099 3.59818 1.10491 0
M  V30 2709 C 265.246 2.76954 0.138411 0
M  V30 2710 H 268.197 1.53803 -0.391193 0
M  V30 2711 H 268.218 3.49878 1.49551 0
M  V30 2712 H 267.73 3.87007 -0.291055 0
M  V30 2713 H 265.831 3.1086 2.05418 0
M  V30 2714 H 265.944 4.68178 1.01716 0
M  V30 2715 H 264.308 2.4666 0.634911 0
M  V30 2716 H 265.091 3.34097 -0.789549 0
M  V30 2717 N 267.536 -0.106894 1.57237 0
M  V30 2718 C 268.483 -1.13049 2.01217 0
M  V30 2719 C 269.453 -1.40471 0.886403 0
M  V30 2720 O 270.638 -1.52133 1.15153 0
M  V30 2721 C 267.778 -2.4487 2.43172 0
M  V30 2722 C 266.891 -2.24281 3.69218 0
M  V30 2723 C 266.026 -3.49417 4.00101 0
M  V30 2724 C 265.065 -3.24038 5.19294 0
M  V30 2725 N 264.202 -4.41409 5.45988 0
M  V30 2726 H 269.042 -0.748456 2.88448 0
M  V30 2727 H 266.579 -0.358054 1.42676 0
M  V30 2728 H 268.537 -3.21786 2.65537 0
M  V30 2729 H 267.167 -2.80944 1.58967 0
M  V30 2730 H 266.219 -1.38224 3.54398 0
M  V30 2731 H 267.531 -2.01512 4.56283 0
M  V30 2732 H 266.685 -4.34746 4.2318 0
M  V30 2733 H 265.424 -3.75229 3.11535 0
M  V30 2734 H 264.429 -2.37102 4.96047 0
M  V30 2735 H 265.654 -2.99584 6.09447 0
M  V30 2736 H 263.6 -4.67319 4.60379 0
M  V30 2737 H 263.517 -4.21788 6.274 0
M  V30 2738 H 264.785 -5.27836 5.73593 0
M  V30 2739 N 269.014 -1.53014 -0.377408 0
M  V30 2740 C 270.425 -1.60438 -0.954798 0
M  V30 2741 C 270.776 -0.464418 -1.90624 0
M  V30 2742 O 269.901 0.41087 -2.12464 0
M  V30 2743 C 270.496 -2.90797 -1.73847 0
M  V30 2744 C 269.055 -3.00595 -2.26538 0
M  V30 2745 C 268.202 -2.55645 -1.07429 0
M  V30 2746 H 271.153 -1.57926 -0.156575 0
M  V30 2747 H 271.174 -2.77935 -2.5987 0
M  V30 2748 H 270.686 -3.73746 -1.04574 0
M  V30 2749 H 268.787 -2.22208 -2.99089 0
M  V30 2750 H 268.9 -4.05456 -2.5523 0
M  V30 2751 H 267.264 -2.10239 -1.43777 0
M  V30 2752 H 268.047 -3.41 -0.396728 0
M  V30 2753 N 270.492 0.636531 -1.44174 0
M  V30 2754 C 271.422 1.76003 -1.53444 0
M  V30 2755 C 272.403 1.65619 -0.387841 0
M  V30 2756 O 273.588 1.84461 -0.607257 0
M  V30 2757 C 270.718 3.14511 -1.4731 0
M  V30 2758 C 269.672 3.39677 -2.60391 0
M  V30 2759 C 268.998 4.78159 -2.39308 0
M  V30 2760 C 270.298 3.32772 -4.02567 0
M  V30 2761 H 271.992 1.68501 -2.47483 0
M  V30 2762 H 269.538 0.809237 -1.19111 0
M  V30 2763 H 271.491 3.92878 -1.52397 0
M  V30 2764 H 270.215 3.22783 -0.49785 0
M  V30 2765 H 268.874 2.63688 -2.54684 0
M  V30 2766 H 268.522 4.83128 -1.39988 0
M  V30 2767 H 268.222 4.95956 -3.15122 0
M  V30 2768 H 269.746 5.58762 -2.46205 0
M  V30 2769 H 271.16 4.01051 -4.09672 0
M  V30 2770 H 269.557 3.62104 -4.7854 0
M  V30 2771 H 270.627 2.30669 -4.2652 0
M  V30 2772 N 271.97 1.30982 0.876444 0
M  V30 2773 C 272.9 1.20668 1.99903 0
M  V30 2774 C 273.881 0.095354 1.69833 0
M  V30 2775 O 275.066 0.27885 1.92188 0
M  V30 2776 C 272.196 0.90655 3.3526 0
M  V30 2777 C 271.15 1.97675 3.79617 0
M  V30 2778 C 270.476 1.52943 5.1236 0
M  V30 2779 C 271.776 3.389 3.97422 0
M  V30 2780 H 273.47 2.14586 2.0879 0
M  V30 2781 H 271.016 1.03308 1.00317 0
M  V30 2782 H 272.969 0.821025 4.13324 0
M  V30 2783 H 271.693 -0.0682969 3.26529 0
M  V30 2784 H 270.352 2.05205 3.03787 0
M  V30 2785 H 270 0.54262 5.00065 0
M  V30 2786 H 269.7 2.24532 5.43009 0
M  V30 2787 H 271.224 1.45786 5.92941 0
M  V30 2788 H 272.638 3.34081 4.659 0
M  V30 2789 H 271.035 4.0865 4.3946 0
M  V30 2790 H 272.105 3.80163 3.01006 0
M  V30 2791 N 273.449 -1.08991 1.13837 0
M  V30 2792 C 274.379 -2.17771 0.842507 0
M  V30 2793 C 275.36 -1.6892 -0.20001 0
M  V30 2794 O 276.545 -1.94113 -0.0579731 0
M  V30 2795 C 273.675 -3.4589 0.312644 0
M  V30 2796 C 272.629 -4.08099 1.28992 0
M  V30 2797 C 271.955 -5.31098 0.619623 0
M  V30 2798 C 273.255 -4.50077 2.65005 0
M  V30 2799 H 274.949 -2.42777 1.75213 0
M  V30 2800 H 272.495 -1.16682 0.843875 0
M  V30 2801 H 274.448 -4.21297 0.0933043 0
M  V30 2802 H 273.172 -3.20419 -0.632382 0
M  V30 2803 H 271.831 -3.34717 1.49533 0
M  V30 2804 H 271.479 -5.0191 -0.33102 0
M  V30 2805 H 271.179 -5.73674 1.27167 0
M  V30 2806 H 272.703 -6.09224 0.409669 0
M  V30 2807 H 274.117 -5.16688 2.48407 0
M  V30 2808 H 272.514 -5.03553 3.26427 0
M  V30 2809 H 273.584 -3.62257 3.22332 0
M  V30 2810 N 274.927 -0.932562 -1.27047 0
M  V30 2811 C 276.338 -0.619451 -1.76124 0
M  V30 2812 C 276.689 0.865397 -1.76083 0
M  V30 2813 O 275.814 1.67722 -1.36742 0
M  V30 2814 C 276.409 -1.11771 -3.19832 0
M  V30 2815 C 274.968 -0.855174 -3.66557 0
M  V30 2816 C 274.115 -1.27362 -2.46321 0
M  V30 2817 H 277.066 -1.11181 -1.13245 0
M  V30 2818 H 277.087 -0.46759 -3.77616 0
M  V30 2819 H 276.599 -2.19842 -3.1983 0
M  V30 2820 H 274.7 0.211524 -3.71999 0
M  V30 2821 H 274.813 -1.47613 -4.55793 0
M  V30 2822 H 273.177 -0.692119 -2.45116 0
M  V30 2823 H 273.96 -2.36307 -2.49025 0
M  V30 2824 N 276.405 1.4127 -0.698611 0
M  V30 2825 C 277.368 2.29158 -0.044132 0
M  V30 2826 C 278.368 1.44529 0.704841 0
M  V30 2827 O 279.558 1.65643 0.539276 0
M  V30 2828 C 276.69 3.27459 0.947809 0
M  V30 2829 H 277.883 2.88529 -0.817994 0
M  V30 2830 H 275.436 1.49307 -0.46228 0
M  V30 2831 H 276.171 2.73073 1.74933 0
M  V30 2832 H 275.956 3.8991 0.41385 0
M  V30 2833 H 277.446 3.93311 1.40344 0
M  V30 2834 N 277.883 0.443576 1.51229 0
M  V30 2835 C 278.846 -0.353132 2.26463 0
M  V30 2836 C 279.846 -0.944338 1.3015 0
M  V30 2837 O 281.036 -0.817813 1.5381 0
M  V30 2838 C 278.168 -1.50023 3.06114 0
M  V30 2839 H 279.361 0.3063 2.98332 0
M  V30 2840 H 276.914 0.196902 1.55055 0
M  V30 2841 H 277.649 -2.19553 2.38677 0
M  V30 2842 H 277.434 -1.08241 3.76864 0
M  V30 2843 H 278.924 -2.06296 3.63087 0
M  V30 2844 N 279.361 -1.56624 0.175154 0
M  V30 2845 C 280.772 -1.83561 -0.340916 0
M  V30 2846 C 281.123 -1.09511 -1.62794 0
M  V30 2847 O 280.248 -0.349389 -2.13561 0
M  V30 2848 C 280.843 -3.32979 -0.625313 0
M  V30 2849 C 279.402 -3.60399 -1.08581 0
M  V30 2850 C 278.549 -2.77024 -0.123722 0
M  V30 2851 H 281.5 -1.53593 0.399344 0
M  V30 2852 H 281.521 -3.50666 -1.47694 0
M  V30 2853 H 281.033 -3.86847 0.311575 0
M  V30 2854 H 279.134 -3.11945 -2.03767 0
M  V30 2855 H 279.247 -4.68711 -0.992317 0
M  V30 2856 H 277.611 -2.46993 -0.621821 0
M  V30 2857 H 278.394 -3.33674 0.807256 0
M  V30 2858 N 280.839 0.0985539 -1.57292 0
M  V30 2859 C 281.786 1.11981 -2.01814 0
M  V30 2860 C 282.756 1.39999 -0.89384 0
M  V30 2861 O 283.941 1.5152 -1.15958 0
M  V30 2862 C 281.081 2.43577 -2.44467 0
M  V30 2863 C 280.194 2.2232 -3.70402 0
M  V30 2864 C 279.329 3.4729 -4.01949 0
M  V30 2865 C 278.368 3.2128 -5.21005 0
M  V30 2866 N 277.505 4.38507 -5.48321 0
M  V30 2867 H 282.345 0.733149 -2.88841 0
M  V30 2868 H 279.882 0.350482 -1.42864 0
M  V30 2869 H 281.84 3.20373 -2.6724 0
M  V30 2870 H 280.47 2.80097 -1.60455 0
M  V30 2871 H 279.522 1.36343 -3.55126 0
M  V30 2872 H 280.834 1.99089 -4.57345 0
M  V30 2873 H 279.988 4.32495 -4.25479 0
M  V30 2874 H 278.727 3.73572 -3.13521 0
M  V30 2875 H 277.732 2.34468 -4.97298 0
M  V30 2876 H 278.957 2.96348 -6.11028 0
M  V30 2877 H 276.903 4.64871 -4.62851 0
M  V30 2878 H 276.82 4.18455 -6.29628 0
M  V30 2879 H 278.088 5.24787 -5.76385 0
M  V30 2880 N 282.317 1.53212 0.369288 0
M  V30 2881 C 283.545 1.73119 1.13303 0
M  V30 2882 C 283.96 0.458455 1.83149 0
M  V30 2883 O 283.317 -0.568403 1.73423 0
M  V30 2884 C 283.368 2.89413 2.16616 0
M  V30 2885 O 283.089 4.11761 1.49614 0
M  V30 2886 C 284.59 3.21161 3.05566 0
M  V30 2887 H 281.81 0.579107 0.338934 0
M  V30 2888 H 284.354 1.99942 0.429338 0
M  V30 2889 H 282.509 2.64994 2.82589 0
M  V30 2890 H 282.923 4.76858 2.18419 0
M  V30 2891 H 284.397 4.05949 3.74045 0
M  V30 2892 H 284.874 2.36369 3.70171 0
M  V30 2893 H 285.48 3.47492 2.45213 0
M  V30 2894 N 283.795 -0.628877 1.44509 0
M  V30 2895 C 284.727 -1.754 1.47538 0
M  V30 2896 C 285.74 -1.58575 0.368506 0
M  V30 2897 O 286.929 -1.66847 0.634376 0
M  V30 2898 C 284.029 -3.1315 1.29577 0
M  V30 2899 C 283.202 -3.56413 2.53551 0
M  V30 2900 C 282.261 -4.7305 2.30457 0
M  V30 2901 O 281.287 -4.81247 3.03957 0
M  V30 2902 N 282.489 -5.64903 1.3366 0
M  V30 2903 H 285.254 -1.73272 2.44534 0
M  V30 2904 H 282.815 -0.813512 1.39977 0
M  V30 2905 H 284.807 -3.88902 1.11971 0
M  V30 2906 H 283.377 -3.09908 0.409371 0
M  V30 2907 H 282.597 -2.70847 2.86419 0
M  V30 2908 H 283.885 -3.82071 3.36005 0
M  V30 2909 H 283.283 -5.60975 0.729604 0
M  V30 2910 H 281.84 -6.40275 1.22032 0
M  V30 2911 N 285.273 -1.31445 -0.869486 0
M  V30 2912 C 286.501 -1.24122 -1.65534 0
M  V30 2913 C 286.916 0.193387 -1.87807 0
M  V30 2914 O 286.273 1.12557 -1.43656 0
M  V30 2915 C 286.324 -1.98229 -3.02304 0
M  V30 2916 O 286.045 -3.3609 -2.81026 0
M  V30 2917 C 287.546 -1.97751 -3.96749 0
M  V30 2918 H 284.766 -0.428868 -0.516055 0
M  V30 2919 H 287.31 -1.73328 -1.08525 0
M  V30 2920 H 285.465 -1.52782 -3.56001 0
M  V30 2921 H 285.879 -3.7383 -3.67902 0
M  V30 2922 H 287.353 -2.54114 -4.90031 0
M  V30 2923 H 287.83 -0.960137 -4.28577 0
M  V30 2924 H 288.436 -2.43079 -3.48988 0
M  V30 2925 N 286.751 1.08385 -1.14413 0
M  V30 2926 C 287.699 2.17406 -0.826888 0
M  V30 2927 C 288.693 1.6827 0.195312 0
M  V30 2928 O 289.899 1.79927 0.0513892 0
M  V30 2929 H 286.274 0.70934 -0.249681 0
M  V30 2930 H 288.245 2.41388 -1.75426 0
M  V30 2931 C 286.994 3.46215 -0.320979 0
M  V30 2932 H 286.317 3.84401 -1.0989 0
M  V30 2933 H 287.757 4.23777 -0.137549 0
M  V30 2934 C 286.216 3.23067 0.955472 0
M  V30 2935 O 286.746 3.4668 2.02918 0
M  V30 2936 N 284.952 2.7661 0.890798 0
M  V30 2937 H 284.499 2.57594 0.0168815 0
M  V30 2938 H 284.457 2.61501 1.74542 0
M  V30 2939 N 288.23 0.939286 1.26551 0
M  V30 2940 C 289.455 0.602008 1.98471 0
M  V30 2941 C 289.88 -0.815624 1.69497 0
M  V30 2942 O 289.238 -1.54912 0.941905 0
M  V30 2943 C 289.286 0.848407 3.50477 0
M  V30 2944 O 288.39 -0.0804009 4.12322 0
M  V30 2945 H 287.731 0.23049 0.622712 0
M  V30 2946 H 290.261 1.2617 1.61066 0
M  V30 2947 H 290.271 0.768553 4.00696 0
M  V30 2948 H 288.946 1.88171 3.70897 0
M  V30 2949 H 287.523 0.0503508 3.72866 0
M  V30 2950 N 289.708 -1.40897 0.706093 0
M  V30 2951 C 290.933 -2.05895 0.249435 0
M  V30 2952 C 291.358 -1.52823 -1.09666 0
M  V30 2953 O 290.716 -0.659589 -1.68876 0
M  V30 2954 C 290.764 -3.59872 0.22904 0
M  V30 2955 O 289.868 -4.04708 -0.792784 0
M  V30 2956 H 289.209 -0.653206 0.119241 0
M  V30 2957 H 291.739 -1.80471 0.96391 0
M  V30 2958 H 291.749 -4.07951 0.0634791 0
M  V30 2959 H 290.424 -3.97866 1.21141 0
M  V30 2960 H 289.001 -3.68111 -0.59572 0
M  V30 2961 N 291.186 -0.45159 -1.50991 0
M  V30 2962 C 292.432 0.110237 -2.025 0
M  V30 2963 C 292.765 1.41109 -1.33424 0
M  V30 2964 O 292.04 1.89135 -0.453659 0
M  V30 2965 C 292.323 0.314271 -3.58726 0
M  V30 2966 C 292.176 -1.00623 -4.38401 0
M  V30 2967 C 293.495 1.07767 -4.26702 0
M  V30 2968 H 290.614 0.0385897 -0.735989 0
M  V30 2969 H 293.256 -0.593374 -1.80497 0
M  V30 2970 H 291.406 0.913601 -3.77605 0
M  V30 2971 H 293.078 -1.64064 -4.31139 0
M  V30 2972 H 291.321 -1.6075 -4.02917 0
M  V30 2973 H 291.992 -0.817341 -5.45915 0
M  V30 2974 H 294.468 0.56986 -4.12179 0
M  V30 2975 H 293.344 1.18921 -5.35863 0
M  V30 2976 H 293.605 2.10939 -3.88532 0
M  V30 2977 N 292.664 1.56529 -0.183458 0
M  V30 2978 C 294.075 1.83739 0.331177 0
M  V30 2979 C 294.426 1.10373 1.62211 0
M  V30 2980 O 293.551 0.36071 2.13373 0
M  V30 2981 C 294.146 3.33306 0.607646 0
M  V30 2982 C 292.705 3.60969 1.06668 0
M  V30 2983 C 291.852 2.77086 0.109029 0
M  V30 2984 H 294.803 1.53379 -0.407484 0
M  V30 2985 H 294.824 3.51444 1.45832 0
M  V30 2986 H 294.336 3.86677 -0.332086 0
M  V30 2987 H 292.437 3.13021 2.0211 0
M  V30 2988 H 292.55 4.69231 0.967447 0
M  V30 2989 H 290.914 2.47319 0.608714 0
M  V30 2990 H 291.697 3.33241 -0.82494 0
M  V30 2991 N 294.142 -0.090211 1.57342 0
M  V30 2992 C 295.105 -1.09335 2.01441 0
M  V30 2993 C 296.105 -1.32666 0.908641 0
M  V30 2994 O 297.295 -1.28697 1.174 0
M  V30 2995 C 294.427 -2.44136 2.3793 0
M  V30 2996 H 295.62 -0.713662 2.91285 0
M  V30 2997 H 293.173 -0.335404 1.52659 0
M  V30 2998 H 293.908 -2.86972 1.51055 0
M  V30 2999 H 293.693 -2.28548 3.18603 0
M  V30 3000 H 295.183 -3.16277 2.72688 0
M  V30 3001 N 295.62 -1.53406 -0.361157 0
M  V30 3002 C 296.567 -1.80156 -1.44265 0
M  V30 3003 C 297.537 -0.646183 -1.53015 0
M  V30 3004 O 298.722 -0.888818 -1.68833 0
M  V30 3005 C 295.862 -2.00116 -2.81154 0
M  V30 3006 C 294.975 -3.27833 -2.81335 0
M  V30 3007 C 294.11 -3.37957 -4.09828 0
M  V30 3008 C 293.149 -4.59689 -4.04168 0
M  V30 3009 N 292.286 -4.66942 -5.24318 0
M  V30 3010 H 297.126 -2.72438 -1.20754 0
M  V30 3011 H 294.663 -1.34954 -0.585296 0
M  V30 3012 H 296.621 -2.09677 -3.60682 0
M  V30 3013 H 295.251 -1.11167 -3.03054 0
M  V30 3014 H 294.303 -3.27204 -1.94014 0
M  V30 3015 H 295.615 -4.17442 -2.73027 0
M  V30 3016 H 294.769 -3.46853 -4.97773 0
M  V30 3017 H 293.508 -2.46372 -4.20894 0
M  V30 3018 H 292.513 -4.50889 -3.14609 0
M  V30 3019 H 293.738 -5.5262 -3.947 0
M  V30 3020 H 291.684 -3.7826 -5.35962 0
M  V30 3021 H 291.601 -5.50462 -5.18197 0
M  V30 3022 H 292.869 -4.80127 -6.14084 0
M  V30 3023 N 297.098 0.621204 -1.44841 0
M  V30 3024 C 298.326 1.40752 -1.51646 0
M  V30 3025 C 298.741 1.88246 -0.144549 0
M  V30 3026 O 298.098 1.61422 0.851416 0
M  V30 3027 C 298.149 2.62119 -2.4895 0
M  V30 3028 O 297.87 2.16602 -3.80808 0
M  V30 3029 C 299.371 3.55135 -2.65319 0
M  V30 3030 H 296.591 0.431325 -0.514004 0
M  V30 3031 H 299.135 0.758835 -1.899 0
M  V30 3032 H 297.29 3.23058 -2.13805 0
M  V30 3033 H 297.704 2.95358 -4.33433 0
M  V30 3034 H 299.178 4.36874 -3.37409 0
M  V30 3035 H 299.655 4.04592 -1.70886 0
M  V30 3036 H 300.261 3.00058 -3.01405 0
M  V30 3037 N 298.576 1.31904 0.862503 0
M  V30 3038 C 299.825 1.21373 1.61094 0
M  V30 3039 C 300.138 -0.22504 1.94301 0
M  V30 3040 O 301.344 -0.452121 2.67709 0
M  V30 3041 C 299.8 2.12525 2.9045 0
M  V30 3042 C 299.408 3.61441 2.64697 0
M  V30 3043 C 301.152 2.10813 3.68454 0
M  V30 3044 C 299.059 4.44578 3.90006 0
M  V30 3045 H 297.989 0.450705 0.604468 0
M  V30 3046 H 300.64 1.56811 0.953027 0
M  V30 3047 H 299.022 1.69994 3.57656 0
M  V30 3048 H 300.196 4.12264 2.05851 0
M  V30 3049 H 298.511 3.65205 2.00036 0
M  V30 3050 H 301.108 2.70167 4.61426 0
M  V30 3051 H 301.451 1.09713 4.01583 0
M  V30 3052 H 301.984 2.51583 3.08141 0
M  V30 3053 H 298.723 5.46461 3.62023 0
M  V30 3054 H 298.243 3.98508 4.48276 0
M  V30 3055 H 299.922 4.57176 4.5782 0
M  V30 3056 N 300.054 -1.07777 1.14986 0
M  V30 3057 C 301.303 -1.79669 0.916617 0
M  V30 3058 C 301.616 -1.87474 -0.557917 0
M  V30 3059 O 302.822 -2.55845 -0.908617 0
M  V30 3060 C 301.278 -3.22848 1.59051 0
M  V30 3061 C 300.886 -3.23257 3.10176 0
M  V30 3062 C 302.63 -3.99379 1.43864 0
M  V30 3063 C 300.537 -4.61063 3.70372 0
M  V30 3064 H 299.467 -0.673349 0.33929 0
M  V30 3065 H 302.118 -1.21003 1.37951 0
M  V30 3066 H 300.5 -3.8168 1.0553 0
M  V30 3067 H 301.674 -2.74095 3.70417 0
M  V30 3068 H 299.989 -2.60222 3.25074 0
M  V30 3069 H 302.586 -5.0122 1.86232 0
M  V30 3070 H 302.929 -4.14511 0.385564 0
M  V30 3071 H 303.462 -3.47032 1.94457 0
M  V30 3072 H 300.201 -4.51135 4.7556 0
M  V30 3073 H 299.721 -5.1048 3.14913 0
M  V30 3074 H 301.4 -5.30034 3.71043 0
M  V30 3075 N 301.532 -0.945985 -1.26051 0
M  V30 3076 C 302.781 -0.591836 -1.92822 0
M  V30 3077 C 303.094 0.873956 -1.7499 0
M  V30 3078 O 304.3 1.33769 -2.36259 0
M  V30 3079 C 302.756 -1.00776 -3.45503 0
M  V30 3080 C 302.364 -2.4955 -3.7206 0
M  V30 3081 C 304.108 -0.725735 -4.1825 0
M  V30 3082 C 302.015 -2.84988 -5.18205 0
M  V30 3083 H 300.945 -0.217635 -0.721908 0
M  V30 3084 H 303.596 -1.14927 -1.43052 0
M  V30 3085 H 301.978 -0.378812 -3.94184 0
M  V30 3086 H 303.152 -3.1739 -3.34066 0
M  V30 3087 H 301.467 -2.75133 -3.12555 0
M  V30 3088 H 304.064 -0.966771 -5.25887 0
M  V30 3089 H 304.407 0.337639 -4.14929 0
M  V30 3090 H 304.94 -1.31463 -3.7545 0
M  V30 3091 H 301.679 -3.90307 -5.26631 0
M  V30 3092 H 301.199 -2.21813 -5.57278 0
M  V30 3093 H 302.878 -2.73712 -5.86252 0
M  V30 3094 N 303.011 1.40521 -0.713556 0
M  V30 3095 C 303.943 2.29191 -0.0203126 0
M  V30 3096 C 304.956 1.45723 0.725864 0
M  V30 3097 O 306.145 1.69033 0.573581 0
M  V30 3098 C 303.245 3.2395 0.995486 0
M  V30 3099 C 302.418 4.36262 0.315256 0
M  V30 3100 C 301.477 5.11474 1.23616 0
M  V30 3101 O 300.503 5.64606 0.721719 0
M  V30 3102 N 301.705 5.20638 2.56743 0
M  V30 3103 H 304.47 2.89327 -0.781652 0
M  V30 3104 H 302.031 1.51869 -0.561022 0
M  V30 3105 H 304.023 3.71137 1.61368 0
M  V30 3106 H 302.593 2.64995 1.6582 0
M  V30 3107 H 301.813 3.91228 -0.483106 0
M  V30 3108 H 303.101 5.08558 -0.157004 0
M  V30 3109 H 302.499 4.7895 3.01037 0
M  V30 3110 H 301.056 5.71339 3.13712 0
M  V30 3111 N 304.489 0.459591 1.5075 0
M  V30 3112 C 305.717 -0.0973749 2.06671 0
M  V30 3113 C 306.132 -1.34524 1.32472 0
M  V30 3114 O 305.489 -1.7827 0.390634 0
M  V30 3115 C 305.54 -0.39714 3.59312 0
M  V30 3116 O 305.261 0.801214 4.30711 0
M  V30 3117 C 306.762 -1.00234 4.31819 0
M  V30 3118 H 303.982 0.00195854 0.670997 0
M  V30 3119 H 306.526 0.645072 1.94059 0
M  V30 3120 H 304.681 -1.08951 3.71764 0
M  V30 3121 H 305.095 0.538857 5.21725 0
M  V30 3122 H 306.569 -1.16193 5.39632 0
M  V30 3123 H 307.046 -1.98939 3.91561 0
M  V30 3124 H 307.652 -0.348699 4.23868 0
M  V30 3125 N 305.967 -1.56429 0.191757 0
M  V30 3126 C 307.213 -1.97777 -0.448554 0
M  V30 3127 C 307.546 -1.07847 -1.61501 0
M  V30 3128 O 306.821 -0.129774 -1.94067 0
M  V30 3129 C 307.104 -3.48362 -0.911906 0
M  V30 3130 C 306.957 -4.4907 0.256136 0
M  V30 3131 C 308.276 -4.02561 -1.77857 0
M  V30 3132 H 305.395 -0.719071 -0.161572 0
M  V30 3133 H 308.037 -1.87896 0.282007 0
M  V30 3134 H 306.187 -3.56914 -1.53442 0
M  V30 3135 H 307.859 -4.5256 0.893733 0
M  V30 3136 H 306.102 -4.24181 0.908436 0
M  V30 3137 H 306.773 -5.51889 -0.11053 0
M  V30 3138 H 309.249 -3.96767 -1.25359 0
M  V30 3139 H 308.125 -5.08301 -2.07174 0
M  V30 3140 H 308.386 -3.47616 -2.73158 0
M  V30 3141 N 307.445 0.0818655 -1.57387 0
M  V30 3142 C 308.856 0.634871 -1.75574 0
M  V30 3143 C 309.207 1.78435 -0.815809 0
M  V30 3144 O 308.332 2.164 0.0025366 0
M  V30 3145 C 308.927 1.15845 -3.18379 0
M  V30 3146 C 307.486 1.65741 -3.37945 0
M  V30 3147 C 306.633 0.572549 -2.71325 0
M  V30 3148 H 309.584 -0.144268 -1.58043 0
M  V30 3149 H 309.605 2.02751 -3.21982 0
M  V30 3150 H 309.117 0.321631 -3.86765 0
M  V30 3151 H 307.218 2.51781 -2.74658 0
M  V30 3152 H 307.331 1.74129 -4.46336 0
M  V30 3153 H 305.695 1.01518 -2.33594 0
M  V30 3154 H 306.478 -0.253918 -3.4236 0
M  V30 3155 N 308.923 1.53595 0.353017 0
M  V30 3156 C 310.151 1.74311 1.1146 0
M  V30 3157 C 310.566 0.477854 1.82653 0
M  V30 3158 O 309.923 -0.549977 1.74016 0
M  V30 3159 C 309.974 2.91694 2.13534 0
M  V30 3160 O 309.695 4.13325 1.45238 0
M  V30 3161 C 311.196 3.24384 3.02142 0
M  V30 3162 H 308.416 0.582669 0.332773 0
M  V30 3163 H 310.96 2.00386 0.408107 0
M  V30 3164 H 309.115 2.67977 2.79763 0
M  V30 3165 H 309.529 4.79148 2.13349 0
M  V30 3166 H 311.003 4.09893 3.69718 0
M  V30 3167 H 311.48 2.40282 3.67643 0
M  V30 3168 H 312.086 3.50073 2.41514 0
M  V30 3169 N 310.401 -0.613514 1.45168 0
M  V30 3170 C 311.331 -1.7354 1.56225 0
M  V30 3171 C 312.312 -1.64981 0.41414 0
M  V30 3172 O 313.497 -1.83472 0.636526 0
M  V30 3173 C 310.627 -3.12128 1.52295 0
M  V30 3174 C 309.581 -3.35491 2.65762 0
M  V30 3175 C 308.907 -4.74291 2.46885 0
M  V30 3176 C 310.207 -3.26325 4.0781 0
M  V30 3177 H 311.901 -1.64543 2.50132 0
M  V30 3178 H 309.447 -0.790185 1.20383 0
M  V30 3179 H 311.4 -3.90404 1.58628 0
M  V30 3180 H 310.124 -3.2195 0.549139 0
M  V30 3181 H 308.783 -2.59603 2.58847 0
M  V30 3182 H 308.431 -4.80839 1.47657 0
M  V30 3183 H 308.131 -4.9088 3.22972 0
M  V30 3184 H 309.655 -5.54775 2.55063 0
M  V30 3185 H 311.069 -3.94483 4.16 0
M  V30 3186 H 309.466 -3.54445 4.8424 0
M  V30 3187 H 310.536 -2.23855 4.30136 0
M  V30 3188 N 311.879 -1.3236 -0.855495 0
M  V30 3189 C 312.812 -1.15559 -1.96777 0
M  V30 3190 C 313.79 -0.0552681 -1.62506 0
M  V30 3191 O 314.974 -0.214419 -1.87277 0
M  V30 3192 C 312.101 -0.768851 -3.29858 0
M  V30 3193 C 311.147 -1.87429 -3.83109 0
M  V30 3194 S 311.98 -3.48243 -4.06801 0
M  V30 3195 C 313.136 -3.11539 -5.42858 0
M  V30 3196 H 313.369 -2.09717 -2.10727 0
M  V30 3197 H 310.902 -1.17011 -1.00737 0
M  V30 3198 H 312.86 -0.55248 -4.06765 0
M  V30 3199 H 311.521 0.153857 -3.13723 0
M  V30 3200 H 310.714 -1.55667 -4.79358 0
M  V30 3201 H 310.316 -2.04647 -3.13042 0
M  V30 3202 H 312.608 -2.61331 -6.2507 0
M  V30 3203 H 313.551 -4.06806 -5.79582 0
M  V30 3204 H 313.959 -2.48582 -5.06821 0
M  V30 3205 N 313.357 1.07166 -1.15556 0
M  V30 3206 C 314.768 1.6127 -0.940693 0
M  V30 3207 C 315.119 1.89251 0.517551 0
M  V30 3208 O 314.244 1.65937 1.38903 0
M  V30 3209 C 314.839 2.92993 -1.7012 0
M  V30 3210 C 313.398 3.43832 -1.53156 0
M  V30 3211 C 312.545 2.1786 -1.71558 0
M  V30 3212 H 315.496 0.90229 -1.30554 0
M  V30 3213 H 315.517 3.62007 -1.17181 0
M  V30 3214 H 315.029 2.72596 -2.76248 0
M  V30 3215 H 313.13 3.69307 -0.494294 0
M  V30 3216 H 313.243 4.19747 -2.30975 0
M  V30 3217 H 311.607 2.2765 -1.14225 0
M  V30 3218 H 312.39 1.99956 -2.79056 0
M  V30 3219 N 314.835 0.952656 1.25548 0
M  V30 3220 C 315.765 0.489287 2.28316 0
M  V30 3221 C 316.746 -0.463359 1.63667 0
M  V30 3222 O 317.931 -0.36274 1.90782 0
M  V30 3223 C 315.061 -0.235603 3.465 0
M  V30 3224 C 314.015 0.631593 4.23314 0
M  V30 3225 C 313.341 -0.223923 5.34231 0
M  V30 3226 C 314.641 1.90871 4.86174 0
M  V30 3227 H 316.335 1.34822 2.67326 0
M  V30 3228 H 313.881 0.649728 1.28509 0
M  V30 3229 H 315.834 -0.570882 4.17515 0
M  V30 3230 H 314.558 -1.12877 3.06474 0
M  V30 3231 H 313.217 0.949929 3.54079 0
M  V30 3232 H 312.865 -1.11678 4.90446 0
M  V30 3233 H 312.565 0.35299 5.86539 0
M  V30 3234 H 314.089 -0.554214 6.0808 0
M  V30 3235 H 315.503 1.63997 5.49343 0
M  V30 3236 H 313.9 2.43112 5.4865 0
M  V30 3237 H 314.97 2.61304 4.08471 0
M  V30 3238 N 316.313 -1.40141 0.720998 0
M  V30 3239 C 317.276 -2.29058 0.0805834 0
M  V30 3240 C 318.276 -1.45632 -0.681758 0
M  V30 3241 O 319.466 -1.6648 -0.512856 0
M  V30 3242 C 316.598 -3.28925 -0.895593 0
M  V30 3243 H 317.791 -2.87191 0.863793 0
M  V30 3244 H 315.344 -1.48553 0.485975 0
M  V30 3245 H 316.079 -2.75822 -1.70566 0
M  V30 3246 H 315.864 -3.90519 -0.351766 0
M  V30 3247 H 317.354 -3.95494 -1.34069 0
M  V30 3248 N 317.792 -0.46758 -1.50504 0
M  V30 3249 C 318.739 0.328413 -2.28452 0
M  V30 3250 C 319.709 0.990313 -1.33349 0
M  V30 3251 O 320.894 1.00343 -1.62284 0
M  V30 3252 C 318.034 1.40648 -3.15138 0
M  V30 3253 C 317.147 0.759709 -4.25267 0
M  V30 3254 C 316.282 1.81537 -4.99217 0
M  V30 3255 C 315.321 1.14866 -6.01226 0
M  V30 3256 N 314.458 2.14702 -6.68467 0
M  V30 3257 H 319.298 -0.342603 -2.96024 0
M  V30 3258 H 316.835 -0.180801 -1.45985 0
M  V30 3259 H 318.793 2.04315 -3.63746 0
M  V30 3260 H 317.423 2.04671 -2.49619 0
M  V30 3261 H 316.475 0.0105671 -3.80399 0
M  V30 3262 H 317.787 0.233243 -4.98254 0
M  V30 3263 H 316.941 2.52793 -5.51526 0
M  V30 3264 H 315.68 2.37564 -4.25928 0
M  V30 3265 H 314.685 0.42171 -5.4818 0
M  V30 3266 H 315.91 0.595334 -6.76485 0
M  V30 3267 H 313.856 2.69752 -5.97972 0
M  V30 3268 H 313.773 1.6703 -7.37317 0
M  V30 3269 H 315.041 2.85348 -7.25394 0
M  V30 3270 N 319.27 1.56325 -0.20005 0
M  V30 3271 C 320.202 2.16555 0.750771 0
M  V30 3272 C 321.215 1.12871 1.1732 0
M  V30 3273 O 322.404 1.39943 1.10807 0
M  V30 3274 C 319.504 2.71684 2.02586 0
M  V30 3275 C 318.677 4.00321 1.76244 0
M  V30 3276 C 317.736 4.40227 2.88248 0
M  V30 3277 O 316.762 5.07552 2.57642 0
M  V30 3278 N 317.964 4.04138 4.16717 0
M  V30 3279 H 320.729 2.98772 0.235685 0
M  V30 3280 H 318.29 1.6189 -0.0182594 0
M  V30 3281 H 320.282 2.95363 2.76664 0
M  V30 3282 H 318.852 1.93893 2.45202 0
M  V30 3283 H 318.072 3.84723 0.85919 0
M  V30 3284 H 319.36 4.84279 1.56048 0
M  V30 3285 H 318.758 3.49993 4.44434 0
M  V30 3286 H 317.315 4.32756 4.87407 0
M  V30 3287 N 320.748 -0.0735177 1.57428 0
M  V30 3288 C 321.68 -1.11423 2.00294 0
M  V30 3289 C 322.693 -1.35084 0.908637 0
M  V30 3290 O 323.882 -1.33355 1.18654 0
M  V30 3291 C 320.982 -2.46548 2.32523 0
M  V30 3292 C 320.155 -2.42867 3.63778 0
M  V30 3293 C 319.214 -3.60087 3.83697 0
M  V30 3294 O 318.24 -3.41595 4.55304 0
M  V30 3295 N 319.442 -4.80372 3.25919 0
M  V30 3296 H 322.207 -0.749206 2.90184 0
M  V30 3297 H 319.768 -0.262195 1.59763 0
M  V30 3298 H 321.76 -3.23607 2.43024 0
M  V30 3299 H 320.33 -2.75059 1.48531 0
M  V30 3300 H 319.55 -1.51206 3.64047 0
M  V30 3301 H 320.838 -2.37506 4.49965 0
M  V30 3302 H 320.236 -4.983 2.67795 0
M  V30 3303 H 318.793 -5.54948 3.41871 0
M  V30 3304 N 322.226 -1.5378 -0.344866 0
M  V30 3305 C 323.637 -1.62428 -0.920552 0
M  V30 3306 C 323.988 -0.504747 -1.89596 0
M  V30 3307 O 323.113 0.365711 -2.13287 0
M  V30 3308 C 323.708 -2.94419 -1.67639 0
M  V30 3309 C 322.267 -3.05333 -2.20111 0
M  V30 3310 C 321.414 -2.57866 -1.01982 0
M  V30 3311 H 324.365 -1.58222 -0.123042 0
M  V30 3312 H 324.386 -2.83384 -2.53917 0
M  V30 3313 H 323.898 -3.7588 -0.966224 0
M  V30 3314 H 321.999 -2.28502 -2.94308 0
M  V30 3315 H 322.112 -4.10778 -2.46573 0
M  V30 3316 H 320.476 -2.13241 -1.39285 0
M  V30 3317 H 321.259 -3.41765 -0.324308 0
M  V30 3318 N 323.704 0.605807 -1.45491 0
M  V30 3319 C 324.953 1.36086 -1.48874 0
M  V30 3320 C 325.266 1.95131 -0.135333 0
M  V30 3321 O 326.472 2.7146 -0.0468144 0
M  V30 3322 C 324.928 2.46518 -2.62215 0
M  V30 3323 C 324.536 1.93877 -4.03876 0
M  V30 3324 C 326.28 3.23512 -2.74846 0
M  V30 3325 C 324.187 3.01801 -5.08596 0
M  V30 3326 H 323.117 0.511497 -0.553974 0
M  V30 3327 H 325.768 0.649089 -1.71636 0
M  V30 3328 H 324.15 3.20388 -2.32739 0
M  V30 3329 H 325.324 1.26704 -4.43038 0
M  V30 3330 H 323.639 1.29622 -3.95711 0
M  V30 3331 H 326.236 4.04013 -3.50253 0
M  V30 3332 H 326.579 3.74631 -1.81542 0
M  V30 3333 H 327.112 2.56742 -3.03856 0
M  V30 3334 H 323.851 2.55597 -6.03614 0
M  V30 3335 H 323.371 3.67535 -4.74002 0
M  V30 3336 H 325.05 3.66152 -5.33424 0
M  V30 3337 N 325.182 1.32811 0.848464 0
M  V30 3338 C 326.431 1.23075 1.59798 0
M  V30 3339 C 326.744 -0.204419 1.94529 0
M  V30 3340 O 327.95 -0.423701 2.68173 0
M  V30 3341 C 326.406 2.15594 2.88179 0
M  V30 3342 C 326.014 3.64228 2.60849 0
M  V30 3343 C 327.758 2.14709 3.66197 0
M  V30 3344 C 325.665 4.48689 3.85269 0
M  V30 3345 H 324.595 0.457091 0.599653 0
M  V30 3346 H 327.246 1.57813 0.936342 0
M  V30 3347 H 325.628 1.73778 3.55833 0
M  V30 3348 H 326.802 4.14424 2.01467 0
M  V30 3349 H 325.117 3.67306 1.96151 0
M  V30 3350 H 327.714 2.75046 4.58534 0
M  V30 3351 H 328.057 1.13966 4.00397 0
M  V30 3352 H 328.59 2.54837 3.05455 0
M  V30 3353 H 325.329 5.5027 3.56207 0
M  V30 3354 H 324.849 4.03241 4.44024 0
M  V30 3355 H 326.528 4.62006 4.52946 0
M  V30 3356 N 326.66 -1.06551 1.16123 0
M  V30 3357 C 327.885 -1.83544 0.965735 0
M  V30 3358 C 328.31 -1.81843 -0.481102 0
M  V30 3359 O 327.668 -1.21732 -1.34354 0
M  V30 3360 C 327.716 -3.28169 1.49457 0
M  V30 3361 O 326.82 -4.0643 0.699157 0
M  V30 3362 H 326.161 -0.568026 0.343864 0
M  V30 3363 H 328.691 -1.34362 1.54299 0
M  V30 3364 H 328.701 -3.78992 1.51092 0
M  V30 3365 H 327.376 -3.28722 2.54784 0
M  V30 3366 H 325.953 -3.65216 0.7531 0
M  V30 3367 N 328.138 -0.959301 -1.25041 0
M  V30 3368 C 329.068 -0.501388 -2.28053 0
M  V30 3369 C 330.049 0.454673 -1.63911 0
M  V30 3370 O 331.234 0.352618 -1.90972 0
M  V30 3371 C 328.364 0.217224 -3.4662 0
M  V30 3372 C 327.318 -0.654034 -4.22973 0
M  V30 3373 C 326.644 0.195589 -5.34342 0
M  V30 3374 C 327.944 -1.93447 -4.85155 0
M  V30 3375 H 329.638 -1.36238 -2.66608 0
M  V30 3376 H 327.184 -0.656534 -1.28163 0
M  V30 3377 H 329.137 0.548732 -4.17812 0
M  V30 3378 H 327.861 1.1125 -3.07068 0
M  V30 3379 H 326.52 -0.968693 -3.5357 0
M  V30 3380 H 326.168 1.09076 -4.91031 0
M  V30 3381 H 325.868 -0.384091 -5.86343 0
M  V30 3382 H 327.392 0.521958 -6.08365 0
M  V30 3383 H 328.806 -1.66908 -5.48466 0
M  V30 3384 H 327.203 -2.46018 -5.47353 0
M  V30 3385 H 328.273 -2.63466 -4.07079 0
M  V30 3386 N 329.616 1.39756 -0.72842 0
M  V30 3387 C 330.548 2.29157 -0.0446202 0
M  V30 3388 C 331.561 1.46484 0.710367 0
M  V30 3389 O 332.75 1.69632 0.55562 0
M  V30 3390 C 329.85 3.24987 0.961071 0
M  V30 3391 C 329.023 4.36572 0.268967 0
M  V30 3392 C 328.082 5.12756 1.18184 0
M  V30 3393 O 327.108 5.6534 0.661794 0
M  V30 3394 N 328.31 5.23331 2.51206 0
M  V30 3395 H 331.075 2.88482 -0.812295 0
M  V30 3396 H 328.636 1.51265 -0.577098 0
M  V30 3397 H 330.628 3.72827 1.57423 0
M  V30 3398 H 329.198 2.66739 1.63 0
M  V30 3399 H 328.418 3.90694 -0.524574 0
M  V30 3400 H 329.706 5.08363 -0.210934 0
M  V30 3401 H 329.104 4.82116 2.9594 0
M  V30 3402 H 327.661 5.74634 3.07634 0
M  V30 3403 N 331.094 0.475555 1.50254 0
M  V30 3404 C 332.505 0.0215174 1.86688 0
M  V30 3405 C 332.856 -1.38467 1.39001 0
M  V30 3406 O 331.981 -2.02732 0.756894 0
M  V30 3407 C 332.576 0.0322715 3.38785 0
M  V30 3408 C 331.135 -0.366314 3.74613 0
M  V30 3409 C 330.282 0.415832 2.74164 0
M  V30 3410 H 333.233 0.689612 1.42934 0
M  V30 3411 H 333.254 -0.76889 3.7265 0
M  V30 3412 H 332.766 1.05584 3.73462 0
M  V30 3413 H 330.867 -1.39406 3.45538 0
M  V30 3414 H 330.98 -0.064555 4.79057 0
M  V30 3415 H 329.344 -0.131048 2.54363 0
M  V30 3416 H 330.127 1.43899 3.11686 0
M  V30 3417 N 332.573 -1.56217 0.208337 0
M  V30 3418 C 333.536 -2.18455 -0.693557 0
M  V30 3419 C 334.536 -1.14268 -1.13135 0
M  V30 3420 O 335.726 -1.39577 -1.0423 0
M  V30 3421 C 332.858 -2.79727 -1.94848 0
M  V30 3422 H 334.051 -2.99519 -0.15114 0
M  V30 3423 H 331.604 -1.56245 -0.041287 0
M  V30 3424 H 332.339 -2.02497 -2.53309 0
M  V30 3425 H 332.124 -3.56009 -1.64316 0
M  V30 3426 H 333.614 -3.27475 -2.59133 0
M  V30 3427 N 334.051 0.0651679 -1.57465 0
M  V30 3428 C 335.462 0.616213 -1.76238 0
M  V30 3429 C 335.813 1.7756 -0.834689 0
M  V30 3430 O 334.938 2.1639 -0.0204156 0
M  V30 3431 C 335.533 1.12462 -3.1959 0
M  V30 3432 C 334.092 1.62147 -3.39684 0
M  V30 3433 C 333.239 0.543739 -2.71917 0
M  V30 3434 H 336.19 -0.161022 -1.57881 0
M  V30 3435 H 336.211 1.99324 -3.24114 0
M  V30 3436 H 335.723 0.280592 -3.87084 0
M  V30 3437 H 333.824 2.48854 -2.77313 0
M  V30 3438 H 333.937 1.69385 -4.48158 0
M  V30 3439 H 332.301 0.990352 -2.34657 0
M  V30 3440 H 333.084 -0.290216 -3.42071 0
M  V30 3441 N 335.529 1.53961 0.336706 0
M  V30 3442 C 336.757 1.75483 1.09605 0
M  V30 3443 C 337.172 0.4972 1.82136 0
M  V30 3444 O 336.529 -0.53149 1.74589 0
M  V30 3445 C 336.58 2.93943 2.10428 0
M  V30 3446 O 336.301 4.14842 1.40846 0
M  V30 3447 C 337.802 3.27571 2.98684 0
M  V30 3448 H 335.022 0.586166 0.326574 0
M  V30 3449 H 337.566 2.00808 0.38683 0
M  V30 3450 H 335.721 2.70929 2.76905 0
M  V30 3451 H 336.135 4.81383 2.08255 0
M  V30 3452 H 337.609 4.13791 3.6535 0
M  V30 3453 H 338.086 2.44168 3.65074 0
M  V30 3454 H 338.692 3.52615 2.37787 0
M  V30 3455 N 337.007 -0.598083 1.45811 0
M  V30 3456 C 337.954 -1.7082 1.55207 0
M  V30 3457 C 338.924 -1.61278 0.39732 0
M  V30 3458 O 340.109 -1.80717 0.612038 0
M  V30 3459 C 337.249 -3.09144 1.53376 0
M  V30 3460 C 336.362 -3.29423 2.79472 0
M  V30 3461 C 335.497 -4.57907 2.69248 0
M  V30 3462 C 334.536 -4.71476 3.90354 0
M  V30 3463 N 333.673 -5.9127 3.78608 0
M  V30 3464 H 338.513 -1.62125 2.50039 0
M  V30 3465 H 336.05 -0.790389 1.24062 0
M  V30 3466 H 338.008 -3.89186 1.50301 0
M  V30 3467 H 336.638 -3.16773 0.620876 0
M  V30 3468 H 335.69 -2.43091 2.92594 0
M  V30 3469 H 337.002 -3.3532 3.69272 0
M  V30 3470 H 336.156 -5.46157 2.64192 0
M  V30 3471 H 334.895 -4.54423 1.77063 0
M  V30 3472 H 333.9 -3.81648 3.95759 0
M  V30 3473 H 335.125 -4.76751 4.83617 0
M  V30 3474 H 333.071 -5.88813 2.89199 0
M  V30 3475 H 332.988 -5.98369 4.6205 0
M  V30 3476 H 334.256 -6.81992 3.77501 0
M  V30 3477 N 338.485 -1.33259 -0.841409 0
M  V30 3478 C 339.733 -1.24326 -1.59334 0
M  V30 3479 C 340.054 0.191564 -1.94057 0
M  V30 3480 O 339.324 1.11967 -1.60749 0
M  V30 3481 H 337.904 -0.457174 -0.590763 0
M  V30 3482 H 340.566 -1.66947 -1.00571 0
M  V30 3483 H 339.662 -1.8352 -2.52442 0
M  V30 3484 N 339.963 1.05934 -1.16686 0
M  V30 3485 C 340.895 2.13468 -0.834503 0
M  V30 3486 C 341.908 1.62013 0.15984 0
M  V30 3487 O 343.097 1.7838 -0.0654228 0
M  V30 3488 C 340.197 3.3817 -0.222361 0
M  V30 3489 C 339.37 4.18928 -1.25771 0
M  V30 3490 C 338.429 5.21985 -0.664703 0
M  V30 3491 O 337.455 5.53334 -1.33453 0
M  V30 3492 N 338.657 5.77919 0.546834 0
M  V30 3493 H 341.422 2.42578 -1.75999 0
M  V30 3494 H 338.983 1.21967 -1.06469 0
M  V30 3495 H 340.975 4.04266 0.187472 0
M  V30 3496 H 339.545 3.06655 0.606758 0
M  V30 3497 H 338.765 3.48433 -1.84358 0
M  V30 3498 H 340.053 4.69687 -1.95631 0
M  V30 3499 H 339.451 5.54721 1.10912 0
M  V30 3500 H 338.008 6.45573 0.898829 0
M  V30 3501 N 341.441 0.965919 1.2453 0
M  V30 3502 C 342.669 0.644385 1.96609 0
M  V30 3503 C 343.084 -0.785823 1.71669 0
M  V30 3504 O 342.441 -1.52703 0.999399 0
M  V30 3505 C 342.492 0.907375 3.49927 0
M  V30 3506 O 342.213 2.28136 3.74013 0
M  V30 3507 C 343.714 0.599784 4.39224 0
M  V30 3508 H 340.934 0.240588 0.626385 0
M  V30 3509 H 343.478 1.29337 1.58405 0
M  V30 3510 H 341.633 0.304631 3.862 0
M  V30 3511 H 342.047 2.36002 4.68405 0
M  V30 3512 H 343.521 0.834263 5.45659 0
M  V30 3513 H 343.998 -0.465921 4.36722 0
M  V30 3514 H 344.604 1.18235 4.08535 0
M  V30 3515 N 342.919 -1.39368 0.735821 0
M  V30 3516 C 344.165 -2.00794 0.284544 0
M  V30 3517 C 344.498 -1.58255 -1.12557 0
M  V30 3518 O 343.773 -0.811819 -1.76748 0
M  V30 3519 C 344.056 -3.58011 0.387337 0
M  V30 3520 C 343.909 -4.10566 1.83728 0
M  V30 3521 C 345.228 -4.395 -0.22975 0
M  V30 3522 H 342.347 -0.729501 0.104866 0
M  V30 3523 H 344.989 -1.65564 0.93213 0
M  V30 3524 H 343.139 -3.88154 -0.164006 0
M  V30 3525 H 344.811 -3.91139 2.44556 0
M  V30 3526 H 343.054 -3.64095 2.35833 0
M  V30 3527 H 343.725 -5.19702 1.86047 0
M  V30 3528 H 346.201 -4.15406 0.240257 0
M  V30 3529 H 345.077 -5.48752 -0.127485 0
M  V30 3530 H 345.338 -4.22062 -1.3159 0
M  V30 3531 N 344.397 -0.483516 -1.5 0
M  V30 3532 C 345.327 0.293829 -2.31644 0
M  V30 3533 C 346.308 0.978864 -1.39112 0
M  V30 3534 O 347.493 0.973644 -1.68029 0
M  V30 3535 C 344.623 1.36897 -3.19181 0
M  V30 3536 C 343.577 0.804833 -4.20365 0
M  V30 3537 C 342.903 1.9792 -4.96721 0
M  V30 3538 C 344.203 -0.192313 -5.21946 0
M  V30 3539 H 345.897 -0.387616 -2.9688 0
M  V30 3540 H 343.443 -0.187856 -1.42769 0
M  V30 3541 H 345.396 1.92037 -3.751 0
M  V30 3542 H 344.12 2.07936 -2.51853 0
M  V30 3543 H 342.779 0.275319 -3.65565 0
M  V30 3544 H 342.427 2.67686 -4.25856 0
M  V30 3545 H 342.127 1.60789 -5.65173 0
M  V30 3546 H 343.651 2.53526 -5.55479 0
M  V30 3547 H 345.065 0.270333 -5.72662 0
M  V30 3548 H 343.462 -0.478543 -5.98189 0
M  V30 3549 H 344.532 -1.11409 -4.71928 0
M  V30 3550 N 345.875 1.56104 -0.216619 0
M  V30 3551 C 346.805 2.23063 0.690296 0
M  V30 3552 C 347.786 1.20072 1.20485 0
M  V30 3553 O 348.971 1.48643 1.24976 0
M  V30 3554 C 346.101 2.90672 1.90072 0
M  V30 3555 C 345.055 4.00092 1.5202 0
M  V30 3556 C 344.381 4.54972 2.80899 0
M  V30 3557 C 345.681 5.17398 0.71391 0
M  V30 3558 H 347.375 2.99109 0.132038 0
M  V30 3559 H 344.921 1.43866 0.0620664 0
M  V30 3560 H 346.874 3.36204 2.54057 0
M  V30 3561 H 345.598 2.12066 2.48386 0
M  V30 3562 H 344.257 3.55283 0.903839 0
M  V30 3563 H 343.905 3.73102 3.37348 0
M  V30 3564 H 343.605 5.28817 2.56176 0
M  V30 3565 H 345.129 5.0322 3.45836 0
M  V30 3566 H 346.543 5.59342 1.25735 0
M  V30 3567 H 344.94 5.97444 0.563951 0
M  V30 3568 H 346.01 4.84088 -0.280527 0
M  V30 3569 N 347.353 -0.0568162 1.57498 0
M  V30 3570 C 348.578 -0.769402 1.92601 0
M  V30 3571 C 349.003 -1.69559 0.814336 0
M  V30 3572 O 348.361 -1.79811 -0.231903 0
M  V30 3573 C 348.409 -1.52634 3.26704 0
M  V30 3574 O 347.513 -2.63797 3.16994 0
M  V30 3575 H 346.854 -0.208909 0.63028 0
M  V30 3576 H 349.384 -0.0205798 2.0459 0
M  V30 3577 H 349.394 -1.90234 3.60936 0
M  V30 3578 H 348.069 -0.846875 4.07186 0
M  V30 3579 H 346.646 -2.28943 2.94346 0
M  V30 3580 N 348.832 -1.54138 -0.328536 0
M  V30 3581 C 349.764 -1.79509 -1.4251 0
M  V30 3582 C 350.777 -0.67688 -1.48061 0
M  V30 3583 O 351.966 -0.953898 -1.50874 0
M  V30 3584 C 349.066 -1.89337 -2.81078 0
M  V30 3585 C 348.239 -3.19443 -2.98789 0
M  V30 3586 C 347.298 -3.20036 -4.17688 0
M  V30 3587 O 346.324 -3.93697 -4.11086 0
M  V30 3588 N 347.526 -2.43467 -5.26976 0
M  V30 3589 H 350.291 -2.74139 -1.21111 0
M  V30 3590 H 347.852 -1.53373 -0.518499 0
M  V30 3591 H 349.844 -1.87167 -3.58818 0
M  V30 3592 H 348.414 -1.01826 -2.95551 0
M  V30 3593 H 347.634 -3.34614 -2.08391 0
M  V30 3594 H 348.922 -4.05354 -3.07515 0
M  V30 3595 H 348.32 -1.83201 -5.35214 0
M  V30 3596 H 346.877 -2.4708 -6.03154 0
M  V30 3597 N 350.31 0.590341 -1.46126 0
M  V30 3598 C 351.721 1.17243 -1.45296 0
M  V30 3599 C 352.072 1.95281 -0.189723 0
M  V30 3600 O 351.197 2.04502 0.707674 0
M  V30 3601 C 351.792 2.13284 -2.6324 0
M  V30 3602 C 350.351 2.66832 -2.65476 0
M  V30 3603 C 349.498 1.42557 -2.3785 0
M  V30 3604 H 352.449 0.378692 -1.54116 0
M  V30 3605 H 352.47 2.96619 -2.38323 0
M  V30 3606 H 351.982 1.56459 -3.55165 0
M  V30 3607 H 350.083 3.27548 -1.77603 0
M  V30 3608 H 350.196 3.10088 -3.65215 0
M  V30 3609 H 348.56 1.72107 -1.87753 0
M  V30 3610 H 349.343 0.875741 -3.31942 0
M  V30 3611 N 351.788 1.33704 0.83433 0
M  V30 3612 C 353.016 1.28467 1.62185 0
M  V30 3613 C 353.431 -0.143526 1.88254 0
M  V30 3614 O 352.788 -1.08709 1.4659 0
M  V30 3615 C 352.839 2.06174 2.96942 0
M  V30 3616 O 352.56 3.43422 2.72016 0
M  V30 3617 C 354.061 2.08201 3.91366 0
M  V30 3618 H 351.281 0.4424 0.504503 0
M  V30 3619 H 353.825 1.76145 1.03891 0
M  V30 3620 H 351.98 1.62167 3.51825 0
M  V30 3621 H 352.394 3.83453 3.57861 0
M  V30 3622 H 353.868 2.67017 4.83121 0
M  V30 3623 H 354.345 1.07343 4.2588 0
M  V30 3624 H 354.951 2.52246 3.42421 0
M  V30 3625 N 353.266 -1.05314 1.17247 0
M  V30 3626 C 354.512 -1.78557 0.961513 0
M  V30 3627 C 354.845 -1.87419 -0.508697 0
M  V30 3628 O 354.12 -1.37307 -1.37757 0
M  V30 3629 C 354.403 -3.22514 1.60176 0
M  V30 3630 C 354.256 -3.21673 3.14399 0
M  V30 3631 C 355.575 -4.20318 1.30463 0
M  V30 3632 H 352.694 -0.6482 0.350723 0
M  V30 3633 H 355.336 -1.23102 1.44727 0
M  V30 3634 H 353.486 -3.69867 1.18871 0
M  V30 3635 H 355.158 -2.82405 3.64753 0
M  V30 3636 H 353.401 -2.60048 3.47214 0
M  V30 3637 H 354.072 -4.23271 3.54324 0
M  V30 3638 H 356.548 -3.81454 1.66229 0
M  V30 3639 H 355.424 -5.19289 1.77848 0
M  V30 3640 H 355.685 -4.41526 0.22521 0
M  V30 3641 N 354.744 -0.972509 -1.24016 0
M  V30 3642 C 355.99 -0.637978 -1.92504 0
M  V30 3643 C 356.323 0.825383 -1.75787 0
M  V30 3644 O 355.598 1.59442 -1.11393 0
M  V30 3645 C 355.881 -1.01942 -3.45369 0
M  V30 3646 C 355.734 -2.53983 -3.71231 0
M  V30 3647 C 357.053 -0.55751 -4.36555 0
M  V30 3648 H 354.172 -0.233248 -0.699117 0
M  V30 3649 H 356.814 -1.21238 -1.46292 0
M  V30 3650 H 354.964 -0.530656 -3.84859 0
M  V30 3651 H 356.636 -3.10374 -3.41271 0
M  V30 3652 H 354.879 -2.96968 -3.16216 0
M  V30 3653 H 355.55 -2.75723 -4.78206 0
M  V30 3654 H 358.026 -0.977029 -4.04467 0
M  V30 3655 H 356.902 -0.85292 -5.42233 0
M  V30 3656 H 357.163 0.542328 -4.38761 0
M  V30 3657 N 356.222 1.38976 -0.743202 0
M  V30 3658 C 357.154 2.29096 -0.0689228 0
M  V30 3659 C 358.167 1.47229 0.694791 0
M  V30 3660 O 359.356 1.70212 0.537597 0
M  V30 3661 C 356.456 3.25988 0.926548 0
M  V30 3662 C 355.629 4.36833 0.222647 0
M  V30 3663 C 354.688 5.13981 1.12739 0
M  V30 3664 O 353.714 5.6601 0.601795 0
M  V30 3665 N 354.916 5.25966 2.45641 0
M  V30 3666 H 357.681 2.87604 -0.842846 0
M  V30 3667 H 355.242 1.50645 -0.593109 0
M  V30 3668 H 357.234 3.74476 1.5346 0
M  V30 3669 H 355.804 2.68453 1.60162 0
M  V30 3670 H 355.024 3.90116 -0.565983 0
M  V30 3671 H 356.312 5.0811 -0.264841 0
M  V30 3672 H 355.71 4.85228 2.9081 0
M  V30 3673 H 354.267 5.77865 3.01522 0
M  V30 3674 N 357.7 0.491464 1.49741 0
M  V30 3675 C 358.63 -0.28154 2.31796 0
M  V30 3676 C 359.611 -0.971473 1.3963 0
M  V30 3677 O 360.796 -0.964719 1.68543 0
M  V30 3678 C 357.926 -1.35203 3.19902 0
M  V30 3679 C 356.88 -0.782529 4.20786 0
M  V30 3680 C 356.206 -1.95283 4.97764 0
M  V30 3681 C 357.506 0.21999 5.21837 0
M  V30 3682 H 359.2 0.403355 2.96671 0
M  V30 3683 H 356.746 0.195425 1.42668 0
M  V30 3684 H 358.699 -1.90045 3.76113 0
M  V30 3685 H 357.423 -2.06598 2.52953 0
M  V30 3686 H 356.082 -0.255928 3.65706 0
M  V30 3687 H 355.73 -2.65423 4.2727 0
M  V30 3688 H 355.43 -1.57789 5.66018 0
M  V30 3689 H 356.954 -2.50577 5.56816 0
M  V30 3690 H 358.368 -0.23996 5.72798 0
M  V30 3691 H 356.765 0.51026 5.97927 0
M  V30 3692 H 357.835 1.13911 4.7133 0
M  V30 3693 N 359.178 -1.55987 0.224894 0
M  V30 3694 C 360.11 -2.17722 -0.716224 0
M  V30 3695 C 361.123 -1.14723 -1.15509 0
M  V30 3696 O 362.312 -1.41688 -1.08567 0
M  V30 3697 C 359.412 -2.74873 -1.98238 0
M  V30 3698 C 358.585 -4.03074 -1.69853 0
M  V30 3699 C 357.644 -4.44757 -2.81208 0
M  V30 3700 O 356.67 -5.11587 -2.49534 0
M  V30 3701 N 357.872 -4.10716 -4.10235 0
M  V30 3702 H 360.637 -2.99109 -0.188123 0
M  V30 3703 H 358.198 -1.6184 0.0440123 0
M  V30 3704 H 360.19 -2.99727 -2.7193 0
M  V30 3705 H 358.76 -1.9777 -2.42086 0
M  V30 3706 H 357.98 -3.86041 -0.797875 0
M  V30 3707 H 359.268 -4.86701 -1.48324 0
M  V30 3708 H 358.666 -3.57019 -4.38809 0
M  V30 3709 H 357.223 -4.40455 -4.80461 0
M  V30 3710 N 360.656 0.0484629 -1.57525 0
M  V30 3711 C 361.619 1.03956 -2.04269 0
M  V30 3712 C 362.619 1.30211 -0.943496 0
M  V30 3713 O 363.809 1.25539 -1.20771 0
M  V30 3714 C 360.941 2.37742 -2.44319 0
M  V30 3715 H 362.134 0.636182 -2.93075 0
M  V30 3716 H 359.687 0.294811 -1.53494 0
M  V30 3717 H 360.422 2.82866 -1.5861 0
M  V30 3718 H 360.207 2.20021 -3.24551 0
M  V30 3719 H 361.697 3.08936 -2.80978 0
M  V30 3720 N 362.134 1.5431 0.320358 0
M  V30 3721 C 363.545 1.63872 0.894594 0
M  V30 3722 C 363.896 0.534847 1.88769 0
M  V30 3723 O 363.021 -0.331732 2.13842 0
M  V30 3724 C 363.616 2.97049 1.62934 0
M  V30 3725 C 362.175 3.08796 2.15226 0
M  V30 3726 C 361.322 2.59456 0.978671 0
M  V30 3727 H 364.273 1.58398 0.0978544 0
M  V30 3728 H 364.294 2.87388 2.49376 0
M  V30 3729 H 363.806 3.7737 0.906302 0
M  V30 3730 H 361.907 2.33156 2.90636 0
M  V30 3731 H 362.02 4.14649 2.40006 0
M  V30 3732 H 360.384 2.1543 1.35875 0
M  V30 3733 H 361.167 3.42237 0.269895 0
M  V30 3734 N 363.613 -0.582584 1.46437 0
M  V30 3735 C 364.861 -1.33814 1.51453 0
M  V30 3736 C 365.182 -1.94277 0.167792 0
M  V30 3737 O 364.452 -1.78566 -0.805677 0
M  V30 3738 H 363.032 -0.496838 0.557818 0
M  V30 3739 H 365.694 -0.682281 1.82568 0
M  V30 3740 H 364.79 -2.14479 2.26728 0
M  V30 3741 N 365.091 -1.34144 -0.827227 0
M  V30 3742 C 366.337 -1.26446 -1.58554 0
M  V30 3743 C 366.67 0.1664 -1.93486 0
M  V30 3744 O 365.945 1.1107 -1.59667 0
M  V30 3745 C 366.228 -2.15111 -2.8879 0
M  V30 3746 C 366.081 -3.66712 -2.60465 0
M  V30 3747 C 367.4 -2.03311 -3.90324 0
M  V30 3748 H 364.519 -0.46067 -0.575284 0
M  V30 3749 H 367.161 -1.64356 -0.953269 0
M  V30 3750 H 365.311 -1.8291 -3.42748 0
M  V30 3751 H 366.983 -4.09259 -2.1285 0
M  V30 3752 H 365.226 -3.88014 -1.93978 0
M  V30 3753 H 365.897 -4.24112 -3.53317 0
M  V30 3754 H 368.373 -2.31574 -3.45706 0
M  V30 3755 H 367.249 -2.67582 -4.79261 0
M  V30 3756 H 367.51 -1.00879 -4.30437 0
M  V30 3757 N 366.569 1.04691 -1.17803 0
M  V30 3758 C 367.499 2.14494 -0.92275 0
M  V30 3759 C 368.48 1.69546 0.137179 0
M  V30 3760 O 369.665 1.94195 -0.0141108 0
M  V30 3761 C 366.795 3.44491 -0.440803 0
M  V30 3762 C 365.749 4.03031 -1.4405 0
M  V30 3763 C 365.075 5.28432 -0.81631 0
M  V30 3764 C 366.375 4.39932 -2.81527 0
M  V30 3765 H 368.069 2.36107 -1.84103 0
M  V30 3766 H 365.615 1.1347 -0.886599 0
M  V30 3767 H 367.568 4.2066 -0.249602 0
M  V30 3768 H 366.292 3.22546 0.513025 0
M  V30 3769 H 364.951 3.28937 -1.61853 0
M  V30 3770 H 364.599 5.02792 0.144511 0
M  V30 3771 H 364.299 5.68559 -1.48371 0
M  V30 3772 H 365.823 6.07284 -0.635496 0
M  V30 3773 H 367.237 5.07113 -2.67412 0
M  V30 3774 H 365.634 4.9109 -3.44892 0
M  V30 3775 H 366.704 3.50045 -3.35554 0
M  V30 3776 N 368.047 0.979072 1.23499 0
M  V30 3777 C 369.458 0.684391 1.73704 0
M  V30 3778 C 369.809 -0.799448 1.79174 0
M  V30 3779 O 368.934 -1.62531 1.42873 0
M  V30 3780 C 369.529 1.23564 3.15464 0
M  V30 3781 C 368.088 0.99063 3.6313 0
M  V30 3782 C 367.235 1.36416 2.41425 0
M  V30 3783 H 370.186 1.15307 1.09041 0
M  V30 3784 H 370.207 0.607417 3.7562 0
M  V30 3785 H 369.719 2.31561 3.1145 0
M  V30 3786 H 367.82 -0.0733136 3.72528 0
M  V30 3787 H 367.933 1.64427 4.5 0
M  V30 3788 H 366.297 0.782616 2.42378 0
M  V30 3789 H 367.08 2.45387 2.40083 0
M  V30 3790 N 369.525 -1.3858 0.750561 0
M  V30 3791 C 370.75 -2.04997 0.314812 0
M  V30 3792 C 371.175 -1.56235 -1.04749 0
M  V30 3793 O 370.533 -0.712981 -1.66692 0
M  V30 3794 C 370.581 -3.58961 0.343415 0
M  V30 3795 O 369.685 -4.07025 -0.663628 0
M  V30 3796 H 369.026 -0.649081 0.139962 0
M  V30 3797 H 371.556 -1.77313 1.02084 0
M  V30 3798 H 371.566 -4.07542 0.193233 0
M  V30 3799 H 370.241 -3.93811 1.33738 0
M  V30 3800 H 368.818 -3.6982 -0.478307 0
M  V30 3801 N 371.003 -0.499398 -1.49478 0
M  V30 3802 C 371.966 0.268838 -2.27618 0
M  V30 3803 C 372.966 0.895383 -1.33565 0
M  V30 3804 O 374.156 0.760164 -1.56739 0
M  V30 3805 C 371.288 1.38559 -3.11471 0
M  V30 3806 H 372.481 -0.416812 -2.96989 0
M  V30 3807 H 370.034 -0.254313 -1.54217 0
M  V30 3808 H 370.769 2.10544 -2.46661 0
M  V30 3809 H 370.554 0.941797 -3.80621 0
M  V30 3810 H 372.044 1.92678 -3.70493 0
M  V30 3811 N 372.481 1.55866 -0.233164 0
M  V30 3812 C 373.413 2.18099 0.704668 0
M  V30 3813 C 374.426 1.15334 1.14899 0
M  V30 3814 O 375.615 1.42262 1.07814 0
M  V30 3815 C 372.715 2.7592 1.96777 0
M  V30 3816 C 371.888 4.03969 1.67713 0
M  V30 3817 C 370.947 4.46242 2.78845 0
M  V30 3818 O 369.973 5.12903 2.46818 0
M  V30 3819 N 371.175 4.12886 4.08051 0
M  V30 3820 H 373.94 2.99205 0.172258 0
M  V30 3821 H 371.501 1.61815 -0.0525945 0
M  V30 3822 H 373.493 3.01165 2.70337 0
M  V30 3823 H 372.063 1.99051 2.41034 0
M  V30 3824 H 371.283 3.86459 0.777391 0
M  V30 3825 H 372.571 4.8748 1.4574 0
M  V30 3826 H 371.969 3.59342 4.3691 0
M  V30 3827 H 370.526 4.42997 4.78118 0
M  V30 3828 N 373.959 -0.0401083 1.57549 0
M  V30 3829 C 375.37 -0.588097 1.77196 0
M  V30 3830 C 375.721 -1.76209 0.862832 0
M  V30 3831 O 374.846 -2.16331 0.0548389 0
M  V30 3832 C 375.441 -1.07363 3.21339 0
M  V30 3833 C 374 -1.56723 3.42221 0
M  V30 3834 C 373.147 -0.50041 2.72747 0
M  V30 3835 H 376.098 0.186119 1.57605 0
M  V30 3836 H 376.119 -1.94143 3.27244 0
M  V30 3837 H 375.631 -0.218975 3.87482 0
M  V30 3838 H 373.732 -2.4441 2.81237 0
M  V30 3839 H 373.845 -1.62234 4.50796 0
M  V30 3840 H 372.209 -0.952894 2.36203 0
M  V30 3841 H 372.992 0.344599 3.41566 0
M  V30 3842 N 375.437 -1.54477 -0.31217 0
M  V30 3843 C 376.683 -1.73483 -1.0503 0
M  V30 3844 C 377.016 -0.513125 -1.87298 0
M  V30 3845 O 376.291 0.489864 -1.8823 0
M  V30 3846 C 376.574 -3.01723 -1.96558 0
M  V30 3847 C 376.427 -4.3417 -1.17545 0
M  V30 3848 C 377.746 -3.25772 -2.95907 0
M  V30 3849 H 374.865 -0.631222 -0.380432 0
M  V30 3850 H 377.507 -1.87184 -0.325932 0
M  V30 3851 H 375.657 -2.90174 -2.58324 0
M  V30 3852 H 377.329 -4.5762 -0.581513 0
M  V30 3853 H 375.572 -4.31159 -0.477925 0
M  V30 3854 H 376.243 -5.20143 -1.84811 0
M  V30 3855 H 378.719 -3.36857 -2.44267 0
M  V30 3856 H 377.595 -4.16838 -3.57123 0
M  V30 3857 H 377.856 -2.43537 -3.68974 0
M  V30 3858 N 376.915 0.57481 -1.46744 0
M  V30 3859 C 377.845 1.69337 -1.60771 0
M  V30 3860 C 378.826 1.63825 -0.457736 0
M  V30 3861 O 380.011 1.8172 -0.684947 0
M  V30 3862 C 377.141 3.0798 -1.60517 0
M  V30 3863 C 376.095 3.28327 -2.74564 0
M  V30 3864 C 375.421 4.67578 -2.59373 0
M  V30 3865 C 376.721 3.15398 -4.16319 0
M  V30 3866 H 378.415 1.57853 -2.54407 0
M  V30 3867 H 375.961 0.75799 -1.22436 0
M  V30 3868 H 377.914 3.86061 -1.68923 0
M  V30 3869 H 376.638 3.20381 -0.634305 0
M  V30 3870 H 375.297 2.52649 -2.65639 0
M  V30 3871 H 374.945 4.76755 -1.60353 0
M  V30 3872 H 374.645 4.82144 -3.35873 0
M  V30 3873 H 376.169 5.47817 -2.69682 0
M  V30 3874 H 377.583 3.83315 -4.26313 0
M  V30 3875 H 375.98 3.41482 -4.93468 0
M  V30 3876 H 377.05 2.12372 -4.3592 0
M  V30 3877 N 378.394 1.34581 0.820102 0
M  V30 3878 C 379.357 1.2628 1.91275 0
M  V30 3879 C 380.357 0.177344 1.59819 0
M  V30 3880 O 381.547 0.430156 1.68806 0
M  V30 3881 C 378.679 0.950327 3.27386 0
M  V30 3882 H 379.872 2.23421 2.00057 0
M  V30 3883 H 377.425 1.1891 1.0144 0
M  V30 3884 H 378.16 -0.0177938 3.24295 0
M  V30 3885 H 377.945 1.73549 3.51601 0
M  V30 3886 H 379.435 0.917492 4.07396 0
M  V30 3887 N 379.872 -1.04064 1.18357 0
M  V30 3888 C 381.118 -1.77528 0.980397 0
M  V30 3889 C 381.451 -1.87948 -0.48879 0
M  V30 3890 O 380.726 -1.3876 -1.36293 0
M  V30 3891 C 381.009 -3.20797 1.63588 0
M  V30 3892 C 380.862 -3.1832 3.17793 0
M  V30 3893 C 382.181 -4.18911 1.34914 0
M  V30 3894 H 379.3 -0.644443 0.357578 0
M  V30 3895 H 381.942 -1.2156 1.46024 0
M  V30 3896 H 380.092 -3.68586 1.22788 0
M  V30 3897 H 381.764 -2.78521 3.67728 0
M  V30 3898 H 380.007 -2.56351 3.49952 0
M  V30 3899 H 380.678 -4.19489 3.58794 0
M  V30 3900 H 383.154 -3.7967 1.70265 0
M  V30 3901 H 382.03 -5.17374 1.83346 0
M  V30 3902 H 382.291 -4.41262 0.272027 0
M  V30 3903 N 381.35 -0.985608 -1.22978 0
M  V30 3904 C 382.313 -0.535071 -2.22867 0
M  V30 3905 C 383.313 0.378123 -1.56291 0
M  V30 3906 O 384.503 0.171092 -1.73358 0
M  V30 3907 C 381.635 0.222702 -3.40172 0
M  V30 3908 H 382.828 -1.41835 -2.6424 0
M  V30 3909 H 380.381 -0.772042 -1.35901 0
M  V30 3910 H 381.116 1.12229 -3.04262 0
M  V30 3911 H 380.901 -0.43288 -3.89703 0
M  V30 3912 H 382.391 0.526335 -4.1427 0
M  V30 3913 N 382.828 1.3818 -0.7579 0
M  V30 3914 C 384.076 1.99624 -0.315361 0
M  V30 3915 C 384.397 1.60464 1.10799 0
M  V30 3916 O 383.667 0.863507 1.75842 0
M  V30 3917 H 382.247 0.73831 -0.113611 0
M  V30 3918 H 384.909 1.68878 -0.972952 0
M  V30 3919 H 384.005 3.09754 -0.381931 0
M  V30 3920 N 384.306 0.507319 1.49211 0
M  V30 3921 C 385.554 -0.0348839 2.0207 0
M  V30 3922 C 385.875 -1.36898 1.38866 0
M  V30 3923 O 385.145 -1.88133 0.546151 0
M  V30 3924 H 383.725 -0.0158812 0.746831 0
M  V30 3925 H 386.387 0.665998 1.83168 0
M  V30 3926 H 385.483 -0.159917 3.1169 0
M  V30 3927 N 385.784 -1.5574 0.241426 0
M  V30 3928 C 387.03 -1.99104 -0.385406 0
M  V30 3929 C 387.363 -1.1293 -1.57988 0
M  V30 3930 O 386.638 -0.191449 -1.93555 0
M  V30 3931 C 386.921 -3.51087 -0.800616 0
M  V30 3932 C 386.774 -4.48028 0.398874 0
M  V30 3933 C 388.093 -4.08015 -1.64959 0
M  V30 3934 H 385.212 -0.723848 -0.138614 0
M  V30 3935 H 387.854 -1.86903 0.341642 0
M  V30 3936 H 386.004 -3.61615 -1.4201 0
M  V30 3937 H 387.676 -4.49487 1.03726 0
M  V30 3938 H 385.919 -4.21077 1.04293 0
M  V30 3939 H 386.59 -5.51962 0.0651056 0
M  V30 3940 H 389.066 -4.00555 -1.12672 0
M  V30 3941 H 387.942 -5.14635 -1.90898 0
M  V30 3942 H 388.203 -3.56131 -2.61961 0
M  V30 3943 N 387.262 0.0317525 -1.57568 0
M  V30 3944 C 388.49 0.734949 -1.93407 0
M  V30 3945 C 388.905 1.69036 -0.84096 0
M  V30 3946 O 388.262 1.81582 0.182836 0
M  V30 3947 C 388.313 1.49432 -3.29169 0
M  V30 3948 O 388.034 0.577261 -4.3428 0
M  V30 3949 C 389.535 2.29492 -3.79273 0
M  V30 3950 H 386.755 0.206706 -0.638368 0
M  V30 3951 H 389.299 -0.00992046 -2.04498 0
M  V30 3952 H 387.454 2.1911 -3.19483 0
M  V30 3953 H 387.868 1.10952 -5.1263 0
M  V30 3954 H 389.342 2.78172 -4.76785 0
M  V30 3955 H 389.819 3.10794 -3.10328 0
M  V30 3956 H 390.425 1.64894 -3.92033 0
M  V30 3957 N 388.74 1.54641 0.303973 0
M  V30 3958 C 389.672 1.81754 1.39636 0
M  V30 3959 C 390.685 0.70035 1.46966 0
M  V30 3960 O 391.874 0.97778 1.49338 0
M  V30 3961 C 388.974 1.93785 2.7803 0
M  V30 3962 C 388.147 3.24156 2.93669 0
M  V30 3963 C 387.206 3.26641 4.12544 0
M  V30 3964 O 386.232 4.00187 4.04771 0
M  V30 3965 N 387.434 2.5182 5.23036 0
M  V30 3966 H 390.199 2.76031 1.16734 0
M  V30 3967 H 387.76 1.54178 0.494033 0
M  V30 3968 H 389.752 1.92852 3.55795 0
M  V30 3969 H 388.322 1.06515 2.93893 0
M  V30 3970 H 387.542 3.37887 2.03042 0
M  V30 3971 H 388.83 4.10195 3.01027 0
M  V30 3972 H 388.228 1.91692 5.32232 0
M  V30 3973 H 386.785 2.56644 5.99147 0
M  V30 3974 N 390.218 -0.567019 1.47046 0
M  V30 3975 C 391.148 -1.68482 1.61667 0
M  V30 3976 C 392.129 -1.6358 0.466418 0
M  V30 3977 O 393.314 -1.81354 0.694574 0
M  V30 3978 C 390.444 -3.07124 1.62148 0
M  V30 3979 C 389.398 -3.26867 2.76301 0
M  V30 3980 C 388.724 -4.66196 2.61849 0
M  V30 3981 C 390.024 -3.13186 4.17986 0
M  V30 3982 H 391.718 -1.56502 2.5524 0
M  V30 3983 H 389.264 -0.751486 1.22836 0
M  V30 3984 H 391.217 -3.8516 1.70968 0
M  V30 3985 H 389.941 -3.2004 0.651287 0
M  V30 3986 H 388.6 -2.51237 2.66975 0
M  V30 3987 H 388.248 -4.75898 1.62879 0
M  V30 3988 H 387.948 -4.80356 3.38425 0
M  V30 3989 H 389.472 -5.46379 2.72584 0
M  V30 3990 H 390.886 -3.81049 4.2834 0
M  V30 3991 H 389.283 -3.3886 4.95272 0
M  V30 3992 H 390.353 -2.10057 4.3704 0
M  V30 3993 N 391.696 -1.35014 -0.812953 0
M  V30 3994 C 393.107 -1.25035 -1.38648 0
M  V30 3995 C 393.458 0.119967 -1.95833 0
M  V30 3996 O 392.583 1.02069 -1.90816 0
M  V30 3997 C 393.178 -2.26394 -2.52054 0
M  V30 3998 C 391.737 -2.20175 -3.05287 0
M  V30 3999 C 390.884 -2.12451 -1.78213 0
M  V30 4000 H 393.835 -1.46235 -0.616516 0
M  V30 4001 H 393.856 -1.88672 -3.30429 0
M  V30 4002 H 393.368 -3.26116 -2.10404 0
M  V30 4003 H 391.469 -1.23841 -3.51417 0
M  V30 4004 H 391.582 -3.11863 -3.63701 0
M  V30 4005 H 389.946 -1.58328 -1.9951 0
M  V30 4006 H 390.729 -3.14024 -1.38723 0
M  V30 4007 N 393.175 1.03435 -1.18907 0
M  V30 4008 C 394.123 2.13703 -0.918353 0
M  V30 4009 C 395.117 1.68947 0.123767 0
M  V30 4010 O 396.323 1.79983 -0.0249701 0
M  V30 4011 H 392.698 0.698112 -0.279542 0
M  V30 4012 H 394.669 2.33731 -1.85506 0
M  V30 4013 C 393.418 3.44542 -0.467532 0
M  V30 4014 H 392.741 3.79394 -1.26095 0
M  V30 4015 H 394.181 4.22812 -0.317164 0
M  V30 4016 C 392.64 3.26829 0.817588 0
M  V30 4017 O 393.17 3.54975 1.88031 0
M  V30 4018 N 391.376 2.80139 0.772677 0
M  V30 4019 H 390.923 2.57434 -0.0923883 0
M  V30 4020 H 390.881 2.68668 1.63294 0
M  V30 4021 N 394.653 0.992116 1.22453 0
M  V30 4022 C 395.603 0.512969 2.22155 0
M  V30 4023 C 396.587 -0.418416 1.55364 0
M  V30 4024 O 397.779 -0.245363 1.75291 0
M  V30 4025 C 394.908 -0.171822 3.4287 0
M  V30 4026 C 393.994 0.779822 4.16869 0
M  V30 4027 N 394.385 1.92734 4.6764 0
M  V30 4028 C 392.683 0.59554 4.42006 0
M  V30 4029 C 393.384 2.52458 5.24061 0
M  V30 4030 N 392.36 1.80735 5.12675 0
M  V30 4031 H 396.162 1.38817 2.5905 0
M  V30 4032 H 393.676 0.854277 1.38115 0
M  V30 4033 H 395.673 -0.532469 4.13486 0
M  V30 4034 H 394.333 -1.04317 3.07487 0
M  V30 4035 H 395.344 2.30816 4.63621 0
M  V30 4036 H 392.021 -0.229805 4.16867 0
M  V30 4037 H 393.411 3.49433 5.73887 0
M  V30 4038 N 396.131 -1.37776 0.765217 0
M  V30 4039 C 397.377 -2.00145 0.327072 0
M  V30 4040 C 397.71 -1.60607 -1.09175 0
M  V30 4041 O 396.985 -0.849127 -1.74986 0
M  V30 4042 C 397.268 -3.57109 0.46319 0
M  V30 4043 C 397.121 -4.06576 1.92395 0
M  V30 4044 C 398.44 -4.39888 -0.136473 0
M  V30 4045 H 395.559 -0.727113 0.120316 0
M  V30 4046 H 398.201 -1.63549 0.967039 0
M  V30 4047 H 396.351 -3.88414 -0.0816358 0
M  V30 4048 H 398.023 -3.85864 2.52798 0
M  V30 4049 H 396.266 -3.59011 2.43503 0
M  V30 4050 H 396.937 -5.15639 1.97028 0
M  V30 4051 H 399.413 -4.14803 0.328317 0
M  V30 4052 H 398.289 -5.48899 -0.0110582 0
M  V30 4053 H 398.55 -4.24758 -1.22608 0
M  V30 4054 N 397.609 -0.515225 -1.4894 0
M  V30 4055 C 398.855 0.0242508 -2.02785 0
M  V30 4056 C 399.188 1.35323 -1.39289 0
M  V30 4057 O 398.463 1.87041 -0.533469 0
M  V30 4058 C 398.746 0.16184 -3.59736 0
M  V30 4059 C 398.599 -1.19127 -4.33738 0
M  V30 4060 C 399.918 0.895719 -4.30888 0
M  V30 4061 H 397.037 0.00733914 -0.736963 0
M  V30 4062 H 399.679 -0.669395 -1.77818 0
M  V30 4063 H 397.829 0.752624 -3.8114 0
M  V30 4064 H 399.501 -1.82202 -4.23792 0
M  V30 4065 H 397.744 -1.77695 -3.95736 0
M  V30 4066 H 398.415 -1.04815 -5.41957 0
M  V30 4067 H 400.891 0.394528 -4.14225 0
M  V30 4068 H 399.767 0.960859 -5.40425 0
M  V30 4069 H 400.028 1.9427 -3.97129 0
M  V30 4070 N 399.087 1.5561 -0.249682 0
M  V30 4071 C 400.035 2.22894 0.664906 0
M  V30 4072 C 401.029 1.21743 1.17792 0
M  V30 4073 O 402.235 1.39748 1.13449 0
M  V30 4074 H 398.61 0.715022 0.232912 0
M  V30 4075 H 400.581 2.98307 0.0742998 0
M  V30 4076 C 399.33 2.94424 1.84959 0
M  V30 4077 H 398.653 3.72031 1.46399 0
M  V30 4078 H 400.093 3.44862 2.4667 0
M  V30 4079 C 398.552 1.98454 2.72245 0
M  V30 4080 O 399.082 1.51939 3.71857 0
M  V30 4081 N 397.288 1.65496 2.38871 0
M  V30 4082 H 396.835 2.03517 1.57919 0
M  V30 4083 H 396.793 1.0155 2.97548 0
M  V30 4084 N 400.565 -0.0233959 1.57583 0
M  V30 4085 C 401.811 -0.714119 1.89811 0
M  V30 4086 C 402.144 -1.74702 0.848113 0
M  V30 4087 O 401.419 -1.94023 -0.136135 0
M  V30 4088 C 401.702 -1.37853 3.32669 0
M  V30 4089 C 401.555 -0.358764 4.48367 0
M  V30 4090 C 402.874 -2.31101 3.7454 0
M  V30 4091 H 399.993 -0.25814 0.690314 0
M  V30 4092 H 402.635 0.0230927 1.89986 0
M  V30 4093 H 400.785 -2.00689 3.3265 0
M  V30 4094 H 402.457 0.268115 4.6052 0
M  V30 4095 H 400.7 0.321387 4.32608 0
M  V30 4096 H 401.371 -0.862242 5.45224 0
M  V30 4097 H 403.847 -1.78304 3.75961 0
M  V30 4098 H 402.723 -2.74567 4.75294 0
M  V30 4099 H 402.984 -3.18018 3.0711 0
M  V30 4100 N 402.043 -1.548 -0.295768 0
M  V30 4101 C 403.289 -1.74588 -1.03184 0
M  V30 4102 C 403.622 -0.532962 -1.86744 0
M  V30 4103 O 402.897 0.469872 -1.88739 0
M  V30 4104 C 403.18 -3.03791 -1.93347 0
M  V30 4105 C 403.033 -4.35392 -1.12933 0
M  V30 4106 C 404.352 -3.28892 -2.92435 0
M  V30 4107 H 401.471 -0.635221 -0.373715 0
M  V30 4108 H 404.113 -1.87519 -0.30606 0
M  V30 4109 H 402.263 -2.92898 -2.55232 0
M  V30 4110 H 403.935 -4.58211 -0.532943 0
M  V30 4111 H 402.178 -4.31642 -0.432168 0
M  V30 4112 H 402.849 -5.22074 -1.79284 0
M  V30 4113 H 405.325 -3.39429 -2.4068 0
M  V30 4114 H 404.201 -4.20603 -3.52682 0
M  V30 4115 H 404.462 -2.47437 -3.6637 0
M  V30 4116 N 403.521 0.559213 -1.47345 0
M  V30 4117 C 404.932 1.14134 -1.47751 0
M  V30 4118 C 405.283 1.94834 -0.231103 0
M  V30 4119 O 404.408 2.05957 0.664137 0
M  V30 4120 C 405.003 2.07653 -2.67705 0
M  V30 4121 C 403.562 2.61141 -2.71076 0
M  V30 4122 C 402.709 1.3748 -2.40821 0
M  V30 4123 H 405.66 0.345917 -1.54884 0
M  V30 4124 H 405.681 2.91497 -2.44561 0
M  V30 4125 H 405.193 1.4889 -3.58404 0
M  V30 4126 H 403.294 3.23707 -1.84511 0
M  V30 4127 H 403.407 3.02272 -3.7171 0
M  V30 4128 H 401.771 1.68086 -1.91362 0
M  V30 4129 H 402.554 0.805135 -3.33725 0
M  V30 4130 N 404.999 1.35443 0.805782 0
M  V30 4131 C 405.962 1.28301 1.89925 0
M  V30 4132 C 406.962 0.194285 1.59622 0
M  V30 4133 O 408.152 0.448036 1.6834 0
M  V30 4134 C 405.284 0.984997 3.2636 0
M  V30 4135 H 406.477 2.2553 1.97677 0
M  V30 4136 H 404.03 1.19979 1.00173 0
M  V30 4137 H 404.765 0.016603 3.24296 0
M  V30 4138 H 404.55 1.77269 3.4974 0
M  V30 4139 H 406.04 0.960651 4.064 0
M  V30 4140 N 406.477 -1.02803 1.19454 0
M  V30 4141 C 407.888 -1.57667 0.999899 0
M  V30 4142 C 408.239 -1.91041 -0.446956 0
M  V30 4143 O 407.364 -1.70978 -1.32648 0
M  V30 4144 C 407.959 -2.86477 1.80877 0
M  V30 4145 C 406.518 -3.37911 1.65811 0
M  V30 4146 C 405.665 -2.11343 1.79526 0
M  V30 4147 H 408.616 -0.853214 1.33813 0
M  V30 4148 H 408.637 -3.57408 1.30536 0
M  V30 4149 H 408.149 -2.62155 2.86175 0
M  V30 4150 H 406.25 -3.67218 0.63102 0
M  V30 4151 H 406.363 -4.10885 2.46395 0
M  V30 4152 H 404.727 -2.23254 1.22596 0
M  V30 4153 H 405.51 -1.89461 2.86285 0
M  V30 4154 N 407.956 -0.998596 -1.21925 0
M  V30 4155 C 409.181 -0.696015 -1.95372 0
M  V30 4156 C 409.606 0.733826 -1.73195 0
M  V30 4157 O 408.964 1.50242 -1.01474 0
M  V30 4158 C 409.012 -1.01466 -3.4603 0
M  V30 4159 O 408.116 -0.116415 -4.12236 0
M  V30 4160 H 407.457 -0.259938 -0.611006 0
M  V30 4161 H 409.987 -1.33711 -1.54863 0
M  V30 4162 H 409.997 -0.958855 -3.96573 0
M  V30 4163 H 408.672 -2.05653 -3.61497 0
M  V30 4164 H 407.249 -0.228193 -3.72201 0
M  V30 4165 N 409.434 1.37368 -0.772513 0
M  V30 4166 C 410.397 2.28601 -0.165541 0
M  V30 4167 C 411.397 1.48062 0.627238 0
M  V30 4168 O 412.587 1.68268 0.450715 0
M  V30 4169 C 409.719 3.32023 0.772897 0
M  V30 4170 H 410.912 2.83787 -0.969787 0
M  V30 4171 H 408.465 1.46647 -0.540775 0
M  V30 4172 H 409.2 2.81962 1.60212 0
M  V30 4173 H 408.985 3.91555 0.206585 0
M  V30 4174 H 410.475 4.00197 1.19298 0
M  V30 4175 N 410.912 0.523116 1.48665 0
M  V30 4176 C 411.86 -0.256859 2.31177 0
M  V30 4177 C 412.854 -0.94199 1.40794 0
M  V30 4178 O 414.06 -0.867157 1.57735 0
M  V30 4179 H 410.435 -0.1017 0.745091 0
M  V30 4180 H 412.406 0.458739 2.94853 0
M  V30 4181 C 411.155 -1.29503 3.22683 0
M  V30 4182 H 410.478 -0.777248 3.92172 0
M  V30 4183 H 411.918 -1.81233 3.83315 0
M  V30 4184 C 410.377 -2.32501 2.43813 0
M  V30 4185 O 410.907 -3.3881 2.15803 0
M  V30 4186 N 409.113 -2.05538 2.05432 0
M  V30 4187 H 408.66 -1.19104 2.28412 0
M  V30 4188 H 408.618 -2.74676 1.52973 0
M  V30 4189 N 412.39 -1.55475 0.257931 0
M  V30 4190 C 413.615 -2.04064 -0.370488 0
M  V30 4191 C 414.04 -1.13565 -1.49948 0
M  V30 4192 O 413.398 -0.130781 -1.80828 0
M  V30 4193 C 413.446 -3.50554 -0.845237 0
M  V30 4194 O 412.55 -3.63173 -1.95394 0
M  V30 4195 H 411.891 -0.659257 -0.0792243 0
M  V30 4196 H 414.421 -2.00903 0.387212 0
M  V30 4197 H 414.431 -3.91588 -1.14555 0
M  V30 4198 H 413.106 -4.15896 -0.0191259 0
M  V30 4199 H 411.683 -3.34039 -1.65748 0
M  V30 4200 N 413.868 0.0150385 -1.57593 0
M  V30 4201 C 415.279 0.559832 -1.78109 0
M  V30 4202 C 415.63 1.74814 -0.890756 0
M  V30 4203 O 414.755 2.16216 -0.0892482 0
M  V30 4204 C 415.35 1.02238 -3.23006 0
M  V30 4205 C 413.909 1.51258 -3.44671 0
M  V30 4206 C 413.056 0.456955 -2.73509 0
M  V30 4207 H 416.007 -0.211169 -1.57289 0
M  V30 4208 H 416.028 1.88912 -3.30292 0
M  V30 4209 H 415.54 0.157302 -3.87781 0
M  V30 4210 H 413.641 2.39905 -2.8509 0
M  V30 4211 H 413.754 1.55042 -4.5332 0
M  V30 4212 H 412.118 0.915196 -2.37689 0
M  V30 4213 H 412.901 -0.398896 -3.40975 0
M  V30 4214 N 415.346 1.54954 0.287554 0
M  V30 4215 C 416.592 1.75132 1.02257 0
M  V30 4216 C 416.925 0.542858 1.86458 0
M  V30 4217 O 416.2 -0.459856 1.88986 0
M  V30 4218 C 416.483 3.04812 1.91733 0
M  V30 4219 C 416.336 4.35985 1.10622 0
M  V30 4220 C 417.655 3.30438 2.90687 0
M  V30 4221 H 414.774 0.637194 0.370341 0
M  V30 4222 H 417.416 1.87678 0.296111 0
M  V30 4223 H 415.566 2.94247 2.53675 0
M  V30 4224 H 417.238 4.58487 0.508636 0
M  V30 4225 H 415.481 4.31865 0.409271 0
M  V30 4226 H 416.152 5.23017 1.76513 0
M  V30 4227 H 418.628 3.40701 2.38877 0
M  V30 4228 H 417.504 4.22467 3.50447 0
M  V30 4229 H 417.765 2.49377 3.65053 0
M  V30 4230 N 416.824 -0.551391 1.4764 0
M  V30 4231 C 417.772 -1.67896 1.60978 0
M  V30 4232 C 418.766 -1.62549 0.476877 0
M  V30 4233 O 419.972 -1.67664 0.654878 0
M  V30 4234 H 416.347 -0.555649 0.506713 0
M  V30 4235 H 418.318 -1.53784 2.55721 0
M  V30 4236 C 417.067 -3.06234 1.64669 0
M  V30 4237 H 416.39 -3.11033 2.51194 0
M  V30 4238 H 417.83 -3.84804 1.7805 0
M  V30 4239 C 416.289 -3.34737 0.381115 0
M  V30 4240 O 416.819 -3.98381 -0.515297 0
M  V30 4241 N 415.025 -2.8944 0.259354 0
M  V30 4242 H 414.572 -2.37827 0.98976 0
M  V30 4243 H 414.53 -3.08882 -0.586464 0
M  V30 4244 N 418.302 -1.35869 -0.798587 0
M  V30 4245 C 419.55 -1.29332 -1.55298 0
M  V30 4246 C 419.871 0.129729 -1.94568 0
M  V30 4247 O 419.141 1.06796 -1.6423 0
M  V30 4248 H 417.721 -0.475737 -0.57592 0
M  V30 4249 H 420.383 -1.70062 -0.952093 0
M  V30 4250 H 419.479 -1.91458 -2.46476 0
M  V30 4251 N 419.78 1.02168 -1.19998 0
M  V30 4252 C 420.727 2.10601 -0.944228 0
M  V30 4253 C 421.697 1.65639 0.123664 0
M  V30 4254 O 422.882 1.9079 -0.0199941 0
M  V30 4255 C 420.022 3.41504 -0.496865 0
M  V30 4256 C 419.135 3.99973 -1.63234 0
M  V30 4257 C 418.27 5.18915 -1.13579 0
M  V30 4258 C 417.309 5.69456 -2.24468 0
M  V30 4259 N 416.446 6.79665 -1.76068 0
M  V30 4260 H 421.286 2.31814 -1.8726 0
M  V30 4261 H 418.823 1.13686 -0.933483 0
M  V30 4262 H 420.781 4.16626 -0.218843 0
M  V30 4263 H 419.411 3.2038 0.394508 0
M  V30 4264 H 418.463 3.21997 -2.0254 0
M  V30 4265 H 419.775 4.33492 -2.46752 0
M  V30 4266 H 418.929 6.01222 -0.813429 0
M  V30 4267 H 417.668 4.8695 -0.270434 0
M  V30 4268 H 416.673 4.85757 -2.57526 0
M  V30 4269 H 417.898 6.03459 -3.11472 0
M  V30 4270 H 415.844 6.49538 -0.918516 0
M  V30 4271 H 415.761 7.12349 -2.5317 0
M  V30 4272 H 417.029 7.65549 -1.46817 0
M  V30 4273 N 421.258 1.00505 1.21394 0
M  V30 4274 C 422.188 0.585684 2.26035 0
M  V30 4275 C 423.169 -0.393525 1.65485 0
M  V30 4276 O 424.354 -0.281497 1.92149 0
M  V30 4277 C 421.484 -0.0884283 3.47187 0
M  V30 4278 C 420.438 0.810567 4.20254 0
M  V30 4279 C 419.764 0.00286382 5.347 0
M  V30 4280 C 421.064 2.1132 4.77641 0
M  V30 4281 H 422.758 1.46039 2.61368 0
M  V30 4282 H 420.304 0.703648 1.25638 0
M  V30 4283 H 422.257 -0.393286 4.19561 0
M  V30 4284 H 420.981 -0.997766 3.10986 0
M  V30 4285 H 419.64 1.09925 3.49731 0
M  V30 4286 H 419.288 -0.907765 4.94741 0
M  V30 4287 H 418.988 0.601444 5.84514 0
M  V30 4288 H 420.512 -0.295808 6.09883 0
M  V30 4289 H 421.926 1.87148 5.41893 0
M  V30 4290 H 420.323 2.66164 5.37845 0
M  V30 4291 H 421.393 2.78393 3.9702 0
M  V30 4292 N 422.737 -1.36956 0.779787 0
M  V30 4293 C 423.962 -2.04283 0.358224 0
M  V30 4294 C 424.387 -1.58422 -1.01411 0
M  V30 4295 O 423.745 -0.748179 -1.65142 0
M  V30 4296 C 423.793 -3.58152 0.419479 0
M  V30 4297 O 422.897 -4.08342 -0.577142 0
M  V30 4298 H 422.238 -0.645967 0.153698 0
M  V30 4299 H 424.768 -1.75108 1.05822 0
M  V30 4300 H 424.778 -4.07041 0.279636 0
M  V30 4301 H 423.453 -3.90886 1.42061 0
M  V30 4302 H 422.03 -3.70751 -0.399755 0
M  V30 4303 N 424.215 -0.530993 -1.48385 0
M  V30 4304 C 425.461 0.00274135 -2.028 0
M  V30 4305 C 425.794 1.33838 -1.40716 0
M  V30 4306 O 425.069 1.86465 -0.553277 0
M  V30 4307 C 425.352 0.123676 -3.59888 0
M  V30 4308 C 425.205 -1.2372 -4.3245 0
M  V30 4309 C 426.524 0.849967 -4.31814 0
M  V30 4310 H 423.643 -0.000477758 -0.737 0
M  V30 4311 H 426.285 -0.688217 -1.77098 0
M  V30 4312 H 424.435 0.712157 -3.81917 0
M  V30 4313 H 426.107 -1.86687 -4.21836 0
M  V30 4314 H 424.35 -1.81882 -3.93829 0
M  V30 4315 H 425.021 -1.10557 -5.40815 0
M  V30 4316 H 427.497 0.350572 -4.14621 0
M  V30 4317 H 426.373 0.903486 -5.41413 0
M  V30 4318 H 426.634 1.90047 -3.99167 0
M  V30 4319 N 425.693 1.55336 -0.266172 0
M  V30 4320 C 426.921 2.03801 0.356756 0
M  V30 4321 C 427.336 1.14485 1.50129 0
M  V30 4322 O 426.693 0.163121 1.8177 0
M  V30 4323 C 426.744 3.51455 0.846281 0
M  V30 4324 O 426.465 4.37371 -0.252663 0
M  V30 4325 C 427.966 4.15767 1.53794 0
M  V30 4326 H 425.186 0.665906 0.0825218 0
M  V30 4327 H 427.73 2.00636 -0.39566 0
M  V30 4328 H 425.885 3.55092 1.54881 0
M  V30 4329 H 426.299 5.24358 0.122173 0
M  V30 4330 H 427.773 5.20714 1.83198 0
M  V30 4331 H 428.25 3.63404 2.46646 0
M  V30 4332 H 428.856 4.16107 0.879488 0
M  V30 4333 N 427.171 -0.0066808 1.57599 0
M  V30 4334 C 428.118 -1.00024 2.08 0
M  V30 4335 C 429.088 -1.34549 0.973943 0
M  V30 4336 O 430.273 -1.44502 1.24595 0
M  V30 4337 C 427.413 -2.2891 2.58252 0
M  V30 4338 C 426.526 -2.00346 3.82734 0
M  V30 4339 C 425.661 -3.23265 4.21513 0
M  V30 4340 C 424.7 -2.90357 5.3885 0
M  V30 4341 N 423.837 -4.05793 5.72954 0
M  V30 4342 H 428.677 -0.563499 2.92624 0
M  V30 4343 H 426.214 -0.266592 1.44664 0
M  V30 4344 H 428.172 -3.04247 2.85464 0
M  V30 4345 H 426.802 -2.70265 1.76512 0
M  V30 4346 H 425.854 -1.15406 3.62471 0
M  V30 4347 H 427.166 -1.72086 4.68175 0
M  V30 4348 H 426.32 -4.06953 4.49971 0
M  V30 4349 H 425.059 -3.54657 3.34768 0
M  V30 4350 H 424.064 -2.05075 5.10122 0
M  V30 4351 H 425.289 -2.60219 6.27266 0
M  V30 4352 H 423.235 -4.37094 4.89167 0
M  V30 4353 H 423.152 -3.81034 6.52954 0
M  V30 4354 H 424.42 -4.90289 6.06001 0
M  V30 4355 N 428.649 -1.55105 -0.279332 0
M  V30 4356 C 430.06 -1.66186 -0.850832 0
M  V30 4357 C 430.411 -0.584707 -1.87285 0
M  V30 4358 O 429.536 0.274919 -2.14647 0
M  V30 4359 C 430.131 -3.01264 -1.55001 0
M  V30 4360 C 428.69 -3.14394 -2.06963 0
M  V30 4361 C 427.837 -2.61959 -0.909536 0
M  V30 4362 H 430.788 -1.58602 -0.0558235 0
M  V30 4363 H 430.809 -2.93899 -2.41669 0
M  V30 4364 H 430.321 -3.7964 -0.805931 0
M  V30 4365 H 428.422 -2.4078 -2.84352 0
M  V30 4366 H 428.535 -4.20867 -2.28928 0
M  V30 4367 H 426.899 -2.18957 -1.30116 0
M  V30 4368 H 427.682 -3.42833 -0.179062 0
M  V30 4369 N 430.127 0.543554 -1.4793 0
M  V30 4370 C 431.373 1.30201 -1.55485 0
M  V30 4371 C 431.706 1.92925 -0.222201 0
M  V30 4372 O 430.981 1.78586 0.77053 0
M  V30 4373 C 431.264 2.40174 -2.68307 0
M  V30 4374 C 431.117 1.8223 -4.11233 0
M  V30 4375 C 432.436 3.42024 -2.76961 0
M  V30 4376 H 429.555 0.472036 -0.565996 0
M  V30 4377 H 432.197 0.606914 -1.80046 0
M  V30 4378 H 430.347 2.99463 -2.47495 0
M  V30 4379 H 432.019 1.27096 -4.43446 0
M  V30 4380 H 430.262 1.12832 -4.18869 0
M  V30 4381 H 430.933 2.61793 -4.85972 0
M  V30 4382 H 433.409 2.92672 -2.95774 0
M  V30 4383 H 432.285 4.16383 -3.57654 0
M  V30 4384 H 432.546 4.0173 -1.84568 0
M  V30 4385 N 431.605 1.3629 0.791371 0
M  V30 4386 C 432.535 1.33137 1.91825 0
M  V30 4387 C 433.516 0.203168 1.68882 0
M  V30 4388 O 434.701 0.400509 1.90025 0
M  V30 4389 C 431.831 1.11793 3.28816 0
M  V30 4390 C 430.785 2.21417 3.66277 0
M  V30 4391 C 430.111 1.85218 5.01596 0
M  V30 4392 C 431.411 3.63489 3.75064 0
M  V30 4393 H 433.105 2.2743 1.9472 0
M  V30 4394 H 430.651 1.09479 0.935437 0
M  V30 4395 H 432.604 1.08222 4.07266 0
M  V30 4396 H 431.328 0.139501 3.26302 0
M  V30 4397 H 429.987 2.2411 2.90121 0
M  V30 4398 H 429.635 0.859544 4.95602 0
M  V30 4399 H 429.335 2.58611 5.27631 0
M  V30 4400 H 430.859 1.832 5.82469 0
M  V30 4401 H 432.273 3.63034 4.43711 0
M  V30 4402 H 430.67 4.35771 4.12582 0
M  V30 4403 H 431.74 3.98536 2.76219 0
M  V30 4404 N 433.083 -1.0153 1.20538 0
M  V30 4405 C 434.015 -2.10224 0.913155 0
M  V30 4406 C 435.028 -1.62495 -0.0995998 0
M  V30 4407 O 436.217 -1.78014 0.131582 0
M  V30 4408 C 433.317 -3.37111 0.347717 0
M  V30 4409 C 432.49 -4.13971 1.41233 0
M  V30 4410 C 431.549 -5.19158 0.857976 0
M  V30 4411 O 430.575 -5.48 1.53897 0
M  V30 4412 N 431.777 -5.7955 -0.331966 0
M  V30 4413 H 434.542 -2.35879 1.84881 0
M  V30 4414 H 432.103 -1.17931 1.10923 0
M  V30 4415 H 434.095 -4.04683 -0.0373026 0
M  V30 4416 H 432.665 -3.08696 -0.492527 0
M  V30 4417 H 431.885 -3.41351 1.97163 0
M  V30 4418 H 433.173 -4.62103 2.12928 0
M  V30 4419 H 432.571 -5.58455 -0.902478 0
M  V30 4420 H 431.128 -6.48464 -0.65861 0
M  V30 4421 N 434.561 -1.01147 -1.20859 0
M  V30 4422 C 435.786 -0.716698 -1.94623 0
M  V30 4423 C 436.211 0.715415 -1.73964 0
M  V30 4424 O 435.569 1.49157 -1.03062 0
M  V30 4425 C 435.617 -1.0513 -3.44935 0
M  V30 4426 O 434.721 -0.160131 -4.12089 0
M  V30 4427 H 434.062 -0.266404 -0.608214 0
M  V30 4428 H 436.592 -1.35346 -1.53436 0
M  V30 4429 H 436.602 -1.00086 -3.95533 0
M  V30 4430 H 435.277 -2.09475 -3.59295 0
M  V30 4431 H 433.854 -0.267657 -3.71938 0
M  V30 4432 N 436.039 1.36541 -0.78704 0
M  V30 4433 C 437.267 2.03561 -0.370199 0
M  V30 4434 C 437.682 1.59347 1.01263 0
M  V30 4435 O 437.039 0.781781 1.64907 0
M  V30 4436 C 437.09 3.59033 -0.421614 0
M  V30 4437 O 436.811 4.01634 -1.7499 0
M  V30 4438 C 438.312 4.433 0.00489763 0
M  V30 4439 H 435.532 0.653346 -0.152904 0
M  V30 4440 H 438.076 1.74566 -1.06522 0
M  V30 4441 H 436.231 3.86746 0.224971 0
M  V30 4442 H 436.645 4.96217 -1.69909 0
M  V30 4443 H 438.119 5.51939 -0.0822184 0
M  V30 4444 H 438.596 4.26285 1.05723 0
M  V30 4445 H 439.202 4.20843 -0.614085 0
M  V30 4446 N 437.518 0.538854 1.48102 0
M  V30 4447 C 438.451 -0.266495 2.26639 0
M  V30 4448 C 439.429 -0.93687 1.32897 0
M  V30 4449 O 440.613 -0.959507 1.62252 0
M  V30 4450 C 437.74 -1.37814 3.09394 0
M  V30 4451 C 436.786 -0.818247 4.18577 0
M  V30 4452 S 437.619 0.320848 5.34538 0
M  V30 4453 C 438.775 -0.793059 6.20855 0
M  V30 4454 H 439.008 0.399994 2.94597 0
M  V30 4455 H 436.541 0.324808 1.50945 0
M  V30 4456 H 438.499 -2.01488 3.57649 0
M  V30 4457 H 437.16 -2.01639 2.40833 0
M  V30 4458 H 436.353 -1.65247 4.7614 0
M  V30 4459 H 435.955 -0.258036 3.73109 0
M  V30 4460 H 438.247 -1.68961 6.56093 0
M  V30 4461 H 439.19 -0.255204 7.0764 0
M  V30 4462 H 439.598 -1.07746 5.54122 0
M  V30 4463 N 438.996 -1.55193 0.274407 0
M  V30 4464 C 440.412 -1.59401 -0.0797543 0
M  V30 4465 C 440.612 -1.29162 -1.54659 0
M  V30 4466 O 439.668 -1.05215 -2.29534 0
M  V30 4467 C 440.981 -2.99257 0.294238 0
M  V30 4468 C 442.529 -3.12072 0.240796 0
M  V30 4469 C 443.004 -4.54194 0.589218 0
M  V30 4470 N 444.495 -4.60033 0.540744 0
M  V30 4471 C 445.23 -5.68027 0.783147 0
M  V30 4472 N 444.726 -6.8417 1.09013 0
M  V30 4473 N 446.519 -5.57572 0.711993 0
M  V30 4474 H 438.67 -1.73113 1.23067 0
M  V30 4475 H 440.933 -0.807197 0.497129 0
M  V30 4476 H 440.639 -3.26217 1.31435 0
M  V30 4477 H 440.513 -3.75427 -0.365281 0
M  V30 4478 H 442.9 -2.84877 -0.770024 0
M  V30 4479 H 442.981 -2.38117 0.934563 0
M  V30 4480 H 442.625 -4.82115 1.59772 0
M  V30 4481 H 442.555 -5.26448 -0.126331 0
M  V30 4482 H 445.046 -3.76599 0.313327 0
M  V30 4483 H 445.359 -7.6243 1.26178 0
M  V30 4484 H 443.704 -6.85787 1.12789 0
M  V30 4485 H 446.895 -4.65714 0.472014 0
M  V30 4486 H 447.068 -6.41659 0.90429 0
M  V30 4487 N 440.474 -0.00167713 -1.576 0
M  V30 4488 C 441.422 1.0074 -2.09652 0
M  V30 4489 C 442.416 1.35483 -1.01689 0
M  V30 4490 O 443.622 1.34028 -1.20152 0
M  V30 4491 H 439.997 0.342537 -0.669457 0
M  V30 4492 H 441.968 0.542841 -2.93421 0
M  V30 4493 C 440.717 2.2899 -2.61647 0
M  V30 4494 H 440.04 2.03124 -3.44355 0
M  V30 4495 H 441.48 2.9787 -3.01744 0
M  V30 4496 C 439.939 3.00085 -1.53136 0
M  V30 4497 O 440.469 3.91135 -0.91524 0
M  V30 4498 N 438.675 2.6194 -1.25841 0
M  V30 4499 H 438.222 1.8798 -1.76129 0
M  V30 4500 H 438.18 3.09822 -0.534576 0
M  V30 4501 N 441.952 1.55251 0.271103 0
M  V30 4502 C 443.198 1.76207 1.00394 0
M  V30 4503 C 443.531 0.562604 1.85872 0
M  V30 4504 O 442.806 -0.439785 1.89463 0
M  V30 4505 C 443.089 3.06828 1.8849 0
M  V30 4506 C 442.942 4.37134 1.05992 0
M  V30 4507 C 444.261 3.33503 2.87165 0
M  V30 4508 H 441.38 0.641086 0.363562 0
M  V30 4509 H 444.022 1.87982 0.276189 0
M  V30 4510 H 442.172 2.96921 2.5054 0
M  V30 4511 H 443.844 4.59001 0.459978 0
M  V30 4512 H 442.087 4.32275 0.363443 0
M  V30 4513 H 442.758 5.2486 1.70955 0
M  V30 4514 H 445.234 3.43215 2.3525 0
M  V30 4515 H 444.11 4.2616 3.45946 0
M  V30 4516 H 444.371 2.53235 3.62387 0
M  V30 4517 N 443.43 -0.535701 1.48216 0
M  V30 4518 C 444.678 -1.28928 1.55634 0
M  V30 4519 C 444.999 -1.93645 0.229514 0
M  V30 4520 O 444.269 -1.81038 -0.74846 0
M  V30 4521 H 442.849 -0.47884 0.573342 0
M  V30 4522 H 445.511 -0.623853 1.84646 0
M  V30 4523 H 444.607 -2.07157 2.33436 0
M  V30 4524 N 444.908 -1.36708 -0.784132 0
M  V30 4525 C 446.133 -1.34565 -1.5782 0
M  V30 4526 C 446.558 0.0695257 -1.87971 0
M  V30 4527 O 445.916 1.04302 -1.48293 0
M  V30 4528 C 445.964 -2.17952 -2.87279 0
M  V30 4529 O 445.068 -1.57563 -3.81114 0
M  V30 4530 H 444.409 -0.460337 -0.478524 0
M  V30 4531 H 446.939 -1.80064 -0.971495 0
M  V30 4532 H 446.949 -2.30721 -3.365 0
M  V30 4533 H 445.624 -3.20823 -2.64661 0
M  V30 4534 H 444.201 -1.53764 -3.39722 0
M  V30 4535 N 446.386 1.0089 -1.21074 0
M  V30 4536 C 447.663 1.71834 -0.934469 0
M  V30 4537 C 448.043 2.0368 0.554753 0
M  V30 4538 O 447.391 1.70742 1.51854 0
M  V30 4539 C 447.601 2.98061 -1.8155 0
M  V30 4540 C 448.949 3.7117 -2.06199 0
M  V30 4541 O 449.973 3.08034 -1.78867 0
M  V30 4542 O 448.832 4.84721 -2.52404 0
M  V30 4543 H 445.926 0.749253 -0.35007 0
M  V30 4544 H 448.472 1.06668 -1.31985 0
M  V30 4545 H 447.244 2.70908 -2.82355 0
M  V30 4546 H 446.867 3.70968 -1.43068 0
M  V30 4547 N 447.864 1.01787 1.20321 0
M  V30 4548 C 449.113 0.703249 1.89043 0
M  V30 4549 C 449.426 -0.770445 1.79787 0
M  V30 4550 O 450.632 -1.19767 2.43656 0
M  V30 4551 C 449.088 1.20749 3.3904 0
M  V30 4552 C 448.696 2.70817 3.56878 0
M  V30 4553 C 450.44 0.968352 4.13308 0
M  V30 4554 C 448.347 3.14716 5.00708 0
M  V30 4555 H 447.277 0.259354 0.707991 0
M  V30 4556 H 449.928 1.23072 1.36108 0
M  V30 4557 H 448.31 0.607989 3.91305 0
M  V30 4558 H 449.484 3.36327 3.14993 0
M  V30 4559 H 447.799 2.92888 2.95983 0
M  V30 4560 H 450.396 1.27173 5.19356 0
M  V30 4561 H 450.739 -0.095149 4.16191 0
M  V30 4562 H 451.272 1.53129 3.67146 0
M  V30 4563 H 448.011 4.20347 5.02979 0
M  V30 4564 H 447.531 2.53927 5.43398 0
M  V30 4565 H 449.21 3.07426 5.69296 0
M  V30 4566 N 449.342 -1.36122 0.79427 0
M  V30 4567 C 450.305 -2.28309 0.201889 0
M  V30 4568 C 451.305 -1.49041 -0.603603 0
M  V30 4569 O 452.495 -1.68964 -0.423888 0
M  V30 4570 C 449.627 -3.3321 -0.719978 0
M  V30 4571 H 450.82 -2.82208 1.01481 0
M  V30 4572 H 448.373 -1.45768 0.564037 0
M  V30 4573 H 449.108 -2.84475 -1.55706 0
M  V30 4574 H 448.893 -3.91835 -0.144266 0
M  V30 4575 H 450.383 -4.02044 -1.12916 0
M  V30 4576 N 450.82 -0.546701 -1.47814 0
M  V30 4577 C 452.066 -0.0187684 -2.02791 0
M  V30 4578 C 452.399 1.32338 -1.42128 0
M  V30 4579 O 451.674 1.85867 -0.573023 0
M  V30 4580 C 451.957 0.0854985 -3.59998 0
M  V30 4581 C 451.81 -1.283 -4.31114 0
M  V30 4582 C 453.129 0.80412 -4.32691 0
M  V30 4583 H 450.248 -0.0082946 -0.736953 0
M  V30 4584 H 452.89 -0.706962 -1.76358 0
M  V30 4585 H 451.04 0.671609 -3.82651 0
M  V30 4586 H 452.712 -1.91151 -4.19832 0
M  V30 4587 H 450.955 -1.86049 -3.91878 0
M  V30 4588 H 451.626 -1.16287 -5.39612 0
M  V30 4589 H 454.102 0.306576 -4.14969 0
M  V30 4590 H 452.978 0.846011 -5.42341 0
M  V30 4591 H 453.239 1.85802 -4.01161 0
M  V30 4592 N 452.299 1.55045 -0.282633 0
M  V30 4593 C 453.229 2.2579 0.595066 0
M  V30 4594 C 454.21 1.25074 1.15284 0
M  V30 4595 O 455.395 1.5381 1.18559 0
M  V30 4596 C 452.525 2.98472 1.77572 0
M  V30 4597 C 451.479 4.0618 1.34914 0
M  V30 4598 C 450.805 4.66477 2.6135 0
M  V30 4599 C 452.105 5.1996 0.493821 0
M  V30 4600 H 453.799 2.994 0.00505653 0
M  V30 4601 H 451.345 1.44 0.000992001 0
M  V30 4602 H 453.298 3.46677 2.39568 0
M  V30 4603 H 452.022 2.2241 2.39168 0
M  V30 4604 H 450.681 3.58797 0.752338 0
M  V30 4605 H 450.329 3.87074 3.2122 0
M  V30 4606 H 450.029 5.39207 2.33516 0
M  V30 4607 H 451.553 5.17435 3.24181 0
M  V30 4608 H 452.967 5.64172 1.01898 0
M  V30 4609 H 451.364 5.99299 0.310047 0
M  V30 4610 H 452.434 4.82462 -0.485593 0
M  V30 4611 N 453.777 0.010035 1.57597 0
M  V30 4612 C 455.193 -0.346164 1.55801 0
M  V30 4613 C 455.393 -1.74144 1.01371 0
M  V30 4614 O 454.449 -2.43938 0.651968 0
M  V30 4615 C 455.762 -0.212216 2.9995 0
M  V30 4616 C 457.31 -0.286409 3.11687 0
M  V30 4617 C 457.785 -0.18147 4.5764 0
M  V30 4618 N 459.276 -0.239056 4.62583 0
M  V30 4619 C 460.011 -0.181351 5.73113 0
M  V30 4620 N 459.507 -0.073661 6.92761 0
M  V30 4621 N 461.3 -0.233949 5.61613 0
M  V30 4622 H 453.451 0.922657 1.91313 0
M  V30 4623 H 455.714 0.354595 0.879185 0
M  V30 4624 H 455.42 0.748169 3.4365 0
M  V30 4625 H 455.294 -0.990224 3.6397 0
M  V30 4626 H 457.681 -1.23724 2.67911 0
M  V30 4627 H 457.762 0.521645 2.50425 0
M  V30 4628 H 457.406 0.765863 5.02093 0
M  V30 4629 H 457.336 -1.00814 5.1686 0
M  V30 4630 H 459.827 -0.32321 3.76515 0
M  V30 4631 H 460.14 -0.0358003 7.72792 0
M  V30 4632 H 458.485 -0.0391461 6.94989 0
M  V30 4633 H 461.676 -0.316347 4.6703 0
M  V30 4634 H 461.849 -0.185514 6.47734 0
M  V30 4635 N 455.255 -1.55392 -0.262866 0
M  V30 4636 C 456.671 -1.47459 -0.610582 0
M  V30 4637 C 456.871 -0.697031 -1.8906 0
M  V30 4638 O 455.927 -0.219952 -2.5154 0
M  V30 4639 C 457.24 -2.91751 -0.728131 0
M  V30 4640 C 458.788 -3.02027 -0.821517 0
M  V30 4641 C 459.263 -4.47594 -0.97076 0
M  V30 4642 N 460.754 -4.51465 -1.03603 0
M  V30 4643 C 461.489 -5.61326 -1.17049 0
M  V30 4644 N 460.985 -6.81032 -1.2715 0
M  V30 4645 N 462.778 -5.49089 -1.20239 0
M  V30 4646 H 454.929 -2.04395 0.577632 0
M  V30 4647 H 457.192 -0.927287 0.197086 0
M  V30 4648 H 456.898 -3.51413 0.142132 0
M  V30 4649 H 456.772 -3.4134 -1.6052 0
M  V30 4650 H 459.159 -2.42456 -1.68224 0
M  V30 4651 H 459.24 -2.55674 0.0803688 0
M  V30 4652 H 458.884 -5.07771 -0.114655 0
M  V30 4653 H 458.814 -4.91613 -1.88745 0
M  V30 4654 H 461.305 -3.6524 -0.96996 0
M  V30 4655 H 461.618 -7.60511 -1.37271 0
M  V30 4656 H 459.963 -6.83824 -1.24136 0
M  V30 4657 H 463.154 -4.54507 -1.11985 0
M  V30 4658 H 463.327 -6.34749 -1.30373 0
M  V30 4659 N 456.733 0.527833 -1.48498 0
M  V30 4660 C 457.665 1.6482 -1.5927 0
M  V30 4661 C 458.678 1.55659 -0.476869 0
M  V30 4662 O 459.867 1.62081 -0.747806 0
M  V30 4663 C 456.967 3.0348 -1.50842 0
M  V30 4664 C 456.14 3.381 -2.77502 0
M  V30 4665 C 455.199 4.5605 -2.62497 0
M  V30 4666 O 454.225 4.59165 -3.36387 0
M  V30 4667 N 455.427 5.54353 -1.72257 0
M  V30 4668 H 458.192 1.56015 -2.55889 0
M  V30 4669 H 455.753 0.715152 -1.45249 0
M  V30 4670 H 457.745 3.80264 -1.38496 0
M  V30 4671 H 456.315 3.06352 -0.621887 0
M  V30 4672 H 455.535 2.50473 -3.04396 0
M  V30 4673 H 456.823 3.58017 -3.61527 0
M  V30 4674 H 456.221 5.54617 -1.11431 0
M  V30 4675 H 454.778 6.30347 -1.65849 0
M  V30 4676 N 458.211 1.37122 0.776871 0
M  V30 4677 C 459.143 1.28342 1.89897 0
M  V30 4678 C 460.156 0.200277 1.61563 0
M  V30 4679 O 461.345 0.456012 1.72577 0
M  V30 4680 C 458.445 0.960427 3.25006 0
M  V30 4681 C 457.618 2.148 3.81025 0
M  V30 4682 C 456.677 1.79608 4.94598 0
M  V30 4683 O 455.703 2.51845 5.10454 0
M  V30 4684 N 456.905 0.737171 5.758 0
M  V30 4685 H 459.67 2.25027 1.97947 0
M  V30 4686 H 457.231 1.3068 0.955739 0
M  V30 4687 H 459.223 0.705942 3.98495 0
M  V30 4688 H 457.793 0.0823066 3.12492 0
M  V30 4689 H 457.013 2.56454 2.99374 0
M  V30 4690 H 458.301 2.9411 4.15183 0
M  V30 4691 H 457.699 0.137637 5.65533 0
M  V30 4692 H 456.256 0.542534 6.49538 0
M  V30 4693 N 459.689 -1.00246 1.21608 0
M  V30 4694 C 461.105 -1.26435 0.973975 0
M  V30 4695 C 461.305 -1.98642 -0.338143 0
M  V30 4696 O 460.361 -2.29026 -1.06317 0
M  V30 4697 C 461.674 -2.08551 2.16626 0
M  V30 4698 C 463.222 -2.21769 2.20879 0
M  V30 4699 C 463.697 -3.07267 3.39633 0
M  V30 4700 N 465.188 -3.14855 3.39736 0
M  V30 4701 C 465.923 -3.81274 4.28273 0
M  V30 4702 N 465.419 -4.497 5.27012 0
M  V30 4703 N 467.212 -3.7794 4.16074 0
M  V30 4704 H 459.363 -0.518089 2.05984 0
M  V30 4705 H 461.626 -0.291368 0.902113 0
M  V30 4706 H 461.332 -1.62847 3.11727 0
M  V30 4707 H 461.206 -3.09303 2.15897 0
M  V30 4708 H 463.593 -2.66691 1.26332 0
M  V30 4709 H 463.674 -1.20478 2.25652 0
M  V30 4710 H 463.318 -2.63047 4.34475 0
M  V30 4711 H 463.248 -4.08678 3.321 0
M  V30 4712 H 465.739 -2.66147 2.6828 0
M  V30 4713 H 466.052 -4.98092 5.90867 0
M  V30 4714 H 464.397 -4.48479 5.30935 0
M  V30 4715 H 467.588 -3.23638 3.38195 0
M  V30 4716 H 467.761 -4.29424 4.85282 0
M  V30 4717 N 461.167 -1.02423 -1.1978 0
M  V30 4718 C 462.1 -0.545641 -2.21581 0
M  V30 4719 C 463.078 0.411024 -1.57319 0
M  V30 4720 O 464.262 0.329223 -1.85603 0
M  V30 4721 C 461.389 0.204973 -3.38079 0
M  V30 4722 C 460.435 -0.70241 -4.20676 0
M  V30 4723 S 461.268 -2.17595 -4.89298 0
M  V30 4724 C 462.424 -1.43572 -6.09211 0
M  V30 4725 H 462.657 -1.4082 -2.61834 0
M  V30 4726 H 460.19 -0.833771 -1.29952 0
M  V30 4727 H 462.148 0.631924 -4.05607 0
M  V30 4728 H 460.809 1.0432 -2.9627 0
M  V30 4729 H 460.002 -0.123193 -5.03849 0
M  V30 4730 H 459.604 -1.06747 -3.58442 0
M  V30 4731 H 461.896 -0.719806 -6.73665 0
M  V30 4732 H 462.839 -2.24388 -6.71607 0
M  V30 4733 H 463.247 -0.935252 -5.56699 0
M  V30 4734 N 462.645 1.35699 -0.801477 0
M  V30 4735 C 463.894 1.98165 -0.375979 0
M  V30 4736 C 464.207 1.64306 1.06127 0
M  V30 4737 O 465.413 2.20097 1.58964 0
M  V30 4738 C 463.869 3.54497 -0.621305 0
M  V30 4739 C 463.477 3.9727 -2.07076 0
M  V30 4740 C 465.221 4.23697 -0.26091 0
M  V30 4741 C 463.128 5.46427 -2.26211 0
M  V30 4742 H 462.058 0.741478 -0.136844 0
M  V30 4743 H 464.709 1.54834 -0.984814 0
M  V30 4744 H 463.091 3.95958 0.0574112 0
M  V30 4745 H 464.265 3.66974 -2.78687 0
M  V30 4746 H 462.58 3.40943 -2.39054 0
M  V30 4747 H 465.177 5.33334 -0.381994 0
M  V30 4748 H 465.52 4.0869 0.792344 0
M  V30 4749 H 466.053 3.87639 -0.893339 0
M  V30 4750 H 462.792 5.66396 -3.29963 0
M  V30 4751 H 462.312 5.78309 -1.59119 0
M  V30 4752 H 463.991 6.12819 -2.07513 0
M  V30 4753 N 464.123 0.554532 1.47522 0
M  V30 4754 C 465.07 -0.19466 2.29978 0
M  V30 4755 C 466.04 -0.910882 1.38896 0
M  V30 4756 O 467.225 -0.907102 1.67858 0
M  V30 4757 C 464.365 -1.22035 3.22802 0
M  V30 4758 C 463.478 -0.510474 4.28973 0
M  V30 4759 C 462.613 -1.52123 5.08952 0
M  V30 4760 C 461.652 -0.796173 6.069 0
M  V30 4761 N 460.789 -1.75363 6.79847 0
M  V30 4762 H 465.629 0.51461 2.93523 0
M  V30 4763 H 463.166 0.265607 1.44682 0
M  V30 4764 H 465.124 -1.8276 3.7504 0
M  V30 4765 H 463.754 -1.89769 2.61127 0
M  V30 4766 H 462.806 0.211234 3.79813 0
M  V30 4767 H 464.118 0.0576503 4.98767 0
M  V30 4768 H 463.272 -2.20207 5.65326 0
M  V30 4769 H 462.011 -2.12327 4.39054 0
M  V30 4770 H 461.016 -0.101388 5.49707 0
M  V30 4771 H 462.241 -0.199911 6.78806 0
M  V30 4772 H 460.187 -2.3443 6.12682 0
M  V30 4773 H 460.104 -1.23759 7.45801 0
M  V30 4774 H 461.372 -2.4257 7.40797 0
M  V30 4775 N 465.601 -1.54893 0.290851 0
M  V30 4776 C 466.549 -2.24579 -0.605576 0
M  V30 4777 C 467.543 -1.24824 -1.14522 0
M  V30 4778 O 468.749 -1.42706 -1.09704 0
M  V30 4779 H 465.124 -0.720946 -0.213872 0
M  V30 4780 H 467.095 -2.984 0.0048173 0
M  V30 4781 C 465.844 -2.99224 -1.77088 0
M  V30 4782 H 465.167 -3.75782 -1.36484 0
M  V30 4783 H 466.607 -3.51281 -2.3744 0
M  V30 4784 C 465.066 -2.05602 -2.66888 0
M  V30 4785 O 465.596 -1.61745 -3.67698 0
M  V30 4786 N 463.802 -1.71771 -2.34399 0
M  V30 4787 H 463.349 -2.07633 -1.52468 0
M  V30 4788 H 463.307 -1.09403 -2.94751 0
M  V30 4789 N 467.08 -0.0183926 -1.57589 0
M  V30 4790 C 468.496 0.337897 -1.55982 0
M  V30 4791 C 468.696 1.73604 -1.02294 0
M  V30 4792 O 467.752 2.43589 -0.664895 0
M  V30 4793 C 469.065 0.196305 -3.00059 0
M  V30 4794 C 470.613 0.269875 -3.11834 0
M  V30 4795 C 471.088 0.157197 -4.5773 0
M  V30 4796 N 472.579 0.214521 -4.62703 0
M  V30 4797 C 473.314 0.150955 -5.73201 0
M  V30 4798 N 472.81 0.0369212 -6.9279 0
M  V30 4799 N 474.603 0.204162 -5.61729 0
M  V30 4800 H 466.754 -0.93279 -1.90821 0
M  V30 4801 H 469.017 -0.359253 -0.877292 0
M  V30 4802 H 468.723 -0.766383 -3.43248 0
M  V30 4803 H 468.597 0.970908 -3.6449 0
M  V30 4804 H 470.984 1.22302 -2.68563 0
M  V30 4805 H 471.065 -0.534918 -2.50144 0
M  V30 4806 H 470.709 -0.792479 -5.01679 0
M  V30 4807 H 470.639 0.980717 -5.17387 0
M  V30 4808 H 473.13 0.303238 -3.76681 0
M  V30 4809 H 473.443 -0.00518321 -7.728 0
M  V30 4810 H 471.788 0.0022886 -6.95 0
M  V30 4811 H 474.979 0.291575 -4.67191 0
M  V30 4812 H 475.152 0.15116 -6.47824 0
M  V30 4813 N 468.558 1.5553 0.254621 0
M  V30 4814 C 469.468 1.92789 1.33677 0
M  V30 4815 C 470.484 0.827356 1.53071 0
M  V30 4816 O 471.66 1.12807 1.66843 0
M  V30 4817 C 468.725 2.20827 2.67275 0
M  V30 4818 C 467.786 3.4427 2.5647 0
M  V30 4819 C 467.019 3.70961 3.83697 0
M  V30 4820 O 467.242 2.99852 4.85227 0
M  V30 4821 O 466.176 4.64491 3.82794 0
M  V30 4822 H 470.002 2.84945 1.05071 0
M  V30 4823 H 467.587 1.42312 0.454723 0
M  V30 4824 H 469.469 2.40204 3.46237 0
M  V30 4825 H 468.144 1.31851 2.9563 0
M  V30 4826 H 467.051 3.30209 1.75821 0
M  V30 4827 H 468.384 4.33524 2.33062 0
M  V30 4828 N 470.036 -0.519951 1.48776 0
M  V30 4829 C 471.261 -1.30447 1.6124 0
M  V30 4830 C 471.686 -1.86055 0.276591 0
M  V30 4831 O 471.044 -1.64915 -0.753183 0
M  V30 4832 C 471.092 -2.42406 2.66967 0
M  V30 4833 O 470.196 -3.45728 2.24824 0
M  V30 4834 H 469.537 -0.385924 0.540332 0
M  V30 4835 H 472.067 -0.624572 1.94834 0
M  V30 4836 H 472.077 -2.88447 2.88552 0
M  V30 4837 H 470.752 -2.01294 3.63941 0
M  V30 4838 H 469.329 -3.05737 2.13494 0
M  V30 4839 N 471.514 -1.37532 -0.769588 0
M  V30 4840 C 472.477 -1.33292 -1.86456 0
M  V30 4841 C 473.477 -0.236537 -1.59051 0
M  V30 4842 O 474.667 -0.492511 -1.67093 0
M  V30 4843 C 471.799 -1.07118 -3.23633 0
M  V30 4844 H 472.992 -2.30692 -1.91628 0
M  V30 4845 H 470.545 -1.22593 -0.969572 0
M  V30 4846 H 471.28 -0.102578 -3.24138 0
M  V30 4847 H 471.065 -1.86479 -3.44917 0
M  V30 4848 H 472.555 -1.06806 -4.03711 0
M  V30 4849 N 472.992 0.995999 -1.22138 0
M  V30 4850 C 474.232 1.75032 -1.05561 0
M  V30 4851 C 474.596 1.87729 0.402698 0
M  V30 4852 O 475.797 2.59813 0.689234 0
M  V30 4853 C 474.068 3.11973 -1.74379 0
M  V30 4854 S 475.627 4.03182 -1.73175 0
M  V30 4855 H 472.445 0.602137 -0.37809 0
M  V30 4856 H 475.047 1.19107 -1.55028 0
M  V30 4857 H 473.751 3.00371 -2.79652 0
M  V30 4858 H 473.282 3.7297 -1.25128 0
M  V30 4859 H 475.297 4.90043 -0.77923 0
M  V30 4860 N 474.47 1.03057 1.19235 0
M  V30 4861 C 475.402 0.570932 2.21975 0
M  V30 4862 C 476.415 -0.354088 1.58903 0
M  V30 4863 O 477.604 -0.150211 1.77867 0
M  V30 4864 C 474.704 -0.187152 3.38383 0
M  V30 4865 C 473.877 0.743231 4.31039 0
M  V30 4866 C 472.936 0.0302493 5.26191 0
M  V30 4867 O 471.962 0.657371 5.65391 0
M  V30 4868 N 473.164 -1.23991 5.67104 0
M  V30 4869 H 475.929 1.45456 2.62036 0
M  V30 4870 H 473.49 0.909807 1.33918 0
M  V30 4871 H 475.482 -0.673715 3.99053 0
M  V30 4872 H 474.052 -0.972205 2.97098 0
M  V30 4873 H 473.272 1.40985 3.68126 0
M  V30 4874 H 474.56 1.3755 4.89854 0
M  V30 4875 H 473.958 -1.77011 5.37293 0
M  V30 4876 H 472.515 -1.67093 6.30018 0
M  V30 4877 N 475.948 -1.35272 0.808662 0
M  V30 4878 C 477.173 -2.03477 0.401475 0
M  V30 4879 C 477.598 -1.60537 -0.980279 0
M  V30 4880 O 476.956 -0.78304 -1.63518 0
M  V30 4881 C 477.004 -3.57181 0.495354 0
M  V30 4882 O 476.108 -4.09474 -0.490397 0
M  V30 4883 H 475.449 -0.642561 0.167366 0
M  V30 4884 H 477.979 -1.72824 1.09512 0
M  V30 4885 H 477.989 -4.06356 0.365912 0
M  V30 4886 H 476.664 -3.87784 1.5032 0
M  V30 4887 H 475.241 -3.71516 -0.321023 0
M  V30 4888 N 477.426 -0.562348 -1.47226 0
M  V30 4889 C 478.842 -0.222492 -1.58042 0
M  V30 4890 C 479.042 1.27505 -1.56028 0
M  V30 4891 O 478.098 2.05555 -1.46641 0
M  V30 4892 C 479.411 -0.853694 -2.88327 0
M  V30 4893 C 480.959 -0.825397 -3.01921 0
M  V30 4894 C 481.434 -1.43576 -4.34914 0
M  V30 4895 N 482.925 -1.39918 -4.41562 0
M  V30 4896 C 483.66 -1.84103 -5.43041 0
M  V30 4897 N 483.156 -2.36167 -6.51304 0
M  V30 4898 N 484.949 -1.75142 -5.34118 0
M  V30 4899 H 477.1 -1.53525 -1.46778 0
M  V30 4900 H 479.363 -0.640527 -0.698877 0
M  V30 4901 H 479.069 -1.90635 -2.95552 0
M  V30 4902 H 478.943 -0.34977 -3.75575 0
M  V30 4903 H 481.33 0.218583 -2.94289 0
M  V30 4904 H 481.411 -1.36713 -2.16202 0
M  V30 4905 H 481.055 -2.47884 -4.43301 0
M  V30 4906 H 480.985 -0.869427 -5.19373 0
M  V30 4907 H 483.476 -1.0184 -3.63919 0
M  V30 4908 H 483.789 -2.67793 -7.24919 0
M  V30 4909 H 482.134 -2.40181 -6.52179 0
M  V30 4910 H 485.325 -1.34241 -4.48439 0
M  V30 4911 H 485.498 -2.09895 -6.13065 0
M  V30 4912 N 478.904 1.54736 -0.299062 0
M  V30 4913 C 479.851 2.23448 0.577899 0
M  V30 4914 C 480.821 1.21637 1.13109 0
M  V30 4915 O 482.006 1.50252 1.17597 0
M  V30 4916 C 479.146 2.9774 1.74484 0
M  V30 4917 C 478.259 4.1432 1.22323 0
M  V30 4918 C 477.394 4.76199 2.35388 0
M  V30 4919 C 476.433 5.84927 1.80351 0
M  V30 4920 N 475.57 6.4077 2.86982 0
M  V30 4921 H 480.41 2.97996 -0.0146545 0
M  V30 4922 H 477.947 1.47088 -0.0190013 0
M  V30 4923 H 479.905 3.39045 2.43114 0
M  V30 4924 H 478.535 2.25572 2.30905 0
M  V30 4925 H 477.587 3.7797 0.429249 0
M  V30 4926 H 478.899 4.92659 0.780309 0
M  V30 4927 H 478.053 5.20346 3.11969 0
M  V30 4928 H 476.792 3.97188 2.83006 0
M  V30 4929 H 475.797 5.40207 1.02259 0
M  V30 4930 H 477.022 6.65821 1.3364 0
M  V30 4931 H 474.968 5.64643 3.33938 0
M  V30 4932 H 474.885 7.1445 2.4718 0
M  V30 4933 H 476.153 6.89574 3.63466 0
M  V30 4934 N 480.382 0.0267497 1.57577 0
M  V30 4935 C 481.329 -0.955894 2.10075 0
M  V30 4936 C 482.299 -1.32453 1.00226 0
M  V30 4937 O 483.484 -1.41826 1.27632 0
M  V30 4938 C 480.624 -2.2338 2.6305 0
M  V30 4939 C 479.737 -1.92183 3.86898 0
M  V30 4940 C 478.872 -3.14251 4.28275 0
M  V30 4941 C 477.911 -2.78862 5.44888 0
M  V30 4942 N 477.048 -3.93548 5.81433 0
M  V30 4943 H 481.888 -0.501303 2.93753 0
M  V30 4944 H 479.425 -0.235847 1.45197 0
M  V30 4945 H 481.383 -2.98124 2.91853 0
M  V30 4946 H 480.013 -2.6646 1.82205 0
M  V30 4947 H 479.065 -1.07692 3.64838 0
M  V30 4948 H 480.377 -1.62117 4.7172 0
M  V30 4949 H 479.531 -3.97317 4.58502 0
M  V30 4950 H 478.27 -3.47476 3.42215 0
M  V30 4951 H 477.275 -1.94208 5.14357 0
M  V30 4952 H 478.5 -2.46855 6.32645 0
M  V30 4953 H 476.446 -4.2662 4.98328 0
M  V30 4954 H 476.363 -3.67098 6.6089 0
M  V30 4955 H 477.631 -4.77325 6.16264 0
M  V30 4956 N 481.861 -1.55662 -0.24637 0
M  V30 4957 C 482.808 -1.90361 -1.30504 0
M  V30 4958 C 483.778 -0.757905 -1.47801 0
M  V30 4959 O 484.963 -1.01161 -1.61775 0
M  V30 4960 C 482.103 -2.2042 -2.65535 0
M  V30 4961 C 481.216 -3.47799 -2.56242 0
M  V30 4962 C 480.351 -3.67426 -3.8363 0
M  V30 4963 C 479.39 -4.88403 -3.68956 0
M  V30 4964 N 478.527 -5.04548 -4.88237 0
M  V30 4965 H 483.367 -2.80645 -1.00213 0
M  V30 4966 H 480.904 -1.38924 -0.483577 0
M  V30 4967 H 482.862 -2.35853 -3.44135 0
M  V30 4968 H 481.492 -1.3334 -2.93973 0
M  V30 4969 H 480.544 -3.40694 -1.69208 0
M  V30 4970 H 481.856 -4.36544 -2.4131 0
M  V30 4971 H 481.01 -3.82821 -4.70673 0
M  V30 4972 H 479.749 -2.76914 -4.01459 0
M  V30 4973 H 478.754 -4.72984 -2.80296 0
M  V30 4974 H 479.979 -5.80375 -3.52621 0
M  V30 4975 H 477.925 -4.16974 -5.06427 0
M  V30 4976 H 477.842 -5.87384 -4.75937 0
M  V30 4977 H 479.11 -5.24355 -5.76777 0
M  V30 4978 N 483.339 0.512053 -1.4905 0
M  V30 4979 C 484.286 1.6148 -1.64902 0
M  V30 4980 C 485.256 1.58687 -0.490673 0
M  V30 4981 O 486.441 1.76842 -0.71636 0
M  V30 4982 C 483.581 2.99676 -1.71139 0
M  V30 4983 C 482.694 3.12568 -2.98203 0
M  V30 4984 C 481.829 4.4143 -2.95487 0
M  V30 4985 C 480.868 4.47916 -4.17179 0
M  V30 4986 N 480.005 5.68191 -4.12437 0
M  V30 4987 H 484.845 1.47271 -2.59066 0
M  V30 4988 H 482.382 0.716713 -1.28459 0
M  V30 4989 H 484.34 3.79761 -1.72736 0
M  V30 4990 H 482.97 3.12614 -0.804508 0
M  V30 4991 H 482.022 2.25618 -3.06269 0
M  V30 4992 H 483.334 3.1322 -3.88194 0
M  V30 4993 H 482.488 5.29825 -2.95585 0
M  V30 4994 H 481.227 4.43326 -2.03256 0
M  V30 4995 H 480.232 3.57925 -4.17337 0
M  V30 4996 H 481.457 4.47744 -5.1059 0
M  V30 4997 H 479.403 5.7095 -3.23036 0
M  V30 4998 H 479.32 5.70413 -4.96151 0
M  V30 4999 H 480.588 6.58823 -4.16621 0
M  V30 5000 N 484.817 1.37938 0.762283 0
M  V30 5001 C 485.727 1.36681 1.90671 0
M  V30 5002 C 486.743 0.265078 1.71969 0
M  V30 5003 O 487.919 0.502055 1.95042 0
M  V30 5004 C 484.984 1.18211 3.25925 0
M  V30 5005 C 484.045 2.3811 3.57214 0
M  V30 5006 C 483.278 2.20512 4.86014 0
M  V30 5007 O 483.501 1.19429 5.57757 0
M  V30 5008 O 482.435 3.08911 5.16583 0
M  V30 5009 H 486.261 2.33091 1.94685 0
M  V30 5010 H 483.846 1.18767 0.906356 0
M  V30 5011 H 485.728 1.09937 4.06807 0
M  V30 5012 H 484.403 0.248807 3.22742 0
M  V30 5013 H 483.31 2.51958 2.76529 0
M  V30 5014 H 484.643 3.30041 3.65149 0
M  V30 5015 N 486.295 -0.989507 1.22664 0
M  V30 5016 C 487.525 -1.7624 1.0781 0
M  V30 5017 C 487.933 -1.85466 -0.374036 0
M  V30 5018 O 487.276 -1.32645 -1.27087 0
M  V30 5019 C 487.338 -3.21007 1.61849 0
M  V30 5020 C 487.002 -3.35316 3.10503 0
M  V30 5021 C 487.999 -3.22362 4.07896 0
M  V30 5022 C 485.684 -3.60258 3.50028 0
M  V30 5023 C 487.678 -3.34139 5.42798 0
M  V30 5024 C 485.365 -3.71676 4.85078 0
M  V30 5025 C 486.363 -3.58625 5.81272 0
M  V30 5026 O 486.051 -3.69655 7.1387 0
M  V30 5027 H 485.783 -0.560209 0.378341 0
M  V30 5028 H 488.337 -1.25252 1.62792 0
M  V30 5029 H 486.567 -3.73202 1.01279 0
M  V30 5030 H 488.256 -3.80024 1.42606 0
M  V30 5031 H 489.022 -3.03 3.78703 0
M  V30 5032 H 484.901 -3.69492 2.75675 0
M  V30 5033 H 488.445 -3.23869 6.17863 0
M  V30 5034 H 484.342 -3.90545 5.1395 0
M  V30 5035 H 485.11 -3.86507 7.21495 0
M  V30 5036 N 487.773 -1.03688 -1.18687 0
M  V30 5037 C 488.706 -0.569112 -2.2099 0
M  V30 5038 C 489.684 0.394315 -1.57746 0
M  V30 5039 O 490.868 0.309519 -1.85941 0
M  V30 5040 C 487.995 0.169104 -3.38278 0
M  V30 5041 C 487.041 -0.746989 -4.19908 0
M  V30 5042 S 487.874 -2.22773 -4.86963 0
M  V30 5043 C 489.03 -1.50025 -6.07654 0
M  V30 5044 H 489.263 -1.43589 -2.60326 0
M  V30 5045 H 486.796 -0.847507 -1.29061 0
M  V30 5046 H 488.754 0.588868 -4.06254 0
M  V30 5047 H 487.415 1.01172 -2.9736 0
M  V30 5048 H 486.608 -0.176626 -5.0369 0
M  V30 5049 H 486.21 -1.10543 -3.5729 0
M  V30 5050 H 488.502 -0.791217 -6.72864 0
M  V30 5051 H 489.445 -2.31498 -6.69189 0
M  V30 5052 H 489.853 -0.994245 -5.55675 0
M  V30 5053 N 489.251 1.34841 -0.815825 0
M  V30 5054 C 490.181 2.32187 -0.247298 0
M  V30 5055 C 491.162 1.5791 0.632344 0
M  V30 5056 O 492.347 1.8593 0.560698 0
M  V30 5057 C 489.477 3.42122 0.597466 0
M  V30 5058 C 488.431 4.27602 -0.184446 0
M  V30 5059 C 487.757 5.28942 0.782609 0
M  V30 5060 C 489.057 5.03502 -1.38865 0
M  V30 5061 H 490.751 2.79985 -1.06061 0
M  V30 5062 H 488.297 1.34611 -0.511461 0
M  V30 5063 H 490.25 4.09232 1.00533 0
M  V30 5064 H 488.974 2.92956 1.44376 0
M  V30 5065 H 487.633 3.62085 -0.573592 0
M  V30 5066 H 487.281 4.7604 1.62466 0
M  V30 5067 H 486.981 5.87008 0.263695 0
M  V30 5068 H 488.505 5.98922 1.18848 0
M  V30 5069 H 489.919 5.63506 -1.05518 0
M  V30 5070 H 488.316 5.71108 -1.8427 0
M  V30 5071 H 489.386 4.33608 -2.17054 0
M  V30 5072 N 490.729 0.570148 1.46925 0
M  V30 5073 C 491.977 0.0508523 2.02036 0
M  V30 5074 C 492.298 -1.30885 1.44548 0
M  V30 5075 O 491.568 -1.85647 0.625453 0
M  V30 5076 H 490.148 0.0158088 0.746833 0
M  V30 5077 H 492.81 0.743086 1.80178 0
M  V30 5078 H 491.906 -0.027575 3.12088 0
M  V30 5079 N 492.207 -1.54576 0.307264 0
M  V30 5080 C 493.137 -2.26708 -0.55907 0
M  V30 5081 C 494.118 -1.26893 -1.1328 0
M  V30 5082 O 495.303 -1.55677 -1.16097 0
M  V30 5083 C 492.433 -3.01259 -1.72801 0
M  V30 5084 C 491.387 -4.08275 -1.28435 0
M  V30 5085 C 490.713 -4.70575 -2.53895 0
M  V30 5086 C 492.013 -5.2068 -0.411038 0
M  V30 5087 H 493.707 -2.9937 0.042576 0
M  V30 5088 H 491.253 -1.43983 0.0219173 0
M  V30 5089 H 493.206 -3.50444 -2.34023 0
M  V30 5090 H 491.93 -2.26187 -2.356 0
M  V30 5091 H 490.589 -3.59949 -0.695161 0
M  V30 5092 H 490.237 -3.92136 -3.15021 0
M  V30 5093 H 489.937 -5.42854 -2.24908 0
M  V30 5094 H 491.461 -5.22527 -3.15908 0
M  V30 5095 H 492.875 -5.65721 -0.929097 0
M  V30 5096 H 491.272 -5.99716 -0.214664 0
M  V30 5097 H 492.342 -4.81629 0.562287 0
M  V30 5098 N 493.685 -0.035106 -1.57561 0
M  V30 5099 C 494.595 0.960295 -2.14046 0
M  V30 5100 C 495.611 1.3529 -1.0942 0
M  V30 5101 O 496.787 1.43309 -1.41508 0
M  V30 5102 C 493.852 2.22214 -2.66124 0
M  V30 5103 C 492.913 1.8894 -3.85487 0
M  V30 5104 C 492.146 3.09109 -4.35072 0
M  V30 5105 O 492.369 4.21963 -3.83802 0
M  V30 5106 O 491.303 2.91058 -5.26848 0
M  V30 5107 H 495.129 0.509983 -2.99387 0
M  V30 5108 H 492.714 0.185853 -1.48239 0
M  V30 5109 H 494.596 2.96279 -2.99661 0
M  V30 5110 H 493.271 2.66414 -1.83862 0
M  V30 5111 H 492.178 1.12241 -3.56865 0
M  V30 5112 H 493.511 1.49551 -4.6893 0
M  V30 5113 N 495.163 1.55791 0.238111 0
M  V30 5114 C 496.126 1.90239 1.27835 0
M  V30 5115 C 497.126 0.779552 1.4064 0
M  V30 5116 O 498.316 1.04747 1.3919 0
M  V30 5117 C 495.448 2.13859 2.65475 0
M  V30 5118 H 496.641 2.83262 0.985034 0
M  V30 5119 H 494.194 1.48818 0.477799 0
M  V30 5120 H 494.929 1.23334 2.99932 0
M  V30 5121 H 494.714 2.95643 2.57561 0
M  V30 5122 H 496.204 2.41664 3.40571 0
M  V30 5123 N 496.642 -0.504142 1.49319 0
M  V30 5124 C 498.058 -0.835039 1.36012 0
M  V30 5125 C 498.258 -1.97674 0.390808 0
M  V30 5126 O 497.314 -2.51867 -0.178655 0
M  V30 5127 C 498.627 -1.17821 2.76656 0
M  V30 5128 C 500.175 -1.2866 2.85334 0
M  V30 5129 C 500.65 -1.66307 4.26739 0
M  V30 5130 N 502.141 -1.73362 4.29534 0
M  V30 5131 C 502.876 -2.0393 5.35911 0
M  V30 5132 N 502.372 -2.32744 6.52535 0
M  V30 5133 N 504.165 -2.05155 5.23324 0
M  V30 5134 H 496.316 0.248764 2.10938 0
M  V30 5135 H 498.579 0.0486962 0.946748 0
M  V30 5136 H 498.285 -0.412682 3.4927 0
M  V30 5137 H 498.159 -2.12239 3.11825 0
M  V30 5138 H 500.546 -2.04285 2.1296 0
M  V30 5139 H 500.627 -0.323004 2.53752 0
M  V30 5140 H 500.271 -0.91234 4.99639 0
M  V30 5141 H 500.201 -2.63761 4.55782 0
M  V30 5142 H 502.692 -1.53268 3.45424 0
M  V30 5143 H 503.005 -2.55248 7.2943 0
M  V30 5144 H 501.35 -2.30207 6.55767 0
M  V30 5145 H 504.541 -1.82119 4.3122 0
M  V30 5146 H 504.714 -2.28644 6.06322 0
M  V30 5147 N 498.12 -1.38341 -0.754957 0
M  V30 5148 C 499.05 -1.38176 -1.88227 0
M  V30 5149 C 500.031 -0.247873 -1.68284 0
M  V30 5150 O 501.216 -0.45075 -1.88896 0
M  V30 5151 C 498.346 -1.20471 -3.25736 0
M  V30 5152 C 497.3 -2.3105 -3.60278 0
M  V30 5153 C 496.626 -1.98452 -4.96509 0
M  V30 5154 C 497.926 -3.73305 -3.65295 0
M  V30 5155 H 499.62 -2.32512 -1.88622 0
M  V30 5156 H 497.166 -1.1192 -0.906082 0
M  V30 5157 H 499.119 -1.18982 -4.04254 0
M  V30 5158 H 497.843 -0.225965 -3.25817 0
M  V30 5159 H 496.502 -2.31723 -2.84078 0
M  V30 5160 H 496.15 -0.990641 -4.93148 0
M  V30 5161 H 495.85 -2.7251 -5.20588 0
M  V30 5162 H 497.374 -1.98578 -5.77407 0
M  V30 5163 H 498.788 -3.7467 -4.3393 0
M  V30 5164 H 497.185 -4.46557 -4.00883 0
M  V30 5165 H 498.255 -4.05719 -2.65556 0
M  V30 5166 N 499.598 0.982988 -1.23187 0
M  V30 5167 C 500.545 2.07491 -1.01075 0
M  V30 5168 C 501.515 1.65949 0.070905 0
M  V30 5169 O 502.7 1.90629 -0.0806822 0
M  V30 5170 C 499.84 3.39751 -0.605261 0
M  V30 5171 C 498.953 3.94578 -1.75876 0
M  V30 5172 C 498.088 5.15039 -1.3003 0
M  V30 5173 C 497.127 5.62027 -2.42472 0
M  V30 5174 N 496.264 6.73719 -1.97602 0
M  V30 5175 H 501.104 2.25739 -1.9454 0
M  V30 5176 H 498.641 1.10659 -0.969179 0
M  V30 5177 H 500.599 4.15719 -0.351279 0
M  V30 5178 H 499.229 3.21473 0.292382 0
M  V30 5179 H 498.281 3.1539 -2.12681 0
M  V30 5180 H 499.593 4.25422 -2.60418 0
M  V30 5181 H 498.747 5.9833 -1.00429 0
M  V30 5182 H 497.486 4.85843 -0.425216 0
M  V30 5183 H 496.491 4.77318 -2.7285 0
M  V30 5184 H 497.716 5.93244 -3.30512 0
M  V30 5185 H 495.662 6.46287 -1.1247 0
M  V30 5186 H 495.579 7.03934 -2.75705 0
M  V30 5187 H 496.847 7.6049 -1.71098 0
M  V30 5188 N 501.076 1.04316 1.18135 0
M  V30 5189 C 502.039 0.640794 2.2006 0
M  V30 5190 C 503.039 -0.303124 1.57917 0
M  V30 5191 O 504.229 -0.0881855 1.73977 0
M  V30 5192 C 501.361 -0.060148 3.40847 0
M  V30 5193 H 502.554 1.54281 2.57172 0
M  V30 5194 H 500.107 0.836004 1.32063 0
M  V30 5195 H 500.842 -0.975845 3.0927 0
M  V30 5196 H 500.627 0.618319 3.87194 0
M  V30 5197 H 502.117 -0.328082 4.16309 0
M  V30 5198 N 502.554 -1.34406 0.822964 0
M  V30 5199 C 503.517 -2.2783 0.250271 0
M  V30 5200 C 504.517 -1.50288 -0.571854 0
M  V30 5201 O 505.707 -1.69825 -0.387952 0
M  V30 5202 C 502.839 -3.34663 -0.649137 0
M  V30 5203 H 504.032 -2.79992 1.07444 0
M  V30 5204 H 501.585 -1.44539 0.594829 0
M  V30 5205 H 502.32 -2.87714 -1.49637 0
M  V30 5206 H 502.105 -3.92052 -0.0611199 0
M  V30 5207 H 503.595 -4.04349 -1.04363 0
M  V30 5208 N 504.032 -0.577932 -1.46621 0
M  V30 5209 C 504.962 0.145917 -2.33044 0
M  V30 5210 C 505.943 0.888412 -1.45056 0
M  V30 5211 O 507.128 0.864812 -1.73881 0
M  V30 5212 C 504.258 1.16322 -3.27241 0
M  V30 5213 C 503.212 0.535868 -4.24632 0
M  V30 5214 C 502.538 1.65929 -5.08303 0
M  V30 5215 C 503.838 -0.523861 -5.19666 0
M  V30 5216 H 505.532 -0.575636 -2.93814 0
M  V30 5217 H 503.078 -0.278272 -1.41286 0
M  V30 5218 H 505.031 1.67793 -3.86553 0
M  V30 5219 H 503.755 1.91498 -2.64567 0
M  V30 5220 H 502.414 0.0422759 -3.66576 0
M  V30 5221 H 502.062 2.40061 -4.42018 0
M  V30 5222 H 501.762 1.2452 -5.74255 0
M  V30 5223 H 503.286 2.17686 -5.70478 0
M  V30 5224 H 504.7 -0.0944059 -5.73222 0
M  V30 5225 H 503.097 -0.858 -5.93935 0
M  V30 5226 H 504.167 -1.41197 -4.63887 0
M  V30 5227 N 505.51 1.54411 -0.315457 0
M  V30 5228 C 506.735 2.05299 0.294496 0
M  V30 5229 C 507.16 1.19052 1.4563 0
M  V30 5230 O 506.518 0.197804 1.80218 0
M  V30 5231 C 506.566 3.5345 0.714549 0
M  V30 5232 O 505.67 3.70175 1.81781 0
M  V30 5233 H 505.011 0.661743 0.0547019 0
M  V30 5234 H 507.541 1.99327 -0.461508 0
M  V30 5235 H 507.551 3.9557 0.999426 0
M  V30 5236 H 506.226 4.1568 -0.135244 0
M  V30 5237 H 504.803 3.3996 1.53236 0
M  V30 5238 N 506.988 0.0434614 1.5754 0
M  V30 5239 C 507.898 -0.94893 2.14552 0
M  V30 5240 C 508.914 -1.34707 1.10136 0
M  V30 5241 O 510.09 -1.42557 1.42266 0
M  V30 5242 C 507.155 -2.208 2.67298 0
M  V30 5243 C 506.216 -1.86893 3.86484 0
M  V30 5244 C 505.449 -3.06797 4.36705 0
M  V30 5245 O 505.672 -4.19921 3.86034 0
M  V30 5246 O 504.606 -2.8826 5.28384 0
M  V30 5247 H 508.432 -0.494099 2.99654 0
M  V30 5248 H 506.017 -0.177989 1.48336 0
M  V30 5249 H 507.899 -2.94686 3.01228 0
M  V30 5250 H 506.574 -2.65436 1.85272 0
M  V30 5251 H 505.481 -1.10347 3.57455 0
M  V30 5252 H 506.814 -1.47062 4.69716 0
M  V30 5253 N 508.466 -1.55915 -0.229846 0
M  V30 5254 C 509.414 -1.9258 -1.30444 0
M  V30 5255 C 510.408 -0.806839 -1.48951 0
M  V30 5256 O 511.614 -0.991606 -1.50224 0
M  V30 5257 H 507.989 -0.611878 -0.437161 0
M  V30 5258 H 509.96 -2.82264 -0.96797 0
M  V30 5259 C 508.709 -2.25171 -2.6494 0
M  V30 5260 H 508.032 -3.10782 -2.51504 0
M  V30 5261 H 509.472 -2.54716 -3.38963 0
M  V30 5262 C 507.931 -1.07394 -3.19324 0
M  V30 5263 O 508.461 -0.330759 -4.00336 0
M  V30 5264 N 506.667 -0.859984 -2.77584 0
M  V30 5265 H 506.214 -1.46605 -2.11813 0
M  V30 5266 H 506.172 -0.0736671 -3.14314 0
M  V30 5267 N 509.944 0.496216 -1.49584 0
M  V30 5268 C 510.854 1.62352 -1.69349 0
M  V30 5269 C 511.87 1.64184 -0.576147 0
M  V30 5270 O 513.046 1.82517 -0.85144 0
M  V30 5271 C 510.111 2.98698 -1.76013 0
M  V30 5272 C 509.172 3.07454 -2.99617 0
M  V30 5273 C 508.405 4.37296 -3.05953 0
M  V30 5274 O 508.628 5.2637 -2.19752 0
M  V30 5275 O 507.562 4.51124 -3.9846 0
M  V30 5276 H 511.388 1.48606 -2.64859 0
M  V30 5277 H 508.973 0.673022 -1.33382 0
M  V30 5278 H 510.855 3.79725 -1.82721 0
M  V30 5279 H 509.53 3.12696 -0.836828 0
M  V30 5280 H 508.437 2.25597 -2.98424 0
M  V30 5281 H 509.77 2.98385 -3.91443 0
M  V30 5282 N 511.423 1.38739 0.74761 0
M  V30 5283 C 512.355 1.32341 1.87132 0
M  V30 5284 C 513.368 0.234502 1.61102 0
M  V30 5285 O 514.557 0.492516 1.71571 0
M  V30 5286 C 511.657 1.02915 3.22896 0
M  V30 5287 C 510.83 2.22834 3.76383 0
M  V30 5288 C 509.889 1.90059 4.90677 0
M  V30 5289 O 508.915 2.62615 5.04997 0
M  V30 5290 N 510.117 0.859141 5.74107 0
M  V30 5291 H 512.882 2.29175 1.93129 0
M  V30 5292 H 510.443 1.32678 0.927805 0
M  V30 5293 H 512.435 0.79031 3.96908 0
M  V30 5294 H 511.005 0.148572 3.12247 0
M  V30 5295 H 510.225 2.62747 2.93867 0
M  V30 5296 H 511.513 3.02851 4.08851 0
M  V30 5297 H 510.911 0.257564 5.65113 0
M  V30 5298 H 509.468 0.680189 6.48241 0
M  V30 5299 N 512.901 -0.976442 1.23707 0
M  V30 5300 C 513.831 -2.08749 1.04624 0
M  V30 5301 C 514.812 -1.70057 -0.0380956 0
M  V30 5302 O 515.997 -1.93782 0.127308 0
M  V30 5303 C 513.127 -3.41335 0.640902 0
M  V30 5304 C 512.081 -3.93947 1.67302 0
M  V30 5305 C 511.407 -5.22774 1.12301 0
M  V30 5306 C 512.707 -4.22769 3.06697 0
M  V30 5307 H 514.401 -2.24972 1.97555 0
M  V30 5308 H 511.947 -1.08108 0.951247 0
M  V30 5309 H 513.9 -4.18489 0.494434 0
M  V30 5310 H 512.624 -3.24988 -0.324099 0
M  V30 5311 H 511.283 -3.18941 1.80755 0
M  V30 5312 H 510.931 -5.0278 0.148877 0
M  V30 5313 H 510.631 -5.58942 1.81267 0
M  V30 5314 H 512.155 -6.02546 0.988479 0
M  V30 5315 H 513.569 -4.90659 2.96524 0
M  V30 5316 H 511.966 -4.70147 3.72937 0
M  V30 5317 H 513.036 -3.29885 3.55392 0
M  V30 5318 N 514.379 -1.04941 -1.1758 0
M  V30 5319 C 515.326 -0.648155 -2.21512 0
M  V30 5320 C 516.296 0.348431 -1.62404 0
M  V30 5321 O 517.481 0.240419 -1.89279 0
M  V30 5322 C 514.621 -0.0264291 -3.4509 0
M  V30 5323 C 513.734 -1.07154 -4.185 0
M  V30 5324 C 512.869 -0.417403 -5.29558 0
M  V30 5325 C 511.908 -1.447 -5.94751 0
M  V30 5326 N 511.045 -0.817203 -6.97328 0
M  V30 5327 H 515.885 -1.53891 -2.55189 0
M  V30 5328 H 513.422 -0.769699 -1.25356 0
M  V30 5329 H 515.38 0.351456 -4.15717 0
M  V30 5330 H 514.01 0.827802 -3.12005 0
M  V30 5331 H 513.062 -1.56728 -3.46613 0
M  V30 5332 H 514.374 -1.8532 -4.63096 0
M  V30 5333 H 513.528 0.0142061 -6.06698 0
M  V30 5334 H 512.267 0.396265 -4.86087 0
M  V30 5335 H 511.272 -1.88865 -5.16343 0
M  V30 5336 H 512.497 -2.26252 -6.40302 0
M  V30 5337 H 510.443 -0.0239995 -6.55996 0
M  V30 5338 H 510.36 -1.53644 -7.40223 0
M  V30 5339 H 511.628 -0.410283 -7.7842 0
M  V30 5340 N 515.857 1.33968 -0.830081 0
M  V30 5341 C 516.804 2.29387 -0.255008 0
M  V30 5342 C 517.774 1.53923 0.624243 0
M  V30 5343 O 518.959 1.82262 0.564372 0
M  V30 5344 C 516.099 3.4034 0.571209 0
M  V30 5345 C 515.212 4.30729 -0.331083 0
M  V30 5346 C 514.347 5.2879 0.505389 0
M  V30 5347 C 513.386 6.10819 -0.395843 0
M  V30 5348 N 512.523 7.00948 0.401979 0
M  V30 5349 H 517.363 2.77972 -1.07404 0
M  V30 5350 H 514.9 1.36785 -0.541133 0
M  V30 5351 H 516.858 4.03361 1.06562 0
M  V30 5352 H 515.488 2.9297 1.35529 0
M  V30 5353 H 514.54 3.68507 -0.943759 0
M  V30 5354 H 515.852 4.88181 -1.02377 0
M  V30 5355 H 515.006 5.97297 1.06399 0
M  V30 5356 H 513.745 4.71894 1.23155 0
M  V30 5357 H 512.75 5.41238 -0.966529 0
M  V30 5358 H 513.975 6.69797 -1.12023 0
M  V30 5359 H 511.921 6.46512 1.11168 0
M  V30 5360 H 511.838 7.55643 -0.232167 0
M  V30 5361 H 513.106 7.73774 0.943102 0
M  V30 5362 N 517.335 0.585699 1.46312 0
M  V30 5363 C 518.245 -0.148236 2.34131 0
M  V30 5364 C 519.261 -0.882972 1.49932 0
M  V30 5365 O 520.437 -0.845484 1.82794 0
M  V30 5366 C 517.502 -1.14714 3.27172 0
M  V30 5367 C 516.563 -0.416746 4.27272 0
M  V30 5368 C 515.796 -1.36806 5.15868 0
M  V30 5369 O 516.019 -2.60475 5.07454 0
M  V30 5370 O 514.953 -0.877018 5.95476 0
M  V30 5371 H 518.779 0.572882 2.98248 0
M  V30 5372 H 516.364 0.346082 1.45336 0
M  V30 5373 H 518.246 -1.72303 3.84564 0
M  V30 5374 H 516.921 -1.84967 2.65648 0
M  V30 5375 H 515.828 0.201061 3.73559 0
M  V30 5376 H 517.161 0.244872 4.9159 0
M  V30 5377 N 518.813 -1.54241 0.323641 0
M  V30 5378 C 519.761 -2.25813 -0.557804 0
M  V30 5379 C 520.755 -1.27225 -1.11849 0
M  V30 5380 O 521.961 -1.45001 -1.06652 0
M  V30 5381 H 518.336 -0.72532 -0.198532 0
M  V30 5382 H 520.307 -2.98322 0.0681112 0
M  V30 5383 C 519.056 -3.02913 -1.70701 0
M  V30 5384 H 518.379 -3.78593 -1.28482 0
M  V30 5385 H 519.819 -3.56238 -2.29935 0
M  V30 5386 C 518.278 -2.11217 -2.62467 0
M  V30 5387 O 518.808 -1.69508 -3.64184 0
M  V30 5388 N 517.014 -1.76704 -2.30703 0
M  V30 5389 H 516.561 -2.1082 -1.48029 0
M  V30 5390 H 516.519 -1.15631 -2.92364 0
M  V30 5391 N 520.291 -0.0518155 -1.57515 0
M  V30 5392 C 521.539 0.620595 -1.92336 0
M  V30 5393 C 521.86 1.71345 -0.930907 0
M  V30 5394 O 521.13 1.95885 0.0241341 0
M  V30 5395 H 519.71 0.232226 -0.709986 0
M  V30 5396 H 522.372 -0.104969 -1.94617 0
M  V30 5397 H 521.468 1.05879 -2.93592 0
M  V30 5398 N 521.769 1.56035 0.221574 0
M  V30 5399 C 522.997 1.8313 0.962864 0
M  V30 5400 C 523.412 0.630934 1.77946 0
M  V30 5401 O 522.769 -0.400519 1.78051 0
M  V30 5402 C 522.82 3.08742 1.88045 0
M  V30 5403 O 522.541 4.24147 1.09686 0
M  V30 5404 C 524.042 3.48824 2.73563 0
M  V30 5405 H 521.262 0.608775 0.282194 0
M  V30 5406 H 523.806 2.03124 0.23681 0
M  V30 5407 H 521.961 2.90723 2.56045 0
M  V30 5408 H 522.375 4.95505 1.71974 0
M  V30 5409 H 523.849 4.39752 3.3365 0
M  V30 5410 H 524.326 2.70575 3.45956 0
M  V30 5411 H 524.932 3.69282 2.10976 0
M  V30 5412 N 523.247 -0.488276 1.49845 0
M  V30 5413 C 524.177 -1.59675 1.70371 0
M  V30 5414 C 525.158 -1.60878 0.552473 0
M  V30 5415 O 526.343 -1.77417 0.78973 0
M  V30 5416 C 523.473 -2.98098 1.782 0
M  V30 5417 C 522.427 -3.11761 2.93239 0
M  V30 5418 C 521.753 -4.51661 2.86193 0
M  V30 5419 C 523.053 -2.90589 4.33999 0
M  V30 5420 H 524.747 -1.42752 2.63177 0
M  V30 5421 H 522.293 -0.685317 1.26647 0
M  V30 5422 H 524.246 -3.75555 1.91144 0
M  V30 5423 H 522.97 -3.16138 0.820018 0
M  V30 5424 H 521.629 -2.36732 2.79917 0
M  V30 5425 H 521.277 -4.66595 1.87877 0
M  V30 5426 H 520.977 -4.61742 3.63412 0
M  V30 5427 H 522.501 -5.31162 3.01163 0
M  V30 5428 H 523.915 -3.57807 4.47936 0
M  V30 5429 H 522.312 -3.1213 5.12538 0
M  V30 5430 H 523.382 -1.86595 4.4756 0
M  V30 5431 N 524.725 -1.39134 -0.740242 0
M  V30 5432 C 525.672 -1.37434 -1.8542 0
M  V30 5433 C 526.642 -0.234822 -1.64432 0
M  V30 5434 O 527.827 -0.429125 -1.85912 0
M  V30 5435 C 524.967 -1.21844 -3.22875 0
M  V30 5436 C 524.08 -2.45296 -3.55603 0
M  V30 5437 C 523.215 -2.22334 -4.82432 0
M  V30 5438 C 522.254 -3.41488 -5.07988 0
M  V30 5439 N 521.391 -3.17877 -6.26018 0
M  V30 5440 H 526.231 -2.3266 -1.86207 0
M  V30 5441 H 523.768 -1.15578 -0.909946 0
M  V30 5442 H 525.726 -1.10818 -4.02213 0
M  V30 5443 H 524.356 -0.3025 -3.21379 0
M  V30 5444 H 523.408 -2.66945 -2.71006 0
M  V30 5445 H 524.72 -3.34063 -3.7041 0
M  V30 5446 H 523.874 -2.0852 -5.69741 0
M  V30 5447 H 522.613 -1.30954 -4.6979 0
M  V30 5448 H 521.618 -3.55807 -4.19144 0
M  V30 5449 H 522.843 -4.33763 -5.22519 0
M  V30 5450 H 520.789 -2.29156 -6.14673 0
M  V30 5451 H 520.706 -4.00198 -6.41387 0
M  V30 5452 H 521.974 -3.07746 -7.16179 0
M  V30 5453 N 526.204 0.969867 -1.24223 0
M  V30 5454 C 527.62 1.23809 -1.00716 0
M  V30 5455 C 527.82 1.99469 0.285358 0
M  V30 5456 O 526.876 2.31764 1.00207 0
M  V30 5457 C 528.189 2.02734 -2.2208 0
M  V30 5458 C 529.737 2.15834 -2.26681 0
M  V30 5459 C 530.212 2.98154 -3.47661 0
M  V30 5460 N 531.703 3.05737 -3.47964 0
M  V30 5461 C 532.438 3.69785 -4.38231 0
M  V30 5462 N 531.934 4.35569 -5.3875 0
M  V30 5463 N 533.727 3.66775 -4.25949 0
M  V30 5464 H 525.878 0.463294 -2.07286 0
M  V30 5465 H 528.141 0.267348 -0.909521 0
M  V30 5466 H 527.847 1.54524 -3.15935 0
M  V30 5467 H 527.721 3.0347 -2.24021 0
M  V30 5468 H 530.108 2.63248 -1.33359 0
M  V30 5469 H 530.189 1.14453 -2.28767 0
M  V30 5470 H 529.833 2.51435 -4.41297 0
M  V30 5471 H 529.763 3.99729 -3.42818 0
M  V30 5472 H 532.254 2.58941 -2.75242 0
M  V30 5473 H 532.567 4.82251 -6.03866 0
M  V30 5474 H 530.912 4.34244 -5.42639 0
M  V30 5475 H 534.103 3.14558 -3.46657 0
M  V30 5476 H 534.276 4.16407 -4.96497 0
M  V30 5477 N 527.682 1.05563 1.17022 0
M  V30 5478 C 528.614 0.617888 2.20714 0
M  V30 5479 C 529.627 -0.320303 1.59618 0
M  V30 5480 O 530.816 -0.112449 1.78145 0
M  V30 5481 C 527.916 -0.115333 3.38704 0
M  V30 5482 C 527.089 0.834493 4.29366 0
M  V30 5483 C 526.148 0.141855 5.26009 0
M  V30 5484 O 525.174 0.777151 5.6387 0
M  V30 5485 N 526.376 -1.11934 5.69606 0
M  V30 5486 H 529.141 1.50981 2.58892 0
M  V30 5487 H 526.702 0.938008 1.31958 0
M  V30 5488 H 528.694 -0.588918 4.00392 0
M  V30 5489 H 527.264 -0.908967 2.99093 0
M  V30 5490 H 526.484 1.48762 3.65053 0
M  V30 5491 H 527.772 1.4791 4.86827 0
M  V30 5492 H 527.17 -1.65574 5.40927 0
M  V30 5493 H 525.727 -1.53692 6.33421 0
M  V30 5494 N 529.16 -1.33526 0.837174 0
M  V30 5495 C 530.09 -2.31764 0.284206 0
M  V30 5496 C 531.071 -1.58896 -0.607142 0
M  V30 5497 O 532.256 -1.86798 -0.531047 0
M  V30 5498 C 529.386 -3.43029 -0.542962 0
M  V30 5499 C 528.34 -4.27255 0.252451 0
M  V30 5500 C 527.666 -5.3012 -0.69836 0
M  V30 5501 C 528.966 -5.01229 1.46858 0
M  V30 5502 H 530.66 -2.78262 1.10502 0
M  V30 5503 H 528.206 -1.3378 0.532812 0
M  V30 5504 H 530.159 -4.1078 -0.940096 0
M  V30 5505 H 528.883 -2.95216 -1.39697 0
M  V30 5506 H 527.542 -3.61127 0.631124 0
M  V30 5507 H 527.19 -4.78564 -1.54872 0
M  V30 5508 H 526.89 -5.87353 -0.170274 0
M  V30 5509 H 528.414 -6.00737 -1.09305 0
M  V30 5510 H 529.828 -5.61756 1.14469 0
M  V30 5511 H 528.225 -5.68104 1.93333 0
M  V30 5512 H 529.295 -4.301 2.23924 0
M  V30 5513 N 530.638 -0.59345 -1.46 0
M  V30 5514 C 531.915 -0.0157933 -1.95594 0
M  V30 5515 C 532.295 1.44807 -1.53604 0
M  V30 5516 O 531.643 2.14342 -0.791824 0
M  V30 5517 C 531.853 -0.199081 -3.48432 0
M  V30 5518 C 533.201 -0.0724943 -4.24538 0
M  V30 5519 O 534.225 -0.128469 -3.55968 0
M  V30 5520 O 533.084 0.0542426 -5.46473 0
M  V30 5521 H 530.178 0.043749 -0.825842 0
M  V30 5522 H 532.724 -0.662522 -1.56233 0
M  V30 5523 H 531.496 -1.21631 -3.71916 0
M  V30 5524 H 531.119 0.483576 -3.94648 0
M  V30 5525 N 532.116 1.54067 -0.331816 0
M  V30 5526 C 533.026 2.28322 0.539104 0
M  V30 5527 C 534.042 1.32985 1.1221 0
M  V30 5528 O 535.218 1.6601 1.1403 0
M  V30 5529 C 532.283 3.03277 1.68 0
M  V30 5530 C 531.344 4.14216 1.12798 0
M  V30 5531 C 530.577 4.85588 2.2145 0
M  V30 5532 O 530.8 4.56536 3.41952 0
M  V30 5533 O 529.734 5.72309 1.86404 0
M  V30 5534 H 533.56 3.03632 -0.0641692 0
M  V30 5535 H 531.145 1.49083 -0.0972365 0
M  V30 5536 H 533.027 3.50189 2.34405 0
M  V30 5537 H 531.702 2.30834 2.2693 0
M  V30 5538 H 530.609 3.71635 0.428782 0
M  V30 5539 H 531.942 4.88727 0.583698 0
M  V30 5540 N 533.594 0.0601682 1.57485 0
M  V30 5541 C 534.84 -0.612501 1.93329 0
M  V30 5542 C 535.173 -1.6996 0.939526 0
M  V30 5543 O 534.448 -1.94472 -0.0330957 0
M  V30 5544 C 534.731 -1.20025 3.39508 0
M  V30 5545 C 534.584 -0.12059 4.49638 0
M  V30 5546 C 535.903 -2.10923 3.86264 0
M  V30 5547 H 533.022 -0.221185 0.703027 0
M  V30 5548 H 535.664 0.123768 1.89596 0
M  V30 5549 H 533.814 -1.82774 3.42821 0
M  V30 5550 H 535.486 0.51185 4.58452 0
M  V30 5551 H 533.729 0.550251 4.30296 0
M  V30 5552 H 534.4 -0.572019 5.49028 0
M  V30 5553 H 536.876 -1.58124 3.84884 0
M  V30 5554 H 535.752 -2.48987 4.8918 0
M  V30 5555 H 536.013 -3.01292 3.23536 0
M  V30 5556 N 535.072 -1.5615 -0.213296 0
M  V30 5557 C 536.318 -1.79812 -0.937849 0
M  V30 5558 C 536.651 -0.631201 -1.83656 0
M  V30 5559 O 535.926 0.369165 -1.90964 0
M  V30 5560 C 536.209 -3.13613 -1.76972 0
M  V30 5561 C 536.062 -4.40766 -0.89695 0
M  V30 5562 C 537.381 -3.43931 -2.7459 0
M  V30 5563 H 534.5 -0.654138 -0.339518 0
M  V30 5564 H 537.142 -1.88877 -0.20623 0
M  V30 5565 H 535.292 -3.06015 -2.39347 0
M  V30 5566 H 536.964 -4.60392 -0.289306 0
M  V30 5567 H 535.207 -4.33326 -0.202756 0
M  V30 5568 H 535.878 -5.30843 -1.51358 0
M  V30 5569 H 538.354 -3.5171 -2.22349 0
M  V30 5570 H 537.23 -4.38706 -3.29891 0
M  V30 5571 H 537.491 -2.6651 -3.52739 0
M  V30 5572 N 536.55 0.480323 -1.50102 0
M  V30 5573 C 537.775 1.26126 -1.64642 0
M  V30 5574 C 538.2 1.85257 -0.325823 0
M  V30 5575 O 537.558 1.66854 0.709194 0
M  V30 5576 C 537.606 2.35243 -2.73301 0
M  V30 5577 O 536.71 3.39646 -2.33911 0
M  V30 5578 H 536.051 0.371463 -0.550374 0
M  V30 5579 H 538.581 0.572696 -1.96421 0
M  V30 5580 H 538.591 2.80695 -2.96098 0
M  V30 5581 H 537.266 1.91574 -3.6915 0
M  V30 5582 H 535.843 2.99969 -2.21525 0
M  V30 5583 N 538.028 1.39524 0.732853 0
M  V30 5584 C 538.938 1.40695 1.87729 0
M  V30 5585 C 539.954 0.301496 1.71368 0
M  V30 5586 O 541.13 0.543313 1.93933 0
M  V30 5587 C 538.195 1.25098 3.23344 0
M  V30 5588 C 537.256 2.45634 3.52083 0
M  V30 5589 C 536.489 2.30772 4.81228 0
M  V30 5590 O 536.712 1.31233 5.55098 0
M  V30 5591 O 535.646 3.19799 5.09914 0
M  V30 5592 H 539.472 2.37168 1.89697 0
M  V30 5593 H 537.057 1.20663 0.880959 0
M  V30 5594 H 538.939 1.18541 4.04383 0
M  V30 5595 H 537.614 0.317209 3.22142 0
M  V30 5596 H 536.521 2.57767 2.71122 0
M  V30 5597 H 537.854 3.37712 3.58066 0
M  V30 5598 N 539.506 -0.963266 1.24736 0
M  V30 5599 C 540.454 -2.07985 1.04139 0
M  V30 5600 C 541.448 -1.69381 -0.0250556 0
M  V30 5601 O 542.654 -1.79531 0.129863 0
M  V30 5602 H 539.029 -0.680627 0.319768 0
M  V30 5603 H 541 -2.22517 1.98818 0
M  V30 5604 C 539.749 -3.4123 0.667615 0
M  V30 5605 H 539.072 -3.71397 1.48 0
M  V30 5606 H 540.512 -4.20244 0.563136 0
M  V30 5607 C 538.971 -3.3104 -0.625647 0
M  V30 5608 O 539.501 -3.65334 -1.67016 0
M  V30 5609 N 537.707 -2.84168 -0.608033 0
M  V30 5610 H 537.254 -2.56458 0.242323 0
M  V30 5611 H 537.212 -2.77732 -1.47352 0
M  V30 5612 N 540.985 -1.06182 -1.16461 0
M  V30 5613 C 541.917 -0.629584 -2.20383 0
M  V30 5614 C 542.93 0.311834 -1.59786 0
M  V30 5615 O 544.119 0.103 -1.78203 0
M  V30 5616 C 541.219 0.0973695 -3.3876 0
M  V30 5617 C 540.392 -0.857252 -4.28917 0
M  V30 5618 C 539.451 -0.169749 -5.25926 0
M  V30 5619 O 538.477 -0.807044 -5.6345 0
M  V30 5620 N 539.679 1.08911 -5.70192 0
M  V30 5621 H 542.444 -1.52352 -2.58087 0
M  V30 5622 H 540.005 -0.944993 -1.31459 0
M  V30 5623 H 541.997 0.567676 -4.00699 0
M  V30 5624 H 540.567 0.893093 -2.99571 0
M  V30 5625 H 539.787 -1.50696 -3.64259 0
M  V30 5626 H 541.075 -1.50489 -4.86035 0
M  V30 5627 H 540.473 1.62703 -5.41797 0
M  V30 5628 H 539.03 1.50331 -6.34227 0
M  V30 5629 N 542.463 1.3308 -0.844243 0
M  V30 5630 C 543.879 1.50447 -0.532729 0
M  V30 5631 C 544.079 1.78292 0.938837 0
M  V30 5632 O 543.135 1.84635 1.72239 0
M  V30 5633 C 544.448 2.65555 -1.41072 0
M  V30 5634 C 545.996 2.7944 -1.41005 0
M  V30 5635 C 546.471 3.97616 -2.27301 0
M  V30 5636 N 547.962 4.0486 -2.2504 0
M  V30 5637 C 548.697 4.95508 -2.88547 0
M  V30 5638 N 548.193 5.91236 -3.61126 0
M  V30 5639 N 549.986 4.88548 -2.77989 0
M  V30 5640 H 542.137 1.13269 -1.79677 0
M  V30 5641 H 544.4 0.55734 -0.766861 0
M  V30 5642 H 544.106 2.51675 -2.45668 0
M  V30 5643 H 543.98 3.61089 -1.09061 0
M  V30 5644 H 546.367 2.92749 -0.371784 0
M  V30 5645 H 546.448 1.8465 -1.77026 0
M  V30 5646 H 546.092 3.85066 -3.3119 0
M  V30 5647 H 546.022 4.91661 -1.88619 0
M  V30 5648 H 548.513 3.36353 -1.72264 0
M  V30 5649 H 548.826 6.57079 -4.06776 0
M  V30 5650 H 547.171 5.91295 -3.65234 0
M  V30 5651 H 550.362 4.12729 -2.20846 0
M  V30 5652 H 550.535 5.58994 -3.27765 0
M  V30 5653 N 543.941 0.601185 1.45683 0
M  V30 5654 C 544.871 -0.108824 2.33246 0
M  V30 5655 C 545.852 -0.865223 1.46451 0
M  V30 5656 O 547.037 -0.83704 1.75235 0
M  V30 5657 C 544.167 -1.11101 3.2905 0
M  V30 5658 C 543.121 -0.468244 4.25431 0
M  V30 5659 C 542.447 -1.57822 5.10878 0
M  V30 5660 C 543.747 0.606469 5.18767 0
M  V30 5661 H 545.441 0.622306 2.92861 0
M  V30 5662 H 542.987 0.300714 1.40825 0
M  V30 5663 H 544.94 -1.61622 3.89174 0
M  V30 5664 H 543.664 -1.87265 2.67581 0
M  V30 5665 H 542.323 0.0160484 3.66596 0
M  V30 5666 H 541.971 -2.32998 4.45781 0
M  V30 5667 H 541.671 -1.15369 5.76163 0
M  V30 5668 H 543.195 -2.08583 5.73869 0
M  V30 5669 H 544.609 0.185589 5.73 0
M  V30 5670 H 543.006 0.952381 5.92494 0
M  V30 5671 H 544.076 1.48559 4.61582 0
M  V30 5672 N 545.419 -1.53889 0.339982 0
M  V30 5673 C 546.366 -2.24902 -0.518452 0
M  V30 5674 C 547.336 -1.24593 -1.09844 0
M  V30 5675 O 548.521 -1.53317 -1.13572 0
M  V30 5676 C 545.661 -3.02262 -1.66529 0
M  V30 5677 C 544.774 -4.17418 -1.11295 0
M  V30 5678 C 543.909 -4.82273 -2.2268 0
M  V30 5679 C 542.948 -5.89503 -1.6478 0
M  V30 5680 N 542.085 -6.48153 -2.69893 0
M  V30 5681 H 546.925 -2.97853 0.0936579 0
M  V30 5682 H 544.462 -1.46986 0.0579924 0
M  V30 5683 H 546.42 -3.45371 -2.3404 0
M  V30 5684 H 545.05 -2.31614 -2.24844 0
M  V30 5685 H 544.102 -3.78976 -0.328886 0
M  V30 5686 H 545.414 -4.94554 -0.649414 0
M  V30 5687 H 544.568 -5.28435 -2.98063 0
M  V30 5688 H 543.307 -4.04552 -2.72376 0
M  V30 5689 H 542.312 -5.42728 -0.879004 0
M  V30 5690 H 543.537 -6.6913 -1.1594 0
M  V30 5691 H 541.483 -5.73298 -3.1885 0
M  V30 5692 H 541.4 -7.20752 -2.28151 0
M  V30 5693 H 542.668 -6.98968 -3.45056 0
M  V30 5694 N 546.897 -0.0685191 -1.57451 0
M  V30 5695 C 548.143 0.602239 -1.93652 0
M  V30 5696 C 548.476 1.6946 -0.948526 0
M  V30 5697 O 547.751 1.94487 0.022782 0
M  V30 5698 C 548.034 1.18223 -3.4014 0
M  V30 5699 C 547.887 0.0967431 -4.49696 0
M  V30 5700 C 549.206 2.08872 -3.87377 0
M  V30 5701 H 546.325 0.217453 -0.70419 0
M  V30 5702 H 548.967 -0.133821 -1.89528 0
M  V30 5703 H 547.117 1.80953 -3.43785 0
M  V30 5704 H 548.789 -0.536155 -4.58174 0
M  V30 5705 H 547.032 -0.573063 -4.29998 0
M  V30 5706 H 547.703 0.542894 -5.49324 0
M  V30 5707 H 550.179 1.56081 -3.85717 0
M  V30 5708 H 549.055 2.46389 -4.90493 0
M  V30 5709 H 549.316 2.99572 -3.25129 0
M  V30 5710 N 548.375 1.56261 0.205012 0
M  V30 5711 C 549.786 1.70056 0.770574 0
M  V30 5712 C 550.137 0.673398 1.84282 0
M  V30 5713 O 549.262 -0.172196 2.15714 0
M  V30 5714 C 549.857 3.08316 1.40451 0
M  V30 5715 C 548.416 3.2391 1.91727 0
M  V30 5716 C 547.563 2.66001 0.783516 0
M  V30 5717 H 550.514 1.58688 -0.019911 0
M  V30 5718 H 550.535 3.05094 2.27371 0
M  V30 5719 H 550.047 3.83053 0.623882 0
M  V30 5720 H 548.148 2.54072 2.7254 0
M  V30 5721 H 548.261 4.3131 2.08588 0
M  V30 5722 H 546.625 2.24915 1.19521 0
M  V30 5723 H 547.408 3.43297 0.0152883 0
M  V30 5724 N 549.853 -0.472356 1.50355 0
M  V30 5725 C 551.078 -1.25251 1.65309 0
M  V30 5726 C 551.503 -1.85081 0.335643 0
M  V30 5727 O 550.861 -1.67227 -0.700335 0
M  V30 5728 C 550.909 -2.3379 2.74544 0
M  V30 5729 O 550.013 -3.38401 2.35709 0
M  V30 5730 H 549.354 -0.368539 0.552336 0
M  V30 5731 H 551.884 -0.562271 1.96722 0
M  V30 5732 H 551.894 -2.79121 2.97583 0
M  V30 5733 H 550.569 -1.89614 3.70161 0
M  V30 5734 H 549.146 -2.9879 2.23112 0
M  V30 5735 N 551.331 -1.39911 -0.725443 0
M  V30 5736 C 552.742 -1.33599 -1.30415 0
M  V30 5737 C 553.093 -0.00481792 -1.96199 0
M  V30 5738 O 552.218 0.897275 -1.96921 0
M  V30 5739 C 552.813 -2.41965 -2.37146 0
M  V30 5740 C 551.372 -2.39144 -2.90667 0
M  V30 5741 C 550.519 -2.23355 -1.64341 0
M  V30 5742 H 553.47 -1.4986 -0.522267 0
M  V30 5743 H 553.491 -2.09304 -3.17761 0
M  V30 5744 H 553.003 -3.38837 -1.89238 0
M  V30 5745 H 551.104 -1.4594 -3.4283 0
M  V30 5746 H 551.217 -3.34362 -3.43131 0
M  V30 5747 H 549.581 -1.70696 -1.89037 0
M  V30 5748 H 550.364 -3.2221 -1.18471 0
M  V30 5749 N 552.809 0.956637 -1.25245 0
M  V30 5750 C 553.756 2.053 -1.05454 0
M  V30 5751 C 554.726 1.66062 0.0356889 0
M  V30 5752 O 555.911 1.90415 -0.121099 0
M  V30 5753 C 553.051 3.38391 -0.677191 0
M  V30 5754 C 552.164 3.90758 -1.84206 0
M  V30 5755 C 551.299 5.12165 -1.40926 0
M  V30 5756 C 550.338 5.56757 -2.54338 0
M  V30 5757 N 549.475 6.69376 -2.11848 0
M  V30 5758 H 554.315 2.21562 -1.99284 0
M  V30 5759 H 551.852 1.08578 -0.992434 0
M  V30 5760 H 553.81 4.1488 -0.43938 0
M  V30 5761 H 552.44 3.22021 0.224127 0
M  V30 5762 H 551.492 3.10808 -2.19323 0
M  V30 5763 H 552.804 4.19802 -2.69383 0
M  V30 5764 H 551.958 5.96065 -1.13098 0
M  V30 5765 H 550.697 4.84832 -0.528175 0
M  V30 5766 H 549.702 4.71423 -2.82913 0
M  V30 5767 H 550.927 5.861 -3.43022 0
M  V30 5768 H 548.873 6.43756 -1.26153 0
M  V30 5769 H 548.79 6.97927 -2.90574 0
M  V30 5770 H 550.058 7.5669 -1.87191 0
M  V30 5771 N 554.287 1.06798 1.15896 0
M  V30 5772 C 555.703 0.792423 1.38538 0
M  V30 5773 C 555.903 -0.60592 1.92174 0
M  V30 5774 O 554.959 -1.36561 2.12385 0
M  V30 5775 C 556.272 1.86157 2.36149 0
M  V30 5776 C 557.82 1.88567 2.49823 0
M  V30 5777 C 558.295 2.9455 3.5072 0
M  V30 5778 N 559.786 2.93616 3.58251 0
M  V30 5779 C 560.521 3.72267 4.36125 0
M  V30 5780 N 560.017 4.60751 5.17379 0
M  V30 5781 N 561.81 3.60637 4.31158 0
M  V30 5782 H 553.961 1.96993 0.794198 0
M  V30 5783 H 556.224 0.853942 0.411688 0
M  V30 5784 H 555.93 2.86603 2.03843 0
M  V30 5785 H 555.804 1.71692 3.3586 0
M  V30 5786 H 558.191 0.887765 2.8143 0
M  V30 5787 H 558.272 2.0711 1.5013 0
M  V30 5788 H 557.916 3.94537 3.19849 0
M  V30 5789 H 557.846 2.73255 4.50155 0
M  V30 5790 H 560.337 2.29472 3.00252 0
M  V30 5791 H 560.65 5.17408 5.74028 0
M  V30 5792 H 558.995 4.64803 5.16704 0
M  V30 5793 H 562.186 2.90892 3.66742 0
M  V30 5794 H 562.359 4.22176 4.91601 0
M  V30 5795 N 555.766 -1.3263 0.851289 0
M  V30 5796 C 557.182 -1.50162 0.5407 0
M  V30 5797 C 557.382 -1.78788 -0.929369 0
M  V30 5798 O 556.438 -1.85545 -1.71258 0
M  V30 5799 C 557.751 -2.64803 1.42478 0
M  V30 5800 C 559.299 -2.78688 1.42485 0
M  V30 5801 C 559.774 -3.96405 2.29407 0
M  V30 5802 N 561.265 -4.0366 2.27184 0
M  V30 5803 C 562 -4.93971 2.9117 0
M  V30 5804 N 561.496 -5.89313 3.64256 0
M  V30 5805 N 563.289 -4.87066 2.80576 0
M  V30 5806 H 555.44 -1.12315 1.80275 0
M  V30 5807 H 557.703 -0.553266 0.769806 0
M  V30 5808 H 557.409 -2.50368 2.46999 0
M  V30 5809 H 557.283 -3.60506 1.10974 0
M  V30 5810 H 559.67 -2.92547 0.387304 0
M  V30 5811 H 559.751 -1.83708 1.78002 0
M  V30 5812 H 559.395 -3.83304 3.33228 0
M  V30 5813 H 559.325 -4.90654 1.91224 0
M  V30 5814 H 561.816 -3.35435 1.74045 0
M  V30 5815 H 562.129 -6.54913 4.10255 0
M  V30 5816 H 560.474 -5.8935 3.68364 0
M  V30 5817 H 563.665 -4.11552 2.23031 0
M  V30 5818 H 563.838 -5.57248 3.30725 0
M  V30 5819 N 557.244 -0.608902 -1.45362 0
M  V30 5820 C 558.49 -0.104762 -2.02529 0
M  V30 5821 C 558.823 1.26191 -1.47613 0
M  V30 5822 O 558.098 1.8327 -0.65134 0
M  V30 5823 C 558.381 -0.0672661 -3.60037 0
M  V30 5824 C 558.234 -1.4647 -4.25284 0
M  V30 5825 C 559.553 0.619877 -4.35713 0
M  V30 5826 H 556.672 -0.0395438 -0.735938 0
M  V30 5827 H 559.314 -0.781126 -1.73201 0
M  V30 5828 H 557.464 0.50871 -3.85155 0
M  V30 5829 H 559.136 -2.08785 -4.11347 0
M  V30 5830 H 557.379 -2.02502 -3.83634 0
M  V30 5831 H 558.05 -1.39069 -5.34195 0
M  V30 5832 H 560.526 0.130297 -4.15896 0
M  V30 5833 H 559.402 0.615224 -5.45441 0
M  V30 5834 H 559.663 1.68621 -4.0868 0
M  V30 5835 N 558.722 1.53707 -0.348139 0
M  V30 5836 C 559.968 2.01286 0.247332 0
M  V30 5837 C 560.301 1.23546 1.49834 0
M  V30 5838 O 559.576 0.324331 1.91777 0
M  V30 5839 C 559.859 3.55768 0.556858 0
M  V30 5840 C 559.712 4.44216 -0.706564 0
M  V30 5841 C 561.031 4.1841 1.3646 0
M  V30 5842 H 558.15 0.731677 0.0884201 0
M  V30 5843 H 560.792 1.84106 -0.469584 0
M  V30 5844 H 558.942 3.70539 1.16761 0
M  V30 5845 H 560.614 4.41274 -1.34444 0
M  V30 5846 H 558.857 4.12892 -1.33052 0
M  V30 5847 H 559.528 5.50202 -0.445186 0
M  V30 5848 H 562.004 4.07365 0.848113 0
M  V30 5849 H 560.88 5.26563 1.54992 0
M  V30 5850 H 561.141 3.7333 2.36805 0
M  V30 5851 N 560.2 0.0768682 1.57412 0
M  V30 5852 C 561.44 -0.594676 1.95558 0
M  V30 5853 C 561.804 -1.66469 0.956658 0
M  V30 5854 O 563.005 -2.39215 1.22595 0
M  V30 5855 C 561.276 -1.15206 3.38323 0
M  V30 5856 S 562.835 -1.83803 3.9845 0
M  V30 5857 H 559.653 -0.194579 0.683857 0
M  V30 5858 H 562.255 0.151933 1.94909 0
M  V30 5859 H 560.959 -0.36153 4.08805 0
M  V30 5860 H 560.49 -1.93491 3.42527 0
M  V30 5861 H 562.505 -3.12087 3.85767 0
M  V30 5862 N 561.678 -1.56367 -0.196722 0
M  V30 5863 C 562.924 -1.80796 -0.918725 0
M  V30 5864 C 563.257 -0.650645 -1.82976 0
M  V30 5865 O 562.532 0.348889 -1.91345 0
M  V30 5866 C 562.815 -3.15472 -1.73636 0
M  V30 5867 C 562.668 -4.41693 -0.85015 0
M  V30 5868 C 563.987 -3.46824 -2.70927 0
M  V30 5869 H 561.106 -0.657702 -0.332561 0
M  V30 5870 H 563.748 -1.89086 -0.186186 0
M  V30 5871 H 561.898 -3.08536 -2.36088 0
M  V30 5872 H 563.57 -4.60673 -0.240459 0
M  V30 5873 H 561.813 -4.33517 -0.156785 0
M  V30 5874 H 562.484 -5.32419 -1.45719 0
M  V30 5875 H 564.96 -3.54049 -2.18607 0
M  V30 5876 H 563.836 -4.4218 -3.25219 0
M  V30 5877 H 564.097 -2.70236 -3.49893 0
M  V30 5878 N 563.156 0.464375 -1.50603 0
M  V30 5879 C 564.089 1.58052 -1.64605 0
M  V30 5880 C 565.067 1.54914 -0.494016 0
M  V30 5881 O 566.251 1.74438 -0.714393 0
M  V30 5882 C 563.378 2.96634 -1.63481 0
M  V30 5883 C 562.424 3.17901 -2.84325 0
M  V30 5884 S 563.257 2.97083 -4.45536 0
M  V30 5885 C 564.413 4.37994 -4.47115 0
M  V30 5886 H 564.646 1.45937 -2.59017 0
M  V30 5887 H 562.179 0.652189 -1.39949 0
M  V30 5888 H 564.137 3.76527 -1.63517 0
M  V30 5889 H 562.798 3.06134 -0.702928 0
M  V30 5890 H 561.991 4.19158 -2.79862 0
M  V30 5891 H 561.593 2.45792 -2.81891 0
M  V30 5892 H 563.885 5.30743 -4.21091 0
M  V30 5893 H 564.828 4.47499 -5.48772 0
M  V30 5894 H 565.236 4.20386 -3.76743 0
M  V30 5895 N 564.634 1.40294 0.718013 0
M  V30 5896 C 565.883 1.37746 1.4734 0
M  V30 5897 C 566.196 -0.0180754 1.95592 0
M  V30 5898 O 567.402 -0.166166 2.70991 0
M  V30 5899 C 565.858 2.4208 2.66318 0
M  V30 5900 C 565.466 3.87432 2.24945 0
M  V30 5901 C 567.21 2.48635 3.44065 0
M  V30 5902 C 565.117 4.83368 3.40748 0
M  V30 5903 H 564.047 0.512165 0.553356 0
M  V30 5904 H 566.698 1.66019 0.781661 0
M  V30 5905 H 565.08 2.06903 3.3765 0
M  V30 5906 H 566.254 4.3174 1.6105 0
M  V30 5907 H 564.569 3.8433 1.60249 0
M  V30 5908 H 567.166 3.17499 4.30231 0
M  V30 5909 H 567.509 1.51611 3.87711 0
M  V30 5910 H 568.042 2.82791 2.79775 0
M  V30 5911 H 564.781 5.81716 3.02136 0
M  V30 5912 H 564.301 4.43726 4.03568 0
M  V30 5913 H 565.98 5.03074 4.06848 0
M  V30 5914 N 566.112 -0.949982 1.2575 0
M  V30 5915 C 567.358 -1.69766 1.10938 0
M  V30 5916 C 567.691 -1.91056 -0.348028 0
M  V30 5917 O 566.966 -1.48488 -1.25625 0
M  V30 5918 C 567.249 -3.07779 1.86933 0
M  V30 5919 C 567.102 -2.9387 3.4053 0
M  V30 5920 C 568.421 -4.07749 1.65616 0
M  V30 5921 H 565.54 -0.616144 0.404396 0
M  V30 5922 H 568.182 -1.10394 1.54639 0
M  V30 5923 H 566.332 -3.58462 1.4979 0
M  V30 5924 H 568.004 -2.50476 3.87375 0
M  V30 5925 H 566.247 -2.29686 3.68004 0
M  V30 5926 H 566.918 -3.91719 3.88922 0
M  V30 5927 H 569.394 -3.65994 1.97959 0
M  V30 5928 H 568.27 -5.02348 2.21218 0
M  V30 5929 H 568.531 -4.38029 0.598595 0
M  V30 5930 N 567.59 -1.07411 -1.15328 0
M  V30 5931 C 568.52 -0.716472 -2.22236 0
M  V30 5932 C 569.501 0.296373 -1.67498 0
M  V30 5933 O 570.686 0.168989 -1.93463 0
M  V30 5934 C 567.816 -0.114142 -3.47112 0
M  V30 5935 C 566.77 -1.05421 -4.14814 0
M  V30 5936 C 566.096 -0.314604 -5.33774 0
M  V30 5937 C 567.396 -2.38808 -4.64508 0
M  V30 5938 H 569.09 -1.61029 -2.52408 0
M  V30 5939 H 566.636 -0.775702 -1.21321 0
M  V30 5940 H 568.589 0.148001 -4.2114 0
M  V30 5941 H 567.313 0.814755 -3.16274 0
M  V30 5942 H 565.972 -1.30128 -3.42728 0
M  V30 5943 H 565.62 0.617772 -4.99192 0
M  V30 5944 H 565.32 -0.941209 -5.80013 0
M  V30 5945 H 566.844 -0.0602747 -6.1057 0
M  V30 5946 H 568.258 -2.18424 -5.3006 0
M  V30 5947 H 566.655 -2.97069 -5.21412 0
M  V30 5948 H 567.725 -3.01067 -3.80114 0
M  V30 5949 N 569.068 1.32177 -0.85831 0
M  V30 5950 C 570.031 2.27086 -0.310588 0
M  V30 5951 C 571.031 1.51751 0.531806 0
M  V30 5952 O 572.221 1.70794 0.34279 0
M  V30 5953 C 569.353 3.36266 0.560179 0
M  V30 5954 H 570.546 2.77045 -1.1483 0
M  V30 5955 H 568.099 1.42911 -0.632942 0
M  V30 5956 H 568.834 2.9158 1.41956 0
M  V30 5957 H 568.619 3.92077 -0.0428473 0
M  V30 5958 H 570.109 4.06974 0.936056 0
M  V30 5959 N 570.547 0.616602 1.45037 0
M  V30 5960 C 571.794 0.115331 2.02171 0
M  V30 5961 C 572.122 -1.25748 1.48383 0
M  V30 5962 O 571.377 -1.84511 0.652229 0
M  V30 5963 C 571.676 0.0356829 3.57382 0
M  V30 5964 C 571.342 1.34535 4.30362 0
M  V30 5965 C 570.004 1.70408 4.50016 0
M  V30 5966 C 572.356 2.21049 4.72003 0
M  V30 5967 C 569.684 2.92529 5.0857 0
M  V30 5968 C 572.036 3.42427 5.31908 0
M  V30 5969 C 570.7 3.78541 5.49784 0
M  V30 5970 H 569.97 0.0422024 0.739797 0
M  V30 5971 H 572.617 0.80002 1.73988 0
M  V30 5972 H 570.922 -0.732314 3.84895 0
M  V30 5973 H 572.619 -0.368463 3.99304 0
M  V30 5974 H 569.209 1.05615 4.15383 0
M  V30 5975 H 573.393 1.94632 4.56544 0
M  V30 5976 H 568.649 3.20605 5.20598 0
M  V30 5977 H 572.823 4.09709 5.63127 0
M  V30 5978 H 570.45 4.73255 5.94923 0
M  V30 5979 N 572.025 -1.5352 0.356285 0
M  V30 5980 C 573.274 -2.00298 -0.237373 0
M  V30 5981 C 573.587 -1.24784 -1.50627 0
M  V30 5982 O 574.793 -1.62103 -2.17795 0
M  V30 5983 C 573.249 -3.56771 -0.473545 0
M  V30 5984 C 572.857 -4.41154 0.780183 0
M  V30 5985 C 574.601 -4.1193 -1.02537 0
M  V30 5986 C 572.508 -5.89161 0.514108 0
M  V30 5987 H 571.438 -0.748307 -0.092478 0
M  V30 5988 H 574.089 -1.77283 0.473588 0
M  V30 5989 H 572.471 -3.75902 -1.24553 0
M  V30 5990 H 573.645 -4.33797 1.55425 0
M  V30 5991 H 571.96 -3.97052 1.25455 0
M  V30 5992 H 574.557 -5.20133 -1.2396 0
M  V30 5993 H 574.9 -3.65943 -1.98473 0
M  V30 5994 H 575.433 -3.96561 -0.313775 0
M  V30 5995 H 572.172 -6.39408 1.44355 0
M  V30 5996 H 571.692 -5.9939 -0.221632 0
M  V30 5997 H 573.371 -6.46857 0.136122 0
M  V30 5998 N 573.503 -0.0852151 -1.57369 0
M  V30 5999 C 574.752 0.580443 -1.93168 0
M  V30 6000 C 575.065 1.6995 -0.968319 0
M  V30 6001 O 576.271 2.42564 -1.21963 0
M  V30 6002 C 574.727 1.08386 -3.43192 0
M  V30 6003 C 574.335 -0.00491388 -4.48 0
M  V30 6004 C 576.079 1.72281 -3.87968 0
M  V30 6005 C 573.986 0.513299 -5.89168 0
M  V30 6006 H 572.916 0.22059 -0.72101 0
M  V30 6007 H 575.567 -0.159621 -1.82804 0
M  V30 6008 H 573.949 1.8773 -3.48674 0
M  V30 6009 H 575.123 -0.780032 -4.5415 0
M  V30 6010 H 573.438 -0.548453 -4.12772 0
M  V30 6011 H 576.035 2.12108 -4.9083 0
M  V30 6012 H 576.378 2.58811 -3.26071 0
M  V30 6013 H 576.911 0.995359 -3.85146 0
M  V30 6014 H 573.65 -0.315153 -6.54742 0
M  V30 6015 H 573.17 1.25564 -5.8651 0
M  V30 6016 H 574.849 0.985433 -6.39451 0
M  V30 6017 N 574.981 1.5647 0.188427 0
M  V30 6018 C 575.911 1.98101 1.23606 0
M  V30 6019 C 576.892 0.853961 1.47111 0
M  V30 6020 O 578.077 1.11879 1.58735 0
M  V30 6021 C 575.207 2.32624 2.57882 0
M  V30 6022 C 574.161 3.48129 2.48978 0
M  V30 6023 C 573.487 3.68347 3.87588 0
M  V30 6024 C 574.787 4.82112 2.00911 0
M  V30 6025 H 576.481 2.85864 0.890068 0
M  V30 6026 H 574.027 1.37532 0.426714 0
M  V30 6027 H 575.98 2.60343 3.3136 0
M  V30 6028 H 574.704 1.41751 2.94235 0
M  V30 6029 H 573.363 3.20511 1.77956 0
M  V30 6030 H 573.011 2.74793 4.21305 0
M  V30 6031 H 572.711 4.46055 3.82503 0
M  V30 6032 H 574.235 3.98449 4.62678 0
M  V30 6033 H 575.649 5.08819 2.64151 0
M  V30 6034 H 574.046 5.63337 2.06814 0
M  V30 6035 H 575.116 4.75249 0.96262 0
M  V30 6036 N 576.459 -0.456382 1.50847 0
M  V30 6037 C 577.407 -1.57318 1.71329 0
M  V30 6038 C 578.401 -1.59187 0.579287 0
M  V30 6039 O 579.607 -1.6316 0.76018 0
M  V30 6040 H 575.982 -0.5223 0.541024 0
M  V30 6041 H 577.953 -1.3721 2.64983 0
M  V30 6042 C 576.702 -2.95142 1.83811 0
M  V30 6043 H 576.025 -2.94428 2.70467 0
M  V30 6044 H 577.465 -3.72702 2.02161 0
M  V30 6045 C 575.924 -3.31636 0.593224 0
M  V30 6046 O 576.454 -4.00852 -0.260898 0
M  V30 6047 N 574.66 -2.87205 0.442902 0
M  V30 6048 H 574.207 -2.31051 1.13901 0
M  V30 6049 H 574.165 -3.11986 -0.38884 0
M  V30 6050 N 577.937 -1.40673 -0.710563 0
M  V30 6051 C 579.167 -1.4234 -1.49742 0
M  V30 6052 C 579.575 -0.022821 -1.89186 0
M  V30 6053 O 578.918 0.964773 -1.56326 0
M  V30 6054 C 578.98 -2.25509 -2.79975 0
M  V30 6055 C 578.644 -3.73862 -2.62824 0
M  V30 6056 C 579.641 -4.66379 -2.29752 0
M  V30 6057 C 577.326 -4.17735 -2.78932 0
M  V30 6058 C 579.32 -6.00756 -2.13006 0
M  V30 6059 C 577.007 -5.5218 -2.61802 0
M  V30 6060 C 578.005 -6.43505 -2.28888 0
M  V30 6061 O 577.693 -7.75472 -2.11894 0
M  V30 6062 H 577.425 -0.487311 -0.468513 0
M  V30 6063 H 579.979 -1.8542 -0.883668 0
M  V30 6064 H 578.209 -1.77218 -3.43701 0
M  V30 6065 H 579.898 -2.19058 -3.41714 0
M  V30 6066 H 580.664 -4.33778 -2.16936 0
M  V30 6067 H 576.543 -3.46967 -3.03537 0
M  V30 6068 H 580.087 -6.72003 -1.87237 0
M  V30 6069 H 575.984 -5.84365 -2.74204 0
M  V30 6070 H 576.752 -7.86458 -2.26775 0
M  V30 6071 N 579.415 0.9433 -1.26252 0
M  V30 6072 C 580.663 1.68592 -1.11451 0
M  V30 6073 C 580.984 1.91957 0.343123 0
M  V30 6074 O 580.254 1.51475 1.24226 0
M  V30 6075 H 578.834 0.624789 -0.409448 0
M  V30 6076 H 581.496 1.13351 -1.58548 0
M  V30 6077 H 580.592 2.66054 -1.63162 0
M  V30 6078 N 580.893 1.08022 1.14757 0
M  V30 6079 C 582.304 0.829144 1.67279 0
M  V30 6080 C 582.655 -0.644721 1.85305 0
M  V30 6081 O 581.78 -1.49838 1.56133 0
M  V30 6082 C 582.375 1.49855 3.03857 0
M  V30 6083 C 580.934 1.29482 3.53428 0
M  V30 6084 C 580.081 1.56386 2.28995 0
M  V30 6085 H 583.032 1.24134 0.988762 0
M  V30 6086 H 583.053 0.923572 3.69121 0
M  V30 6087 H 582.565 2.57123 2.90705 0
M  V30 6088 H 580.666 0.242669 3.71809 0
M  V30 6089 H 580.779 2.01974 4.34446 0
M  V30 6090 H 579.143 0.985217 2.34874 0
M  V30 6091 H 579.926 2.64851 2.18423 0
M  V30 6092 N 582.371 -1.3172 0.865308 0
M  V30 6093 C 583.304 -2.26687 0.262376 0
M  V30 6094 C 584.282 -1.50894 -0.605787 0
M  V30 6095 O 585.466 -1.79982 -0.56024 0
M  V30 6096 C 582.593 -3.3281 -0.628915 0
M  V30 6097 C 581.639 -4.26172 0.167278 0
M  V30 6098 S 582.472 -5.12797 1.54272 0
M  V30 6099 C 583.628 -6.22438 0.657427 0
M  V30 6100 H 583.861 -2.77478 1.0674 0
M  V30 6101 H 581.394 -1.39414 0.663555 0
M  V30 6102 H 583.352 -3.94426 -1.13747 0
M  V30 6103 H 582.013 -2.80782 -1.40785 0
M  V30 6104 H 581.206 -5.01392 -0.51203 0
M  V30 6105 H 580.808 -3.69029 0.607777 0
M  V30 6106 H 583.1 -6.77368 -0.133925 0
M  V30 6107 H 584.043 -6.9451 1.38061 0
M  V30 6108 H 584.451 -5.64043 0.227044 0
M  V30 6109 N 583.85 -0.624285 -1.44708 0
M  V30 6110 C 585.075 -0.131171 -2.06985 0
M  V30 6111 C 585.5 1.18234 -1.46295 0
M  V30 6112 O 584.858 1.72375 -0.561842 0
M  V30 6113 C 584.906 -0.0226724 -3.60593 0
M  V30 6114 O 584.01 1.02314 -3.99507 0
M  V30 6115 H 583.351 -0.0816556 -0.65896 0
M  V30 6116 H 585.88 -0.859027 -1.85693 0
M  V30 6117 H 585.891 0.170138 -4.07645 0
M  V30 6118 H 584.566 -0.981685 -4.04148 0
M  V30 6119 H 583.143 0.805452 -3.64097 0
M  V30 6120 N 585.328 1.53329 -0.364422 0
M  V30 6121 C 586.261 2.22052 0.526145 0
M  V30 6122 C 587.239 1.21203 1.08391 0
M  V30 6123 O 588.423 1.50101 1.14026 0
M  V30 6124 C 585.55 2.91432 1.72583 0
M  V30 6125 C 584.596 4.06345 1.29562 0
M  V30 6126 S 585.429 5.34671 0.297885 0
M  V30 6127 C 586.585 6.07563 1.50392 0
M  V30 6128 H 586.818 2.97244 -0.0575055 0
M  V30 6129 H 584.351 1.53684 -0.148525 0
M  V30 6130 H 586.309 3.3202 2.41398 0
M  V30 6131 H 584.97 2.15966 2.28073 0
M  V30 6132 H 584.163 4.53901 2.19067 0
M  V30 6133 H 583.765 3.67642 0.686696 0
M  V30 6134 H 586.057 6.32224 2.43513 0
M  V30 6135 H 587 6.99973 1.06977 0
M  V30 6136 H 587.408 5.37994 1.70945 0
M  V30 6137 N 586.806 0.0935595 1.57322 0
M  V30 6138 C 587.736 -0.863062 2.16964 0
M  V30 6139 C 588.717 -1.29528 1.10256 0
M  V30 6140 O 589.902 -1.36245 1.38387 0
M  V30 6141 C 587.032 -2.12276 2.74875 0
M  V30 6142 C 585.986 -1.82921 3.86942 0
M  V30 6143 C 585.312 -3.15707 4.31548 0
M  V30 6144 C 586.612 -1.11737 5.10208 0
M  V30 6145 H 588.306 -0.366145 2.97153 0
M  V30 6146 H 585.852 -0.174673 1.42937 0
M  V30 6147 H 587.805 -2.79634 3.1525 0
M  V30 6148 H 586.529 -2.64248 1.91938 0
M  V30 6149 H 585.188 -1.17961 3.47103 0
M  V30 6150 H 584.836 -3.65563 3.45504 0
M  V30 6151 H 584.536 -2.96849 5.07104 0
M  V30 6152 H 586.06 -3.84226 4.74555 0
M  V30 6153 H 587.474 -1.69203 5.47762 0
M  V30 6154 H 585.871 -1.03064 5.91183 0
M  V30 6155 H 586.941 -0.0998818 4.84797 0
M  V30 6156 N 588.284 -1.56567 -0.180126 0
M  V30 6157 C 589.194 -1.98947 -1.24327 0
M  V30 6158 C 590.21 -0.899446 -1.4895 0
M  V30 6159 O 591.386 -1.20639 -1.61271 0
M  V30 6160 C 588.451 -2.33328 -2.56435 0
M  V30 6161 C 587.512 -3.56114 -2.39752 0
M  V30 6162 C 586.745 -3.88845 -3.65561 0
M  V30 6163 O 586.968 -3.22662 -4.70368 0
M  V30 6164 O 585.902 -4.82226 -3.60197 0
M  V30 6165 H 589.728 -2.89634 -0.913565 0
M  V30 6166 H 587.313 -1.44319 -0.386306 0
M  V30 6167 H 589.195 -2.5645 -3.34382 0
M  V30 6168 H 587.87 -1.45806 -2.89002 0
M  V30 6169 H 586.777 -3.38221 -1.59866 0
M  V30 6170 H 588.11 -4.4415 -2.12113 0
M  V30 6171 N 589.762 0.448376 -1.51087 0
M  V30 6172 C 590.694 1.56146 -1.67783 0
M  V30 6173 C 591.707 1.52913 -0.55871 0
M  V30 6174 O 592.896 1.57889 -0.83267 0
M  V30 6175 C 589.996 2.95057 -1.66716 0
M  V30 6176 C 589.169 3.22915 -2.95033 0
M  V30 6177 C 588.228 4.41495 -2.86302 0
M  V30 6178 O 587.254 4.40688 -3.60254 0
M  V30 6179 N 588.456 5.44443 -2.014 0
M  V30 6180 H 591.221 1.42232 -2.638 0
M  V30 6181 H 588.782 0.637153 -1.48835 0
M  V30 6182 H 590.774 3.72388 -1.58458 0
M  V30 6183 H 589.344 3.02624 -0.783403 0
M  V30 6184 H 588.564 2.33985 -3.17245 0
M  V30 6185 H 589.852 3.38349 -3.79996 0
M  V30 6186 H 589.25 5.4793 -1.40674 0
M  V30 6187 H 587.807 6.2067 -1.99029 0
M  V30 6188 N 591.24 1.41047 0.703093 0
M  V30 6189 C 592.517 1.30493 1.45708 0
M  V30 6190 C 592.897 -0.0709892 2.10981 0
M  V30 6191 O 592.245 -1.08471 2.01113 0
M  V30 6192 C 592.455 2.45287 2.48265 0
M  V30 6193 C 593.803 2.86104 3.13735 0
M  V30 6194 O 594.827 2.44971 2.58587 0
M  V30 6195 O 593.686 3.57206 4.13601 0
M  V30 6196 H 590.78 0.513144 0.648546 0
M  V30 6197 H 593.326 1.52995 0.734208 0
M  V30 6198 H 592.098 3.37135 1.98635 0
M  V30 6199 H 591.721 2.24622 3.28071 0
M  V30 6200 N 592.718 -0.936591 1.26751 0
M  V30 6201 C 593.943 -1.72288 1.15462 0
M  V30 6202 C 594.368 -1.85915 -0.285887 0
M  V30 6203 O 593.726 -1.35272 -1.20711 0
M  V30 6204 C 593.774 -3.10503 1.83359 0
M  V30 6205 O 592.878 -3.96745 1.1255 0
M  V30 6206 H 592.219 -0.52843 0.402067 0
M  V30 6207 H 594.749 -1.17271 1.67656 0
M  V30 6208 H 594.759 -3.60867 1.90365 0
M  V30 6209 H 593.434 -2.99901 2.88153 0
M  V30 6210 H 592.011 -3.55191 1.13551 0
M  V30 6211 N 594.196 -1.08629 -1.14182 0
M  V30 6212 C 595.612 -0.814363 -1.3726 0
M  V30 6213 C 595.812 0.575271 -1.93114 0
M  V30 6214 O 594.868 1.33165 -2.1453 0
M  V30 6215 C 596.181 -1.8989 -2.33157 0
M  V30 6216 C 597.729 -1.92518 -2.46791 0
M  V30 6217 C 598.204 -3.00092 -3.45989 0
M  V30 6218 N 599.695 -2.99279 -3.53534 0
M  V30 6219 C 600.43 -3.79158 -4.30147 0
M  V30 6220 N 599.926 -4.68923 -5.09983 0
M  V30 6221 N 601.719 -3.67451 -4.25366 0
M  V30 6222 H 593.87 -1.98232 -0.762758 0
M  V30 6223 H 596.133 -0.860383 -0.398051 0
M  V30 6224 H 595.839 -2.89809 -1.99257 0
M  V30 6225 H 595.713 -1.77013 -3.33086 0
M  V30 6226 H 598.1 -0.932425 -2.79982 0
M  V30 6227 H 598.181 -2.09473 -1.46816 0
M  V30 6228 H 597.825 -3.99575 -3.13532 0
M  V30 6229 H 597.755 -2.80382 -4.45751 0
M  V30 6230 H 600.246 -2.3422 -2.96563 0
M  V30 6231 H 600.559 -5.26475 -5.65724 0
M  V30 6232 H 598.904 -4.72964 -5.09244 0
M  V30 6233 H 602.095 -2.9669 -3.62067 0
M  V30 6234 H 602.268 -4.29944 -4.84822 0
M  V30 6235 N 595.674 1.31259 -0.872281 0
M  V30 6236 C 597.09 1.49283 -0.564521 0
M  V30 6237 C 597.29 1.80243 0.900807 0
M  V30 6238 O 596.346 1.88246 1.68284 0
M  V30 6239 C 597.659 2.62503 -1.46673 0
M  V30 6240 C 599.207 2.76386 -1.46901 0
M  V30 6241 C 599.682 3.92705 -2.35684 0
M  V30 6242 N 601.173 3.99995 -2.33577 0
M  V30 6243 C 601.908 4.89276 -2.98992 0
M  V30 6244 N 601.404 5.83443 -3.73585 0
M  V30 6245 N 603.197 4.82541 -2.88289 0
M  V30 6246 H 595.348 1.09432 -1.82039 0
M  V30 6247 H 597.611 0.540949 -0.77851 0
M  V30 6248 H 597.317 2.46407 -2.50951 0
M  V30 6249 H 597.191 3.58695 -1.16696 0
M  V30 6250 H 599.578 2.91894 -0.433796 0
M  V30 6251 H 599.659 1.80853 -1.80903 0
M  V30 6252 H 599.303 3.77954 -3.39283 0
M  V30 6253 H 599.233 4.87549 -1.99006 0
M  V30 6254 H 601.724 3.32624 -1.7936 0
M  V30 6255 H 602.037 6.48303 -4.20622 0
M  V30 6256 H 600.382 5.83415 -3.77694 0
M  V30 6257 H 603.573 4.07951 -2.2955 0
M  V30 6258 H 603.746 5.51916 -3.39549 0
M  V30 6259 N 597.152 0.631951 1.44375 0
M  V30 6260 C 598.085 -0.121822 2.27875 0
M  V30 6261 C 599.063 -0.850457 1.38586 0
M  V30 6262 O 600.247 -0.854378 1.68026 0
M  V30 6263 C 597.374 -1.17859 3.17533 0
M  V30 6264 C 596.42 -0.550391 4.22934 0
M  V30 6265 S 597.253 0.660145 5.31415 0
M  V30 6266 C 598.409 -0.396613 6.24642 0
M  V30 6267 H 598.642 0.586537 2.91457 0
M  V30 6268 H 596.175 0.420146 1.48574 0
M  V30 6269 H 598.133 -1.78335 3.69739 0
M  V30 6270 H 596.794 -1.85915 2.53169 0
M  V30 6271 H 595.987 -1.34631 4.85685 0
M  V30 6272 H 595.589 -0.0202306 3.73995 0
M  V30 6273 H 597.881 -1.26893 6.65511 0
M  V30 6274 H 598.824 0.195345 7.0783 0
M  V30 6275 H 599.232 -0.72288 5.59852 0
M  V30 6276 N 598.631 -1.53133 0.372548 0
M  V30 6277 C 599.579 -2.27473 -0.485681 0
M  V30 6278 C 600.573 -1.30719 -1.07745 0
M  V30 6279 O 601.779 -1.48321 -1.01985 0
M  V30 6280 H 598.154 -0.731269 -0.175356 0
M  V30 6281 H 600.125 -2.97955 0.162986 0
M  V30 6282 C 598.874 -3.08191 -1.60978 0
M  V30 6283 H 598.197 -3.82488 -1.16373 0
M  V30 6284 H 599.637 -3.63373 -2.18485 0
M  V30 6285 C 598.096 -2.19461 -2.55614 0
M  V30 6286 O 598.626 -1.81008 -3.58607 0
M  V30 6287 N 596.832 -1.83955 -2.24965 0
M  V30 6288 H 596.379 -2.15423 -1.41247 0
M  V30 6289 H 596.337 -1.24874 -2.88538 0
M  V30 6290 N 600.109 -0.101901 -1.5727 0
M  V30 6291 C 601.52 0.426173 -1.81771 0
M  V30 6292 C 601.871 1.67725 -1.01797 0
M  V30 6293 O 600.996 2.14958 -0.249386 0
M  V30 6294 C 601.591 0.779962 -3.297 0
M  V30 6295 C 600.15 1.25275 -3.54941 0
M  V30 6296 C 599.297 0.252814 -2.76145 0
M  V30 6297 H 602.248 -0.32726 -1.55289 0
M  V30 6298 H 602.269 1.63891 -3.43395 0
M  V30 6299 H 601.781 -0.130778 -3.8788 0
M  V30 6300 H 599.882 2.18097 -3.021 0
M  V30 6301 H 599.995 1.20988 -4.63572 0
M  V30 6302 H 598.359 0.736362 -2.43823 0
M  V30 6303 H 599.142 -0.650724 -3.37076 0
M  V30 6304 N 601.587 1.56661 0.17182 0
M  V30 6305 C 602.812 1.86459 0.908165 0
M  V30 6306 C 603.237 0.688181 1.75059 0
M  V30 6307 O 602.595 -0.362753 1.77634 0
M  V30 6308 C 602.643 3.14669 1.76112 0
M  V30 6309 O 601.747 2.96858 2.86268 0
M  V30 6310 H 601.088 0.613318 0.254434 0
M  V30 6311 H 603.618 2.03892 0.170113 0
M  V30 6312 H 603.628 3.46061 2.16115 0
M  V30 6313 H 602.303 3.99905 1.14233 0
M  V30 6314 H 600.88 2.76819 2.49852 0
M  V30 6315 N 603.065 -0.440357 1.51323 0
M  V30 6316 C 604.311 -1.19181 1.64085 0
M  V30 6317 C 604.644 -1.90936 0.354575 0
M  V30 6318 O 603.919 -1.8347 -0.645675 0
M  V30 6319 C 604.202 -2.2112 2.84215 0
M  V30 6320 C 604.055 -1.53468 4.22809 0
M  V30 6321 C 605.374 -3.22133 2.99864 0
M  V30 6322 H 602.493 -0.431924 0.597169 0
M  V30 6323 H 605.135 -0.481443 1.83799 0
M  V30 6324 H 603.285 -2.81703 2.67537 0
M  V30 6325 H 604.957 -0.962455 4.51148 0
M  V30 6326 H 603.2 -0.837086 4.25647 0
M  V30 6327 H 603.871 -2.27694 5.02852 0
M  V30 6328 H 606.347 -2.71601 3.15233 0
M  V30 6329 H 605.223 -3.90756 3.85488 0
M  V30 6330 H 605.484 -3.88061 2.11804 0
M  V30 6331 N 604.543 -1.41418 -0.695603 0
M  V30 6332 C 605.768 -1.44329 -1.48942 0
M  V30 6333 C 606.193 -0.0501579 -1.88033 0
M  V30 6334 O 605.551 0.946598 -1.54626 0
M  V30 6335 C 605.599 -2.3578 -2.72837 0
M  V30 6336 O 604.703 -1.81482 -3.70322 0
M  V30 6337 H 604.044 -0.489838 -0.44828 0
M  V30 6338 H 606.574 -1.85878 -0.855014 0
M  V30 6339 H 606.584 -2.51654 -3.21145 0
M  V30 6340 H 605.259 -3.37005 -2.43722 0
M  V30 6341 H 603.836 -1.75058 -3.29255 0
M  V30 6342 N 606.021 0.929856 -1.27246 0
M  V30 6343 C 607.432 1.49223 -1.12203 0
M  V30 6344 C 607.783 1.93989 0.293731 0
M  V30 6345 O 606.908 1.80978 1.18642 0
M  V30 6346 C 607.503 2.71198 -2.0307 0
M  V30 6347 C 606.062 3.23666 -1.92139 0
M  V30 6348 C 605.209 1.96409 -1.95752 0
M  V30 6349 H 608.16 0.744181 -1.4017 0
M  V30 6350 H 608.181 3.45905 -1.58524 0
M  V30 6351 H 607.693 2.38585 -3.06102 0
M  V30 6352 H 605.794 3.61042 -0.920834 0
M  V30 6353 H 605.907 3.90006 -2.78267 0
M  V30 6354 H 604.271 2.12806 -1.39949 0
M  V30 6355 H 605.054 1.66113 -3.00436 0
M  V30 6356 N 607.499 1.09233 1.13605 0
M  V30 6357 C 608.462 0.733553 2.17144 0
M  V30 6358 C 609.462 -0.235873 1.59061 0
M  V30 6359 O 610.652 -0.0143167 1.74194 0
M  V30 6360 C 607.784 0.084471 3.40795 0
M  V30 6361 H 608.977 1.65049 2.50397 0
M  V30 6362 H 606.53 0.891264 1.28399 0
M  V30 6363 H 607.265 -0.843795 3.1313 0
M  V30 6364 H 607.05 0.781985 3.84223 0
M  V30 6365 H 608.54 -0.151216 4.17326 0
M  V30 6366 N 608.977 -1.30795 0.87923 0
M  V30 6367 C 609.925 -2.30231 0.331112 0
M  V30 6368 C 610.919 -1.59918 -0.558794 0
M  V30 6369 O 612.125 -1.74441 -0.443866 0
M  V30 6370 H 608.5 -0.746785 0.088409 0
M  V30 6371 H 610.471 -2.73925 1.18353 0
M  V30 6372 C 609.22 -3.44848 -0.444401 0
M  V30 6373 H 608.543 -3.99131 0.231106 0
M  V30 6374 H 609.983 -4.16516 -0.793109 0
M  V30 6375 C 608.442 -2.94329 -1.63926 0
M  V30 6376 O 608.972 -2.93875 -2.73862 0
M  V30 6377 N 607.178 -2.50413 -1.4745 0
M  V30 6378 H 606.725 -2.50982 -0.58015 0
M  V30 6379 H 606.683 -2.16969 -2.27534 0
M  V30 6380 N 610.455 -0.639598 -1.44038 0
M  V30 6381 C 611.387 0.0987684 -2.28987 0
M  V30 6382 C 612.4 0.80058 -1.41755 0
M  V30 6383 O 613.589 0.660611 -1.65826 0
M  V30 6384 C 610.689 1.16242 -3.18341 0
M  V30 6385 C 609.862 0.541447 -4.34036 0
M  V30 6386 C 608.921 1.50017 -5.04362 0
M  V30 6387 O 607.947 1.01403 -5.60095 0
M  V30 6388 N 609.149 2.83441 -5.06598 0
M  V30 6389 H 611.914 -0.630305 -2.92997 0
M  V30 6390 H 609.475 -0.481376 -1.54578 0
M  V30 6391 H 611.467 1.80429 -3.62253 0
M  V30 6392 H 610.037 1.79362 -2.56024 0
M  V30 6393 H 609.257 -0.27923 -3.9321 0
M  V30 6394 H 610.545 0.107379 -5.08687 0
M  V30 6395 H 609.943 3.2551 -4.62666 0
M  V30 6396 H 608.5 3.42966 -5.54272 0
M  V30 6397 N 611.933 1.52934 -0.380664 0
M  V30 6398 C 613.349 1.59571 -0.0302429 0
M  V30 6399 C 613.549 1.39509 1.45394 0
M  V30 6400 O 612.605 1.20777 2.21741 0
M  V30 6401 C 613.918 2.96519 -0.499691 0
M  V30 6402 C 615.466 3.09672 -0.455204 0
M  V30 6403 C 615.941 4.49056 -0.900703 0
M  V30 6404 N 617.432 4.55215 -0.856367 0
M  V30 6405 C 618.167 5.61282 -1.17259 0
M  V30 6406 N 617.663 6.75035 -1.55885 0
M  V30 6407 N 619.456 5.51343 -1.0944 0
M  V30 6408 H 611.607 1.64224 -1.347 0
M  V30 6409 H 613.87 0.771033 -0.551554 0
M  V30 6410 H 613.576 3.16388 -1.53595 0
M  V30 6411 H 613.45 3.77052 0.105789 0
M  V30 6412 H 615.837 2.89504 0.571949 0
M  V30 6413 H 615.918 2.31113 -1.09638 0
M  V30 6414 H 615.562 4.69964 -1.92604 0
M  V30 6415 H 615.492 5.26068 -0.236629 0
M  V30 6416 H 617.983 3.73546 -0.572013 0
M  V30 6417 H 618.296 7.51926 -1.784 0
M  V30 6418 H 616.641 6.76388 -1.59764 0
M  V30 6419 H 619.832 4.61356 -0.791713 0
M  V30 6420 H 620.005 6.33905 -1.34417 0
M  V30 6421 N 613.412 0.11024 1.57214 0
M  V30 6422 C 614.828 -0.24638 1.57687 0
M  V30 6423 C 615.028 -1.67344 1.12241 0
M  V30 6424 O 614.084 -2.39298 0.805783 0
M  V30 6425 C 615.397 -0.0210288 3.00693 0
M  V30 6426 C 616.945 -0.0876077 3.12877 0
M  V30 6427 C 617.42 0.10994 4.57868 0
M  V30 6428 N 618.911 0.0556135 4.63167 0
M  V30 6429 C 619.646 0.183495 5.73106 0
M  V30 6430 N 619.142 0.367058 6.91827 0
M  V30 6431 N 620.935 0.123689 5.61964 0
M  V30 6432 H 613.086 1.04246 1.85058 0
M  V30 6433 H 615.349 0.40979 0.854854 0
M  V30 6434 H 615.055 0.965203 3.38196 0
M  V30 6435 H 614.929 -0.756748 3.69531 0
M  V30 6436 H 617.316 -1.06436 2.75237 0
M  V30 6437 H 617.397 0.67985 2.466 0
M  V30 6438 H 617.041 1.08362 4.96206 0
M  V30 6439 H 616.971 -0.677397 5.22225 0
M  V30 6440 H 619.462 -0.0831062 3.77809 0
M  V30 6441 H 619.775 0.455739 7.71455 0
M  V30 6442 H 618.12 0.40292 6.93831 0
M  V30 6443 H 621.311 -0.0186928 4.68096 0
M  V30 6444 H 621.484 0.226797 6.47603 0
M  V30 6445 N 614.89 -1.56749 -0.16351 0
M  V30 6446 C 615.84 -1.93424 -1.20712 0
M  V30 6447 C 616.824 -0.803469 -1.39403 0
M  V30 6448 O 618.016 -1.06675 -1.41243 0
M  V30 6449 C 615.145 -2.30431 -2.54473 0
M  V30 6450 C 614.231 -3.5004 -2.39443 0
M  V30 6451 N 614.622 -4.67058 -1.9414 0
M  V30 6452 C 612.92 -3.548 -2.70246 0
M  V30 6453 C 613.621 -5.49184 -1.9176 0
M  V30 6454 N 612.597 -4.9044 -2.34457 0
M  V30 6455 H 616.399 -2.8138 -0.848681 0
M  V30 6456 H 613.913 -1.58089 -0.371717 0
M  V30 6457 H 615.91 -2.54903 -3.29894 0
M  V30 6458 H 614.57 -1.43818 -2.91112 0
M  V30 6459 H 615.581 -4.91128 -1.64357 0
M  V30 6460 H 612.258 -2.78685 -3.10871 0
M  V30 6461 H 613.648 -6.5297 -1.58366 0
M  V30 6462 N 616.368 0.432326 -1.51554 0
M  V30 6463 C 617.298 1.53242 -1.76179 0
M  V30 6464 C 618.279 1.58717 -0.611801 0
M  V30 6465 O 619.464 1.74364 -0.855033 0
M  V30 6466 C 616.594 2.91278 -1.89141 0
M  V30 6467 C 615.548 3.00663 -3.04608 0
M  V30 6468 C 614.874 4.40728 -3.02759 0
M  V30 6469 C 616.174 2.74281 -4.44485 0
M  V30 6470 H 617.868 1.32886 -2.68294 0
M  V30 6471 H 615.414 0.637841 -1.29103 0
M  V30 6472 H 617.367 3.68203 -2.04951 0
M  V30 6473 H 616.091 3.12877 -0.936785 0
M  V30 6474 H 614.75 2.26179 -2.88511 0
M  V30 6475 H 614.398 4.59301 -2.05065 0
M  V30 6476 H 614.098 4.47936 -3.80299 0
M  V30 6477 H 615.622 5.19619 -3.20669 0
M  V30 6478 H 617.036 3.40936 -4.60907 0
M  V30 6479 H 615.433 2.92893 -5.23769 0
M  V30 6480 H 616.503 1.69856 -4.54177 0
M  V30 6481 N 617.846 1.41785 0.688094 0
M  V30 6482 C 618.776 1.47 1.8142 0
M  V30 6483 C 619.757 0.327881 1.6691 0
M  V30 6484 O 620.942 0.540362 1.86531 0
M  V30 6485 C 618.072 1.35876 3.19617 0
M  V30 6486 C 617.026 2.47976 3.48844 0
M  V30 6487 C 616.352 2.21915 4.86475 0
M  V30 6488 C 617.652 3.90309 3.47068 0
M  V30 6489 H 619.346 2.41247 1.77314 0
M  V30 6490 H 616.892 1.16116 0.851651 0
M  V30 6491 H 618.845 1.38134 3.98117 0
M  V30 6492 H 617.569 0.38116 3.24368 0
M  V30 6493 H 616.228 2.45013 2.72698 0
M  V30 6494 H 615.876 1.2248 4.8786 0
M  V30 6495 H 615.576 2.97037 5.06994 0
M  V30 6496 H 617.1 2.25901 5.67275 0
M  V30 6497 H 618.514 3.94947 4.1556 0
M  V30 6498 H 616.911 4.65175 3.7912 0
M  V30 6499 H 617.981 4.17927 2.45896 0
M  V30 6500 N 619.324 -0.923095 1.27737 0
M  V30 6501 C 620.572 -1.66797 1.14119 0
M  V30 6502 C 620.893 -1.92479 -0.312541 0
M  V30 6503 O 620.163 -1.53432 -1.218 0
M  V30 6504 H 618.743 -0.618196 0.419336 0
M  V30 6505 H 621.405 -1.10815 1.60331 0
M  V30 6506 H 620.501 -2.63424 1.67374 0
M  V30 6507 N 620.802 -1.09834 -1.13024 0
M  V30 6508 C 622.049 -0.83695 -1.84395 0
M  V30 6509 C 622.377 0.637463 -1.83757 0
M  V30 6510 O 621.632 1.48554 -1.27398 0
M  V30 6511 C 621.931 -1.32263 -3.32026 0
M  V30 6512 C 621.597 -2.80739 -3.52841 0
M  V30 6513 C 620.259 -3.21286 -3.5823 0
M  V30 6514 C 622.611 -3.76449 -3.60466 0
M  V30 6515 C 619.939 -4.56308 -3.68781 0
M  V30 6516 C 622.291 -5.11266 -3.72546 0
M  V30 6517 C 620.955 -5.51397 -3.76189 0
M  V30 6518 H 620.225 -0.306262 -0.674748 0
M  V30 6519 H 622.872 -1.37385 -1.33408 0
M  V30 6520 H 621.177 -0.705618 -3.85394 0
M  V30 6521 H 622.874 -1.09695 -3.85705 0
M  V30 6522 H 619.464 -2.48363 -3.49305 0
M  V30 6523 H 623.648 -3.46234 -3.55578 0
M  V30 6524 H 618.904 -4.86832 -3.69871 0
M  V30 6525 H 623.078 -5.85279 -3.77388 0
M  V30 6526 H 620.705 -6.56017 -3.84117 0
M  V30 6527 N 622.28 1.30327 -0.886154 0
M  V30 6528 C 623.505 2.0079 -0.519425 0
M  V30 6529 C 623.93 1.65979 0.885013 0
M  V30 6530 O 623.288 0.877043 1.58675 0
M  V30 6531 C 623.336 3.53686 -0.702758 0
M  V30 6532 O 622.44 4.11637 0.250828 0
M  V30 6533 H 621.781 0.63171 -0.204544 0
M  V30 6534 H 624.311 1.66145 -1.19402 0
M  V30 6535 H 624.321 4.03531 -0.602207 0
M  V30 6536 H 622.996 3.78361 -1.72673 0
M  V30 6537 H 621.573 3.72755 0.103873 0
M  V30 6538 N 623.758 0.647228 1.43697 0
M  V30 6539 C 624.721 -0.0385101 2.29168 0
M  V30 6540 C 625.721 -0.756487 1.41894 0
M  V30 6541 O 626.911 -0.598641 1.63591 0
M  V30 6542 C 624.043 -1.06524 3.23829 0
M  V30 6543 H 625.236 0.713445 2.9129 0
M  V30 6544 H 622.789 0.408153 1.50877 0
M  V30 6545 H 623.524 -1.84664 2.66589 0
M  V30 6546 H 623.309 -0.554147 3.88164 0
M  V30 6547 H 624.799 -1.54432 3.87996 0
M  V30 6548 N 625.236 -1.5273 0.388769 0
M  V30 6549 C 626.183 -2.26437 -0.446639 0
M  V30 6550 C 627.153 -1.28025 -1.05824 0
M  V30 6551 O 628.338 -1.56852 -1.08637 0
M  V30 6552 C 625.478 -3.07407 -1.56828 0
M  V30 6553 C 624.591 -4.20747 -0.979589 0
M  V30 6554 C 623.726 -4.89113 -2.07224 0
M  V30 6555 C 622.765 -5.94447 -1.45942 0
M  V30 6556 N 621.902 -6.56411 -2.49135 0
M  V30 6557 H 626.742 -2.97404 0.18837 0
M  V30 6558 H 624.279 -1.46727 0.104725 0
M  V30 6559 H 626.237 -3.52642 -2.22934 0
M  V30 6560 H 624.867 -2.3865 -2.17361 0
M  V30 6561 H 623.919 -3.7983 -0.208151 0
M  V30 6562 H 625.231 -4.9637 -0.491747 0
M  V30 6563 H 624.385 -5.3765 -2.81101 0
M  V30 6564 H 623.124 -4.13013 -2.59368 0
M  V30 6565 H 622.129 -5.4525 -0.705894 0
M  V30 6566 H 623.354 -6.7248 -0.945932 0
M  V30 6567 H 621.3 -5.83152 -3.00449 0
M  V30 6568 H 621.217 -7.27645 -2.05105 0
M  V30 6569 H 622.485 -7.09592 -3.22644 0
M  V30 6570 N 626.714 -0.118576 -1.57153 0
M  V30 6571 C 627.624 0.845484 -2.18835 0
M  V30 6572 C 628.64 1.29299 -1.16438 0
M  V30 6573 O 629.816 1.35607 -1.48905 0
M  V30 6574 C 626.881 2.07795 -2.77529 0
M  V30 6575 C 625.942 1.6824 -3.9496 0
M  V30 6576 C 625.175 2.85612 -4.50845 0
M  V30 6577 O 625.398 4.01025 -4.05629 0
M  V30 6578 O 624.332 2.62721 -5.41536 0
M  V30 6579 H 628.158 0.350568 -3.0167 0
M  V30 6580 H 625.743 0.107013 -1.49016 0
M  V30 6581 H 627.625 2.79978 -3.14945 0
M  V30 6582 H 626.3 2.56294 -1.97725 0
M  V30 6583 H 625.207 0.931663 -3.62313 0
M  V30 6584 H 626.54 1.24484 -4.76198 0
M  V30 6585 N 628.193 1.56834 0.155195 0
M  V30 6586 C 629.156 1.96748 1.17571 0
M  V30 6587 C 630.156 0.853006 1.3631 0
M  V30 6588 O 631.346 1.11978 1.33441 0
M  V30 6589 C 628.478 2.27631 2.53765 0
M  V30 6590 H 629.671 2.88085 0.833498 0
M  V30 6591 H 627.224 1.51141 0.398242 0
M  V30 6592 H 627.959 1.39059 2.92973 0
M  V30 6593 H 627.744 3.0888 2.41527 0
M  V30 6594 H 629.234 2.59377 3.27282 0
M  V30 6595 N 629.671 -0.424282 1.51781 0
M  V30 6596 C 630.603 -1.53457 1.70246 0
M  V30 6597 C 631.616 -1.52004 0.582967 0
M  V30 6598 O 632.805 -1.56544 0.857683 0
M  V30 6599 C 629.905 -2.92368 1.71389 0
M  V30 6600 C 629.078 -3.1818 3.00133 0
M  V30 6601 C 628.137 -4.36884 2.9329 0
M  V30 6602 O 627.163 -4.34901 3.67219 0
M  V30 6603 N 628.365 -5.4117 2.10036 0
M  V30 6604 H 631.13 -1.38017 2.66029 0
M  V30 6605 H 628.691 -0.613394 1.4983 0
M  V30 6606 H 630.683 -3.6982 1.64362 0
M  V30 6607 H 629.253 -3.0134 0.831449 0
M  V30 6608 H 628.473 -2.28908 3.20928 0
M  V30 6609 H 629.761 -3.32261 3.85331 0
M  V30 6610 H 629.159 -5.45623 1.49373 0
M  V30 6611 H 627.716 -6.17425 2.08878 0
M  V30 6612 N 631.149 -1.42148 -0.680565 0
M  V30 6613 C 632.426 -1.32795 -1.43614 0
M  V30 6614 C 632.806 0.037415 -2.11067 0
M  V30 6615 O 632.154 1.05258 -2.02813 0
M  V30 6616 C 632.364 -2.49206 -2.44331 0
M  V30 6617 C 633.712 -2.91059 -3.09144 0
M  V30 6618 O 634.736 -2.49054 -2.54657 0
M  V30 6619 O 633.595 -3.63741 -4.07866 0
M  V30 6620 H 630.689 -0.523397 -0.640301 0
M  V30 6621 H 633.235 -1.54144 -0.709775 0
M  V30 6622 H 632.007 -3.40252 -1.93247 0
M  V30 6623 H 631.63 -2.29813 -3.24456 0
M  V30 6624 N 632.627 0.916307 -1.28225 0
M  V30 6625 C 633.855 1.69901 -1.18073 0
M  V30 6626 C 634.27 1.86988 0.260968 0
M  V30 6627 O 633.627 1.39505 1.17663 0
M  V30 6628 C 633.678 3.09254 -1.87201 0
M  V30 6629 O 633.399 2.92959 -3.2574 0
M  V30 6630 C 634.9 4.0362 -1.83319 0
M  V30 6631 H 632.12 0.531181 -0.409985 0
M  V30 6632 H 634.664 1.14703 -1.69303 0
M  V30 6633 H 632.819 3.61277 -1.39848 0
M  V30 6634 H 633.233 3.81139 -3.60324 0
M  V30 6635 H 634.707 4.98873 -2.36282 0
M  V30 6636 H 635.184 4.3176 -0.805007 0
M  V30 6637 H 635.79 3.57524 -2.3034 0
M  V30 6638 N 634.105 1.10431 1.1244 0
M  V30 6639 C 635.33 0.869089 1.88313 0
M  V30 6640 C 635.755 -0.574912 1.79099 0
M  V30 6641 O 635.113 -1.40496 1.14589 0
M  V30 6642 C 635.161 1.32208 3.3549 0
M  V30 6643 O 634.265 0.487092 4.09513 0
M  V30 6644 H 633.606 0.313894 0.585121 0
M  V30 6645 H 636.136 1.47111 1.42195 0
M  V30 6646 H 636.146 1.31201 3.86329 0
M  V30 6647 H 634.821 2.37364 3.41513 0
M  V30 6648 H 633.398 0.562372 3.68635 0
M  V30 6649 N 635.583 -1.29855 0.893053 0
M  V30 6650 C 636.86 -1.90694 0.435336 0
M  V30 6651 C 637.24 -1.8111 -1.08454 0
M  V30 6652 O 636.588 -1.23352 -1.92345 0
M  V30 6653 C 636.798 -3.36033 0.942472 0
M  V30 6654 C 638.146 -4.13083 0.982226 0
M  V30 6655 O 639.17 -3.4491 0.889686 0
M  V30 6656 O 638.029 -5.34896 1.12022 0
M  V30 6657 H 635.123 -0.815978 0.134567 0
M  V30 6658 H 637.669 -1.38367 0.982484 0
M  V30 6659 H 636.441 -3.37132 1.9864 0
M  V30 6660 H 636.064 -3.95828 0.374952 0
M  V30 6661 N 637.061 -0.65484 -1.43351 0
M  V30 6662 C 638.309 -0.168559 -2.01396 0
M  V30 6663 C 638.63 1.22235 -1.51933 0
M  V30 6664 O 637.9 1.81685 -0.732627 0
M  V30 6665 H 636.48 -0.0593244 -0.744641 0
M  V30 6666 H 639.142 -0.846871 -1.75539 0
M  V30 6667 H 638.238 -0.154428 -3.11718 0
M  V30 6668 N 638.539 1.52521 -0.396863 0
M  V30 6669 C 639.788 2.00857 0.184184 0
M  V30 6670 C 640.101 1.28733 1.47265 0
M  V30 6671 O 641.307 1.67821 2.13421 0
M  V30 6672 C 639.763 3.57901 0.378787 0
M  V30 6673 C 639.371 4.38931 -0.896873 0
M  V30 6674 C 641.115 4.14504 0.915789 0
M  V30 6675 C 639.022 5.87591 -0.670133 0
M  V30 6676 H 637.952 0.750496 0.0726055 0
M  V30 6677 H 640.603 1.75965 -0.520425 0
M  V30 6678 H 638.985 3.79072 1.14543 0
M  V30 6679 H 640.159 4.29524 -1.66872 0
M  V30 6680 H 638.474 3.93586 -1.35938 0
M  V30 6681 H 641.071 5.23236 1.10126 0
M  V30 6682 H 641.414 3.71076 1.88701 0
M  V30 6683 H 641.947 3.97253 0.208523 0
M  V30 6684 H 638.686 6.35355 -1.61257 0
M  V30 6685 H 638.206 5.99767 0.0626368 0
M  V30 6686 H 639.885 6.46268 -0.307577 0
M  V30 6687 N 640.017 0.126909 1.57088 0
M  V30 6688 C 641.266 -0.529024 1.94639 0
M  V30 6689 C 641.579 -1.67323 1.01304 0
M  V30 6690 O 642.785 -2.39245 1.28352 0
M  V30 6691 C 641.241 -0.992483 3.45945 0
M  V30 6692 C 640.849 0.123691 4.47829 0
M  V30 6693 C 642.593 -1.61934 3.924 0
M  V30 6694 C 640.5 -0.356911 5.90322 0
M  V30 6695 H 639.43 -0.201397 0.726605 0
M  V30 6696 H 642.081 0.208032 1.82317 0
M  V30 6697 H 640.463 -1.7842 3.53528 0
M  V30 6698 H 641.637 0.900168 4.51922 0
M  V30 6699 H 639.952 0.657699 4.11173 0
M  V30 6700 H 642.549 -1.9902 4.96281 0
M  V30 6701 H 642.892 -2.50075 3.32819 0
M  V30 6702 H 643.425 -0.892894 3.8765 0
M  V30 6703 H 640.164 0.488636 6.53676 0
M  V30 6704 H 639.684 -1.0997 5.89633 0
M  V30 6705 H 641.363 -0.815547 6.41839 0
M  V30 6706 N 641.495 -1.56914 -0.146875 0
M  V30 6707 C 642.427 -1.94878 -1.20645 0
M  V30 6708 C 643.44 -0.844633 -1.39175 0
M  V30 6709 O 644.629 -1.12304 -1.38744 0
M  V30 6710 C 641.729 -2.20769 -2.57127 0
M  V30 6711 C 640.902 -3.52053 -2.59572 0
M  V30 6712 C 639.961 -3.66482 -3.77594 0
M  V30 6713 O 638.987 -4.38873 -3.62462 0
M  V30 6714 N 640.189 -3.03156 -4.95052 0
M  V30 6715 H 642.954 -2.86374 -0.883757 0
M  V30 6716 H 640.515 -1.58366 -0.336436 0
M  V30 6717 H 642.507 -2.27664 -3.34591 0
M  V30 6718 H 641.077 -1.35538 -2.81688 0
M  V30 6719 H 640.297 -3.56598 -1.68023 0
M  V30 6720 H 641.585 -4.38396 -2.58238 0
M  V30 6721 H 640.983 -2.44258 -5.10249 0
M  V30 6722 H 639.54 -3.15611 -5.70292 0
M  V30 6723 N 642.974 0.416227 -1.52004 0
M  V30 6724 C 643.921 1.50666 -1.74838 0
M  V30 6725 C 644.891 1.55245 -0.590599 0
M  V30 6726 O 646.076 1.71928 -0.827374 0
M  V30 6727 C 643.216 2.88185 -1.89851 0
M  V30 6728 C 642.329 2.92971 -3.17478 0
M  V30 6729 C 641.464 4.21745 -3.22962 0
M  V30 6730 C 640.503 4.20478 -4.4482 0
M  V30 6731 N 639.64 5.40811 -4.47736 0
M  V30 6732 H 644.48 1.30498 -2.67907 0
M  V30 6733 H 642.017 0.633568 -1.32757 0
M  V30 6734 H 643.975 3.68007 -1.96537 0
M  V30 6735 H 642.605 3.06865 -1.00169 0
M  V30 6736 H 641.657 2.05684 -3.19997 0
M  V30 6737 H 642.969 2.87899 -4.07328 0
M  V30 6738 H 642.123 5.09954 -3.28682 0
M  V30 6739 H 640.862 4.29503 -2.31038 0
M  V30 6740 H 639.867 3.30659 -4.39254 0
M  V30 6741 H 641.092 4.14366 -5.38031 0
M  V30 6742 H 639.038 5.4925 -3.58692 0
M  V30 6743 H 638.955 5.37705 -5.31422 0
M  V30 6744 H 640.223 6.30993 -4.57676 0
M  V30 6745 N 644.452 1.42507 0.673017 0
M  V30 6746 C 645.4 1.46362 1.80779 0
M  V30 6747 C 646.394 0.339166 1.6597 0
M  V30 6748 O 647.6 0.512262 1.72557 0
M  V30 6749 H 643.975 0.458433 0.596107 0
M  V30 6750 H 645.946 2.41953 1.74646 0
M  V30 6751 C 644.695 1.38462 3.18941 0
M  V30 6752 H 644.018 2.24283 3.30964 0
M  V30 6753 H 645.458 1.45221 3.98355 0
M  V30 6754 C 643.917 0.0996354 3.36753 0
M  V30 6755 O 644.447 -0.846894 3.92671 0
M  V30 6756 N 642.653 0.016211 2.90595 0
M  V30 6757 H 642.2 0.78725 2.45276 0
M  V30 6758 H 642.158 -0.84291 3.0289 0
M  V30 6759 N 645.93 -0.909495 1.28709 0
M  V30 6760 C 647.155 -1.69801 1.1909 0
M  V30 6761 C 647.58 -1.86479 -0.246388 0
M  V30 6762 O 646.938 -1.37802 -1.17815 0
M  V30 6763 C 646.986 -3.06543 1.89904 0
M  V30 6764 O 646.09 -3.94268 1.2094 0
M  V30 6765 H 645.431 -0.519783 0.413185 0
M  V30 6766 H 647.961 -1.13689 1.70106 0
M  V30 6767 H 647.971 -3.56748 1.97977 0
M  V30 6768 H 646.646 -2.93722 2.94449 0
M  V30 6769 H 645.223 -3.52702 1.2106 0
M  V30 6770 N 647.408 -1.11026 -1.11852 0
M  V30 6771 C 648.638 -0.877544 -1.87037 0
M  V30 6772 C 649.046 0.575925 -1.80221 0
M  V30 6773 O 648.389 1.40916 -1.17849 0
M  V30 6774 C 648.451 -1.25529 -3.36872 0
M  V30 6775 C 648.115 -2.71704 -3.67459 0
M  V30 6776 C 649.112 -3.69931 -3.65304 0
M  V30 6777 C 646.797 -3.08243 -3.966 0
M  V30 6778 C 648.791 -5.02717 -3.9186 0
M  V30 6779 C 646.478 -4.41215 -4.22815 0
M  V30 6780 C 647.476 -5.38262 -4.20432 0
M  V30 6781 O 647.164 -6.68839 -4.45992 0
M  V30 6782 H 646.896 -0.314374 -0.598452 0
M  V30 6783 H 649.45 -1.48015 -1.42411 0
M  V30 6784 H 647.68 -0.595808 -3.82082 0
M  V30 6785 H 649.369 -0.999064 -3.93413 0
M  V30 6786 H 650.135 -3.43047 -3.42846 0
M  V30 6787 H 646.014 -2.33326 -3.97593 0
M  V30 6788 H 649.558 -5.78456 -3.89916 0
M  V30 6789 H 645.455 -4.67835 -4.44748 0
M  V30 6790 H 646.223 -6.74563 -4.63581 0
M  V30 6791 N 648.886 1.2938 -0.899927 0
M  V30 6792 C 650.302 1.48052 -0.596059 0
M  V30 6793 C 650.502 1.82114 0.862372 0
M  V30 6794 O 649.558 1.91774 1.64253 0
M  V30 6795 C 650.871 2.59332 -1.52208 0
M  V30 6796 C 652.419 2.73208 -1.5273 0
M  V30 6797 C 652.894 3.87617 -2.43961 0
M  V30 6798 N 654.385 3.9495 -2.42009 0
M  V30 6799 C 655.12 4.82824 -3.09303 0
M  V30 6800 N 654.616 5.75387 -3.85877 0
M  V30 6801 N 656.409 4.76317 -2.98459 0
M  V30 6802 H 648.56 1.05546 -1.8432 0
M  V30 6803 H 650.823 0.524314 -0.78981 0
M  V30 6804 H 650.529 2.41029 -2.56121 0
M  V30 6805 H 650.403 3.56139 -1.24278 0
M  V30 6806 H 652.79 2.90908 -0.495614 0
M  V30 6807 H 652.871 1.76975 -1.84698 0
M  V30 6808 H 652.515 3.70672 -3.47224 0
M  V30 6809 H 652.445 4.83218 -2.09303 0
M  V30 6810 H 654.936 3.28744 -1.86375 0
M  V30 6811 H 655.249 6.39235 -4.34279 0
M  V30 6812 H 653.594 5.75272 -3.89984 0
M  V30 6813 H 656.785 4.0299 -2.38152 0
M  V30 6814 H 656.958 5.44589 -3.51179 0
M  V30 6815 N 650.364 0.662433 1.43002 0
M  V30 6816 C 651.594 0.187343 2.05749 0
M  V30 6817 C 652.002 -1.15582 1.49791 0
M  V30 6818 O 651.345 -1.72651 0.627487 0
M  V30 6819 C 651.407 0.0316493 3.59486 0
M  V30 6820 C 651.071 1.30156 4.38073 0
M  V30 6821 C 652.068 2.23234 4.69535 0
M  V30 6822 C 649.753 1.54572 4.77926 0
M  V30 6823 C 651.747 3.39012 5.39768 0
M  V30 6824 C 649.434 2.70641 5.47902 0
M  V30 6825 C 650.432 3.62687 5.78746 0
M  V30 6826 O 650.12 4.76728 6.47291 0
M  V30 6827 H 649.852 0.0915214 0.669776 0
M  V30 6828 H 652.406 0.905982 1.8434 0
M  V30 6829 H 650.636 -0.742451 3.79506 0
M  V30 6830 H 652.325 -0.401977 4.03905 0
M  V30 6831 H 653.091 2.05616 4.39257 0
M  V30 6832 H 648.97 0.83804 4.53319 0
M  V30 6833 H 652.514 4.10877 5.63761 0
M  V30 6834 H 648.411 2.88189 5.77596 0
M  V30 6835 H 649.179 4.76113 6.65777 0
M  V30 6836 N 651.842 -1.52309 0.404946 0
M  V30 6837 C 653.119 -1.94237 -0.230544 0
M  V30 6838 C 653.499 -1.34154 -1.6299 0
M  V30 6839 O 652.847 -0.515713 -2.22604 0
M  V30 6840 C 653.057 -3.48166 -0.241106 0
M  V30 6841 C 654.405 -4.22074 -0.462488 0
M  V30 6842 O 655.429 -3.54754 -0.320644 0
M  V30 6843 O 654.288 -5.41443 -0.741708 0
M  V30 6844 H 651.382 -0.813766 -0.147358 0
M  V30 6845 H 653.928 -1.6333 0.460587 0
M  V30 6846 H 652.7 -3.84269 0.738467 0
M  V30 6847 H 652.323 -3.85422 -0.97651 0
M  V30 6848 N 653.32 -0.135238 -1.57019 0
M  V30 6849 C 654.27 0.820408 -2.12728 0
M  V30 6850 C 655.254 1.21735 -1.05211 0
M  V30 6851 O 656.446 1.18574 -1.31413 0
M  V30 6852 C 653.575 2.06414 -2.74314 0
M  V30 6853 C 652.661 1.69083 -3.88937 0
M  V30 6854 N 653.052 1.0251 -4.95303 0
M  V30 6855 C 651.35 1.98434 -3.99425 0
M  V30 6856 C 652.051 0.846749 -5.75504 0
M  V30 6857 N 651.027 1.3769 -5.25873 0
M  V30 6858 H 654.829 0.302426 -2.9234 0
M  V30 6859 H 652.343 0.0667009 -1.62263 0
M  V30 6860 H 654.34 2.75863 -3.12579 0
M  V30 6861 H 653 2.58741 -1.96171 0
M  V30 6862 H 654.011 0.687207 -5.1332 0
M  V30 6863 H 650.688 2.52693 -3.32344 0
M  V30 6864 H 652.078 0.322949 -6.71123 0
M  V30 6865 N 654.798 1.5699 0.138552 0
M  V30 6866 C 656.023 1.88344 0.86841 0
M  V30 6867 C 656.448 0.725159 1.7356 0
M  V30 6868 O 655.806 -0.324992 1.78363 0
M  V30 6869 C 655.854 3.18334 1.69398 0
M  V30 6870 O 654.958 3.02863 2.79907 0
M  V30 6871 H 654.299 0.618577 0.241367 0
M  V30 6872 H 656.829 2.04207 0.126826 0
M  V30 6873 H 656.839 3.50567 2.08726 0
M  V30 6874 H 655.514 4.02238 1.05725 0
M  V30 6875 H 654.091 2.82056 2.43924 0
M  V30 6876 N 656.276 -0.40816 1.52223 0
M  V30 6877 C 657.522 -1.15673 1.66576 0
M  V30 6878 C 657.855 -1.90141 0.394996 0
M  V30 6879 O 657.13 -1.84798 -0.606613 0
M  V30 6880 C 657.413 -2.15042 2.88841 0
M  V30 6881 C 657.266 -1.44465 4.25969 0
M  V30 6882 C 658.585 -3.15699 3.0663 0
M  V30 6883 H 655.704 -0.41916 0.606196 0
M  V30 6884 H 658.346 -0.442348 1.84779 0
M  V30 6885 H 656.496 -2.75964 2.73452 0
M  V30 6886 H 658.168 -0.866544 4.53088 0
M  V30 6887 H 656.411 -0.746612 4.27327 0
M  V30 6888 H 657.082 -2.16976 5.07568 0
M  V30 6889 H 659.558 -2.64854 3.20923 0
M  V30 6890 H 658.434 -3.82491 3.9369 0
M  V30 6891 H 658.695 -3.83481 2.19987 0
M  V30 6892 N 657.755 -1.42862 -0.66545 0
M  V30 6893 C 658.98 -1.47456 -1.45848 0
M  V30 6894 C 659.405 -0.0900312 -1.87884 0
M  V30 6895 O 658.763 0.913587 -1.56599 0
M  V30 6896 C 658.811 -2.41514 -2.67774 0
M  V30 6897 O 657.915 -1.89296 -3.66389 0
M  V30 6898 H 657.256 -0.499236 -0.437789 0
M  V30 6899 H 659.786 -1.8765 -0.815394 0
M  V30 6900 H 659.796 -2.58409 -3.15735 0
M  V30 6901 H 658.471 -3.42099 -2.36519 0
M  V30 6902 H 657.048 -1.82003 -3.25468 0
M  V30 6903 N 659.233 0.902656 -1.29189 0
M  V30 6904 C 660.181 2.0278 -1.13943 0
M  V30 6905 C 661.175 1.69308 -0.055787 0
M  V30 6906 O 662.381 1.78707 -0.215371 0
M  V30 6907 H 658.756 0.664595 -0.351877 0
M  V30 6908 H 660.727 2.12778 -2.09208 0
M  V30 6909 C 659.476 3.37657 -0.82966 0
M  V30 6910 H 658.799 3.63913 -1.65551 0
M  V30 6911 H 660.239 4.17078 -0.762998 0
M  V30 6912 C 658.698 3.33648 0.466991 0
M  V30 6913 O 659.228 3.72886 1.49395 0
M  V30 6914 N 657.434 2.86745 0.471761 0
M  V30 6915 H 656.981 2.55009 -0.364406 0
M  V30 6916 H 656.939 2.84446 1.33933 0
M  V30 6917 N 660.711 1.11618 1.11262 0
M  V30 6918 C 661.988 0.777876 1.79467 0
M  V30 6919 C 662.368 -0.733774 1.97937 0
M  V30 6920 O 661.716 -1.66443 1.56554 0
M  V30 6921 C 661.926 1.5431 3.13032 0
M  V30 6922 C 663.274 1.72357 3.88044 0
M  V30 6923 O 664.298 1.5075 3.22727 0
M  V30 6924 O 663.157 2.08276 5.05256 0
M  V30 6925 H 660.251 0.282018 0.777428 0
M  V30 6926 H 662.797 1.21971 1.17988 0
M  V30 6927 H 661.569 2.57132 2.94956 0
M  V30 6928 H 661.192 1.09495 3.82226 0
M  V30 6929 N 662.189 -1.289 0.906776 0
M  V30 6930 C 663.136 -2.2751 0.388313 0
M  V30 6931 C 664.106 -1.57301 -0.533439 0
M  V30 6932 O 665.291 -1.85243 -0.457148 0
M  V30 6933 C 662.431 -3.43091 -0.37181 0
M  V30 6934 C 661.544 -4.28066 0.581647 0
M  V30 6935 C 660.679 -5.30837 -0.19623 0
M  V30 6936 C 659.718 -6.07472 0.751294 0
M  V30 6937 N 658.855 -7.021 0.00737727 0
M  V30 6938 H 663.695 -2.71237 1.23428 0
M  V30 6939 H 661.232 -1.33397 0.619962 0
M  V30 6940 H 663.19 -4.08888 -0.828641 0
M  V30 6941 H 661.82 -3.00374 -1.18218 0
M  V30 6942 H 660.872 -3.62378 1.157 0
M  V30 6943 H 662.184 -4.81382 1.30665 0
M  V30 6944 H 661.338 -6.02485 -0.71394 0
M  V30 6945 H 660.077 -4.78272 -0.954324 0
M  V30 6946 H 659.082 -5.34682 1.28044 0
M  V30 6947 H 660.307 -6.62126 1.50883 0
M  V30 6948 H 658.253 -6.51894 -0.732854 0
M  V30 6949 H 658.17 -7.53004 0.672334 0
M  V30 6950 H 659.438 -7.77956 -0.490365 0
M  V30 6951 N 663.667 -0.670007 -1.42649 0
M  V30 6952 C 664.63 0.00204659 -2.292 0
M  V30 6953 C 665.63 0.733817 -1.4308 0
M  V30 6954 O 666.82 0.57254 -1.64522 0
M  V30 6955 C 663.952 1.01359 -3.25483 0
M  V30 6956 H 665.145 -0.759696 -2.90118 0
M  V30 6957 H 662.698 -0.432105 -1.50208 0
M  V30 6958 H 663.433 1.80399 -2.69493 0
M  V30 6959 H 663.218 0.492323 -3.88997 0
M  V30 6960 H 664.708 1.4824 -3.90403 0
M  V30 6961 N 665.145 1.52092 -0.413018 0
M  V30 6962 C 666.075 2.30021 0.401567 0
M  V30 6963 C 667.056 1.34395 1.04269 0
M  V30 6964 O 668.241 1.63304 1.05097 0
M  V30 6965 C 665.371 3.12447 1.51638 0
M  V30 6966 C 664.325 4.16153 1.00005 0
M  V30 6967 C 663.651 4.86948 2.20875 0
M  V30 6968 C 664.951 5.22275 0.0513757 0
M  V30 6969 H 666.645 2.98365 -0.248704 0
M  V30 6970 H 664.191 1.4349 -0.121052 0
M  V30 6971 H 666.144 3.65733 2.09326 0
M  V30 6972 H 664.868 2.41879 2.19458 0
M  V30 6973 H 663.527 3.63882 0.445549 0
M  V30 6974 H 663.175 4.12905 2.8726 0
M  V30 6975 H 662.875 5.57057 1.86978 0
M  V30 6976 H 664.399 5.43048 2.79162 0
M  V30 6977 H 665.813 5.70778 0.537176 0
M  V30 6978 H 664.21 5.9977 -0.198977 0
M  V30 6979 H 665.28 4.76611 -0.892736 0
M  V30 6980 N 666.623 0.143563 1.56945 0
M  V30 6981 C 667.556 -0.835367 2.1236 0
M  V30 6982 C 668.534 -1.24466 1.04627 0
M  V30 6983 O 669.718 -1.34138 1.32436 0
M  V30 6984 C 666.845 -2.12123 2.64048 0
M  V30 6985 C 665.891 -1.85812 3.83896 0
M  V30 6986 S 666.724 -1.05222 5.25061 0
M  V30 6987 C 667.88 -2.34935 5.80135 0
M  V30 6988 H 668.113 -0.364109 2.95062 0
M  V30 6989 H 665.646 -0.0706601 1.54238 0
M  V30 6990 H 667.604 -2.85993 2.94479 0
M  V30 6991 H 666.265 -2.56364 1.81483 0
M  V30 6992 H 665.458 -2.81151 4.18294 0
M  V30 6993 H 665.06 -1.20052 3.54208 0
M  V30 6994 H 667.352 -3.3061 5.91357 0
M  V30 6995 H 668.295 -2.05046 6.77762 0
M  V30 6996 H 668.703 -2.45426 5.08356 0
M  V30 6997 N 668.101 -1.57061 -0.130224 0
M  V30 6998 C 669.347 -1.8453 -0.841216 0
M  V30 6999 C 669.68 -0.727666 -1.80052 0
M  V30 7000 O 668.955 0.267419 -1.92653 0
M  V30 7001 C 669.238 -3.22553 -1.60099 0
M  V30 7002 C 669.091 -4.44901 -0.662048 0
M  V30 7003 C 670.41 -3.58003 -2.55973 0
M  V30 7004 H 667.529 -0.671215 -0.304366 0
M  V30 7005 H 670.171 -1.89705 -0.105821 0
M  V30 7006 H 668.321 -3.18272 -2.22789 0
M  V30 7007 H 669.993 -4.61278 -0.0448559 0
M  V30 7008 H 668.236 -4.33791 0.0272253 0
M  V30 7009 H 668.907 -5.3812 -1.23006 0
M  V30 7010 H 671.383 -3.63002 -2.03393 0
M  V30 7011 H 670.259 -4.55576 -3.06172 0
M  V30 7012 H 670.52 -2.84833 -3.38116 0
M  V30 7013 N 669.579 0.400081 -1.52437 0
M  V30 7014 C 670.509 1.4947 -1.7939 0
M  V30 7015 C 671.49 1.57383 -0.645329 0
M  V30 7016 O 672.675 1.72511 -0.891826 0
M  V30 7017 C 669.805 2.87201 -1.95276 0
M  V30 7018 C 668.759 2.94134 -3.10917 0
M  V30 7019 C 668.085 4.34207 -3.1204 0
M  V30 7020 C 669.385 2.64791 -4.50203 0
M  V30 7021 H 671.079 1.27165 -2.71052 0
M  V30 7022 H 668.625 0.610312 -1.30427 0
M  V30 7023 H 670.578 3.63772 -2.12715 0
M  V30 7024 H 669.302 3.10819 -1.00294 0
M  V30 7025 H 667.961 2.20009 -2.93243 0
M  V30 7026 H 667.609 4.54848 -2.14761 0
M  V30 7027 H 667.309 4.39768 -3.89715 0
M  V30 7028 H 668.833 5.127 -3.31619 0
M  V30 7029 H 670.247 3.31083 -4.68035 0
M  V30 7030 H 668.644 2.81717 -5.29864 0
M  V30 7031 H 669.714 1.60184 -4.57678 0
M  V30 7032 N 671.057 1.43213 0.657864 0
M  V30 7033 C 672.285 1.48015 1.44566 0
M  V30 7034 C 672.7 0.0965951 1.88553 0
M  V30 7035 O 672.057 -0.892221 1.59203 0
M  V30 7036 C 672.108 2.42199 2.68369 0
M  V30 7037 O 671.829 3.75173 2.26223 0
M  V30 7038 C 673.33 2.56195 3.61772 0
M  V30 7039 H 670.55 0.502861 0.444266 0
M  V30 7040 H 673.094 1.87907 0.806917 0
M  V30 7041 H 671.249 2.05514 3.28394 0
M  V30 7042 H 671.663 4.25776 3.06293 0
M  V30 7043 H 673.137 3.26182 4.4532 0
M  V30 7044 H 673.614 1.60534 4.0881 0
M  V30 7045 H 674.22 2.93671 3.07632 0
M  V30 7046 N 672.536 -0.895792 1.29666 0
M  V30 7047 C 673.446 -2.03329 1.17024 0
M  V30 7048 C 674.462 -1.73753 0.0925962 0
M  V30 7049 O 675.638 -1.99071 0.305431 0
M  V30 7050 C 672.703 -3.36072 0.851841 0
M  V30 7051 C 671.764 -3.7914 2.01373 0
M  V30 7052 C 670.997 -5.05549 1.71043 0
M  V30 7053 O 671.22 -5.66874 0.633213 0
M  V30 7054 O 670.154 -5.44764 2.5596 0
M  V30 7055 H 673.98 -2.16918 2.12556 0
M  V30 7056 H 671.565 -1.02007 1.09156 0
M  V30 7057 H 673.447 -4.15729 0.689006 0
M  V30 7058 H 672.122 -3.23616 -0.0736634 0
M  V30 7059 H 671.029 -3.00233 2.23183 0
M  V30 7060 H 672.362 -3.96186 2.92058 0
M  V30 7061 N 674.014 -1.12206 -1.10668 0
M  V30 7062 C 674.924 -0.800686 -2.20513 0
M  V30 7063 C 675.94 0.209512 -1.72734 0
M  V30 7064 O 677.116 0.043705 -2.01353 0
M  V30 7065 C 674.181 -0.257353 -3.45744 0
M  V30 7066 C 673.242 -1.32718 -4.0827 0
M  V30 7067 C 672.475 -0.809674 -5.27522 0
M  V30 7068 O 672.698 0.35742 -5.69279 0
M  V30 7069 O 671.632 -1.57816 -5.80842 0
M  V30 7070 H 675.458 -1.71807 -2.50432 0
M  V30 7071 H 673.043 -0.898546 -1.19359 0
M  V30 7072 H 674.925 0.0408849 -4.2138 0
M  V30 7073 H 673.6 0.632627 -3.17458 0
M  V30 7074 H 672.507 -1.67855 -3.34329 0
M  V30 7075 H 673.84 -2.19083 -4.40753 0
M  V30 7076 N 675.492 1.28418 -0.913599 0
M  V30 7077 C 676.903 1.77024 -0.593237 0
M  V30 7078 C 677.254 1.74779 0.891441 0
M  V30 7079 O 676.379 1.34237 1.69733 0
M  V30 7080 C 676.974 3.21456 -1.07011 0
M  V30 7081 C 675.533 3.67786 -0.800664 0
M  V30 7082 C 674.68 2.48185 -1.23691 0
M  V30 7083 H 677.631 1.14883 -1.09487 0
M  V30 7084 H 677.652 3.78269 -0.411481 0
M  V30 7085 H 677.164 3.23058 -2.1507 0
M  V30 7086 H 675.265 3.71644 0.266725 0
M  V30 7087 H 675.378 4.57934 -1.4083 0
M  V30 7088 H 673.742 2.46116 -0.655655 0
M  V30 7089 H 674.525 2.52506 -2.32585 0
M  V30 7090 N 676.97 0.677563 1.42291 0
M  V30 7091 C 677.9 0.014968 2.33495 0
M  V30 7092 C 678.881 -0.786376 1.50831 0
M  V30 7093 O 680.066 -0.742975 1.79426 0
M  V30 7094 C 677.196 -0.935023 3.34477 0
M  V30 7095 C 676.15 -0.242074 4.27315 0
M  V30 7096 C 675.476 -1.30519 5.18526 0
M  V30 7097 C 676.776 0.880604 5.14823 0
M  V30 7098 H 678.47 0.776671 2.89151 0
M  V30 7099 H 676.016 0.37494 1.39033 0
M  V30 7100 H 677.969 -1.40766 3.97194 0
M  V30 7101 H 676.693 -1.72818 2.77131 0
M  V30 7102 H 675.352 0.210351 3.65996 0
M  V30 7103 H 675 -2.09041 4.57505 0
M  V30 7104 H 674.7 -0.846652 5.81468 0
M  V30 7105 H 676.224 -1.7787 5.84119 0
M  V30 7106 H 677.638 0.489062 5.7121 0
M  V30 7107 H 676.035 1.26511 5.86613 0
M  V30 7108 H 677.105 1.72818 4.53059 0
M  V30 7109 N 678.448 -1.51871 0.421078 0
M  V30 7110 C 679.378 -2.30231 -0.389363 0
M  V30 7111 C 680.359 -1.34946 -1.03555 0
M  V30 7112 O 681.544 -1.63859 -1.04229 0
M  V30 7113 C 678.674 -3.13247 -1.49979 0
M  V30 7114 C 677.628 -4.16677 -0.977966 0
M  V30 7115 C 676.954 -4.88112 -2.1829 0
M  V30 7116 C 678.254 -5.22295 -0.0236775 0
M  V30 7117 H 679.948 -2.98229 0.264524 0
M  V30 7118 H 677.494 -1.43424 0.12866 0
M  V30 7119 H 679.447 -3.66838 -2.07383 0
M  V30 7120 H 678.171 -2.4304 -2.18173 0
M  V30 7121 H 676.83 -3.64114 -0.426245 0
M  V30 7122 H 676.478 -4.14423 -2.85066 0
M  V30 7123 H 676.178 -5.58041 -1.84021 0
M  V30 7124 H 677.702 -5.44521 -2.76278 0
M  V30 7125 H 679.116 -5.71055 -0.506899 0
M  V30 7126 H 677.513 -5.99656 0.230782 0
M  V30 7127 H 678.583 -4.76131 0.917999 0
M  V30 7128 N 679.926 -0.151884 -1.56866 0
M  V30 7129 C 681.156 0.504081 -2.00356 0
M  V30 7130 C 681.564 1.58639 -1.03103 0
M  V30 7131 O 680.907 1.83688 -0.0207931 0
M  V30 7132 C 680.969 1.15975 -3.40279 0
M  V30 7133 C 680.633 0.221453 -4.56463 0
M  V30 7134 C 681.63 -0.552766 -5.16953 0
M  V30 7135 C 679.315 0.122936 -5.0215 0
M  V30 7136 C 681.309 -1.4129 -6.21543 0
M  V30 7137 C 678.996 -0.740801 -6.06593 0
M  V30 7138 C 679.994 -1.50732 -6.6616 0
M  V30 7139 O 679.682 -2.35666 -7.68581 0
M  V30 7140 H 679.414 0.135279 -0.662326 0
M  V30 7141 H 681.968 -0.244916 -2.03935 0
M  V30 7142 H 680.198 1.95649 -3.33554 0
M  V30 7143 H 681.887 1.71594 -3.67846 0
M  V30 7144 H 682.653 -0.486716 -4.82552 0
M  V30 7145 H 678.532 0.70931 -4.5551 0
M  V30 7146 H 682.076 -2.01166 -6.67966 0
M  V30 7147 H 677.973 -0.808125 -6.40421 0
M  V30 7148 H 678.741 -2.28967 -7.85822 0
M  V30 7149 N 681.404 1.57128 0.121893 0
M  V30 7150 C 682.653 1.83888 0.828748 0
M  V30 7151 C 682.966 0.737087 1.81181 0
M  V30 7152 O 684.172 0.891007 2.56463 0
M  V30 7153 C 682.628 3.26014 1.52455 0
M  V30 7154 C 682.236 4.44195 0.58263 0
M  V30 7155 C 683.98 3.62025 2.21671 0
M  V30 7156 C 681.887 5.77349 1.28149 0
M  V30 7157 H 680.817 0.685856 0.313238 0
M  V30 7158 H 683.468 1.83319 0.0814851 0
M  V30 7159 H 681.85 3.21044 2.31834 0
M  V30 7160 H 683.024 4.60457 -0.177729 0
M  V30 7161 H 681.339 4.164 -0.00241228 0
M  V30 7162 H 683.936 4.58776 2.74643 0
M  V30 7163 H 684.279 2.89315 2.99337 0
M  V30 7164 H 684.812 3.68767 1.49184 0
M  V30 7165 H 681.551 6.53221 0.546189 0
M  V30 7166 H 681.071 5.64978 2.01394 0
M  V30 7167 H 682.75 6.21006 1.81549 0
M  V30 7168 N 682.882 -0.391992 1.52647 0
M  V30 7169 C 684.293 -0.970064 1.5952 0
M  V30 7170 C 684.644 -1.91059 0.446207 0
M  V30 7171 O 683.769 -2.12062 -0.431125 0
M  V30 7172 C 684.364 -1.76614 2.89125 0
M  V30 7173 C 682.923 -2.29396 2.9842 0
M  V30 7174 C 682.07 -1.09864 2.54608 0
M  V30 7175 H 685.021 -0.171638 1.57769 0
M  V30 7176 H 685.042 -2.62511 2.75442 0
M  V30 7177 H 684.554 -1.08135 3.72731 0
M  V30 7178 H 682.655 -3.01196 2.19344 0
M  V30 7179 H 682.768 -2.59088 4.03002 0
M  V30 7180 H 681.132 -1.45777 2.08857 0
M  V30 7181 H 681.915 -0.429249 3.40606 0
M  V30 7182 N 684.36 -1.4356 -0.65026 0
M  V30 7183 C 685.771 -1.40324 -1.2315 0
M  V30 7184 C 686.122 -0.108812 -1.95898 0
M  V30 7185 O 685.247 0.79163 -2.01401 0
M  V30 7186 C 685.842 -2.54195 -2.23987 0
M  V30 7187 C 684.401 -2.54215 -2.77582 0
M  V30 7188 C 683.548 -2.31752 -1.5227 0
M  V30 7189 H 686.499 -1.52418 -0.442095 0
M  V30 7190 H 686.52 -2.25854 -3.0622 0
M  V30 7191 H 686.032 -3.48392 -1.71011 0
M  V30 7192 H 684.133 -1.63907 -3.34612 0
M  V30 7193 H 684.246 -3.52081 -3.24925 0
M  V30 7194 H 682.61 -1.80476 -1.79723 0
M  V30 7195 H 683.393 -3.28037 -1.01225 0
M  V30 7196 N 685.838 0.888903 -1.30139 0
M  V30 7197 C 687.249 1.45578 -1.16893 0
M  V30 7198 C 687.6 1.94825 0.231866 0
M  V30 7199 O 686.725 1.84661 1.12824 0
M  V30 7200 C 687.32 2.646 -2.11595 0
M  V30 7201 C 685.879 3.17389 -2.02339 0
M  V30 7202 C 685.026 1.90081 -2.01902 0
M  V30 7203 H 687.977 0.69921 -1.42467 0
M  V30 7204 H 687.998 3.40687 -1.69449 0
M  V30 7205 H 687.51 2.28726 -3.13538 0
M  V30 7206 H 685.611 3.5793 -1.03523 0
M  V30 7207 H 685.724 3.80955 -2.90534 0
M  V30 7208 H 684.088 2.08246 -1.46648 0
M  V30 7209 H 684.871 1.5647 -3.05568 0
M  V30 7210 N 687.317 1.12792 1.10072 0
M  V30 7211 C 688.728 0.899346 1.63611 0
M  V30 7212 C 689.079 -0.565547 1.87872 0
M  V30 7213 O 688.204 -1.43081 1.62348 0
M  V30 7214 C 688.799 1.62608 2.97227 0
M  V30 7215 C 687.358 1.44356 3.47618 0
M  V30 7216 C 686.505 1.65958 2.22156 0
M  V30 7217 H 689.456 1.28216 0.935223 0
M  V30 7218 H 689.477 1.0793 3.64872 0
M  V30 7219 H 688.989 2.69221 2.79538 0
M  V30 7220 H 687.09 0.400148 3.70445 0
M  V30 7221 H 687.203 2.20218 4.25489 0
M  V30 7222 H 685.567 1.08395 2.30484 0
M  V30 7223 H 686.35 2.73877 2.06993 0
M  V30 7224 N 688.795 -1.27931 0.920396 0
M  V30 7225 C 690.035 -1.96459 0.564198 0
M  V30 7226 C 690.399 -1.70802 -0.876967 0
M  V30 7227 O 691.6 -2.32956 -1.34107 0
M  V30 7228 C 689.871 -3.46583 0.872641 0
M  V30 7229 S 691.43 -4.34343 0.623859 0
M  V30 7230 H 688.248 -0.679735 0.208523 0
M  V30 7231 H 690.85 -1.55319 1.18727 0
M  V30 7232 H 689.554 -3.62753 1.91933 0
M  V30 7233 H 689.085 -3.92677 0.238479 0
M  V30 7234 H 691.1 -4.93449 -0.521744 0
M  V30 7235 N 690.273 -0.685099 -1.4193 0
M  V30 7236 C 691.205 0.0258679 -2.29185 0
M  V30 7237 C 692.218 0.755076 -1.44231 0
M  V30 7238 O 693.407 0.60752 -1.67844 0
M  V30 7239 C 690.507 1.06055 -3.21878 0
M  V30 7240 C 689.68 0.403088 -4.35539 0
M  V30 7241 C 688.739 1.33895 -5.0888 0
M  V30 7242 O 687.765 0.835326 -5.63037 0
M  V30 7243 N 688.967 2.6718 -5.15359 0
M  V30 7244 H 691.732 -0.723201 -2.90843 0
M  V30 7245 H 689.293 -0.53031 -1.52968 0
M  V30 7246 H 691.285 1.68813 -3.6781 0
M  V30 7247 H 689.855 1.71126 -2.616 0
M  V30 7248 H 689.075 -0.404185 -3.92122 0
M  V30 7249 H 690.363 -0.0545098 -5.08771 0
M  V30 7250 H 689.761 3.10626 -4.72788 0
M  V30 7251 H 688.318 3.25159 -5.64903 0
M  V30 7252 N 691.751 1.51645 -0.429126 0
M  V30 7253 C 693.162 1.86665 0.0359003 0
M  V30 7254 C 693.513 1.34677 1.42676 0
M  V30 7255 O 692.638 0.694195 2.04963 0
M  V30 7256 C 693.233 3.38724 0.0719221 0
M  V30 7257 C 691.792 3.7331 0.481336 0
M  V30 7258 C 690.939 2.75313 -0.331329 0
M  V30 7259 H 693.89 1.44987 -0.645333 0
M  V30 7260 H 693.911 3.7011 0.883118 0
M  V30 7261 H 693.423 3.76532 -0.940495 0
M  V30 7262 H 691.524 3.41088 1.49966 0
M  V30 7263 H 691.637 4.78631 0.211837 0
M  V30 7264 H 690.001 2.53839 0.209204 0
M  V30 7265 H 690.784 3.15963 -1.34247 0
M  V30 7266 N 693.229 0.160201 1.56784 0
M  V30 7267 C 694.159 -0.770264 2.2043 0
M  V30 7268 C 695.14 -1.24736 1.15651 0
M  V30 7269 O 696.325 -1.30253 1.44041 0
M  V30 7270 C 693.455 -2.00427 2.83631 0
M  V30 7271 C 692.409 -1.66345 3.94352 0
M  V30 7272 C 691.735 -2.97119 4.4455 0
M  V30 7273 C 693.035 -0.899972 5.14488 0
M  V30 7274 H 694.729 -0.239783 2.98438 0
M  V30 7275 H 692.275 -0.113891 1.43549 0
M  V30 7276 H 694.228 -2.66012 3.26827 0
M  V30 7277 H 692.952 -2.5587 2.02973 0
M  V30 7278 H 691.611 -1.03133 3.51794 0
M  V30 7279 H 691.259 -3.5058 3.60698 0
M  V30 7280 H 690.959 -2.75073 5.19238 0
M  V30 7281 H 692.483 -3.63753 4.90425 0
M  V30 7282 H 693.897 -1.45818 5.54446 0
M  V30 7283 H 692.294 -0.778968 5.95023 0
M  V30 7284 H 693.364 0.105827 4.84785 0
M  V30 7285 N 694.707 -1.5719 -0.113559 0
M  V30 7286 C 695.956 -1.84325 -0.818984 0
M  V30 7287 C 696.269 -0.746685 -1.80787 0
M  V30 7288 O 697.475 -0.904596 -2.55987 0
M  V30 7289 C 695.931 -3.26818 -1.50724 0
M  V30 7290 C 695.539 -4.44498 -0.559065 0
M  V30 7291 C 697.283 -3.63196 -2.19748 0
M  V30 7292 C 695.19 -5.7802 -1.25086 0
M  V30 7293 H 694.12 -0.687507 -0.309596 0
M  V30 7294 H 696.771 -1.8336 -0.0717621 0
M  V30 7295 H 695.153 -3.22269 -2.30128 0
M  V30 7296 H 696.327 -4.60356 0.202146 0
M  V30 7297 H 694.642 -4.16393 0.024495 0
M  V30 7298 H 697.239 -4.60226 -2.72206 0
M  V30 7299 H 697.582 -2.90899 -2.97798 0
M  V30 7300 H 698.115 -3.69553 -1.47226 0
M  V30 7301 H 694.854 -6.53501 -0.511539 0
M  V30 7302 H 694.374 -5.66038 -1.98395 0
M  V30 7303 H 696.053 -6.2196 -1.78253 0
M  V30 7304 N 696.185 0.383891 -1.52853 0
M  V30 7305 C 697.133 1.48965 -1.7864 0
M  V30 7306 C 698.127 1.56242 -0.654577 0
M  V30 7307 O 699.333 1.59347 -0.83716 0
M  V30 7308 H 695.708 0.495892 -0.565328 0
M  V30 7309 H 697.679 1.24411 -2.71228 0
M  V30 7310 C 696.428 2.86036 -1.97683 0
M  V30 7311 H 695.751 2.81188 -2.84206 0
M  V30 7312 H 697.191 3.62632 -2.19713 0
M  V30 7313 C 695.65 3.28428 -0.750776 0
M  V30 7314 O 696.18 4.0164 0.0693491 0
M  V30 7315 N 694.386 2.84765 -0.579427 0
M  V30 7316 H 693.933 2.25353 -1.24795 0
M  V30 7317 H 693.891 3.13486 0.239544 0
M  V30 7318 N 697.663 1.43903 0.642637 0
M  V30 7319 C 698.891 1.4954 1.42988 0
M  V30 7320 C 699.306 0.116588 1.8844 0
M  V30 7321 O 698.663 -0.875285 1.60141 0
M  V30 7322 C 698.714 2.45031 2.65785 0
M  V30 7323 O 698.435 3.77551 2.22232 0
M  V30 7324 C 699.936 2.60017 3.59035 0
M  V30 7325 H 697.156 0.507544 0.438907 0
M  V30 7326 H 699.7 1.88752 0.786942 0
M  V30 7327 H 697.855 2.08985 3.26196 0
M  V30 7328 H 698.269 4.29001 3.01759 0
M  V30 7329 H 699.743 3.30887 4.41835 0
M  V30 7330 H 700.22 1.64861 4.07084 0
M  V30 7331 H 700.826 2.96918 3.045 0
M  V30 7332 N 699.141 -0.881989 1.30609 0
M  V30 7333 C 700.369 -1.66711 1.22536 0
M  V30 7334 C 700.784 -1.87614 -0.2113 0
M  V30 7335 O 700.141 -1.42576 -1.13923 0
M  V30 7336 C 700.192 -3.04182 1.95335 0
M  V30 7337 O 699.913 -2.8422 3.33393 0
M  V30 7338 C 701.414 -3.98617 1.93956 0
M  V30 7339 H 698.634 -0.520124 0.423925 0
M  V30 7340 H 701.178 -1.10174 1.72285 0
M  V30 7341 H 699.333 -3.57442 1.49378 0
M  V30 7342 H 699.747 -3.71452 3.70302 0
M  V30 7343 H 701.221 -4.92433 2.49426 0
M  V30 7344 H 701.698 -4.29473 0.919198 0
M  V30 7345 H 702.304 -3.51292 2.39738 0
M  V30 7346 N 700.619 -1.13374 -1.09472 0
M  V30 7347 C 701.529 -0.824029 -2.19652 0
M  V30 7348 C 702.545 0.19118 -1.72947 0
M  V30 7349 O 703.721 0.0223464 -2.01388 0
M  V30 7350 C 700.786 -0.294009 -3.45451 0
M  V30 7351 C 699.847 -1.3704 -4.0684 0
M  V30 7352 C 699.08 -0.86558 -5.26634 0
M  V30 7353 O 699.303 0.29702 -5.69626 0
M  V30 7354 O 698.237 -1.63968 -5.79136 0
M  V30 7355 H 702.063 -1.74454 -2.48595 0
M  V30 7356 H 699.648 -0.911155 -1.18399 0
M  V30 7357 H 701.53 -0.00381039 -4.214 0
M  V30 7358 H 700.205 0.598921 -3.18111 0
M  V30 7359 H 699.112 -1.71391 -3.3253 0
M  V30 7360 H 700.445 -2.23746 -4.38405 0
M  V30 7361 N 702.098 1.27442 -0.927168 0
M  V30 7362 C 703.323 1.99036 -0.583042 0
M  V30 7363 C 703.748 1.68711 0.83176 0
M  V30 7364 O 703.106 0.927081 1.55804 0
M  V30 7365 C 703.154 3.51271 -0.814925 0
M  V30 7366 O 702.258 4.12226 0.119742 0
M  V30 7367 H 701.599 0.624883 -0.224538 0
M  V30 7368 H 704.129 1.62263 -1.24628 0
M  V30 7369 H 704.139 4.01411 -0.730282 0
M  V30 7370 H 702.814 3.72676 -1.84623 0
M  V30 7371 H 701.391 3.72897 -0.0147688 0
M  V30 7372 N 703.576 0.692616 1.41565 0
M  V30 7373 C 704.506 0.0397325 2.33466 0
M  V30 7374 C 705.487 -0.770334 1.51657 0
M  V30 7375 O 706.672 -0.723903 1.80203 0
M  V30 7376 C 703.802 -0.899495 3.3545 0
M  V30 7377 C 702.756 -0.196738 4.27548 0
M  V30 7378 C 702.082 -1.25012 5.19881 0
M  V30 7379 C 703.382 0.935158 5.1386 0
M  V30 7380 H 705.076 0.807296 2.88311 0
M  V30 7381 H 702.622 0.389665 1.38628 0
M  V30 7382 H 704.575 -1.36545 3.98665 0
M  V30 7383 H 703.299 -1.69869 2.78948 0
M  V30 7384 H 701.958 0.249158 3.65752 0
M  V30 7385 H 701.606 -2.04177 4.59696 0
M  V30 7386 H 701.306 -0.784931 5.82334 0
M  V30 7387 H 702.83 -1.71665 5.85972 0
M  V30 7388 H 704.244 0.549619 5.70659 0
M  V30 7389 H 702.641 1.32726 5.85238 0
M  V30 7390 H 703.711 1.77613 4.512 0
M  V30 7391 N 705.054 -1.51416 0.437162 0
M  V30 7392 C 706.47 -1.59349 0.0894459 0
M  V30 7393 C 706.67 -1.44809 -1.40116 0
M  V30 7394 O 705.726 -1.28924 -2.17106 0
M  V30 7395 C 707.039 -2.9446 0.609398 0
M  V30 7396 C 708.587 -3.07769 0.569824 0
M  V30 7397 C 709.062 -4.45404 1.06675 0
M  V30 7398 N 710.553 -4.51723 1.02473 0
M  V30 7399 C 711.288 -5.56544 1.3801 0
M  V30 7400 N 710.784 -6.68784 1.80831 0
M  V30 7401 N 712.577 -5.46901 1.29828 0
M  V30 7402 H 704.728 -1.59112 1.40703 0
M  V30 7403 H 706.991 -0.750031 0.579791 0
M  V30 7404 H 706.697 -3.1047 1.65231 0
M  V30 7405 H 706.571 -3.77184 0.0342236 0
M  V30 7406 H 708.958 -2.91428 -0.464107 0
M  V30 7407 H 709.039 -2.26885 1.1814 0
M  V30 7408 H 708.683 -4.62492 2.09914 0
M  V30 7409 H 708.613 -5.24827 0.431712 0
M  V30 7410 H 711.104 -3.71165 0.710258 0
M  V30 7411 H 711.417 -7.44787 2.06185 0
M  V30 7412 H 709.762 -6.69992 1.84757 0
M  V30 7413 H 712.953 -4.581 0.962397 0
M  V30 7414 H 713.126 -6.2848 1.57851 0
M  V30 7415 N 706.532 -0.168513 -1.56696 0
M  V30 7416 C 707.462 0.758563 -2.20835 0
M  V30 7417 C 708.443 1.24121 -1.1631 0
M  V30 7418 O 709.628 1.29487 -1.4473 0
M  V30 7419 C 706.758 1.9892 -2.8469 0
M  V30 7420 C 705.712 1.64252 -3.95228 0
M  V30 7421 C 705.038 2.94757 -4.46119 0
M  V30 7422 C 706.338 0.872675 -5.14958 0
M  V30 7423 H 708.032 0.223953 -2.98561 0
M  V30 7424 H 705.578 0.106277 -1.43607 0
M  V30 7425 H 707.531 2.64275 -3.28233 0
M  V30 7426 H 706.255 2.5479 -2.04327 0
M  V30 7427 H 704.914 1.01266 -3.52336 0
M  V30 7428 H 704.562 3.48662 -3.62552 0
M  V30 7429 H 704.262 2.72316 -5.2069 0
M  V30 7430 H 705.786 3.61147 -4.92347 0
M  V30 7431 H 707.2 1.42875 -5.55211 0
M  V30 7432 H 705.597 0.747402 -5.95428 0
M  V30 7433 H 706.667 -0.131535 -4.84722 0
M  V30 7434 N 708.01 1.57248 0.105221 0
M  V30 7435 C 708.958 2.02337 1.14728 0
M  V30 7436 C 709.952 0.922652 1.42069 0
M  V30 7437 O 711.158 1.10785 1.41869 0
M  V30 7438 H 707.533 0.644682 0.387155 0
M  V30 7439 H 709.504 2.89063 0.740607 0
M  V30 7440 C 708.253 2.45513 2.46209 0
M  V30 7441 H 707.576 3.29785 2.26013 0
M  V30 7442 H 709.016 2.80846 3.1765 0
M  V30 7443 C 707.475 1.3243 3.09781 0
M  V30 7444 O 708.005 0.647841 3.96442 0
M  V30 7445 N 706.211 1.07785 2.69872 0
M  V30 7446 H 705.758 1.62973 1.99493 0
M  V30 7447 H 705.716 0.323204 3.12734 0
M  V30 7448 N 709.488 -0.375779 1.53054 0
M  V30 7449 C 710.438 -1.45965 1.75152 0
M  V30 7450 C 711.422 -1.49059 0.605823 0
M  V30 7451 O 712.614 -1.54472 0.864133 0
M  V30 7452 C 709.743 -2.83524 1.93569 0
M  V30 7453 C 708.829 -2.84949 3.1411 0
M  V30 7454 N 709.22 -2.56029 4.36214 0
M  V30 7455 C 707.518 -3.16113 3.14625 0
M  V30 7456 C 708.219 -2.64873 5.17897 0
M  V30 7457 N 707.195 -2.99159 4.53878 0
M  V30 7458 H 710.997 -1.22454 2.67175 0
M  V30 7459 H 708.511 -0.583867 1.51541 0
M  V30 7460 H 710.508 -3.61578 2.07525 0
M  V30 7461 H 709.168 -3.08008 1.02768 0
M  V30 7462 H 710.179 -2.29808 4.64121 0
M  V30 7463 H 706.856 -3.45977 2.3368 0
M  V30 7464 H 708.246 -2.45947 6.25268 0
M  V30 7465 N 710.966 -1.44241 -0.634997 0
M  V30 7466 C 711.876 -1.53293 -1.77591 0
M  V30 7467 C 712.892 -0.418831 -1.68884 0
M  V30 7468 O 714.068 -0.675619 -1.8973 0
M  V30 7469 C 711.133 -1.47075 -3.13958 0
M  V30 7470 C 710.194 -2.69304 -3.34326 0
M  V30 7471 C 709.427 -2.63374 -4.64187 0
M  V30 7472 O 709.65 -1.69161 -5.44739 0
M  V30 7473 O 708.584 -3.54166 -4.86673 0
M  V30 7474 H 712.41 -2.49673 -1.72908 0
M  V30 7475 H 709.995 -1.26445 -0.795745 0
M  V30 7476 H 711.877 -1.46117 -3.95257 0
M  V30 7477 H 710.552 -0.538373 -3.19192 0
M  V30 7478 H 709.459 -2.75831 -2.52721 0
M  V30 7479 H 710.792 -3.61576 -3.33951 0
M  V30 7480 N 712.444 0.87505 -1.31075 0
M  V30 7481 C 713.374 1.99775 -1.20881 0
M  V30 7482 C 714.355 1.69822 -0.0971612 0
M  V30 7483 O 715.54 1.92158 -0.280895 0
M  V30 7484 C 712.67 3.35163 -0.910118 0
M  V30 7485 C 711.624 3.79406 -1.98078 0
M  V30 7486 C 710.95 5.12197 -1.53488 0
M  V30 7487 C 712.25 3.97061 -3.39323 0
M  V30 7488 H 713.944 2.08562 -2.14808 0
M  V30 7489 H 711.49 1.00207 -1.03415 0
M  V30 7490 H 713.443 4.13237 -0.825423 0
M  V30 7491 H 712.167 3.26536 0.064822 0
M  V30 7492 H 710.826 3.03568 -2.05528 0
M  V30 7493 H 710.474 5.00007 -0.547941 0
M  V30 7494 H 710.174 5.4277 -2.2511 0
M  V30 7495 H 711.698 5.92785 -1.46417 0
M  V30 7496 H 713.112 4.65545 -3.34576 0
M  V30 7497 H 711.509 4.39025 -4.09118 0
M  V30 7498 H 712.579 3.00601 -3.80483 0
M  V30 7499 N 713.922 1.13953 1.08869 0
M  V30 7500 C 715.338 0.878924 1.33218 0
M  V30 7501 C 715.538 -0.482478 1.95638 0
M  V30 7502 O 714.594 -1.22778 2.2064 0
M  V30 7503 C 715.907 2.00798 2.23832 0
M  V30 7504 C 717.455 2.04073 2.37325 0
M  V30 7505 C 717.93 3.16258 3.31278 0
M  V30 7506 N 719.421 3.15805 3.38853 0
M  V30 7507 C 720.156 3.99249 4.11567 0
M  V30 7508 N 719.652 4.92721 4.87029 0
M  V30 7509 N 721.445 3.87327 4.0735 0
M  V30 7510 H 713.596 2.01645 0.66731 0
M  V30 7511 H 715.859 0.878395 0.356547 0
M  V30 7512 H 715.565 2.98986 1.85203 0
M  V30 7513 H 715.439 1.92704 3.24261 0
M  V30 7514 H 717.826 1.06495 2.75214 0
M  V30 7515 H 717.907 2.16239 1.36654 0
M  V30 7516 H 717.551 4.14079 2.9411 0
M  V30 7517 H 717.481 3.0133 4.31866 0
M  V30 7518 H 719.972 2.48102 2.8505 0
M  V30 7519 H 720.285 5.52867 5.39961 0
M  V30 7520 H 718.63 4.96723 4.86098 0
M  V30 7521 H 721.821 3.13627 3.475 0
M  V30 7522 H 721.994 4.52585 4.63757 0
M  V30 7523 N 715.4 -1.26948 0.933913 0
M  V30 7524 C 716.648 -1.93704 0.576484 0
M  V30 7525 C 716.969 -1.73702 -0.886145 0
M  V30 7526 O 716.239 -1.08838 -1.62884 0
M  V30 7527 H 714.819 -0.716812 0.210214 0
M  V30 7528 H 717.481 -1.54534 1.18766 0
M  V30 7529 H 716.577 -3.01987 0.788055 0
M  V30 7530 N 716.879 -0.700114 -1.41195 0
M  V30 7531 C 718.125 -0.242122 -2.01954 0
M  V30 7532 C 718.48 1.14697 -1.54475 0
M  V30 7533 O 717.773 1.76392 -0.748095 0
M  V30 7534 C 717.967 -0.243986 -3.56566 0
M  V30 7535 C 717.796 -1.63172 -4.19053 0
M  V30 7536 C 716.566 -2.23566 -4.53152 0
M  V30 7537 C 718.764 -2.57916 -4.44954 0
M  V30 7538 N 716.746 -3.54856 -5.00949 0
M  V30 7539 C 718.117 -3.73892 -4.94576 0
M  V30 7540 C 720.172 -2.56125 -4.26971 0
M  V30 7541 C 718.875 -4.88363 -5.28104 0
M  V30 7542 C 720.901 -3.69712 -4.61592 0
M  V30 7543 C 720.263 -4.84418 -5.11389 0
M  V30 7544 H 716.362 -0.134088 -0.770418 0
M  V30 7545 H 718.946 -0.918576 -1.71669 0
M  V30 7546 H 717.117 0.401971 -3.86314 0
M  V30 7547 H 718.849 0.229261 -4.0405 0
M  V30 7548 H 715.604 -1.75809 -4.39759 0
M  V30 7549 H 716.028 -4.22167 -5.29249 0
M  V30 7550 H 720.67 -1.68656 -3.87705 0
M  V30 7551 H 718.388 -5.76488 -5.66292 0
M  V30 7552 H 721.974 -3.69583 -4.49332 0
M  V30 7553 H 720.854 -5.70855 -5.37675 0
M  V30 7554 N 718.357 1.51182 -0.445186 0
M  V30 7555 C 719.603 2.02452 0.11882 0
M  V30 7556 C 719.936 1.32824 1.41673 0
M  V30 7557 O 719.211 0.445637 1.89326 0
M  V30 7558 C 719.494 3.5859 0.329475 0
M  V30 7559 C 719.347 4.38823 -0.987638 0
M  V30 7560 C 720.666 4.26241 1.09575 0
M  V30 7561 H 717.785 0.735819 0.0417092 0
M  V30 7562 H 720.427 1.80747 -0.585718 0
M  V30 7563 H 718.577 3.77214 0.9296 0
M  V30 7564 H 720.249 4.3183 -1.62235 0
M  V30 7565 H 718.492 4.03594 -1.59041 0
M  V30 7566 H 719.163 5.46257 -0.794192 0
M  V30 7567 H 721.639 4.11934 0.587328 0
M  V30 7568 H 720.515 5.35354 1.21191 0
M  V30 7569 H 720.776 3.87635 2.12584 0
M  V30 7570 N 719.835 0.176821 1.56605 0
M  V30 7571 C 720.785 -0.763718 2.14829 0
M  V30 7572 C 721.769 -1.18903 1.08401 0
M  V30 7573 O 722.961 -1.15048 1.3451 0
M  V30 7574 C 720.09 -1.99069 2.7969 0
M  V30 7575 C 719.176 -1.58711 3.93283 0
M  V30 7576 N 719.567 -0.893423 4.97847 0
M  V30 7577 C 717.865 -1.87774 4.04545 0
M  V30 7578 C 718.566 -0.693866 5.77547 0
M  V30 7579 N 717.542 -1.23699 5.29339 0
M  V30 7580 H 721.344 -0.224811 2.93039 0
M  V30 7581 H 718.858 -0.0236563 1.62383 0
M  V30 7582 H 720.855 -2.67478 3.19783 0
M  V30 7583 H 719.515 -2.53449 2.02962 0
M  V30 7584 H 720.526 -0.550868 5.14962 0
M  V30 7585 H 717.203 -2.43793 3.38927 0
M  V30 7586 H 718.593 -0.144899 6.71744 0
M  V30 7587 N 721.313 -1.57302 -0.09688 0
M  V30 7588 C 722.729 -1.53094 -0.451041 0
M  V30 7589 C 722.929 -0.893265 -1.80618 0
M  V30 7590 O 721.985 -0.485013 -2.47798 0
M  V30 7591 C 723.298 -2.9782 -0.415172 0
M  V30 7592 C 724.846 -3.09026 -0.497155 0
M  V30 7593 C 725.321 -4.55356 -0.491452 0
M  V30 7594 N 726.812 -4.59896 -0.552258 0
M  V30 7595 C 727.547 -5.70563 -0.569654 0
M  V30 7596 N 727.043 -6.90666 -0.543365 0
M  V30 7597 N 728.836 -5.58733 -0.614331 0
M  V30 7598 H 720.987 -1.97131 0.790771 0
M  V30 7599 H 723.25 -0.901211 0.294147 0
M  V30 7600 H 722.956 -3.47933 0.513362 0
M  V30 7601 H 722.83 -3.56416 -1.23481 0
M  V30 7602 H 725.217 -2.58902 -1.41611 0
M  V30 7603 H 725.298 -2.53386 0.35059 0
M  V30 7604 H 724.942 -5.06131 0.423549 0
M  V30 7605 H 724.872 -5.08832 -1.35639 0
M  V30 7606 H 727.363 -3.73456 -0.577842 0
M  V30 7607 H 727.676 -7.70769 -0.559873 0
M  V30 7608 H 726.021 -6.93123 -0.510441 0
M  V30 7609 H 729.212 -4.63809 -0.632387 0
M  V30 7610 H 729.385 -6.44984 -0.62442 0
M  V30 7611 N 722.791 0.367657 -1.53252 0
M  V30 7612 C 723.741 1.45035 -1.75923 0
M  V30 7613 C 724.725 1.48736 -0.613719 0
M  V30 7614 O 725.917 1.54012 -0.872313 0
M  V30 7615 C 723.046 2.82493 -1.9507 0
M  V30 7616 C 722.132 2.83279 -3.15617 0
M  V30 7617 N 722.523 2.53712 -4.37566 0
M  V30 7618 C 720.821 3.1444 -3.16297 0
M  V30 7619 C 721.522 2.62123 -5.19294 0
M  V30 7620 N 720.498 2.96747 -4.55458 0
M  V30 7621 H 724.3 1.21035 -2.6782 0
M  V30 7622 H 721.814 0.575822 -1.51849 0
M  V30 7623 H 723.811 3.60473 -2.0944 0
M  V30 7624 H 722.471 3.07459 -1.044 0
M  V30 7625 H 723.482 2.27344 -4.65333 0
M  V30 7626 H 720.159 3.44733 -2.35511 0
M  V30 7627 H 721.549 2.42628 -6.26563 0
M  V30 7628 N 724.269 1.44576 0.627338 0
M  V30 7629 C 725.179 1.54232 1.76776 0
M  V30 7630 C 726.195 0.427782 1.6866 0
M  V30 7631 O 727.371 0.685671 1.89369 0
M  V30 7632 C 724.436 1.48738 3.13174 0
M  V30 7633 C 723.497 2.71074 3.32893 0
M  V30 7634 C 722.73 2.65832 4.62784 0
M  V30 7635 O 722.953 1.72048 5.43834 0
M  V30 7636 O 721.887 3.56742 4.84787 0
M  V30 7637 H 725.713 2.50586 1.71582 0
M  V30 7638 H 723.298 1.26865 0.789028 0
M  V30 7639 H 725.18 1.48211 3.94476 0
M  V30 7640 H 723.855 0.555292 3.18902 0
M  V30 7641 H 722.762 2.77168 2.51254 0
M  V30 7642 H 724.095 3.63342 3.32029 0
M  V30 7643 N 725.747 -0.868086 1.31537 0
M  V30 7644 C 726.993 -1.62367 1.2151 0
M  V30 7645 C 727.326 -1.92883 -0.225819 0
M  V30 7646 O 726.601 -1.56176 -1.15927 0
M  V30 7647 C 726.884 -2.95268 2.06129 0
M  V30 7648 C 726.737 -2.71619 3.58529 0
M  V30 7649 C 728.056 -3.96391 1.91212 0
M  V30 7650 H 725.175 -0.589178 0.442762 0
M  V30 7651 H 727.817 -1.00336 1.61347 0
M  V30 7652 H 725.967 -3.4821 1.72284 0
M  V30 7653 H 727.639 -2.25334 4.0252 0
M  V30 7654 H 725.882 -2.05817 3.81866 0
M  V30 7655 H 726.553 -3.66192 4.13047 0
M  V30 7656 H 729.029 -3.52663 2.20834 0
M  V30 7657 H 727.905 -4.87263 2.52718 0
M  V30 7658 H 728.166 -4.33335 0.875953 0
M  V30 7659 N 727.225 -1.14528 -1.08264 0
M  V30 7660 C 728.135 -0.84728 -2.18765 0
M  V30 7661 C 729.151 0.172826 -1.7314 0
M  V30 7662 O 730.327 0.000985336 -2.014 0
M  V30 7663 C 727.392 -0.330633 -3.4512 0
M  V30 7664 C 726.453 -1.41348 -4.05363 0
M  V30 7665 C 725.686 -0.921387 -5.25686 0
M  V30 7666 O 725.909 0.236587 -5.69909 0
M  V30 7667 O 724.843 -1.70101 -5.77364 0
M  V30 7668 H 728.669 -1.7708 -2.46731 0
M  V30 7669 H 726.254 -0.923661 -1.17426 0
M  V30 7670 H 728.136 -0.0485053 -4.21372 0
M  V30 7671 H 726.811 0.565147 -3.18728 0
M  V30 7672 H 725.718 -1.74908 -3.30693 0
M  V30 7673 H 727.051 -2.28383 -4.36007 0
M  V30 7674 N 728.703 1.26451 -0.940633 0
M  V30 7675 C 730.119 1.4608 -0.642859 0
M  V30 7676 C 730.319 1.84765 0.803998 0
M  V30 7677 O 729.375 1.96902 1.58069 0
M  V30 7678 C 730.688 2.54359 -1.60381 0
M  V30 7679 C 732.236 2.6821 -1.61345 0
M  V30 7680 C 732.711 3.79659 -2.56169 0
M  V30 7681 N 734.202 3.87051 -2.54452 0
M  V30 7682 C 734.937 4.72739 -3.24507 0
M  V30 7683 N 734.433 5.6282 -4.03987 0
M  V30 7684 N 736.226 4.66581 -3.13462 0
M  V30 7685 H 728.377 0.996289 -1.87584 0
M  V30 7686 H 730.64 0.498921 -0.80609 0
M  V30 7687 H 730.346 2.32758 -2.6366 0
M  V30 7688 H 730.22 3.52005 -1.35545 0
M  V30 7689 H 732.607 2.89184 -0.587913 0
M  V30 7690 H 732.688 1.7101 -1.90235 0
M  V30 7691 H 732.332 3.59438 -3.58841 0
M  V30 7692 H 732.262 4.76315 -2.2457 0
M  V30 7693 H 734.753 3.22649 -1.96739 0
M  V30 7694 H 735.066 6.25095 -4.54396 0
M  V30 7695 H 733.411 5.62574 -4.08088 0
M  V30 7696 H 736.602 3.9521 -2.50852 0
M  V30 7697 H 736.775 5.33141 -3.68327 0
M  V30 7698 N 730.181 0.707592 1.40822 0
M  V30 7699 C 731.409 0.253073 2.05346 0
M  V30 7700 C 731.824 -1.10218 1.53289 0
M  V30 7701 O 731.181 -1.69112 0.686105 0
M  V30 7702 C 731.232 0.215411 3.60858 0
M  V30 7703 O 730.953 1.51714 4.10992 0
M  V30 7704 C 732.454 -0.258636 4.42545 0
M  V30 7705 H 729.674 0.115256 0.661027 0
M  V30 7706 H 732.218 0.963555 1.80377 0
M  V30 7707 H 730.373 -0.445978 3.84824 0
M  V30 7708 H 730.787 1.41226 5.05129 0
M  V30 7709 H 732.261 -0.233849 5.51504 0
M  V30 7710 H 732.738 -1.2995 4.19535 0
M  V30 7711 H 733.344 0.372186 4.23668 0
M  V30 7712 N 731.66 -1.50943 0.453197 0
M  V30 7713 C 732.607 -2.28128 -0.350197 0
M  V30 7714 C 733.577 -1.32398 -1.00299 0
M  V30 7715 O 734.762 -1.61319 -1.01887 0
M  V30 7716 C 731.902 -3.13782 -1.43649 0
M  V30 7717 C 731.015 -4.24523 -0.800255 0
M  V30 7718 C 730.15 -4.97462 -1.86293 0
M  V30 7719 C 729.189 -6.00102 -1.20598 0
M  V30 7720 N 728.326 -6.66387 -2.21071 0
M  V30 7721 H 733.166 -2.96337 0.31434 0
M  V30 7722 H 730.703 -1.46151 0.166863 0
M  V30 7723 H 732.661 -3.6178 -2.07776 0
M  V30 7724 H 731.291 -2.47655 -2.07044 0
M  V30 7725 H 730.343 -3.80371 -0.0468651 0
M  V30 7726 H 731.655 -4.98009 -0.280777 0
M  V30 7727 H 730.809 -5.49088 -2.58044 0
M  V30 7728 H 729.548 -4.23642 -2.41617 0
M  V30 7729 H 728.553 -5.47753 -0.474 0
M  V30 7730 H 729.778 -6.75887 -0.659859 0
M  V30 7731 H 727.724 -5.9537 -2.75446 0
M  V30 7732 H 727.641 -7.3569 -1.74058 0
M  V30 7733 H 728.909 -7.22638 -2.92257 0
M  V30 7734 N 733.138 -0.185124 -1.56509 0
M  V30 7735 C 734.363 0.465278 -2.02114 0
M  V30 7736 C 734.788 1.55083 -1.06447 0
M  V30 7737 O 734.146 1.81241 -0.0462852 0
M  V30 7738 C 734.194 1.00784 -3.46229 0
M  V30 7739 O 733.298 2.12123 -3.53663 0
M  V30 7740 H 732.639 0.109891 -0.654843 0
M  V30 7741 H 735.169 -0.293072 -2.0249 0
M  V30 7742 H 735.179 1.32697 -3.85818 0
M  V30 7743 H 733.854 0.213113 -4.15354 0
M  V30 7744 H 732.431 1.8115 -3.25943 0
M  V30 7745 N 734.616 1.57351 0.0885366 0
M  V30 7746 C 736.032 1.53331 0.442916 0
M  V30 7747 C 736.232 0.902831 1.80142 0
M  V30 7748 O 735.288 0.498147 2.47537 0
M  V30 7749 C 736.601 2.98036 0.399372 0
M  V30 7750 C 738.149 3.09286 0.480759 0
M  V30 7751 C 738.624 4.5561 0.467296 0
M  V30 7752 N 740.115 4.60182 0.52786 0
M  V30 7753 C 740.85 5.70857 0.539388 0
M  V30 7754 N 740.346 6.90944 0.506729 0
M  V30 7755 N 742.139 5.59051 0.584691 0
M  V30 7756 H 734.29 1.96709 -0.801215 0
M  V30 7757 H 736.553 0.899639 -0.298922 0
M  V30 7758 H 736.259 3.47656 -0.531806 0
M  V30 7759 H 736.133 3.57066 1.21589 0
M  V30 7760 H 738.52 2.5965 1.40236 0
M  V30 7761 H 738.601 2.53197 -0.364023 0
M  V30 7762 H 738.245 5.05899 -0.450384 0
M  V30 7763 H 738.175 5.09544 1.32938 0
M  V30 7764 H 740.666 3.73757 0.558028 0
M  V30 7765 H 740.979 7.71055 0.518989 0
M  V30 7766 H 739.324 6.93384 0.473675 0
M  V30 7767 H 742.515 4.64138 0.607781 0
M  V30 7768 H 742.688 6.45307 0.590206 0
M  V30 7769 N 736.094 -0.359525 1.53444 0
M  V30 7770 C 737.51 -0.701599 1.43352 0
M  V30 7771 C 737.71 -1.93049 0.577439 0
M  V30 7772 O 736.766 -2.52423 0.0622224 0
M  V30 7773 C 738.079 -0.90915 2.86627 0
M  V30 7774 C 739.627 -1.00878 2.96298 0
M  V30 7775 C 740.102 -1.24876 4.40647 0
M  V30 7776 N 741.593 -1.31632 4.44103 0
M  V30 7777 C 742.328 -1.51922 5.52908 0
M  V30 7778 N 741.824 -1.69489 6.71748 0
M  V30 7779 N 743.617 -1.54341 5.40496 0
M  V30 7780 H 735.768 0.448685 2.07607 0
M  V30 7781 H 738.031 0.138713 0.937797 0
M  V30 7782 H 737.737 -0.0778997 3.51614 0
M  V30 7783 H 737.611 -1.81551 3.30634 0
M  V30 7784 H 739.998 -1.83057 2.31461 0
M  V30 7785 H 740.079 -0.0796721 2.55676 0
M  V30 7786 H 739.723 -0.431961 5.0606 0
M  V30 7787 H 739.653 -2.19118 4.78848 0
M  V30 7788 H 742.144 -1.19646 3.5846 0
M  V30 7789 H 742.457 -1.84561 7.50438 0
M  V30 7790 H 740.802 -1.66655 6.74723 0
M  V30 7791 H 743.993 -1.40188 4.46615 0
M  V30 7792 H 744.166 -1.69812 6.25354 0
M  V30 7793 N 737.572 -1.44907 -0.619662 0
M  V30 7794 C 738.505 -1.47133 -1.74434 0
M  V30 7795 C 739.483 -0.328933 -1.59238 0
M  V30 7796 O 740.667 -0.527632 -1.80965 0
M  V30 7797 C 737.794 -1.31491 -3.12134 0
M  V30 7798 C 736.84 -2.49441 -3.4595 0
M  V30 7799 S 737.673 -4.11945 -3.42142 0
M  V30 7800 C 738.829 -3.98747 -4.82443 0
M  V30 7801 H 739.062 -2.42295 -1.7228 0
M  V30 7802 H 736.595 -1.32343 -0.795276 0
M  V30 7803 H 738.553 -1.23153 -3.91591 0
M  V30 7804 H 737.214 -0.378203 -3.11815 0
M  V30 7805 H 736.407 -2.3439 -4.46181 0
M  V30 7806 H 736.009 -2.54577 -2.73982 0
M  V30 7807 H 738.301 -3.63145 -5.71954 0
M  V30 7808 H 739.244 -4.98848 -5.0255 0
M  V30 7809 H 739.652 -3.30608 -4.57557 0
M  V30 7810 N 739.05 0.861098 -1.31996 0
M  V30 7811 C 740.278 1.6474 -1.25173 0
M  V30 7812 C 740.693 1.87926 0.181425 0
M  V30 7813 O 740.05 1.4437 1.1164 0
M  V30 7814 C 740.101 3.01036 -2.0015 0
M  V30 7815 O 739.822 2.7888 -3.37872 0
M  V30 7816 C 741.323 3.95481 -2.00273 0
M  V30 7817 H 738.543 0.513314 -0.432146 0
M  V30 7818 H 741.087 1.07419 -1.74016 0
M  V30 7819 H 739.242 3.55021 -1.55046 0
M  V30 7820 H 739.656 3.65514 -3.76165 0
M  V30 7821 H 741.13 4.88403 -2.57229 0
M  V30 7822 H 741.607 4.27957 -0.987407 0
M  V30 7823 H 742.213 3.47433 -2.45296 0
M  V30 7824 N 740.528 1.15101 1.07655 0
M  V30 7825 C 741.476 0.840714 2.16875 0
M  V30 7826 C 742.47 -0.184594 1.68391 0
M  V30 7827 O 743.676 -0.0399315 1.79956 0
M  V30 7828 H 740.051 0.254192 0.707736 0
M  V30 7829 H 742.022 1.76959 2.40266 0
M  V30 7830 C 740.771 0.343018 3.46004 0
M  V30 7831 H 740.094 1.12335 3.83694 0
M  V30 7832 H 741.534 0.16453 4.23681 0
M  V30 7833 C 739.993 -0.934881 3.23669 0
M  V30 7834 O 740.523 -2.00706 3.47965 0
M  V30 7835 N 738.729 -0.873167 2.77172 0
M  V30 7836 H 738.276 -0.000479072 2.576 0
M  V30 7837 H 738.234 -1.72873 2.62607 0
M  V30 7838 N 742.006 -1.2595 0.947325 0
M  V30 7839 C 742.954 -2.28152 0.452687 0
M  V30 7840 C 743.948 -1.62655 -0.473239 0
M  V30 7841 O 745.154 -1.76549 -0.350774 0
M  V30 7842 H 741.529 -0.741049 0.12787 0
M  V30 7843 H 743.5 -2.67267 1.32707 0
M  V30 7844 C 742.249 -3.46719 -0.26098 0
M  V30 7845 H 741.572 -3.97345 0.442352 0
M  V30 7846 H 743.012 -4.20135 -0.571208 0
M  V30 7847 C 741.471 -3.02605 -1.48094 0
M  V30 7848 O 742.001 -3.07979 -2.57899 0
M  V30 7849 N 740.207 -2.57877 -1.33969 0
M  V30 7850 H 739.754 -2.53704 -0.446295 0
M  V30 7851 H 739.712 -2.28725 -2.15713 0
M  V30 7852 N 743.484 -0.715051 -1.40445 0
M  V30 7853 C 744.416 -0.0227516 -2.29189 0
M  V30 7854 C 745.429 0.724313 -1.458 0
M  V30 7855 O 746.618 0.571781 -1.69094 0
M  V30 7856 C 743.718 0.992038 -3.24055 0
M  V30 7857 C 742.891 0.310613 -4.36296 0
M  V30 7858 C 741.95 1.23071 -5.11605 0
M  V30 7859 O 740.976 0.71571 -5.64682 0
M  V30 7860 N 742.178 2.56188 -5.2091 0
M  V30 7861 H 744.943 -0.78473 -2.89244 0
M  V30 7862 H 742.504 -0.562637 -1.51809 0
M  V30 7863 H 744.496 1.60973 -3.71308 0
M  V30 7864 H 743.066 1.65538 -2.65171 0
M  V30 7865 H 742.286 -0.487269 -3.91177 0
M  V30 7866 H 743.574 -0.162415 -5.08541 0
M  V30 7867 H 742.972 3.00527 -4.7927 0
M  V30 7868 H 741.529 3.13103 -5.71673 0
M  V30 7869 N 744.962 1.50701 -0.461195 0
M  V30 7870 C 745.894 2.26124 0.374244 0
M  V30 7871 C 746.907 1.31064 0.965715 0
M  V30 7872 O 748.096 1.56647 0.855801 0
M  V30 7873 C 745.196 3.01996 1.5379 0
M  V30 7874 C 744.369 4.24336 1.06101 0
M  V30 7875 C 743.428 4.82585 2.09756 0
M  V30 7876 O 742.454 5.43775 1.68219 0
M  V30 7877 N 743.656 4.68712 3.42475 0
M  V30 7878 H 746.421 2.9846 -0.2723 0
M  V30 7879 H 743.982 1.59256 -0.291415 0
M  V30 7880 H 745.974 3.37846 2.22806 0
M  V30 7881 H 744.544 2.32521 2.08933 0
M  V30 7882 H 743.764 3.93707 0.197085 0
M  V30 7883 H 745.052 5.03678 0.720156 0
M  V30 7884 H 744.45 4.20026 3.78938 0
M  V30 7885 H 743.007 5.08858 4.07317 0
M  V30 7886 N 746.441 0.193421 1.56409 0
M  V30 7887 C 747.388 -0.728124 2.19014 0
M  V30 7888 C 748.358 -1.21098 1.13686 0
M  V30 7889 O 749.543 -1.27517 1.4193 0
M  V30 7890 C 746.683 -1.94277 2.8522 0
M  V30 7891 C 745.796 -1.50143 4.05069 0
M  V30 7892 C 744.931 -2.67145 4.59137 0
M  V30 7893 C 743.97 -2.19609 5.71348 0
M  V30 7894 N 743.107 -3.29782 6.19829 0
M  V30 7895 H 747.947 -0.187499 2.9741 0
M  V30 7896 H 745.484 -0.0808064 1.46878 0
M  V30 7897 H 747.442 -2.65551 3.21774 0
M  V30 7898 H 746.072 -2.45673 2.09391 0
M  V30 7899 H 745.124 -0.684624 3.74189 0
M  V30 7900 H 746.436 -1.11266 4.86232 0
M  V30 7901 H 745.59 -3.46544 4.97988 0
M  V30 7902 H 744.329 -3.09295 3.77078 0
M  V30 7903 H 743.334 -1.38664 5.32027 0
M  V30 7904 H 744.559 -1.78492 6.55223 0
M  V30 7905 H 742.505 -3.71466 5.40693 0
M  V30 7906 H 742.422 -2.95069 6.96039 0
M  V30 7907 H 743.69 -4.094 6.63334 0
M  V30 7908 N 747.919 -1.57396 -0.0801906 0
M  V30 7909 C 749.147 -1.91055 -0.794075 0
M  V30 7910 C 749.562 -0.788583 -1.71542 0
M  V30 7911 O 748.919 0.238587 -1.80934 0
M  V30 7912 C 748.97 -3.24418 -1.59484 0
M  V30 7913 O 748.691 -4.323 -0.710532 0
M  V30 7914 C 750.192 -3.72037 -2.41046 0
M  V30 7915 H 747.412 -0.63171 -0.226238 0
M  V30 7916 H 749.956 -2.04431 -0.0529685 0
M  V30 7917 H 748.111 -3.12595 -2.2883 0
M  V30 7918 H 748.525 -5.08976 -1.26663 0
M  V30 7919 H 749.999 -4.68006 -2.92702 0
M  V30 7920 H 750.476 -3.00624 -3.2019 0
M  V30 7921 H 751.082 -3.86777 -1.76871 0
M  V30 7922 N 749.397 0.351382 -1.53633 0
M  V30 7923 C 750.813 0.693987 -1.43722 0
M  V30 7924 C 751.013 1.9274 -0.587669 0
M  V30 7925 O 750.069 2.52387 -0.0756082 0
M  V30 7926 C 751.382 0.893937 -2.87105 0
M  V30 7927 C 752.93 0.993051 -2.96829 0
M  V30 7928 C 753.405 1.22537 -4.41303 0
M  V30 7929 N 754.896 1.29275 -4.44795 0
M  V30 7930 C 755.631 1.48988 -5.53706 0
M  V30 7931 N 755.127 1.65924 -6.72637 0
M  V30 7932 N 756.92 1.51472 -5.41306 0
M  V30 7933 H 749.071 -0.459688 -2.07366 0
M  V30 7934 H 751.334 -0.143684 -0.937048 0
M  V30 7935 H 751.04 0.0592517 -3.5165 0
M  V30 7936 H 750.914 1.79795 -3.31592 0
M  V30 7937 H 753.301 1.81827 -2.32429 0
M  V30 7938 H 753.382 0.0661119 -2.55715 0
M  V30 7939 H 753.026 0.405117 -5.06282 0
M  V30 7940 H 752.956 2.16575 -4.80003 0
M  V30 7941 H 755.447 1.17743 -3.59089 0
M  V30 7942 H 755.76 1.80578 -7.51406 0
M  V30 7943 H 754.105 1.63075 -6.75597 0
M  V30 7944 H 757.296 1.37818 -4.47352 0
M  V30 7945 H 757.469 1.66493 -6.26246 0
M  V30 7946 N 750.875 1.45233 0.611969 0
M  V30 7947 C 752.124 1.48296 1.36716 0
M  V30 7948 C 752.437 0.12706 1.95187 0
M  V30 7949 O 753.643 0.0353066 2.71477 0
M  V30 7950 C 752.099 2.61168 2.47627 0
M  V30 7951 C 751.707 4.03051 1.95587 0
M  V30 7952 C 753.451 2.73472 3.24674 0
M  V30 7953 C 751.358 5.07312 3.03954 0
M  V30 7954 H 750.288 0.5518 0.513841 0
M  V30 7955 H 752.939 1.7136 0.656359 0
M  V30 7956 H 751.321 2.31379 3.21372 0
M  V30 7957 H 752.495 4.42497 1.2858 0
M  V30 7958 H 750.81 3.95158 1.31298 0
M  V30 7959 H 753.407 3.48537 4.05494 0
M  V30 7960 H 753.75 1.79953 3.75397 0
M  V30 7961 H 754.283 3.02765 2.58028 0
M  V30 7962 H 751.022 6.02525 2.58154 0
M  V30 7963 H 750.542 4.7244 3.69541 0
M  V30 7964 H 752.221 5.31867 3.6841 0
M  V30 7965 N 752.353 -0.854086 1.3245 0
M  V30 7966 C 753.283 -1.97827 1.24044 0
M  V30 7967 C 754.264 -1.69646 0.124166 0
M  V30 7968 O 755.449 -1.91687 0.31143 0
M  V30 7969 C 752.579 -3.33673 0.963324 0
M  V30 7970 C 751.533 -3.76207 2.04089 0
M  V30 7971 C 750.859 -5.0969 1.61618 0
M  V30 7972 C 752.159 -3.91612 3.45597 0
M  V30 7973 H 753.853 -2.05118 2.18099 0
M  V30 7974 H 751.399 -0.985489 1.04996 0
M  V30 7975 H 753.352 -4.11871 0.891061 0
M  V30 7976 H 752.076 -3.26597 -0.0128649 0
M  V30 7977 H 750.735 -3.0026 2.10332 0
M  V30 7978 H 750.383 -4.99072 0.627418 0
M  V30 7979 H 750.083 -5.3912 2.33717 0
M  V30 7980 H 751.607 -5.90381 1.55829 0
M  V30 7981 H 753.021 -4.60163 3.4194 0
M  V30 7982 H 751.418 -4.3246 4.16051 0
M  V30 7983 H 752.488 -2.9451 3.85217 0
M  V30 7984 N 753.831 -1.1567 -1.07043 0
M  V30 7985 C 754.763 -0.814095 -2.14255 0
M  V30 7986 C 755.776 0.175293 -1.61854 0
M  V30 7987 O 756.965 -0.0483984 -1.78434 0
M  V30 7988 C 754.065 -0.190082 -3.38367 0
M  V30 7989 C 753.238 -1.21768 -4.20109 0
M  V30 7990 C 752.297 -0.614863 -5.22595 0
M  V30 7991 O 751.323 -1.28167 -5.54583 0
M  V30 7992 N 752.525 0.601955 -5.77371 0
M  V30 7993 H 755.29 -1.73677 -2.44247 0
M  V30 7994 H 752.851 -1.05301 -1.22977 0
M  V30 7995 H 754.843 0.22604 -4.04068 0
M  V30 7996 H 753.413 0.635992 -3.06062 0
M  V30 7997 H 752.633 -1.81025 -3.50177 0
M  V30 7998 H 753.921 -1.9114 -4.71533 0
M  V30 7999 H 753.319 1.162 -5.53637 0
M  V30 8000 H 751.876 0.96039 -6.44686 0
M  V30 8001 N 755.309 1.25446 -0.953992 0
M  V30 8002 C 756.557 1.92762 -0.607227 0
M  V30 8003 C 756.878 1.7509 0.858399 0
M  V30 8004 O 756.148 1.11416 1.61132 0
M  V30 8005 H 754.728 0.713377 -0.221591 0
M  V30 8006 H 757.39 1.52625 -1.21209 0
M  V30 8007 H 756.486 3.00695 -0.835998 0
M  V30 8008 N 756.787 0.722489 1.40064 0
M  V30 8009 C 757.75 0.0830209 2.2905 0
M  V30 8010 C 758.75 -0.680208 1.45705 0
M  V30 8011 O 759.94 -0.511084 1.66534 0
M  V30 8012 C 757.072 -0.892092 3.29021 0
M  V30 8013 H 758.265 0.866848 2.87099 0
M  V30 8014 H 755.818 0.487556 1.48501 0
M  V30 8015 H 756.553 -1.70273 2.76003 0
M  V30 8016 H 756.338 -0.34761 3.90556 0
M  V30 8017 H 757.828 -1.33648 3.95636 0
M  V30 8018 N 758.265 -1.50454 0.469181 0
M  V30 8019 C 759.195 -2.31353 -0.31592 0
M  V30 8020 C 760.176 -1.38172 -0.992094 0
M  V30 8021 O 761.361 -1.67093 -0.989633 0
M  V30 8022 C 758.491 -3.1786 -1.39937 0
M  V30 8023 C 757.445 -4.19578 -0.844909 0
M  V30 8024 C 756.771 -4.9481 -2.0265 0
M  V30 8025 C 758.071 -5.22106 0.142499 0
M  V30 8026 H 759.765 -2.97237 0.359269 0
M  V30 8027 H 757.311 -1.42942 0.174224 0
M  V30 8028 H 759.264 -3.7325 -1.95607 0
M  V30 8029 H 757.988 -2.49858 -2.1033 0
M  V30 8030 H 756.647 -3.65285 -0.310189 0
M  V30 8031 H 756.295 -4.23282 -2.71737 0
M  V30 8032 H 755.995 -5.63613 -1.66174 0
M  V30 8033 H 757.519 -5.53035 -2.58815 0
M  V30 8034 H 758.933 -5.72378 -0.324966 0
M  V30 8035 H 757.33 -5.98618 0.421441 0
M  V30 8036 H 758.4 -4.7297 1.06901 0
M  V30 8037 N 759.743 -0.201713 -1.56304 0
M  V30 8038 C 760.653 0.728296 -2.23009 0
M  V30 8039 C 761.669 1.22945 -1.23128 0
M  V30 8040 O 762.845 1.27523 -1.55884 0
M  V30 8041 C 759.91 1.92792 -2.88153 0
M  V30 8042 C 758.971 1.47068 -4.03323 0
M  V30 8043 C 758.204 2.61312 -4.65351 0
M  V30 8044 O 758.427 3.7896 -4.26317 0
M  V30 8045 O 757.361 2.33646 -5.54701 0
M  V30 8046 H 761.187 0.190166 -3.03104 0
M  V30 8047 H 758.772 0.0278725 -1.49374 0
M  V30 8048 H 760.654 2.6289 -3.29343 0
M  V30 8049 H 759.329 2.45452 -2.11033 0
M  V30 8050 H 758.236 0.738299 -3.66742 0
M  V30 8051 H 759.569 0.990666 -4.82127 0
M  V30 8052 N 761.222 1.57436 0.0718424 0
M  V30 8053 C 762.154 2.00412 1.1121 0
M  V30 8054 C 763.167 0.910074 1.34987 0
M  V30 8055 O 764.356 1.18796 1.33228 0
M  V30 8056 C 761.456 2.32786 2.46301 0
M  V30 8057 C 760.629 3.64036 2.4248 0
M  V30 8058 C 759.688 3.8408 3.59679 0
M  V30 8059 O 758.714 4.55667 3.4111 0
M  V30 8060 N 759.916 3.2643 4.80025 0
M  V30 8061 H 762.681 2.90264 0.746118 0
M  V30 8062 H 760.242 1.59791 0.260495 0
M  V30 8063 H 762.234 2.43368 3.23348 0
M  V30 8064 H 760.804 1.48824 2.74901 0
M  V30 8065 H 760.024 3.64208 1.50818 0
M  V30 8066 H 761.312 4.50217 2.37027 0
M  V30 8067 H 760.71 2.68325 4.98014 0
M  V30 8068 H 759.267 3.42461 5.54584 0
M  V30 8069 N 762.7 -0.34323 1.53817 0
M  V30 8070 C 763.948 -1.0813 1.70741 0
M  V30 8071 C 764.269 -1.89165 0.473461 0
M  V30 8072 O 763.539 -1.89075 -0.512605 0
M  V30 8073 H 762.119 -0.40219 0.629486 0
M  V30 8074 H 764.781 -0.384426 1.91071 0
M  V30 8075 H 763.877 -1.7585 2.57843 0
M  V30 8076 N 764.178 -1.45556 -0.604258 0
M  V30 8077 C 765.403 -1.53509 -1.39462 0
M  V30 8078 C 765.828 -0.169638 -1.87333 0
M  V30 8079 O 765.186 0.846346 -1.60333 0
M  V30 8080 C 765.234 -2.52654 -2.5729 0
M  V30 8081 O 764.338 -2.04666 -3.5803 0
M  V30 8082 H 763.679 -0.517355 -0.416221 0
M  V30 8083 H 766.209 -1.90939 -0.735072 0
M  V30 8084 H 766.219 -2.71568 -3.04491 0
M  V30 8085 H 764.894 -3.51823 -2.21797 0
M  V30 8086 H 763.471 -1.95643 -3.17456 0
M  V30 8087 N 765.656 0.84705 -1.32902 0
M  V30 8088 C 766.604 1.97765 -1.22441 0
M  V30 8089 C 767.598 1.68919 -0.127546 0
M  V30 8090 O 768.804 1.77633 -0.290973 0
M  V30 8091 H 765.179 0.649072 -0.379748 0
M  V30 8092 H 767.15 2.03713 -2.18044 0
M  V30 8093 C 765.899 3.33834 -0.972125 0
M  V30 8094 H 765.222 3.56564 -1.80837 0
M  V30 8095 H 766.662 4.13467 -0.939209 0
M  V30 8096 C 765.121 3.35328 0.325059 0
M  V30 8097 O 765.651 3.78887 1.33445 0
M  V30 8098 N 763.857 2.88488 0.349718 0
M  V30 8099 H 763.404 2.53234 -0.472236 0
M  V30 8100 H 763.362 2.8987 1.21748 0
M  V30 8101 N 767.134 1.16236 1.06428 0
M  V30 8102 C 768.359 0.967688 1.83441 0
M  V30 8103 C 768.784 -0.479167 1.81894 0
M  V30 8104 O 768.142 -1.34224 1.21875 0
M  V30 8105 C 768.19 1.49806 3.2801 0
M  V30 8106 O 767.294 0.703481 4.06356 0
M  V30 8107 H 766.635 0.344468 0.56766 0
M  V30 8108 H 769.165 1.54442 1.34197 0
M  V30 8109 H 769.175 1.51495 3.78831 0
M  V30 8110 H 767.85 2.55133 3.2845 0
M  V30 8111 H 766.427 0.756986 3.65136 0
M  V30 8112 N 768.612 -1.24939 0.960631 0
M  V30 8113 C 769.544 -2.24879 0.442937 0
M  V30 8114 C 770.557 -1.56615 -0.444464 0
M  V30 8115 O 771.746 -1.76715 -0.251776 0
M  V30 8116 C 768.846 -3.36757 -0.380537 0
M  V30 8117 C 768.019 -4.34587 0.495283 0
M  V30 8118 C 767.078 -5.25502 -0.270995 0
M  V30 8119 O 766.104 -5.68227 0.332661 0
M  V30 8120 N 767.306 -5.59077 -1.56249 0
M  V30 8121 H 770.071 -2.69932 1.30218 0
M  V30 8122 H 767.632 -1.38907 0.83166 0
M  V30 8123 H 769.624 -3.94542 -0.90103 0
M  V30 8124 H 768.194 -2.91045 -1.14067 0
M  V30 8125 H 767.414 -3.75593 1.19682 0
M  V30 8126 H 768.702 -4.96925 1.09285 0
M  V30 8127 H 768.1 -5.2628 -2.07476 0
M  V30 8128 H 766.657 -6.19421 -2.02882 0
M  V30 8129 N 770.09 -0.729906 -1.39679 0
M  V30 8130 C 771.02 -0.101618 -2.33279 0
M  V30 8131 C 772.001 0.729854 -1.53646 0
M  V30 8132 O 773.186 0.67587 -1.82059 0
M  V30 8133 C 770.316 0.81024 -3.37716 0
M  V30 8134 C 769.27 0.0833126 -4.27919 0
M  V30 8135 C 768.596 1.11185 -5.23012 0
M  V30 8136 C 769.896 -1.07107 -5.112 0
M  V30 8137 H 771.59 -0.883452 -2.86069 0
M  V30 8138 H 769.136 -0.426283 -1.37546 0
M  V30 8139 H 771.089 1.25927 -4.02145 0
M  V30 8140 H 769.813 1.62413 -2.83354 0
M  V30 8141 H 768.472 -0.346043 -3.64963 0
M  V30 8142 H 768.12 1.91917 -4.64948 0
M  V30 8143 H 767.82 0.63026 -5.8421 0
M  V30 8144 H 769.344 1.56068 -5.90318 0
M  V30 8145 H 770.758 -0.700726 -5.69002 0
M  V30 8146 H 769.155 -1.48196 -5.81514 0
M  V30 8147 H 770.225 -1.89513 -4.46332 0
M  V30 8148 N 771.568 1.50203 -0.477153 0
M  V30 8149 C 772.501 2.25343 0.359983 0
M  V30 8150 C 773.479 1.28909 0.991022 0
M  V30 8151 O 774.663 1.58146 1.02578 0
M  V30 8152 C 771.79 3.03431 1.5049 0
M  V30 8153 C 770.836 4.14836 0.99063 0
M  V30 8154 S 771.669 5.35407 -0.0995413 0
M  V30 8155 C 772.825 6.17045 1.04911 0
M  V30 8156 H 773.058 2.95999 -0.277836 0
M  V30 8157 H 770.591 1.52159 -0.262115 0
M  V30 8158 H 772.549 3.49012 2.16105 0
M  V30 8159 H 771.21 2.32289 2.11425 0
M  V30 8160 H 770.403 4.689 1.84794 0
M  V30 8161 H 770.005 3.71723 0.412097 0
M  V30 8162 H 772.297 6.48546 1.95946 0
M  V30 8163 H 773.24 7.05979 0.547596 0
M  V30 8164 H 773.648 5.49193 1.30567 0
M  V30 8165 N 773.046 0.209999 1.56195 0
M  V30 8166 C 774.009 -0.691232 2.18528 0
M  V30 8167 C 775.009 -1.13013 1.14388 0
M  V30 8168 O 776.199 -1.04081 1.39688 0
M  V30 8169 C 773.331 -1.94551 2.79934 0
M  V30 8170 H 774.524 -0.147953 2.99535 0
M  V30 8171 H 772.077 -0.0396243 1.5625 0
M  V30 8172 H 772.812 -2.53094 2.02766 0
M  V30 8173 H 772.597 -1.63938 3.56184 0
M  V30 8174 H 774.087 -2.58785 3.2775 0
M  V30 8175 N 774.524 -1.57472 -0.0634922 0
M  V30 8176 C 775.77 -1.87932 -0.762194 0
M  V30 8177 C 776.103 -0.803377 -1.76804 0
M  V30 8178 O 775.378 0.185468 -1.93614 0
M  V30 8179 C 775.661 -3.29053 -1.46275 0
M  V30 8180 C 775.514 -4.47309 -0.472755 0
M  V30 8181 C 776.833 -3.68537 -2.40558 0
M  V30 8182 H 773.952 -0.683521 -0.275624 0
M  V30 8183 H 776.594 -1.89983 -0.0252651 0
M  V30 8184 H 774.744 -3.27435 -2.0909 0
M  V30 8185 H 776.416 -4.61053 0.150828 0
M  V30 8186 H 774.659 -4.33286 0.211187 0
M  V30 8187 H 775.33 -5.42853 -1.00072 0
M  V30 8188 H 777.806 -3.71302 -1.87814 0
M  V30 8189 H 776.682 -4.68152 -2.86574 0
M  V30 8190 H 776.943 -2.98917 -3.25731 0
M  V30 8191 N 776.003 0.335068 -1.53997 0
M  V30 8192 C 776.935 1.4327 -1.78903 0
M  V30 8193 C 777.948 1.48347 -0.670598 0
M  V30 8194 O 779.137 1.51277 -0.947494 0
M  V30 8195 C 776.237 2.81878 -1.88144 0
M  V30 8196 C 775.41 3.00141 -3.18174 0
M  V30 8197 C 774.469 4.19041 -3.18263 0
M  V30 8198 O 773.495 4.12751 -3.9195 0
M  V30 8199 N 774.697 5.28004 -2.41231 0
M  V30 8200 H 777.462 1.22272 -2.73623 0
M  V30 8201 H 775.023 0.524996 -1.53152 0
M  V30 8202 H 777.015 3.59609 -1.85644 0
M  V30 8203 H 775.585 2.9598 -1.00572 0
M  V30 8204 H 774.805 2.09808 -3.33728 0
M  V30 8205 H 776.093 3.0923 -4.04047 0
M  V30 8206 H 775.491 5.35986 -1.8093 0
M  V30 8207 H 774.048 6.04196 -2.44521 0
M  V30 8208 N 777.481 1.45874 0.596531 0
M  V30 8209 C 778.711 1.5379 1.37958 0
M  V30 8210 C 779.119 0.173086 1.88407 0
M  V30 8211 O 778.462 -0.837498 1.63498 0
M  V30 8212 C 778.524 2.47044 2.61169 0
M  V30 8213 C 778.188 3.93565 2.32283 0
M  V30 8214 C 779.185 4.83162 1.91965 0
M  V30 8215 C 776.87 4.38579 2.44854 0
M  V30 8216 C 778.864 6.15782 1.64593 0
M  V30 8217 C 776.551 5.71238 2.17095 0
M  V30 8218 C 777.549 6.59659 1.77028 0
M  V30 8219 O 777.237 7.89857 1.49601 0
M  V30 8220 H 776.969 0.523 0.428307 0
M  V30 8221 H 779.523 1.91855 0.733529 0
M  V30 8222 H 777.753 2.0397 3.28532 0
M  V30 8223 H 779.442 2.4552 3.23226 0
M  V30 8224 H 780.208 4.49646 1.8178 0
M  V30 8225 H 776.087 3.6999 2.75006 0
M  V30 8226 H 779.631 6.84757 1.33245 0
M  V30 8227 H 775.528 6.04306 2.26901 0
M  V30 8228 H 776.296 8.01991 1.63561 0
M  V30 8229 N 778.959 -0.83999 1.33349 0
M  V30 8230 C 780.187 -1.62728 1.27778 0
M  V30 8231 C 780.602 -1.88191 -0.151505 0
M  V30 8232 O 779.959 -1.46128 -1.09329 0
M  V30 8233 C 780.01 -2.97813 2.04913 0
M  V30 8234 O 779.731 -2.73469 3.42266 0
M  V30 8235 C 781.232 -3.92245 2.0654 0
M  V30 8236 H 778.452 -0.506374 0.440257 0
M  V30 8237 H 780.996 -1.04637 1.75703 0
M  V30 8238 H 779.151 -3.52509 1.60674 0
M  V30 8239 H 779.565 -3.59483 3.81932 0
M  V30 8240 H 781.039 -4.84249 2.64966 0
M  V30 8241 H 781.516 -4.26332 1.05537 0
M  V30 8242 H 782.122 -3.43487 2.50793 0
M  V30 8243 N 780.437 -1.16799 -1.0581 0
M  V30 8244 C 781.347 -0.893492 -2.16919 0
M  V30 8245 C 782.363 0.136061 -1.73467 0
M  V30 8246 O 783.539 -0.0417348 -2.01357 0
M  V30 8247 C 780.604 -0.403763 -3.44341 0
M  V30 8248 C 779.665 -1.49914 -4.02274 0
M  V30 8249 C 778.898 -1.03269 -5.23614 0
M  V30 8250 O 779.121 0.115647 -5.70283 0
M  V30 8251 O 778.055 -1.8231 -5.73626 0
M  V30 8252 H 781.881 -1.82274 -2.42919 0
M  V30 8253 H 779.466 -0.948361 -1.1544 0
M  V30 8254 H 781.348 -0.137874 -4.21174 0
M  V30 8255 H 780.023 0.497413 -3.19855 0
M  V30 8256 H 778.93 -1.81883 -3.26909 0
M  V30 8257 H 780.263 -2.3758 -4.31064 0
M  V30 8258 N 781.915 1.24427 -0.967243 0
M  V30 8259 C 783.143 1.96541 -0.646477 0
M  V30 8260 C 783.558 1.71753 0.783996 0
M  V30 8261 O 782.915 1.00102 1.52597 0
M  V30 8262 C 782.966 3.4983 -0.911098 0
M  V30 8263 O 782.687 3.7377 -2.28534 0
M  V30 8264 C 784.188 4.3916 -0.604458 0
M  V30 8265 H 781.408 0.626129 -0.241255 0
M  V30 8266 H 783.952 1.58268 -1.29505 0
M  V30 8267 H 782.107 3.86168 -0.308741 0
M  V30 8268 H 782.521 4.68154 -2.365 0
M  V30 8269 H 783.995 5.4557 -0.840069 0
M  V30 8270 H 784.472 4.36771 0.461273 0
M  V30 8271 H 785.078 4.08409 -1.1867 0
M  V30 8272 N 783.393 0.737304 1.3929 0
M  V30 8273 C 784.621 0.296573 2.04763 0
M  V30 8274 C 785.036 -1.06941 1.55592 0
M  V30 8275 O 784.393 -1.67619 0.721822 0
M  V30 8276 C 784.444 0.291906 3.6032 0
M  V30 8277 O 784.165 1.60397 4.07682 0
M  V30 8278 C 785.666 -0.164708 4.42994 0
M  V30 8279 H 782.886 0.129251 0.658434 0
M  V30 8280 H 785.43 1.0016 1.78293 0
M  V30 8281 H 783.585 -0.364251 3.85684 0
M  V30 8282 H 783.999 1.51909 5.0202 0
M  V30 8283 H 785.473 -0.116814 5.51876 0
M  V30 8284 H 785.95 -1.21022 4.22197 0
M  V30 8285 H 786.556 0.461968 4.22784 0
M  V30 8286 N 784.871 -1.49948 0.485112 0
M  V30 8287 C 786.096 -2.073 -0.0645059 0
M  V30 8288 C 786.521 -1.345 -1.31497 0
M  V30 8289 O 785.879 -0.39687 -1.76903 0
M  V30 8290 C 785.927 -3.59201 -0.317304 0
M  V30 8291 O 785.031 -3.88085 -1.39514 0
M  V30 8292 H 784.372 -0.663723 0.0191822 0
M  V30 8293 H 786.902 -1.92963 0.680179 0
M  V30 8294 H 786.912 -4.04227 -0.553604 0
M  V30 8295 H 785.587 -4.11602 0.596387 0
M  V30 8296 H 784.164 -3.54885 -1.14504 0
M  V30 8297 N 786.349 -0.21828 -1.56081 0
M  V30 8298 C 787.574 0.422302 -2.03055 0
M  V30 8299 C 787.999 1.5279 -1.09713 0
M  V30 8300 O 787.357 1.81102 -0.0847187 0
M  V30 8301 C 787.405 0.934177 -3.48289 0
M  V30 8302 O 786.509 2.04574 -3.58083 0
M  V30 8303 H 785.85 0.0959764 -0.657027 0
M  V30 8304 H 788.38 -0.335958 -2.01823 0
M  V30 8305 H 788.39 1.24484 -3.88546 0
M  V30 8306 H 787.065 0.124963 -4.15712 0
M  V30 8307 H 785.642 1.74196 -3.29712 0
M  V30 8308 N 787.827 1.57504 0.0551401 0
M  V30 8309 C 789.076 1.87237 0.750009 0
M  V30 8310 C 789.389 0.813268 1.77891 0
M  V30 8311 O 790.595 0.99898 2.52453 0
M  V30 8312 C 789.051 3.32187 1.38491 0
M  V30 8313 C 788.659 4.46267 0.393707 0
M  V30 8314 C 790.403 3.71101 2.06117 0
M  V30 8315 C 788.31 5.82265 1.03547 0
M  V30 8316 H 787.24 0.698524 0.283866 0
M  V30 8317 H 789.891 1.835 0.00365997 0
M  V30 8318 H 788.273 3.30588 2.18008 0
M  V30 8319 H 789.447 4.59289 -0.372865 0
M  V30 8320 H 787.762 4.16015 -0.17902 0
M  V30 8321 H 790.359 4.70012 2.54937 0
M  V30 8322 H 790.702 3.01751 2.86796 0
M  V30 8323 H 791.235 3.74762 1.33409 0
M  V30 8324 H 787.974 6.54949 0.268644 0
M  V30 8325 H 787.494 5.73012 1.7725 0
M  V30 8326 H 789.173 6.28148 1.55047 0
M  V30 8327 N 789.305 -0.326896 1.54172 0
M  V30 8328 C 790.53 -1.08924 1.76494 0
M  V30 8329 C 790.955 -1.81039 0.510523 0
M  V30 8330 O 790.313 -1.73141 -0.537756 0
M  V30 8331 C 790.361 -2.06558 2.95578 0
M  V30 8332 O 789.465 -3.14394 2.6689 0
M  V30 8333 H 788.806 -0.314216 0.584948 0
M  V30 8334 H 791.336 -0.372207 2.01186 0
M  V30 8335 H 791.346 -2.49487 3.22832 0
M  V30 8336 H 790.021 -1.53469 3.86549 0
M  V30 8337 H 788.598 -2.76164 2.50576 0
M  V30 8338 N 790.784 -1.46188 -0.588786 0
M  V30 8339 C 792.2 -1.31009 -0.911524 0
M  V30 8340 C 792.4 -0.277017 -1.99587 0
M  V30 8341 O 791.456 0.322532 -2.50432 0
M  V30 8342 C 792.769 -2.69459 -1.33463 0
M  V30 8343 C 794.317 -2.77502 -1.44782 0
M  V30 8344 C 794.792 -4.1652 -1.90461 0
M  V30 8345 N 796.283 -4.18907 -1.97665 0
M  V30 8346 C 797.018 -5.23359 -2.34271 0
M  V30 8347 N 796.514 -6.38143 -2.69714 0
M  V30 8348 N 798.307 -5.10723 -2.34774 0
M  V30 8349 H 790.458 -2.12016 0.127614 0
M  V30 8350 H 792.721 -0.947984 -0.00557599 0
M  V30 8351 H 792.427 -3.46336 -0.611929 0
M  V30 8352 H 792.301 -2.99165 -2.2974 0
M  V30 8353 H 794.688 -2.00917 -2.1614 0
M  V30 8354 H 794.769 -2.51488 -0.467724 0
M  V30 8355 H 794.413 -4.93597 -1.19684 0
M  V30 8356 H 794.343 -4.39937 -2.89418 0
M  V30 8357 H 796.834 -3.36084 -1.72789 0
M  V30 8358 H 797.147 -7.13624 -2.96582 0
M  V30 8359 H 795.492 -6.41514 -2.67366 0
M  V30 8360 H 798.683 -4.20088 -2.06503 0
M  V30 8361 H 798.856 -5.9224 -2.62975 0
M  V30 8362 N 792.262 0.832906 -1.33792 0
M  V30 8363 C 793.21 1.96455 -1.24532 0
M  V30 8364 C 794.204 1.68774 -0.145455 0
M  V30 8365 O 795.41 1.77314 -0.309797 0
M  V30 8366 H 791.785 0.645008 -0.386611 0
M  V30 8367 H 793.756 2.01389 -2.20193 0
M  V30 8368 C 792.505 3.32784 -1.00748 0
M  V30 8369 H 791.828 3.54626 -1.84609 0
M  V30 8370 H 793.268 4.12447 -0.98301 0
M  V30 8371 C 791.727 3.35654 0.289475 0
M  V30 8372 O 792.257 3.80281 1.29419 0
M  V30 8373 N 790.463 2.88843 0.3191 0
M  V30 8374 H 790.01 2.52719 -0.499069 0
M  V30 8375 H 789.968 2.91145 1.18667 0
M  V30 8376 N 793.74 1.17359 1.05189 0
M  V30 8377 C 794.965 0.98709 1.82404 0
M  V30 8378 C 795.39 -0.459848 1.82392 0
M  V30 8379 O 794.748 -1.32924 1.23292 0
M  V30 8380 C 794.796 1.53276 3.26403 0
M  V30 8381 O 793.9 0.746541 4.05587 0
M  V30 8382 H 793.241 0.35047 0.563974 0
M  V30 8383 H 795.771 1.55856 1.32552 0
M  V30 8384 H 795.781 1.55504 3.77203 0
M  V30 8385 H 794.456 2.58603 3.25726 0
M  V30 8386 H 793.033 0.795671 3.64312 0
M  V30 8387 N 795.218 -1.23913 0.973828 0
M  V30 8388 C 796.466 -1.91771 0.637817 0
M  V30 8389 C 796.787 -1.76434 -0.830435 0
M  V30 8390 O 796.057 -1.13965 -1.59339 0
M  V30 8391 H 794.637 -0.709761 0.232912 0
M  V30 8392 H 797.299 -1.50677 1.23622 0
M  V30 8393 H 796.395 -2.99327 0.883731 0
M  V30 8394 N 796.696 -0.74468 -1.38897 0
M  V30 8395 C 797.921 -0.306119 -2.05128 0
M  V30 8396 C 798.346 1.0541 -1.55789 0
M  V30 8397 O 797.704 1.66993 -0.705909 0
M  V30 8398 C 797.752 -0.328195 -3.59103 0
M  V30 8399 O 796.856 0.680876 -4.06741 0
M  V30 8400 H 796.197 -0.137209 -0.649669 0
M  V30 8401 H 798.727 -1.01331 -1.77745 0
M  V30 8402 H 798.737 -0.175956 -4.0762 0
M  V30 8403 H 797.412 -1.32067 -3.94374 0
M  V30 8404 H 795.989 0.49398 -3.69614 0
M  V30 8405 N 798.174 1.49689 -0.493057 0
M  V30 8406 C 799.084 2.32746 0.294358 0
M  V30 8407 C 800.1 1.44117 0.975003 0
M  V30 8408 O 801.276 1.77149 0.958138 0
M  V30 8409 C 798.341 3.19358 1.34949 0
M  V30 8410 C 797.402 4.2383 0.683122 0
M  V30 8411 C 796.635 5.06303 1.68798 0
M  V30 8412 O 796.858 4.90172 2.91698 0
M  V30 8413 O 795.792 5.88826 1.24768 0
M  V30 8414 H 799.618 3.01247 -0.385254 0
M  V30 8415 H 797.203 1.47216 -0.254519 0
M  V30 8416 H 799.085 3.73037 1.96014 0
M  V30 8417 H 797.76 2.53561 2.01217 0
M  V30 8418 H 796.667 3.74086 0.0329351 0
M  V30 8419 H 798 4.9216 0.0630192 0
M  V30 8420 N 799.652 0.226554 1.55963 0
M  V30 8421 C 800.582 -0.676079 2.23498 0
M  V30 8422 C 801.563 -1.19718 1.20837 0
M  V30 8423 O 802.748 -1.24027 1.49436 0
M  V30 8424 C 799.878 -1.88217 2.91876 0
M  V30 8425 C 798.832 -1.4947 4.01052 0
M  V30 8426 C 798.158 -2.77997 4.56751 0
M  V30 8427 C 799.458 -0.680951 5.17842 0
M  V30 8428 H 801.152 -0.112989 2.99187 0
M  V30 8429 H 798.698 -0.0529046 1.43903 0
M  V30 8430 H 800.651 -2.51911 3.37815 0
M  V30 8431 H 799.375 -2.47031 2.13643 0
M  V30 8432 H 798.034 -0.881199 3.55852 0
M  V30 8433 H 797.682 -3.34966 3.75243 0
M  V30 8434 H 797.382 -2.52803 5.30438 0
M  V30 8435 H 798.906 -3.42625 5.05411 0
M  V30 8436 H 800.32 -1.22171 5.60131 0
M  V30 8437 H 798.717 -0.525898 5.97791 0
M  V30 8438 H 799.787 0.311346 4.83899 0
M  V30 8439 N 801.13 -1.57531 -0.0467866 0
M  V30 8440 C 802.062 -2.02156 -1.08007 0
M  V30 8441 C 803.075 -0.931434 -1.33522 0
M  V30 8442 O 804.264 -1.209 -1.31321 0
M  V30 8443 C 801.364 -2.36675 -2.42566 0
M  V30 8444 C 800.537 -3.67848 -2.36658 0
M  V30 8445 C 799.596 -3.89754 -3.53523 0
M  V30 8446 O 798.622 -4.61036 -3.33818 0
M  V30 8447 N 799.824 -3.34025 -4.74771 0
M  V30 8448 H 802.589 -2.91414 -0.699845 0
M  V30 8449 H 800.15 -1.60185 -0.235041 0
M  V30 8450 H 802.142 -2.48482 -3.19435 0
M  V30 8451 H 800.712 -1.53178 -2.72498 0
M  V30 8452 H 799.932 -3.66561 -1.45005 0
M  V30 8453 H 801.22 -4.53931 -2.29835 0
M  V30 8454 H 800.618 -2.76214 -4.93683 0
M  V30 8455 H 799.175 -3.51241 -5.49066 0
M  V30 8456 N 802.608 0.318715 -1.54344 0
M  V30 8457 C 803.854 1.05765 -1.73037 0
M  V30 8458 C 804.187 1.87514 -0.505181 0
M  V30 8459 O 803.462 1.88021 0.497838 0
M  V30 8460 C 803.745 1.97836 -3.00887 0
M  V30 8461 C 803.598 1.19384 -4.33668 0
M  V30 8462 C 804.917 2.97285 -3.24514 0
M  V30 8463 H 802.036 0.383104 -0.629603 0
M  V30 8464 H 804.678 0.333864 -1.87044 0
M  V30 8465 H 802.828 2.59552 -2.89076 0
M  V30 8466 H 804.5 0.600906 -4.57369 0
M  V30 8467 H 802.743 0.496198 -4.30953 0
M  V30 8468 H 803.414 1.87014 -5.19355 0
M  V30 8469 H 805.89 2.45693 -3.35819 0
M  V30 8470 H 804.766 3.58887 -4.15321 0
M  V30 8471 H 805.027 3.70003 -2.41971 0
M  V30 8472 N 804.086 1.46499 0.581025 0
M  V30 8473 C 805.316 1.55244 1.36319 0
M  V30 8474 C 805.724 0.193059 1.88212 0
M  V30 8475 O 805.067 -0.820109 1.64377 0
M  V30 8476 C 805.129 2.498 2.58535 0
M  V30 8477 C 804.793 3.96007 2.28096 0
M  V30 8478 C 805.79 4.85171 1.8683 0
M  V30 8479 C 803.475 4.41152 2.40189 0
M  V30 8480 C 805.469 6.17493 1.58053 0
M  V30 8481 C 803.156 5.73508 2.11024 0
M  V30 8482 C 804.154 6.615 1.70021 0
M  V30 8483 O 803.842 7.914 1.41215 0
M  V30 8484 H 803.574 0.527513 0.422736 0
M  V30 8485 H 806.128 1.92623 0.713139 0
M  V30 8486 H 804.358 2.07443 3.2635 0
M  V30 8487 H 806.047 2.48934 3.20604 0
M  V30 8488 H 806.813 4.51548 1.77001 0
M  V30 8489 H 802.692 3.72886 2.71066 0
M  V30 8490 H 806.236 6.86131 1.25974 0
M  V30 8491 H 802.133 6.06679 2.20478 0
M  V30 8492 H 802.901 8.03681 1.55046 0
M  V30 8493 N 805.565 -0.825799 1.34232 0
M  V30 8494 C 806.795 -1.61129 1.29309 0
M  V30 8495 C 807.203 -1.88714 -0.135589 0
M  V30 8496 O 806.546 -1.47703 -1.09222 0
M  V30 8497 C 806.608 -2.97866 2.01287 0
M  V30 8498 C 806.272 -2.9319 3.50555 0
M  V30 8499 C 807.269 -2.67978 4.45515 0
M  V30 8500 C 804.954 -3.12913 3.92926 0
M  V30 8501 C 806.948 -2.62536 5.80822 0
M  V30 8502 C 804.635 -3.07096 5.28333 0
M  V30 8503 C 805.633 -2.8194 6.22092 0
M  V30 8504 O 805.321 -2.7605 7.55018 0
M  V30 8505 H 805.053 -0.507652 0.446391 0
M  V30 8506 H 807.607 -1.03575 1.77374 0
M  V30 8507 H 805.837 -3.57327 1.47832 0
M  V30 8508 H 807.526 -3.58848 1.89691 0
M  V30 8509 H 808.292 -2.52478 4.14101 0
M  V30 8510 H 804.171 -3.3151 3.20347 0
M  V30 8511 H 807.715 -2.42821 6.53975 0
M  V30 8512 H 803.612 -3.22148 5.59367 0
M  V30 8513 H 804.38 -2.91798 7.6472 0
M  V30 8514 N 807.043 -1.17915 -1.04565 0
M  V30 8515 C 808.006 -0.903787 -2.10628 0
M  V30 8516 C 809.006 0.10873 -1.60432 0
M  V30 8517 O 810.196 -0.124152 -1.73757 0
M  V30 8518 C 807.328 -0.355017 -3.39046 0
M  V30 8519 H 808.521 -1.84425 -2.3649 0
M  V30 8520 H 806.074 -0.990477 -1.2091 0
M  V30 8521 H 806.809 0.592297 -3.18845 0
M  V30 8522 H 806.594 -1.08484 -3.76794 0
M  V30 8523 H 808.084 -0.180891 -4.17208 0
M  V30 8524 N 808.521 1.23394 -0.980386 0
M  V30 8525 C 809.746 1.96384 -0.666935 0
M  V30 8526 C 810.171 1.72087 0.759456 0
M  V30 8527 O 809.529 0.992328 1.51732 0
M  V30 8528 C 809.577 3.47499 -0.963177 0
M  V30 8529 O 808.681 4.12363 -0.0552051 0
M  V30 8530 H 808.022 0.614797 -0.250839 0
M  V30 8531 H 810.552 1.56831 -1.31398 0
M  V30 8532 H 810.562 3.97953 -0.899877 0
M  V30 8533 H 809.237 3.6451 -2.00264 0
M  V30 8534 H 807.814 3.72499 -0.172914 0
M  V30 8535 N 809.999 0.752036 1.385 0
M  V30 8536 C 811.41 0.375385 1.82887 0
M  V30 8537 C 811.761 -1.09575 1.62751 0
M  V30 8538 O 810.886 -1.84685 1.12785 0
M  V30 8539 C 811.481 0.674563 3.32017 0
M  V30 8540 C 810.04 0.351208 3.74758 0
M  V30 8541 C 809.187 0.928531 2.61292 0
M  V30 8542 H 812.138 0.948313 1.27251 0
M  V30 8543 H 812.159 -0.0477781 3.8047 0
M  V30 8544 H 811.671 1.74533 3.46641 0
M  V30 8545 H 809.772 -0.713042 3.65714 0
M  V30 8546 H 809.885 0.845675 4.71577 0
M  V30 8547 H 808.249 0.354012 2.52228 0
M  V30 8548 H 809.032 2.0043 2.78716 0
M  V30 8549 N 811.477 -1.49425 0.500989 0
M  V30 8550 C 812.893 -1.58826 0.156951 0
M  V30 8551 C 813.093 -1.50622 -1.33848 0
M  V30 8552 O 812.149 -1.38016 -2.11442 0
M  V30 8553 C 813.462 -2.91611 0.73374 0
M  V30 8554 C 815.01 -3.05076 0.699846 0
M  V30 8555 C 815.485 -4.40479 1.2547 0
M  V30 8556 N 816.976 -4.4697 1.2154 0
M  V30 8557 C 817.711 -5.50189 1.6149 0
M  V30 8558 N 817.207 -6.60512 2.09034 0
M  V30 8559 N 819 -5.40903 1.52907 0
M  V30 8560 H 811.151 -1.53001 1.47324 0
M  V30 8561 H 813.414 -0.724765 0.61108 0
M  V30 8562 H 813.12 -3.03182 1.78251 0
M  V30 8563 H 812.994 -3.767 0.19417 0
M  V30 8564 H 815.381 -2.93134 -0.340085 0
M  V30 8565 H 815.462 -2.2167 1.27656 0
M  V30 8566 H 815.106 -4.53172 2.29341 0
M  V30 8567 H 815.036 -5.22524 0.653921 0
M  V30 8568 H 817.527 -3.67819 0.867043 0
M  V30 8569 H 817.84 -7.35372 2.37588 0
M  V30 8570 H 816.185 -6.61553 2.13008 0
M  V30 8571 H 819.376 -4.53606 1.15583 0
M  V30 8572 H 819.549 -6.21219 1.84365 0
M  V30 8573 N 812.955 -0.234822 -1.55841 0
M  V30 8574 C 814.18 0.400741 -2.03492 0
M  V30 8575 C 814.605 1.51618 -1.11327 0
M  V30 8576 O 813.963 1.81002 -0.103922 0
M  V30 8577 C 814.011 0.897184 -3.49261 0
M  V30 8578 O 813.115 2.00764 -3.60233 0
M  V30 8579 H 812.456 0.0890023 -0.658008 0
M  V30 8580 H 814.986 -0.357345 -2.01455 0
M  V30 8581 H 814.996 1.20356 -3.89844 0
M  V30 8582 H 813.671 0.0808639 -4.15821 0
M  V30 8583 H 812.248 1.70689 -3.31541 0
M  V30 8584 N 814.433 1.57553 0.0384317 0
M  V30 8585 C 815.663 1.92813 0.742064 0
M  V30 8586 C 816.071 0.832157 1.69917 0
M  V30 8587 O 815.414 -0.200917 1.82598 0
M  V30 8588 C 815.476 3.23806 1.56172 0
M  V30 8589 C 815.14 4.50459 0.770407 0
M  V30 8590 C 816.137 5.19846 0.0748006 0
M  V30 8591 C 813.822 4.97001 0.727714 0
M  V30 8592 C 815.816 6.34047 -0.652902 0
M  V30 8593 C 813.503 6.111 -0.00373992 0
M  V30 8594 C 814.501 6.79477 -0.692816 0
M  V30 8595 O 814.189 7.91395 -1.41241 0
M  V30 8596 H 813.921 0.641174 0.214179 0
M  V30 8597 H 816.475 2.054 0.00285095 0
M  V30 8598 H 814.705 3.0752 2.34453 0
M  V30 8599 H 816.394 3.44463 2.14709 0
M  V30 8600 H 817.16 4.84899 0.098875 0
M  V30 8601 H 813.039 4.43629 1.25355 0
M  V30 8602 H 816.583 6.87353 -1.1913 0
M  V30 8603 H 812.48 6.45493 -0.0297703 0
M  V30 8604 H 813.248 8.07702 -1.32512 0
M  V30 8605 N 815.911 -0.310526 1.54511 0
M  V30 8606 C 816.843 -1.40405 1.8116 0
M  V30 8607 C 817.856 -1.47261 0.694114 0
M  V30 8608 O 819.045 -1.49751 0.971441 0
M  V30 8609 C 816.145 -2.78849 1.92604 0
M  V30 8610 C 815.318 -2.95041 3.22908 0
M  V30 8611 C 814.377 -4.13925 3.24889 0
M  V30 8612 O 813.403 -4.06463 3.98467 0
M  V30 8613 N 814.605 -5.24099 2.496 0
M  V30 8614 H 817.37 -1.17903 2.75534 0
M  V30 8615 H 814.931 -0.500564 1.53967 0
M  V30 8616 H 816.923 -3.5661 1.91342 0
M  V30 8617 H 815.493 -2.94342 1.05268 0
M  V30 8618 H 814.713 -2.04472 3.37023 0
M  V30 8619 H 816.001 -3.02763 4.08916 0
M  V30 8620 H 815.399 -5.33039 1.89435 0
M  V30 8621 H 813.956 -6.0023 2.54102 0
M  V30 8622 N 817.389 -1.46805 -0.573248 0
M  V30 8623 C 818.666 -1.43082 -1.33368 0
M  V30 8624 C 819.046 -0.119252 -2.10763 0
M  V30 8625 O 818.394 0.899239 -2.10062 0
M  V30 8626 C 818.604 -2.66643 -2.25172 0
M  V30 8627 C 819.952 -3.13188 -2.86702 0
M  V30 8628 O 820.976 -2.67258 -2.35482 0
M  V30 8629 O 819.835 -3.92994 -3.79761 0
M  V30 8630 H 816.929 -0.569451 -0.599712 0
M  V30 8631 H 819.475 -1.58984 -0.59348 0
M  V30 8632 H 818.247 -3.53649 -1.67475 0
M  V30 8633 H 817.87 -2.53247 -3.06516 0
M  V30 8634 N 818.867 0.818669 -1.34668 0
M  V30 8635 C 820.114 1.57512 -1.27264 0
M  V30 8636 C 820.442 1.93871 0.156254 0
M  V30 8637 O 819.697 1.60582 1.11857 0
M  V30 8638 C 819.996 2.88245 -2.11304 0
M  V30 8639 C 819.662 2.71159 -3.60255 0
M  V30 8640 C 818.324 2.66207 -4.00858 0
M  V30 8641 C 820.676 2.54538 -4.54819 0
M  V30 8642 C 818.004 2.4256 -5.34211 0
M  V30 8643 C 820.356 2.32421 -5.88356 0
M  V30 8644 C 819.02 2.25884 -6.28118 0
M  V30 8645 H 818.29 0.576378 -0.465692 0
M  V30 8646 H 820.937 0.9469 -1.66451 0
M  V30 8647 H 819.242 3.55381 -1.64958 0
M  V30 8648 H 820.939 3.45869 -2.02919 0
M  V30 8649 H 817.529 2.75856 -3.28027 0
M  V30 8650 H 821.713 2.57384 -4.24343 0
M  V30 8651 H 816.969 2.35959 -5.64033 0
M  V30 8652 H 821.143 2.18548 -6.61218 0
M  V30 8653 H 818.77 2.07322 -7.31383 0
M  V30 8654 N 820.346 1.18468 1.03938 0
M  V30 8655 C 821.593 0.980833 1.77161 0
M  V30 8656 C 821.921 -0.489425 1.88242 0
M  V30 8657 O 821.176 -1.37961 1.388 0
M  V30 8658 C 821.475 1.58229 3.20466 0
M  V30 8659 C 821.141 3.07889 3.29416 0
M  V30 8660 C 819.803 3.48737 3.31566 0
M  V30 8661 C 822.155 4.03903 3.29411 0
M  V30 8662 C 819.483 4.84171 3.31355 0
M  V30 8663 C 821.835 5.39253 3.3074 0
M  V30 8664 C 820.499 5.79547 3.31182 0
M  V30 8665 H 819.769 0.358912 0.648277 0
M  V30 8666 H 822.416 1.47552 1.22069 0
M  V30 8667 H 820.721 1.00964 3.78568 0
M  V30 8668 H 822.418 1.39998 3.75768 0
M  V30 8669 H 819.008 2.75335 3.28464 0
M  V30 8670 H 823.192 3.73395 3.2694 0
M  V30 8671 H 818.448 5.14685 3.30015 0
M  V30 8672 H 822.622 6.13417 3.29686 0
M  V30 8673 H 820.249 6.84466 3.30772 0
M  V30 8674 N 821.824 -1.22873 0.986916 0
M  V30 8675 C 822.734 -2.28277 0.540978 0
M  V30 8676 C 823.75 -1.69164 -0.407363 0
M  V30 8677 O 824.926 -1.99504 -0.275674 0
M  V30 8678 C 821.991 -3.46404 -0.143181 0
M  V30 8679 C 821.052 -4.20854 0.847375 0
M  V30 8680 C 820.285 -5.33341 0.19577 0
M  V30 8681 O 820.508 -5.61356 -1.0117 0
M  V30 8682 O 819.442 -5.95169 0.897623 0
M  V30 8683 H 823.268 -2.68578 1.41773 0
M  V30 8684 H 820.853 -1.28927 0.754867 0
M  V30 8685 H 822.735 -4.18096 -0.526676 0
M  V30 8686 H 821.41 -3.08041 -0.994593 0
M  V30 8687 H 820.317 -3.51459 1.28169 0
M  V30 8688 H 821.65 -4.63082 1.6678 0
M  V30 8689 N 823.302 -0.75937 -1.38099 0
M  V30 8690 C 824.265 -0.14372 -2.28749 0
M  V30 8691 C 825.265 0.641338 -1.47457 0
M  V30 8692 O 826.455 0.466751 -1.67831 0
M  V30 8693 C 823.587 0.804545 -3.3127 0
M  V30 8694 H 824.78 -0.942663 -2.847 0
M  V30 8695 H 822.333 -0.526757 -1.47156 0
M  V30 8696 H 823.068 1.62895 -2.80421 0
M  V30 8697 H 822.853 0.243939 -3.9134 0
M  V30 8698 H 824.343 1.23111 -3.99041 0
M  V30 8699 N 824.78 1.49157 -0.508906 0
M  V30 8700 C 826.029 2.0167 0.0346854 0
M  V30 8701 C 826.342 1.39302 1.37311 0
M  V30 8702 O 827.548 1.83189 2.00385 0
M  V30 8703 C 826.004 3.59725 0.112261 0
M  V30 8704 C 825.612 4.31069 -1.21999 0
M  V30 8705 C 827.356 4.20155 0.605798 0
M  V30 8706 C 825.263 5.81001 -1.10415 0
M  V30 8707 H 824.193 0.753814 0.0167355 0
M  V30 8708 H 826.844 1.7162 -0.649518 0
M  V30 8709 H 825.226 3.86525 0.861087 0
M  V30 8710 H 826.4 4.15962 -1.98273 0
M  V30 8711 H 824.715 3.82418 -1.64759 0
M  V30 8712 H 827.312 5.29964 0.710102 0
M  V30 8713 H 827.655 3.84051 1.60656 0
M  V30 8714 H 828.188 3.97705 -0.0867239 0
M  V30 8715 H 824.927 6.21643 -2.07941 0
M  V30 8716 H 824.447 5.9858 -0.382428 0
M  V30 8717 H 826.126 6.42207 -0.786116 0
M  V30 8718 N 826.258 0.243083 1.55714 0
M  V30 8719 C 827.674 -0.111853 1.59208 0
M  V30 8720 C 827.874 -1.5723 1.2602 0
M  V30 8721 O 826.93 -2.31608 1.00569 0
M  V30 8722 C 828.243 0.233885 2.99789 0
M  V30 8723 C 829.791 0.177873 3.12494 0
M  V30 8724 C 830.266 0.49759 4.55289 0
M  V30 8725 N 831.757 0.447949 4.61029 0
M  V30 8726 C 832.492 0.668545 5.69489 0
M  V30 8727 N 831.988 0.952064 6.86227 0
M  V30 8728 N 833.781 0.599512 5.58894 0
M  V30 8729 H 825.932 1.19554 1.75558 0
M  V30 8730 H 828.195 0.480765 0.817049 0
M  V30 8731 H 827.901 1.24835 3.28799 0
M  V30 8732 H 827.775 -0.440846 3.74615 0
M  V30 8733 H 830.162 -0.827263 2.83267 0
M  V30 8734 H 830.243 0.886399 2.39951 0
M  V30 8735 H 829.887 1.50026 4.85237 0
M  V30 8736 H 829.817 -0.232371 5.26087 0
M  V30 8737 H 832.308 0.237388 3.77154 0
M  V30 8738 H 832.621 1.10791 7.64817 0
M  V30 8739 H 830.966 0.989496 6.8792 0
M  V30 8740 H 834.157 0.378088 4.66571 0
M  V30 8741 H 834.33 0.774828 6.43351 0
M  V30 8742 N 827.736 -1.57571 -0.0300757 0
M  V30 8743 C 829.152 -1.54869 -0.385703 0
M  V30 8744 C 829.352 -0.969068 -1.76667 0
M  V30 8745 O 828.408 -0.589676 -2.45518 0
M  V30 8746 C 829.721 -2.99313 -0.288482 0
M  V30 8747 C 831.269 -3.10857 -0.365638 0
M  V30 8748 C 831.744 -4.5703 -0.297878 0
M  V30 8749 N 833.235 -4.61825 -0.356703 0
M  V30 8750 C 833.97 -5.72466 -0.327146 0
M  V30 8751 N 833.466 -6.92349 -0.249941 0
M  V30 8752 N 835.259 -5.60836 -0.376801 0
M  V30 8753 H 827.41 -1.936 0.87367 0
M  V30 8754 H 829.673 -0.887924 0.332106 0
M  V30 8755 H 829.379 -3.45443 0.66047 0
M  V30 8756 H 829.253 -3.61332 -1.08253 0
M  V30 8757 H 831.64 -2.64676 -1.30502 0
M  V30 8758 H 831.721 -2.51671 0.457744 0
M  V30 8759 H 831.365 -5.03879 0.637835 0
M  V30 8760 H 831.295 -5.14127 -1.13935 0
M  V30 8761 H 833.786 -3.75571 -0.418926 0
M  V30 8762 H 834.099 -7.7245 -0.23246 0
M  V30 8763 H 832.444 -6.94664 -0.216004 0
M  V30 8764 H 835.635 -4.66073 -0.435101 0
M  V30 8765 H 835.808 -6.47052 -0.350298 0
M  V30 8766 N 829.214 0.302327 -1.54673 0
M  V30 8767 C 830.63 0.647911 -1.45857 0
M  V30 8768 C 830.83 1.90773 -0.64869 0
M  V30 8769 O 829.886 2.52018 -0.155865 0
M  V30 8770 C 831.199 0.802144 -2.89804 0
M  V30 8771 C 832.747 0.898114 -2.99838 0
M  V30 8772 C 833.222 1.08436 -4.44978 0
M  V30 8773 N 834.713 1.15059 -4.48682 0
M  V30 8774 C 835.448 1.31296 -5.58166 0
M  V30 8775 N 834.944 1.4444 -6.77576 0
M  V30 8776 N 836.737 1.34174 -5.45851 0
M  V30 8777 H 828.888 -0.525428 -2.05798 0
M  V30 8778 H 831.151 -0.173423 -0.932002 0
M  V30 8779 H 830.857 -0.0526531 -3.51661 0
M  V30 8780 H 830.731 1.69155 -3.37145 0
M  V30 8781 H 833.118 1.7434 -2.38096 0
M  V30 8782 H 833.199 -0.0152752 -2.55795 0
M  V30 8783 H 832.843 0.243843 -5.07314 0
M  V30 8784 H 832.773 2.01195 -4.8665 0
M  V30 8785 H 835.264 1.0626 -3.62653 0
M  V30 8786 H 835.577 1.56582 -7.56771 0
M  V30 8787 H 833.922 1.41499 -6.80443 0
M  V30 8788 H 837.113 1.23516 -4.5151 0
M  V30 8789 H 837.286 1.46485 -6.31226 0
M  V30 8790 N 830.692 1.47107 0.565454 0
M  V30 8791 C 831.94 1.53005 1.32038 0
M  V30 8792 C 832.261 0.190453 1.94068 0
M  V30 8793 O 831.531 -0.784783 1.79494 0
M  V30 8794 H 830.111 0.563578 0.490294 0
M  V30 8795 H 832.773 1.83351 0.660928 0
M  V30 8796 H 831.869 2.29215 2.11818 0
M  V30 8797 N 832.17 -0.811516 1.35101 0
M  V30 8798 C 833.447 -1.55491 1.18667 0
M  V30 8799 C 833.827 -2.09775 -0.236189 0
M  V30 8800 O 833.175 -1.91989 -1.23905 0
M  V30 8801 C 833.385 -2.66732 2.25067 0
M  V30 8802 C 834.733 -3.35201 2.60625 0
M  V30 8803 O 835.757 -2.76998 2.23943 0
M  V30 8804 O 834.616 -4.40334 3.23679 0
M  V30 8805 H 831.71 -0.686783 0.460716 0
M  V30 8806 H 834.256 -0.851903 1.46768 0
M  V30 8807 H 833.028 -2.24457 3.20523 0
M  V30 8808 H 832.651 -3.44673 1.98208 0
M  V30 8809 N 833.648 -1.19017 -1.03309 0
M  V30 8810 C 834.876 -1.01534 -1.80273 0
M  V30 8811 C 835.291 0.43605 -1.83696 0
M  V30 8812 O 834.648 1.30288 -1.27794 0
M  V30 8813 C 834.699 -1.5722 -3.25522 0
M  V30 8814 O 834.42 -2.96677 -3.22358 0
M  V30 8815 C 835.921 -1.4446 -4.19102 0
M  V30 8816 H 833.141 -0.358094 -0.567459 0
M  V30 8817 H 835.685 -1.57738 -1.3015 0
M  V30 8818 H 833.84 -1.05174 -3.7285 0
M  V30 8819 H 834.254 -3.22795 -4.13405 0
M  V30 8820 H 835.728 -1.88209 -5.18923 0
M  V30 8821 H 836.205 -0.394471 -4.37425 0
M  V30 8822 H 836.811 -1.95616 -3.77643 0
M  V30 8823 N 835.127 1.22348 -0.993418 0
M  V30 8824 C 836.374 1.9111 -0.669568 0
M  V30 8825 C 836.702 1.77357 0.79843 0
M  V30 8826 O 835.957 1.13675 1.593 0
M  V30 8827 C 836.256 3.42477 -1.02197 0
M  V30 8828 C 835.922 3.7642 -2.48232 0
M  V30 8829 C 834.584 3.85395 -2.88139 0
M  V30 8830 C 836.936 3.9253 -3.42884 0
M  V30 8831 C 834.264 4.07918 -4.21687 0
M  V30 8832 C 836.616 4.16557 -4.76091 0
M  V30 8833 C 835.28 4.23757 -5.15739 0
M  V30 8834 H 834.55 0.699321 -0.245012 0
M  V30 8835 H 837.197 1.45102 -1.2497 0
M  V30 8836 H 835.502 3.90143 -0.359921 0
M  V30 8837 H 837.199 3.93935 -0.74942 0
M  V30 8838 H 833.789 3.70017 -2.16299 0
M  V30 8839 H 837.973 3.84974 -3.13224 0
M  V30 8840 H 833.229 4.11719 -4.51993 0
M  V30 8841 H 837.403 4.27966 -5.4938 0
M  V30 8842 H 835.03 4.40962 -6.19239 0
M  V30 8843 N 836.605 0.766683 1.37694 0
M  V30 8844 C 837.835 0.339446 2.03792 0
M  V30 8845 C 838.243 -1.04153 1.57952 0
M  V30 8846 O 837.586 -1.67521 0.753826 0
M  V30 8847 C 837.648 0.29822 3.58261 0
M  V30 8848 C 837.312 1.62293 4.27212 0
M  V30 8849 C 838.309 2.57447 4.51682 0
M  V30 8850 C 835.994 1.89597 4.65143 0
M  V30 8851 C 837.988 3.78117 5.13134 0
M  V30 8852 C 835.675 3.10538 5.26317 0
M  V30 8853 C 836.673 4.04617 5.50249 0
M  V30 8854 O 836.361 5.23429 6.10145 0
M  V30 8855 H 836.093 0.140952 0.661142 0
M  V30 8856 H 838.647 1.04022 1.77111 0
M  V30 8857 H 836.877 -0.458897 3.83967 0
M  V30 8858 H 838.566 -0.101263 4.05774 0
M  V30 8859 H 839.332 2.37633 4.22795 0
M  V30 8860 H 835.211 1.17199 4.45854 0
M  V30 8861 H 838.755 4.51563 5.3173 0
M  V30 8862 H 834.652 3.3024 5.54628 0
M  V30 8863 H 835.42 5.24187 6.28626 0
M  V30 8864 N 838.083 -1.48885 0.516809 0
M  V30 8865 C 839.329 -2.02788 -0.0220928 0
M  V30 8866 C 839.662 -1.39433 -1.35175 0
M  V30 8867 O 838.937 -0.535459 -1.86984 0
M  V30 8868 C 839.22 -3.59753 -0.158012 0
M  V30 8869 C 839.073 -4.33611 1.19588 0
M  V30 8870 C 840.392 -4.30984 -0.891133 0
M  V30 8871 H 837.511 -0.736971 -0.00655488 0
M  V30 8872 H 840.153 -1.77746 0.671287 0
M  V30 8873 H 838.303 -3.8122 -0.748568 0
M  V30 8874 H 839.975 -4.23598 1.82653 0
M  V30 8875 H 838.218 -3.95547 1.78116 0
M  V30 8876 H 838.889 -5.41846 1.05391 0
M  V30 8877 H 841.365 -4.14267 -0.39012 0
M  V30 8878 H 840.241 -5.40527 -0.955107 0
M  V30 8879 H 840.502 -3.97336 -1.93847 0
M  V30 8880 N 839.561 -0.251338 -1.55583 0
M  V30 8881 C 840.807 0.37272 -1.99346 0
M  V30 8882 C 841.14 1.57266 -1.13934 0
M  V30 8883 O 840.415 1.9343 -0.20377 0
M  V30 8884 C 840.698 0.778245 -3.5159 0
M  V30 8885 C 840.551 -0.427394 -4.47765 0
M  V30 8886 C 841.87 1.62358 -4.09057 0
M  V30 8887 H 838.989 0.134002 -0.724715 0
M  V30 8888 H 841.631 -0.353536 -1.86682 0
M  V30 8889 H 839.781 1.39704 -3.62512 0
M  V30 8890 H 841.453 -1.06586 -4.48818 0
M  V30 8891 H 839.696 -1.06972 -4.20404 0
M  V30 8892 H 840.367 -0.10025 -5.51909 0
M  V30 8893 H 842.843 1.1012 -4.01264 0
M  V30 8894 H 841.719 1.87617 -5.1584 0
M  V30 8895 H 841.98 2.59688 -3.57791 0
M  V30 8896 N 841.039 1.57585 0.0217189 0
M  V30 8897 C 842.264 1.94267 0.726309 0
M  V30 8898 C 842.689 0.851904 1.67703 0
M  V30 8899 O 842.047 -0.191792 1.80283 0
M  V30 8900 C 842.095 3.30023 1.45318 0
M  V30 8901 O 841.199 3.22791 2.5667 0
M  V30 8902 H 840.54 0.634777 0.194818 0
M  V30 8903 H 843.07 2.04585 -0.0249985 0
M  V30 8904 H 843.08 3.65084 1.82147 0
M  V30 8905 H 841.755 4.08972 0.755962 0
M  V30 8906 H 840.332 2.99373 2.2233 0
M  V30 8907 N 842.517 -0.29412 1.54831 0
M  V30 8908 C 843.764 -1.02846 1.74439 0
M  V30 8909 C 844.092 -1.87029 0.533905 0
M  V30 8910 O 843.347 -1.8962 -0.484035 0
M  V30 8911 C 843.646 -1.95782 2.99006 0
M  V30 8912 C 843.312 -1.2752 4.32492 0
M  V30 8913 C 841.974 -1.08637 4.68777 0
M  V30 8914 C 844.326 -0.787761 5.15212 0
M  V30 8915 C 841.654 -0.39704 5.85355 0
M  V30 8916 C 844.006 -0.112123 6.32501 0
M  V30 8917 C 842.67 0.0886071 6.67441 0
M  V30 8918 H 841.94 -0.376341 0.638317 0
M  V30 8919 H 844.587 -0.302684 1.89093 0
M  V30 8920 H 842.892 -2.74911 2.79162 0
M  V30 8921 H 844.589 -2.52684 3.11371 0
M  V30 8922 H 841.179 -1.43226 4.03961 0
M  V30 8923 H 845.363 -0.921341 4.87673 0
M  V30 8924 H 840.619 -0.230597 6.10965 0
M  V30 8925 H 844.793 0.27344 6.95863 0
M  V30 8926 H 842.42 0.624748 7.57628 0
M  V30 8927 N 843.995 -1.47404 -0.557645 0
M  V30 8928 C 845.411 -1.32913 -0.88353 0
M  V30 8929 C 845.611 -0.31929 -1.98954 0
M  V30 8930 O 844.667 0.26934 -2.51059 0
M  V30 8931 C 845.98 -2.72229 -1.27718 0
M  V30 8932 C 847.528 -2.8051 -1.38863 0
M  V30 8933 C 848.003 -4.20466 -1.81583 0
M  V30 8934 N 849.494 -4.23005 -1.88735 0
M  V30 8935 C 850.229 -5.2821 -2.23118 0
M  V30 8936 N 849.725 -6.4372 -2.56117 0
M  V30 8937 N 851.518 -5.15588 -2.23888 0
M  V30 8938 H 843.669 -2.11698 0.172557 0
M  V30 8939 H 845.932 -0.947889 0.0145334 0
M  V30 8940 H 845.638 -3.47556 -0.538329 0
M  V30 8941 H 845.512 -3.03971 -2.23342 0
M  V30 8942 H 847.899 -2.05457 -2.11829 0
M  V30 8943 H 847.98 -2.52423 -0.414274 0
M  V30 8944 H 847.624 -4.96025 -1.09187 0
M  V30 8945 H 847.554 -4.45977 -2.80021 0
M  V30 8946 H 850.045 -3.39674 -1.65621 0
M  V30 8947 H 850.358 -7.19754 -2.81378 0
M  V30 8948 H 848.703 -6.47041 -2.53698 0
M  V30 8949 H 851.894 -4.24374 -1.97546 0
M  V30 8950 H 852.067 -5.97685 -2.50353 0
M  V30 8951 N 845.473 0.80434 -1.35529 0
M  V30 8952 C 846.889 1.10023 -1.15616 0
M  V30 8953 C 847.089 2.01478 0.0298535 0
M  V30 8954 O 846.145 2.42609 0.699778 0
M  V30 8955 C 847.458 1.72905 -2.46017 0
M  V30 8956 C 849.006 1.85315 -2.52245 0
M  V30 8957 C 849.481 2.51612 -3.82695 0
M  V30 8958 N 850.972 2.59095 -3.83958 0
M  V30 8959 C 851.707 3.11167 -4.81625 0
M  V30 8960 N 851.203 3.63659 -5.89681 0
M  V30 8961 N 852.996 3.09741 -4.6906 0
M  V30 8962 H 845.147 0.196428 -2.1149 0
M  V30 8963 H 847.41 0.149735 -0.9361 0
M  V30 8964 H 847.116 1.13171 -3.32994 0
M  V30 8965 H 846.99 2.72579 -2.6073 0
M  V30 8966 H 849.377 2.44191 -1.65695 0
M  V30 8967 H 849.458 0.844886 -2.41444 0
M  V30 8968 H 849.102 1.93385 -4.69643 0
M  V30 8969 H 849.032 3.5298 -3.90785 0
M  V30 8970 H 851.523 2.21908 -3.05884 0
M  V30 8971 H 851.836 4.01699 -6.60195 0
M  V30 8972 H 850.181 3.61852 -5.9337 0
M  V30 8973 H 853.372 2.68011 -3.83781 0
M  V30 8974 H 853.545 3.50016 -5.45338 0
M  V30 8975 N 846.951 1.19563 1.02676 0
M  V30 8976 C 848.228 0.908857 1.73203 0
M  V30 8977 C 848.608 -0.584928 2.02834 0
M  V30 8978 O 847.956 -1.54372 1.68469 0
M  V30 8979 C 848.166 1.77105 3.00724 0
M  V30 8980 C 849.514 2.00667 3.7419 0
M  V30 8981 O 850.538 1.74274 3.10656 0
M  V30 8982 O 849.397 2.4518 4.88415 0
M  V30 8983 H 846.491 0.338909 0.754367 0
M  V30 8984 H 849.037 1.30387 1.08616 0
M  V30 8985 H 847.809 2.78303 2.7507 0
M  V30 8986 H 847.432 1.37546 3.73051 0
M  V30 8987 N 848.429 -1.21819 0.999893 0
M  V30 8988 C 849.379 -2.21823 0.527104 0
M  V30 8989 C 850.363 -1.55628 -0.408515 0
M  V30 8990 O 851.555 -1.75444 -0.234196 0
M  V30 8991 C 848.684 -3.42972 -0.149986 0
M  V30 8992 C 847.77 -4.16364 0.806349 0
M  V30 8993 N 848.161 -4.66403 1.95708 0
M  V30 8994 C 846.459 -4.41618 0.623672 0
M  V30 8995 C 847.16 -5.22443 2.5579 0
M  V30 8996 N 846.136 -5.11514 1.83995 0
M  V30 8997 H 849.938 -2.58161 1.40464 0
M  V30 8998 H 847.452 -1.37569 0.863054 0
M  V30 8999 H 849.449 -4.13816 -0.50613 0
M  V30 9000 H 848.109 -3.08145 -1.02357 0
M  V30 9001 H 849.12 -4.62142 2.33763 0
M  V30 9002 H 845.797 -4.17005 -0.203257 0
M  V30 9003 H 847.187 -5.7165 3.5308 0
M  V30 9004 N 849.908 -0.773975 -1.37286 0
M  V30 9005 C 850.838 -0.175782 -2.32837 0
M  V30 9006 C 851.819 0.680603 -1.5589 0
M  V30 9007 O 853.004 0.617607 -1.84117 0
M  V30 9008 C 850.134 0.702388 -3.40123 0
M  V30 9009 C 849.088 -0.0528687 -4.27967 0
M  V30 9010 C 848.414 0.944891 -5.26285 0
M  V30 9011 C 849.714 -1.23316 -5.07534 0
M  V30 9012 H 851.408 -0.974016 -2.83114 0
M  V30 9013 H 848.954 -0.469826 -1.3612 0
M  V30 9014 H 850.907 1.13069 -4.05947 0
M  V30 9015 H 849.631 1.53316 -2.88378 0
M  V30 9016 H 848.29 -0.461978 -3.63678 0
M  V30 9017 H 847.938 1.77028 -4.70819 0
M  V30 9018 H 847.638 0.444079 -5.8592 0
M  V30 9019 H 849.162 1.37209 -5.94984 0
M  V30 9020 H 850.576 -0.881395 -5.66484 0
M  V30 9021 H 848.973 -1.66621 -5.76504 0
M  V30 9022 H 850.043 -2.03617 -4.40077 0
M  V30 9023 N 851.386 1.48609 -0.524698 0
M  V30 9024 C 852.316 2.32366 0.229837 0
M  V30 9025 C 853.297 1.41759 0.940129 0
M  V30 9026 O 854.482 1.7065 0.926936 0
M  V30 9027 C 851.612 3.22835 1.28043 0
M  V30 9028 C 850.566 4.22424 0.688603 0
M  V30 9029 C 849.892 5.0199 1.84146 0
M  V30 9030 C 851.192 5.21217 -0.336176 0
M  V30 9031 H 852.886 2.95698 -0.469339 0
M  V30 9032 H 850.432 1.42197 -0.227156 0
M  V30 9033 H 852.385 3.80253 1.8162 0
M  V30 9034 H 851.109 2.57492 2.00912 0
M  V30 9035 H 849.768 3.66185 0.174402 0
M  V30 9036 H 849.416 4.33076 2.5584 0
M  V30 9037 H 849.116 5.69392 1.45142 0
M  V30 9038 H 850.64 5.62259 2.38111 0
M  V30 9039 H 852.054 5.7319 0.112307 0
M  V30 9040 H 850.451 5.96642 -0.643324 0
M  V30 9041 H 851.521 4.68676 -1.24381 0
M  V30 9042 N 852.864 0.259585 1.55447 0
M  V30 9043 C 853.794 -0.62852 2.24882 0
M  V30 9044 C 854.775 -1.17128 1.23349 0
M  V30 9045 O 855.96 -1.20829 1.52033 0
M  V30 9046 C 853.09 -1.81983 2.95803 0
M  V30 9047 C 852.044 -1.40929 4.04132 0
M  V30 9048 C 851.37 -2.68246 4.62545 0
M  V30 9049 C 852.67 -0.570956 5.1917 0
M  V30 9050 H 854.364 -0.0495021 2.99359 0
M  V30 9051 H 851.91 -0.0223688 1.43983 0
M  V30 9052 H 853.863 -2.44689 3.43082 0
M  V30 9053 H 852.587 -2.42444 2.18835 0
M  V30 9054 H 851.246 -0.805519 3.57641 0
M  V30 9055 H 850.894 -3.26931 3.82263 0
M  V30 9056 H 850.594 -2.41495 5.35681 0
M  V30 9057 H 852.118 -3.31827 5.12565 0
M  V30 9058 H 853.532 -1.10262 5.62597 0
M  V30 9059 H 851.929 -0.398979 5.98772 0
M  V30 9060 H 852.999 0.413918 4.8313 0
M  V30 9061 N 854.342 -1.57594 -0.0133615 0
M  V30 9062 C 855.753 -1.78168 -0.557937 0
M  V30 9063 C 856.104 -0.892616 -1.74719 0
M  V30 9064 O 855.229 -0.0915491 -2.16206 0
M  V30 9065 C 855.824 -3.23115 -1.01894 0
M  V30 9066 C 854.383 -3.44831 -1.50892 0
M  V30 9067 C 853.53 -2.73558 -0.454044 0
M  V30 9068 H 856.481 -1.57266 0.212843 0
M  V30 9069 H 856.502 -3.30493 -1.8856 0
M  V30 9070 H 856.014 -3.87798 -0.153175 0
M  V30 9071 H 854.115 -2.85345 -2.39602 0
M  V30 9072 H 854.228 -4.53485 -1.54559 0
M  V30 9073 H 852.592 -2.37787 -0.912666 0
M  V30 9074 H 853.375 -3.40932 0.402524 0
M  V30 9075 N 855.82 0.285905 -1.54985 0
M  V30 9076 C 856.783 1.33625 -1.86218 0
M  V30 9077 C 857.783 1.42971 -0.735936 0
M  V30 9078 O 858.973 1.42345 -1.00417 0
M  V30 9079 C 856.105 2.71926 -2.05595 0
M  V30 9080 H 857.298 1.07167 -2.80099 0
M  V30 9081 H 854.851 0.523335 -1.47278 0
M  V30 9082 H 855.586 3.03583 -1.14053 0
M  V30 9083 H 855.371 2.6653 -2.87583 0
M  V30 9084 H 856.861 3.47841 -2.31077 0
M  V30 9085 N 857.298 1.47698 0.54982 0
M  V30 9086 C 858.526 1.5833 1.33188 0
M  V30 9087 C 858.941 0.236193 1.87317 0
M  V30 9088 O 858.298 -0.77167 1.65383 0
M  V30 9089 C 858.349 2.61438 2.49664 0
M  V30 9090 O 858.07 3.9092 1.97771 0
M  V30 9091 C 859.571 2.82324 3.41772 0
M  V30 9092 H 856.791 0.53443 0.405741 0
M  V30 9093 H 859.335 1.93375 0.665309 0
M  V30 9094 H 857.49 2.29307 3.12245 0
M  V30 9095 H 857.904 4.47323 2.73866 0
M  V30 9096 H 859.378 3.58316 4.19897 0
M  V30 9097 H 859.855 1.90416 3.95776 0
M  V30 9098 H 860.461 3.15682 2.85 0
M  V30 9099 N 858.776 -0.797141 1.35954 0
M  V30 9100 C 860.004 -1.5858 1.32891 0
M  V30 9101 C 860.419 -1.88578 -0.0915564 0
M  V30 9102 O 859.776 -1.49532 -1.04625 0
M  V30 9103 C 859.827 -2.91143 2.14284 0
M  V30 9104 O 859.548 -2.62442 3.50793 0
M  V30 9105 C 861.049 -3.85476 2.18914 0
M  V30 9106 H 858.269 -0.492111 0.456144 0
M  V30 9107 H 860.813 -0.98994 1.78943 0
M  V30 9108 H 858.968 -3.47219 1.71807 0
M  V30 9109 H 859.382 -3.4715 3.93175 0
M  V30 9110 H 860.856 -4.75574 2.80238 0
M  V30 9111 H 861.333 -4.22758 1.19047 0
M  V30 9112 H 861.939 -3.35334 2.61593 0
M  V30 9113 N 860.254 -1.20106 -1.0204 0
M  V30 9114 C 861.204 -0.914145 -2.08872 0
M  V30 9115 C 862.188 0.124503 -1.60418 0
M  V30 9116 O 863.38 -0.0823521 -1.76808 0
M  V30 9117 C 860.509 -0.463897 -3.40151 0
M  V30 9118 C 859.595 -1.53576 -3.95317 0
M  V30 9119 N 859.986 -2.75726 -4.24038 0
M  V30 9120 C 858.284 -1.40103 -4.23423 0
M  V30 9121 C 858.985 -3.44838 -4.68468 0
M  V30 9122 N 857.961 -2.72245 -4.70514 0
M  V30 9123 H 861.763 -1.8424 -2.28982 0
M  V30 9124 H 859.277 -1.0945 -1.19977 0
M  V30 9125 H 861.274 -0.239766 -4.1621 0
M  V30 9126 H 859.934 0.457779 -3.21457 0
M  V30 9127 H 860.945 -3.12412 -4.13061 0
M  V30 9128 H 857.622 -0.543472 -4.13948 0
M  V30 9129 H 859.012 -4.49342 -4.99541 0
M  V30 9130 N 861.732 1.21287 -1.00634 0
M  V30 9131 C 862.68 2.25733 -0.561026 0
M  V30 9132 C 863.674 1.64728 0.395095 0
M  V30 9133 O 864.88 1.78022 0.266141 0
M  V30 9134 H 861.255 0.734104 -0.163081 0
M  V30 9135 H 863.226 2.60631 -1.45307 0
M  V30 9136 C 861.975 3.47569 0.0952587 0
M  V30 9137 H 861.298 3.94782 -0.631427 0
M  V30 9138 H 862.738 4.22382 0.370105 0
M  V30 9139 C 861.197 3.09326 1.33488 0
M  V30 9140 O 861.727 3.19933 2.42912 0
M  V30 9141 N 859.933 2.63976 1.21512 0
M  V30 9142 H 859.48 2.55545 0.324741 0
M  V30 9143 H 859.438 2.38757 2.04555 0
M  V30 9144 N 863.21 0.781244 1.36873 0
M  V30 9145 C 864.157 0.172146 2.30157 0
M  V30 9146 C 865.127 -0.679328 1.51573 0
M  V30 9147 O 866.312 -0.629713 1.80109 0
M  V30 9148 C 863.452 -0.693534 3.38059 0
M  V30 9149 C 862.565 0.175586 4.31643 0
M  V30 9150 C 861.7 -0.695695 5.26625 0
M  V30 9151 C 860.739 0.17538 6.11849 0
M  V30 9152 N 859.876 -0.654416 6.99043 0
M  V30 9153 H 864.716 0.973133 2.81663 0
M  V30 9154 H 862.253 0.491469 1.38647 0
M  V30 9155 H 864.211 -1.21035 3.99257 0
M  V30 9156 H 862.841 -1.46003 2.87894 0
M  V30 9157 H 861.893 0.810295 3.7167 0
M  V30 9158 H 863.205 0.847107 4.91554 0
M  V30 9159 H 862.359 -1.27863 5.93073 0
M  V30 9160 H 861.098 -1.40087 4.67148 0
M  V30 9161 H 860.103 0.77078 5.4437 0
M  V30 9162 H 861.328 0.87803 6.734 0
M  V30 9163 H 859.274 -1.34403 6.42084 0
M  V30 9164 H 859.191 -0.0403998 7.55989 0
M  V30 9165 H 860.459 -1.22144 7.69871 0
M  V30 9166 N 864.689 -1.48329 0.532571 0
M  V30 9167 C 865.917 -2.069 0.00354299 0
M  V30 9168 C 866.332 -1.38876 -1.27902 0
M  V30 9169 O 865.689 -0.477119 -1.76153 0
M  V30 9170 C 865.74 -3.60821 -0.221416 0
M  V30 9171 O 865.461 -4.26291 1.01034 0
M  V30 9172 C 866.962 -4.36194 -0.790531 0
M  V30 9173 H 864.182 -0.670103 0.0346836 0
M  V30 9174 H 866.726 -1.90682 0.738955 0
M  V30 9175 H 864.881 -3.76636 -0.906884 0
M  V30 9176 H 865.295 -5.18475 0.792683 0
M  V30 9177 H 866.769 -5.44657 -0.897347 0
M  V30 9178 H 867.246 -4.00798 -1.79605 0
M  V30 9179 H 867.852 -4.25064 -0.141546 0
M  V30 9180 N 866.167 -0.267825 -1.55308 0
M  V30 9181 C 867.395 0.354587 -2.03839 0
M  V30 9182 C 867.81 1.50007 -1.14644 0
M  V30 9183 O 867.167 1.81752 -0.165055 0
M  V30 9184 C 867.218 0.84254 -3.51544 0
M  V30 9185 O 866.939 -0.257318 -4.37344 0
M  V30 9186 C 868.44 1.53351 -4.15931 0
M  V30 9187 H 865.66 0.0818131 -0.665994 0
M  V30 9188 H 868.204 -0.397795 -2.00594 0
M  V30 9189 H 866.359 1.54503 -3.55257 0
M  V30 9190 H 866.773 0.116593 -5.2437 0
M  V30 9191 H 868.247 1.82643 -5.20908 0
M  V30 9192 H 868.724 2.4626 -3.63666 0
M  V30 9193 H 869.33 0.87506 -4.162 0
M  V30 9194 N 867.645 1.57599 0.00500368 0
M  V30 9195 C 869.061 1.55463 0.361015 0
M  V30 9196 C 869.261 0.997051 1.75103 0
M  V30 9197 O 868.317 0.628661 2.44549 0
M  V30 9198 C 869.63 2.99734 0.240828 0
M  V30 9199 C 871.178 3.11399 0.316138 0
M  V30 9200 C 871.653 4.57446 0.22513 0
M  V30 9201 N 873.144 4.62334 0.283186 0
M  V30 9202 C 873.879 5.72914 0.23603 0
M  V30 9203 N 873.375 6.92659 0.139762 0
M  V30 9204 N 875.168 5.61364 0.287529 0
M  V30 9205 H 867.319 1.92185 -0.904359 0
M  V30 9206 H 869.582 0.882529 -0.34619 0
M  V30 9207 H 869.288 3.44348 -0.715343 0
M  V30 9208 H 869.162 3.63009 1.02491 0
M  V30 9209 H 871.549 2.66718 1.26275 0
M  V30 9210 H 871.63 2.50911 -0.497725 0
M  V30 9211 H 871.274 5.02801 -0.717917 0
M  V30 9212 H 871.204 5.15874 1.05742 0
M  V30 9213 H 873.695 3.7619 0.359123 0
M  V30 9214 H 874.008 7.72722 0.10954 0
M  V30 9215 H 872.353 6.9492 0.105462 0
M  V30 9216 H 875.544 4.66707 0.360897 0
M  V30 9217 H 875.717 6.47528 0.247313 0
M  V30 9218 N 869.123 -0.277682 1.55134 0
M  V30 9219 C 870.534 -0.849063 1.66276 0
M  V30 9220 C 870.885 -1.87223 0.5867 0
M  V30 9221 O 870.01 -2.14676 -0.272635 0
M  V30 9222 C 870.605 -1.54681 3.01429 0
M  V30 9223 C 869.164 -2.06628 3.14614 0
M  V30 9224 C 868.311 -0.906748 2.62056 0
M  V30 9225 H 871.262 -0.0541357 1.58608 0
M  V30 9226 H 871.283 -2.41356 2.94156 0
M  V30 9227 H 870.795 -0.80189 3.79725 0
M  V30 9228 H 868.896 -2.84095 2.41082 0
M  V30 9229 H 869.009 -2.2848 4.2111 0
M  V30 9230 H 867.373 -1.29882 2.19095 0
M  V30 9231 H 868.156 -0.175414 3.42852 0
M  V30 9232 N 870.601 -1.47988 -0.541979 0
M  V30 9233 C 871.548 -1.61615 -1.6477 0
M  V30 9234 C 872.518 -0.458602 -1.59644 0
M  V30 9235 O 873.703 -0.680585 -1.78249 0
M  V30 9236 C 870.843 -1.65066 -3.03063 0
M  V30 9237 C 869.956 -2.91845 -3.18513 0
M  V30 9238 C 869.091 -2.86534 -4.47294 0
M  V30 9239 C 868.13 -4.0807 -4.5623 0
M  V30 9240 N 867.267 -4.00905 -5.76385 0
M  V30 9241 H 872.107 -2.56046 -1.52461 0
M  V30 9242 H 869.644 -1.26989 -0.742449 0
M  V30 9243 H 871.602 -1.65049 -3.83164 0
M  V30 9244 H 870.232 -0.74136 -3.14171 0
M  V30 9245 H 869.284 -3.01661 -2.31743 0
M  V30 9246 H 870.596 -3.81804 -3.20978 0
M  V30 9247 H 869.75 -2.84851 -5.35672 0
M  V30 9248 H 868.489 -1.94283 -4.47332 0
M  V30 9249 H 867.494 -4.10041 -3.66261 0
M  V30 9250 H 868.719 -5.01465 -4.5794 0
M  V30 9251 H 866.665 -3.11467 -5.77342 0
M  V30 9252 H 866.582 -4.84557 -5.80293 0
M  V30 9253 H 867.85 -4.03263 -6.67083 0
M  V30 9254 N 872.079 0.78992 -1.36375 0
M  V30 9255 C 873.012 1.90907 -1.25019 0
M  V30 9256 C 873.99 1.62043 -0.134463 0
M  V30 9257 O 875.174 1.86008 -0.305506 0
M  V30 9258 C 872.301 3.25716 -0.928822 0
M  V30 9259 C 871.347 3.73511 -2.05892 0
M  V30 9260 S 872.18 3.89332 -3.6767 0
M  V30 9261 C 873.336 5.27017 -3.37645 0
M  V30 9262 H 873.569 2.00247 -2.19746 0
M  V30 9263 H 871.102 0.949097 -1.21785 0
M  V30 9264 H 873.06 4.03586 -0.750219 0
M  V30 9265 H 871.721 3.141 0.000658424 0
M  V30 9266 H 870.914 4.71195 -1.78862 0
M  V30 9267 H 870.516 3.02688 -2.19672 0
M  V30 9268 H 872.808 6.1158 -2.91507 0
M  V30 9269 H 873.751 5.5905 -4.3459 0
M  V30 9270 H 874.159 4.94093 -2.73006 0
M  V30 9271 N 873.557 1.20646 1.01402 0
M  V30 9272 C 874.782 1.04462 1.79172 0
M  V30 9273 C 875.207 -0.401588 1.83763 0
M  V30 9274 O 874.565 -1.28934 1.27459 0
M  V30 9275 C 874.613 1.63583 3.21361 0
M  V30 9276 O 873.717 0.875198 4.03006 0
M  V30 9277 H 873.058 0.368235 0.552539 0
M  V30 9278 H 875.588 1.59994 1.27526 0
M  V30 9279 H 875.598 1.67426 3.72065 0
M  V30 9280 H 874.273 2.68835 3.17334 0
M  V30 9281 H 872.85 0.911172 3.61597 0
M  V30 9282 N 875.035 -1.20752 1.01276 0
M  V30 9283 C 876.284 -1.8934 0.695229 0
M  V30 9284 C 876.597 -1.79459 -0.77806 0
M  V30 9285 O 877.803 -2.43146 -1.20799 0
M  V30 9286 C 876.259 -3.39548 1.1931 0
M  V30 9287 C 875.867 -3.58023 2.69302 0
M  V30 9288 C 877.611 -4.13714 0.950823 0
M  V30 9289 C 875.518 -5.02037 3.1259 0
M  V30 9290 H 874.448 -0.709084 0.25635 0
M  V30 9291 H 877.099 -1.36629 1.22494 0
M  V30 9292 H 875.481 -3.91559 0.591395 0
M  V30 9293 H 876.655 -3.16416 3.34989 0
M  V30 9294 H 874.97 -2.97222 2.9163 0
M  V30 9295 H 877.567 -5.19891 1.24971 0
M  V30 9296 H 877.91 -4.16147 -0.112791 0
M  V30 9297 H 878.443 -3.67792 1.51571 0
M  V30 9298 H 875.182 -5.04757 4.18211 0
M  V30 9299 H 874.702 -5.44469 2.51621 0
M  V30 9300 H 876.381 -5.70594 3.0501 0
M  V30 9301 N 876.513 -0.788492 -1.36457 0
M  V30 9302 C 877.759 -0.360995 -1.99561 0
M  V30 9303 C 878.092 1.06433 -1.62437 0
M  V30 9304 O 877.367 1.7352 -0.878705 0
M  V30 9305 C 877.65 -0.523735 -3.56271 0
M  V30 9306 C 877.503 -1.99268 -4.03252 0
M  V30 9307 C 878.822 0.0617908 -4.40057 0
M  V30 9308 H 875.941 -0.13264 -0.724966 0
M  V30 9309 H 878.583 -0.994659 -1.61884 0
M  V30 9310 H 876.733 0.0156979 -3.88497 0
M  V30 9311 H 878.405 -2.59311 -3.81518 0
M  V30 9312 H 876.648 -2.49561 -3.54826 0
M  V30 9313 H 877.319 -2.05752 -5.12221 0
M  V30 9314 H 879.795 -0.398674 -4.14186 0
M  V30 9315 H 878.671 -0.0821089 -5.48839 0
M  V30 9316 H 878.932 1.15381 -4.26778 0
M  V30 9317 N 877.991 1.48044 -0.54043 0
M  V30 9318 C 878.921 2.32597 0.205178 0
M  V30 9319 C 879.902 1.42748 0.925041 0
M  V30 9320 O 881.087 1.71624 0.908784 0
M  V30 9321 C 878.217 3.24175 1.24612 0
M  V30 9322 C 877.171 4.23131 0.64376 0
M  V30 9323 C 876.497 5.03915 1.78812 0
M  V30 9324 C 877.797 5.20831 -0.39144 0
M  V30 9325 H 879.491 2.95184 -0.500676 0
M  V30 9326 H 877.037 1.41948 -0.242225 0
M  V30 9327 H 878.99 3.82158 1.77576 0
M  V30 9328 H 877.714 2.59608 1.98169 0
M  V30 9329 H 876.373 3.66349 0.135554 0
M  V30 9330 H 876.021 4.35765 2.51232 0
M  V30 9331 H 875.721 5.709 1.39094 0
M  V30 9332 H 877.245 5.64753 2.32134 0
M  V30 9333 H 878.659 5.73277 0.0515064 0
M  V30 9334 H 877.056 5.95926 -0.706569 0
M  V30 9335 H 878.126 4.6733 -1.29345 0
M  V30 9336 N 879.47 0.276058 1.55163 0
M  V30 9337 C 880.881 -0.221516 1.85381 0
M  V30 9338 C 881.232 -1.55372 1.19808 0
M  V30 9339 O 880.357 -2.10855 0.486742 0
M  V30 9340 C 880.952 -0.408706 3.36326 0
M  V30 9341 C 879.511 -0.850512 3.66665 0
M  V30 9342 C 878.658 0.055656 2.77244 0
M  V30 9343 H 881.609 0.497819 1.5069 0
M  V30 9344 H 881.63 -1.24711 3.59482 0
M  V30 9345 H 881.142 0.561052 3.84023 0
M  V30 9346 H 879.243 -1.83171 3.24468 0
M  V30 9347 H 879.356 -0.687181 4.74146 0
M  V30 9348 H 877.72 -0.460819 2.50497 0
M  V30 9349 H 878.503 1.02131 3.27756 0
M  V30 9350 N 880.948 -1.576 0.00335426 0
M  V30 9351 C 881.911 -2.07576 -0.971838 0
M  V30 9352 C 882.911 -0.985796 -1.27038 0
M  V30 9353 O 884.101 -1.24833 -1.21501 0
M  V30 9354 C 881.233 -2.52003 -2.29581 0
M  V30 9355 H 882.426 -2.95008 -0.539481 0
M  V30 9356 H 879.979 -1.54381 -0.244186 0
M  V30 9357 H 880.714 -1.67825 -2.77498 0
M  V30 9358 H 880.499 -3.31609 -2.09231 0
M  V30 9359 H 881.989 -2.90983 -2.99531 0
M  V30 9360 N 882.426 0.269451 -1.5528 0
M  V30 9361 C 883.675 0.998381 -1.75258 0
M  V30 9362 C 883.988 1.87321 -0.563034 0
M  V30 9363 O 885.194 2.63719 -0.645313 0
M  V30 9364 C 883.65 1.82505 -3.10193 0
M  V30 9365 C 883.258 0.99871 -4.36726 0
M  V30 9366 C 885.002 2.54807 -3.3952 0
M  V30 9367 C 882.909 1.81997 -5.627 0
M  V30 9368 H 881.839 0.376488 -0.653278 0
M  V30 9369 H 884.49 0.253909 -1.81735 0
M  V30 9370 H 882.872 2.61061 -2.97763 0
M  V30 9371 H 884.046 0.257064 -4.60082 0
M  V30 9372 H 882.361 0.390074 -4.14569 0
M  V30 9373 H 884.958 3.16662 -4.30847 0
M  V30 9374 H 885.301 3.25273 -2.59813 0
M  V30 9375 H 885.834 1.83278 -3.53064 0
M  V30 9376 H 882.573 1.15945 -6.45164 0
M  V30 9377 H 882.093 2.53749 -5.43481 0
M  V30 9378 H 883.772 2.39274 -6.0113 0
M  V30 9379 N 883.904 1.48273 0.534124 0
M  V30 9380 C 884.852 1.62926 1.66005 0
M  V30 9381 C 885.846 0.495814 1.61982 0
M  V30 9382 O 887.052 0.6744 1.66889 0
M  V30 9383 H 883.427 0.513163 0.549698 0
M  V30 9384 H 885.398 2.57498 1.50789 0
M  V30 9385 C 884.147 1.68231 3.04292 0
M  V30 9386 H 883.47 2.54807 3.0808 0
M  V30 9387 H 884.91 1.82528 3.827 0
M  V30 9388 C 883.369 0.420154 3.3427 0
M  V30 9389 O 883.899 -0.468769 3.98955 0
M  V30 9390 N 882.105 0.293115 2.89118 0
M  V30 9391 H 881.652 1.01745 2.36655 0
M  V30 9392 H 881.61 -0.550376 3.09545 0
M  V30 9393 N 885.382 -0.782676 1.36792 0
M  V30 9394 C 886.631 -1.53605 1.30723 0
M  V30 9395 C 886.944 -1.95294 -0.109296 0
M  V30 9396 O 888.15 -2.69921 -0.292398 0
M  V30 9397 C 886.606 -2.77321 2.29393 0
M  V30 9398 C 886.214 -2.42774 3.76517 0
M  V30 9399 C 887.958 -3.55289 2.32314 0
M  V30 9400 C 885.865 -3.62926 4.66947 0
M  V30 9401 H 884.795 -0.576646 0.485794 0
M  V30 9402 H 887.446 -0.858255 1.62192 0
M  V30 9403 H 885.828 -3.46934 1.90927 0
M  V30 9404 H 887.002 -1.81014 4.23758 0
M  V30 9405 H 885.317 -1.78002 3.76436 0
M  V30 9406 H 887.914 -4.44573 2.97083 0
M  V30 9407 H 888.257 -3.94361 1.3336 0
M  V30 9408 H 888.79 -2.92662 2.69432 0
M  V30 9409 H 885.529 -3.28944 5.66989 0
M  V30 9410 H 885.049 -4.23828 4.24418 0
M  V30 9411 H 886.728 -4.29873 4.83548 0
M  V30 9412 N 886.86 -1.21182 -1.00761 0
M  V30 9413 C 887.808 -0.965728 -2.11604 0
M  V30 9414 C 888.802 0.0861028 -1.69181 0
M  V30 9415 O 890.008 -0.0650558 -1.79882 0
M  V30 9416 H 886.383 -0.295023 -0.691712 0
M  V30 9417 H 888.354 -1.90667 -2.2954 0
M  V30 9418 C 887.103 -0.544164 -3.43415 0
M  V30 9419 H 886.426 -1.34515 -3.76491 0
M  V30 9420 H 887.866 -0.411268 -4.22001 0
M  V30 9421 C 886.325 0.744583 -3.28569 0
M  V30 9422 O 886.855 1.80078 -3.59075 0
M  V30 9423 N 885.061 0.710083 -2.81791 0
M  V30 9424 H 884.608 -0.14971 -2.57165 0
M  V30 9425 H 884.566 1.57268 -2.72239 0
M  V30 9426 N 888.338 1.20213 -1.01915 0
M  V30 9427 C 889.248 2.26763 -0.601311 0
M  V30 9428 C 890.264 1.70185 0.362369 0
M  V30 9429 O 891.44 2.00165 0.222682 0
M  V30 9430 C 888.505 3.46662 0.0512879 0
M  V30 9431 C 887.566 4.18459 -0.958659 0
M  V30 9432 C 886.799 5.32634 -0.337107 0
M  V30 9433 O 887.022 5.63841 0.86251 0
M  V30 9434 O 885.956 5.9258 -1.05511 0
M  V30 9435 H 889.782 2.64725 -1.48844 0
M  V30 9436 H 887.367 1.2688 -0.788784 0
M  V30 9437 H 889.249 4.19345 0.41564 0
M  V30 9438 H 887.924 3.1057 0.912572 0
M  V30 9439 H 886.831 3.47937 -1.37442 0
M  V30 9440 H 888.164 4.58498 -1.78999 0
M  V30 9441 N 889.816 0.795718 1.36037 0
M  V30 9442 C 890.764 0.18649 2.31851 0
M  V30 9443 C 891.758 -0.657704 1.56111 0
M  V30 9444 O 892.964 -0.552083 1.71324 0
M  V30 9445 H 889.339 0.0415363 0.750852 0
M  V30 9446 H 891.31 1.00992 2.8079 0
M  V30 9447 C 890.059 -0.65918 3.41394 0
M  V30 9448 H 889.382 -0.01894 3.99796 0
M  V30 9449 H 890.822 -1.05202 4.10741 0
M  V30 9450 C 889.281 -1.82011 2.83502 0
M  V30 9451 O 889.811 -2.91703 2.76174 0
M  V30 9452 N 888.017 -1.62821 2.40703 0
M  V30 9453 H 887.564 -0.735965 2.46863 0
M  V30 9454 H 887.522 -2.40657 2.02316 0
M  V30 9455 N 891.294 -1.47756 0.548274 0
M  V30 9456 C 892.54 -2.02789 0.0209265 0
M  V30 9457 C 892.873 -1.42268 -1.32187 0
M  V30 9458 O 892.148 -0.575001 -1.85806 0
M  V30 9459 C 892.431 -3.60007 -0.0816674 0
M  V30 9460 C 892.284 -4.30977 1.28759 0
M  V30 9461 C 893.603 -4.32777 -0.799515 0
M  V30 9462 H 890.722 -0.736944 0.00907884 0
M  V30 9463 H 893.364 -1.76282 0.708839 0
M  V30 9464 H 891.514 -3.82722 -0.667537 0
M  V30 9465 H 893.186 -4.19629 1.91597 0
M  V30 9466 H 891.429 -3.9168 1.86466 0
M  V30 9467 H 892.1 -5.39488 1.16861 0
M  V30 9468 H 894.576 -4.15001 -0.30216 0
M  V30 9469 H 893.452 -5.42431 -0.840239 0
M  V30 9470 H 893.713 -4.01358 -1.85375 0
M  V30 9471 N 892.772 -0.284283 -1.55015 0
M  V30 9472 C 894.021 0.33055 -1.98973 0
M  V30 9473 C 894.334 1.56284 -1.17621 0
M  V30 9474 O 895.54 2.2512 -1.51767 0
M  V30 9475 C 893.996 0.639457 -3.54174 0
M  V30 9476 C 893.604 -0.573543 -4.44313 0
M  V30 9477 C 895.348 1.21641 -4.06699 0
M  V30 9478 C 893.255 -0.238715 -5.90918 0
M  V30 9479 H 892.185 0.127285 -0.743179 0
M  V30 9480 H 894.836 -0.390372 -1.793 0
M  V30 9481 H 893.218 1.41953 -3.69683 0
M  V30 9482 H 894.392 -1.3502 -4.40575 0
M  V30 9483 H 892.707 -1.06797 -4.02472 0
M  V30 9484 H 895.304 1.48088 -5.13784 0
M  V30 9485 H 895.647 2.15328 -3.56286 0
M  V30 9486 H 896.18 0.498422 -3.94665 0
M  V30 9487 H 892.919 -1.1437 -6.45445 0
M  V30 9488 H 892.439 0.500997 -5.97704 0
M  V30 9489 H 894.118 0.165774 -6.46788 0
M  V30 9490 N 894.251 1.57596 -0.0117121 0
M  V30 9491 C 895.199 2.1029 0.994035 0
M  V30 9492 C 896.193 1.02549 1.34833 0
M  V30 9493 O 897.399 1.21003 1.3326 0
M  V30 9494 H 893.774 0.671624 0.338268 0
M  V30 9495 H 895.745 2.93761 0.524147 0
M  V30 9496 C 894.494 2.63099 2.27319 0
M  V30 9497 H 893.817 3.45642 2.00927 0
M  V30 9498 H 895.257 3.03635 2.95942 0
M  V30 9499 C 893.716 1.55044 2.99104 0
M  V30 9500 O 894.246 0.940127 3.90544 0
M  V30 9501 N 892.452 1.27506 2.61133 0
M  V30 9502 H 891.999 1.77322 1.86855 0
M  V30 9503 H 891.957 0.554292 3.09475 0
M  V30 9504 N 895.729 -0.261212 1.5542 0
M  V30 9505 C 896.977 -0.989272 1.76232 0
M  V30 9506 C 897.298 -1.86389 0.573067 0
M  V30 9507 O 896.568 -1.91526 -0.41166 0
M  V30 9508 H 895.148 -0.368256 0.64992 0
M  V30 9509 H 897.81 -0.282603 1.9284 0
M  V30 9510 H 896.906 -1.61935 2.66802 0
M  V30 9511 N 897.207 -1.48554 -0.526253 0
M  V30 9512 C 898.139 -1.59446 -1.6465 0
M  V30 9513 C 899.152 -0.478525 -1.55608 0
M  V30 9514 O 900.341 -0.74953 -1.62001 0
M  V30 9515 C 897.441 -1.51164 -3.03319 0
M  V30 9516 C 896.614 -2.77861 -3.37805 0
M  V30 9517 C 895.673 -2.62982 -4.5577 0
M  V30 9518 O 894.699 -3.36876 -4.58806 0
M  V30 9519 N 895.901 -1.72847 -5.5417 0
M  V30 9520 H 898.666 -2.56055 -1.55743 0
M  V30 9521 H 896.227 -1.45325 -0.713606 0
M  V30 9522 H 898.219 -1.389 -3.80117 0
M  V30 9523 H 896.789 -0.625147 -3.06285 0
M  V30 9524 H 896.009 -3.04663 -2.50149 0
M  V30 9525 H 897.297 -3.61908 -3.57632 0
M  V30 9526 H 896.695 -1.12022 -5.54498 0
M  V30 9527 H 895.252 -1.6652 -6.3017 0
M  V30 9528 N 898.685 0.775411 -1.37205 0
M  V30 9529 C 899.962 1.5229 -1.22748 0
M  V30 9530 C 900.342 2.10327 0.180487 0
M  V30 9531 O 899.69 1.95206 1.18772 0
M  V30 9532 C 899.9 2.60671 -2.3206 0
M  V30 9533 C 901.248 3.28173 -2.6942 0
M  V30 9534 O 902.272 2.70963 -2.31208 0
M  V30 9535 O 901.131 4.31598 -3.3524 0
M  V30 9536 H 898.225 0.674326 -0.478762 0
M  V30 9537 H 900.771 0.812691 -1.48975 0
M  V30 9538 H 899.543 2.1588 -3.26361 0
M  V30 9539 H 899.166 3.39296 -2.07277 0
M  V30 9540 N 900.163 1.21714 1.00117 0
M  V30 9541 C 901.393 1.06124 1.77261 0
M  V30 9542 C 901.801 -0.391717 1.85101 0
M  V30 9543 O 901.144 -1.28347 1.31426 0
M  V30 9544 C 901.206 1.58778 3.22536 0
M  V30 9545 C 900.87 3.07289 3.38264 0
M  V30 9546 C 901.867 4.04801 3.26239 0
M  V30 9547 C 899.552 3.46574 3.63582 0
M  V30 9548 C 901.546 5.39585 3.39303 0
M  V30 9549 C 899.233 4.81509 3.76288 0
M  V30 9550 C 900.231 5.77824 3.64155 0
M  V30 9551 O 899.919 7.1031 3.7645 0
M  V30 9552 H 899.651 0.372979 0.563793 0
M  V30 9553 H 902.205 1.61589 1.26799 0
M  V30 9554 H 900.435 0.977129 3.74151 0
M  V30 9555 H 902.124 1.38974 3.81367 0
M  V30 9556 H 902.89 3.75795 3.066 0
M  V30 9557 H 898.769 2.72137 3.72106 0
M  V30 9558 H 902.313 6.14744 3.2975 0
M  V30 9559 H 898.21 5.102 3.95432 0
M  V30 9560 H 898.978 7.17774 3.93374 0
M  V30 9561 N 901.641 -1.19671 1.02551 0
M  V30 9562 C 902.551 -2.26441 0.613329 0
M  V30 9563 C 903.567 -1.70375 -0.353339 0
M  V30 9564 O 904.743 -2.0028 -0.212064 0
M  V30 9565 C 901.808 -3.46684 -0.0329028 0
M  V30 9566 C 900.869 -4.17945 0.980837 0
M  V30 9567 C 900.102 -5.32448 0.36535 0
M  V30 9568 O 900.325 -5.64291 -0.832596 0
M  V30 9569 O 899.259 -5.92012 1.08652 0
M  V30 9570 H 903.085 -2.63932 1.50246 0
M  V30 9571 H 900.67 -1.2646 0.795502 0
M  V30 9572 H 902.552 -4.1956 -0.393395 0
M  V30 9573 H 901.227 -3.1105 -0.896089 0
M  V30 9574 H 900.134 -3.47204 1.39286 0
M  V30 9575 H 901.467 -4.57542 1.81428 0
M  V30 9576 N 903.119 -0.802921 -1.35613 0
M  V30 9577 C 904.365 -0.382141 -1.99167 0
M  V30 9578 C 904.698 1.04704 -1.63556 0
M  V30 9579 O 903.973 1.72578 -0.89706 0
M  V30 9580 C 904.256 -0.561493 -3.55695 0
M  V30 9581 C 904.109 -2.03534 -4.01116 0
M  V30 9582 C 905.428 0.0151135 -4.40097 0
M  V30 9583 H 902.547 -0.140322 -0.723518 0
M  V30 9584 H 905.189 -1.01177 -1.6082 0
M  V30 9585 H 903.339 -0.0255083 -3.88492 0
M  V30 9586 H 905.011 -2.63343 -3.78746 0
M  V30 9587 H 903.254 -2.5331 -3.52159 0
M  V30 9588 H 903.925 -2.11173 -5.1001 0
M  V30 9589 H 906.401 -0.442582 -4.1374 0
M  V30 9590 H 905.277 -0.140316 -5.48721 0
M  V30 9591 H 905.538 1.10848 -4.27978 0
M  V30 9592 N 904.597 1.47463 -0.556102 0
M  V30 9593 C 905.53 2.26934 0.240027 0
M  V30 9594 C 906.508 1.33981 0.921297 0
M  V30 9595 O 907.692 1.63361 0.940506 0
M  V30 9596 C 904.819 3.10982 1.34194 0
M  V30 9597 C 903.865 4.19504 0.769342 0
M  V30 9598 S 904.698 5.34127 -0.383209 0
M  V30 9599 C 905.854 6.21739 0.720548 0
M  V30 9600 H 906.087 2.9411 -0.434348 0
M  V30 9601 H 903.62 1.50556 -0.342402 0
M  V30 9602 H 905.578 3.59976 1.973 0
M  V30 9603 H 904.239 2.4317 1.98814 0
M  V30 9604 H 903.432 4.78036 1.59679 0
M  V30 9605 H 903.034 3.73385 0.214475 0
M  V30 9606 H 905.326 6.58021 1.61292 0
M  V30 9607 H 906.269 7.0789 0.172602 0
M  V30 9608 H 906.677 5.55342 1.01272 0
M  V30 9609 N 906.075 0.2925 1.54862 0
M  V30 9610 C 907.008 -0.629155 2.19356 0
M  V30 9611 C 907.986 -1.13927 1.16014 0
M  V30 9612 O 909.17 -1.20904 1.44618 0
M  V30 9613 C 906.297 -1.8599 2.83064 0
M  V30 9614 C 905.343 -1.48376 3.99859 0
M  V30 9615 S 906.176 -0.546976 5.32699 0
M  V30 9616 C 907.332 -1.7857 5.99886 0
M  V30 9617 H 907.565 -0.0812166 2.97189 0
M  V30 9618 H 905.098 0.0766721 1.5421 0
M  V30 9619 H 907.056 -2.56623 3.20398 0
M  V30 9620 H 905.717 -2.37899 2.05092 0
M  V30 9621 H 904.91 -2.40002 4.43187 0
M  V30 9622 H 904.512 -0.857447 3.64038 0
M  V30 9623 H 906.804 -2.7274 6.20177 0
M  V30 9624 H 907.747 -1.39513 6.9422 0
M  V30 9625 H 908.155 -1.95856 5.29434 0
M  V30 9626 N 907.553 -1.57587 0.0200696 0
M  V30 9627 C 908.485 -2.06555 -0.993359 0
M  V30 9628 C 909.498 -0.987227 -1.29451 0
M  V30 9629 O 910.687 -1.26361 -1.26075 0
M  V30 9630 C 907.787 -2.4675 -2.3231 0
M  V30 9631 C 906.96 -3.77554 -2.20843 0
M  V30 9632 C 906.019 -4.04397 -3.36674 0
M  V30 9633 O 905.045 -4.7478 -3.13963 0
M  V30 9634 N 906.247 -3.53861 -4.60176 0
M  V30 9635 H 909.012 -2.9412 -0.575617 0
M  V30 9636 H 906.573 -1.61038 -0.166889 0
M  V30 9637 H 908.565 -2.61806 -3.08609 0
M  V30 9638 H 907.135 -1.64598 -2.65756 0
M  V30 9639 H 906.355 -3.72382 -1.29327 0
M  V30 9640 H 907.643 -4.63271 -2.10375 0
M  V30 9641 H 907.041 -2.96904 -4.81523 0
M  V30 9642 H 905.598 -3.74213 -5.33674 0
M  V30 9643 N 909.032 0.252966 -1.55557 0
M  V30 9644 C 910.281 0.979736 -1.76307 0
M  V30 9645 C 910.594 1.86714 -0.582871 0
M  V30 9646 O 911.8 2.6302 -0.673247 0
M  V30 9647 C 910.256 1.79205 -3.12112 0
M  V30 9648 C 909.864 0.952333 -4.37761 0
M  V30 9649 C 911.608 2.51191 -3.42203 0
M  V30 9650 C 909.515 1.76018 -5.64599 0
M  V30 9651 H 908.445 0.369538 -0.657235 0
M  V30 9652 H 911.096 0.234619 -1.81994 0
M  V30 9653 H 909.478 2.57888 -3.00515 0
M  V30 9654 H 910.652 0.208251 -4.60329 0
M  V30 9655 H 908.967 0.346082 -4.14959 0
M  V30 9656 H 911.564 3.12074 -4.34182 0
M  V30 9657 H 911.907 3.22499 -2.63249 0
M  V30 9658 H 912.44 1.79523 -3.54988 0
M  V30 9659 H 909.179 1.09095 -6.46358 0
M  V30 9660 H 908.699 2.4797 -5.46142 0
M  V30 9661 H 910.378 2.32884 -6.03634 0
M  V30 9662 N 910.51 1.48831 0.518367 0
M  V30 9663 C 911.787 1.47933 1.27966 0
M  V30 9664 C 912.167 0.197393 2.10175 0
M  V30 9665 O 911.515 -0.820656 2.13255 0
M  V30 9666 C 911.725 2.74816 2.15121 0
M  V30 9667 C 913.073 3.23613 2.74881 0
M  V30 9668 O 914.097 2.75814 2.254 0
M  V30 9669 O 912.956 4.06818 3.64913 0
M  V30 9670 H 910.05 0.591316 0.578164 0
M  V30 9671 H 912.596 1.61077 0.534065 0
M  V30 9672 H 911.368 3.59621 1.54234 0
M  V30 9673 H 910.991 2.64449 2.96905 0
M  V30 9674 N 911.988 -0.768124 1.37614 0
M  V30 9675 C 913.228 -1.53979 1.34424 0
M  V30 9676 C 913.592 -1.91874 -0.0696803 0
M  V30 9677 O 914.793 -2.67845 -0.22633 0
M  V30 9678 C 913.064 -2.76845 2.26034 0
M  V30 9679 S 914.623 -3.66871 2.4073 0
M  V30 9680 H 911.441 -0.527108 0.477157 0
M  V30 9681 H 914.043 -0.902945 1.73399 0
M  V30 9682 H 912.747 -2.47091 3.2768 0
M  V30 9683 H 912.278 -3.45486 1.88157 0
M  V30 9684 H 914.293 -4.6899 1.62057 0
M  V30 9685 N 913.466 -1.22244 -0.994698 0
M  V30 9686 C 914.398 -0.948706 -2.08644 0
M  V30 9687 C 915.411 0.0720049 -1.62641 0
M  V30 9688 O 916.6 -0.161778 -1.77765 0
M  V30 9689 C 913.7 -0.404885 -3.36473 0
M  V30 9690 C 912.873 -1.48239 -4.11514 0
M  V30 9691 C 911.932 -0.94597 -5.17627 0
M  V30 9692 O 910.958 -1.63177 -5.45309 0
M  V30 9693 N 912.16 0.23355 -5.8003 0
M  V30 9694 H 914.925 -1.88858 -2.32707 0
M  V30 9695 H 912.486 -1.12908 -1.16032 0
M  V30 9696 H 914.478 -0.0313903 -4.04688 0
M  V30 9697 H 913.048 0.440061 -3.09487 0
M  V30 9698 H 912.268 -2.02928 -3.37955 0
M  V30 9699 H 913.556 -2.20741 -4.58422 0
M  V30 9700 H 912.954 0.80756 -5.59906 0
M  V30 9701 H 911.511 0.54845 -6.49488 0
M  V30 9702 N 914.944 1.19125 -1.03184 0
M  V30 9703 C 916.19 1.89163 -0.731111 0
M  V30 9704 C 916.523 1.79604 0.738662 0
M  V30 9705 O 915.798 1.19037 1.53819 0
M  V30 9706 C 916.081 3.39986 -1.18666 0
M  V30 9707 C 915.934 3.58401 -2.71788 0
M  V30 9708 C 917.253 4.33316 -0.769772 0
M  V30 9709 H 914.372 0.686908 -0.267069 0
M  V30 9710 H 917.014 1.40205 -1.28229 0
M  V30 9711 H 915.164 3.81813 -0.717736 0
M  V30 9712 H 916.836 3.25727 -3.26649 0
M  V30 9713 H 915.079 3.01355 -3.12038 0
M  V30 9714 H 915.75 4.64189 -2.98719 0
M  V30 9715 H 918.226 3.9922 -1.17314 0
M  V30 9716 H 917.102 5.37427 -1.11637 0
M  V30 9717 H 917.363 4.40884 0.327681 0
M  V30 9718 N 916.422 0.810101 1.35185 0
M  V30 9719 C 917.355 0.168416 2.27578 0
M  V30 9720 C 918.333 -0.667664 1.4826 0
M  V30 9721 O 919.517 -0.634184 1.77512 0
M  V30 9722 C 916.644 -0.765994 3.29925 0
M  V30 9723 C 915.69 -0.00908802 4.26499 0
M  V30 9724 S 916.523 1.32936 5.18737 0
M  V30 9725 C 917.679 0.399485 6.24624 0
M  V30 9726 H 917.912 0.951753 2.81654 0
M  V30 9727 H 915.445 0.60534 1.42039 0
M  V30 9728 H 917.403 -1.2996 3.89385 0
M  V30 9729 H 916.064 -1.52275 2.7472 0
M  V30 9730 H 915.257 -0.718919 4.98846 0
M  V30 9731 H 914.859 0.454663 3.71226 0
M  V30 9732 H 917.151 -0.413904 6.76234 0
M  V30 9733 H 918.094 1.09225 6.99625 0
M  V30 9734 H 918.502 -0.00638358 5.645 0
M  V30 9735 N 917.9 -1.47166 0.563914 0
M  V30 9736 C 919.177 -1.95586 -0.0236172 0
M  V30 9737 C 919.557 -1.50655 -1.47872 0
M  V30 9738 O 918.905 -0.748479 -2.15894 0
M  V30 9739 C 919.115 -3.48762 0.128841 0
M  V30 9740 C 920.463 -4.24598 -0.0130544 0
M  V30 9741 O 921.487 -3.56155 0.0567242 0
M  V30 9742 O 920.346 -5.46253 -0.164332 0
M  V30 9743 H 917.44 -0.824793 -0.0603789 0
M  V30 9744 H 919.986 -1.57536 0.63091 0
M  V30 9745 H 918.758 -3.74291 1.14113 0
M  V30 9746 H 918.381 -3.93594 -0.56299 0
M  V30 9747 N 919.378 -0.300708 -1.54705 0
M  V30 9748 C 920.606 0.31127 -2.04545 0
M  V30 9749 C 921.021 1.47542 -1.178 0
M  V30 9750 O 920.378 1.81361 -0.203571 0
M  V30 9751 C 920.429 0.767783 -3.53253 0
M  V30 9752 O 920.15 -0.350027 -4.36699 0
M  V30 9753 C 921.651 1.44494 -4.1909 0
M  V30 9754 H 918.871 0.067668 -0.667579 0
M  V30 9755 H 921.415 -0.440254 -1.99705 0
M  V30 9756 H 919.57 1.46933 -3.58454 0
M  V30 9757 H 919.984 0.00534038 -5.245 0
M  V30 9758 H 921.458 1.71553 -5.24665 0
M  V30 9759 H 921.935 2.3849 -3.68808 0
M  V30 9760 H 922.541 0.786581 -4.17963 0
M  V30 9761 N 920.856 1.57574 -0.0284266 0
M  V30 9762 C 922.272 1.56194 0.327958 0
M  V30 9763 C 922.472 1.03397 1.72949 0
M  V30 9764 O 921.528 0.680392 2.4316 0
M  V30 9765 C 922.841 3.00177 0.177196 0
M  V30 9766 C 924.389 3.12 0.250014 0
M  V30 9767 C 924.864 4.57821 0.128049 0
M  V30 9768 N 926.355 4.6283 0.185054 0
M  V30 9769 C 927.09 5.73286 0.114454 0
M  V30 9770 N 926.586 6.928 -0.00719225 0
M  V30 9771 N 928.379 5.61848 0.16839 0
M  V30 9772 H 920.53 1.90224 -0.944921 0
M  V30 9773 H 922.793 0.874987 -0.364832 0
M  V30 9774 H 922.499 3.42753 -0.788224 0
M  V30 9775 H 922.373 3.65101 0.94768 0
M  V30 9776 H 924.76 2.69337 1.20589 0
M  V30 9777 H 924.841 2.49799 -0.550835 0
M  V30 9778 H 924.485 5.01165 -0.824407 0
M  V30 9779 H 924.415 5.18001 0.947753 0
M  V30 9780 H 926.906 3.76867 0.279247 0
M  V30 9781 H 927.219 7.72781 -0.0543903 0
M  V30 9782 H 925.564 6.94987 -0.0419648 0
M  V30 9783 H 928.755 4.67367 0.261821 0
M  V30 9784 H 928.928 6.47907 0.109908 0
M  V30 9785 N 922.334 -0.244713 1.55689 0
M  V30 9786 C 923.583 -0.970373 1.76824 0
M  V30 9787 C 923.896 -1.86402 0.592764 0
M  V30 9788 O 925.102 -2.62659 0.687186 0
M  V30 9789 C 923.558 -1.77547 3.13058 0
M  V30 9790 C 923.166 -0.929104 4.3826 0
M  V30 9791 C 924.91 -2.49373 3.43531 0
M  V30 9792 C 922.817 -1.73021 5.65524 0
M  V30 9793 H 921.747 -0.366048 0.659185 0
M  V30 9794 H 924.398 -0.224964 1.82116 0
M  V30 9795 H 922.78 -2.56291 3.01879 0
M  V30 9796 H 923.954 -0.183836 4.60433 0
M  V30 9797 H 922.269 -0.324071 4.15137 0
M  V30 9798 H 924.866 -3.09767 4.35831 0
M  V30 9799 H 925.209 -3.21099 2.64955 0
M  V30 9800 H 925.742 -1.77637 3.55935 0
M  V30 9801 H 922.481 -1.05666 6.46927 0
M  V30 9802 H 922.001 -2.45071 5.47449 0
M  V30 9803 H 923.68 -2.2968 6.0486 0
M  V30 9804 N 923.813 -1.49104 -0.510467 0
M  V30 9805 C 924.743 -1.67981 -1.62187 0
M  V30 9806 C 925.724 -0.528529 -1.6168 0
M  V30 9807 O 926.909 -0.763305 -1.7857 0
M  V30 9808 C 924.039 -1.73755 -3.0071 0
M  V30 9809 C 922.993 -2.88579 -3.1608 0
M  V30 9810 C 922.319 -2.79457 -4.5586 0
M  V30 9811 C 923.619 -4.29638 -2.97 0
M  V30 9812 H 925.313 -2.61029 -1.46643 0
M  V30 9813 H 922.859 -1.25615 -0.704042 0
M  V30 9814 H 924.812 -1.85548 -3.78352 0
M  V30 9815 H 923.536 -0.772996 -3.17321 0
M  V30 9816 H 922.195 -2.76372 -2.40861 0
M  V30 9817 H 921.843 -1.80929 -4.69333 0
M  V30 9818 H 921.543 -3.56518 -4.67086 0
M  V30 9819 H 923.067 -2.93245 -5.35574 0
M  V30 9820 H 924.481 -4.42575 -3.64418 0
M  V30 9821 H 922.878 -5.07847 -3.19704 0
M  V30 9822 H 923.948 -4.44741 -1.93219 0
M  V30 9823 N 925.291 0.760815 -1.38019 0
M  V30 9824 C 926.241 1.86487 -1.31174 0
M  V30 9825 C 927.225 1.59684 -0.197414 0
M  V30 9826 O 928.417 1.71628 -0.432764 0
M  V30 9827 C 925.546 3.24103 -1.13192 0
M  V30 9828 C 924.632 3.5682 -2.29216 0
M  V30 9829 N 925.023 3.60644 -3.5464 0
M  V30 9830 C 923.321 3.87047 -2.2161 0
M  V30 9831 C 924.022 3.90423 -4.31214 0
M  V30 9832 N 922.998 4.06883 -3.60482 0
M  V30 9833 H 926.8 1.87711 -2.26146 0
M  V30 9834 H 924.314 0.957811 -1.31148 0
M  V30 9835 H 926.311 4.03101 -1.06372 0
M  V30 9836 H 924.971 3.24135 -0.191473 0
M  V30 9837 H 925.982 3.42581 -3.88405 0
M  V30 9838 H 922.659 3.94837 -1.35684 0
M  V30 9839 H 924.049 4.00065 -5.39812 0
M  V30 9840 N 926.769 1.22769 0.988202 0
M  V30 9841 C 928.018 1.0492 1.72263 0
M  V30 9842 C 928.331 -0.415282 1.91141 0
M  V30 9843 O 929.537 -0.713547 2.61956 0
M  V30 9844 C 927.993 1.82891 3.09966 0
M  V30 9845 C 927.601 3.33618 2.99003 0
M  V30 9846 C 929.345 1.73505 3.87423 0
M  V30 9847 C 927.252 4.04012 4.3189 0
M  V30 9848 H 926.182 0.38899 0.645912 0
M  V30 9849 H 928.833 1.46664 1.10281 0
M  V30 9850 H 927.215 1.33948 3.72658 0
M  V30 9851 H 928.389 3.8999 2.45448 0
M  V30 9852 H 926.704 3.43732 2.35027 0
M  V30 9853 H 929.301 2.23416 4.85787 0
M  V30 9854 H 929.644 0.696344 4.10435 0
M  V30 9855 H 930.177 2.20016 3.31418 0
M  V30 9856 H 926.916 5.08155 4.14075 0
M  V30 9857 H 926.436 3.52428 4.8534 0
M  V30 9858 H 928.115 4.0987 5.00615 0
M  V30 9859 N 928.247 -1.18576 1.03814 0
M  V30 9860 C 929.194 -2.2212 0.626988 0
M  V30 9861 C 930.164 -1.62064 -0.363912 0
M  V30 9862 O 931.349 -1.89041 -0.258469 0
M  V30 9863 C 928.489 -3.45099 -0.00650133 0
M  V30 9864 C 927.602 -4.19503 1.03156 0
M  V30 9865 C 926.737 -5.29932 0.366852 0
M  V30 9866 C 925.776 -5.96104 1.39018 0
M  V30 9867 N 924.913 -6.98076 0.750625 0
M  V30 9868 H 929.753 -2.56646 1.51449 0
M  V30 9869 H 927.29 -1.26084 0.757702 0
M  V30 9870 H 929.248 -4.15363 -0.391108 0
M  V30 9871 H 927.878 -3.11201 -0.857536 0
M  V30 9872 H 926.93 -3.48092 1.53414 0
M  V30 9873 H 928.242 -4.64843 1.80893 0
M  V30 9874 H 927.396 -6.06657 -0.0720979 0
M  V30 9875 H 926.135 -4.85687 -0.442631 0
M  V30 9876 H 925.14 -5.18122 1.8393 0
M  V30 9877 H 926.365 -6.42432 2.20132 0
M  V30 9878 H 924.311 -6.55989 -0.0385981 0
M  V30 9879 H 924.228 -7.41655 1.46574 0
M  V30 9880 H 925.496 -7.78776 0.335986 0
M  V30 9881 N 929.725 -0.817259 -1.34754 0
M  V30 9882 C 930.95 -0.414423 -2.03217 0
M  V30 9883 C 931.375 0.970037 -1.61158 0
M  V30 9884 O 930.733 1.63016 -0.793436 0
M  V30 9885 C 930.781 -0.518087 -3.56859 0
M  V30 9886 O 929.885 0.464314 -4.09778 0
M  V30 9887 H 929.226 -0.171454 -0.641482 0
M  V30 9888 H 931.756 -1.10611 -1.72123 0
M  V30 9889 H 931.766 -0.391779 -4.06115 0
M  V30 9890 H 930.441 -1.52786 -3.86819 0
M  V30 9891 H 929.018 0.297361 -3.71712 0
M  V30 9892 N 931.203 1.46865 -0.571711 0
M  V30 9893 C 932.428 2.07323 -0.0564655 0
M  V30 9894 C 932.853 1.41938 1.23431 0
M  V30 9895 O 932.211 0.499334 1.74288 0
M  V30 9896 C 932.259 3.6044 0.107339 0
M  V30 9897 O 931.363 3.95558 1.1665 0
M  V30 9898 H 930.704 0.661475 -0.0578465 0
M  V30 9899 H 933.234 1.88669 -0.791524 0
M  V30 9900 H 933.244 4.06767 0.316987 0
M  V30 9901 H 931.919 4.07425 -0.835348 0
M  V30 9902 H 930.496 3.60957 0.936189 0
M  V30 9903 N 932.681 0.308908 1.54543 0
M  V30 9904 C 933.906 -0.303196 2.05172 0
M  V30 9905 C 934.331 -1.46133 1.18434 0
M  V30 9906 O 933.689 -1.803 0.190162 0
M  V30 9907 C 933.737 -0.729526 3.53143 0
M  V30 9908 O 932.841 -1.83348 3.69401 0
M  V30 9909 H 932.182 -0.0575066 0.661505 0
M  V30 9910 H 934.712 0.453055 1.99521 0
M  V30 9911 H 934.722 -1.01619 3.95143 0
M  V30 9912 H 933.397 0.117622 4.15734 0
M  V30 9913 H 931.974 -1.54676 3.39308 0
M  V30 9914 N 934.159 -1.57557 0.0367827 0
M  V30 9915 C 935.405 -1.92399 -0.641133 0
M  V30 9916 C 935.738 -0.914191 -1.71336 0
M  V30 9917 O 935.013 0.0619616 -1.94401 0
M  V30 9918 C 935.296 -3.37689 -1.25052 0
M  V30 9919 C 935.149 -4.4941 -0.187326 0
M  V30 9920 C 936.468 -3.8309 -2.16634 0
M  V30 9921 H 933.587 -0.699666 -0.231597 0
M  V30 9922 H 936.229 -1.89759 0.0956083 0
M  V30 9923 H 934.379 -3.40069 -1.87843 0
M  V30 9924 H 936.051 -4.59161 0.443736 0
M  V30 9925 H 934.294 -4.31065 0.486313 0
M  V30 9926 H 934.965 -5.48119 -0.653459 0
M  V30 9927 H 937.441 -3.82494 -1.63821 0
M  V30 9928 H 936.317 -4.85429 -2.56222 0
M  V30 9929 H 936.578 -3.19028 -3.06062 0
M  V30 9930 N 935.637 0.236453 -1.55816 0
M  V30 9931 C 937.048 0.80468 -1.68469 0
M  V30 9932 C 937.399 1.85601 -0.636133 0
M  V30 9933 O 936.524 2.15323 0.215622 0
M  V30 9934 C 937.119 1.46634 -3.05424 0
M  V30 9935 C 935.678 1.98214 -3.19981 0
M  V30 9936 C 934.825 0.83695 -2.64368 0
M  V30 9937 H 937.776 0.0120647 -1.58695 0
M  V30 9938 H 937.797 2.33472 -3.00451 0
M  V30 9939 H 937.309 0.700931 -3.81718 0
M  V30 9940 H 935.41 2.77604 -2.4853 0
M  V30 9941 H 935.523 2.17235 -4.2702 0
M  V30 9942 H 933.887 1.24028 -2.22462 0
M  V30 9943 H 934.67 0.084451 -3.43196 0
M  V30 9944 N 937.115 1.49373 0.502552 0
M  V30 9945 C 938.526 1.52 1.0841 0
M  V30 9946 C 938.877 0.305317 1.9381 0
M  V30 9947 O 938.002 -0.585023 2.08342 0
M  V30 9948 C 938.597 2.75437 1.97281 0
M  V30 9949 C 937.156 2.80848 2.50602 0
M  V30 9950 C 936.303 2.45894 1.28186 0
M  V30 9951 H 939.254 1.56092 0.286533 0
M  V30 9952 H 939.275 2.55511 2.81947 0
M  V30 9953 H 938.787 3.63827 1.35098 0
M  V30 9954 H 936.888 1.96735 3.16427 0
M  V30 9955 H 937.001 3.82979 2.8786 0
M  V30 9956 H 935.365 1.97639 1.60657 0
M  V30 9957 H 936.148 3.36556 0.677139 0
M  V30 9958 N 938.594 -0.753485 1.38421 0
M  V30 9959 C 939.824 -1.54049 1.37669 0
M  V30 9960 C 940.232 -1.89167 -0.0353656 0
M  V30 9961 O 939.575 -1.53285 -1.01239 0
M  V30 9962 C 939.637 -2.86777 2.16793 0
M  V30 9963 C 939.301 -2.74196 3.65603 0
M  V30 9964 C 940.298 -2.43985 4.59094 0
M  V30 9965 C 937.983 -2.91645 4.0896 0
M  V30 9966 C 939.977 -2.31379 5.93921 0
M  V30 9967 C 937.664 -2.78658 5.43868 0
M  V30 9968 C 938.662 -2.48568 6.36163 0
M  V30 9969 O 938.35 -2.3564 7.68589 0
M  V30 9970 H 938.082 -0.483276 0.472673 0
M  V30 9971 H 940.636 -0.940267 1.82615 0
M  V30 9972 H 938.866 -3.48988 1.66565 0
M  V30 9973 H 940.555 -3.48289 2.08446 0
M  V30 9974 H 941.321 -2.30172 4.26902 0
M  V30 9975 H 937.2 -3.14063 3.37469 0
M  V30 9976 H 940.744 -2.07813 6.65927 0
M  V30 9977 H 936.641 -2.92044 5.75656 0
M  V30 9978 H 937.409 -2.50851 7.79112 0
M  V30 9979 N 940.072 -1.23292 -0.981677 0
M  V30 9980 C 941.002 -1.03738 -2.09191 0
M  V30 9981 C 941.983 0.0453041 -1.7004 0
M  V30 9982 O 943.168 -0.119092 -1.93834 0
M  V30 9983 C 940.298 -0.626426 -3.41604 0
M  V30 9984 C 939.252 -1.65631 -3.94652 0
M  V30 9985 C 938.578 -1.10084 -5.23245 0
M  V30 9986 C 939.878 -3.04903 -4.24066 0
M  V30 9987 H 941.572 -1.966 -2.25807 0
M  V30 9988 H 939.118 -0.946656 -1.0851 0
M  V30 9989 H 941.071 -0.476689 -4.18695 0
M  V30 9990 H 939.795 0.337873 -3.24848 0
M  V30 9991 H 938.454 -1.79402 -3.19704 0
M  V30 9992 H 938.102 -0.127562 -5.02838 0
M  V30 9993 H 937.802 -1.78896 -5.59705 0
M  V30 9994 H 939.326 -0.962928 -6.02959 0
M  V30 9995 H 940.74 -2.94441 -4.91912 0
M  V30 9996 H 939.137 -3.70941 -4.71724 0
M  V30 9997 H 940.207 -3.53991 -3.31389 0
M  V30 9998 N 941.55 1.18024 -1.04442 0
M  V30 9999 C 942.966 1.40107 -0.76435 0
M  V30 10000 C 943.166 1.90914 0.644516 0
M  V30 10001 O 942.222 2.0959 1.40813 0
M  V30 10002 C 943.535 2.39851 -1.81361 0
M  V30 10003 C 945.083 2.53571 -1.83496 0
M  V30 10004 C 945.558 3.56583 -2.87424 0
M  V30 10005 N 947.049 3.64094 -2.86339 0
M  V30 10006 C 947.784 4.43537 -3.63405 0
M  V30 10007 N 947.28 5.26557 -4.50233 0
M  V30 10008 N 949.073 4.38336 -3.51877 0
M  V30 10009 H 941.224 0.833726 -1.95353 0
M  V30 10010 H 943.487 0.42881 -0.845474 0
M  V30 10011 H 943.193 2.09576 -2.82438 0
M  V30 10012 H 943.067 3.39251 -1.6489 0
M  V30 10013 H 945.454 2.83161 -0.830883 0
M  V30 10014 H 945.535 1.54272 -2.04044 0
M  V30 10015 H 945.179 3.27733 -3.88012 0
M  V30 10016 H 945.109 4.55569 -2.6413 0
M  V30 10017 H 947.6 3.04814 -2.23376 0
M  V30 10018 H 947.913 5.84336 -5.05738 0
M  V30 10019 H 946.258 5.25964 -4.54298 0
M  V30 10020 H 949.449 3.72528 -2.83444 0
M  V30 10021 H 949.622 5.00007 -4.12186 0
M  V30 10022 N 943.028 0.824394 1.34319 0
M  V30 10023 C 944.305 0.335692 1.92698 0
M  V30 10024 C 944.685 -1.17715 1.75232 0
M  V30 10025 O 944.033 -1.98493 1.13194 0
M  V30 10026 C 944.243 0.766647 3.40475 0
M  V30 10027 C 945.591 0.766323 4.17627 0
M  V30 10028 O 946.615 0.709321 3.49066 0
M  V30 10029 O 945.474 0.840856 5.39992 0
M  V30 10030 H 942.568 0.0919996 0.821867 0
M  V30 10031 H 945.114 0.909282 1.43283 0
M  V30 10032 H 943.886 1.80859 3.46995 0
M  V30 10033 H 943.509 0.168833 3.97241 0
M  V30 10034 N 944.506 -1.46559 0.579492 0
M  V30 10035 C 945.438 -2.28383 -0.19337 0
M  V30 10036 C 946.451 -1.38324 -0.858511 0
M  V30 10037 O 947.64 -1.62952 -0.728615 0
M  V30 10038 C 944.74 -3.13262 -1.29306 0
M  V30 10039 C 943.913 -4.31426 -0.720459 0
M  V30 10040 C 942.972 -4.97728 -1.70744 0
M  V30 10041 O 941.998 -5.55423 -1.24476 0
M  V30 10042 N 943.2 -4.94445 -3.04146 0
M  V30 10043 H 945.965 -2.95353 0.508611 0
M  V30 10044 H 943.526 -1.56436 0.417046 0
M  V30 10045 H 945.518 -3.54483 -1.95254 0
M  V30 10046 H 944.088 -2.48388 -1.89795 0
M  V30 10047 H 943.308 -3.94028 0.116398 0
M  V30 10048 H 944.596 -5.07808 -0.31763 0
M  V30 10049 H 943.994 -4.4881 -3.44363 0
M  V30 10050 H 942.551 -5.39616 -3.65592 0
M  V30 10051 N 945.984 -0.3171 -1.54377 0
M  V30 10052 C 946.916 0.58571 -2.2159 0
M  V30 10053 C 947.929 1.08495 -1.21378 0
M  V30 10054 O 949.118 0.999638 -1.47883 0
M  V30 10055 C 946.218 1.8157 -2.86156 0
M  V30 10056 C 945.391 1.45625 -4.12447 0
M  V30 10057 C 944.45 2.54308 -4.60667 0
M  V30 10058 O 943.476 2.18724 -5.25498 0
M  V30 10059 N 944.678 3.85129 -4.34345 0
M  V30 10060 H 947.443 0.0102247 -2.99698 0
M  V30 10061 H 945.004 -0.140011 -1.61293 0
M  V30 10062 H 946.996 2.53657 -3.15341 0
M  V30 10063 H 945.566 2.29919 -2.11793 0
M  V30 10064 H 944.786 0.567294 -3.90097 0
M  V30 10065 H 946.074 1.19169 -4.94648 0
M  V30 10066 H 945.472 4.16841 -3.8244 0
M  V30 10067 H 944.029 4.53466 -4.68201 0
M  V30 10068 N 947.462 1.57535 -0.0451378 0
M  V30 10069 C 948.878 1.56533 0.311373 0
M  V30 10070 C 949.078 1.05225 1.71843 0
M  V30 10071 O 948.134 0.706144 2.42425 0
M  V30 10072 C 949.447 3.00349 0.145348 0
M  V30 10073 C 950.995 3.12248 0.216908 0
M  V30 10074 C 951.47 4.57931 0.0794834 0
M  V30 10075 N 952.961 4.63 0.135954 0
M  V30 10076 C 953.696 5.73375 0.0536426 0
M  V30 10077 N 953.192 6.92753 -0.0806725 0
M  V30 10078 N 954.985 5.61995 0.108789 0
M  V30 10079 H 947.136 1.89211 -0.965044 0
M  V30 10080 H 949.399 0.871068 -0.374091 0
M  V30 10081 H 949.105 3.41898 -0.824533 0
M  V30 10082 H 948.979 3.66086 0.908903 0
M  V30 10083 H 951.366 2.70601 1.17726 0
M  V30 10084 H 951.447 2.49201 -0.577299 0
M  V30 10085 H 951.091 5.00262 -0.877516 0
M  V30 10086 H 951.021 5.18977 0.892758 0
M  V30 10087 H 953.512 3.77142 0.23926 0
M  V30 10088 H 953.825 7.7268 -0.136351 0
M  V30 10089 H 952.17 6.94904 -0.115675 0
M  V30 10090 H 955.361 4.67619 0.212235 0
M  V30 10091 H 955.534 6.47987 0.0411822 0
M  V30 10092 N 948.94 -0.228186 1.55939 0
M  V30 10093 C 949.888 -1.30239 1.92719 0
M  V30 10094 C 950.882 -1.48865 0.808424 0
M  V30 10095 O 952.088 -1.50118 0.993204 0
M  V30 10096 H 948.463 -0.436509 0.612343 0
M  V30 10097 H 950.434 -0.964965 2.82367 0
M  V30 10098 C 949.183 -2.647 2.25453 0
M  V30 10099 H 948.506 -2.51173 3.1105 0
M  V30 10100 H 949.946 -3.38691 2.55077 0
M  V30 10101 C 948.405 -3.1921 1.07734 0
M  V30 10102 O 948.935 -4.00301 0.335019 0
M  V30 10103 N 947.141 -2.77492 0.862938 0
M  V30 10104 H 946.688 -2.11657 1.4683 0
M  V30 10105 H 946.646 -3.14306 0.0770119 0
M  V30 10106 N 950.418 -1.49637 -0.494624 0
M  V30 10107 C 951.35 -1.62902 -1.61231 0
M  V30 10108 C 952.363 -0.511425 -1.54558 0
M  V30 10109 O 953.552 -0.783724 -1.60375 0
M  V30 10110 C 950.652 -1.57564 -3.00045 0
M  V30 10111 C 949.825 -2.84964 -3.31835 0
M  V30 10112 C 948.884 -2.72591 -4.5009 0
M  V30 10113 O 947.91 -3.46532 -4.51558 0
M  V30 10114 N 949.112 -1.84563 -5.50379 0
M  V30 10115 H 951.877 -2.59301 -1.50276 0
M  V30 10116 H 949.438 -1.46806 -0.68262 0
M  V30 10117 H 951.43 -1.46932 -3.77085 0
M  V30 10118 H 950 -0.689974 -3.0489 0
M  V30 10119 H 949.22 -3.099 -2.4363 0
M  V30 10120 H 950.508 -3.69412 -3.49875 0
M  V30 10121 H 949.906 -1.23758 -5.51997 0
M  V30 10122 H 948.463 -1.79849 -6.26496 0
M  V30 10123 N 951.896 0.746133 -1.38819 0
M  V30 10124 C 953.124 1.53539 -1.38685 0
M  V30 10125 C 953.539 1.88788 0.0215039 0
M  V30 10126 O 952.896 1.53312 0.990031 0
M  V30 10127 C 952.947 2.8299 -2.24942 0
M  V30 10128 O 952.668 2.49242 -3.60292 0
M  V30 10129 C 954.169 3.77085 -2.3307 0
M  V30 10130 H 951.389 0.474842 -0.474095 0
M  V30 10131 H 953.933 0.922844 -1.82493 0
M  V30 10132 H 952.088 3.40603 -1.84576 0
M  V30 10133 H 952.502 3.32319 -4.05789 0
M  V30 10134 H 953.976 4.64845 -2.97696 0
M  V30 10135 H 954.453 4.18049 -1.34655 0
M  V30 10136 H 955.059 3.25394 -2.73859 0
M  V30 10137 N 953.375 1.23811 0.975125 0
M  V30 10138 C 954.323 1.02149 2.0897 0
M  V30 10139 C 955.317 -0.0412172 1.6935 0
M  V30 10140 O 956.523 0.112726 1.79647 0
M  V30 10141 H 952.898 0.313259 0.683647 0
M  V30 10142 H 954.869 1.96686 2.24404 0
M  V30 10143 C 953.618 0.635023 3.41852 0
M  V30 10144 H 952.941 1.44449 3.72793 0
M  V30 10145 H 954.381 0.52301 4.20762 0
M  V30 10146 C 952.84 -0.657207 3.30428 0
M  V30 10147 O 953.37 -1.70494 3.63723 0
M  V30 10148 N 951.576 -0.635122 2.83575 0
M  V30 10149 H 951.123 0.21784 2.56677 0
M  V30 10150 H 951.081 -1.49995 2.76313 0
M  V30 10151 N 954.853 -1.17469 1.05066 0
M  V30 10152 C 956.081 -1.9162 0.780334 0
M  V30 10153 C 956.496 -1.76745 -0.663817 0
M  V30 10154 O 955.853 -1.10377 -1.45338 0
M  V30 10155 C 955.904 -3.42723 1.14992 0
M  V30 10156 O 955.625 -3.57139 2.53739 0
M  V30 10157 C 957.126 -4.33952 0.905549 0
M  V30 10158 H 954.346 -0.608022 0.283814 0
M  V30 10159 H 956.89 -1.4897 1.401 0
M  V30 10160 H 955.045 -3.83124 0.57403 0
M  V30 10161 H 955.459 -4.5075 2.68189 0
M  V30 10162 H 956.933 -5.38487 1.21391 0
M  V30 10163 H 957.41 -4.38911 -0.159295 0
M  V30 10164 H 958.016 -3.99263 1.46522 0
M  V30 10165 N 956.331 -0.831506 -1.3388 0
M  V30 10166 C 957.578 -0.423674 -1.98018 0
M  V30 10167 C 957.906 1.01533 -1.65895 0
M  V30 10168 O 957.161 1.72342 -0.927183 0
M  V30 10169 C 957.46 -0.582733 -3.52617 0
M  V30 10170 C 957.126 -1.98874 -4.04673 0
M  V30 10171 C 955.788 -2.37334 -4.186 0
M  V30 10172 C 958.14 -2.90745 -4.3257 0
M  V30 10173 C 955.468 -3.66984 -4.57755 0
M  V30 10174 C 957.82 -4.19868 -4.73174 0
M  V30 10175 C 956.484 -4.58294 -4.85307 0
M  V30 10176 H 955.754 -0.155033 -0.7246 0
M  V30 10177 H 958.401 -1.05711 -1.59679 0
M  V30 10178 H 956.706 0.134052 -3.91571 0
M  V30 10179 H 958.403 -0.247576 -4.00235 0
M  V30 10180 H 954.993 -1.68001 -3.94301 0
M  V30 10181 H 959.177 -2.62272 -4.2134 0
M  V30 10182 H 954.433 -3.9657 -4.65341 0
M  V30 10183 H 958.607 -4.91138 -4.93717 0
M  V30 10184 H 956.234 -5.58805 -5.15404 0
M  V30 10185 N 957.809 1.4625 -0.587256 0
M  V30 10186 C 959.056 2.02363 -0.0745746 0
M  V30 10187 C 959.384 1.4582 1.28712 0
M  V30 10188 O 958.639 0.614922 1.85788 0
M  V30 10189 C 958.938 3.57382 0.036328 0
M  V30 10190 C 958.604 4.32985 -1.25837 0
M  V30 10191 C 957.266 4.53358 -1.61306 0
M  V30 10192 C 959.618 4.76361 -2.11494 0
M  V30 10193 C 956.946 5.14361 -2.82223 0
M  V30 10194 C 959.298 5.38699 -3.31641 0
M  V30 10195 C 957.962 5.57299 -3.67388 0
M  V30 10196 H 957.232 0.740497 -0.0272888 0
M  V30 10197 H 959.879 1.75565 -0.764804 0
M  V30 10198 H 958.184 3.83342 0.809712 0
M  V30 10199 H 959.881 3.9848 0.448838 0
M  V30 10200 H 956.471 4.17427 -0.972251 0
M  V30 10201 H 960.655 4.60372 -1.85394 0
M  V30 10202 H 955.911 5.26952 -3.10051 0
M  V30 10203 H 960.085 5.71267 -3.9828 0
M  V30 10204 H 957.712 6.04338 -4.61173 0
M  V30 10205 N 959.287 0.325282 1.54207 0
M  V30 10206 C 960.535 -0.276229 2.00203 0
M  V30 10207 C 960.856 -1.52519 1.21503 0
M  V30 10208 O 960.126 -1.93313 0.317302 0
M  V30 10209 H 958.706 -0.105059 0.739575 0
M  V30 10210 H 961.368 0.442225 1.89817 0
M  V30 10211 H 960.464 -0.531427 3.07542 0
M  V30 10212 N 960.765 -1.57509 0.0534917 0
M  V30 10213 C 961.99 -1.97511 -0.632794 0
M  V30 10214 C 962.415 -0.930947 -1.63447 0
M  V30 10215 O 961.773 0.105558 -1.80992 0
M  V30 10216 C 961.821 -3.3658 -1.29407 0
M  V30 10217 O 960.925 -3.3467 -2.40977 0
M  V30 10218 H 960.266 -0.643349 -0.16431 0
M  V30 10219 H 962.796 -2.04232 0.12258 0
M  V30 10220 H 962.806 -3.73359 -1.64521 0
M  V30 10221 H 961.481 -4.12113 -0.559976 0
M  V30 10222 H 960.058 -3.09639 -2.07793 0
M  V30 10223 N 962.243 0.219913 -1.56058 0
M  V30 10224 C 963.654 0.786766 -1.69313 0
M  V30 10225 C 964.005 1.84916 -0.655782 0
M  V30 10226 O 963.13 2.1554 0.192772 0
M  V30 10227 C 963.725 1.43387 -3.06962 0
M  V30 10228 C 962.284 1.94809 -3.22066 0
M  V30 10229 C 961.431 0.808863 -2.65241 0
M  V30 10230 H 964.382 -0.00476777 -1.58699 0
M  V30 10231 H 964.403 2.30272 -3.02911 0
M  V30 10232 H 963.915 0.660405 -3.8244 0
M  V30 10233 H 962.016 2.74952 -2.5146 0
M  V30 10234 H 962.129 2.12694 -4.293 0
M  V30 10235 H 960.493 1.21661 -2.23765 0
M  V30 10236 H 961.276 0.0480458 -3.43266 0
M  V30 10237 N 963.721 1.49897 0.486681 0
M  V30 10238 C 965.132 1.53142 1.06792 0
M  V30 10239 C 965.483 0.325856 1.93475 0
M  V30 10240 O 964.608 -0.562893 2.08951 0
M  V30 10241 C 965.203 2.77514 1.94348 0
M  V30 10242 C 963.762 2.83491 2.47609 0
M  V30 10243 C 962.909 2.47239 1.2557 0
M  V30 10244 H 965.86 1.56387 0.269962 0
M  V30 10245 H 965.881 2.58487 2.79221 0
M  V30 10246 H 965.393 3.65239 1.31232 0
M  V30 10247 H 963.494 2.0008 3.14323 0
M  V30 10248 H 963.607 3.86011 2.83782 0
M  V30 10249 H 961.971 1.99332 1.58552 0
M  V30 10250 H 962.754 3.37255 0.641404 0
M  V30 10251 N 965.199 -0.738761 1.39212 0
M  V30 10252 C 966.162 -1.83441 1.37412 0
M  V30 10253 C 967.162 -1.58484 0.271908 0
M  V30 10254 O 968.352 -1.65954 0.529609 0
M  V30 10255 C 965.484 -3.21167 1.143 0
M  V30 10256 H 966.677 -1.86441 2.34904 0
M  V30 10257 H 964.23 -0.942023 1.24722 0
M  V30 10258 H 964.965 -3.23829 0.174756 0
M  V30 10259 H 964.75 -3.40678 1.94116 0
M  V30 10260 H 966.24 -4.01231 1.15773 0
M  V30 10261 N 966.677 -1.24326 -0.968545 0
M  V30 10262 C 967.64 -1.03591 -2.04454 0
M  V30 10263 C 968.64 0.0064809 -1.60799 0
M  V30 10264 O 969.83 -0.234404 -1.72616 0
M  V30 10265 C 966.962 -0.56992 -3.36102 0
M  V30 10266 H 968.155 -1.99092 -2.24282 0
M  V30 10267 H 965.708 -1.06537 -1.14366 0
M  V30 10268 H 966.443 0.388325 -3.21967 0
M  V30 10269 H 966.228 -1.32227 -3.69132 0
M  V30 10270 H 967.718 -0.445854 -4.15213 0
M  V30 10271 N 968.156 1.1691 -1.05688 0
M  V30 10272 C 969.384 1.91204 -0.790485 0
M  V30 10273 C 969.799 1.77095 0.654434 0
M  V30 10274 O 969.156 1.11146 1.44751 0
M  V30 10275 C 969.207 3.42108 -1.16808 0
M  V30 10276 O 968.928 3.55788 -2.55629 0
M  V30 10277 C 970.429 4.33466 -0.92855 0
M  V30 10278 H 967.649 0.606508 -0.287035 0
M  V30 10279 H 970.193 1.48225 -1.40888 0
M  V30 10280 H 968.348 3.82814 -0.59434 0
M  V30 10281 H 968.762 4.49321 -2.70575 0
M  V30 10282 H 970.236 5.37836 -1.24245 0
M  V30 10283 H 970.713 4.38989 0.136016 0
M  V30 10284 H 971.319 3.98481 -1.48638 0
M  V30 10285 N 969.634 0.838594 1.33437 0
M  V30 10286 C 970.544 0.274048 2.32994 0
M  V30 10287 C 971.56 -0.599776 1.63336 0
M  V30 10288 O 972.736 -0.503963 1.94993 0
M  V30 10289 C 969.801 -0.541804 3.4244 0
M  V30 10290 C 968.862 0.356262 4.27819 0
M  V30 10291 C 968.095 -0.420747 5.32039 0
M  V30 10292 O 968.318 -1.65247 5.45939 0
M  V30 10293 O 967.252 0.205101 6.0155 0
M  V30 10294 H 971.078 1.09846 2.83139 0
M  V30 10295 H 968.663 0.601111 1.36774 0
M  V30 10296 H 970.545 -1.00544 4.0923 0
M  V30 10297 H 969.22 -1.34328 2.94513 0
M  V30 10298 H 968.127 0.867726 3.63897 0
M  V30 10299 H 969.46 1.1225 4.79229 0
M  V30 10300 N 971.112 -1.45937 0.595003 0
M  V30 10301 C 972.075 -2.2888 -0.121102 0
M  V30 10302 C 973.075 -1.39075 -0.807149 0
M  V30 10303 O 974.265 -1.61326 -0.657228 0
M  V30 10304 C 971.397 -3.19778 -1.1813 0
M  V30 10305 H 972.59 -2.93673 0.607968 0
M  V30 10306 H 970.143 -1.5225 0.353495 0
M  V30 10307 H 970.878 -2.59759 -1.94154 0
M  V30 10308 H 970.663 -3.85914 -0.693724 0
M  V30 10309 H 972.153 -3.82176 -1.68319 0
M  V30 10310 N 972.59 -0.333456 -1.54032 0
M  V30 10311 C 973.818 0.267813 -2.05159 0
M  V30 10312 C 974.233 1.4501 -1.20903 0
M  V30 10313 O 973.59 1.80888 -0.241994 0
M  V30 10314 C 973.641 0.69268 -3.54802 0
M  V30 10315 O 973.362 -0.442579 -4.35859 0
M  V30 10316 C 974.863 1.35572 -4.2206 0
M  V30 10317 H 972.083 0.0534924 -0.668864 0
M  V30 10318 H 974.627 -0.482515 -1.98726 0
M  V30 10319 H 972.782 1.39297 -3.6149 0
M  V30 10320 H 973.196 -0.105915 -5.24393 0
M  V30 10321 H 974.67 1.60385 -5.28186 0
M  V30 10322 H 975.147 2.30614 -3.73783 0
M  V30 10323 H 975.753 0.697748 -4.19537 0
M  V30 10324 N 974.068 1.57479 -0.061844 0
M  V30 10325 C 975.018 2.0867 0.918749 0
M  V30 10326 C 976.002 0.994174 1.26511 0
M  V30 10327 O 977.194 1.25738 1.24575 0
M  V30 10328 C 974.323 2.64386 2.18986 0
M  V30 10329 C 973.409 3.80626 1.87042 0
M  V30 10330 N 973.8 4.89982 1.25504 0
M  V30 10331 C 972.098 3.89733 2.1685 0
M  V30 10332 C 972.799 5.70928 1.11429 0
M  V30 10333 N 971.775 5.18877 1.62072 0
M  V30 10334 H 975.577 2.90611 0.438469 0
M  V30 10335 H 973.091 1.61775 0.142321 0
M  V30 10336 H 975.088 2.9937 2.90144 0
M  V30 10337 H 973.748 1.83888 2.67611 0
M  V30 10338 H 974.759 5.09556 0.925914 0
M  V30 10339 H 971.436 3.20194 2.67921 0
M  V30 10340 H 972.826 6.68886 0.635665 0
M  V30 10341 N 975.546 -0.211634 1.56173 0
M  V30 10342 C 976.792 -0.935935 1.79911 0
M  V30 10343 C 977.125 -1.83589 0.633155 0
M  V30 10344 O 976.4 -1.91004 -0.367132 0
M  V30 10345 C 976.683 -1.76638 3.13801 0
M  V30 10346 C 976.536 -0.892259 4.40861 0
M  V30 10347 C 977.855 -2.74224 3.44223 0
M  V30 10348 H 974.974 -0.338822 0.654499 0
M  V30 10349 H 977.616 -0.20422 1.88899 0
M  V30 10350 H 975.766 -2.39021 3.0627 0
M  V30 10351 H 977.438 -0.284407 4.60422 0
M  V30 10352 H 975.681 -0.198145 4.33347 0
M  V30 10353 H 976.352 -1.50793 5.31004 0
M  V30 10354 H 978.828 -2.21975 3.51946 0
M  V30 10355 H 977.704 -3.29424 4.39057 0
M  V30 10356 H 977.965 -3.52455 2.66885 0
M  V30 10357 N 977.024 -1.50153 -0.478725 0
M  V30 10358 C 978.27 -1.60998 -1.23318 0
M  V30 10359 C 978.603 -0.305868 -1.91776 0
M  V30 10360 O 977.878 0.692158 -1.81767 0
M  V30 10361 C 978.161 -2.78495 -2.28282 0
M  V30 10362 C 978.014 -4.18767 -1.64178 0
M  V30 10363 C 979.333 -2.91569 -3.2966 0
M  V30 10364 H 976.452 -0.585983 -0.446982 0
M  V30 10365 H 979.094 -1.82514 -0.528063 0
M  V30 10366 H 977.244 -2.60281 -2.8842 0
M  V30 10367 H 978.916 -4.48552 -1.07696 0
M  V30 10368 H 977.159 -4.23379 -0.94514 0
M  V30 10369 H 977.83 -4.96894 -2.40417 0
M  V30 10370 H 980.306 -3.08219 -2.79536 0
M  V30 10371 H 979.182 -3.75419 -4.0044 0
M  V30 10372 H 979.443 -2.01859 -3.93326 0
M  V30 10373 N 978.502 0.731368 -1.39602 0
M  V30 10374 C 979.727 1.52567 -1.40492 0
M  V30 10375 C 980.152 1.881 -0.00228828 0
M  V30 10376 O 979.51 1.52167 0.985643 0
M  V30 10377 C 979.558 2.78749 -2.2876 0
M  V30 10378 O 978.662 3.7482 -1.71999 0
M  V30 10379 H 978.003 0.460601 -0.478271 0
M  V30 10380 H 980.533 0.902042 -1.83642 0
M  V30 10381 H 980.543 3.27446 -2.43399 0
M  V30 10382 H 979.218 2.5222 -3.30693 0
M  V30 10383 H 977.795 3.33604 -1.66622 0
M  V30 10384 N 979.98 1.24838 0.961938 0
M  V30 10385 C 981.208 1.11871 1.74047 0
M  V30 10386 C 981.623 -0.328209 1.85925 0
M  V30 10387 O 980.98 -1.22616 1.35173 0
M  V30 10388 C 981.031 1.75931 3.15801 0
M  V30 10389 O 980.752 3.14967 3.04512 0
M  V30 10390 C 982.253 1.68649 4.09966 0
M  V30 10391 H 979.473 0.390569 0.545616 0
M  V30 10392 H 982.017 1.65058 1.20732 0
M  V30 10393 H 980.172 1.26733 3.66084 0
M  V30 10394 H 980.586 3.46349 3.93882 0
M  V30 10395 H 982.06 2.18144 5.07067 0
M  V30 10396 H 982.537 0.648831 4.34381 0
M  V30 10397 H 983.143 2.17301 3.65596 0
M  V30 10398 N 981.458 -1.16348 1.06306 0
M  V30 10399 C 982.707 -1.8622 0.774909 0
M  V30 10400 C 983.02 -1.82598 -0.701245 0
M  V30 10401 O 984.226 -2.48051 -1.10377 0
M  V30 10402 C 982.682 -3.34182 1.33604 0
M  V30 10403 C 982.29 -3.46279 2.84245 0
M  V30 10404 C 984.034 -4.09309 1.12544 0
M  V30 10405 C 981.941 -4.88327 3.33602 0
M  V30 10406 H 980.871 -0.697574 0.286194 0
M  V30 10407 H 983.522 -1.31311 1.28179 0
M  V30 10408 H 981.904 -3.88698 0.756937 0
M  V30 10409 H 983.078 -3.01923 3.48108 0
M  V30 10410 H 981.393 -2.84585 3.03974 0
M  V30 10411 H 983.99 -5.14123 1.46909 0
M  V30 10412 H 984.333 -4.16251 0.0638129 0
M  V30 10413 H 984.866 -3.61032 1.67034 0
M  V30 10414 H 981.605 -4.86565 4.39244 0
M  V30 10415 H 981.125 -5.33307 2.74487 0
M  V30 10416 H 982.804 -5.57144 3.28937 0
M  V30 10417 N 982.937 -0.845659 -1.3299 0
M  V30 10418 C 984.348 -0.50048 -1.79867 0
M  V30 10419 C 984.699 0.981027 -1.69913 0
M  V30 10420 O 983.824 1.76477 -1.25239 0
M  V30 10421 C 984.419 -0.901679 -3.26581 0
M  V30 10422 C 982.978 -0.608536 -3.71448 0
M  V30 10423 C 982.125 -1.10632 -2.54275 0
M  V30 10424 H 985.076 -1.03372 -1.20416 0
M  V30 10425 H 985.097 -0.214433 -3.79895 0
M  V30 10426 H 984.609 -1.97998 -3.33794 0
M  V30 10427 H 982.71 0.459416 -3.69757 0
M  V30 10428 H 982.823 -1.16853 -4.64631 0
M  V30 10429 H 981.187 -0.526925 -2.4919 0
M  V30 10430 H 981.97 -2.19154 -2.64247 0
M  V30 10431 N 984.415 1.45619 -0.602734 0
M  V30 10432 C 985.325 2.34288 0.120902 0
M  V30 10433 C 986.341 1.50952 0.865414 0
M  V30 10434 O 987.517 1.83768 0.824094 0
M  V30 10435 C 984.582 3.28489 1.10888 0
M  V30 10436 C 983.643 4.2773 0.366853 0
M  V30 10437 C 982.876 5.17429 1.30776 0
M  V30 10438 O 983.099 5.10459 2.54535 0
M  V30 10439 O 982.033 5.96459 0.807464 0
M  V30 10440 H 985.859 2.97559 -0.60765 0
M  V30 10441 H 983.444 1.44922 -0.363019 0
M  V30 10442 H 985.326 3.86549 1.67803 0
M  V30 10443 H 984.001 2.67789 1.81854 0
M  V30 10444 H 982.908 3.73299 -0.244643 0
M  V30 10445 H 984.241 4.91271 -0.302226 0
M  V30 10446 N 985.893 0.34162 1.53853 0
M  V30 10447 C 987.118 -0.259608 2.05769 0
M  V30 10448 C 987.543 -1.43588 1.21507 0
M  V30 10449 O 986.901 -1.79856 0.228364 0
M  V30 10450 C 986.949 -0.654455 3.54611 0
M  V30 10451 O 986.053 -1.75472 3.73207 0
M  V30 10452 H 985.394 -0.0434621 0.662576 0
M  V30 10453 H 987.924 0.495274 1.98515 0
M  V30 10454 H 987.934 -0.932142 3.97209 0
M  V30 10455 H 986.609 0.205779 4.15391 0
M  V30 10456 H 985.186 -1.47444 3.42512 0
M  V30 10457 N 987.371 -1.57444 0.0701946 0
M  V30 10458 C 988.301 -2.15659 -0.895176 0
M  V30 10459 C 989.282 -1.08321 -1.31151 0
M  V30 10460 O 990.467 -1.36349 -1.38284 0
M  V30 10461 C 987.597 -2.71693 -2.16334 0
M  V30 10462 C 986.551 -3.84183 -1.88645 0
M  V30 10463 C 985.877 -4.26814 -3.22078 0
M  V30 10464 C 987.177 -5.08493 -1.19299 0
M  V30 10465 H 988.871 -2.96576 -0.410217 0
M  V30 10466 H 986.417 -1.42662 -0.195872 0
M  V30 10467 H 988.37 -3.11064 -2.84284 0
M  V30 10468 H 987.094 -1.87994 -2.67069 0
M  V30 10469 H 985.753 -3.45314 -1.23101 0
M  V30 10470 H 985.401 -3.40039 -3.70651 0
M  V30 10471 H 985.101 -5.02642 -3.04344 0
M  V30 10472 H 986.625 -4.68799 -3.91228 0
M  V30 10473 H 988.039 -5.4519 -1.77316 0
M  V30 10474 H 986.436 -5.89588 -1.11828 0
M  V30 10475 H 987.506 -4.84595 -0.171839 0
M  V30 10476 N 988.849 0.203349 -1.56283 0
M  V30 10477 C 989.781 1.27592 -1.90402 0
M  V30 10478 C 990.794 1.4213 -0.79391 0
M  V30 10479 O 991.983 1.42703 -1.07229 0
M  V30 10480 C 989.083 2.64919 -2.11356 0
M  V30 10481 C 988.256 2.72095 -3.42466 0
M  V30 10482 C 987.315 3.9056 -3.52631 0
M  V30 10483 O 986.341 3.78048 -4.25521 0
M  V30 10484 N 987.543 5.0566 -2.85111 0
M  V30 10485 H 990.308 0.986423 -2.83001 0
M  V30 10486 H 987.869 0.39331 -1.5705 0
M  V30 10487 H 989.861 3.42581 -2.15453 0
M  V30 10488 H 988.431 2.86391 -1.25295 0
M  V30 10489 H 987.651 1.8077 -3.50308 0
M  V30 10490 H 988.939 2.73874 -4.28801 0
M  V30 10491 H 988.337 5.18723 -2.25705 0
M  V30 10492 H 986.894 5.81299 -2.94847 0
M  V30 10493 O 990.366 1.57692 0.348646 0
M  V30 10494 H 991.057 1.65979 0.998527 0
M  V30 END ATOM
M  V30 BEGIN BOND
M  V30 END BOND
M  V30 END CTAB
M  END
$$$$
