drugbank_target|P18847 Cyclic AMP-dependent transcription factor ATF-3 (DB00852)
 OpenBabel12092121013D

  0  0  0     0  0            999 V3000
M  V30 BEGIN CTAB
M  V30 COUNTS 2915 2934 0 0 0
M  V30 BEGIN ATOM
M  V30 1 H -0.908 1.98254 -0.117106 0
M  V30 2 N 0 1.576 0 0
M  V30 3 C 0.933 2.03868 1.02534 0
M  V30 4 C 1.911 0.928543 1.3348 0
M  V30 5 O 3.095 1.19667 1.45644 0
M  V30 6 C 0.222 2.43627 2.35294 0
M  V30 7 C -0.732 3.65373 2.2001 0
M  V30 8 S 0.101 5.13292 1.52614 0
M  V30 9 C 1.257 5.56322 2.86805 0
M  V30 10 H 1.49 2.90518 0.631377 0
M  V30 11 H -0.977 1.52953 0.210867 0
M  V30 12 H 0.981 2.67203 3.11629 0
M  V30 13 H -0.358 1.57376 2.7183 0
M  V30 14 H -1.165 3.90944 3.18086 0
M  V30 15 H -1.563 3.418 1.51819 0
M  V30 16 H 0.729 5.58782 3.83104 0
M  V30 17 H 1.672 6.56266 2.65933 0
M  V30 18 H 2.08 4.83886 2.90714 0
M  V30 19 N 1.4781 -0.272755 1.55222 0
M  V30 20 C 2.4111 -1.3627 1.83046 0
M  V30 21 C 3.3891 -1.47536 0.683521 0
M  V30 22 O 4.5731 -1.64157 0.926545 0
M  V30 23 C 1.7001 -2.73908 1.99229 0
M  V30 24 C 0.7461 -2.79925 3.21783 0
M  V30 25 S 1.5791 -2.39146 4.79134 0
M  V30 26 C 2.7351 -3.78758 4.9829 0
M  V30 27 H 2.9681 -1.12464 2.75207 0
M  V30 28 H 0.5011 -0.472398 1.46996 0
M  V30 29 H 2.4591 -3.53171 2.09238 0
M  V30 30 H 1.1201 -2.94965 1.07956 0
M  V30 31 H 0.3131 -3.80946 3.29994 0
M  V30 32 H -0.0849 -2.08683 3.10367 0
M  V30 33 H 2.2071 -4.7403 4.84047 0
M  V30 34 H 3.1501 -3.75499 6.00338 0
M  V30 35 H 3.5581 -3.70072 4.26271 0
M  V30 36 N 2.9562 -1.48159 -0.537278 0
M  V30 37 C 3.8862 -1.65029 -1.6519 0
M  V30 38 C 4.8672 -0.499281 -1.62607 0
M  V30 39 O 6.0522 -0.730972 -1.79918 0
M  V30 40 C 3.1822 -1.68303 -3.03795 0
M  V30 41 C 2.1362 -2.8283 -3.21234 0
M  V30 42 C 1.4622 -2.71189 -4.60826 0
M  V30 43 C 2.7622 -4.24211 -3.04701 0
M  V30 44 H 4.4562 -2.58341 -1.51328 0
M  V30 45 H 2.0022 -1.24325 -0.726585 0
M  V30 46 H 3.9552 -1.78693 -3.81637 0
M  V30 47 H 2.6792 -0.715635 -3.18663 0
M  V30 48 H 1.3382 -2.71983 -2.45807 0
M  V30 49 H 0.9862 -1.72435 -4.7252 0
M  V30 50 H 0.6862 -3.48035 -4.7344 0
M  V30 51 H 2.2102 -2.83537 -5.40777 0
M  V30 52 H 3.6242 -4.3593 -3.72341 0
M  V30 53 H 2.0212 -5.01998 -3.28813 0
M  V30 54 H 3.0912 -4.41184 -2.01209 0
M  V30 55 N 4.4343 0.785586 -1.36625 0
M  V30 56 C 5.3663 1.90711 -1.2713 0
M  V30 57 C 6.3793 1.61688 -0.189986 0
M  V30 58 O 7.5683 1.72864 -0.445014 0
M  V30 59 C 4.6683 3.25611 -0.939713 0
M  V30 60 C 3.8413 3.82385 -2.12369 0
M  V30 61 C 2.9003 4.95732 -1.76456 0
M  V30 62 O 1.9263 5.12047 -2.48589 0
M  V30 63 N 3.1283 5.76258 -0.700492 0
M  V30 64 H 5.8933 1.99376 -2.23762 0
M  V30 65 H 3.4543 0.964041 -1.30069 0
M  V30 66 H 5.4463 3.98937 -0.680554 0
M  V30 67 H 4.0163 3.12538 -0.0624074 0
M  V30 68 H 3.2363 3.01001 -2.54543 0
M  V30 69 H 4.5243 4.17047 -2.9146 0
M  V30 70 H 3.9223 5.65609 -0.101624 0
M  V30 71 H 2.4793 6.4987 -0.501165 0
M  V30 72 N 5.9124 1.20967 1.01018 0
M  V30 73 C 6.8624 0.93182 2.08089 0
M  V30 74 C 7.8464 -0.110898 1.60517 0
M  V30 75 O 9.0384 0.0973392 1.76732 0
M  V30 76 C 6.1674 0.492719 3.39746 0
M  V30 77 C 5.2534 1.56922 3.94 0
M  V30 78 N 5.6444 2.79312 4.21686 0
M  V30 79 C 3.9424 1.43688 4.2222 0
M  V30 80 C 4.6434 3.48797 4.65527 0
M  V30 81 N 3.6194 2.76224 4.68189 0
M  V30 82 H 7.4214 1.86175 2.27412 0
M  V30 83 H 4.9354 1.10463 1.19045 0
M  V30 84 H 6.9324 0.275044 4.15992 0
M  V30 85 H 5.5924 -0.430509 3.21833 0
M  V30 86 H 6.6034 3.15903 4.10397 0
M  V30 87 H 3.2804 0.578548 4.13472 0
M  V30 88 H 4.6704 4.53561 4.95714 0
M  V30 89 N 7.3905 -1.2043 1.01659 0
M  V30 90 C 8.8015 -1.71517 0.737482 0
M  V30 91 C 9.1525 -1.81547 -0.743973 0
M  V30 92 O 8.2775 -1.47803 -1.58061 0
M  V30 93 C 8.8725 -3.11515 1.33206 0
M  V30 94 C 7.4315 -3.59912 1.10183 0
M  V30 95 C 6.5785 -2.37116 1.43776 0
M  V30 96 H 9.5295 -1.05444 1.18606 0
M  V30 97 H 9.5505 -3.73575 0.722636 0
M  V30 98 H 9.0625 -3.04182 2.41028 0
M  V30 99 H 7.1635 -3.72577 0.0412756 0
M  V30 100 H 7.2765 -4.44731 1.78188 0
M  V30 101 H 5.6405 -2.39857 0.856778 0
M  V30 102 H 6.4235 -2.32424 2.52654 0
M  V30 103 N 8.8686 -0.792821 -1.36206 0
M  V30 104 C 10.1166 -0.366062 -1.98757 0
M  V30 105 C 10.4376 1.0668 -1.63231 0
M  V30 106 O 9.7076 1.73587 -0.907978 0
M  V30 107 H 8.2876 -0.132364 -0.735179 0
M  V30 108 H 10.9496 -1.01562 -1.66347 0
M  V30 109 H 10.0456 -0.460638 -3.08682 0
M  V30 110 N 10.3467 1.47872 -0.545128 0
M  V30 111 C 11.2787 2.27869 0.246621 0
M  V30 112 C 12.2917 1.36282 0.890561 0
M  V30 113 O 13.4807 1.61207 0.766449 0
M  V30 114 C 10.5807 3.10159 1.36582 0
M  V30 115 C 9.7537 4.29627 0.820954 0
M  V30 116 C 8.8127 4.93607 1.82314 0
M  V30 117 O 7.8387 5.52366 1.37406 0
M  V30 118 N 9.0407 4.87211 3.15603 0
M  V30 119 H 11.8057 2.96459 -0.439539 0
M  V30 120 H 9.3667 1.57367 -0.380421 0
M  V30 121 H 11.3587 3.49829 2.03474 0
M  V30 122 H 9.9287 2.43891 1.9554 0
M  V30 123 H 9.1487 3.94192 -0.0244032 0
M  V30 124 H 10.4367 5.06928 0.436063 0
M  V30 125 H 9.8347 4.40651 3.54744 0
M  V30 126 H 8.3917 5.30937 3.78087 0
M  V30 127 N 11.8248 0.280983 1.55075 0
M  V30 128 C 13.0708 -0.33461 2.00021 0
M  V30 129 C 13.4038 -1.55063 1.16915 0
M  V30 130 O 12.6788 -1.93006 0.240646 0
M  V30 131 C 12.9618 -0.711007 3.53011 0
M  V30 132 C 12.8148 0.512766 4.46868 0
M  V30 133 C 14.1338 -1.54522 4.12081 0
M  V30 134 H 11.2528 -0.120147 0.727141 0
M  V30 135 H 13.8948 0.389097 1.85973 0
M  V30 136 H 12.0448 -1.32761 3.65112 0
M  V30 137 H 13.7168 1.15131 4.46702 0
M  V30 138 H 11.9598 1.14975 4.18286 0
M  V30 139 H 12.6308 0.205556 5.51617 0
M  V30 140 H 15.1068 -1.02442 4.03293 0
M  V30 141 H 13.9828 -1.77739 5.19327 0
M  V30 142 H 14.2438 -2.52813 3.62682 0
M  V30 143 N 13.3029 -1.57598 0.00835791 0
M  V30 144 C 14.5279 -1.95617 -0.689103 0
M  V30 145 C 14.9529 -0.883753 -1.66046 0
M  V30 146 O 14.3109 0.157352 -1.80616 0
M  V30 147 C 14.3589 -3.32736 -1.38994 0
M  V30 148 O 13.4629 -3.27631 -2.50463 0
M  V30 149 H 12.8039 -0.638379 -0.182668 0
M  V30 150 H 15.3339 -2.045 0.064036 0
M  V30 151 H 15.3439 -3.68494 -1.75147 0
M  V30 152 H 14.0189 -4.1034 -0.677778 0
M  V30 153 H 12.5959 -3.03561 -2.16576 0
M  V30 154 N 14.781 0.264519 -1.55364 0
M  V30 155 C 15.744 1.31046 -1.88042 0
M  V30 156 C 16.744 1.41943 -0.755569 0
M  V30 157 O 17.934 1.40947 -1.02369 0
M  V30 158 C 15.066 2.69067 -2.09323 0
M  V30 159 H 16.259 1.03297 -2.81549 0
M  V30 160 H 13.812 0.502989 -1.47986 0
M  V30 161 H 14.547 3.01982 -1.18226 0
M  V30 162 H 14.332 2.62542 -2.91229 0
M  V30 163 H 15.822 3.44623 -2.35848 0
M  V30 164 N 16.2591 1.48442 0.529413 0
M  V30 165 C 17.4841 1.60406 1.31471 0
M  V30 166 C 17.9091 0.264738 1.86228 0
M  V30 167 O 17.2671 -0.763668 1.64432 0
M  V30 168 C 17.3151 2.65419 2.44101 0
M  V30 169 O 16.4191 2.22618 3.47153 0
M  V30 170 H 15.7601 0.537863 0.389357 0
M  V30 171 H 18.2901 1.94432 0.636965 0
M  V30 172 H 18.3001 2.86709 2.90279 0
M  V30 173 H 16.9751 3.62652 2.03608 0
M  V30 174 H 15.5521 2.11543 3.0709 0
M  V30 175 N 17.7372 -0.778329 1.37039 0
M  V30 176 C 18.6472 -1.92253 1.34446 0
M  V30 177 C 19.6632 -1.72267 0.244991 0
M  V30 178 O 20.8392 -1.95615 0.479258 0
M  V30 179 C 17.9042 -3.27282 1.144 0
M  V30 180 C 16.9652 -3.59969 2.33925 0
M  V30 181 C 16.1982 -4.88555 2.14825 0
M  V30 182 O 16.4212 -5.59113 1.12912 0
M  V30 183 O 15.3552 -5.20153 3.02861 0
M  V30 184 H 19.1812 -1.97392 2.30803 0
M  V30 185 H 16.7662 -0.920154 1.17701 0
M  V30 186 H 18.6482 -4.08062 1.05182 0
M  V30 187 H 17.3232 -3.23011 0.211124 0
M  V30 188 H 16.2302 -2.7945 2.48714 0
M  V30 189 H 17.5632 -3.68976 3.25757 0
M  V30 190 N 19.2153 -1.21501 -1.00376 0
M  V30 191 C 20.4613 -1.03452 -1.74429 0
M  V30 192 C 20.7943 0.430764 -1.89362 0
M  V30 193 O 20.0693 1.31962 -1.42886 0
M  V30 194 C 20.3523 -1.73375 -3.15615 0
M  V30 195 C 20.2053 -3.27431 -3.08397 0
M  V30 196 C 21.5243 -1.47732 -4.14564 0
M  V30 197 H 18.6433 -0.377226 -0.633143 0
M  V30 198 H 21.2853 -1.49693 -1.17013 0
M  V30 199 H 19.4353 -1.34064 -3.64636 0
M  V30 200 H 21.1073 -3.76119 -2.67081 0
M  V30 201 H 19.3503 -3.5767 -2.45468 0
M  V30 202 H 20.0213 -3.71524 -4.08258 0
M  V30 203 H 22.4973 -1.8186 -3.74254 0
M  V30 204 H 21.3733 -1.99169 -5.11491 0
M  V30 205 H 21.6343 -0.407589 -4.40217 0
M  V30 206 N 20.6934 1.19889 -1.02296 0
M  V30 207 C 21.9184 1.9393 -0.735237 0
M  V30 208 C 22.3434 1.74639 0.698782 0
M  V30 209 O 21.7014 1.04481 1.48167 0
M  V30 210 C 21.7494 3.43916 -1.08417 0
M  V30 211 O 20.8534 4.11917 -0.199446 0
M  V30 212 H 20.1944 0.605645 -0.272196 0
M  V30 213 H 22.7244 1.52137 -1.36804 0
M  V30 214 H 22.7344 3.9456 -1.03856 0
M  V30 215 H 21.4094 3.5728 -2.12894 0
M  V30 216 H 19.9864 3.71666 -0.303136 0
M  V30 217 N 22.1715 0.800033 1.35784 0
M  V30 218 C 23.1345 0.211565 2.28221 0
M  V30 219 C 24.1345 -0.59728 1.49296 0
M  V30 220 O 25.3245 -0.416721 1.69142 0
M  V30 221 C 22.4565 -0.705846 3.33513 0
M  V30 222 H 23.6495 1.02677 2.81776 0
M  V30 223 H 21.2025 0.570211 1.45528 0
M  V30 224 H 21.9375 -1.54498 2.85133 0
M  V30 225 H 21.7225 -0.127655 3.91892 0
M  V30 226 H 23.2125 -1.11211 4.02519 0
M  V30 227 N 23.6496 -1.47581 0.552962 0
M  V30 228 C 24.8746 -2.07378 0.0300593 0
M  V30 229 C 25.2996 -1.40355 -1.25229 0
M  V30 230 O 24.6576 -0.477099 -1.7491 0
M  V30 231 C 24.7056 -3.60274 -0.153231 0
M  V30 232 O 23.8096 -3.94041 -1.21678 0
M  V30 233 H 23.1506 -0.662158 0.0494182 0
M  V30 234 H 25.6806 -1.89662 0.767434 0
M  V30 235 H 25.6906 -4.0633 -0.368761 0
M  V30 236 H 24.3656 -4.08455 0.783397 0
M  V30 237 H 22.9426 -3.59735 -0.982079 0
M  V30 238 N 25.1277 -0.289203 -1.54924 0
M  V30 239 C 26.0907 0.579144 -2.21762 0
M  V30 240 C 27.0907 1.07047 -1.1999 0
M  V30 241 O 28.2807 0.968384 -1.44803 0
M  V30 242 C 25.4127 1.80055 -2.8947 0
M  V30 243 H 26.6057 -0.00464908 -2.999 0
M  V30 244 H 24.1587 -0.0399306 -1.56249 0
M  V30 245 H 24.8937 2.42449 -2.15381 0
M  V30 246 H 24.6787 1.45602 -3.64064 0
M  V30 247 H 26.1687 2.41773 -3.40493 0
M  V30 248 N 26.6058 1.57591 -0.0167156 0
M  V30 249 C 27.8548 1.90461 0.663877 0
M  V30 250 C 28.1678 0.893515 1.73999 0
M  V30 251 O 29.3738 1.11302 2.47637 0
M  V30 252 C 27.8298 3.38155 1.23204 0
M  V30 253 C 27.4378 4.47597 0.189866 0
M  V30 254 C 29.1818 3.80111 1.88986 0
M  V30 255 C 27.0888 5.86379 0.768964 0
M  V30 256 H 26.0188 0.710738 0.251729 0
M  V30 257 H 28.6698 1.83326 -0.0799926 0
M  V30 258 H 27.0518 3.40182 2.02712 0
M  V30 259 H 28.2258 4.57112 -0.581846 0
M  V30 260 H 26.5408 4.14766 -0.368475 0
M  V30 261 H 29.1378 4.81145 2.33247 0
M  V30 262 H 29.4808 3.14511 2.72743 0
M  V30 263 H 30.0138 3.80454 1.16187 0
M  V30 264 H 26.7528 6.55493 -0.0301957 0
M  V30 265 H 26.2728 5.80496 1.50945 0
M  V30 266 H 27.9518 6.34563 1.26251 0
M  V30 267 N 28.0839 -0.256276 1.55502 0
M  V30 268 C 29.3299 -0.987079 1.77157 0
M  V30 269 C 29.6629 -1.85327 0.580315 0
M  V30 270 O 28.9379 -1.89874 -0.421686 0
M  V30 271 C 29.2209 -1.85553 3.08613 0
M  V30 272 C 29.0739 -1.01816 4.38125 0
M  V30 273 C 30.3929 -2.8397 3.36228 0
M  V30 274 H 27.5119 -0.357428 0.644526 0
M  V30 275 H 30.1539 -0.258239 1.88237 0
M  V30 276 H 28.3039 -2.47695 2.99298 0
M  V30 277 H 29.9759 -0.416159 4.59419 0
M  V30 278 H 28.2189 -0.322178 4.32602 0
M  V30 279 H 28.8899 -1.65939 5.26468 0
M  V30 280 H 31.3659 -2.31964 3.45445 0
M  V30 281 H 30.2419 -3.41864 4.29442 0
M  V30 282 H 30.5029 -3.59955 2.56681 0
M  V30 283 N 29.562 -1.4872 -0.521534 0
M  V30 284 C 30.973 -1.50607 -1.10337 0
M  V30 285 C 31.324 -0.280612 -1.94183 0
M  V30 286 O 30.449 0.611507 -2.0758 0
M  V30 287 C 31.044 -2.72903 -2.00772 0
M  V30 288 C 29.603 -2.77634 -2.54158 0
M  V30 289 C 28.75 -2.44241 -1.31307 0
M  V30 290 H 31.701 -1.55714 -0.306388 0
M  V30 291 H 31.722 -2.519 -2.85178 0
M  V30 292 H 31.234 -3.62077 -1.39721 0
M  V30 293 H 29.335 -1.92689 -3.18907 0
M  V30 294 H 29.448 -3.79283 -2.92714 0
M  V30 295 H 27.812 -1.95577 -1.63161 0
M  V30 296 H 28.595 -3.35666 -0.719943 0
M  V30 297 N 31.0401 0.771051 -1.3745 0
M  V30 298 C 32.2801 1.54264 -1.34096 0
M  V30 299 C 32.6441 1.91858 0.0737639 0
M  V30 300 O 33.8451 2.67797 0.23203 0
M  V30 301 C 32.1161 2.77326 -2.25445 0
M  V30 302 S 33.6751 3.67383 -2.39948 0
M  V30 303 H 30.4931 0.528122 -0.476034 0
M  V30 304 H 33.0951 0.906633 -1.73206 0
M  V30 305 H 31.7991 2.47788 -3.27153 0
M  V30 306 H 31.3301 3.45886 -1.87421 0
M  V30 307 H 33.3451 4.69334 -1.61059 0
M  V30 308 N 32.5182 1.22032 0.997298 0
M  V30 309 C 33.4482 1.01065 2.10495 0
M  V30 310 C 34.4292 -0.0669542 1.69968 0
M  V30 311 O 35.6142 0.0943987 1.9397 0
M  V30 312 C 32.7442 0.582874 3.42374 0
M  V30 313 C 31.6982 1.60592 3.96729 0
M  V30 314 C 31.0242 1.03412 5.24605 0
M  V30 315 C 32.3242 2.99478 4.27914 0
M  V30 316 H 34.0182 1.93708 2.28292 0
M  V30 317 H 31.5642 0.932761 1.09707 0
M  V30 318 H 33.5172 0.423332 4.19268 0
M  V30 319 H 32.2412 -0.379213 3.24391 0
M  V30 320 H 30.9002 1.75316 3.21963 0
M  V30 321 H 30.5482 0.063518 5.0296 0
M  V30 322 H 30.2482 1.71754 5.61938 0
M  V30 323 H 31.7722 0.886066 6.04137 0
M  V30 324 H 33.1862 2.88153 4.95622 0
M  V30 325 H 31.5832 3.64903 4.76409 0
M  V30 326 H 32.6532 3.49742 3.3587 0
M  V30 327 N 33.9963 -1.19345 1.0293 0
M  V30 328 C 35.2213 -1.93538 0.745511 0
M  V30 329 C 35.6463 -1.75007 -0.689511 0
M  V30 330 O 35.0043 -1.05265 -1.47611 0
M  V30 331 C 35.0523 -3.43336 1.10239 0
M  V30 332 O 34.1563 -4.11806 0.221289 0
M  V30 333 H 33.4973 -0.604193 0.275404 0
M  V30 334 H 36.0273 -1.5141 1.37609 0
M  V30 335 H 36.0373 -3.94004 1.05947 0
M  V30 336 H 34.7123 -3.56146 2.14786 0
M  V30 337 H 33.2893 -3.715 0.322842 0
M  V30 338 N 35.4744 -0.807222 -1.35358 0
M  V30 339 C 36.8854 -0.44876 -1.81226 0
M  V30 340 C 37.2364 1.02929 -1.67033 0
M  V30 341 O 36.3614 1.79991 -1.20133 0
M  V30 342 C 36.9564 -0.807774 -3.2903 0
M  V30 343 C 35.5154 -0.501901 -3.73039 0
M  V30 344 C 34.6624 -1.03304 -2.57339 0
M  V30 345 H 37.6134 -0.998808 -1.23327 0
M  V30 346 H 37.6344 -0.10554 -3.80354 0
M  V30 347 H 37.1464 -1.88357 -3.39328 0
M  V30 348 H 35.2474 0.565128 -3.68289 0
M  V30 349 H 35.3604 -1.03497 -4.67787 0
M  V30 350 H 33.7244 -0.455339 -2.50597 0
M  V30 351 H 34.5074 -2.11496 -2.70415 0
M  V30 352 N 36.9525 1.47285 -0.560781 0
M  V30 353 C 38.3635 1.86258 -0.128343 0
M  V30 354 C 38.7145 1.46699 1.30284 0
M  V30 355 O 37.8395 0.871698 1.98067 0
M  V30 356 C 38.4345 3.38044 -0.22614 0
M  V30 357 C 36.9935 3.76096 0.151283 0
M  V30 358 C 36.1405 2.71335 -0.572084 0
M  V30 359 H 39.0915 1.38752 -0.770297 0
M  V30 360 H 39.1125 3.76441 0.554322 0
M  V30 361 H 38.6245 3.66806 -1.26788 0
M  V30 362 H 36.7255 3.52951 1.19399 0
M  V30 363 H 36.8385 4.78641 -0.209765 0
M  V30 364 H 35.2025 2.54696 -0.0147653 0
M  V30 365 H 35.9855 3.02938 -1.61504 0
M  V30 366 N 38.4306 0.297415 1.54768 0
M  V30 367 C 39.6786 -0.312295 1.99673 0
M  V30 368 C 39.9996 -1.54686 1.18732 0
M  V30 369 O 39.2696 -1.93854 0.282382 0
M  V30 370 H 37.8496 -0.118381 0.73756 0
M  V30 371 H 40.5116 0.407915 1.90583 0
M  V30 372 H 39.6076 -0.586813 3.06534 0
M  V30 373 N 39.9087 -1.5758 0.0250728 0
M  V30 374 C 41.1337 -1.96337 -0.668317 0
M  V30 375 C 41.5587 -0.901314 -1.651 0
M  V30 376 O 40.9167 0.138187 -1.80773 0
M  V30 377 C 40.9647 -3.34191 -1.35457 0
M  V30 378 O 40.0687 -3.30269 -2.46974 0
M  V30 379 H 39.4097 -0.640281 -0.175887 0
M  V30 380 H 41.9397 -2.0442 0.0857224 0
M  V30 381 H 41.9497 -3.70331 -1.71228 0
M  V30 382 H 40.6247 -4.11036 -0.634218 0
M  V30 383 H 39.2017 -3.05841 -2.13344 0
M  V30 384 N 41.3868 0.248026 -1.55636 0
M  V30 385 C 42.3168 1.31079 -1.93237 0
M  V30 386 C 43.2978 1.50264 -0.797174 0
M  V30 387 O 44.4828 1.62891 -1.05737 0
M  V30 388 C 41.6128 2.66575 -2.22609 0
M  V30 389 C 40.5668 2.62087 -3.3837 0
M  V30 390 C 39.8928 4.01369 -3.53281 0
M  V30 391 C 41.1928 2.19171 -4.7409 0
M  V30 392 H 42.8868 0.998556 -2.82257 0
M  V30 393 H 40.4328 0.47891 -1.35803 0
M  V30 394 H 42.3858 3.41057 -2.47503 0
M  V30 395 H 41.1098 2.99432 -1.30414 0
M  V30 396 H 39.7688 1.90063 -3.13483 0
M  V30 397 H 39.4168 4.31489 -2.58508 0
M  V30 398 H 39.1168 3.99254 -4.31127 0
M  V30 399 H 40.6408 4.77552 -3.80495 0
M  V30 400 H 42.0548 2.83384 -4.98363 0
M  V30 401 H 40.4518 2.2817 -5.5503 0
M  V30 402 H 41.5218 1.14336 -4.71227 0
M  V30 403 N 42.8649 1.48995 0.513639 0
M  V30 404 C 44.1109 1.58076 1.27042 0
M  V30 405 C 44.4439 0.261026 1.92438 0
M  V30 406 O 43.7189 -0.734393 1.80103 0
M  V30 407 C 44.0019 2.73091 2.34719 0
M  V30 408 C 43.8549 4.14821 1.73907 0
M  V30 409 C 45.1739 2.83796 3.36375 0
M  V30 410 H 42.2929 0.575391 0.460536 0
M  V30 411 H 44.9349 1.81232 0.570516 0
M  V30 412 H 43.0849 2.53479 2.94416 0
M  V30 413 H 44.7569 4.45917 1.18135 0
M  V30 414 H 42.9999 4.21058 1.0437 0
M  V30 415 H 43.6709 4.91147 2.51949 0
M  V30 416 H 46.1469 3.01611 2.86653 0
M  V30 417 H 45.0229 3.65971 4.09093 0
M  V30 418 H 45.2839 1.92624 3.9793 0
M  V30 419 N 44.343 -0.763751 1.37857 0
M  V30 420 C 45.59 -1.52257 1.33506 0
M  V30 421 C 45.918 -1.94343 -0.078022 0
M  V30 422 O 45.173 -1.64958 -1.05297 0
M  V30 423 C 45.472 -2.79499 2.22745 0
M  V30 424 C 45.138 -2.56426 3.70886 0
M  V30 425 C 43.8 -2.49842 4.11257 0
M  V30 426 C 46.152 -2.36008 4.64704 0
M  V30 427 C 43.48 -2.20841 5.43549 0
M  V30 428 C 45.832 -2.0853 5.97242 0
M  V30 429 C 44.496 -2.00396 6.36709 0
M  V30 430 H 43.766 -0.557149 0.488534 0
M  V30 431 H 46.413 -0.879073 1.70131 0
M  V30 432 H 44.718 -3.48447 1.79142 0
M  V30 433 H 46.415 -3.37413 2.16688 0
M  V30 434 H 43.005 -2.62416 3.38874 0
M  V30 435 H 47.189 -2.40079 4.34368 0
M  V30 436 H 42.445 -2.13045 5.73081 0
M  V30 437 H 46.619 -1.91732 6.69486 0
M  V30 438 H 44.246 -1.77688 7.39142 0
M  V30 439 N 45.8211 -1.22559 -0.990812 0
M  V30 440 C 46.7311 -1.01394 -2.11557 0
M  V30 441 C 47.7471 0.0383962 -1.73958 0
M  V30 442 O 48.9231 -0.154787 -2.00804 0
M  V30 443 C 45.9881 -0.596569 -3.41529 0
M  V30 444 C 45.0491 -1.72276 -3.93217 0
M  V30 445 C 44.2821 -1.32521 -5.16985 0
M  V30 446 O 44.5051 -0.204909 -5.70032 0
M  V30 447 O 43.4391 -2.14247 -5.62478 0
M  V30 448 H 47.2651 -1.95633 -2.32296 0
M  V30 449 H 44.8501 -1.01172 -1.0993 0
M  V30 450 H 46.7321 -0.374263 -4.19735 0
M  V30 451 H 45.4071 0.316939 -3.22145 0
M  V30 452 H 44.3141 -1.99961 -3.16174 0
M  V30 453 H 45.6471 -2.61421 -4.17037 0
M  V30 454 N 47.2992 1.18797 -1.03562 0
M  V30 455 C 48.5762 1.84469 -0.650434 0
M  V30 456 C 48.9562 1.92319 0.870433 0
M  V30 457 O 48.3042 1.44528 1.76986 0
M  V30 458 C 48.5142 3.2306 -1.32036 0
M  V30 459 C 49.8622 3.9915 -1.44792 0
M  V30 460 O 50.8862 3.32481 -1.27806 0
M  V30 461 O 49.7452 5.18587 -1.72423 0
M  V30 462 H 46.8392 0.795251 -0.226946 0
M  V30 463 H 49.3852 1.26231 -1.13419 0
M  V30 464 H 48.1572 3.1222 -2.3587 0
M  V30 465 H 47.7802 3.88949 -0.8249 0
M  V30 466 N 48.7773 0.814389 1.34928 0
M  V30 467 C 50.0243 0.398423 1.98542 0
M  V30 468 C 50.3523 -1.03638 1.64589 0
M  V30 469 O 49.6073 -1.73509 0.90516 0
M  V30 470 C 49.9063 0.537781 3.53331 0
M  V30 471 C 49.5723 1.93704 4.07172 0
M  V30 472 C 48.2343 2.31984 4.21589 0
M  V30 473 C 50.5863 2.85213 4.36237 0
M  V30 474 C 47.9143 3.61125 4.62391 0
M  V30 475 C 50.2663 4.13809 4.78482 0
M  V30 476 C 48.9303 4.52077 4.91104 0
M  V30 477 H 48.2003 0.145793 0.726516 0
M  V30 478 H 50.8473 1.03669 1.61012 0
M  V30 479 H 49.1523 -0.183906 3.91368 0
M  V30 480 H 50.8493 0.196588 4.00518 0
M  V30 481 H 47.4393 1.62966 3.96409 0
M  V30 482 H 51.6233 2.56885 4.24645 0
M  V30 483 H 46.8793 3.90612 4.70353 0
M  V30 484 H 51.0533 4.84811 4.99932 0
M  V30 485 H 48.6803 5.52196 5.22478 0
M  V30 486 N 50.2554 -1.46986 0.568584 0
M  V30 487 C 51.2184 -2.28624 -0.162366 0
M  V30 488 C 52.2184 -1.37596 -0.832103 0
M  V30 489 O 53.4084 -1.60115 -0.68622 0
M  V30 490 C 50.5404 -3.17596 -1.23878 0
M  V30 491 H 51.7334 -2.94722 0.554899 0
M  V30 492 H 49.2864 -1.52863 0.325976 0
M  V30 493 H 50.0214 -2.56214 -1.98808 0
M  V30 494 H 49.8064 -3.846 -0.763219 0
M  V30 495 H 51.2964 -3.79078 -1.75185 0
M  V30 496 N 51.7335 -0.305618 -1.54608 0
M  V30 497 C 52.6815 0.584119 -2.25146 0
M  V30 498 C 53.6755 1.13326 -1.25911 0
M  V30 499 O 54.8815 1.08337 -1.43747 0
M  V30 500 H 51.2565 0.206983 -0.722954 0
M  V30 501 H 53.2275 -0.033291 -2.98381 0
M  V30 502 C 51.9765 1.74225 -3.009 0
M  V30 503 H 51.2995 1.32892 -3.77067 0
M  V30 504 H 52.7395 2.34077 -3.53531 0
M  V30 505 C 51.1985 2.64914 -2.0814 0
M  V30 506 O 51.7285 3.66137 -1.65246 0
M  V30 507 N 49.9345 2.3275 -1.74 0
M  V30 508 H 49.4815 1.50479 -2.09078 0
M  V30 509 H 49.4395 2.93694 -1.12211 0
M  V30 510 N 53.2116 1.57565 -0.0334293 0
M  V30 511 C 54.1416 2.13511 0.945265 0
M  V30 512 C 55.1226 1.05231 1.33643 0
M  V30 513 O 56.3076 1.33084 1.41429 0
M  V30 514 C 53.4376 2.6657 2.22616 0
M  V30 515 C 52.3916 3.79676 1.97561 0
M  V30 516 C 51.7176 4.1918 3.31952 0
M  V30 517 C 53.0176 5.0557 1.31135 0
M  V30 518 H 54.7116 2.95538 0.479325 0
M  V30 519 H 52.2576 1.42166 0.229115 0
M  V30 520 H 54.2106 3.04344 2.91466 0
M  V30 521 H 52.9346 1.8171 2.71384 0
M  V30 522 H 51.5936 3.42347 1.31127 0
M  V30 523 H 51.2416 3.31296 3.78487 0
M  V30 524 H 50.9416 4.95402 3.15992 0
M  V30 525 H 52.4656 4.59541 4.02063 0
M  V30 526 H 53.8796 5.40903 1.89992 0
M  V30 527 H 52.2766 5.86818 1.25559 0
M  V30 528 H 53.3466 4.84062 0.284894 0
M  V30 529 N 54.6897 -0.239769 1.55765 0
M  V30 530 C 55.9177 -0.98417 1.81994 0
M  V30 531 C 56.3327 -1.7867 0.610124 0
M  V30 532 O 55.6897 -1.77571 -0.421271 0
M  V30 533 C 55.7407 -1.91635 3.06526 0
M  V30 534 O 55.4617 -1.14629 4.22838 0
M  V30 535 C 56.9627 -2.77616 3.45607 0
M  V30 536 H 54.1827 -0.28928 0.605441 0
M  V30 537 H 56.7267 -0.260499 2.02834 0
M  V30 538 H 54.8817 -2.5942 2.87715 0
M  V30 539 H 55.2957 -1.77745 4.93464 0
M  V30 540 H 56.7697 -3.38759 4.35828 0
M  V30 541 H 57.2467 -3.4909 2.6652 0
M  V30 542 H 57.8527 -2.15271 3.66795 0
M  V30 543 N 56.1678 -1.49265 -0.50573 0
M  V30 544 C 57.5788 -1.51769 -1.08734 0
M  V30 545 C 57.9298 -0.301192 -1.93874 0
M  V30 546 O 57.0548 0.589456 -2.08217 0
M  V30 547 C 57.6498 -2.75017 -1.97867 0
M  V30 548 C 56.2088 -2.80314 -2.51199 0
M  V30 549 C 55.3558 -2.4562 -1.28709 0
M  V30 550 H 58.3068 -1.56031 -0.289855 0
M  V30 551 H 58.3278 -2.5491 -2.82491 0
M  V30 552 H 57.8398 -3.63539 -1.35873 0
M  V30 553 H 55.9408 -1.96061 -3.16845 0
M  V30 554 H 56.0538 -3.82366 -2.88675 0
M  V30 555 H 54.4178 -1.97297 -1.61078 0
M  V30 556 H 55.2008 -3.36411 -0.6843 0
M  V30 557 N 57.6459 0.756429 -1.3826 0
M  V30 558 C 58.8929 1.51547 -1.34312 0
M  V30 559 C 59.2209 1.94382 0.0677144 0
M  V30 560 O 58.4759 1.65514 1.04421 0
M  V30 561 C 58.7749 2.78313 -2.24224 0
M  V30 562 C 58.4409 2.54455 -3.72241 0
M  V30 563 C 57.1029 2.47657 -4.12576 0
M  V30 564 C 59.4549 2.3354 -4.65949 0
M  V30 565 C 56.7829 2.17956 -5.44713 0
M  V30 566 C 59.1349 2.05359 -5.9834 0
M  V30 567 C 57.7989 1.97016 -6.37762 0
M  V30 568 H 57.0689 0.55455 -0.491482 0
M  V30 569 H 59.7159 0.870039 -1.70595 0
M  V30 570 H 58.0209 3.47492 -1.80987 0
M  V30 571 H 59.7179 3.36259 -2.18474 0
M  V30 572 H 56.3079 2.60616 -3.40261 0
M  V30 573 H 60.4919 2.37772 -4.35635 0
M  V30 574 H 55.7479 2.10003 -5.74203 0
M  V30 575 H 59.9219 1.88179 -6.70494 0
M  V30 576 H 57.5489 1.73766 -7.40074 0
M  V30 577 N 59.124 1.23083 0.984299 0
M  V30 578 C 60.37 1.06214 1.72761 0
M  V30 579 C 60.703 -0.400584 1.90024 0
M  V30 580 O 59.978 -1.29672 1.44967 0
M  V30 581 C 60.261 1.78375 3.12817 0
M  V30 582 C 60.114 3.32296 3.03149 0
M  V30 583 C 61.433 1.54309 4.12161 0
M  V30 584 H 58.552 0.387251 0.627061 0
M  V30 585 H 61.194 1.51536 1.14616 0
M  V30 586 H 59.344 1.39848 3.62457 0
M  V30 587 H 61.016 3.8032 2.61064 0
M  V30 588 H 59.259 3.6153 2.39747 0
M  V30 589 H 59.93 3.77972 4.02295 0
M  V30 590 H 62.406 1.87791 3.71314 0
M  V30 591 H 61.282 2.07281 5.08258 0
M  V30 592 H 61.543 0.477572 4.39513 0
M  V30 593 N 60.6021 -1.18246 1.0419 0
M  V30 594 C 61.5491 -2.2192 0.634037 0
M  V30 595 C 62.5191 -1.62179 -0.358765 0
M  V30 596 O 63.7041 -1.89122 -0.252466 0
M  V30 597 C 60.8441 -3.451 0.00445535 0
M  V30 598 C 59.9571 -4.19174 1.04487 0
M  V30 599 C 59.0921 -5.29813 0.383676 0
M  V30 600 C 58.1311 -5.9566 1.4091 0
M  V30 601 N 57.2681 -6.97834 0.772784 0
M  V30 602 H 62.1081 -2.56164 1.52263 0
M  V30 603 H 59.6451 -1.25843 0.761701 0
M  V30 604 H 61.6031 -4.15485 -0.377919 0
M  V30 605 H 60.2331 -3.11472 -0.847652 0
M  V30 606 H 59.2851 -3.47604 1.54518 0
M  V30 607 H 60.5971 -4.64267 1.82368 0
M  V30 608 H 59.7511 -6.06677 -0.0528366 0
M  V30 609 H 58.4901 -4.85825 -0.427208 0
M  V30 610 H 57.4951 -5.17535 1.85574 0
M  V30 611 H 58.7201 -6.4173 2.22171 0
M  V30 612 H 56.6661 -6.55998 -0.0177708 0
M  V30 613 H 56.5831 -7.41186 1.48928 0
M  V30 614 H 57.8511 -7.78665 0.36071 0
M  V30 615 N 62.0802 -0.821533 -1.34494 0
M  V30 616 C 62.9902 -0.244355 -2.33324 0
M  V30 617 C 64.0062 0.620527 -1.62559 0
M  V30 618 O 65.1822 0.528754 -1.94335 0
M  V30 619 C 62.2472 0.585368 -3.41723 0
M  V30 620 C 61.3082 -0.301752 -4.28238 0
M  V30 621 C 60.5412 0.488466 -5.3146 0
M  V30 622 O 60.7642 1.72186 -5.4379 0
M  V30 623 O 59.6982 -0.12848 -6.01763 0
M  V30 624 H 63.5242 -1.06231 -2.84515 0
M  V30 625 H 61.1092 -0.583645 -1.37528 0
M  V30 626 H 62.9912 1.05747 -4.07916 0
M  V30 627 H 61.6662 1.38068 -2.92778 0
M  V30 628 H 60.5732 -0.821315 -3.64973 0
M  V30 629 H 61.9062 -1.06138 -4.8062 0
M  V30 630 N 63.5583 1.46682 -0.576371 0
M  V30 631 C 64.4683 2.34032 0.163141 0
M  V30 632 C 65.4843 1.49367 0.892501 0
M  V30 633 O 66.6603 1.82252 0.857106 0
M  V30 634 C 63.7253 3.26435 1.16795 0
M  V30 635 C 62.7863 4.26998 0.443944 0
M  V30 636 C 62.0193 5.14986 1.40088 0
M  V30 637 O 62.2423 5.05785 2.637 0
M  V30 638 O 61.1763 5.94906 0.914917 0
M  V30 639 H 65.0023 2.98607 -0.55388 0
M  V30 640 H 62.5873 1.45554 -0.336821 0
M  V30 641 H 64.4693 3.83459 1.74748 0
M  V30 642 H 63.1443 2.64465 1.86655 0
M  V30 643 H 62.0513 3.7368 -0.177271 0
M  V30 644 H 63.3843 4.91736 -0.213566 0
M  V30 645 N 65.0364 0.313813 1.54444 0
M  V30 646 C 65.9664 -0.549454 2.26943 0
M  V30 647 C 66.9474 -1.12741 1.27372 0
M  V30 648 O 68.1324 -1.15436 1.56167 0
M  V30 649 C 65.2624 -1.71523 3.01989 0
M  V30 650 C 64.2164 -1.26703 4.08816 0
M  V30 651 C 63.5424 -2.51898 4.71647 0
M  V30 652 C 64.8424 -0.388962 5.2085 0
M  V30 653 H 66.5364 0.0552661 2.99349 0
M  V30 654 H 64.0824 0.0280207 1.43973 0
M  V30 655 H 66.0354 -2.32535 3.51433 0
M  V30 656 H 64.7594 -2.34639 2.27183 0
M  V30 657 H 63.4184 -0.679896 3.6024 0
M  V30 658 H 63.0664 -3.13356 3.93468 0
M  V30 659 H 62.7664 -2.22605 5.43802 0
M  V30 660 H 64.2904 -3.1369 5.23861 0
M  V30 661 H 65.7044 -0.905107 5.6611 0
M  V30 662 H 64.1014 -0.18924 5.99802 0
M  V30 663 H 65.1714 0.582699 4.81386 0
M  V30 664 N 66.5145 -1.57545 0.0417849 0
M  V30 665 C 67.9305 -1.56467 -0.314704 0
M  V30 666 C 68.1305 -1.04859 -1.72066 0
M  V30 667 O 67.1865 -0.700983 -2.42575 0
M  V30 668 C 68.4995 -3.00317 -0.15174 0
M  V30 669 C 70.0475 -3.12201 -0.223553 0
M  V30 670 C 70.5225 -4.57913 -0.0892295 0
M  V30 671 N 72.0135 -4.6297 -0.145808 0
M  V30 672 C 72.7485 -5.73362 -0.0658459 0
M  V30 673 N 72.2445 -6.92769 0.0659282 0
M  V30 674 N 74.0375 -5.6197 -0.12075 0
M  V30 675 H 66.1885 -1.89416 0.961014 0
M  V30 676 H 68.4515 -0.871862 0.372237 0
M  V30 677 H 68.1575 -3.42073 0.817254 0
M  V30 678 H 68.0315 -3.65892 -0.916692 0
M  V30 679 H 70.4185 -2.70349 -1.18301 0
M  V30 680 H 70.4995 -2.49323 0.571994 0
M  V30 681 H 70.1435 -5.00448 0.866867 0
M  V30 682 H 70.0735 -5.18786 -0.903802 0
M  V30 683 H 72.5645 -3.7709 -0.247286 0
M  V30 684 H 72.8775 -7.72707 0.119905 0
M  V30 685 H 71.2225 -6.94927 0.100885 0
M  V30 686 H 74.4135 -4.67572 -0.222187 0
M  V30 687 H 74.5865 -6.47977 -0.0549735 0
M  V30 688 N 67.9926 0.231505 -1.5589 0
M  V30 689 C 69.2396 0.957352 -1.78441 0
M  V30 690 C 69.5676 1.84726 -0.60882 0
M  V30 691 O 68.8226 1.91416 0.40725 0
M  V30 692 C 69.1216 1.83577 -3.0665 0
M  V30 693 C 68.7876 1.09993 -4.37278 0
M  V30 694 C 67.4496 0.896629 -4.72773 0
M  V30 695 C 69.8016 0.579558 -5.17968 0
M  V30 696 C 67.1296 0.160896 -5.86479 0
M  V30 697 C 69.4816 -0.142783 -6.32439 0
M  V30 698 C 68.1456 -0.357427 -6.66542 0
M  V30 699 H 67.4156 0.35032 -0.65296 0
M  V30 700 H 70.0626 0.226259 -1.90159 0
M  V30 701 H 68.3676 2.63441 -2.90011 0
M  V30 702 H 70.0646 2.39934 -3.21298 0
M  V30 703 H 66.6546 1.26835 -4.09403 0
M  V30 704 H 70.8386 0.724125 -4.90989 0
M  V30 705 H 66.0946 -0.0157293 -6.11398 0
M  V30 706 H 70.2686 -0.553559 -6.94196 0
M  V30 707 H 67.8956 -0.929466 -7.54497 0
M  V30 708 N 69.4707 1.49531 0.497807 0
M  V30 709 C 70.4337 1.65916 1.58128 0
M  V30 710 C 71.4337 0.530825 1.51786 0
M  V30 711 O 72.6237 0.797342 1.54881 0
M  V30 712 C 69.7557 1.65951 2.9778 0
M  V30 713 H 70.9487 2.62556 1.44929 0
M  V30 714 H 68.5017 1.38611 0.722275 0
M  V30 715 H 69.2367 0.709065 3.16453 0
M  V30 716 H 69.0217 2.47897 3.03792 0
M  V30 717 H 70.5117 1.80673 3.76493 0
M  V30 718 N 70.9488 -0.749086 1.3866 0
M  V30 719 C 72.1978 -1.50371 1.3443 0
M  V30 720 C 72.5108 -1.95503 -0.0616397 0
M  V30 721 O 73.7168 -2.70554 -0.226489 0
M  V30 722 C 72.1728 -2.71644 2.36088 0
M  V30 723 C 71.7808 -2.3352 3.82325 0
M  V30 724 C 73.5248 -3.49518 2.40909 0
M  V30 725 C 71.4318 -3.51431 4.75658 0
M  V30 726 H 70.3618 -0.564628 0.499712 0
M  V30 727 H 73.0128 -0.818449 1.64237 0
M  V30 728 H 71.3948 -3.42175 1.9933 0
M  V30 729 H 72.5688 -1.70627 4.28046 0
M  V30 730 H 70.8838 -1.6877 3.80665 0
M  V30 731 H 73.4808 -4.37197 3.07836 0
M  V30 732 H 73.8238 -3.90992 1.42937 0
M  V30 733 H 74.3568 -2.86005 2.76489 0
M  V30 734 H 71.0958 -3.15019 5.74842 0
M  V30 735 H 70.6158 -4.13352 4.34627 0
M  V30 736 H 72.2948 -4.17953 4.93887 0
M  V30 737 N 72.4269 -1.23603 -0.977757 0
M  V30 738 C 73.3589 -0.977369 -2.07317 0
M  V30 739 C 74.3719 0.0495845 -1.62724 0
M  V30 740 O 75.5609 -0.186261 -1.77526 0
M  V30 741 C 72.6609 -0.451216 -3.35883 0
M  V30 742 C 71.8339 -1.53896 -4.09432 0
M  V30 743 C 70.8929 -1.01721 -5.16274 0
M  V30 744 O 69.9189 -1.70676 -5.43009 0
M  V30 745 N 71.1209 0.153594 -5.80297 0
M  V30 746 H 73.8859 -1.92047 -2.30082 0
M  V30 747 H 71.4469 -1.14497 -1.14465 0
M  V30 748 H 73.4389 -0.0871574 -4.04606 0
M  V30 749 H 72.0089 0.397368 -3.10064 0
M  V30 750 H 71.2289 -2.07566 -3.35127 0
M  V30 751 H 72.5169 -2.27037 -4.55337 0
M  V30 752 H 71.9149 0.730323 -5.60966 0
M  V30 753 H 70.4719 0.458892 -6.50183 0
M  V30 754 N 73.905 1.17692 -1.04816 0
M  V30 755 C 74.853 2.23632 -0.63966 0
M  V30 756 C 75.847 1.6601 0.337219 0
M  V30 757 O 77.053 1.78844 0.203693 0
M  V30 758 H 73.428 0.727949 -0.188665 0
M  V30 759 H 75.399 2.55387 -1.54337 0
M  V30 760 C 74.148 3.4769 -0.0264051 0
M  V30 761 H 73.471 3.92331 -0.769164 0
M  V30 762 H 74.911 4.23418 0.222098 0
M  V30 763 C 73.37 3.13807 1.22584 0
M  V30 764 O 73.9 3.28236 2.31569 0
M  V30 765 N 72.106 2.68065 1.12202 0
M  V30 766 H 71.653 2.56525 0.235133 0
M  V30 767 H 71.611 2.45767 1.96076 0
M  V30 768 N 75.3831 0.828654 1.34056 0
M  V30 769 C 76.3301 0.252567 2.29414 0
M  V30 770 C 77.3001 -0.62588 1.53857 0
M  V30 771 O 78.4851 -0.566312 1.82202 0
M  V30 772 C 75.6251 -0.574831 3.40279 0
M  V30 773 C 74.7381 0.326499 4.30764 0
M  V30 774 C 73.8731 -0.511016 5.28736 0
M  V30 775 C 72.9121 0.389342 6.1086 0
M  V30 776 N 72.0491 -0.409439 7.00905 0
M  V30 777 H 76.8891 1.07108 2.78086 0
M  V30 778 H 74.4261 0.539677 1.36843 0
M  V30 779 H 76.3841 -1.06992 4.03248 0
M  V30 780 H 75.0141 -1.35841 2.92826 0
M  V30 781 H 74.0661 0.939837 3.68607 0
M  V30 782 H 75.3781 1.01857 4.88289 0
M  V30 783 H 74.5321 -1.07035 5.97184 0
M  V30 784 H 73.2711 -1.23657 4.71763 0
M  V30 785 H 72.2761 0.960769 5.4134 0
M  V30 786 H 73.5011 1.1131 6.69916 0
M  V30 787 H 71.4471 -1.11856 6.46393 0
M  V30 788 H 71.3641 0.224126 7.55668 0
M  V30 789 H 72.6321 -0.951336 7.73673 0
M  V30 790 N 76.8612 -1.46375 0.584142 0
M  V30 791 C 77.8112 -2.27371 -0.169232 0
M  V30 792 C 78.7952 -1.35955 -0.860523 0
M  V30 793 O 79.9872 -1.60119 -0.754382 0
M  V30 794 C 77.1162 -3.22334 -1.18134 0
M  V30 795 C 76.2022 -4.21235 -0.492088 0
M  V30 796 N 76.5932 -5.03766 0.453129 0
M  V30 797 C 74.8912 -4.39773 -0.742652 0
M  V30 798 C 75.5922 -5.75366 0.85609 0
M  V30 799 N 74.5682 -5.43214 0.204926 0
M  V30 800 H 78.3702 -2.88572 0.557097 0
M  V30 801 H 75.8842 -1.57242 0.406042 0
M  V30 802 H 77.8812 -3.79071 -1.73525 0
M  V30 803 H 76.5412 -2.62693 -1.90847 0
M  V30 804 H 77.5522 -5.11227 0.828723 0
M  V30 805 H 74.2292 -3.91279 -1.45625 0
M  V30 806 H 75.6192 -6.5172 1.63434 0
M  V30 807 N 78.3393 -0.321999 -1.54275 0
M  V30 808 C 79.2693 0.537411 -2.27231 0
M  V30 809 C 80.2503 1.12064 -1.27968 0
M  V30 810 O 81.4353 1.14606 -1.56777 0
M  V30 811 C 78.5653 1.69919 -3.02894 0
M  V30 812 C 77.5193 1.24534 -4.09482 0
M  V30 813 C 76.8453 2.49394 -4.72977 0
M  V30 814 C 78.1453 0.361335 -5.21049 0
M  V30 815 H 79.8393 -0.0711406 -2.99315 0
M  V30 816 H 77.3853 -0.0356555 -1.43956 0
M  V30 817 H 79.3383 2.30668 -3.52662 0
M  V30 818 H 78.0623 2.33431 -2.28424 0
M  V30 819 H 76.7213 0.660782 -3.60596 0
M  V30 820 H 76.3693 3.11265 -3.95124 0
M  V30 821 H 76.0693 2.19718 -5.44975 0
M  V30 822 H 77.5933 3.10908 -5.25517 0
M  V30 823 H 79.0073 0.875072 -5.66582 0
M  V30 824 H 77.4043 0.157428 -5.99893 0
M  V30 825 H 78.4743 -0.60822 -4.8107 0
M  V30 826 N 79.8174 1.5752 -0.0501392 0
M  V30 827 C 81.0574 1.94521 0.627783 0
M  V30 828 C 81.4214 0.928265 1.68069 0
M  V30 829 O 82.6224 1.18517 2.41261 0
M  V30 830 C 80.8934 3.36319 1.20932 0
M  V30 831 S 82.4524 3.95272 1.90539 0
M  V30 832 H 79.2704 0.680456 0.206158 0
M  V30 833 H 81.8724 1.95139 -0.118829 0
M  V30 834 H 80.5764 4.08132 0.430865 0
M  V30 835 H 80.1074 3.39193 1.99277 0
M  V30 836 H 82.1224 3.80415 3.18589 0
M  V30 837 N 81.2955 -0.223234 1.56011 0
M  V30 838 C 82.2455 -1.28008 1.88674 0
M  V30 839 C 83.2295 -1.42369 0.749663 0
M  V30 840 O 84.4215 -1.45212 1.01205 0
M  V30 841 C 81.5505 -2.63084 2.20548 0
M  V30 842 C 80.6365 -2.52632 3.40643 0
M  V30 843 N 81.0275 -2.11829 4.59306 0
M  V30 844 C 79.3255 -2.83594 3.44224 0
M  V30 845 C 80.0265 -2.12587 5.41463 0
M  V30 846 N 79.0025 -2.5301 4.81131 0
M  V30 847 H 82.8045 -0.955487 2.77935 0
M  V30 848 H 80.3185 -0.431801 1.56554 0
M  V30 849 H 82.3155 -3.39385 2.42122 0
M  V30 850 H 80.9755 -2.96391 1.32599 0
M  V30 851 H 81.9865 -1.82988 4.84496 0
M  V30 852 H 78.6635 -3.21284 2.66614 0
M  V30 853 H 80.0535 -1.83179 6.46448 0
M  V30 854 N 82.7736 -1.49793 -0.48987 0
M  V30 855 C 84.1896 -1.36803 -0.822022 0
M  V30 856 C 84.3896 -0.409652 -1.97292 0
M  V30 857 O 83.4456 0.154614 -2.52026 0
M  V30 858 C 84.7586 -2.77768 -1.15175 0
M  V30 859 C 86.3066 -2.86549 -1.25931 0
M  V30 860 C 86.7816 -4.28306 -1.62228 0
M  V30 861 N 88.2726 -4.31169 -1.69256 0
M  V30 862 C 89.0076 -5.37832 -1.98807 0
M  V30 863 N 88.5036 -6.54726 -2.26507 0
M  V30 864 N 90.2966 -5.25258 -2.00152 0
M  V30 865 H 82.4476 -2.10691 0.268881 0
M  V30 866 H 84.7106 -0.946241 0.057728 0
M  V30 867 H 84.4166 -3.49648 -0.379335 0
M  V30 868 H 84.2906 -3.13836 -2.09253 0
M  V30 869 H 86.6776 -2.14899 -2.02243 0
M  V30 870 H 86.7586 -2.54049 -0.298776 0
M  V30 871 H 86.4026 -5.00486 -0.864622 0
M  V30 872 H 86.3326 -4.58279 -2.594 0
M  V30 873 H 88.8236 -3.4687 -1.49965 0
M  V30 874 H 89.1366 -7.31833 -2.48276 0
M  V30 875 H 87.4816 -6.57933 -2.23939 0
M  V30 876 H 90.6726 -4.32938 -1.77996 0
M  V30 877 H 90.8456 -6.08476 -2.22848 0
M  V30 878 N 84.2517 0.741722 -1.39055 0
M  V30 879 C 85.1847 1.86416 -1.31622 0
M  V30 880 C 86.1627 1.61473 -0.191076 0
M  V30 881 O 87.3467 1.84825 -0.370399 0
M  V30 882 C 84.4737 3.22266 -1.04221 0
M  V30 883 C 83.5197 3.66079 -2.18834 0
M  V30 884 S 84.3527 3.7623 -3.81066 0
M  V30 885 C 85.5087 5.14881 -3.55877 0
M  V30 886 H 85.7417 1.92437 -2.26617 0
M  V30 887 H 83.2747 0.905907 -1.25031 0
M  V30 888 H 85.2327 4.00714 -0.890964 0
M  V30 889 H 83.8937 3.1391 -0.109237 0
M  V30 890 H 83.0867 4.64648 -1.95238 0
M  V30 891 H 82.6887 2.94817 -2.30128 0
M  V30 892 H 84.9807 6.01006 -3.12726 0
M  V30 893 H 85.9237 5.43503 -4.53884 0
M  V30 894 H 86.3317 4.84239 -2.90126 0
M  V30 895 N 85.7298 1.2412 0.971189 0
M  V30 896 C 86.9548 1.10667 1.75407 0
M  V30 897 C 87.3798 -0.337048 1.85056 0
M  V30 898 O 86.7378 -1.24396 1.31892 0
M  V30 899 C 86.7858 1.74726 3.15441 0
M  V30 900 O 85.8898 1.01566 3.99697 0
M  V30 901 H 85.2308 0.387341 0.539317 0
M  V30 902 H 87.7608 1.64358 1.2185 0
M  V30 903 H 87.7708 1.80341 3.6598 0
M  V30 904 H 86.4458 2.79773 3.07734 0
M  V30 905 H 85.0228 1.03713 3.58187 0
M  V30 906 N 87.2079 -1.17134 1.05439 0
M  V30 907 C 88.4329 -1.91913 0.786396 0
M  V30 908 C 88.8579 -1.7643 -0.652234 0
M  V30 909 O 88.2159 -1.08372 -1.45345 0
M  V30 910 C 88.2639 -3.40921 1.17497 0
M  V30 911 O 87.3679 -4.11244 0.308589 0
M  V30 912 H 86.7089 -0.598215 0.288158 0
M  V30 913 H 89.2389 -1.48457 1.4079 0
M  V30 914 H 89.2489 -3.91668 1.14281 0
M  V30 915 H 87.9239 -3.5151 2.22292 0
M  V30 916 H 86.5009 -3.70731 0.40157 0
M  V30 917 N 88.686 -0.835752 -1.33615 0
M  V30 918 C 89.649 -0.272 -2.2758 0
M  V30 919 C 90.649 0.557487 -1.50827 0
M  V30 920 O 91.839 0.37173 -1.70188 0
M  V30 921 C 88.971 0.617173 -3.35267 0
M  V30 922 H 90.164 -1.10111 -2.78954 0
M  V30 923 H 87.717 -0.608594 -1.43965 0
M  V30 924 H 88.452 1.46884 -2.89129 0
M  V30 925 H 88.237 0.0237066 -3.92093 0
M  V30 926 H 89.727 1.005 -4.05326 0
M  V30 927 N 90.1641 1.46063 -0.591896 0
M  V30 928 C 91.0941 2.33172 0.123673 0
M  V30 929 C 92.0751 1.45897 0.87453 0
M  V30 930 O 93.2601 1.74698 0.848181 0
M  V30 931 C 90.3901 3.28336 1.13194 0
M  V30 932 C 89.3441 4.25124 0.495324 0
M  V30 933 C 88.6701 5.09863 1.61071 0
M  V30 934 C 89.9701 5.19143 -0.573425 0
M  V30 935 H 91.6641 2.93252 -0.603646 0
M  V30 936 H 89.2101 1.41014 -0.291741 0
M  V30 937 H 91.1631 3.88137 1.64097 0
M  V30 938 H 89.8871 2.66383 1.88965 0
M  V30 939 H 88.5461 3.66599 0.00729452 0
M  V30 940 H 88.1941 4.44288 2.35832 0
M  V30 941 H 87.8941 5.75417 1.19035 0
M  V30 942 H 89.4181 5.72529 2.12233 0
M  V30 943 H 90.8321 5.73106 -0.1491 0
M  V30 944 H 89.2291 5.93089 -0.914636 0
M  V30 945 H 90.2991 4.62519 -1.45617 0
M  V30 946 N 91.6422 0.330177 1.54103 0
M  V30 947 C 92.5522 -0.541534 2.28264 0
M  V30 948 C 93.5682 -1.12351 1.32866 0
M  V30 949 O 94.7442 -1.14206 1.65888 0
M  V30 950 C 91.8092 -1.68322 3.03098 0
M  V30 951 C 90.8702 -1.13238 4.14096 0
M  V30 952 C 90.1032 -2.21966 4.85352 0
M  V30 953 O 90.3262 -3.42437 4.56172 0
M  V30 954 O 89.2602 -1.87013 5.7211 0
M  V30 955 H 93.0862 0.060938 3.03639 0
M  V30 956 H 90.6712 0.09565 1.49093 0
M  V30 957 H 92.5532 -2.34777 3.49939 0
M  V30 958 H 91.2282 -2.27176 2.30593 0
M  V30 959 H 90.1352 -0.432736 3.71589 0
M  V30 960 H 91.4682 -0.588898 4.88664 0
M  V30 961 N 93.1203 -1.57491 0.0584922 0
M  V30 962 C 94.3453 -1.97711 -0.62652 0
M  V30 963 C 94.7703 -0.936132 -1.63151 0
M  V30 964 O 94.1283 0.099811 -1.81025 0
M  V30 965 C 94.1763 -3.36989 -1.28338 0
M  V30 966 O 93.2803 -3.35433 -2.39913 0
M  V30 967 H 92.6213 -0.643868 -0.162266 0
M  V30 968 H 95.1513 -2.04193 0.129064 0
M  V30 969 H 95.1613 -3.73879 -1.63335 0
M  V30 970 H 93.8363 -4.12289 -0.546889 0
M  V30 971 H 92.4133 -3.10298 -2.06809 0
M  V30 972 N 94.5984 0.214957 -1.56127 0
M  V30 973 C 95.8444 0.939762 -1.79712 0
M  V30 974 C 96.1774 1.83723 -0.629247 0
M  V30 975 O 95.4524 1.90925 0.371197 0
M  V30 976 C 95.7354 1.77306 -3.13424 0
M  V30 977 C 95.5884 0.90164 -4.40671 0
M  V30 978 C 96.9074 2.74956 -3.43638 0
M  V30 979 H 94.0264 0.340214 -0.653776 0
M  V30 980 H 96.6684 0.20824 -1.88855 0
M  V30 981 H 94.8184 2.39673 -3.0576 0
M  V30 982 H 96.4904 0.294206 -4.60361 0
M  V30 983 H 94.7334 0.207368 -4.33304 0
M  V30 984 H 95.4044 1.51923 -5.30682 0
M  V30 985 H 97.8804 2.22724 -3.51473 0
M  V30 986 H 96.7564 3.30358 -4.38355 0
M  V30 987 H 97.0174 3.53023 -2.66134 0
M  V30 988 N 96.0765 1.50051 0.48192 0
M  V30 989 C 97.3045 1.64237 1.25832 0
M  V30 990 C 97.7195 0.321336 1.86045 0
M  V30 991 O 97.0765 -0.695478 1.68729 0
M  V30 992 C 97.1275 2.72548 2.37487 0
M  V30 993 O 96.8485 3.99529 1.79745 0
M  V30 994 C 98.3495 2.9761 3.28547 0
M  V30 995 H 95.5695 0.55237 0.380957 0
M  V30 996 H 98.1135 1.96207 0.576467 0
M  V30 997 H 96.2685 2.43303 3.01467 0
M  V30 998 H 96.6825 4.59342 2.5319 0
M  V30 999 H 98.1565 3.77084 4.03127 0
M  V30 1000 H 98.6335 2.0826 3.86684 0
M  V30 1001 H 99.2395 3.28345 2.70314 0
M  V30 1002 N 97.5546 -0.734337 1.39446 0
M  V30 1003 C 98.8006 -1.49613 1.36908 0
M  V30 1004 C 99.1336 -1.94169 -0.0347829 0
M  V30 1005 O 98.4086 -1.66833 -0.999847 0
M  V30 1006 C 98.6916 -2.73534 2.34203 0
M  V30 1007 C 98.5446 -2.34993 3.83534 0
M  V30 1008 C 99.8636 -3.75635 2.29317 0
M  V30 1009 H 96.9826 -0.542714 0.498629 0
M  V30 1010 H 99.6246 -0.839597 1.70443 0
M  V30 1011 H 97.7746 -3.29553 2.05736 0
M  V30 1012 H 99.4466 -1.84601 4.22753 0
M  V30 1013 H 97.6896 -1.67213 4.00278 0
M  V30 1014 H 98.3606 -3.23738 4.47099 0
M  V30 1015 H 100.837 -3.29203 2.54489 0
M  V30 1016 H 99.7126 -4.60008 2.99472 0
M  V30 1017 H 99.9736 -4.22603 1.29842 0
M  V30 1018 N 99.0327 -1.24633 -0.964593 0
M  V30 1019 C 100.258 -1.11596 -1.74818 0
M  V30 1020 C 100.683 0.32723 -1.85232 0
M  V30 1021 O 100.041 1.23695 -1.32549 0
M  V30 1022 C 100.089 -1.76397 -3.1451 0
M  V30 1023 O 99.1927 -1.03685 -3.99153 0
M  V30 1024 H 98.5337 -0.390196 -0.537255 0
M  V30 1025 H 101.064 -1.65002 -1.20977 0
M  V30 1026 H 101.074 -1.8228 -3.65018 0
M  V30 1027 H 99.7487 -2.81401 -3.06246 0
M  V30 1028 H 98.3257 -1.05611 -3.57632 0
M  V30 1029 N 100.511 1.16574 -1.06058 0
M  V30 1030 C 101.788 1.83048 -0.689416 0
M  V30 1031 C 102.168 1.94122 0.829443 0
M  V30 1032 O 101.516 1.48249 1.7388 0
M  V30 1033 C 101.726 3.20186 -1.38859 0
M  V30 1034 C 103.074 3.95989 -1.53226 0
M  V30 1035 O 104.098 3.29696 -1.3483 0
M  V30 1036 O 102.957 5.14813 -1.83384 0
M  V30 1037 H 100.051 0.790258 -0.243764 0
M  V30 1038 H 102.597 1.23797 -1.16071 0
M  V30 1039 H 101.369 3.07146 -2.4244 0
M  V30 1040 H 100.992 3.87112 -0.907216 0
M  V30 1041 N 101.989 0.842826 1.3317 0
M  V30 1042 C 103.405 0.531128 1.50503 0
M  V30 1043 C 103.605 -0.940734 1.78192 0
M  V30 1044 O 102.661 -1.72436 1.84451 0
M  V30 1045 C 103.974 1.40789 2.65705 0
M  V30 1046 C 105.522 1.40708 2.79589 0
M  V30 1047 C 105.997 2.26878 3.97857 0
M  V30 1048 N 107.488 2.24609 4.05099 0
M  V30 1049 C 108.223 2.88019 4.95815 0
M  V30 1050 N 107.719 3.60496 5.9162 0
M  V30 1051 N 109.512 2.77469 4.88843 0
M  V30 1052 H 101.663 1.79557 1.1346 0
M  V30 1053 H 103.926 0.766267 0.558156 0
M  V30 1054 H 103.632 2.454 2.51936 0
M  V30 1055 H 103.506 1.08677 3.61205 0
M  V30 1056 H 105.893 0.368668 2.92788 0
M  V30 1057 H 105.974 1.76829 1.84838 0
M  V30 1058 H 105.618 3.3078 3.85418 0
M  V30 1059 H 105.548 1.88096 4.91861 0
M  V30 1060 H 108.039 1.71906 3.36536 0
M  V30 1061 H 108.352 4.06076 6.57512 0
M  V30 1062 H 106.697 3.64604 5.91683 0
M  V30 1063 H 109.888 2.20406 4.12963 0
M  V30 1064 H 110.061 3.2717 5.59342 0
M  V30 1065 N 103.467 -1.45747 0.599634 0
M  V30 1066 C 104.878 -1.85853 0.177681 0
M  V30 1067 C 105.229 -1.50102 -1.26348 0
M  V30 1068 O 104.354 -0.923905 -1.95686 0
M  V30 1069 C 104.949 -3.37326 0.315688 0
M  V30 1070 C 103.508 -3.76365 -0.0515144 0
M  V30 1071 C 102.655 -2.69722 0.643822 0
M  V30 1072 H 105.606 -1.36661 0.806814 0
M  V30 1073 H 105.627 -3.77778 -0.454321 0
M  V30 1074 H 105.139 -3.63315 1.36468 0
M  V30 1075 H 103.24 -3.55993 -1.09999 0
M  V30 1076 H 103.353 -4.77916 0.336594 0
M  V30 1077 H 101.717 -2.54567 0.0822881 0
M  V30 1078 H 102.5 -2.98549 1.6948 0
M  V30 1079 N 104.945 -0.338344 -1.53925 0
M  V30 1080 C 105.875 0.51328 -2.27789 0
M  V30 1081 C 106.856 1.107 -1.29149 0
M  V30 1082 O 108.041 1.12937 -1.57984 0
M  V30 1083 C 105.171 1.66697 -3.04679 0
M  V30 1084 C 104.125 1.20183 -4.1078 0
M  V30 1085 C 103.451 2.44363 -4.75595 0
M  V30 1086 C 104.751 0.30605 -5.21403 0
M  V30 1087 H 106.445 -0.102883 -2.99223 0
M  V30 1088 H 103.991 -0.0509219 -1.4391 0
M  V30 1089 H 105.944 2.26915 -3.55088 0
M  V30 1090 H 104.668 2.30995 -2.30887 0
M  V30 1091 H 103.327 0.622499 -3.61276 0
M  V30 1092 H 102.975 3.07057 -3.98403 0
M  V30 1093 H 102.675 2.13925 -5.47275 0
M  V30 1094 H 104.199 3.05317 -5.28786 0
M  V30 1095 H 105.613 0.814929 -5.67478 0
M  V30 1096 H 104.01 0.0937929 -6.00027 0
M  V30 1097 H 105.08 -0.65921 -4.80398 0
M  V30 1098 N 106.423 1.57458 -0.0668435 0
M  V30 1099 C 107.671 1.92919 0.602214 0
M  V30 1100 C 107.992 0.947215 1.70449 0
M  V30 1101 O 107.262 -0.00544117 1.95899 0
M  V30 1102 H 105.842 0.71217 0.22544 0
M  V30 1103 H 108.504 1.94508 -0.123535 0
M  V30 1104 H 107.6 2.94589 1.03073 0
M  V30 1105 N 107.901 -0.206675 1.56239 0
M  V30 1106 C 109.147 -0.930218 1.80208 0
M  V30 1107 C 109.48 -1.83387 0.638981 0
M  V30 1108 O 108.755 -1.91119 -0.361066 0
M  V30 1109 C 109.038 -1.75641 3.1436 0
M  V30 1110 C 108.891 -0.878257 4.41142 0
M  V30 1111 C 110.21 -2.73129 3.45092 0
M  V30 1112 H 107.329 -0.336742 0.655571 0
M  V30 1113 H 109.971 -0.198222 1.88963 0
M  V30 1114 H 108.121 -2.38048 3.07027 0
M  V30 1115 H 109.793 -0.269787 4.6051 0
M  V30 1116 H 108.036 -0.184385 4.33408 0
M  V30 1117 H 108.707 -1.49106 5.3148 0
M  V30 1118 H 111.183 -2.20856 3.52649 0
M  V30 1119 H 110.059 -3.28028 4.40101 0
M  V30 1120 H 110.32 -3.51606 2.68003 0
M  V30 1121 N 109.379 -1.50304 -0.473955 0
M  V30 1122 C 110.604 -1.65175 -1.25427 0
M  V30 1123 C 111.029 -0.333673 -1.85117 0
M  V30 1124 O 110.387 0.702114 -1.67153 0
M  V30 1125 C 110.435 -2.74295 -2.34082 0
M  V30 1126 O 109.539 -2.35349 -3.38651 0
M  V30 1127 H 108.88 -0.551944 -0.369126 0
M  V30 1128 H 111.41 -1.96662 -0.564364 0
M  V30 1129 H 111.42 -2.97285 -2.79438 0
M  V30 1130 H 110.095 -3.69959 -1.90008 0
M  V30 1131 H 108.672 -2.22794 -2.99027 0
M  V30 1132 N 110.857 0.726932 -1.39834 0
M  V30 1133 C 112.106 1.48214 -1.36805 0
M  V30 1134 C 112.419 1.95576 0.0305291 0
M  V30 1135 O 113.625 2.7088 0.183417 0
M  V30 1136 C 112.081 2.67854 -2.40379 0
M  V30 1137 C 111.689 2.27408 -3.85992 0
M  V30 1138 C 113.433 3.45641 -2.46439 0
M  V30 1139 C 111.34 3.43819 -4.81189 0
M  V30 1140 H 110.27 0.556606 -0.508631 0
M  V30 1141 H 112.921 0.792216 -1.65518 0
M  V30 1142 H 111.303 3.3896 -2.04749 0
M  V30 1143 H 112.477 1.63795 -4.30706 0
M  V30 1144 H 110.792 1.62692 -3.83302 0
M  V30 1145 H 113.389 4.32244 -3.14753 0
M  V30 1146 H 113.732 3.88669 -1.49139 0
M  V30 1147 H 114.265 2.8157 -2.81004 0
M  V30 1148 H 111.004 3.05834 -5.79781 0
M  V30 1149 H 110.524 4.06385 -4.41148 0
M  V30 1150 H 112.203 4.10043 -5.00474 0
M  V30 1151 N 112.336 1.25143 0.95797 0
M  V30 1152 C 113.564 1.12424 1.73691 0
M  V30 1153 C 113.979 -0.322304 1.86029 0
M  V30 1154 O 113.336 -1.22186 1.35561 0
M  V30 1155 C 113.387 1.76933 3.15241 0
M  V30 1156 O 113.108 3.15932 3.03511 0
M  V30 1157 C 114.609 1.6995 4.09429 0
M  V30 1158 H 111.829 0.3923 0.544373 0
M  V30 1159 H 114.373 1.6544 1.20207 0
M  V30 1160 H 112.528 1.27895 3.6568 0
M  V30 1161 H 112.942 3.47598 3.9278 0
M  V30 1162 H 114.416 2.19753 5.06372 0
M  V30 1163 H 114.893 0.662619 4.34173 0
M  V30 1164 H 115.499 2.18461 3.64904 0
M  V30 1165 N 113.814 -1.1601 1.06675 0
M  V30 1166 C 114.761 -2.20525 0.680967 0
M  V30 1167 C 115.731 -1.62904 -0.324283 0
M  V30 1168 O 116.916 -1.89615 -0.212294 0
M  V30 1169 C 114.056 -3.45013 0.0776551 0
M  V30 1170 C 113.169 -4.16863 1.13355 0
M  V30 1171 C 112.304 -5.2888 0.49597 0
M  V30 1172 C 111.343 -5.92537 1.53513 0
M  V30 1173 N 110.48 -6.96038 0.920631 0
M  V30 1174 H 115.32 -2.52876 1.57663 0
M  V30 1175 H 112.857 -1.24199 0.788223 0
M  V30 1176 H 114.815 -4.16193 -0.289704 0
M  V30 1177 H 113.445 -3.132 -0.781393 0
M  V30 1178 H 112.497 -3.44248 1.61857 0
M  V30 1179 H 113.809 -4.60294 1.92174 0
M  V30 1180 H 112.963 -6.06653 0.0758604 0
M  V30 1181 H 111.702 -4.86622 -0.324062 0
M  V30 1182 H 110.707 -5.13482 1.9651 0
M  V30 1183 H 111.932 -6.36873 2.35733 0
M  V30 1184 H 109.878 -6.55888 0.12138 0
M  V30 1185 H 109.795 -7.3786 1.64616 0
M  V30 1186 H 111.063 -7.77725 0.525795 0
M  V30 1187 N 115.292 -0.849877 -1.32721 0
M  V30 1188 C 116.255 -0.296122 -2.27279 0
M  V30 1189 C 117.255 0.541458 -1.5141 0
M  V30 1190 O 118.445 0.353658 -1.70572 0
M  V30 1191 C 115.577 0.581579 -3.35902 0
M  V30 1192 H 116.77 -1.13064 -2.77771 0
M  V30 1193 H 114.323 -0.62383 -1.43311 0
M  V30 1194 H 115.058 1.43809 -2.9067 0
M  V30 1195 H 114.843 -0.0178814 -3.92096 0
M  V30 1196 H 116.333 0.961951 -4.0637 0
M  V30 1197 N 116.77 1.45427 -0.607355 0
M  V30 1198 C 117.68 2.34325 0.113463 0
M  V30 1199 C 118.696 1.51226 0.860617 0
M  V30 1200 O 119.872 1.84029 0.818255 0
M  V30 1201 C 116.937 3.28839 1.09844 0
M  V30 1202 C 115.998 4.27844 0.353271 0
M  V30 1203 C 115.231 5.17842 1.29133 0
M  V30 1204 O 115.454 5.11264 2.52913 0
M  V30 1205 O 114.388 5.96713 0.788523 0
M  V30 1206 H 118.214 2.97364 -0.617094 0
M  V30 1207 H 115.799 1.44807 -0.367619 0
M  V30 1208 H 117.681 3.8708 1.66575 0
M  V30 1209 H 116.356 2.68365 1.81003 0
M  V30 1210 H 115.263 3.7322 -0.256494 0
M  V30 1211 H 116.596 4.91173 -0.317822 0
M  V30 1212 N 118.248 0.346503 1.53744 0
M  V30 1213 C 119.494 -0.249473 2.0126 0
M  V30 1214 C 119.827 -1.49965 1.23386 0
M  V30 1215 O 119.102 -1.91811 0.32229 0
M  V30 1216 C 119.385 -0.560643 3.55709 0
M  V30 1217 C 119.238 0.701836 4.44291 0
M  V30 1218 C 120.557 -1.36905 4.18264 0
M  V30 1219 H 117.676 -0.0891987 0.731582 0
M  V30 1220 H 120.318 0.467624 1.84156 0
M  V30 1221 H 118.468 -1.17156 3.70414 0
M  V30 1222 H 120.14 1.33974 4.41417 0
M  V30 1223 H 118.383 1.32612 4.13033 0
M  V30 1224 H 119.054 0.43933 5.50249 0
M  V30 1225 H 121.53 -0.852448 4.07275 0
M  V30 1226 H 120.406 -1.55553 5.26398 0
M  V30 1227 H 120.667 -2.37203 3.73078 0
M  V30 1228 N 119.726 -1.57421 0.075193 0
M  V30 1229 C 120.689 -2.11791 -0.876203 0
M  V30 1230 C 121.689 -1.04268 -1.22412 0
M  V30 1231 O 122.879 -1.30242 -1.15684 0
M  V30 1232 C 120.011 -2.62207 -2.17854 0
M  V30 1233 H 121.204 -2.9716 -0.40444 0
M  V30 1234 H 118.757 -1.55333 -0.173557 0
M  V30 1235 H 119.492 -1.803 -2.6956 0
M  V30 1236 H 119.277 -3.40802 -1.93897 0
M  V30 1237 H 120.767 -3.04335 -2.85955 0
M  V30 1238 N 121.204 0.198386 -1.56346 0
M  V30 1239 C 122.615 0.763358 -1.70381 0
M  V30 1240 C 122.966 1.83995 -0.681203 0
M  V30 1241 O 122.091 2.15785 0.16305 0
M  V30 1242 C 122.686 1.39143 -3.08909 0
M  V30 1243 C 121.245 1.90352 -3.2472 0
M  V30 1244 C 120.392 0.772233 -2.6633 0
M  V30 1245 H 123.343 -0.0266377 -1.58678 0
M  V30 1246 H 123.364 2.26076 -3.06055 0
M  V30 1247 H 122.876 0.607638 -3.83314 0
M  V30 1248 H 120.977 2.71461 -2.55225 0
M  V30 1249 H 121.09 2.06757 -4.3219 0
M  V30 1250 H 119.454 1.18566 -2.2542 0
M  V30 1251 H 120.237 0.00073556 -3.433 0
M  V30 1252 N 122.682 1.50554 0.465978 0
M  V30 1253 C 123.592 1.72585 1.58907 0
M  V30 1254 C 124.608 0.60911 1.6299 0
M  V30 1255 O 125.784 0.88804 1.80765 0
M  V30 1256 C 122.849 1.81995 2.95091 0
M  V30 1257 C 121.91 3.05751 3.01355 0
M  V30 1258 C 121.143 3.14702 4.31043 0
M  V30 1259 O 121.366 2.30313 5.21835 0
M  V30 1260 O 120.3 4.07468 4.43005 0
M  V30 1261 H 124.126 2.67799 1.43239 0
M  V30 1262 H 121.711 1.34711 0.646013 0
M  V30 1263 H 123.593 1.90335 3.75966 0
M  V30 1264 H 122.268 0.899659 3.10947 0
M  V30 1265 H 121.175 3.02908 2.19539 0
M  V30 1266 H 122.508 3.97375 2.90437 0
M  V30 1267 N 124.16 -0.719506 1.40217 0
M  V30 1268 C 125.07 -1.86378 1.42479 0
M  V30 1269 C 126.086 -1.71073 0.317834 0
M  V30 1270 O 127.262 -1.93406 0.561794 0
M  V30 1271 C 124.327 -3.22136 1.28178 0
M  V30 1272 C 123.388 -3.49723 2.48982 0
M  V30 1273 C 122.621 -4.79004 2.35353 0
M  V30 1274 O 122.844 -5.53821 1.36524 0
M  V30 1275 O 121.778 -5.06839 3.2465 0
M  V30 1276 H 125.604 -1.87425 2.38968 0
M  V30 1277 H 123.189 -0.869405 1.21498 0
M  V30 1278 H 125.071 -4.03234 1.22395 0
M  V30 1279 H 123.746 -3.21825 0.347934 0
M  V30 1280 H 122.653 -2.6865 2.60342 0
M  V30 1281 H 123.986 -3.54828 3.41113 0
M  V30 1282 N 125.638 -1.25649 -0.95132 0
M  V30 1283 C 126.915 -1.01361 -1.67288 0
M  V30 1284 C 127.295 0.459135 -2.06046 0
M  V30 1285 O 126.643 1.43723 -1.7764 0
M  V30 1286 C 126.853 -1.95256 -2.89268 0
M  V30 1287 C 128.201 -2.23289 -3.61147 0
M  V30 1288 O 129.225 -1.93041 -2.99355 0
M  V30 1289 O 128.084 -2.74741 -4.72419 0
M  V30 1290 H 125.178 -0.38464 -0.732107 0
M  V30 1291 H 127.724 -1.36817 -1.00395 0
M  V30 1292 H 126.496 -2.94685 -2.57442 0
M  V30 1293 H 126.119 -1.60218 -3.6389 0
M  V30 1294 N 127.117 1.15442 -1.07289 0
M  V30 1295 C 128.027 2.23786 -0.704057 0
M  V30 1296 C 129.043 1.7166 0.284413 0
M  V30 1297 O 130.219 2.00972 0.131205 0
M  V30 1298 C 127.284 3.46535 -0.106792 0
M  V30 1299 C 126.345 4.13654 -1.14842 0
M  V30 1300 C 125.578 5.30544 -0.57956 0
M  V30 1301 O 125.801 5.67187 0.604585 0
M  V30 1302 O 124.735 5.87154 -1.32414 0
M  V30 1303 H 128.561 2.57664 -1.60757 0
M  V30 1304 H 126.146 1.23152 -0.845803 0
M  V30 1305 H 128.028 4.20804 0.224048 0
M  V30 1306 H 126.703 3.14407 0.770049 0
M  V30 1307 H 125.61 3.4131 -1.5316 0
M  V30 1308 H 126.943 4.49861 -1.99714 0
M  V30 1309 N 128.595 0.856903 1.32268 0
M  V30 1310 C 130.011 0.547061 1.49931 0
M  V30 1311 C 130.211 -0.921781 1.7918 0
M  V30 1312 O 129.267 -1.70469 1.8627 0
M  V30 1313 C 130.58 1.43599 2.64196 0
M  V30 1314 C 132.128 1.43665 2.78081 0
M  V30 1315 C 132.603 2.31085 3.95428 0
M  V30 1316 N 134.094 2.28893 4.02694 0
M  V30 1317 C 134.829 2.93262 4.92732 0
M  V30 1318 N 134.325 3.66751 5.87763 0
M  V30 1319 N 136.118 2.82638 4.85873 0
M  V30 1320 H 128.269 1.8075 1.11549 0
M  V30 1321 H 130.532 0.772144 0.549997 0
M  V30 1322 H 130.238 2.48058 2.49319 0
M  V30 1323 H 130.112 1.12502 3.60032 0
M  V30 1324 H 132.499 0.399701 2.92381 0
M  V30 1325 H 132.58 1.7878 1.82952 0
M  V30 1326 H 132.224 3.34849 3.81888 0
M  V30 1327 H 132.154 1.93302 4.89839 0
M  V30 1328 H 134.645 1.75466 3.34694 0
M  V30 1329 H 134.958 4.13027 6.53168 0
M  V30 1330 H 133.303 3.70859 5.87783 0
M  V30 1331 H 136.494 2.24774 4.10602 0
M  V30 1332 H 136.667 3.33084 5.55841 0
M  V30 1333 N 130.073 -1.45103 0.615059 0
M  V30 1334 C 131.02 -2.30586 -0.0993978 0
M  V30 1335 C 131.99 -1.42544 -0.852669 0
M  V30 1336 O 133.175 -1.71465 -0.836917 0
M  V30 1337 C 130.315 -3.27572 -1.08583 0
M  V30 1338 C 129.428 -4.30717 -0.332656 0
M  V30 1339 C 128.563 -5.14807 -1.30947 0
M  V30 1340 C 127.602 -6.09673 -0.544538 0
M  V30 1341 N 126.739 -6.86517 -1.47101 0
M  V30 1342 H 131.579 -2.91144 0.635542 0
M  V30 1343 H 129.116 -1.4346 0.325206 0
M  V30 1344 H 131.074 -3.82276 -1.67095 0
M  V30 1345 H 129.704 -2.68751 -1.78809 0
M  V30 1346 H 128.756 -3.78615 0.368107 0
M  V30 1347 H 130.068 -4.98102 0.263842 0
M  V30 1348 H 129.222 -5.73948 -1.96643 0
M  V30 1349 H 127.961 -4.47458 -1.9399 0
M  V30 1350 H 126.966 -5.49656 0.126003 0
M  V30 1351 H 128.191 -6.79052 0.080947 0
M  V30 1352 H 126.137 -6.21851 -2.08895 0
M  V30 1353 H 126.054 -7.50281 -0.928137 0
M  V30 1354 H 127.322 -7.50194 -2.11731 0
M  V30 1355 N 131.551 -0.354651 -1.53558 0
M  V30 1356 C 132.498 0.496968 -2.25386 0
M  V30 1357 C 133.468 1.0865 -1.25636 0
M  V30 1358 O 134.653 1.12104 -1.54394 0
M  V30 1359 C 131.793 1.63637 -3.03837 0
M  V30 1360 C 130.906 1.07307 -4.18461 0
M  V30 1361 C 130.041 2.18068 -4.84376 0
M  V30 1362 C 129.08 1.59147 -5.91049 0
M  V30 1363 N 128.217 2.63695 -6.50699 0
M  V30 1364 H 133.057 -0.122075 -2.9775 0
M  V30 1365 H 130.594 -0.0720154 -1.46924 0
M  V30 1366 H 132.552 2.30734 -3.47589 0
M  V30 1367 H 131.182 2.22623 -2.33749 0
M  V30 1368 H 130.234 0.292708 -3.79272 0
M  V30 1369 H 131.546 0.602193 -4.95152 0
M  V30 1370 H 130.7 2.93007 -5.31255 0
M  V30 1371 H 129.439 2.68504 -4.07133 0
M  V30 1372 H 128.444 0.827175 -5.43542 0
M  V30 1373 H 129.669 1.09549 -6.70206 0
M  V30 1374 H 127.615 3.13365 -5.76315 0
M  V30 1375 H 127.532 2.21263 -7.22896 0
M  V30 1376 H 128.8 3.3837 -7.02229 0
M  V30 1377 N 133.029 1.57378 -0.0835403 0
M  V30 1378 C 134.445 1.57246 0.273109 0
M  V30 1379 C 134.645 1.09385 1.69225 0
M  V30 1380 O 133.701 0.765051 2.40631 0
M  V30 1381 C 135.014 3.00614 0.0720628 0
M  V30 1382 C 136.562 3.12684 0.1407 0
M  V30 1383 C 137.037 4.57989 -0.0322094 0
M  V30 1384 N 138.528 4.63194 0.0230085 0
M  V30 1385 C 139.263 5.73335 -0.0861941 0
M  V30 1386 N 138.759 6.9235 -0.24958 0
M  V30 1387 N 140.552 5.62093 -0.0282886 0
M  V30 1388 H 132.703 1.86801 -1.0109 0
M  V30 1389 H 134.966 0.861687 -0.395222 0
M  V30 1390 H 134.672 3.39786 -0.907662 0
M  V30 1391 H 134.546 3.68193 0.81936 0
M  V30 1392 H 136.933 2.73391 1.11092 0
M  V30 1393 H 137.014 2.47719 -0.637896 0
M  V30 1394 H 136.658 4.97973 -0.999247 0
M  V30 1395 H 136.588 5.21 0.765937 0
M  V30 1396 H 139.079 3.77613 0.14722 0
M  V30 1397 H 139.392 7.72117 -0.324733 0
M  V30 1398 H 137.737 6.94415 -0.285097 0
M  V30 1399 H 140.928 4.67997 0.0981408 0
M  V30 1400 H 141.101 6.47895 -0.116845 0
M  V30 1401 N 134.507 -0.190092 1.56449 0
M  V30 1402 C 135.923 -0.54113 1.50146 0
M  V30 1403 C 136.123 -1.85603 0.784465 0
M  V30 1404 O 135.179 -2.5024 0.337051 0
M  V30 1405 C 136.492 -0.591241 2.9483 0
M  V30 1406 C 138.04 -0.679732 3.0553 0
M  V30 1407 C 138.515 -0.760908 4.51635 0
M  V30 1408 N 140.006 -0.824302 4.55806 0
M  V30 1409 C 140.741 -0.907365 5.66175 0
M  V30 1410 N 140.237 -0.952422 6.86222 0
M  V30 1411 N 142.03 -0.94494 5.541 0
M  V30 1412 H 134.181 0.67235 2.01478 0
M  V30 1413 H 136.444 0.240127 0.917084 0
M  V30 1414 H 136.15 0.305905 3.50367 0
M  V30 1415 H 136.024 -1.44422 3.48457 0
M  V30 1416 H 138.411 -1.56731 2.50039 0
M  V30 1417 H 138.492 0.199549 2.5502 0
M  V30 1418 H 138.136 0.122336 5.07753 0
M  V30 1419 H 138.066 -1.65606 4.99882 0
M  V30 1420 H 140.557 -0.798526 3.69367 0
M  V30 1421 H 140.87 -1.01645 7.66086 0
M  V30 1422 H 139.215 -0.921014 6.8887 0
M  V30 1423 H 142.406 -0.906612 4.59236 0
M  V30 1424 H 142.579 -1.00622 6.4014 0
M  V30 1425 N 135.985 -1.50799 -0.457987 0
M  V30 1426 C 137.401 -1.38515 -0.792819 0
M  V30 1427 C 137.601 -0.451409 -1.96379 0
M  V30 1428 O 136.657 0.10112 -2.52297 0
M  V30 1429 C 137.97 -2.80149 -1.09258 0
M  V30 1430 C 139.518 -2.89156 -1.19825 0
M  V30 1431 C 139.993 -4.31651 -1.53106 0
M  V30 1432 N 141.484 -4.34662 -1.60072 0
M  V30 1433 C 142.219 -5.41928 -1.87354 0
M  V30 1434 N 141.715 -6.59384 -2.12568 0
M  V30 1435 N 143.508 -5.29385 -1.88965 0
M  V30 1436 H 135.659 -2.10073 0.313511 0
M  V30 1437 H 137.922 -0.944803 0.0777862 0
M  V30 1438 H 137.628 -3.50374 -0.305084 0
M  V30 1439 H 137.502 -3.18204 -2.02549 0
M  V30 1440 H 139.889 -2.19141 -1.97639 0
M  V30 1441 H 139.97 -2.54626 -0.244821 0
M  V30 1442 H 139.614 -5.02208 -0.758266 0
M  V30 1443 H 139.544 -4.63678 -2.49621 0
M  V30 1444 H 142.035 -3.49973 -1.42573 0
M  V30 1445 H 142.348 -7.36934 -2.32696 0
M  V30 1446 H 140.693 -6.62535 -2.09933 0
M  V30 1447 H 143.884 -4.36616 -1.68772 0
M  V30 1448 H 144.057 -6.13066 -2.09891 0
M  V30 1449 N 137.463 0.71206 -1.40597 0
M  V30 1450 C 138.373 1.8562 -1.43466 0
M  V30 1451 C 139.389 1.70902 -0.326902 0
M  V30 1452 O 140.565 1.93105 -0.572043 0
M  V30 1453 C 137.63 3.21451 -1.29884 0
M  V30 1454 C 136.691 3.48398 -2.50833 0
M  V30 1455 C 135.924 4.77749 -2.3789 0
M  V30 1456 O 136.147 5.53089 -1.39459 0
M  V30 1457 O 135.081 5.05111 -3.27333 0
M  V30 1458 H 138.907 1.86155 -2.39958 0
M  V30 1459 H 136.492 0.86295 -1.21957 0
M  V30 1460 H 138.374 4.02579 -1.24531 0
M  V30 1461 H 137.049 3.21636 -0.364997 0
M  V30 1462 H 135.956 2.67265 -2.61763 0
M  V30 1463 H 137.289 3.53014 -3.4299 0
M  V30 1464 N 138.941 1.26152 0.944643 0
M  V30 1465 C 140.357 1.03189 1.21754 0
M  V30 1466 C 140.557 -0.245112 2.00004 0
M  V30 1467 O 139.613 -0.955176 2.33736 0
M  V30 1468 C 140.926 2.26119 1.98219 0
M  V30 1469 C 142.474 2.30984 2.11224 0
M  V30 1470 C 142.949 3.53597 2.91089 0
M  V30 1471 N 144.44 3.54053 2.98664 0
M  V30 1472 C 145.175 4.45593 3.60881 0
M  V30 1473 N 144.671 5.47416 4.24626 0
M  V30 1474 N 146.464 4.33252 3.58119 0
M  V30 1475 H 138.615 2.08177 0.421437 0
M  V30 1476 H 140.878 0.914723 0.248969 0
M  V30 1477 H 140.584 3.18984 1.48128 0
M  V30 1478 H 140.458 2.3009 2.98895 0
M  V30 1479 H 142.845 1.38635 2.60508 0
M  V30 1480 H 142.926 2.31026 1.09821 0
M  V30 1481 H 142.57 4.46273 2.42493 0
M  V30 1482 H 142.5 3.50802 3.92741 0
M  V30 1483 H 144.991 2.80403 2.53343 0
M  V30 1484 H 145.304 6.13459 4.69987 0
M  V30 1485 H 143.649 5.51278 4.23223 0
M  V30 1486 H 146.84 3.52924 3.0751 0
M  V30 1487 H 147.013 5.04786 4.06319 0
M  V30 1488 N 140.419 -1.14872 1.07899 0
M  V30 1489 C 141.367 -2.21857 0.698727 0
M  V30 1490 C 142.361 -1.66845 -0.293086 0
M  V30 1491 O 143.567 -1.79321 -0.156204 0
M  V30 1492 H 139.942 -0.722691 0.207899 0
M  V30 1493 H 141.913 -2.51205 1.61054 0
M  V30 1494 C 140.662 -3.47498 0.11858 0
M  V30 1495 H 139.985 -3.90154 0.872914 0
M  V30 1496 H 141.425 -4.23858 -0.109759 0
M  V30 1497 C 139.884 -3.16947 -1.1422 0
M  V30 1498 O 140.414 -3.3426 -2.22785 0
M  V30 1499 N 138.62 -2.70946 -1.05055 0
M  V30 1500 H 138.167 -2.57058 -0.167038 0
M  V30 1501 H 138.125 -2.50879 -1.89491 0
M  V30 1502 N 141.898 -0.863906 -1.31812 0
M  V30 1503 C 142.845 -0.313303 -2.28664 0
M  V30 1504 C 143.815 0.584868 -1.55462 0
M  V30 1505 O 145 0.517805 -1.83639 0
M  V30 1506 C 142.14 0.48441 -3.41683 0
M  V30 1507 C 141.253 -0.440594 -4.29747 0
M  V30 1508 C 140.388 0.370652 -5.29905 0
M  V30 1509 C 139.427 -0.551164 -6.09613 0
M  V30 1510 N 138.564 0.223462 -7.01744 0
M  V30 1511 H 143.404 -1.14444 -2.75148 0
M  V30 1512 H 140.941 -0.575769 -1.35364 0
M  V30 1513 H 142.899 0.962627 -4.05943 0
M  V30 1514 H 141.529 1.28029 -2.96325 0
M  V30 1515 H 140.581 -1.03724 -3.65986 0
M  V30 1516 H 141.893 -1.14767 -4.85417 0
M  V30 1517 H 141.047 0.911638 -5.99812 0
M  V30 1518 H 139.786 1.11105 -4.74876 0
M  V30 1519 H 138.791 -1.10396 -5.38603 0
M  V30 1520 H 140.016 -1.29032 -6.66729 0
M  V30 1521 H 137.962 0.946787 -6.49132 0
M  V30 1522 H 137.879 -0.424399 -7.54808 0
M  V30 1523 H 139.147 0.745876 -7.75923 0
M  V30 1524 N 143.376 1.44774 -0.622745 0
M  V30 1525 C 144.625 2.01334 -0.121397 0
M  V30 1526 C 144.938 1.49505 1.26125 0
M  V30 1527 O 146.144 1.98139 1.85616 0
M  V30 1528 C 144.6 3.59516 -0.166298 0
M  V30 1529 C 144.208 4.20342 -1.54974 0
M  V30 1530 C 145.952 4.23582 0.279021 0
M  V30 1531 C 143.859 5.70721 -1.55021 0
M  V30 1532 H 142.789 0.752851 -0.0416172 0
M  V30 1533 H 145.44 1.66083 -0.780309 0
M  V30 1534 H 143.822 3.92027 0.559557 0
M  V30 1535 H 144.996 3.99381 -2.29851 0
M  V30 1536 H 143.311 3.68529 -1.93843 0
M  V30 1537 H 145.908 5.33868 0.298083 0
M  V30 1538 H 146.251 3.95327 1.30471 0
M  V30 1539 H 146.784 3.95843 -0.394063 0
M  V30 1540 H 143.523 6.03698 -2.55399 0
M  V30 1541 H 143.043 5.93829 -0.844245 0
M  V30 1542 H 144.722 6.34203 -1.28047 0
M  V30 1543 N 144.854 0.36279 1.53368 0
M  V30 1544 C 145.817 -0.472679 2.24273 0
M  V30 1545 C 146.817 -1.012 1.24961 0
M  V30 1546 O 148.007 -0.898194 1.49259 0
M  V30 1547 C 145.139 -1.66039 2.97731 0
M  V30 1548 H 146.332 0.14773 2.99536 0
M  V30 1549 H 143.885 0.114434 1.55881 0
M  V30 1550 H 144.62 -2.31896 2.26704 0
M  V30 1551 H 144.405 -1.28066 3.70596 0
M  V30 1552 H 145.895 -2.25252 3.51641 0
M  V30 1553 N 146.332 -1.57332 0.0918853 0
M  V30 1554 C 147.295 -2.12708 -0.85369 0
M  V30 1555 C 148.295 -1.05561 -1.213 0
M  V30 1556 O 149.485 -1.31461 -1.14296 0
M  V30 1557 C 146.617 -2.64503 -2.15061 0
M  V30 1558 H 147.81 -2.97573 -0.3729 0
M  V30 1559 H 145.363 -1.55509 -0.157072 0
M  V30 1560 H 146.098 -1.83149 -2.67632 0
M  V30 1561 H 145.883 -3.4284 -1.90272 0
M  V30 1562 H 147.373 -3.07351 -2.82711 0
M  V30 1563 N 147.81 0.181792 -1.56548 0
M  V30 1564 C 148.773 1.20894 -1.94724 0
M  V30 1565 C 149.773 1.37738 -0.829747 0
M  V30 1566 O 150.963 1.35323 -1.09697 0
M  V30 1567 C 148.095 2.57593 -2.23291 0
M  V30 1568 H 149.288 0.882275 -2.86629 0
M  V30 1569 H 146.841 0.423838 -1.50444 0
M  V30 1570 H 147.576 2.95291 -1.34067 0
M  V30 1571 H 147.361 2.46735 -3.04736 0
M  V30 1572 H 148.851 3.31637 -2.53785 0
M  V30 1573 N 149.288 1.51039 0.449983 0
M  V30 1574 C 150.235 1.71439 1.54523 0
M  V30 1575 C 151.205 0.555871 1.56522 0
M  V30 1576 O 152.39 0.788871 1.73728 0
M  V30 1577 C 149.53 1.83384 2.92343 0
M  V30 1578 C 148.643 3.10873 2.9997 0
M  V30 1579 C 147.778 3.13488 4.28834 0
M  V30 1580 C 146.817 4.35343 4.30282 0
M  V30 1581 N 145.954 4.35579 5.5065 0
M  V30 1582 H 150.794 2.64934 1.36433 0
M  V30 1583 H 148.331 1.31312 0.662982 0
M  V30 1584 H 150.289 1.88291 3.72293 0
M  V30 1585 H 148.919 0.933086 3.0902 0
M  V30 1586 H 147.971 3.15336 2.12761 0
M  V30 1587 H 149.283 4.00814 2.96901 0
M  V30 1588 H 148.437 3.17241 5.17149 0
M  V30 1589 H 147.176 2.21414 4.34543 0
M  V30 1590 H 146.181 4.3178 3.40362 0
M  V30 1591 H 147.406 5.28668 4.26248 0
M  V30 1592 H 145.352 3.46369 5.57104 0
M  V30 1593 H 145.269 5.19313 5.49409 0
M  V30 1594 H 146.537 4.43507 6.41032 0
M  V30 1595 N 150.766 -0.704594 1.40972 0
M  V30 1596 C 152.006 -1.47691 1.41304 0
M  V30 1597 C 152.37 -1.91992 0.0178582 0
M  V30 1598 O 153.571 -2.68599 -0.103996 0
M  V30 1599 C 151.842 -2.66254 2.38419 0
M  V30 1600 S 153.401 -3.55516 2.57204 0
M  V30 1601 H 150.219 -0.504808 0.500689 0
M  V30 1602 H 152.821 -0.822962 1.77335 0
M  V30 1603 H 151.525 -2.31897 3.38603 0
M  V30 1604 H 151.056 -3.3655 2.03711 0
M  V30 1605 H 153.071 -4.61115 1.83268 0
M  V30 1606 N 152.244 -1.26651 -0.937939 0
M  V30 1607 C 153.66 -1.03834 -1.21205 0
M  V30 1608 C 153.86 0.234502 -2.00131 0
M  V30 1609 O 152.916 0.942767 -2.3424 0
M  V30 1610 C 154.229 -2.27167 -1.97017 0
M  V30 1611 C 155.777 -2.32101 -2.09996 0
M  V30 1612 C 156.252 -3.55136 -2.8921 0
M  V30 1613 N 157.743 -3.55632 -2.96783 0
M  V30 1614 C 158.478 -4.475 -3.58512 0
M  V30 1615 N 157.974 -5.4966 -4.21717 0
M  V30 1616 N 159.767 -4.35145 -3.55816 0
M  V30 1617 H 151.918 -2.08398 -0.410391 0
M  V30 1618 H 154.181 -0.916031 -0.244114 0
M  V30 1619 H 153.887 -3.19765 -1.46434 0
M  V30 1620 H 153.761 -2.31672 -2.97671 0
M  V30 1621 H 156.148 -1.40015 -2.59769 0
M  V30 1622 H 156.229 -2.31605 -1.08594 0
M  V30 1623 H 155.873 -4.47553 -2.40123 0
M  V30 1624 H 155.803 -3.5288 -3.90875 0
M  V30 1625 H 158.294 -2.81743 -2.51852 0
M  V30 1626 H 158.607 -6.15943 -4.66727 0
M  V30 1627 H 156.952 -5.53514 -4.20294 0
M  V30 1628 H 160.143 -3.5455 -3.05634 0
M  V30 1629 H 160.316 -5.06934 -4.03636 0
M  V30 1630 N 153.722 1.14298 -1.08507 0
M  V30 1631 C 154.67 2.21483 -0.710483 0
M  V30 1632 C 155.664 1.66998 0.284234 0
M  V30 1633 O 156.87 1.79401 0.146692 0
M  V30 1634 H 153.245 0.721578 -0.211729 0
M  V30 1635 H 155.216 2.50348 -1.62384 0
M  V30 1636 C 153.965 3.4743 -0.137007 0
M  V30 1637 H 153.288 3.89686 -0.893592 0
M  V30 1638 H 154.728 4.2391 0.0872789 0
M  V30 1639 C 153.187 3.17548 1.12538 0
M  V30 1640 O 153.717 3.35437 2.21009 0
M  V30 1641 N 151.923 2.71499 1.03617 0
M  V30 1642 H 151.47 2.57143 0.153403 0
M  V30 1643 H 151.428 2.51881 1.88158 0
M  V30 1644 N 155.201 0.870884 1.31352 0
M  V30 1645 C 156.148 0.325425 2.28494 0
M  V30 1646 C 157.118 -0.576615 1.5577 0
M  V30 1647 O 158.303 -0.508059 1.83911 0
M  V30 1648 C 155.443 -0.466283 3.41935 0
M  V30 1649 C 154.556 0.463378 4.29508 0
M  V30 1650 C 153.691 -0.342544 5.30094 0
M  V30 1651 C 152.73 0.583486 6.09313 0
M  V30 1652 N 151.867 -0.186244 7.01853 0
M  V30 1653 H 156.707 1.15901 2.74538 0
M  V30 1654 H 154.244 0.58294 1.35056 0
M  V30 1655 H 156.202 -0.941085 4.06447 0
M  V30 1656 H 154.832 -1.26456 2.97 0
M  V30 1657 H 153.884 1.05663 3.65431 0
M  V30 1658 H 155.196 1.1734 4.84802 0
M  V30 1659 H 154.35 -0.879816 6.00287 0
M  V30 1660 H 153.089 -1.08585 4.75458 0
M  V30 1661 H 152.094 1.13251 5.3801 0
M  V30 1662 H 153.319 1.32566 6.66035 0
M  V30 1663 H 151.265 -0.912348 6.49625 0
M  V30 1664 H 151.182 0.464422 7.54572 0
M  V30 1665 H 152.45 -0.704716 7.76308 0
M  V30 1666 N 156.679 -1.44442 0.630414 0
M  V30 1667 C 157.626 -2.30678 -0.0749355 0
M  V30 1668 C 158.596 -1.4344 -0.837502 0
M  V30 1669 O 159.781 -1.72343 -0.818684 0
M  V30 1670 C 156.921 -3.28706 -1.05103 0
M  V30 1671 C 156.034 -4.31046 -0.286954 0
M  V30 1672 C 155.169 -5.16167 -1.2548 0
M  V30 1673 C 154.208 -6.10216 -0.479843 0
M  V30 1674 N 153.345 -6.88039 -1.39811 0
M  V30 1675 H 158.185 -2.90454 0.666386 0
M  V30 1676 H 155.722 -1.43107 0.340404 0
M  V30 1677 H 157.68 -3.84027 -1.63031 0
M  V30 1678 H 156.31 -2.70632 -1.75949 0
M  V30 1679 H 155.362 -3.78203 0.408243 0
M  V30 1680 H 156.674 -4.97794 0.316657 0
M  V30 1681 H 155.828 -5.76002 -1.90544 0
M  V30 1682 H 154.567 -4.49491 -1.89233 0
M  V30 1683 H 153.572 -5.49491 0.184295 0
M  V30 1684 H 154.797 -6.78928 0.152965 0
M  V30 1685 H 152.743 -6.24032 -2.02287 0
M  V30 1686 H 152.66 -7.51223 -0.848508 0
M  V30 1687 H 153.928 -7.52397 -2.03762 0
M  V30 1688 N 158.157 -0.370918 -1.53173 0
M  V30 1689 C 159.104 0.473035 -2.259 0
M  V30 1690 C 160.074 1.07311 -1.26781 0
M  V30 1691 O 161.259 1.1046 -1.55574 0
M  V30 1692 C 158.399 1.60405 -3.05556 0
M  V30 1693 C 157.512 1.02863 -4.19575 0
M  V30 1694 C 156.647 2.12918 -4.86661 0
M  V30 1695 C 155.686 1.52869 -5.92704 0
M  V30 1696 N 154.823 2.56779 -6.53459 0
M  V30 1697 H 159.663 -0.153649 -2.97604 0
M  V30 1698 H 157.2 -0.0875946 -1.46839 0
M  V30 1699 H 159.158 2.27034 -3.50016 0
M  V30 1700 H 157.788 2.20131 -2.36097 0
M  V30 1701 H 156.84 0.252465 -3.79561 0
M  V30 1702 H 158.152 0.549642 -4.95762 0
M  V30 1703 H 157.306 2.87356 -5.34333 0
M  V30 1704 H 156.045 2.6417 -4.09958 0
M  V30 1705 H 155.05 0.769479 -5.44389 0
M  V30 1706 H 156.275 1.02435 -6.7133 0
M  V30 1707 H 154.221 3.07235 -5.79606 0
M  V30 1708 H 154.138 2.13583 -7.25202 0
M  V30 1709 H 155.406 3.30903 -7.05779 0
M  V30 1710 N 159.635 1.57281 -0.100228 0
M  V30 1711 C 160.545 2.17833 0.870965 0
M  V30 1712 C 161.561 1.14921 1.30649 0
M  V30 1713 O 162.737 1.47313 1.37335 0
M  V30 1714 C 159.802 2.75085 2.1102 0
M  V30 1715 C 158.863 3.9297 1.72838 0
M  V30 1716 C 158.096 4.47482 2.90854 0
M  V30 1717 O 158.319 4.00922 4.05731 0
M  V30 1718 O 157.253 5.38433 2.69023 0
M  V30 1719 H 161.079 3.0124 0.38575 0
M  V30 1720 H 158.664 1.48881 0.124397 0
M  V30 1721 H 160.546 3.11656 2.83634 0
M  V30 1722 H 159.221 1.94721 2.58584 0
M  V30 1723 H 158.128 3.61201 0.973883 0
M  V30 1724 H 159.461 4.74713 1.30033 0
M  V30 1725 N 161.113 -0.173488 1.56642 0
M  V30 1726 C 162.06 -1.21482 1.96242 0
M  V30 1727 C 163.03 -1.44104 0.826027 0
M  V30 1728 O 164.215 -1.5688 1.08597 0
M  V30 1729 C 161.355 -2.54964 2.32567 0
M  V30 1730 C 160.468 -2.39739 3.59373 0
M  V30 1731 C 159.603 -3.66072 3.84921 0
M  V30 1732 C 158.642 -3.45771 5.05083 0
M  V30 1733 N 157.779 -4.64169 5.26775 0
M  V30 1734 H 162.619 -0.870123 2.85014 0
M  V30 1735 H 160.156 -0.418245 1.41029 0
M  V30 1736 H 162.114 -3.32758 2.5165 0
M  V30 1737 H 160.744 -2.87433 1.46908 0
M  V30 1738 H 159.796 -1.53131 3.48217 0
M  V30 1739 H 161.108 -2.20683 4.47326 0
M  V30 1740 H 160.262 -4.52303 4.0436 0
M  V30 1741 H 159.001 -3.88105 2.9534 0
M  V30 1742 H 158.006 -2.57927 4.85545 0
M  V30 1743 H 159.231 -3.25163 5.96193 0
M  V30 1744 H 157.177 -4.86425 4.40144 0
M  V30 1745 H 157.094 -4.48019 6.08946 0
M  V30 1746 H 158.362 -5.51689 5.5069 0
M  V30 1747 N 162.591 -1.51276 -0.441967 0
M  V30 1748 C 163.819 -1.67516 -1.21434 0
M  V30 1749 C 164.234 -0.37055 -1.85128 0
M  V30 1750 O 163.591 0.650498 -1.70513 0
M  V30 1751 C 163.642 -2.78748 -2.30177 0
M  V30 1752 O 163.363 -4.04154 -1.69089 0
M  V30 1753 C 164.864 -3.06217 -3.20541 0
M  V30 1754 H 162.084 -0.562276 -0.366178 0
M  V30 1755 H 164.628 -1.97666 -0.524244 0
M  V30 1756 H 162.783 -2.5121 -2.94911 0
M  V30 1757 H 163.197 -4.65894 -2.40922 0
M  V30 1758 H 164.671 -3.8764 -3.92987 0
M  V30 1759 H 165.148 -2.18439 -3.81026 0
M  V30 1760 H 165.754 -3.35397 -2.61513 0
M  V30 1761 N 164.069 0.697108 -1.41344 0
M  V30 1762 C 164.979 1.84088 -1.45427 0
M  V30 1763 C 165.995 1.70545 -0.34501 0
M  V30 1764 O 167.171 1.92488 -0.592492 0
M  V30 1765 C 164.236 3.20056 -1.33286 0
M  V30 1766 C 163.297 3.45718 -2.54514 0
M  V30 1767 C 162.53 4.75199 -2.42944 0
M  V30 1768 O 162.753 5.51579 -1.45318 0
M  V30 1769 O 161.687 5.0161 -3.32672 0
M  V30 1770 H 165.513 1.836 -2.41919 0
M  V30 1771 H 163.098 0.849966 -1.22866 0
M  V30 1772 H 164.98 4.01236 -1.28794 0
M  V30 1773 H 163.655 3.2123 -0.39909 0
M  V30 1774 H 162.562 2.64474 -2.64583 0
M  V30 1775 H 163.895 3.49356 -3.46715 0
M  V30 1776 N 165.547 1.27147 0.931209 0
M  V30 1777 C 166.787 1.14511 1.69312 0
M  V30 1778 C 167.151 -0.304638 1.89568 0
M  V30 1779 O 168.352 -0.553343 2.63043 0
M  V30 1780 C 166.623 1.90349 3.02493 0
M  V30 1781 S 168.182 1.93884 3.93642 0
M  V30 1782 H 165 0.408858 0.581684 0
M  V30 1783 H 167.602 1.61006 1.10893 0
M  V30 1784 H 166.306 2.94877 2.85439 0
M  V30 1785 H 165.837 1.44333 3.65966 0
M  V30 1786 H 167.852 1.03273 4.85334 0
M  V30 1787 N 167.025 -1.13721 1.09112 0
M  V30 1788 C 167.955 -2.21148 0.749385 0
M  V30 1789 C 168.936 -1.6792 -0.271475 0
M  V30 1790 O 170.121 -1.93693 -0.140251 0
M  V30 1791 C 167.251 -3.46905 0.165659 0
M  V30 1792 C 166.205 -4.13203 1.11567 0
M  V30 1793 C 165.531 -5.33248 0.393809 0
M  V30 1794 C 166.831 -4.60912 2.45678 0
M  V30 1795 H 168.525 -2.4999 1.64758 0
M  V30 1796 H 166.071 -1.20156 0.793626 0
M  V30 1797 H 168.024 -4.21313 -0.085466 0
M  V30 1798 H 166.748 -3.17449 -0.767714 0
M  V30 1799 H 165.407 -3.40758 1.35202 0
M  V30 1800 H 165.055 -5.00054 -0.543599 0
M  V30 1801 H 164.755 -5.78552 1.02721 0
M  V30 1802 H 166.279 -6.10413 0.150908 0
M  V30 1803 H 167.693 -5.26759 2.26269 0
M  V30 1804 H 166.09 -5.16944 3.04776 0
M  V30 1805 H 167.16 -3.75603 3.06677 0
M  V30 1806 N 168.503 -0.877838 -1.30888 0
M  V30 1807 C 169.435 -0.296607 -2.27273 0
M  V30 1808 C 170.448 0.544799 -1.53414 0
M  V30 1809 O 171.637 0.365511 -1.74718 0
M  V30 1810 C 168.737 0.597481 -3.33592 0
M  V30 1811 C 167.91 -0.213251 -4.3688 0
M  V30 1812 C 166.969 0.610208 -5.2265 0
M  V30 1813 O 165.995 0.035441 -5.69189 0
M  V30 1814 N 167.197 1.92071 -5.47804 0
M  V30 1815 H 169.962 -1.12492 -2.77787 0
M  V30 1816 H 167.523 -0.740105 -1.43993 0
M  V30 1817 H 169.515 1.15425 -3.87891 0
M  V30 1818 H 168.085 1.32647 -2.83061 0
M  V30 1819 H 167.305 -0.951466 -3.82545 0
M  V30 1820 H 168.593 -0.769262 -5.02951 0
M  V30 1821 H 167.991 2.4107 -5.11763 0
M  V30 1822 H 166.548 2.42508 -6.05007 0
M  V30 1823 N 169.982 1.44106 -0.638065 0
M  V30 1824 C 170.929 2.30715 0.062701 0
M  V30 1825 C 171.899 1.43882 0.829883 0
M  V30 1826 O 173.084 1.72775 0.809532 0
M  V30 1827 C 170.224 3.29258 1.03358 0
M  V30 1828 C 169.337 4.31192 0.26409 0
M  V30 1829 C 168.472 5.16825 1.22741 0
M  V30 1830 C 167.511 6.10462 0.447475 0
M  V30 1831 N 166.648 6.8877 1.36161 0
M  V30 1832 H 171.488 2.90096 -0.681781 0
M  V30 1833 H 169.025 1.42925 -0.347988 0
M  V30 1834 H 170.983 3.84886 1.60992 0
M  V30 1835 H 169.613 2.71562 1.74511 0
M  V30 1836 H 168.665 3.77981 -0.428295 0
M  V30 1837 H 169.977 4.97619 -0.343052 0
M  V30 1838 H 169.131 5.77004 1.87487 0
M  V30 1839 H 167.87 4.50488 1.86847 0
M  V30 1840 H 166.875 5.49386 -0.213433 0
M  V30 1841 H 168.1 6.78837 -0.188968 0
M  V30 1842 H 166.046 6.25096 1.98975 0
M  V30 1843 H 165.963 7.51663 0.808656 0
M  V30 1844 H 167.231 7.53467 1.99769 0
M  V30 1845 N 171.46 0.379036 1.52974 0
M  V30 1846 C 172.37 -0.468639 2.29872 0
M  V30 1847 C 173.386 -1.08067 1.36373 0
M  V30 1848 O 174.562 -1.08871 1.69438 0
M  V30 1849 C 171.627 -1.58594 3.083 0
M  V30 1850 C 170.688 -1.00007 4.17489 0
M  V30 1851 C 169.921 -2.06413 4.92168 0
M  V30 1852 O 170.144 -3.27751 4.66835 0
M  V30 1853 O 169.078 -1.68717 5.7777 0
M  V30 1854 H 172.904 0.157508 3.03291 0
M  V30 1855 H 170.489 0.143035 1.48714 0
M  V30 1856 H 172.371 -2.23525 3.57232 0
M  V30 1857 H 171.046 -2.19724 2.37703 0
M  V30 1858 H 169.953 -0.314299 3.72777 0
M  V30 1859 H 171.286 -0.433135 4.90291 0
M  V30 1860 N 172.938 -1.57226 0.108567 0
M  V30 1861 C 174.163 -1.99604 -0.563303 0
M  V30 1862 C 174.588 -0.987563 -1.6009 0
M  V30 1863 O 173.946 0.0421687 -1.81251 0
M  V30 1864 C 173.994 -3.40902 -1.17552 0
M  V30 1865 O 173.098 -3.42896 -2.2912 0
M  V30 1866 H 172.439 -0.648704 -0.1417 0
M  V30 1867 H 174.969 -2.03679 0.193961 0
M  V30 1868 H 174.979 -3.78886 -1.51357 0
M  V30 1869 H 173.654 -4.1382 -0.415445 0
M  V30 1870 H 172.231 -3.1672 -1.96832 0
M  V30 1871 N 174.416 0.165178 -1.56732 0
M  V30 1872 C 175.326 1.22423 -2.00125 0
M  V30 1873 C 176.342 1.48084 -0.913619 0
M  V30 1874 O 177.518 1.60112 -1.22172 0
M  V30 1875 C 174.583 2.54197 -2.35764 0
M  V30 1876 C 173.644 2.36343 -3.58386 0
M  V30 1877 C 172.877 3.61834 -3.92316 0
M  V30 1878 O 173.1 4.67267 -3.27135 0
M  V30 1879 O 172.034 3.55579 -4.85641 0
M  V30 1880 H 175.86 0.885886 -2.90492 0
M  V30 1881 H 173.445 0.372518 -1.44681 0
M  V30 1882 H 175.327 3.3192 -2.59629 0
M  V30 1883 H 174.002 2.87598 -1.48557 0
M  V30 1884 H 172.909 1.56632 -3.39731 0
M  V30 1885 H 174.242 2.07865 -4.46154 0
M  V30 1886 N 175.894 1.51508 0.433938 0
M  V30 1887 C 176.841 1.73068 1.52696 0
M  V30 1888 C 177.811 0.572441 1.55924 0
M  V30 1889 O 178.996 0.807253 1.72882 0
M  V30 1890 C 176.136 1.86474 2.90381 0
M  V30 1891 C 175.249 3.14037 2.96656 0
M  V30 1892 C 174.384 3.18019 4.25485 0
M  V30 1893 C 173.423 4.39882 4.2564 0
M  V30 1894 N 172.56 4.41394 5.45999 0
M  V30 1895 H 177.4 2.66366 1.33615 0
M  V30 1896 H 174.937 1.32008 0.649018 0
M  V30 1897 H 176.895 1.92229 3.70275 0
M  V30 1898 H 175.525 0.965809 3.08013 0
M  V30 1899 H 174.577 3.17575 2.09404 0
M  V30 1900 H 175.889 4.0394 2.92633 0
M  V30 1901 H 175.043 3.22708 5.13755 0
M  V30 1902 H 173.782 2.2601 4.3217 0
M  V30 1903 H 172.787 4.35366 3.35763 0
M  V30 1904 H 174.012 5.33159 4.20617 0
M  V30 1905 H 171.958 3.52258 5.53399 0
M  V30 1906 H 171.875 5.25111 5.4387 0
M  V30 1907 H 173.143 4.50281 6.36292 0
M  V30 1908 N 177.372 -0.689602 1.41712 0
M  V30 1909 C 178.302 -1.81577 1.46806 0
M  V30 1910 C 179.283 -1.66945 0.326105 0
M  V30 1911 O 180.468 -1.86588 0.538377 0
M  V30 1912 C 177.598 -3.19762 1.35535 0
M  V30 1913 C 176.552 -3.49107 2.47605 0
M  V30 1914 C 175.878 -4.86711 2.21397 0
M  V30 1915 C 177.178 -3.47483 3.89939 0
M  V30 1916 H 178.872 -1.7757 2.41058 0
M  V30 1917 H 176.418 -0.852887 1.16025 0
M  V30 1918 H 178.371 -3.98263 1.3771 0
M  V30 1919 H 177.095 -3.24409 0.377708 0
M  V30 1920 H 175.754 -2.72959 2.44722 0
M  V30 1921 H 175.402 -4.8799 1.21961 0
M  V30 1922 H 175.102 -5.0731 2.96497 0
M  V30 1923 H 176.626 -5.67515 2.25297 0
M  V30 1924 H 178.04 -4.1598 3.94505 0
M  V30 1925 H 176.437 -3.79615 4.64771 0
M  V30 1926 H 177.507 -2.46341 4.17665 0
M  V30 1927 N 178.85 -1.27639 -0.924453 0
M  V30 1928 C 179.76 -1.12466 -2.05885 0
M  V30 1929 C 180.776 -0.053869 -1.73917 0
M  V30 1930 O 181.952 -0.261012 -1.99702 0
M  V30 1931 C 179.017 -0.776768 -3.37886 0
M  V30 1932 C 178.078 -1.92878 -3.83532 0
M  V30 1933 C 177.311 -1.59739 -5.09234 0
M  V30 1934 O 177.534 -0.506782 -5.68144 0
M  V30 1935 O 176.468 -2.43761 -5.50331 0
M  V30 1936 H 180.294 -2.07671 -2.21599 0
M  V30 1937 H 177.879 -1.06857 -1.04413 0
M  V30 1938 H 179.761 -0.596229 -4.17161 0
M  V30 1939 H 178.436 0.145732 -3.23372 0
M  V30 1940 H 177.343 -2.1644 -3.0513 0
M  V30 1941 H 178.676 -2.8316 -4.02593 0
M  V30 1942 N 180.328 1.1314 -1.09713 0
M  V30 1943 C 181.553 1.88862 -0.857081 0
M  V30 1944 C 181.978 1.78729 0.586304 0
M  V30 1945 O 181.336 1.13692 1.41222 0
M  V30 1946 C 181.384 3.36325 -1.30069 0
M  V30 1947 O 180.488 4.09815 -0.461007 0
M  V30 1948 H 179.829 0.587108 -0.310162 0
M  V30 1949 H 182.359 1.43129 -1.46203 0
M  V30 1950 H 182.369 3.87157 -1.28738 0
M  V30 1951 H 181.044 3.43017 -2.35185 0
M  V30 1952 H 179.621 3.68986 -0.538888 0
M  V30 1953 N 181.806 0.884767 1.30421 0
M  V30 1954 C 183.052 0.503851 1.96441 0
M  V30 1955 C 183.385 -0.944518 1.69684 0
M  V30 1956 O 182.66 -1.66737 1.00145 0
M  V30 1957 C 182.943 0.779085 3.51571 0
M  V30 1958 C 182.796 2.27807 3.87846 0
M  V30 1959 C 184.115 0.255452 4.39358 0
M  V30 1960 H 181.234 0.184533 0.713524 0
M  V30 1961 H 183.876 1.10872 1.54297 0
M  V30 1962 H 182.026 0.264274 3.876 0
M  V30 1963 H 183.698 2.86127 3.61841 0
M  V30 1964 H 181.941 2.74479 3.35922 0
M  V30 1965 H 182.612 2.42125 4.96064 0
M  V30 1966 H 185.088 0.696079 4.10236 0
M  V30 1967 H 183.964 0.477361 5.4682 0
M  V30 1968 H 184.225 -0.843293 4.33983 0
M  V30 1969 N 183.284 -1.43765 0.645699 0
M  V30 1970 C 184.232 -2.32516 -0.0624849 0
M  V30 1971 C 185.226 -1.48183 -0.820855 0
M  V30 1972 O 186.432 -1.64439 -0.732106 0
M  V30 1973 H 182.807 -0.750989 -0.0389864 0
M  V30 1974 H 184.778 -2.89979 0.703892 0
M  V30 1975 C 183.527 -3.32389 -1.02044 0
M  V30 1976 H 182.85 -3.97301 -0.446312 0
M  V30 1977 H 184.29 -3.97138 -1.48517 0
M  V30 1978 C 182.749 -2.62416 -2.11281 0
M  V30 1979 O 183.279 -2.434 -3.19561 0
M  V30 1980 N 181.485 -2.21913 -1.87624 0
M  V30 1981 H 181.032 -2.37578 -0.995703 0
M  V30 1982 H 180.99 -1.75424 -2.6091 0
M  V30 1983 N 184.763 -0.387143 -1.52771 0
M  V30 1984 C 185.726 0.436939 -2.24997 0
M  V30 1985 C 186.726 0.991991 -1.26555 0
M  V30 1986 O 187.916 0.874335 -1.50669 0
M  V30 1987 C 185.048 1.61281 -3.00335 0
M  V30 1988 H 186.241 -0.195365 -2.99263 0
M  V30 1989 H 183.794 -0.139218 -1.55679 0
M  V30 1990 H 184.529 2.2826 -2.30364 0
M  V30 1991 H 184.314 1.22154 -3.72587 0
M  V30 1992 H 185.804 2.19629 -3.5518 0
M  V30 1993 N 186.241 1.57166 -0.116904 0
M  V30 1994 C 187.151 2.18745 0.847812 0
M  V30 1995 C 188.167 1.163 1.29423 0
M  V30 1996 O 189.343 1.48761 1.35765 0
M  V30 1997 C 186.408 2.77307 2.0809 0
M  V30 1998 C 185.469 3.94781 1.68661 0
M  V30 1999 C 184.702 4.50541 2.86091 0
M  V30 2000 O 184.925 4.05202 4.01456 0
M  V30 2001 O 183.859 5.41256 2.63298 0
M  V30 2002 H 187.685 3.01632 0.353778 0
M  V30 2003 H 185.27 1.49005 0.108599 0
M  V30 2004 H 187.152 3.14647 2.80313 0
M  V30 2005 H 185.827 1.97452 2.56504 0
M  V30 2006 H 184.734 3.62214 0.935518 0
M  V30 2007 H 186.067 4.76065 1.24991 0
M  V30 2008 N 187.719 -0.156864 1.56817 0
M  V30 2009 C 188.649 -1.19589 2.00551 0
M  V30 2010 C 189.63 -1.4536 0.883426 0
M  V30 2011 O 190.815 -1.56449 1.15054 0
M  V30 2012 C 187.945 -2.53143 2.37773 0
M  V30 2013 C 186.899 -2.41913 3.53075 0
M  V30 2014 C 186.225 -3.80088 3.76081 0
M  V30 2015 C 187.525 -1.91157 4.86062 0
M  V30 2016 H 189.219 -0.832293 2.87599 0
M  V30 2017 H 186.765 -0.398918 1.38364 0
M  V30 2018 H 188.718 -3.26047 2.66967 0
M  V30 2019 H 187.442 -2.91319 1.4765 0
M  V30 2020 H 186.101 -1.71462 3.24031 0
M  V30 2021 H 185.749 -4.15683 2.83225 0
M  V30 2022 H 185.449 -3.73439 4.53671 0
M  V30 2023 H 186.973 -4.54556 4.0769 0
M  V30 2024 H 188.387 -2.53846 5.14038 0
M  V30 2025 H 186.784 -1.95422 5.67389 0
M  V30 2026 H 187.854 -0.866673 4.77092 0
M  V30 2027 N 189.197 -1.51736 -0.425897 0
M  V30 2028 C 190.144 -1.73875 -1.51776 0
M  V30 2029 C 191.114 -0.580702 -1.55618 0
M  V30 2030 O 192.299 -0.81641 -1.72451 0
M  V30 2031 C 189.439 -1.88012 -2.89388 0
M  V30 2032 C 188.552 -3.15606 -2.94986 0
M  V30 2033 C 187.687 -3.20271 -4.23793 0
M  V30 2034 C 186.726 -4.42134 -4.23302 0
M  V30 2035 N 185.863 -4.44284 -5.43651 0
M  V30 2036 H 190.703 -2.67071 -1.32201 0
M  V30 2037 H 188.24 -1.32351 -0.642008 0
M  V30 2038 H 190.198 -1.9419 -3.69251 0
M  V30 2039 H 188.828 -0.98213 -3.07496 0
M  V30 2040 H 187.88 -3.18681 -2.07717 0
M  V30 2041 H 189.192 -4.05486 -2.90486 0
M  V30 2042 H 188.346 -3.25428 -5.12036 0
M  V30 2043 H 187.085 -2.28299 -4.30965 0
M  V30 2044 H 186.09 -4.3714 -3.3345 0
M  V30 2045 H 187.315 -5.35382 -4.17783 0
M  V30 2046 H 185.261 -3.55188 -5.51523 0
M  V30 2047 H 185.178 -5.27988 -5.41078 0
M  V30 2048 H 186.446 -4.53649 -6.33895 0
M  V30 2049 N 190.675 0.682077 -1.42076 0
M  V30 2050 C 191.638 1.77756 -1.44691 0
M  V30 2051 C 192.638 1.5726 -0.335535 0
M  V30 2052 O 193.828 1.63686 -0.596037 0
M  V30 2053 C 190.96 3.16301 -1.27146 0
M  V30 2054 H 192.153 1.76826 -2.42224 0
M  V30 2055 H 189.706 0.891012 -1.28416 0
M  V30 2056 H 190.441 3.22862 -0.305075 0
M  V30 2057 H 190.226 3.32581 -2.07683 0
M  V30 2058 H 191.716 3.96241 -1.31843 0
M  V30 2059 N 192.153 1.28127 0.917671 0
M  V30 2060 C 193.085 1.07517 2.02417 0
M  V30 2061 C 194.098 0.0281099 1.62776 0
M  V30 2062 O 195.287 0.270748 1.76435 0
M  V30 2063 C 192.387 0.610957 3.33347 0
M  V30 2064 C 191.56 1.73255 4.01624 0
M  V30 2065 C 190.619 1.26238 5.10833 0
M  V30 2066 O 189.645 1.96389 5.34247 0
M  V30 2067 N 190.847 0.123448 5.80369 0
M  V30 2068 H 193.612 2.02806 2.20658 0
M  V30 2069 H 191.173 1.19827 1.08871 0
M  V30 2070 H 193.165 0.280101 4.0373 0
M  V30 2071 H 191.735 -0.24898 3.11607 0
M  V30 2072 H 190.955 2.23319 3.24842 0
M  V30 2073 H 192.243 2.48503 4.43986 0
M  V30 2074 H 191.641 -0.461847 5.63812 0
M  V30 2075 H 190.198 -0.148158 6.51632 0
M  V30 2076 N 193.631 -1.12557 1.10312 0
M  V30 2077 C 194.88 -1.83395 0.839588 0
M  V30 2078 C 195.193 -1.84939 -0.636929 0
M  V30 2079 O 196.399 -2.51761 -1.01631 0
M  V30 2080 C 194.855 -3.29303 1.45215 0
M  V30 2081 C 194.463 -3.36122 2.96186 0
M  V30 2082 C 196.207 -4.05121 1.26796 0
M  V30 2083 C 194.114 -4.76357 3.50483 0
M  V30 2084 H 193.044 -0.687133 0.310425 0
M  V30 2085 H 195.695 -1.26746 1.32694 0
M  V30 2086 H 194.077 -3.85812 0.892469 0
M  V30 2087 H 195.251 -2.89559 3.58458 0
M  V30 2088 H 193.566 -2.73776 3.13745 0
M  V30 2089 H 196.163 -5.08668 1.64806 0
M  V30 2090 H 196.506 -4.15773 0.209409 0
M  V30 2091 H 197.039 -3.54967 1.79563 0
M  V30 2092 H 193.778 -4.70899 4.55998 0
M  V30 2093 H 193.298 -5.23377 2.92978 0
M  V30 2094 H 194.977 -5.45294 3.48228 0
M  V30 2095 N 195.109 -0.891671 -1.2995 0
M  V30 2096 C 196.019 -0.367691 -2.31701 0
M  V30 2097 C 197.035 0.533486 -1.6562 0
M  V30 2098 O 198.211 0.424997 -1.96865 0
M  V30 2099 C 195.276 0.403406 -3.44345 0
M  V30 2100 C 194.337 -0.528328 -4.26037 0
M  V30 2101 C 193.57 0.206063 -5.33302 0
M  V30 2102 O 193.793 1.43119 -5.52153 0
M  V30 2103 O 192.727 -0.447281 -6.00236 0
M  V30 2104 H 196.553 -1.21163 -2.78484 0
M  V30 2105 H 194.138 -0.655725 -1.34241 0
M  V30 2106 H 196.02 0.839753 -4.12948 0
M  V30 2107 H 194.695 1.22354 -2.99685 0
M  V30 2108 H 193.602 -1.01362 -3.60106 0
M  V30 2109 H 194.935 -1.31465 -4.74318 0
M  V30 2110 N 196.587 1.43421 -0.653314 0
M  V30 2111 C 197.497 2.34568 0.0388565 0
M  V30 2112 C 198.513 1.53888 0.81207 0
M  V30 2113 O 199.689 1.86539 0.759294 0
M  V30 2114 C 196.754 3.32167 0.993269 0
M  V30 2115 C 195.815 4.28751 0.216977 0
M  V30 2116 C 195.048 5.21688 1.12593 0
M  V30 2117 O 195.271 5.19052 2.36519 0
M  V30 2118 O 194.205 5.98919 0.598284 0
M  V30 2119 H 198.031 2.95251 -0.711386 0
M  V30 2120 H 195.616 1.43564 -0.413502 0
M  V30 2121 H 197.498 3.92183 1.54176 0
M  V30 2122 H 196.173 2.73987 1.72374 0
M  V30 2123 H 195.08 3.72215 -0.375101 0
M  V30 2124 H 196.413 4.89913 -0.473924 0
M  V30 2125 N 198.065 0.39524 1.52563 0
M  V30 2126 C 198.995 -0.428384 2.29537 0
M  V30 2127 C 199.976 -1.05831 1.33169 0
M  V30 2128 O 201.161 -1.06995 1.62067 0
M  V30 2129 C 198.291 -1.55274 3.10656 0
M  V30 2130 C 197.245 -1.04855 4.14957 0
M  V30 2131 C 196.571 -2.26543 4.84337 0
M  V30 2132 C 197.871 -0.112324 5.22179 0
M  V30 2133 H 199.565 0.213867 2.98635 0
M  V30 2134 H 197.111 0.104298 1.43622 0
M  V30 2135 H 199.064 -2.1358 3.63265 0
M  V30 2136 H 197.788 -2.22266 2.39302 0
M  V30 2137 H 196.447 -0.487985 3.63338 0
M  V30 2138 H 196.095 -2.92059 4.09525 0
M  V30 2139 H 195.795 -1.93466 5.54837 0
M  V30 2140 H 197.319 -2.85481 5.39753 0
M  V30 2141 H 198.733 -0.603752 5.70112 0
M  V30 2142 H 197.13 0.128968 5.99961 0
M  V30 2143 H 198.2 0.837052 4.77621 0
M  V30 2144 N 199.544 -1.57102 0.125237 0
M  V30 2145 C 200.491 -2.15641 -0.822655 0
M  V30 2146 C 201.461 -1.08313 -1.25927 0
M  V30 2147 O 202.646 -1.36251 -1.33567 0
M  V30 2148 C 199.786 -2.76504 -2.06494 0
M  V30 2149 C 198.899 -3.98158 -1.67612 0
M  V30 2150 C 198.034 -4.47088 -2.86854 0
M  V30 2151 C 197.073 -5.6126 -2.44242 0
M  V30 2152 N 196.21 -6.04905 -3.56419 0
M  V30 2153 H 201.05 -2.96313 -0.316625 0
M  V30 2154 H 198.587 -1.46388 -0.144588 0
M  V30 2155 H 200.545 -3.09925 -2.79289 0
M  V30 2156 H 199.175 -1.98512 -2.54545 0
M  V30 2157 H 198.227 -3.70858 -0.846661 0
M  V30 2158 H 199.539 -4.80934 -1.32301 0
M  V30 2159 H 198.693 -4.82451 -3.67867 0
M  V30 2160 H 197.432 -3.63275 -3.25396 0
M  V30 2161 H 196.437 -5.25495 -1.61663 0
M  V30 2162 H 197.662 -6.46843 -2.0681 0
M  V30 2163 H 195.608 -5.24032 -3.94623 0
M  V30 2164 H 195.525 -6.82552 -3.25051 0
M  V30 2165 H 196.793 -6.44907 -4.37853 0
M  V30 2166 N 201.022 0.148545 -1.56898 0
M  V30 2167 C 201.97 1.20265 -1.99096 0
M  V30 2168 C 202.964 1.44559 -0.883123 0
M  V30 2169 O 204.17 1.4487 -1.0683 0
M  V30 2170 H 200.545 0.404786 -0.63376 0
M  V30 2171 H 202.516 0.82004 -2.86911 0
M  V30 2172 C 201.265 2.52886 -2.3863 0
M  V30 2173 H 200.588 2.35021 -3.23427 0
M  V30 2174 H 202.028 3.25274 -2.7198 0
M  V30 2175 C 200.487 3.13315 -1.23837 0
M  V30 2176 O 201.017 3.98077 -0.538268 0
M  V30 2177 N 199.223 2.72742 -1.00301 0
M  V30 2178 H 198.77 2.03912 -1.5741 0
M  V30 2179 H 198.728 3.13507 -0.236838 0
M  V30 2180 N 202.5 1.5196 0.417844 0
M  V30 2181 C 203.41 1.77554 1.53336 0
M  V30 2182 C 204.426 0.660655 1.6097 0
M  V30 2183 O 205.602 0.945099 1.77848 0
M  V30 2184 C 202.667 1.91291 2.89152 0
M  V30 2185 C 201.728 3.15183 2.91475 0
M  V30 2186 C 200.961 3.28256 4.20813 0
M  V30 2187 O 201.184 2.46798 5.14244 0
M  V30 2188 O 200.118 4.21356 4.29817 0
M  V30 2189 H 203.944 2.7222 1.34647 0
M  V30 2190 H 201.529 1.36698 0.602828 0
M  V30 2191 H 203.411 2.02199 3.69721 0
M  V30 2192 H 202.086 0.998129 3.07927 0
M  V30 2193 H 200.993 3.09739 2.09791 0
M  V30 2194 H 202.326 4.06414 2.77648 0
M  V30 2195 N 203.978 -0.674533 1.42435 0
M  V30 2196 C 204.925 -1.78807 1.45934 0
M  V30 2197 C 205.895 -1.63157 0.311271 0
M  V30 2198 O 207.08 -1.83707 0.515383 0
M  V30 2199 C 204.22 -3.16839 1.36773 0
M  V30 2200 C 203.333 -3.43774 2.61617 0
M  V30 2201 C 202.468 -4.71536 2.44597 0
M  V30 2202 C 201.507 -4.91505 3.64814 0
M  V30 2203 N 200.644 -6.10508 3.46734 0
M  V30 2204 H 205.484 -1.75151 2.41093 0
M  V30 2205 H 203.021 -0.85504 1.19697 0
M  V30 2206 H 204.979 -3.96606 1.29459 0
M  V30 2207 H 203.609 -3.19619 0.452089 0
M  V30 2208 H 202.661 -2.58259 2.79297 0
M  V30 2209 H 203.973 -3.54423 3.50978 0
M  V30 2210 H 203.127 -5.59393 2.3487 0
M  V30 2211 H 201.866 -4.6317 1.52726 0
M  V30 2212 H 200.871 -4.0209 3.74972 0
M  V30 2213 H 202.096 -5.01716 4.57665 0
M  V30 2214 H 200.042 -6.03315 2.5758 0
M  V30 2215 H 199.959 -6.2202 4.29682 0
M  V30 2216 H 201.227 -7.01044 3.40819 0
M  V30 2217 N 205.456 -1.28612 -0.910864 0
M  V30 2218 C 206.388 -1.08589 -2.01844 0
M  V30 2219 C 207.401 -0.0367419 -1.62759 0
M  V30 2220 O 208.59 -0.280101 -1.76289 0
M  V30 2221 C 205.69 -0.628626 -3.33019 0
M  V30 2222 C 204.863 -1.75382 -4.00699 0
M  V30 2223 C 203.922 -1.28945 -5.10156 0
M  V30 2224 O 202.948 -1.9922 -5.33198 0
M  V30 2225 N 204.15 -0.154224 -5.80295 0
M  V30 2226 H 206.915 -2.03973 -2.19579 0
M  V30 2227 H 204.476 -1.20403 -1.08234 0
M  V30 2228 H 206.468 -0.301508 -4.03575 0
M  V30 2229 H 205.038 0.232451 -3.11735 0
M  V30 2230 H 204.258 -2.25039 -3.23653 0
M  V30 2231 H 205.546 -2.50854 -4.42662 0
M  V30 2232 H 204.944 0.43194 -5.64049 0
M  V30 2233 H 203.501 0.113599 -6.51701 0
M  V30 2234 N 206.934 1.1197 -1.10907 0
M  V30 2235 C 207.884 2.15946 -0.731538 0
M  V30 2236 C 208.868 1.58758 0.261699 0
M  V30 2237 O 210.06 1.76863 0.0696722 0
M  V30 2238 C 207.189 3.42877 -0.170299 0
M  V30 2239 C 206.275 4.07037 -1.19087 0
M  V30 2240 N 206.666 4.46135 -2.38322 0
M  V30 2241 C 204.964 4.33884 -1.03252 0
M  V30 2242 C 205.665 4.96331 -3.03366 0
M  V30 2243 N 204.641 4.9214 -2.30865 0
M  V30 2244 H 208.443 2.43947 -1.63912 0
M  V30 2245 H 205.957 1.28927 -0.987505 0
M  V30 2246 H 207.954 4.16732 0.118271 0
M  V30 2247 H 206.614 3.16343 0.731935 0
M  V30 2248 H 207.625 4.38345 -2.75815 0
M  V30 2249 H 204.302 4.17084 -0.186256 0
M  V30 2250 H 205.692 5.36257 -4.04818 0
M  V30 2251 N 208.412 0.89855 1.29475 0
M  V30 2252 C 209.342 0.39201 2.30186 0
M  V30 2253 C 210.323 -0.532359 1.61555 0
M  V30 2254 O 211.508 -0.443331 1.89072 0
M  V30 2255 C 208.638 -0.382353 3.45189 0
M  V30 2256 C 207.592 0.451483 4.25612 0
M  V30 2257 C 206.918 -0.450307 5.328 0
M  V30 2258 C 208.218 1.70079 4.93832 0
M  V30 2259 H 209.912 1.23362 2.72804 0
M  V30 2260 H 207.458 0.594638 1.31149 0
M  V30 2261 H 209.411 -0.747451 4.14718 0
M  V30 2262 H 208.135 -1.25774 3.01411 0
M  V30 2263 H 206.794 0.798897 3.57789 0
M  V30 2264 H 206.442 -1.32379 4.85268 0
M  V30 2265 H 206.142 0.103902 5.87508 0
M  V30 2266 H 207.666 -0.811623 6.05182 0
M  V30 2267 H 209.08 1.40549 5.55805 0
M  V30 2268 H 207.477 2.19623 5.58467 0
M  V30 2269 H 208.547 2.43744 4.19186 0
M  V30 2270 N 209.89 -1.43072 0.660911 0
M  V30 2271 C 211.139 -2.00942 0.174735 0
M  V30 2272 C 211.452 -1.52797 -1.22117 0
M  V30 2273 O 212.658 -2.02991 -1.80297 0
M  V30 2274 C 211.114 -3.58948 0.261559 0
M  V30 2275 C 210.722 -4.16085 1.66064 0
M  V30 2276 C 212.466 -4.24173 -0.166617 0
M  V30 2277 C 210.373 -5.6641 1.70098 0
M  V30 2278 H 209.303 -0.751483 0.0615631 0
M  V30 2279 H 211.954 -1.63955 0.824069 0
M  V30 2280 H 210.336 -3.93372 -0.455421 0
M  V30 2281 H 211.51 -3.93147 2.40359 0
M  V30 2282 H 209.825 -3.6326 2.03546 0
M  V30 2283 H 212.422 -5.34471 -0.156433 0
M  V30 2284 H 212.765 -3.98647 -1.19943 0
M  V30 2285 H 213.298 -3.94659 0.498875 0
M  V30 2286 H 210.037 -5.96715 2.71315 0
M  V30 2287 H 209.557 -5.91382 1.00139 0
M  V30 2288 H 211.236 -6.30585 1.44816 0
M  V30 2289 N 211.368 -0.403325 -1.52352 0
M  V30 2290 C 212.598 0.17376 -2.05868 0
M  V30 2291 C 213.006 1.39898 -1.27378 0
M  V30 2292 O 212.349 1.80939 -0.31729 0
M  V30 2293 C 212.411 0.594756 -3.54546 0
M  V30 2294 C 212.075 -0.518926 -4.54044 0
M  V30 2295 C 213.072 -1.3807 -5.01231 0
M  V30 2296 C 210.757 -0.689961 -4.97539 0
M  V30 2297 C 212.751 -2.39852 -5.90551 0
M  V30 2298 C 210.438 -1.71109 -5.86656 0
M  V30 2299 C 211.436 -2.56378 -6.33056 0
M  V30 2300 O 211.124 -3.56743 -7.20409 0
M  V30 2301 H 210.856 0.0264951 -0.675481 0
M  V30 2302 H 213.41 -0.571179 -1.97299 0
M  V30 2303 H 211.64 1.39189 -3.60782 0
M  V30 2304 H 213.329 1.0991 -3.90736 0
M  V30 2305 H 214.095 -1.25994 -4.68349 0
M  V30 2306 H 209.974 -0.035939 -4.60986 0
M  V30 2307 H 213.518 -3.06441 -6.26689 0
M  V30 2308 H 209.415 -1.83218 -6.18952 0
M  V30 2309 H 210.183 -3.52918 -7.38506 0
M  V30 2310 N 212.846 1.57033 -0.133567 0
M  V30 2311 C 213.779 2.11824 0.848872 0
M  V30 2312 C 214.757 1.03833 1.2513 0
M  V30 2313 O 215.941 1.31579 1.34978 0
M  V30 2314 C 213.068 2.62692 2.138 0
M  V30 2315 C 212.114 3.82705 1.88253 0
M  V30 2316 S 212.947 5.2438 1.08563 0
M  V30 2317 C 214.103 5.78627 2.38624 0
M  V30 2318 H 214.336 2.94824 0.38289 0
M  V30 2319 H 211.869 1.5419 0.0804796 0
M  V30 2320 H 213.827 2.92652 2.87863 0
M  V30 2321 H 212.488 1.79847 2.57515 0
M  V30 2322 H 211.681 4.16496 2.83809 0
M  V30 2323 H 211.283 3.53437 1.22305 0
M  V30 2324 H 213.575 5.8924 3.34369 0
M  V30 2325 H 214.518 6.76443 2.09358 0
M  V30 2326 H 214.926 5.06783 2.48658 0
M  V30 2327 N 214.325 -0.140222 1.56975 0
M  V30 2328 C 215.255 -1.17456 2.01808 0
M  V30 2329 C 216.236 -1.44415 0.898794 0
M  V30 2330 O 217.421 -1.5522 1.16707 0
M  V30 2331 C 214.551 -2.50607 2.40444 0
M  V30 2332 C 213.505 -2.38155 3.55621 0
M  V30 2333 C 212.831 -3.76078 3.80091 0
M  V30 2334 C 214.131 -1.85991 4.88062 0
M  V30 2335 H 215.825 -0.801743 2.88466 0
M  V30 2336 H 213.371 -0.38422 1.38779 0
M  V30 2337 H 215.324 -3.23197 2.7041 0
M  V30 2338 H 214.048 -2.89737 1.50732 0
M  V30 2339 H 212.707 -1.68016 3.25832 0
M  V30 2340 H 212.355 -4.12656 2.87618 0
M  V30 2341 H 212.055 -3.68606 4.57606 0
M  V30 2342 H 213.579 -4.50206 4.12488 0
M  V30 2343 H 214.993 -2.4838 5.16701 0
M  V30 2344 H 213.39 -1.89393 5.6943 0
M  V30 2345 H 214.46 -0.816023 4.77984 0
M  V30 2346 N 215.803 -1.52179 -0.40978 0
M  V30 2347 C 216.751 -1.76086 -1.51975 0
M  V30 2348 C 217.745 -0.627964 -1.57331 0
M  V30 2349 O 218.951 -0.809993 -1.60745 0
M  V30 2350 H 215.326 -0.556829 -0.505416 0
M  V30 2351 H 217.297 -2.69077 -1.28996 0
M  V30 2352 C 216.046 -1.92799 -2.8935 0
M  V30 2353 H 215.369 -2.79392 -2.85972 0
M  V30 2354 H 216.809 -2.13527 -3.66309 0
M  V30 2355 C 215.268 -0.694923 -3.29655 0
M  V30 2356 O 215.798 0.13751 -4.01465 0
M  V30 2357 N 214.004 -0.53101 -2.85707 0
M  V30 2358 H 213.551 -1.20952 -2.27439 0
M  V30 2359 H 213.509 0.292718 -3.13034 0
M  V30 2360 N 217.281 0.66697 -1.42791 0
M  V30 2361 C 218.211 1.79218 -1.49677 0
M  V30 2362 C 219.192 1.66405 -0.352623 0
M  V30 2363 O 220.377 1.85708 -0.567993 0
M  V30 2364 C 217.507 3.17565 -1.40605 0
M  V30 2365 C 216.461 3.45124 -2.53127 0
M  V30 2366 C 215.787 4.83127 -2.29112 0
M  V30 2367 C 217.087 3.41236 -3.95418 0
M  V30 2368 H 218.781 1.73713 -2.43853 0
M  V30 2369 H 216.327 0.83432 -1.17367 0
M  V30 2370 H 218.28 3.96022 -1.44029 0
M  V30 2371 H 217.004 3.23767 -0.429271 0
M  V30 2372 H 215.663 2.69031 -2.49034 0
M  V30 2373 H 215.311 4.85988 -1.29709 0
M  V30 2374 H 215.011 5.02528 -3.04531 0
M  V30 2375 H 216.535 5.63859 -2.34297 0
M  V30 2376 H 217.949 4.09651 -4.01073 0
M  V30 2377 H 216.346 3.72173 -4.70752 0
M  V30 2378 H 217.416 2.39665 -4.21532 0
M  V30 2379 N 218.759 1.29093 0.90403 0
M  V30 2380 C 219.709 1.10482 1.99443 0
M  V30 2381 C 220.693 0.0255401 1.6088 0
M  V30 2382 O 221.885 0.24677 1.75271 0
M  V30 2383 C 219.014 0.778882 3.34348 0
M  V30 2384 C 218.1 1.89749 3.79284 0
M  V30 2385 N 218.491 3.14045 3.96497 0
M  V30 2386 C 216.789 1.78955 4.08523 0
M  V30 2387 C 217.49 3.86996 4.34292 0
M  V30 2388 N 216.466 3.14909 4.43095 0
M  V30 2389 H 220.268 2.04778 2.10815 0
M  V30 2390 H 217.782 1.20155 1.09255 0
M  V30 2391 H 219.779 0.62661 4.12164 0
M  V30 2392 H 218.439 -0.156205 3.24324 0
M  V30 2393 H 219.45 3.49548 3.82148 0
M  V30 2394 H 216.127 0.926886 4.07081 0
M  V30 2395 H 217.517 4.93941 4.55491 0
M  V30 2396 N 220.237 -1.11381 1.11499 0
M  V30 2397 C 221.653 -1.35143 0.849031 0
M  V30 2398 C 221.853 -1.94515 -0.525938 0
M  V30 2399 O 220.909 -2.1785 -1.27662 0
M  V30 2400 C 222.222 -2.28249 1.95762 0
M  V30 2401 C 223.77 -2.41812 1.98736 0
M  V30 2402 C 224.245 -3.3824 3.088 0
M  V30 2403 N 225.736 -3.45803 3.08179 0
M  V30 2404 C 226.471 -4.20358 3.89982 0
M  V30 2405 N 225.967 -4.97884 4.8175 0
M  V30 2406 N 227.76 -4.15877 3.78157 0
M  V30 2407 H 219.911 -0.712062 2.00109 0
M  V30 2408 H 222.174 -0.376025 0.870235 0
M  V30 2409 H 221.88 -1.91817 2.94787 0
M  V30 2410 H 221.754 -3.28473 1.85433 0
M  V30 2411 H 224.141 -2.77518 1.00338 0
M  V30 2412 H 224.222 -1.41437 2.13141 0
M  V30 2413 H 223.866 -3.03261 4.07425 0
M  V30 2414 H 223.796 -4.38471 2.91635 0
M  V30 2415 H 226.287 -2.90506 2.41691 0
M  V30 2416 H 226.6 -5.52142 5.40702 0
M  V30 2417 H 224.945 -4.97043 4.85771 0
M  V30 2418 H 228.136 -3.544 3.05808 0
M  V30 2419 H 228.309 -4.73723 4.42143 0
M  V30 2420 N 221.715 -0.905404 -1.28997 0
M  V30 2421 C 223.126 -0.581953 -1.77398 0
M  V30 2422 C 223.477 0.902552 -1.74208 0
M  V30 2423 O 222.602 1.70584 -1.33154 0
M  V30 2424 C 223.197 -1.04961 -3.22131 0
M  V30 2425 C 221.756 -0.777229 -3.68288 0
M  V30 2426 C 220.903 -1.22109 -2.48967 0
M  V30 2427 H 223.854 -1.08754 -1.15578 0
M  V30 2428 H 223.875 -0.387387 -3.78523 0
M  V30 2429 H 223.387 -2.13008 -3.24421 0
M  V30 2430 H 221.488 0.290383 -3.71467 0
M  V30 2431 H 221.601 -1.37911 -4.58822 0
M  V30 2432 H 219.965 -0.639971 -2.46529 0
M  V30 2433 H 220.748 -2.30972 -2.53982 0
M  V30 2434 N 223.193 1.4272 -0.668489 0
M  V30 2435 C 224.421 2.05966 -0.196348 0
M  V30 2436 C 224.836 1.50191 1.14403 0
M  V30 2437 O 224.193 0.639208 1.7094 0
M  V30 2438 C 224.244 3.61314 -0.115815 0
M  V30 2439 O 223.965 4.1502 -1.40322 0
M  V30 2440 C 225.466 4.41663 0.380579 0
M  V30 2441 H 222.686 0.663954 -0.0969829 0
M  V30 2442 H 225.23 1.82966 -0.913446 0
M  V30 2443 H 223.385 3.83448 0.551931 0
M  V30 2444 H 223.799 5.08832 -1.27243 0
M  V30 2445 H 225.273 5.5065 0.385848 0
M  V30 2446 H 225.75 4.15792 1.41471 0
M  V30 2447 H 226.356 4.24534 -0.255209 0
M  V30 2448 N 224.671 0.411399 1.52136 0
M  V30 2449 C 225.911 -0.163143 2.03748 0
M  V30 2450 C 226.275 -1.42187 1.29022 0
M  V30 2451 O 227.476 -2.075 1.70872 0
M  V30 2452 C 225.747 -0.402651 3.55125 0
M  V30 2453 S 227.306 -0.944315 4.28519 0
M  V30 2454 H 224.124 -0.0439833 0.709638 0
M  V30 2455 H 226.726 0.56484 1.87163 0
M  V30 2456 H 225.43 0.520212 4.0709 0
M  V30 2457 H 224.961 -1.15844 3.75957 0
M  V30 2458 H 226.976 -2.22463 4.43536 0
M  V30 2459 N 226.149 -1.5696 0.141893 0
M  V30 2460 C 227.398 -1.95135 -0.510427 0
M  V30 2461 C 227.711 -1.02896 -1.66348 0
M  V30 2462 O 228.917 -1.30629 -2.38009 0
M  V30 2463 C 227.373 -3.46876 -0.959427 0
M  V30 2464 C 226.981 -4.47691 0.166419 0
M  V30 2465 C 228.725 -3.93927 -1.58183 0
M  V30 2466 C 226.632 -5.90636 -0.300565 0
M  V30 2467 H 225.562 -0.728494 -0.194454 0
M  V30 2468 H 228.213 -1.8211 0.22542 0
M  V30 2469 H 226.595 -3.55215 -1.75038 0
M  V30 2470 H 227.769 -4.51043 0.94325 0
M  V30 2471 H 226.084 -4.10527 0.696905 0
M  V30 2472 H 228.681 -4.98158 -1.94275 0
M  V30 2473 H 229.024 -3.3519 -2.46888 0
M  V30 2474 H 229.557 -3.88484 -0.855863 0
M  V30 2475 H 226.296 -6.5318 0.550989 0
M  V30 2476 H 225.816 -5.90655 -1.04338 0
M  V30 2477 H 227.495 -6.42588 -0.754265 0
M  V30 2478 N 227.627 0.131896 -1.57047 0
M  V30 2479 C 228.873 0.843179 -1.84441 0
M  V30 2480 C 229.206 1.80129 -0.725749 0
M  V30 2481 O 228.481 1.92624 0.269469 0
M  V30 2482 C 228.764 1.60442 -3.22382 0
M  V30 2483 C 228.617 0.666782 -4.4483 0
M  V30 2484 C 229.936 2.56354 -3.5773 0
M  V30 2485 H 227.055 0.305081 -0.670891 0
M  V30 2486 H 229.697 0.107839 -1.89694 0
M  V30 2487 H 227.847 2.23128 -3.18035 0
M  V30 2488 H 229.519 0.0497646 -4.61273 0
M  V30 2489 H 227.762 -0.022609 -4.33794 0
M  V30 2490 H 228.433 1.23579 -5.37989 0
M  V30 2491 H 230.909 2.0378 -3.62785 0
M  V30 2492 H 229.785 3.06657 -4.5525 0
M  V30 2493 H 230.046 3.38419 -2.84473 0
M  V30 2494 N 229.106 1.52395 0.401703 0
M  V30 2495 C 230.522 1.41363 0.740864 0
M  V30 2496 C 230.722 0.523982 1.94568 0
M  V30 2497 O 229.778 -0.00741204 2.52499 0
M  V30 2498 C 231.091 2.84011 0.987847 0
M  V30 2499 C 232.639 2.93404 1.09011 0
M  V30 2500 C 233.114 4.37036 1.3698 0
M  V30 2501 N 234.605 4.40304 1.43829 0
M  V30 2502 C 235.34 5.48508 1.67112 0
M  V30 2503 N 234.836 6.66819 1.87949 0
M  V30 2504 N 236.629 5.36034 1.69187 0
M  V30 2505 H 228.78 2.08765 -0.391262 0
M  V30 2506 H 231.043 0.941265 -0.112798 0
M  V30 2507 H 230.749 3.51265 0.174835 0
M  V30 2508 H 230.623 3.25502 1.906 0
M  V30 2509 H 233.01 2.26325 1.8937 0
M  V30 2510 H 233.091 2.55359 0.15015 0
M  V30 2511 H 232.735 5.04676 0.571353 0
M  V30 2512 H 232.665 4.72623 2.3224 0
M  V30 2513 H 235.156 3.55024 1.29486 0
M  V30 2514 H 235.469 7.45063 2.05185 0
M  V30 2515 H 233.814 6.6987 1.85199 0
M  V30 2516 H 237.005 4.42579 1.52451 0
M  V30 2517 H 237.178 6.20434 1.86993 0
M  V30 2518 N 230.584 -0.659388 1.43143 0
M  V30 2519 C 231.547 -1.75432 1.47501 0
M  V30 2520 C 232.547 -1.56707 0.360512 0
M  V30 2521 O 233.737 -1.62717 0.622002 0
M  V30 2522 C 230.869 -3.14239 1.32162 0
M  V30 2523 H 232.062 -1.7295 2.45006 0
M  V30 2524 H 229.615 -0.870469 1.29817 0
M  V30 2525 H 230.35 -3.22336 0.356401 0
M  V30 2526 H 230.135 -3.29235 2.12948 0
M  V30 2527 H 231.625 -3.94094 1.3813 0
M  V30 2528 N 232.062 -1.29571 -0.897171 0
M  V30 2529 C 232.994 -1.10724 -2.00681 0
M  V30 2530 C 234.007 -0.0540026 -1.6271 0
M  V30 2531 O 235.196 -0.298783 -1.75982 0
M  V30 2532 C 232.296 -0.663912 -3.32333 0
M  V30 2533 C 231.469 -1.79622 -3.98816 0
M  V30 2534 C 230.528 -1.34349 -5.0876 0
M  V30 2535 O 229.554 -2.04864 -5.31055 0
M  V30 2536 N 230.756 -0.215764 -5.80099 0
M  V30 2537 H 233.521 -2.06291 -2.17403 0
M  V30 2538 H 231.082 -1.21544 -1.06951 0
M  V30 2539 H 233.074 -0.344295 -4.03233 0
M  V30 2540 H 231.644 0.199375 -3.11964 0
M  V30 2541 H 230.864 -2.28459 -3.21248 0
M  V30 2542 H 232.152 -2.55535 -4.39976 0
M  V30 2543 H 231.55 0.372091 -5.64475 0
M  V30 2544 H 230.107 0.0444707 -6.51785 0
M  V30 2545 N 233.54 1.10788 -1.12088 0
M  V30 2546 C 234.488 2.19111 -0.780587 0
M  V30 2547 C 235.482 1.67818 0.230961 0
M  V30 2548 O 236.688 1.79777 0.0895427 0
M  V30 2549 H 233.063 0.714477 -0.234578 0
M  V30 2550 H 235.034 2.45055 -1.70266 0
M  V30 2551 C 233.783 3.46818 -0.24747 0
M  V30 2552 H 233.106 3.86646 -1.01712 0
M  V30 2553 H 234.546 4.23973 -0.0476291 0
M  V30 2554 C 233.005 3.20968 1.02378 0
M  V30 2555 O 233.535 3.42298 2.10226 0
M  V30 2556 N 231.741 2.74658 0.949271 0
M  V30 2557 H 231.288 2.57501 0.0715173 0
M  V30 2558 H 231.246 2.57739 1.80049 0
M  V30 2559 N 235.018 0.912232 1.28515 0
M  V30 2560 C 236.266 0.543523 1.94654 0
M  V30 2561 C 236.587 -0.9155 1.72173 0
M  V30 2562 O 235.857 -1.64708 1.06058 0
M  V30 2563 H 234.437 0.198017 0.720277 0
M  V30 2564 H 237.099 1.16126 1.56527 0
M  V30 2565 H 236.195 0.736684 3.03281 0
M  V30 2566 N 236.496 -1.42363 0.676048 0
M  V30 2567 C 237.912 -1.55811 0.345718 0
M  V30 2568 C 238.112 -1.65544 -1.14879 0
M  V30 2569 O 237.168 -1.62306 -1.93424 0
M  V30 2570 C 238.481 -2.80746 1.07713 0
M  V30 2571 C 240.029 -2.9452 1.05958 0
M  V30 2572 C 240.504 -4.22318 1.77233 0
M  V30 2573 N 241.995 -4.29233 1.74108 0
M  V30 2574 C 242.73 -5.26935 2.26113 0
M  V30 2575 N 242.226 -6.30783 2.86505 0
M  V30 2576 N 244.019 -5.18741 2.1648 0
M  V30 2577 H 236.17 -1.34289 1.6456 0
M  V30 2578 H 238.433 -0.646506 0.69335 0
M  V30 2579 H 238.139 -2.79696 2.13221 0
M  V30 2580 H 238.013 -3.71676 0.64316 0
M  V30 2581 H 240.4 -2.95097 0.0128255 0
M  V30 2582 H 240.481 -2.04817 1.53244 0
M  V30 2583 H 240.125 -4.22502 2.81877 0
M  V30 2584 H 240.055 -5.10958 1.27396 0
M  V30 2585 H 242.546 -3.54814 1.30059 0
M  V30 2586 H 242.859 -7.01691 3.23805 0
M  V30 2587 H 241.204 -6.31341 2.90575 0
M  V30 2588 H 244.395 -4.36533 1.68987 0
M  V30 2589 H 244.568 -5.94721 2.57316 0
M  V30 2590 N 237.974 -0.419461 -1.51915 0
M  V30 2591 C 239.202 0.152136 -2.0634 0
M  V30 2592 C 239.617 1.37988 -1.28859 0
M  V30 2593 O 238.974 1.79243 -0.343232 0
M  V30 2594 C 239.025 0.492266 -3.58133 0
M  V30 2595 O 238.746 -0.686736 -4.32684 0
M  V30 2596 C 240.247 1.11648 -4.2901 0
M  V30 2597 H 237.467 0.0158325 -0.670813 0
M  V30 2598 H 240.011 -0.593394 -1.95702 0
M  V30 2599 H 238.166 1.18769 -3.68745 0
M  V30 2600 H 238.58 -0.400341 -5.2297 0
M  V30 2601 H 240.054 1.3046 -5.36362 0
M  V30 2602 H 240.531 2.09251 -3.86148 0
M  V30 2603 H 241.137 0.460958 -4.22795 0
M  V30 2604 N 239.452 1.56882 -0.150215 0
M  V30 2605 C 240.863 1.82995 0.370076 0
M  V30 2606 C 241.214 1.06907 1.64515 0
M  V30 2607 O 240.339 0.315369 2.1409 0
M  V30 2608 C 240.934 3.31942 0.678208 0
M  V30 2609 C 239.493 3.58625 1.14301 0
M  V30 2610 C 238.64 2.76792 0.167778 0
M  V30 2611 H 241.591 1.54209 -0.374858 0
M  V30 2612 H 241.612 3.48272 1.53254 0
M  V30 2613 H 241.124 3.87294 -0.249991 0
M  V30 2614 H 239.225 3.08664 2.08704 0
M  V30 2615 H 239.338 4.67073 1.06676 0
M  V30 2616 H 237.702 2.45972 0.661037 0
M  V30 2617 H 238.485 3.34916 -0.754069 0
M  V30 2618 N 240.93 -0.123565 1.57115 0
M  V30 2619 C 241.84 -1.17074 2.033 0
M  V30 2620 C 242.856 -1.4561 0.952559 0
M  V30 2621 O 244.032 -1.56817 1.26374 0
M  V30 2622 C 241.097 -2.47857 2.42421 0
M  V30 2623 C 240.158 -2.26758 3.64526 0
M  V30 2624 C 239.391 -3.51305 4.01771 0
M  V30 2625 O 239.614 -4.5843 3.39409 0
M  V30 2626 O 238.548 -3.42578 4.94898 0
M  V30 2627 H 242.374 -0.808555 2.92739 0
M  V30 2628 H 239.959 -0.334027 1.45618 0
M  V30 2629 H 241.841 -3.2492 2.68338 0
M  V30 2630 H 240.516 -2.83558 1.5613 0
M  V30 2631 H 239.423 -1.47569 3.43765 0
M  V30 2632 H 240.756 -1.95963 4.51508 0
M  V30 2633 N 242.408 -1.52605 -0.393616 0
M  V30 2634 C 243.685 -1.58001 -1.15304 0
M  V30 2635 C 244.065 -0.370385 -2.07825 0
M  V30 2636 O 243.413 0.641638 -2.19306 0
M  V30 2637 C 243.623 -2.91652 -1.91677 0
M  V30 2638 C 244.971 -3.4522 -2.47201 0
M  V30 2639 O 245.995 -2.93495 -2.01839 0
M  V30 2640 O 244.854 -4.35579 -3.3005 0
M  V30 2641 H 241.948 -0.637068 -0.527327 0
M  V30 2642 H 244.494 -1.64939 -0.399141 0
M  V30 2643 H 243.266 -3.71136 -1.23992 0
M  V30 2644 H 242.889 -2.88077 -2.74039 0
M  V30 2645 N 243.887 0.651787 -1.4349 0
M  V30 2646 C 244.797 1.79368 -1.5121 0
M  V30 2647 C 245.813 1.69361 -0.399093 0
M  V30 2648 O 246.989 1.90505 -0.653431 0
M  V30 2649 C 244.054 3.15653 -1.43401 0
M  V30 2650 C 243.115 3.37446 -2.65384 0
M  V30 2651 C 242.348 4.67229 -2.57939 0
M  V30 2652 O 242.571 5.46676 -1.62792 0
M  V30 2653 O 241.505 4.90773 -3.48462 0
M  V30 2654 H 245.331 1.7581 -2.47638 0
M  V30 2655 H 242.916 0.810447 -1.25507 0
M  V30 2656 H 244.798 3.96935 -1.41494 0
M  V30 2657 H 243.473 3.19798 -0.501085 0
M  V30 2658 H 242.38 2.55923 -2.72863 0
M  V30 2659 H 243.713 3.38148 -3.57654 0
M  V30 2660 N 245.365 1.30045 0.890287 0
M  V30 2661 C 246.781 1.08261 1.17268 0
M  V30 2662 C 246.981 -0.160063 2.00863 0
M  V30 2663 O 246.037 -0.855181 2.37577 0
M  V30 2664 C 247.35 2.34323 1.8845 0
M  V30 2665 C 248.898 2.39735 2.01237 0
M  V30 2666 C 249.373 3.65625 2.7583 0
M  V30 2667 N 250.864 3.66402 2.83379 0
M  V30 2668 C 251.599 4.60498 3.41657 0
M  V30 2669 N 251.095 5.64933 4.01026 0
M  V30 2670 N 252.888 4.48051 3.39421 0
M  V30 2671 H 245.039 2.09777 0.332762 0
M  V30 2672 H 247.302 0.92446 0.209948 0
M  V30 2673 H 247.008 3.2498 1.34465 0
M  V30 2674 H 246.882 2.4256 2.88867 0
M  V30 2675 H 249.269 1.4956 2.54393 0
M  V30 2676 H 249.35 2.35476 0.999232 0
M  V30 2677 H 248.994 4.56156 2.23347 0
M  V30 2678 H 248.924 3.67144 3.77509 0
M  V30 2679 H 251.415 2.90896 2.41222 0
M  V30 2680 H 251.728 6.32841 4.43545 0
M  V30 2681 H 250.073 5.68732 3.99461 0
M  V30 2682 H 253.264 3.65649 2.92264 0
M  V30 2683 H 253.437 5.21565 3.84544 0
M  V30 2684 N 246.843 -1.10192 1.12674 0
M  V30 2685 C 247.791 -2.18694 0.792196 0
M  V30 2686 C 248.785 -1.67938 -0.222058 0
M  V30 2687 O 249.991 -1.79822 -0.0800074 0
M  V30 2688 H 246.366 -0.713223 0.238364 0
M  V30 2689 H 248.337 -2.44149 1.71564 0
M  V30 2690 C 247.086 -3.46682 0.265859 0
M  V30 2691 H 246.409 -3.86101 1.03761 0
M  V30 2692 H 247.849 -4.23942 0.0701128 0
M  V30 2693 C 246.308 -3.21506 -1.00675 0
M  V30 2694 O 246.838 -3.43408 -2.08408 0
M  V30 2695 N 245.044 -2.75158 -0.934692 0
M  V30 2696 H 244.591 -2.57535 -0.0578604 0
M  V30 2697 H 244.549 -2.58691 -1.7868 0
M  V30 2698 N 248.321 -0.919034 -1.28029 0
M  V30 2699 C 249.251 -0.428581 -2.29533 0
M  V30 2700 C 250.232 0.50659 -1.62381 0
M  V30 2701 O 251.417 0.413195 -1.89753 0
M  V30 2702 C 248.547 0.327388 -3.45753 0
M  V30 2703 C 247.501 -0.519137 -4.2484 0
M  V30 2704 C 246.827 0.365486 -5.33449 0
M  V30 2705 C 248.127 -1.77914 -4.91064 0
M  V30 2706 H 249.821 -1.27687 -2.70807 0
M  V30 2707 H 247.367 -0.615428 -1.30186 0
M  V30 2708 H 249.32 0.681378 -4.15855 0
M  V30 2709 H 248.044 1.20963 -3.03374 0
M  V30 2710 H 246.703 -0.855717 -3.56473 0
M  V30 2711 H 246.351 1.24642 -4.87312 0
M  V30 2712 H 246.051 -0.197356 -5.87268 0
M  V30 2713 H 247.575 0.715241 -6.06396 0
M  V30 2714 H 248.989 -1.49374 -5.53498 0
M  V30 2715 H 247.386 -2.2848 -5.54903 0
M  V30 2716 H 248.456 -2.50382 -4.15255 0
M  V30 2717 N 249.799 1.42003 -0.683588 0
M  V30 2718 C 251.046 2.01413 -0.209514 0
M  V30 2719 C 251.374 1.54088 1.1869 0
M  V30 2720 O 250.629 0.737591 1.81268 0
M  V30 2721 C 250.928 3.56827 -0.202357 0
M  V30 2722 C 250.594 4.23617 -1.54464 0
M  V30 2723 C 249.256 4.41577 -1.91215 0
M  V30 2724 C 251.608 4.61178 -2.42826 0
M  V30 2725 C 248.936 4.9437 -3.15935 0
M  V30 2726 C 251.288 5.15355 -3.66867 0
M  V30 2727 C 249.952 5.31528 -4.03776 0
M  V30 2728 H 249.222 0.737023 -0.0766668 0
M  V30 2729 H 251.869 1.70067 -0.880312 0
M  V30 2730 H 250.174 3.87892 0.551969 0
M  V30 2731 H 251.871 4.00588 0.181793 0
M  V30 2732 H 248.461 4.10004 -1.24877 0
M  V30 2733 H 252.645 4.46968 -2.15717 0
M  V30 2734 H 247.901 5.05076 -3.44541 0
M  V30 2735 H 252.075 5.43402 -4.35531 0
M  V30 2736 H 249.702 5.72199 -5.00492 0
M  V30 2737 N 251.277 0.427512 1.51691 0
M  V30 2738 C 252.526 -0.143679 2.01188 0
M  V30 2739 C 252.839 -1.44642 1.31674 0
M  V30 2740 O 254.045 -2.09997 1.72086 0
M  V30 2741 C 252.501 -0.306602 3.58592 0
M  V30 2742 C 252.109 0.985125 4.37035 0
M  V30 2743 C 253.853 -0.832091 4.16265 0
M  V30 2744 C 251.76 0.788382 5.86122 0
M  V30 2745 H 250.69 -0.0574701 0.751807 0
M  V30 2746 H 253.341 0.555772 1.74881 0
M  V30 2747 H 251.723 -1.06882 3.81303 0
M  V30 2748 H 252.897 1.75492 4.26074 0
M  V30 2749 H 251.212 1.4384 3.90767 0
M  V30 2750 H 253.809 -0.995617 5.25349 0
M  V30 2751 H 254.152 -1.81186 3.74803 0
M  V30 2752 H 254.685 -0.128444 3.97593 0
M  V30 2753 H 251.424 1.74025 6.31978 0
M  V30 2754 H 250.944 0.0582143 5.99772 0
M  V30 2755 H 252.623 0.437722 6.45518 0
M  V30 2756 N 252.755 -1.56801 0.158532 0
M  V30 2757 C 253.687 -2.14488 -0.807923 0
M  V30 2758 C 254.7 -1.09721 -1.20271 0
M  V30 2759 O 255.889 -1.36956 -1.14478 0
M  V30 2760 C 252.989 -2.66217 -2.09718 0
M  V30 2761 C 252.162 -3.95507 -1.86796 0
M  V30 2762 C 251.221 -4.3243 -2.99818 0
M  V30 2763 O 250.247 -5.00543 -2.71008 0
M  V30 2764 N 251.449 -3.92947 -4.27285 0
M  V30 2765 H 254.214 -2.98042 -0.314816 0
M  V30 2766 H 251.775 -1.61881 -0.0246692 0
M  V30 2767 H 253.767 -2.87924 -2.84398 0
M  V30 2768 H 252.337 -1.87324 -2.50257 0
M  V30 2769 H 251.557 -3.82309 -0.96089 0
M  V30 2770 H 252.845 -4.79972 -1.68833 0
M  V30 2771 H 252.243 -3.38087 -4.53557 0
M  V30 2772 H 250.8 -4.19681 -4.9871 0
M  V30 2773 N 254.233 0.115231 -1.57178 0
M  V30 2774 C 255.165 1.16694 -1.97269 0
M  V30 2775 C 256.178 1.37445 -0.872502 0
M  V30 2776 O 257.367 1.36454 -1.15077 0
M  V30 2777 C 254.467 2.52627 -2.25905 0
M  V30 2778 C 253.64 2.52427 -3.57211 0
M  V30 2779 C 252.699 3.70134 -3.74016 0
M  V30 2780 O 251.725 3.53546 -4.46087 0
M  V30 2781 N 252.927 4.88844 -3.13068 0
M  V30 2782 H 255.692 0.82588 -2.88096 0
M  V30 2783 H 253.253 0.304461 -1.59011 0
M  V30 2784 H 255.245 3.29937 -2.34359 0
M  V30 2785 H 253.815 2.789 -1.41186 0
M  V30 2786 H 253.035 1.60805 -3.5991 0
M  V30 2787 H 254.323 2.49353 -4.43509 0
M  V30 2788 H 253.721 5.05225 -2.54489 0
M  V30 2789 H 252.278 5.63817 -3.27037 0
M  V30 2790 N 255.711 1.52812 0.385517 0
M  V30 2791 C 256.96 1.67249 1.12741 0
M  V30 2792 C 257.273 0.4205 1.91027 0
M  V30 2793 O 258.479 0.445064 2.67827 0
M  V30 2794 C 256.935 2.95583 2.05326 0
M  V30 2795 C 256.543 4.27974 1.32447 0
M  V30 2796 C 258.287 3.19386 2.7963 0
M  V30 2797 C 256.194 5.47412 2.23818 0
M  V30 2798 H 255.124 0.6231 0.424573 0
M  V30 2799 H 257.775 1.79309 0.389924 0
M  V30 2800 H 256.157 2.77277 2.82725 0
M  V30 2801 H 257.331 4.56844 0.602495 0
M  V30 2802 H 255.646 4.10459 0.700885 0
M  V30 2803 H 258.243 4.05801 3.48181 0
M  V30 2804 H 258.586 2.34604 3.43899 0
M  V30 2805 H 259.119 3.38274 2.09322 0
M  V30 2806 H 255.858 6.34612 1.64157 0
M  V30 2807 H 255.378 5.22849 2.93921 0
M  V30 2808 H 257.057 5.81423 2.83824 0
M  V30 2809 N 257.189 -0.644168 1.43834 0
M  V30 2810 C 258.136 -1.75671 1.49694 0
M  V30 2811 C 259.106 -1.6246 0.345809 0
M  V30 2812 O 260.291 -1.82573 0.554234 0
M  V30 2813 C 257.431 -3.13867 1.43463 0
M  V30 2814 C 256.544 -3.38147 2.6885 0
M  V30 2815 C 255.679 -4.66241 2.54544 0
M  V30 2816 C 254.718 -4.83657 3.75157 0
M  V30 2817 N 253.855 -6.03016 3.59605 0
M  V30 2818 H 258.695 -1.69998 2.44754 0
M  V30 2819 H 256.232 -0.829458 1.21484 0
M  V30 2820 H 258.19 -3.9377 1.37843 0
M  V30 2821 H 256.82 -3.18588 0.519783 0
M  V30 2822 H 255.872 -2.52276 2.84712 0
M  V30 2823 H 257.184 -3.46899 3.58417 0
M  V30 2824 H 256.338 -5.54285 2.46683 0
M  V30 2825 H 255.077 -4.59826 1.62516 0
M  V30 2826 H 254.082 -3.94046 3.83416 0
M  V30 2827 H 255.307 -4.91896 4.68204 0
M  V30 2828 H 253.253 -5.97715 2.7032 0
M  V30 2829 H 253.17 -6.12766 4.42779 0
M  V30 2830 H 254.438 -6.93657 3.55613 0
M  V30 2831 N 258.668 -1.30515 -0.883378 0
M  V30 2832 C 259.578 -1.18959 -2.02203 0
M  V30 2833 C 260.594 -0.109172 -1.73657 0
M  V30 2834 O 261.77 -0.324413 -1.9877 0
M  V30 2835 C 258.835 -0.883871 -3.35244 0
M  V30 2836 C 257.896 -2.04982 -3.77201 0
M  V30 2837 C 257.129 -1.75859 -5.03894 0
M  V30 2838 O 257.352 -0.687276 -5.66244 0
M  V30 2839 O 256.286 -2.61146 -5.42297 0
M  V30 2840 H 260.112 -2.14616 -2.1488 0
M  V30 2841 H 257.697 -1.10124 -1.0096 0
M  V30 2842 H 259.579 -0.728644 -4.15053 0
M  V30 2843 H 258.254 0.0427798 -3.23672 0
M  V30 2844 H 257.161 -2.26038 -2.9809 0
M  V30 2845 H 258.494 -2.95825 -3.93381 0
M  V30 2846 N 260.146 1.09593 -1.13257 0
M  V30 2847 C 261.394 1.81375 -0.891492 0
M  V30 2848 C 261.715 1.86049 0.584009 0
M  V30 2849 O 260.985 1.34481 1.42449 0
M  V30 2850 H 259.565 0.671708 -0.326828 0
M  V30 2851 H 262.227 1.3256 -1.42877 0
M  V30 2852 H 261.323 2.84612 -1.28071 0
M  V30 2853 N 261.624 0.925811 1.2754 0
M  V30 2854 C 262.852 0.581509 1.9856 0
M  V30 2855 C 263.267 -0.840041 1.69082 0
M  V30 2856 O 262.624 -1.55805 0.950312 0
M  V30 2857 C 262.675 0.795589 3.52637 0
M  V30 2858 O 262.396 2.16121 3.81082 0
M  V30 2859 C 263.897 0.459744 4.4091 0
M  V30 2860 H 261.117 0.220538 0.633722 0
M  V30 2861 H 263.661 1.24232 1.6244 0
M  V30 2862 H 261.816 0.18161 3.86974 0
M  V30 2863 H 262.23 2.2098 4.75676 0
M  V30 2864 H 263.704 0.660244 5.48037 0
M  V30 2865 H 264.181 -0.604625 4.35018 0
M  V30 2866 H 264.787 1.05178 4.12089 0
M  V30 2867 N 263.102 -1.41638 0.69111 0
M  V30 2868 C 264.032 -2.3347 0.037248 0
M  V30 2869 C 265.013 -1.51575 -0.771947 0
M  V30 2870 O 266.198 -1.80126 -0.72582 0
M  V30 2871 C 263.328 -3.35354 -0.903064 0
M  V30 2872 C 262.282 -4.27526 -0.201288 0
M  V30 2873 C 261.608 -5.19747 -1.25565 0
M  V30 2874 C 262.908 -5.13959 0.929689 0
M  V30 2875 H 264.602 -2.88397 0.804227 0
M  V30 2876 H 262.148 -1.38669 0.388189 0
M  V30 2877 H 264.101 -3.98519 -1.36969 0
M  V30 2878 H 262.825 -2.78767 -1.70166 0
M  V30 2879 H 261.484 -3.65779 0.245265 0
M  V30 2880 H 261.132 -4.59479 -2.04666 0
M  V30 2881 H 260.832 -5.8225 -0.791128 0
M  V30 2882 H 262.356 -5.85789 -1.72288 0
M  V30 2883 H 263.77 -5.70718 0.543546 0
M  V30 2884 H 262.167 -5.85379 1.32103 0
M  V30 2885 H 263.237 -4.51389 1.77133 0
M  V30 2886 N 264.58 -0.43555 -1.51462 0
M  V30 2887 C 265.512 0.41257 -2.25456 0
M  V30 2888 C 266.525 0.987822 -1.29406 0
M  V30 2889 O 267.714 0.882266 -1.55172 0
M  V30 2890 C 264.814 1.58894 -2.99342 0
M  V30 2891 C 263.987 1.13288 -4.22474 0
M  V30 2892 C 263.046 2.17917 -4.78956 0
M  V30 2893 O 262.072 1.77425 -5.40841 0
M  V30 2894 N 263.274 3.50382 -4.62832 0
M  V30 2895 H 266.039 -0.221603 -2.9888 0
M  V30 2896 H 263.6 -0.264342 -1.59727 0
M  V30 2897 H 265.592 2.28508 -3.34015 0
M  V30 2898 H 264.162 2.12849 -2.28941 0
M  V30 2899 H 263.382 0.263881 -3.93316 0
M  V30 2900 H 264.67 0.805542 -5.02383 0
M  V30 2901 H 264.068 3.86013 -4.13534 0
M  V30 2902 H 262.625 4.15895 -5.01871 0
M  V30 2903 N 266.058 1.56714 -0.166846 0
M  V30 2904 C 267.283 2.01557 0.488833 0
M  V30 2905 C 267.708 1.0463 1.56314 0
M  V30 2906 O 267.066 0.0251304 1.81283 0
M  V30 2907 C 267.114 3.4503 1.04818 0
M  V30 2908 O 266.218 3.51163 2.16236 0
M  V30 2909 H 265.559 0.653516 0.117526 0
M  V30 2910 H 268.089 2.02818 -0.269421 0
M  V30 2911 H 268.099 3.84243 1.37191 0
M  V30 2912 H 266.774 4.15077 0.261572 0
M  V30 2913 H 265.351 3.23807 1.84942 0
M  V30 2914 O 267.575 0.0288451 1.61474 0
M  V30 2915 H 268.266 -0.583771 1.84694 0
M  V30 END ATOM
M  V30 BEGIN BOND
M  V30 END BOND
M  V30 END CTAB
M  END
$$$$
