drugbank_target|P18925 Dihydrolipoyl dehydrogenase (DB03147)
 OpenBabel12092120263D

  0  0  0     0  0            999 V3000
M  V30 BEGIN CTAB
M  V30 COUNTS 7068 7119 0 0 0
M  V30 BEGIN ATOM
M  V30 1 H -0.908 1.98254 -0.117106 0
M  V30 2 N 0 1.576 0 0
M  V30 3 C 0.933 2.03868 1.02534 0
M  V30 4 C 1.911 0.928543 1.3348 0
M  V30 5 O 3.095 1.19667 1.45644 0
M  V30 6 C 0.222 2.43627 2.35294 0
M  V30 7 C -0.732 3.65373 2.2001 0
M  V30 8 S 0.101 5.13292 1.52614 0
M  V30 9 C 1.257 5.56322 2.86805 0
M  V30 10 H 1.49 2.90518 0.631377 0
M  V30 11 H -0.977 1.52953 0.210867 0
M  V30 12 H 0.981 2.67203 3.11629 0
M  V30 13 H -0.358 1.57376 2.7183 0
M  V30 14 H -1.165 3.90944 3.18086 0
M  V30 15 H -1.563 3.418 1.51819 0
M  V30 16 H 0.729 5.58782 3.83104 0
M  V30 17 H 1.672 6.56266 2.65933 0
M  V30 18 H 2.08 4.83886 2.90714 0
M  V30 19 N 1.4781 -0.272755 1.55222 0
M  V30 20 C 2.7031 -1.02683 1.80197 0
M  V30 21 C 3.1281 -1.79142 0.573551 0
M  V30 22 O 2.4861 -1.74917 -0.476849 0
M  V30 23 C 2.5341 -1.9609 3.02624 0
M  V30 24 O 1.6381 -3.04863 2.77727 0
M  V30 25 H 0.9791 -0.293557 0.595584 0
M  V30 26 H 3.5091 -0.30159 2.02365 0
M  V30 27 H 3.5191 -2.38039 3.31363 0
M  V30 28 H 2.1941 -1.39851 3.91682 0
M  V30 29 H 0.7711 -2.67228 2.60084 0
M  V30 30 N 2.9562 -1.48159 -0.537278 0
M  V30 31 C 3.8882 -1.58218 -1.65831 0
M  V30 32 C 4.9012 -0.466948 -1.5596 0
M  V30 33 O 6.0902 -0.73747 -1.62553 0
M  V30 34 C 3.1902 -1.48906 -3.04434 0
M  V30 35 C 2.3632 -2.75343 -3.3986 0
M  V30 36 C 1.4222 -2.59588 -4.57712 0
M  V30 37 O 0.4482 -3.33457 -4.61297 0
M  V30 38 N 1.6502 -1.68724 -5.55439 0
M  V30 39 H 4.4152 -2.54891 -1.57641 0
M  V30 40 H 1.9762 -1.4479 -0.724386 0
M  V30 41 H 3.9682 -1.36072 -3.81139 0
M  V30 42 H 2.5382 -0.602368 -3.06741 0
M  V30 43 H 1.7582 -3.02795 -2.52406 0
M  V30 44 H 3.0462 -3.5924 -3.60311 0
M  V30 45 H 2.4442 -1.07898 -5.55315 0
M  V30 46 H 1.0012 -1.61832 -6.3139 0
M  V30 47 N 4.4343 0.785586 -1.36625 0
M  V30 48 C 5.3813 1.89838 -1.31264 0
M  V30 49 C 6.3513 1.65115 -0.180633 0
M  V30 50 O 7.5363 1.87222 -0.36777 0
M  V30 51 C 4.6763 3.26706 -1.11163 0
M  V30 52 C 3.7893 3.63476 -2.33472 0
M  V30 53 C 2.9243 4.89481 -2.06353 0
M  V30 54 C 1.9633 5.18941 -3.24602 0
M  V30 55 N 1.1003 6.36131 -2.97123 0
M  V30 56 H 5.9403 1.93756 -2.26413 0
M  V30 57 H 3.4773 0.947454 -1.12524 0
M  V30 58 H 5.4353 4.05639 -0.975337 0
M  V30 59 H 4.0653 3.222 -0.196674 0
M  V30 60 H 3.1173 2.79636 -2.57891 0
M  V30 61 H 4.4293 3.81193 -3.21704 0
M  V30 62 H 3.5833 5.76288 -1.89675 0
M  V30 63 H 2.3223 4.73841 -1.15437 0
M  V30 64 H 1.3273 4.30615 -3.41834 0
M  V30 65 H 2.5523 5.36498 -4.16349 0
M  V30 66 H 0.4983 6.21875 -2.08823 0
M  V30 67 H 0.4153 6.54198 -3.78894 0
M  V30 68 H 1.6833 7.2591 -2.84033 0
M  V30 69 N 5.9124 1.20967 1.01018 0
M  V30 70 C 7.1594 1.02374 1.74716 0
M  V30 71 C 7.4874 -0.443375 1.89379 0
M  V30 72 O 6.7424 -1.34535 1.42123 0
M  V30 73 C 7.0414 1.65997 3.16512 0
M  V30 74 C 6.7074 3.15831 3.2181 0
M  V30 75 C 5.3694 3.56719 3.22963 0
M  V30 76 C 7.7214 4.11816 3.19464 0
M  V30 77 C 5.0494 4.92107 3.19449 0
M  V30 78 C 7.4014 5.47158 3.17491 0
M  V30 79 C 6.0654 5.87451 3.16951 0
M  V30 80 H 5.3354 0.374614 0.639332 0
M  V30 81 H 7.9824 1.50485 1.18434 0
M  V30 82 H 6.2874 1.10166 3.75993 0
M  V30 83 H 7.9844 1.49119 3.72242 0
M  V30 84 H 4.5744 2.83263 3.21652 0
M  V30 85 H 8.7584 3.81257 3.17737 0
M  V30 86 H 4.0144 5.22579 3.17366 0
M  V30 87 H 8.1884 6.21274 3.14629 0
M  V30 88 H 5.8154 6.92329 3.13983 0
M  V30 89 N 7.3905 -1.2043 1.01659 0
M  V30 90 C 8.6675 -1.8548 0.621004 0
M  V30 91 C 9.0475 -1.9091 -0.900919 0
M  V30 92 O 8.3955 -1.41694 -1.79263 0
M  V30 93 C 8.6055 -3.25119 1.2688 0
M  V30 94 C 9.9535 -4.01403 1.38423 0
M  V30 95 O 10.9775 -3.34473 1.22501 0
M  V30 96 O 9.8365 -5.21265 1.64151 0
M  V30 97 H 6.9305 -0.798761 0.214266 0
M  V30 98 H 9.4765 -1.28019 1.11396 0
M  V30 99 H 8.2485 -3.15932 2.30873 0
M  V30 100 H 7.8715 -3.90212 0.762917 0
M  V30 101 N 8.8686 -0.792821 -1.36206 0
M  V30 102 C 10.1146 -0.36733 -1.99446 0
M  V30 103 C 10.4476 1.05917 -1.62774 0
M  V30 104 O 9.7226 1.7324 -0.88421 0
M  V30 105 C 10.0056 -0.535044 -3.56103 0
M  V30 106 C 9.8586 -2.00548 -4.02617 0
M  V30 107 C 11.1776 0.0478191 -4.40074 0
M  V30 108 H 8.2966 -0.134941 -0.724541 0
M  V30 109 H 10.9386 -0.999794 -1.61568 0
M  V30 110 H 9.0886 0.00336329 -3.885 0
M  V30 111 H 10.7606 -2.60521 -3.80692 0
M  V30 112 H 9.0036 -2.50686 -3.54032 0
M  V30 113 H 9.6746 -2.07377 -5.11565 0
M  V30 114 H 12.1506 -0.411822 -4.14057 0
M  V30 115 H 11.0266 -0.0995336 -5.4881 0
M  V30 116 H 11.2876 1.14025 -4.27142 0
M  V30 117 N 10.3467 1.47872 -0.545128 0
M  V30 118 C 11.5957 2.01695 -0.0145033 0
M  V30 119 C 11.9087 1.42609 1.33873 0
M  V30 120 O 13.1147 1.88021 1.95858 0
M  V30 121 C 11.5707 3.59892 0.0245068 0
M  V30 122 C 11.1787 4.27966 -1.32475 0
M  V30 123 C 12.9227 4.21507 0.50316 0
M  V30 124 C 10.8297 5.78136 -1.2455 0
M  V30 125 H 9.7597 0.753998 -0.00165172 0
M  V30 126 H 12.4107 1.69985 -0.691175 0
M  V30 127 H 10.7927 3.88509 0.766575 0
M  V30 128 H 11.9667 4.11003 -2.08357 0
M  V30 129 H 10.2817 3.78286 -1.74036 0
M  V30 130 H 12.8787 5.31538 0.580656 0
M  V30 131 H 13.2217 3.87855 1.51243 0
M  V30 132 H 13.7547 3.97376 -0.183681 0
M  V30 133 H 10.4937 6.16388 -2.23039 0
M  V30 134 H 10.0137 5.97469 -0.528282 0
M  V30 135 H 11.6927 6.40099 -0.942488 0
M  V30 136 N 11.8248 0.280983 1.55075 0
M  V30 137 C 13.0708 -0.33461 2.00021 0
M  V30 138 C 13.4038 -1.55063 1.16915 0
M  V30 139 O 12.6788 -1.93006 0.240646 0
M  V30 140 C 12.9618 -0.711007 3.53011 0
M  V30 141 C 12.8148 0.512766 4.46868 0
M  V30 142 C 14.1338 -1.54522 4.12081 0
M  V30 143 H 11.2528 -0.120147 0.727141 0
M  V30 144 H 13.8948 0.389097 1.85973 0
M  V30 145 H 12.0448 -1.32761 3.65112 0
M  V30 146 H 13.7168 1.15131 4.46702 0
M  V30 147 H 11.9598 1.14975 4.18286 0
M  V30 148 H 12.6308 0.205556 5.51617 0
M  V30 149 H 15.1068 -1.02442 4.03293 0
M  V30 150 H 13.9828 -1.77739 5.19327 0
M  V30 151 H 14.2438 -2.52813 3.62682 0
M  V30 152 N 13.3029 -1.57598 0.00835791 0
M  V30 153 C 14.5519 -1.90107 -0.673968 0
M  V30 154 C 14.8649 -0.884275 -1.7447 0
M  V30 155 O 16.0709 -1.09987 -2.48224 0
M  V30 156 C 14.5269 -3.37497 -1.24995 0
M  V30 157 C 14.1349 -4.47491 -0.2136 0
M  V30 158 C 15.8789 -3.79104 -1.90999 0
M  V30 159 C 13.7859 -5.85963 -0.80005 0
M  V30 160 H 12.7159 -0.709393 -0.255495 0
M  V30 161 H 15.3669 -1.83365 0.0702693 0
M  V30 162 H 13.7489 -3.39102 -2.04513 0
M  V30 163 H 14.9229 -4.57414 0.557596 0
M  V30 164 H 13.2379 -4.14956 0.346474 0
M  V30 165 H 15.8349 -4.79901 -2.35795 0
M  V30 166 H 16.1779 -3.1306 -2.74407 0
M  V30 167 H 16.7109 -3.79833 -1.18203 0
M  V30 168 H 13.4499 -6.555 -0.00456708 0
M  V30 169 H 12.9699 -5.79687 -1.54021 0
M  V30 170 H 14.6489 -6.33884 -1.29615 0
M  V30 171 N 14.781 0.264519 -1.55364 0
M  V30 172 C 16.029 0.993021 -1.76021 0
M  V30 173 C 16.35 1.86511 -0.569099 0
M  V30 174 O 15.62 1.91438 0.415735 0
M  V30 175 H 14.2 0.369639 -0.649135 0
M  V30 176 H 16.862 0.286707 -1.9278 0
M  V30 177 H 15.958 1.62502 -2.66457 0
M  V30 178 N 16.2591 1.48442 0.529413 0
M  V30 179 C 17.2221 1.62524 1.61612 0
M  V30 180 C 18.2221 0.498509 1.52877 0
M  V30 181 O 19.4121 0.76431 1.56537 0
M  V30 182 C 16.5441 1.59597 3.01233 0
M  V30 183 H 17.7371 2.59423 1.50465 0
M  V30 184 H 15.2901 1.37047 0.751514 0
M  V30 185 H 16.0251 0.641781 3.17886 0
M  V30 186 H 15.8101 2.41397 3.08982 0
M  V30 187 H 17.3001 1.72646 3.80241 0
M  V30 188 N 17.7372 -0.778329 1.37039 0
M  V30 189 C 18.9852 -1.53361 1.31623 0
M  V30 190 C 19.3062 -1.94739 -0.100831 0
M  V30 191 O 18.5762 -1.65797 -1.04347 0
M  V30 192 H 17.1562 -0.568794 0.484234 0
M  V30 193 H 19.8182 -0.926742 1.71457 0
M  V30 194 H 18.9142 -2.43606 1.95096 0
M  V30 195 N 19.2153 -1.21501 -1.00376 0
M  V30 196 C 20.6263 -1.03146 -1.55621 0
M  V30 197 C 20.9773 0.408375 -1.91903 0
M  V30 198 O 20.1023 1.29177 -1.73616 0
M  V30 199 C 20.6973 -1.86612 -2.82775 0
M  V30 200 C 19.2563 -1.72586 -3.34501 0
M  V30 201 C 18.4033 -1.83747 -2.07683 0
M  V30 202 H 21.3543 -1.35505 -0.826081 0
M  V30 203 H 21.3753 -1.3771 -3.54706 0
M  V30 204 H 20.8873 -2.91399 -2.56336 0
M  V30 205 H 18.9883 -0.704877 -3.65872 0
M  V30 206 H 19.1013 -2.54623 -4.05837 0
M  V30 207 H 17.4653 -1.27069 -2.20739 0
M  V30 208 H 18.2483 -2.90044 -1.83655 0
M  V30 209 N 20.6934 1.19889 -1.02296 0
M  V30 210 C 21.9414 1.89046 -0.714558 0
M  V30 211 C 22.2624 1.79636 0.758681 0
M  V30 212 O 21.5324 1.20292 1.54618 0
M  V30 213 H 20.1124 0.699802 -0.261317 0
M  V30 214 H 22.7744 1.45574 -1.29592 0
M  V30 215 H 21.8704 2.95524 -1.0036 0
M  V30 216 N 22.1715 0.800033 1.35784 0
M  V30 217 C 23.4195 0.376597 1.9856 0
M  V30 218 C 23.7405 -1.05812 1.63795 0
M  V30 219 O 23.0105 -1.73103 0.917171 0
M  V30 220 H 21.5905 0.136261 0.734467 0
M  V30 221 H 24.2525 1.02442 1.65806 0
M  V30 222 H 23.3485 0.477002 3.08433 0
M  V30 223 N 23.6496 -1.47581 0.552962 0
M  V30 224 C 24.8796 -2.06575 0.0320091 0
M  V30 225 C 25.2876 -1.4067 -1.26525 0
M  V30 226 O 24.6306 -0.495808 -1.76883 0
M  V30 227 C 24.6926 -3.58705 -0.238913 0
M  V30 228 C 24.3566 -4.46625 0.968272 0
M  V30 229 C 25.3536 -4.85 1.87274 0
M  V30 230 C 23.0386 -4.88201 1.18175 0
M  V30 231 C 25.0326 -5.63745 2.9744 0
M  V30 232 C 22.7196 -5.66712 2.28651 0
M  V30 233 C 23.7176 -6.04394 3.18114 0
M  V30 234 O 23.4056 -6.81324 4.26676 0
M  V30 235 H 23.1376 -0.674763 0.0408689 0
M  V30 236 H 25.6916 -1.90634 0.764719 0
M  V30 237 H 23.9216 -3.72844 -1.02588 0
M  V30 238 H 25.6106 -3.99735 -0.704731 0
M  V30 239 H 26.3766 -4.53482 1.71984 0
M  V30 240 H 22.2556 -4.58339 0.494593 0
M  V30 241 H 25.7996 -5.93077 3.67296 0
M  V30 242 H 21.6966 -5.97642 2.43915 0
M  V30 243 H 22.4646 -6.99712 4.24671 0
M  V30 244 N 25.1277 -0.289203 -1.54924 0
M  V30 245 C 26.3737 0.323998 -2.00195 0
M  V30 246 C 26.7067 1.54441 -1.17735 0
M  V30 247 O 25.9817 1.92875 -0.250878 0
M  V30 248 C 26.2647 0.692276 -3.53383 0
M  V30 249 C 26.1177 -0.536457 -4.46589 0
M  V30 250 C 27.4367 1.52335 -4.12895 0
M  V30 251 H 24.5557 0.116289 -0.727768 0
M  V30 252 H 27.1977 -0.398954 -1.85764 0
M  V30 253 H 25.3477 1.30822 -3.65811 0
M  V30 254 H 27.0197 -1.17499 -4.46085 0
M  V30 255 H 25.2627 -1.17192 -4.1767 0
M  V30 256 H 25.9337 -0.234806 -5.515 0
M  V30 257 H 28.4097 1.00302 -4.0383 0
M  V30 258 H 27.2857 1.74982 -5.20262 0
M  V30 259 H 27.5467 2.50886 -3.64018 0
M  V30 260 N 26.6058 1.57591 -0.0167156 0
M  V30 261 C 27.5688 2.08393 0.954204 0
M  V30 262 C 28.5688 0.996531 1.26198 0
M  V30 263 O 29.7588 1.25858 1.20438 0
M  V30 264 C 26.8908 2.5394 2.27436 0
M  V30 265 H 28.0838 2.95455 0.514451 0
M  V30 266 H 25.6368 1.54582 0.231089 0
M  V30 267 H 26.3718 1.70171 2.76066 0
M  V30 268 H 26.1568 3.33371 2.06412 0
M  V30 269 H 27.6468 2.93512 2.97053 0
M  V30 270 N 28.0839 -0.256276 1.55502 0
M  V30 271 C 29.0469 -1.30047 1.88734 0
M  V30 272 C 30.0469 -1.4154 0.763086 0
M  V30 273 O 31.2369 -1.40403 1.03115 0
M  V30 274 C 28.3689 -2.67953 2.10747 0
M  V30 275 H 29.5619 -1.01802 2.82093 0
M  V30 276 H 27.1149 -0.495134 1.4825 0
M  V30 277 H 27.8499 -3.01351 1.19825 0
M  V30 278 H 27.6349 -2.60993 2.92617 0
M  V30 279 H 29.1249 -3.43368 2.37673 0
M  V30 280 N 29.562 -1.4872 -0.521534 0
M  V30 281 C 30.811 -1.56419 -1.27341 0
M  V30 282 C 31.124 -0.246805 -1.94037 0
M  V30 283 O 32.33 -0.202122 -2.70747 0
M  V30 284 C 30.786 -2.75896 -2.31105 0
M  V30 285 C 30.394 -4.14311 -1.70441 0
M  V30 286 C 32.138 -2.92913 -3.07249 0
M  V30 287 C 30.045 -5.25038 -2.72194 0
M  V30 288 H 28.975 -0.582344 -0.478949 0
M  V30 289 H 31.626 -1.75071 -0.549779 0
M  V30 290 H 30.008 -2.50697 -3.06541 0
M  V30 291 H 31.182 -4.49564 -1.01136 0
M  V30 292 H 29.497 -4.02482 -1.06759 0
M  V30 293 H 32.094 -3.72805 -3.83302 0
M  V30 294 H 32.437 -2.02689 -3.63625 0
M  V30 295 H 32.97 -3.18054 -2.38928 0
M  V30 296 H 29.709 -6.17255 -2.20627 0
M  V30 297 H 29.229 -4.94263 -3.39801 0
M  V30 298 H 30.908 -5.53508 -3.35019 0
M  V30 299 N 31.0401 0.771051 -1.3745 0
M  V30 300 C 31.9871 1.88435 -1.3327 0
M  V30 301 C 32.9571 1.64914 -0.198136 0
M  V30 302 O 34.1421 1.86821 -0.387606 0
M  V30 303 C 31.2821 3.25509 -1.14622 0
M  V30 304 C 30.3951 3.60979 -2.37314 0
M  V30 305 C 29.5301 4.87265 -2.11533 0
M  V30 306 C 28.5691 5.15469 -3.30088 0
M  V30 307 N 27.7061 6.32944 -3.03853 0
M  V30 308 H 32.5461 1.91344 -2.28455 0
M  V30 309 H 30.0831 0.935466 -1.13523 0
M  V30 310 H 32.0411 4.04582 -1.01831 0
M  V30 311 H 30.6711 3.21974 -0.230837 0
M  V30 312 H 29.7231 2.76885 -2.60842 0
M  V30 313 H 31.0351 3.77759 -3.25729 0
M  V30 314 H 30.1891 5.74244 -1.95777 0
M  V30 315 H 28.9281 4.7259 -1.20457 0
M  V30 316 H 27.9331 4.26966 -3.46382 0
M  V30 317 H 29.1581 5.32052 -4.22016 0
M  V30 318 H 27.1041 6.19625 -2.15407 0
M  V30 319 H 27.0211 6.50143 -3.85812 0
M  V30 320 H 28.2891 7.22857 -2.91716 0
M  V30 321 N 32.5182 1.22032 0.997298 0
M  V30 322 C 33.7432 1.06921 1.77715 0
M  V30 323 C 34.1682 -0.376226 1.84299 0
M  V30 324 O 33.5262 -1.27165 1.29223 0
M  V30 325 C 33.5742 1.67996 3.19076 0
M  V30 326 O 32.6782 0.930653 4.01762 0
M  V30 327 H 32.0192 0.375814 0.547412 0
M  V30 328 H 34.5492 1.61737 1.25309 0
M  V30 329 H 34.5592 1.72538 3.69723 0
M  V30 330 H 33.2342 2.73182 3.13599 0
M  V30 331 H 31.8112 0.960917 3.60307 0
M  V30 332 N 33.9963 -1.19345 1.0293 0
M  V30 333 C 34.9593 -2.20793 0.615069 0
M  V30 334 C 35.9593 -1.57553 -0.321533 0
M  V30 335 O 37.1493 -1.73862 -0.108483 0
M  V30 336 C 34.2813 -3.40754 -0.0999222 0
M  V30 337 H 35.4743 -2.58955 1.51269 0
M  V30 338 H 33.0273 -1.3303 0.820534 0
M  V30 339 H 33.7623 -3.0811 -1.01187 0
M  V30 340 H 33.5473 -3.87889 0.57309 0
M  V30 341 H 35.0373 -4.15898 -0.376645 0
M  V30 342 N 35.4744 -0.807222 -1.35358 0
M  V30 343 C 36.4064 -0.175717 -2.28525 0
M  V30 344 C 37.4194 0.625354 -1.5031 0
M  V30 345 O 38.6084 0.457611 -1.72535 0
M  V30 346 C 35.7084 0.773471 -3.29956 0
M  V30 347 C 34.8814 0.0186296 -4.37396 0
M  V30 348 C 33.9404 0.886395 -5.18681 0
M  V30 349 O 32.9664 0.337106 -5.68201 0
M  V30 350 N 34.1684 2.20839 -5.36852 0
M  V30 351 H 36.9334 -0.976091 -2.83359 0
M  V30 352 H 34.4944 -0.662737 -1.47714 0
M  V30 353 H 36.4864 1.35824 -3.81227 0
M  V30 354 H 35.0564 1.47465 -2.75632 0
M  V30 355 H 34.2764 -0.747349 -3.87051 0
M  V30 356 H 35.5644 -0.501577 -5.06322 0
M  V30 357 H 34.9624 2.67858 -4.98265 0
M  V30 358 H 33.5194 2.74237 -5.91301 0
M  V30 359 N 36.9525 1.47285 -0.560781 0
M  V30 360 C 37.8825 2.32857 0.173105 0
M  V30 361 C 38.8635 1.44009 0.905281 0
M  V30 362 O 40.0485 1.7286 0.885046 0
M  V30 363 C 37.1785 3.25861 1.20133 0
M  V30 364 C 36.1325 4.23978 0.585388 0
M  V30 365 C 35.4585 5.06332 1.7185 0
M  V30 366 C 36.7585 5.20242 -0.463178 0
M  V30 367 H 38.4525 2.94466 -0.541307 0
M  V30 368 H 35.9985 1.41601 -0.261764 0
M  V30 369 H 37.9515 3.84569 1.72293 0
M  V30 370 H 36.6755 2.62315 1.94573 0
M  V30 371 H 35.3345 3.66501 0.085054 0
M  V30 372 H 34.9825 4.39186 2.45203 0
M  V30 373 H 34.6825 5.72762 1.31213 0
M  V30 374 H 36.2065 5.67899 2.24329 0
M  V30 375 H 37.6205 5.73293 -0.027502 0
M  V30 376 H 36.0175 5.94896 -0.788627 0
M  V30 377 H 37.0875 4.65504 -1.35773 0
M  V30 378 N 38.4306 0.297415 1.54768 0
M  V30 379 C 39.6786 -0.312295 1.99673 0
M  V30 380 C 39.9996 -1.54686 1.18732 0
M  V30 381 O 39.2696 -1.93854 0.282382 0
M  V30 382 H 37.8496 -0.118381 0.73756 0
M  V30 383 H 40.5116 0.407915 1.90583 0
M  V30 384 H 39.6076 -0.586813 3.06534 0
M  V30 385 N 39.9087 -1.5758 0.0250728 0
M  V30 386 C 40.8387 -2.13007 -0.956575 0
M  V30 387 C 41.8197 -1.0452 -1.342 0
M  V30 388 O 43.0047 -1.32332 -1.42133 0
M  V30 389 C 40.1347 -2.65386 -2.24026 0
M  V30 390 C 39.0887 -3.78623 -1.99571 0
M  V30 391 C 38.4147 -4.17414 -3.3417 0
M  V30 392 C 39.7147 -5.04867 -1.33814 0
M  V30 393 H 41.4087 -2.9528 -0.494991 0
M  V30 394 H 38.9547 -1.42042 -0.236651 0
M  V30 395 H 40.9077 -3.02794 -2.93076 0
M  V30 396 H 39.6317 -1.80268 -2.72343 0
M  V30 397 H 38.2907 -3.41646 -1.32941 0
M  V30 398 H 37.9387 -3.29284 -3.80238 0
M  V30 399 H 37.6387 -4.93719 -3.18615 0
M  V30 400 H 39.1627 -4.57402 -4.04495 0
M  V30 401 H 40.5767 -5.39888 -1.92857 0
M  V30 402 H 38.9737 -5.86144 -1.28669 0
M  V30 403 H 40.0437 -4.83904 -0.310561 0
M  V30 404 N 41.3868 0.248026 -1.55636 0
M  V30 405 C 42.3338 1.30707 -1.90222 0
M  V30 406 C 43.3038 1.47881 -0.756332 0
M  V30 407 O 44.4888 1.61883 -1.00988 0
M  V30 408 C 41.6288 2.65769 -2.20138 0
M  V30 409 C 40.7418 2.56612 -3.47526 0
M  V30 410 C 39.8768 3.8402 -3.67017 0
M  V30 411 C 38.9158 3.69476 -4.8801 0
M  V30 412 N 38.0528 4.88774 -5.04029 0
M  V30 413 H 42.8928 1.00512 -2.80538 0
M  V30 414 H 40.4298 0.485055 -1.38873 0
M  V30 415 H 42.3878 3.44386 -2.35487 0
M  V30 416 H 41.0178 2.94115 -1.33027 0
M  V30 417 H 40.0698 1.69571 -3.40514 0
M  V30 418 H 41.3818 2.41774 -4.36287 0
M  V30 419 H 40.5358 4.7108 -3.8232 0
M  V30 420 H 39.2748 4.01754 -2.76487 0
M  V30 421 H 38.2798 2.80799 -4.72686 0
M  V30 422 H 39.5048 3.53238 -5.8 0
M  V30 423 H 37.4508 5.0687 -4.16435 0
M  V30 424 H 37.3678 4.76562 -5.86877 0
M  V30 425 H 38.6358 5.77335 -5.23741 0
M  V30 426 N 42.8649 1.48995 0.513639 0
M  V30 427 C 44.0929 1.61531 1.29288 0
M  V30 428 C 44.5079 0.281801 1.86685 0
M  V30 429 O 43.8649 -0.731111 1.67215 0
M  V30 430 C 43.9159 2.67449 2.43215 0
M  V30 431 O 43.6369 3.95626 1.88179 0
M  V30 432 C 45.1379 2.90575 3.34785 0
M  V30 433 H 42.3579 0.544165 0.392588 0
M  V30 434 H 44.9019 1.9494 0.617956 0
M  V30 435 H 43.0569 2.36853 3.0656 0
M  V30 436 H 43.4709 4.53868 2.62876 0
M  V30 437 H 44.9449 3.68449 4.11035 0
M  V30 438 H 45.4219 2.00011 3.91015 0
M  V30 439 H 46.0279 3.22538 2.77218 0
M  V30 440 N 44.343 -0.763751 1.37857 0
M  V30 441 C 45.306 -1.85889 1.34081 0
M  V30 442 C 46.306 -1.58949 0.243277 0
M  V30 443 O 47.496 -1.66882 0.499589 0
M  V30 444 C 44.628 -3.23176 1.08489 0
M  V30 445 H 45.821 -1.90648 2.31502 0
M  V30 446 H 43.374 -0.964367 1.23003 0
M  V30 447 H 44.109 -3.24091 0.116318 0
M  V30 448 H 43.894 -3.44124 1.8794 0
M  V30 449 H 45.384 -4.03254 1.08517 0
M  V30 450 N 45.8211 -1.22559 -0.990812 0
M  V30 451 C 46.7511 -1.0218 -2.09956 0
M  V30 452 C 47.7321 0.0579394 -1.70001 0
M  V30 453 O 48.9171 -0.104684 -1.93918 0
M  V30 454 C 46.0471 -0.601023 -3.4206 0
M  V30 455 C 45.0011 -1.62694 -3.95872 0
M  V30 456 C 44.3271 -1.06193 -5.24049 0
M  V30 457 C 45.6271 -3.01743 -4.2632 0
M  V30 458 H 47.3211 -1.94916 -2.27262 0
M  V30 459 H 44.8671 -0.938566 -1.09211 0
M  V30 460 H 46.8201 -0.445561 -4.19038 0
M  V30 461 H 45.5441 0.362005 -3.24588 0
M  V30 462 H 44.2031 -1.77021 -3.21028 0
M  V30 463 H 43.8511 -0.0901903 -5.02919 0
M  V30 464 H 43.5511 -1.74732 -5.61019 0
M  V30 465 H 45.0751 -0.918092 -6.03658 0
M  V30 466 H 46.4891 -2.90777 -4.94087 0
M  V30 467 H 44.8861 -3.67425 -4.74467 0
M  V30 468 H 45.9561 -3.51518 -3.34011 0
M  V30 469 N 47.2992 1.18797 -1.03562 0
M  V30 470 C 48.5482 1.87978 -0.731235 0
M  V30 471 C 48.8612 1.80911 0.743671 0
M  V30 472 O 50.0672 2.45407 1.16137 0
M  V30 473 C 48.5232 3.3721 -1.25768 0
M  V30 474 C 48.1312 3.52818 -2.76085 0
M  V30 475 C 49.8752 4.11825 -1.0296 0
M  V30 476 C 47.7822 4.9598 -3.22114 0
M  V30 477 H 46.7122 0.704063 -0.269835 0
M  V30 478 H 49.3632 1.34266 -1.25079 0
M  V30 479 H 47.7452 3.90359 -0.666011 0
M  V30 480 H 48.9192 3.09965 -3.40966 0
M  V30 481 H 47.2342 2.91602 -2.97249 0
M  V30 482 H 49.8312 5.17411 -1.34869 0
M  V30 483 H 50.1742 4.16287 0.0333546 0
M  V30 484 H 50.7072 3.64833 -1.58562 0
M  V30 485 H 47.4462 4.96684 -4.27768 0
M  V30 486 H 46.9662 5.39569 -2.61965 0
M  V30 487 H 48.6452 5.6467 -3.15844 0
M  V30 488 N 48.7773 0.814389 1.34928 0
M  V30 489 C 49.6873 0.231978 2.3345 0
M  V30 490 C 50.7033 -0.629139 1.62228 0
M  V30 491 O 51.8793 -0.539052 1.94052 0
M  V30 492 C 48.9443 -0.603482 3.41407 0
M  V30 493 C 48.0053 0.279037 4.28392 0
M  V30 494 C 47.2383 -0.516643 5.31193 0
M  V30 495 O 47.4613 -1.75068 5.4287 0
M  V30 496 O 46.3953 0.0965652 6.01823 0
M  V30 497 H 50.2213 1.04721 2.85074 0
M  V30 498 H 47.8063 0.576343 1.37836 0
M  V30 499 H 49.6883 -1.07908 4.0735 0
M  V30 500 H 48.3633 -1.39618 2.92042 0
M  V30 501 H 47.2703 0.801948 3.65403 0
M  V30 502 H 48.6033 1.03588 4.81176 0
M  V30 503 N 50.2554 -1.46986 0.568584 0
M  V30 504 C 51.2024 -2.30153 -0.172707 0
M  V30 505 C 52.1724 -1.39759 -0.897586 0
M  V30 506 O 53.3574 -1.68716 -0.891044 0
M  V30 507 C 50.4974 -3.23952 -1.1895 0
M  V30 508 C 49.6104 -4.29441 -0.469517 0
M  V30 509 C 48.7454 -5.1038 -1.47259 0
M  V30 510 C 47.7844 -6.07632 -0.738225 0
M  V30 511 N 46.9214 -6.8149 -1.68868 0
M  V30 512 H 51.7614 -2.93019 0.542596 0
M  V30 513 H 49.2984 -1.44422 0.279401 0
M  V30 514 H 51.2564 -3.76767 -1.79173 0
M  V30 515 H 49.8864 -2.62926 -1.87269 0
M  V30 516 H 48.9384 -3.79594 0.247467 0
M  V30 517 H 50.2504 -4.98689 0.105241 0
M  V30 518 H 49.4044 -5.67402 -2.14803 0
M  V30 519 H 48.1434 -4.4106 -2.08128 0
M  V30 520 H 47.1484 -5.49778 -0.0489293 0
M  V30 521 H 48.3734 -6.78966 -0.135129 0
M  V30 522 H 46.3194 -6.14891 -2.28573 0
M  V30 523 H 46.2364 -7.46948 -1.16636 0
M  V30 524 H 47.5044 -7.43078 -2.3549 0
M  V30 525 N 51.7335 -0.305618 -1.54608 0
M  V30 526 C 52.9635 0.304333 -2.04346 0
M  V30 527 C 53.3715 1.47715 -1.18224 0
M  V30 528 O 52.7145 1.82591 -0.201577 0
M  V30 529 C 52.7765 0.819031 -3.50046 0
M  V30 530 C 52.4405 -0.22912 -4.56425 0
M  V30 531 C 53.4375 -1.05914 -5.08997 0
M  V30 532 C 51.1225 -0.372148 -5.0092 0
M  V30 533 C 53.1165 -2.01809 -6.04609 0
M  V30 534 C 50.8035 -1.33454 -5.9635 0
M  V30 535 C 51.8015 -2.15599 -6.48079 0
M  V30 536 O 51.4895 -3.10205 -7.41639 0
M  V30 537 H 51.2215 0.0693996 -0.672428 0
M  V30 538 H 53.7755 -0.444548 -2.00532 0
M  V30 539 H 52.0055 1.61852 -3.51199 0
M  V30 540 H 53.6945 1.34537 -3.82955 0
M  V30 541 H 54.4605 -0.959538 -4.75413 0
M  V30 542 H 50.3395 0.257304 -4.60281 0
M  V30 543 H 53.8835 -2.65966 -6.44909 0
M  V30 544 H 49.7805 -1.43485 -6.29351 0
M  V30 545 H 50.5485 -3.05237 -7.59455 0
M  V30 546 N 53.2116 1.57565 -0.0334293 0
M  V30 547 C 54.1586 2.10478 0.946981 0
M  V30 548 C 55.1286 1.00787 1.32027 0
M  V30 549 O 56.3136 1.28232 1.41284 0
M  V30 550 C 53.4536 2.63994 2.22263 0
M  V30 551 C 52.5666 3.87709 1.90541 0
M  V30 552 C 51.7016 4.29604 3.12433 0
M  V30 553 C 50.7406 5.46065 2.76549 0
M  V30 554 N 49.8776 5.83096 3.9108 0
M  V30 555 H 54.7176 2.93963 0.488846 0
M  V30 556 H 52.2546 1.45296 0.22969 0
M  V30 557 H 54.2126 2.93114 2.96884 0
M  V30 558 H 52.8426 1.83333 2.65685 0
M  V30 559 H 51.8946 3.65291 1.06144 0
M  V30 560 H 53.2066 4.72403 1.60116 0
M  V30 561 H 52.3606 4.60182 3.9537 0
M  V30 562 H 51.0996 3.43685 3.46023 0
M  V30 563 H 50.1046 5.15176 1.92026 0
M  V30 564 H 51.3296 6.33685 2.44171 0
M  V30 565 H 49.2756 5.00132 4.24504 0
M  V30 566 H 49.1926 6.6244 3.64293 0
M  V30 567 H 50.4606 6.18282 4.74708 0
M  V30 568 N 54.6897 -0.239769 1.55765 0
M  V30 569 C 55.9377 -0.964892 1.77579 0
M  V30 570 C 56.2587 -1.85582 0.598699 0
M  V30 571 O 55.5287 -1.92075 -0.385226 0
M  V30 572 H 54.1087 -0.359265 0.654933 0
M  V30 573 H 56.7707 -0.256001 1.93211 0
M  V30 574 H 55.8667 -1.58243 2.69009 0
M  V30 575 N 56.1678 -1.49265 -0.50573 0
M  V30 576 C 57.1148 -1.65585 -1.6078 0
M  V30 577 C 58.0848 -0.497396 -1.58478 0
M  V30 578 O 59.2698 -0.72385 -1.76536 0
M  V30 579 C 56.4098 -1.72408 -2.98948 0
M  V30 580 C 55.5228 -2.99525 -3.11301 0
M  V30 581 C 54.6578 -2.97356 -4.40174 0
M  V30 582 C 53.6968 -4.19074 -4.46143 0
M  V30 583 N 52.8338 -4.14841 -5.66437 0
M  V30 584 H 57.6738 -2.59688 -1.46172 0
M  V30 585 H 55.2108 -1.28761 -0.711261 0
M  V30 586 H 57.1688 -1.74344 -3.79025 0
M  V30 587 H 55.7988 -0.817753 -3.1227 0
M  V30 588 H 54.8508 -3.07222 -2.24318 0
M  V30 589 H 56.1628 -3.89518 -3.11572 0
M  V30 590 H 55.3168 -2.97829 -5.28567 0
M  V30 591 H 54.0558 -2.05133 -4.42461 0
M  V30 592 H 53.0608 -4.1885 -3.56153 0
M  V30 593 H 54.2858 -5.12483 -4.45575 0
M  V30 594 H 52.2318 -3.25453 -5.69575 0
M  V30 595 H 52.1488 -4.98564 -5.68304 0
M  V30 596 H 53.4168 -4.1941 -6.57051 0
M  V30 597 N 57.6459 0.756429 -1.3826 0
M  V30 598 C 58.5559 1.9009 -1.37488 0
M  V30 599 C 59.5719 1.71855 -0.272366 0
M  V30 600 O 60.7479 1.94827 -0.510318 0
M  V30 601 C 57.8129 3.25421 -1.19592 0
M  V30 602 C 56.8739 3.56202 -2.39622 0
M  V30 603 C 56.1069 4.85075 -2.2257 0
M  V30 604 O 56.3299 5.57246 -1.21793 0
M  V30 605 O 55.2639 5.15269 -3.11098 0
M  V30 606 H 59.0899 1.93695 -2.33914 0
M  V30 607 H 56.6749 0.901313 -1.1915 0
M  V30 608 H 58.5569 4.06337 -1.11661 0
M  V30 609 H 57.2319 3.22634 -0.262486 0
M  V30 610 H 56.1389 2.75458 -2.53128 0
M  V30 611 H 57.4719 3.63747 -3.31586 0
M  V30 612 N 59.124 1.23083 0.984299 0
M  V30 613 C 60.372 1.05848 1.72165 0
M  V30 614 C 60.693 -0.406049 1.90726 0
M  V30 615 O 59.963 -1.29139 1.47309 0
M  V30 616 H 58.543 0.388685 0.637913 0
M  V30 617 H 61.205 1.54736 1.18503 0
M  V30 618 H 60.301 1.54327 2.71274 0
M  V30 619 N 60.6021 -1.18246 1.0419 0
M  V30 620 C 61.5491 -2.2192 0.634037 0
M  V30 621 C 62.5191 -1.62179 -0.358765 0
M  V30 622 O 63.7041 -1.89122 -0.252466 0
M  V30 623 C 60.8441 -3.451 0.00445535 0
M  V30 624 C 59.9571 -4.19174 1.04487 0
M  V30 625 C 59.0921 -5.29813 0.383676 0
M  V30 626 C 58.1311 -5.9566 1.4091 0
M  V30 627 N 57.2681 -6.97834 0.772784 0
M  V30 628 H 62.1081 -2.56164 1.52263 0
M  V30 629 H 59.6451 -1.25843 0.761701 0
M  V30 630 H 61.6031 -4.15485 -0.377919 0
M  V30 631 H 60.2331 -3.11472 -0.847652 0
M  V30 632 H 59.2851 -3.47604 1.54518 0
M  V30 633 H 60.5971 -4.64267 1.82368 0
M  V30 634 H 59.7511 -6.06677 -0.0528366 0
M  V30 635 H 58.4901 -4.85825 -0.427208 0
M  V30 636 H 57.4951 -5.17535 1.85574 0
M  V30 637 H 58.7201 -6.4173 2.22171 0
M  V30 638 H 56.6661 -6.55998 -0.0177708 0
M  V30 639 H 56.5831 -7.41186 1.48928 0
M  V30 640 H 57.8511 -7.78665 0.36071 0
M  V30 641 N 62.0802 -0.821533 -1.34494 0
M  V30 642 C 63.3082 -0.421884 -2.02553 0
M  V30 643 C 63.7232 0.971745 -1.61872 0
M  V30 644 O 63.0802 1.62864 -0.823496 0
M  V30 645 C 63.1312 -0.51285 -3.57844 0
M  V30 646 O 62.8522 -1.85155 -3.97051 0
M  V30 647 C 64.3532 -0.107921 -4.43169 0
M  V30 648 H 61.5732 -0.169482 -0.649243 0
M  V30 649 H 64.1172 -1.1093 -1.71798 0
M  V30 650 H 62.2722 0.126474 -3.87193 0
M  V30 651 H 62.6862 -1.82482 -4.91732 0
M  V30 652 H 64.1602 -0.222657 -5.51551 0
M  V30 653 H 64.6372 0.948401 -4.28838 0
M  V30 654 H 65.2432 -0.720989 -4.19144 0
M  V30 655 N 63.5583 1.46682 -0.576371 0
M  V30 656 C 64.5213 2.28707 0.150239 0
M  V30 657 C 65.5213 1.38035 0.824794 0
M  V30 658 O 66.7113 1.60476 0.677719 0
M  V30 659 C 63.8433 3.18248 1.22192 0
M  V30 660 H 65.0363 2.94423 -0.570521 0
M  V30 661 H 62.5893 1.52688 -0.334078 0
M  V30 662 H 63.3243 2.57265 1.97447 0
M  V30 663 H 63.1093 3.85 0.742812 0
M  V30 664 H 64.5993 3.80001 1.73172 0
M  V30 665 N 65.0364 0.313813 1.54444 0
M  V30 666 C 65.9664 -0.549454 2.26943 0
M  V30 667 C 66.9474 -1.12741 1.27372 0
M  V30 668 O 68.1324 -1.15436 1.56167 0
M  V30 669 C 65.2624 -1.71523 3.01989 0
M  V30 670 C 64.2164 -1.26703 4.08816 0
M  V30 671 C 63.5424 -2.51898 4.71647 0
M  V30 672 C 64.8424 -0.388962 5.2085 0
M  V30 673 H 66.5364 0.0552661 2.99349 0
M  V30 674 H 64.0824 0.0280207 1.43973 0
M  V30 675 H 66.0354 -2.32535 3.51433 0
M  V30 676 H 64.7594 -2.34639 2.27183 0
M  V30 677 H 63.4184 -0.679896 3.6024 0
M  V30 678 H 63.0664 -3.13356 3.93468 0
M  V30 679 H 62.7664 -2.22605 5.43802 0
M  V30 680 H 64.2904 -3.1369 5.23861 0
M  V30 681 H 65.7044 -0.905107 5.6611 0
M  V30 682 H 64.1014 -0.18924 5.99802 0
M  V30 683 H 65.1714 0.582699 4.81386 0
M  V30 684 N 66.5145 -1.57545 0.0417849 0
M  V30 685 C 67.7625 -1.91937 -0.632829 0
M  V30 686 C 68.0835 -0.919978 -1.71934 0
M  V30 687 O 67.3535 0.0366064 -1.95866 0
M  V30 688 H 65.9335 -0.708493 -0.236742 0
M  V30 689 H 68.5955 -1.9468 0.0925745 0
M  V30 690 H 67.6915 -2.92912 -1.07746 0
M  V30 691 N 67.9926 0.231505 -1.5589 0
M  V30 692 C 69.2406 0.955461 -1.78088 0
M  V30 693 C 69.5616 1.85262 -0.608533 0
M  V30 694 O 68.8316 1.92277 0.375035 0
M  V30 695 H 67.4116 0.355787 -0.656829 0
M  V30 696 H 70.0736 0.245751 -1.93344 0
M  V30 697 H 69.1696 1.56814 -2.69844 0
M  V30 698 N 69.4707 1.49531 0.497807 0
M  V30 699 C 70.6987 1.62893 1.27567 0
M  V30 700 C 71.1137 0.301585 1.86376 0
M  V30 701 O 70.4707 -0.713335 1.67982 0
M  V30 702 C 70.5217 2.70013 2.40364 0
M  V30 703 O 70.2427 3.976 1.83972 0
M  V30 704 C 71.7437 2.94109 3.31685 0
M  V30 705 H 68.9637 0.548298 0.386794 0
M  V30 706 H 71.5077 1.95584 0.597245 0
M  V30 707 H 69.6627 2.40092 3.04031 0
M  V30 708 H 70.0767 4.56631 2.58047 0
M  V30 709 H 71.5507 3.72788 4.07104 0
M  V30 710 H 72.0277 2.04147 3.88871 0
M  V30 711 H 72.6337 3.2546 2.73781 0
M  V30 712 N 70.9488 -0.749086 1.3866 0
M  V30 713 C 72.1888 -1.52112 1.36534 0
M  V30 714 C 72.5528 -1.91951 -0.0432316 0
M  V30 715 O 73.7538 -2.68132 -0.189396 0
M  V30 716 C 72.0248 -2.73704 2.29828 0
M  V30 717 S 73.5838 -3.63519 2.45763 0
M  V30 718 H 70.4018 -0.520482 0.484375 0
M  V30 719 H 73.0038 -0.878963 1.74627 0
M  V30 720 H 71.7078 -2.42552 3.31054 0
M  V30 721 H 71.2388 -3.4286 1.929 0
M  V30 722 H 73.2538 -4.66712 1.68505 0
M  V30 723 N 72.4269 -1.23603 -0.977757 0
M  V30 724 C 73.3569 -1.04401 -2.0886 0
M  V30 725 C 74.3379 0.0399052 -1.70053 0
M  V30 726 O 75.5229 -0.125246 -1.93796 0
M  V30 727 C 72.6529 -0.637269 -3.41403 0
M  V30 728 C 71.6069 -1.66883 -3.94124 0
M  V30 729 C 70.9329 -1.11745 -5.22893 0
M  V30 730 C 72.2329 -3.06247 -4.23096 0
M  V30 731 H 73.9269 -1.97316 -2.25182 0
M  V30 732 H 71.4729 -0.950096 -1.08209 0
M  V30 733 H 73.4259 -0.48998 -4.18542 0
M  V30 734 H 72.1499 0.327557 -3.24953 0
M  V30 735 H 70.8089 -1.80416 -3.19133 0
M  V30 736 H 70.4569 -0.143527 -5.02795 0
M  V30 737 H 70.1569 -1.80672 -5.59134 0
M  V30 738 H 71.6809 -0.982067 -6.02651 0
M  V30 739 H 73.0949 -2.96001 -4.90975 0
M  V30 740 H 71.4919 -3.72436 -4.70544 0
M  V30 741 H 72.5619 -3.55041 -3.30263 0
M  V30 742 N 73.905 1.17692 -1.04816 0
M  V30 743 C 74.853 2.23632 -0.63966 0
M  V30 744 C 75.847 1.6601 0.337219 0
M  V30 745 O 77.053 1.78844 0.203693 0
M  V30 746 H 73.428 0.727949 -0.188665 0
M  V30 747 H 75.399 2.55387 -1.54337 0
M  V30 748 C 74.148 3.4769 -0.0264051 0
M  V30 749 H 73.471 3.92331 -0.769164 0
M  V30 750 H 74.911 4.23418 0.222098 0
M  V30 751 C 73.37 3.13807 1.22584 0
M  V30 752 O 73.9 3.28236 2.31569 0
M  V30 753 N 72.106 2.68065 1.12202 0
M  V30 754 H 71.653 2.56525 0.235133 0
M  V30 755 H 71.611 2.45767 1.96076 0
M  V30 756 N 75.3831 0.828654 1.34056 0
M  V30 757 C 76.6291 0.42008 1.98402 0
M  V30 758 C 76.9621 -1.01564 1.65525 0
M  V30 759 O 76.2371 -1.70834 0.929831 0
M  V30 760 C 76.5201 0.62927 3.54559 0
M  V30 761 C 76.3731 2.11152 3.97159 0
M  V30 762 C 77.6921 0.0688756 4.40046 0
M  V30 763 H 74.8111 0.154104 0.720709 0
M  V30 764 H 77.4531 1.04228 1.5886 0
M  V30 765 H 75.6031 0.0996418 3.88372 0
M  V30 766 H 77.2751 2.70522 3.73651 0
M  V30 767 H 75.5181 2.59985 3.47261 0
M  V30 768 H 76.1891 2.20868 5.05887 0
M  V30 769 H 78.6651 0.521458 4.1282 0
M  V30 770 H 77.5411 0.245006 5.48353 0
M  V30 771 H 77.8021 -1.0266 4.30015 0
M  V30 772 N 76.8612 -1.46375 0.584142 0
M  V30 773 C 78.1092 -2.01978 0.0701287 0
M  V30 774 C 78.4302 -1.4579 -1.295 0
M  V30 775 O 77.7002 -0.64314 -1.85042 0
M  V30 776 H 76.2802 -0.746648 0.0229345 0
M  V30 777 H 78.9422 -1.79461 0.760245 0
M  V30 778 H 78.0382 -3.121 0.0022064 0
M  V30 779 N 78.3393 -0.321999 -1.54275 0
M  V30 780 C 79.5793 0.281657 -2.0245 0
M  V30 781 C 79.9433 1.49468 -1.20513 0
M  V30 782 O 81.1443 2.17109 -1.58484 0
M  V30 783 C 79.4153 0.609014 -3.52173 0
M  V30 784 S 80.9743 1.19255 -4.22284 0
M  V30 785 H 77.7923 0.0852825 -0.705867 0
M  V30 786 H 80.3943 -0.454758 -1.90137 0
M  V30 787 H 79.0983 -0.281982 -4.0943 0
M  V30 788 H 78.6293 1.37567 -3.68563 0
M  V30 789 H 80.6443 2.47944 -4.29812 0
M  V30 790 N 79.8174 1.5752 -0.0501392 0
M  V30 791 C 81.0664 1.91827 0.623328 0
M  V30 792 C 81.3794 0.930222 1.72065 0
M  V30 793 O 82.5854 1.1653 2.4522 0
M  V30 794 C 81.0414 3.40692 1.16003 0
M  V30 795 C 80.6494 4.479 0.0948811 0
M  V30 796 C 82.3934 3.84034 1.80881 0
M  V30 797 C 80.3004 5.87879 0.644411 0
M  V30 798 H 79.2304 0.715918 0.236596 0
M  V30 799 H 81.8814 1.83115 -0.118861 0
M  V30 800 H 80.2634 3.44405 1.9545 0
M  V30 801 H 81.4374 4.55775 -0.678675 0
M  V30 802 H 79.7524 4.13892 -0.45637 0
M  V30 803 H 82.3494 4.85984 2.22988 0
M  V30 804 H 82.6924 3.20225 2.6601 0
M  V30 805 H 83.2254 3.82833 1.0809 0
M  V30 806 H 79.9644 6.55282 -0.169229 0
M  V30 807 H 79.4844 5.83567 1.38598 0
M  V30 808 H 81.1634 6.37098 1.12763 0
M  V30 809 N 81.2955 -0.223234 1.56011 0
M  V30 810 C 82.7065 -0.790368 1.69145 0
M  V30 811 C 83.0575 -1.85055 0.651845 0
M  V30 812 O 82.1825 -2.15498 -0.197359 0
M  V30 813 C 82.7775 -1.4404 3.06656 0
M  V30 814 C 81.3365 -1.95494 3.2165 0
M  V30 815 C 80.4835 -0.814506 2.65068 0
M  V30 816 H 83.4345 0.00139011 1.587 0
M  V30 817 H 83.4555 -2.30916 3.0242 0
M  V30 818 H 82.9675 -0.668543 3.82298 0
M  V30 819 H 81.0685 -2.75487 2.50874 0
M  V30 820 H 81.1815 -2.13607 4.28846 0
M  V30 821 H 79.5455 -1.22137 2.23505 0
M  V30 822 H 80.3285 -0.0553515 3.43255 0
M  V30 823 N 82.7736 -1.49793 -0.48987 0
M  V30 824 C 83.9986 -1.63836 -1.27172 0
M  V30 825 C 84.4236 -0.31402 -1.8546 0
M  V30 826 O 83.7816 0.719803 -1.66399 0
M  V30 827 C 83.8296 -2.71797 -2.36978 0
M  V30 828 O 82.9336 -2.31744 -3.41128 0
M  V30 829 H 82.2746 -0.547997 -0.37496 0
M  V30 830 H 84.8046 -1.96053 -0.585191 0
M  V30 831 H 84.8146 -2.94305 -2.82575 0
M  V30 832 H 83.4896 -3.67923 -1.93921 0
M  V30 833 H 82.0666 -2.1961 -3.01373 0
M  V30 834 N 84.2517 0.741722 -1.39055 0
M  V30 835 C 85.1987 1.85566 -1.37237 0
M  V30 836 C 86.1687 1.64457 -0.233072 0
M  V30 837 O 87.3537 1.85957 -0.427147 0
M  V30 838 C 84.4937 3.23004 -1.215 0
M  V30 839 C 83.6067 3.55864 -2.44918 0
M  V30 840 C 82.7417 4.82669 -2.21821 0
M  V30 841 C 81.7807 5.08351 -3.40948 0
M  V30 842 N 80.9177 6.26356 -3.17211 0
M  V30 843 H 85.7577 1.86455 -2.32462 0
M  V30 844 H 83.2947 0.911176 -1.15482 0
M  V30 845 H 85.2527 4.02331 -1.10389 0
M  V30 846 H 83.8827 3.21411 -0.29908 0
M  V30 847 H 82.9347 2.7129 -2.66657 0
M  V30 848 H 84.2467 3.70765 -3.33668 0
M  V30 849 H 83.4007 5.69962 -2.07914 0
M  V30 850 H 82.1397 4.69929 -1.30454 0
M  V30 851 H 81.1447 4.19522 -3.55361 0
M  V30 852 H 82.3697 5.22981 -4.33207 0
M  V30 853 H 80.3157 6.14917 -2.28502 0
M  V30 854 H 80.2327 6.41813 -3.99515 0
M  V30 855 H 81.5007 7.16506 -3.06984 0
M  V30 856 N 85.7298 1.2412 0.971189 0
M  V30 857 C 86.6928 1.03156 2.04674 0
M  V30 858 C 87.6928 -0.00990322 1.60797 0
M  V30 859 O 88.8828 0.230729 1.72665 0
M  V30 860 C 86.0148 0.562765 3.36223 0
M  V30 861 H 87.2078 1.98614 2.24705 0
M  V30 862 H 84.7608 1.06293 1.14593 0
M  V30 863 H 85.4958 -0.395176 3.21883 0
M  V30 864 H 85.2808 1.31441 3.69413 0
M  V30 865 H 86.7708 0.437015 4.15307 0
M  V30 866 N 87.2079 -1.17134 1.05439 0
M  V30 867 C 88.1379 -2.2342 0.678649 0
M  V30 868 C 89.1189 -1.66971 -0.32476 0
M  V30 869 O 90.3039 -1.93149 -0.201802 0
M  V30 870 C 87.4339 -3.47256 0.0552099 0
M  V30 871 C 86.3879 -4.16543 0.98365 0
M  V30 872 C 85.7139 -5.34231 0.223961 0
M  V30 873 C 87.0139 -4.68495 2.3089 0
M  V30 874 H 88.7079 -2.55105 1.56722 0
M  V30 875 H 86.2539 -1.2262 0.754998 0
M  V30 876 H 88.2069 -4.20828 -0.21946 0
M  V30 877 H 86.9309 -3.14846 -0.868319 0
M  V30 878 H 85.5899 -3.44887 1.24293 0
M  V30 879 H 85.2379 -4.98071 -0.702412 0
M  V30 880 H 84.9379 -5.81527 0.842627 0
M  V30 881 H 86.4619 -6.10585 -0.0433671 0
M  V30 882 H 87.8759 -5.33691 2.09396 0
M  V30 883 H 86.2729 -5.26379 2.88176 0
M  V30 884 H 87.3429 -3.85169 2.94572 0
M  V30 885 N 88.686 -0.835752 -1.33615 0
M  V30 886 C 89.616 -0.281739 -2.31794 0
M  V30 887 C 90.597 0.608833 -1.58831 0
M  V30 888 O 91.782 0.533035 -1.86741 0
M  V30 889 C 88.912 0.546612 -3.42971 0
M  V30 890 C 87.866 -0.247904 -4.27281 0
M  V30 891 C 87.192 0.704001 -5.30045 0
M  V30 892 C 88.492 -1.46324 -5.01385 0
M  V30 893 H 90.186 -1.10206 -2.78379 0
M  V30 894 H 87.732 -0.531388 -1.33837 0
M  V30 895 H 89.685 0.944467 -4.1068 0
M  V30 896 H 88.409 1.40011 -2.95067 0
M  V30 897 H 87.068 -0.627281 -3.61194 0
M  V30 898 H 86.716 1.55381 -4.78399 0
M  V30 899 H 86.416 0.176524 -5.87335 0
M  V30 900 H 87.94 1.09944 -6.0062 0
M  V30 901 H 89.354 -1.13871 -5.61877 0
M  V30 902 H 87.751 -1.92728 -5.6831 0
M  V30 903 H 88.821 -2.23467 -4.30338 0
M  V30 904 N 90.1641 1.46063 -0.591896 0
M  V30 905 C 91.4411 1.95595 -0.0137119 0
M  V30 906 C 91.8211 1.5345 1.4497 0
M  V30 907 O 91.1691 0.789543 2.14426 0
M  V30 908 C 91.3791 3.48453 -0.195373 0
M  V30 909 C 92.7271 4.24546 -0.0679765 0
M  V30 910 O 93.7511 3.55982 -0.124681 0
M  V30 911 O 92.6101 5.46467 0.0600579 0
M  V30 912 H 89.7041 0.825795 0.0446279 0
M  V30 913 H 92.2501 1.56303 -0.660859 0
M  V30 914 H 91.0221 3.72045 -1.21235 0
M  V30 915 H 90.6451 3.94597 0.487775 0
M  V30 916 N 91.6422 0.330177 1.54103 0
M  V30 917 C 92.8672 -0.274893 2.0557 0
M  V30 918 C 93.2922 -1.44487 1.20437 0
M  V30 919 O 92.6502 -1.80021 0.214991 0
M  V30 920 C 92.6982 -0.68079 3.54115 0
M  V30 921 O 91.8022 -1.7824 3.71893 0
M  V30 922 H 91.1432 -0.0483849 0.662235 0
M  V30 923 H 93.6732 0.480508 1.98878 0
M  V30 924 H 93.6832 -0.961635 3.96505 0
M  V30 925 H 92.3582 0.174903 4.15532 0
M  V30 926 H 90.9352 -1.49985 3.41407 0
M  V30 927 N 93.1203 -1.57491 0.0584922 0
M  V30 928 C 94.3453 -1.97711 -0.62652 0
M  V30 929 C 94.7703 -0.936132 -1.63151 0
M  V30 930 O 94.1283 0.099811 -1.81025 0
M  V30 931 C 94.1763 -3.36989 -1.28338 0
M  V30 932 O 93.2803 -3.35433 -2.39913 0
M  V30 933 H 92.6213 -0.643868 -0.162266 0
M  V30 934 H 95.1513 -2.04193 0.129064 0
M  V30 935 H 95.1613 -3.73879 -1.63335 0
M  V30 936 H 93.8363 -4.12289 -0.546889 0
M  V30 937 H 92.4133 -3.10298 -2.06809 0
M  V30 938 N 94.5984 0.214957 -1.56127 0
M  V30 939 C 95.8284 0.953707 -1.8327 0
M  V30 940 C 96.2364 1.78181 -0.636262 0
M  V30 941 O 95.5794 1.79191 0.404516 0
M  V30 942 C 95.6414 1.91516 -3.0424 0
M  V30 943 C 95.3054 1.27094 -4.38972 0
M  V30 944 C 96.3024 0.657575 -5.15725 0
M  V30 945 C 93.9874 1.28073 -4.85698 0
M  V30 946 C 95.9814 0.0625968 -6.37369 0
M  V30 947 C 93.6684 0.681914 -6.07283 0
M  V30 948 C 94.6664 0.0739046 -6.8296 0
M  V30 949 O 94.3544 -0.515582 -8.02245 0
M  V30 950 H 94.0864 0.284764 -0.613095 0
M  V30 951 H 96.6404 0.233283 -2.04071 0
M  V30 952 H 94.8704 2.67475 -2.79274 0
M  V30 953 H 96.5594 2.52001 -3.18198 0
M  V30 954 H 97.3254 0.642288 -4.80728 0
M  V30 955 H 93.2044 1.74337 -4.26764 0
M  V30 956 H 96.7484 -0.412593 -6.96379 0
M  V30 957 H 92.6454 0.694636 -6.41752 0
M  V30 958 H 93.4134 -0.410544 -8.1747 0
M  V30 959 N 96.0765 1.50051 0.48192 0
M  V30 960 C 97.0235 1.68122 1.58125 0
M  V30 961 C 97.9935 0.522545 1.57666 0
M  V30 962 O 99.1785 0.751844 1.75362 0
M  V30 963 C 96.3185 1.77142 2.96167 0
M  V30 964 C 95.4315 3.0444 3.06497 0
M  V30 965 C 94.5665 3.04321 4.35387 0
M  V30 966 C 93.6055 4.26118 4.3942 0
M  V30 967 N 92.7425 4.238 5.59766 0
M  V30 968 H 97.5825 2.6198 1.42022 0
M  V30 969 H 95.1195 1.29877 0.690687 0
M  V30 970 H 97.0775 1.80352 3.76203 0
M  V30 971 H 95.7075 0.867329 3.1093 0
M  V30 972 H 94.7595 3.10752 2.19402 0
M  V30 973 H 96.0715 3.94426 3.05336 0
M  V30 974 H 95.2255 3.062 5.23762 0
M  V30 975 H 93.9645 2.12147 4.39141 0
M  V30 976 H 92.9695 4.24463 3.49444 0
M  V30 977 H 94.1945 5.19507 4.37366 0
M  V30 978 H 92.1405 3.34474 5.64326 0
M  V30 979 H 92.0575 5.07542 5.60301 0
M  V30 980 H 93.3255 4.2981 6.50295 0
M  V30 981 N 97.5546 -0.734337 1.39446 0
M  V30 982 C 98.8016 -1.49391 1.36706 0
M  V30 983 C 99.1296 -1.94465 -0.0367813 0
M  V30 984 O 98.3846 -1.67154 -1.01774 0
M  V30 985 C 98.6836 -2.74711 2.28623 0
M  V30 986 C 98.3496 -2.48501 3.76242 0
M  V30 987 C 97.0116 -2.41062 4.16464 0
M  V30 988 C 99.3636 -2.26098 4.69606 0
M  V30 989 C 96.6916 -2.09262 5.48112 0
M  V30 990 C 99.0436 -1.95814 6.01531 0
M  V30 991 C 97.7076 -1.86845 6.40816 0
M  V30 992 H 96.9776 -0.546661 0.500243 0
M  V30 993 H 99.6246 -0.842788 1.71957 0
M  V30 994 H 97.9296 -3.44569 1.86492 0
M  V30 995 H 99.6266 -3.32741 2.23796 0
M  V30 996 H 96.2166 -2.55169 3.44364 0
M  V30 997 H 100.401 -2.30812 4.39363 0
M  V30 998 H 95.6566 -2.00841 5.77471 0
M  V30 999 H 99.8306 -1.77488 6.73403 0
M  V30 1000 H 97.4576 -1.6197 7.42745 0
M  V30 1001 N 99.0327 -1.24633 -0.964593 0
M  V30 1002 C 99.9827 -1.00841 -2.04487 0
M  V30 1003 C 100.967 0.0512468 -1.60818 0
M  V30 1004 O 102.159 -0.162865 -1.76249 0
M  V30 1005 C 99.2877 -0.618474 -3.37683 0
M  V30 1006 C 98.3737 -1.71437 -3.87905 0
M  V30 1007 N 98.7647 -2.9477 -4.11029 0
M  V30 1008 C 97.0627 -1.5926 -4.16596 0
M  V30 1009 C 97.7637 -3.65834 -4.52261 0
M  V30 1010 N 96.7397 -2.9341 -4.57615 0
M  V30 1011 H 100.542 -1.94487 -2.20345 0
M  V30 1012 H 98.0557 -1.14805 -1.14863 0
M  V30 1013 H 100.053 -0.429247 -4.14684 0
M  V30 1014 H 98.7127 0.310766 -3.23209 0
M  V30 1015 H 99.7237 -3.30917 -3.9839 0
M  V30 1016 H 96.4007 -0.731606 -4.1104 0
M  V30 1017 H 97.7907 -4.71646 -4.78539 0
M  V30 1018 N 100.511 1.16574 -1.06058 0
M  V30 1019 C 101.421 2.2452 -0.680282 0
M  V30 1020 C 102.437 1.71348 0.302604 0
M  V30 1021 O 103.613 2.00822 0.152513 0
M  V30 1022 C 100.678 3.46629 -0.0700315 0
M  V30 1023 C 99.7388 4.14849 -1.10448 0
M  V30 1024 C 98.9718 5.31129 -0.523256 0
M  V30 1025 O 99.1948 5.66514 0.664709 0
M  V30 1026 O 98.1288 5.88526 -1.26179 0
M  V30 1027 H 101.955 2.59355 -1.58015 0
M  V30 1028 H 99.5398 1.24043 -0.832694 0
M  V30 1029 H 101.422 4.20543 0.268667 0
M  V30 1030 H 100.097 3.13573 0.803353 0
M  V30 1031 H 99.0038 3.42916 -1.49532 0
M  V30 1032 H 100.337 4.51954 -1.94931 0
M  V30 1033 N 101.989 0.842826 1.3317 0
M  V30 1034 C 102.952 0.284065 2.27433 0
M  V30 1035 C 103.952 -0.54948 1.5112 0
M  V30 1036 O 105.142 -0.362699 1.70382 0
M  V30 1037 C 102.274 -0.599384 3.35589 0
M  V30 1038 H 103.467 1.11589 2.78366 0
M  V30 1039 H 101.02 0.616221 1.4364 0
M  V30 1040 H 101.755 -1.45349 2.89904 0
M  V30 1041 H 101.54 -0.00291266 3.921 0
M  V30 1042 H 103.03 -0.983488 4.05854 0
M  V30 1043 N 103.467 -1.45747 0.599634 0
M  V30 1044 C 104.417 -2.27538 -0.145107 0
M  V30 1045 C 105.401 -1.3686 -0.846055 0
M  V30 1046 O 106.593 -1.6091 -0.737357 0
M  V30 1047 C 103.722 -3.23569 -1.14708 0
M  V30 1048 C 102.808 -4.21734 -0.447383 0
M  V30 1049 N 103.199 -5.03257 0.506535 0
M  V30 1050 C 101.497 -4.40536 -0.695966 0
M  V30 1051 C 102.198 -5.74426 0.917068 0
M  V30 1052 N 101.174 -5.42966 0.26253 0
M  V30 1053 H 104.976 -2.87965 0.587672 0
M  V30 1054 H 102.49 -1.56803 0.422697 0
M  V30 1055 H 104.487 -3.8089 -1.69495 0
M  V30 1056 H 103.147 -2.64702 -1.8805 0
M  V30 1057 H 104.158 -5.10319 0.882899 0
M  V30 1058 H 100.835 -3.92802 -1.41467 0
M  V30 1059 H 102.225 -6.4995 1.70338 0
M  V30 1060 N 104.945 -0.338344 -1.53925 0
M  V30 1061 C 105.855 0.529421 -2.28548 0
M  V30 1062 C 106.871 1.11645 -1.3346 0
M  V30 1063 O 108.047 1.13325 -1.66492 0
M  V30 1064 C 105.112 1.66713 -3.03987 0
M  V30 1065 C 104.173 1.11041 -4.14691 0
M  V30 1066 C 103.406 2.19389 -4.86522 0
M  V30 1067 O 103.629 3.40013 -4.57982 0
M  V30 1068 O 102.563 1.83976 -5.73094 0
M  V30 1069 H 106.389 -0.0770399 -3.03602 0
M  V30 1070 H 103.974 -0.103555 -1.49041 0
M  V30 1071 H 105.856 2.32918 -3.5118 0
M  V30 1072 H 104.531 2.25949 -2.31794 0
M  V30 1073 H 103.438 0.413024 -3.71813 0
M  V30 1074 H 104.771 0.562975 -4.8897 0
M  V30 1075 N 106.423 1.57458 -0.0668435 0
M  V30 1076 C 107.648 1.9804 0.616027 0
M  V30 1077 C 108.073 0.944771 1.62652 0
M  V30 1078 O 107.431 -0.0902094 1.81075 0
M  V30 1079 C 107.479 3.37665 1.26549 0
M  V30 1080 O 106.583 3.36701 2.38131 0
M  V30 1081 H 105.924 0.644719 0.158849 0
M  V30 1082 H 108.454 2.04121 -0.139891 0
M  V30 1083 H 108.464 3.7474 1.6135 0
M  V30 1084 H 107.139 4.12573 0.525016 0
M  V30 1085 H 105.716 3.1139 2.0516 0
M  V30 1086 N 107.901 -0.206675 1.56239 0
M  V30 1087 C 109.148 -0.928842 1.79941 0
M  V30 1088 C 109.476 -1.83734 0.638131 0
M  V30 1089 O 108.731 -1.92039 -0.376746 0
M  V30 1090 C 109.03 -1.78675 3.09532 0
M  V30 1091 C 108.696 -1.03022 4.38973 0
M  V30 1092 C 107.358 -0.821302 4.74139 0
M  V30 1093 C 109.71 -0.497081 5.18824 0
M  V30 1094 C 107.038 -0.0675719 5.86661 0
M  V30 1095 C 109.39 0.24338 6.32132 0
M  V30 1096 C 108.054 0.463422 6.65889 0
M  V30 1097 H 107.324 -0.339887 0.658451 0
M  V30 1098 H 109.971 -0.195977 1.90495 0
M  V30 1099 H 108.276 -2.58794 2.94165 0
M  V30 1100 H 109.973 -2.34792 3.25075 0
M  V30 1101 H 106.563 -1.20306 4.11369 0
M  V30 1102 H 110.747 -0.645921 4.92079 0
M  V30 1103 H 106.003 0.112995 6.11296 0
M  V30 1104 H 110.177 0.66393 6.93228 0
M  V30 1105 H 107.804 1.04938 7.52922 0
M  V30 1106 N 109.379 -1.50304 -0.473955 0
M  V30 1107 C 110.326 -1.68959 -1.57231 0
M  V30 1108 C 111.296 -0.530899 -1.57387 0
M  V30 1109 O 112.481 -0.761133 -1.74961 0
M  V30 1110 C 109.621 -1.7871 -2.95223 0
M  V30 1111 C 108.734 -3.06061 -3.04878 0
M  V30 1112 C 107.869 -3.06626 -4.33767 0
M  V30 1113 C 106.908 -4.28443 -4.37154 0
M  V30 1114 N 106.045 -4.26763 -5.5751 0
M  V30 1115 H 110.885 -2.6273 -1.40631 0
M  V30 1116 H 108.422 -1.30241 -0.683789 0
M  V30 1117 H 110.38 -1.82344 -3.75242 0
M  V30 1118 H 109.01 -0.883806 -3.10465 0
M  V30 1119 H 108.062 -3.11911 -2.17751 0
M  V30 1120 H 109.374 -3.96039 -3.0324 0
M  V30 1121 H 108.528 -3.08973 -5.22131 0
M  V30 1122 H 107.267 -2.14473 -4.3801 0
M  V30 1123 H 106.272 -4.2631 -3.47188 0
M  V30 1124 H 107.497 -5.2182 -4.34605 0
M  V30 1125 H 105.443 -3.37462 -5.62544 0
M  V30 1126 H 105.36 -5.10507 -5.57601 0
M  V30 1127 H 106.628 -4.33253 -6.48006 0
M  V30 1128 N 110.857 0.726932 -1.39834 0
M  V30 1129 C 111.787 1.85405 -1.41941 0
M  V30 1130 C 112.768 1.67751 -0.281728 0
M  V30 1131 O 113.953 1.8795 -0.488717 0
M  V30 1132 C 111.083 3.23243 -1.2701 0
M  V30 1133 C 110.037 3.55549 -2.38262 0
M  V30 1134 C 109.363 4.9241 -2.08415 0
M  V30 1135 C 110.663 3.577 -3.80589 0
M  V30 1136 H 112.357 1.83899 -2.36266 0
M  V30 1137 H 109.903 0.883349 -1.13723 0
M  V30 1138 H 111.856 4.01775 -1.27103 0
M  V30 1139 H 110.58 3.25296 -0.291564 0
M  V30 1140 H 109.239 2.79351 -2.37399 0
M  V30 1141 H 108.887 4.91052 -1.0898 0
M  V30 1142 H 108.587 5.14992 -2.82943 0
M  V30 1143 H 110.111 5.73289 -2.10171 0
M  V30 1144 H 111.525 4.26293 -3.83337 0
M  V30 1145 H 109.922 3.91804 -4.54543 0
M  V30 1146 H 110.992 2.57328 -4.10987 0
M  V30 1147 N 112.336 1.25143 0.95797 0
M  V30 1148 C 113.286 1.01924 2.0395 0
M  V30 1149 C 114.27 -0.0427175 1.60843 0
M  V30 1150 O 115.462 0.17221 1.7616 0
M  V30 1151 C 112.591 0.636373 3.3735 0
M  V30 1152 C 111.677 1.73492 3.8699 0
M  V30 1153 N 112.068 2.96945 4.0946 0
M  V30 1154 C 110.366 1.61467 4.15746 0
M  V30 1155 C 111.067 3.68228 4.50315 0
M  V30 1156 N 110.043 2.95833 4.56053 0
M  V30 1157 H 113.845 1.95653 2.19311 0
M  V30 1158 H 111.359 1.15413 1.14253 0
M  V30 1159 H 113.356 0.451233 4.14451 0
M  V30 1160 H 112.016 -0.293621 3.2337 0
M  V30 1161 H 113.027 3.33025 3.96629 0
M  V30 1162 H 109.704 0.753394 4.10646 0
M  V30 1163 H 111.094 4.74178 4.76031 0
M  V30 1164 N 113.814 -1.1601 1.06675 0
M  V30 1165 C 115.062 -1.86264 0.784229 0
M  V30 1166 C 115.383 -1.82328 -0.691488 0
M  V30 1167 O 114.653 -1.25947 -1.50047 0
M  V30 1168 H 113.233 -0.689621 0.28711 0
M  V30 1169 H 115.895 -1.40664 1.34906 0
M  V30 1170 H 114.991 -2.91595 1.11259 0
M  V30 1171 N 115.292 -0.849877 -1.32721 0
M  V30 1172 C 116.541 -0.447175 -1.96681 0
M  V30 1173 C 116.854 1.00135 -1.68025 0
M  V30 1174 O 118.06 1.50926 -2.25685 0
M  V30 1175 C 116.516 -0.7487 -3.52026 0
M  V30 1176 C 116.124 -2.21264 -3.89546 0
M  V30 1177 C 117.868 -0.413487 -4.22481 0
M  V30 1178 C 115.775 -2.45763 -5.37917 0
M  V30 1179 H 114.705 -0.163486 -0.736063 0
M  V30 1180 H 117.356 -1.03999 -1.51183 0
M  V30 1181 H 115.738 -0.0853727 -3.95908 0
M  V30 1182 H 116.912 -2.91736 -3.56689 0
M  V30 1183 H 115.227 -2.5119 -3.32103 0
M  V30 1184 H 117.824 -0.574017 -5.3161 0
M  V30 1185 H 118.167 0.644492 -4.11281 0
M  V30 1186 H 118.7 -1.03251 -3.84167 0
M  V30 1187 H 115.439 -3.50168 -5.54132 0
M  V30 1188 H 114.959 -1.79864 -5.72197 0
M  V30 1189 H 116.638 -2.29471 -6.0494 0
M  V30 1190 N 116.77 1.45427 -0.607355 0
M  V30 1191 C 117.995 2.07124 -0.107006 0
M  V30 1192 C 118.42 1.44906 1.19933 0
M  V30 1193 O 117.778 0.541687 1.73019 0
M  V30 1194 C 117.826 3.60595 0.0194119 0
M  V30 1195 O 116.93 3.98285 1.0697 0
M  V30 1196 H 116.271 0.659868 -0.0739597 0
M  V30 1197 H 118.801 1.86683 -0.837297 0
M  V30 1198 H 118.811 4.07419 0.2177 0
M  V30 1199 H 117.486 4.05266 -0.934453 0
M  V30 1200 H 116.063 3.63133 0.847889 0
M  V30 1201 N 118.248 0.346503 1.53744 0
M  V30 1202 C 119.476 -0.25041 2.05379 0
M  V30 1203 C 119.891 -1.43979 1.22129 0
M  V30 1204 O 119.248 -1.80677 0.257321 0
M  V30 1205 C 119.299 -0.662575 3.55376 0
M  V30 1206 O 119.02 0.479515 4.35468 0
M  V30 1207 C 120.521 -1.31989 4.23195 0
M  V30 1208 H 117.741 -0.0478198 0.669294 0
M  V30 1209 H 120.285 0.499346 1.9831 0
M  V30 1210 H 118.44 -1.36227 3.62658 0
M  V30 1211 H 118.854 0.15037 5.24284 0
M  V30 1212 H 120.328 -1.55902 5.29527 0
M  V30 1213 H 120.805 -2.27436 3.75725 0
M  V30 1214 H 121.411 -0.662154 4.20114 0
M  V30 1215 N 119.726 -1.57421 0.075193 0
M  V30 1216 C 120.974 -1.93236 -0.591974 0
M  V30 1217 C 121.295 -0.956241 -1.69944 0
M  V30 1218 O 120.565 -0.00494792 -1.95899 0
M  V30 1219 H 119.145 -0.713355 -0.22166 0
M  V30 1220 H 121.807 -1.9444 0.133848 0
M  V30 1221 H 120.903 -2.95131 -1.01509 0
M  V30 1222 N 121.204 0.198386 -1.56346 0
M  V30 1223 C 122.114 1.2664 -1.97483 0
M  V30 1224 C 123.13 1.49989 -0.882002 0
M  V30 1225 O 124.306 1.62668 -1.18748 0
M  V30 1226 C 121.371 2.59141 -2.30319 0
M  V30 1227 C 120.432 2.43892 -3.53292 0
M  V30 1228 C 119.665 3.70074 -3.84553 0
M  V30 1229 O 119.888 4.74101 -3.1715 0
M  V30 1230 O 118.822 3.658 -4.7799 0
M  V30 1231 H 122.648 0.947304 -2.88548 0
M  V30 1232 H 120.233 0.403123 -1.43859 0
M  V30 1233 H 122.115 3.37352 -2.5253 0
M  V30 1234 H 120.79 2.90684 -1.42423 0
M  V30 1235 H 119.697 1.63803 -3.36332 0
M  V30 1236 H 121.03 2.17282 -4.41644 0
M  V30 1237 N 122.682 1.50554 0.465978 0
M  V30 1238 C 123.928 1.62038 1.21949 0
M  V30 1239 C 124.261 0.322116 1.9151 0
M  V30 1240 O 123.536 -0.676723 1.82348 0
M  V30 1241 C 123.819 2.80421 2.25912 0
M  V30 1242 C 123.672 4.20144 1.60622 0
M  V30 1243 C 124.991 2.94354 3.27176 0
M  V30 1244 H 122.11 0.589752 0.441998 0
M  V30 1245 H 124.752 1.82956 0.51257 0
M  V30 1246 H 122.902 2.62717 2.86203 0
M  V30 1247 H 124.574 4.49449 1.03889 0
M  V30 1248 H 122.817 4.24165 0.909211 0
M  V30 1249 H 123.488 4.98914 2.36196 0
M  V30 1250 H 125.964 3.10578 2.76913 0
M  V30 1251 H 124.84 3.788 3.97242 0
M  V30 1252 H 125.101 2.05186 3.916 0
M  V30 1253 N 124.16 -0.719506 1.40217 0
M  V30 1254 C 125.123 -1.8153 1.39927 0
M  V30 1255 C 126.123 -1.58095 0.293723 0
M  V30 1256 O 127.313 -1.65209 0.552429 0
M  V30 1257 C 124.445 -3.19561 1.18716 0
M  V30 1258 H 125.638 -1.83186 2.37451 0
M  V30 1259 H 123.191 -0.924746 1.26008 0
M  V30 1260 H 123.926 -3.23557 0.219366 0
M  V30 1261 H 123.711 -3.3797 1.98793 0
M  V30 1262 H 125.201 -3.99598 1.21291 0
M  V30 1263 N 125.638 -1.25649 -0.95132 0
M  V30 1264 C 126.887 -1.09988 -1.69073 0
M  V30 1265 C 127.2 0.358355 -1.92289 0
M  V30 1266 O 128.406 0.635466 -2.63958 0
M  V30 1267 C 126.862 -1.92012 -3.044 0
M  V30 1268 C 126.47 -3.42347 -2.88968 0
M  V30 1269 C 128.214 -1.8493 -3.82101 0
M  V30 1270 C 126.121 -4.16655 -4.19705 0
M  V30 1271 H 125.051 -0.407993 -0.63408 0
M  V30 1272 H 127.702 -1.49873 -1.05879 0
M  V30 1273 H 126.084 -1.44952 -3.68517 0
M  V30 1274 H 127.258 -3.97104 -2.33762 0
M  V30 1275 H 125.573 -3.50557 -2.24719 0
M  V30 1276 H 128.17 -2.37739 -4.78941 0
M  V30 1277 H 128.513 -0.817883 -4.08187 0
M  V30 1278 H 129.046 -2.29758 -3.2474 0
M  V30 1279 H 125.785 -5.20224 -3.98807 0
M  V30 1280 H 125.305 -3.66681 -4.74663 0
M  V30 1281 H 126.984 -4.24551 -4.88227 0
M  V30 1282 N 127.117 1.15442 -1.07289 0
M  V30 1283 C 128.394 1.82306 -0.708792 0
M  V30 1284 C 128.774 1.94991 0.808807 0
M  V30 1285 O 128.122 1.50085 1.72298 0
M  V30 1286 C 128.332 3.18695 -1.42247 0
M  V30 1287 C 129.68 3.94341 -1.57417 0
M  V30 1288 O 130.704 3.28247 -1.38319 0
M  V30 1289 O 129.563 5.12839 -1.88834 0
M  V30 1290 H 126.657 0.787628 -0.252132 0
M  V30 1291 H 129.203 1.22559 -1.17377 0
M  V30 1292 H 127.975 3.04557 -2.45684 0
M  V30 1293 H 127.598 3.86128 -0.948223 0
M  V30 1294 N 128.595 0.856903 1.32268 0
M  V30 1295 C 129.841 0.462069 1.97466 0
M  V30 1296 C 130.174 -0.980298 1.67642 0
M  V30 1297 O 129.449 -1.68824 0.965858 0
M  V30 1298 C 129.732 0.704336 3.53145 0
M  V30 1299 C 129.585 2.19529 3.9259 0
M  V30 1300 C 130.904 0.1622 4.39801 0
M  V30 1301 H 128.023 0.169357 0.717278 0
M  V30 1302 H 130.665 1.07574 1.56614 0
M  V30 1303 H 128.815 0.181999 3.88073 0
M  V30 1304 H 130.487 2.78387 3.67829 0
M  V30 1305 H 128.73 2.67292 3.41668 0
M  V30 1306 H 129.401 2.31549 5.01088 0
M  V30 1307 H 131.877 0.608905 4.11621 0
M  V30 1308 H 130.753 0.361265 5.4771 0
M  V30 1309 H 131.014 -0.935158 4.32096 0
M  V30 1310 N 130.073 -1.45103 0.615059 0
M  V30 1311 C 131.484 -1.85654 0.197383 0
M  V30 1312 C 131.835 -1.51433 -1.24749 0
M  V30 1313 O 130.96 -0.944608 -1.94695 0
M  V30 1314 C 131.555 -3.36972 0.351448 0
M  V30 1315 C 130.114 -3.76398 -0.011593 0
M  V30 1316 C 129.261 -2.69024 0.672394 0
M  V30 1317 H 132.212 -1.35797 0.821263 0
M  V30 1318 H 132.233 -3.78239 -0.414227 0
M  V30 1319 H 131.745 -3.61847 1.40314 0
M  V30 1320 H 129.846 -3.5714 -1.06217 0
M  V30 1321 H 129.959 -4.77532 0.387265 0
M  V30 1322 H 128.323 -2.54465 0.109284 0
M  V30 1323 H 129.106 -2.96735 1.72636 0
M  V30 1324 N 131.551 -0.354651 -1.53558 0
M  V30 1325 C 132.779 0.239515 -2.05509 0
M  V30 1326 C 133.194 1.4333 -1.2289 0
M  V30 1327 O 132.551 1.80538 -0.266899 0
M  V30 1328 C 132.602 0.643719 -3.55723 0
M  V30 1329 O 132.323 -0.502602 -4.35207 0
M  V30 1330 C 133.824 1.29743 -4.23889 0
M  V30 1331 H 131.044 0.0442697 -0.669538 0
M  V30 1332 H 133.588 -0.509856 -1.98042 0
M  V30 1333 H 131.743 1.34302 -3.63376 0
M  V30 1334 H 132.157 -0.178172 -5.24197 0
M  V30 1335 H 133.631 1.53091 -5.30346 0
M  V30 1336 H 134.108 2.25441 -3.76926 0
M  V30 1337 H 134.714 0.639865 -4.20459 0
M  V30 1338 N 133.029 1.57378 -0.0835403 0
M  V30 1339 C 133.962 2.09016 0.915833 0
M  V30 1340 C 134.94 0.997993 1.2837 0
M  V30 1341 O 136.124 1.27219 1.39096 0
M  V30 1342 C 133.251 2.55757 2.22049 0
M  V30 1343 C 132.297 3.76522 2.00333 0
M  V30 1344 S 133.13 5.20661 1.25191 0
M  V30 1345 C 134.286 5.70743 2.56912 0
M  V30 1346 H 134.519 2.93457 0.476492 0
M  V30 1347 H 132.052 1.53856 0.129493 0
M  V30 1348 H 134.01 2.83346 2.97027 0
M  V30 1349 H 132.671 1.71564 2.63106 0
M  V30 1350 H 131.864 4.07256 2.96916 0
M  V30 1351 H 131.466 3.49367 1.33488 0
M  V30 1352 H 133.758 5.78304 3.52946 0
M  V30 1353 H 134.701 6.6944 2.30772 0
M  V30 1354 H 135.109 4.98616 2.64655 0
M  V30 1355 N 134.507 -0.190092 1.56449 0
M  V30 1356 C 135.756 -0.907912 1.80111 0
M  V30 1357 C 136.069 -1.84214 0.657619 0
M  V30 1358 O 137.275 -2.60094 0.778663 0
M  V30 1359 C 135.731 -1.66485 3.19078 0
M  V30 1360 C 135.339 -0.7752 4.41242 0
M  V30 1361 C 137.083 -2.37201 3.52045 0
M  V30 1362 C 134.99 -1.53129 5.71231 0
M  V30 1363 H 133.92 -0.34276 0.671589 0
M  V30 1364 H 136.571 -0.161109 1.82791 0
M  V30 1365 H 134.953 -2.45572 3.10661 0
M  V30 1366 H 136.127 -0.0226298 4.60794 0
M  V30 1367 H 134.442 -0.178627 4.16017 0
M  V30 1368 H 137.039 -2.94329 4.46402 0
M  V30 1369 H 137.382 -3.11632 2.76028 0
M  V30 1370 H 137.915 -1.65075 3.61932 0
M  V30 1371 H 134.654 -0.82967 6.50228 0
M  V30 1372 H 134.174 -2.25767 5.55688 0
M  V30 1373 H 135.853 -2.08377 6.12526 0
M  V30 1374 N 135.985 -1.50799 -0.457987 0
M  V30 1375 C 136.948 -1.7005 -1.53674 0
M  V30 1376 C 137.948 -0.570881 -1.50325 0
M  V30 1377 O 139.138 -0.838126 -1.52712 0
M  V30 1378 C 136.27 -1.73788 -2.93276 0
M  V30 1379 H 137.463 -2.66306 -1.37917 0
M  V30 1380 H 135.016 -1.40477 -0.685271 0
M  V30 1381 H 135.751 -0.792717 -3.14462 0
M  V30 1382 H 135.536 -2.55864 -2.97113 0
M  V30 1383 H 137.026 -1.90591 -3.71571 0
M  V30 1384 N 137.463 0.71206 -1.40597 0
M  V30 1385 C 138.879 1.02058 -1.22704 0
M  V30 1386 C 139.079 2.01228 -0.104729 0
M  V30 1387 O 138.135 2.4674 0.53624 0
M  V30 1388 C 139.448 1.56094 -2.57012 0
M  V30 1389 C 140.996 1.6806 -2.64054 0
M  V30 1390 C 141.471 2.25501 -3.9864 0
M  V30 1391 N 142.962 2.32882 -4.004 0
M  V30 1392 C 143.697 2.78317 -5.01325 0
M  V30 1393 N 143.193 3.23478 -6.12645 0
M  V30 1394 N 144.986 2.77733 -4.88693 0
M  V30 1395 H 137.137 0.0547896 -2.12329 0
M  V30 1396 H 139.4 0.0869027 -0.944008 0
M  V30 1397 H 139.106 0.906865 -3.39807 0
M  V30 1398 H 138.98 2.54564 -2.78347 0
M  V30 1399 H 141.367 2.32583 -1.81629 0
M  V30 1400 H 141.448 0.681802 -2.46546 0
M  V30 1401 H 141.092 1.61598 -4.81506 0
M  V30 1402 H 141.022 3.26102 -4.13479 0
M  V30 1403 H 143.513 2.00991 -3.20017 0
M  V30 1404 H 143.826 3.56725 -6.85542 0
M  V30 1405 H 142.171 3.21429 -6.16205 0
M  V30 1406 H 145.362 2.4179 -4.00818 0
M  V30 1407 H 145.535 3.12826 -5.67489 0
M  V30 1408 N 138.941 1.26152 0.944643 0
M  V30 1409 C 139.888 1.07408 2.04285 0
M  V30 1410 C 140.858 -0.0198413 1.66088 0
M  V30 1411 O 142.043 0.139264 1.90291 0
M  V30 1412 C 139.183 0.70945 3.37729 0
M  V30 1413 C 138.296 1.87926 3.88983 0
M  V30 1414 C 137.431 1.45807 5.10797 0
M  V30 1415 C 136.47 2.5964 5.54305 0
M  V30 1416 N 135.607 2.18226 6.67324 0
M  V30 1417 H 140.447 2.01389 2.1965 0
M  V30 1418 H 137.984 1.00275 1.07626 0
M  V30 1419 H 139.942 0.478948 4.14442 0
M  V30 1420 H 138.572 -0.193389 3.2222 0
M  V30 1421 H 137.624 2.22279 3.08701 0
M  V30 1422 H 138.936 2.73377 4.17213 0
M  V30 1423 H 138.09 1.18781 5.94959 0
M  V30 1424 H 136.829 0.574414 4.84305 0
M  V30 1425 H 135.834 2.87399 4.68702 0
M  V30 1426 H 137.059 3.48599 5.828 0
M  V30 1427 H 135.005 1.3229 6.42523 0
M  V30 1428 H 134.922 2.97221 6.95123 0
M  V30 1429 H 136.19 1.94403 7.54869 0
M  V30 1430 N 140.419 -1.14872 1.07899 0
M  V30 1431 C 141.696 -1.81928 0.71845 0
M  V30 1432 C 142.076 -1.95417 -0.798455 0
M  V30 1433 O 141.424 -1.50997 -1.715 0
M  V30 1434 C 141.634 -3.17937 1.43935 0
M  V30 1435 C 142.982 -3.93501 1.59506 0
M  V30 1436 O 144.006 -3.27509 1.40058 0
M  V30 1437 O 142.865 -5.1183 1.91551 0
M  V30 1438 H 139.959 -0.78628 0.256305 0
M  V30 1439 H 142.505 -1.21934 1.18026 0
M  V30 1440 H 141.277 -3.0325 2.47295 0
M  V30 1441 H 140.9 -3.85619 0.968687 0
M  V30 1442 N 141.898 -0.863906 -1.31812 0
M  V30 1443 C 142.83 -0.272485 -2.27575 0
M  V30 1444 C 143.843 0.56104 -1.52827 0
M  V30 1445 O 145.032 0.384021 -1.7432 0
M  V30 1446 C 142.132 0.63283 -3.32939 0
M  V30 1447 C 141.305 -0.166902 -4.37081 0
M  V30 1448 C 140.364 0.665608 -5.21973 0
M  V30 1449 O 139.39 0.0958091 -5.69119 0
M  V30 1450 N 140.592 1.9787 -5.45736 0
M  V30 1451 H 143.357 -1.0954 -2.78964 0
M  V30 1452 H 140.918 -0.724791 -1.4477 0
M  V30 1453 H 142.91 1.19532 -3.86645 0
M  V30 1454 H 141.48 1.35642 -2.81638 0
M  V30 1455 H 140.7 -0.910838 -3.83533 0
M  V30 1456 H 141.988 -0.715874 -5.03739 0
M  V30 1457 H 141.386 2.46484 -5.09178 0
M  V30 1458 H 139.943 2.48911 -6.024 0
M  V30 1459 N 143.376 1.44774 -0.622745 0
M  V30 1460 C 144.625 2.01334 -0.121397 0
M  V30 1461 C 144.938 1.49505 1.26125 0
M  V30 1462 O 146.144 1.98139 1.85616 0
M  V30 1463 C 144.6 3.59516 -0.166298 0
M  V30 1464 C 144.208 4.20342 -1.54974 0
M  V30 1465 C 145.952 4.23582 0.279021 0
M  V30 1466 C 143.859 5.70721 -1.55021 0
M  V30 1467 H 142.789 0.752851 -0.0416172 0
M  V30 1468 H 145.44 1.66083 -0.780309 0
M  V30 1469 H 143.822 3.92027 0.559557 0
M  V30 1470 H 144.996 3.99381 -2.29851 0
M  V30 1471 H 143.311 3.68529 -1.93843 0
M  V30 1472 H 145.908 5.33868 0.298083 0
M  V30 1473 H 146.251 3.95327 1.30471 0
M  V30 1474 H 146.784 3.95843 -0.394063 0
M  V30 1475 H 143.523 6.03698 -2.55399 0
M  V30 1476 H 143.043 5.93829 -0.844245 0
M  V30 1477 H 144.722 6.34203 -1.28047 0
M  V30 1478 N 144.854 0.36279 1.53368 0
M  V30 1479 C 146.1 -0.228113 2.01513 0
M  V30 1480 C 146.433 -1.48648 1.2497 0
M  V30 1481 O 145.708 -1.91459 0.342616 0
M  V30 1482 C 145.991 -0.522884 3.56284 0
M  V30 1483 C 145.844 0.74892 4.43521 0
M  V30 1484 C 147.163 -1.32461 4.19693 0
M  V30 1485 H 144.282 -0.0814343 0.732487 0
M  V30 1486 H 146.924 0.48713 1.83649 0
M  V30 1487 H 145.074 -1.1322 3.71636 0
M  V30 1488 H 146.746 1.38648 4.39971 0
M  V30 1489 H 144.989 1.36986 4.11603 0
M  V30 1490 H 145.66 0.497667 5.49752 0
M  V30 1491 H 148.136 -0.809203 4.08156 0
M  V30 1492 H 147.012 -1.49961 5.28018 0
M  V30 1493 H 147.273 -2.33232 3.75573 0
M  V30 1494 N 146.332 -1.57332 0.0918853 0
M  V30 1495 C 147.748 -1.57389 -0.264766 0
M  V30 1496 C 147.948 -1.10281 -1.68643 0
M  V30 1497 O 147.004 -0.777801 -2.40222 0
M  V30 1498 C 148.317 -3.00648 -0.0561195 0
M  V30 1499 C 149.865 -3.12754 -0.124116 0
M  V30 1500 C 150.34 -4.57965 0.0564972 0
M  V30 1501 N 151.831 -4.632 0.00155611 0
M  V30 1502 C 152.566 -5.73281 0.116598 0
M  V30 1503 N 152.062 -6.92208 0.286294 0
M  V30 1504 N 153.855 -5.6207 0.0580973 0
M  V30 1505 H 146.006 -1.86262 1.02079 0
M  V30 1506 H 148.269 -0.859579 0.399786 0
M  V30 1507 H 147.975 -3.393 0.925669 0
M  V30 1508 H 147.849 -3.68623 -0.799823 0
M  V30 1509 H 150.236 -2.73976 -1.09641 0
M  V30 1510 H 150.317 -2.47377 0.651024 0
M  V30 1511 H 149.961 -4.97436 1.02564 0
M  V30 1512 H 149.891 -5.21399 -0.738297 0
M  V30 1513 H 152.382 -3.77686 -0.127192 0
M  V30 1514 H 152.695 -7.71934 0.365676 0
M  V30 1515 H 151.04 -6.94254 0.32192 0
M  V30 1516 H 154.231 -4.68043 -0.0733204 0
M  V30 1517 H 154.404 -6.47824 0.151203 0
M  V30 1518 N 147.81 0.181792 -1.56548 0
M  V30 1519 C 148.758 1.24461 -1.965 0
M  V30 1520 C 149.752 1.464 -0.852261 0
M  V30 1521 O 150.958 1.47103 -1.03733 0
M  V30 1522 H 147.333 0.418138 -0.625031 0
M  V30 1523 H 149.304 0.880714 -2.85107 0
M  V30 1524 C 148.053 2.57891 -2.33212 0
M  V30 1525 H 147.376 2.41829 -3.18369 0
M  V30 1526 H 148.816 3.3097 -2.65019 0
M  V30 1527 C 147.275 3.15871 -1.17163 0
M  V30 1528 O 147.805 3.9913 -0.453708 0
M  V30 1529 N 146.011 2.74808 -0.944936 0
M  V30 1530 H 145.558 2.07205 -1.53049 0
M  V30 1531 H 145.516 3.13939 -0.170286 0
M  V30 1532 N 149.288 1.51039 0.449983 0
M  V30 1533 C 150.218 1.74379 1.55288 0
M  V30 1534 C 151.199 0.593236 1.5942 0
M  V30 1535 O 152.384 0.834625 1.7535 0
M  V30 1536 C 149.514 1.85728 2.93466 0
M  V30 1537 C 148.468 3.01078 3.04197 0
M  V30 1538 C 147.794 2.97595 4.44231 0
M  V30 1539 C 149.094 4.41254 2.7945 0
M  V30 1540 H 150.788 2.66725 1.36008 0
M  V30 1541 H 148.334 1.2835 0.652864 0
M  V30 1542 H 150.287 2.0064 3.70569 0
M  V30 1543 H 149.011 0.900207 3.13949 0
M  V30 1544 H 147.67 2.85851 2.29531 0
M  V30 1545 H 147.318 1.99691 4.61663 0
M  V30 1546 H 147.018 3.75046 4.52343 0
M  V30 1547 H 148.542 3.14583 5.23326 0
M  V30 1548 H 149.956 4.56897 3.46292 0
M  V30 1549 H 148.353 5.20315 2.98985 0
M  V30 1550 H 149.423 4.52164 1.75144 0
M  V30 1551 N 150.766 -0.704594 1.40972 0
M  V30 1552 C 151.994 -1.49354 1.43182 0
M  V30 1553 C 152.409 -1.88768 0.0345508 0
M  V30 1554 O 151.766 -1.56184 -0.944081 0
M  V30 1555 C 151.817 -2.76187 2.33244 0
M  V30 1556 O 151.538 -2.38436 3.67532 0
M  V30 1557 C 153.039 -3.7 2.44162 0
M  V30 1558 H 150.259 -0.460559 0.487982 0
M  V30 1559 H 152.803 -0.868261 1.85153 0
M  V30 1560 H 150.958 -3.34974 1.94606 0
M  V30 1561 H 151.372 -3.20126 4.15475 0
M  V30 1562 H 152.846 -4.55803 3.11364 0
M  V30 1563 H 153.323 -4.13867 1.47006 0
M  V30 1564 H 153.929 -3.17121 2.83398 0
M  V30 1565 N 152.244 -1.26651 -0.937939 0
M  V30 1566 C 153.492 -1.12165 -1.68118 0
M  V30 1567 C 153.813 0.334983 -1.92101 0
M  V30 1568 O 153.083 1.23583 -1.52 0
M  V30 1569 H 151.663 -0.412093 -0.623048 0
M  V30 1570 H 154.325 -1.59027 -1.12678 0
M  V30 1571 H 153.421 -1.64289 -2.6536 0
M  V30 1572 N 153.722 1.14298 -1.08507 0
M  V30 1573 C 154.97 1.84993 -0.813763 0
M  V30 1574 C 155.291 1.83405 0.662393 0
M  V30 1575 O 154.561 1.28319 1.48024 0
M  V30 1576 H 153.141 0.684966 -0.298045 0
M  V30 1577 H 155.803 1.385 -1.37126 0
M  V30 1578 H 154.899 2.89788 -1.15884 0
M  V30 1579 N 155.201 0.870884 1.31352 0
M  V30 1580 C 156.447 0.482987 1.96965 0
M  V30 1581 C 156.78 -0.962462 1.68672 0
M  V30 1582 O 156.055 -1.6779 0.98371 0
M  V30 1583 C 156.338 0.741752 3.52378 0
M  V30 1584 C 156.191 2.2368 3.9024 0
M  V30 1585 C 157.51 0.208838 4.39604 0
M  V30 1586 H 154.629 0.176955 0.715441 0
M  V30 1587 H 157.271 1.09229 1.55464 0
M  V30 1588 H 155.421 0.223149 3.87859 0
M  V30 1589 H 157.093 2.82273 3.64856 0
M  V30 1590 H 155.336 2.70901 3.38814 0
M  V30 1591 H 156.007 2.3685 4.98604 0
M  V30 1592 H 158.483 0.652529 4.10952 0
M  V30 1593 H 157.359 0.419336 5.47296 0
M  V30 1594 H 157.62 -0.889275 4.33064 0
M  V30 1595 N 156.679 -1.44442 0.630414 0
M  V30 1596 C 157.642 -2.29107 -0.0652523 0
M  V30 1597 C 158.642 -1.41002 -0.772995 0
M  V30 1598 O 159.832 -1.62881 -0.617692 0
M  V30 1599 C 156.964 -3.22564 -1.10296 0
M  V30 1600 H 158.157 -2.92103 0.679401 0
M  V30 1601 H 155.71 -1.51343 0.390517 0
M  V30 1602 H 156.445 -2.64416 -1.87762 0
M  V30 1603 H 156.23 -3.87491 -0.59941 0
M  V30 1604 H 157.72 -3.86167 -1.5895 0
M  V30 1605 N 158.157 -0.370918 -1.53173 0
M  V30 1606 C 159.382 0.220293 -2.06227 0
M  V30 1607 C 159.807 1.41243 -1.24225 0
M  V30 1608 O 159.165 1.79387 -0.262645 0
M  V30 1609 C 159.213 0.586663 -3.55796 0
M  V30 1610 O 158.317 1.68317 -3.76488 0
M  V30 1611 H 157.658 0.0308099 -0.663285 0
M  V30 1612 H 160.188 -0.533068 -1.97534 0
M  V30 1613 H 160.198 0.85617 -3.98916 0
M  V30 1614 H 158.873 -0.285013 -4.14922 0
M  V30 1615 H 157.45 1.40881 -3.45264 0
M  V30 1616 N 159.635 1.57281 -0.100228 0
M  V30 1617 C 160.565 2.17328 0.853857 0
M  V30 1618 C 161.546 1.10804 1.2906 0
M  V30 1619 O 162.731 1.38963 1.35657 0
M  V30 1620 C 159.861 2.75772 2.11109 0
M  V30 1621 C 158.815 3.87713 1.81279 0
M  V30 1622 C 158.141 4.32882 3.13874 0
M  V30 1623 C 159.441 5.10677 1.09574 0
M  V30 1624 H 161.135 2.97305 0.353545 0
M  V30 1625 H 158.681 1.43009 0.168612 0
M  V30 1626 H 160.634 3.16433 2.78296 0
M  V30 1627 H 159.358 1.93057 2.63432 0
M  V30 1628 H 158.017 3.476 1.16489 0
M  V30 1629 H 157.665 3.47051 3.64095 0
M  V30 1630 H 157.365 5.08358 2.94696 0
M  V30 1631 H 158.889 4.7618 3.82211 0
M  V30 1632 H 160.303 5.48474 1.66879 0
M  V30 1633 H 158.7 5.91615 1.00557 0
M  V30 1634 H 159.77 4.84835 0.0793299 0
M  V30 1635 N 161.113 -0.173488 1.56642 0
M  V30 1636 C 162.362 -0.888758 1.81063 0
M  V30 1637 C 162.675 -1.83506 0.67712 0
M  V30 1638 O 163.881 -2.59254 0.806206 0
M  V30 1639 C 162.337 -1.63091 3.20826 0
M  V30 1640 C 161.945 -0.728357 4.4204 0
M  V30 1641 C 163.689 -2.33454 3.54541 0
M  V30 1642 C 161.596 -1.47062 5.72823 0
M  V30 1643 H 160.526 -0.335618 0.675186 0
M  V30 1644 H 163.177 -0.141712 1.82952 0
M  V30 1645 H 161.559 -2.42263 3.13248 0
M  V30 1646 H 162.733 0.0262449 4.60793 0
M  V30 1647 H 161.048 -0.134492 4.16183 0
M  V30 1648 H 163.645 -2.89578 4.49498 0
M  V30 1649 H 163.988 -3.08687 2.79317 0
M  V30 1650 H 164.521 -1.61227 3.63663 0
M  V30 1651 H 161.26 -0.760658 6.51072 0
M  V30 1652 H 160.78 -2.1986 5.58052 0
M  V30 1653 H 162.459 -2.01868 6.14702 0
M  V30 1654 N 162.591 -1.51276 -0.441967 0
M  V30 1655 C 163.538 -1.72256 -1.53612 0
M  V30 1656 C 164.508 -0.564164 -1.56225 0
M  V30 1657 O 165.693 -0.798074 -1.73307 0
M  V30 1658 C 162.833 -1.84932 -2.91366 0
M  V30 1659 C 161.946 -3.12459 -2.98317 0
M  V30 1660 C 161.081 -3.15758 -4.27166 0
M  V30 1661 C 160.12 -4.37619 -4.27967 0
M  V30 1662 N 159.257 -4.38493 -5.48333 0
M  V30 1663 H 164.097 -2.65654 -1.35026 0
M  V30 1664 H 161.634 -1.31662 -0.656009 0
M  V30 1665 H 163.592 -1.90263 -3.7129 0
M  V30 1666 H 162.222 -0.949461 -3.08521 0
M  V30 1667 H 161.274 -3.1646 -2.11086 0
M  V30 1668 H 162.586 -4.02382 -2.94771 0
M  V30 1669 H 161.74 -3.19979 -5.15459 0
M  V30 1670 H 160.479 -2.23715 -4.33362 0
M  V30 1671 H 159.484 -4.33579 -3.38067 0
M  V30 1672 H 160.709 -5.30921 -4.23438 0
M  V30 1673 H 158.655 -3.49318 -5.55259 0
M  V30 1674 H 158.572 -5.22219 -5.46647 0
M  V30 1675 H 159.84 -4.469 -6.38671 0
M  V30 1676 N 164.069 0.697108 -1.41344 0
M  V30 1677 C 165.032 1.79281 -1.42797 0
M  V30 1678 C 166.032 1.57607 -0.318837 0
M  V30 1679 O 167.222 1.64309 -0.578642 0
M  V30 1680 C 164.354 3.17632 -1.23785 0
M  V30 1681 H 165.547 1.79385 -2.40335 0
M  V30 1682 H 163.1 0.904582 -1.27464 0
M  V30 1683 H 163.835 3.23167 -0.270814 0
M  V30 1684 H 163.62 3.34765 -2.04144 0
M  V30 1685 H 165.11 3.97617 -1.27633 0
M  V30 1686 N 165.547 1.27147 0.931209 0
M  V30 1687 C 166.495 1.09398 2.05268 0
M  V30 1688 C 167.489 0.0180591 1.6939 0
M  V30 1689 O 168.695 0.17551 1.79142 0
M  V30 1690 H 165.07 0.336986 0.672268 0
M  V30 1691 H 167.041 2.04416 2.17386 0
M  V30 1692 C 165.79 0.75424 3.39421 0
M  V30 1693 H 165.113 1.57404 3.67511 0
M  V30 1694 H 166.553 0.669903 4.18674 0
M  V30 1695 C 165.012 -0.541197 3.32525 0
M  V30 1696 O 165.542 -1.57664 3.69466 0
M  V30 1697 N 163.748 -0.535517 2.85623 0
M  V30 1698 H 163.295 0.307511 2.55758 0
M  V30 1699 H 163.253 -1.40236 2.81392 0
M  V30 1700 N 167.025 -1.13721 1.09112 0
M  V30 1701 C 168.273 -1.84559 0.823562 0
M  V30 1702 C 168.594 -1.83754 -0.652658 0
M  V30 1703 O 167.864 -1.29102 -1.47342 0
M  V30 1704 H 166.444 -0.683376 0.301673 0
M  V30 1705 H 169.106 -1.37771 1.37859 0
M  V30 1706 H 168.202 -2.8917 1.17419 0
M  V30 1707 N 168.503 -0.877838 -1.30888 0
M  V30 1708 C 169.749 -0.493426 -1.96706 0
M  V30 1709 C 170.082 0.953504 -1.6918 0
M  V30 1710 O 169.357 1.67266 -0.992594 0
M  V30 1711 C 169.64 -0.760429 -3.51979 0
M  V30 1712 C 169.493 -2.25747 -3.89048 0
M  V30 1713 C 170.812 -0.232148 -4.39487 0
M  V30 1714 H 167.931 -0.180746 -0.714493 0
M  V30 1715 H 170.573 -1.10052 -1.54882 0
M  V30 1716 H 168.723 -0.243715 -3.87735 0
M  V30 1717 H 170.395 -2.84204 -3.63354 0
M  V30 1718 H 168.638 -2.72694 -3.37373 0
M  V30 1719 H 169.309 -2.39491 -4.97341 0
M  V30 1720 H 171.785 -0.674314 -4.106 0
M  V30 1721 H 170.661 -0.448355 -5.47066 0
M  V30 1722 H 170.922 0.866297 -4.33529 0
M  V30 1723 N 169.982 1.44106 -0.638065 0
M  V30 1724 C 171.21 2.06336 -0.152615 0
M  V30 1725 C 171.625 1.47731 1.17563 0
M  V30 1726 O 170.982 0.602806 1.72257 0
M  V30 1727 C 171.033 3.61479 -0.0391491 0
M  V30 1728 O 170.754 4.17903 -1.31487 0
M  V30 1729 C 172.255 4.40757 0.474176 0
M  V30 1730 H 169.475 0.665862 -0.0828776 0
M  V30 1731 H 172.019 1.84862 -0.87443 0
M  V30 1732 H 170.174 3.82191 0.633142 0
M  V30 1733 H 170.588 5.11416 -1.16421 0
M  V30 1734 H 172.062 5.49707 0.502562 0
M  V30 1735 H 172.539 4.12697 1.50258 0
M  V30 1736 H 173.145 4.24979 -0.165102 0
M  V30 1737 N 171.46 0.379036 1.52974 0
M  V30 1738 C 172.39 -0.452706 2.29069 0
M  V30 1739 C 173.371 -1.07237 1.32039 0
M  V30 1740 O 174.556 -1.08708 1.60923 0
M  V30 1741 C 171.686 -1.5856 3.08992 0
M  V30 1742 C 170.64 -1.0925 4.13822 0
M  V30 1743 C 169.966 -2.31668 4.81907 0
M  V30 1744 C 171.266 -0.167702 5.22031 0
M  V30 1745 H 172.96 0.182181 2.98845 0
M  V30 1746 H 170.506 0.0890592 1.43724 0
M  V30 1747 H 172.459 -2.1742 3.6098 0
M  V30 1748 H 171.183 -2.24792 2.36931 0
M  V30 1749 H 169.842 -0.526494 3.628 0
M  V30 1750 H 169.49 -2.96386 4.06404 0
M  V30 1751 H 169.19 -1.9934 5.52754 0
M  V30 1752 H 170.714 -2.91189 5.36695 0
M  V30 1753 H 172.128 -0.664186 5.6944 0
M  V30 1754 H 170.525 0.0653265 6.00064 0
M  V30 1755 H 171.595 0.786347 4.78482 0
M  V30 1756 N 172.938 -1.57226 0.108567 0
M  V30 1757 C 174.185 -1.94833 -0.551943 0
M  V30 1758 C 174.513 -0.991204 -1.67348 0
M  V30 1759 O 173.768 -0.0131878 -1.95696 0
M  V30 1760 C 174.067 -3.38911 -1.13463 0
M  V30 1761 C 173.733 -4.50696 -0.135509 0
M  V30 1762 C 172.395 -4.80998 0.139252 0
M  V30 1763 C 174.747 -5.18333 0.545957 0
M  V30 1764 C 172.075 -5.76259 1.10194 0
M  V30 1765 C 174.427 -6.14627 1.49721 0
M  V30 1766 C 173.091 -6.43327 1.78006 0
M  V30 1767 H 172.361 -0.712944 -0.20197 0
M  V30 1768 H 175.008 -1.90582 0.18726 0
M  V30 1769 H 173.313 -3.39805 -1.95037 0
M  V30 1770 H 175.01 -3.65317 -1.65362 0
M  V30 1771 H 171.6 -4.27087 -0.359846 0
M  V30 1772 H 175.784 -4.95087 0.346842 0
M  V30 1773 H 171.04 -5.96804 1.32795 0
M  V30 1774 H 175.214 -6.66126 2.03099 0
M  V30 1775 H 172.841 -7.1695 2.52759 0
M  V30 1776 N 174.416 0.165178 -1.56732 0
M  V30 1777 C 175.326 1.22423 -2.00125 0
M  V30 1778 C 176.342 1.48084 -0.913619 0
M  V30 1779 O 177.518 1.60112 -1.22172 0
M  V30 1780 C 174.583 2.54197 -2.35764 0
M  V30 1781 C 173.644 2.36343 -3.58386 0
M  V30 1782 C 172.877 3.61834 -3.92316 0
M  V30 1783 O 173.1 4.67267 -3.27135 0
M  V30 1784 O 172.034 3.55579 -4.85641 0
M  V30 1785 H 175.86 0.885886 -2.90492 0
M  V30 1786 H 173.445 0.372518 -1.44681 0
M  V30 1787 H 175.327 3.3192 -2.59629 0
M  V30 1788 H 174.002 2.87598 -1.48557 0
M  V30 1789 H 172.909 1.56632 -3.39731 0
M  V30 1790 H 174.242 2.07865 -4.46154 0
M  V30 1791 N 175.894 1.51508 0.433938 0
M  V30 1792 C 177.142 1.6402 1.18075 0
M  V30 1793 C 177.463 0.360328 1.91642 0
M  V30 1794 O 176.733 -0.623945 1.85698 0
M  V30 1795 H 175.313 0.6045 0.43885 0
M  V30 1796 H 177.975 1.88452 0.497178 0
M  V30 1797 H 177.071 2.46949 1.90847 0
M  V30 1798 N 177.372 -0.689602 1.41712 0
M  V30 1799 C 178.322 -1.79571 1.40493 0
M  V30 1800 C 179.306 -1.58473 0.278409 0
M  V30 1801 O 180.498 -1.69204 0.519532 0
M  V30 1802 C 177.627 -3.17923 1.29536 0
M  V30 1803 C 176.713 -3.44695 2.47075 0
M  V30 1804 N 177.104 -3.42132 3.72531 0
M  V30 1805 C 175.402 -3.75269 2.41017 0
M  V30 1806 C 176.103 -3.67976 4.50521 0
M  V30 1807 N 175.079 -3.88014 3.80718 0
M  V30 1808 H 178.881 -1.75961 2.35404 0
M  V30 1809 H 176.395 -0.889839 1.35851 0
M  V30 1810 H 178.392 -3.97167 1.26745 0
M  V30 1811 H 177.052 -3.22741 0.356153 0
M  V30 1812 H 178.063 -3.22375 4.05333 0
M  V30 1813 H 174.74 -3.87421 1.55599 0
M  V30 1814 H 176.13 -3.7208 5.59469 0
M  V30 1815 N 178.85 -1.27639 -0.924453 0
M  V30 1816 C 180.098 -1.13941 -1.66918 0
M  V30 1817 C 180.419 0.314589 -1.92446 0
M  V30 1818 O 179.689 1.21964 -1.53303 0
M  V30 1819 H 178.269 -0.418678 -0.618642 0
M  V30 1820 H 180.931 -1.60213 -1.10985 0
M  V30 1821 H 180.027 -1.67094 -2.63602 0
M  V30 1822 N 180.328 1.1314 -1.09713 0
M  V30 1823 C 181.275 2.18642 -0.739196 0
M  V30 1824 C 182.245 1.63706 0.280978 0
M  V30 1825 O 183.43 1.90111 0.161946 0
M  V30 1826 C 180.57 3.44685 -0.169102 0
M  V30 1827 C 179.683 4.13711 -1.24367 0
M  V30 1828 C 178.818 5.27379 -0.636019 0
M  V30 1829 C 177.857 5.88259 -1.69169 0
M  V30 1830 N 176.994 6.93352 -1.10485 0
M  V30 1831 H 181.834 2.48607 -1.64312 0
M  V30 1832 H 179.371 1.22066 -0.820875 0
M  V30 1833 H 181.329 4.16815 0.179256 0
M  V30 1834 H 179.959 3.15161 0.698079 0
M  V30 1835 H 179.011 3.39835 -1.70927 0
M  V30 1836 H 180.323 4.55037 -2.04311 0
M  V30 1837 H 179.477 6.06238 -0.236677 0
M  V30 1838 H 178.216 4.8731 0.194928 0
M  V30 1839 H 177.221 5.08092 -2.10055 0
M  V30 1840 H 178.446 6.30399 -2.52536 0
M  V30 1841 H 176.392 6.55335 -0.295234 0
M  V30 1842 H 176.309 7.33236 -1.84121 0
M  V30 1843 H 177.577 7.76057 -0.73181 0
M  V30 1844 N 181.806 0.884767 1.30421 0
M  V30 1845 C 182.736 0.367574 2.30589 0
M  V30 1846 C 183.717 -0.549464 1.60981 0
M  V30 1847 O 184.902 -0.46336 1.88591 0
M  V30 1848 C 182.032 -0.418944 3.44764 0
M  V30 1849 C 180.986 0.406316 4.26067 0
M  V30 1850 C 180.312 -0.506793 5.32293 0
M  V30 1851 C 181.612 1.64832 4.95608 0
M  V30 1852 H 183.306 1.20462 2.74097 0
M  V30 1853 H 180.852 0.580695 1.31772 0
M  V30 1854 H 182.805 -0.791395 4.13902 0
M  V30 1855 H 181.529 -1.28964 3.0006 0
M  V30 1856 H 180.188 0.760903 3.58617 0
M  V30 1857 H 179.836 -1.37519 4.83836 0
M  V30 1858 H 179.536 0.0415828 5.87585 0
M  V30 1859 H 181.06 -0.875764 6.04287 0
M  V30 1860 H 182.474 1.34646 5.57264 0
M  V30 1861 H 180.871 2.13688 5.60765 0
M  V30 1862 H 181.941 2.39284 4.21748 0
M  V30 1863 N 183.284 -1.43765 0.645699 0
M  V30 1864 C 184.214 -2.33471 -0.0370477 0
M  V30 1865 C 185.195 -1.49042 -0.819779 0
M  V30 1866 O 186.38 -1.77726 -0.782758 0
M  V30 1867 C 183.51 -3.32311 -1.0093 0
M  V30 1868 C 182.464 -4.2667 -0.337201 0
M  V30 1869 C 181.79 -5.1549 -1.42037 0
M  V30 1870 C 183.09 -5.16657 0.765706 0
M  V30 1871 H 184.784 -2.90809 0.712069 0
M  V30 1872 H 182.33 -1.39834 0.343876 0
M  V30 1873 H 184.283 -3.9396 -1.49578 0
M  V30 1874 H 183.007 -2.73213 -1.78948 0
M  V30 1875 H 181.666 -3.66374 0.128771 0
M  V30 1876 H 181.314 -4.52735 -2.1918 0
M  V30 1877 H 181.014 -5.79438 -0.975966 0
M  V30 1878 H 182.538 -5.80012 -1.90838 0
M  V30 1879 H 183.952 -5.72158 0.361702 0
M  V30 1880 H 182.349 -5.89286 1.13413 0
M  V30 1881 H 183.419 -4.56796 1.62683 0
M  V30 1882 N 184.763 -0.387143 -1.52771 0
M  V30 1883 C 185.726 0.436939 -2.24997 0
M  V30 1884 C 186.726 0.991991 -1.26555 0
M  V30 1885 O 187.916 0.874335 -1.50669 0
M  V30 1886 C 185.048 1.61281 -3.00335 0
M  V30 1887 H 186.241 -0.195365 -2.99263 0
M  V30 1888 H 183.794 -0.139218 -1.55679 0
M  V30 1889 H 184.529 2.2826 -2.30364 0
M  V30 1890 H 184.314 1.22154 -3.72587 0
M  V30 1891 H 185.804 2.19629 -3.5518 0
M  V30 1892 N 186.241 1.57166 -0.116904 0
M  V30 1893 C 187.489 1.94737 0.540533 0
M  V30 1894 C 187.81 1.00096 1.67349 0
M  V30 1895 O 187.08 0.0568854 1.95817 0
M  V30 1896 H 185.66 0.718981 0.202669 0
M  V30 1897 H 188.322 1.94017 -0.185353 0
M  V30 1898 H 187.418 2.97719 0.936483 0
M  V30 1899 N 187.719 -0.156864 1.56817 0
M  V30 1900 C 188.666 -1.19394 1.97519 0
M  V30 1901 C 189.636 -1.4322 0.841265 0
M  V30 1902 O 190.821 -1.55719 1.10255 0
M  V30 1903 C 187.961 -2.52483 2.35258 0
M  V30 1904 C 187.074 -2.35914 3.61896 0
M  V30 1905 C 186.209 -3.61969 3.88782 0
M  V30 1906 C 185.248 -3.40395 5.08722 0
M  V30 1907 N 184.385 -4.58556 5.31668 0
M  V30 1908 H 189.225 -0.839845 2.85921 0
M  V30 1909 H 186.762 -0.403264 1.41464 0
M  V30 1910 H 188.72 -3.30071 2.55165 0
M  V30 1911 H 187.35 -2.85859 1.49949 0
M  V30 1912 H 186.402 -1.49429 3.49821 0
M  V30 1913 H 187.714 -2.15926 4.49641 0
M  V30 1914 H 186.868 -4.47989 4.09135 0
M  V30 1915 H 185.607 -3.84951 2.9944 0
M  V30 1916 H 184.612 -2.52763 4.88253 0
M  V30 1917 H 185.837 -3.18822 5.99608 0
M  V30 1918 H 183.783 -4.81729 4.45279 0
M  V30 1919 H 183.7 -4.41535 6.13664 0
M  V30 1920 H 184.968 -5.45817 5.5651 0
M  V30 1921 N 189.197 -1.51736 -0.425897 0
M  V30 1922 C 190.144 -1.73875 -1.51776 0
M  V30 1923 C 191.114 -0.580702 -1.55618 0
M  V30 1924 O 192.299 -0.81641 -1.72451 0
M  V30 1925 C 189.439 -1.88012 -2.89388 0
M  V30 1926 C 188.552 -3.15606 -2.94986 0
M  V30 1927 C 187.687 -3.20271 -4.23793 0
M  V30 1928 C 186.726 -4.42134 -4.23302 0
M  V30 1929 N 185.863 -4.44284 -5.43651 0
M  V30 1930 H 190.703 -2.67071 -1.32201 0
M  V30 1931 H 188.24 -1.32351 -0.642008 0
M  V30 1932 H 190.198 -1.9419 -3.69251 0
M  V30 1933 H 188.828 -0.98213 -3.07496 0
M  V30 1934 H 187.88 -3.18681 -2.07717 0
M  V30 1935 H 189.192 -4.05486 -2.90486 0
M  V30 1936 H 188.346 -3.25428 -5.12036 0
M  V30 1937 H 187.085 -2.28299 -4.30965 0
M  V30 1938 H 186.09 -4.3714 -3.3345 0
M  V30 1939 H 187.315 -5.35382 -4.17783 0
M  V30 1940 H 185.261 -3.55188 -5.51523 0
M  V30 1941 H 185.178 -5.27988 -5.41078 0
M  V30 1942 H 186.446 -4.53649 -6.33895 0
M  V30 1943 N 190.675 0.682077 -1.42076 0
M  V30 1944 C 191.921 1.44428 -1.42367 0
M  V30 1945 C 192.254 1.94164 -0.0373056 0
M  V30 1946 O 191.529 1.70429 0.937239 0
M  V30 1947 C 191.812 2.64654 -2.44194 0
M  V30 1948 C 191.665 2.20596 -3.91991 0
M  V30 1949 C 192.984 3.66865 -2.431 0
M  V30 1950 H 190.103 0.523834 -0.518428 0
M  V30 1951 H 192.745 0.77576 -1.73442 0
M  V30 1952 H 190.895 3.2169 -2.17826 0
M  V30 1953 H 192.567 1.68783 -4.29313 0
M  V30 1954 H 190.81 1.52242 -4.06208 0
M  V30 1955 H 191.481 3.06921 -4.58807 0
M  V30 1956 H 193.957 3.19531 -2.66532 0
M  V30 1957 H 192.833 4.48577 -3.16339 0
M  V30 1958 H 193.094 4.17493 -1.45437 0
M  V30 1959 N 192.153 1.28127 0.917671 0
M  V30 1960 C 193.063 1.13556 2.05286 0
M  V30 1961 C 194.079 0.0630914 1.73886 0
M  V30 1962 O 195.255 0.271598 1.9956 0
M  V30 1963 C 192.32 0.794676 3.3747 0
M  V30 1964 C 191.381 1.94909 3.82504 0
M  V30 1965 C 190.614 1.62437 5.0838 0
M  V30 1966 O 190.837 0.536905 5.67867 0
M  V30 1967 O 189.771 2.46677 5.4903 0
M  V30 1968 H 193.597 2.08844 2.20495 0
M  V30 1969 H 191.182 1.07409 1.03845 0
M  V30 1970 H 193.064 0.618344 4.16839 0
M  V30 1971 H 191.739 -0.128581 3.23445 0
M  V30 1972 H 190.646 2.18055 3.03978 0
M  V30 1973 H 191.979 2.85291 4.01086 0
M  V30 1974 N 193.631 -1.12557 1.10312 0
M  V30 1975 C 194.877 -1.84311 0.846011 0
M  V30 1976 C 195.21 -1.83805 -0.626859 0
M  V30 1977 O 194.485 -1.28268 -1.46211 0
M  V30 1978 C 194.768 -3.32048 1.39341 0
M  V30 1979 C 194.621 -3.41016 2.93305 0
M  V30 1980 C 195.94 -4.27764 1.03468 0
M  V30 1981 H 193.059 -0.669192 0.30879 0
M  V30 1982 H 195.701 -1.32057 1.36605 0
M  V30 1983 H 193.851 -3.76678 0.951087 0
M  V30 1984 H 195.523 -3.05031 3.46055 0
M  V30 1985 H 193.766 -2.81603 3.29973 0
M  V30 1986 H 194.437 -4.44948 3.26689 0
M  V30 1987 H 196.913 -3.91253 1.41633 0
M  V30 1988 H 195.789 -5.29549 1.44463 0
M  V30 1989 H 196.05 -4.42064 -0.0560404 0
M  V30 1990 N 195.109 -0.891671 -1.2995 0
M  V30 1991 C 196.337 -0.52866 -2.00032 0
M  V30 1992 C 196.752 0.884574 -1.66795 0
M  V30 1993 O 196.109 1.5827 -0.908669 0
M  V30 1994 C 196.16 -0.701814 -3.54622 0
M  V30 1995 O 195.881 -2.05942 -3.86678 0
M  V30 1996 C 197.382 -0.342683 -4.41973 0
M  V30 1997 H 194.602 -0.203659 -0.639347 0
M  V30 1998 H 197.146 -1.19881 -1.65677 0
M  V30 1999 H 195.301 -0.0789468 -3.8732 0
M  V30 2000 H 195.715 -2.08291 -4.81368 0
M  V30 2001 H 197.189 -0.514709 -5.49595 0
M  V30 2002 H 197.666 0.71975 -4.33262 0
M  V30 2003 H 198.272 -0.942154 -4.14733 0
M  V30 2004 N 196.587 1.43421 -0.653314 0
M  V30 2005 C 197.55 2.29182 0.0287951 0
M  V30 2006 C 198.55 1.42213 0.750465 0
M  V30 2007 O 199.74 1.63843 0.591701 0
M  V30 2008 C 196.872 3.24278 1.05151 0
M  V30 2009 H 198.065 2.90985 -0.725786 0
M  V30 2010 H 195.618 1.50702 -0.414545 0
M  V30 2011 H 196.353 2.6737 1.83532 0
M  V30 2012 H 196.138 3.88396 0.537687 0
M  V30 2013 H 197.628 3.88647 1.52786 0
M  V30 2014 N 198.065 0.39524 1.52563 0
M  V30 2015 C 199.028 -0.425001 2.25225 0
M  V30 2016 C 200.028 -0.985266 1.27079 0
M  V30 2017 O 201.218 -0.866332 1.5113 0
M  V30 2018 C 198.35 -1.59686 3.01186 0
M  V30 2019 H 199.543 0.211233 2.99155 0
M  V30 2020 H 197.096 0.147472 1.55603 0
M  V30 2021 H 197.831 -2.27035 2.31572 0
M  V30 2022 H 197.616 -1.20176 3.73229 0
M  V30 2023 H 199.106 -2.17743 3.5634 0
M  V30 2024 N 199.544 -1.57102 0.125237 0
M  V30 2025 C 200.821 -1.86953 -0.575142 0
M  V30 2026 C 201.201 -1.02749 -1.84407 0
M  V30 2027 O 200.549 -0.108144 -2.28244 0
M  V30 2028 C 200.759 -3.38198 -0.861583 0
M  V30 2029 C 202.107 -4.06937 -1.21192 0
M  V30 2030 O 203.131 -3.43252 -0.951645 0
M  V30 2031 O 201.99 -5.19364 -1.70068 0
M  V30 2032 H 199.084 -0.774147 -0.290906 0
M  V30 2033 H 201.63 -1.68942 0.160211 0
M  V30 2034 H 200.402 -3.91282 0.0373647 0
M  V30 2035 H 200.025 -3.61661 -1.65188 0
M  V30 2036 N 201.022 0.148545 -1.56898 0
M  V30 2037 C 202.27 0.859717 -1.82902 0
M  V30 2038 C 202.591 1.81775 -0.70588 0
M  V30 2039 O 201.861 1.93994 0.272586 0
M  V30 2040 H 200.441 0.320469 -0.674766 0
M  V30 2041 H 203.103 0.142918 -1.94375 0
M  V30 2042 H 202.199 1.4229 -2.77777 0
M  V30 2043 N 202.5 1.5196 0.417844 0
M  V30 2044 C 203.725 1.69717 1.1921 0
M  V30 2045 C 204.15 0.402148 1.83751 0
M  V30 2046 O 203.508 -0.639593 1.69643 0
M  V30 2047 C 203.556 2.82794 2.2374 0
M  V30 2048 O 202.66 2.47756 3.29683 0
M  V30 2049 H 202.001 0.565263 0.348387 0
M  V30 2050 H 204.531 1.98621 0.490985 0
M  V30 2051 H 204.541 3.07452 2.68212 0
M  V30 2052 H 203.216 3.76756 1.76146 0
M  V30 2053 H 201.793 2.33739 2.90552 0
M  V30 2054 N 203.978 -0.674533 1.42435 0
M  V30 2055 C 205.203 -1.46784 1.46524 0
M  V30 2056 C 205.628 -1.87938 0.078066 0
M  V30 2057 O 204.986 -1.56014 -0.92354 0
M  V30 2058 C 205.034 -2.69307 2.39805 0
M  V30 2059 O 204.138 -3.67587 1.86959 0
M  V30 2060 H 203.479 -0.440959 0.496439 0
M  V30 2061 H 206.009 -0.827326 1.87127 0
M  V30 2062 H 206.019 -3.17374 2.56393 0
M  V30 2063 H 204.694 -2.38692 3.40586 0
M  V30 2064 H 203.271 -3.2662 1.79927 0
M  V30 2065 N 205.456 -1.28612 -0.910864 0
M  V30 2066 C 206.388 -1.08589 -2.01844 0
M  V30 2067 C 207.401 -0.0367419 -1.62759 0
M  V30 2068 O 208.59 -0.280101 -1.76289 0
M  V30 2069 C 205.69 -0.628626 -3.33019 0
M  V30 2070 C 204.863 -1.75382 -4.00699 0
M  V30 2071 C 203.922 -1.28945 -5.10156 0
M  V30 2072 O 202.948 -1.9922 -5.33198 0
M  V30 2073 N 204.15 -0.154224 -5.80295 0
M  V30 2074 H 206.915 -2.03973 -2.19579 0
M  V30 2075 H 204.476 -1.20403 -1.08234 0
M  V30 2076 H 206.468 -0.301508 -4.03575 0
M  V30 2077 H 205.038 0.232451 -3.11735 0
M  V30 2078 H 204.258 -2.25039 -3.23653 0
M  V30 2079 H 205.546 -2.50854 -4.42662 0
M  V30 2080 H 204.944 0.43194 -5.64049 0
M  V30 2081 H 203.501 0.113599 -6.51701 0
M  V30 2082 N 206.934 1.1197 -1.10907 0
M  V30 2083 C 208.18 1.8386 -0.855773 0
M  V30 2084 C 208.513 1.84134 0.617103 0
M  V30 2085 O 207.788 1.29041 1.45529 0
M  V30 2086 C 208.071 3.31305 -1.411 0
M  V30 2087 C 207.924 3.39456 -2.9511 0
M  V30 2088 C 209.243 4.2721 -1.05736 0
M  V30 2089 H 206.362 0.667545 -0.312334 0
M  V30 2090 H 209.004 1.31331 -1.37303 0
M  V30 2091 H 207.154 3.76169 -0.97105 0
M  V30 2092 H 208.826 3.03191 -3.47668 0
M  V30 2093 H 207.069 2.79849 -3.31462 0
M  V30 2094 H 207.74 4.43209 -3.29044 0
M  V30 2095 H 210.216 3.90497 -1.43706 0
M  V30 2096 H 209.092 5.28775 -1.47269 0
M  V30 2097 H 209.353 4.42088 0.0325958 0
M  V30 2098 N 208.412 0.89855 1.29475 0
M  V30 2099 C 209.342 0.39201 2.30186 0
M  V30 2100 C 210.323 -0.532359 1.61555 0
M  V30 2101 O 211.508 -0.443331 1.89072 0
M  V30 2102 C 208.638 -0.382353 3.45189 0
M  V30 2103 C 207.592 0.451483 4.25612 0
M  V30 2104 C 206.918 -0.450307 5.328 0
M  V30 2105 C 208.218 1.70079 4.93832 0
M  V30 2106 H 209.912 1.23362 2.72804 0
M  V30 2107 H 207.458 0.594638 1.31149 0
M  V30 2108 H 209.411 -0.747451 4.14718 0
M  V30 2109 H 208.135 -1.25774 3.01411 0
M  V30 2110 H 206.794 0.798897 3.57789 0
M  V30 2111 H 206.442 -1.32379 4.85268 0
M  V30 2112 H 206.142 0.103902 5.87508 0
M  V30 2113 H 207.666 -0.811623 6.05182 0
M  V30 2114 H 209.08 1.40549 5.55805 0
M  V30 2115 H 207.477 2.19623 5.58467 0
M  V30 2116 H 208.547 2.43744 4.19186 0
M  V30 2117 N 209.89 -1.43072 0.660911 0
M  V30 2118 C 211.167 -1.95307 0.107017 0
M  V30 2119 C 211.547 -1.60192 -1.37484 0
M  V30 2120 O 210.895 -0.890949 -2.10415 0
M  V30 2121 C 211.105 -3.47124 0.361402 0
M  V30 2122 C 212.453 -4.23738 0.270455 0
M  V30 2123 O 213.477 -3.54981 0.294382 0
M  V30 2124 O 212.336 -5.46131 0.200737 0
M  V30 2125 H 209.43 -0.826984 -0.00517729 0
M  V30 2126 H 211.976 -1.52972 0.734681 0
M  V30 2127 H 210.748 -3.65837 1.38848 0
M  V30 2128 H 210.371 -3.96475 -0.298953 0
M  V30 2129 N 211.368 -0.403325 -1.52352 0
M  V30 2130 C 212.596 0.174012 -2.06167 0
M  V30 2131 C 213.011 1.39347 -1.27388 0
M  V30 2132 O 212.368 1.79597 -0.324201 0
M  V30 2133 C 212.419 0.530223 -3.5759 0
M  V30 2134 O 212.14 -0.640806 -4.33388 0
M  V30 2135 C 213.641 1.16192 -4.27802 0
M  V30 2136 H 210.861 0.0229464 -0.670608 0
M  V30 2137 H 213.405 -0.572604 -1.9632 0
M  V30 2138 H 211.56 1.22673 -3.67464 0
M  V30 2139 H 211.974 -0.344851 -5.23365 0
M  V30 2140 H 213.448 1.36141 -5.34948 0
M  V30 2141 H 213.925 2.13335 -3.83907 0
M  V30 2142 H 214.531 0.505775 -4.22282 0
M  V30 2143 N 212.846 1.57033 -0.133567 0
M  V30 2144 C 213.756 2.19632 0.824564 0
M  V30 2145 C 214.772 1.17666 1.28182 0
M  V30 2146 O 215.948 1.50193 1.3418 0
M  V30 2147 C 213.013 2.79499 2.05137 0
M  V30 2148 C 212.074 3.96548 1.64464 0
M  V30 2149 C 211.307 4.5355 2.81297 0
M  V30 2150 O 211.53 4.09438 3.97136 0
M  V30 2151 O 210.464 5.44018 2.57542 0
M  V30 2152 H 214.29 3.01991 0.321766 0
M  V30 2153 H 211.875 1.49112 0.0927889 0
M  V30 2154 H 213.757 3.17602 2.7696 0
M  V30 2155 H 212.432 2.00162 2.54395 0
M  V30 2156 H 211.339 3.63186 0.897048 0
M  V30 2157 H 212.672 4.77364 1.19934 0
M  V30 2158 N 214.325 -0.140222 1.56975 0
M  V30 2159 C 215.273 -1.19207 1.99731 0
M  V30 2160 C 216.267 -1.44089 0.890777 0
M  V30 2161 O 217.473 -1.44301 1.07597 0
M  V30 2162 H 213.848 -0.40142 0.635898 0
M  V30 2163 H 215.819 -0.804813 2.87342 0
M  V30 2164 C 214.568 -2.51617 2.39967 0
M  V30 2165 H 213.891 -2.33303 3.24669 0
M  V30 2166 H 215.331 -3.23827 2.73701 0
M  V30 2167 C 213.79 -3.12654 1.25496 0
M  V30 2168 O 214.32 -3.97786 0.559371 0
M  V30 2169 N 212.526 -2.72206 1.01746 0
M  V30 2170 H 212.073 -2.03074 1.58489 0
M  V30 2171 H 212.031 -3.13377 0.253461 0
M  V30 2172 N 215.803 -1.52179 -0.40978 0
M  V30 2173 C 217.049 -1.66453 -1.15851 0
M  V30 2174 C 217.382 -0.392972 -1.90182 0
M  V30 2175 O 216.657 0.608579 -1.84734 0
M  V30 2176 C 216.94 -2.88612 -2.15349 0
M  V30 2177 C 216.793 -4.25815 -1.44918 0
M  V30 2178 C 218.112 -3.06294 -3.16026 0
M  V30 2179 H 215.231 -0.60575 -0.419805 0
M  V30 2180 H 217.873 -1.84732 -0.444314 0
M  V30 2181 H 216.023 -2.73158 -2.76255 0
M  V30 2182 H 217.695 -4.52995 -0.871365 0
M  V30 2183 H 215.938 -4.27247 -0.751159 0
M  V30 2184 H 216.609 -5.07337 -2.17516 0
M  V30 2185 H 219.085 -3.20641 -2.65195 0
M  V30 2186 H 217.961 -3.93283 -3.8291 0
M  V30 2187 H 218.222 -2.19579 -3.83715 0
M  V30 2188 N 217.281 0.66697 -1.42791 0
M  V30 2189 C 218.53 1.42278 -1.42968 0
M  V30 2190 C 218.843 1.9553 -0.0524489 0
M  V30 2191 O 220.049 2.71414 0.068363 0
M  V30 2192 C 218.505 2.57418 -2.51524 0
M  V30 2193 C 218.113 2.10832 -3.9529 0
M  V30 2194 C 219.857 3.34878 -2.60877 0
M  V30 2195 C 217.764 3.23101 -4.95338 0
M  V30 2196 H 216.694 0.534533 -0.531781 0
M  V30 2197 H 219.345 0.721302 -1.68729 0
M  V30 2198 H 217.727 3.29971 -2.18941 0
M  V30 2199 H 218.901 1.4538 -4.37266 0
M  V30 2200 H 217.216 1.46289 -3.89857 0
M  V30 2201 H 219.813 4.18505 -3.32802 0
M  V30 2202 H 220.156 3.81993 -1.6549 0
M  V30 2203 H 220.689 2.69398 -2.92693 0
M  V30 2204 H 217.428 2.80969 -5.9223 0
M  V30 2205 H 216.948 3.87309 -4.57987 0
M  V30 2206 H 218.627 3.88447 -5.17415 0
M  V30 2207 N 218.759 1.29093 0.90403 0
M  V30 2208 C 219.689 1.16401 2.02418 0
M  V30 2209 C 220.67 0.0593085 1.69997 0
M  V30 2210 O 221.855 0.238021 1.92736 0
M  V30 2211 C 218.985 0.835233 3.37107 0
M  V30 2212 C 217.939 1.89578 3.83724 0
M  V30 2213 C 217.265 1.42041 5.15489 0
M  V30 2214 C 218.565 3.30394 4.04521 0
M  V30 2215 H 220.259 2.10109 2.13295 0
M  V30 2216 H 217.805 1.01157 1.02486 0
M  V30 2217 H 219.758 0.733169 4.14973 0
M  V30 2218 H 218.482 -0.137543 3.2631 0
M  V30 2219 H 217.141 1.98715 3.08071 0
M  V30 2220 H 216.789 0.436426 5.01103 0
M  V30 2221 H 216.489 2.12964 5.4765 0
M  V30 2222 H 218.013 1.33176 5.959 0
M  V30 2223 H 219.427 3.24123 4.72882 0
M  V30 2224 H 217.824 3.99237 4.48029 0
M  V30 2225 H 218.894 3.73692 3.09002 0
M  V30 2226 N 220.237 -1.11381 1.11499 0
M  V30 2227 C 221.2 -2.15622 0.777153 0
M  V30 2228 C 222.2 -1.59504 -0.203779 0
M  V30 2229 O 223.39 -1.74188 0.020782 0
M  V30 2230 C 220.522 -3.40556 0.153116 0
M  V30 2231 H 221.715 -2.47021 1.70061 0
M  V30 2232 H 219.268 -1.26577 0.916952 0
M  V30 2233 H 220.003 -3.14767 -0.780536 0
M  V30 2234 H 219.788 -3.8257 0.859238 0
M  V30 2235 H 221.278 -4.17546 -0.0671044 0
M  V30 2236 N 221.715 -0.905404 -1.28997 0
M  V30 2237 C 222.94 -0.549175 -1.99997 0
M  V30 2238 C 223.365 0.860276 -1.67275 0
M  V30 2239 O 222.723 1.57355 -0.900502 0
M  V30 2240 C 222.771 -0.755185 -3.52604 0
M  V30 2241 O 221.875 0.189692 -4.11964 0
M  V30 2242 H 221.216 -0.213899 -0.628604 0
M  V30 2243 H 223.746 -1.21856 -1.64354 0
M  V30 2244 H 223.756 -0.662045 -4.02593 0
M  V30 2245 H 222.431 -1.78271 -3.75755 0
M  V30 2246 H 221.008 0.0485257 -3.72868 0
M  V30 2247 N 223.193 1.4272 -0.668489 0
M  V30 2248 C 224.441 2.01226 -0.187769 0
M  V30 2249 C 224.762 1.53092 1.2078 0
M  V30 2250 O 224.032 0.74993 1.80977 0
M  V30 2251 H 222.612 0.744041 -0.0664272 0
M  V30 2252 H 225.274 1.74723 -0.863583 0
M  V30 2253 H 224.37 3.11556 -0.184166 0
M  V30 2254 N 224.671 0.411399 1.52136 0
M  V30 2255 C 225.896 -0.165538 2.06738 0
M  V30 2256 C 226.321 -1.379 1.27926 0
M  V30 2257 O 225.679 -1.78628 0.310114 0
M  V30 2258 C 225.727 -0.492124 3.57226 0
M  V30 2259 O 224.831 -1.58276 3.80818 0
M  V30 2260 H 224.172 -0.0132132 0.663869 0
M  V30 2261 H 226.702 0.585253 1.96051 0
M  V30 2262 H 226.712 -0.750104 4.01045 0
M  V30 2263 H 225.387 0.394922 4.14021 0
M  V30 2264 H 223.964 -1.31677 3.48877 0
M  V30 2265 N 226.149 -1.5696 0.141893 0
M  V30 2266 C 227.096 -2.16501 -0.799737 0
M  V30 2267 C 228.066 -1.09643 -1.24771 0
M  V30 2268 O 229.251 -1.3766 -1.32115 0
M  V30 2269 C 226.391 -2.78679 -2.03549 0
M  V30 2270 C 225.504 -3.99914 -1.6338 0
M  V30 2271 C 224.639 -4.50106 -2.82096 0
M  V30 2272 C 223.678 -5.63819 -2.38275 0
M  V30 2273 N 222.815 -6.08651 -3.49983 0
M  V30 2274 H 227.655 -2.96632 -0.285179 0
M  V30 2275 H 225.192 -1.46533 -0.129053 0
M  V30 2276 H 227.15 -3.1287 -2.75986 0
M  V30 2277 H 225.78 -2.012 -2.52425 0
M  V30 2278 H 224.832 -3.71735 -0.807279 0
M  V30 2279 H 226.144 -4.82311 -1.27192 0
M  V30 2280 H 225.298 -4.86325 -3.62729 0
M  V30 2281 H 224.037 -3.66706 -3.21525 0
M  V30 2282 H 223.042 -5.2718 -1.56081 0
M  V30 2283 H 224.267 -6.49 -1.99938 0
M  V30 2284 H 222.213 -5.28188 -3.89042 0
M  V30 2285 H 222.13 -6.85961 -3.17794 0
M  V30 2286 H 223.398 -6.49515 -4.30988 0
M  V30 2287 N 227.627 0.131896 -1.57047 0
M  V30 2288 C 229.038 0.690407 -1.73465 0
M  V30 2289 C 229.389 1.8094 -0.758629 0
M  V30 2290 O 228.514 2.16282 0.0713813 0
M  V30 2291 C 229.109 1.25916 -3.14532 0
M  V30 2292 C 227.668 1.76409 -3.32501 0
M  V30 2293 C 226.815 0.658579 -2.69366 0
M  V30 2294 H 229.766 -0.0939144 -1.58422 0
M  V30 2295 H 229.787 2.12892 -3.15369 0
M  V30 2296 H 229.299 0.444515 -3.85546 0
M  V30 2297 H 227.4 2.60391 -2.66509 0
M  V30 2298 H 227.513 1.88241 -4.4057 0
M  V30 2299 H 225.877 1.08899 -2.30246 0
M  V30 2300 H 226.66 -0.14487 -3.42994 0
M  V30 2301 N 229.106 1.52395 0.401703 0
M  V30 2302 C 230.352 1.67065 1.14966 0
M  V30 2303 C 230.685 0.403052 1.89971 0
M  V30 2304 O 229.96 -0.598774 1.85054 0
M  V30 2305 C 230.243 2.8975 2.13815 0
M  V30 2306 C 230.096 4.26578 1.42658 0
M  V30 2307 C 231.415 3.07965 3.14397 0
M  V30 2308 H 228.534 0.607968 0.416587 0
M  V30 2309 H 231.176 1.84965 0.434511 0
M  V30 2310 H 229.326 2.74619 2.74803 0
M  V30 2311 H 230.998 4.53451 0.847329 0
M  V30 2312 H 229.241 4.27639 0.72849 0
M  V30 2313 H 229.912 5.08483 2.14823 0
M  V30 2314 H 232.388 3.22043 2.63491 0
M  V30 2315 H 231.264 3.95308 3.80819 0
M  V30 2316 H 231.525 2.21611 3.82545 0
M  V30 2317 N 230.584 -0.659388 1.43143 0
M  V30 2318 C 231.494 -1.80167 1.50256 0
M  V30 2319 C 232.51 -1.69571 0.390106 0
M  V30 2320 O 233.686 -1.90849 0.643319 0
M  V30 2321 C 230.751 -3.16409 1.41725 0
M  V30 2322 C 229.812 -3.38848 2.63591 0
M  V30 2323 C 229.045 -4.68591 2.55458 0
M  V30 2324 O 229.268 -5.47532 1.59891 0
M  V30 2325 O 228.202 -4.92614 3.45854 0
M  V30 2326 H 232.028 -1.77121 2.46702 0
M  V30 2327 H 229.613 -0.817092 1.25076 0
M  V30 2328 H 231.495 -3.9768 1.39387 0
M  V30 2329 H 230.17 -3.20059 0.484118 0
M  V30 2330 H 229.077 -2.57366 2.71502 0
M  V30 2331 H 230.41 -3.4004 3.55856 0
M  V30 2332 N 232.062 -1.29571 -0.897171 0
M  V30 2333 C 233.311 -1.1706 -1.64256 0
M  V30 2334 C 233.624 0.276476 -1.93636 0
M  V30 2335 O 234.83 0.52294 -2.66416 0
M  V30 2336 C 233.286 -2.0475 -2.95982 0
M  V30 2337 C 232.894 -3.54295 -2.74187 0
M  V30 2338 C 234.638 -2.0097 -3.73914 0
M  V30 2339 C 232.545 -4.34081 -4.01656 0
M  V30 2340 H 231.475 -0.43452 -0.616205 0
M  V30 2341 H 234.126 -1.54229 -0.994268 0
M  V30 2342 H 232.508 -1.60452 -3.62038 0
M  V30 2343 H 233.682 -4.06662 -2.1671 0
M  V30 2344 H 231.997 -3.59773 -2.09648 0
M  V30 2345 H 234.594 -2.57838 -4.68427 0
M  V30 2346 H 234.937 -0.990273 -4.0435 0
M  V30 2347 H 235.47 -2.43325 -3.14703 0
M  V30 2348 H 232.209 -5.36671 -3.76384 0
M  V30 2349 H 231.729 -3.86483 -4.58684 0
M  V30 2350 H 233.408 -4.44877 -4.69781 0
M  V30 2351 N 233.54 1.10788 -1.12088 0
M  V30 2352 C 234.951 1.64181 -0.88891 0
M  V30 2353 C 235.302 1.87508 0.577498 0
M  V30 2354 O 234.427 1.61434 1.44112 0
M  V30 2355 C 235.022 2.98257 -1.60712 0
M  V30 2356 C 233.581 3.4853 -1.42139 0
M  V30 2357 C 232.728 2.23208 -1.6454 0
M  V30 2358 H 235.679 0.943368 -1.27618 0
M  V30 2359 H 235.7 3.65552 -1.05604 0
M  V30 2360 H 235.212 2.81246 -2.67436 0
M  V30 2361 H 233.313 3.70692 -0.376552 0
M  V30 2362 H 233.426 4.26882 -2.17505 0
M  V30 2363 H 231.79 2.31169 -1.06925 0
M  V30 2364 H 232.573 2.08733 -2.72554 0
M  V30 2365 N 235.018 0.912232 1.28515 0
M  V30 2366 C 236.429 0.591352 1.77087 0
M  V30 2367 C 236.78 -0.8933 1.74684 0
M  V30 2368 O 235.905 -1.69876 1.34056 0
M  V30 2369 C 236.5 1.06668 3.2157 0
M  V30 2370 C 235.059 0.79675 3.67871 0
M  V30 2371 C 234.206 1.23427 2.48316 0
M  V30 2372 H 237.157 1.09365 1.15 0
M  V30 2373 H 237.178 0.407455 3.78312 0
M  V30 2374 H 236.69 2.14726 3.23287 0
M  V30 2375 H 234.791 -0.270679 3.71616 0
M  V30 2376 H 234.904 1.40343 4.58084 0
M  V30 2377 H 233.268 0.653036 2.46186 0
M  V30 2378 H 234.051 2.32316 2.52753 0
M  V30 2379 N 236.496 -1.42363 0.676048 0
M  V30 2380 C 237.459 -2.29199 0.00766941 0
M  V30 2381 C 238.459 -1.43389 -0.727745 0
M  V30 2382 O 239.649 -1.64764 -0.56556 0
M  V30 2383 C 236.781 -3.2591 -0.999785 0
M  V30 2384 H 237.974 -2.89794 0.771988 0
M  V30 2385 H 235.527 -1.50024 0.438468 0
M  V30 2386 H 236.262 -2.70256 -1.79255 0
M  V30 2387 H 236.047 -3.89202 -0.475829 0
M  V30 2388 H 237.537 -3.91028 -1.46583 0
M  V30 2389 N 237.974 -0.419461 -1.51915 0
M  V30 2390 C 239.385 0.0477853 -1.86639 0
M  V30 2391 C 239.736 1.43531 -1.33766 0
M  V30 2392 O 238.861 2.05401 -0.68113 0
M  V30 2393 C 239.456 0.0934885 -3.38671 0
M  V30 2394 C 238.015 0.505097 -3.72996 0
M  V30 2395 C 237.162 -0.313792 -2.75519 0
M  V30 2396 H 240.113 -0.636088 -1.45395 0
M  V30 2397 H 240.134 0.906667 -3.6954 0
M  V30 2398 H 239.646 -0.916501 -3.77123 0
M  V30 2399 H 237.747 1.52135 -3.40126 0
M  V30 2400 H 237.86 0.242309 -4.78487 0
M  V30 2401 H 236.224 0.225363 -2.53701 0
M  V30 2402 H 237.007 -1.32232 -3.16812 0
M  V30 2403 N 239.452 1.56882 -0.150215 0
M  V30 2404 C 240.698 1.96518 0.500834 0
M  V30 2405 C 241.031 1.03527 1.64304 0
M  V30 2406 O 240.306 0.0782751 1.94342 0
M  V30 2407 C 240.589 3.45822 1.00395 0
M  V30 2408 C 240.442 4.49591 -0.136983 0
M  V30 2409 C 241.761 3.97704 1.88467 0
M  V30 2410 H 238.88 0.714535 0.18058 0
M  V30 2411 H 241.522 1.88577 -0.232091 0
M  V30 2412 H 239.672 3.5272 1.62851 0
M  V30 2413 H 241.344 4.5477 -0.77343 0
M  V30 2414 H 239.587 4.26441 -0.795652 0
M  V30 2415 H 240.258 5.51402 0.256815 0
M  V30 2416 H 242.734 3.93304 1.35834 0
M  V30 2417 H 241.61 5.0263 2.20578 0
M  V30 2418 H 241.871 3.40252 2.82279 0
M  V30 2419 N 240.93 -0.123565 1.57115 0
M  V30 2420 C 242.207 -0.862196 1.75572 0
M  V30 2421 C 242.587 -1.98279 0.724475 0
M  V30 2422 O 241.935 -2.27102 -0.252407 0
M  V30 2423 C 242.145 -1.38309 3.20424 0
M  V30 2424 C 243.493 -1.83724 3.82793 0
M  V30 2425 O 244.517 -1.47999 3.23998 0
M  V30 2426 O 243.376 -2.49685 4.86127 0
M  V30 2427 H 240.47 -0.409113 0.718718 0
M  V30 2428 H 243.016 -0.107661 1.69358 0
M  V30 2429 H 241.788 -0.578889 3.86994 0
M  V30 2430 H 241.411 -2.20046 3.31158 0
M  V30 2431 N 242.408 -1.52605 -0.393616 0
M  V30 2432 C 243.34 -1.73303 -1.49995 0
M  V30 2433 C 244.353 -0.613473 -1.50799 0
M  V30 2434 O 245.542 -0.889049 -1.54784 0
M  V30 2435 C 242.642 -1.77245 -2.88855 0
M  V30 2436 C 241.815 -3.06483 -3.12069 0
M  V30 2437 C 240.874 -3.02033 -4.30886 0
M  V30 2438 O 239.9 -3.75907 -4.27414 0
M  V30 2439 N 241.102 -2.20897 -5.36828 0
M  V30 2440 H 243.867 -2.68756 -1.32629 0
M  V30 2441 H 241.428 -1.51036 -0.583083 0
M  V30 2442 H 243.42 -1.7178 -3.66434 0
M  V30 2443 H 241.99 -0.891993 -2.99603 0
M  V30 2444 H 241.21 -3.25474 -2.22396 0
M  V30 2445 H 242.498 -3.91947 -3.2443 0
M  V30 2446 H 241.896 -1.60336 -5.42502 0
M  V30 2447 H 240.453 -2.21275 -6.13091 0
M  V30 2448 N 243.887 0.651787 -1.4349 0
M  V30 2449 C 245.164 1.40909 -1.35661 0
M  V30 2450 C 245.544 2.11099 -0.00511733 0
M  V30 2451 O 244.892 2.04892 1.0115 0
M  V30 2452 C 245.102 2.3926 -2.54078 0
M  V30 2453 C 246.45 3.03217 -2.97228 0
M  V30 2454 O 247.474 2.49588 -2.54135 0
M  V30 2455 O 246.333 4.00455 -3.71885 0
M  V30 2456 H 243.427 0.629625 -0.536191 0
M  V30 2457 H 245.973 0.678575 -1.55542 0
M  V30 2458 H 244.745 1.86352 -3.44076 0
M  V30 2459 H 244.368 3.1976 -2.36303 0
M  V30 2460 N 245.365 1.30045 0.890287 0
M  V30 2461 C 246.611 1.18737 1.64406 0
M  V30 2462 C 246.944 -0.258525 1.92472 0
M  V30 2463 O 246.219 -1.18562 1.54186 0
M  V30 2464 C 246.502 2.01087 2.98724 0
M  V30 2465 C 246.355 3.53867 2.77665 0
M  V30 2466 C 247.674 1.84457 3.9958 0
M  V30 2467 H 244.793 0.432698 0.596608 0
M  V30 2468 H 247.435 1.5962 1.0306 0
M  V30 2469 H 245.585 1.66349 3.51084 0
M  V30 2470 H 247.257 3.98637 2.32133 0
M  V30 2471 H 245.5 3.78318 2.12269 0
M  V30 2472 H 246.171 4.06772 3.7315 0
M  V30 2473 H 248.647 2.14817 3.56361 0
M  V30 2474 H 247.523 2.44411 4.91482 0
M  V30 2475 H 247.784 0.802276 4.3476 0
M  V30 2476 N 246.843 -1.10192 1.12674 0
M  V30 2477 C 248.092 -1.81573 0.8783 0
M  V30 2478 C 248.405 -1.86249 -0.597557 0
M  V30 2479 O 249.611 -2.5386 -0.962681 0
M  V30 2480 C 248.067 -3.26149 1.52167 0
M  V30 2481 C 247.675 -3.29763 3.03249 0
M  V30 2482 C 249.419 -4.0234 1.3536 0
M  V30 2483 C 247.326 -4.68815 3.60508 0
M  V30 2484 H 246.256 -0.680394 0.324931 0
M  V30 2485 H 248.907 -1.23902 1.35353 0
M  V30 2486 H 247.289 -3.83832 0.974104 0
M  V30 2487 H 248.463 -2.8189 3.6452 0
M  V30 2488 H 246.778 -2.67059 3.19481 0
M  V30 2489 H 249.375 -5.05058 1.75559 0
M  V30 2490 H 249.718 -4.15235 0.297554 0
M  V30 2491 H 250.251 -3.51079 1.87052 0
M  V30 2492 H 246.99 -4.61121 4.65884 0
M  V30 2493 H 246.51 -5.17045 3.04014 0
M  V30 2494 H 248.189 -5.37785 3.59717 0
M  V30 2495 N 248.321 -0.919034 -1.28029 0
M  V30 2496 C 249.567 -0.555757 -1.95036 0
M  V30 2497 C 249.9 0.899198 -1.72128 0
M  V30 2498 O 249.175 1.64023 -1.04531 0
M  V30 2499 C 249.458 -0.872024 -3.49382 0
M  V30 2500 C 249.311 -2.3801 -3.81669 0
M  V30 2501 C 250.63 -0.37185 -4.38526 0
M  V30 2502 H 247.749 -0.203386 -0.708381 0
M  V30 2503 H 250.391 -1.14924 -1.51303 0
M  V30 2504 H 248.541 -0.366946 -3.86763 0
M  V30 2505 H 250.213 -2.9562 -3.54128 0
M  V30 2506 H 248.456 -2.83289 -3.28526 0
M  V30 2507 H 249.127 -2.55192 -4.8947 0
M  V30 2508 H 251.603 -0.804602 -4.08247 0
M  V30 2509 H 250.479 -0.622173 -5.45362 0
M  V30 2510 H 250.74 0.727934 -4.36066 0
M  V30 2511 N 249.799 1.42003 -0.683588 0
M  V30 2512 C 251.076 1.95112 -0.138075 0
M  V30 2513 C 251.456 1.62359 1.34918 0
M  V30 2514 O 250.804 0.924311 2.08971 0
M  V30 2515 C 251.014 3.46505 -0.416581 0
M  V30 2516 C 252.362 4.23254 -0.337834 0
M  V30 2517 O 253.386 3.54468 -0.35082 0
M  V30 2518 O 252.245 5.45743 -0.287596 0
M  V30 2519 H 249.339 0.826961 -0.00797996 0
M  V30 2520 H 251.885 1.51784 -0.758924 0
M  V30 2521 H 250.657 3.63582 -1.4465 0
M  V30 2522 H 250.28 3.969 0.235839 0
M  V30 2523 N 251.277 0.427512 1.51691 0
M  V30 2524 C 252.502 -0.143601 2.06902 0
M  V30 2525 C 252.927 -1.36536 1.29382 0
M  V30 2526 O 252.285 -1.78289 0.329043 0
M  V30 2527 C 252.333 -0.454207 3.57728 0
M  V30 2528 O 251.437 -1.54228 3.82475 0
M  V30 2529 H 250.778 -0.00617128 0.663971 0
M  V30 2530 H 253.308 0.606014 1.95419 0
M  V30 2531 H 253.318 -0.707525 4.01818 0
M  V30 2532 H 251.993 0.438812 4.13579 0
M  V30 2533 H 250.57 -1.2797 3.50254 0
M  V30 2534 N 252.755 -1.56801 0.158532 0
M  V30 2535 C 253.983 -2.00859 -0.496303 0
M  V30 2536 C 254.398 -1.03871 -1.57659 0
M  V30 2537 O 253.755 -0.0375165 -1.82461 0
M  V30 2538 C 253.806 -3.4479 -1.08638 0
M  V30 2539 O 253.527 -4.38072 -0.0492322 0
M  V30 2540 C 255.028 -4.04185 -1.8207 0
M  V30 2541 H 252.248 -0.65864 -0.128199 0
M  V30 2542 H 254.792 -2.02885 0.256506 0
M  V30 2543 H 252.947 -3.43579 -1.78975 0
M  V30 2544 H 253.361 -5.2227 -0.483102 0
M  V30 2545 H 254.835 -5.06857 -2.18633 0
M  V30 2546 H 255.312 -3.45549 -2.71095 0
M  V30 2547 H 255.918 -4.0906 -1.16405 0
M  V30 2548 N 254.233 0.115231 -1.57178 0
M  V30 2549 C 255.481 0.820727 -1.84685 0
M  V30 2550 C 255.802 1.80237 -0.744279 0
M  V30 2551 O 255.072 1.94529 0.231375 0
M  V30 2552 H 253.652 0.306084 -0.681411 0
M  V30 2553 H 256.314 0.101656 -1.94635 0
M  V30 2554 H 255.41 1.36366 -2.80733 0
M  V30 2555 N 255.711 1.52812 0.385517 0
M  V30 2556 C 256.674 1.77188 1.45386 0
M  V30 2557 C 257.674 0.641953 1.4743 0
M  V30 2558 O 258.864 0.910033 1.4854 0
M  V30 2559 C 255.996 1.87582 2.8465 0
M  V30 2560 H 257.189 2.72583 1.25054 0
M  V30 2561 H 254.742 1.43586 0.617467 0
M  V30 2562 H 255.477 0.941849 3.10322 0
M  V30 2563 H 255.262 2.69748 2.84567 0
M  V30 2564 H 256.752 2.08102 3.62054 0
M  V30 2565 N 257.189 -0.644168 1.43834 0
M  V30 2566 C 258.119 -1.76814 1.52509 0
M  V30 2567 C 259.1 -1.65823 0.379052 0
M  V30 2568 O 260.285 -1.84781 0.597466 0
M  V30 2569 C 257.415 -3.15288 1.4564 0
M  V30 2570 C 256.369 -3.41053 2.58586 0
M  V30 2571 C 255.695 -4.79421 2.36769 0
M  V30 2572 C 256.995 -3.34902 4.00797 0
M  V30 2573 H 258.689 -1.69812 2.46586 0
M  V30 2574 H 256.235 -0.815542 1.1868 0
M  V30 2575 H 258.188 -3.93681 1.50311 0
M  V30 2576 H 256.912 -3.23043 0.480725 0
M  V30 2577 H 255.571 -2.65035 2.53282 0
M  V30 2578 H 255.219 -4.83863 1.37424 0
M  V30 2579 H 254.919 -4.9762 3.12487 0
M  V30 2580 H 256.443 -5.6006 2.43238 0
M  V30 2581 H 257.857 -4.03218 4.07539 0
M  V30 2582 H 256.254 -3.64637 4.76613 0
M  V30 2583 H 257.324 -2.32928 4.25291 0
M  V30 2584 N 258.668 -1.30515 -0.883378 0
M  V30 2585 C 259.945 -1.10086 -1.6168 0
M  V30 2586 C 260.325 0.349269 -2.08191 0
M  V30 2587 O 259.673 1.34105 -1.85008 0
M  V30 2588 C 259.883 -2.10315 -2.78511 0
M  V30 2589 C 261.231 -2.42119 -3.48803 0
M  V30 2590 O 262.255 -2.08638 -2.88702 0
M  V30 2591 O 261.114 -2.99396 -4.57192 0
M  V30 2592 H 258.208 -0.422907 -0.710689 0
M  V30 2593 H 260.754 -1.41947 -0.930015 0
M  V30 2594 H 259.526 -3.07917 -2.41459 0
M  V30 2595 H 259.149 -1.79282 -3.54886 0
M  V30 2596 N 260.146 1.09593 -1.13257 0
M  V30 2597 C 261.393 1.81734 -0.893257 0
M  V30 2598 C 261.721 1.8563 0.580656 0
M  V30 2599 O 260.976 1.31906 1.44566 0
M  V30 2600 C 261.275 3.27802 -1.42411 0
M  V30 2601 C 260.941 3.44041 -2.91456 0
M  V30 2602 C 259.603 3.48181 -3.3215 0
M  V30 2603 C 261.955 3.48719 -3.87356 0
M  V30 2604 C 259.283 3.54575 -4.67433 0
M  V30 2605 C 261.635 3.56648 -5.2248 0
M  V30 2606 C 260.299 3.59055 -5.62704 0
M  V30 2607 H 259.569 0.665011 -0.326866 0
M  V30 2608 H 262.216 1.2912 -1.41422 0
M  V30 2609 H 260.521 3.83042 -0.823795 0
M  V30 2610 H 262.218 3.82149 -1.21503 0
M  V30 2611 H 258.808 3.41502 -2.58987 0
M  V30 2612 H 262.992 3.44763 -3.57004 0
M  V30 2613 H 258.248 3.54725 -4.97976 0
M  V30 2614 H 262.422 3.59212 -5.96607 0
M  V30 2615 H 260.049 3.63763 -6.67518 0
M  V30 2616 N 261.624 0.925811 1.2754 0
M  V30 2617 C 262.556 0.380753 2.26015 0
M  V30 2618 C 263.569 -0.487485 1.5533 0
M  V30 2619 O 264.758 -0.300413 1.75954 0
M  V30 2620 C 261.858 -0.473259 3.35579 0
M  V30 2621 C 261.031 0.375249 4.35787 0
M  V30 2622 C 260.09 -0.415809 5.24555 0
M  V30 2623 O 259.116 0.175834 5.68928 0
M  V30 2624 N 260.318 -1.71607 5.54555 0
M  V30 2625 H 263.083 1.22725 2.73421 0
M  V30 2626 H 260.644 0.793037 1.41147 0
M  V30 2627 H 262.636 -1.00949 3.91907 0
M  V30 2628 H 261.206 -1.2205 2.87789 0
M  V30 2629 H 260.426 1.09279 3.7875 0
M  V30 2630 H 261.714 0.955399 4.99749 0
M  V30 2631 H 261.112 -2.2191 5.20358 0
M  V30 2632 H 259.669 -2.19887 6.1359 0
M  V30 2633 N 263.102 -1.41638 0.69111 0
M  V30 2634 C 264.05 -2.32597 0.0115199 0
M  V30 2635 C 265.044 -1.5072 -0.773296 0
M  V30 2636 O 266.25 -1.66685 -0.67942 0
M  V30 2637 H 262.625 -0.751849 -0.0150746 0
M  V30 2638 H 264.596 -2.87593 0.795791 0
M  V30 2639 C 263.345 -3.35467 -0.914172 0
M  V30 2640 H 262.668 -3.9852 -0.319687 0
M  V30 2641 H 264.108 -4.01662 -1.35808 0
M  V30 2642 C 262.567 -2.69004 -2.02826 0
M  V30 2643 O 263.097 -2.53444 -3.11655 0
M  V30 2644 N 261.303 -2.2777 -1.80469 0
M  V30 2645 H 260.85 -2.40626 -0.919615 0
M  V30 2646 H 260.808 -1.83635 -2.55197 0
M  V30 2647 N 264.58 -0.43555 -1.51462 0
M  V30 2648 C 265.826 0.131709 -2.02372 0
M  V30 2649 C 266.159 1.42516 -1.3192 0
M  V30 2650 O 265.434 1.89606 -0.433573 0
M  V30 2651 C 265.717 0.352301 -3.58373 0
M  V30 2652 C 265.57 -0.959676 -4.39443 0
M  V30 2653 C 266.889 1.12286 -4.25535 0
M  V30 2654 H 264.008 0.0463936 -0.735538 0
M  V30 2655 H 266.65 -0.574197 -1.81116 0
M  V30 2656 H 264.8 0.9536 -3.76615 0
M  V30 2657 H 266.472 -1.59482 -4.32855 0
M  V30 2658 H 264.715 -1.56468 -4.04599 0
M  V30 2659 H 265.386 -0.759394 -5.46752 0
M  V30 2660 H 267.862 0.613545 -4.11552 0
M  V30 2661 H 266.738 1.24598 -5.34571 0
M  V30 2662 H 266.999 2.15048 -3.86273 0
M  V30 2663 N 266.058 1.56714 -0.166846 0
M  V30 2664 C 267.469 1.83378 0.350646 0
M  V30 2665 C 267.82 1.08646 1.63372 0
M  V30 2666 O 266.945 0.338058 2.13743 0
M  V30 2667 C 267.54 3.32643 0.642963 0
M  V30 2668 C 266.099 3.59818 1.10491 0
M  V30 2669 C 265.246 2.76954 0.138411 0
M  V30 2670 H 268.197 1.53803 -0.391193 0
M  V30 2671 H 268.218 3.49878 1.49551 0
M  V30 2672 H 267.73 3.87007 -0.291055 0
M  V30 2673 H 265.831 3.1086 2.05418 0
M  V30 2674 H 265.944 4.68178 1.01716 0
M  V30 2675 H 264.308 2.4666 0.634911 0
M  V30 2676 H 265.091 3.34097 -0.789549 0
M  V30 2677 N 267.536 -0.106894 1.57237 0
M  V30 2678 C 268.784 -0.810921 1.85117 0
M  V30 2679 C 269.105 -1.7984 0.753827 0
M  V30 2680 O 268.375 -1.94649 -0.221056 0
M  V30 2681 H 266.955 -0.302466 0.683025 0
M  V30 2682 H 269.617 -0.0913324 1.94686 0
M  V30 2683 H 268.713 -1.34875 2.81452 0
M  V30 2684 N 269.014 -1.53014 -0.377408 0
M  V30 2685 C 269.961 -1.78616 -1.46168 0
M  V30 2686 C 270.931 -0.629917 -1.53692 0
M  V30 2687 O 272.116 -0.870861 -1.69766 0
M  V30 2688 C 269.256 -1.97123 -2.8326 0
M  V30 2689 C 268.369 -3.24831 -2.84796 0
M  V30 2690 C 267.504 -3.33591 -4.13389 0
M  V30 2691 C 266.543 -4.55377 -4.09021 0
M  V30 2692 N 265.68 -4.61355 -5.29241 0
M  V30 2693 H 270.52 -2.71142 -1.23637 0
M  V30 2694 H 268.057 -1.34326 -0.599577 0
M  V30 2695 H 270.015 -2.05839 -3.62886 0
M  V30 2696 H 268.645 -1.07946 -3.04216 0
M  V30 2697 H 267.697 -3.25128 -1.97474 0
M  V30 2698 H 269.009 -4.14523 -2.77439 0
M  V30 2699 H 268.163 -3.41554 -5.01424 0
M  V30 2700 H 266.902 -2.41894 -4.23484 0
M  V30 2701 H 265.907 -4.47527 -3.19373 0
M  V30 2702 H 267.132 -5.48402 -4.00539 0
M  V30 2703 H 265.078 -3.72554 -5.39944 0
M  V30 2704 H 264.995 -5.44935 -5.24006 0
M  V30 2705 H 266.263 -4.73586 -6.19141 0
M  V30 2706 N 270.492 0.636531 -1.44174 0
M  V30 2707 C 271.422 1.76003 -1.53444 0
M  V30 2708 C 272.403 1.65619 -0.387841 0
M  V30 2709 O 273.588 1.84461 -0.607257 0
M  V30 2710 C 270.718 3.14511 -1.4731 0
M  V30 2711 C 269.672 3.39677 -2.60391 0
M  V30 2712 C 268.998 4.78159 -2.39308 0
M  V30 2713 C 270.298 3.32772 -4.02567 0
M  V30 2714 H 271.992 1.68501 -2.47483 0
M  V30 2715 H 269.538 0.809237 -1.19111 0
M  V30 2716 H 271.491 3.92878 -1.52397 0
M  V30 2717 H 270.215 3.22783 -0.49785 0
M  V30 2718 H 268.874 2.63688 -2.54684 0
M  V30 2719 H 268.522 4.83128 -1.39988 0
M  V30 2720 H 268.222 4.95956 -3.15122 0
M  V30 2721 H 269.746 5.58762 -2.46205 0
M  V30 2722 H 271.16 4.01051 -4.09672 0
M  V30 2723 H 269.557 3.62104 -4.7854 0
M  V30 2724 H 270.627 2.30669 -4.2652 0
M  V30 2725 N 271.97 1.30982 0.876444 0
M  V30 2726 C 273.218 1.20058 1.62575 0
M  V30 2727 C 273.539 -0.242947 1.93481 0
M  V30 2728 O 272.809 -1.1619 1.57724 0
M  V30 2729 H 271.389 0.44135 0.602677 0
M  V30 2730 H 274.051 1.64222 1.04962 0
M  V30 2731 H 273.147 1.76762 2.57219 0
M  V30 2732 N 273.449 -1.08991 1.13837 0
M  V30 2733 C 274.695 -1.81526 0.90422 0
M  V30 2734 C 275.028 -1.85706 -0.568066 0
M  V30 2735 O 274.303 -1.32855 -1.42056 0
M  V30 2736 C 274.586 -3.27447 1.49835 0
M  V30 2737 C 274.439 -3.31512 3.04006 0
M  V30 2738 C 275.758 -4.24256 1.17025 0
M  V30 2739 H 272.877 -0.659029 0.329923 0
M  V30 2740 H 275.519 -1.27644 1.40737 0
M  V30 2741 H 273.669 -3.73462 1.07044 0
M  V30 2742 H 275.341 -2.93867 3.55584 0
M  V30 2743 H 273.584 -2.70963 3.38765 0
M  V30 2744 H 274.255 -4.34329 3.40679 0
M  V30 2745 H 276.731 -3.86549 1.54009 0
M  V30 2746 H 275.607 -5.24684 1.61237 0
M  V30 2747 H 275.868 -4.42019 0.0846274 0
M  V30 2748 N 274.927 -0.932562 -1.27047 0
M  V30 2749 C 276.176 -0.571351 -1.93439 0
M  V30 2750 C 276.489 0.892467 -1.74053 0
M  V30 2751 O 277.695 1.36267 -2.34826 0
M  V30 2752 C 276.151 -0.97106 -3.46552 0
M  V30 2753 C 275.759 -2.4559 -3.74686 0
M  V30 2754 C 277.503 -0.681333 -4.18997 0
M  V30 2755 C 275.41 -2.79475 -5.21198 0
M  V30 2756 H 274.34 -0.209966 -0.724176 0
M  V30 2757 H 276.991 -1.13403 -1.44263 0
M  V30 2758 H 275.373 -0.336983 -3.94564 0
M  V30 2759 H 276.547 -3.13829 -3.37414 0
M  V30 2760 H 274.862 -2.71802 -3.15456 0
M  V30 2761 H 277.459 -0.910939 -5.26883 0
M  V30 2762 H 277.802 0.381628 -4.14547 0
M  V30 2763 H 278.335 -1.27473 -3.76823 0
M  V30 2764 H 275.074 -3.847 -5.30741 0
M  V30 2765 H 274.594 -2.1589 -5.596 0
M  V30 2766 H 276.273 -2.67478 -5.89122 0
M  V30 2767 N 276.405 1.4127 -0.698611 0
M  V30 2768 C 277.653 2.00782 -0.230409 0
M  V30 2769 C 277.974 1.5562 1.17505 0
M  V30 2770 O 277.244 0.78815 1.79346 0
M  V30 2771 H 275.824 0.742464 -0.0821944 0
M  V30 2772 H 278.486 1.72852 -0.90045 0
M  V30 2773 H 277.582 3.11095 -0.25021 0
M  V30 2774 N 277.883 0.443576 1.51229 0
M  V30 2775 C 278.846 -0.353132 2.26463 0
M  V30 2776 C 279.846 -0.944338 1.3015 0
M  V30 2777 O 281.036 -0.817813 1.5381 0
M  V30 2778 C 278.168 -1.50023 3.06114 0
M  V30 2779 H 279.361 0.3063 2.98332 0
M  V30 2780 H 276.914 0.196902 1.55055 0
M  V30 2781 H 277.649 -2.19553 2.38677 0
M  V30 2782 H 277.434 -1.08241 3.76864 0
M  V30 2783 H 278.924 -2.06296 3.63087 0
M  V30 2784 N 279.361 -1.56624 0.175154 0
M  V30 2785 C 280.609 -1.96609 -0.467885 0
M  V30 2786 C 280.93 -1.06238 -1.63519 0
M  V30 2787 O 280.2 -0.129523 -1.95471 0
M  V30 2788 H 278.78 -0.726008 -0.175845 0
M  V30 2789 H 281.442 -1.93195 0.257234 0
M  V30 2790 H 280.538 -3.00989 -0.825342 0
M  V30 2791 N 280.839 0.0985539 -1.57292 0
M  V30 2792 C 282.085 0.803867 -1.86188 0
M  V30 2793 C 282.418 1.78549 -0.763794 0
M  V30 2794 O 281.693 1.93153 0.22855 0
M  V30 2795 C 281.976 1.53568 -3.25713 0
M  V30 2796 C 281.829 0.572277 -4.46145 0
M  V30 2797 C 283.148 2.48708 -3.63087 0
M  V30 2798 H 280.267 0.290781 -0.677211 0
M  V30 2799 H 282.909 0.0675783 -1.8988 0
M  V30 2800 H 281.059 2.16332 -3.22696 0
M  V30 2801 H 282.731 -0.0480894 -4.61275 0
M  V30 2802 H 280.974 -0.114618 -4.33649 0
M  V30 2803 H 281.645 1.12139 -5.40489 0
M  V30 2804 H 284.121 1.96039 -3.67026 0
M  V30 2805 H 282.997 2.96932 -4.61652 0
M  V30 2806 H 283.258 3.32309 -2.91588 0
M  V30 2807 N 282.317 1.53212 0.369288 0
M  V30 2808 C 283.566 1.68436 1.10961 0
M  V30 2809 C 283.879 0.440738 1.9057 0
M  V30 2810 O 285.085 0.473446 2.6734 0
M  V30 2811 C 283.541 2.97744 2.0218 0
M  V30 2812 C 283.149 4.29355 1.279 0
M  V30 2813 C 284.893 3.22334 2.76226 0
M  V30 2814 C 282.8 5.49755 2.17999 0
M  V30 2815 H 281.73 0.627568 0.41794 0
M  V30 2816 H 284.381 1.79713 0.370884 0
M  V30 2817 H 282.763 2.8026 2.79768 0
M  V30 2818 H 283.937 4.57458 0.554007 0
M  V30 2819 H 282.252 4.11179 0.657311 0
M  V30 2820 H 284.849 4.09471 3.43857 0
M  V30 2821 H 285.192 2.38238 3.41392 0
M  V30 2822 H 285.725 3.40475 2.05723 0
M  V30 2823 H 282.464 6.36318 1.57417 0
M  V30 2824 H 281.984 5.25937 2.88359 0
M  V30 2825 H 283.663 5.84401 2.77641 0
M  V30 2826 N 283.795 -0.628877 1.44509 0
M  V30 2827 C 285.043 -1.38565 1.4712 0
M  V30 2828 C 285.364 -1.94712 0.105899 0
M  V30 2829 O 284.634 -1.75912 -0.862079 0
M  V30 2830 H 283.214 -0.514333 0.541729 0
M  V30 2831 H 285.876 -0.740018 1.80305 0
M  V30 2832 H 284.972 -2.21583 2.19789 0
M  V30 2833 N 285.273 -1.31445 -0.869486 0
M  V30 2834 C 286.203 -1.21727 -1.99261 0
M  V30 2835 C 287.184 -0.104359 -1.6978 0
M  V30 2836 O 288.369 -0.289038 -1.92037 0
M  V30 2837 C 285.499 -0.924317 -3.34774 0
M  V30 2838 C 284.453 -1.99685 -3.78563 0
M  V30 2839 C 283.779 -1.55658 -5.11541 0
M  V30 2840 C 285.079 -3.41003 -3.95619 0
M  V30 2841 H 286.773 -2.1569 -2.07649 0
M  V30 2842 H 284.319 -1.03839 -0.997675 0
M  V30 2843 H 286.272 -0.842934 -4.12883 0
M  V30 2844 H 284.996 0.0509793 -3.2656 0
M  V30 2845 H 283.655 -2.06813 -3.02694 0
M  V30 2846 H 283.303 -0.569132 -4.9977 0
M  V30 2847 H 283.003 -2.27409 -5.41811 0
M  V30 2848 H 284.527 -1.48928 -5.92159 0
M  V30 2849 H 285.941 -3.36547 -4.64122 0
M  V30 2850 H 284.338 -4.10975 -4.37286 0
M  V30 2851 H 285.408 -3.81754 -2.98985 0
M  V30 2852 N 286.751 1.08385 -1.14413 0
M  V30 2853 C 287.661 2.18856 -0.844951 0
M  V30 2854 C 288.677 1.73121 0.174668 0
M  V30 2855 O 289.853 2.014 0.00312857 0
M  V30 2856 C 286.918 3.45155 -0.32696 0
M  V30 2857 C 285.979 4.05513 -1.40916 0
M  V30 2858 C 285.212 5.25784 -0.915793 0
M  V30 2859 O 285.435 5.69884 0.242651 0
M  V30 2860 O 284.369 5.77545 -1.69487 0
M  V30 2861 H 288.195 2.46919 -1.76818 0
M  V30 2862 H 285.78 1.17524 -0.922411 0
M  V30 2863 H 287.662 4.21377 -0.0440211 0
M  V30 2864 H 286.337 3.18668 0.568539 0
M  V30 2865 H 285.244 3.30879 -1.74556 0
M  V30 2866 H 286.577 4.3625 -2.27919 0
M  V30 2867 N 288.23 0.939286 1.26551 0
M  V30 2868 C 289.16 0.465044 2.28822 0
M  V30 2869 C 290.141 -0.480692 1.63167 0
M  V30 2870 O 291.326 -0.382955 1.90387 0
M  V30 2871 C 288.456 -0.27234 3.46231 0
M  V30 2872 C 287.41 0.58666 4.2396 0
M  V30 2873 C 286.736 -0.280573 5.33963 0
M  V30 2874 C 288.036 1.85704 4.88171 0
M  V30 2875 H 289.73 1.31979 2.68741 0
M  V30 2876 H 287.276 0.636061 1.29191 0
M  V30 2877 H 289.229 -0.615133 4.16886 0
M  V30 2878 H 287.953 -1.16121 3.0526 0
M  V30 2879 H 286.612 0.91232 3.55067 0
M  V30 2880 H 286.26 -1.16874 4.89234 0
M  V30 2881 H 285.96 0.29076 5.8688 0
M  V30 2882 H 287.484 -0.618678 6.07458 0
M  V30 2883 H 288.898 1.58161 5.51052 0
M  V30 2884 H 287.295 2.37279 5.51197 0
M  V30 2885 H 288.365 2.56957 4.11219 0
M  V30 2886 N 289.708 -1.40897 0.706093 0
M  V30 2887 C 290.956 -2.00657 0.241054 0
M  V30 2888 C 291.277 -1.56241 -1.16678 0
M  V30 2889 O 290.547 -0.79765 -1.78926 0
M  V30 2890 H 289.127 -0.742018 0.0861308 0
M  V30 2891 H 291.789 -1.72372 0.909604 0
M  V30 2892 H 290.885 -3.10958 0.266705 0
M  V30 2893 N 291.186 -0.45159 -1.50991 0
M  V30 2894 C 292.411 0.110667 -2.07105 0
M  V30 2895 C 292.836 1.3446 -1.31538 0
M  V30 2896 O 292.194 1.77743 -0.357365 0
M  V30 2897 C 292.242 0.397238 -3.58405 0
M  V30 2898 O 291.346 1.48124 -3.84881 0
M  V30 2899 H 290.687 -0.00439271 -0.663985 0
M  V30 2900 H 293.217 -0.637026 -1.9443 0
M  V30 2901 H 293.227 0.64351 -4.02893 0
M  V30 2902 H 291.902 -0.504553 -4.12828 0
M  V30 2903 H 290.479 1.22381 -3.52246 0
M  V30 2904 N 292.664 1.56529 -0.183458 0
M  V30 2905 C 293.91 1.97537 0.459036 0
M  V30 2906 C 294.243 1.06989 1.62071 0
M  V30 2907 O 293.518 0.11948 1.94133 0
M  V30 2908 C 293.801 3.47874 0.930368 0
M  V30 2909 C 293.654 4.492 -0.232317 0
M  V30 2910 C 294.973 4.01612 1.79989 0
M  V30 2911 H 292.092 0.718204 0.165383 0
M  V30 2912 H 294.734 1.88042 -0.272038 0
M  V30 2913 H 292.884 3.56095 1.55333 0
M  V30 2914 H 294.556 4.53027 -0.86972 0
M  V30 2915 H 292.799 4.24657 -0.885928 0
M  V30 2916 H 293.47 5.51823 0.139796 0
M  V30 2917 H 295.946 3.96097 1.27461 0
M  V30 2918 H 294.822 5.07195 2.09867 0
M  V30 2919 H 295.083 3.46163 2.74998 0
M  V30 2920 N 294.142 -0.090211 1.57342 0
M  V30 2921 C 295.388 -0.788838 1.8748 0
M  V30 2922 C 295.743 -1.76105 0.7749 0
M  V30 2923 O 295.036 -1.90302 -0.222663 0
M  V30 2924 C 295.23 -1.55222 3.21933 0
M  V30 2925 C 295.059 -0.655441 4.44898 0
M  V30 2926 C 293.829 -0.299325 5.04413 0
M  V30 2927 C 296.027 0.0397458 5.14285 0
M  V30 2928 N 294.009 0.605108 6.10911 0
M  V30 2929 C 295.38 0.802061 6.1479 0
M  V30 2930 C 297.435 0.113154 4.97771 0
M  V30 2931 C 296.138 1.63093 7.00566 0
M  V30 2932 C 298.164 0.928942 5.84059 0
M  V30 2933 C 297.526 1.67936 6.84088 0
M  V30 2934 H 293.625 -0.26467 0.735849 0
M  V30 2935 H 296.209 -0.0511453 1.94633 0
M  V30 2936 H 294.38 -2.26076 3.15823 0
M  V30 2937 H 296.112 -2.19843 3.39781 0
M  V30 2938 H 292.867 -0.648079 4.69145 0
M  V30 2939 H 293.291 1.05002 6.68808 0
M  V30 2940 H 297.933 -0.452676 4.2037 0
M  V30 2941 H 295.651 2.20781 7.77355 0
M  V30 2942 H 299.237 0.988478 5.73341 0
M  V30 2943 H 298.117 2.30044 7.49699 0
M  V30 2944 N 295.62 -1.53406 -0.361157 0
M  V30 2945 C 296.583 -1.79479 -1.42548 0
M  V30 2946 C 297.583 -0.665327 -1.4639 0
M  V30 2947 O 298.773 -0.933549 -1.47073 0
M  V30 2948 C 295.905 -1.92087 -2.8163 0
M  V30 2949 H 297.098 -2.74538 -1.20701 0
M  V30 2950 H 294.651 -1.4455 -0.594546 0
M  V30 2951 H 295.386 -0.991099 -3.08784 0
M  V30 2952 H 295.171 -2.74241 -2.80239 0
M  V30 2953 H 296.661 -2.13836 -3.58697 0
M  V30 2954 N 297.098 0.621204 -1.44841 0
M  V30 2955 C 298.514 0.94048 -1.28946 0
M  V30 2956 C 298.714 2.00154 -0.23249 0
M  V30 2957 O 297.77 2.49651 0.378237 0
M  V30 2958 C 299.083 1.39433 -2.66419 0
M  V30 2959 C 300.631 1.50927 -2.74208 0
M  V30 2960 C 301.106 1.99692 -4.12174 0
M  V30 2961 N 302.597 2.06947 -4.144 0
M  V30 2962 C 303.332 2.45871 -5.1801 0
M  V30 2963 N 302.828 2.83862 -6.31977 0
M  V30 2964 N 304.621 2.46092 -5.05366 0
M  V30 2965 H 296.772 -0.0803548 -2.12248 0
M  V30 2966 H 299.035 0.0266913 -0.947624 0
M  V30 2967 H 298.741 0.688925 -3.44887 0
M  V30 2968 H 298.615 2.36347 -2.93973 0
M  V30 2969 H 301.002 2.20561 -1.96053 0
M  V30 2970 H 301.083 0.523627 -2.50383 0
M  V30 2971 H 300.727 1.30649 -4.90809 0
M  V30 2972 H 300.657 2.99146 -4.33381 0
M  V30 2973 H 303.148 1.80232 -3.32152 0
M  V30 2974 H 303.461 3.12405 -7.0684 0
M  V30 2975 H 301.806 2.8159 -6.35399 0
M  V30 2976 H 304.997 2.1581 -4.15384 0
M  V30 2977 H 305.17 2.76102 -5.86235 0
M  V30 2978 N 298.576 1.31904 0.862503 0
M  V30 2979 C 299.506 1.22782 1.98612 0
M  V30 2980 C 300.487 0.113362 1.69722 0
M  V30 2981 O 301.672 0.299218 1.91881 0
M  V30 2982 C 298.802 0.942058 3.34279 0
M  V30 2983 C 297.756 2.0169 3.77499 0
M  V30 2984 C 297.082 1.58369 5.10709 0
M  V30 2985 C 298.382 3.43096 3.93805 0
M  V30 2986 H 300.076 2.16788 2.06502 0
M  V30 2987 H 297.622 1.04366 0.992154 0
M  V30 2988 H 299.575 0.864818 4.1243 0
M  V30 2989 H 298.299 -0.0336603 3.26583 0
M  V30 2990 H 296.958 2.08416 3.01593 0
M  V30 2991 H 296.606 0.595628 4.99461 0
M  V30 2992 H 296.306 2.30279 5.40597 0
M  V30 2993 H 297.83 1.52067 5.91361 0
M  V30 2994 H 299.244 3.39003 4.62331 0
M  V30 2995 H 297.641 4.13288 4.35101 0
M  V30 2996 H 298.711 3.83334 2.96957 0
M  V30 2997 N 300.054 -1.07777 1.14986 0
M  V30 2998 C 301.302 -1.79934 0.920235 0
M  V30 2999 C 301.623 -1.86955 -0.554336 0
M  V30 3000 O 300.893 -1.36731 -1.40291 0
M  V30 3001 H 299.473 -0.666424 0.337473 0
M  V30 3002 H 302.135 -1.3027 1.44968 0
M  V30 3003 H 301.231 -2.82539 1.32583 0
M  V30 3004 N 301.532 -0.945985 -1.26051 0
M  V30 3005 C 302.495 -0.463897 -2.24456 0
M  V30 3006 C 303.495 0.427655 -1.55009 0
M  V30 3007 O 304.685 0.226157 -1.72726 0
M  V30 3008 C 301.817 0.330812 -3.39291 0
M  V30 3009 H 303.01 -1.33357 -2.68619 0
M  V30 3010 H 300.563 -0.728416 -1.38289 0
M  V30 3011 H 301.298 1.21852 -3.00537 0
M  V30 3012 H 301.083 -0.308679 -3.90883 0
M  V30 3013 H 302.573 0.657865 -4.12386 0
M  V30 3014 N 303.011 1.40521 -0.713556 0
M  V30 3015 C 303.921 2.34522 -0.0606667 0
M  V30 3016 C 304.937 1.57193 0.74607 0
M  V30 3017 O 306.113 1.89591 0.679493 0
M  V30 3018 C 303.178 3.36081 0.851491 0
M  V30 3019 C 302.239 4.29286 0.0349339 0
M  V30 3020 C 301.472 5.25994 0.903649 0
M  V30 3021 O 301.695 5.28616 2.14292 0
M  V30 3022 O 300.629 6.00918 0.343723 0
M  V30 3023 H 304.455 2.91968 -0.835972 0
M  V30 3024 H 302.04 1.41681 -0.47402 0
M  V30 3025 H 303.922 3.98369 1.37404 0
M  V30 3026 H 302.597 2.81052 1.60598 0
M  V30 3027 H 301.504 3.70289 -0.532633 0
M  V30 3028 H 302.837 4.87462 -0.681287 0
M  V30 3029 N 304.489 0.459591 1.5075 0
M  V30 3030 C 305.735 -0.0994966 2.02556 0
M  V30 3031 C 306.068 -1.40399 1.3417 0
M  V30 3032 O 305.343 -1.88892 0.463683 0
M  V30 3033 C 305.626 -0.295242 3.58888 0
M  V30 3034 C 305.479 1.02947 4.37861 0
M  V30 3035 C 306.798 -1.05502 4.27267 0
M  V30 3036 H 303.917 -0.034686 0.736183 0
M  V30 3037 H 306.559 0.602938 1.8018 0
M  V30 3038 H 304.709 -0.893563 3.78084 0
M  V30 3039 H 306.381 1.66348 4.30263 0
M  V30 3040 H 304.624 1.62885 4.02058 0
M  V30 3041 H 305.295 0.846281 5.45474 0
M  V30 3042 H 307.771 -0.547993 4.12476 0
M  V30 3043 H 306.647 -1.16077 5.36486 0
M  V30 3044 H 306.908 -2.08875 3.89645 0
M  V30 3045 N 305.967 -1.56429 0.191757 0
M  V30 3046 C 307.195 -2.01867 -0.453586 0
M  V30 3047 C 307.61 -1.07191 -1.5542 0
M  V30 3048 O 306.967 -0.0762108 -1.82341 0
M  V30 3049 C 307.018 -3.47017 -1.013 0
M  V30 3050 O 306.739 -4.38078 0.0437005 0
M  V30 3051 C 308.24 -4.07956 -1.73456 0
M  V30 3052 H 305.46 -0.661211 -0.114199 0
M  V30 3053 H 308.004 -2.02295 0.299483 0
M  V30 3054 H 306.159 -3.47298 -1.71647 0
M  V30 3055 H 306.573 -5.23178 -0.372212 0
M  V30 3056 H 308.047 -5.1138 -2.07833 0
M  V30 3057 H 308.524 -3.51222 -2.63704 0
M  V30 3058 H 309.13 -4.11437 -1.07702 0
M  V30 3059 N 307.445 0.0818655 -1.57387 0
M  V30 3060 C 308.691 0.784074 -1.8703 0
M  V30 3061 C 309.024 1.77729 -0.782689 0
M  V30 3062 O 308.299 1.93384 0.208051 0
M  V30 3063 C 308.582 1.50105 -3.27323 0
M  V30 3064 C 308.435 0.524925 -4.46727 0
M  V30 3065 C 309.754 2.44843 -3.65705 0
M  V30 3066 H 306.873 0.283582 -0.680257 0
M  V30 3067 H 309.515 0.0474352 -1.89941 0
M  V30 3068 H 307.665 2.12897 -3.24972 0
M  V30 3069 H 309.337 -0.0970111 -4.61198 0
M  V30 3070 H 307.58 -0.160606 -4.33503 0
M  V30 3071 H 308.251 1.064 -5.41648 0
M  V30 3072 H 310.727 1.92135 -3.69085 0
M  V30 3073 H 309.603 2.92018 -4.64776 0
M  V30 3074 H 309.864 3.29197 -2.95096 0
M  V30 3075 N 308.923 1.53595 0.353017 0
M  V30 3076 C 309.853 1.83902 1.43883 0
M  V30 3077 C 310.834 0.693421 1.55324 0
M  V30 3078 O 312.019 0.944452 1.69687 0
M  V30 3079 C 309.149 2.04016 2.8106 0
M  V30 3080 C 308.103 3.19814 2.84434 0
M  V30 3081 C 307.429 3.25244 4.24406 0
M  V30 3082 C 308.729 4.58133 2.50822 0
M  V30 3083 H 310.423 2.74835 1.1877 0
M  V30 3084 H 307.969 1.32242 0.569917 0
M  V30 3085 H 309.922 2.238 3.57059 0
M  V30 3086 H 308.646 1.09804 3.07588 0
M  V30 3087 H 307.305 2.9987 2.10887 0
M  V30 3088 H 306.953 2.28646 4.48029 0
M  V30 3089 H 306.653 4.03054 4.27576 0
M  V30 3090 H 308.177 3.47228 5.0226 0
M  V30 3091 H 309.591 4.77995 3.16534 0
M  V30 3092 H 307.988 5.38276 2.6529 0
M  V30 3093 H 309.058 4.62387 1.46034 0
M  V30 3094 N 310.401 -0.613514 1.45168 0
M  V30 3095 C 311.311 -1.75296 1.55912 0
M  V30 3096 C 312.327 -1.68244 0.443856 0
M  V30 3097 O 313.503 -1.88706 0.70371 0
M  V30 3098 C 310.568 -3.1174 1.5172 0
M  V30 3099 C 309.629 -3.30291 2.74238 0
M  V30 3100 C 308.862 -4.60226 2.70236 0
M  V30 3101 O 309.085 -5.42168 1.77229 0
M  V30 3102 O 308.019 -4.81361 3.61352 0
M  V30 3103 H 311.845 -1.69183 2.52212 0
M  V30 3104 H 309.43 -0.776886 1.27612 0
M  V30 3105 H 311.312 -3.93044 1.51968 0
M  V30 3106 H 309.987 -3.18357 0.585697 0
M  V30 3107 H 308.894 -2.48598 2.79553 0
M  V30 3108 H 310.227 -3.28547 3.66494 0
M  V30 3109 N 311.879 -1.3236 -0.855495 0
M  V30 3110 C 312.842 -1.21164 -1.94556 0
M  V30 3111 C 313.842 -0.134908 -1.60233 0
M  V30 3112 O 315.032 -0.385249 -1.69887 0
M  V30 3113 C 312.164 -0.863192 -3.29791 0
M  V30 3114 H 313.357 -2.18038 -2.05911 0
M  V30 3115 H 310.91 -1.16179 -1.04557 0
M  V30 3116 H 311.645 0.103769 -3.24134 0
M  V30 3117 H 311.43 -1.64166 -3.56078 0
M  V30 3118 H 312.92 -0.809156 -4.09686 0
M  V30 3119 N 313.357 1.07166 -1.15556 0
M  V30 3120 C 314.29 2.13808 -0.797593 0
M  V30 3121 C 315.268 1.6101 0.226812 0
M  V30 3122 O 316.452 1.88161 0.112932 0
M  V30 3123 C 313.579 3.38187 -0.186371 0
M  V30 3124 C 312.625 4.09766 -1.18297 0
M  V30 3125 S 313.458 4.60932 -2.72584 0
M  V30 3126 C 314.614 5.88583 -2.12886 0
M  V30 3127 H 314.847 2.43843 -1.70083 0
M  V30 3128 H 312.38 1.19467 -0.978106 0
M  V30 3129 H 314.338 4.10189 0.159837 0
M  V30 3130 H 312.999 3.06326 0.694489 0
M  V30 3131 H 312.192 4.99065 -0.703562 0
M  V30 3132 H 311.794 3.43736 -1.47381 0
M  V30 3133 H 314.086 6.60866 -1.49208 0
M  V30 3134 H 315.029 6.41241 -3.0036 0
M  V30 3135 H 315.437 5.42194 -1.57116 0
M  V30 3136 N 314.835 0.952656 1.25548 0
M  V30 3137 C 316.112 0.523818 1.88456 0
M  V30 3138 C 316.492 -0.998871 1.85973 0
M  V30 3139 O 315.84 -1.86381 1.3219 0
M  V30 3140 C 316.05 1.0982 3.31271 0
M  V30 3141 C 317.398 1.17385 4.08051 0
M  V30 3142 O 318.422 1.04961 3.40384 0
M  V30 3143 O 317.281 1.36852 5.29088 0
M  V30 3144 H 314.375 0.172485 0.808813 0
M  V30 3145 H 316.921 1.04596 1.33633 0
M  V30 3146 H 315.693 2.1415 3.27499 0
M  V30 3147 H 315.316 0.559191 3.93648 0
M  V30 3148 N 316.313 -1.40141 0.720998 0
M  V30 3149 C 317.26 -2.30688 0.071919 0
M  V30 3150 C 318.23 -1.48476 -0.744584 0
M  V30 3151 O 319.415 -1.77201 -0.707423 0
M  V30 3152 C 316.555 -3.34724 -0.839855 0
M  V30 3153 C 315.668 -4.31998 -0.0122438 0
M  V30 3154 C 314.803 -5.23102 -0.923995 0
M  V30 3155 C 313.842 -6.12033 -0.0907969 0
M  V30 3156 N 312.979 -6.95537 -0.957718 0
M  V30 3157 H 317.819 -2.85628 0.849755 0
M  V30 3158 H 315.356 -1.40653 0.430726 0
M  V30 3159 H 317.314 -3.93618 -1.38279 0
M  V30 3160 H 315.944 -2.81274 -1.58381 0
M  V30 3161 H 314.996 -3.74841 0.64794 0
M  V30 3162 H 316.308 -4.94772 0.632595 0
M  V30 3163 H 315.462 -5.86953 -1.53527 0
M  V30 3164 H 314.201 -4.60615 -1.60264 0
M  V30 3165 H 313.206 -5.47207 0.533377 0
M  V30 3166 H 314.431 -6.76581 0.584428 0
M  V30 3167 H 312.377 -6.35633 -1.62192 0
M  V30 3168 H 312.294 -7.55099 -0.36904 0
M  V30 3169 H 313.562 -7.63832 -1.555 0
M  V30 3170 N 317.792 -0.46758 -1.50504 0
M  V30 3171 C 319.039 0.0886219 -2.02306 0
M  V30 3172 C 319.367 1.40037 -1.34981 0
M  V30 3173 O 318.622 1.90136 -0.463318 0
M  V30 3174 C 318.921 0.323995 -3.55928 0
M  V30 3175 C 318.587 -0.905618 -4.41712 0
M  V30 3176 C 317.249 -1.24275 -4.64875 0
M  V30 3177 C 319.601 -1.72448 -4.91845 0
M  V30 3178 C 316.929 -2.39888 -5.35417 0
M  V30 3179 C 319.281 -2.87185 -5.63656 0
M  V30 3180 C 317.945 -3.21317 -5.85074 0
M  V30 3181 H 317.215 0.0324291 -0.74029 0
M  V30 3182 H 319.862 -0.620945 -1.81153 0
M  V30 3183 H 318.167 1.11577 -3.75577 0
M  V30 3184 H 319.864 0.76826 -3.93572 0
M  V30 3185 H 316.454 -0.632956 -4.239 0
M  V30 3186 H 320.638 -1.4772 -4.73806 0
M  V30 3187 H 315.894 -2.66611 -5.50208 0
M  V30 3188 H 320.068 -3.50985 -6.01484 0
M  V30 3189 H 317.695 -4.1101 -6.39511 0
M  V30 3190 N 319.27 1.56325 -0.20005 0
M  V30 3191 C 320.2 2.22318 0.713916 0
M  V30 3192 C 321.181 1.18788 1.21752 0
M  V30 3193 O 322.366 1.47309 1.26545 0
M  V30 3194 C 319.496 2.88639 1.93144 0
M  V30 3195 C 318.45 3.98457 1.56255 0
M  V30 3196 C 317.776 4.51967 2.85709 0
M  V30 3197 C 319.076 5.16612 0.768747 0
M  V30 3198 H 320.77 2.98952 0.163755 0
M  V30 3199 H 318.316 1.43792 0.0773219 0
M  V30 3200 H 320.269 3.33491 2.57608 0
M  V30 3201 H 318.993 2.09419 2.50621 0
M  V30 3202 H 317.652 3.54305 0.941471 0
M  V30 3203 H 317.3 3.69503 3.41287 0
M  V30 3204 H 317 5.26071 2.6177 0
M  V30 3205 H 318.524 4.99523 3.51154 0
M  V30 3206 H 319.938 5.57977 1.3166 0
M  V30 3207 H 318.335 5.96812 0.627286 0
M  V30 3208 H 319.405 4.84358 -0.229168 0
M  V30 3209 N 320.748 -0.0735177 1.57428 0
M  V30 3210 C 322.159 -0.625551 1.75908 0
M  V30 3211 C 322.51 -1.78 0.825261 0
M  V30 3212 O 321.635 -2.16398 0.00893964 0
M  V30 3213 C 322.23 -1.14155 3.18989 0
M  V30 3214 C 320.789 -1.63946 3.38819 0
M  V30 3215 C 319.936 -0.558151 2.71625 0
M  V30 3216 H 322.887 0.152647 1.57964 0
M  V30 3217 H 322.908 -2.0104 3.23053 0
M  V30 3218 H 322.42 -0.301116 3.8693 0
M  V30 3219 H 320.521 -2.50321 2.7599 0
M  V30 3220 H 320.634 -1.71759 4.47253 0
M  V30 3221 H 318.998 -1.00278 2.34129 0
M  V30 3222 H 319.781 0.272071 3.4222 0
M  V30 3223 N 322.226 -1.5378 -0.344866 0
M  V30 3224 C 323.189 -1.80981 -1.40637 0
M  V30 3225 C 324.189 -0.680816 -1.45676 0
M  V30 3226 O 325.379 -0.949095 -1.46075 0
M  V30 3227 C 322.511 -1.95063 -2.79577 0
M  V30 3228 H 323.704 -2.75803 -1.17783 0
M  V30 3229 H 321.257 -1.45173 -0.579181 0
M  V30 3230 H 321.992 -1.02379 -3.07716 0
M  V30 3231 H 321.777 -2.77198 -2.77315 0
M  V30 3232 H 323.267 -2.17629 -3.56409 0
M  V30 3233 N 323.704 0.605807 -1.45491 0
M  V30 3234 C 324.95 1.36679 -1.49823 0
M  V30 3235 C 325.283 1.93693 -0.140175 0
M  V30 3236 O 324.558 1.75158 0.845581 0
M  V30 3237 C 324.841 2.51337 -2.57879 0
M  V30 3238 C 324.694 1.99508 -4.03134 0
M  V30 3239 C 326.013 3.53463 -2.62205 0
M  V30 3240 H 323.132 0.495617 -0.545466 0
M  V30 3241 H 325.774 0.682732 -1.7731 0
M  V30 3242 H 323.924 3.09691 -2.34571 0
M  V30 3243 H 325.596 1.45789 -4.37656 0
M  V30 3244 H 323.839 1.30496 -4.13707 0
M  V30 3245 H 324.51 2.82169 -4.74431 0
M  V30 3246 H 326.986 3.04953 -2.83095 0
M  V30 3247 H 325.862 4.31178 -3.39672 0
M  V30 3248 H 326.123 4.09197 -1.67363 0
M  V30 3249 N 325.182 1.32811 0.848464 0
M  V30 3250 C 326.459 1.14334 1.58704 0
M  V30 3251 C 326.839 -0.293948 2.09043 0
M  V30 3252 O 326.187 -1.29153 1.88499 0
M  V30 3253 C 326.397 2.17626 2.72837 0
M  V30 3254 C 327.745 2.51282 3.42261 0
M  V30 3255 O 328.769 2.16219 2.83068 0
M  V30 3256 O 327.628 3.11413 4.49093 0
M  V30 3257 H 324.722 0.441601 0.699226 0
M  V30 3258 H 327.268 1.44362 0.892053 0
M  V30 3259 H 326.04 3.14211 2.3321 0
M  V30 3260 H 325.663 1.88628 3.50008 0
M  V30 3261 N 326.66 -1.06551 1.16123 0
M  V30 3262 C 327.57 -2.17484 0.879662 0
M  V30 3263 C 328.586 -1.73377 -0.147104 0
M  V30 3264 O 329.762 -2.01379 0.0289128 0
M  V30 3265 C 326.827 -3.44591 0.381829 0
M  V30 3266 C 325.888 -4.0322 1.4735 0
M  V30 3267 C 325.121 -5.24261 0.999324 0
M  V30 3268 O 325.344 -5.70198 -0.151957 0
M  V30 3269 O 324.278 -5.74775 1.78653 0
M  V30 3270 H 328.104 -2.44075 1.80724 0
M  V30 3271 H 325.689 -1.16042 0.940992 0
M  V30 3272 H 327.571 -4.21254 0.111053 0
M  V30 3273 H 326.246 -3.19532 -0.51777 0
M  V30 3274 H 325.153 -3.2806 1.79798 0
M  V30 3275 H 326.486 -4.32568 2.34831 0
M  V30 3276 N 328.138 -0.959301 -1.25041 0
M  V30 3277 C 329.07 -0.440543 -2.24926 0
M  V30 3278 C 330.083 0.446131 -1.56568 0
M  V30 3279 O 331.272 0.253657 -1.76689 0
M  V30 3280 C 328.372 0.38412 -3.36716 0
M  V30 3281 C 327.545 -0.490658 -4.34639 0
M  V30 3282 C 326.604 0.276587 -5.25473 0
M  V30 3283 O 325.63 -0.326614 -5.68262 0
M  V30 3284 N 326.832 1.56844 -5.5891 0
M  V30 3285 H 329.597 -1.29931 -2.70071 0
M  V30 3286 H 327.158 -0.830181 -1.38995 0
M  V30 3287 H 329.15 0.905228 -3.94446 0
M  V30 3288 H 327.72 1.14377 -2.90924 0
M  V30 3289 H 326.94 -1.19282 -3.7572 0
M  V30 3290 H 328.228 -1.08756 -4.97041 0
M  V30 3291 H 327.626 2.08036 -5.26059 0
M  V30 3292 H 326.183 2.03541 -6.19205 0
M  V30 3293 N 329.616 1.39756 -0.72842 0
M  V30 3294 C 330.862 2.00942 -0.273892 0
M  V30 3295 C 331.195 1.57656 1.13394 0
M  V30 3296 O 330.47 0.802434 1.77176 0
M  V30 3297 C 330.753 3.58211 -0.368346 0
M  V30 3298 C 330.606 4.11534 -1.81548 0
M  V30 3299 C 331.925 4.39372 0.253054 0
M  V30 3300 H 329.044 0.730047 -0.100996 0
M  V30 3301 H 331.686 1.66056 -0.923337 0
M  V30 3302 H 329.836 3.88061 0.184588 0
M  V30 3303 H 331.508 3.92431 -2.42478 0
M  V30 3304 H 329.751 3.65341 -2.33898 0
M  V30 3305 H 330.422 5.20682 -1.83288 0
M  V30 3306 H 332.898 4.15527 -0.218224 0
M  V30 3307 H 331.774 5.48677 0.156585 0
M  V30 3308 H 332.035 4.21358 1.33826 0
M  V30 3309 N 331.094 0.475555 1.50254 0
M  V30 3310 C 332.057 -0.305016 2.27161 0
M  V30 3311 C 333.057 -0.916519 1.32123 0
M  V30 3312 O 334.247 -0.785003 1.5551 0
M  V30 3313 C 331.379 -1.43496 3.09227 0
M  V30 3314 H 332.572 0.369511 2.97615 0
M  V30 3315 H 330.125 0.229747 1.54602 0
M  V30 3316 H 330.86 -2.14441 2.43281 0
M  V30 3317 H 330.645 -1.00223 3.79075 0
M  V30 3318 H 332.135 -1.98548 3.67381 0
M  V30 3319 N 332.573 -1.56217 0.208337 0
M  V30 3320 C 333.52 -2.19699 -0.707192 0
M  V30 3321 C 334.49 -1.14836 -1.20008 0
M  V30 3322 O 335.675 -1.4314 -1.26157 0
M  V30 3323 C 332.815 -2.87061 -1.91546 0
M  V30 3324 C 331.928 -4.06483 -1.46271 0
M  V30 3325 C 331.063 -4.61665 -2.62752 0
M  V30 3326 C 330.102 -5.73417 -2.14147 0
M  V30 3327 N 329.239 -6.22948 -3.23853 0
M  V30 3328 H 334.079 -2.97575 -0.159111 0
M  V30 3329 H 331.616 -1.46948 -0.0667874 0
M  V30 3330 H 333.574 -3.24294 -2.62468 0
M  V30 3331 H 332.204 -2.11725 -2.43664 0
M  V30 3332 H 331.256 -3.74825 -0.648886 0
M  V30 3333 H 332.568 -4.87271 -1.06622 0
M  V30 3334 H 331.722 -5.01272 -3.41776 0
M  V30 3335 H 330.461 -3.80013 -3.05682 0
M  V30 3336 H 329.466 -5.33326 -1.33581 0
M  V30 3337 H 330.691 -6.56897 -1.72232 0
M  V30 3338 H 328.637 -5.44213 -3.6629 0
M  V30 3339 H 328.554 -6.98823 -2.88414 0
M  V30 3340 H 329.822 -6.6721 -4.03052 0
M  V30 3341 N 334.051 0.0651679 -1.57465 0
M  V30 3342 C 334.961 1.09448 -2.07505 0
M  V30 3343 C 335.977 1.41974 -1.00595 0
M  V30 3344 O 337.153 1.52018 -1.32107 0
M  V30 3345 C 334.218 2.38689 -2.51453 0
M  V30 3346 C 333.279 2.13073 -3.72691 0
M  V30 3347 C 332.512 3.36152 -4.14533 0
M  V30 3348 O 332.735 4.45517 -3.56189 0
M  V30 3349 O 331.669 3.23974 -5.07272 0
M  V30 3350 H 335.495 0.69935 -2.95538 0
M  V30 3351 H 333.08 0.279752 -1.46757 0
M  V30 3352 H 334.962 3.14736 -2.80212 0
M  V30 3353 H 333.637 2.77568 -1.66546 0
M  V30 3354 H 332.544 1.34709 -3.49005 0
M  V30 3355 H 333.877 1.79071 -4.5847 0
M  V30 3356 N 335.529 1.53961 0.336706 0
M  V30 3357 C 336.492 1.81724 1.39675 0
M  V30 3358 C 337.492 0.688532 1.45313 0
M  V30 3359 O 338.682 0.956829 1.45569 0
M  V30 3360 C 335.814 1.96543 2.78538 0
M  V30 3361 H 337.007 2.76424 1.16318 0
M  V30 3362 H 334.56 1.45478 0.571474 0
M  V30 3363 H 335.295 1.0401 3.07168 0
M  V30 3364 H 335.08 2.78665 2.75841 0
M  V30 3365 H 336.57 2.19516 3.5525 0
M  V30 3366 N 337.007 -0.598083 1.45811 0
M  V30 3367 C 337.939 -1.72231 1.51225 0
M  V30 3368 C 338.952 -1.57757 0.402059 0
M  V30 3369 O 340.141 -1.65464 0.669624 0
M  V30 3370 C 337.241 -3.10331 1.3619 0
M  V30 3371 C 336.414 -3.50955 2.61054 0
M  V30 3372 C 335.473 -4.68055 2.40439 0
M  V30 3373 O 334.499 -4.74691 3.14097 0
M  V30 3374 N 335.701 -5.61941 1.45612 0
M  V30 3375 H 338.466 -1.68046 2.48154 0
M  V30 3376 H 336.027 -0.783637 1.41671 0
M  V30 3377 H 338.019 -3.86439 1.20195 0
M  V30 3378 H 336.589 -3.0897 0.475015 0
M  V30 3379 H 335.809 -2.64711 2.92099 0
M  V30 3380 H 337.097 -3.74858 3.44034 0
M  V30 3381 H 336.495 -5.59301 0.848431 0
M  V30 3382 H 335.052 -6.37542 1.35585 0
M  V30 3383 N 338.485 -1.33259 -0.841409 0
M  V30 3384 C 339.432 -1.23302 -1.95103 0
M  V30 3385 C 340.402 -0.112204 -1.65721 0
M  V30 3386 O 341.587 -0.290038 -1.88583 0
M  V30 3387 C 338.727 -0.975583 -3.31023 0
M  V30 3388 C 337.84 -2.18243 -3.72819 0
M  V30 3389 C 336.975 -1.85936 -4.97595 0
M  V30 3390 C 336.014 -3.02866 -5.3192 0
M  V30 3391 N 335.151 -2.70565 -6.47873 0
M  V30 3392 H 339.991 -2.18207 -2.02952 0
M  V30 3393 H 337.528 -1.0851 -0.993173 0
M  V30 3394 H 339.486 -0.80677 -4.09325 0
M  V30 3395 H 338.116 -0.0632755 -3.22738 0
M  V30 3396 H 337.168 -2.46107 -2.90061 0
M  V30 3397 H 338.48 -3.05666 -3.94169 0
M  V30 3398 H 337.634 -1.65684 -5.83638 0
M  V30 3399 H 336.373 -0.957452 -4.78209 0
M  V30 3400 H 335.378 -3.23736 -4.44382 0
M  V30 3401 H 336.603 -3.93809 -5.53255 0
M  V30 3402 H 334.549 -1.8293 -6.29978 0
M  V30 3403 H 334.466 -3.51519 -6.69306 0
M  V30 3404 H 335.734 -2.53774 -7.37034 0
M  V30 3405 N 339.963 1.05934 -1.16686 0
M  V30 3406 C 341.212 1.78188 -0.945085 0
M  V30 3407 C 341.525 1.88338 0.528021 0
M  V30 3408 O 342.731 2.57258 0.867799 0
M  V30 3409 C 341.187 3.20277 -1.64167 0
M  V30 3410 C 340.795 3.18281 -3.15279 0
M  V30 3411 C 342.539 3.97039 -1.502 0
M  V30 3412 C 340.446 4.55112 -3.7766 0
M  V30 3413 H 339.376 0.667866 -0.349959 0
M  V30 3414 H 342.027 1.18794 -1.39858 0
M  V30 3415 H 340.409 3.79952 -1.11589 0
M  V30 3416 H 341.583 2.68167 -3.74731 0
M  V30 3417 H 339.898 2.55018 -3.29173 0
M  V30 3418 H 342.495 4.98194 -1.94183 0
M  V30 3419 H 342.838 4.13845 -0.451461 0
M  V30 3420 H 343.371 3.43894 -1.99954 0
M  V30 3421 H 340.11 4.43512 -4.82677 0
M  V30 3422 H 339.63 5.05406 -3.22994 0
M  V30 3423 H 341.309 5.24064 -3.79428 0
M  V30 3424 N 341.441 0.965919 1.2453 0
M  V30 3425 C 342.371 0.513476 2.27784 0
M  V30 3426 C 343.352 -0.445974 1.6415 0
M  V30 3427 O 344.537 -0.342485 1.91156 0
M  V30 3428 C 341.667 -0.198839 3.4673 0
M  V30 3429 C 340.621 0.676456 4.2262 0
M  V30 3430 C 339.947 -0.167248 5.34438 0
M  V30 3431 C 341.247 1.96017 4.84123 0
M  V30 3432 H 342.941 1.3765 2.65881 0
M  V30 3433 H 340.487 0.663321 1.27813 0
M  V30 3434 H 342.44 -0.526567 4.18097 0
M  V30 3435 H 341.164 -1.0962 3.07654 0
M  V30 3436 H 339.823 0.98743 3.53052 0
M  V30 3437 H 339.471 -1.0647 4.91603 0
M  V30 3438 H 339.171 0.415181 5.86131 0
M  V30 3439 H 340.695 -0.489688 6.08633 0
M  V30 3440 H 342.109 1.69814 5.47573 0
M  V30 3441 H 340.506 2.48918 5.4604 0
M  V30 3442 H 341.576 2.65622 4.05676 0
M  V30 3443 N 342.919 -1.39368 0.735821 0
M  V30 3444 C 344.147 -2.04795 0.294393 0
M  V30 3445 C 344.562 -1.55478 -1.07107 0
M  V30 3446 O 343.919 -0.720038 -1.67695 0
M  V30 3447 C 343.97 -3.6035 0.288071 0
M  V30 3448 O 343.691 -4.07852 1.59963 0
M  V30 3449 C 345.192 -4.42976 -0.169422 0
M  V30 3450 H 342.412 -0.658571 0.128551 0
M  V30 3451 H 344.956 -1.78399 0.999701 0
M  V30 3452 H 343.111 -3.85645 -0.368355 0
M  V30 3453 H 343.525 -5.02181 1.51375 0
M  V30 3454 H 344.999 -5.51864 -0.122687 0
M  V30 3455 H 345.476 -4.22068 -1.21472 0
M  V30 3456 H 346.082 -4.22832 0.457469 0
M  V30 3457 N 344.397 -0.483516 -1.5 0
M  V30 3458 C 345.344 0.304164 -2.28787 0
M  V30 3459 C 346.314 0.976114 -1.34392 0
M  V30 3460 O 347.499 0.986156 -1.63339 0
M  V30 3461 C 344.639 1.37298 -3.16612 0
M  V30 3462 C 343.752 0.714561 -4.26049 0
M  V30 3463 C 342.887 1.76232 -5.01114 0
M  V30 3464 C 341.926 1.08483 -6.0241 0
M  V30 3465 N 341.063 2.076 -6.70706 0
M  V30 3466 H 345.903 -0.373981 -2.95644 0
M  V30 3467 H 343.44 -0.196275 -1.45785 0
M  V30 3468 H 345.398 2.00445 -3.65893 0
M  V30 3469 H 344.028 2.02012 -2.51776 0
M  V30 3470 H 343.08 -0.0297798 -3.80388 0
M  V30 3471 H 344.392 0.180383 -4.98474 0
M  V30 3472 H 343.546 2.46929 -5.54176 0
M  V30 3473 H 342.285 2.33033 -4.28424 0
M  V30 3474 H 341.29 0.363545 -5.48597 0
M  V30 3475 H 342.515 0.523551 -6.77079 0
M  V30 3476 H 340.461 2.63394 -6.00799 0
M  V30 3477 H 340.378 1.59201 -7.39047 0
M  V30 3478 H 341.646 2.77639 -7.2838 0
M  V30 3479 N 345.875 1.56104 -0.216619 0
M  V30 3480 C 346.807 2.17339 0.72776 0
M  V30 3481 C 347.82 1.14109 1.16116 0
M  V30 3482 O 349.009 1.4111 1.09317 0
M  V30 3483 C 346.109 2.73818 1.99693 0
M  V30 3484 C 345.282 4.02168 1.71988 0
M  V30 3485 C 344.341 4.43259 2.83562 0
M  V30 3486 O 343.367 5.10257 2.52244 0
M  V30 3487 N 344.569 4.08535 4.12407 0
M  V30 3488 H 347.334 2.99005 0.203983 0
M  V30 3489 H 344.895 1.61861 -0.0354289 0
M  V30 3490 H 346.887 2.9828 2.73516 0
M  V30 3491 H 345.457 1.96483 2.43132 0
M  V30 3492 H 344.677 3.85612 0.818337 0
M  V30 3493 H 345.965 4.85907 1.50903 0
M  V30 3494 H 345.363 3.54687 4.40696 0
M  V30 3495 H 343.92 4.37901 4.8279 0
M  V30 3496 N 347.353 -0.0568162 1.57498 0
M  V30 3497 C 348.601 -0.751617 1.87604 0
M  V30 3498 C 348.922 -1.77351 0.81066 0
M  V30 3499 O 348.192 -1.95254 -0.159018 0
M  V30 3500 H 346.772 -0.280583 0.692302 0
M  V30 3501 H 349.434 -0.0293483 1.94878 0
M  V30 3502 H 348.53 -1.25852 2.856 0
M  V30 3503 N 348.832 -1.54138 -0.328536 0
M  V30 3504 C 349.762 -1.86167 -1.40939 0
M  V30 3505 C 350.743 -0.718044 -1.54202 0
M  V30 3506 O 351.928 -0.971328 -1.68163 0
M  V30 3507 C 349.058 -2.08461 -2.77779 0
M  V30 3508 C 348.012 -3.24299 -2.7931 0
M  V30 3509 C 347.338 -3.31955 -4.19178 0
M  V30 3510 C 348.638 -4.62065 -2.43502 0
M  V30 3511 H 350.332 -2.76689 -1.14383 0
M  V30 3512 H 347.878 -1.33132 -0.548806 0
M  V30 3513 H 349.831 -2.29453 -3.53454 0
M  V30 3514 H 348.555 -1.14684 -3.05802 0
M  V30 3515 H 347.214 -3.03187 -2.0609 0
M  V30 3516 H 346.862 -2.35745 -4.44335 0
M  V30 3517 H 346.562 -4.09805 -4.2111 0
M  V30 3518 H 348.086 -3.55175 -4.96672 0
M  V30 3519 H 349.5 -4.8297 -3.08889 0
M  V30 3520 H 347.897 -5.42429 -2.56693 0
M  V30 3521 H 348.967 -4.64652 -1.38659 0
M  V30 3522 N 350.31 0.590341 -1.46126 0
M  V30 3523 C 351.257 1.69994 -1.56111 0
M  V30 3524 C 352.227 1.61065 -0.405867 0
M  V30 3525 O 353.412 1.8039 -0.621613 0
M  V30 3526 C 350.552 3.08326 -1.55013 0
M  V30 3527 C 349.665 3.27936 -2.81215 0
M  V30 3528 C 348.8 4.56473 -2.71673 0
M  V30 3529 C 347.839 4.694 -3.92849 0
M  V30 3530 N 346.976 5.89254 -3.81738 0
M  V30 3531 H 351.816 1.60797 -2.50895 0
M  V30 3532 H 349.353 0.783799 -1.24479 0
M  V30 3533 H 351.311 3.88383 -1.52362 0
M  V30 3534 H 349.941 3.16439 -0.637667 0
M  V30 3535 H 348.993 2.41536 -2.93879 0
M  V30 3536 H 350.305 3.33357 -3.71045 0
M  V30 3537 H 349.459 5.44748 -2.67085 0
M  V30 3538 H 348.198 4.53477 -1.7947 0
M  V30 3539 H 347.203 3.79544 -3.97777 0
M  V30 3540 H 348.428 4.7418 -4.86138 0
M  V30 3541 H 346.374 5.87271 -2.92317 0
M  V30 3542 H 346.291 5.95911 -4.65217 0
M  V30 3543 H 347.559 6.79981 -3.81112 0
M  V30 3544 N 351.788 1.33704 0.83433 0
M  V30 3545 C 353.037 1.24763 1.58484 0
M  V30 3546 C 353.35 -0.183775 1.94735 0
M  V30 3547 O 354.556 -0.395234 2.68608 0
M  V30 3548 C 353.012 2.18638 2.85876 0
M  V30 3549 C 352.62 3.66974 2.56971 0
M  V30 3550 C 354.364 2.18581 3.63899 0
M  V30 3551 C 352.271 4.5275 3.80488 0
M  V30 3552 H 351.201 0.463425 0.594772 0
M  V30 3553 H 353.852 1.58797 0.919551 0
M  V30 3554 H 352.234 1.77542 3.5397 0
M  V30 3555 H 353.408 4.16538 1.9706 0
M  V30 3556 H 351.723 3.69366 1.92244 0
M  V30 3557 H 354.32 2.79894 4.55591 0
M  V30 3558 H 354.663 1.18207 3.99165 0
M  V30 3559 H 355.196 2.58062 3.02735 0
M  V30 3560 H 351.935 5.54017 3.5035 0
M  V30 3561 H 351.455 4.07927 4.39722 0
M  V30 3562 H 353.134 4.66784 4.4802 0
M  V30 3563 N 353.266 -1.05314 1.17247 0
M  V30 3564 C 354.196 -2.1498 0.911362 0
M  V30 3565 C 355.177 -1.69471 -0.146169 0
M  V30 3566 O 356.362 -1.942 0.003812 0
M  V30 3567 C 353.492 -3.4472 0.422528 0
M  V30 3568 C 352.446 -4.03789 1.4191 0
M  V30 3569 C 351.772 -5.28858 0.788274 0
M  V30 3570 C 353.072 -4.41418 2.7919 0
M  V30 3571 H 354.766 -2.3708 1.82848 0
M  V30 3572 H 352.312 -1.13938 0.880569 0
M  V30 3573 H 354.265 -4.20787 0.227289 0
M  V30 3574 H 352.989 -3.22269 -0.530123 0
M  V30 3575 H 351.648 -3.2979 1.60106 0
M  V30 3576 H 351.296 -5.02709 -0.171173 0
M  V30 3577 H 350.996 -5.69338 1.45353 0
M  V30 3578 H 352.52 -6.07612 0.603282 0
M  V30 3579 H 353.934 -5.08524 2.64719 0
M  V30 3580 H 352.331 -4.92913 3.42282 0
M  V30 3581 H 353.401 -3.51819 3.33693 0
M  V30 3582 N 354.744 -0.972509 -1.24016 0
M  V30 3583 C 355.674 -0.525548 -2.27509 0
M  V30 3584 C 356.655 0.437262 -1.64384 0
M  V30 3585 O 357.84 0.332343 -1.91335 0
M  V30 3586 C 354.97 0.180448 -3.46831 0
M  V30 3587 C 353.924 -0.698859 -4.22256 0
M  V30 3588 C 353.25 0.138903 -5.3452 0
M  V30 3589 C 354.55 -1.98582 -4.83076 0
M  V30 3590 H 356.244 -1.39058 -2.65148 0
M  V30 3591 H 353.79 -0.67009 -1.27459 0
M  V30 3592 H 355.743 0.504387 -4.18371 0
M  V30 3593 H 354.467 1.07987 -3.08231 0
M  V30 3594 H 353.126 -1.00614 -3.52523 0
M  V30 3595 H 352.774 1.03862 -4.9216 0
M  V30 3596 H 352.474 -0.446259 -5.85903 0
M  V30 3597 H 353.998 0.457404 -6.08884 0
M  V30 3598 H 355.412 -1.72715 -5.46665 0
M  V30 3599 H 353.809 -2.5181 -5.44713 0
M  V30 3600 H 354.879 -2.67769 -4.04262 0
M  V30 3601 N 356.222 1.38976 -0.743202 0
M  V30 3602 C 357.47 1.99948 -0.29417 0
M  V30 3603 C 357.791 1.59279 1.12495 0
M  V30 3604 O 357.061 0.844808 1.76748 0
M  V30 3605 H 355.641 0.739473 -0.105774 0
M  V30 3606 H 358.303 1.699 -0.954986 0
M  V30 3607 H 357.399 3.10142 -0.349056 0
M  V30 3608 N 357.7 0.491464 1.49741 0
M  V30 3609 C 358.663 -0.280906 2.27472 0
M  V30 3610 C 359.663 -0.902454 1.33088 0
M  V30 3611 O 360.853 -0.768465 1.56334 0
M  V30 3612 C 357.985 -1.40209 3.10732 0
M  V30 3613 H 359.178 0.401056 2.97206 0
M  V30 3614 H 356.731 0.246131 1.5435 0
M  V30 3615 H 357.466 -2.11849 2.45541 0
M  V30 3616 H 357.251 -0.961969 3.80117 0
M  V30 3617 H 358.741 -1.9464 3.69466 0
M  V30 3618 N 359.178 -1.55987 0.224894 0
M  V30 3619 C 360.594 -1.59066 -0.130426 0
M  V30 3620 C 360.794 -1.24176 -1.5869 0
M  V30 3621 O 359.85 -0.978592 -2.32766 0
M  V30 3622 C 361.163 -3.00042 0.198883 0
M  V30 3623 C 362.711 -3.1268 0.141391 0
M  V30 3624 C 363.186 -4.55839 0.444422 0
M  V30 3625 N 364.677 -4.6152 0.394115 0
M  V30 3626 C 365.412 -5.70231 0.602038 0
M  V30 3627 N 364.908 -6.87291 0.871914 0
M  V30 3628 N 366.701 -5.59555 0.534245 0
M  V30 3629 H 358.852 -1.76941 1.17497 0
M  V30 3630 H 361.115 -0.822604 0.471197 0
M  V30 3631 H 360.821 -3.30234 1.2099 0
M  V30 3632 H 360.695 -3.74075 -0.484535 0
M  V30 3633 H 363.082 -2.82283 -0.860265 0
M  V30 3634 H 363.163 -2.40969 0.858335 0
M  V30 3635 H 362.807 -4.86954 1.44353 0
M  V30 3636 H 362.737 -5.2578 -0.293752 0
M  V30 3637 H 365.228 -3.77405 0.193356 0
M  V30 3638 H 365.541 -7.66058 1.01858 0
M  V30 3639 H 363.886 -6.89028 0.909145 0
M  V30 3640 H 367.077 -4.6698 0.323612 0
M  V30 3641 H 367.25 -6.44211 0.699693 0
M  V30 3642 N 360.656 0.0484629 -1.57525 0
M  V30 3643 C 361.902 0.744226 -1.88651 0
M  V30 3644 C 362.235 1.76029 -0.820212 0
M  V30 3645 O 361.51 1.93782 0.166985 0
M  V30 3646 C 361.793 1.43128 -3.30434 0
M  V30 3647 C 361.646 0.43005 -4.47739 0
M  V30 3648 C 362.965 2.37031 -3.70816 0
M  V30 3649 H 360.084 0.269089 -0.68612 0
M  V30 3650 H 362.726 0.00713532 -1.89999 0
M  V30 3651 H 360.876 2.05956 -3.29415 0
M  V30 3652 H 362.548 -0.194816 -4.60888 0
M  V30 3653 H 360.791 -0.252522 -4.33064 0
M  V30 3654 H 361.462 0.948874 -5.43783 0
M  V30 3655 H 363.938 1.84263 -3.73077 0
M  V30 3656 H 362.814 2.82094 -4.70865 0
M  V30 3657 H 363.075 3.22864 -3.02012 0
M  V30 3658 N 362.134 1.5431 0.320358 0
M  V30 3659 C 363.362 1.76636 1.07738 0
M  V30 3660 C 363.777 0.51649 1.81598 0
M  V30 3661 O 363.134 -0.512942 1.75143 0
M  V30 3662 C 363.185 2.96158 2.07299 0
M  V30 3663 O 362.906 4.16313 1.36438 0
M  V30 3664 C 364.407 3.3072 2.95193 0
M  V30 3665 H 361.627 0.589597 0.320339 0
M  V30 3666 H 364.171 2.01207 0.36551 0
M  V30 3667 H 362.326 2.73851 2.74016 0
M  V30 3668 H 362.74 4.83565 2.03138 0
M  V30 3669 H 364.214 4.17643 3.60941 0
M  V30 3670 H 364.691 2.48026 3.62463 0
M  V30 3671 H 365.297 3.55117 2.34034 0
M  V30 3672 N 363.613 -0.582584 1.46437 0
M  V30 3673 C 364.861 -1.33814 1.51453 0
M  V30 3674 C 365.182 -1.94277 0.167792 0
M  V30 3675 O 364.452 -1.78566 -0.805677 0
M  V30 3676 H 363.032 -0.496838 0.557818 0
M  V30 3677 H 365.694 -0.682281 1.82568 0
M  V30 3678 H 364.79 -2.14479 2.26728 0
M  V30 3679 N 365.091 -1.34144 -0.827227 0
M  V30 3680 C 366.319 -1.29325 -1.61501 0
M  V30 3681 C 366.734 0.13354 -1.88327 0
M  V30 3682 O 366.091 1.0793 -1.47164 0
M  V30 3683 C 366.142 -2.07746 -2.95844 0
M  V30 3684 O 365.863 -3.4486 -2.70191 0
M  V30 3685 C 367.364 -2.10273 -3.90256 0
M  V30 3686 H 364.584 -0.445069 -0.50215 0
M  V30 3687 H 367.128 -1.76693 -1.02955 0
M  V30 3688 H 365.283 -1.6403 -3.5096 0
M  V30 3689 H 365.697 -3.85345 -3.55822 0
M  V30 3690 H 367.171 -2.69575 -4.81698 0
M  V30 3691 H 367.648 -1.096 -4.25305 0
M  V30 3692 H 368.254 -2.54059 -3.41078 0
M  V30 3693 N 366.569 1.04691 -1.17803 0
M  V30 3694 C 367.479 2.16057 -0.914151 0
M  V30 3695 C 368.495 1.73589 0.119503 0
M  V30 3696 O 369.671 2.01308 -0.0609468 0
M  V30 3697 C 366.736 3.4394 -0.436603 0
M  V30 3698 C 365.797 4.00825 -1.53746 0
M  V30 3699 C 365.03 5.22604 -1.0826 0
M  V30 3700 O 365.253 5.70367 0.0612244 0
M  V30 3701 O 364.187 5.7186 -1.87775 0
M  V30 3702 H 368.013 2.41169 -1.84584 0
M  V30 3703 H 365.598 1.1453 -0.959334 0
M  V30 3704 H 367.48 4.21024 -0.178057 0
M  V30 3705 H 366.155 3.20316 0.466869 0
M  V30 3706 H 365.062 3.25158 -1.84995 0
M  V30 3707 H 366.395 4.28778 -2.41683 0
M  V30 3708 N 368.047 0.979072 1.23499 0
M  V30 3709 C 369.293 0.648178 1.92163 0
M  V30 3710 C 369.626 -0.816049 1.76222 0
M  V30 3711 O 368.901 -1.58849 1.12237 0
M  V30 3712 C 369.184 1.03773 3.44824 0
M  V30 3713 C 369.037 2.55948 3.69879 0
M  V30 3714 C 370.356 0.580653 4.36253 0
M  V30 3715 H 367.475 0.236952 0.69787 0
M  V30 3716 H 370.117 1.22012 1.45647 0
M  V30 3717 H 368.267 0.551058 3.84572 0
M  V30 3718 H 369.939 3.12179 3.3962 0
M  V30 3719 H 368.182 2.98641 3.14636 0
M  V30 3720 H 368.853 2.78255 4.76737 0
M  V30 3721 H 371.329 0.998465 4.03943 0
M  V30 3722 H 370.205 0.881663 5.41773 0
M  V30 3723 H 370.466 -0.519052 4.39042 0
M  V30 3724 N 369.525 -1.3858 0.750561 0
M  V30 3725 C 370.472 -2.30483 0.120835 0
M  V30 3726 C 371.442 -1.50022 -0.712923 0
M  V30 3727 O 372.627 -1.78662 -0.669676 0
M  V30 3728 C 369.767 -3.36431 -0.768666 0
M  V30 3729 C 368.88 -4.31927 0.0793922 0
M  V30 3730 C 368.015 -5.24944 -0.81283 0
M  V30 3731 C 367.054 -6.12088 0.0390447 0
M  V30 3732 N 366.191 -6.97412 -0.809969 0
M  V30 3733 H 371.031 -2.83761 0.91015 0
M  V30 3734 H 368.568 -1.39707 0.460463 0
M  V30 3735 H 370.526 -3.96462 -1.29898 0
M  V30 3736 H 369.156 -2.8457 -1.5238 0
M  V30 3737 H 368.208 -3.73382 0.727303 0
M  V30 3738 H 369.52 -4.93319 0.737401 0
M  V30 3739 H 368.674 -5.90078 -1.41042 0
M  V30 3740 H 367.413 -4.63911 -1.50458 0
M  V30 3741 H 366.418 -5.45952 0.649328 0
M  V30 3742 H 367.643 -6.75189 0.727809 0
M  V30 3743 H 365.589 -6.38931 -1.48672 0
M  V30 3744 H 365.506 -7.55712 -0.208789 0
M  V30 3745 H 366.774 -7.66959 -1.39263 0
M  V30 3746 N 371.003 -0.499398 -1.49478 0
M  V30 3747 C 371.951 0.293604 -2.3074 0
M  V30 3748 C 372.945 0.96427 -1.39277 0
M  V30 3749 O 374.151 0.892141 -1.56336 0
M  V30 3750 H 370.526 0.113541 -0.743379 0
M  V30 3751 H 372.497 -0.411772 -2.95545 0
M  V30 3752 C 371.246 1.3462 -3.20582 0
M  V30 3753 H 370.569 0.83954 -3.90886 0
M  V30 3754 H 372.009 1.87308 -3.80384 0
M  V30 3755 C 370.468 2.36351 -2.40083 0
M  V30 3756 O 370.998 3.422 -2.10385 0
M  V30 3757 N 369.204 2.0878 -2.02137 0
M  V30 3758 H 368.751 1.22723 -2.26488 0
M  V30 3759 H 368.709 2.77075 -1.48583 0
M  V30 3760 N 372.481 1.55866 -0.233164 0
M  V30 3761 C 373.428 2.20796 0.67215 0
M  V30 3762 C 374.398 1.16731 1.18166 0
M  V30 3763 O 375.583 1.45129 1.23864 0
M  V30 3764 C 372.723 2.90072 1.86955 0
M  V30 3765 C 371.836 4.08759 1.39786 0
M  V30 3766 C 370.971 4.65787 2.55374 0
M  V30 3767 C 370.01 5.76752 2.04998 0
M  V30 3768 N 369.147 6.28021 3.13901 0
M  V30 3769 H 373.987 2.9779 0.111749 0
M  V30 3770 H 371.524 1.47036 0.0434007 0
M  V30 3771 H 373.482 3.28428 2.57276 0
M  V30 3772 H 372.112 2.15575 2.40265 0
M  V30 3773 H 371.164 3.7581 0.589173 0
M  V30 3774 H 372.476 4.88906 0.98856 0
M  V30 3775 H 371.63 5.06646 3.33758 0
M  V30 3776 H 370.369 3.84828 2.99598 0
M  V30 3777 H 369.374 5.35383 1.25079 0
M  V30 3778 H 370.599 6.59553 1.61759 0
M  V30 3779 H 368.545 5.49971 3.57586 0
M  V30 3780 H 368.462 7.03323 2.7726 0
M  V30 3781 H 369.73 6.73538 3.92386 0
M  V30 3782 N 373.959 -0.0401083 1.57549 0
M  V30 3783 C 374.891 -1.07149 2.02612 0
M  V30 3784 C 375.904 -1.33126 0.937085 0
M  V30 3785 O 377.093 -1.30808 1.21456 0
M  V30 3786 C 374.193 -2.41561 2.37701 0
M  V30 3787 C 373.366 -2.35096 3.68848 0
M  V30 3788 C 372.425 -3.51867 3.91249 0
M  V30 3789 O 371.451 -3.3186 4.62447 0
M  V30 3790 N 372.653 -4.73351 3.36035 0
M  V30 3791 H 375.418 -0.687485 2.91708 0
M  V30 3792 H 372.979 -0.228248 1.60283 0
M  V30 3793 H 374.971 -3.18379 2.49833 0
M  V30 3794 H 373.541 -2.71846 1.54332 0
M  V30 3795 H 372.761 -1.4345 3.67173 0
M  V30 3796 H 374.049 -2.27908 4.54901 0
M  V30 3797 H 373.447 -4.92507 2.78304 0
M  V30 3798 H 372.004 -5.47572 3.53565 0
M  V30 3799 N 375.437 -1.54477 -0.31217 0
M  V30 3800 C 376.683 -1.73483 -1.0503 0
M  V30 3801 C 377.016 -0.513125 -1.87298 0
M  V30 3802 O 376.291 0.489864 -1.8823 0
M  V30 3803 C 376.574 -3.01723 -1.96558 0
M  V30 3804 C 376.427 -4.3417 -1.17545 0
M  V30 3805 C 377.746 -3.25772 -2.95907 0
M  V30 3806 H 374.865 -0.631222 -0.380432 0
M  V30 3807 H 377.507 -1.87184 -0.325932 0
M  V30 3808 H 375.657 -2.90174 -2.58324 0
M  V30 3809 H 377.329 -4.5762 -0.581513 0
M  V30 3810 H 375.572 -4.31159 -0.477925 0
M  V30 3811 H 376.243 -5.20143 -1.84811 0
M  V30 3812 H 378.719 -3.36857 -2.44267 0
M  V30 3813 H 377.595 -4.16838 -3.57123 0
M  V30 3814 H 377.856 -2.43537 -3.68974 0
M  V30 3815 N 376.915 0.57481 -1.46744 0
M  V30 3816 C 378.143 1.35856 -1.56047 0
M  V30 3817 C 378.558 1.87691 -0.204365 0
M  V30 3818 O 377.915 1.64049 0.79963 0
M  V30 3819 C 377.966 2.54066 -2.57163 0
M  V30 3820 O 377.687 2.04377 -3.87507 0
M  V30 3821 C 379.188 3.46514 -2.76483 0
M  V30 3822 H 376.408 0.414754 -0.527466 0
M  V30 3823 H 378.952 0.698035 -1.92218 0
M  V30 3824 H 377.107 3.16092 -2.23974 0
M  V30 3825 H 377.521 2.81419 -4.4261 0
M  V30 3826 H 378.995 4.25919 -3.51137 0
M  V30 3827 H 379.472 3.98951 -1.83671 0
M  V30 3828 H 380.078 2.90318 -3.10799 0
M  V30 3829 N 378.394 1.34581 0.820102 0
M  V30 3830 C 379.64 1.27285 1.57881 0
M  V30 3831 C 379.973 -0.156137 1.93571 0
M  V30 3832 O 379.248 -1.10222 1.60254 0
M  V30 3833 C 379.531 2.16639 2.87645 0
M  V30 3834 C 379.384 3.68088 2.58517 0
M  V30 3835 C 380.703 2.05378 3.8924 0
M  V30 3836 H 377.822 0.463714 0.572833 0
M  V30 3837 H 380.464 1.64859 0.944539 0
M  V30 3838 H 378.614 1.84725 3.41773 0
M  V30 3839 H 380.286 4.10382 2.10676 0
M  V30 3840 H 378.529 3.89038 1.91917 0
M  V30 3841 H 379.2 4.2598 3.51063 0
M  V30 3842 H 381.676 2.33404 3.44473 0
M  V30 3843 H 380.552 2.7012 4.77835 0
M  V30 3844 H 380.813 1.0316 4.29896 0
M  V30 3845 N 379.872 -1.04064 1.18357 0
M  V30 3846 C 380.819 -2.12077 0.910603 0
M  V30 3847 C 381.789 -1.65421 -0.15 0
M  V30 3848 O 382.974 -1.90797 -0.0103614 0
M  V30 3849 C 380.114 -3.42252 0.442472 0
M  V30 3850 C 379.227 -4.0252 1.5685 0
M  V30 3851 C 378.362 -5.20657 1.05309 0
M  V30 3852 C 377.401 -5.72955 2.1538 0
M  V30 3853 N 376.538 -6.8238 1.65233 0
M  V30 3854 H 381.378 -2.34764 1.83548 0
M  V30 3855 H 378.915 -1.15157 0.915279 0
M  V30 3856 H 380.873 -4.16921 0.152534 0
M  V30 3857 H 379.503 -3.19712 -0.445428 0
M  V30 3858 H 378.555 -3.25178 1.97391 0
M  V30 3859 H 379.867 -4.37362 2.39824 0
M  V30 3860 H 379.021 -6.0244 0.717677 0
M  V30 3861 H 377.76 -4.87318 0.19293 0
M  V30 3862 H 376.765 -4.89793 2.49766 0
M  V30 3863 H 377.99 -6.08337 3.01832 0
M  V30 3864 H 375.936 -6.50917 0.815064 0
M  V30 3865 H 375.853 -7.16286 2.41805 0
M  V30 3866 H 377.121 -7.67788 1.34619 0
M  V30 3867 N 381.35 -0.985608 -1.22978 0
M  V30 3868 C 382.597 -0.657386 -1.91532 0
M  V30 3869 C 382.925 0.809707 -1.76845 0
M  V30 3870 O 382.18 1.60021 -1.12658 0
M  V30 3871 C 382.479 -1.00014 -3.43121 0
M  V30 3872 C 382.145 -2.4583 -3.77993 0
M  V30 3873 C 380.807 -2.85679 -3.87222 0
M  V30 3874 C 383.159 -3.40378 -3.94705 0
M  V30 3875 C 380.487 -4.19081 -4.10595 0
M  V30 3876 C 382.839 -4.73429 -4.1958 0
M  V30 3877 C 381.503 -5.1303 -4.27032 0
M  V30 3878 H 380.773 -0.240555 -0.700867 0
M  V30 3879 H 383.42 -1.24044 -1.45895 0
M  V30 3880 H 381.725 -0.335072 -3.90365 0
M  V30 3881 H 383.422 -0.724322 -3.94404 0
M  V30 3882 H 380.012 -2.13939 -3.71387 0
M  V30 3883 H 384.196 -3.10766 -3.8696 0
M  V30 3884 H 379.452 -4.49362 -4.14589 0
M  V30 3885 H 383.626 -5.46644 -4.31455 0
M  V30 3886 H 381.253 -6.16418 -4.44896 0
M  V30 3887 N 382.828 1.3818 -0.7579 0
M  V30 3888 C 384.074 2.00316 -0.316453 0
M  V30 3889 C 384.407 1.60026 1.10025 0
M  V30 3890 O 383.682 0.839835 1.75434 0
M  V30 3891 C 383.965 3.57349 -0.444245 0
M  V30 3892 C 383.818 4.07591 -1.90236 0
M  V30 3893 C 385.137 4.3981 0.1598 0
M  V30 3894 H 382.256 0.727741 -0.116459 0
M  V30 3895 H 384.898 1.6406 -0.958352 0
M  V30 3896 H 383.048 3.88365 0.102233 0
M  V30 3897 H 384.72 3.87199 -2.50748 0
M  V30 3898 H 382.963 3.60297 -2.41595 0
M  V30 3899 H 383.634 5.16677 -1.94291 0
M  V30 3900 H 386.11 4.14971 -0.306314 0
M  V30 3901 H 384.986 5.48885 0.0401675 0
M  V30 3902 H 385.247 4.24102 1.24859 0
M  V30 3903 N 384.306 0.507319 1.49211 0
M  V30 3904 C 385.583 -0.0982702 1.95353 0
M  V30 3905 C 385.963 -1.53516 1.449 0
M  V30 3906 O 385.311 -2.18594 0.66551 0
M  V30 3907 C 385.521 -0.00440283 3.49 0
M  V30 3908 C 386.869 -0.175147 4.24239 0
M  V30 3909 O 387.893 -0.0792891 3.56112 0
M  V30 3910 O 386.752 -0.37276 5.45227 0
M  V30 3911 H 383.846 -0.0918236 0.821887 0
M  V30 3912 H 386.392 0.570307 1.5983 0
M  V30 3913 H 385.164 0.997402 3.78375 0
M  V30 3914 H 384.787 -0.712845 3.91158 0
M  V30 3915 N 385.784 -1.5574 0.241426 0
M  V30 3916 C 386.747 -2.19877 -0.647063 0
M  V30 3917 C 387.747 -1.16642 -1.10686 0
M  V30 3918 O 388.937 -1.41757 -1.01245 0
M  V30 3919 C 386.069 -2.83797 -1.88871 0
M  V30 3920 H 387.262 -2.99772 -0.087574 0
M  V30 3921 H 384.815 -1.56298 -0.00813574 0
M  V30 3922 H 385.55 -2.07824 -2.48957 0
M  V30 3923 H 385.335 -3.59414 -1.56728 0
M  V30 3924 H 386.825 -3.32898 -2.52129 0
M  V30 3925 N 387.262 0.0317525 -1.57568 0
M  V30 3926 C 388.172 1.05021 -2.0978 0
M  V30 3927 C 389.188 1.39809 -1.03583 0
M  V30 3928 O 390.364 1.49182 -1.35302 0
M  V30 3929 C 387.429 2.33301 -2.56459 0
M  V30 3930 C 386.49 2.0512 -3.77127 0
M  V30 3931 C 385.723 3.27283 -4.2157 0
M  V30 3932 O 385.946 4.37861 -3.65559 0
M  V30 3933 O 384.88 3.13141 -5.14029 0
M  V30 3934 H 388.706 0.636505 -2.96955 0
M  V30 3935 H 386.291 0.248559 -1.47318 0
M  V30 3936 H 388.173 3.08722 -2.86825 0
M  V30 3937 H 386.848 2.73973 -1.72397 0
M  V30 3938 H 385.755 1.27276 -3.51784 0
M  V30 3939 H 387.088 1.69305 -4.62165 0
M  V30 3940 N 388.74 1.54641 0.303973 0
M  V30 3941 C 389.988 1.73437 1.0375 0
M  V30 3942 C 390.309 0.521449 1.87899 0
M  V30 3943 O 389.579 -0.46432 1.90318 0
M  V30 3944 H 388.159 0.639518 0.386039 0
M  V30 3945 H 390.821 1.91988 0.335675 0
M  V30 3946 H 389.917 2.62235 1.69231 0
M  V30 3947 N 390.218 -0.567019 1.47046 0
M  V30 3948 C 391.128 -1.70247 1.6141 0
M  V30 3949 C 392.144 -1.66746 0.497157 0
M  V30 3950 O 393.32 -1.86371 0.763389 0
M  V30 3951 C 390.385 -3.06756 1.61561 0
M  V30 3952 C 389.446 -3.21399 2.84607 0
M  V30 3953 C 388.679 -4.51396 2.84741 0
M  V30 3954 O 388.902 -5.36255 1.94388 0
M  V30 3955 O 387.836 -4.69621 3.76483 0
M  V30 3956 H 391.662 -1.61073 2.57467 0
M  V30 3957 H 389.247 -0.735894 1.30019 0
M  V30 3958 H 391.129 -3.8801 1.64396 0
M  V30 3959 H 389.804 -3.16333 0.686684 0
M  V30 3960 H 388.711 -2.39579 2.8732 0
M  V30 3961 H 390.044 -3.16721 3.76761 0
M  V30 3962 N 391.696 -1.35014 -0.812953 0
M  V30 3963 C 392.643 -1.27412 -1.92444 0
M  V30 3964 C 393.613 -0.14733 -1.65445 0
M  V30 3965 O 394.798 -0.329974 -1.87925 0
M  V30 3966 C 391.938 -1.04558 -3.28879 0
M  V30 3967 C 391.051 -2.26101 -3.68106 0
M  V30 3968 C 390.186 -1.96449 -4.9354 0
M  V30 3969 C 389.225 -3.14081 -5.25376 0
M  V30 3970 N 388.362 -2.84246 -6.41988 0
M  V30 3971 H 393.202 -2.22463 -1.98278 0
M  V30 3972 H 390.739 -1.10593 -0.969933 0
M  V30 3973 H 392.697 -0.893413 -4.07522 0
M  V30 3974 H 391.327 -0.131719 -3.22531 0
M  V30 3975 H 390.379 -2.52204 -2.84775 0
M  V30 3976 H 391.691 -3.13959 -3.87597 0
M  V30 3977 H 390.845 -1.78026 -5.79993 0
M  V30 3978 H 389.584 -1.05867 -4.76071 0
M  V30 3979 H 388.589 -3.33089 -4.37415 0
M  V30 3980 H 389.814 -4.05455 -5.44778 0
M  V30 3981 H 387.76 -1.96252 -6.25956 0
M  V30 3982 H 387.677 -3.65637 -6.61699 0
M  V30 3983 H 388.945 -2.6935 -7.31485 0
M  V30 3984 N 393.175 1.03435 -1.18907 0
M  V30 3985 C 394.4 1.80919 -1.01406 0
M  V30 3986 C 394.825 1.83055 0.432721 0
M  V30 3987 O 394.183 1.25252 1.31079 0
M  V30 3988 C 394.231 3.24091 -1.58105 0
M  V30 3989 O 393.335 4.04434 -0.806669 0
M  V30 3990 H 392.676 0.558709 -0.358803 0
M  V30 3991 H 395.206 1.30223 -1.57807 0
M  V30 3992 H 395.216 3.74853 -1.61087 0
M  V30 3993 H 393.891 3.21851 -2.6341 0
M  V30 3994 H 392.468 3.63091 -0.849666 0
M  V30 3995 N 394.653 0.992116 1.22453 0
M  V30 3996 C 395.585 0.500024 2.23679 0
M  V30 3997 C 396.598 -0.404463 1.57696 0
M  V30 3998 O 397.787 -0.206722 1.77299 0
M  V30 3999 C 394.887 -0.294711 3.37616 0
M  V30 4000 C 394.06 0.605723 4.33186 0
M  V30 4001 C 393.119 -0.13717 5.26021 0
M  V30 4002 O 392.145 0.477164 5.67196 0
M  V30 4003 N 393.347 -1.4197 5.62872 0
M  V30 4004 H 396.112 1.37045 2.66531 0
M  V30 4005 H 393.673 0.866741 1.36745 0
M  V30 4006 H 395.665 -0.800329 3.96707 0
M  V30 4007 H 394.235 -1.06623 2.93854 0
M  V30 4008 H 393.455 1.29202 3.72425 0
M  V30 4009 H 394.743 1.21896 4.93983 0
M  V30 4010 H 394.141 -1.94015 5.31389 0
M  V30 4011 H 392.698 -1.87052 6.24383 0
M  V30 4012 N 396.131 -1.37776 0.765217 0
M  V30 4013 C 397.094 -2.28686 0.153416 0
M  V30 4014 C 398.094 -1.47727 -0.635081 0
M  V30 4015 O 399.284 -1.68027 -0.459632 0
M  V30 4016 C 396.416 -3.31608 -0.790495 0
M  V30 4017 H 397.609 -2.84297 0.954723 0
M  V30 4018 H 395.162 -1.46932 0.53299 0
M  V30 4019 H 395.897 -2.81109 -1.61705 0
M  V30 4020 H 395.682 -3.9144 -0.227348 0
M  V30 4021 H 397.172 -3.99559 -1.21419 0
M  V30 4022 N 397.609 -0.515225 -1.4894 0
M  V30 4023 C 398.856 0.024215 -2.02486 0
M  V30 4024 C 399.184 1.35671 -1.39368 0
M  V30 4025 O 398.439 1.88566 -0.523574 0
M  V30 4026 C 398.738 0.210595 -3.56779 0
M  V30 4027 C 398.404 -1.04569 -4.38607 0
M  V30 4028 C 397.066 -1.39002 -4.60686 0
M  V30 4029 C 399.418 -1.88008 -4.86109 0
M  V30 4030 C 396.746 -2.568 -5.27514 0
M  V30 4031 C 399.098 -3.04972 -5.54234 0
M  V30 4032 C 397.762 -3.39768 -5.74555 0
M  V30 4033 H 397.032 0.00886088 -0.740947 0
M  V30 4034 H 399.679 -0.678263 -1.79086 0
M  V30 4035 H 397.984 0.99572 -3.78936 0
M  V30 4036 H 399.681 0.642659 -3.95817 0
M  V30 4037 H 396.271 -0.767497 -4.21672 0
M  V30 4038 H 400.455 -1.62719 -4.68867 0
M  V30 4039 H 395.711 -2.8398 -5.41447 0
M  V30 4040 H 399.885 -3.69943 -5.90013 0
M  V30 4041 H 397.512 -4.31148 -6.26112 0
M  V30 4042 N 399.087 1.5561 -0.249682 0
M  V30 4043 C 400.364 1.90932 0.424761 0
M  V30 4044 C 400.744 1.17078 1.75658 0
M  V30 4045 O 400.092 0.289176 2.26663 0
M  V30 4046 C 400.302 3.43975 0.590109 0
M  V30 4047 C 401.65 4.15281 0.884714 0
M  V30 4048 O 402.674 3.49729 0.67587 0
M  V30 4049 O 401.533 5.31236 1.28259 0
M  V30 4050 H 398.627 0.794815 0.228468 0
M  V30 4051 H 401.173 1.67135 -0.293954 0
M  V30 4052 H 399.945 3.89748 -0.34818 0
M  V30 4053 H 399.568 3.73644 1.35926 0
M  V30 4054 N 400.565 -0.0233959 1.57583 0
M  V30 4055 C 401.512 -1.02224 2.06927 0
M  V30 4056 C 402.482 -1.35575 0.959617 0
M  V30 4057 O 403.667 -1.45815 1.23055 0
M  V30 4058 C 400.807 -2.31636 2.5581 0
M  V30 4059 C 399.92 -2.04394 3.80588 0
M  V30 4060 C 399.055 -3.27717 4.18061 0
M  V30 4061 C 398.094 -2.96056 5.3574 0
M  V30 4062 N 397.231 -4.11847 5.68618 0
M  V30 4063 H 402.071 -0.594504 2.9201 0
M  V30 4064 H 399.608 -0.281921 1.44373 0
M  V30 4065 H 401.566 -3.07258 2.82221 0
M  V30 4066 H 400.196 -2.72122 1.73636 0
M  V30 4067 H 399.248 -1.19244 3.61227 0
M  V30 4068 H 400.56 -1.77042 4.66323 0
M  V30 4069 H 399.714 -4.11702 4.4563 0
M  V30 4070 H 398.453 -3.58188 3.30988 0
M  V30 4071 H 397.458 -2.10474 5.07918 0
M  V30 4072 H 398.683 -2.66857 6.24471 0
M  V30 4073 H 396.629 -4.42258 4.84504 0
M  V30 4074 H 396.546 -3.87938 6.48876 0
M  V30 4075 H 397.814 -4.96689 6.00766 0
M  V30 4076 N 402.043 -1.548 -0.295768 0
M  V30 4077 C 402.973 -1.89115 -1.36959 0
M  V30 4078 C 403.954 -0.75059 -1.52644 0
M  V30 4079 O 405.139 -1.00678 -1.66065 0
M  V30 4080 C 402.269 -2.14307 -2.73295 0
M  V30 4081 C 401.223 -3.30151 -2.72368 0
M  V30 4082 C 400.549 -3.40772 -4.12042 0
M  V30 4083 C 401.849 -4.67126 -2.33646 0
M  V30 4084 H 403.543 -2.79053 -1.08488 0
M  V30 4085 H 401.089 -1.34266 -0.520443 0
M  V30 4086 H 403.042 -2.36898 -3.48507 0
M  V30 4087 H 401.766 -1.21145 -3.03301 0
M  V30 4088 H 400.425 -3.0749 -1.99613 0
M  V30 4089 H 400.073 -2.45117 -4.39234 0
M  V30 4090 H 399.773 -4.18645 -4.12322 0
M  V30 4091 H 401.297 -3.6563 -4.89027 0
M  V30 4092 H 402.711 -4.89414 -2.98575 0
M  V30 4093 H 401.108 -5.47751 -2.45129 0
M  V30 4094 H 402.178 -4.67489 -1.28772 0
M  V30 4095 N 403.521 0.559213 -1.47345 0
M  V30 4096 C 404.77 1.31281 -1.53128 0
M  V30 4097 C 405.083 1.94602 -0.197344 0
M  V30 4098 O 406.289 2.71173 -0.133154 0
M  V30 4099 C 404.745 2.38051 -2.69925 0
M  V30 4100 C 404.353 1.8093 -4.0984 0
M  V30 4101 C 406.097 3.14604 -2.84999 0
M  V30 4102 C 404.004 2.85468 -5.1794 0
M  V30 4103 H 402.934 0.493614 -0.569966 0
M  V30 4104 H 405.585 0.594155 -1.73615 0
M  V30 4105 H 403.967 3.12822 -2.42814 0
M  V30 4106 H 405.141 1.12544 -4.46845 0
M  V30 4107 H 403.456 1.16967 -3.99634 0
M  V30 4108 H 406.053 3.92666 -3.62929 0
M  V30 4109 H 406.396 3.68665 -1.93369 0
M  V30 4110 H 406.929 2.46945 -3.1187 0
M  V30 4111 H 403.668 2.36264 -6.1144 0
M  V30 4112 H 403.188 3.52269 -4.85455 0
M  V30 4113 H 404.867 3.48996 -5.44803 0
M  V30 4114 N 404.999 1.35443 0.805782 0
M  V30 4115 C 406.245 1.28952 1.56522 0
M  V30 4116 C 406.578 -0.135597 1.93726 0
M  V30 4117 O 405.853 -1.08516 1.61414 0
M  V30 4118 C 406.136 2.19678 2.85331 0
M  V30 4119 C 405.989 3.7081 2.54598 0
M  V30 4120 C 407.308 2.09495 3.8704 0
M  V30 4121 H 404.427 0.469764 0.567883 0
M  V30 4122 H 407.069 1.65851 0.927001 0
M  V30 4123 H 405.219 1.8834 3.39795 0
M  V30 4124 H 406.891 4.12593 2.06312 0
M  V30 4125 H 405.134 3.91051 1.8778 0
M  V30 4126 H 405.805 4.29679 3.46525 0
M  V30 4127 H 408.281 2.37045 3.41978 0
M  V30 4128 H 407.157 2.75173 4.74943 0
M  V30 4129 H 407.418 1.07714 4.28777 0
M  V30 4130 N 406.477 -1.02803 1.19454 0
M  V30 4131 C 407.44 -2.09264 0.934955 0
M  V30 4132 C 408.44 -1.60576 -0.0849015 0
M  V30 4133 O 409.63 -1.73554 0.149933 0
M  V30 4134 C 406.762 -3.38482 0.40531 0
M  V30 4135 H 407.955 -2.33726 1.87916 0
M  V30 4136 H 405.508 -1.19426 1.00832 0
M  V30 4137 H 406.243 -3.19689 -0.544899 0
M  V30 4138 H 406.028 -3.75142 1.14065 0
M  V30 4139 H 407.518 -4.16894 0.242806 0
M  V30 4140 N 407.956 -0.998596 -1.21925 0
M  V30 4141 C 409.202 -0.678667 -1.91107 0
M  V30 4142 C 409.535 0.78791 -1.77498 0
M  V30 4143 O 408.81 1.57043 -1.1475 0
M  V30 4144 C 409.093 -1.09245 -3.43129 0
M  V30 4145 C 408.946 -2.61801 -3.6576 0
M  V30 4146 C 410.265 -0.649984 -4.35274 0
M  V30 4147 H 407.384 -0.248025 -0.694012 0
M  V30 4148 H 410.026 -1.24314 -1.43688 0
M  V30 4149 H 408.176 -0.612171 -3.83647 0
M  V30 4150 H 409.848 -3.17543 -3.34611 0
M  V30 4151 H 408.091 -3.03609 -3.09845 0
M  V30 4152 H 408.762 -2.85804 -4.7225 0
M  V30 4153 H 411.238 -1.0626 -4.02303 0
M  V30 4154 H 410.114 -0.967743 -5.40302 0
M  V30 4155 H 410.375 0.449139 -4.39813 0
M  V30 4156 N 409.434 1.37368 -0.772513 0
M  V30 4157 C 410.682 1.99279 -0.336516 0
M  V30 4158 C 411.003 1.6163 1.09091 0
M  V30 4159 O 410.273 0.882109 1.74916 0
M  V30 4160 H 408.853 0.737063 -0.121435 0
M  V30 4161 H 411.515 1.67836 -0.990809 0
M  V30 4162 H 410.611 3.09332 -0.414763 0
M  V30 4163 N 410.912 0.523116 1.48665 0
M  V30 4164 C 412.328 0.180511 1.58576 0
M  V30 4165 C 412.528 -1.31597 1.52592 0
M  V30 4166 O 411.584 -2.0937 1.4114 0
M  V30 4167 C 412.897 0.776949 2.90489 0
M  V30 4168 C 414.445 0.745058 3.04003 0
M  V30 4169 C 414.92 1.31995 4.38567 0
M  V30 4170 N 416.411 1.28162 4.45117 0
M  V30 4171 C 417.146 1.6964 5.47731 0
M  V30 4172 N 416.642 2.18816 6.57337 0
M  V30 4173 N 418.435 1.6092 5.38573 0
M  V30 4174 H 410.586 1.4958 1.50797 0
M  V30 4175 H 412.849 0.621772 0.715614 0
M  V30 4176 H 412.555 1.82732 3.00503 0
M  V30 4177 H 412.429 0.25007 3.7637 0
M  V30 4178 H 414.816 -0.296532 2.93606 0
M  V30 4179 H 414.897 1.30933 2.1975 0
M  V30 4180 H 414.541 2.36043 4.49718 0
M  V30 4181 H 414.471 0.731418 5.21496 0
M  V30 4182 H 416.962 0.92155 3.66491 0
M  V30 4183 H 417.275 2.48478 7.31764 0
M  V30 4184 H 415.62 2.22805 6.58318 0
M  V30 4185 H 418.811 1.22304 4.5184 0
M  V30 4186 H 418.984 1.93567 6.18414 0
M  V30 4187 N 412.39 -1.55475 0.257931 0
M  V30 4188 C 413.806 -1.59307 -0.0966563 0
M  V30 4189 C 414.006 -1.27514 -1.5602 0
M  V30 4190 O 413.062 -1.02774 -2.30637 0
M  V30 4191 C 414.375 -2.99552 0.262481 0
M  V30 4192 C 415.923 -3.1231 0.207683 0
M  V30 4193 C 416.398 -4.54793 0.541012 0
M  V30 4194 N 417.889 -4.6058 0.491921 0
M  V30 4195 C 418.624 -5.68825 0.722857 0
M  V30 4196 N 418.12 -6.85287 1.0175 0
M  V30 4197 N 419.913 -5.58296 0.652815 0
M  V30 4198 H 412.064 -1.74409 1.21224 0
M  V30 4199 H 414.327 -0.812424 0.48854 0
M  V30 4200 H 414.033 -3.27593 1.27967 0
M  V30 4201 H 413.907 -3.75019 -0.40508 0
M  V30 4202 H 416.294 -2.84044 -0.800195 0
M  V30 4203 H 416.375 -2.39095 0.909255 0
M  V30 4204 H 416.019 -4.83783 1.5465 0
M  V30 4205 H 415.949 -5.26285 -0.18216 0
M  V30 4206 H 418.44 -3.7691 0.273366 0
M  V30 4207 H 418.753 -7.63725 1.18084 0
M  V30 4208 H 417.098 -6.86945 1.05509 0
M  V30 4209 H 420.289 -4.66189 0.422592 0
M  V30 4210 H 420.462 -6.42582 0.836182 0
M  V30 4211 N 413.868 0.0150385 -1.57593 0
M  V30 4212 C 415.279 0.559832 -1.78109 0
M  V30 4213 C 415.63 1.74814 -0.890756 0
M  V30 4214 O 414.755 2.16216 -0.0892482 0
M  V30 4215 C 415.35 1.02238 -3.23006 0
M  V30 4216 C 413.909 1.51258 -3.44671 0
M  V30 4217 C 413.056 0.456955 -2.73509 0
M  V30 4218 H 416.007 -0.211169 -1.57289 0
M  V30 4219 H 416.028 1.88912 -3.30292 0
M  V30 4220 H 415.54 0.157302 -3.87781 0
M  V30 4221 H 413.641 2.39905 -2.8509 0
M  V30 4222 H 413.754 1.55042 -4.5332 0
M  V30 4223 H 412.118 0.915196 -2.37689 0
M  V30 4224 H 412.901 -0.398896 -3.40975 0
M  V30 4225 N 415.346 1.54954 0.287554 0
M  V30 4226 C 416.592 1.75132 1.02257 0
M  V30 4227 C 416.925 0.542858 1.86458 0
M  V30 4228 O 416.2 -0.459856 1.88986 0
M  V30 4229 C 416.483 3.04812 1.91733 0
M  V30 4230 C 416.336 4.35985 1.10622 0
M  V30 4231 C 417.655 3.30438 2.90687 0
M  V30 4232 H 414.774 0.637194 0.370341 0
M  V30 4233 H 417.416 1.87678 0.296111 0
M  V30 4234 H 415.566 2.94247 2.53675 0
M  V30 4235 H 417.238 4.58487 0.508636 0
M  V30 4236 H 415.481 4.31865 0.409271 0
M  V30 4237 H 416.152 5.23017 1.76513 0
M  V30 4238 H 418.628 3.40701 2.38877 0
M  V30 4239 H 417.504 4.22467 3.50447 0
M  V30 4240 H 417.765 2.49377 3.65053 0
M  V30 4241 N 416.824 -0.551391 1.4764 0
M  V30 4242 C 418.052 -1.33357 1.58189 0
M  V30 4243 C 418.467 -1.87342 0.234199 0
M  V30 4244 O 417.824 -1.65301 -0.77343 0
M  V30 4245 C 417.875 -2.49942 2.61173 0
M  V30 4246 O 417.596 -1.98187 3.90709 0
M  V30 4247 C 419.097 -3.42072 2.8196 0
M  V30 4248 H 416.317 -0.40631 0.533998 0
M  V30 4249 H 418.861 -0.667367 1.93304 0
M  V30 4250 H 417.016 -3.12489 2.28975 0
M  V30 4251 H 417.43 -2.74342 4.47031 0
M  V30 4252 H 418.904 -4.20278 3.57869 0
M  V30 4253 H 419.381 -3.95978 1.89995 0
M  V30 4254 H 419.987 -2.85336 3.15378 0
M  V30 4255 N 418.302 -1.35869 -0.798587 0
M  V30 4256 C 419.53 -1.32722 -1.58722 0
M  V30 4257 C 419.945 0.0935631 -1.88568 0
M  V30 4258 O 419.302 1.04784 -1.49421 0
M  V30 4259 C 419.353 -2.13974 -2.91371 0
M  V30 4260 O 419.074 -3.50514 -2.62815 0
M  V30 4261 C 420.575 -2.18504 -3.85708 0
M  V30 4262 H 417.795 -0.45562 -0.492596 0
M  V30 4263 H 420.339 -1.78837 -0.991843 0
M  V30 4264 H 418.494 -1.71438 -3.47402 0
M  V30 4265 H 418.908 -3.92806 -3.47568 0
M  V30 4266 H 420.382 -2.79732 -4.75872 0
M  V30 4267 H 420.859 -1.18597 -4.22885 0
M  V30 4268 H 421.465 -2.61236 -3.35612 0
M  V30 4269 N 419.78 1.02168 -1.19998 0
M  V30 4270 C 421.057 1.72816 -0.916191 0
M  V30 4271 C 421.437 2.03081 0.576325 0
M  V30 4272 O 420.785 1.69122 1.53656 0
M  V30 4273 C 420.995 2.9997 -1.78378 0
M  V30 4274 C 422.343 3.73336 -2.02251 0
M  V30 4275 O 423.367 3.09914 -1.75589 0
M  V30 4276 O 422.226 4.87371 -2.47249 0
M  V30 4277 H 419.32 0.752924 -0.342103 0
M  V30 4278 H 421.866 1.08062 -1.30846 0
M  V30 4279 H 420.638 2.73888 -2.79466 0
M  V30 4280 H 420.261 3.72464 -1.39126 0
M  V30 4281 N 421.258 1.00505 1.21394 0
M  V30 4282 C 422.188 0.585684 2.26035 0
M  V30 4283 C 423.169 -0.393525 1.65485 0
M  V30 4284 O 424.354 -0.281497 1.92149 0
M  V30 4285 C 421.484 -0.0884283 3.47187 0
M  V30 4286 C 420.438 0.810567 4.20254 0
M  V30 4287 C 419.764 0.00286382 5.347 0
M  V30 4288 C 421.064 2.1132 4.77641 0
M  V30 4289 H 422.758 1.46039 2.61368 0
M  V30 4290 H 420.304 0.703648 1.25638 0
M  V30 4291 H 422.257 -0.393286 4.19561 0
M  V30 4292 H 420.981 -0.997766 3.10986 0
M  V30 4293 H 419.64 1.09925 3.49731 0
M  V30 4294 H 419.288 -0.907765 4.94741 0
M  V30 4295 H 418.988 0.601444 5.84514 0
M  V30 4296 H 420.512 -0.295808 6.09883 0
M  V30 4297 H 421.926 1.87148 5.41893 0
M  V30 4298 H 420.323 2.66164 5.37845 0
M  V30 4299 H 421.393 2.78393 3.9702 0
M  V30 4300 N 422.737 -1.36956 0.779787 0
M  V30 4301 C 423.667 -2.32761 0.185651 0
M  V30 4302 C 424.648 -1.56177 -0.673989 0
M  V30 4303 O 425.833 -1.84378 -0.609797 0
M  V30 4304 C 422.963 -3.40418 -0.687964 0
M  V30 4305 C 421.917 -4.27941 0.0710102 0
M  V30 4306 C 421.243 -5.26681 -0.922573 0
M  V30 4307 C 422.543 -5.07006 1.25467 0
M  V30 4308 H 424.237 -2.82698 0.986008 0
M  V30 4309 H 421.783 -1.3592 0.475592 0
M  V30 4310 H 423.736 -4.06423 -1.11348 0
M  V30 4311 H 422.46 -2.89025 -1.52093 0
M  V30 4312 H 421.119 -3.63478 0.47739 0
M  V30 4313 H 420.767 -4.71565 -1.7503 0
M  V30 4314 H 420.467 -5.86103 -0.419237 0
M  V30 4315 H 421.991 -5.9556 -1.34686 0
M  V30 4316 H 423.405 -5.66105 0.905401 0
M  V30 4317 H 421.802 -5.75793 1.69063 0
M  V30 4318 H 422.872 -4.3921 2.05481 0
M  V30 4319 N 424.215 -0.530993 -1.48385 0
M  V30 4320 C 425.178 0.220497 -2.28137 0
M  V30 4321 C 426.178 0.866851 -1.35434 0
M  V30 4322 O 427.368 0.726746 -1.58316 0
M  V30 4323 C 424.5 1.31921 -3.1434 0
M  V30 4324 H 425.693 -0.479714 -2.96038 0
M  V30 4325 H 423.246 -0.286968 -1.53643 0
M  V30 4326 H 423.981 2.05264 -2.51072 0
M  V30 4327 H 423.766 0.86085 -3.82533 0
M  V30 4328 H 425.256 1.84776 -3.74497 0
M  V30 4329 N 425.693 1.55336 -0.266172 0
M  V30 4330 C 426.656 2.20878 0.612001 0
M  V30 4331 C 427.656 1.18388 1.08816 0
M  V30 4332 O 428.846 1.4335 0.989774 0
M  V30 4333 C 425.978 2.86765 1.84332 0
M  V30 4334 H 427.171 2.99873 0.0398718 0
M  V30 4335 H 424.724 1.56291 -0.0167309 0
M  V30 4336 H 425.459 2.11759 2.45619 0
M  V30 4337 H 425.244 3.61862 1.5099 0
M  V30 4338 H 426.734 3.36867 2.46801 0
M  V30 4339 N 427.171 -0.0066808 1.57599 0
M  V30 4340 C 428.448 -0.729586 1.81484 0
M  V30 4341 C 428.828 -1.92359 0.869558 0
M  V30 4342 O 428.176 -2.28348 -0.0832533 0
M  V30 4343 C 428.386 -1.1416 3.29801 0
M  V30 4344 C 429.734 -1.54823 3.95367 0
M  V30 4345 O 430.758 -1.23558 3.34084 0
M  V30 4346 O 429.617 -2.12937 5.03309 0
M  V30 4347 H 426.711 -0.354674 0.747085 0
M  V30 4348 H 429.257 0.0182609 1.6969 0
M  V30 4349 H 428.029 -0.290231 3.90222 0
M  V30 4350 H 427.652 -1.94876 3.46568 0
M  V30 4351 N 428.649 -1.55105 -0.279332 0
M  V30 4352 C 429.874 -1.7976 -1.03446 0
M  V30 4353 C 430.299 -0.565952 -1.79384 0
M  V30 4354 O 429.657 0.484259 -1.74713 0
M  V30 4355 C 429.705 -3.0179 -1.97371 0
M  V30 4356 O 428.809 -2.76432 -3.06038 0
M  V30 4357 H 428.15 -0.594334 -0.29608 0
M  V30 4358 H 430.68 -2.02235 -0.310165 0
M  V30 4359 H 430.69 -3.30351 -2.39441 0
M  V30 4360 H 429.365 -3.91085 -1.4151 0
M  V30 4361 H 427.942 -2.58949 -2.68328 0
M  V30 4362 N 430.127 0.543554 -1.4793 0
M  V30 4363 C 431.375 1.29752 -1.54948 0
M  V30 4364 C 431.696 1.93764 -0.219242 0
M  V30 4365 O 430.966 1.80639 0.75805 0
M  V30 4366 H 429.546 0.481874 -0.570795 0
M  V30 4367 H 432.208 0.633636 -1.84312 0
M  V30 4368 H 431.304 2.08392 -2.32334 0
M  V30 4369 N 431.605 1.3629 0.791371 0
M  V30 4370 C 432.851 1.30605 1.55146 0
M  V30 4371 C 433.184 -0.115042 1.93859 0
M  V30 4372 O 432.459 -1.06798 1.62556 0
M  V30 4373 C 432.742 2.22692 2.82985 0
M  V30 4374 C 432.595 3.73489 2.50651 0
M  V30 4375 C 433.914 2.13588 3.84796 0
M  V30 4376 H 431.033 0.475761 0.562868 0
M  V30 4377 H 433.675 1.66825 0.909358 0
M  V30 4378 H 431.825 1.91933 3.37778 0
M  V30 4379 H 433.497 4.14758 2.01924 0
M  V30 4380 H 431.74 3.93021 1.83622 0
M  V30 4381 H 432.411 4.3333 3.41949 0
M  V30 4382 H 434.887 2.40659 3.39445 0
M  V30 4383 H 433.763 2.80195 4.71998 0
M  V30 4384 H 434.024 1.12256 4.27611 0
M  V30 4385 N 433.083 -1.0153 1.20538 0
M  V30 4386 C 434.311 -1.78746 1.04199 0
M  V30 4387 C 434.726 -1.84323 -0.408733 0
M  V30 4388 O 434.083 -1.29714 -1.28377 0
M  V30 4389 C 434.134 -3.23152 1.62035 0
M  V30 4390 O 433.855 -3.17918 3.0143 0
M  V30 4391 C 435.356 -4.16911 1.50666 0
M  V30 4392 H 432.576 -0.56208 0.366479 0
M  V30 4393 H 435.12 -1.27794 1.59653 0
M  V30 4394 H 433.275 -3.71248 1.10697 0
M  V30 4395 H 433.689 -4.08567 3.28897 0
M  V30 4396 H 435.163 -5.16072 1.95892 0
M  V30 4397 H 435.64 -4.36791 0.459363 0
M  V30 4398 H 436.246 -3.74698 2.01201 0
M  V30 4399 N 434.561 -1.01147 -1.20859 0
M  V30 4400 C 435.491 -0.597663 -2.25722 0
M  V30 4401 C 436.472 0.384744 -1.65692 0
M  V30 4402 O 437.657 0.271303 -1.92296 0
M  V30 4403 C 434.787 0.0700149 -3.47229 0
M  V30 4404 C 433.741 -0.832843 -4.19819 0
M  V30 4405 C 433.067 -0.0312202 -5.34691 0
M  V30 4406 C 434.367 -2.1385 -4.76514 0
M  V30 4407 H 436.061 -1.47423 -2.60589 0
M  V30 4408 H 433.607 -0.710301 -1.25263 0
M  V30 4409 H 435.56 0.37103 -4.19763 0
M  V30 4410 H 434.284 0.981259 -3.11511 0
M  V30 4411 H 432.943 -1.11778 -3.49144 0
M  V30 4412 H 432.591 0.881515 -4.95215 0
M  V30 4413 H 432.291 -0.632434 -5.84187 0
M  V30 4414 H 433.815 0.26346 -6.10031 0
M  V30 4415 H 435.229 -1.9002 -5.40893 0
M  V30 4416 H 433.626 -2.69012 -5.36426 0
M  V30 4417 H 434.696 -2.80495 -3.95538 0
M  V30 4418 N 436.039 1.36541 -0.78704 0
M  V30 4419 C 437.316 1.9355 -0.282424 0
M  V30 4420 C 437.696 1.71919 1.22503 0
M  V30 4421 O 437.044 1.07677 2.01539 0
M  V30 4422 C 437.254 3.4246 -0.672462 0
M  V30 4423 C 438.602 4.19582 -0.650863 0
M  V30 4424 O 439.626 3.50889 -0.612789 0
M  V30 4425 O 438.485 5.42106 -0.691623 0
M  V30 4426 H 435.579 0.824091 -0.0693 0
M  V30 4427 H 438.125 1.45736 -0.869423 0
M  V30 4428 H 436.897 3.51851 -1.71221 0
M  V30 4429 H 436.52 3.97556 -0.0592211 0
M  V30 4430 N 437.518 0.538854 1.48102 0
M  V30 4431 C 438.428 -0.222648 2.33541 0
M  V30 4432 C 439.444 -0.930225 1.47047 0
M  V30 4433 O 440.62 -0.903211 1.80011 0
M  V30 4434 C 437.685 -1.25064 3.23357 0
M  V30 4435 C 436.746 -0.552469 4.2573 0
M  V30 4436 C 435.979 -1.53149 5.11254 0
M  V30 4437 O 436.202 -2.76487 4.9891 0
M  V30 4438 O 435.136 -1.06602 5.92385 0
M  V30 4439 H 438.962 0.477707 2.99919 0
M  V30 4440 H 436.547 0.299669 1.46364 0
M  V30 4441 H 438.429 -1.8445 3.78888 0
M  V30 4442 H 437.104 -1.93325 2.59629 0
M  V30 4443 H 436.011 0.082114 3.7401 0
M  V30 4444 H 437.344 0.0883526 4.92121 0
M  V30 4445 N 438.996 -1.55193 0.274407 0
M  V30 4446 C 440.412 -1.59401 -0.0797543 0
M  V30 4447 C 440.612 -1.29162 -1.54659 0
M  V30 4448 O 439.668 -1.05215 -2.29534 0
M  V30 4449 C 440.981 -2.99257 0.294238 0
M  V30 4450 C 442.529 -3.12072 0.240796 0
M  V30 4451 C 443.004 -4.54194 0.589218 0
M  V30 4452 N 444.495 -4.60033 0.540744 0
M  V30 4453 C 445.23 -5.68027 0.783147 0
M  V30 4454 N 444.726 -6.8417 1.09013 0
M  V30 4455 N 446.519 -5.57572 0.711993 0
M  V30 4456 H 438.67 -1.73113 1.23067 0
M  V30 4457 H 440.933 -0.807197 0.497129 0
M  V30 4458 H 440.639 -3.26217 1.31435 0
M  V30 4459 H 440.513 -3.75427 -0.365281 0
M  V30 4460 H 442.9 -2.84877 -0.770024 0
M  V30 4461 H 442.981 -2.38117 0.934563 0
M  V30 4462 H 442.625 -4.82115 1.59772 0
M  V30 4463 H 442.555 -5.26448 -0.126331 0
M  V30 4464 H 445.046 -3.76599 0.313327 0
M  V30 4465 H 445.359 -7.6243 1.26178 0
M  V30 4466 H 443.704 -6.85787 1.12789 0
M  V30 4467 H 446.895 -4.65714 0.472014 0
M  V30 4468 H 447.068 -6.41659 0.90429 0
M  V30 4469 N 440.474 -0.00167713 -1.576 0
M  V30 4470 C 441.722 0.681471 -1.90264 0
M  V30 4471 C 442.043 1.7422 -0.875924 0
M  V30 4472 O 441.313 1.95709 0.0864412 0
M  V30 4473 H 439.893 0.254696 -0.702239 0
M  V30 4474 H 442.555 -0.0429996 -1.94853 0
M  V30 4475 H 441.651 1.15166 -2.90075 0
M  V30 4476 N 441.952 1.55251 0.271103 0
M  V30 4477 C 443.199 1.75946 1.00245 0
M  V30 4478 C 443.527 0.561611 1.86215 0
M  V30 4479 O 442.782 -0.455832 1.90317 0
M  V30 4480 C 443.081 3.01879 1.91321 0
M  V30 4481 C 442.747 4.34337 1.21086 0
M  V30 4482 C 441.409 4.70338 1.01666 0
M  V30 4483 C 443.761 5.16325 0.71119 0
M  V30 4484 C 441.089 5.8588 0.310099 0
M  V30 4485 C 443.441 6.32597 0.0182157 0
M  V30 4486 C 442.105 6.67236 -0.18768 0
M  V30 4487 H 441.375 0.643833 0.366824 0
M  V30 4488 H 444.022 1.89521 0.27458 0
M  V30 4489 H 442.327 2.83212 2.70736 0
M  V30 4490 H 444.024 3.15088 2.48033 0
M  V30 4491 H 440.614 4.06043 1.37213 0
M  V30 4492 H 444.798 4.88987 0.848844 0
M  V30 4493 H 440.054 6.1124 0.139873 0
M  V30 4494 H 444.228 6.9538 -0.376711 0
M  V30 4495 H 441.855 7.56618 -0.73715 0
M  V30 4496 N 443.43 -0.535701 1.48216 0
M  V30 4497 C 444.679 -1.28828 1.55197 0
M  V30 4498 C 444.992 -1.94263 0.228278 0
M  V30 4499 O 446.198 -2.70927 0.176278 0
M  V30 4500 C 444.654 -2.33727 2.73678 0
M  V30 4501 C 444.262 -1.74386 4.12666 0
M  V30 4502 C 446.006 -3.1003 2.89968 0
M  V30 4503 C 443.913 -2.77192 5.22416 0
M  V30 4504 H 442.843 -0.484484 0.577747 0
M  V30 4505 H 445.494 -0.56646 1.74538 0
M  V30 4506 H 443.876 -3.08919 2.4776 0
M  V30 4507 H 445.05 -1.05421 4.48579 0
M  V30 4508 H 443.365 -1.10595 4.01445 0
M  V30 4509 H 445.962 -3.86842 3.6913 0
M  V30 4510 H 446.305 -3.65542 1.9921 0
M  V30 4511 H 446.838 -2.41952 3.15759 0
M  V30 4512 H 443.577 -2.26507 6.15122 0
M  V30 4513 H 443.097 -3.44502 4.90998 0
M  V30 4514 H 444.776 -3.40285 5.50286 0
M  V30 4515 N 444.908 -1.36708 -0.784132 0
M  V30 4516 C 446.138 -1.34203 -1.57077 0
M  V30 4517 C 446.546 0.0774945 -1.89041 0
M  V30 4518 O 445.889 1.04628 -1.50992 0
M  V30 4519 C 445.951 -2.10351 -2.91535 0
M  V30 4520 C 445.615 -3.59405 -2.82272 0
M  V30 4521 C 446.612 -4.53545 -2.54151 0
M  V30 4522 C 444.297 -4.02362 -3.00683 0
M  V30 4523 C 446.291 -5.8862 -2.44551 0
M  V30 4524 C 443.978 -5.37526 -2.90704 0
M  V30 4525 C 444.976 -6.30468 -2.62677 0
M  V30 4526 O 444.664 -7.63149 -2.52702 0
M  V30 4527 H 444.396 -0.461791 -0.493685 0
M  V30 4528 H 446.95 -1.80475 -0.980712 0
M  V30 4529 H 445.18 -1.5875 -3.52612 0
M  V30 4530 H 446.869 -2.00636 -3.52845 0
M  V30 4531 H 447.635 -4.21669 -2.39625 0
M  V30 4532 H 443.514 -3.30389 -3.21503 0
M  V30 4533 H 447.058 -6.61133 -2.22596 0
M  V30 4534 H 442.955 -5.69008 -3.04795 0
M  V30 4535 H 443.723 -7.73331 -2.68144 0
M  V30 4536 N 446.386 1.0089 -1.21074 0
M  V30 4537 C 447.632 1.74866 -1.02712 0
M  V30 4538 C 447.965 1.89178 0.438787 0
M  V30 4539 O 447.24 1.42325 1.32567 0
M  V30 4540 C 447.523 3.16347 -1.72036 0
M  V30 4541 C 447.376 3.09782 -3.26121 0
M  V30 4542 C 448.695 4.15187 -1.45973 0
M  V30 4543 H 445.814 0.634736 -0.374539 0
M  V30 4544 H 448.456 1.17646 -1.49196 0
M  V30 4545 H 446.606 3.65201 -1.32517 0
M  V30 4546 H 448.278 2.68673 -3.74983 0
M  V30 4547 H 446.521 2.46982 -3.56626 0
M  V30 4548 H 447.192 4.09829 -3.6979 0
M  V30 4549 H 449.668 3.75022 -1.80272 0
M  V30 4550 H 448.544 5.12331 -1.96999 0
M  V30 4551 H 448.805 4.40386 -0.388924 0
M  V30 4552 N 447.864 1.01787 1.20321 0
M  V30 4553 C 449.141 0.622978 1.85414 0
M  V30 4554 C 449.521 -0.898887 1.91006 0
M  V30 4555 O 448.869 -1.79112 1.41884 0
M  V30 4556 C 449.079 1.27226 3.24984 0
M  V30 4557 C 450.427 1.3885 4.01255 0
M  V30 4558 O 451.451 1.22857 3.34342 0
M  V30 4559 O 450.31 1.64705 5.2109 0
M  V30 4560 H 447.404 0.215116 0.798533 0
M  V30 4561 H 449.95 1.11533 1.27901 0
M  V30 4562 H 448.722 2.31209 3.15687 0
M  V30 4563 H 448.345 0.767069 3.90131 0
M  V30 4564 N 449.342 -1.36122 0.79427 0
M  V30 4565 C 450.619 -1.93398 0.292685 0
M  V30 4566 C 450.999 -1.72567 -1.21589 0
M  V30 4567 O 450.347 -1.08745 -2.00965 0
M  V30 4568 C 450.557 -3.42099 0.690614 0
M  V30 4569 C 451.905 -4.19231 0.673105 0
M  V30 4570 O 452.929 -3.50559 0.631389 0
M  V30 4571 O 451.788 -5.41732 0.720362 0
M  V30 4572 H 448.882 -0.823712 0.0736693 0
M  V30 4573 H 451.428 -1.45273 0.87714 0
M  V30 4574 H 450.2 -3.50938 1.73085 0
M  V30 4575 H 449.823 -3.97519 0.0803036 0
M  V30 4576 N 450.82 -0.546701 -1.47814 0
M  V30 4577 C 452.05 -0.0232519 -2.06587 0
M  V30 4578 C 452.458 1.2712 -1.40133 0
M  V30 4579 O 451.801 1.77091 -0.488305 0
M  V30 4580 C 451.863 0.254117 -3.58601 0
M  V30 4581 C 451.527 -0.949331 -4.47031 0
M  V30 4582 C 452.524 -1.85216 -4.85789 0
M  V30 4583 C 450.209 -1.16104 -4.88697 0
M  V30 4584 C 452.203 -2.95047 -5.65001 0
M  V30 4585 C 449.89 -2.26247 -5.67676 0
M  V30 4586 C 450.888 -3.1555 -6.05737 0
M  V30 4587 O 450.576 -4.23784 -6.83127 0
M  V30 4588 H 450.308 -0.0380082 -0.674931 0
M  V30 4589 H 452.862 -0.756631 -1.90956 0
M  V30 4590 H 451.092 1.04168 -3.72406 0
M  V30 4591 H 452.781 0.72167 -3.99433 0
M  V30 4592 H 453.547 -1.70061 -4.54207 0
M  V30 4593 H 449.426 -0.475159 -4.58545 0
M  V30 4594 H 452.97 -3.64778 -5.94628 0
M  V30 4595 H 448.867 -2.41379 -5.98671 0
M  V30 4596 H 449.635 -4.21701 -7.01506 0
M  V30 4597 N 452.299 1.55045 -0.282633 0
M  V30 4598 C 453.539 2.01668 0.333088 0
M  V30 4599 C 453.903 1.1667 1.52486 0
M  V30 4600 O 455.104 1.52907 2.21072 0
M  V30 4601 C 453.375 3.50509 0.698442 0
M  V30 4602 S 454.934 4.19112 1.29963 0
M  V30 4603 H 451.752 0.703468 0.103219 0
M  V30 4604 H 454.354 1.91233 -0.406222 0
M  V30 4605 H 453.058 4.10015 -0.177693 0
M  V30 4606 H 452.589 3.64943 1.46902 0
M  V30 4607 H 454.604 4.23362 2.58803 0
M  V30 4608 N 453.777 0.010035 1.57597 0
M  V30 4609 C 454.74 -0.963029 2.07986 0
M  V30 4610 C 455.74 -1.26619 0.991173 0
M  V30 4611 O 456.93 -1.2097 1.25347 0
M  V30 4612 C 454.062 -2.2851 2.52974 0
M  V30 4613 H 455.255 -0.526971 2.95234 0
M  V30 4614 H 452.808 -0.237639 1.54483 0
M  V30 4615 H 453.543 -2.76784 1.69 0
M  V30 4616 H 453.328 -2.07824 3.32493 0
M  V30 4617 H 454.818 -2.98294 2.9225 0
M  V30 4618 N 455.255 -1.55392 -0.262866 0
M  V30 4619 C 456.483 -1.80513 -1.01108 0
M  V30 4620 C 456.898 -0.583533 -1.79556 0
M  V30 4621 O 456.255 0.447585 -1.76926 0
M  V30 4622 C 456.306 -3.03648 -1.96164 0
M  V30 4623 O 456.027 -4.2109 -1.20893 0
M  V30 4624 C 457.528 -3.41448 -2.82715 0
M  V30 4625 H 454.748 -0.601079 -0.298236 0
M  V30 4626 H 457.292 -2.02425 -0.290582 0
M  V30 4627 H 455.447 -2.83832 -2.63663 0
M  V30 4628 H 455.861 -4.90771 -1.85051 0
M  V30 4629 H 457.335 -4.30751 -3.45192 0
M  V30 4630 H 457.812 -2.61308 -3.53008 0
M  V30 4631 H 458.418 -3.63559 -2.20693 0
M  V30 4632 N 456.733 0.527833 -1.48498 0
M  V30 4633 C 457.958 1.313 -1.60546 0
M  V30 4634 C 458.383 1.86199 -0.26672 0
M  V30 4635 O 457.741 1.64513 0.761918 0
M  V30 4636 C 457.789 2.43818 -2.65678 0
M  V30 4637 O 456.893 3.46916 -2.22987 0
M  V30 4638 H 456.234 0.388784 -0.538277 0
M  V30 4639 H 458.764 0.634896 -1.945 0
M  V30 4640 H 458.774 2.89973 -2.87018 0
M  V30 4641 H 457.449 2.03222 -3.62869 0
M  V30 4642 H 456.026 3.06864 -2.11869 0
M  V30 4643 N 458.211 1.37122 0.776871 0
M  V30 4644 C 459.457 1.32243 1.53752 0
M  V30 4645 C 459.79 -0.0944745 1.9397 0
M  V30 4646 O 459.065 -1.05068 1.6368 0
M  V30 4647 C 459.348 2.25681 2.80607 0
M  V30 4648 C 459.201 3.76127 2.46676 0
M  V30 4649 C 460.52 2.17657 3.82509 0
M  V30 4650 H 457.639 0.481704 0.557791 0
M  V30 4651 H 460.281 1.6778 0.891612 0
M  V30 4652 H 458.431 1.95505 3.35723 0
M  V30 4653 H 460.103 4.16877 1.97513 0
M  V30 4654 H 458.346 3.94946 1.79443 0
M  V30 4655 H 459.017 4.36933 3.37333 0
M  V30 4656 H 461.493 2.44245 3.36873 0
M  V30 4657 H 460.369 2.85185 4.69 0
M  V30 4658 H 460.63 1.16785 4.26396 0
M  V30 4659 N 459.689 -1.00246 1.21608 0
M  V30 4660 C 461.1 -1.55511 1.03312 0
M  V30 4661 C 461.451 -1.91946 -0.406332 0
M  V30 4662 O 460.576 -1.73753 -1.28992 0
M  V30 4663 C 461.171 -2.82576 1.86913 0
M  V30 4664 C 459.73 -3.34318 1.72941 0
M  V30 4665 C 458.877 -2.07487 1.83968 0
M  V30 4666 H 461.828 -0.824638 1.35593 0
M  V30 4667 H 461.849 -3.54559 1.38087 0
M  V30 4668 H 461.361 -2.56026 2.91672 0
M  V30 4669 H 459.462 -3.65797 0.70877 0
M  V30 4670 H 459.575 -4.05566 2.55055 0
M  V30 4671 H 457.939 -2.20603 1.27304 0
M  V30 4672 H 458.722 -1.83346 2.9024 0
M  V30 4673 N 461.167 -1.02423 -1.1978 0
M  V30 4674 C 462.415 -0.716569 -1.8897 0
M  V30 4675 C 462.736 0.756769 -1.79716 0
M  V30 4676 O 462.006 1.5449 -1.20456 0
M  V30 4677 H 460.586 -0.262062 -0.699523 0
M  V30 4678 H 463.248 -1.29747 -1.45436 0
M  V30 4679 H 462.344 -1.00675 -2.95417 0
M  V30 4680 N 462.645 1.35699 -0.801477 0
M  V30 4681 C 463.891 1.99208 -0.380022 0
M  V30 4682 C 464.224 1.63445 1.04878 0
M  V30 4683 O 463.499 0.895223 1.72673 0
M  V30 4684 C 463.782 3.55755 -0.557708 0
M  V30 4685 C 463.635 4.01332 -2.03107 0
M  V30 4686 C 464.954 4.40096 0.0197968 0
M  V30 4687 H 462.073 0.723667 -0.139552 0
M  V30 4688 H 464.715 1.60928 -1.01006 0
M  V30 4689 H 462.865 3.88494 -0.0213741 0
M  V30 4690 H 464.537 3.79026 -2.62939 0
M  V30 4691 H 462.78 3.52429 -2.52936 0
M  V30 4692 H 463.451 5.10234 -2.1063 0
M  V30 4693 H 465.927 4.13786 -0.438179 0
M  V30 4694 H 464.803 5.48735 -0.134477 0
M  V30 4695 H 465.064 4.2786 1.11303 0
M  V30 4696 N 464.123 0.554532 1.47522 0
M  V30 4697 C 465.353 0.0342074 2.06572 0
M  V30 4698 C 465.761 -1.26375 1.40805 0
M  V30 4699 O 465.104 -1.7683 0.49769 0
M  V30 4700 C 465.166 -0.235096 3.5873 0
M  V30 4701 C 464.83 0.973024 4.46521 0
M  V30 4702 C 465.827 1.8779 4.848 0
M  V30 4703 C 463.512 1.18694 4.88075 0
M  V30 4704 C 465.506 2.98039 5.63428 0
M  V30 4705 C 463.193 2.29254 5.66468 0
M  V30 4706 C 464.191 3.18757 6.04055 0
M  V30 4707 O 463.879 4.27401 6.8087 0
M  V30 4708 H 463.611 0.041587 0.67472 0
M  V30 4709 H 466.165 0.766748 1.90552 0
M  V30 4710 H 464.395 -1.02191 3.72953 0
M  V30 4711 H 466.084 -0.700477 3.9981 0
M  V30 4712 H 466.85 1.72467 4.53299 0
M  V30 4713 H 462.729 0.49947 4.58286 0
M  V30 4714 H 466.273 3.67926 5.92685 0
M  V30 4715 H 462.17 2.4455 5.97382 0
M  V30 4716 H 462.938 4.25415 6.9926 0
M  V30 4717 N 465.601 -1.54893 0.290851 0
M  V30 4718 C 466.564 -2.21824 -0.576784 0
M  V30 4719 C 467.564 -1.20104 -1.06919 0
M  V30 4720 O 468.754 -1.44906 -0.966843 0
M  V30 4721 C 465.886 -2.89662 -1.79747 0
M  V30 4722 H 467.079 -2.99899 0.00784051 0
M  V30 4723 H 464.632 -1.56245 0.0415934 0
M  V30 4724 H 465.367 -2.15639 -2.42219 0
M  V30 4725 H 465.152 -3.64219 -1.45214 0
M  V30 4726 H 466.642 -3.4075 -2.4141 0
M  V30 4727 N 467.08 -0.0183926 -1.57589 0
M  V30 4728 C 468.329 0.66185 -1.90532 0
M  V30 4729 C 468.642 1.73904 -0.895366 0
M  V30 4730 O 469.848 2.47518 -1.11566 0
M  V30 4731 C 468.304 1.22844 -3.38286 0
M  V30 4732 C 467.912 0.185103 -4.47617 0
M  V30 4733 C 469.656 1.88581 -3.80312 0
M  V30 4734 C 467.563 0.762723 -5.86461 0
M  V30 4735 H 466.493 0.250972 -0.711006 0
M  V30 4736 H 469.144 -0.0819435 -1.83317 0
M  V30 4737 H 467.526 2.0235 -3.40398 0
M  V30 4738 H 468.7 -0.58671 -4.5705 0
M  V30 4739 H 467.015 -0.372889 -4.14727 0
M  V30 4740 H 469.612 2.32735 -4.81392 0
M  V30 4741 H 469.955 2.72408 -3.14801 0
M  V30 4742 H 470.488 1.15782 -3.80578 0
M  V30 4743 H 467.227 -0.0371713 -6.55489 0
M  V30 4744 H 466.747 1.50327 -5.80656 0
M  V30 4745 H 468.426 1.25576 -6.34697 0
M  V30 4746 N 468.558 1.5553 0.254621 0
M  V30 4747 C 469.806 1.7665 0.981793 0
M  V30 4748 C 470.127 0.580963 1.86145 0
M  V30 4749 O 469.397 -0.403537 1.91699 0
M  V30 4750 H 467.977 0.651475 0.365498 0
M  V30 4751 H 470.639 1.92958 0.274426 0
M  V30 4752 H 469.735 2.67486 1.60802 0
M  V30 4753 N 470.036 -0.519951 1.48776 0
M  V30 4754 C 471.313 -1.28123 1.47797 0
M  V30 4755 C 471.693 -2.10196 0.195157 0
M  V30 4756 O 471.041 -2.13167 -0.822925 0
M  V30 4757 C 471.251 -2.15413 2.74587 0
M  V30 4758 C 472.599 -2.75225 3.23321 0
M  V30 4759 O 473.623 -2.25694 2.75574 0
M  V30 4760 O 472.482 -3.65346 4.06429 0
M  V30 4761 H 469.576 -0.578793 0.590701 0
M  V30 4762 H 472.122 -0.535779 1.6102 0
M  V30 4763 H 470.894 -1.54617 3.59457 0
M  V30 4764 H 470.517 -2.97186 2.64132 0
M  V30 4765 N 471.514 -1.37532 -0.769588 0
M  V30 4766 C 472.76 -1.33057 -1.53048 0
M  V30 4767 C 473.093 0.0841865 -1.94017 0
M  V30 4768 O 472.368 1.04198 -1.64235 0
M  V30 4769 C 472.651 -2.27166 -2.79406 0
M  V30 4770 C 472.504 -3.77429 -2.44677 0
M  V30 4771 C 473.823 -2.19683 -3.81349 0
M  V30 4772 H 470.942 -0.484655 -0.555228 0
M  V30 4773 H 473.584 -1.68251 -0.882702 0
M  V30 4774 H 471.734 -1.97283 -3.34682 0
M  V30 4775 H 473.406 -4.17918 -1.953 0
M  V30 4776 H 471.649 -3.95892 -1.77346 0
M  V30 4777 H 472.32 -4.38716 -3.35011 0
M  V30 4778 H 474.796 -2.46029 -3.35573 0
M  V30 4779 H 473.672 -2.87668 -4.67481 0
M  V30 4780 H 473.933 -1.19045 -4.25771 0
M  V30 4781 N 472.992 0.995999 -1.22138 0
M  V30 4782 C 474.238 1.73767 -1.04561 0
M  V30 4783 C 474.571 1.89633 0.418698 0
M  V30 4784 O 473.846 1.43723 1.3105 0
M  V30 4785 C 474.129 3.14505 -1.75382 0
M  V30 4786 C 473.982 3.06306 -3.29388 0
M  V30 4787 C 475.301 4.13615 -1.50369 0
M  V30 4788 H 472.42 0.630728 -0.38125 0
M  V30 4789 H 475.062 1.16057 -1.50435 0
M  V30 4790 H 473.212 3.63775 -1.36383 0
M  V30 4791 H 474.884 2.64681 -3.77812 0
M  V30 4792 H 473.127 2.43186 -3.59226 0
M  V30 4793 H 473.798 4.05884 -3.74116 0
M  V30 4794 H 476.274 3.73089 -1.84239 0
M  V30 4795 H 475.15 5.10212 -2.02421 0
M  V30 4796 H 475.411 4.39949 -0.435611 0
M  V30 4797 N 474.47 1.03057 1.19235 0
M  V30 4798 C 475.886 0.747947 1.40989 0
M  V30 4799 C 476.086 -0.666752 1.90149 0
M  V30 4800 O 475.142 -1.43249 2.07933 0
M  V30 4801 C 476.455 1.7855 2.41951 0
M  V30 4802 C 478.003 1.80524 2.55695 0
M  V30 4803 C 478.478 2.83243 3.59913 0
M  V30 4804 N 479.969 2.8207 3.67411 0
M  V30 4805 C 480.704 3.58204 4.47747 0
M  V30 4806 N 480.2 4.44057 5.31775 0
M  V30 4807 N 481.993 3.46738 4.42413 0
M  V30 4808 H 474.144 1.94367 0.856468 0
M  V30 4809 H 476.407 0.840412 0.438647 0
M  V30 4810 H 476.113 2.79973 2.12857 0
M  V30 4811 H 475.987 1.6092 3.41152 0
M  V30 4812 H 478.374 0.79778 2.84112 0
M  V30 4813 H 478.455 2.02229 1.56643 0
M  V30 4814 H 478.099 3.84161 3.32239 0
M  V30 4815 H 478.029 2.58795 4.5862 0
M  V30 4816 H 480.52 2.19803 3.074 0
M  V30 4817 H 480.833 4.98884 5.90199 0
M  V30 4818 H 479.178 4.48129 5.3123 0
M  V30 4819 H 482.369 2.79077 3.75811 0
M  V30 4820 H 482.542 4.06322 5.04783 0
M  V30 4821 N 475.948 -1.35272 0.808662 0
M  V30 4822 C 477.196 -1.98316 0.389233 0
M  V30 4823 C 477.517 -1.64465 -1.04767 0
M  V30 4824 O 476.787 -0.928175 -1.72516 0
M  V30 4825 H 475.367 -0.733585 0.140935 0
M  V30 4826 H 478.029 -1.6515 1.03496 0
M  V30 4827 H 477.125 -3.08123 0.496631 0
M  V30 4828 N 477.426 -0.562348 -1.47226 0
M  V30 4829 C 478.389 0.172056 -2.28553 0
M  V30 4830 C 479.389 0.837928 -1.37242 0
M  V30 4831 O 480.579 0.693001 -1.59822 0
M  V30 4832 C 477.711 1.25223 -3.17068 0
M  V30 4833 H 478.904 -0.542401 -2.94954 0
M  V30 4834 H 476.457 -0.319493 -1.53 0
M  V30 4835 H 477.192 1.99892 -2.55369 0
M  V30 4836 H 476.977 0.779515 -3.84273 0
M  V30 4837 H 478.467 1.76791 -3.78332 0
M  V30 4838 N 478.904 1.54736 -0.299062 0
M  V30 4839 C 479.837 2.1962 0.619851 0
M  V30 4840 C 480.815 1.16496 1.13434 0
M  V30 4841 O 481.999 1.4513 1.2029 0
M  V30 4842 C 479.126 2.8385 1.84788 0
M  V30 4843 C 478.172 4.00484 1.46679 0
M  V30 4844 S 479.005 5.32926 0.524389 0
M  V30 4845 C 480.161 6.00638 1.76026 0
M  V30 4846 H 480.394 2.97221 0.0686177 0
M  V30 4847 H 477.927 1.54176 -0.0832085 0
M  V30 4848 H 479.885 3.21483 2.55263 0
M  V30 4849 H 478.546 2.06099 2.37028 0
M  V30 4850 H 477.739 4.44201 2.38121 0
M  V30 4851 H 477.341 3.64398 0.842008 0
M  V30 4852 H 479.633 6.21327 2.70109 0
M  V30 4853 H 480.576 6.94805 1.36569 0
M  V30 4854 H 480.984 5.3026 1.93609 0
M  V30 4855 N 480.382 0.0267497 1.57577 0
M  V30 4856 C 481.312 -0.954308 2.13108 0
M  V30 4857 C 482.293 -1.34088 1.04663 0
M  V30 4858 O 483.478 -1.41992 1.32484 0
M  V30 4859 C 480.608 -2.23744 2.65624 0
M  V30 4860 C 479.562 -1.99168 3.78835 0
M  V30 4861 C 478.888 -3.33726 4.17769 0
M  V30 4862 C 480.188 -1.33277 5.0501 0
M  V30 4863 H 481.882 -0.491848 2.95332 0
M  V30 4864 H 479.428 -0.23514 1.42067 0
M  V30 4865 H 481.381 -2.92754 3.03106 0
M  V30 4866 H 480.105 -2.72151 1.80558 0
M  V30 4867 H 478.764 -1.32577 3.41788 0
M  V30 4868 H 478.412 -3.79888 3.29688 0
M  V30 4869 H 478.112 -3.18089 4.94058 0
M  V30 4870 H 479.636 -4.04008 4.57832 0
M  V30 4871 H 481.05 -1.92283 5.40093 0
M  V30 4872 H 479.447 -1.28045 5.8628 0
M  V30 4873 H 480.517 -0.305411 4.83937 0
M  V30 4874 N 481.861 -1.55662 -0.24637 0
M  V30 4875 C 482.824 -1.89558 -1.28842 0
M  V30 4876 C 483.824 -0.772082 -1.41052 0
M  V30 4877 O 485.014 -1.04007 -1.39743 0
M  V30 4878 C 482.146 -2.12449 -2.66605 0
M  V30 4879 H 483.339 -2.82735 -1.00004 0
M  V30 4880 H 480.892 -1.48562 -0.485684 0
M  V30 4881 H 481.627 -1.21742 -3.00582 0
M  V30 4882 H 481.412 -2.94273 -2.59125 0
M  V30 4883 H 482.902 -2.39854 -3.41847 0
M  V30 4884 N 483.339 0.512053 -1.4905 0
M  V30 4885 C 484.289 1.61142 -1.61298 0
M  V30 4886 C 485.273 1.53908 -0.46916 0
M  V30 4887 O 486.465 1.61625 -0.721547 0
M  V30 4888 C 483.594 2.998 -1.67256 0
M  V30 4889 C 482.68 3.12072 -2.87179 0
M  V30 4890 N 483.071 2.94263 -4.11391 0
M  V30 4891 C 481.369 3.43156 -2.84886 0
M  V30 4892 C 482.07 3.10426 -4.91946 0
M  V30 4893 N 481.046 3.38808 -4.251 0
M  V30 4894 H 484.848 1.46011 -2.55065 0
M  V30 4895 H 482.362 0.717934 -1.45669 0
M  V30 4896 H 484.359 3.78794 -1.74128 0
M  V30 4897 H 483.019 3.1601 -0.746195 0
M  V30 4898 H 484.03 2.70661 -4.41546 0
M  V30 4899 H 480.707 3.65611 -2.01581 0
M  V30 4900 H 482.097 3.01243 -6.00585 0
M  V30 4901 N 484.817 1.37938 0.762283 0
M  V30 4902 C 485.764 1.34467 1.87583 0
M  V30 4903 C 486.734 0.208633 1.64785 0
M  V30 4904 O 487.919 0.399494 1.86571 0
M  V30 4905 C 485.059 1.16692 3.24772 0
M  V30 4906 C 484.172 2.39608 3.59461 0
M  V30 4907 C 483.307 2.14631 4.85908 0
M  V30 4908 C 482.346 3.33364 5.13357 0
M  V30 4909 N 481.483 3.07877 6.30996 0
M  V30 4910 H 486.323 2.29669 1.89885 0
M  V30 4911 H 483.86 1.14116 0.928219 0
M  V30 4912 H 485.818 1.04405 4.03925 0
M  V30 4913 H 484.448 0.251333 3.2182 0
M  V30 4914 H 483.5 2.626 2.75219 0
M  V30 4915 H 484.812 3.28128 3.75678 0
M  V30 4916 H 483.966 1.99429 5.72986 0
M  V30 4917 H 482.705 1.23463 4.71814 0
M  V30 4918 H 481.71 3.49094 4.24751 0
M  V30 4919 H 482.935 4.25395 5.29354 0
M  V30 4920 H 480.881 2.19348 6.18241 0
M  V30 4921 H 480.798 3.89944 6.47673 0
M  V30 4922 H 482.066 2.96313 7.20985 0
M  V30 4923 N 486.295 -0.989507 1.22664 0
M  V30 4924 C 487.258 -2.06183 1.00106 0
M  V30 4925 C 488.258 -1.60765 -0.0337726 0
M  V30 4926 O 489.448 -1.72989 0.205072 0
M  V30 4927 C 486.58 -3.37021 0.51279 0
M  V30 4928 H 487.773 -2.27629 1.95256 0
M  V30 4929 H 485.326 -1.16158 1.0458 0
M  V30 4930 H 486.061 -3.21261 -0.442917 0
M  V30 4931 H 485.846 -3.71323 1.25942 0
M  V30 4932 H 487.336 -4.1591 0.375315 0
M  V30 4933 N 487.773 -1.03688 -1.18687 0
M  V30 4934 C 488.998 -0.757819 -1.93059 0
M  V30 4935 C 489.423 0.678353 -1.75442 0
M  V30 4936 O 488.781 1.46938 -1.06203 0
M  V30 4937 C 488.829 -1.12423 -3.42627 0
M  V30 4938 O 487.933 -0.247505 -4.11657 0
M  V30 4939 H 487.274 -0.279245 -0.602427 0
M  V30 4940 H 489.804 -1.3857 -1.5053 0
M  V30 4941 H 489.814 -1.08454 -3.93322 0
M  V30 4942 H 488.489 -2.17049 -3.54771 0
M  V30 4943 H 487.066 -0.34649 -3.71287 0
M  V30 4944 N 489.251 1.34841 -0.815825 0
M  V30 4945 C 490.161 2.33425 -0.234462 0
M  V30 4946 C 491.177 1.62295 0.627413 0
M  V30 4947 O 492.353 1.94109 0.536987 0
M  V30 4948 C 489.418 3.41471 0.599849 0
M  V30 4949 C 488.479 4.28362 -0.283596 0
M  V30 4950 C 487.712 5.31248 0.51099 0
M  V30 4951 O 487.935 5.43056 1.7449 0
M  V30 4952 O 486.869 6.01812 -0.10297 0
M  V30 4953 H 490.695 2.84962 -1.05024 0
M  V30 4954 H 488.28 1.37774 -0.577809 0
M  V30 4955 H 490.162 4.07464 1.07475 0
M  V30 4956 H 488.837 2.9219 1.39308 0
M  V30 4957 H 487.744 3.65318 -0.805836 0
M  V30 4958 H 489.077 4.81066 -1.041 0
M  V30 4959 N 490.729 0.570148 1.46925 0
M  V30 4960 C 491.639 -0.173061 2.33961 0
M  V30 4961 C 492.655 -0.898825 1.48987 0
M  V30 4962 O 493.831 -0.864825 1.81887 0
M  V30 4963 C 490.896 -1.18177 3.25937 0
M  V30 4964 C 489.957 -0.462041 4.26806 0
M  V30 4965 C 489.19 -1.4227 5.14388 0
M  V30 4966 O 489.413 -2.65842 5.04662 0
M  V30 4967 O 488.347 -0.940127 5.94513 0
M  V30 4968 H 492.173 0.541216 2.98839 0
M  V30 4969 H 489.758 0.330647 1.45695 0
M  V30 4970 H 491.64 -1.76372 3.82715 0
M  V30 4971 H 490.315 -1.87774 2.63671 0
M  V30 4972 H 489.222 0.161429 3.73752 0
M  V30 4973 H 490.555 0.192719 4.91823 0
M  V30 4974 N 492.207 -1.54576 0.307264 0
M  V30 4975 C 493.455 -1.99867 -0.299574 0
M  V30 4976 C 493.776 -1.19714 -1.53927 0
M  V30 4977 O 493.046 -0.29472 -1.9367 0
M  V30 4978 H 491.626 -0.738299 -0.113683 0
M  V30 4979 H 494.288 -1.9032 0.420042 0
M  V30 4980 H 493.384 -3.06901 -0.567283 0
M  V30 4981 N 493.685 -0.035106 -1.57561 0
M  V30 4982 C 494.931 0.64318 -1.92331 0
M  V30 4983 C 495.264 1.71434 -0.912368 0
M  V30 4984 O 494.539 1.94395 0.0640303 0
M  V30 4985 C 494.822 1.25411 -3.37556 0
M  V30 4986 C 494.675 0.192109 -4.4939 0
M  V30 4987 C 495.994 2.17041 -3.82859 0
M  V30 4988 H 493.113 0.232341 -0.699419 0
M  V30 4989 H 495.755 -0.0935889 -1.89769 0
M  V30 4990 H 493.905 1.88205 -3.39869 0
M  V30 4991 H 495.577 -0.438849 -4.59208 0
M  V30 4992 H 493.82 -0.481725 -4.31117 0
M  V30 4993 H 494.491 0.659292 -5.48049 0
M  V30 4994 H 496.967 1.64228 -3.8232 0
M  V30 4995 H 495.843 2.56738 -4.85157 0
M  V30 4996 H 496.104 3.06401 -3.18702 0
M  V30 4997 N 495.163 1.55791 0.238111 0
M  V30 4998 C 496.409 1.78297 0.966337 0
M  V30 4999 C 496.742 0.601903 1.84637 0
M  V30 5000 O 496.017 -0.399499 1.90353 0
M  V30 5001 C 496.3 3.10758 1.81939 0
M  V30 5002 C 496.153 4.39283 0.966958 0
M  V30 5003 C 497.472 3.39519 2.80027 0
M  V30 5004 H 494.591 0.648654 0.349882 0
M  V30 5005 H 497.233 1.88525 0.236253 0
M  V30 5006 H 495.383 3.02168 2.44185 0
M  V30 5007 H 497.055 4.59873 0.362514 0
M  V30 5008 H 495.298 4.32948 0.271669 0
M  V30 5009 H 495.969 5.28368 1.59784 0
M  V30 5010 H 498.445 3.48128 2.27917 0
M  V30 5011 H 497.321 4.33402 3.36829 0
M  V30 5012 H 497.582 2.60864 3.56934 0
M  V30 5013 N 496.642 -0.504142 1.49319 0
M  V30 5014 C 497.888 -1.26033 1.58882 0
M  V30 5015 C 498.221 -1.92268 0.273274 0
M  V30 5016 O 497.496 -1.80567 -0.72291 0
M  V30 5017 C 497.779 -2.32976 2.7458 0
M  V30 5018 C 497.632 -1.71263 4.1592 0
M  V30 5019 C 498.951 -3.34561 2.85932 0
M  V30 5020 H 496.07 -0.456863 0.578312 0
M  V30 5021 H 498.712 -0.558965 1.81592 0
M  V30 5022 H 496.862 -2.92796 2.55348 0
M  V30 5023 H 498.534 -1.15294 4.4666 0
M  V30 5024 H 496.777 -1.01686 4.21714 0
M  V30 5025 H 497.448 -2.48816 4.92742 0
M  V30 5026 H 499.924 -2.84727 3.0343 0
M  V30 5027 H 498.8 -4.06754 3.68568 0
M  V30 5028 H 499.061 -3.96695 1.95154 0
M  V30 5029 N 498.12 -1.38341 -0.754957 0
M  V30 5030 C 499.083 -1.35262 -1.85032 0
M  V30 5031 C 500.083 -0.253393 -1.58791 0
M  V30 5032 O 501.273 -0.510205 -1.66561 0
M  V30 5033 C 498.405 -1.10544 -3.22479 0
M  V30 5034 H 499.598 -2.32712 -1.8917 0
M  V30 5035 H 497.151 -1.23614 -0.956515 0
M  V30 5036 H 497.886 -0.136952 -3.24011 0
M  V30 5037 H 497.671 -1.90127 -3.4292 0
M  V30 5038 H 499.161 -1.11082 -4.02555 0
M  V30 5039 N 499.598 0.982988 -1.23187 0
M  V30 5040 C 500.508 2.10907 -1.02739 0
M  V30 5041 C 501.524 1.73979 0.0273188 0
M  V30 5042 O 502.7 2.00702 -0.16757 0
M  V30 5043 C 499.765 3.41142 -0.618304 0
M  V30 5044 C 498.826 3.92112 -1.74777 0
M  V30 5045 C 498.059 5.16131 -1.3581 0
M  V30 5046 O 498.282 5.6989 -0.241201 0
M  V30 5047 O 497.216 5.61103 -2.17824 0
M  V30 5048 H 501.042 2.31046 -1.97108 0
M  V30 5049 H 498.627 1.09284 -1.01869 0
M  V30 5050 H 500.509 4.19488 -0.400982 0
M  V30 5051 H 499.184 3.2234 0.296421 0
M  V30 5052 H 498.091 3.14895 -2.0197 0
M  V30 5053 H 499.424 4.15364 -2.64071 0
M  V30 5054 N 501.076 1.04316 1.18135 0
M  V30 5055 C 502.492 0.762858 1.40188 0
M  V30 5056 C 502.692 -0.646547 1.90846 0
M  V30 5057 O 501.748 -1.41036 2.0944 0
M  V30 5058 C 503.061 1.81106 2.40044 0
M  V30 5059 C 504.609 1.83226 2.53766 0
M  V30 5060 C 505.084 2.87044 3.56889 0
M  V30 5061 N 506.575 2.85951 3.64398 0
M  V30 5062 C 507.31 3.62932 4.43923 0
M  V30 5063 N 506.806 4.49672 5.27036 0
M  V30 5064 N 508.599 3.51411 4.38711 0
M  V30 5065 H 500.75 1.95264 0.835805 0
M  V30 5066 H 503.013 0.845017 0.429709 0
M  V30 5067 H 502.719 2.82214 2.09876 0
M  V30 5068 H 502.593 1.64529 3.39426 0
M  V30 5069 H 504.98 0.827869 2.8325 0
M  V30 5070 H 505.061 2.03879 1.54489 0
M  V30 5071 H 504.705 3.87663 3.28145 0
M  V30 5072 H 504.635 2.63645 4.5585 0
M  V30 5073 H 507.126 2.23051 3.05052 0
M  V30 5074 H 507.439 5.05116 5.84874 0
M  V30 5075 H 505.784 4.53738 5.26447 0
M  V30 5076 H 508.975 2.83047 3.72829 0
M  V30 5077 H 509.148 4.11654 5.00445 0
M  V30 5078 N 502.554 -1.34406 0.822964 0
M  V30 5079 C 503.803 -1.97542 0.407458 0
M  V30 5080 C 504.116 -1.65973 -1.035 0
M  V30 5081 O 505.322 -2.22598 -1.55442 0
M  V30 5082 C 503.778 -3.53463 0.677623 0
M  V30 5083 C 503.386 -3.93925 2.1337 0
M  V30 5084 C 505.13 -4.23229 0.328284 0
M  V30 5085 C 503.037 -5.42759 2.34876 0
M  V30 5086 H 501.967 -0.739207 0.148623 0
M  V30 5087 H 504.618 -1.53248 1.00932 0
M  V30 5088 H 503 -3.96 0.00558965 0
M  V30 5089 H 504.174 -3.62494 2.8449 0
M  V30 5090 H 502.489 -3.37097 2.44448 0
M  V30 5091 H 505.086 -5.32659 0.466794 0
M  V30 5092 H 505.429 -4.09899 -0.727224 0
M  V30 5093 H 505.962 -3.86169 0.954896 0
M  V30 5094 H 502.701 -5.61075 3.38932 0
M  V30 5095 H 502.221 -5.75704 1.68299 0
M  V30 5096 H 503.9 -6.0944 2.17236 0
M  V30 5097 N 504.032 -0.577932 -1.46621 0
M  V30 5098 C 504.995 0.147805 -2.28723 0
M  V30 5099 C 505.995 0.823325 -1.38123 0
M  V30 5100 O 507.185 0.676011 -1.60548 0
M  V30 5101 C 504.317 1.21853 -3.18378 0
M  V30 5102 H 505.51 -0.573654 -2.94362 0
M  V30 5103 H 503.063 -0.335703 -1.52652 0
M  V30 5104 H 503.798 1.97173 -2.57475 0
M  V30 5105 H 503.583 0.738714 -3.85078 0
M  V30 5106 H 505.073 1.72768 -3.80186 0
M  V30 5107 N 505.51 1.54411 -0.315457 0
M  V30 5108 C 506.758 2.00023 0.288971 0
M  V30 5109 C 507.079 1.20529 1.5329 0
M  V30 5110 O 506.349 0.304986 1.93511 0
M  V30 5111 H 504.929 0.738891 0.109766 0
M  V30 5112 H 507.591 1.90094 -0.430129 0
M  V30 5113 H 506.687 3.07198 0.550999 0
M  V30 5114 N 506.988 0.0434614 1.5754 0
M  V30 5115 C 507.938 -0.943039 2.07583 0
M  V30 5116 C 508.922 -1.27662 0.979342 0
M  V30 5117 O 510.114 -1.26034 1.24276 0
M  V30 5118 C 507.243 -2.22056 2.61813 0
M  V30 5119 C 506.329 -1.91471 3.78417 0
M  V30 5120 N 506.72 -1.31214 4.88484 0
M  V30 5121 C 505.018 -2.21384 3.87176 0
M  V30 5122 C 505.719 -1.18084 5.69588 0
M  V30 5123 N 504.695 -1.68116 5.16951 0
M  V30 5124 H 508.497 -0.472354 2.90079 0
M  V30 5125 H 506.011 -0.161191 1.61598 0
M  V30 5126 H 508.008 -2.93618 2.95963 0
M  V30 5127 H 506.668 -2.69738 1.80752 0
M  V30 5128 H 507.679 -0.985318 5.08441 0
M  V30 5129 H 504.356 -2.7164 3.17046 0
M  V30 5130 H 505.746 -0.713684 6.68099 0
M  V30 5131 N 508.466 -1.55915 -0.229846 0
M  V30 5132 C 509.413 -1.91734 -1.28478 0
M  V30 5133 C 510.383 -0.773539 -1.46988 0
M  V30 5134 O 511.568 -1.02871 -1.60693 0
M  V30 5135 C 508.708 -2.23224 -2.63182 0
M  V30 5136 C 507.821 -3.50497 -2.52539 0
M  V30 5137 C 506.956 -3.71474 -3.79711 0
M  V30 5138 C 505.995 -4.92289 -3.63755 0
M  V30 5139 N 505.132 -5.09698 -4.82858 0
M  V30 5140 H 509.972 -2.81692 -0.972308 0
M  V30 5141 H 507.509 -1.39429 -0.468815 0
M  V30 5142 H 509.467 -2.3949 -3.41614 0
M  V30 5143 H 508.097 -1.36451 -2.92542 0
M  V30 5144 H 507.149 -3.4247 -1.65585 0
M  V30 5145 H 508.461 -4.39079 -2.36666 0
M  V30 5146 H 507.615 -3.87791 -4.66586 0
M  V30 5147 H 506.354 -2.81157 -3.985 0
M  V30 5148 H 505.359 -4.7593 -2.75264 0
M  V30 5149 H 506.584 -5.84083 -3.46445 0
M  V30 5150 H 504.53 -4.22322 -5.01976 0
M  V30 5151 H 504.447 -5.92399 -4.69681 0
M  V30 5152 H 505.715 -5.30443 -5.71183 0
M  V30 5153 N 509.944 0.496216 -1.49584 0
M  V30 5154 C 510.907 1.57952 -1.66084 0
M  V30 5155 C 511.907 1.51729 -0.53244 0
M  V30 5156 O 513.097 1.54796 -0.79899 0
M  V30 5157 C 510.229 2.97604 -1.66268 0
M  V30 5158 H 511.422 1.44649 -2.6271 0
M  V30 5159 H 508.975 0.7208 -1.38687 0
M  V30 5160 H 509.71 3.16378 -0.712432 0
M  V30 5161 H 509.495 3.03528 -2.4822 0
M  V30 5162 H 510.985 3.76301 -1.81073 0
M  V30 5163 N 511.423 1.38739 0.74761 0
M  V30 5164 C 512.355 1.32341 1.87132 0
M  V30 5165 C 513.368 0.234502 1.61102 0
M  V30 5166 O 514.557 0.492516 1.71571 0
M  V30 5167 C 511.657 1.02915 3.22896 0
M  V30 5168 C 510.83 2.22834 3.76383 0
M  V30 5169 C 509.889 1.90059 4.90677 0
M  V30 5170 O 508.915 2.62615 5.04997 0
M  V30 5171 N 510.117 0.859141 5.74107 0
M  V30 5172 H 512.882 2.29175 1.93129 0
M  V30 5173 H 510.443 1.32678 0.927805 0
M  V30 5174 H 512.435 0.79031 3.96908 0
M  V30 5175 H 511.005 0.148572 3.12247 0
M  V30 5176 H 510.225 2.62747 2.93867 0
M  V30 5177 H 511.513 3.02851 4.08851 0
M  V30 5178 H 510.911 0.257564 5.65113 0
M  V30 5179 H 509.468 0.680189 6.48241 0
M  V30 5180 N 512.901 -0.976442 1.23707 0
M  V30 5181 C 513.834 -2.06793 0.964973 0
M  V30 5182 C 514.812 -1.62304 -0.0981472 0
M  V30 5183 O 515.996 -1.88464 0.0369477 0
M  V30 5184 C 513.123 -3.35636 0.454522 0
M  V30 5185 C 512.169 -3.99069 1.50485 0
M  V30 5186 S 513.002 -4.37814 3.0835 0
M  V30 5187 C 514.158 -5.69805 2.58985 0
M  V30 5188 H 514.391 -2.29556 1.88922 0
M  V30 5189 H 511.924 -1.11317 1.06995 0
M  V30 5190 H 513.882 -4.10162 0.166626 0
M  V30 5191 H 512.543 -3.10876 -0.448871 0
M  V30 5192 H 511.736 -4.91896 1.09792 0
M  V30 5193 H 511.338 -3.30938 1.7423 0
M  V30 5194 H 513.63 -6.46919 2.01252 0
M  V30 5195 H 514.573 -6.15345 3.50366 0
M  V30 5196 H 514.981 -5.27994 1.99705 0
M  V30 5197 N 514.379 -1.04941 -1.1758 0
M  V30 5198 C 515.327 -0.64204 -2.23563 0
M  V30 5199 C 516.321 0.335453 -1.66045 0
M  V30 5200 O 517.527 0.20179 -1.78865 0
M  V30 5201 H 513.902 -0.18944 -0.727748 0
M  V30 5202 H 515.873 -1.54609 -2.55223 0
M  V30 5203 C 514.622 -0.0301051 -3.47687 0
M  V30 5204 H 513.945 -0.773339 -3.92249 0
M  V30 5205 H 515.385 0.217592 -4.23441 0
M  V30 5206 C 513.844 1.2225 -3.13937 0
M  V30 5207 O 514.374 2.3122 -3.28482 0
M  V30 5208 N 512.58 1.11917 -2.68185 0
M  V30 5209 H 512.127 0.232403 -2.5655 0
M  V30 5210 H 512.085 1.95814 -2.45976 0
M  V30 5211 N 515.857 1.33968 -0.830081 0
M  V30 5212 C 517.087 2.01987 -0.434142 0
M  V30 5213 C 517.495 1.62639 0.96671 0
M  V30 5214 O 516.838 0.831151 1.63822 0
M  V30 5215 C 516.9 3.5648 -0.465018 0
M  V30 5216 C 516.564 4.19176 -1.82045 0
M  V30 5217 C 517.561 4.39181 -2.78237 0
M  V30 5218 C 515.246 4.55792 -2.11089 0
M  V30 5219 C 517.24 4.94937 -4.01642 0
M  V30 5220 C 514.927 5.11258 -3.34752 0
M  V30 5221 C 515.925 5.30775 -4.29845 0
M  V30 5222 O 515.613 5.85064 -5.51322 0
M  V30 5223 H 515.345 0.653847 -0.171639 0
M  V30 5224 H 517.899 1.72066 -1.12171 0
M  V30 5225 H 516.129 3.8569 0.279284 0
M  V30 5226 H 517.818 4.05804 -0.0881334 0
M  V30 5227 H 518.584 4.11249 -2.57097 0
M  V30 5228 H 514.463 4.39901 -1.3787 0
M  V30 5229 H 518.007 5.10086 -4.75876 0
M  V30 5230 H 513.904 5.38619 -3.55753 0
M  V30 5231 H 514.672 6.03489 -5.5294 0
M  V30 5232 N 517.335 0.585699 1.46312 0
M  V30 5233 C 518.612 0.00542031 1.95599 0
M  V30 5234 C 518.992 -1.45619 1.52834 0
M  V30 5235 O 518.34 -2.14759 0.780446 0
M  V30 5236 C 518.55 0.180601 3.48532 0
M  V30 5237 C 519.898 0.049979 4.24571 0
M  V30 5238 O 520.922 0.109589 3.56031 0
M  V30 5239 O 519.781 -0.0832226 5.46437 0
M  V30 5240 H 516.875 -0.0481281 0.825598 0
M  V30 5241 H 519.421 0.654227 1.56582 0
M  V30 5242 H 518.193 1.19657 3.72556 0
M  V30 5243 H 517.816 -0.504498 3.94386 0
M  V30 5244 N 518.813 -1.54241 0.323641 0
M  V30 5245 C 519.743 -2.27289 -0.534993 0
M  V30 5246 C 520.724 -1.28087 -1.11927 0
M  V30 5247 O 521.909 -1.56899 -1.14439 0
M  V30 5248 C 519.039 -3.03075 -1.69596 0
M  V30 5249 C 517.993 -4.09614 -1.24098 0
M  V30 5250 C 517.319 -4.73242 -2.4889 0
M  V30 5251 C 518.619 -5.21087 -0.355789 0
M  V30 5252 H 520.313 -2.99308 0.0743257 0
M  V30 5253 H 517.859 -1.43952 0.0371874 0
M  V30 5254 H 519.812 -3.52907 -2.30293 0
M  V30 5255 H 518.536 -2.28673 -2.33187 0
M  V30 5256 H 517.195 -3.60666 -0.656945 0
M  V30 5257 H 516.843 -3.95455 -3.10845 0
M  V30 5258 H 516.543 -5.45209 -2.19138 0
M  V30 5259 H 518.067 -5.25848 -3.10348 0
M  V30 5260 H 519.481 -5.66675 -0.869042 0
M  V30 5261 H 517.878 -5.9991 -0.151045 0
M  V30 5262 H 518.948 -4.81005 0.613339 0
M  V30 5263 N 520.291 -0.0518155 -1.57515 0
M  V30 5264 C 521.54 0.621286 -1.91893 0
M  V30 5265 C 521.853 1.71966 -0.932052 0
M  V30 5266 O 523.059 2.45096 -1.16791 0
M  V30 5267 C 521.515 1.15641 -3.40816 0
M  V30 5268 C 521.123 0.0901146 -4.47909 0
M  V30 5269 C 522.867 1.80472 -3.84227 0
M  V30 5270 C 520.774 0.638154 -5.87947 0
M  V30 5271 H 519.704 0.235835 -0.716169 0
M  V30 5272 H 522.355 -0.120809 -1.83102 0
M  V30 5273 H 520.737 1.95084 -3.44613 0
M  V30 5274 H 521.911 -0.683525 -4.55702 0
M  V30 5275 H 520.226 -0.460774 -4.13843 0
M  V30 5276 H 522.823 2.22471 -4.86221 0
M  V30 5277 H 523.166 2.65669 -3.20508 0
M  V30 5278 H 523.699 1.07683 -3.82948 0
M  V30 5279 H 520.438 -0.176202 -6.55263 0
M  V30 5280 H 519.958 1.37976 -5.83714 0
M  V30 5281 H 521.637 1.12085 -6.37217 0
M  V30 5282 N 521.769 1.56035 0.221574 0
M  V30 5283 C 523.18 1.69229 0.788567 0
M  V30 5284 C 523.531 0.653814 1.84986 0
M  V30 5285 O 522.656 -0.195065 2.15519 0
M  V30 5286 C 523.251 3.06809 1.43713 0
M  V30 5287 C 521.81 3.21858 1.95152 0
M  V30 5288 C 520.957 2.65155 0.811685 0
M  V30 5289 H 523.908 1.587 -0.00307894 0
M  V30 5290 H 523.929 3.02666 2.30594 0
M  V30 5291 H 523.441 3.82369 0.664475 0
M  V30 5292 H 521.542 2.51167 2.7522 0
M  V30 5293 H 521.655 4.29073 2.1315 0
M  V30 5294 H 520.019 2.23635 1.21899 0
M  V30 5295 H 520.802 3.43261 0.0516987 0
M  V30 5296 N 523.247 -0.488276 1.49845 0
M  V30 5297 C 524.21 -1.57069 1.66919 0
M  V30 5298 C 525.21 -1.51445 0.540479 0
M  V30 5299 O 526.4 -1.5437 0.807188 0
M  V30 5300 C 523.532 -2.96718 1.67844 0
M  V30 5301 H 524.725 -1.43254 2.63474 0
M  V30 5302 H 522.278 -0.713435 1.39068 0
M  V30 5303 H 523.013 -3.15996 0.7292 0
M  V30 5304 H 522.798 -3.02208 2.49826 0
M  V30 5305 H 524.288 -3.75335 1.83066 0
M  V30 5306 N 524.725 -1.39134 -0.740242 0
M  V30 5307 C 525.971 -1.36273 -1.50192 0
M  V30 5308 C 526.304 0.0430136 -1.94152 0
M  V30 5309 O 525.579 1.00691 -1.66408 0
M  V30 5310 C 525.862 -2.33041 -2.74525 0
M  V30 5311 C 525.715 -3.82535 -2.36617 0
M  V30 5312 C 527.034 -2.27723 -3.76604 0
M  V30 5313 H 524.153 -0.496323 -0.544823 0
M  V30 5314 H 526.795 -1.70085 -0.846815 0
M  V30 5315 H 524.945 -2.04337 -3.30422 0
M  V30 5316 H 526.617 -4.21967 -1.86391 0
M  V30 5317 H 524.86 -3.99565 -1.68909 0
M  V30 5318 H 525.531 -4.45723 -3.2563 0
M  V30 5319 H 528.007 -2.53091 -3.30279 0
M  V30 5320 H 526.883 -2.97519 -4.61274 0
M  V30 5321 H 527.144 -1.28049 -4.2315 0
M  V30 5322 N 526.204 0.969867 -1.24223 0
M  V30 5323 C 527.453 1.70687 -1.07466 0
M  V30 5324 C 527.766 1.91736 0.386861 0
M  V30 5325 O 528.972 2.62986 0.674581 0
M  V30 5326 C 527.428 3.07217 -1.87472 0
M  V30 5327 C 527.036 2.94018 -3.3802 0
M  V30 5328 C 528.78 3.84804 -1.79237 0
M  V30 5329 C 526.687 4.25844 -4.10379 0
M  V30 5330 H 525.617 0.640067 -0.398536 0
M  V30 5331 H 528.268 1.08092 -1.48285 0
M  V30 5332 H 526.65 3.70628 -1.39466 0
M  V30 5333 H 527.824 2.39632 -3.9359 0
M  V30 5334 H 526.139 2.29898 -3.47183 0
M  V30 5335 H 528.736 4.82417 -2.30603 0
M  V30 5336 H 529.079 4.09356 -0.757197 0
M  V30 5337 H 529.612 3.28115 -2.24912 0
M  V30 5338 H 526.351 4.06486 -5.14246 0
M  V30 5339 H 525.871 4.80054 -3.59594 0
M  V30 5340 H 527.55 4.94475 -4.17257 0
M  V30 5341 N 527.682 1.05563 1.17022 0
M  V30 5342 C 528.912 0.787307 1.91011 0
M  V30 5343 C 529.32 -0.661256 1.77268 0
M  V30 5344 O 528.663 -1.46379 1.10991 0
M  V30 5345 C 528.725 1.09313 3.42478 0
M  V30 5346 C 528.389 2.53863 3.80004 0
M  V30 5347 C 529.386 3.52081 3.82538 0
M  V30 5348 C 527.071 2.88969 4.10855 0
M  V30 5349 C 529.065 4.83449 4.15399 0
M  V30 5350 C 526.752 4.2054 4.43384 0
M  V30 5351 C 527.75 5.17589 4.45635 0
M  V30 5352 O 527.438 6.46799 4.77395 0
M  V30 5353 H 527.17 0.285463 0.61277 0
M  V30 5354 H 529.724 1.41051 1.49311 0
M  V30 5355 H 527.954 0.412833 3.8449 0
M  V30 5356 H 529.643 0.810224 3.97731 0
M  V30 5357 H 530.409 3.26299 3.58823 0
M  V30 5358 H 526.288 2.1409 4.08272 0
M  V30 5359 H 529.832 5.59194 4.1707 0
M  V30 5360 H 525.729 4.46083 4.66563 0
M  V30 5361 H 526.497 6.51677 4.95237 0
M  V30 5362 N 529.16 -1.33526 0.837174 0
M  V30 5363 C 530.388 -2.02047 0.445494 0
M  V30 5364 C 530.803 -1.62995 -0.952788 0
M  V30 5365 O 530.16 -0.842447 -1.61892 0
M  V30 5366 C 530.211 -3.57221 0.554577 0
M  V30 5367 O 529.932 -3.94863 1.89776 0
M  V30 5368 C 531.433 -4.43012 0.159634 0
M  V30 5369 H 528.653 -0.647221 0.177048 0
M  V30 5370 H 531.197 -1.70492 1.12928 0
M  V30 5371 H 529.352 -3.87315 -0.0812781 0
M  V30 5372 H 529.766 -4.89569 1.88208 0
M  V30 5373 H 531.24 -5.51253 0.28701 0
M  V30 5374 H 531.717 -4.29916 -0.898289 0
M  V30 5375 H 532.323 -4.18274 0.769855 0
M  V30 5376 N 530.638 -0.59345 -1.46 0
M  V30 5377 C 531.588 0.154751 -2.27474 0
M  V30 5378 C 532.572 0.851849 -1.365 0
M  V30 5379 O 533.764 0.744171 -1.60596 0
M  V30 5380 C 530.893 1.16079 -3.2308 0
M  V30 5381 C 529.979 0.465256 -4.2154 0
M  V30 5382 N 530.37 -0.485197 -5.03467 0
M  V30 5383 C 528.668 0.714634 -4.40237 0
M  V30 5384 C 529.369 -0.892709 -5.74809 0
M  V30 5385 N 528.345 -0.239511 -5.43072 0
M  V30 5386 H 532.147 -0.57546 -2.88211 0
M  V30 5387 H 529.661 -0.416046 -1.5698 0
M  V30 5388 H 531.658 1.71108 -3.80168 0
M  V30 5389 H 530.318 1.89171 -2.63903 0
M  V30 5390 H 531.329 -0.861258 -5.10689 0
M  V30 5391 H 528.006 1.43131 -3.92199 0
M  V30 5392 H 529.396 -1.67581 -6.50666 0
M  V30 5393 N 532.116 1.54067 -0.331816 0
M  V30 5394 C 533.527 1.86059 0.15454 0
M  V30 5395 C 533.878 1.25331 1.50952 0
M  V30 5396 O 533.003 0.562441 2.08963 0
M  V30 5397 C 533.598 3.37581 0.287192 0
M  V30 5398 C 532.157 3.69493 0.717773 0
M  V30 5399 C 531.304 2.76863 -0.155569 0
M  V30 5400 H 534.255 1.48797 -0.55182 0
M  V30 5401 H 534.276 3.63744 1.11671 0
M  V30 5402 H 533.788 3.81751 -0.699131 0
M  V30 5403 H 531.889 3.3086 1.71354 0
M  V30 5404 H 532.002 4.76315 0.5158 0
M  V30 5405 H 530.366 2.51995 0.370213 0
M  V30 5406 H 531.149 3.23861 -1.13881 0
M  V30 5407 N 533.594 0.0601682 1.57485 0
M  V30 5408 C 534.504 -0.926121 2.15546 0
M  V30 5409 C 535.52 -1.33532 1.11558 0
M  V30 5410 O 536.696 -1.4104 1.4377 0
M  V30 5411 C 533.761 -2.17952 2.69625 0
M  V30 5412 C 532.822 -1.82783 3.88444 0
M  V30 5413 C 532.055 -3.02148 4.39935 0
M  V30 5414 O 532.278 -4.15803 3.90466 0
M  V30 5415 O 531.212 -2.82639 5.31412 0
M  V30 5416 H 535.038 -0.462289 3.00161 0
M  V30 5417 H 532.623 -0.162246 1.48516 0
M  V30 5418 H 534.505 -2.91474 3.04337 0
M  V30 5419 H 533.18 -2.63456 1.88077 0
M  V30 5420 H 532.087 -1.06549 3.58606 0
M  V30 5421 H 533.42 -1.42072 4.7125 0
M  V30 5422 N 535.072 -1.5615 -0.213296 0
M  V30 5423 C 536.321 -1.78743 -0.93455 0
M  V30 5424 C 536.634 -0.630199 -1.8517 0
M  V30 5425 O 537.84 -0.739966 -2.61222 0
M  V30 5426 C 536.296 -3.16571 -1.71203 0
M  V30 5427 C 535.904 -4.40043 -0.840617 0
M  V30 5428 C 537.648 -3.48485 -2.42401 0
M  V30 5429 C 535.555 -5.68895 -1.61592 0
M  V30 5430 H 534.485 -0.666426 -0.352692 0
M  V30 5431 H 537.136 -1.82532 -0.188227 0
M  V30 5432 H 535.518 -3.06981 -2.50157 0
M  V30 5433 H 536.692 -4.6071 -0.0910326 0
M  V30 5434 H 535.007 -4.15706 -0.240365 0
M  V30 5435 H 537.604 -4.41983 -3.00924 0
M  V30 5436 H 537.947 -2.71371 -3.15695 0
M  V30 5437 H 538.48 -3.59442 -1.7043 0
M  V30 5438 H 535.219 -6.48925 -0.926106 0
M  V30 5439 H 534.739 -5.52275 -2.33991 0
M  V30 5440 H 536.418 -6.09365 -2.17447 0
M  V30 5441 N 536.55 0.480323 -1.50102 0
M  V30 5442 C 537.513 1.56181 -1.6775 0
M  V30 5443 C 538.513 1.51156 -0.548503 0
M  V30 5444 O 539.703 1.5394 -0.815363 0
M  V30 5445 C 536.835 2.95823 -1.69415 0
M  V30 5446 H 538.028 1.41855 -2.6423 0
M  V30 5447 H 535.581 0.70605 -1.39444 0
M  V30 5448 H 536.316 3.15604 -0.745948 0
M  V30 5449 H 536.101 3.00878 -2.51425 0
M  V30 5450 H 537.591 3.74359 -1.85054 0
M  V30 5451 N 538.028 1.39524 0.732853 0
M  V30 5452 C 539.276 1.36594 1.48951 0
M  V30 5453 C 539.597 -0.0367507 1.94965 0
M  V30 5454 O 538.867 -0.988391 1.69138 0
M  V30 5455 H 537.447 0.502673 0.552566 0
M  V30 5456 H 540.109 1.74411 0.869869 0
M  V30 5457 H 539.205 2.03 2.3706 0
M  V30 5458 N 539.506 -0.963266 1.24736 0
M  V30 5459 C 540.752 -1.70933 1.09131 0
M  V30 5460 C 541.085 -1.90676 -0.368273 0
M  V30 5461 O 540.36 -1.47147 -1.27193 0
M  V30 5462 C 540.643 -3.09744 1.83658 0
M  V30 5463 C 540.496 -2.97465 3.37394 0
M  V30 5464 C 541.815 -4.09483 1.61282 0
M  V30 5465 H 538.934 -0.620398 0.397838 0
M  V30 5466 H 541.576 -1.12028 1.53459 0
M  V30 5467 H 539.726 -3.60031 1.4598 0
M  V30 5468 H 541.398 -2.54571 3.84696 0
M  V30 5469 H 539.641 -2.33576 3.65547 0
M  V30 5470 H 540.312 -3.95822 3.84745 0
M  V30 5471 H 542.788 -3.68073 1.94066 0
M  V30 5472 H 541.664 -5.04666 2.15878 0
M  V30 5473 H 541.925 -4.38639 0.552102 0
M  V30 5474 N 540.985 -1.06182 -1.16461 0
M  V30 5475 C 542.233 -0.776326 -1.86595 0
M  V30 5476 C 542.554 0.69921 -1.82033 0
M  V30 5477 O 541.824 1.50579 -1.2531 0
M  V30 5478 H 540.404 -0.284184 -0.690832 0
M  V30 5479 H 543.066 -1.34308 -1.41235 0
M  V30 5480 H 542.162 -1.10022 -2.92064 0
M  V30 5481 N 542.463 1.3308 -0.844243 0
M  V30 5482 C 543.41 2.29104 -0.279323 0
M  V30 5483 C 544.38 1.54577 0.607882 0
M  V30 5484 O 545.565 1.8285 0.545009 0
M  V30 5485 C 542.705 3.40927 0.53508 0
M  V30 5486 C 541.818 4.30354 -0.376749 0
M  V30 5487 C 540.953 5.29297 0.449276 0
M  V30 5488 C 539.992 6.10365 -0.460606 0
M  V30 5489 N 539.129 7.01335 0.327612 0
M  V30 5490 H 543.969 2.76817 -1.10346 0
M  V30 5491 H 541.506 1.36203 -0.555611 0
M  V30 5492 H 543.464 4.04469 1.02278 0
M  V30 5493 H 542.094 2.94391 1.32414 0
M  V30 5494 H 541.146 3.67485 -0.982791 0
M  V30 5495 H 542.458 4.87067 -1.07549 0
M  V30 5496 H 541.612 5.98392 1.00058 0
M  V30 5497 H 540.351 4.73174 1.18143 0
M  V30 5498 H 539.356 5.40182 -1.02388 0
M  V30 5499 H 540.581 6.68571 -1.1912 0
M  V30 5500 H 538.527 6.47655 1.04305 0
M  V30 5501 H 538.444 7.55355 -0.3123 0
M  V30 5502 H 539.712 7.74731 0.86098 0
M  V30 5503 N 543.941 0.601185 1.45683 0
M  V30 5504 C 545.169 0.100054 2.06658 0
M  V30 5505 C 545.584 -1.21285 1.44691 0
M  V30 5506 O 544.941 -1.73735 0.558772 0
M  V30 5507 C 544.992 -0.0528579 3.61461 0
M  V30 5508 O 544.713 1.20809 4.21114 0
M  V30 5509 C 546.214 -0.586193 4.39407 0
M  V30 5510 H 543.434 0.065905 0.667756 0
M  V30 5511 H 545.978 0.827101 1.87028 0
M  V30 5512 H 544.133 -0.730203 3.80456 0
M  V30 5513 H 544.547 1.03368 5.14213 0
M  V30 5514 H 546.021 -0.642297 5.4825 0
M  V30 5515 H 546.498 -1.60713 4.0874 0
M  V30 5516 H 547.104 0.0568935 4.25262 0
M  V30 5517 N 545.419 -1.53889 0.339982 0
M  V30 5518 C 546.329 -2.28604 -0.526988 0
M  V30 5519 C 547.345 -1.33578 -1.11503 0
M  V30 5520 O 548.521 -1.66612 -1.13148 0
M  V30 5521 C 545.586 -3.04164 -1.66389 0
M  V30 5522 C 544.647 -4.14809 -1.10599 0
M  V30 5523 C 543.88 -4.86756 -2.18871 0
M  V30 5524 O 544.103 -4.58343 -3.39526 0
M  V30 5525 O 543.037 -5.73289 -1.83366 0
M  V30 5526 H 546.863 -3.03594 0.0802707 0
M  V30 5527 H 544.448 -1.4903 0.105141 0
M  V30 5528 H 546.33 -3.51427 -2.32544 0
M  V30 5529 H 545.005 -2.32035 -2.25703 0
M  V30 5530 H 543.912 -3.71857 -0.409067 0
M  V30 5531 H 545.245 -4.89029 -0.557771 0
M  V30 5532 N 546.897 -0.0685191 -1.57451 0
M  V30 5533 C 547.829 0.929372 -2.09512 0
M  V30 5534 C 548.842 1.26354 -1.02657 0
M  V30 5535 O 550.031 1.2213 -1.30179 0
M  V30 5536 C 547.131 2.24612 -2.53777 0
M  V30 5537 C 546.304 2.09128 -3.84167 0
M  V30 5538 C 545.363 3.24079 -4.14559 0
M  V30 5539 O 544.389 2.99215 -4.8421 0
M  V30 5540 N 545.591 4.49077 -3.67845 0
M  V30 5541 H 548.356 0.484901 -2.95751 0
M  V30 5542 H 545.917 0.11729 -1.61475 0
M  V30 5543 H 547.909 3.00412 -2.71172 0
M  V30 5544 H 546.479 2.60569 -1.72692 0
M  V30 5545 H 545.699 1.17815 -3.76182 0
M  V30 5546 H 546.987 1.9603 -4.69521 0
M  V30 5547 H 546.385 4.72165 -3.11571 0
M  V30 5548 H 544.942 5.21915 -3.90446 0
M  V30 5549 N 548.375 1.56261 0.205012 0
M  V30 5550 C 549.338 1.92908 1.23771 0
M  V30 5551 C 550.338 0.809208 1.38955 0
M  V30 5552 O 551.528 1.07676 1.36936 0
M  V30 5553 C 548.66 2.19442 2.60879 0
M  V30 5554 H 549.853 2.85287 0.924728 0
M  V30 5555 H 547.406 1.49798 0.446125 0
M  V30 5556 H 548.141 1.29668 2.97248 0
M  V30 5557 H 547.926 3.0104 2.51232 0
M  V30 5558 H 549.416 2.48833 3.35368 0
M  V30 5559 N 549.853 -0.472356 1.50355 0
M  V30 5560 C 550.783 -1.57859 1.72055 0
M  V30 5561 C 551.764 -1.60283 0.569505 0
M  V30 5562 O 552.949 -1.7657 0.808503 0
M  V30 5563 C 550.079 -2.96191 1.81351 0
M  V30 5564 C 549.033 -3.08633 2.96529 0
M  V30 5565 C 548.359 -4.486 2.90968 0
M  V30 5566 C 549.659 -2.85969 4.37057 0
M  V30 5567 H 551.353 -1.39953 2.64676 0
M  V30 5568 H 548.899 -0.671846 1.27367 0
M  V30 5569 H 550.852 -3.73507 1.95117 0
M  V30 5570 H 549.576 -3.15251 0.853502 0
M  V30 5571 H 548.235 -2.33749 2.82413 0
M  V30 5572 H 547.883 -4.64577 1.92815 0
M  V30 5573 H 547.583 -4.57861 3.68289 0
M  V30 5574 H 549.107 -5.27938 3.0678 0
M  V30 5575 H 550.521 -3.53036 4.51706 0
M  V30 5576 H 548.918 -3.06677 5.15819 0
M  V30 5577 H 549.988 -1.81838 4.49514 0
M  V30 5578 N 551.331 -1.39911 -0.725443 0
M  V30 5579 C 552.278 -1.39393 -1.83952 0
M  V30 5580 C 553.248 -0.252249 -1.64173 0
M  V30 5581 O 554.433 -0.44882 -1.85446 0
M  V30 5582 C 551.573 -1.25262 -3.21564 0
M  V30 5583 C 550.686 -2.49054 -3.52982 0
M  V30 5584 C 549.821 -2.27439 -4.80047 0
M  V30 5585 C 548.86 -3.46857 -5.04338 0
M  V30 5586 N 547.997 -3.24499 -6.22611 0
M  V30 5587 H 552.837 -2.34622 -1.83729 0
M  V30 5588 H 550.374 -1.16537 -0.897636 0
M  V30 5589 H 552.332 -1.15077 -4.01015 0
M  V30 5590 H 550.962 -0.33657 -3.21041 0
M  V30 5591 H 550.014 -2.69805 -2.6816 0
M  V30 5592 H 551.326 -3.37973 -3.66846 0
M  V30 5593 H 550.48 -2.14551 -5.67497 0
M  V30 5594 H 549.219 -1.35929 -4.68374 0
M  V30 5595 H 548.224 -3.60232 -4.15346 0
M  V30 5596 H 549.449 -4.3928 -5.17889 0
M  V30 5597 H 547.395 -2.35663 -6.12208 0
M  V30 5598 H 547.312 -4.06978 -6.37106 0
M  V30 5599 H 548.58 -3.15325 -7.12875 0
M  V30 5600 N 552.809 0.956637 -1.25245 0
M  V30 5601 C 553.772 2.03457 -1.05537 0
M  V30 5602 C 554.772 1.60798 -0.00886317 0
M  V30 5603 O 555.962 1.72384 -0.250865 0
M  V30 5604 C 553.094 3.35543 -0.601965 0
M  V30 5605 H 554.287 2.22372 -2.01223 0
M  V30 5606 H 551.84 1.13344 -1.07623 0
M  V30 5607 H 552.575 3.22323 0.357584 0
M  V30 5608 H 552.36 3.67854 -1.35743 0
M  V30 5609 H 553.85 4.14769 -0.485454 0
M  V30 5610 N 554.287 1.06798 1.15896 0
M  V30 5611 C 555.197 0.694564 2.24083 0
M  V30 5612 C 556.213 -0.291687 1.71538 0
M  V30 5613 O 557.389 -0.139723 2.00915 0
M  V30 5614 C 554.454 0.0921014 3.46578 0
M  V30 5615 C 553.515 1.13087 4.14137 0
M  V30 5616 C 552.748 0.557064 5.30785 0
M  V30 5617 O 552.971 -0.628623 5.66925 0
M  V30 5618 O 551.905 1.29924 5.8771 0
M  V30 5619 H 555.731 1.59663 2.58344 0
M  V30 5620 H 553.316 0.840575 1.2351 0
M  V30 5621 H 555.198 -0.241884 4.20705 0
M  V30 5622 H 553.873 -0.78337 3.14078 0
M  V30 5623 H 552.78 1.51712 3.41957 0
M  V30 5624 H 554.113 1.97805 4.50704 0
M  V30 5625 N 555.766 -1.3263 0.851289 0
M  V30 5626 C 557.014 -1.96978 0.452128 0
M  V30 5627 C 557.335 -1.67715 -0.99482 0
M  V30 5628 O 556.605 -0.98259 -1.69476 0
M  V30 5629 H 555.185 -0.72873 0.164202 0
M  V30 5630 H 557.847 -1.61774 1.08698 0
M  V30 5631 H 556.943 -3.06387 0.594407 0
M  V30 5632 N 557.244 -0.608902 -1.45362 0
M  V30 5633 C 558.49 -0.104762 -2.02529 0
M  V30 5634 C 558.823 1.26191 -1.47613 0
M  V30 5635 O 558.098 1.8327 -0.65134 0
M  V30 5636 C 558.381 -0.0672661 -3.60037 0
M  V30 5637 C 558.234 -1.4647 -4.25284 0
M  V30 5638 C 559.553 0.619877 -4.35713 0
M  V30 5639 H 556.672 -0.0395438 -0.735938 0
M  V30 5640 H 559.314 -0.781126 -1.73201 0
M  V30 5641 H 557.464 0.50871 -3.85155 0
M  V30 5642 H 559.136 -2.08785 -4.11347 0
M  V30 5643 H 557.379 -2.02502 -3.83634 0
M  V30 5644 H 558.05 -1.39069 -5.34195 0
M  V30 5645 H 560.526 0.130297 -4.15896 0
M  V30 5646 H 559.402 0.615224 -5.45441 0
M  V30 5647 H 559.663 1.68621 -4.0868 0
M  V30 5648 N 558.722 1.53707 -0.348139 0
M  V30 5649 C 559.685 2.23812 0.494058 0
M  V30 5650 C 560.685 1.23989 1.02388 0
M  V30 5651 O 561.875 1.48395 0.912396 0
M  V30 5652 C 559.007 2.96133 1.68872 0
M  V30 5653 H 560.2 2.99663 -0.119141 0
M  V30 5654 H 557.753 1.55983 -0.0995539 0
M  V30 5655 H 558.488 2.24481 2.34049 0
M  V30 5656 H 558.273 3.69357 1.31596 0
M  V30 5657 H 559.763 3.49475 2.28597 0
M  V30 5658 N 560.2 0.0768682 1.57412 0
M  V30 5659 C 561.449 -0.590679 1.92857 0
M  V30 5660 C 561.762 -1.70461 0.959293 0
M  V30 5661 O 562.968 -2.43207 1.20675 0
M  V30 5662 C 561.424 -1.10204 3.42612 0
M  V30 5663 C 561.032 -0.0188447 4.47996 0
M  V30 5664 C 562.776 -1.74336 3.87049 0
M  V30 5665 C 560.683 -0.544536 5.88888 0
M  V30 5666 H 559.613 -0.224411 0.71983 0
M  V30 5667 H 562.264 0.149924 1.82887 0
M  V30 5668 H 560.646 -1.89577 3.47673 0
M  V30 5669 H 561.82 0.755936 4.54557 0
M  V30 5670 H 560.135 0.526555 4.13057 0
M  V30 5671 H 562.732 -2.14708 4.89699 0
M  V30 5672 H 563.075 -2.60537 3.24694 0
M  V30 5673 H 563.608 -1.01577 3.84613 0
M  V30 5674 H 560.347 0.280426 6.549 0
M  V30 5675 H 559.867 -1.28673 5.85836 0
M  V30 5676 H 561.546 -1.01933 6.3892 0
M  V30 5677 N 561.678 -1.56367 -0.196722 0
M  V30 5678 C 562.626 -1.95304 -1.2633 0
M  V30 5679 C 563.62 -0.838252 -1.47206 0
M  V30 5680 O 564.826 -1.02325 -1.48087 0
M  V30 5681 H 561.201 -0.621013 -0.424083 0
M  V30 5682 H 563.172 -2.84254 -0.907879 0
M  V30 5683 C 561.921 -2.3074 -2.60104 0
M  V30 5684 H 561.244 -3.16047 -2.44856 0
M  V30 5685 H 562.684 -2.61849 -3.33484 0
M  V30 5686 C 561.143 -1.14143 -3.16975 0
M  V30 5687 O 561.673 -0.415602 -3.99544 0
M  V30 5688 N 559.879 -0.91867 -2.75697 0
M  V30 5689 H 559.426 -1.51065 -2.08656 0
M  V30 5690 H 559.384 -0.140321 -3.14087 0
M  V30 5691 N 563.156 0.464375 -1.50603 0
M  V30 5692 C 564.402 1.21776 -1.62168 0
M  V30 5693 C 564.735 1.91476 -0.324154 0
M  V30 5694 O 564.01 1.8242 0.674782 0
M  V30 5695 C 564.293 2.25614 -2.80661 0
M  V30 5696 C 564.146 1.60175 -4.20314 0
M  V30 5697 C 565.465 3.26862 -2.94702 0
M  V30 5698 H 562.584 0.44137 -0.590222 0
M  V30 5699 H 565.226 0.510623 -1.8301 0
M  V30 5700 H 563.376 2.85923 -2.63021 0
M  V30 5701 H 565.048 1.03411 -4.4956 0
M  V30 5702 H 563.291 0.904697 -4.24261 0
M  V30 5703 H 563.962 2.35665 -4.99165 0
M  V30 5704 H 566.438 2.76582 -3.10872 0
M  V30 5705 H 565.314 3.96839 -3.79223 0
M  V30 5706 H 565.575 3.91382 -2.05603 0
M  V30 5707 N 564.634 1.40294 0.718013 0
M  V30 5708 C 565.882 1.38167 1.47494 0
M  V30 5709 C 566.203 -0.01607 1.94993 0
M  V30 5710 O 565.473 -0.970396 1.70177 0
M  V30 5711 H 564.053 0.508505 0.547203 0
M  V30 5712 H 566.715 1.75324 0.851322 0
M  V30 5713 H 565.811 2.05503 2.34894 0
M  V30 5714 N 566.112 -0.949982 1.2575 0
M  V30 5715 C 567.358 -1.69766 1.10938 0
M  V30 5716 C 567.691 -1.91056 -0.348028 0
M  V30 5717 O 566.966 -1.48488 -1.25625 0
M  V30 5718 C 567.249 -3.07779 1.86933 0
M  V30 5719 C 567.102 -2.9387 3.4053 0
M  V30 5720 C 568.421 -4.07749 1.65616 0
M  V30 5721 H 565.54 -0.616144 0.404396 0
M  V30 5722 H 568.182 -1.10394 1.54639 0
M  V30 5723 H 566.332 -3.58462 1.4979 0
M  V30 5724 H 568.004 -2.50476 3.87375 0
M  V30 5725 H 566.247 -2.29686 3.68004 0
M  V30 5726 H 566.918 -3.91719 3.88922 0
M  V30 5727 H 569.394 -3.65994 1.97959 0
M  V30 5728 H 568.27 -5.02348 2.21218 0
M  V30 5729 H 568.531 -4.38029 0.598595 0
M  V30 5730 N 567.59 -1.07411 -1.15328 0
M  V30 5731 C 568.837 -0.797649 -1.86128 0
M  V30 5732 C 569.165 0.676298 -1.82364 0
M  V30 5733 O 568.42 1.51223 -1.24218 0
M  V30 5734 C 568.719 -1.25191 -3.34757 0
M  V30 5735 C 568.385 -2.73191 -3.58716 0
M  V30 5736 C 567.047 -3.13616 -3.64964 0
M  V30 5737 C 569.399 -3.68718 -3.6837 0
M  V30 5738 C 566.727 -4.48383 -3.78377 0
M  V30 5739 C 569.079 -5.03248 -3.83306 0
M  V30 5740 C 567.743 -5.43293 -3.878 0
M  V30 5741 H 567.013 -0.29188 -0.681092 0
M  V30 5742 H 569.66 -1.34524 -1.36292 0
M  V30 5743 H 567.965 -0.623712 -3.86804 0
M  V30 5744 H 569.662 -1.01489 -3.87945 0
M  V30 5745 H 566.252 -2.40898 -3.54494 0
M  V30 5746 H 570.436 -3.38614 -3.62842 0
M  V30 5747 H 565.692 -4.78877 -3.80114 0
M  V30 5748 H 569.866 -5.77142 -3.89718 0
M  V30 5749 H 567.493 -6.47721 -3.97946 0
M  V30 5750 N 569.068 1.32177 -0.85831 0
M  V30 5751 C 570.479 1.79381 -0.517621 0
M  V30 5752 C 570.83 1.70841 0.964769 0
M  V30 5753 O 569.955 1.26917 1.75274 0
M  V30 5754 C 570.55 3.25706 -0.932801 0
M  V30 5755 C 569.109 3.70851 -0.643953 0
M  V30 5756 C 568.256 2.53208 -1.13054 0
M  V30 5757 H 571.207 1.19424 -1.04516 0
M  V30 5758 H 571.228 3.79673 -0.250674 0
M  V30 5759 H 570.74 3.31889 -2.01174 0
M  V30 5760 H 568.841 3.70178 0.424112 0
M  V30 5761 H 568.954 4.63495 -1.21281 0
M  V30 5762 H 567.318 2.48676 -0.550679 0
M  V30 5763 H 568.101 2.62143 -2.21666 0
M  V30 5764 N 570.547 0.616602 1.45037 0
M  V30 5765 C 571.794 0.115331 2.02171 0
M  V30 5766 C 572.122 -1.25748 1.48383 0
M  V30 5767 O 571.377 -1.84511 0.652229 0
M  V30 5768 C 571.676 0.0356829 3.57382 0
M  V30 5769 C 571.342 1.34535 4.30362 0
M  V30 5770 C 570.004 1.70408 4.50016 0
M  V30 5771 C 572.356 2.21049 4.72003 0
M  V30 5772 C 569.684 2.92529 5.0857 0
M  V30 5773 C 572.036 3.42427 5.31908 0
M  V30 5774 C 570.7 3.78541 5.49784 0
M  V30 5775 H 569.97 0.0422024 0.739797 0
M  V30 5776 H 572.617 0.80002 1.73988 0
M  V30 5777 H 570.922 -0.732314 3.84895 0
M  V30 5778 H 572.619 -0.368463 3.99304 0
M  V30 5779 H 569.209 1.05615 4.15383 0
M  V30 5780 H 573.393 1.94632 4.56544 0
M  V30 5781 H 568.649 3.20605 5.20598 0
M  V30 5782 H 572.823 4.09709 5.63127 0
M  V30 5783 H 570.45 4.73255 5.94923 0
M  V30 5784 N 572.025 -1.5352 0.356285 0
M  V30 5785 C 572.988 -2.24071 -0.482182 0
M  V30 5786 C 573.988 -1.24531 -1.01729 0
M  V30 5787 O 575.178 -1.48876 -0.904513 0
M  V30 5788 C 572.31 -2.97025 -1.67299 0
M  V30 5789 H 573.503 -2.99596 0.135031 0
M  V30 5790 H 571.056 -1.55928 0.107825 0
M  V30 5791 H 571.791 -2.25719 -2.32855 0
M  V30 5792 H 571.576 -3.7005 -1.29636 0
M  V30 5793 H 573.066 -3.50683 -2.26741 0
M  V30 5794 N 573.503 -0.0852151 -1.57369 0
M  V30 5795 C 574.466 0.8627 -2.12344 0
M  V30 5796 C 575.466 1.21746 -1.05046 0
M  V30 5797 O 576.656 1.14852 -1.30976 0
M  V30 5798 C 573.788 2.1618 -2.63589 0
M  V30 5799 H 574.981 0.385511 -2.97412 0
M  V30 5800 H 572.534 0.163663 -1.55441 0
M  V30 5801 H 573.269 2.68406 -1.82013 0
M  V30 5802 H 573.054 1.91723 -3.4203 0
M  V30 5803 H 574.544 2.84011 -3.06149 0
M  V30 5804 N 574.981 1.5647 0.188427 0
M  V30 5805 C 576.206 1.85486 0.927891 0
M  V30 5806 C 576.631 0.669575 1.75779 0
M  V30 5807 O 575.989 -0.381573 1.77239 0
M  V30 5808 C 576.037 3.12784 1.7944 0
M  V30 5809 O 575.141 2.93805 2.894 0
M  V30 5810 H 574.482 0.610585 0.260925 0
M  V30 5811 H 577.012 2.037 0.191729 0
M  V30 5812 H 577.022 3.43749 2.19774 0
M  V30 5813 H 575.697 3.98671 1.18468 0
M  V30 5814 H 574.274 2.74153 2.52774 0
M  V30 5815 N 576.459 -0.456382 1.50847 0
M  V30 5816 C 577.707 -1.20497 1.62249 0
M  V30 5817 C 578.028 -1.92156 0.331839 0
M  V30 5818 O 577.298 -1.84751 -0.651443 0
M  V30 5819 H 575.878 -0.447775 0.597918 0
M  V30 5820 H 578.54 -0.525099 1.87693 0
M  V30 5821 H 577.636 -1.94492 2.44089 0
M  V30 5822 N 577.937 -1.40673 -0.710563 0
M  V30 5823 C 579.353 -1.22813 -1.01928 0
M  V30 5824 C 579.553 -0.10687 -2.01216 0
M  V30 5825 O 578.609 0.533614 -2.46797 0
M  V30 5826 C 579.922 -2.57178 -1.5582 0
M  V30 5827 C 581.47 -2.64233 -1.67779 0
M  V30 5828 C 581.945 -3.98879 -2.25076 0
M  V30 5829 N 583.436 -4.00647 -2.32456 0
M  V30 5830 C 584.171 -5.01621 -2.77784 0
M  V30 5831 N 583.667 -6.12989 -3.22826 0
M  V30 5832 N 585.46 -4.88988 -2.77213 0
M  V30 5833 H 577.611 -2.12335 -0.05253 0
M  V30 5834 H 579.874 -0.9441 -0.085898 0
M  V30 5835 H 579.58 -3.39903 -0.903249 0
M  V30 5836 H 579.454 -2.78618 -2.54267 0
M  V30 5837 H 581.841 -1.81876 -2.3239 0
M  V30 5838 H 581.922 -2.46619 -0.679178 0
M  V30 5839 H 581.566 -4.81678 -1.61086 0
M  V30 5840 H 581.496 -4.13826 -3.25661 0
M  V30 5841 H 583.987 -3.20231 -2.0065 0
M  V30 5842 H 584.3 -6.85921 -3.55995 0
M  V30 5843 H 582.645 -6.16547 -3.20773 0
M  V30 5844 H 585.836 -4.01075 -2.41363 0
M  V30 5845 H 586.009 -5.67822 -3.12221 0
M  V30 5846 N 579.415 0.9433 -1.26252 0
M  V30 5847 C 580.378 2.02326 -1.07689 0
M  V30 5848 C 581.378 1.60779 -0.0259174 0
M  V30 5849 O 582.568 1.72108 -0.269134 0
M  V30 5850 C 579.7 3.34886 -0.63752 0
M  V30 5851 H 580.893 2.20225 -2.0357 0
M  V30 5852 H 578.446 1.12197 -1.08819 0
M  V30 5853 H 579.181 3.22684 0.323377 0
M  V30 5854 H 578.966 3.66393 -1.39637 0
M  V30 5855 H 580.456 4.14231 -0.529418 0
M  V30 5856 N 580.893 1.08022 1.14757 0
M  V30 5857 C 581.826 0.650738 2.18725 0
M  V30 5858 C 582.804 -0.335496 1.59101 0
M  V30 5859 O 583.988 -0.240295 1.86962 0
M  V30 5860 C 581.115 -0.0434377 3.38672 0
M  V30 5861 C 580.161 0.90232 4.16846 0
M  V30 5862 S 580.994 2.40693 4.78359 0
M  V30 5863 C 582.15 1.72475 6.01667 0
M  V30 5864 H 582.383 1.53152 2.54817 0
M  V30 5865 H 579.916 0.894823 1.25826 0
M  V30 5866 H 581.874 -0.437684 4.0816 0
M  V30 5867 H 580.535 -0.900659 3.0091 0
M  V30 5868 H 579.728 0.363445 5.02688 0
M  V30 5869 H 579.33 1.23728 3.52941 0
M  V30 5870 H 581.622 1.0404 6.69464 0
M  V30 5871 H 582.565 2.56175 6.60136 0
M  V30 5872 H 582.973 1.19979 5.51602 0
M  V30 5873 N 582.371 -1.3172 0.865308 0
M  V30 5874 C 583.334 -2.26918 0.322627 0
M  V30 5875 C 584.334 -1.52031 -0.523751 0
M  V30 5876 O 585.524 -1.70973 -0.333727 0
M  V30 5877 C 582.656 -3.36558 -0.542338 0
M  V30 5878 H 583.849 -2.76432 1.16298 0
M  V30 5879 H 581.402 -1.42573 0.640512 0
M  V30 5880 H 582.137 -2.92329 -1.40407 0
M  V30 5881 H 581.922 -3.92048 0.0636395 0
M  V30 5882 H 583.412 -4.07465 -0.91446 0
M  V30 5883 N 583.85 -0.624285 -1.44708 0
M  V30 5884 C 584.812 0.0749638 -2.29077 0
M  V30 5885 C 585.812 0.778965 -1.40673 0
M  V30 5886 O 587.003 0.624591 -1.62618 0
M  V30 5887 C 584.135 1.11663 -3.22094 0
M  V30 5888 H 585.327 -0.667013 -2.92388 0
M  V30 5889 H 582.88 -0.384098 -1.51507 0
M  V30 5890 H 583.615 1.88881 -2.63618 0
M  V30 5891 H 583.401 0.61583 -3.87234 0
M  V30 5892 H 584.891 1.60585 -3.8549 0
M  V30 5893 N 585.328 1.53329 -0.364422 0
M  V30 5894 C 586.276 2.27212 0.497737 0
M  V30 5895 C 587.27 1.30146 1.08437 0
M  V30 5896 O 588.476 1.47778 1.0277 0
M  V30 5897 H 584.851 0.730329 0.179232 0
M  V30 5898 H 586.822 2.98037 -0.147182 0
M  V30 5899 C 585.571 3.07333 1.6261 0
M  V30 5900 H 584.894 3.81866 1.184 0
M  V30 5901 H 586.334 3.62209 2.20409 0
M  V30 5902 C 584.793 2.18102 2.56775 0
M  V30 5903 O 585.323 1.79104 3.59562 0
M  V30 5904 N 583.529 1.82759 2.25937 0
M  V30 5905 H 583.076 2.14671 1.42387 0
M  V30 5906 H 583.034 1.23342 2.89196 0
M  V30 5907 N 586.806 0.0935595 1.57322 0
M  V30 5908 C 588.083 -0.612692 1.85756 0
M  V30 5909 C 588.463 -1.86439 0.99013 0
M  V30 5910 O 587.811 -2.28416 0.0621362 0
M  V30 5911 C 588.021 -0.929547 3.36393 0
M  V30 5912 C 589.369 -1.29366 4.04413 0
M  V30 5913 O 590.393 -1.02061 3.41265 0
M  V30 5914 O 589.252 -1.80498 5.15832 0
M  V30 5915 H 586.346 -0.306444 0.768128 0
M  V30 5916 H 588.892 0.126141 1.69231 0
M  V30 5917 H 587.664 -0.0414766 3.91278 0
M  V30 5918 H 587.287 -1.72441 3.5826 0
M  V30 5919 N 588.284 -1.56567 -0.180126 0
M  V30 5920 C 589.512 -1.85618 -0.913972 0
M  V30 5921 C 589.927 -0.677892 -1.7621 0
M  V30 5922 O 589.284 0.353171 -1.7905 0
M  V30 5923 C 589.335 -3.13619 -1.79793 0
M  V30 5924 O 589.056 -4.26906 -0.98402 0
M  V30 5925 C 590.557 -3.55954 -2.64219 0
M  V30 5926 H 587.777 -0.616043 -0.265954 0
M  V30 5927 H 590.321 -2.03681 -0.182872 0
M  V30 5928 H 588.476 -2.97409 -2.48247 0
M  V30 5929 H 588.89 -4.9989 -1.58776 0
M  V30 5930 H 590.364 -4.48444 -3.21873 0
M  V30 5931 H 590.841 -2.79653 -3.38661 0
M  V30 5932 H 591.447 -3.74746 -2.01111 0
M  V30 5933 N 589.762 0.448376 -1.51087 0
M  V30 5934 C 590.725 1.52588 -1.71025 0
M  V30 5935 C 591.725 1.49958 -0.580442 0
M  V30 5936 O 592.915 1.52176 -0.847833 0
M  V30 5937 C 590.047 2.92163 -1.75652 0
M  V30 5938 H 591.24 1.36218 -2.67179 0
M  V30 5939 H 588.793 0.676313 -1.4091 0
M  V30 5940 H 589.528 3.13951 -0.812724 0
M  V30 5941 H 589.313 2.95478 -2.57751 0
M  V30 5942 H 590.803 3.70349 -1.92953 0
M  V30 5943 N 591.24 1.41047 0.703093 0
M  V30 5944 C 592.488 1.39723 1.4602 0
M  V30 5945 C 592.809 0.00461257 1.94999 0
M  V30 5946 O 592.079 -0.952292 1.71196 0
M  V30 5947 H 590.659 0.514281 0.541779 0
M  V30 5948 H 593.321 1.76217 0.832678 0
M  V30 5949 H 592.417 2.07982 2.32701 0
M  V30 5950 N 592.718 -0.936591 1.26751 0
M  V30 5951 C 593.965 -1.68331 1.12566 0
M  V30 5952 C 594.293 -1.91677 -0.330168 0
M  V30 5953 O 593.548 -1.49859 -1.2586 0
M  V30 5954 C 593.847 -3.06099 1.84494 0
M  V30 5955 C 593.513 -3.02493 3.34378 0
M  V30 5956 C 592.175 -3.01217 3.75262 0
M  V30 5957 C 594.527 -2.94453 4.30055 0
M  V30 5958 C 591.855 -2.89672 5.10203 0
M  V30 5959 C 594.207 -2.84449 5.65041 0
M  V30 5960 C 592.871 -2.81518 6.0523 0
M  V30 5961 H 592.141 -0.615965 0.411907 0
M  V30 5962 H 594.788 -1.09292 1.5725 0
M  V30 5963 H 593.093 -3.6879 1.32292 0
M  V30 5964 H 594.79 -3.62733 1.70955 0
M  V30 5965 H 591.38 -3.04269 3.01858 0
M  V30 5966 H 595.564 -2.94544 3.99447 0
M  V30 5967 H 590.82 -2.85783 5.40498 0
M  V30 5968 H 594.994 -2.77192 6.38856 0
M  V30 5969 H 592.621 -2.72329 7.09747 0
M  V30 5970 N 594.196 -1.08629 -1.14182 0
M  V30 5971 C 595.442 -0.818556 -1.85546 0
M  V30 5972 C 595.775 0.654076 -1.82854 0
M  V30 5973 O 595.05 1.48099 -1.26083 0
M  V30 5974 C 595.333 -1.34397 -3.3408 0
M  V30 5975 C 595.186 -2.8821 -3.45333 0
M  V30 5976 C 596.505 -0.971069 -4.29253 0
M  V30 5977 H 593.624 -0.298821 -0.673702 0
M  V30 5978 H 596.266 -1.34629 -1.34071 0
M  V30 5979 H 594.416 -0.895064 -3.78049 0
M  V30 5980 H 596.088 -3.41488 -3.10134 0
M  V30 5981 H 594.331 -3.25756 -2.86471 0
M  V30 5982 H 595.002 -3.20047 -4.49749 0
M  V30 5983 H 597.478 -1.35809 -3.93313 0
M  V30 5984 H 596.354 -1.36586 -5.31635 0
M  V30 5985 H 596.615 0.121659 -4.41933 0
M  V30 5986 N 595.674 1.31259 -0.872281 0
M  V30 5987 C 596.621 2.28459 -0.327857 0
M  V30 5988 C 597.591 1.55831 0.574957 0
M  V30 5989 O 598.776 1.83965 0.506101 0
M  V30 5990 C 595.916 3.41985 0.462644 0
M  V30 5991 C 595.029 4.29458 -0.467949 0
M  V30 5992 C 594.164 5.30131 0.336903 0
M  V30 5993 C 593.203 6.0925 -0.58997 0
M  V30 5994 N 592.34 7.01872 0.178775 0
M  V30 5995 H 597.18 2.74414 -1.16193 0
M  V30 5996 H 594.717 1.34994 -0.584376 0
M  V30 5997 H 596.675 4.06547 0.936759 0
M  V30 5998 H 595.305 2.97134 1.2614 0
M  V30 5999 H 594.357 3.65318 -1.06052 0
M  V30 6000 H 595.669 4.84677 -1.17856 0
M  V30 6001 H 594.823 6.0038 0.873427 0
M  V30 6002 H 593.562 4.75573 1.08079 0
M  V30 6003 H 592.567 5.37889 -1.13823 0
M  V30 6004 H 593.792 6.65894 -1.33275 0
M  V30 6005 H 591.738 6.49721 0.905435 0
M  V30 6006 H 591.655 7.54522 -0.472452 0
M  V30 6007 H 592.923 7.76382 0.696454 0
M  V30 6008 N 597.152 0.631951 1.44375 0
M  V30 6009 C 598.398 0.13697 2.02337 0
M  V30 6010 C 598.731 -1.23826 1.49602 0
M  V30 6011 O 598.006 -1.8221 0.680415 0
M  V30 6012 C 598.289 0.124536 3.59885 0
M  V30 6013 C 598.142 1.53217 4.229 0
M  V30 6014 C 599.461 -0.550481 4.36644 0
M  V30 6015 H 596.58 0.051247 0.735216 0
M  V30 6016 H 599.222 0.808581 1.71936 0
M  V30 6017 H 597.372 -0.44737 3.85916 0
M  V30 6018 H 599.044 2.15303 4.07973 0
M  V30 6019 H 597.287 2.0858 3.80364 0
M  V30 6020 H 597.958 1.4755 5.31914 0
M  V30 6021 H 600.434 -0.0641154 4.16051 0
M  V30 6022 H 599.31 -0.528371 5.46351 0
M  V30 6023 H 599.571 -1.62097 4.11311 0
M  V30 6024 N 598.631 -1.53133 0.372548 0
M  V30 6025 C 599.88 -2.00539 -0.216115 0
M  V30 6026 C 600.193 -1.26374 -1.49295 0
M  V30 6027 O 601.399 -1.64404 -2.16064 0
M  V30 6028 C 599.855 -3.57253 -0.435678 0
M  V30 6029 C 599.463 -4.40302 0.82693 0
M  V30 6030 C 601.207 -4.12995 -0.981618 0
M  V30 6031 C 599.114 -5.88583 0.576567 0
M  V30 6032 H 598.044 -0.749246 -0.084536 0
M  V30 6033 H 600.695 -1.76771 0.492364 0
M  V30 6034 H 599.077 -3.77202 -1.20559 0
M  V30 6035 H 600.251 -4.32124 1.60017 0
M  V30 6036 H 598.566 -3.95699 1.29659 0
M  V30 6037 H 601.163 -5.21418 -1.18436 0
M  V30 6038 H 601.506 -3.68027 -1.94581 0
M  V30 6039 H 602.039 -3.96871 -0.271696 0
M  V30 6040 H 598.778 -6.37841 1.51128 0
M  V30 6041 H 598.298 -5.99592 -0.158047 0
M  V30 6042 H 599.977 -6.46676 0.204722 0
M  V30 6043 N 600.109 -0.101901 -1.5727 0
M  V30 6044 C 601.072 0.840129 -2.13247 0
M  V30 6045 C 602.072 1.20625 -1.06331 0
M  V30 6046 O 603.262 1.13456 -1.32186 0
M  V30 6047 C 600.394 2.13372 -2.65867 0
M  V30 6048 H 601.587 0.353945 -2.97804 0
M  V30 6049 H 599.14 0.147167 -1.55606 0
M  V30 6050 H 599.875 2.66461 -1.84849 0
M  V30 6051 H 599.66 1.88085 -3.44044 0
M  V30 6052 H 601.15 2.80748 -3.09145 0
M  V30 6053 N 601.587 1.56661 0.17182 0
M  V30 6054 C 602.864 1.72838 0.915778 0
M  V30 6055 C 603.244 0.66316 2.00413 0
M  V30 6056 O 602.592 -0.322123 2.26218 0
M  V30 6057 C 602.802 3.16019 1.48097 0
M  V30 6058 C 604.15 3.76962 1.95408 0
M  V30 6059 O 605.174 3.19294 1.57892 0
M  V30 6060 O 604.033 4.78219 2.64516 0
M  V30 6061 H 601.127 0.705797 0.431021 0
M  V30 6062 H 603.673 1.68947 0.159689 0
M  V30 6063 H 602.445 3.85031 0.697618 0
M  V30 6064 H 602.068 3.24234 2.30126 0
M  V30 6065 N 603.065 -0.440357 1.51323 0
M  V30 6066 C 604.028 -1.51679 1.71832 0
M  V30 6067 C 605.028 -1.49648 0.588386 0
M  V30 6068 O 606.218 -1.51724 0.855891 0
M  V30 6069 C 603.35 -2.91228 1.77199 0
M  V30 6070 H 604.543 -1.34799 2.67898 0
M  V30 6071 H 602.096 -0.66883 1.41267 0
M  V30 6072 H 602.831 -3.13516 0.829363 0
M  V30 6073 H 602.616 -2.94107 2.59314 0
M  V30 6074 H 604.106 -3.69321 1.94915 0
M  V30 6075 N 604.543 -1.41418 -0.695603 0
M  V30 6076 C 605.49 -1.43264 -1.80954 0
M  V30 6077 C 606.46 -0.287016 -1.63601 0
M  V30 6078 O 607.645 -0.488054 -1.84452 0
M  V30 6079 C 604.785 -1.32054 -3.18835 0
M  V30 6080 C 603.898 -2.56485 -3.4762 0
M  V30 6081 C 603.033 -2.3757 -4.75115 0
M  V30 6082 C 602.072 -3.57477 -4.96867 0
M  V30 6083 N 601.209 -3.37632 -6.15588 0
M  V30 6084 H 606.049 -2.38467 -1.78711 0
M  V30 6085 H 603.586 -1.18415 -0.872715 0
M  V30 6086 H 605.544 -1.23558 -3.98484 0
M  V30 6087 H 604.174 -0.404592 -3.20254 0
M  V30 6088 H 603.226 -2.75432 -2.62376 0
M  V30 6089 H 604.538 -3.45678 -3.59594 0
M  V30 6090 H 603.692 -2.2654 -5.62818 0
M  V30 6091 H 602.431 -1.45834 -4.65386 0
M  V30 6092 H 601.436 -3.68961 -4.07612 0
M  V30 6093 H 602.661 -4.50167 -5.08455 0
M  V30 6094 H 600.607 -2.48596 -6.07072 0
M  V30 6095 H 600.524 -4.20401 -6.2833 0
M  V30 6096 H 601.792 -3.30375 -7.06026 0
M  V30 6097 N 606.021 0.929856 -1.27246 0
M  V30 6098 C 607.249 1.71144 -1.16265 0
M  V30 6099 C 607.664 1.867 0.280786 0
M  V30 6100 O 607.021 1.38249 1.19136 0
M  V30 6101 C 607.072 3.11222 -1.83911 0
M  V30 6102 O 606.793 2.96398 -3.22614 0
M  V30 6103 C 608.294 4.05541 -1.79028 0
M  V30 6104 H 605.514 0.535499 -0.404328 0
M  V30 6105 H 608.058 1.16492 -1.68077 0
M  V30 6106 H 606.213 3.6274 -1.36009 0
M  V30 6107 H 606.627 3.8494 -3.56261 0
M  V30 6108 H 608.101 5.01351 -2.30978 0
M  V30 6109 H 608.578 4.32589 -0.759168 0
M  V30 6110 H 609.184 3.59947 -2.26535 0
M  V30 6111 N 607.499 1.09233 1.13605 0
M  V30 6112 C 608.776 0.739633 1.81077 0
M  V30 6113 C 609.156 -0.775595 1.96336 0
M  V30 6114 O 608.504 -1.69726 1.52988 0
M  V30 6115 C 608.714 1.47636 3.16235 0
M  V30 6116 C 610.062 1.64087 3.91613 0
M  V30 6117 O 611.086 1.43871 3.25852 0
M  V30 6118 O 609.945 1.97511 5.0956 0
M  V30 6119 H 607.039 0.265464 0.783236 0
M  V30 6120 H 609.585 1.19441 1.20549 0
M  V30 6121 H 608.357 2.50818 3.00344 0
M  V30 6122 H 607.98 1.01362 3.84462 0
M  V30 6123 N 608.977 -1.30795 0.87923 0
M  V30 6124 C 610.393 -1.48981 0.57243 0
M  V30 6125 C 610.593 -1.80719 -0.891236 0
M  V30 6126 O 609.649 -1.89136 -1.67283 0
M  V30 6127 C 610.962 -2.61721 1.48063 0
M  V30 6128 C 612.51 -2.75603 1.48365 0
M  V30 6129 C 612.985 -3.91449 2.37763 0
M  V30 6130 N 614.476 -3.98751 2.35695 0
M  V30 6131 C 615.211 -4.87684 3.01583 0
M  V30 6132 N 614.707 -5.81454 3.76674 0
M  V30 6133 N 616.5 -4.81005 2.90844 0
M  V30 6134 H 608.651 -1.08465 1.82617 0
M  V30 6135 H 610.914 -0.536813 0.781368 0
M  V30 6136 H 610.62 -2.45073 2.52254 0
M  V30 6137 H 610.494 -3.58071 1.18596 0
M  V30 6138 H 612.881 -2.9166 0.44927 0
M  V30 6139 H 612.962 -1.79891 1.81859 0
M  V30 6140 H 612.606 -3.76149 3.41283 0
M  V30 6141 H 612.536 -4.86487 2.01589 0
M  V30 6142 H 615.027 -3.31668 1.81121 0
M  V30 6143 H 615.34 -6.46063 4.24054 0
M  V30 6144 H 613.685 -5.81403 3.80782 0
M  V30 6145 H 616.876 -4.06728 2.31711 0
M  V30 6146 H 617.049 -5.50107 3.42471 0
M  V30 6147 N 610.455 -0.639598 -1.44038 0
M  V30 6148 C 611.701 -0.147698 -2.02261 0
M  V30 6149 C 612.034 1.23031 -1.50256 0
M  V30 6150 O 611.309 1.81847 -0.690068 0
M  V30 6151 C 611.592 -0.14362 -3.59813 0
M  V30 6152 C 611.445 -1.55458 -4.22082 0
M  V30 6153 C 612.764 0.527317 -4.36929 0
M  V30 6154 H 609.883 -0.0551453 -0.734934 0
M  V30 6155 H 612.525 -0.817688 -1.71505 0
M  V30 6156 H 610.675 0.426898 -3.86147 0
M  V30 6157 H 612.347 -2.17464 -4.06826 0
M  V30 6158 H 610.59 -2.10594 -3.79253 0
M  V30 6159 H 611.261 -1.50369 -5.31124 0
M  V30 6160 H 613.737 0.0420504 -4.16079 0
M  V30 6161 H 612.613 0.499389 -5.46624 0
M  V30 6162 H 612.874 1.59914 -4.12165 0
M  V30 6163 N 611.933 1.52934 -0.380664 0
M  V30 6164 C 612.863 2.29118 0.450268 0
M  V30 6165 C 613.844 1.32153 1.07096 0
M  V30 6166 O 615.029 1.61038 1.08537 0
M  V30 6167 C 612.159 3.09161 1.58231 0
M  V30 6168 C 611.113 4.13938 1.0881 0
M  V30 6169 C 610.439 4.82153 2.31155 0
M  V30 6170 C 611.739 5.22048 0.162146 0
M  V30 6171 H 613.433 2.98826 -0.185361 0
M  V30 6172 H 610.979 1.43715 -0.0905886 0
M  V30 6173 H 612.932 3.61211 2.17036 0
M  V30 6174 H 611.656 2.3717 2.2454 0
M  V30 6175 H 610.315 3.62855 0.522633 0
M  V30 6176 H 609.963 4.06719 2.95953 0
M  V30 6177 H 609.663 5.52966 1.98752 0
M  V30 6178 H 611.187 5.37004 2.90618 0
M  V30 6179 H 612.601 5.6951 0.658126 0
M  V30 6180 H 610.998 6.00057 -0.0717122 0
M  V30 6181 H 612.068 4.78398 -0.791438 0
M  V30 6182 N 613.412 0.11024 1.57214 0
M  V30 6183 C 614.66 -0.548783 1.94506 0
M  V30 6184 C 614.981 -1.67772 0.99386 0
M  V30 6185 O 614.251 -1.9584 0.0485841 0
M  V30 6186 H 612.831 -0.205715 0.718116 0
M  V30 6187 H 615.493 0.177127 1.94093 0
M  V30 6188 H 614.589 -0.949096 2.97319 0
M  V30 6189 N 614.89 -1.56749 -0.16351 0
M  V30 6190 C 616.136 -1.82704 -0.880168 0
M  V30 6191 C 616.469 -0.689311 -1.81555 0
M  V30 6192 O 615.744 0.308224 -1.92042 0
M  V30 6193 C 616.027 -3.19084 -1.66905 0
M  V30 6194 C 615.88 -4.43397 -0.756269 0
M  V30 6195 C 617.199 -3.52493 -2.63509 0
M  V30 6196 H 614.318 -0.664608 -0.318535 0
M  V30 6197 H 616.96 -1.89438 -0.146036 0
M  V30 6198 H 615.11 -3.13475 -2.2949 0
M  V30 6199 H 616.782 -4.61079 -0.14269 0
M  V30 6200 H 615.025 -4.33752 -0.0647944 0
M  V30 6201 H 615.696 -5.3539 -1.34393 0
M  V30 6202 H 618.172 -3.58606 -2.11047 0
M  V30 6203 H 617.048 -4.48979 -3.15767 0
M  V30 6204 H 617.309 -2.77597 -3.44082 0
M  V30 6205 N 616.368 0.432326 -1.51554 0
M  V30 6206 C 617.318 1.52366 -1.69614 0
M  V30 6207 C 618.302 1.51205 -0.550083 0
M  V30 6208 O 619.494 1.57573 -0.806206 0
M  V30 6209 C 616.623 2.90513 -1.82913 0
M  V30 6210 C 615.709 2.9641 -3.03318 0
M  V30 6211 N 616.1 2.72043 -4.26411 0
M  V30 6212 C 614.398 3.27572 -3.02675 0
M  V30 6213 C 615.099 2.83912 -5.07709 0
M  V30 6214 N 614.075 3.15798 -4.42462 0
M  V30 6215 H 617.877 1.32285 -2.62446 0
M  V30 6216 H 615.391 0.639708 -1.4927 0
M  V30 6217 H 617.388 3.69032 -1.93962 0
M  V30 6218 H 616.048 3.1161 -0.912655 0
M  V30 6219 H 617.059 2.46876 -4.55272 0
M  V30 6220 H 613.736 3.54411 -2.20678 0
M  V30 6221 H 615.126 2.68984 -6.15709 0
M  V30 6222 N 617.846 1.41785 0.688094 0
M  V30 6223 C 619.092 1.41753 1.4503 0
M  V30 6224 C 619.425 0.0290745 1.94178 0
M  V30 6225 O 618.7 -0.944456 1.7003 0
M  V30 6226 C 618.983 2.43069 2.65686 0
M  V30 6227 C 618.836 3.91053 2.22256 0
M  V30 6228 C 620.155 2.41543 3.67893 0
M  V30 6229 H 617.274 0.516202 0.526027 0
M  V30 6230 H 619.916 1.73111 0.783105 0
M  V30 6231 H 618.066 2.1646 3.2261 0
M  V30 6232 H 619.738 4.28594 1.70602 0
M  V30 6233 H 617.981 4.05559 1.53963 0
M  V30 6234 H 618.652 4.57501 3.08863 0
M  V30 6235 H 621.128 2.65175 3.20658 0
M  V30 6236 H 620.004 3.14434 4.49914 0
M  V30 6237 H 620.265 1.43666 4.18106 0
M  V30 6238 N 619.324 -0.923095 1.27737 0
M  V30 6239 C 620.573 -1.66581 1.13727 0
M  V30 6240 C 620.886 -1.9304 -0.315433 0
M  V30 6241 O 622.092 -2.65309 -0.57651 0
M  V30 6242 C 620.548 -3.00047 1.98745 0
M  V30 6243 C 620.156 -2.8127 3.48699 0
M  V30 6244 C 621.9 -3.77887 1.93395 0
M  V30 6245 C 619.807 -4.1032 4.25901 0
M  V30 6246 H 618.737 -0.624834 0.422017 0
M  V30 6247 H 621.388 -1.02514 1.52194 0
M  V30 6248 H 619.77 -3.65197 1.53125 0
M  V30 6249 H 620.944 -2.24859 4.02213 0
M  V30 6250 H 619.259 -2.16854 3.55476 0
M  V30 6251 H 621.856 -4.73526 2.48348 0
M  V30 6252 H 622.199 -4.06264 0.908605 0
M  V30 6253 H 622.732 -3.19541 2.36935 0
M  V30 6254 H 619.471 -3.8712 5.28978 0
M  V30 6255 H 618.991 -4.66377 3.77163 0
M  V30 6256 H 620.67 -4.78648 4.35321 0
M  V30 6257 N 620.802 -1.09834 -1.13024 0
M  V30 6258 C 622.05 -0.835297 -1.8403 0
M  V30 6259 C 622.371 0.640944 -1.84165 0
M  V30 6260 O 621.641 1.46517 -1.30037 0
M  V30 6261 H 620.221 -0.306018 -0.681441 0
M  V30 6262 H 622.883 -1.38734 -1.36891 0
M  V30 6263 H 621.979 -1.19258 -2.88416 0
M  V30 6264 N 622.28 1.30327 -0.886154 0
M  V30 6265 C 623.691 1.78243 -0.555554 0
M  V30 6266 C 624.042 1.72849 0.928314 0
M  V30 6267 O 623.167 1.30607 1.72542 0
M  V30 6268 C 623.762 3.23654 -1.00168 0
M  V30 6269 C 622.321 3.69401 -0.722471 0
M  V30 6270 C 621.468 2.50753 -1.18399 0
M  V30 6271 H 624.419 1.1718 -1.07026 0
M  V30 6272 H 624.44 3.79056 -0.331152 0
M  V30 6273 H 623.952 3.27548 -2.08169 0
M  V30 6274 H 622.053 3.70995 0.345496 0
M  V30 6275 H 622.166 4.60818 -1.31085 0
M  V30 6276 H 620.53 2.47452 -0.603303 0
M  V30 6277 H 621.313 2.57383 -2.27176 0
M  V30 6278 N 623.758 0.647228 1.43697 0
M  V30 6279 C 624.983 0.164083 2.0675 0
M  V30 6280 C 625.408 -1.15892 1.48158 0
M  V30 6281 O 624.766 -1.71459 0.589194 0
M  V30 6282 C 624.814 0.0800368 3.60511 0
M  V30 6283 O 623.918 -0.959453 4.01084 0
M  V30 6284 H 623.259 0.0921288 0.657578 0
M  V30 6285 H 625.789 0.88846 1.84303 0
M  V30 6286 H 625.799 -0.105263 4.07864 0
M  V30 6287 H 624.474 1.04586 4.02535 0
M  V30 6288 H 623.051 -0.747425 3.65333 0
M  V30 6289 N 625.236 -1.5273 0.388769 0
M  V30 6290 C 626.199 -2.25043 -0.434544 0
M  V30 6291 C 627.199 -1.26661 -0.990644 0
M  V30 6292 O 628.389 -1.50762 -0.872731 0
M  V30 6293 C 625.521 -3.00507 -1.60961 0
M  V30 6294 H 626.714 -2.99242 0.198549 0
M  V30 6295 H 624.267 -1.55664 0.140875 0
M  V30 6296 H 625.002 -2.30607 -2.28015 0
M  V30 6297 H 624.787 -3.72716 -1.21757 0
M  V30 6298 H 626.277 -3.55413 -2.19251 0
M  V30 6299 N 626.714 -0.118576 -1.57153 0
M  V30 6300 C 627.677 0.817464 -2.14127 0
M  V30 6301 C 628.677 1.1949 -1.07604 0
M  V30 6302 O 629.867 1.12048 -1.33382 0
M  V30 6303 C 626.999 2.10541 -2.68115 0
M  V30 6304 H 628.192 0.322339 -2.98163 0
M  V30 6305 H 625.745 0.130655 -1.55753 0
M  V30 6306 H 626.48 2.64485 -1.87665 0
M  V30 6307 H 626.265 1.84425 -3.4602 0
M  V30 6308 H 627.755 2.77453 -3.12105 0
M  V30 6309 N 628.193 1.56834 0.155195 0
M  V30 6310 C 629.103 2.009 1.21146 0
M  V30 6311 C 630.119 0.923029 1.475 0
M  V30 6312 O 631.295 1.23189 1.59331 0
M  V30 6313 C 628.36 2.37378 2.52691 0
M  V30 6314 C 627.421 3.59883 2.34057 0
M  V30 6315 C 626.654 3.94612 3.59329 0
M  V30 6316 O 626.877 3.30104 4.65175 0
M  V30 6317 O 625.811 4.87895 3.52479 0
M  V30 6318 H 629.637 2.9105 0.867371 0
M  V30 6319 H 627.222 1.44916 0.363298 0
M  V30 6320 H 629.104 2.61737 3.3026 0
M  V30 6321 H 627.779 1.50385 2.86646 0
M  V30 6322 H 626.686 3.40722 1.54465 0
M  V30 6323 H 628.019 4.47468 2.0502 0
M  V30 6324 N 629.671 -0.424282 1.51781 0
M  V30 6325 C 630.601 -1.52305 1.7699 0
M  V30 6326 C 631.582 -1.5839 0.620209 0
M  V30 6327 O 632.767 -1.73908 0.864268 0
M  V30 6328 C 629.897 -2.90271 1.90683 0
M  V30 6329 C 628.851 -2.99043 3.06198 0
M  V30 6330 C 628.177 -4.39116 3.05092 0
M  V30 6331 C 629.477 -2.7192 4.45934 0
M  V30 6332 H 631.171 -1.31461 2.68995 0
M  V30 6333 H 628.717 -0.630985 1.29439 0
M  V30 6334 H 630.67 -3.6711 2.06901 0
M  V30 6335 H 629.394 -3.12376 0.953365 0
M  V30 6336 H 628.053 -2.24646 2.89706 0
M  V30 6337 H 627.701 -4.58207 2.07498 0
M  V30 6338 H 627.401 -4.45912 3.82669 0
M  V30 6339 H 628.925 -5.17911 3.2342 0
M  V30 6340 H 630.339 -3.38487 4.62709 0
M  V30 6341 H 628.736 -2.90111 5.25315 0
M  V30 6342 H 629.806 -1.67445 4.55072 0
M  V30 6343 N 631.149 -1.42148 -0.680565 0
M  V30 6344 C 632.395 -1.42521 -1.44277 0
M  V30 6345 C 632.728 -0.0393718 -1.9416 0
M  V30 6346 O 632.003 0.935425 -1.70529 0
M  V30 6347 C 632.286 -2.44475 -2.64394 0
M  V30 6348 C 632.139 -3.92226 -2.20179 0
M  V30 6349 C 633.458 -2.43491 -3.66606 0
M  V30 6350 H 630.577 -0.518985 -0.523282 0
M  V30 6351 H 633.219 -1.73524 -0.773914 0
M  V30 6352 H 631.369 -2.18168 -3.21458 0
M  V30 6353 H 633.041 -4.29493 -1.68327 0
M  V30 6354 H 631.284 -4.0637 -1.5181 0
M  V30 6355 H 631.955 -4.59133 -3.06433 0
M  V30 6356 H 634.431 -2.66872 -3.19247 0
M  V30 6357 H 633.307 -3.16816 -4.4824 0
M  V30 6358 H 633.568 -1.45881 -4.17338 0
M  V30 6359 N 632.627 0.916307 -1.28225 0
M  V30 6360 C 633.559 2.02303 -1.07732 0
M  V30 6361 C 634.572 1.62773 -0.0298421 0
M  V30 6362 O 635.761 1.76406 -0.272626 0
M  V30 6363 C 632.861 3.33282 -0.614504 0
M  V30 6364 C 632.034 4.01439 -1.73682 0
M  V30 6365 C 631.093 5.10698 -1.26781 0
M  V30 6366 O 630.119 5.34038 -1.96958 0
M  V30 6367 N 631.321 5.80355 -0.129624 0
M  V30 6368 H 634.086 2.20442 -2.03041 0
M  V30 6369 H 631.647 1.08744 -1.19943 0
M  V30 6370 H 633.639 4.03699 -0.284397 0
M  V30 6371 H 632.209 3.11633 0.245664 0
M  V30 6372 H 631.429 3.24604 -2.23665 0
M  V30 6373 H 632.717 4.43721 -2.48976 0
M  V30 6374 H 632.115 5.6386 0.455847 0
M  V30 6375 H 630.672 6.51647 0.141224 0
M  V30 6376 N 634.105 1.10431 1.1244 0
M  V30 6377 C 635.037 0.710945 2.17895 0
M  V30 6378 C 636.05 -0.252315 1.60833 0
M  V30 6379 O 637.239 -0.03679 1.78462 0
M  V30 6380 C 634.339 0.0284262 3.38888 0
M  V30 6381 C 633.512 1.01585 4.2544 0
M  V30 6382 C 632.571 0.364826 5.24934 0
M  V30 6383 O 631.597 1.01561 5.60066 0
M  V30 6384 N 632.799 -0.87674 5.73841 0
M  V30 6385 H 635.564 1.61826 2.52255 0
M  V30 6386 H 633.125 0.993132 1.27861 0
M  V30 6387 H 635.117 -0.418568 4.0253 0
M  V30 6388 H 633.687 -0.781294 3.02679 0
M  V30 6389 H 632.907 1.64111 3.58415 0
M  V30 6390 H 634.195 1.68425 4.80115 0
M  V30 6391 H 633.593 -1.42483 5.47462 0
M  V30 6392 H 632.15 -1.26688 6.39369 0
M  V30 6393 N 635.583 -1.29855 0.893053 0
M  V30 6394 C 636.831 -1.9544 0.514566 0
M  V30 6395 C 637.152 -1.70795 -0.940959 0
M  V30 6396 O 636.422 -1.03601 -1.66264 0
M  V30 6397 H 635.002 -0.723137 0.187302 0
M  V30 6398 H 637.664 -1.58234 1.13789 0
M  V30 6399 H 636.76 -3.04341 0.691581 0
M  V30 6400 N 637.061 -0.65484 -1.43351 0
M  V30 6401 C 638.024 0.0263562 -2.29185 0
M  V30 6402 C 639.024 0.748951 -1.42293 0
M  V30 6403 O 640.214 0.589957 -1.63906 0
M  V30 6404 C 637.346 1.04806 -3.2439 0
M  V30 6405 H 638.539 -0.728883 -2.90908 0
M  V30 6406 H 636.092 -0.416149 -1.50658 0
M  V30 6407 H 636.827 1.83247 -2.67565 0
M  V30 6408 H 636.612 0.533554 -3.88453 0
M  V30 6409 H 638.102 1.52372 -3.88809 0
M  V30 6410 N 638.539 1.52521 -0.396863 0
M  V30 6411 C 639.788 2.00857 0.184184 0
M  V30 6412 C 640.101 1.28733 1.47265 0
M  V30 6413 O 641.307 1.67821 2.13421 0
M  V30 6414 C 639.763 3.57901 0.378787 0
M  V30 6415 C 639.371 4.38931 -0.896873 0
M  V30 6416 C 641.115 4.14504 0.915789 0
M  V30 6417 C 639.022 5.87591 -0.670133 0
M  V30 6418 H 637.952 0.750496 0.0726055 0
M  V30 6419 H 640.603 1.75965 -0.520425 0
M  V30 6420 H 638.985 3.79072 1.14543 0
M  V30 6421 H 640.159 4.29524 -1.66872 0
M  V30 6422 H 638.474 3.93586 -1.35938 0
M  V30 6423 H 641.071 5.23236 1.10126 0
M  V30 6424 H 641.414 3.71076 1.88701 0
M  V30 6425 H 641.947 3.97253 0.208523 0
M  V30 6426 H 638.686 6.35355 -1.61257 0
M  V30 6427 H 638.206 5.99767 0.0626368 0
M  V30 6428 H 639.885 6.46268 -0.307577 0
M  V30 6429 N 640.017 0.126909 1.57088 0
M  V30 6430 C 640.98 -0.806097 2.14557 0
M  V30 6431 C 641.98 -1.18918 1.08236 0
M  V30 6432 O 643.17 -1.11339 1.33975 0
M  V30 6433 C 640.302 -2.09116 2.69227 0
M  V30 6434 H 641.495 -0.306522 2.98329 0
M  V30 6435 H 639.048 -0.122393 1.5582 0
M  V30 6436 H 639.783 -2.63486 1.89065 0
M  V30 6437 H 639.568 -1.82588 3.46993 0
M  V30 6438 H 641.058 -2.75794 3.13572 0
M  V30 6439 N 641.495 -1.56914 -0.146875 0
M  V30 6440 C 642.428 -1.93425 -1.21087 0
M  V30 6441 C 643.406 -0.800106 -1.41552 0
M  V30 6442 O 644.59 -1.05572 -1.56162 0
M  V30 6443 C 641.717 -2.20639 -2.56975 0
M  V30 6444 C 640.763 -3.43279 -2.53104 0
M  V30 6445 S 641.596 -4.96836 -1.99786 0
M  V30 6446 C 642.752 -5.27172 -3.37403 0
M  V30 6447 H 642.985 -2.8337 -0.899378 0
M  V30 6448 H 640.518 -1.50322 -0.352494 0
M  V30 6449 H 642.476 -2.36998 -3.35175 0
M  V30 6450 H 641.137 -1.31357 -2.85314 0
M  V30 6451 H 640.33 -3.59599 -3.53136 0
M  V30 6452 H 639.932 -3.26163 -1.83012 0
M  V30 6453 H 642.224 -5.20647 -4.33513 0
M  V30 6454 H 643.167 -6.28626 -3.25937 0
M  V30 6455 H 643.575 -4.54687 -3.34544 0
M  V30 6456 N 642.974 0.416227 -1.52004 0
M  V30 6457 C 643.884 1.53147 -1.77717 0
M  V30 6458 C 644.9 1.609 -0.662368 0
M  V30 6459 O 646.076 1.77747 -0.946991 0
M  V30 6460 C 643.141 2.88948 -1.91598 0
M  V30 6461 C 642.202 2.9114 -3.15493 0
M  V30 6462 C 641.435 4.20464 -3.28703 0
M  V30 6463 O 641.658 5.13981 -2.47345 0
M  V30 6464 O 640.592 4.29368 -4.21813 0
M  V30 6465 H 644.418 1.34357 -2.72363 0
M  V30 6466 H 642.003 0.601373 -1.36762 0
M  V30 6467 H 643.885 3.69505 -2.02593 0
M  V30 6468 H 642.56 3.07821 -1.00141 0
M  V30 6469 H 641.467 2.09461 -3.09962 0
M  V30 6470 H 642.8 2.77216 -4.06709 0
M  V30 6471 N 644.452 1.42507 0.673017 0
M  V30 6472 C 645.699 1.43072 1.43306 0
M  V30 6473 C 646.027 0.0478004 1.94441 0
M  V30 6474 O 645.282 -0.944106 1.71421 0
M  V30 6475 C 645.581 2.40351 2.64511 0
M  V30 6476 C 645.247 3.8669 2.31908 0
M  V30 6477 C 643.909 4.26551 2.22728 0
M  V30 6478 C 646.261 4.78991 2.05467 0
M  V30 6479 C 643.589 5.56691 1.85234 0
M  V30 6480 C 645.941 6.09476 1.69477 0
M  V30 6481 C 644.605 6.48334 1.58808 0
M  V30 6482 H 643.875 0.523536 0.524395 0
M  V30 6483 H 646.522 1.75459 0.76723 0
M  V30 6484 H 644.827 2.01297 3.36135 0
M  V30 6485 H 646.524 2.38051 3.22696 0
M  V30 6486 H 643.114 3.55132 2.39956 0
M  V30 6487 H 647.298 4.48982 2.11492 0
M  V30 6488 H 642.554 5.85657 1.75545 0
M  V30 6489 H 646.728 6.80482 1.48043 0
M  V30 6490 H 644.355 7.49084 1.29525 0
M  V30 6491 N 645.93 -0.909495 1.28709 0
M  V30 6492 C 647.178 -1.65577 1.15882 0
M  V30 6493 C 647.499 -1.928 -0.292108 0
M  V30 6494 O 646.769 -1.54716 -1.20166 0
M  V30 6495 H 645.349 -0.613714 0.425869 0
M  V30 6496 H 648.011 -1.09108 1.61498 0
M  V30 6497 H 647.107 -2.61634 1.70159 0
M  V30 6498 N 647.408 -1.11026 -1.11852 0
M  V30 6499 C 648.636 -0.878818 -1.87308 0
M  V30 6500 C 649.051 0.57111 -1.79955 0
M  V30 6501 O 648.408 1.39409 -1.17777 0
M  V30 6502 C 648.459 -1.3264 -3.36287 0
M  V30 6503 O 648.18 -2.71948 -3.43476 0
M  V30 6504 C 649.681 -1.12974 -4.28663 0
M  V30 6505 H 646.901 -0.315015 -0.592458 0
M  V30 6506 H 649.445 -1.47649 -1.41492 0
M  V30 6507 H 647.6 -0.772269 -3.79625 0
M  V30 6508 H 648.014 -2.91241 -4.3621 0
M  V30 6509 H 649.488 -1.49198 -5.31454 0
M  V30 6510 H 649.965 -0.0689127 -4.39146 0
M  V30 6511 H 650.571 -1.67064 -3.91113 0
M  V30 6512 N 648.886 1.2938 -0.899927 0
M  V30 6513 C 650.111 2.00228 -0.540692 0
M  V30 6514 C 650.536 1.66909 0.867359 0
M  V30 6515 O 649.894 0.893824 1.57735 0
M  V30 6516 C 649.942 3.52921 -0.740232 0
M  V30 6517 O 649.046 4.11879 0.207154 0
M  V30 6518 H 648.387 0.629505 -0.211233 0
M  V30 6519 H 650.917 1.6487 -1.21158 0
M  V30 6520 H 650.927 4.0287 -0.644973 0
M  V30 6521 H 649.602 3.76508 -1.76677 0
M  V30 6522 H 648.179 3.72845 0.0643315 0
M  V30 6523 N 650.364 0.662433 1.43002 0
M  V30 6524 C 651.327 -0.0142016 2.29196 0
M  V30 6525 C 652.327 -0.741394 1.42688 0
M  V30 6526 O 653.517 -0.581257 1.64216 0
M  V30 6527 C 650.649 -1.03084 3.24941 0
M  V30 6528 H 651.842 0.7443 2.90517 0
M  V30 6529 H 649.395 0.424133 1.50435 0
M  V30 6530 H 650.13 -1.81826 2.68533 0
M  V30 6531 H 649.915 -0.512946 3.8873 0
M  V30 6532 H 651.405 -1.50308 3.89612 0
M  V30 6533 N 651.842 -1.52309 0.404946 0
M  V30 6534 C 652.752 -2.30634 -0.429555 0
M  V30 6535 C 653.768 -1.38187 -1.05737 0
M  V30 6536 O 654.944 -1.71261 -1.05979 0
M  V30 6537 C 652.009 -3.10947 -1.53339 0
M  V30 6538 C 651.07 -4.19126 -0.929065 0
M  V30 6539 C 650.303 -4.95601 -1.9803 0
M  V30 6540 O 650.526 -4.72331 -3.1978 0
M  V30 6541 O 649.46 -5.80551 -1.58886 0
M  V30 6542 H 653.286 -3.0298 0.208963 0
M  V30 6543 H 650.871 -1.4845 0.168255 0
M  V30 6544 H 652.753 -3.60974 -2.1743 0
M  V30 6545 H 651.428 -2.41399 -2.15658 0
M  V30 6546 H 650.335 -3.73257 -0.250982 0
M  V30 6547 H 651.668 -4.90955 -0.349855 0
M  V30 6548 N 653.32 -0.135238 -1.57019 0
M  V30 6549 C 654.597 0.563227 -1.87316 0
M  V30 6550 C 654.977 1.83749 -1.03921 0
M  V30 6551 O 654.325 2.2817 -0.122675 0
M  V30 6552 C 654.535 0.840031 -3.3874 0
M  V30 6553 C 655.883 1.18598 -4.077 0
M  V30 6554 O 656.907 0.92977 -3.43851 0
M  V30 6555 O 655.766 1.66758 -5.20436 0
M  V30 6556 H 652.86 0.285971 -0.775983 0
M  V30 6557 H 655.406 -0.170965 -1.68837 0
M  V30 6558 H 654.178 -0.0622785 -3.9125 0
M  V30 6559 H 653.801 1.62882 -3.62706 0
M  V30 6560 N 654.798 1.5699 0.138552 0
M  V30 6561 C 655.728 2.01933 1.17241 0
M  V30 6562 C 656.709 0.90033 1.44319 0
M  V30 6563 O 657.894 1.16872 1.55095 0
M  V30 6564 C 655.024 2.40711 2.50351 0
M  V30 6565 C 653.978 3.55874 2.37776 0
M  V30 6566 C 653.304 3.80491 3.75674 0
M  V30 6567 C 654.604 4.8826 1.85472 0
M  V30 6568 H 656.298 2.88551 0.798672 0
M  V30 6569 H 653.844 1.3882 0.382743 0
M  V30 6570 H 655.797 2.70754 3.22909 0
M  V30 6571 H 654.521 1.5104 2.89576 0
M  V30 6572 H 653.18 3.2601 1.67669 0
M  V30 6573 H 652.828 2.88057 4.12349 0
M  V30 6574 H 652.528 4.57998 3.68119 0
M  V30 6575 H 654.052 4.12967 4.49767 0
M  V30 6576 H 655.466 5.16965 2.4783 0
M  V30 6577 H 653.863 5.69631 1.88787 0
M  V30 6578 H 654.933 4.78071 0.810935 0
M  V30 6579 N 656.276 -0.40816 1.52223 0
M  V30 6580 C 657.524 -1.15274 1.66001 0
M  V30 6581 C 657.845 -1.91003 0.392803 0
M  V30 6582 O 657.115 -1.8673 -0.592336 0
M  V30 6583 H 655.695 -0.428526 0.611861 0
M  V30 6584 H 658.357 -0.46512 1.89269 0
M  V30 6585 H 657.453 -1.86628 2.50153 0
M  V30 6586 N 657.755 -1.42862 -0.66545 0
M  V30 6587 C 658.688 -1.41509 -1.79026 0
M  V30 6588 C 659.666 -0.278106 -1.60204 0
M  V30 6589 O 660.85 -0.469792 -1.82552 0
M  V30 6590 C 657.977 -1.21494 -3.1616 0
M  V30 6591 C 657.023 -2.38308 -3.53711 0
M  V30 6592 S 657.856 -4.00852 -3.55075 0
M  V30 6593 C 659.012 -3.83197 -4.94885 0
M  V30 6594 H 659.245 -2.36691 -1.79902 0
M  V30 6595 H 656.778 -1.29746 -0.836977 0
M  V30 6596 H 658.736 -1.10633 -3.95311 0
M  V30 6597 H 657.397 -0.27881 -3.1286 0
M  V30 6598 H 656.59 -2.20076 -4.53412 0
M  V30 6599 H 656.192 -2.45732 -2.81943 0
M  V30 6600 H 658.484 -3.44765 -5.83218 0
M  V30 6601 H 659.427 -4.82607 -5.18166 0
M  V30 6602 H 659.835 -3.15884 -4.67843 0
M  V30 6603 N 659.233 0.902656 -1.29189 0
M  V30 6604 C 660.166 2.00816 -1.0839 0
M  V30 6605 C 661.144 1.626 0.00335266 0
M  V30 6606 O 662.328 1.87928 -0.146765 0
M  V30 6607 C 659.455 3.32415 -0.649435 0
M  V30 6608 C 658.501 3.89617 -1.73496 0
M  V30 6609 S 659.334 4.19091 -3.33351 0
M  V30 6610 C 660.49 5.53736 -2.91766 0
M  V30 6611 H 660.723 2.18151 -2.01984 0
M  V30 6612 H 658.256 1.0489 -1.13303 0
M  V30 6613 H 660.214 4.08492 -0.405479 0
M  V30 6614 H 658.875 3.12964 0.266857 0
M  V30 6615 H 658.068 4.84658 -1.38284 0
M  V30 6616 H 657.67 3.20217 -1.93229 0
M  V30 6617 H 659.962 6.34085 -2.38627 0
M  V30 6618 H 660.905 5.93871 -3.85647 0
M  V30 6619 H 661.313 5.15453 -2.30149 0
M  V30 6620 N 660.711 1.11618 1.11262 0
M  V30 6621 C 661.957 0.867463 1.83311 0
M  V30 6622 C 662.29 -0.605366 1.84524 0
M  V30 6623 O 661.565 -1.44704 1.29965 0
M  V30 6624 C 661.848 1.43207 3.30399 0
M  V30 6625 C 661.701 2.97265 3.3757 0
M  V30 6626 C 663.02 1.08454 4.26528 0
M  V30 6627 H 660.139 0.316578 0.665543 0
M  V30 6628 H 662.781 1.38137 1.30454 0
M  V30 6629 H 660.931 0.994982 3.75543 0
M  V30 6630 H 662.603 3.49591 3.00971 0
M  V30 6631 H 660.846 3.33237 2.77733 0
M  V30 6632 H 661.517 3.31859 4.41105 0
M  V30 6633 H 663.993 1.4619 3.89574 0
M  V30 6634 H 662.869 1.50633 5.27826 0
M  V30 6635 H 663.13 -0.00444568 4.421 0
M  V30 6636 N 662.189 -1.289 0.906776 0
M  V30 6637 C 663.436 -1.95269 0.536326 0
M  V30 6638 C 663.764 -1.71435 -0.918711 0
M  V30 6639 O 663.019 -1.02431 -1.66752 0
M  V30 6640 C 663.318 -3.48704 0.783617 0
M  V30 6641 C 662.984 -3.92626 2.21711 0
M  V30 6642 C 661.646 -4.04329 2.60906 0
M  V30 6643 C 663.998 -4.15218 3.15029 0
M  V30 6644 C 661.326 -4.35998 3.92584 0
M  V30 6645 C 663.678 -4.48365 4.46264 0
M  V30 6646 C 662.342 -4.58278 4.85322 0
M  V30 6647 H 661.612 -0.714538 0.196256 0
M  V30 6648 H 664.259 -1.53366 1.14678 0
M  V30 6649 H 662.564 -3.91696 0.0903048 0
M  V30 6650 H 664.261 -3.98162 0.476267 0
M  V30 6651 H 660.851 -3.84038 1.90296 0
M  V30 6652 H 665.035 -4.05636 2.8596 0
M  V30 6653 H 660.291 -4.41878 4.22557 0
M  V30 6654 H 664.465 -4.64795 5.18593 0
M  V30 6655 H 662.092 -4.82573 5.87391 0
M  V30 6656 N 663.667 -0.670007 -1.42649 0
M  V30 6657 C 664.63 0.00204659 -2.292 0
M  V30 6658 C 665.63 0.733817 -1.4308 0
M  V30 6659 O 666.82 0.57254 -1.64522 0
M  V30 6660 C 663.952 1.01359 -3.25483 0
M  V30 6661 H 665.145 -0.759696 -2.90118 0
M  V30 6662 H 662.698 -0.432105 -1.50208 0
M  V30 6663 H 663.433 1.80399 -2.69493 0
M  V30 6664 H 663.218 0.492323 -3.88997 0
M  V30 6665 H 664.708 1.4824 -3.90403 0
M  V30 6666 N 665.145 1.52092 -0.413018 0
M  V30 6667 C 666.095 2.23947 0.427993 0
M  V30 6668 C 667.079 1.25229 1.01027 0
M  V30 6669 O 668.271 1.50448 0.932444 0
M  V30 6670 C 665.4 3.0672 1.542 0
M  V30 6671 C 664.486 4.12851 0.970307 0
M  V30 6672 N 664.877 5.05644 0.125611 0
M  V30 6673 C 663.175 4.28404 1.24042 0
M  V30 6674 C 663.876 5.8138 -0.192876 0
M  V30 6675 N 662.852 5.41996 0.417273 0
M  V30 6676 H 666.654 2.93048 -0.223628 0
M  V30 6677 H 664.168 1.60852 -0.223664 0
M  V30 6678 H 666.165 3.56754 2.15714 0
M  V30 6679 H 664.825 2.39159 2.19621 0
M  V30 6680 H 665.836 5.17348 -0.238995 0
M  V30 6681 H 662.513 3.72071 1.89391 0
M  V30 6682 H 663.903 6.66129 -0.878762 0
M  V30 6683 N 666.623 0.143563 1.56945 0
M  V30 6684 C 668.034 -0.37783 1.82837 0
M  V30 6685 C 668.385 -1.64967 1.06209 0
M  V30 6686 O 667.51 -2.14221 0.306291 0
M  V30 6687 C 668.105 -0.692274 3.31652 0
M  V30 6688 C 666.664 -1.1582 3.58138 0
M  V30 6689 C 665.811 -0.17951 2.76718 0
M  V30 6690 H 668.762 0.368317 1.54367 0
M  V30 6691 H 668.783 -1.54729 3.47619 0
M  V30 6692 H 668.295 0.233572 3.87397 0
M  V30 6693 H 666.396 -2.10011 3.07776 0
M  V30 6694 H 666.509 -1.08655 4.66616 0
M  V30 6695 H 664.873 -0.671458 2.4569 0
M  V30 6696 H 665.656 0.739865 3.35233 0
M  V30 6697 N 668.101 -1.57061 -0.130224 0
M  V30 6698 C 669.064 -1.98593 -1.14426 0
M  V30 6699 C 670.064 -0.874584 -1.34936 0
M  V30 6700 O 671.254 -1.14086 -1.31643 0
M  V30 6701 C 668.386 -2.31639 -2.50112 0
M  V30 6702 H 669.579 -2.89374 -0.787561 0
M  V30 6703 H 667.132 -1.51756 -0.374146 0
M  V30 6704 H 667.867 -1.43703 -2.90723 0
M  V30 6705 H 667.652 -3.12684 -2.36583 0
M  V30 6706 H 669.142 -2.64551 -3.23114 0
M  V30 6707 N 669.579 0.400081 -1.52437 0
M  V30 6708 C 670.509 1.4947 -1.7939 0
M  V30 6709 C 671.49 1.57383 -0.645329 0
M  V30 6710 O 672.675 1.72511 -0.891826 0
M  V30 6711 C 669.805 2.87201 -1.95276 0
M  V30 6712 C 668.759 2.94134 -3.10917 0
M  V30 6713 C 668.085 4.34207 -3.1204 0
M  V30 6714 C 669.385 2.64791 -4.50203 0
M  V30 6715 H 671.079 1.27165 -2.71052 0
M  V30 6716 H 668.625 0.610312 -1.30427 0
M  V30 6717 H 670.578 3.63772 -2.12715 0
M  V30 6718 H 669.302 3.10819 -1.00294 0
M  V30 6719 H 667.961 2.20009 -2.93243 0
M  V30 6720 H 667.609 4.54848 -2.14761 0
M  V30 6721 H 667.309 4.39768 -3.89715 0
M  V30 6722 H 668.833 5.127 -3.31619 0
M  V30 6723 H 670.247 3.31083 -4.68035 0
M  V30 6724 H 668.644 2.81717 -5.29864 0
M  V30 6725 H 669.714 1.60184 -4.57678 0
M  V30 6726 N 671.057 1.43213 0.657864 0
M  V30 6727 C 672.282 1.48227 1.45064 0
M  V30 6728 C 672.707 0.0999939 1.87834 0
M  V30 6729 O 672.065 -0.905269 1.57081 0
M  V30 6730 C 672.113 2.42931 2.6649 0
M  V30 6731 O 671.217 1.91237 3.6538 0
M  V30 6732 H 670.558 0.501551 0.435135 0
M  V30 6733 H 673.088 1.8808 0.805431 0
M  V30 6734 H 673.098 2.6008 3.1436 0
M  V30 6735 H 671.773 3.43348 2.34701 0
M  V30 6736 H 670.35 1.83726 3.24498 0
M  V30 6737 N 672.536 -0.895792 1.29666 0
M  V30 6738 C 673.446 -2.03329 1.17024 0
M  V30 6739 C 674.462 -1.73753 0.0925962 0
M  V30 6740 O 675.638 -1.99071 0.305431 0
M  V30 6741 C 672.703 -3.36072 0.851841 0
M  V30 6742 C 671.764 -3.7914 2.01373 0
M  V30 6743 C 670.997 -5.05549 1.71043 0
M  V30 6744 O 671.22 -5.66874 0.633213 0
M  V30 6745 O 670.154 -5.44764 2.5596 0
M  V30 6746 H 673.98 -2.16918 2.12556 0
M  V30 6747 H 671.565 -1.02007 1.09156 0
M  V30 6748 H 673.447 -4.15729 0.689006 0
M  V30 6749 H 672.122 -3.23616 -0.0736634 0
M  V30 6750 H 671.029 -3.00233 2.23183 0
M  V30 6751 H 672.362 -3.96186 2.92058 0
M  V30 6752 N 674.014 -1.12206 -1.10668 0
M  V30 6753 C 674.977 -0.790867 -2.15123 0
M  V30 6754 C 675.977 0.193618 -1.5963 0
M  V30 6755 O 677.167 -0.0318728 -1.74171 0
M  V30 6756 C 674.299 -0.174797 -3.40452 0
M  V30 6757 H 675.492 -1.7163 -2.45933 0
M  V30 6758 H 673.045 -0.924993 -1.2599 0
M  V30 6759 H 673.78 0.760478 -3.15257 0
M  V30 6760 H 673.565 -0.88358 -3.82015 0
M  V30 6761 H 675.055 0.0405162 -4.1758 0
M  V30 6762 N 675.492 1.28418 -0.913599 0
M  V30 6763 C 676.422 2.29713 -0.418847 0
M  V30 6764 C 677.403 1.62165 0.513469 0
M  V30 6765 O 678.588 1.89576 0.421235 0
M  V30 6766 C 675.718 3.45612 0.342042 0
M  V30 6767 C 674.672 4.25056 -0.501123 0
M  V30 6768 C 673.998 5.3329 0.388097 0
M  V30 6769 C 675.298 4.91814 -1.75831 0
M  V30 6770 H 676.992 2.71346 -1.26538 0
M  V30 6771 H 674.538 1.30446 -0.609903 0
M  V30 6772 H 676.491 4.15562 0.699 0
M  V30 6773 H 675.215 3.02858 1.22248 0
M  V30 6774 H 673.874 3.56833 -0.840598 0
M  V30 6775 H 673.522 4.8678 1.26707 0
M  V30 6776 H 673.222 5.87347 -0.172459 0
M  V30 6777 H 674.746 6.06088 0.74094 0
M  V30 6778 H 676.16 5.54126 -1.47026 0
M  V30 6779 H 674.557 5.55866 -2.26126 0
M  V30 6780 H 675.627 4.16313 -2.4862 0
M  V30 6781 N 676.97 0.677563 1.42291 0
M  V30 6782 C 677.92 -0.0218641 2.2799 0
M  V30 6783 C 678.904 -0.770816 1.41235 0
M  V30 6784 O 680.096 -0.649273 1.64662 0
M  V30 6785 C 677.225 -0.970449 3.29298 0
M  V30 6786 C 676.311 -0.218695 4.23536 0
M  V30 6787 N 676.702 0.777908 4.99782 0
M  V30 6788 C 675 -0.456748 4.43655 0
M  V30 6789 C 675.701 1.22632 5.68627 0
M  V30 6790 N 674.677 0.55573 5.40752 0
M  V30 6791 H 678.479 0.742516 2.84366 0
M  V30 6792 H 675.993 0.506862 1.54288 0
M  V30 6793 H 677.99 -1.48652 3.89497 0
M  V30 6794 H 676.65 -1.73463 2.74483 0
M  V30 6795 H 677.661 1.15754 5.04798 0
M  V30 6796 H 674.338 -1.20021 3.99877 0
M  V30 6797 H 675.728 2.05231 6.39789 0
M  V30 6798 N 678.448 -1.51871 0.421078 0
M  V30 6799 C 679.358 -2.31077 -0.405069 0
M  V30 6800 C 680.374 -1.39301 -1.04265 0
M  V30 6801 O 681.55 -1.72376 -1.04157 0
M  V30 6802 C 678.615 -3.12556 -1.50032 0
M  V30 6803 C 677.676 -4.20088 -0.884559 0
M  V30 6804 C 676.909 -4.97673 -1.92762 0
M  V30 6805 O 677.132 -4.75696 -3.14753 0
M  V30 6806 O 676.066 -5.82203 -1.52719 0
M  V30 6807 H 679.892 -3.02742 0.241086 0
M  V30 6808 H 677.477 -1.48263 0.183991 0
M  V30 6809 H 679.359 -3.6326 -2.13589 0
M  V30 6810 H 678.034 -2.43672 -2.13086 0
M  V30 6811 H 676.941 -3.73502 -0.211379 0
M  V30 6812 H 678.274 -4.91298 -0.297763 0
M  V30 6813 N 679.926 -0.151884 -1.56866 0
M  V30 6814 C 680.889 0.771861 -2.15812 0
M  V30 6815 C 681.889 1.17181 -1.10115 0
M  V30 6816 O 683.079 1.09194 -1.35729 0
M  V30 6817 C 680.211 2.04806 -2.7252 0
M  V30 6818 H 681.404 0.259021 -2.98779 0
M  V30 6819 H 678.957 0.097588 -1.55995 0
M  V30 6820 H 679.692 2.60445 -1.93233 0
M  V30 6821 H 679.477 1.77044 -3.49854 0
M  V30 6822 H 680.967 2.70771 -3.1792 0
M  V30 6823 N 681.404 1.57128 0.121893 0
M  V30 6824 C 682.367 1.99197 1.13372 0
M  V30 6825 C 683.367 0.881728 1.3447 0
M  V30 6826 O 684.557 1.14783 1.31036 0
M  V30 6827 C 681.689 2.32963 2.4888 0
M  V30 6828 H 682.882 2.89788 0.772204 0
M  V30 6829 H 680.435 1.51952 0.366093 0
M  V30 6830 H 681.17 1.45243 2.89957 0
M  V30 6831 H 680.955 3.13934 2.34921 0
M  V30 6832 H 682.445 2.66261 3.21706 0
M  V30 6833 N 682.882 -0.391992 1.52647 0
M  V30 6834 C 683.812 -1.48517 1.8018 0
M  V30 6835 C 684.793 -1.57039 0.653667 0
M  V30 6836 O 685.978 -1.72036 0.900962 0
M  V30 6837 C 683.108 -2.86161 1.96797 0
M  V30 6838 C 682.062 -2.92481 3.12472 0
M  V30 6839 C 681.388 -4.32546 3.14338 0
M  V30 6840 C 682.688 -2.624 4.51601 0
M  V30 6841 H 684.382 -1.25726 2.71723 0
M  V30 6842 H 681.928 -0.603387 1.30749 0
M  V30 6843 H 683.881 -3.62639 2.14641 0
M  V30 6844 H 682.605 -3.10283 1.01941 0
M  V30 6845 H 681.264 -2.18451 2.94406 0
M  V30 6846 H 680.912 -4.53703 2.1717 0
M  V30 6847 H 680.612 -4.37695 3.92042 0
M  V30 6848 H 682.136 -5.10934 3.34333 0
M  V30 6849 H 683.55 -3.28596 4.69785 0
M  V30 6850 H 681.947 -2.78903 5.3135 0
M  V30 6851 H 683.017 -1.57754 4.58521 0
M  V30 6852 N 684.36 -1.4356 -0.65026 0
M  V30 6853 C 685.323 -1.48615 -1.74489 0
M  V30 6854 C 686.323 -0.370483 -1.56474 0
M  V30 6855 O 687.513 -0.632351 -1.62317 0
M  V30 6856 C 684.645 -1.34161 -3.13391 0
M  V30 6857 H 685.838 -2.46103 -1.71387 0
M  V30 6858 H 683.391 -1.30369 -0.862186 0
M  V30 6859 H 684.126 -0.376918 -3.22102 0
M  V30 6860 H 683.911 -2.1504 -3.27872 0
M  V30 6861 H 685.401 -1.40637 -3.93206 0
M  V30 6862 N 685.838 0.888903 -1.30139 0
M  V30 6863 C 687.084 1.6428 -1.18912 0
M  V30 6864 C 687.417 1.92499 0.256477 0
M  V30 6865 O 686.692 1.54312 1.18397 0
M  V30 6866 C 686.975 2.9851 -2.01405 0
M  V30 6867 C 686.828 2.77288 -3.54163 0
M  V30 6868 C 688.147 3.99383 -1.84882 0
M  V30 6869 H 685.266 0.596148 -0.433333 0
M  V30 6870 H 687.908 1.0289 -1.5973 0
M  V30 6871 H 686.058 3.50907 -1.66722 0
M  V30 6872 H 687.73 2.31709 -3.98884 0
M  V30 6873 H 685.973 2.11867 -3.78543 0
M  V30 6874 H 686.644 3.72717 -4.07168 0
M  V30 6875 H 689.12 3.56132 -2.15196 0
M  V30 6876 H 687.996 4.91222 -2.44934 0
M  V30 6877 H 688.257 4.34674 -0.806902 0
M  V30 6878 N 687.317 1.12792 1.10072 0
M  V30 6879 C 688.542 0.908838 1.86427 0
M  V30 6880 C 688.967 -0.536793 1.80278 0
M  V30 6881 O 688.325 -1.38033 1.17543 0
M  V30 6882 C 688.373 1.39295 3.3261 0
M  V30 6883 O 687.477 0.573846 4.08388 0
M  V30 6884 H 686.818 0.326234 0.578331 0
M  V30 6885 H 689.348 1.50094 1.39043 0
M  V30 6886 H 689.358 1.39366 3.83459 0
M  V30 6887 H 688.033 2.44555 3.36401 0
M  V30 6888 H 686.61 0.640438 3.67359 0
M  V30 6889 N 688.795 -1.27931 0.920396 0
M  V30 6890 C 690.043 -1.94304 0.555906 0
M  V30 6891 C 690.364 -1.72753 -0.904519 0
M  V30 6892 O 689.634 -1.07104 -1.64029 0
M  V30 6893 H 688.214 -0.719001 0.202599 0
M  V30 6894 H 690.876 -1.55785 1.1712 0
M  V30 6895 H 689.972 -3.02806 0.755981 0
M  V30 6896 N 690.273 -0.685099 -1.4193 0
M  V30 6897 C 691.223 0.00977295 -2.27998 0
M  V30 6898 C 692.207 0.763315 -1.41641 0
M  V30 6899 O 693.399 0.640532 -1.65004 0
M  V30 6900 C 690.528 0.952972 -3.29808 0
M  V30 6901 C 689.614 0.196231 -4.23646 0
M  V30 6902 N 690.005 -0.804401 -4.99363 0
M  V30 6903 C 688.303 0.433213 -4.43891 0
M  V30 6904 C 689.004 -1.25646 -5.67968 0
M  V30 6905 N 687.98 -0.5844 -5.4045 0
M  V30 6906 H 691.782 -0.757586 -2.83968 0
M  V30 6907 H 689.296 -0.515037 -1.54017 0
M  V30 6908 H 691.293 1.46585 -3.9028 0
M  V30 6909 H 689.953 1.72004 -2.75399 0
M  V30 6910 H 690.964 -1.18429 -5.04177 0
M  V30 6911 H 687.641 1.17899 -4.00507 0
M  V30 6912 H 689.031 -2.08622 -6.38691 0
M  V30 6913 N 691.751 1.51645 -0.429126 0
M  V30 6914 C 692.714 2.26116 0.374726 0
M  V30 6915 C 693.714 1.29242 0.956714 0
M  V30 6916 O 694.904 1.53022 0.832452 0
M  V30 6917 C 692.036 3.04669 1.52937 0
M  V30 6918 H 693.229 2.9861 -0.277818 0
M  V30 6919 H 690.782 1.55236 -0.182097 0
M  V30 6920 H 691.517 2.36571 2.21821 0
M  V30 6921 H 691.302 3.75814 1.11833 0
M  V30 6922 H 692.792 3.61102 2.09751 0
M  V30 6923 N 693.229 0.160201 1.56784 0
M  V30 6924 C 694.478 -0.487619 1.95717 0
M  V30 6925 C 694.791 -1.65136 1.0483 0
M  V30 6926 O 695.997 -2.36468 1.33398 0
M  V30 6927 C 694.453 -0.91888 3.47972 0
M  V30 6928 C 694.061 0.218655 4.47466 0
M  V30 6929 C 695.805 -1.53575 3.95746 0
M  V30 6930 C 693.712 -0.231614 5.90946 0
M  V30 6931 H 692.642 -0.185939 0.730714 0
M  V30 6932 H 695.293 0.246657 1.81835 0
M  V30 6933 H 693.675 -1.70881 3.57234 0
M  V30 6934 H 694.849 0.995825 4.49911 0
M  V30 6935 H 693.164 0.744767 4.09685 0
M  V30 6936 H 695.761 -1.88448 5.00391 0
M  V30 6937 H 696.104 -2.42959 3.38048 0
M  V30 6938 H 696.637 -0.810467 3.89456 0
M  V30 6939 H 693.376 0.62718 6.52493 0
M  V30 6940 H 692.896 -0.974379 5.91833 0
M  V30 6941 H 694.575 -0.67922 6.43425 0
M  V30 6942 N 694.707 -1.5719 -0.113559 0
M  V30 6943 C 695.657 -1.97166 -1.14497 0
M  V30 6944 C 696.641 -0.847413 -1.36776 0
M  V30 6945 O 697.833 -1.11114 -1.37777 0
M  V30 6946 C 694.962 -2.38411 -2.47013 0
M  V30 6947 C 694.048 -3.5748 -2.28185 0
M  V30 6948 N 694.439 -4.72998 -1.79182 0
M  V30 6949 C 692.737 -3.63218 -2.58821 0
M  V30 6950 C 693.438 -5.55007 -1.74191 0
M  V30 6951 N 692.414 -4.9765 -2.18735 0
M  V30 6952 H 696.216 -2.83937 -0.758733 0
M  V30 6953 H 693.73 -1.59191 -0.321234 0
M  V30 6954 H 695.727 -2.65269 -3.21618 0
M  V30 6955 H 694.387 -1.53007 -2.8639 0
M  V30 6956 H 695.398 -4.96109 -1.48649 0
M  V30 6957 H 692.075 -2.88434 -3.01847 0
M  V30 6958 H 693.465 -6.57678 -1.37512 0
M  V30 6959 N 696.185 0.383891 -1.52853 0
M  V30 6960 C 697.431 1.13009 -1.68395 0
M  V30 6961 C 697.764 1.89488 -0.425195 0
M  V30 6962 O 697.039 1.8574 0.577136 0
M  V30 6963 C 697.322 2.10419 -2.92226 0
M  V30 6964 C 697.175 1.3767 -4.28214 0
M  V30 6965 C 698.494 3.10781 -3.11614 0
M  V30 6966 H 695.613 0.409463 -0.612788 0
M  V30 6967 H 698.255 0.412895 -1.85459 0
M  V30 6968 H 696.405 2.71579 -2.77808 0
M  V30 6969 H 698.077 0.794352 -4.54409 0
M  V30 6970 H 696.32 0.678533 -4.2846 0
M  V30 6971 H 696.991 2.08874 -5.10956 0
M  V30 6972 H 699.467 2.59715 -3.25096 0
M  V30 6973 H 698.343 3.76179 -3.99725 0
M  V30 6974 H 698.604 3.79933 -2.2606 0
M  V30 6975 N 697.663 1.43903 0.642637 0
M  V30 6976 C 698.626 1.49538 1.73698 0
M  V30 6977 C 699.626 0.378776 1.56275 0
M  V30 6978 O 700.816 0.64095 1.6198 0
M  V30 6979 C 697.948 1.35821 3.12675 0
M  V30 6980 H 699.141 2.47008 1.70079 0
M  V30 6981 H 696.694 1.30824 0.85526 0
M  V30 6982 H 697.429 0.393994 3.21898 0
M  V30 6983 H 697.214 2.16776 3.26727 0
M  V30 6984 H 698.704 1.4272 3.92455 0
M  V30 6985 N 699.141 -0.881989 1.30609 0
M  V30 6986 C 700.089 -2.00942 1.17155 0
M  V30 6987 C 701.083 -1.69198 0.0827154 0
M  V30 6988 O 702.289 -1.78342 0.243775 0
M  V30 6989 H 698.664 -0.658913 0.362406 0
M  V30 6990 H 700.635 -2.09423 2.12567 0
M  V30 6991 C 699.384 -3.36294 0.883273 0
M  V30 6992 H 698.707 -3.61233 1.7132 0
M  V30 6993 H 700.147 -4.15812 0.829255 0
M  V30 6994 C 698.606 -3.34348 -0.413851 0
M  V30 6995 O 699.136 -3.75216 -1.43444 0
M  V30 6996 N 697.342 -2.87459 -0.426082 0
M  V30 6997 H 696.889 -2.54397 0.40493 0
M  V30 6998 H 696.847 -2.8654 -1.29391 0
M  V30 6999 N 700.619 -1.13374 -1.09472 0
M  V30 7000 C 702.035 -0.871846 -1.33682 0
M  V30 7001 C 702.235 0.492847 -1.9538 0
M  V30 7002 O 701.291 1.23946 -2.19985 0
M  V30 7003 C 702.604 -1.99608 -2.24893 0
M  V30 7004 C 704.152 -2.02812 -2.38404 0
M  V30 7005 C 704.627 -3.14497 -3.3295 0
M  V30 7006 N 706.118 -3.14004 -3.40523 0
M  V30 7007 C 706.853 -3.97061 -4.13679 0
M  V30 7008 N 706.349 -4.90131 -4.89636 0
M  V30 7009 N 708.142 -3.85162 -4.09398 0
M  V30 7010 H 700.293 -2.01288 -0.677995 0
M  V30 7011 H 702.556 -0.876492 -0.361201 0
M  V30 7012 H 702.262 -2.98 -1.86786 0
M  V30 7013 H 702.136 -1.90981 -3.25278 0
M  V30 7014 H 704.523 -1.05034 -2.75775 0
M  V30 7015 H 704.604 -2.15511 -1.37799 0
M  V30 7016 H 704.248 -4.12514 -2.96302 0
M  V30 7017 H 704.178 -2.99035 -4.33458 0
M  V30 7018 H 706.669 -2.46587 -2.86362 0
M  V30 7019 H 706.982 -5.49996 -5.42885 0
M  V30 7020 H 705.327 -4.94138 -4.88726 0
M  V30 7021 H 708.518 -3.11779 -3.49158 0
M  V30 7022 H 708.691 -4.5012 -4.6615 0
M  V30 7023 N 702.098 1.27442 -0.927168 0
M  V30 7024 C 703.045 2.26863 -0.424459 0
M  V30 7025 C 704.015 1.5813 0.508346 0
M  V30 7026 O 705.2 1.85946 0.42762 0
M  V30 7027 C 702.34 3.43639 0.31718 0
M  V30 7028 C 701.453 4.27087 -0.649675 0
M  V30 7029 C 700.588 5.31082 0.111753 0
M  V30 7030 C 699.627 6.062 -0.847843 0
M  V30 7031 N 698.764 7.01999 -0.119074 0
M  V30 7032 H 703.604 2.69239 -1.27728 0
M  V30 7033 H 701.141 1.32394 -0.641106 0
M  V30 7034 H 703.099 4.10155 0.763486 0
M  V30 7035 H 701.729 3.02217 1.13424 0
M  V30 7036 H 700.781 3.60491 -1.21451 0
M  V30 7037 H 702.093 4.79242 -1.38307 0
M  V30 7038 H 701.247 6.03544 0.618 0
M  V30 7039 H 699.986 4.7973 0.878114 0
M  V30 7040 H 698.991 5.32577 -1.36534 0
M  V30 7041 H 700.216 6.59642 -1.61398 0
M  V30 7042 H 698.162 6.52977 0.629051 0
M  V30 7043 H 698.079 7.5184 -0.792046 0
M  V30 7044 H 699.347 7.78638 0.366537 0
M  V30 7045 N 703.576 0.692616 1.41565 0
M  V30 7046 C 704.523 0.0254264 2.30786 0
M  V30 7047 C 705.493 -0.774347 1.46946 0
M  V30 7048 O 706.678 -0.742981 1.7574 0
M  V30 7049 C 703.818 -0.907123 3.32964 0
M  V30 7050 C 702.931 -0.0992784 4.31886 0
M  V30 7051 C 702.066 -1.0292 5.21134 0
M  V30 7052 C 701.105 -0.214088 6.11725 0
M  V30 7053 N 700.242 -1.09766 6.93467 0
M  V30 7054 H 705.082 0.792036 2.87282 0
M  V30 7055 H 702.619 0.4023 1.41492 0
M  V30 7056 H 704.577 -1.46181 3.90752 0
M  V30 7057 H 703.207 -1.64016 2.78026 0
M  V30 7058 H 702.259 0.572287 3.76071 0
M  V30 7059 H 703.571 0.532782 4.95946 0
M  V30 7060 H 702.725 -1.65321 5.83741 0
M  V30 7061 H 701.464 -1.69512 4.57293 0
M  V30 7062 H 700.469 0.42302 5.4817 0
M  V30 7063 H 701.694 0.447995 6.77621 0
M  V30 7064 H 699.64 -1.74965 6.32237 0
M  V30 7065 H 699.557 -0.521099 7.54202 0
M  V30 7066 H 700.825 -1.70858 7.60544 0
M  V30 7067 O 705.093 -1.50756 0.579208 0
M  V30 7068 H 705.784 -1.93523 0.0829038 0
M  V30 END ATOM
M  V30 BEGIN BOND
M  V30 END BOND
M  V30 END CTAB
M  END
$$$$
