drugbank_target|P19079 Cytidine deaminase (DB03562)
 OpenBabel12092120033D

  0  0  0     0  0            999 V3000
M  V30 BEGIN CTAB
M  V30 COUNTS 2068 2081 0 0 0
M  V30 BEGIN ATOM
M  V30 1 H -0.908 1.98254 -0.117106 0
M  V30 2 N 0 1.576 0 0
M  V30 3 C 0.933 2.03868 1.02534 0
M  V30 4 C 1.911 0.928543 1.3348 0
M  V30 5 O 3.095 1.19667 1.45644 0
M  V30 6 C 0.222 2.43627 2.35294 0
M  V30 7 C -0.732 3.65373 2.2001 0
M  V30 8 S 0.101 5.13292 1.52614 0
M  V30 9 C 1.257 5.56322 2.86805 0
M  V30 10 H 1.49 2.90518 0.631377 0
M  V30 11 H -0.977 1.52953 0.210867 0
M  V30 12 H 0.981 2.67203 3.11629 0
M  V30 13 H -0.358 1.57376 2.7183 0
M  V30 14 H -1.165 3.90944 3.18086 0
M  V30 15 H -1.563 3.418 1.51819 0
M  V30 16 H 0.729 5.58782 3.83104 0
M  V30 17 H 1.672 6.56266 2.65933 0
M  V30 18 H 2.08 4.83886 2.90714 0
M  V30 19 N 1.4781 -0.272755 1.55222 0
M  V30 20 C 2.4261 -1.35705 1.88909 0
M  V30 21 C 3.4201 -1.5112 0.765456 0
M  V30 22 O 4.6261 -1.52901 0.949802 0
M  V30 23 H 1.0011 -0.453868 0.59959 0
M  V30 24 H 2.9721 -1.04544 2.79487 0
M  V30 25 C 1.7211 -2.71049 2.17779 0
M  V30 26 H 1.0441 -2.59979 3.03728 0
M  V30 27 H 2.4841 -3.45858 2.45272 0
M  V30 28 C 0.9431 -3.22165 0.985473 0
M  V30 29 O 1.4731 -4.01096 0.220233 0
M  V30 30 N -0.3209 -2.7985 0.783108 0
M  V30 31 H -0.7739 -2.15775 1.40708 0
M  V30 32 H -0.8159 -3.14397 -0.0130392 0
M  V30 33 N 2.9562 -1.48159 -0.537278 0
M  V30 34 C 4.3722 -1.34118 -0.865129 0
M  V30 35 C 4.5722 -0.346678 -1.98495 0
M  V30 36 O 3.6282 0.234715 -2.51407 0
M  V30 37 C 4.9412 -2.73963 -1.23954 0
M  V30 38 C 6.4892 -2.82397 -1.34984 0
M  V30 39 C 6.9642 -4.22928 -1.75772 0
M  V30 40 N 8.4552 -4.25566 -1.82887 0
M  V30 41 C 9.1902 -5.31235 -2.15817 0
M  V30 42 N 8.6862 -6.47189 -2.47222 0
M  V30 43 N 10.4792 -5.18624 -2.16761 0
M  V30 44 H 2.6302 -2.1144 0.201715 0
M  V30 45 H 4.8932 -0.947598 0.0275949 0
M  V30 46 H 4.5992 -3.48264 -0.490381 0
M  V30 47 H 4.4732 -3.0702 -2.19132 0
M  V30 48 H 6.8602 -2.08356 -2.08978 0
M  V30 49 H 6.9412 -2.5297 -0.379448 0
M  V30 50 H 6.5852 -4.97482 -1.02341 0
M  V30 51 H 6.5152 -4.49794 -2.73848 0
M  V30 52 H 9.0062 -3.41924 -1.60924 0
M  V30 53 H 9.3192 -7.23564 -2.71433 0
M  V30 54 H 7.6642 -6.50476 -2.44757 0
M  V30 55 H 10.8552 -4.27056 -1.91679 0
M  V30 56 H 11.0282 -6.01078 -2.42093 0
M  V30 57 N 4.4343 0.785586 -1.36625 0
M  V30 58 C 5.3663 1.90711 -1.2713 0
M  V30 59 C 6.3793 1.61688 -0.189986 0
M  V30 60 O 7.5683 1.72864 -0.445014 0
M  V30 61 C 4.6683 3.25611 -0.939713 0
M  V30 62 C 3.8413 3.82385 -2.12369 0
M  V30 63 C 2.9003 4.95732 -1.76456 0
M  V30 64 O 1.9263 5.12047 -2.48589 0
M  V30 65 N 3.1283 5.76258 -0.700492 0
M  V30 66 H 5.8933 1.99376 -2.23762 0
M  V30 67 H 3.4543 0.964041 -1.30069 0
M  V30 68 H 5.4463 3.98937 -0.680554 0
M  V30 69 H 4.0163 3.12538 -0.0624074 0
M  V30 70 H 3.2363 3.01001 -2.54543 0
M  V30 71 H 4.5243 4.17047 -2.9146 0
M  V30 72 H 3.9223 5.65609 -0.101624 0
M  V30 73 H 2.4793 6.4987 -0.501165 0
M  V30 74 N 5.9124 1.20967 1.01018 0
M  V30 75 C 6.8224 0.980157 2.13143 0
M  V30 76 C 7.8384 -0.0660665 1.73875 0
M  V30 77 O 9.0144 0.122821 2.01025 0
M  V30 78 C 6.0794 0.54216 3.42435 0
M  V30 79 C 5.1404 1.65999 3.95908 0
M  V30 80 C 4.3734 1.2428 5.19028 0
M  V30 81 O 4.5964 0.114196 5.70286 0
M  V30 82 O 3.5304 2.05271 5.65816 0
M  V30 83 H 7.3564 1.91913 2.35379 0
M  V30 84 H 4.9414 0.994099 1.11526 0
M  V30 85 H 6.8234 0.30744 4.20277 0
M  V30 86 H 5.4984 -0.36815 3.216 0
M  V30 87 H 4.4054 1.94906 3.19316 0
M  V30 88 H 5.7384 2.54753 4.21143 0
M  V30 89 N 7.3905 -1.2043 1.01659 0
M  V30 90 C 8.3205 -2.25466 0.607226 0
M  V30 91 C 9.3015 -1.65853 -0.377716 0
M  V30 92 O 10.4865 -1.92409 -0.263149 0
M  V30 93 C 7.6165 -3.47256 -0.0552949 0
M  V30 94 C 6.5705 -4.19462 0.850632 0
M  V30 95 C 5.8965 -5.34673 0.0538859 0
M  V30 96 C 7.1965 -4.75603 2.15868 0
M  V30 97 H 8.8905 -2.59962 1.48526 0
M  V30 98 H 6.4365 -1.2496 0.715605 0
M  V30 99 H 8.3895 -4.19917 -0.353233 0
M  V30 100 H 7.1135 -3.11924 -0.968045 0
M  V30 101 H 5.7725 -3.48667 1.13257 0
M  V30 102 H 5.4205 -4.95585 -0.860514 0
M  V30 103 H 5.1205 -5.83913 0.657192 0
M  V30 104 H 6.6445 -6.10138 -0.237598 0
M  V30 105 H 8.0585 -5.40083 1.92311 0
M  V30 106 H 6.4555 -5.3528 2.71284 0
M  V30 107 H 7.5255 -3.94346 2.82169 0
M  V30 108 N 8.8686 -0.792821 -1.36206 0
M  V30 109 C 10.1176 -0.363353 -1.984 0
M  V30 110 C 10.4306 1.07172 -1.63626 0
M  V30 111 O 11.6366 1.60362 -2.19081 0
M  V30 112 C 10.0926 -0.59872 -3.54885 0
M  V30 113 C 9.7006 -2.04543 -3.9858 0
M  V30 114 C 11.4446 -0.233926 -4.23855 0
M  V30 115 C 9.3516 -2.22727 -5.47856 0
M  V30 116 H 8.2816 -0.13212 -0.742334 0
M  V30 117 H 10.9326 -0.974935 -1.55458 0
M  V30 118 H 9.3146 0.0826222 -3.95914 0
M  V30 119 H 10.4886 -2.76345 -3.68741 0
M  V30 120 H 8.8036 -2.36879 -3.42458 0
M  V30 121 H 11.4006 -0.348027 -5.33566 0
M  V30 122 H 11.7436 0.818351 -4.08177 0
M  V30 123 H 12.2766 -0.868639 -3.882 0
M  V30 124 H 9.0156 -3.2635 -5.68486 0
M  V30 125 H 8.5356 -1.55434 -5.7931 0
M  V30 126 H 10.2146 -2.03607 -6.14128 0
M  V30 127 N 10.3467 1.47872 -0.545128 0
M  V30 128 C 11.5747 2.06889 -0.021084 0
M  V30 129 C 11.9897 1.39955 1.2672 0
M  V30 130 O 11.3467 0.492036 1.75742 0
M  V30 131 C 11.3977 3.60996 0.190817 0
M  V30 132 O 11.1187 4.25419 -1.04644 0
M  V30 133 C 12.6197 4.36849 0.753521 0
M  V30 134 H 9.8397 0.669785 -0.0403635 0
M  V30 135 H 12.3837 1.90049 -0.755095 0
M  V30 136 H 10.5387 3.77391 0.87492 0
M  V30 137 H 10.9527 5.17785 -0.836611 0
M  V30 138 H 12.4267 5.45399 0.851139 0
M  V30 139 H 12.9037 4.02306 1.762 0
M  V30 140 H 13.5097 4.25169 0.105503 0
M  V30 141 N 11.8248 0.280983 1.55075 0
M  V30 142 C 12.7348 -0.61388 2.26426 0
M  V30 143 C 13.7508 -1.16521 1.29224 0
M  V30 144 O 14.9268 -1.19426 1.62171 0
M  V30 145 C 11.9918 -1.7788 2.9759 0
M  V30 146 C 11.0528 -1.26355 4.10284 0
M  V30 147 C 10.2858 -2.37295 4.78045 0
M  V30 148 O 10.5088 -3.56777 4.45047 0
M  V30 149 O 9.4428 -2.05119 5.65871 0
M  V30 150 H 13.2688 -0.0356932 3.03679 0
M  V30 151 H 10.8538 0.0481686 1.49322 0
M  V30 152 H 12.7358 -2.45791 3.42293 0
M  V30 153 H 11.4108 -2.34397 2.23249 0
M  V30 154 H 10.3178 -0.550735 3.70024 0
M  V30 155 H 11.6508 -0.744065 4.86543 0
M  V30 156 N 13.3029 -1.57598 0.00835791 0
M  V30 157 C 14.2659 -2.07884 -0.965242 0
M  V30 158 C 15.2659 -0.989825 -1.26725 0
M  V30 159 O 16.4559 -1.25218 -1.21104 0
M  V30 160 C 13.5879 -2.52731 -2.28779 0
M  V30 161 H 14.7809 -2.95178 -0.530112 0
M  V30 162 H 12.3339 -1.54458 -0.239283 0
M  V30 163 H 13.0689 -1.68705 -2.76964 0
M  V30 164 H 12.8539 -3.32272 -2.08177 0
M  V30 165 H 14.3439 -2.91933 -2.98605 0
M  V30 166 N 14.781 0.264519 -1.55364 0
M  V30 167 C 15.711 1.33121 -1.91836 0
M  V30 168 C 16.692 1.51101 -0.781192 0
M  V30 169 O 17.877 1.64003 -1.04003 0
M  V30 170 C 15.007 2.68921 -2.19769 0
M  V30 171 C 13.961 2.65661 -3.35571 0
M  V30 172 C 13.287 4.05093 -3.49004 0
M  V30 173 C 14.587 2.24187 -4.71739 0
M  V30 174 H 16.281 1.02844 -2.81182 0
M  V30 175 H 13.827 0.493286 -1.35287 0
M  V30 176 H 15.78 3.43663 -2.43872 0
M  V30 177 H 14.504 3.00799 -1.27231 0
M  V30 178 H 13.163 1.93377 -3.1145 0
M  V30 179 H 12.811 4.34206 -2.53917 0
M  V30 180 H 12.511 4.03804 -4.26868 0
M  V30 181 H 14.035 4.81561 -3.75408 0
M  V30 182 H 15.449 2.88654 -4.9533 0
M  V30 183 H 13.846 2.34044 -5.52579 0
M  V30 184 H 14.916 1.19327 -4.69988 0
M  V30 185 N 16.2591 1.48442 0.529413 0
M  V30 186 C 17.2061 1.63007 1.63394 0
M  V30 187 C 18.1761 0.47212 1.59249 0
M  V30 188 O 19.3611 0.695673 1.77666 0
M  V30 189 C 16.5011 1.6763 3.01653 0
M  V30 190 C 15.6141 2.94535 3.16027 0
M  V30 191 C 14.7491 2.90316 4.44849 0
M  V30 192 C 13.7881 4.11923 4.52754 0
M  V30 193 N 12.9251 4.05777 5.72965 0
M  V30 194 H 17.7651 2.5733 1.50285 0
M  V30 195 H 15.3021 1.27613 0.731656 0
M  V30 196 H 17.2601 1.68292 3.81751 0
M  V30 197 H 15.8901 0.76797 3.13532 0
M  V30 198 H 14.9421 3.03615 2.29177 0
M  V30 199 H 16.2541 3.84512 3.17729 0
M  V30 200 H 15.4081 2.89382 5.33238 0
M  V30 201 H 14.1471 1.98068 4.45668 0
M  V30 202 H 13.1521 4.13131 3.62771 0
M  V30 203 H 14.3771 5.0533 4.53672 0
M  V30 204 H 12.3231 3.16351 5.74681 0
M  V30 205 H 12.2401 4.8946 5.76164 0
M  V30 206 H 13.5081 4.08904 6.6364 0
M  V30 207 N 17.7372 -0.778329 1.37039 0
M  V30 208 C 18.7002 -1.87301 1.32102 0
M  V30 209 C 19.7002 -1.59198 0.226405 0
M  V30 210 O 20.8902 -1.67403 0.481861 0
M  V30 211 C 18.0222 -3.24309 1.05055 0
M  V30 212 H 19.2152 -1.93093 2.29467 0
M  V30 213 H 16.7682 -0.977358 1.21973 0
M  V30 214 H 17.5032 -3.24196 0.0819373 0
M  V30 215 H 17.2882 -3.46098 1.84279 0
M  V30 216 H 18.7782 -4.04382 1.04234 0
M  V30 217 N 19.2153 -1.21501 -1.00376 0
M  V30 218 C 20.6313 -0.972629 -1.26539 0
M  V30 219 C 20.8313 0.340257 -1.98606 0
M  V30 220 O 19.8873 1.06561 -2.28913 0
M  V30 221 C 21.2003 -2.16404 -2.08781 0
M  V30 222 C 22.7483 -2.20643 -2.22004 0
M  V30 223 C 23.2233 -3.39306 -3.07629 0
M  V30 224 N 24.7143 -3.39401 -3.15217 0
M  V30 225 C 25.4493 -4.27867 -3.81729 0
M  V30 226 N 24.9453 -5.26533 -4.5026 0
M  V30 227 N 26.7383 -4.15672 -3.78382 0
M  V30 228 H 18.8893 -2.05929 -0.520281 0
M  V30 229 H 21.1523 -0.901803 -0.292328 0
M  V30 230 H 20.8583 -3.11554 -1.63178 0
M  V30 231 H 20.7323 -2.15567 -3.09533 0
M  V30 232 H 23.1193 -1.26048 -2.66825 0
M  V30 233 H 23.2003 -2.25523 -1.20718 0
M  V30 234 H 22.8443 -4.34195 -2.63509 0
M  V30 235 H 22.7743 -3.31665 -4.09031 0
M  V30 236 H 25.2653 -2.67997 -2.66432 0
M  V30 237 H 25.5783 -5.90337 -4.98721 0
M  V30 238 H 23.9233 -5.30457 -4.49044 0
M  V30 239 H 27.1143 -3.3785 -3.23998 0
M  V30 240 H 27.2873 -4.84825 -4.2994 0
M  V30 241 N 20.6934 1.19889 -1.02296 0
M  V30 242 C 21.9704 1.85148 -0.630832 0
M  V30 243 C 22.3504 1.91385 0.890782 0
M  V30 244 O 21.6984 1.42642 1.78509 0
M  V30 245 C 21.9084 3.24442 -1.28602 0
M  V30 246 C 23.2564 4.00663 -1.4055 0
M  V30 247 O 24.2804 3.33818 -1.24273 0
M  V30 248 O 23.1394 5.20387 -1.66913 0
M  V30 249 H 20.2334 0.797613 -0.218499 0
M  V30 250 H 22.7794 1.27427 -1.12074 0
M  V30 251 H 21.5514 3.14704 -2.32545 0
M  V30 252 H 21.1744 3.89802 -0.7836 0
M  V30 253 N 22.1715 0.800033 1.35784 0
M  V30 254 C 23.1045 0.151499 2.27697 0
M  V30 255 C 24.0825 -0.678663 1.4776 0
M  V30 256 O 25.2665 -0.647358 1.77035 0
M  V30 257 C 22.3935 -0.790492 3.29346 0
M  V30 258 C 21.4395 -0.0407832 4.26481 0
M  V30 259 S 22.2725 1.29077 5.19711 0
M  V30 260 C 23.4285 0.353055 6.24903 0
M  V30 261 H 23.6615 0.930796 2.82353 0
M  V30 262 H 21.1945 0.594767 1.42485 0
M  V30 263 H 23.1525 -1.3285 3.88409 0
M  V30 264 H 21.8135 -1.54312 2.73581 0
M  V30 265 H 21.0065 -0.755971 4.98298 0
M  V30 266 H 20.6085 0.427063 3.71554 0
M  V30 267 H 22.9005 -0.464147 6.75908 0
M  V30 268 H 23.8435 1.04023 7.00418 0
M  V30 269 H 24.2515 -0.0483344 5.64479 0
M  V30 270 N 23.6496 -1.47581 0.552962 0
M  V30 271 C 24.6126 -2.28439 -0.186605 0
M  V30 272 C 25.6126 -1.36706 -0.84665 0
M  V30 273 O 26.8026 -1.59378 -0.703164 0
M  V30 274 C 23.9346 -3.16264 -1.2724 0
M  V30 275 H 25.1276 -2.95294 0.523609 0
M  V30 276 H 22.6806 -1.532 0.309745 0
M  V30 277 H 23.4156 -2.54091 -2.01514 0
M  V30 278 H 23.2006 -3.83769 -0.803968 0
M  V30 279 H 24.6906 -3.77198 -1.79196 0
M  V30 280 N 25.1277 -0.289203 -1.54924 0
M  V30 281 C 26.3577 0.325989 -2.04012 0
M  V30 282 C 26.7657 1.48961 -1.1665 0
M  V30 283 O 26.1087 1.82794 -0.1822 0
M  V30 284 C 26.1707 0.856112 -3.49158 0
M  V30 285 C 25.8347 -0.180697 -4.56643 0
M  V30 286 C 26.8317 -1.0051 -5.10092 0
M  V30 287 C 24.5167 -0.318998 -5.01286 0
M  V30 288 C 26.5107 -1.95385 -6.06715 0
M  V30 289 C 24.1977 -1.27121 -5.97732 0
M  V30 290 C 25.1957 -2.08713 -6.50329 0
M  V30 291 O 24.8837 -3.02322 -7.44887 0
M  V30 292 H 24.6157 0.0765276 -0.671654 0
M  V30 293 H 27.1697 -0.423254 -2.00992 0
M  V30 294 H 25.3997 1.65567 -3.49463 0
M  V30 295 H 27.0887 1.38591 -3.81507 0
M  V30 296 H 27.8547 -0.90906 -4.76404 0
M  V30 297 H 23.7337 0.306108 -4.59983 0
M  V30 298 H 27.2777 -2.59111 -6.47694 0
M  V30 299 H 23.1747 -1.36801 -6.30837 0
M  V30 300 H 23.9427 -2.97165 -7.6265 0
M  V30 301 N 26.6058 1.57591 -0.0167156 0
M  V30 302 C 27.5688 2.08393 0.954204 0
M  V30 303 C 28.5688 0.996531 1.26198 0
M  V30 304 O 29.7588 1.25858 1.20438 0
M  V30 305 C 26.8908 2.5394 2.27436 0
M  V30 306 H 28.0838 2.95455 0.514451 0
M  V30 307 H 25.6368 1.54582 0.231089 0
M  V30 308 H 26.3718 1.70171 2.76066 0
M  V30 309 H 26.1568 3.33371 2.06412 0
M  V30 310 H 27.6468 2.93512 2.97053 0
M  V30 311 N 28.0839 -0.256276 1.55502 0
M  V30 312 C 29.4949 -0.826068 1.67431 0
M  V30 313 C 29.8459 -1.86396 0.612446 0
M  V30 314 O 28.9709 -2.15031 -0.243025 0
M  V30 315 C 29.5659 -1.50512 3.03532 0
M  V30 316 C 28.1249 -2.02273 3.17431 0
M  V30 317 C 27.2719 -0.870548 2.63281 0
M  V30 318 H 30.2229 -0.0322728 1.58667 0
M  V30 319 H 30.2439 -2.37279 2.97454 0
M  V30 320 H 29.7559 -0.749484 3.80794 0
M  V30 321 H 27.8569 -2.80746 2.44974 0
M  V30 322 H 27.9699 -2.22655 4.24219 0
M  V30 323 H 26.3339 -1.26851 2.20864 0
M  V30 324 H 27.1169 -0.128149 3.43061 0
M  V30 325 N 29.562 -1.4872 -0.521534 0
M  V30 326 C 30.792 -1.6061 -1.29954 0
M  V30 327 C 31.2 -0.268728 -1.87282 0
M  V30 328 O 30.543 0.753221 -1.67548 0
M  V30 329 C 30.605 -2.60013 -2.48261 0
M  V30 330 C 30.269 -4.04874 -2.11957 0
M  V30 331 C 31.266 -4.92304 -1.67132 0
M  V30 332 C 28.951 -4.5047 -2.22221 0
M  V30 333 C 30.945 -6.2336 -1.33047 0
M  V30 334 C 28.632 -5.81544 -1.87748 0
M  V30 335 C 29.63 -6.67812 -1.43234 0
M  V30 336 O 29.318 -7.96446 -1.09217 0
M  V30 337 H 29.05 -0.544116 -0.401141 0
M  V30 338 H 31.604 -1.95339 -0.634958 0
M  V30 339 H 29.834 -2.20422 -3.17728 0
M  V30 340 H 31.523 -2.61648 -3.10315 0
M  V30 341 H 32.289 -4.58312 -1.58665 0
M  V30 342 H 28.168 -3.83504 -2.55823 0
M  V30 343 H 31.712 -6.90649 -0.982299 0
M  V30 344 H 27.609 -6.15069 -1.95858 0
M  V30 345 H 28.377 -8.09275 -1.22542 0
M  V30 346 N 31.0401 0.771051 -1.3745 0
M  V30 347 C 32.2651 1.56529 -1.36065 0
M  V30 348 C 32.6901 1.88029 0.0515859 0
M  V30 349 O 32.0481 1.49282 1.02882 0
M  V30 350 C 32.0961 2.85187 -2.20683 0
M  V30 351 O 31.2001 3.79593 -1.61193 0
M  V30 352 H 30.5411 0.47411 -0.464883 0
M  V30 353 H 33.0711 0.954269 -1.80983 0
M  V30 354 H 33.0811 3.34283 -2.33921 0
M  V30 355 H 31.7561 2.61588 -3.23334 0
M  V30 356 H 30.3331 3.38239 -1.56999 0
M  V30 357 N 32.5182 1.22032 0.997298 0
M  V30 358 C 33.4652 0.986467 2.08656 0
M  V30 359 C 34.4352 -0.0902671 1.65855 0
M  V30 360 O 35.6202 0.0584294 1.90711 0
M  V30 361 C 32.7602 0.565569 3.40434 0
M  V30 362 C 31.8732 1.71259 3.96604 0
M  V30 363 C 31.0082 1.24011 5.16522 0
M  V30 364 C 30.0472 2.35896 5.64818 0
M  V30 365 N 29.1842 1.89726 6.7598 0
M  V30 366 H 34.0242 1.91892 2.27994 0
M  V30 367 H 31.5612 0.956199 1.11782 0
M  V30 368 H 33.5192 0.302738 4.161 0
M  V30 369 H 32.1492 -0.329879 3.2111 0
M  V30 370 H 31.2012 2.08986 3.17851 0
M  V30 371 H 32.5132 2.55436 4.28432 0
M  V30 372 H 31.6672 0.934395 5.99461 0
M  V30 373 H 30.4062 0.368487 4.86306 0
M  V30 374 H 29.4112 2.67261 4.8047 0
M  V30 375 H 30.6362 3.23567 5.97061 0
M  V30 376 H 28.5822 1.0492 6.47555 0
M  V30 377 H 28.4992 2.67471 7.07103 0
M  V30 378 H 29.7672 1.62211 7.62435 0
M  V30 379 N 33.9963 -1.19345 1.0293 0
M  V30 380 C 35.2433 -1.89038 0.726008 0
M  V30 381 C 35.5713 -1.79649 -0.745427 0
M  V30 382 O 34.8263 -1.18354 -1.55855 0
M  V30 383 C 35.1253 -3.39292 1.12319 0
M  V30 384 C 34.7913 -3.68885 2.59297 0
M  V30 385 C 33.4533 -3.76671 2.99453 0
M  V30 386 C 35.8053 -3.82178 3.54386 0
M  V30 387 C 33.1333 -3.9522 4.33611 0
M  V30 388 C 35.4853 -4.0224 4.88248 0
M  V30 389 C 34.1493 -4.08259 5.28092 0
M  V30 390 H 33.4193 -0.691739 0.265665 0
M  V30 391 H 36.0663 -1.41328 1.29223 0
M  V30 392 H 34.3713 -3.88903 0.475584 0
M  V30 393 H 36.0683 -3.91536 0.866037 0
M  V30 394 H 32.6583 -3.63433 2.27189 0
M  V30 395 H 36.8423 -3.75505 3.24514 0
M  V30 396 H 32.0983 -3.98119 4.64016 0
M  V30 397 H 36.2723 -4.11468 5.61843 0
M  V30 398 H 33.8993 -4.22384 6.32057 0
M  V30 399 N 35.4744 -0.807222 -1.35358 0
M  V30 400 C 36.4064 -0.175717 -2.28525 0
M  V30 401 C 37.4194 0.625354 -1.5031 0
M  V30 402 O 38.6084 0.457611 -1.72535 0
M  V30 403 C 35.7084 0.773471 -3.29956 0
M  V30 404 C 34.8814 0.0186296 -4.37396 0
M  V30 405 C 33.9404 0.886395 -5.18681 0
M  V30 406 O 32.9664 0.337106 -5.68201 0
M  V30 407 N 34.1684 2.20839 -5.36852 0
M  V30 408 H 36.9334 -0.976091 -2.83359 0
M  V30 409 H 34.4944 -0.662737 -1.47714 0
M  V30 410 H 36.4864 1.35824 -3.81227 0
M  V30 411 H 35.0564 1.47465 -2.75632 0
M  V30 412 H 34.2764 -0.747349 -3.87051 0
M  V30 413 H 35.5644 -0.501577 -5.06322 0
M  V30 414 H 34.9624 2.67858 -4.98265 0
M  V30 415 H 33.5194 2.74237 -5.91301 0
M  V30 416 N 36.9525 1.47285 -0.560781 0
M  V30 417 C 38.1985 2.02764 -0.0381184 0
M  V30 418 C 38.5315 1.43384 1.30976 0
M  V30 419 O 37.8065 0.590733 1.85312 0
M  V30 420 C 38.0895 3.60064 0.0511427 0
M  V30 421 C 37.9425 4.2987 -1.32408 0
M  V30 422 C 39.2615 4.33439 0.762795 0
M  V30 423 H 36.3805 0.736841 -0.0153264 0
M  V30 424 H 39.0225 1.75675 -0.723759 0
M  V30 425 H 37.1725 3.83274 0.635065 0
M  V30 426 H 38.8445 4.17989 -1.95148 0
M  V30 427 H 37.0875 3.90085 -1.8978 0
M  V30 428 H 37.7585 5.38478 -1.21431 0
M  V30 429 H 40.2345 4.15243 0.266965 0
M  V30 430 H 39.1105 5.43124 0.794221 0
M  V30 431 H 39.3715 4.02915 1.81966 0
M  V30 432 N 38.4306 0.297415 1.54768 0
M  V30 433 C 39.6786 -0.312295 1.99673 0
M  V30 434 C 39.9996 -1.54686 1.18732 0
M  V30 435 O 39.2696 -1.93854 0.282382 0
M  V30 436 H 37.8496 -0.118381 0.73756 0
M  V30 437 H 40.5116 0.407915 1.90583 0
M  V30 438 H 39.6076 -0.586813 3.06534 0
M  V30 439 N 39.9087 -1.5758 0.0250728 0
M  V30 440 C 40.8717 -2.08896 -0.943139 0
M  V30 441 C 41.8717 -1.00321 -1.25668 0
M  V30 442 O 43.0617 -1.26495 -1.19769 0
M  V30 443 C 40.1937 -2.55143 -2.26086 0
M  V30 444 H 41.3867 -2.95723 -0.498775 0
M  V30 445 H 38.9397 -1.54703 -0.222888 0
M  V30 446 H 39.6747 -1.71633 -2.75159 0
M  V30 447 H 39.4597 -3.34461 -2.04641 0
M  V30 448 H 40.9497 -2.95083 -2.95492 0
M  V30 449 N 41.3868 0.248026 -1.55636 0
M  V30 450 C 42.3498 1.29044 -1.89421 0
M  V30 451 C 43.3498 1.41134 -0.770581 0
M  V30 452 O 44.5398 1.39854 -1.03858 0
M  V30 453 C 41.6718 2.66831 -2.12165 0
M  V30 454 H 42.8648 1.00305 -2.82629 0
M  V30 455 H 40.4178 0.487265 -1.48511 0
M  V30 456 H 41.1528 3.00711 -1.21422 0
M  V30 457 H 40.9378 2.59438 -2.93997 0
M  V30 458 H 42.4278 3.42103 -2.3949 0
M  V30 459 N 42.8649 1.48995 0.513639 0
M  V30 460 C 43.7949 1.67636 1.62544 0
M  V30 461 C 44.7759 0.525087 1.61793 0
M  V30 462 O 45.9609 0.759502 1.78732 0
M  V30 463 C 43.0909 1.73114 3.01079 0
M  V30 464 C 42.0449 2.87905 3.16693 0
M  V30 465 C 41.3709 2.78486 4.56453 0
M  V30 466 C 42.6709 4.29005 2.97913 0
M  V30 467 H 44.3649 2.60716 1.47198 0
M  V30 468 H 41.9109 1.25465 0.706714 0
M  V30 469 H 43.8639 1.84742 3.78746 0
M  V30 470 H 42.5879 0.766241 3.17484 0
M  V30 471 H 41.2469 2.75859 2.41448 0
M  V30 472 H 40.8949 1.7993 4.69717 0
M  V30 473 H 40.5949 3.55523 4.67843 0
M  V30 474 H 42.1189 2.92104 5.36197 0
M  V30 475 H 43.5329 4.41798 3.65359 0
M  V30 476 H 41.9299 5.07166 3.20785 0
M  V30 477 H 42.9999 4.44329 1.94165 0
M  V30 478 N 44.343 -0.763751 1.37857 0
M  V30 479 C 45.273 -1.89103 1.36975 0
M  V30 480 C 46.254 -1.68439 0.237152 0
M  V30 481 O 47.439 -1.8918 0.438713 0
M  V30 482 C 44.569 -3.26496 1.18395 0
M  V30 483 C 43.523 -3.61741 2.28751 0
M  V30 484 C 42.849 -4.97762 1.95286 0
M  V30 485 C 44.149 -3.67665 3.70972 0
M  V30 486 H 45.843 -1.90099 2.31307 0
M  V30 487 H 43.389 -0.91319 1.11341 0
M  V30 488 H 45.342 -4.05003 1.16406 0
M  V30 489 H 44.066 -3.25955 0.205215 0
M  V30 490 H 42.725 -2.85547 2.29909 0
M  V30 491 H 42.373 -4.93769 0.959221 0
M  V30 492 H 42.073 -5.22313 2.69189 0
M  V30 493 H 43.597 -5.7866 1.94898 0
M  V30 494 H 45.011 -4.36307 3.719 0
M  V30 495 H 43.408 -4.03718 4.43995 0
M  V30 496 H 44.478 -2.68134 4.0402 0
M  V30 497 N 45.8211 -1.22559 -0.990812 0
M  V30 498 C 47.0491 -1.07779 -1.76611 0
M  V30 499 C 47.4641 0.371513 -1.85109 0
M  V30 500 O 46.8211 1.25737 -1.32274 0
M  V30 501 C 46.8721 -1.68512 -3.19822 0
M  V30 502 O 46.5931 -3.07774 -3.1178 0
M  V30 503 C 48.0941 -1.59035 -4.13791 0
M  V30 504 H 45.3141 -0.377729 -0.554583 0
M  V30 505 H 47.8581 -1.62195 -1.24551 0
M  V30 506 H 46.0131 -1.18154 -3.68942 0
M  V30 507 H 46.4271 -3.37062 -4.01858 0
M  V30 508 H 47.9011 -2.0625 -5.1202 0
M  V30 509 H 48.3781 -0.547273 -4.35777 0
M  V30 510 H 48.9841 -2.08709 -3.70568 0
M  V30 511 N 47.2992 1.18797 -1.03562 0
M  V30 512 C 48.2462 2.22253 -0.622259 0
M  V30 513 C 49.2162 1.61987 0.36736 0
M  V30 514 O 50.4012 1.88986 0.262492 0
M  V30 515 C 47.5412 3.45097 0.0138462 0
M  V30 516 C 46.6542 4.19722 -1.02263 0
M  V30 517 C 45.7892 5.30009 -0.355573 0
M  V30 518 C 44.8282 5.96399 -1.37749 0
M  V30 519 N 43.9652 6.98234 -0.735766 0
M  V30 520 H 48.8052 2.56968 -1.50903 0
M  V30 521 H 46.3422 1.26245 -0.755017 0
M  V30 522 H 48.3002 4.15279 0.399948 0
M  V30 523 H 46.9302 3.11018 0.864158 0
M  V30 524 H 45.9822 3.48418 -1.52673 0
M  V30 525 H 47.2942 4.65227 -1.79903 0
M  V30 526 H 46.4482 6.0664 0.0850095 0
M  V30 527 H 45.1872 4.85592 0.452967 0
M  V30 528 H 44.1922 5.18512 -1.82826 0
M  V30 529 H 45.4172 6.42899 -2.18764 0
M  V30 530 H 43.3632 6.55979 0.0525597 0
M  V30 531 H 43.2802 7.41965 -1.44995 0
M  V30 532 H 44.5482 7.78845 -0.31941 0
M  V30 533 N 48.7773 0.814389 1.34928 0
M  V30 534 C 50.0543 0.321363 1.92942 0
M  V30 535 C 50.4343 -1.19014 1.74353 0
M  V30 536 O 49.7823 -1.99328 1.11716 0
M  V30 537 C 49.9923 0.741323 3.41036 0
M  V30 538 C 51.3403 0.735266 4.18185 0
M  V30 539 O 52.3643 0.68336 3.49584 0
M  V30 540 O 51.2233 0.800703 5.40602 0
M  V30 541 H 48.3173 0.0858893 0.822528 0
M  V30 542 H 50.8633 0.898609 1.43955 0
M  V30 543 H 49.6353 1.78276 3.4833 0
M  V30 544 H 49.2583 0.139307 3.97356 0
M  V30 545 N 50.2554 -1.46986 0.568584 0
M  V30 546 C 51.5034 -2.02041 0.0487022 0
M  V30 547 C 51.8244 -1.44408 -1.31039 0
M  V30 548 O 51.0944 -0.623477 -1.85714 0
M  V30 549 H 49.6744 -0.746849 0.015014 0
M  V30 550 H 52.3364 -1.80257 0.741168 0
M  V30 551 H 51.4324 -3.12085 -0.0308961 0
M  V30 552 N 51.7335 -0.305618 -1.54608 0
M  V30 553 C 52.6805 0.568421 -2.23691 0
M  V30 554 C 53.6505 1.12592 -1.22116 0
M  V30 555 O 54.8355 1.16959 -1.50749 0
M  V30 556 C 51.9755 1.7322 -2.98477 0
M  V30 557 C 51.0885 1.20566 -4.14835 0
M  V30 558 C 50.2235 2.33368 -4.77193 0
M  V30 559 C 49.2625 1.7787 -5.85686 0
M  V30 560 N 48.3995 2.84263 -6.4198 0
M  V30 561 H 53.2395 -0.0272867 -2.97988 0
M  V30 562 H 50.7765 -0.0252363 -1.47078 0
M  V30 563 H 52.7345 2.41675 -3.40072 0
M  V30 564 H 51.3645 2.29947 -2.26548 0
M  V30 565 H 50.4165 0.413223 -3.78149 0
M  V30 566 H 51.7285 0.759417 -4.92985 0
M  V30 567 H 50.8825 3.09761 -5.21664 0
M  V30 568 H 49.6215 2.8132 -3.98385 0
M  V30 569 H 48.6265 0.99968 -5.40635 0
M  V30 570 H 49.8515 1.30816 -6.66381 0
M  V30 571 H 47.7975 3.31541 -5.66053 0
M  V30 572 H 47.7145 2.44149 -7.15491 0
M  V30 573 H 48.9825 3.6054 -6.91109 0
M  V30 574 N 53.2116 1.57565 -0.0334293 0
M  V30 575 C 54.4576 1.92262 0.645226 0
M  V30 576 C 54.7906 0.910543 1.71531 0
M  V30 577 O 54.0656 -0.066099 1.94388 0
M  V30 578 C 54.3486 3.37422 1.2577 0
M  V30 579 C 54.2016 4.49369 0.196891 0
M  V30 580 C 55.5206 3.82628 2.17449 0
M  V30 581 H 52.6396 0.699171 0.233085 0
M  V30 582 H 55.2816 1.89779 -0.0915694 0
M  V30 583 H 53.4316 3.39669 1.88566 0
M  V30 584 H 55.1036 4.59254 -0.433962 0
M  V30 585 H 53.3466 4.31168 -0.477137 0
M  V30 586 H 54.0176 5.47978 0.665124 0
M  V30 587 H 56.4936 3.82145 1.64634 0
M  V30 588 H 55.3696 4.84883 2.57254 0
M  V30 589 H 55.6306 3.18376 3.0674 0
M  V30 590 N 54.6897 -0.239769 1.55765 0
M  V30 591 C 55.9197 -0.982743 1.8173 0
M  V30 592 C 56.3277 -1.7917 0.607835 0
M  V30 593 O 55.6707 -1.78525 -0.432973 0
M  V30 594 C 55.7327 -1.96332 3.01155 0
M  V30 595 C 55.3967 -1.34062 4.36894 0
M  V30 596 C 56.3937 -0.739539 5.14613 0
M  V30 597 C 54.0787 -1.35784 4.83599 0
M  V30 598 C 56.0727 -0.163989 6.37189 0
M  V30 599 C 53.7597 -0.778441 6.06122 0
M  V30 600 C 54.7577 -0.182548 6.82756 0
M  V30 601 O 54.4457 0.387887 8.02964 0
M  V30 602 H 54.1777 -0.294481 0.608487 0
M  V30 603 H 56.7317 -0.26572 2.03674 0
M  V30 604 H 54.9617 -2.71884 2.74984 0
M  V30 605 H 56.6507 -2.57032 3.14149 0
M  V30 606 H 57.4167 -0.718687 4.79646 0
M  V30 607 H 53.2957 -1.81105 4.23936 0
M  V30 608 H 56.8397 0.301753 6.96947 0
M  V30 609 H 52.7367 -0.796645 6.40565 0
M  V30 610 H 53.5047 0.28044 8.18019 0
M  V30 611 N 56.1678 -1.49265 -0.50573 0
M  V30 612 C 57.5838 -1.35923 -0.836486 0
M  V30 613 C 57.7838 -0.388704 -1.97715 0
M  V30 614 O 56.8398 0.181336 -2.51848 0
M  V30 615 C 58.1528 -2.76531 -1.18115 0
M  V30 616 C 59.7008 -2.85197 -1.28964 0
M  V30 617 C 60.1758 -4.26561 -1.66761 0
M  V30 618 N 61.6668 -4.2935 -1.73819 0
M  V30 619 C 62.4018 -5.35693 -2.045 0
M  V30 620 N 61.8978 -6.52287 -2.33438 0
M  V30 621 N 63.6908 -5.23105 -2.05711 0
M  V30 622 H 55.8418 -2.10965 0.246519 0
M  V30 623 H 58.1048 -0.9468 0.0476887 0
M  V30 624 H 57.8108 -3.49226 -0.416398 0
M  V30 625 H 57.6848 -3.11599 -2.1257 0
M  V30 626 H 60.0718 -2.12742 -2.04511 0
M  V30 627 H 60.1528 -2.53718 -0.325704 0
M  V30 628 H 59.7968 -4.99541 -0.917656 0
M  V30 629 H 59.7268 -4.55502 -2.64246 0
M  V30 630 H 62.2178 -3.4526 -1.53635 0
M  V30 631 H 62.5308 -7.29158 -2.56024 0
M  V30 632 H 60.8758 -6.55521 -2.30905 0
M  V30 633 H 64.0668 -4.31026 -1.82577 0
M  V30 634 H 64.2398 -6.06078 -2.29289 0
M  V30 635 N 57.6459 0.756429 -1.3826 0
M  V30 636 C 58.8939 1.51248 -1.34047 0
M  V30 637 C 59.2149 1.94875 0.0698372 0
M  V30 638 O 58.4849 1.67436 1.01696 0
M  V30 639 H 57.0649 0.561018 -0.493222 0
M  V30 640 H 59.7269 0.899347 -1.7291 0
M  V30 641 H 58.8229 2.40472 -1.98947 0
M  V30 642 N 59.124 1.23083 0.984299 0
M  V30 643 C 60.364 1.07226 1.74017 0
M  V30 644 C 60.728 -0.384766 1.88105 0
M  V30 645 O 61.929 -0.664411 2.60459 0
M  V30 646 C 60.2 1.77348 3.10294 0
M  V30 647 S 61.759 1.77014 4.01512 0
M  V30 648 H 58.577 0.383819 0.598502 0
M  V30 649 H 61.179 1.56158 1.17622 0
M  V30 650 H 59.883 2.82506 2.97689 0
M  V30 651 H 59.414 1.28682 3.71759 0
M  V30 652 H 61.429 0.825956 4.89277 0
M  V30 653 N 60.6021 -1.18246 1.0419 0
M  V30 654 C 61.5501 -2.23968 0.627792 0
M  V30 655 C 62.5441 -1.65828 -0.346019 0
M  V30 656 O 63.7501 -1.78733 -0.213175 0
M  V30 657 H 60.1251 -0.728939 0.184802 0
M  V30 658 H 62.0961 -2.56202 1.52981 0
M  V30 659 C 60.8451 -3.47699 0.00796591 0
M  V30 660 H 60.1681 -3.92734 0.748347 0
M  V30 661 H 61.6081 -4.23294 -0.24455 0
M  V30 662 C 60.0671 -3.13153 -1.24246 0
M  V30 663 O 60.5971 -3.27003 -2.33307 0
M  V30 664 N 58.8031 -2.67467 -1.13622 0
M  V30 665 H 58.3501 -2.56396 -0.248734 0
M  V30 666 H 58.3081 -2.44724 -1.97377 0
M  V30 667 N 62.0802 -0.821533 -1.34494 0
M  V30 668 C 63.3292 -0.405355 -1.97585 0
M  V30 669 C 63.6422 1.03677 -1.65863 0
M  V30 670 O 64.8482 1.55679 -2.22433 0
M  V30 671 C 63.3042 -0.673861 -3.53535 0
M  V30 672 C 62.9122 -2.12951 -3.94152 0
M  V30 673 C 64.6562 -0.32378 -4.23263 0
M  V30 674 C 62.5632 -2.34298 -5.43009 0
M  V30 675 H 61.4932 -0.147836 -0.739365 0
M  V30 676 H 64.1442 -1.00769 -1.53355 0
M  V30 677 H 62.5262 -0.00137554 -3.96 0
M  V30 678 H 63.7002 -2.84104 -3.62797 0
M  V30 679 H 62.0152 -2.44089 -3.37356 0
M  V30 680 H 64.6122 -0.461126 -5.32708 0
M  V30 681 H 64.9552 0.731586 -4.09821 0
M  V30 682 H 65.4882 -0.950786 -3.8627 0
M  V30 683 H 62.2272 -3.38335 -5.61435 0
M  V30 684 H 61.7472 -1.67687 -5.75883 0
M  V30 685 H 63.4262 -2.16588 -6.09671 0
M  V30 686 N 63.5583 1.46682 -0.576371 0
M  V30 687 C 64.4683 2.34032 0.163141 0
M  V30 688 C 65.4843 1.49367 0.892501 0
M  V30 689 O 66.6603 1.82252 0.857106 0
M  V30 690 C 63.7253 3.26435 1.16795 0
M  V30 691 C 62.7863 4.26998 0.443944 0
M  V30 692 C 62.0193 5.14986 1.40088 0
M  V30 693 O 62.2423 5.05785 2.637 0
M  V30 694 O 61.1763 5.94906 0.914917 0
M  V30 695 H 65.0023 2.98607 -0.55388 0
M  V30 696 H 62.5873 1.45554 -0.336821 0
M  V30 697 H 64.4693 3.83459 1.74748 0
M  V30 698 H 63.1443 2.64465 1.86655 0
M  V30 699 H 62.0513 3.7368 -0.177271 0
M  V30 700 H 63.3843 4.91736 -0.213566 0
M  V30 701 N 65.0364 0.313813 1.54444 0
M  V30 702 C 65.9844 -0.572171 2.25453 0
M  V30 703 C 66.9784 -1.12657 1.2651 0
M  V30 704 O 68.1844 -1.07573 1.44319 0
M  V30 705 H 64.5594 -0.203146 0.724041 0
M  V30 706 H 66.5304 0.0491145 2.9836 0
M  V30 707 C 65.2794 -1.72626 3.0182 0
M  V30 708 H 64.6024 -1.30891 3.77767 0
M  V30 709 H 66.0424 -2.32199 3.54767 0
M  V30 710 C 64.5014 -2.63806 2.09542 0
M  V30 711 O 65.0314 -3.65256 1.67185 0
M  V30 712 N 63.2374 -2.31824 1.75232 0
M  V30 713 H 62.7844 -1.49368 2.09873 0
M  V30 714 H 62.7424 -2.93095 1.13767 0
M  V30 715 N 66.5145 -1.57545 0.0417849 0
M  V30 716 C 67.4775 -2.09885 -0.92093 0
M  V30 717 C 68.4775 -1.01648 -1.24596 0
M  V30 718 O 69.6675 -1.27759 -1.1842 0
M  V30 719 C 66.7995 -2.57527 -2.23367 0
M  V30 720 H 67.9925 -2.96236 -0.467382 0
M  V30 721 H 65.5455 -1.5493 -0.206467 0
M  V30 722 H 66.2805 -1.74542 -2.73323 0
M  V30 723 H 66.0655 -3.36613 -2.01083 0
M  V30 724 H 67.5555 -2.98201 -2.92346 0
M  V30 725 N 67.9926 0.231505 -1.5589 0
M  V30 726 C 68.9556 1.27028 -1.90779 0
M  V30 727 C 69.9556 1.40308 -0.785507 0
M  V30 728 O 71.1456 1.38744 -1.05336 0
M  V30 729 C 68.2776 2.64566 -2.14983 0
M  V30 730 H 69.4706 0.973017 -2.83677 0
M  V30 731 H 67.0236 0.471486 -1.49019 0
M  V30 732 H 67.7586 2.99406 -1.24604 0
M  V30 733 H 67.5436 2.56305 -2.96732 0
M  V30 734 H 69.0336 3.39543 -2.43105 0
M  V30 735 N 69.4707 1.49531 0.497807 0
M  V30 736 C 70.7007 1.62657 1.27382 0
M  V30 737 C 71.1087 0.298488 1.86831 0
M  V30 738 O 70.4517 -0.72647 1.68725 0
M  V30 739 C 70.5137 2.6393 2.44093 0
M  V30 740 C 70.1777 4.08195 2.05489 0
M  V30 741 C 71.1747 4.949 1.59279 0
M  V30 742 C 68.8597 4.53948 2.15026 0
M  V30 743 C 70.8537 6.25397 1.23113 0
M  V30 744 C 68.5407 5.84458 1.78473 0
M  V30 745 C 69.5387 6.70006 1.32591 0
M  V30 746 O 69.2267 7.98083 0.965327 0
M  V30 747 H 68.9587 0.550429 0.392434 0
M  V30 748 H 71.5127 1.96325 0.603801 0
M  V30 749 H 69.7427 2.25449 3.14181 0
M  V30 750 H 71.4317 2.66552 3.06113 0
M  V30 751 H 72.1977 4.60779 1.51354 0
M  V30 752 H 68.0767 3.87525 2.4969 0
M  V30 753 H 71.6207 6.92125 0.872299 0
M  V30 754 H 67.5177 6.18107 1.86048 0
M  V30 755 H 68.2857 8.11122 1.09652 0
M  V30 756 N 70.9488 -0.749086 1.3866 0
M  V30 757 C 72.1738 -1.54344 1.38538 0
M  V30 758 C 72.5988 -1.88088 -0.0216655 0
M  V30 759 O 71.9568 -1.50899 -1.00494 0
M  V30 760 C 72.0048 -2.8164 2.25192 0
M  V30 761 O 71.1088 -3.7698 1.67212 0
M  V30 762 H 70.4498 -0.466654 0.472367 0
M  V30 763 H 72.9798 -0.925355 1.82478 0
M  V30 764 H 72.9898 -3.30519 2.3921 0
M  V30 765 H 71.6648 -2.56411 3.27454 0
M  V30 766 H 70.2418 -3.35699 1.6236 0
M  V30 767 N 72.4269 -1.23603 -0.977757 0
M  V30 768 C 73.3599 -0.962772 -2.06896 0
M  V30 769 C 74.3379 0.0998743 -1.62293 0
M  V30 770 O 75.5219 -0.0349421 -1.88468 0
M  V30 771 C 72.6489 -0.45095 -3.35685 0
M  V30 772 C 71.6949 -1.50061 -3.99229 0
M  V30 773 S 72.5279 -3.07884 -4.38142 0
M  V30 774 C 73.6839 -2.58378 -5.7008 0
M  V30 775 H 73.9169 -1.88677 -2.29757 0
M  V30 776 H 71.4499 -1.06876 -1.11431 0
M  V30 777 H 73.4079 -0.162261 -4.10179 0
M  V30 778 H 72.0689 0.452179 -3.10828 0
M  V30 779 H 71.2619 -1.09269 -4.92013 0
M  V30 780 H 70.8639 -1.73878 -3.31123 0
M  V30 781 H 73.1559 -2.00563 -6.47133 0
M  V30 782 H 74.0989 -3.49711 -6.15717 0
M  V30 783 H 74.5069 -1.99143 -5.28207 0
M  V30 784 N 73.905 1.17692 -1.04816 0
M  V30 785 C 75.145 1.89545 -0.764979 0
M  V30 786 C 75.509 1.78979 0.695028 0
M  V30 787 O 76.71 2.45613 1.09215 0
M  V30 788 C 74.981 3.35659 -1.22751 0
M  V30 789 S 76.54 4.25526 -1.07112 0
M  V30 790 H 73.358 0.654432 -0.27792 0
M  V30 791 H 75.96 1.42163 -1.34201 0
M  V30 792 H 74.664 3.40882 -2.28533 0
M  V30 793 H 74.195 3.88083 -0.644594 0
M  V30 794 H 76.21 4.962 0.00697508 0
M  V30 795 N 75.3831 0.828654 1.34056 0
M  V30 796 C 76.3311 0.242973 2.31327 0
M  V30 797 C 77.3251 -0.61944 1.57668 0
M  V30 798 O 78.5311 -0.51014 1.7262 0
M  V30 799 H 74.9061 0.059834 0.749616 0
M  V30 800 H 76.8771 1.07809 2.78244 0
M  V30 801 C 75.6261 -0.575733 3.429 0
M  V30 802 H 74.9491 0.0785582 3.99723 0
M  V30 803 H 76.3891 -0.951547 4.13185 0
M  V30 804 C 74.8481 -1.75044 2.87856 0
M  V30 805 O 75.3781 -2.84882 2.83205 0
M  V30 806 N 73.5841 -1.56903 2.44602 0
M  V30 807 H 73.1311 -0.675547 2.48584 0
M  V30 808 H 73.0891 -2.35652 2.08124 0
M  V30 809 N 76.8612 -1.46375 0.584142 0
M  V30 810 C 78.1012 -2.0427 0.0729695 0
M  V30 811 C 78.4652 -1.44563 -1.26355 0
M  V30 812 O 79.6662 -1.93667 -1.86405 0
M  V30 813 C 77.9372 -3.57399 0.00967464 0
M  V30 814 S 79.4962 -4.36551 -0.443714 0
M  V30 815 H 76.3142 -0.709975 0.0381673 0
M  V30 816 H 78.9162 -1.79398 0.776962 0
M  V30 817 H 77.6202 -3.98372 0.986319 0
M  V30 818 H 77.1512 -3.8681 -0.717044 0
M  V30 819 H 79.1662 -4.66237 -1.69816 0
M  V30 820 N 78.3393 -0.321999 -1.54275 0
M  V30 821 C 79.3023 0.531975 -2.22941 0
M  V30 822 C 80.3023 1.04478 -1.22234 0
M  V30 823 O 81.4923 0.937452 -1.46825 0
M  V30 824 C 78.6243 1.73874 -2.93224 0
M  V30 825 H 79.8173 -0.0682612 -2.99822 0
M  V30 826 H 77.3703 -0.0730644 -1.56129 0
M  V30 827 H 78.1053 2.37825 -2.20476 0
M  V30 828 H 77.8903 1.37847 -3.6707 0
M  V30 829 H 79.3803 2.34496 -3.45545 0
M  V30 830 N 79.8174 1.5752 -0.0501392 0
M  V30 831 C 80.7274 2.14952 0.939827 0
M  V30 832 C 81.7434 1.10706 1.34239 0
M  V30 833 O 82.9194 1.42869 1.41952 0
M  V30 834 C 79.9844 2.68232 2.19665 0
M  V30 835 C 79.0454 3.87272 1.85253 0
M  V30 836 C 78.2784 4.38002 3.04943 0
M  V30 837 O 78.5014 3.87811 4.18281 0
M  V30 838 O 77.4354 5.29602 2.86017 0
M  V30 839 H 81.2614 2.9986 0.481392 0
M  V30 840 H 78.8464 1.4841 0.171699 0
M  V30 841 H 80.7284 3.02475 2.93406 0
M  V30 842 H 79.4034 1.86395 2.64648 0
M  V30 843 H 78.3104 3.5792 1.0883 0
M  V30 844 H 79.6434 4.70336 1.4507 0
M  V30 845 N 81.2955 -0.223234 1.56011 0
M  V30 846 C 82.7115 -0.572856 1.48965 0
M  V30 847 C 82.9115 -1.87225 0.74492 0
M  V30 848 O 81.9675 -2.50899 0.283896 0
M  V30 849 C 83.2805 -0.653646 2.9351 0
M  V30 850 C 84.8285 -0.744386 3.0402 0
M  V30 851 C 85.3035 -0.856535 4.49919 0
M  V30 852 N 86.7945 -0.9208 4.53955 0
M  V30 853 C 87.5295 -1.02726 5.64123 0
M  V30 854 N 87.0255 -1.09777 6.84047 0
M  V30 855 N 88.8185 -1.06226 5.51971 0
M  V30 856 H 80.9695 0.629462 2.02858 0
M  V30 857 H 83.2325 0.220621 0.921971 0
M  V30 858 H 82.9385 0.231518 3.50937 0
M  V30 859 H 82.8125 -1.51781 3.45315 0
M  V30 860 H 85.1995 -1.61999 2.46658 0
M  V30 861 H 85.2805 0.14541 2.55386 0
M  V30 862 H 84.9245 0.0146069 5.07898 0
M  V30 863 H 84.8545 -1.76172 4.96257 0
M  V30 864 H 87.3455 -0.876694 3.6759 0
M  V30 865 H 87.6585 -1.17872 7.63758 0
M  V30 866 H 86.0035 -1.06693 6.86762 0
M  V30 867 H 89.1945 -1.00382 4.5721 0
M  V30 868 H 89.3675 -1.14177 6.37862 0
M  V30 869 N 82.7736 -1.49793 -0.48987 0
M  V30 870 C 84.0016 -1.63568 -1.26701 0
M  V30 871 C 84.4166 -0.311465 -1.86213 0
M  V30 872 O 83.7736 0.704416 -1.68357 0
M  V30 873 C 83.8246 -2.71284 -2.38929 0
M  V30 874 O 83.5456 -3.9857 -1.81861 0
M  V30 875 C 85.0466 -2.95864 -3.3012 0
M  V30 876 H 82.2666 -0.550342 -0.383881 0
M  V30 877 H 84.8106 -1.95898 -0.586864 0
M  V30 878 H 82.9656 -2.417 -3.02753 0
M  V30 879 H 83.3796 -4.57993 -2.55622 0
M  V30 880 H 84.8536 -3.74941 -4.05121 0
M  V30 881 H 85.3306 -2.06206 -3.87783 0
M  V30 882 H 85.9366 -3.26907 -2.72051 0
M  V30 883 N 84.2517 0.741722 -1.39055 0
M  V30 884 C 85.2147 1.83733 -1.37021 0
M  V30 885 C 86.2147 1.58542 -0.268534 0
M  V30 886 O 87.4047 1.66067 -0.526076 0
M  V30 887 C 84.5367 3.2141 -1.13617 0
M  V30 888 H 85.7297 1.86941 -2.34506 0
M  V30 889 H 83.2827 0.944676 -1.24521 0
M  V30 890 H 84.0177 3.23865 -0.167863 0
M  V30 891 H 83.8027 3.4109 -1.93391 0
M  V30 892 H 85.2927 4.01477 -1.14918 0
M  V30 893 N 85.7298 1.2412 0.971189 0
M  V30 894 C 86.6598 1.05508 2.08304 0
M  V30 895 C 87.6408 -0.0308864 1.70072 0
M  V30 896 O 88.8258 0.135521 1.93727 0
M  V30 897 C 85.9558 0.655365 3.4106 0
M  V30 898 C 84.9098 1.68971 3.93234 0
M  V30 899 C 84.2358 1.14516 5.22293 0
M  V30 900 C 85.5358 3.08487 4.21465 0
M  V30 901 H 87.2298 1.98507 2.24132 0
M  V30 902 H 84.7758 0.955821 1.07704 0
M  V30 903 H 86.7288 0.51217 4.18276 0
M  V30 904 H 85.4528 -0.31032 3.25122 0
M  V30 905 H 84.1118 1.82106 3.18171 0
M  V30 906 H 83.7598 0.170189 5.02712 0
M  V30 907 H 83.4598 1.83635 5.58168 0
M  V30 908 H 84.9838 1.01401 6.02121 0
M  V30 909 H 86.3978 2.98601 4.89398 0
M  V30 910 H 84.7948 3.74926 4.68562 0
M  V30 911 H 85.8648 3.56787 3.28376 0
M  V30 912 N 87.2079 -1.17134 1.05439 0
M  V30 913 C 88.4549 -1.87456 0.765942 0
M  V30 914 C 88.7829 -1.81189 -0.707153 0
M  V30 915 O 88.0379 -1.21633 -1.5331 0
M  V30 916 C 88.3369 -3.36833 1.19491 0
M  V30 917 C 88.0029 -3.63301 2.67063 0
M  V30 918 C 86.6649 -3.70234 3.07376 0
M  V30 919 C 89.0169 -3.74575 3.62413 0
M  V30 920 C 86.3449 -3.85933 4.41896 0
M  V30 921 C 88.6969 -3.91793 4.9667 0
M  V30 922 C 87.3609 -3.96966 5.36633 0
M  V30 923 H 86.6309 -0.685948 0.280278 0
M  V30 924 H 89.2779 -1.38556 1.32192 0
M  V30 925 H 87.5829 -3.87807 0.557969 0
M  V30 926 H 89.2799 -3.89611 0.948893 0
M  V30 927 H 85.8699 -3.58532 2.34846 0
M  V30 928 H 90.0539 -3.68537 3.32406 0
M  V30 929 H 85.3099 -3.88187 4.72357 0
M  V30 930 H 89.4839 -3.99458 5.70444 0
M  V30 931 H 87.1109 -4.08883 6.40874 0
M  V30 932 N 88.686 -0.835752 -1.33615 0
M  V30 933 C 89.633 -0.26473 -2.29277 0
M  V30 934 C 90.603 0.617712 -1.54187 0
M  V30 935 O 91.788 0.556641 -1.825 0
M  V30 936 C 88.928 0.556777 -3.40579 0
M  V30 937 C 88.041 -0.349339 -4.30585 0
M  V30 938 C 87.176 0.482969 -5.29 0
M  V30 939 C 86.215 -0.421732 -6.10645 0
M  V30 940 N 85.352 0.372262 -7.01112 0
M  V30 941 H 90.192 -1.08582 -2.77514 0
M  V30 942 H 87.729 -0.546927 -1.36554 0
M  V30 943 H 89.687 1.04852 -4.03809 0
M  V30 944 H 88.317 1.34286 -2.93542 0
M  V30 945 H 87.369 -0.959372 -3.68104 0
M  V30 946 H 88.681 -1.04445 -4.87742 0
M  V30 947 H 87.835 1.03866 -5.97743 0
M  V30 948 H 86.574 1.21153 -4.72412 0
M  V30 949 H 85.579 -0.989464 -5.40823 0
M  V30 950 H 86.804 -1.14861 -6.69316 0
M  V30 951 H 84.75 1.08426 -6.46977 0
M  V30 952 H 84.667 -0.264198 -7.55538 0
M  V30 953 H 85.935 0.910293 -7.74167 0
M  V30 954 N 90.1641 1.46063 -0.591896 0
M  V30 955 C 91.1271 2.28854 0.125973 0
M  V30 956 C 92.1271 1.38903 0.810107 0
M  V30 957 O 93.3171 1.61186 0.66066 0
M  V30 958 C 90.4491 3.19526 1.1881 0
M  V30 959 H 91.6421 2.93802 -0.601717 0
M  V30 960 H 89.1951 1.52325 -0.350254 0
M  V30 961 H 89.9301 2.59345 1.94707 0
M  V30 962 H 89.7151 3.85766 0.701936 0
M  V30 963 H 91.2051 3.81817 1.69132 0
M  V30 964 N 91.6422 0.330177 1.54103 0
M  V30 965 C 92.8882 -0.270806 2.00984 0
M  V30 966 C 93.2212 -1.51265 1.21789 0
M  V30 967 O 92.4962 -1.92142 0.301927 0
M  V30 968 C 92.7792 -0.598339 3.55094 0
M  V30 969 C 92.6322 0.654674 4.4501 0
M  V30 970 C 93.9512 -1.41334 4.16789 0
M  V30 971 H 91.0702 -0.0969531 0.730595 0
M  V30 972 H 93.7122 0.448066 1.84641 0
M  V30 973 H 91.8622 -1.21078 3.69151 0
M  V30 974 H 93.5342 1.29285 4.42813 0
M  V30 975 H 91.7772 1.28224 4.14416 0
M  V30 976 H 92.4482 0.380944 5.50684 0
M  V30 977 H 94.9242 -0.895597 4.06347 0
M  V30 978 H 93.8002 -1.61127 5.24718 0
M  V30 979 H 94.0612 -2.41146 3.70541 0
M  V30 980 N 93.1203 -1.57491 0.0584922 0
M  V30 981 C 94.3453 -1.97711 -0.62652 0
M  V30 982 C 94.7703 -0.936132 -1.63151 0
M  V30 983 O 94.1283 0.099811 -1.81025 0
M  V30 984 C 94.1763 -3.36989 -1.28338 0
M  V30 985 O 93.2803 -3.35433 -2.39913 0
M  V30 986 H 92.6213 -0.643868 -0.162266 0
M  V30 987 H 95.1513 -2.04193 0.129064 0
M  V30 988 H 95.1613 -3.73879 -1.63335 0
M  V30 989 H 93.8363 -4.12289 -0.546889 0
M  V30 990 H 92.4133 -3.10298 -2.06809 0
M  V30 991 N 94.5984 0.214957 -1.56127 0
M  V30 992 C 95.5084 1.28727 -1.96129 0
M  V30 993 C 96.5244 1.50916 -0.866044 0
M  V30 994 O 97.7004 1.63918 -1.17016 0
M  V30 995 C 94.7654 2.61569 -2.27558 0
M  V30 996 C 93.8264 2.47625 -3.50685 0
M  V30 997 C 93.0594 3.74132 -3.80606 0
M  V30 998 O 93.2824 4.77438 -3.12104 0
M  V30 999 O 92.2164 3.70849 -4.74083 0
M  V30 1000 H 96.0424 0.977855 -2.87527 0
M  V30 1001 H 93.6274 0.418358 -1.43423 0
M  V30 1002 H 95.5094 3.40012 -2.48938 0
M  V30 1003 H 94.1844 2.92178 -1.39332 0
M  V30 1004 H 93.0914 1.67361 -3.34576 0
M  V30 1005 H 94.4244 2.21954 -4.39315 0
M  V30 1006 N 96.0765 1.50051 0.48192 0
M  V30 1007 C 97.3245 1.60181 1.23234 0
M  V30 1008 C 97.6455 0.299176 1.92691 0
M  V30 1009 O 96.9155 -0.682708 1.83619 0
M  V30 1010 H 95.4955 0.590232 0.457859 0
M  V30 1011 H 98.1575 1.86775 0.556881 0
M  V30 1012 H 97.2535 2.40753 1.98607 0
M  V30 1013 N 97.5546 -0.734337 1.39446 0
M  V30 1014 C 98.8316 -1.48579 1.27215 0
M  V30 1015 C 99.2116 -2.1077 -0.117968 0
M  V30 1016 O 98.5596 -1.98646 -1.12924 0
M  V30 1017 C 98.7696 -2.53667 2.39696 0
M  V30 1018 C 100.118 -3.20031 2.79044 0
M  V30 1019 O 101.142 -2.6398 2.39151 0
M  V30 1020 O 100.001 -4.21455 3.47905 0
M  V30 1021 H 97.0946 -0.659816 0.49857 0
M  V30 1022 H 99.6406 -0.768106 1.51322 0
M  V30 1023 H 98.4126 -2.06096 3.32626 0
M  V30 1024 H 98.0356 -3.32994 2.17258 0
M  V30 1025 N 99.0327 -1.24633 -0.964593 0
M  V30 1026 C 100.261 -1.11501 -1.74285 0
M  V30 1027 C 100.676 0.332165 -1.85855 0
M  V30 1028 O 100.033 1.22903 -1.34911 0
M  V30 1029 C 100.084 -1.75258 -3.16175 0
M  V30 1030 O 99.8047 -3.14318 -3.05182 0
M  V30 1031 C 101.306 -1.67776 -4.10324 0
M  V30 1032 H 98.5257 -0.389407 -0.546446 0
M  V30 1033 H 101.07 -1.64801 -1.21083 0
M  V30 1034 H 99.2247 -1.25954 -3.66353 0
M  V30 1035 H 99.6387 -3.4551 -3.94618 0
M  V30 1036 H 101.113 -2.17064 -5.0753 0
M  V30 1037 H 101.59 -0.639584 -4.34518 0
M  V30 1038 H 102.196 -2.16522 -3.66058 0
M  V30 1039 N 100.511 1.16574 -1.06058 0
M  V30 1040 C 101.421 2.2452 -0.680282 0
M  V30 1041 C 102.437 1.71348 0.302604 0
M  V30 1042 O 103.613 2.00822 0.152513 0
M  V30 1043 C 100.678 3.46629 -0.0700315 0
M  V30 1044 C 99.7388 4.14849 -1.10448 0
M  V30 1045 C 98.9718 5.31129 -0.523256 0
M  V30 1046 O 99.1948 5.66514 0.664709 0
M  V30 1047 O 98.1288 5.88526 -1.26179 0
M  V30 1048 H 101.955 2.59355 -1.58015 0
M  V30 1049 H 99.5398 1.24043 -0.832694 0
M  V30 1050 H 101.422 4.20543 0.268667 0
M  V30 1051 H 100.097 3.13573 0.803353 0
M  V30 1052 H 99.0038 3.42916 -1.49532 0
M  V30 1053 H 100.337 4.51954 -1.94931 0
M  V30 1054 N 101.989 0.842826 1.3317 0
M  V30 1055 C 103.236 0.440447 1.97652 0
M  V30 1056 C 103.564 -1.00123 1.6675 0
M  V30 1057 O 102.819 -1.7155 0.941761 0
M  V30 1058 C 103.118 0.612607 3.52111 0
M  V30 1059 C 102.784 2.02297 4.02972 0
M  V30 1060 C 101.446 2.40874 4.16573 0
M  V30 1061 C 103.798 2.94402 4.30089 0
M  V30 1062 C 101.126 3.70852 4.54627 0
M  V30 1063 C 103.478 4.23865 4.69597 0
M  V30 1064 C 102.142 4.62392 4.81404 0
M  V30 1065 H 101.412 0.161171 0.72326 0
M  V30 1066 H 104.059 1.07061 1.58777 0
M  V30 1067 H 102.364 -0.100849 3.9167 0
M  V30 1068 H 104.061 0.2815 4.00011 0
M  V30 1069 H 100.651 1.71338 3.92863 0
M  V30 1070 H 104.835 2.65835 4.19101 0
M  V30 1071 H 100.091 4.00501 4.61962 0
M  V30 1072 H 104.265 4.95306 4.89536 0
M  V30 1073 H 101.892 5.63154 5.10648 0
M  V30 1074 N 103.467 -1.45747 0.599634 0
M  V30 1075 C 104.399 -2.28628 -0.161879 0
M  V30 1076 C 105.412 -1.39494 -0.839367 0
M  V30 1077 O 106.601 -1.63941 -0.706089 0
M  V30 1078 C 103.701 -3.15014 -1.24976 0
M  V30 1079 C 102.874 -4.32378 -0.660935 0
M  V30 1080 C 101.933 -5.00033 -1.63869 0
M  V30 1081 O 100.959 -5.57085 -1.1681 0
M  V30 1082 N 102.161 -4.98589 -2.97303 0
M  V30 1083 H 104.926 -2.94624 0.549265 0
M  V30 1084 H 102.487 -1.55847 0.438565 0
M  V30 1085 H 104.479 -3.5714 -1.9035 0
M  V30 1086 H 103.049 -2.5098 -1.86354 0
M  V30 1087 H 102.269 -3.9383 0.170688 0
M  V30 1088 H 103.557 -5.08197 -0.247619 0
M  V30 1089 H 102.955 -4.53514 -3.38145 0
M  V30 1090 H 101.512 -5.44603 -3.58121 0
M  V30 1091 N 104.945 -0.338344 -1.53925 0
M  V30 1092 C 105.878 0.563758 -2.21127 0
M  V30 1093 C 106.856 1.10433 -1.19345 0
M  V30 1094 O 108.04 1.16557 -1.48144 0
M  V30 1095 C 105.167 1.77505 -2.88461 0
M  V30 1096 C 104.213 1.3644 -4.04087 0
M  V30 1097 S 105.046 0.388593 -5.34088 0
M  V30 1098 C 106.202 1.60683 -6.04923 0
M  V30 1099 H 106.435 -0.00704546 -2.97299 0
M  V30 1100 H 103.968 -0.122418 -1.53914 0
M  V30 1101 H 105.926 2.46999 -3.27875 0
M  V30 1102 H 104.587 2.31706 -2.12064 0
M  V30 1103 H 103.78 2.26739 -4.50117 0
M  V30 1104 H 103.382 0.748998 -3.66423 0
M  V30 1105 H 105.674 2.54209 -6.28 0
M  V30 1106 H 106.617 1.18842 -6.98056 0
M  V30 1107 H 107.025 1.80052 -5.35015 0
M  V30 1108 N 106.423 1.57458 -0.0668435 0
M  V30 1109 C 107.353 2.15468 0.899764 0
M  V30 1110 C 108.334 1.08042 1.31381 0
M  V30 1111 O 109.519 1.36054 1.38574 0
M  V30 1112 C 106.649 2.71232 2.16911 0
M  V30 1113 C 105.603 3.83781 1.89463 0
M  V30 1114 C 104.929 4.26127 3.22986 0
M  V30 1115 C 106.229 5.08238 1.20381 0
M  V30 1116 H 107.923 2.96488 0.416529 0
M  V30 1117 H 105.469 1.4262 0.198908 0
M  V30 1118 H 107.422 3.10458 2.84945 0
M  V30 1119 H 106.146 1.87426 2.67468 0
M  V30 1120 H 104.805 3.45051 1.23836 0
M  V30 1121 H 104.453 3.39249 3.71374 0
M  V30 1122 H 104.153 5.01993 3.05413 0
M  V30 1123 H 105.677 4.67966 3.92225 0
M  V30 1124 H 107.091 5.44811 1.78475 0
M  V30 1125 H 105.488 5.89349 1.13083 0
M  V30 1126 H 106.558 4.84558 0.182153 0
M  V30 1127 N 107.901 -0.206675 1.56239 0
M  V30 1128 C 108.864 -1.23976 1.92776 0
M  V30 1129 C 109.864 -1.39041 0.807729 0
M  V30 1130 O 111.054 -1.37051 1.0753 0
M  V30 1131 C 108.186 -2.61112 2.19165 0
M  V30 1132 H 109.379 -0.927764 2.85189 0
M  V30 1133 H 106.932 -0.447718 1.4975 0
M  V30 1134 H 107.667 -2.97386 1.29352 0
M  V30 1135 H 107.452 -2.51552 3.00772 0
M  V30 1136 H 108.942 -3.35633 2.48476 0
M  V30 1137 N 109.379 -1.50304 -0.473955 0
M  V30 1138 C 110.625 -1.61389 -1.22806 0
M  V30 1139 C 110.958 -0.311955 -1.91678 0
M  V30 1140 O 110.233 0.686384 -1.81986 0
M  V30 1141 C 110.516 -2.79219 -2.27396 0
M  V30 1142 C 110.369 -4.19286 -1.62848 0
M  V30 1143 C 111.688 -2.92614 -3.28732 0
M  V30 1144 H 108.807 -0.587399 -0.445119 0
M  V30 1145 H 111.449 -1.82681 -0.522265 0
M  V30 1146 H 109.599 -2.61195 -2.87592 0
M  V30 1147 H 111.271 -4.48892 -1.06271 0
M  V30 1148 H 109.514 -4.23677 -0.931693 0
M  V30 1149 H 110.185 -4.97655 -2.38838 0
M  V30 1150 H 112.661 -3.09105 -2.78556 0
M  V30 1151 H 111.537 -3.76688 -3.99246 0
M  V30 1152 H 111.798 -2.03107 -3.92683 0
M  V30 1153 N 110.857 0.726932 -1.39834 0
M  V30 1154 C 111.82 1.82269 -1.38962 0
M  V30 1155 C 112.82 1.58248 -0.285334 0
M  V30 1156 O 114.01 1.65499 -0.54366 0
M  V30 1157 C 111.142 3.20186 -1.17019 0
M  V30 1158 H 112.335 1.84443 -2.36476 0
M  V30 1159 H 109.888 0.931416 -1.25516 0
M  V30 1160 H 110.623 3.23669 -0.202204 0
M  V30 1161 H 110.408 3.3902 -1.96998 0
M  V30 1162 H 111.898 4.00235 -1.1917 0
M  V30 1163 N 112.336 1.25143 0.95797 0
M  V30 1164 C 113.299 1.05321 2.03569 0
M  V30 1165 C 114.299 0.007152 1.60798 0
M  V30 1166 O 115.489 0.24903 1.72411 0
M  V30 1167 C 112.621 0.598394 3.35607 0
M  V30 1168 H 113.814 2.00986 2.22586 0
M  V30 1169 H 111.367 1.07502 1.13459 0
M  V30 1170 H 112.102 -0.361014 3.22284 0
M  V30 1171 H 111.887 1.35351 3.67998 0
M  V30 1172 H 113.377 0.48104 4.1482 0
M  V30 1173 N 113.814 -1.1601 1.06675 0
M  V30 1174 C 115.091 -1.82679 0.699114 0
M  V30 1175 C 115.471 -1.94559 -0.819137 0
M  V30 1176 O 114.819 -1.49169 -1.73092 0
M  V30 1177 C 115.029 -3.19445 1.40555 0
M  V30 1178 C 116.377 -3.95171 1.55323 0
M  V30 1179 O 117.401 -3.28976 1.36577 0
M  V30 1180 O 116.26 -5.13833 1.86112 0
M  V30 1181 H 113.354 -0.788954 0.247951 0
M  V30 1182 H 115.9 -1.23179 1.16726 0
M  V30 1183 H 114.672 -3.05856 2.44065 0
M  V30 1184 H 114.295 -3.86625 0.927733 0
M  V30 1185 N 115.292 -0.849877 -1.32721 0
M  V30 1186 C 116.52 -0.464754 -2.01613 0
M  V30 1187 C 116.935 0.937191 -1.63897 0
M  V30 1188 O 116.292 1.61081 -0.857856 0
M  V30 1189 C 116.343 -0.588638 -3.56675 0
M  V30 1190 O 116.064 -1.93535 -3.93034 0
M  V30 1191 C 117.565 -0.2019 -4.4284 0
M  V30 1192 H 114.785 -0.183215 -0.645502 0
M  V30 1193 H 117.329 -1.1455 -1.69407 0
M  V30 1194 H 115.484 0.0443159 -3.87375 0
M  V30 1195 H 115.898 -1.92871 -4.87751 0
M  V30 1196 H 117.372 -0.339599 -5.50954 0
M  V30 1197 H 117.849 0.857224 -4.30753 0
M  V30 1198 H 118.455 -0.809733 -4.17521 0
M  V30 1199 N 116.77 1.45427 -0.607355 0
M  V30 1200 C 118.181 1.85756 -0.187535 0
M  V30 1201 C 118.532 1.5077 1.25551 0
M  V30 1202 O 117.657 0.93427 1.95193 0
M  V30 1203 C 118.252 3.37154 -0.333572 0
M  V30 1204 C 116.811 3.76387 0.0315542 0
M  V30 1205 C 115.958 2.69377 -0.658117 0
M  V30 1206 H 118.909 1.36231 -0.81405 0
M  V30 1207 H 118.93 3.78014 0.43428 0
M  V30 1208 H 118.442 3.62586 -1.38393 0
M  V30 1209 H 116.543 3.56571 1.0811 0
M  V30 1210 H 116.656 4.77731 -0.361935 0
M  V30 1211 H 115.02 2.5452 -0.0957873 0
M  V30 1212 H 115.803 2.97646 -1.7106 0
M  V30 1213 N 118.248 0.346503 1.53744 0
M  V30 1214 C 119.496 -0.248612 2.00565 0
M  V30 1215 C 119.817 -1.5083 1.23593 0
M  V30 1216 O 119.087 -1.92858 0.343912 0
M  V30 1217 H 117.667 -0.0948564 0.740953 0
M  V30 1218 H 120.329 0.468341 1.89189 0
M  V30 1219 H 119.425 -0.488994 3.08245 0
M  V30 1220 N 119.726 -1.57421 0.075193 0
M  V30 1221 C 121.137 -1.81021 -0.456964 0
M  V30 1222 C 121.488 -0.98936 -1.69429 0
M  V30 1223 O 120.613 -0.212865 -2.15351 0
M  V30 1224 C 121.208 -3.28329 -0.83581 0
M  V30 1225 C 119.767 -3.52764 -1.31281 0
M  V30 1226 C 118.914 -2.75676 -0.299648 0
M  V30 1227 H 121.865 -1.55822 0.300856 0
M  V30 1228 H 121.886 -3.40564 -1.69696 0
M  V30 1229 H 121.398 -3.88046 0.0649238 0
M  V30 1230 H 119.499 -2.98355 -2.23193 0
M  V30 1231 H 119.612 -4.61451 -1.28839 0
M  V30 1232 H 117.976 -2.42538 -0.777641 0
M  V30 1233 H 118.759 -3.38132 0.593417 0
M  V30 1234 N 121.204 0.198386 -1.56346 0
M  V30 1235 C 122.45 0.920648 -1.80698 0
M  V30 1236 C 122.783 1.83045 -0.648697 0
M  V30 1237 O 122.058 1.91308 0.350925 0
M  V30 1238 C 122.341 1.73971 -3.15287 0
M  V30 1239 C 122.194 0.85485 -4.41602 0
M  V30 1240 C 123.513 2.71296 -3.46535 0
M  V30 1241 H 120.632 0.333261 -0.657348 0
M  V30 1242 H 123.274 0.188198 -1.89066 0
M  V30 1243 H 121.424 2.36416 -3.08285 0
M  V30 1244 H 123.096 0.245362 -4.60647 0
M  V30 1245 H 121.339 0.161398 -4.335 0
M  V30 1246 H 122.01 1.46286 -5.32264 0
M  V30 1247 H 124.486 2.18983 -3.53816 0
M  V30 1248 H 123.362 3.2569 -4.41834 0
M  V30 1249 H 123.623 3.5018 -2.69864 0
M  V30 1250 N 122.682 1.50554 0.465978 0
M  V30 1251 C 123.907 1.65838 1.24549 0
M  V30 1252 C 124.332 0.343486 1.84937 0
M  V30 1253 O 123.69 -0.69324 1.67523 0
M  V30 1254 C 123.738 2.75533 2.32624 0
M  V30 1255 O 122.842 2.37142 3.37398 0
M  V30 1256 H 122.183 0.553893 0.366194 0
M  V30 1257 H 124.713 1.96959 0.553927 0
M  V30 1258 H 124.723 2.98763 2.77857 0
M  V30 1259 H 123.398 3.70962 1.88043 0
M  V30 1260 H 121.975 2.24377 2.97841 0
M  V30 1261 N 124.16 -0.719506 1.40217 0
M  V30 1262 C 125.571 -1.29848 1.34151 0
M  V30 1263 C 125.922 -1.96196 0.0131349 0
M  V30 1264 O 125.047 -1.973 -0.88892 0
M  V30 1265 C 125.642 -2.36118 2.42968 0
M  V30 1266 C 124.201 -2.8965 2.40374 0
M  V30 1267 C 123.348 -1.63393 2.24049 0
M  V30 1268 H 126.299 -0.51591 1.5008 0
M  V30 1269 H 126.32 -3.16871 2.10649 0
M  V30 1270 H 125.832 -1.878 3.39636 0
M  V30 1271 H 123.933 -3.42208 1.47392 0
M  V30 1272 H 124.046 -3.4171 3.35814 0
M  V30 1273 H 122.41 -1.88312 1.71495 0
M  V30 1274 H 123.193 -1.17104 3.2271 0
M  V30 1275 N 125.638 -1.25649 -0.95132 0
M  V30 1276 C 126.878 -1.11802 -1.71113 0
M  V30 1277 C 127.242 0.334758 -1.89059 0
M  V30 1278 O 128.443 0.595121 -2.62129 0
M  V30 1279 C 126.714 -1.85512 -3.05483 0
M  V30 1280 S 128.273 -1.87597 -3.96677 0
M  V30 1281 H 125.091 -0.399552 -0.588115 0
M  V30 1282 H 127.693 -1.59222 -1.1344 0
M  V30 1283 H 126.397 -2.90299 -2.90094 0
M  V30 1284 H 125.928 -1.38493 -3.68216 0
M  V30 1285 H 127.943 -0.955389 -4.86916 0
M  V30 1286 N 127.117 1.15442 -1.07289 0
M  V30 1287 C 128.365 1.85845 -0.794096 0
M  V30 1288 C 128.686 1.82692 0.681809 0
M  V30 1289 O 127.956 1.26741 1.49377 0
M  V30 1290 H 126.536 0.688089 -0.290763 0
M  V30 1291 H 129.198 1.39947 -1.3565 0
M  V30 1292 H 128.294 2.91001 -1.12804 0
M  V30 1293 N 128.595 0.856903 1.32268 0
M  V30 1294 C 129.558 0.308171 2.27119 0
M  V30 1295 C 130.558 -0.533421 1.51695 0
M  V30 1296 O 131.748 -0.344607 1.70757 0
M  V30 1297 C 128.88 -0.563757 3.36206 0
M  V30 1298 H 130.073 1.14535 2.77167 0
M  V30 1299 H 127.626 0.631421 1.42978 0
M  V30 1300 H 128.361 -1.42266 2.91429 0
M  V30 1301 H 128.146 0.0386749 3.92081 0
M  V30 1302 H 129.636 -0.940386 4.06874 0
M  V30 1303 N 130.073 -1.45103 0.615059 0
M  V30 1304 C 131.313 -2.04069 0.116282 0
M  V30 1305 C 131.677 -1.4721 -1.2326 0
M  V30 1306 O 132.878 -1.97577 -1.82255 0
M  V30 1307 C 131.149 -3.57298 0.085482 0
M  V30 1308 S 132.708 -4.37394 -0.351015 0
M  V30 1309 H 129.526 -0.709006 0.0532183 0
M  V30 1310 H 132.128 -1.77709 0.81484 0
M  V30 1311 H 130.832 -3.9619 1.0706 0
M  V30 1312 H 130.363 -3.88244 -0.634835 0
M  V30 1313 H 132.378 -4.69734 -1.59889 0
M  V30 1314 N 131.551 -0.354651 -1.53558 0
M  V30 1315 C 132.967 -0.00315426 -1.596 0
M  V30 1316 C 133.167 1.47741 -1.37021 0
M  V30 1317 O 132.223 2.23759 -1.16996 0
M  V30 1318 C 133.536 -0.44929 -2.97325 0
M  V30 1319 C 135.084 -0.402578 -3.104 0
M  V30 1320 C 135.559 -0.824355 -4.5052 0
M  V30 1321 N 137.05 -0.778979 -4.56603 0
M  V30 1322 C 137.785 -1.07715 -5.63192 0
M  V30 1323 N 137.281 -1.44405 -6.77583 0
M  V30 1324 N 139.074 -1.00066 -5.53121 0
M  V30 1325 H 131.225 -1.31893 -1.66487 0
M  V30 1326 H 133.488 -0.538388 -0.780284 0
M  V30 1327 H 133.194 -1.48202 -3.1895 0
M  V30 1328 H 133.068 0.169772 -3.76818 0
M  V30 1329 H 135.455 0.621004 -2.88492 0
M  V30 1330 H 135.536 -1.05699 -2.32941 0
M  V30 1331 H 135.18 -1.846 -4.73165 0
M  V30 1332 H 135.11 -0.147304 -5.26394 0
M  V30 1333 H 137.601 -0.508528 -3.74463 0
M  V30 1334 H 137.914 -1.65612 -7.54846 0
M  V30 1335 H 136.259 -1.4826 -6.79002 0
M  V30 1336 H 139.45 -0.713293 -4.62633 0
M  V30 1337 H 139.623 -1.23638 -6.36096 0
M  V30 1338 N 133.029 1.57378 -0.0835403 0
M  V30 1339 C 133.961 2.10389 0.909338 0
M  V30 1340 C 134.974 1.03858 1.25369 0
M  V30 1341 O 136.163 1.31338 1.20882 0
M  V30 1342 C 133.263 2.55908 2.2218 0
M  V30 1343 C 132.436 3.86145 2.05453 0
M  V30 1344 C 131.495 4.17633 3.20108 0
M  V30 1345 O 130.521 4.87043 2.94581 0
M  V30 1346 N 131.723 3.72113 4.45547 0
M  V30 1347 H 134.488 2.962 0.456657 0
M  V30 1348 H 132.049 1.61579 0.101877 0
M  V30 1349 H 134.041 2.74027 2.97811 0
M  V30 1350 H 132.611 1.75171 2.58909 0
M  V30 1351 H 131.831 3.7729 1.1422 0
M  V30 1352 H 133.119 4.7137 1.91541 0
M  V30 1353 H 132.517 3.16062 4.69171 0
M  V30 1354 H 131.074 3.95409 5.18165 0
M  V30 1355 N 134.507 -0.190092 1.56449 0
M  V30 1356 C 135.753 -0.911052 1.81184 0
M  V30 1357 C 136.086 -1.82699 0.658396 0
M  V30 1358 O 135.361 -1.91491 -0.340775 0
M  V30 1359 C 135.644 -1.72297 3.16205 0
M  V30 1360 C 135.497 -0.831419 4.42049 0
M  V30 1361 C 136.816 -2.69454 3.47969 0
M  V30 1362 H 133.935 -0.32977 0.659106 0
M  V30 1363 H 136.577 -0.178169 1.89163 0
M  V30 1364 H 134.727 -2.34778 3.09534 0
M  V30 1365 H 136.399 -0.220929 4.60771 0
M  V30 1366 H 134.642 -0.138406 4.33579 0
M  V30 1367 H 135.313 -1.43461 5.33032 0
M  V30 1368 H 137.789 -2.17104 3.54972 0
M  V30 1369 H 136.665 -3.23342 4.43555 0
M  V30 1370 H 136.926 -3.48744 2.71717 0
M  V30 1371 N 135.985 -1.50799 -0.457987 0
M  V30 1372 C 137.234 -1.6168 -1.20593 0
M  V30 1373 C 137.547 -0.32888 -1.92815 0
M  V30 1374 O 138.753 -0.316773 -2.69646 0
M  V30 1375 C 137.209 -2.8545 -2.19195 0
M  V30 1376 C 136.817 -4.21168 -1.52715 0
M  V30 1377 C 138.561 -3.05681 -2.94549 0
M  V30 1378 C 136.468 -5.3611 -2.4968 0
M  V30 1379 H 135.398 -0.602134 -0.453818 0
M  V30 1380 H 138.049 -1.77245 -0.475031 0
M  V30 1381 H 136.431 -2.63472 -2.95632 0
M  V30 1382 H 137.605 -4.53449 -0.819775 0
M  V30 1383 H 135.92 -4.06648 -0.895922 0
M  V30 1384 H 138.517 -3.88727 -3.67145 0
M  V30 1385 H 138.86 -2.17929 -3.54701 0
M  V30 1386 H 139.393 -3.27901 -2.25223 0
M  V30 1387 H 136.132 -6.26057 -1.94249 0
M  V30 1388 H 135.652 -5.0823 -3.18532 0
M  V30 1389 H 137.331 -5.6722 -3.11241 0
M  V30 1390 N 137.463 0.71206 -1.40597 0
M  V30 1391 C 138.688 1.50617 -1.42581 0
M  V30 1392 C 139.113 1.88079 -0.0282102 0
M  V30 1393 O 138.471 1.53511 0.964579 0
M  V30 1394 C 138.519 2.7557 -2.3258 0
M  V30 1395 O 137.623 3.72414 -1.77148 0
M  V30 1396 H 136.964 0.453966 -0.484573 0
M  V30 1397 H 139.494 0.876649 -1.84868 0
M  V30 1398 H 139.504 3.2406 -2.47889 0
M  V30 1399 H 138.179 2.47639 -3.34138 0
M  V30 1400 H 136.756 3.31276 -1.71204 0
M  V30 1401 N 138.941 1.26152 0.944643 0
M  V30 1402 C 139.851 1.09176 2.07648 0
M  V30 1403 C 140.867 0.0261935 1.7398 0
M  V30 1404 O 142.043 0.229208 2.00091 0
M  V30 1405 C 139.108 0.722915 3.39079 0
M  V30 1406 C 138.169 1.86752 3.86552 0
M  V30 1407 C 137.402 1.51617 5.11711 0
M  V30 1408 O 137.625 0.416331 5.68879 0
M  V30 1409 O 136.559 2.34975 5.54139 0
M  V30 1410 H 140.385 2.0412 2.24875 0
M  V30 1411 H 137.97 1.05182 1.061 0
M  V30 1412 H 139.852 0.529787 4.18056 0
M  V30 1413 H 138.527 -0.197159 3.23099 0
M  V30 1414 H 137.434 2.11558 3.08535 0
M  V30 1415 H 138.767 2.76719 4.07047 0
M  V30 1416 N 140.419 -1.14872 1.07899 0
M  V30 1417 C 141.349 -2.2193 0.725887 0
M  V30 1418 C 142.33 -1.67622 -0.28927 0
M  V30 1419 O 143.515 -1.93533 -0.160787 0
M  V30 1420 C 140.645 -3.47061 0.128856 0
M  V30 1421 C 139.599 -4.14363 1.07178 0
M  V30 1422 C 138.925 -5.33636 0.337229 0
M  V30 1423 C 140.225 -4.63492 2.40775 0
M  V30 1424 H 141.919 -2.51724 1.62097 0
M  V30 1425 H 139.465 -1.20991 0.780838 0
M  V30 1426 H 141.418 -4.21199 -0.130147 0
M  V30 1427 H 140.142 -3.16617 -0.80134 0
M  V30 1428 H 138.801 -3.42173 1.3158 0
M  V30 1429 H 138.449 -4.99449 -0.596606 0
M  V30 1430 H 138.149 -5.79609 0.965788 0
M  V30 1431 H 139.673 -6.10539 0.0861567 0
M  V30 1432 H 141.087 -5.2913 2.20669 0
M  V30 1433 H 139.484 -5.20148 2.99276 0
M  V30 1434 H 140.554 -3.78834 3.02676 0
M  V30 1435 N 141.898 -0.863906 -1.31812 0
M  V30 1436 C 143.138 -0.47825 -1.98726 0
M  V30 1437 C 143.502 0.950397 -1.66828 0
M  V30 1438 O 144.703 1.44109 -2.26905 0
M  V30 1439 C 142.974 -0.721134 -3.50049 0
M  V30 1440 S 144.533 -0.434432 -4.36644 0
M  V30 1441 H 141.351 -0.178773 -0.688158 0
M  V30 1442 H 143.953 -1.11862 -1.60334 0
M  V30 1443 H 142.657 -1.75981 -3.70755 0
M  V30 1444 H 142.188 -0.0675315 -3.93342 0
M  V30 1445 H 144.203 0.735786 -4.90714 0
M  V30 1446 N 143.376 1.44774 -0.622745 0
M  V30 1447 C 144.604 2.06487 -0.130722 0
M  V30 1448 C 145.019 1.46476 1.19123 0
M  V30 1449 O 144.376 0.584502 1.72887 0
M  V30 1450 C 144.427 3.615 -0.000807207 0
M  V30 1451 O 144.148 4.19274 -1.27048 0
M  V30 1452 C 145.649 4.40229 0.520898 0
M  V30 1453 H 142.869 0.666704 -0.0758106 0
M  V30 1454 H 145.413 1.85779 -0.854774 0
M  V30 1455 H 143.568 3.81498 0.673643 0
M  V30 1456 H 143.982 5.12622 -1.1099 0
M  V30 1457 H 145.456 5.49144 0.560838 0
M  V30 1458 H 145.933 4.1108 1.54627 0
M  V30 1459 H 146.539 4.25131 -0.120018 0
M  V30 1460 N 144.854 0.36279 1.53368 0
M  V30 1461 C 145.801 -0.485008 2.25646 0
M  V30 1462 C 146.771 -1.07982 1.2621 0
M  V30 1463 O 147.956 -1.11284 1.54986 0
M  V30 1464 C 145.096 -1.62023 3.04701 0
M  V30 1465 C 144.209 -1.05086 4.19024 0
M  V30 1466 C 143.344 -2.15496 4.85525 0
M  V30 1467 C 142.383 -1.5601 5.91884 0
M  V30 1468 N 141.52 -2.60241 6.52088 0
M  V30 1469 H 146.36 0.137864 2.97681 0
M  V30 1470 H 143.897 0.0798061 1.46883 0
M  V30 1471 H 145.855 -2.28887 3.48807 0
M  V30 1472 H 144.485 -2.2138 2.34927 0
M  V30 1473 H 143.537 -0.27259 3.79422 0
M  V30 1474 H 144.849 -0.575926 4.95464 0
M  V30 1475 H 144.003 -2.90186 5.32801 0
M  V30 1476 H 142.742 -2.66341 4.08551 0
M  V30 1477 H 141.747 -0.798338 5.43973 0
M  V30 1478 H 142.972 -1.05994 6.70777 0
M  V30 1479 H 140.918 -3.10304 5.77968 0
M  V30 1480 H 140.835 -2.17426 7.24059 0
M  V30 1481 H 142.103 -3.34641 7.04014 0
M  V30 1482 N 146.332 -1.57332 0.0918853 0
M  V30 1483 C 147.609 -1.85691 -0.614668 0
M  V30 1484 C 147.989 -0.988146 -1.86545 0
M  V30 1485 O 147.337 -0.0597055 -2.28422 0
M  V30 1486 C 147.547 -3.36294 -0.933126 0
M  V30 1487 C 148.895 -4.04275 -1.29796 0
M  V30 1488 O 149.919 -3.41157 -1.02424 0
M  V30 1489 O 148.778 -5.1564 -1.81047 0
M  V30 1490 H 145.872 -0.767802 -0.307261 0
M  V30 1491 H 148.418 -1.69244 0.12434 0
M  V30 1492 H 147.19 -3.91273 -0.0456404 0
M  V30 1493 H 146.813 -3.58076 -1.72822 0
M  V30 1494 N 147.81 0.181792 -1.56548 0
M  V30 1495 C 149.056 0.901431 -1.81665 0
M  V30 1496 C 149.389 1.82347 -0.668075 0
M  V30 1497 O 148.664 1.91669 0.330615 0
M  V30 1498 C 148.947 1.70618 -3.17115 0
M  V30 1499 C 148.8 0.807964 -4.42484 0
M  V30 1500 C 150.119 2.67605 -3.49393 0
M  V30 1501 H 147.238 0.32627 -0.660846 0
M  V30 1502 H 149.88 0.168134 -1.89255 0
M  V30 1503 H 148.03 2.33133 -3.10775 0
M  V30 1504 H 149.702 0.19649 -4.60881 0
M  V30 1505 H 147.945 0.115411 -4.33646 0
M  V30 1506 H 148.616 1.40632 -5.33785 0
M  V30 1507 H 151.092 2.15218 -3.56118 0
M  V30 1508 H 149.968 3.20985 -4.45264 0
M  V30 1509 H 150.229 3.47298 -2.73563 0
M  V30 1510 N 149.288 1.51039 0.449983 0
M  V30 1511 C 150.537 1.62317 1.19733 0
M  V30 1512 C 150.85 0.339101 1.92638 0
M  V30 1513 O 152.056 0.331069 2.69474 0
M  V30 1514 C 150.512 2.86608 2.17678 0
M  V30 1515 C 150.12 4.21972 1.50479 0
M  V30 1516 C 151.864 3.07239 2.92924 0
M  V30 1517 C 149.771 5.37426 2.46834 0
M  V30 1518 H 148.701 0.604532 0.450619 0
M  V30 1519 H 151.352 1.77494 0.465625 0
M  V30 1520 H 149.734 2.65037 2.94231 0
M  V30 1521 H 150.908 4.53878 0.795716 0
M  V30 1522 H 149.223 4.07117 0.874344 0
M  V30 1523 H 151.82 3.90668 3.65079 0
M  V30 1524 H 152.163 2.19807 3.5354 0
M  V30 1525 H 152.696 3.29091 2.23481 0
M  V30 1526 H 149.435 6.27079 1.90926 0
M  V30 1527 H 148.955 5.09912 3.15832 0
M  V30 1528 H 150.634 5.68862 3.08228 0
M  V30 1529 N 150.766 -0.704594 1.40972 0
M  V30 1530 C 152.012 -1.46675 1.40051 0
M  V30 1531 C 152.345 -1.94199 0.00641102 0
M  V30 1532 O 151.62 -1.68916 -0.964235 0
M  V30 1533 C 151.903 -2.68505 2.39952 0
M  V30 1534 C 151.756 -2.26805 3.88432 0
M  V30 1535 C 153.075 -3.70686 2.37233 0
M  V30 1536 H 150.194 -0.532015 0.510028 0
M  V30 1537 H 152.836 -0.803255 1.72185 0
M  V30 1538 H 150.986 -3.25114 2.1268 0
M  V30 1539 H 152.658 -1.75592 4.26574 0
M  V30 1540 H 150.901 -1.58685 4.03734 0
M  V30 1541 H 151.572 -3.14181 4.53866 0
M  V30 1542 H 154.048 -3.23731 2.61415 0
M  V30 1543 H 152.924 -4.53553 3.09162 0
M  V30 1544 H 153.185 -4.19754 1.38777 0
M  V30 1545 N 152.244 -1.26651 -0.937939 0
M  V30 1546 C 153.49 -1.12553 -1.687 0
M  V30 1547 C 153.823 0.329782 -1.91379 0
M  V30 1548 O 153.098 1.24202 -1.4968 0
M  V30 1549 C 153.381 -1.89862 -3.05981 0
M  V30 1550 C 153.234 -3.43318 -2.90607 0
M  V30 1551 C 154.553 -1.69499 -4.0615 0
M  V30 1552 H 151.672 -0.410257 -0.612257 0
M  V30 1553 H 154.314 -1.55685 -1.08913 0
M  V30 1554 H 152.464 -1.53204 -3.57017 0
M  V30 1555 H 154.136 -3.89747 -2.46769 0
M  V30 1556 H 152.379 -3.70179 -2.26164 0
M  V30 1557 H 153.05 -3.92642 -3.8799 0
M  V30 1558 H 155.526 -2.01442 -3.64088 0
M  V30 1559 H 154.402 -2.26002 -5.00214 0
M  V30 1560 H 154.663 -0.640365 -4.37438 0
M  V30 1561 N 153.722 1.14298 -1.08507 0
M  V30 1562 C 154.652 2.21542 -0.737646 0
M  V30 1563 C 155.633 1.67773 0.280377 0
M  V30 1564 O 156.818 1.93616 0.150521 0
M  V30 1565 C 153.948 3.46988 -0.147259 0
M  V30 1566 C 152.902 4.13789 -1.09374 0
M  V30 1567 C 152.228 5.33449 -0.365524 0
M  V30 1568 C 153.528 4.62208 -2.4323 0
M  V30 1569 H 155.222 2.5086 -1.6343 0
M  V30 1570 H 152.768 1.20576 -0.787243 0
M  V30 1571 H 154.721 4.21262 0.107808 0
M  V30 1572 H 153.445 3.17037 0.784538 0
M  V30 1573 H 152.104 3.4147 -1.33393 0
M  V30 1574 H 151.752 4.99759 0.57011 0
M  V30 1575 H 151.452 5.79088 -0.996512 0
M  V30 1576 H 152.976 6.10485 -0.118534 0
M  V30 1577 H 154.39 5.27952 -2.23472 0
M  V30 1578 H 152.787 5.18553 -3.02031 0
M  V30 1579 H 153.857 3.77224 -3.04681 0
M  V30 1580 N 155.201 0.870884 1.31352 0
M  V30 1581 C 156.429 0.49677 2.00848 0
M  V30 1582 C 156.844 -0.910998 1.65367 0
M  V30 1583 O 156.201 -1.59696 0.883374 0
M  V30 1584 C 156.252 0.645308 3.55694 0
M  V30 1585 O 155.973 1.99764 3.89905 0
M  V30 1586 C 157.474 0.272326 4.42463 0
M  V30 1587 H 154.694 0.193462 0.642506 0
M  V30 1588 H 157.238 1.1723 1.67563 0
M  V30 1589 H 155.393 0.0173176 3.87396 0
M  V30 1590 H 155.807 2.00607 4.84621 0
M  V30 1591 H 157.281 0.427208 5.50344 0
M  V30 1592 H 157.758 -0.788587 4.32062 0
M  V30 1593 H 158.364 0.876054 4.1618 0
M  V30 1594 N 156.679 -1.44442 0.630414 0
M  V30 1595 C 157.627 -2.32437 -0.0871428 0
M  V30 1596 C 158.621 -1.47304 -0.836525 0
M  V30 1597 O 159.827 -1.63653 -0.749506 0
M  V30 1598 H 156.202 -0.750533 -0.0469495 0
M  V30 1599 H 158.173 -2.90709 0.673096 0
M  V30 1600 C 156.922 -3.31288 -1.05563 0
M  V30 1601 H 156.245 -3.96805 -0.488426 0
M  V30 1602 H 157.685 -3.9554 -1.52721 0
M  V30 1603 C 156.144 -2.6016 -2.14052 0
M  V30 1604 O 156.674 -2.39997 -3.22124 0
M  V30 1605 N 154.88 -2.19911 -1.89967 0
M  V30 1606 H 154.427 -2.36509 -1.02085 0
M  V30 1607 H 154.385 -1.72646 -2.62756 0
M  V30 1608 N 158.157 -0.370918 -1.53173 0
M  V30 1609 C 159.087 0.464847 -2.28826 0
M  V30 1610 C 160.068 1.07936 -1.31468 0
M  V30 1611 O 161.253 1.0956 -1.60344 0
M  V30 1612 C 158.383 1.60196 -3.08147 0
M  V30 1613 C 157.337 1.11443 -4.13237 0
M  V30 1614 C 156.663 2.3422 -4.80672 0
M  V30 1615 C 157.963 0.195384 -5.21934 0
M  V30 1616 H 159.657 -0.166329 -2.98938 0
M  V30 1617 H 157.203 -0.0814359 -1.4377 0
M  V30 1618 H 159.156 2.19332 -3.59822 0
M  V30 1619 H 157.88 2.26045 -2.35735 0
M  V30 1620 H 156.539 0.545727 -3.62515 0
M  V30 1621 H 156.187 2.98537 -4.04827 0
M  V30 1622 H 155.887 2.02269 -5.51689 0
M  V30 1623 H 157.411 2.94032 -5.35143 0
M  V30 1624 H 158.825 0.694375 -5.69079 0
M  V30 1625 H 157.222 -0.0335027 -6.00091 0
M  V30 1626 H 158.292 -0.760961 -4.78892 0
M  V30 1627 N 159.635 1.57281 -0.100228 0
M  V30 1628 C 160.567 2.11342 0.886972 0
M  V30 1629 C 161.58 1.05182 1.24261 0
M  V30 1630 O 162.769 1.32613 1.19483 0
M  V30 1631 C 159.869 2.5825 2.19454 0
M  V30 1632 C 159.042 3.88302 2.01346 0
M  V30 1633 C 158.101 4.21004 3.15661 0
M  V30 1634 O 157.127 4.9014 2.89398 0
M  V30 1635 N 158.329 3.76818 4.41575 0
M  V30 1636 H 161.094 2.96668 0.425216 0
M  V30 1637 H 158.655 1.61678 0.0847334 0
M  V30 1638 H 160.647 2.7717 2.94888 0
M  V30 1639 H 159.217 1.77907 2.57037 0
M  V30 1640 H 158.437 3.7848 1.10212 0
M  V30 1641 H 159.725 4.73375 1.8653 0
M  V30 1642 H 159.123 3.2102 4.65792 0
M  V30 1643 H 157.68 4.00882 5.13942 0
M  V30 1644 N 161.113 -0.173488 1.56642 0
M  V30 1645 C 162.361 -0.888706 1.81512 0
M  V30 1646 C 162.682 -1.82875 0.676872 0
M  V30 1647 O 161.952 -1.93536 -0.303414 0
M  V30 1648 H 160.532 -0.331164 0.669582 0
M  V30 1649 H 163.194 -0.173823 1.94123 0
M  V30 1650 H 162.29 -1.46691 2.75478 0
M  V30 1651 N 162.591 -1.51276 -0.441967 0
M  V30 1652 C 163.523 -1.68444 -1.55433 0
M  V30 1653 C 164.536 -0.565187 -1.52674 0
M  V30 1654 O 165.725 -0.839356 -1.57534 0
M  V30 1655 C 162.825 -1.67966 -2.94348 0
M  V30 1656 C 161.998 -2.964 -3.21661 0
M  V30 1657 C 161.057 -2.88171 -4.40277 0
M  V30 1658 O 160.083 -3.62119 -4.39157 0
M  V30 1659 N 161.285 -2.03706 -5.43584 0
M  V30 1660 H 164.05 -2.644 -1.41112 0
M  V30 1661 H 161.611 -1.49104 -0.630838 0
M  V30 1662 H 163.603 -1.60035 -3.71713 0
M  V30 1663 H 162.173 -0.796225 -3.0229 0
M  V30 1664 H 161.393 -3.18234 -2.32638 0
M  V30 1665 H 162.681 -3.81427 -3.36736 0
M  V30 1666 H 162.079 -1.42995 -5.47329 0
M  V30 1667 H 160.636 -2.01658 -6.1982 0
M  V30 1668 N 164.069 0.697108 -1.41344 0
M  V30 1669 C 165.318 1.45279 -1.39918 0
M  V30 1670 C 165.631 1.95597 -0.0109624 0
M  V30 1671 O 166.837 2.71208 0.125919 0
M  V30 1672 C 165.293 2.62695 -2.46007 0
M  V30 1673 C 164.901 2.19169 -3.90729 0
M  V30 1674 C 166.645 3.40336 -2.53715 0
M  V30 1675 C 164.552 3.33535 -4.88373 0
M  V30 1676 H 163.482 0.545692 -0.520323 0
M  V30 1677 H 166.133 0.756929 -1.67161 0
M  V30 1678 H 164.515 3.34541 -2.11892 0
M  V30 1679 H 165.689 1.54623 -4.34083 0
M  V30 1680 H 164.004 1.54525 -3.86666 0
M  V30 1681 H 166.601 4.2547 -3.2385 0
M  V30 1682 H 166.944 3.85418 -1.5735 0
M  V30 1683 H 167.477 2.75546 -2.86913 0
M  V30 1684 H 164.216 2.93468 -5.86137 0
M  V30 1685 H 163.736 3.96936 -4.49668 0
M  V30 1686 H 165.415 3.99335 -5.09059 0
M  V30 1687 N 165.547 1.27147 0.931209 0
M  V30 1688 C 166.494 1.09568 2.03134 0
M  V30 1689 C 167.464 -0.00222433 1.661 0
M  V30 1690 O 168.649 0.159439 1.90133 0
M  V30 1691 C 165.789 0.745231 3.36957 0
M  V30 1692 C 164.902 1.92041 3.86968 0
M  V30 1693 C 164.037 1.51216 5.09222 0
M  V30 1694 C 163.076 2.65504 5.5152 0
M  V30 1695 N 162.213 2.25291 6.64972 0
M  V30 1696 H 167.053 2.03708 2.17502 0
M  V30 1697 H 164.59 1.01411 1.06556 0
M  V30 1698 H 166.548 0.522878 4.1391 0
M  V30 1699 H 165.178 -0.159202 3.22407 0
M  V30 1700 H 164.23 2.25541 3.06326 0
M  V30 1701 H 165.542 2.77787 4.1429 0
M  V30 1702 H 164.696 1.25084 5.93666 0
M  V30 1703 H 163.435 0.625749 4.83669 0
M  V30 1704 H 162.44 2.92354 4.65628 0
M  V30 1705 H 163.665 3.54761 5.7907 0
M  V30 1706 H 161.611 1.39098 6.41083 0
M  V30 1707 H 161.528 3.04577 6.91931 0
M  V30 1708 H 162.796 2.02398 7.52765 0
M  V30 1709 N 167.025 -1.13721 1.09112 0
M  V30 1710 C 167.935 -2.22638 0.73957 0
M  V30 1711 C 168.951 -1.72091 -0.257068 0
M  V30 1712 O 170.127 -2.01155 -0.0992154 0
M  V30 1713 C 167.192 -3.46322 0.16191 0
M  V30 1714 C 166.253 -4.11775 1.21408 0
M  V30 1715 C 165.486 -5.29555 0.663891 0
M  V30 1716 O 165.709 -5.68077 -0.514274 0
M  V30 1717 O 164.643 -5.84973 1.41738 0
M  V30 1718 H 168.469 -2.55074 1.64836 0
M  V30 1719 H 166.054 -1.21791 0.865289 0
M  V30 1720 H 167.936 -4.21107 -0.157073 0
M  V30 1721 H 166.611 -3.15593 -0.719932 0
M  V30 1722 H 165.518 -3.3883 1.58571 0
M  V30 1723 H 166.851 -4.46627 2.06845 0
M  V30 1724 N 168.503 -0.877838 -1.30888 0
M  V30 1725 C 169.436 -0.283995 -2.26426 0
M  V30 1726 C 170.414 0.591361 -1.51465 0
M  V30 1727 O 171.598 0.54304 -1.80509 0
M  V30 1728 C 168.725 0.597129 -3.33395 0
M  V30 1729 C 167.771 -0.207937 -4.25993 0
M  V30 1730 S 168.604 -1.59158 -5.11301 0
M  V30 1731 C 169.76 -0.716791 -6.21782 0
M  V30 1732 H 169.993 -1.09383 -2.76446 0
M  V30 1733 H 167.526 -0.676828 -1.38775 0
M  V30 1734 H 169.484 1.09978 -3.95493 0
M  V30 1735 H 168.145 1.38099 -2.82113 0
M  V30 1736 H 167.338 0.464163 -5.01858 0
M  V30 1737 H 166.94 -0.642963 -3.68432 0
M  V30 1738 H 169.232 0.0692833 -6.77465 0
M  V30 1739 H 170.175 -1.44682 -6.93161 0
M  V30 1740 H 170.583 -0.280855 -5.63801 0
M  V30 1741 N 169.982 1.44106 -0.638065 0
M  V30 1742 C 171.21 2.06336 -0.152615 0
M  V30 1743 C 171.625 1.47731 1.17563 0
M  V30 1744 O 170.982 0.602806 1.72257 0
M  V30 1745 C 171.033 3.61479 -0.0391491 0
M  V30 1746 O 170.754 4.17903 -1.31487 0
M  V30 1747 C 172.255 4.40757 0.474176 0
M  V30 1748 H 169.475 0.665862 -0.0828776 0
M  V30 1749 H 172.019 1.84862 -0.87443 0
M  V30 1750 H 170.174 3.82191 0.633142 0
M  V30 1751 H 170.588 5.11416 -1.16421 0
M  V30 1752 H 172.062 5.49707 0.502562 0
M  V30 1753 H 172.539 4.12697 1.50258 0
M  V30 1754 H 173.145 4.24979 -0.165102 0
M  V30 1755 N 171.46 0.379036 1.52974 0
M  V30 1756 C 172.706 -0.206727 2.01744 0
M  V30 1757 C 173.039 -1.47314 1.26539 0
M  V30 1758 O 172.314 -1.91084 0.362903 0
M  V30 1759 C 172.597 -0.485066 3.56818 0
M  V30 1760 C 172.45 0.795919 4.42702 0
M  V30 1761 C 173.769 -1.28003 4.21074 0
M  V30 1762 H 170.888 -0.0736607 0.73331 0
M  V30 1763 H 173.53 0.506581 1.83122 0
M  V30 1764 H 171.68 -1.09272 3.72816 0
M  V30 1765 H 173.352 1.43307 4.38476 0
M  V30 1766 H 171.595 1.41344 4.10127 0
M  V30 1767 H 172.266 0.555947 5.49193 0
M  V30 1768 H 174.742 -0.765867 4.08991 0
M  V30 1769 H 173.618 -1.44352 5.29579 0
M  V30 1770 H 173.879 -2.29236 3.78026 0
M  V30 1771 N 172.938 -1.57226 0.108567 0
M  V30 1772 C 173.848 -2.18292 -0.859401 0
M  V30 1773 C 174.864 -1.15612 -1.30038 0
M  V30 1774 O 176.04 -1.48039 -1.36552 0
M  V30 1775 C 173.105 -2.762 -2.09558 0
M  V30 1776 C 172.166 -3.93881 -1.70752 0
M  V30 1777 C 171.399 -4.49018 -2.88477 0
M  V30 1778 O 171.622 -4.03068 -4.036 0
M  V30 1779 O 170.556 -5.39852 -2.66164 0
M  V30 1780 H 174.382 -3.01441 -0.369769 0
M  V30 1781 H 171.967 -1.48945 -0.1165 0
M  V30 1782 H 173.849 -3.13156 -2.81978 0
M  V30 1783 H 172.524 -1.96089 -2.57548 0
M  V30 1784 H 171.431 -3.61713 -0.954714 0
M  V30 1785 H 172.764 -4.75396 -1.27513 0
M  V30 1786 N 174.416 0.165178 -1.56732 0
M  V30 1787 C 175.326 1.22423 -2.00125 0
M  V30 1788 C 176.342 1.48084 -0.913619 0
M  V30 1789 O 177.518 1.60112 -1.22172 0
M  V30 1790 C 174.583 2.54197 -2.35764 0
M  V30 1791 C 173.644 2.36343 -3.58386 0
M  V30 1792 C 172.877 3.61834 -3.92316 0
M  V30 1793 O 173.1 4.67267 -3.27135 0
M  V30 1794 O 172.034 3.55579 -4.85641 0
M  V30 1795 H 175.86 0.885886 -2.90492 0
M  V30 1796 H 173.445 0.372518 -1.44681 0
M  V30 1797 H 175.327 3.3192 -2.59629 0
M  V30 1798 H 174.002 2.87598 -1.48557 0
M  V30 1799 H 172.909 1.56632 -3.39731 0
M  V30 1800 H 174.242 2.07865 -4.46154 0
M  V30 1801 N 175.894 1.51508 0.433938 0
M  V30 1802 C 176.824 1.76016 1.53429 0
M  V30 1803 C 177.805 0.610112 1.58782 0
M  V30 1804 O 178.99 0.853177 1.74455 0
M  V30 1805 C 176.12 1.88831 2.9148 0
M  V30 1806 C 175.074 3.04288 3.00987 0
M  V30 1807 C 174.4 3.0229 4.4105 0
M  V30 1808 C 175.7 4.44193 2.74754 0
M  V30 1809 H 177.394 2.68152 1.33171 0
M  V30 1810 H 174.94 1.29035 0.639214 0
M  V30 1811 H 176.893 2.04559 3.6842 0
M  V30 1812 H 175.617 0.933455 3.12976 0
M  V30 1813 H 174.276 2.8827 2.26486 0
M  V30 1814 H 173.924 2.04576 4.59519 0
M  V30 1815 H 173.624 3.79822 4.4834 0
M  V30 1816 H 175.148 3.20116 5.1996 0
M  V30 1817 H 176.562 4.60544 3.41426 0
M  V30 1818 H 174.959 5.23457 2.9345 0
M  V30 1819 H 176.029 4.53996 1.70339 0
M  V30 1820 N 177.372 -0.689602 1.41712 0
M  V30 1821 C 178.302 -1.81577 1.46806 0
M  V30 1822 C 179.283 -1.66945 0.326105 0
M  V30 1823 O 180.468 -1.86588 0.538377 0
M  V30 1824 C 177.598 -3.19762 1.35535 0
M  V30 1825 C 176.552 -3.49107 2.47605 0
M  V30 1826 C 175.878 -4.86711 2.21397 0
M  V30 1827 C 177.178 -3.47483 3.89939 0
M  V30 1828 H 178.872 -1.7757 2.41058 0
M  V30 1829 H 176.418 -0.852887 1.16025 0
M  V30 1830 H 178.371 -3.98263 1.3771 0
M  V30 1831 H 177.095 -3.24409 0.377708 0
M  V30 1832 H 175.754 -2.72959 2.44722 0
M  V30 1833 H 175.402 -4.8799 1.21961 0
M  V30 1834 H 175.102 -5.0731 2.96497 0
M  V30 1835 H 176.626 -5.67515 2.25297 0
M  V30 1836 H 178.04 -4.1598 3.94505 0
M  V30 1837 H 176.437 -3.79615 4.64771 0
M  V30 1838 H 177.507 -2.46341 4.17665 0
M  V30 1839 N 178.85 -1.27639 -0.924453 0
M  V30 1840 C 180.261 -1.12834 -1.48746 0
M  V30 1841 C 180.612 0.285505 -1.94112 0
M  V30 1842 O 179.737 1.17874 -1.81479 0
M  V30 1843 C 180.332 -2.04217 -2.70334 0
M  V30 1844 C 178.891 -1.93509 -3.22848 0
M  V30 1845 C 178.038 -1.96583 -1.95577 0
M  V30 1846 H 180.989 -1.40484 -0.738233 0
M  V30 1847 H 181.01 -1.59989 -3.4523 0
M  V30 1848 H 180.522 -3.07111 -2.37285 0
M  V30 1849 H 178.623 -0.936131 -3.60649 0
M  V30 1850 H 178.736 -2.79917 -3.88823 0
M  V30 1851 H 177.1 -1.4085 -2.12211 0
M  V30 1852 H 177.883 -3.01137 -1.64837 0
M  V30 1853 N 180.328 1.1314 -1.09713 0
M  V30 1854 C 181.576 1.84119 -0.833338 0
M  V30 1855 C 181.897 1.84097 0.642904 0
M  V30 1856 O 181.167 1.29881 1.46655 0
M  V30 1857 H 179.747 0.681766 -0.305293 0
M  V30 1858 H 182.409 1.37038 -1.38588 0
M  V30 1859 H 181.505 2.88543 -1.18951 0
M  V30 1860 N 181.806 0.884767 1.30421 0
M  V30 1861 C 182.769 0.356277 2.26414 0
M  V30 1862 C 183.769 -0.501124 1.52792 0
M  V30 1863 O 184.959 -0.30831 1.7145 0
M  V30 1864 C 182.091 -0.492316 3.37326 0
M  V30 1865 H 183.284 1.20389 2.74675 0
M  V30 1866 H 180.837 0.661607 1.41607 0
M  V30 1867 H 181.572 -1.36052 2.94381 0
M  V30 1868 H 181.357 0.121832 3.91911 0
M  V30 1869 H 182.847 -0.853871 4.08777 0
M  V30 1870 N 183.284 -1.43765 0.645699 0
M  V30 1871 C 184.531 -2.01898 0.15604 0
M  V30 1872 C 184.859 -1.50887 -1.22733 0
M  V30 1873 O 184.114 -0.689271 -1.8316 0
M  V30 1874 C 184.413 -3.57238 0.107679 0
M  V30 1875 C 184.079 -4.27564 1.43178 0
M  V30 1876 C 182.741 -4.46492 1.7944 0
M  V30 1877 C 185.093 -4.67454 2.30513 0
M  V30 1878 C 182.421 -5.02573 3.02716 0
M  V30 1879 C 184.773 -5.24901 3.53074 0
M  V30 1880 C 183.437 -5.42046 3.89541 0
M  V30 1881 H 182.707 -0.738797 0.057099 0
M  V30 1882 H 185.354 -1.72341 0.834912 0
M  V30 1883 H 183.659 -3.86293 -0.654618 0
M  V30 1884 H 185.356 -3.99965 -0.287938 0
M  V30 1885 H 181.946 -4.13171 1.13963 0
M  V30 1886 H 186.13 -4.5253 2.0379 0
M  V30 1887 H 181.386 -5.14033 3.31028 0
M  V30 1888 H 185.56 -5.54758 4.20971 0
M  V30 1889 H 183.187 -5.85268 4.85145 0
M  V30 1890 N 184.763 -0.387143 -1.52771 0
M  V30 1891 C 185.988 0.198407 -2.06449 0
M  V30 1892 C 186.413 1.39918 -1.25716 0
M  V30 1893 O 185.771 1.79099 -0.281657 0
M  V30 1894 C 185.819 0.548893 -3.56398 0
M  V30 1895 O 184.923 1.64315 -3.78252 0
M  V30 1896 H 184.264 0.0237731 -0.663574 0
M  V30 1897 H 186.794 -0.553989 -1.96957 0
M  V30 1898 H 186.804 0.813812 -3.99801 0
M  V30 1899 H 185.479 -0.329005 -4.14597 0
M  V30 1900 H 184.056 1.37211 -3.46738 0
M  V30 1901 N 186.241 1.57166 -0.116904 0
M  V30 1902 C 187.466 1.999 0.55271 0
M  V30 1903 C 187.891 0.996039 1.59564 0
M  V30 1904 O 187.249 -0.032556 1.81271 0
M  V30 1905 C 187.297 3.4152 1.15742 0
M  V30 1906 O 186.401 3.44106 2.27299 0
M  V30 1907 H 185.742 0.649447 0.138258 0
M  V30 1908 H 188.272 2.03573 -0.204759 0
M  V30 1909 H 188.282 3.79684 1.49346 0
M  V30 1910 H 186.957 4.14034 0.393493 0
M  V30 1911 H 185.534 3.17759 1.9515 0
M  V30 1912 N 187.719 -0.156864 1.56817 0
M  V30 1913 C 188.629 -1.2136 2.00771 0
M  V30 1914 C 189.645 -1.47598 0.921459 0
M  V30 1915 O 190.821 -1.59462 1.2302 0
M  V30 1916 C 187.886 -2.52943 2.37109 0
M  V30 1917 C 186.947 -2.34439 3.59634 0
M  V30 1918 C 186.18 -3.59748 3.94229 0
M  V30 1919 O 186.403 -4.65526 3.29609 0
M  V30 1920 O 185.337 -3.52998 4.8752 0
M  V30 1921 H 189.163 -0.870468 2.90958 0
M  V30 1922 H 186.748 -0.36484 1.44877 0
M  V30 1923 H 188.63 -3.30538 2.61386 0
M  V30 1924 H 187.305 -2.86806 1.5008 0
M  V30 1925 H 186.212 -1.54828 3.40557 0
M  V30 1926 H 187.545 -2.05496 4.4725 0
M  V30 1927 N 189.197 -1.51736 -0.425897 0
M  V30 1928 C 190.474 -1.55519 -1.1863 0
M  V30 1929 C 190.854 -0.326219 -2.08564 0
M  V30 1930 O 190.202 0.688012 -2.17896 0
M  V30 1931 C 190.412 -2.87521 -1.9782 0
M  V30 1932 C 191.76 -3.39899 -2.54468 0
M  V30 1933 O 192.784 -2.89148 -2.08019 0
M  V30 1934 O 191.643 -4.2848 -3.39215 0
M  V30 1935 H 188.737 -0.625739 -0.540721 0
M  V30 1936 H 191.283 -1.64055 -0.434038 0
M  V30 1937 H 190.055 -3.68422 -1.31836 0
M  V30 1938 H 189.678 -2.822 -2.80088 0
M  V30 1939 N 190.675 0.682077 -1.42076 0
M  V30 1940 C 191.605 1.80796 -1.47767 0
M  V30 1941 C 192.586 1.6677 -0.334954 0
M  V30 1942 O 193.771 1.863 -0.548264 0
M  V30 1943 C 190.901 3.19038 -1.37229 0
M  V30 1944 C 189.855 3.47789 -2.49453 0
M  V30 1945 C 189.181 4.8553 -2.23975 0
M  V30 1946 C 190.481 3.45411 -3.91776 0
M  V30 1947 H 192.175 1.7629 -2.41997 0
M  V30 1948 H 189.721 0.846721 -1.16476 0
M  V30 1949 H 191.674 3.97528 -1.39821 0
M  V30 1950 H 190.398 3.24204 -0.394907 0
M  V30 1951 H 189.057 2.71657 -2.46166 0
M  V30 1952 H 188.705 4.87337 -1.24547 0
M  V30 1953 H 188.405 5.0573 -2.99184 0
M  V30 1954 H 189.929 5.66312 -2.28304 0
M  V30 1955 H 191.343 4.13882 -3.96705 0
M  V30 1956 H 189.74 3.77145 -4.66778 0
M  V30 1957 H 190.81 2.44122 -4.18966 0
M  V30 1958 N 192.153 1.28127 0.917671 0
M  V30 1959 C 193.103 1.08361 2.00604 0
M  V30 1960 C 194.087 0.00847518 1.60898 0
M  V30 1961 O 195.279 0.228167 1.75523 0
M  V30 1962 C 192.408 0.743376 3.35155 0
M  V30 1963 C 191.494 1.85716 3.81275 0
M  V30 1964 N 191.885 3.09822 3.99805 0
M  V30 1965 C 190.183 1.74612 4.10398 0
M  V30 1966 C 190.884 3.82368 4.38372 0
M  V30 1967 N 189.86 3.10192 4.4641 0
M  V30 1968 H 193.662 2.02531 2.12975 0
M  V30 1969 H 191.176 1.18989 1.10523 0
M  V30 1970 H 193.173 0.582859 4.12805 0
M  V30 1971 H 191.833 -0.190595 3.2414 0
M  V30 1972 H 192.844 3.45475 3.85833 0
M  V30 1973 H 189.521 0.883657 4.08041 0
M  V30 1974 H 190.911 4.89082 4.60704 0
M  V30 1975 N 193.631 -1.12557 1.10312 0
M  V30 1976 C 194.908 -1.80363 0.756878 0
M  V30 1977 C 195.288 -1.97067 -0.756824 0
M  V30 1978 O 194.636 -1.54601 -1.68259 0
M  V30 1979 C 194.846 -3.14812 1.50647 0
M  V30 1980 C 196.194 -3.90029 1.67817 0
M  V30 1981 O 197.218 -3.24464 1.46974 0
M  V30 1982 O 196.077 -5.07652 2.02365 0
M  V30 1983 H 193.171 -0.780667 0.272926 0
M  V30 1984 H 195.717 -1.19404 1.20586 0
M  V30 1985 H 194.489 -2.97936 2.53672 0
M  V30 1986 H 194.112 -3.83478 1.05026 0
M  V30 1987 N 195.109 -0.891671 -1.2995 0
M  V30 1988 C 196.019 -0.367691 -2.31701 0
M  V30 1989 C 197.035 0.533486 -1.6562 0
M  V30 1990 O 198.211 0.424997 -1.96865 0
M  V30 1991 C 195.276 0.403406 -3.44345 0
M  V30 1992 C 194.337 -0.528328 -4.26037 0
M  V30 1993 C 193.57 0.206063 -5.33302 0
M  V30 1994 O 193.793 1.43119 -5.52153 0
M  V30 1995 O 192.727 -0.447281 -6.00236 0
M  V30 1996 H 196.553 -1.21163 -2.78484 0
M  V30 1997 H 194.138 -0.655725 -1.34241 0
M  V30 1998 H 196.02 0.839753 -4.12948 0
M  V30 1999 H 194.695 1.22354 -2.99685 0
M  V30 2000 H 193.602 -1.01362 -3.60106 0
M  V30 2001 H 194.935 -1.31465 -4.74318 0
M  V30 2002 N 196.587 1.43421 -0.653314 0
M  V30 2003 C 198.003 1.56341 -0.320886 0
M  V30 2004 C 198.203 1.63696 1.17499 0
M  V30 2005 O 197.259 1.59208 1.95982 0
M  V30 2006 C 198.572 2.82424 -1.03233 0
M  V30 2007 C 200.12 2.96168 -1.01259 0
M  V30 2008 C 200.595 4.25084 -1.70492 0
M  V30 2009 N 202.086 4.31948 -1.67257 0
M  V30 2010 C 202.821 5.30466 -2.17701 0
M  V30 2011 N 202.317 6.35261 -2.76434 0
M  V30 2012 N 204.11 5.2212 -2.082 0
M  V30 2013 H 196.261 1.3689 -1.62403 0
M  V30 2014 H 198.524 0.657455 -0.682977 0
M  V30 2015 H 198.23 2.83053 -2.08744 0
M  V30 2016 H 198.104 3.72653 -0.583948 0
M  V30 2017 H 200.491 2.9508 0.0341235 0
M  V30 2018 H 200.572 2.07229 -1.49966 0
M  V30 2019 H 200.216 4.26932 -2.7512 0
M  V30 2020 H 200.146 5.1292 -1.19251 0
M  V30 2021 H 202.637 3.56838 -1.24398 0
M  V30 2022 H 202.95 7.06754 -3.12601 0
M  V30 2023 H 201.295 6.35884 -2.80495 0
M  V30 2024 H 204.486 4.39166 -1.62021 0
M  V30 2025 H 204.659 5.98739 -2.47822 0
M  V30 2026 N 198.065 0.39524 1.52563 0
M  V30 2027 C 199.012 -0.437036 2.26624 0
M  V30 2028 C 199.982 -1.05281 1.28472 0
M  V30 2029 O 201.167 -1.07971 1.57311 0
M  V30 2030 C 198.307 -1.55524 3.08069 0
M  V30 2031 C 197.42 -0.961745 4.21158 0
M  V30 2032 C 196.555 -2.05149 4.89987 0
M  V30 2033 C 195.594 -1.4342 5.95061 0
M  V30 2034 N 194.731 -2.46351 6.57462 0
M  V30 2035 H 199.571 0.200976 2.97322 0
M  V30 2036 H 197.108 0.110944 1.46681 0
M  V30 2037 H 199.066 -2.21437 3.53584 0
M  V30 2038 H 197.696 -2.16348 2.3957 0
M  V30 2039 H 196.748 -0.192048 3.79915 0
M  V30 2040 H 198.06 -0.470701 4.96574 0
M  V30 2041 H 197.214 -2.78819 5.38837 0
M  V30 2042 H 195.953 -2.57615 4.14109 0
M  V30 2043 H 194.958 -0.682774 5.45544 0
M  V30 2044 H 196.183 -0.917416 6.72875 0
M  V30 2045 H 194.129 -2.97975 5.8442 0
M  V30 2046 H 194.046 -2.02019 7.28508 0
M  V30 2047 H 195.314 -3.19633 7.10954 0
M  V30 2048 N 199.544 -1.57102 0.125237 0
M  V30 2049 C 200.474 -2.18659 -0.819174 0
M  V30 2050 C 201.455 -1.12843 -1.27281 0
M  V30 2051 O 202.64 -1.41104 -1.33429 0
M  V30 2052 C 199.77 -2.79096 -2.06695 0
M  V30 2053 C 198.724 -3.90548 -1.75088 0
M  V30 2054 C 198.05 -4.37821 -3.06948 0
M  V30 2055 C 199.35 -5.12356 -1.01435 0
M  V30 2056 H 201.044 -2.9783 -0.306202 0
M  V30 2057 H 198.59 -1.4326 -0.145839 0
M  V30 2058 H 200.543 -3.2082 -2.73226 0
M  V30 2059 H 199.267 -1.97223 -2.60328 0
M  V30 2060 H 197.926 -3.49409 -1.10944 0
M  V30 2061 H 197.574 -3.52799 -3.58527 0
M  V30 2062 H 197.274 -5.12982 -2.86571 0
M  V30 2063 H 198.798 -4.822 -3.74587 0
M  V30 2064 H 200.212 -5.5106 -1.58132 0
M  V30 2065 H 198.609 -5.9314 -0.911319 0
M  V30 2066 H 199.679 -4.849 -0.00218681 0
M  V30 2067 O 201.061 0.0139771 -1.61494 0
M  V30 2068 H 201.752 0.632534 -1.83081 0
M  V30 END ATOM
M  V30 BEGIN BOND
M  V30 END BOND
M  V30 END CTAB
M  END
$$$$
