drugbank_target|P19105 Myosin regulatory light chain 12A (DB08378)
 OpenBabel12092120503D

  0  0  0     0  0            999 V3000
M  V30 BEGIN CTAB
M  V30 COUNTS 2715 2739 0 0 0
M  V30 BEGIN ATOM
M  V30 1 H -0.908 1.98254 -0.117106 0
M  V30 2 N 0 1.576 0 0
M  V30 3 C 0.933 2.03868 1.02534 0
M  V30 4 C 1.911 0.928543 1.3348 0
M  V30 5 O 3.095 1.19667 1.45644 0
M  V30 6 C 0.222 2.43627 2.35294 0
M  V30 7 C -0.732 3.65373 2.2001 0
M  V30 8 S 0.101 5.13292 1.52614 0
M  V30 9 C 1.257 5.56322 2.86805 0
M  V30 10 H 1.49 2.90518 0.631377 0
M  V30 11 H -0.977 1.52953 0.210867 0
M  V30 12 H 0.981 2.67203 3.11629 0
M  V30 13 H -0.358 1.57376 2.7183 0
M  V30 14 H -1.165 3.90944 3.18086 0
M  V30 15 H -1.563 3.418 1.51819 0
M  V30 16 H 0.729 5.58782 3.83104 0
M  V30 17 H 1.672 6.56266 2.65933 0
M  V30 18 H 2.08 4.83886 2.90714 0
M  V30 19 N 1.4781 -0.272755 1.55222 0
M  V30 20 C 2.7031 -1.02683 1.80197 0
M  V30 21 C 3.1281 -1.79142 0.573551 0
M  V30 22 O 2.4861 -1.74917 -0.476849 0
M  V30 23 C 2.5341 -1.9609 3.02624 0
M  V30 24 O 1.6381 -3.04863 2.77727 0
M  V30 25 H 0.9791 -0.293557 0.595584 0
M  V30 26 H 3.5091 -0.30159 2.02365 0
M  V30 27 H 3.5191 -2.38039 3.31363 0
M  V30 28 H 2.1941 -1.39851 3.91682 0
M  V30 29 H 0.7711 -2.67228 2.60084 0
M  V30 30 N 2.9562 -1.48159 -0.537278 0
M  V30 31 C 4.1812 -1.59707 -1.32319 0
M  V30 32 C 4.6062 -0.254859 -1.86365 0
M  V30 33 O 3.9642 0.772378 -1.64024 0
M  V30 34 C 4.0122 -2.6412 -2.45505 0
M  V30 35 O 3.1162 -2.20774 -3.48328 0
M  V30 36 H 2.4572 -0.535791 -0.392204 0
M  V30 37 H 4.9872 -1.94092 -0.647268 0
M  V30 38 H 4.9972 -2.85166 -2.91795 0
M  V30 39 H 3.6722 -3.61567 -2.05528 0
M  V30 40 H 2.2492 -2.09911 -3.08207 0
M  V30 41 N 4.4343 0.785586 -1.36625 0
M  V30 42 C 5.3813 1.89838 -1.31264 0
M  V30 43 C 6.3513 1.65115 -0.180633 0
M  V30 44 O 7.5363 1.87222 -0.36777 0
M  V30 45 C 4.6763 3.26706 -1.11163 0
M  V30 46 C 3.7893 3.63476 -2.33472 0
M  V30 47 C 2.9243 4.89481 -2.06353 0
M  V30 48 C 1.9633 5.18941 -3.24602 0
M  V30 49 N 1.1003 6.36131 -2.97123 0
M  V30 50 H 5.9403 1.93756 -2.26413 0
M  V30 51 H 3.4773 0.947454 -1.12524 0
M  V30 52 H 5.4353 4.05639 -0.975337 0
M  V30 53 H 4.0653 3.222 -0.196674 0
M  V30 54 H 3.1173 2.79636 -2.57891 0
M  V30 55 H 4.4293 3.81193 -3.21704 0
M  V30 56 H 3.5833 5.76288 -1.89675 0
M  V30 57 H 2.3223 4.73841 -1.15437 0
M  V30 58 H 1.3273 4.30615 -3.41834 0
M  V30 59 H 2.5523 5.36498 -4.16349 0
M  V30 60 H 0.4983 6.21875 -2.08823 0
M  V30 61 H 0.4153 6.54198 -3.78894 0
M  V30 62 H 1.6833 7.2591 -2.84033 0
M  V30 63 N 5.9124 1.20967 1.01018 0
M  V30 64 C 7.3284 0.965905 1.27053 0
M  V30 65 C 7.5284 -0.350785 1.98423 0
M  V30 66 O 6.5844 -1.07773 2.28344 0
M  V30 67 C 7.8974 2.15294 2.09926 0
M  V30 68 C 9.4454 2.19463 2.23171 0
M  V30 69 C 9.9204 3.3767 3.09424 0
M  V30 70 N 11.4114 3.37724 3.17012 0
M  V30 71 C 12.1464 4.25837 3.83993 0
M  V30 72 N 11.6424 5.24138 4.53047 0
M  V30 73 N 13.4354 4.1366 3.80581 0
M  V30 74 H 5.5864 2.0565 0.531194 0
M  V30 75 H 7.8494 0.90024 0.297106 0
M  V30 76 H 7.5554 3.10684 1.64828 0
M  V30 77 H 7.4294 2.13923 3.10672 0
M  V30 78 H 9.8164 1.24632 2.6749 0
M  V30 79 H 9.8974 2.2488 1.21912 0
M  V30 80 H 9.5414 4.32791 2.65808 0
M  V30 81 H 9.4714 3.29491 4.10784 0
M  V30 82 H 11.9624 2.6658 2.6785 0
M  V30 83 H 12.2754 5.87684 5.01844 0
M  V30 84 H 10.6204 5.28068 4.5185 0
M  V30 85 H 13.8114 3.36127 3.25785 0
M  V30 86 H 13.9844 4.82538 4.32505 0
M  V30 87 N 7.3905 -1.2043 1.01659 0
M  V30 88 C 8.6185 -1.93777 0.725132 0
M  V30 89 C 9.0335 -1.74772 -0.714166 0
M  V30 90 O 8.3905 -1.06169 -1.4844 0
M  V30 91 C 8.4415 -3.45876 1.05129 0
M  V30 92 O 8.1625 -3.6426 2.43406 0
M  V30 93 C 9.6635 -4.36368 0.780891 0
M  V30 94 H 6.8835 -0.615901 0.266284 0
M  V30 95 H 9.4275 -1.52922 1.35776 0
M  V30 96 H 7.5825 -3.8461 0.464065 0
M  V30 97 H 7.9965 -4.58246 2.55169 0
M  V30 98 H 9.4705 -5.41743 1.05918 0
M  V30 99 H 9.9475 -4.38275 -0.284937 0
M  V30 100 H 10.5535 -4.03296 1.35027 0
M  V30 101 N 8.8686 -0.792821 -1.36206 0
M  V30 102 C 9.8156 -0.191653 -2.30003 0
M  V30 103 C 10.7856 0.666453 -1.52143 0
M  V30 104 O 11.9706 0.61442 -1.80636 0
M  V30 105 C 9.1106 0.664848 -3.38635 0
M  V30 106 C 8.2236 -0.212175 -4.31479 0
M  V30 107 C 7.3586 0.651022 -5.27196 0
M  V30 108 C 6.3976 -0.227247 -6.11678 0
M  V30 109 N 5.5346 0.595127 -6.99573 0
M  V30 110 H 10.3746 -0.996978 -2.80828 0
M  V30 111 H 7.9116 -0.503206 -1.38225 0
M  V30 112 H 9.8696 1.17645 -4.00269 0
M  V30 113 H 8.4996 1.43557 -2.89122 0
M  V30 114 H 7.5516 -0.841777 -3.70969 0
M  V30 115 H 8.8636 -0.888751 -4.90818 0
M  V30 116 H 8.0176 1.2283 -5.94136 0
M  V30 117 H 6.7566 1.36121 -4.68319 0
M  V30 118 H 5.7616 -0.816904 -5.43697 0
M  V30 119 H 6.9866 -0.93509 -6.72631 0
M  V30 120 H 4.9326 1.28955 -6.432 0
M  V30 121 H 4.8496 -0.0236952 -7.55996 0
M  V30 122 H 6.1176 1.15613 -7.70879 0
M  V30 123 N 10.3467 1.47872 -0.545128 0
M  V30 124 C 11.5747 2.06889 -0.021084 0
M  V30 125 C 11.9897 1.39955 1.2672 0
M  V30 126 O 11.3467 0.492036 1.75742 0
M  V30 127 C 11.3977 3.60996 0.190817 0
M  V30 128 O 11.1187 4.25419 -1.04644 0
M  V30 129 C 12.6197 4.36849 0.753521 0
M  V30 130 H 9.8397 0.669785 -0.0403635 0
M  V30 131 H 12.3837 1.90049 -0.755095 0
M  V30 132 H 10.5387 3.77391 0.87492 0
M  V30 133 H 10.9527 5.17785 -0.836611 0
M  V30 134 H 12.4267 5.45399 0.851139 0
M  V30 135 H 12.9037 4.02306 1.762 0
M  V30 136 H 13.5097 4.25169 0.105503 0
M  V30 137 N 11.8248 0.280983 1.55075 0
M  V30 138 C 12.7718 -0.603937 2.22758 0
M  V30 139 C 13.7418 -1.1452 1.20309 0
M  V30 140 O 14.9268 -1.19343 1.48869 0
M  V30 141 C 12.0668 -1.77947 2.95684 0
M  V30 142 C 11.1798 -1.2715 4.12864 0
M  V30 143 C 10.3148 -2.4093 4.7342 0
M  V30 144 C 9.3538 -1.87165 5.82783 0
M  V30 145 N 8.4908 -2.94441 6.37377 0
M  V30 146 H 13.3308 -0.020124 2.97993 0
M  V30 147 H 10.8678 0.00183425 1.471 0
M  V30 148 H 12.8258 -2.47055 3.36184 0
M  V30 149 H 11.4558 -2.33522 2.22861 0
M  V30 150 H 10.5078 -0.473331 3.77444 0
M  V30 151 H 11.8198 -0.837751 4.91715 0
M  V30 152 H 10.9738 -3.18021 5.1667 0
M  V30 153 H 9.7128 -2.87623 3.93859 0
M  V30 154 H 8.7178 -1.08556 5.38976 0
M  V30 155 H 9.9428 -1.41401 6.64216 0
M  V30 156 H 7.8888 -3.40505 5.60707 0
M  V30 157 H 7.8058 -2.55501 7.11516 0
M  V30 158 H 9.0738 -3.71489 6.85285 0
M  V30 159 N 13.3029 -1.57598 0.00835791 0
M  V30 160 C 14.5309 -1.95214 -0.68549 0
M  V30 161 C 14.9459 -0.883706 -1.66841 0
M  V30 162 O 14.3029 0.136565 -1.81988 0
M  V30 163 C 14.3539 -3.32865 -1.41007 0
M  V30 164 O 14.0749 -4.35609 -0.466552 0
M  V30 165 C 15.5759 -3.84991 -2.19765 0
M  V30 166 H 12.7959 -0.643422 -0.190392 0
M  V30 167 H 15.3399 -2.04406 0.0619607 0
M  V30 168 H 13.4949 -3.24956 -2.10908 0
M  V30 169 H 13.9089 -5.15288 -0.978699 0
M  V30 170 H 15.3829 -4.8371 -2.65948 0
M  V30 171 H 15.8599 -3.18137 -3.02796 0
M  V30 172 H 16.4659 -3.96103 -1.54864 0
M  V30 173 N 14.781 0.264519 -1.55364 0
M  V30 174 C 15.728 1.32717 -1.88825 0
M  V30 175 C 16.698 1.48675 -0.740605 0
M  V30 176 O 17.883 1.62945 -0.992657 0
M  V30 177 C 15.023 2.68089 -2.17307 0
M  V30 178 C 14.136 2.60284 -3.44785 0
M  V30 179 C 13.271 3.87892 -3.62924 0
M  V30 180 C 12.31 3.74631 -4.84064 0
M  V30 181 N 11.447 4.94092 -4.98816 0
M  V30 182 H 16.287 1.03481 -2.79456 0
M  V30 183 H 13.824 0.499757 -1.3835 0
M  V30 184 H 15.782 3.46864 -2.31821 0
M  V30 185 H 14.412 2.95509 -1.299 0
M  V30 186 H 13.464 1.73173 -3.38697 0
M  V30 187 H 14.776 2.46388 -4.33698 0
M  V30 188 H 13.93 4.75109 -3.77302 0
M  V30 189 H 12.669 4.04664 -2.7221 0
M  V30 190 H 11.674 2.85797 -4.69681 0
M  V30 191 H 12.899 3.5937 -5.76221 0
M  V30 192 H 10.845 5.11259 -4.11036 0
M  V30 193 H 10.762 4.8276 -5.81789 0
M  V30 194 H 12.03 5.82857 -5.17588 0
M  V30 195 N 16.2591 1.48442 0.529413 0
M  V30 196 C 17.2061 1.63007 1.63394 0
M  V30 197 C 18.1761 0.47212 1.59249 0
M  V30 198 O 19.3611 0.695673 1.77666 0
M  V30 199 C 16.5011 1.6763 3.01653 0
M  V30 200 C 15.6141 2.94535 3.16027 0
M  V30 201 C 14.7491 2.90316 4.44849 0
M  V30 202 C 13.7881 4.11923 4.52754 0
M  V30 203 N 12.9251 4.05777 5.72965 0
M  V30 204 H 17.7651 2.5733 1.50285 0
M  V30 205 H 15.3021 1.27613 0.731656 0
M  V30 206 H 17.2601 1.68292 3.81751 0
M  V30 207 H 15.8901 0.76797 3.13532 0
M  V30 208 H 14.9421 3.03615 2.29177 0
M  V30 209 H 16.2541 3.84512 3.17729 0
M  V30 210 H 15.4081 2.89382 5.33238 0
M  V30 211 H 14.1471 1.98068 4.45668 0
M  V30 212 H 13.1521 4.13131 3.62771 0
M  V30 213 H 14.3771 5.0533 4.53672 0
M  V30 214 H 12.3231 3.16351 5.74681 0
M  V30 215 H 12.2401 4.8946 5.76164 0
M  V30 216 H 13.5081 4.08904 6.6364 0
M  V30 217 N 17.7372 -0.778329 1.37039 0
M  V30 218 C 19.1532 -1.07796 1.17695 0
M  V30 219 C 19.3532 -2.01498 0.00860115 0
M  V30 220 O 18.4092 -2.43901 -0.653352 0
M  V30 221 C 19.7222 -1.68178 2.49272 0
M  V30 222 C 21.2702 -1.80467 2.55735 0
M  V30 223 C 21.7452 -2.44263 3.87427 0
M  V30 224 N 23.2362 -2.51721 3.88833 0
M  V30 225 C 23.9712 -3.01919 4.87476 0
M  V30 226 N 23.4672 -3.5234 5.96513 0
M  V30 227 N 25.2602 -3.00733 4.74885 0
M  V30 228 H 17.4112 -0.156032 2.11826 0
M  V30 229 H 19.6742 -0.131844 0.938787 0
M  V30 230 H 19.3802 -1.06796 3.35093 0
M  V30 231 H 19.2542 -2.67554 2.65885 0
M  V30 232 H 21.6412 -2.40984 1.70325 0
M  V30 233 H 21.7222 -0.798656 2.43013 0
M  V30 234 H 21.3662 -1.84388 4.73248 0
M  V30 235 H 21.2962 -3.45458 3.9745 0
M  V30 236 H 23.7872 -2.1603 3.10063 0
M  V30 237 H 24.1002 -3.89027 6.67741 0
M  V30 238 H 22.4452 -3.50462 6.00168 0
M  V30 239 H 25.6362 -2.60638 3.88826 0
M  V30 240 H 25.8092 -3.39545 5.51918 0
M  V30 241 N 19.2153 -1.21501 -1.00376 0
M  V30 242 C 20.6263 -1.03146 -1.55621 0
M  V30 243 C 20.9773 0.408375 -1.91903 0
M  V30 244 O 20.1023 1.29177 -1.73616 0
M  V30 245 C 20.6973 -1.86612 -2.82775 0
M  V30 246 C 19.2563 -1.72586 -3.34501 0
M  V30 247 C 18.4033 -1.83747 -2.07683 0
M  V30 248 H 21.3543 -1.35505 -0.826081 0
M  V30 249 H 21.3753 -1.3771 -3.54706 0
M  V30 250 H 20.8873 -2.91399 -2.56336 0
M  V30 251 H 18.9883 -0.704877 -3.65872 0
M  V30 252 H 19.1013 -2.54623 -4.05837 0
M  V30 253 H 17.4653 -1.27069 -2.20739 0
M  V30 254 H 18.2483 -2.90044 -1.83655 0
M  V30 255 N 20.6934 1.19889 -1.02296 0
M  V30 256 C 21.6254 2.22334 -0.556787 0
M  V30 257 C 22.6384 1.58674 0.364199 0
M  V30 258 O 23.8274 1.77768 0.161533 0
M  V30 259 C 20.9274 3.38257 0.208694 0
M  V30 260 C 20.1004 4.31504 -0.71577 0
M  V30 261 C 19.1594 5.262 0.00325597 0
M  V30 262 O 18.1854 5.65798 -0.621357 0
M  V30 263 N 19.3874 5.66303 1.27599 0
M  V30 264 H 22.1524 2.62957 -1.43784 0
M  V30 265 H 19.7134 1.34495 -0.901261 0
M  V30 266 H 21.7054 3.98616 0.699111 0
M  V30 267 H 20.2754 2.96472 0.991102 0
M  V30 268 H 19.4954 3.69016 -1.38638 0
M  V30 269 H 20.7834 4.9072 -1.34428 0
M  V30 270 H 20.1814 5.36155 1.80429 0
M  V30 271 H 18.7384 6.28942 1.71102 0
M  V30 272 N 22.1715 0.800033 1.35784 0
M  V30 273 C 23.5875 0.482977 1.52117 0
M  V30 274 C 23.7875 -0.996948 1.75109 0
M  V30 275 O 22.8435 -1.78216 1.78872 0
M  V30 276 C 24.1565 1.32264 2.70049 0
M  V30 277 C 25.7045 1.31742 2.83924 0
M  V30 278 C 26.1795 2.14106 4.04874 0
M  V30 279 N 27.6705 2.11607 4.12039 0
M  V30 280 C 28.4055 2.72099 5.04727 0
M  V30 281 N 27.9015 3.41492 6.02789 0
M  V30 282 N 29.6945 2.61776 4.97423 0
M  V30 283 H 21.8455 1.75856 1.19115 0
M  V30 284 H 24.1085 0.748122 0.582252 0
M  V30 285 H 23.8145 2.37261 2.59616 0
M  V30 286 H 23.6885 0.971303 3.6448 0
M  V30 287 H 26.0755 0.275333 2.93813 0
M  V30 288 H 26.1565 1.70859 1.9037 0
M  V30 289 H 25.8005 3.18351 3.95746 0
M  V30 290 H 25.7305 1.72353 4.97596 0
M  V30 291 H 28.2215 1.61112 3.41835 0
M  V30 292 H 28.5345 3.84953 6.70098 0
M  V30 293 H 26.8795 3.45596 6.02983 0
M  V30 294 H 30.0705 2.07157 4.19766 0
M  V30 295 H 30.2435 3.0921 5.69468 0
M  V30 296 N 23.6496 -1.47581 0.552962 0
M  V30 297 C 24.6126 -2.28439 -0.186605 0
M  V30 298 C 25.6126 -1.36706 -0.84665 0
M  V30 299 O 26.8026 -1.59378 -0.703164 0
M  V30 300 C 23.9346 -3.16264 -1.2724 0
M  V30 301 H 25.1276 -2.95294 0.523609 0
M  V30 302 H 22.6806 -1.532 0.309745 0
M  V30 303 H 23.4156 -2.54091 -2.01514 0
M  V30 304 H 23.2006 -3.83769 -0.803968 0
M  V30 305 H 24.6906 -3.77198 -1.79196 0
M  V30 306 N 25.1277 -0.289203 -1.54924 0
M  V30 307 C 26.3557 0.326463 -2.04308 0
M  V30 308 C 26.7707 1.48413 -1.16701 0
M  V30 309 O 26.1277 1.81507 -0.190087 0
M  V30 310 C 26.1787 0.794014 -3.52672 0
M  V30 311 O 25.8997 -0.317564 -4.36948 0
M  V30 312 C 27.4007 1.47605 -4.18004 0
M  V30 313 H 24.6207 0.0726272 -0.667058 0
M  V30 314 H 27.1647 -0.425401 -2.00026 0
M  V30 315 H 25.3197 1.49593 -3.57352 0
M  V30 316 H 25.7337 0.0443186 -5.24481 0
M  V30 317 H 27.2077 1.75447 -5.23376 0
M  V30 318 H 27.6847 2.41224 -3.67025 0
M  V30 319 H 28.2907 0.81762 -4.17367 0
M  V30 320 N 26.6058 1.57591 -0.0167156 0
M  V30 321 C 27.8308 1.9598 0.67872 0
M  V30 322 C 28.2558 0.892546 1.65575 0
M  V30 323 O 27.6138 -0.147772 1.80697 0
M  V30 324 C 27.6618 3.33468 1.37227 0
M  V30 325 O 26.7658 3.28954 2.48722 0
M  V30 326 H 26.1068 0.639339 0.17928 0
M  V30 327 H 28.6368 2.04463 -0.0748802 0
M  V30 328 H 28.6468 3.69417 1.7319 0
M  V30 329 H 27.3218 4.10694 0.656007 0
M  V30 330 H 25.8988 3.04705 2.14963 0
M  V30 331 N 28.0839 -0.256276 1.55502 0
M  V30 332 C 29.0319 -1.33694 1.90338 0
M  V30 333 C 30.0259 -1.50299 0.781441 0
M  V30 334 O 31.2319 -1.51885 0.965966 0
M  V30 335 H 27.6069 -0.447483 0.60437 0
M  V30 336 H 29.5779 -1.01574 2.8058 0
M  V30 337 C 28.3269 -2.68724 2.20642 0
M  V30 338 H 27.6499 -2.56743 3.06469 0
M  V30 339 H 29.0899 -3.43237 2.48926 0
M  V30 340 C 27.5489 -3.21101 1.01959 0
M  V30 341 O 28.0789 -4.0084 0.262762 0
M  V30 342 N 26.2849 -2.79003 0.812746 0
M  V30 343 H 25.8319 -2.14271 1.42989 0
M  V30 344 H 25.7899 -3.14393 0.0203076 0
M  V30 345 N 29.562 -1.4872 -0.521534 0
M  V30 346 C 30.808 -1.574 -1.27879 0
M  V30 347 C 31.141 -0.250817 -1.92573 0
M  V30 348 O 30.416 0.743934 -1.79711 0
M  V30 349 C 30.699 -2.71843 -2.36164 0
M  V30 350 C 30.552 -4.13893 -1.76105 0
M  V30 351 C 31.871 -2.82008 -3.37875 0
M  V30 352 H 28.99 -0.572941 -0.463581 0
M  V30 353 H 31.632 -1.80927 -0.580119 0
M  V30 354 H 29.782 -2.51914 -2.95756 0
M  V30 355 H 31.454 -4.45284 -1.20499 0
M  V30 356 H 29.697 -4.20498 -1.06601 0
M  V30 357 H 30.368 -4.89804 -2.5455 0
M  V30 358 H 32.844 -3.00086 -2.88249 0
M  V30 359 H 31.72 -3.63796 -4.11028 0
M  V30 360 H 31.981 -1.90511 -3.98946 0
M  V30 361 N 31.0401 0.771051 -1.3745 0
M  V30 362 C 32.2871 1.52963 -1.32697 0
M  V30 363 C 32.6151 1.94299 0.0883274 0
M  V30 364 O 31.8701 1.64397 1.0617 0
M  V30 365 C 32.1691 2.80676 -2.2126 0
M  V30 366 C 31.8351 2.58389 -3.69521 0
M  V30 367 C 30.4971 2.52019 -4.09927 0
M  V30 368 C 32.8491 2.38469 -4.63446 0
M  V30 369 C 30.1771 2.23721 -5.42371 0
M  V30 370 C 32.5291 2.11694 -5.96128 0
M  V30 371 C 31.1931 2.03769 -6.35637 0
M  V30 372 H 30.4631 0.559732 -0.485573 0
M  V30 373 H 33.1101 0.888083 -1.69662 0
M  V30 374 H 31.4151 3.49392 -1.77291 0
M  V30 375 H 33.1121 3.38557 -2.14895 0
M  V30 376 H 29.7021 2.6421 -3.37478 0
M  V30 377 H 33.8861 2.4238 -4.33089 0
M  V30 378 H 29.1421 2.16081 -5.71943 0
M  V30 379 H 33.3161 1.9528 -6.6846 0
M  V30 380 H 30.9431 1.81606 -7.38189 0
M  V30 381 N 32.5182 1.22032 0.997298 0
M  V30 382 C 33.4812 0.987909 2.06816 0
M  V30 383 C 34.4812 -0.0440084 1.6074 0
M  V30 384 O 35.6712 0.194053 1.73116 0
M  V30 385 C 32.8032 0.49132 3.37341 0
M  V30 386 H 33.9962 1.93803 2.28868 0
M  V30 387 H 31.5492 1.03838 1.16822 0
M  V30 388 H 32.2842 -0.463364 3.20973 0
M  V30 389 H 32.0692 1.23575 3.72118 0
M  V30 390 H 33.5592 0.348824 4.16141 0
M  V30 391 N 33.9963 -1.19345 1.0293 0
M  V30 392 C 34.9293 -2.21347 0.555029 0
M  V30 393 C 35.9073 -1.57492 -0.404351 0
M  V30 394 O 37.0913 -1.85741 -0.321352 0
M  V30 395 C 34.2183 -3.38163 -0.19064 0
M  V30 396 C 33.2643 -4.20375 0.720236 0
M  V30 397 S 34.0973 -4.88371 2.19668 0
M  V30 398 C 35.2533 -6.08597 1.46153 0
M  V30 399 H 35.4863 -2.61235 1.41929 0
M  V30 400 H 33.0193 -1.29598 0.839272 0
M  V30 401 H 34.9773 -4.05871 -0.614724 0
M  V30 402 H 33.6383 -2.9671 -1.03063 0
M  V30 403 H 32.8313 -5.03793 0.14455 0
M  V30 404 H 32.4333 -3.57987 1.08266 0
M  V30 405 H 34.7253 -6.73354 0.748357 0
M  V30 406 H 35.6683 -6.7065 2.27233 0
M  V30 407 H 36.0763 -5.56297 0.958842 0
M  V30 408 N 35.4744 -0.807222 -1.35358 0
M  V30 409 C 36.7214 -0.387888 -1.9875 0
M  V30 410 C 37.0494 1.04509 -1.64037 0
M  V30 411 O 36.3044 1.73986 -0.895946 0
M  V30 412 C 36.6034 -0.519036 -3.53611 0
M  V30 413 C 36.2694 -1.91542 -4.08194 0
M  V30 414 C 34.9314 -2.29745 -4.22813 0
M  V30 415 C 37.2834 -2.82896 -4.37744 0
M  V30 416 C 34.6114 -3.58668 -4.643 0
M  V30 417 C 36.9634 -4.11265 -4.8067 0
M  V30 418 C 35.6274 -4.49466 -4.93494 0
M  V30 419 H 34.8974 -0.141938 -0.727279 0
M  V30 420 H 37.5444 -1.02814 -1.6156 0
M  V30 421 H 35.8494 0.204658 -3.91265 0
M  V30 422 H 37.5464 -0.175345 -4.00616 0
M  V30 423 H 34.1364 -1.60862 -3.97268 0
M  V30 424 H 38.3204 -2.54629 -4.26002 0
M  V30 425 H 33.5764 -3.88113 -4.72418 0
M  V30 426 H 37.7504 -4.82153 -5.02496 0
M  V30 427 H 35.3774 -5.49418 -5.25399 0
M  V30 428 N 36.9525 1.47285 -0.560781 0
M  V30 429 C 38.2295 1.9558 0.0277798 0
M  V30 430 C 38.6095 1.5034 1.48192 0
M  V30 431 O 37.9575 0.743882 2.16052 0
M  V30 432 C 38.1675 3.48789 -0.121418 0
M  V30 433 C 39.5155 4.24594 0.0220912 0
M  V30 434 O 40.5395 3.56166 -0.0491439 0
M  V30 435 O 39.3985 5.46217 0.175958 0
M  V30 436 H 36.4925 0.824663 0.0621342 0
M  V30 437 H 39.0385 1.5767 -0.627556 0
M  V30 438 H 37.8105 3.74533 -1.13316 0
M  V30 439 H 37.4335 3.93473 0.571366 0
M  V30 440 N 38.4306 0.297415 1.54768 0
M  V30 441 C 39.3626 -0.613881 2.20826 0
M  V30 442 C 40.3756 -1.10032 1.19987 0
M  V30 443 O 41.5646 -1.01839 1.46598 0
M  V30 444 C 38.6646 -1.852 2.83821 0
M  V30 445 C 37.8376 -1.50865 4.10559 0
M  V30 446 C 36.8966 -2.60154 4.57391 0
M  V30 447 O 35.9226 -2.25398 5.2267 0
M  V30 448 N 37.1246 -3.90629 4.29406 0
M  V30 449 H 39.8896 -0.048389 2.99661 0
M  V30 450 H 37.4506 0.11946 1.61459 0
M  V30 451 H 39.4426 -2.57652 3.12086 0
M  V30 452 H 38.0126 -2.32597 2.08847 0
M  V30 453 H 37.2326 -0.616925 3.89343 0
M  V30 454 H 38.5206 -1.25458 4.9309 0
M  V30 455 H 37.9186 -4.21677 3.77101 0
M  V30 456 H 36.4756 -4.59391 4.62388 0
M  V30 457 N 39.9087 -1.5758 0.0250728 0
M  V30 458 C 41.1337 -1.96337 -0.668317 0
M  V30 459 C 41.5587 -0.901314 -1.651 0
M  V30 460 O 40.9167 0.138187 -1.80773 0
M  V30 461 C 40.9647 -3.34191 -1.35457 0
M  V30 462 O 40.0687 -3.30269 -2.46974 0
M  V30 463 H 39.4097 -0.640281 -0.175887 0
M  V30 464 H 41.9397 -2.0442 0.0857224 0
M  V30 465 H 41.9497 -3.70331 -1.71228 0
M  V30 466 H 40.6247 -4.11036 -0.634218 0
M  V30 467 H 39.2017 -3.05841 -2.13344 0
M  V30 468 N 41.3868 0.248026 -1.55636 0
M  V30 469 C 42.3188 1.32993 -1.8667 0
M  V30 470 C 43.3318 1.44345 -0.752877 0
M  V30 471 O 44.5208 1.45715 -1.03098 0
M  V30 472 C 41.6208 2.70863 -2.03682 0
M  V30 473 C 40.7938 2.81792 -3.34532 0
M  V30 474 C 39.8528 4.005 -3.41301 0
M  V30 475 O 38.8788 3.9008 -4.14519 0
M  V30 476 N 40.0808 5.13618 -2.70512 0
M  V30 477 H 42.8458 1.06707 -2.8006 0
M  V30 478 H 40.4068 0.438129 -1.55859 0
M  V30 479 H 42.3988 3.48612 -2.05553 0
M  V30 480 H 40.9688 2.89862 -1.17041 0
M  V30 481 H 40.1888 1.90729 -3.44987 0
M  V30 482 H 41.4768 2.86043 -4.20781 0
M  V30 483 H 40.8748 5.24975 -2.10755 0
M  V30 484 H 39.4318 5.89505 -2.78077 0
M  V30 485 N 42.8649 1.48995 0.513639 0
M  V30 486 C 44.1139 1.57093 1.2651 0
M  V30 487 C 44.4269 0.257091 1.93903 0
M  V30 488 O 45.6329 0.216478 2.70636 0
M  V30 489 C 44.0889 2.77118 2.29638 0
M  V30 490 C 43.6969 4.15209 1.68241 0
M  V30 491 C 45.4409 2.94538 3.05692 0
M  V30 492 C 43.3479 5.26474 2.69406 0
M  V30 493 H 42.2779 0.584876 0.475854 0
M  V30 494 H 44.9289 1.7536 0.540487 0
M  V30 495 H 43.3109 2.52319 3.05207 0
M  V30 496 H 44.4849 4.50094 0.987505 0
M  V30 497 H 42.7999 4.03042 1.04623 0
M  V30 498 H 45.3969 3.74832 3.8132 0
M  V30 499 H 45.7399 2.04614 3.62545 0
M  V30 500 H 46.2729 3.19316 2.37238 0
M  V30 501 H 43.0119 6.18417 2.17351 0
M  V30 502 H 42.5319 4.96058 3.37175 0
M  V30 503 H 44.2109 5.55277 3.32078 0
M  V30 504 N 44.343 -0.763751 1.37857 0
M  V30 505 C 45.275 -1.88664 1.30148 0
M  V30 506 C 46.288 -1.61365 0.215685 0
M  V30 507 O 47.477 -1.72134 0.472459 0
M  V30 508 C 44.577 -3.24075 0.991396 0
M  V30 509 C 43.75 -3.78958 2.18426 0
M  V30 510 C 42.809 -4.92862 1.8432 0
M  V30 511 O 41.835 -5.08027 2.56704 0
M  V30 512 N 43.037 -5.75071 0.792081 0
M  V30 513 H 45.802 -1.95791 2.26905 0
M  V30 514 H 43.363 -0.943226 1.31586 0
M  V30 515 H 45.355 -3.97804 0.743935 0
M  V30 516 H 43.925 -3.12399 0.112122 0
M  V30 517 H 43.145 -2.96913 2.59299 0
M  V30 518 H 44.433 -4.12357 2.98058 0
M  V30 519 H 43.831 -5.65375 0.191595 0
M  V30 520 H 42.388 -6.48991 0.60449 0
M  V30 521 N 45.8211 -1.22559 -0.990812 0
M  V30 522 C 46.7311 -1.01394 -2.11557 0
M  V30 523 C 47.7471 0.0383962 -1.73958 0
M  V30 524 O 48.9231 -0.154787 -2.00804 0
M  V30 525 C 45.9881 -0.596569 -3.41529 0
M  V30 526 C 45.0491 -1.72276 -3.93217 0
M  V30 527 C 44.2821 -1.32521 -5.16985 0
M  V30 528 O 44.5051 -0.204909 -5.70032 0
M  V30 529 O 43.4391 -2.14247 -5.62478 0
M  V30 530 H 47.2651 -1.95633 -2.32296 0
M  V30 531 H 44.8501 -1.01172 -1.0993 0
M  V30 532 H 46.7321 -0.374263 -4.19735 0
M  V30 533 H 45.4071 0.316939 -3.22145 0
M  V30 534 H 44.3141 -1.99961 -3.16174 0
M  V30 535 H 45.6471 -2.61421 -4.17037 0
M  V30 536 N 47.2992 1.18797 -1.03562 0
M  V30 537 C 48.5462 1.8865 -0.736023 0
M  V30 538 C 48.8742 1.80041 0.735889 0
M  V30 539 O 48.1292 1.19179 1.55225 0
M  V30 540 C 48.4282 3.38692 -1.14117 0
M  V30 541 C 48.0942 3.67504 -2.6125 0
M  V30 542 C 46.7562 3.75078 -3.01447 0
M  V30 543 C 49.1082 3.80293 -3.56408 0
M  V30 544 C 46.4362 3.92915 -4.35701 0
M  V30 545 C 48.7882 3.99645 -4.90374 0
M  V30 546 C 47.4522 4.05453 -5.30249 0
M  V30 547 H 46.7222 0.690321 -0.26933 0
M  V30 548 H 49.3692 1.40641 -1.29971 0
M  V30 549 H 47.6742 3.88645 -0.496202 0
M  V30 550 H 49.3712 3.91072 -0.886789 0
M  V30 551 H 45.9612 3.62223 -2.29113 0
M  V30 552 H 50.1452 3.73779 -3.26501 0
M  V30 553 H 45.4012 3.95653 -4.66121 0
M  V30 554 H 49.5752 4.08482 -5.64017 0
M  V30 555 H 47.2022 4.19027 -6.34288 0
M  V30 556 N 48.7773 0.814389 1.34928 0
M  V30 557 C 49.7243 0.22822 2.29669 0
M  V30 558 C 50.6943 -0.642164 1.53184 0
M  V30 559 O 51.8793 -0.585605 1.81591 0
M  V30 560 C 49.0193 -0.61089 3.3965 0
M  V30 561 C 48.1323 0.280792 4.31086 0
M  V30 562 C 47.2673 -0.567067 5.28165 0
M  V30 563 C 46.3063 0.324531 6.11239 0
M  V30 564 N 45.4433 -0.483756 7.00431 0
M  V30 565 H 50.2833 1.04153 2.79206 0
M  V30 566 H 47.8203 0.525133 1.37407 0
M  V30 567 H 49.7783 -1.11263 4.0209 0
M  V30 568 H 48.4083 -1.38939 2.91369 0
M  V30 569 H 47.4603 0.900688 3.69583 0
M  V30 570 H 48.7723 0.966723 4.89342 0
M  V30 571 H 47.9263 -1.13363 5.96015 0
M  V30 572 H 46.6653 -1.28654 4.70425 0
M  V30 573 H 45.6703 0.903298 5.42329 0
M  V30 574 H 46.8953 1.04198 6.71059 0
M  V30 575 H 44.8413 -1.18706 6.45171 0
M  V30 576 H 44.7583 0.143965 7.55863 0
M  V30 577 H 46.0263 -1.03334 7.7262 0
M  V30 578 N 50.2554 -1.46986 0.568584 0
M  V30 579 C 51.1654 -2.33942 -0.17555 0
M  V30 580 C 52.1814 -1.48891 -0.90041 0
M  V30 581 O 53.3574 -1.81794 -0.86676 0
M  V30 582 C 50.4224 -3.25811 -1.18524 0
M  V30 583 C 49.4834 -4.26757 -0.466582 0
M  V30 584 C 48.7164 -5.14236 -1.42817 0
M  V30 585 O 48.9394 -5.04379 -2.66379 0
M  V30 586 O 47.8734 -5.94412 -0.946453 0
M  V30 587 H 51.6994 -2.98896 0.538036 0
M  V30 588 H 49.2844 -1.4573 0.329097 0
M  V30 589 H 51.1664 -3.82527 -1.76779 0
M  V30 590 H 49.8414 -2.63471 -1.88055 0
M  V30 591 H 48.7484 -3.73769 0.157451 0
M  V30 592 H 50.0814 -4.91843 0.187485 0
M  V30 593 N 51.7335 -0.305618 -1.54608 0
M  V30 594 C 52.6965 0.555591 -2.22364 0
M  V30 595 C 53.6965 1.05768 -1.21119 0
M  V30 596 O 54.8865 0.952972 -1.45822 0
M  V30 597 C 52.0185 1.76974 -2.91364 0
M  V30 598 H 53.2115 -0.0364572 -2.99878 0
M  V30 599 H 50.7645 -0.0565007 -1.56198 0
M  V30 600 H 51.4995 2.40151 -2.17941 0
M  V30 601 H 51.2845 1.41732 -3.65588 0
M  V30 602 H 52.7745 2.38148 -3.43038 0
M  V30 603 N 53.2116 1.57565 -0.0334293 0
M  V30 604 C 54.4586 1.91978 0.644272 0
M  V30 605 C 54.7866 0.910231 1.71887 0
M  V30 606 O 54.0416 -0.0801961 1.95536 0
M  V30 607 C 54.3406 3.33112 1.29504 0
M  V30 608 C 54.0066 4.49537 0.350388 0
M  V30 609 C 52.6686 4.81115 0.0903974 0
M  V30 610 C 55.0206 5.20347 -0.298032 0
M  V30 611 C 52.3486 5.8086 -0.825746 0
M  V30 612 C 54.7006 6.2107 -1.20226 0
M  V30 613 C 53.3646 6.51088 -1.4711 0
M  V30 614 H 52.6346 0.702496 0.235756 0
M  V30 615 H 55.2816 1.91259 -0.0961176 0
M  V30 616 H 53.5866 3.30113 2.11028 0
M  V30 617 H 55.2836 3.57011 1.82603 0
M  V30 618 H 51.8736 4.24883 0.563205 0
M  V30 619 H 56.0576 4.96178 -0.110234 0
M  V30 620 H 51.3136 6.02461 -1.04169 0
M  V30 621 H 55.4876 6.75057 -1.71086 0
M  V30 622 H 53.1146 7.28193 -2.18264 0
M  V30 623 N 54.6897 -0.239769 1.55765 0
M  V30 624 C 55.6377 -1.31668 1.91745 0
M  V30 625 C 56.6317 -1.49462 0.797338 0
M  V30 626 O 57.8377 -1.50852 0.982021 0
M  V30 627 H 54.2127 -0.441048 0.609082 0
M  V30 628 H 56.1837 -0.985923 2.81642 0
M  V30 629 C 54.9327 -2.66368 2.2348 0
M  V30 630 H 54.2557 -2.53478 3.09175 0
M  V30 631 H 55.6957 -3.40578 2.52553 0
M  V30 632 C 54.1547 -3.20002 1.05359 0
M  V30 633 O 54.6847 -4.00538 0.305261 0
M  V30 634 N 52.8907 -2.78126 0.842292 0
M  V30 635 H 52.4377 -2.12742 1.45253 0
M  V30 636 H 52.3957 -3.14354 0.053652 0
M  V30 637 N 56.1678 -1.49265 -0.50573 0
M  V30 638 C 57.1008 -1.60183 -1.62532 0
M  V30 639 C 58.0788 -0.451107 -1.56217 0
M  V30 640 O 59.2628 -0.666016 -1.76342 0
M  V30 641 C 56.3898 -1.55238 -3.01029 0
M  V30 642 C 55.4358 -2.7545 -3.25621 0
M  V30 643 S 56.2688 -4.37174 -3.09256 0
M  V30 644 C 57.4248 -4.34866 -4.50158 0
M  V30 645 H 57.6578 -2.54894 -1.53025 0
M  V30 646 H 55.1908 -1.38098 -0.690535 0
M  V30 647 H 57.1488 -1.53071 -3.80893 0
M  V30 648 H 55.8098 -0.618238 -3.07956 0
M  V30 649 H 55.0028 -2.68197 -4.26716 0
M  V30 650 H 54.6048 -2.75005 -2.53472 0
M  V30 651 H 56.8968 -4.06295 -5.42154 0
M  V30 652 H 57.8398 -5.36223 -4.62462 0
M  V30 653 H 58.2478 -3.65007 -4.30616 0
M  V30 654 N 57.6459 0.756429 -1.3826 0
M  V30 655 C 58.8949 1.51082 -1.3363 0
M  V30 656 C 59.2079 1.95467 0.0720068 0
M  V30 657 O 60.4139 2.7043 0.240834 0
M  V30 658 C 58.8699 2.72893 -2.34644 0
M  V30 659 C 58.4779 2.35544 -3.81081 0
M  V30 660 C 60.2219 3.50791 -2.39052 0
M  V30 661 C 58.1289 3.53948 -4.73787 0
M  V30 662 H 57.0589 0.56727 -0.49671 0
M  V30 663 H 59.7099 0.827147 -1.638 0
M  V30 664 H 58.0919 3.43227 -1.97513 0
M  V30 665 H 59.2659 1.72894 -4.27135 0
M  V30 666 H 57.5809 1.70786 -3.79764 0
M  V30 667 H 60.1779 4.38823 -3.05513 0
M  V30 668 H 60.5209 3.91745 -1.40861 0
M  V30 669 H 61.0539 2.87467 -2.74968 0
M  V30 670 H 57.7929 3.18064 -5.73163 0
M  V30 671 H 57.3129 4.15651 -4.32428 0
M  V30 672 H 58.9919 4.20566 -4.91663 0
M  V30 673 N 59.124 1.23083 0.984299 0
M  V30 674 C 60.401 0.9689 1.69917 0
M  V30 675 C 60.781 -0.513604 2.04757 0
M  V30 676 O 60.129 -1.48383 1.73767 0
M  V30 677 C 60.339 1.87518 2.94343 0
M  V30 678 C 61.687 2.13636 3.6694 0
M  V30 679 O 62.711 1.85036 3.04368 0
M  V30 680 O 61.57 2.62119 4.79537 0
M  V30 681 H 58.664 0.365095 0.742048 0
M  V30 682 H 61.21 1.34107 1.03987 0
M  V30 683 H 59.982 2.87756 2.65164 0
M  V30 684 H 59.605 1.50514 3.6801 0
M  V30 685 N 60.6021 -1.18246 1.0419 0
M  V30 686 C 61.5341 -2.2142 0.592088 0
M  V30 687 C 62.5471 -1.59233 -0.338909 0
M  V30 688 O 63.7361 -1.78002 -0.133231 0
M  V30 689 C 60.8361 -3.38546 -0.154854 0
M  V30 690 C 60.0091 -4.3031 0.784328 0
M  V30 691 C 59.0681 -5.26138 0.0804583 0
M  V30 692 O 58.0941 -5.64738 0.711292 0
M  V30 693 N 59.2961 -5.68261 -1.18574 0
M  V30 694 H 62.0611 -2.60636 1.47949 0
M  V30 695 H 59.6221 -1.33044 0.922544 0
M  V30 696 H 61.6141 -3.99678 -0.635606 0
M  V30 697 H 60.1841 -2.98012 -0.943811 0
M  V30 698 H 59.4041 -3.66764 1.44491 0
M  V30 699 H 60.6921 -4.8852 1.42218 0
M  V30 700 H 60.0901 -5.38957 -1.71876 0
M  V30 701 H 58.6471 -6.31584 -1.61074 0
M  V30 702 N 62.0802 -0.821533 -1.34494 0
M  V30 703 C 63.0282 -0.230702 -2.31453 0
M  V30 704 C 64.0222 0.627793 -1.57338 0
M  V30 705 O 65.2282 0.519288 -1.72347 0
M  V30 706 H 61.6032 -0.0558577 -0.749923 0
M  V30 707 H 63.5742 -1.06332 -2.78812 0
M  V30 708 C 62.3232 0.59391 -3.4259 0
M  V30 709 H 61.6462 -0.0573588 -3.99759 0
M  V30 710 H 63.0862 0.973446 -4.12674 0
M  V30 711 C 61.5452 1.76568 -2.86924 0
M  V30 712 O 62.0752 2.8638 -2.81691 0
M  V30 713 N 60.2812 1.58198 -2.43766 0
M  V30 714 H 59.8282 0.68872 -2.48222 0
M  V30 715 H 59.7862 2.36752 -2.06871 0
M  V30 716 N 63.5583 1.46682 -0.576371 0
M  V30 717 C 64.9743 1.57822 -0.237562 0
M  V30 718 C 65.1743 1.57237 1.26011 0
M  V30 719 O 64.2303 1.48596 2.04146 0
M  V30 720 C 65.5433 2.87499 -0.881168 0
M  V30 721 C 67.0913 3.01119 -0.85417 0
M  V30 722 C 67.5663 4.33524 -1.4772 0
M  V30 723 N 69.0573 4.40207 -1.44125 0
M  V30 724 C 69.7923 5.4126 -1.89276 0
M  V30 725 N 69.2883 6.49021 -2.42371 0
M  V30 726 N 71.0813 5.32422 -1.80231 0
M  V30 727 H 63.2323 1.45306 -1.54919 0
M  V30 728 H 65.4953 0.692733 -0.647167 0
M  V30 729 H 65.2013 2.9372 -1.93447 0
M  V30 730 H 65.0753 3.75224 -0.385592 0
M  V30 731 H 67.4623 2.94485 0.190491 0
M  V30 732 H 67.5433 2.14887 -1.3877 0
M  V30 733 H 67.1873 4.40916 -2.52103 0
M  V30 734 H 67.1173 5.1852 -0.918947 0
M  V30 735 H 69.6083 3.62931 -1.05307 0
M  V30 736 H 69.9213 7.2233 -2.74698 0
M  V30 737 H 68.2663 6.49858 -2.46393 0
M  V30 738 H 71.4573 4.47137 -1.38514 0
M  V30 739 H 71.6303 6.11034 -2.15735 0
M  V30 740 N 65.0364 0.313813 1.54444 0
M  V30 741 C 66.3134 -0.345447 1.92525 0
M  V30 742 C 66.6934 -1.70667 1.24242 0
M  V30 743 O 66.0414 -2.25273 0.382654 0
M  V30 744 C 66.2514 -0.44737 3.46121 0
M  V30 745 C 67.5994 -0.712238 4.18584 0
M  V30 746 O 68.6234 -0.530678 3.52225 0
M  V30 747 O 67.4824 -1.06183 5.36085 0
M  V30 748 H 64.5764 -0.195407 0.803583 0
M  V30 749 H 67.1224 0.362813 1.65776 0
M  V30 750 H 65.8944 0.509043 3.87975 0
M  V30 751 H 65.5174 -1.20359 3.78945 0
M  V30 752 N 66.5145 -1.57545 0.0417849 0
M  V30 753 C 67.7625 -1.91937 -0.632829 0
M  V30 754 C 68.0835 -0.919978 -1.71934 0
M  V30 755 O 67.3535 0.0366064 -1.95866 0
M  V30 756 H 65.9335 -0.708493 -0.236742 0
M  V30 757 H 68.5955 -1.9468 0.0925745 0
M  V30 758 H 67.6915 -2.92912 -1.07746 0
M  V30 759 N 67.9926 0.231505 -1.5589 0
M  V30 760 C 69.2396 0.957352 -1.78441 0
M  V30 761 C 69.5676 1.84726 -0.60882 0
M  V30 762 O 68.8226 1.91416 0.40725 0
M  V30 763 C 69.1216 1.83577 -3.0665 0
M  V30 764 C 68.7876 1.09993 -4.37278 0
M  V30 765 C 67.4496 0.896629 -4.72773 0
M  V30 766 C 69.8016 0.579558 -5.17968 0
M  V30 767 C 67.1296 0.160896 -5.86479 0
M  V30 768 C 69.4816 -0.142783 -6.32439 0
M  V30 769 C 68.1456 -0.357427 -6.66542 0
M  V30 770 H 67.4156 0.35032 -0.65296 0
M  V30 771 H 70.0626 0.226259 -1.90159 0
M  V30 772 H 68.3676 2.63441 -2.90011 0
M  V30 773 H 70.0646 2.39934 -3.21298 0
M  V30 774 H 66.6546 1.26835 -4.09403 0
M  V30 775 H 70.8386 0.724125 -4.90989 0
M  V30 776 H 66.0946 -0.0157293 -6.11398 0
M  V30 777 H 70.2686 -0.553559 -6.94196 0
M  V30 778 H 67.8956 -0.929466 -7.54497 0
M  V30 779 N 69.4707 1.49531 0.497807 0
M  V30 780 C 70.7197 1.58426 1.24837 0
M  V30 781 C 71.0327 0.277643 1.93619 0
M  V30 782 O 72.2387 0.24517 2.70391 0
M  V30 783 C 70.6947 2.79538 2.26686 0
M  V30 784 C 70.3027 4.16971 1.63828 0
M  V30 785 C 72.0467 2.97764 3.0255 0
M  V30 786 C 69.9537 5.29301 2.63807 0
M  V30 787 H 68.8837 0.58989 0.469623 0
M  V30 788 H 71.5347 1.75923 0.521857 0
M  V30 789 H 69.9167 2.55542 3.02514 0
M  V30 790 H 71.0907 4.51116 0.939711 0
M  V30 791 H 69.4057 4.04129 1.00342 0
M  V30 792 H 72.0027 3.78856 3.77323 0
M  V30 793 H 72.3457 2.08448 3.60354 0
M  V30 794 H 72.8787 3.21815 2.33838 0
M  V30 795 H 69.6177 6.20687 2.10779 0
M  V30 796 H 69.1377 4.99606 3.31894 0
M  V30 797 H 70.8167 5.58768 3.2617 0
M  V30 798 N 70.9488 -0.749086 1.3866 0
M  V30 799 C 72.2258 -1.4992 1.25632 0
M  V30 800 C 72.6058 -2.10633 -0.140317 0
M  V30 801 O 71.9538 -1.97437 -1.15025 0
M  V30 802 C 72.1638 -2.56195 2.36992 0
M  V30 803 C 73.5118 -3.22972 2.75634 0
M  V30 804 O 74.5358 -2.66502 2.36337 0
M  V30 805 O 73.3948 -4.25122 3.43415 0
M  V30 806 H 70.4888 -0.665067 0.491544 0
M  V30 807 H 73.0348 -0.784113 1.50498 0
M  V30 808 H 71.8068 -2.09612 3.30422 0
M  V30 809 H 71.4298 -3.35279 2.13714 0
M  V30 810 N 72.4269 -1.23603 -0.977757 0
M  V30 811 C 73.3739 -1.01954 -2.07061 0
M  V30 812 C 74.3439 0.0638697 -1.65977 0
M  V30 813 O 75.5289 -0.0887624 -1.90593 0
M  V30 814 C 72.6689 -0.619658 -3.39491 0
M  V30 815 C 71.7819 -1.77547 -3.93829 0
M  V30 816 C 70.9169 -1.32212 -5.14484 0
M  V30 817 C 69.9559 -2.44852 -5.60994 0
M  V30 818 N 69.0929 -2.00456 -6.72876 0
M  V30 819 H 73.9329 -1.95495 -2.24913 0
M  V30 820 H 71.4699 -0.973861 -1.10247 0
M  V30 821 H 73.4279 -0.368898 -4.15566 0
M  V30 822 H 72.0579 0.278752 -3.21594 0
M  V30 823 H 71.1099 -2.14016 -3.14486 0
M  V30 824 H 72.4219 -2.62219 -4.24314 0
M  V30 825 H 71.5759 -1.02965 -5.97899 0
M  V30 826 H 70.3149 -0.445808 -4.85658 0
M  V30 827 H 69.3199 -2.74871 -4.76157 0
M  V30 828 H 70.5449 -3.33024 -5.91837 0
M  V30 829 H 68.4909 -1.15208 -6.45804 0
M  V30 830 H 68.4079 -2.78687 -7.02759 0
M  V30 831 H 69.6759 -1.7432 -7.59758 0
M  V30 832 N 73.905 1.17692 -1.04816 0
M  V30 833 C 74.815 2.25229 -0.65643 0
M  V30 834 C 75.831 1.71018 0.320761 0
M  V30 835 O 77.007 2.00649 0.173805 0
M  V30 836 C 74.072 3.46684 -0.0332629 0
M  V30 837 C 73.133 4.15997 -1.06042 0
M  V30 838 C 72.366 5.31654 -0.466893 0
M  V30 839 O 72.589 5.65777 0.724758 0
M  V30 840 O 71.523 5.89831 -1.1993 0
M  V30 841 H 75.349 2.61016 -1.55255 0
M  V30 842 H 72.934 1.24919 -0.81949 0
M  V30 843 H 74.816 4.20234 0.313256 0
M  V30 844 H 73.491 3.12703 0.836566 0
M  V30 845 H 72.398 3.44482 -1.45886 0
M  V30 846 H 73.731 4.53996 -1.90127 0
M  V30 847 N 75.3831 0.828654 1.34056 0
M  V30 848 C 76.6601 0.341809 1.9259 0
M  V30 849 C 77.0401 -1.17158 1.75605 0
M  V30 850 O 76.3881 -1.98132 1.13824 0
M  V30 851 C 76.5981 0.777453 3.4023 0
M  V30 852 C 77.9461 0.779579 4.17382 0
M  V30 853 O 78.9701 0.7204 3.48839 0
M  V30 854 O 77.8291 0.857996 5.39723 0
M  V30 855 H 74.9231 0.0946085 0.821571 0
M  V30 856 H 77.4691 0.913827 1.42994 0
M  V30 857 H 76.2411 1.8196 3.46419 0
M  V30 858 H 75.8641 0.181444 3.97186 0
M  V30 859 N 76.8612 -1.46375 0.584142 0
M  V30 860 C 77.7912 -2.33103 -0.136037 0
M  V30 861 C 78.7722 -1.45431 -0.882255 0
M  V30 862 O 79.9572 -1.74246 -0.857434 0
M  V30 863 C 77.0872 -3.27731 -1.14933 0
M  V30 864 C 76.0412 -4.24855 -0.517862 0
M  V30 865 C 75.3672 -5.09001 -1.63773 0
M  V30 866 C 76.6672 -5.19439 0.545886 0
M  V30 867 H 78.3612 -2.93568 0.588086 0
M  V30 868 H 75.9072 -1.41166 0.284259 0
M  V30 869 H 77.8602 -3.87261 -1.66153 0
M  V30 870 H 76.5842 -2.65377 -1.90375 0
M  V30 871 H 75.2432 -3.6659 -0.0267361 0
M  V30 872 H 74.8912 -4.43031 -2.38185 0
M  V30 873 H 74.5912 -5.74777 -1.22085 0
M  V30 874 H 76.1152 -5.71396 -2.15266 0
M  V30 875 H 77.5292 -5.73177 0.118704 0
M  V30 876 H 75.9262 -5.93566 0.88317 0
M  V30 877 H 76.9962 -4.63285 1.43162 0
M  V30 878 N 78.3393 -0.321999 -1.54275 0
M  V30 879 C 79.2893 0.560185 -2.21011 0
M  V30 880 C 80.2733 1.08283 -1.19011 0
M  V30 881 O 81.4653 1.02011 -1.44647 0
M  V30 882 C 78.5943 1.72137 -2.97025 0
M  V30 883 C 77.6803 1.21369 -4.06363 0
M  V30 884 N 78.0713 0.425566 -5.04007 0
M  V30 885 C 76.3693 1.49255 -4.20284 0
M  V30 886 C 77.0703 0.152601 -5.815 0
M  V30 887 N 76.0463 0.738294 -5.38563 0
M  V30 888 H 79.8483 -0.049265 -2.93859 0
M  V30 889 H 77.3623 -0.127779 -1.61897 0
M  V30 890 H 79.3593 2.36512 -3.43319 0
M  V30 891 H 78.0193 2.33431 -2.25699 0
M  V30 892 H 79.0303 0.068551 -5.17855 0
M  V30 893 H 75.7073 2.11145 -3.60172 0
M  V30 894 H 77.0973 -0.481764 -6.70171 0
M  V30 895 N 79.8174 1.5752 -0.0501392 0
M  V30 896 C 81.0944 1.83996 0.663685 0
M  V30 897 C 81.4744 0.938339 1.89099 0
M  V30 898 O 80.8224 -0.00087759 2.285 0
M  V30 899 C 81.0324 3.33702 1.02196 0
M  V30 900 C 82.3804 4.00691 1.40469 0
M  V30 901 O 83.4044 3.38321 1.11433 0
M  V30 902 O 82.2634 5.10658 1.94654 0
M  V30 903 H 79.3574 0.759385 0.32751 0
M  V30 904 H 81.9034 1.69514 -0.0794238 0
M  V30 905 H 80.6754 3.91015 0.149364 0
M  V30 906 H 80.2984 3.53368 1.82255 0
M  V30 907 N 81.2955 -0.223234 1.56011 0
M  V30 908 C 82.2285 -1.30377 1.87289 0
M  V30 909 C 83.2065 -1.45286 0.730112 0
M  V30 910 O 84.3905 -1.61126 0.978302 0
M  V30 911 C 81.5175 -2.67431 2.07843 0
M  V30 912 C 80.5635 -2.69546 3.30526 0
M  V30 913 S 81.3965 -2.23781 4.865 0
M  V30 914 C 82.5525 -3.62714 5.10088 0
M  V30 915 H 82.7855 -1.03652 2.78646 0
M  V30 916 H 80.3185 -0.425393 1.48424 0
M  V30 917 H 82.2765 -3.46336 2.20368 0
M  V30 918 H 80.9375 -2.91381 1.17285 0
M  V30 919 H 80.1305 -3.70255 3.41947 0
M  V30 920 H 79.7325 -1.98703 3.16849 0
M  V30 921 H 82.0245 -4.58391 4.98883 0
M  V30 922 H 82.9675 -3.5621 6.11981 0
M  V30 923 H 83.3755 -3.56323 4.37829 0
M  V30 924 N 82.7736 -1.49793 -0.48987 0
M  V30 925 C 83.7036 -1.70201 -1.59856 0
M  V30 926 C 84.6846 -0.55076 -1.60937 0
M  V30 927 O 85.8696 -0.787841 -1.77501 0
M  V30 928 C 82.9996 -1.77882 -2.98287 0
M  V30 929 C 81.9536 -2.92907 -3.12073 0
M  V30 930 C 81.2796 -2.85712 -4.51965 0
M  V30 931 C 82.5796 -4.3369 -2.91051 0
M  V30 932 H 84.2736 -2.63025 -1.43032 0
M  V30 933 H 81.8196 -1.26574 -0.686664 0
M  V30 934 H 83.7726 -1.90744 -3.75759 0
M  V30 935 H 82.4966 -0.816653 -3.16225 0
M  V30 936 H 81.1556 -2.79665 -2.37029 0
M  V30 937 H 80.8036 -1.8738 -4.66795 0
M  V30 938 H 80.5036 -3.62921 -4.62128 0
M  V30 939 H 82.0276 -3.00598 -5.31482 0
M  V30 940 H 83.4416 -4.47555 -3.58284 0
M  V30 941 H 81.8386 -5.12205 -3.12675 0
M  V30 942 H 82.9086 -4.47362 -1.87071 0
M  V30 943 N 84.2517 0.741722 -1.39055 0
M  V30 944 C 85.2147 1.83733 -1.37021 0
M  V30 945 C 86.2147 1.58542 -0.268534 0
M  V30 946 O 87.4047 1.66067 -0.526076 0
M  V30 947 C 84.5367 3.2141 -1.13617 0
M  V30 948 H 85.7297 1.86941 -2.34506 0
M  V30 949 H 83.2827 0.944676 -1.24521 0
M  V30 950 H 84.0177 3.23865 -0.167863 0
M  V30 951 H 83.8027 3.4109 -1.93391 0
M  V30 952 H 85.2927 4.01477 -1.14918 0
M  V30 953 N 85.7298 1.2412 0.971189 0
M  V30 954 C 86.9548 1.10667 1.75407 0
M  V30 955 C 87.3798 -0.337048 1.85056 0
M  V30 956 O 86.7378 -1.24396 1.31892 0
M  V30 957 C 86.7858 1.74726 3.15441 0
M  V30 958 O 85.8898 1.01566 3.99697 0
M  V30 959 H 85.2308 0.387341 0.539317 0
M  V30 960 H 87.7608 1.64358 1.2185 0
M  V30 961 H 87.7708 1.80341 3.6598 0
M  V30 962 H 86.4458 2.79773 3.07734 0
M  V30 963 H 85.0228 1.03713 3.58187 0
M  V30 964 N 87.2079 -1.17134 1.05439 0
M  V30 965 C 88.1379 -2.2342 0.678649 0
M  V30 966 C 89.1189 -1.66971 -0.32476 0
M  V30 967 O 90.3039 -1.93149 -0.201802 0
M  V30 968 C 87.4339 -3.47256 0.0552099 0
M  V30 969 C 86.3879 -4.16543 0.98365 0
M  V30 970 C 85.7139 -5.34231 0.223961 0
M  V30 971 C 87.0139 -4.68495 2.3089 0
M  V30 972 H 88.7079 -2.55105 1.56722 0
M  V30 973 H 86.2539 -1.2262 0.754998 0
M  V30 974 H 88.2069 -4.20828 -0.21946 0
M  V30 975 H 86.9309 -3.14846 -0.868319 0
M  V30 976 H 85.5899 -3.44887 1.24293 0
M  V30 977 H 85.2379 -4.98071 -0.702412 0
M  V30 978 H 84.9379 -5.81527 0.842627 0
M  V30 979 H 86.4619 -6.10585 -0.0433671 0
M  V30 980 H 87.8759 -5.33691 2.09396 0
M  V30 981 H 86.2729 -5.26379 2.88176 0
M  V30 982 H 87.3429 -3.85169 2.94572 0
M  V30 983 N 88.686 -0.835752 -1.33615 0
M  V30 984 C 89.934 -0.429109 -1.97492 0
M  V30 985 C 90.255 1.01433 -1.66543 0
M  V30 986 O 89.525 1.70611 -0.962744 0
M  V30 987 H 88.105 -0.155686 -0.730596 0
M  V30 988 H 90.767 -1.06802 -1.63031 0
M  V30 989 H 89.863 -0.55861 -3.0706 0
M  V30 990 N 90.1641 1.46063 -0.591896 0
M  V30 991 C 91.1111 2.30399 0.136069 0
M  V30 992 C 92.0811 1.41169 0.875238 0
M  V30 993 O 93.2661 1.70112 0.86409 0
M  V30 994 C 90.4061 3.25804 1.13781 0
M  V30 995 C 89.5191 4.30134 0.401137 0
M  V30 996 C 88.6541 5.12659 1.39121 0
M  V30 997 C 87.6931 6.0873 0.641462 0
M  V30 998 N 86.8301 6.8409 1.58004 0
M  V30 999 H 91.6701 2.92118 -0.589144 0
M  V30 1000 H 89.2071 1.43959 -0.302342 0
M  V30 1001 H 91.1651 3.79569 1.73156 0
M  V30 1002 H 89.7951 2.65872 1.83062 0
M  V30 1003 H 88.8471 3.79152 -0.307826 0
M  V30 1004 H 90.1591 4.98458 -0.184565 0
M  V30 1005 H 89.3131 5.70747 2.05749 0
M  V30 1006 H 88.0521 4.44316 2.01084 0
M  V30 1007 H 87.0571 5.49786 -0.0385419 0
M  V30 1008 H 88.2821 6.79095 0.0270945 0
M  V30 1009 H 86.2281 6.18449 2.18761 0
M  V30 1010 H 86.1451 7.48709 1.04738 0
M  V30 1011 H 87.4131 7.4673 2.23639 0
M  V30 1012 N 91.6422 0.330177 1.54103 0
M  V30 1013 C 92.5902 -0.548226 2.26047 0
M  V30 1014 C 93.5842 -1.11309 1.27698 0
M  V30 1015 O 94.7902 -1.06036 1.45452 0
M  V30 1016 H 91.1652 -0.195456 0.726155 0
M  V30 1017 H 93.1362 0.0807567 2.98291 0
M  V30 1018 C 91.8852 -1.69415 3.03634 0
M  V30 1019 H 91.2082 -1.26876 3.79134 0
M  V30 1020 H 92.6482 -2.28423 3.5721 0
M  V30 1021 C 91.1072 -2.61569 2.12328 0
M  V30 1022 O 91.6372 -3.63462 1.7105 0
M  V30 1023 N 89.8432 -2.29952 1.77681 0
M  V30 1024 H 89.3902 -1.47134 2.11446 0
M  V30 1025 H 89.3482 -2.91871 1.16869 0
M  V30 1026 N 93.1203 -1.57491 0.0584922 0
M  V30 1027 C 94.5313 -1.80526 -0.476138 0
M  V30 1028 C 94.8823 -0.971334 -1.70469 0
M  V30 1029 O 94.0073 -0.190012 -2.15564 0
M  V30 1030 C 94.6023 -3.27424 -0.870587 0
M  V30 1031 C 93.1613 -3.51351 -1.35015 0
M  V30 1032 C 92.3083 -2.75343 -0.32887 0
M  V30 1033 H 95.2593 -1.56133 0.284312 0
M  V30 1034 H 95.2803 -3.38745 -1.73299 0
M  V30 1035 H 94.7923 -3.88093 0.0237627 0
M  V30 1036 H 92.8933 -2.95971 -2.26345 0
M  V30 1037 H 93.0063 -4.60059 -1.33726 0
M  V30 1038 H 91.3703 -2.417 -0.803321 0
M  V30 1039 H 92.1533 -3.38743 0.557521 0
M  V30 1040 N 94.5984 0.214957 -1.56127 0
M  V30 1041 C 95.8264 0.955092 -1.83536 0
M  V30 1042 C 96.2414 1.77677 -0.638472 0
M  V30 1043 O 95.5984 1.78219 0.392968 0
M  V30 1044 C 95.6494 1.86734 -3.09536 0
M  V30 1045 O 95.3704 1.07887 -4.24608 0
M  V30 1046 C 96.8714 2.72082 -3.4998 0
M  V30 1047 H 94.0914 0.279611 -0.609966 0
M  V30 1048 H 96.6354 0.228197 -2.03223 0
M  V30 1049 H 94.7904 2.5481 -2.91806 0
M  V30 1050 H 95.2044 1.69872 -4.9623 0
M  V30 1051 H 96.6784 3.31782 -4.41163 0
M  V30 1052 H 97.1554 3.44806 -2.7204 0
M  V30 1053 H 97.7614 2.09409 -3.70173 0
M  V30 1054 N 96.0765 1.50051 0.48192 0
M  V30 1055 C 97.3535 1.51009 1.2432 0
M  V30 1056 C 97.7335 0.248587 2.09631 0
M  V30 1057 O 97.0815 -0.768409 2.15192 0
M  V30 1058 C 97.2915 2.79981 2.08355 0
M  V30 1059 C 98.6395 3.3022 2.66908 0
M  V30 1060 O 99.6635 2.81228 2.18607 0
M  V30 1061 O 98.5225 4.15595 3.54884 0
M  V30 1062 H 95.6165 0.605239 0.563573 0
M  V30 1063 H 98.1625 1.62332 0.494627 0
M  V30 1064 H 96.9345 3.63275 1.45419 0
M  V30 1065 H 96.5575 2.7161 2.90368 0
M  V30 1066 N 97.5546 -0.734337 1.39446 0
M  V30 1067 C 98.4646 -1.87879 1.40495 0
M  V30 1068 C 99.4806 -1.714 0.299672 0
M  V30 1069 O 100.657 -1.93991 0.541249 0
M  V30 1070 C 97.7216 -3.23477 1.24754 0
M  V30 1071 C 96.7826 -3.52344 2.45259 0
M  V30 1072 C 96.0156 -4.81473 2.30259 0
M  V30 1073 O 96.2386 -5.55237 1.30643 0
M  V30 1074 O 95.1726 -5.10254 3.19256 0
M  V30 1075 H 98.9986 -1.89949 2.36966 0
M  V30 1076 H 96.5836 -0.882243 1.20569 0
M  V30 1077 H 98.4656 -4.04509 1.18111 0
M  V30 1078 H 97.1406 -3.22176 0.313781 0
M  V30 1079 H 96.0476 -2.71396 2.57478 0
M  V30 1080 H 97.3806 -3.58426 3.37331 0
M  V30 1081 N 99.0327 -1.24633 -0.964593 0
M  V30 1082 C 100.263 -1.11339 -1.74032 0
M  V30 1083 C 100.671 0.336593 -1.86182 0
M  V30 1084 O 100.014 1.24389 -1.35178 0
M  V30 1085 C 100.076 -1.68284 -3.1768 0
M  V30 1086 C 99.7397 -3.17196 -3.28992 0
M  V30 1087 C 100.737 -4.14308 -3.14078 0
M  V30 1088 C 98.4217 -3.57215 -3.53133 0
M  V30 1089 C 100.416 -5.4942 -3.23135 0
M  V30 1090 C 98.1027 -4.92468 -3.61827 0
M  V30 1091 C 99.1007 -5.8838 -3.46841 0
M  V30 1092 O 98.7887 -7.21173 -3.55197 0
M  V30 1093 H 98.5207 -0.389551 -0.552472 0
M  V30 1094 H 101.075 -1.65282 -1.21946 0
M  V30 1095 H 99.3047 -1.08777 -3.71085 0
M  V30 1096 H 100.994 -1.50234 -3.77074 0
M  V30 1097 H 101.76 -3.84731 -2.95308 0
M  V30 1098 H 97.6387 -2.83063 -3.63863 0
M  V30 1099 H 101.183 -6.24263 -3.11355 0
M  V30 1100 H 97.0797 -5.21714 -3.80111 0
M  V30 1101 H 97.8477 -7.29135 -3.71892 0
M  V30 1102 N 100.511 1.16574 -1.06058 0
M  V30 1103 C 101.441 2.23057 -0.690488 0
M  V30 1104 C 102.422 1.67141 0.315901 0
M  V30 1105 O 103.607 1.93253 0.191556 0
M  V30 1106 C 100.737 3.47222 -0.073625 0
M  V30 1107 C 99.6908 4.16016 -1.00573 0
M  V30 1108 C 99.0168 5.34104 -0.252289 0
M  V30 1109 C 100.317 4.67264 -2.33371 0
M  V30 1110 H 102.011 2.54271 -1.58072 0
M  V30 1111 H 99.5568 1.22218 -0.76149 0
M  V30 1112 H 101.51 4.20939 0.19714 0
M  V30 1113 H 100.234 3.15302 0.85161 0
M  V30 1114 H 98.8928 3.44223 -1.2612 0
M  V30 1115 H 98.5408 4.98437 0.675988 0
M  V30 1116 H 98.2408 5.81072 -0.873455 0
M  V30 1117 H 99.7648 6.10599 0.0109857 0
M  V30 1118 H 101.179 5.32573 -2.12223 0
M  V30 1119 H 99.5758 5.24843 -2.90963 0
M  V30 1120 H 100.646 3.83602 -2.96611 0
M  V30 1121 N 101.989 0.842826 1.3317 0
M  V30 1122 C 103.266 0.362216 1.92217 0
M  V30 1123 C 103.646 -1.15289 1.76838 0
M  V30 1124 O 102.994 -1.96914 1.15919 0
M  V30 1125 C 103.204 0.813495 3.39387 0
M  V30 1126 C 104.552 0.823804 4.16532 0
M  V30 1127 O 105.576 0.757358 3.48055 0
M  V30 1128 O 104.435 0.915193 5.38782 0
M  V30 1129 H 101.529 0.103317 0.820521 0
M  V30 1130 H 104.075 0.928942 1.42017 0
M  V30 1131 H 102.847 1.85624 3.4447 0
M  V30 1132 H 102.47 0.223561 3.96971 0
M  V30 1133 N 103.467 -1.45747 0.599634 0
M  V30 1134 C 104.43 -2.28917 -0.113835 0
M  V30 1135 C 105.43 -1.3933 -0.802729 0
M  V30 1136 O 106.62 -1.61534 -0.652103 0
M  V30 1137 C 103.752 -3.20152 -1.17114 0
M  V30 1138 H 104.945 -2.93478 0.617289 0
M  V30 1139 H 102.498 -1.52137 0.358327 0
M  V30 1140 H 103.233 -2.60374 -1.93329 0
M  V30 1141 H 103.018 -3.86133 -0.681468 0
M  V30 1142 H 104.508 -3.82708 -1.67105 0
M  V30 1143 N 104.945 -0.338344 -1.53925 0
M  V30 1144 C 105.878 0.563758 -2.21127 0
M  V30 1145 C 106.856 1.10433 -1.19345 0
M  V30 1146 O 108.04 1.16557 -1.48144 0
M  V30 1147 C 105.167 1.77505 -2.88461 0
M  V30 1148 C 104.213 1.3644 -4.04087 0
M  V30 1149 S 105.046 0.388593 -5.34088 0
M  V30 1150 C 106.202 1.60683 -6.04923 0
M  V30 1151 H 106.435 -0.00704546 -2.97299 0
M  V30 1152 H 103.968 -0.122418 -1.53914 0
M  V30 1153 H 105.926 2.46999 -3.27875 0
M  V30 1154 H 104.587 2.31706 -2.12064 0
M  V30 1155 H 103.78 2.26739 -4.50117 0
M  V30 1156 H 103.382 0.748998 -3.66423 0
M  V30 1157 H 105.674 2.54209 -6.28 0
M  V30 1158 H 106.617 1.18842 -6.98056 0
M  V30 1159 H 107.025 1.80052 -5.35015 0
M  V30 1160 N 106.423 1.57458 -0.0668435 0
M  V30 1161 C 107.356 2.08033 0.93795 0
M  V30 1162 C 108.334 0.984321 1.29421 0
M  V30 1163 O 109.518 1.25736 1.40437 0
M  V30 1164 C 106.645 2.53388 2.24749 0
M  V30 1165 C 105.691 3.74376 2.04315 0
M  V30 1166 S 106.524 5.19303 1.30706 0
M  V30 1167 C 107.68 5.67986 2.62951 0
M  V30 1168 H 107.913 2.92935 0.50759 0
M  V30 1169 H 105.446 1.5371 0.145804 0
M  V30 1170 H 107.404 2.8018 3.00016 0
M  V30 1171 H 106.065 1.68763 2.64911 0
M  V30 1172 H 105.258 4.04083 3.01218 0
M  V30 1173 H 104.86 3.47931 1.37186 0
M  V30 1174 H 107.152 5.74528 3.5906 0
M  V30 1175 H 108.095 6.66955 2.3786 0
M  V30 1176 H 108.503 4.95781 2.69929 0
M  V30 1177 N 107.901 -0.206675 1.56239 0
M  V30 1178 C 108.849 -1.27571 1.94495 0
M  V30 1179 C 109.843 -1.47737 0.828862 0
M  V30 1180 O 111.049 -1.48735 1.0138 0
M  V30 1181 H 107.424 -0.428029 0.6183 0
M  V30 1182 H 109.395 -0.925961 2.8367 0
M  V30 1183 C 108.144 -2.61568 2.29079 0
M  V30 1184 H 107.467 -2.46863 3.14482 0
M  V30 1185 H 108.907 -3.35144 2.5972 0
M  V30 1186 C 107.366 -3.17695 1.12123 0
M  V30 1187 O 107.896 -3.99801 0.390153 0
M  V30 1188 N 106.102 -2.76276 0.901097 0
M  V30 1189 H 105.649 -2.09613 1.49733 0
M  V30 1190 H 105.607 -3.1417 0.120319 0
M  V30 1191 N 109.379 -1.50304 -0.473955 0
M  V30 1192 C 110.289 -1.7174 -1.5982 0
M  V30 1193 C 111.305 -0.600457 -1.63311 0
M  V30 1194 O 112.481 -0.878441 -1.81233 0
M  V30 1195 C 109.546 -1.80427 -2.96052 0
M  V30 1196 C 108.607 -3.04148 -3.02972 0
M  V30 1197 C 107.84 -3.12411 -4.32706 0
M  V30 1198 O 108.063 -2.27542 -5.23049 0
M  V30 1199 O 106.997 -4.05113 -4.45159 0
M  V30 1200 H 110.823 -2.67035 -1.44657 0
M  V30 1201 H 108.408 -1.34366 -0.653148 0
M  V30 1202 H 110.29 -1.88338 -3.7697 0
M  V30 1203 H 108.965 -0.883156 -3.11419 0
M  V30 1204 H 107.872 -3.0174 -2.21142 0
M  V30 1205 H 109.205 -3.95829 -2.92541 0
M  V30 1206 N 110.857 0.726932 -1.39834 0
M  V30 1207 C 111.82 1.82269 -1.38962 0
M  V30 1208 C 112.82 1.58248 -0.285334 0
M  V30 1209 O 114.01 1.65499 -0.54366 0
M  V30 1210 C 111.142 3.20186 -1.17019 0
M  V30 1211 H 112.335 1.84443 -2.36476 0
M  V30 1212 H 109.888 0.931416 -1.25516 0
M  V30 1213 H 110.623 3.23669 -0.202204 0
M  V30 1214 H 110.408 3.3902 -1.96998 0
M  V30 1215 H 111.898 4.00235 -1.1917 0
M  V30 1216 N 112.336 1.25143 0.95797 0
M  V30 1217 C 113.747 1.08851 1.51685 0
M  V30 1218 C 114.098 -0.33687 1.93286 0
M  V30 1219 O 113.223 -1.22644 1.7829 0
M  V30 1220 C 113.818 1.96978 2.75654 0
M  V30 1221 C 112.377 1.84881 3.27866 0
M  V30 1222 C 111.524 1.91329 2.0072 0
M  V30 1223 H 114.475 1.38478 0.77522 0
M  V30 1224 H 114.496 1.5078 3.4935 0
M  V30 1225 H 114.008 3.00712 2.45345 0
M  V30 1226 H 112.109 0.840182 3.63004 0
M  V30 1227 H 112.222 2.6951 3.96107 0
M  V30 1228 H 110.586 1.35174 2.15871 0
M  V30 1229 H 111.369 2.96661 1.72764 0
M  V30 1230 N 113.814 -1.1601 1.06675 0
M  V30 1231 C 115.062 -1.86264 0.784229 0
M  V30 1232 C 115.383 -1.82328 -0.691488 0
M  V30 1233 O 114.653 -1.25947 -1.50047 0
M  V30 1234 H 113.233 -0.689621 0.28711 0
M  V30 1235 H 115.895 -1.40664 1.34906 0
M  V30 1236 H 114.991 -2.91595 1.11259 0
M  V30 1237 N 115.292 -0.849877 -1.32721 0
M  V30 1238 C 116.703 -0.506188 -1.79707 0
M  V30 1239 C 117.054 0.975627 -1.70223 0
M  V30 1240 O 116.179 1.76078 -1.25799 0
M  V30 1241 C 116.774 -0.912044 -3.26293 0
M  V30 1242 C 115.333 -0.620326 -3.71253 0
M  V30 1243 C 114.48 -1.11439 -2.53922 0
M  V30 1244 H 117.431 -1.03754 -1.20087 0
M  V30 1245 H 117.452 -0.226493 -3.79825 0
M  V30 1246 H 116.964 -1.99057 -3.33164 0
M  V30 1247 H 115.065 0.447674 -3.69901 0
M  V30 1248 H 115.178 -1.18327 -4.64258 0
M  V30 1249 H 113.542 -0.534834 -2.49021 0
M  V30 1250 H 114.325 -2.19992 -2.6355 0
M  V30 1251 N 116.77 1.45427 -0.607355 0
M  V30 1252 C 118.019 2.01452 -0.100036 0
M  V30 1253 C 118.332 1.48159 1.27704 0
M  V30 1254 O 119.538 1.96159 1.87707 0
M  V30 1255 C 117.994 3.59672 -0.128158 0
M  V30 1256 C 117.602 4.21962 -1.50507 0
M  V30 1257 C 119.346 4.23262 0.323932 0
M  V30 1258 C 117.253 5.72333 -1.48959 0
M  V30 1259 H 116.183 0.75325 -0.0336299 0
M  V30 1260 H 118.834 1.66901 -0.76265 0
M  V30 1261 H 117.216 3.91411 0.601105 0
M  V30 1262 H 118.39 4.01796 -2.25602 0
M  V30 1263 H 116.705 3.70565 -1.89923 0
M  V30 1264 H 119.302 5.33522 0.354691 0
M  V30 1265 H 119.645 3.93921 1.34656 0
M  V30 1266 H 120.178 3.96239 -0.352056 0
M  V30 1267 H 116.917 6.06373 -2.48981 0
M  V30 1268 H 116.437 5.94691 -0.781214 0
M  V30 1269 H 118.116 6.35525 -1.21313 0
M  V30 1270 N 118.248 0.346503 1.53744 0
M  V30 1271 C 119.196 -0.52422 2.26616 0
M  V30 1272 C 120.19 -1.09948 1.28871 0
M  V30 1273 O 121.396 -1.04488 1.46568 0
M  V30 1274 H 117.771 -0.187743 0.728187 0
M  V30 1275 H 119.742 0.11239 2.98188 0
M  V30 1276 C 118.491 -1.66186 3.05414 0
M  V30 1277 H 117.814 -1.22848 3.80458 0
M  V30 1278 H 119.254 -2.24622 3.59612 0
M  V30 1279 C 117.713 -2.59302 2.1509 0
M  V30 1280 O 118.243 -3.61628 1.74895 0
M  V30 1281 N 116.449 -2.28055 1.8011 0
M  V30 1282 H 115.996 -1.44883 2.12994 0
M  V30 1283 H 115.954 -2.90615 1.19958 0
M  V30 1284 N 119.726 -1.57421 0.075193 0
M  V30 1285 C 120.973 -1.93618 -0.593146 0
M  V30 1286 C 121.301 -0.955484 -1.69413 0
M  V30 1287 O 120.556 0.0283251 -1.9568 0
M  V30 1288 C 120.855 -3.36428 -1.20626 0
M  V30 1289 C 120.521 -4.50307 -0.231078 0
M  V30 1290 C 119.183 -4.81186 0.0371936 0
M  V30 1291 C 121.535 -5.19374 0.435888 0
M  V30 1292 C 118.863 -5.78466 0.979461 0
M  V30 1293 C 121.215 -6.17665 1.3665 0
M  V30 1294 C 119.879 -6.46958 1.6432 0
M  V30 1295 H 119.149 -0.708499 -0.217047 0
M  V30 1296 H 121.796 -1.90937 0.146793 0
M  V30 1297 H 120.101 -3.35592 -2.02201 0
M  V30 1298 H 121.798 -3.61727 -1.73073 0
M  V30 1299 H 118.388 -4.26227 -0.450357 0
M  V30 1300 H 122.572 -4.95711 0.241748 0
M  V30 1301 H 117.828 -5.99487 1.20106 0
M  V30 1302 H 122.002 -6.70284 1.88924 0
M  V30 1303 H 119.629 -7.2215 2.37494 0
M  V30 1304 N 121.204 0.198386 -1.56346 0
M  V30 1305 C 122.432 0.935572 -1.84539 0
M  V30 1306 C 122.847 1.76989 -0.657281 0
M  V30 1307 O 122.204 1.78626 0.374043 0
M  V30 1308 C 122.255 1.8344 -3.11499 0
M  V30 1309 O 121.976 1.03377 -4.25728 0
M  V30 1310 C 123.477 2.68355 -3.52846 0
M  V30 1311 H 120.697 0.273126 -0.612897 0
M  V30 1312 H 123.241 0.20663 -2.03453 0
M  V30 1313 H 121.396 2.51701 -2.94492 0
M  V30 1314 H 121.81 1.64599 -4.98003 0
M  V30 1315 H 123.284 3.27085 -4.44657 0
M  V30 1316 H 123.761 3.41901 -2.75681 0
M  V30 1317 H 124.367 2.05471 -3.72373 0
M  V30 1318 N 122.682 1.50554 0.465978 0
M  V30 1319 C 123.615 1.64436 1.58227 0
M  V30 1320 C 124.593 0.492367 1.54966 0
M  V30 1321 O 125.777 0.712536 1.74514 0
M  V30 1322 C 122.904 1.63165 2.96808 0
M  V30 1323 C 121.95 2.83987 3.18204 0
M  V30 1324 S 122.783 4.45219 2.97557 0
M  V30 1325 C 123.939 4.46649 4.3847 0
M  V30 1326 H 124.172 2.58861 1.46213 0
M  V30 1327 H 121.705 1.3988 0.653678 0
M  V30 1328 H 123.663 1.63116 3.76701 0
M  V30 1329 H 122.324 0.69967 3.06208 0
M  V30 1330 H 121.517 2.79416 4.19455 0
M  V30 1331 H 121.119 2.81629 2.46092 0
M  V30 1332 H 123.411 4.20526 5.31191 0
M  V30 1333 H 124.354 5.48295 4.48082 0
M  V30 1334 H 124.762 3.76296 4.20787 0
M  V30 1335 N 124.16 -0.719506 1.40217 0
M  V30 1336 C 125.407 -1.47933 1.38283 0
M  V30 1337 C 125.735 -1.94493 -0.0161536 0
M  V30 1338 O 124.99 -1.68224 -0.999956 0
M  V30 1339 C 125.289 -2.72271 2.31524 0
M  V30 1340 C 124.955 -2.44496 3.78857 0
M  V30 1341 C 123.617 -2.36631 4.18998 0
M  V30 1342 C 125.969 -2.21104 4.71977 0
M  V30 1343 C 123.297 -2.03437 5.503 0
M  V30 1344 C 125.649 -1.89423 6.03574 0
M  V30 1345 C 124.313 -1.80038 6.42762 0
M  V30 1346 H 123.583 -0.541325 0.506012 0
M  V30 1347 H 126.23 -0.824502 1.72842 0
M  V30 1348 H 124.535 -3.42572 1.90137 0
M  V30 1349 H 126.232 -3.30348 2.27313 0
M  V30 1350 H 122.822 -2.51503 3.47051 0
M  V30 1351 H 127.006 -2.26139 4.41786 0
M  V30 1352 H 122.262 -1.94705 5.79569 0
M  V30 1353 H 126.436 -1.70336 6.75247 0
M  V30 1354 H 124.063 -1.54083 7.44421 0
M  V30 1355 N 125.638 -1.25649 -0.95132 0
M  V30 1356 C 126.568 -1.08808 -2.06599 0
M  V30 1357 C 127.549 0.00382547 -1.701 0
M  V30 1358 O 128.734 -0.166325 -1.93486 0
M  V30 1359 C 125.864 -0.709542 -3.39975 0
M  V30 1360 C 124.818 -1.75206 -3.90496 0
M  V30 1361 C 124.144 -1.22811 -5.20405 0
M  V30 1362 C 125.444 -3.15153 -4.16504 0
M  V30 1363 H 127.138 -2.02048 -2.20946 0
M  V30 1364 H 124.684 -0.972835 -1.06169 0
M  V30 1365 H 126.637 -0.578649 -4.17408 0
M  V30 1366 H 125.361 0.258556 -3.25575 0
M  V30 1367 H 124.02 -1.87145 -3.15234 0
M  V30 1368 H 123.668 -0.250145 -5.02378 0
M  V30 1369 H 123.368 -1.92492 -5.55176 0
M  V30 1370 H 124.892 -1.10968 -6.00432 0
M  V30 1371 H 126.306 -3.06349 -4.84586 0
M  V30 1372 H 124.703 -3.82333 -4.62538 0
M  V30 1373 H 125.773 -3.61966 -3.22658 0
M  V30 1374 N 127.117 1.15442 -1.07289 0
M  V30 1375 C 128.345 1.90096 -0.81676 0
M  V30 1376 C 128.76 1.7798 0.629966 0
M  V30 1377 O 128.117 1.1313 1.43206 0
M  V30 1378 C 128.168 3.40466 -1.21512 0
M  V30 1379 O 127.889 3.52232 -2.60508 0
M  V30 1380 C 129.39 4.32145 -0.988198 0
M  V30 1381 H 126.61 0.602495 -0.295366 0
M  V30 1382 H 129.154 1.4627 -1.42918 0
M  V30 1383 H 127.309 3.81958 -0.647039 0
M  V30 1384 H 127.723 4.45549 -2.76742 0
M  V30 1385 H 129.197 5.36072 -1.31645 0
M  V30 1386 H 129.674 4.39135 0.0755063 0
M  V30 1387 H 130.28 3.96395 -1.54115 0
M  V30 1388 N 128.595 0.856903 1.32268 0
M  V30 1389 C 129.528 0.247937 2.26849 0
M  V30 1390 C 130.506 -0.615382 1.50505 0
M  V30 1391 O 131.69 -0.571689 1.79622 0
M  V30 1392 C 128.817 -0.650093 3.32403 0
M  V30 1393 C 127.863 0.140138 4.2627 0
M  V30 1394 S 128.696 1.51004 5.13769 0
M  V30 1395 C 129.852 0.61778 6.22844 0
M  V30 1396 H 130.085 1.04971 2.78152 0
M  V30 1397 H 127.618 0.654665 1.39834 0
M  V30 1398 H 129.576 -1.16256 3.93694 0
M  V30 1399 H 128.237 -1.4257 2.7988 0
M  V30 1400 H 127.43 -0.543945 5.01056 0
M  V30 1401 H 127.032 0.584267 3.69408 0
M  V30 1402 H 129.324 -0.177053 6.77269 0
M  V30 1403 H 130.267 1.33636 6.95375 0
M  V30 1404 H 130.675 0.191124 5.64176 0
M  V30 1405 N 130.073 -1.45103 0.615059 0
M  V30 1406 C 131.32 -2.02183 0.113179 0
M  V30 1407 C 131.648 -1.48249 -1.25906 0
M  V30 1408 O 130.903 -0.650265 -1.84581 0
M  V30 1409 C 131.202 -3.57386 0.0318797 0
M  V30 1410 C 130.868 -4.30505 1.34077 0
M  V30 1411 C 129.53 -4.50197 1.69929 0
M  V30 1412 C 131.882 -4.72238 2.20546 0
M  V30 1413 C 129.21 -5.08881 2.91988 0
M  V30 1414 C 131.562 -5.32272 3.41861 0
M  V30 1415 C 130.226 -5.50187 3.77956 0
M  V30 1416 H 129.496 -0.739842 0.0414151 0
M  V30 1417 H 132.143 -1.74073 0.798168 0
M  V30 1418 H 130.448 -3.84817 -0.736409 0
M  V30 1419 H 132.145 -3.99264 -0.372712 0
M  V30 1420 H 128.735 -4.15496 1.05173 0
M  V30 1421 H 132.919 -4.56751 1.94146 0
M  V30 1422 H 128.175 -5.20939 3.2005 0
M  V30 1423 H 132.349 -5.63563 4.09109 0
M  V30 1424 H 129.976 -5.95427 4.72622 0
M  V30 1425 N 131.551 -0.354651 -1.53558 0
M  V30 1426 C 132.799 0.237972 -2.00694 0
M  V30 1427 C 133.12 1.50173 -1.24391 0
M  V30 1428 O 132.39 1.92673 -0.354135 0
M  V30 1429 H 130.97 0.0909256 -0.741446 0
M  V30 1430 H 133.632 -0.478368 -1.88938 0
M  V30 1431 H 132.728 0.47264 -3.085 0
M  V30 1432 N 133.029 1.57378 -0.0835403 0
M  V30 1433 C 133.939 2.16897 0.894021 0
M  V30 1434 C 134.955 1.13528 1.31861 0
M  V30 1435 O 136.131 1.45848 1.3889 0
M  V30 1436 C 133.196 2.72831 2.13925 0
M  V30 1437 C 132.257 3.91115 1.76997 0
M  V30 1438 C 131.49 4.44371 2.95584 0
M  V30 1439 O 131.713 3.96596 4.09961 0
M  V30 1440 O 130.647 5.35549 2.74719 0
M  V30 1441 H 134.473 3.00814 0.417679 0
M  V30 1442 H 132.058 1.48741 0.140181 0
M  V30 1443 H 133.94 3.0863 2.86924 0
M  V30 1444 H 132.615 1.91967 2.60635 0
M  V30 1445 H 131.522 3.60148 1.01214 0
M  V30 1446 H 132.855 4.73307 1.3506 0
M  V30 1447 N 134.507 -0.190092 1.56449 0
M  V30 1448 C 135.454 -1.23557 1.94942 0
M  V30 1449 C 136.424 -1.44972 0.810696 0
M  V30 1450 O 137.609 -1.58023 1.06927 0
M  V30 1451 C 134.749 -2.57416 2.2985 0
M  V30 1452 C 133.862 -2.43537 3.5681 0
M  V30 1453 C 132.997 -3.70134 3.81017 0
M  V30 1454 C 132.036 -3.51109 5.01387 0
M  V30 1455 N 131.173 -4.6973 5.21822 0
M  V30 1456 H 136.013 -0.900304 2.84075 0
M  V30 1457 H 133.55 -0.43318 1.40577 0
M  V30 1458 H 135.508 -3.35409 2.48106 0
M  V30 1459 H 134.138 -2.88975 1.43852 0
M  V30 1460 H 133.19 -1.56816 3.46573 0
M  V30 1461 H 134.502 -2.25415 4.4496 0
M  V30 1462 H 133.656 -4.56566 3.9954 0
M  V30 1463 H 132.395 -3.91215 2.91207 0
M  V30 1464 H 131.4 -2.63063 4.82782 0
M  V30 1465 H 132.625 -3.31468 5.9271 0
M  V30 1466 H 130.571 -4.91065 4.34961 0
M  V30 1467 H 130.488 -4.54452 6.0416 0
M  V30 1468 H 131.756 -5.57499 5.44808 0
M  V30 1469 N 135.985 -1.50799 -0.457987 0
M  V30 1470 C 136.915 -1.73553 -1.5621 0
M  V30 1471 C 137.896 -0.584774 -1.59732 0
M  V30 1472 O 139.081 -0.825314 -1.7579 0
M  V30 1473 C 136.211 -1.84169 -2.94447 0
M  V30 1474 C 135.165 -2.99461 -3.0579 0
M  V30 1475 C 134.491 -2.95235 -4.45803 0
M  V30 1476 C 135.791 -4.39766 -2.81786 0
M  V30 1477 H 137.485 -2.66 -1.37421 0
M  V30 1478 H 135.031 -1.28002 -0.659662 0
M  V30 1479 H 136.984 -1.98672 -3.71628 0
M  V30 1480 H 135.708 -0.883545 -3.14422 0
M  V30 1481 H 134.367 -2.8463 -2.31044 0
M  V30 1482 H 134.015 -1.97239 -4.62715 0
M  V30 1483 H 133.715 -3.72642 -4.54326 0
M  V30 1484 H 135.239 -3.11803 -5.24987 0
M  V30 1485 H 136.653 -4.55054 -3.4871 0
M  V30 1486 H 135.05 -5.18722 -3.0174 0
M  V30 1487 H 136.12 -4.51229 -1.7754 0
M  V30 1488 N 137.463 0.71206 -1.40597 0
M  V30 1489 C 138.411 1.84746 -1.41321 0
M  V30 1490 C 139.405 1.66842 -0.293268 0
M  V30 1491 O 140.611 1.73904 -0.464481 0
M  V30 1492 H 136.986 0.608522 -0.441819 0
M  V30 1493 H 138.957 1.81252 -2.37045 0
M  V30 1494 C 137.706 3.22638 -1.29614 0
M  V30 1495 H 137.029 3.37023 -2.15071 0
M  V30 1496 H 138.469 4.02209 -1.3418 0
M  V30 1497 C 136.928 3.36899 -0.00673121 0
M  V30 1498 O 137.458 3.90186 0.954859 0
M  V30 1499 N 135.664 2.9053 0.0639327 0
M  V30 1500 H 135.211 2.47353 -0.719311 0
M  V30 1501 H 135.169 3.0045 0.926118 0
M  V30 1502 N 138.941 1.26152 0.944643 0
M  V30 1503 C 140.189 1.11271 1.6871 0
M  V30 1504 C 140.51 -0.345166 1.91921 0
M  V30 1505 O 139.78 -1.24387 1.51343 0
M  V30 1506 H 138.36 0.408783 0.625224 0
M  V30 1507 H 141.022 1.58427 1.1352 0
M  V30 1508 H 140.118 1.62879 2.66227 0
M  V30 1509 N 140.419 -1.14872 1.07899 0
M  V30 1510 C 141.647 -1.89661 0.82683 0
M  V30 1511 C 142.062 -1.78312 -0.620519 0
M  V30 1512 O 141.419 -1.13888 -1.42604 0
M  V30 1513 C 141.47 -3.39817 1.23316 0
M  V30 1514 O 141.191 -3.50845 2.62372 0
M  V30 1515 C 142.692 -4.31615 1.0111 0
M  V30 1516 H 139.912 -0.60092 0.298557 0
M  V30 1517 H 142.456 -1.4551 1.43691 0
M  V30 1518 H 140.611 -3.8161 0.667286 0
M  V30 1519 H 141.025 -4.44076 2.79101 0
M  V30 1520 H 142.499 -5.35367 1.34486 0
M  V30 1521 H 142.976 -4.39169 -0.0522168 0
M  V30 1522 H 143.582 -3.95572 1.56215 0
M  V30 1523 N 141.898 -0.863906 -1.31812 0
M  V30 1524 C 143.175 -0.39275 -1.91616 0
M  V30 1525 C 143.555 1.12461 -1.7865 0
M  V30 1526 O 142.903 1.95045 -1.19037 0
M  V30 1527 C 143.113 -0.867385 -3.38049 0
M  V30 1528 C 144.461 -0.889966 -4.15168 0
M  V30 1529 O 145.485 -0.812635 -3.46806 0
M  V30 1530 O 144.344 -1.00079 -5.37258 0
M  V30 1531 H 141.438 -0.116358 -0.818773 0
M  V30 1532 H 143.984 -0.951418 -1.40521 0
M  V30 1533 H 142.756 -1.91081 -3.41473 0
M  V30 1534 H 142.379 -0.286687 -3.96565 0
M  V30 1535 N 143.376 1.44774 -0.622745 0
M  V30 1536 C 144.787 1.85546 -0.207226 0
M  V30 1537 C 145.138 1.52093 1.23944 0
M  V30 1538 O 144.263 0.95492 1.94191 0
M  V30 1539 C 144.858 3.36781 -0.369313 0
M  V30 1540 C 143.417 3.76399 -0.00836847 0
M  V30 1541 C 142.564 2.68664 -0.686651 0
M  V30 1542 H 145.515 1.3536 -0.828454 0
M  V30 1543 H 145.536 3.78453 0.394162 0
M  V30 1544 H 145.048 3.61098 -1.42231 0
M  V30 1545 H 143.149 3.57698 1.04322 0
M  V30 1546 H 143.262 4.7732 -0.412584 0
M  V30 1547 H 141.626 2.54404 -0.122777 0
M  V30 1548 H 142.409 2.95815 -1.74208 0
M  V30 1549 N 144.854 0.36279 1.53368 0
M  V30 1550 C 145.764 -0.492994 2.29362 0
M  V30 1551 C 146.78 -1.09507 1.35219 0
M  V30 1552 O 147.956 -1.10662 1.68273 0
M  V30 1553 C 145.021 -1.61855 3.066 0
M  V30 1554 C 144.082 -1.04429 4.16405 0
M  V30 1555 C 143.315 -2.11621 4.89951 0
M  V30 1556 O 143.538 -3.32684 4.63333 0
M  V30 1557 O 142.472 -1.74835 5.75948 0
M  V30 1558 H 146.298 0.125331 3.03441 0
M  V30 1559 H 143.883 0.127253 1.48857 0
M  V30 1560 H 145.765 -2.27302 3.54841 0
M  V30 1561 H 144.44 -2.22233 2.3536 0
M  V30 1562 H 143.347 -0.353819 3.72423 0
M  V30 1563 H 144.68 -0.485113 4.89804 0
M  V30 1564 N 146.332 -1.57332 0.0918853 0
M  V30 1565 C 147.609 -1.85691 -0.614668 0
M  V30 1566 C 147.989 -0.988146 -1.86545 0
M  V30 1567 O 147.337 -0.0597055 -2.28422 0
M  V30 1568 C 147.547 -3.36294 -0.933126 0
M  V30 1569 C 148.895 -4.04275 -1.29796 0
M  V30 1570 O 149.919 -3.41157 -1.02424 0
M  V30 1571 O 148.778 -5.1564 -1.81047 0
M  V30 1572 H 145.872 -0.767802 -0.307261 0
M  V30 1573 H 148.418 -1.69244 0.12434 0
M  V30 1574 H 147.19 -3.91273 -0.0456404 0
M  V30 1575 H 146.813 -3.58076 -1.72822 0
M  V30 1576 N 147.81 0.181792 -1.56548 0
M  V30 1577 C 149.056 0.901431 -1.81665 0
M  V30 1578 C 149.389 1.82347 -0.668075 0
M  V30 1579 O 148.664 1.91669 0.330615 0
M  V30 1580 C 148.947 1.70618 -3.17115 0
M  V30 1581 C 148.8 0.807964 -4.42484 0
M  V30 1582 C 150.119 2.67605 -3.49393 0
M  V30 1583 H 147.238 0.32627 -0.660846 0
M  V30 1584 H 149.88 0.168134 -1.89255 0
M  V30 1585 H 148.03 2.33133 -3.10775 0
M  V30 1586 H 149.702 0.19649 -4.60881 0
M  V30 1587 H 147.945 0.115411 -4.33646 0
M  V30 1588 H 148.616 1.40632 -5.33785 0
M  V30 1589 H 151.092 2.15218 -3.56118 0
M  V30 1590 H 149.968 3.20985 -4.45264 0
M  V30 1591 H 150.229 3.47298 -2.73563 0
M  V30 1592 N 149.288 1.51039 0.449983 0
M  V30 1593 C 150.537 1.62317 1.19733 0
M  V30 1594 C 150.85 0.339101 1.92638 0
M  V30 1595 O 152.056 0.331069 2.69474 0
M  V30 1596 C 150.512 2.86608 2.17678 0
M  V30 1597 C 150.12 4.21972 1.50479 0
M  V30 1598 C 151.864 3.07239 2.92924 0
M  V30 1599 C 149.771 5.37426 2.46834 0
M  V30 1600 H 148.701 0.604532 0.450619 0
M  V30 1601 H 151.352 1.77494 0.465625 0
M  V30 1602 H 149.734 2.65037 2.94231 0
M  V30 1603 H 150.908 4.53878 0.795716 0
M  V30 1604 H 149.223 4.07117 0.874344 0
M  V30 1605 H 151.82 3.90668 3.65079 0
M  V30 1606 H 152.163 2.19807 3.5354 0
M  V30 1607 H 152.696 3.29091 2.23481 0
M  V30 1608 H 149.435 6.27079 1.90926 0
M  V30 1609 H 148.955 5.09912 3.15832 0
M  V30 1610 H 150.634 5.68862 3.08228 0
M  V30 1611 N 150.766 -0.704594 1.40972 0
M  V30 1612 C 152.182 -1.01406 1.23244 0
M  V30 1613 C 152.382 -2.01169 0.115399 0
M  V30 1614 O 151.438 -2.47021 -0.523147 0
M  V30 1615 C 152.751 -1.54728 2.57836 0
M  V30 1616 C 154.299 -1.66658 2.64942 0
M  V30 1617 C 154.774 -2.23383 3.9983 0
M  V30 1618 N 156.265 -2.30756 4.01629 0
M  V30 1619 C 157 -2.75655 5.02794 0
M  V30 1620 N 156.496 -3.20225 6.14352 0
M  V30 1621 N 158.289 -2.75138 4.90159 0
M  V30 1622 H 150.44 -0.0435285 2.12355 0
M  V30 1623 H 152.703 -0.0818951 0.944456 0
M  V30 1624 H 152.409 -0.888832 3.40283 0
M  V30 1625 H 152.283 -2.53084 2.79693 0
M  V30 1626 H 154.67 -2.31617 1.8286 0
M  V30 1627 H 154.751 -0.668717 2.46904 0
M  V30 1628 H 154.395 -1.59043 4.82357 0
M  V30 1629 H 154.325 -3.23904 4.15203 0
M  V30 1630 H 156.816 -1.99291 3.21079 0
M  V30 1631 H 157.129 -3.53084 6.87424 0
M  V30 1632 H 155.474 -3.18156 6.17901 0
M  V30 1633 H 158.665 -2.39661 4.02095 0
M  V30 1634 H 158.838 -3.09812 5.6914 0
M  V30 1635 N 152.244 -1.26651 -0.937939 0
M  V30 1636 C 153.192 -1.08308 -2.05845 0
M  V30 1637 C 154.186 -0.0090757 -1.69398 0
M  V30 1638 O 155.392 -0.166007 -1.79233 0
M  V30 1639 H 151.767 -0.333416 -0.674046 0
M  V30 1640 H 153.738 -2.03261 -2.18467 0
M  V30 1641 C 152.487 -0.736229 -3.39816 0
M  V30 1642 H 151.81 -1.55453 -3.6834 0
M  V30 1643 H 153.25 -0.64769 -4.19024 0
M  V30 1644 C 151.709 0.558824 -3.32233 0
M  V30 1645 O 152.239 1.59621 -3.68624 0
M  V30 1646 N 150.445 0.550657 -2.85335 0
M  V30 1647 H 149.992 -0.293943 -2.55917 0
M  V30 1648 H 149.95 1.41726 -2.80644 0
M  V30 1649 N 153.722 1.14298 -1.08507 0
M  V30 1650 C 154.685 2.17607 -0.719711 0
M  V30 1651 C 155.685 1.58907 0.245997 0
M  V30 1652 O 156.875 1.74181 0.0254081 0
M  V30 1653 C 154.007 3.40842 -0.0627695 0
M  V30 1654 H 155.2 2.51443 -1.63452 0
M  V30 1655 H 152.753 1.28963 -0.88307 0
M  V30 1656 H 153.488 3.12587 0.863716 0
M  V30 1657 H 153.273 3.84713 -0.757504 0
M  V30 1658 H 154.763 4.17221 0.177786 0
M  V30 1659 N 155.201 0.870884 1.31352 0
M  V30 1660 C 156.448 0.482273 1.96673 0
M  V30 1661 C 156.776 -0.965638 1.68836 0
M  V30 1662 O 156.031 -1.69514 0.977937 0
M  V30 1663 C 156.33 0.687157 3.50732 0
M  V30 1664 C 155.996 2.108 3.9859 0
M  V30 1665 C 154.658 2.49656 4.1137 0
M  V30 1666 C 157.01 3.03459 4.23748 0
M  V30 1667 C 154.338 3.80412 4.46659 0
M  V30 1668 C 156.69 4.3373 4.60501 0
M  V30 1669 C 155.354 4.725 4.71487 0
M  V30 1670 H 154.624 0.176476 0.719679 0
M  V30 1671 H 157.271 1.10405 1.56471 0
M  V30 1672 H 155.576 -0.0177476 3.91796 0
M  V30 1673 H 157.273 0.366284 3.99324 0
M  V30 1674 H 153.863 1.79633 3.8914 0
M  V30 1675 H 158.047 2.74665 4.13368 0
M  V30 1676 H 153.303 4.1021 4.53362 0
M  V30 1677 H 157.477 5.05578 4.78919 0
M  V30 1678 H 155.104 5.73859 4.98588 0
M  V30 1679 N 156.679 -1.44442 0.630414 0
M  V30 1680 C 157.642 -2.29107 -0.0652523 0
M  V30 1681 C 158.642 -1.41002 -0.772995 0
M  V30 1682 O 159.832 -1.62881 -0.617692 0
M  V30 1683 C 156.964 -3.22564 -1.10296 0
M  V30 1684 H 158.157 -2.92103 0.679401 0
M  V30 1685 H 155.71 -1.51343 0.390517 0
M  V30 1686 H 156.445 -2.64416 -1.87762 0
M  V30 1687 H 156.23 -3.87491 -0.59941 0
M  V30 1688 H 157.72 -3.86167 -1.5895 0
M  V30 1689 N 158.157 -0.370918 -1.53173 0
M  V30 1690 C 159.397 0.217106 -2.03244 0
M  V30 1691 C 159.761 1.45558 -1.25207 0
M  V30 1692 O 160.962 2.11957 -1.65311 0
M  V30 1693 C 159.233 0.496664 -3.53932 0
M  V30 1694 S 160.792 1.0576 -4.25864 0
M  V30 1695 H 157.61 0.0627827 -0.708223 0
M  V30 1696 H 160.212 -0.515019 -1.88594 0
M  V30 1697 H 158.916 -0.412096 -4.08326 0
M  V30 1698 H 158.447 1.25772 -3.72753 0
M  V30 1699 H 160.462 2.34145 -4.37482 0
M  V30 1700 N 159.635 1.57281 -0.100228 0
M  V30 1701 C 160.882 1.94537 0.562268 0
M  V30 1702 C 161.21 0.982315 1.67871 0
M  V30 1703 O 160.465 0.00280936 1.957 0
M  V30 1704 C 160.764 3.38305 1.15259 0
M  V30 1705 C 160.43 4.50618 0.159409 0
M  V30 1706 C 159.092 4.81066 -0.113741 0
M  V30 1707 C 161.444 5.18615 -0.518461 0
M  V30 1708 C 158.772 5.76835 -1.07137 0
M  V30 1709 C 161.124 6.15412 -1.46459 0
M  V30 1710 C 159.788 6.44262 -1.74592 0
M  V30 1711 H 159.058 0.711863 0.205748 0
M  V30 1712 H 161.705 1.90679 -0.17715 0
M  V30 1713 H 160.01 3.38766 1.96836 0
M  V30 1714 H 161.707 3.64435 1.67297 0
M  V30 1715 H 158.297 4.2689 0.382491 0
M  V30 1716 H 162.481 4.95264 -0.320581 0
M  V30 1717 H 157.737 5.975 -1.29628 0
M  V30 1718 H 161.911 6.67194 -1.99564 0
M  V30 1719 H 159.538 7.1828 -2.48953 0
M  V30 1720 N 161.113 -0.173488 1.56642 0
M  V30 1721 C 162.39 -0.917617 1.7274 0
M  V30 1722 C 162.77 -2.00484 0.661027 0
M  V30 1723 O 162.118 -2.26184 -0.32453 0
M  V30 1724 C 162.328 -1.48433 3.15862 0
M  V30 1725 C 163.676 -1.95809 3.76754 0
M  V30 1726 O 164.7 -1.58231 3.19126 0
M  V30 1727 O 163.559 -2.65024 4.77938 0
M  V30 1728 H 160.653 -0.431772 0.705338 0
M  V30 1729 H 163.199 -0.161487 1.6893 0
M  V30 1730 H 161.971 -0.701715 3.84957 0
M  V30 1731 H 161.594 -2.30471 3.23989 0
M  V30 1732 N 162.591 -1.51276 -0.441967 0
M  V30 1733 C 163.501 -1.75092 -1.56141 0
M  V30 1734 C 164.517 -0.634963 -1.62001 0
M  V30 1735 O 165.693 -0.916686 -1.79329 0
M  V30 1736 C 162.758 -1.86666 -2.92158 0
M  V30 1737 C 161.819 -3.10506 -2.96453 0
M  V30 1738 C 161.052 -3.21519 -4.25982 0
M  V30 1739 O 161.275 -2.38586 -5.18105 0
M  V30 1740 O 160.209 -4.14465 -4.36466 0
M  V30 1741 H 164.035 -2.70044 -1.38961 0
M  V30 1742 H 161.62 -1.35722 -0.624499 0
M  V30 1743 H 163.502 -1.96292 -3.72891 0
M  V30 1744 H 162.177 -0.949014 -3.09476 0
M  V30 1745 H 161.084 -3.06363 -2.14692 0
M  V30 1746 H 162.417 -4.01945 -2.84079 0
M  V30 1747 N 164.069 0.697108 -1.41344 0
M  V30 1748 C 164.979 1.84088 -1.45427 0
M  V30 1749 C 165.995 1.70545 -0.34501 0
M  V30 1750 O 167.171 1.92488 -0.592492 0
M  V30 1751 C 164.236 3.20056 -1.33286 0
M  V30 1752 C 163.297 3.45718 -2.54514 0
M  V30 1753 C 162.53 4.75199 -2.42944 0
M  V30 1754 O 162.753 5.51579 -1.45318 0
M  V30 1755 O 161.687 5.0161 -3.32672 0
M  V30 1756 H 165.513 1.836 -2.41919 0
M  V30 1757 H 163.098 0.849966 -1.22866 0
M  V30 1758 H 164.98 4.01236 -1.28794 0
M  V30 1759 H 163.655 3.2123 -0.39909 0
M  V30 1760 H 162.562 2.64474 -2.64583 0
M  V30 1761 H 163.895 3.49356 -3.46715 0
M  V30 1762 N 165.547 1.27147 0.931209 0
M  V30 1763 C 166.51 1.09615 2.01289 0
M  V30 1764 C 167.51 0.0412581 1.60747 0
M  V30 1765 O 168.7 0.285545 1.71844 0
M  V30 1766 C 165.832 0.669447 3.34262 0
M  V30 1767 H 167.025 2.05662 2.18273 0
M  V30 1768 H 164.578 1.09885 1.11153 0
M  V30 1769 H 165.313 -0.292572 3.22978 0
M  V30 1770 H 165.098 1.43127 3.65044 0
M  V30 1771 H 166.588 0.568921 4.13706 0
M  V30 1772 N 167.025 -1.13721 1.09112 0
M  V30 1773 C 168.253 -1.88773 0.846899 0
M  V30 1774 C 168.668 -1.7896 -0.601572 0
M  V30 1775 O 168.025 -1.15394 -1.41388 0
M  V30 1776 C 168.076 -3.3849 1.26913 0
M  V30 1777 O 167.797 -3.48043 2.66079 0
M  V30 1778 C 169.298 -4.30518 1.05682 0
M  V30 1779 H 166.518 -0.59772 0.304914 0
M  V30 1780 H 169.062 -1.43977 1.45227 0
M  V30 1781 H 167.217 -3.80881 0.707723 0
M  V30 1782 H 167.631 -4.4109 2.83795 0
M  V30 1783 H 169.105 -5.3391 1.40156 0
M  V30 1784 H 169.582 -4.392 -0.00563416 0
M  V30 1785 H 170.188 -3.93893 1.60402 0
M  V30 1786 N 168.503 -0.877838 -1.30888 0
M  V30 1787 C 169.751 -0.491723 -1.96027 0
M  V30 1788 C 170.072 0.960827 -1.69685 0
M  V30 1789 O 169.342 1.67462 -1.01654 0
M  V30 1790 H 167.922 -0.17885 -0.725273 0
M  V30 1791 H 170.584 -1.11935 -1.59551 0
M  V30 1792 H 169.68 -0.656016 -3.05128 0
M  V30 1793 N 169.982 1.44106 -0.638065 0
M  V30 1794 C 171.21 2.06336 -0.152615 0
M  V30 1795 C 171.625 1.47731 1.17563 0
M  V30 1796 O 170.982 0.602806 1.72257 0
M  V30 1797 C 171.033 3.61479 -0.0391491 0
M  V30 1798 O 170.754 4.17903 -1.31487 0
M  V30 1799 C 172.255 4.40757 0.474176 0
M  V30 1800 H 169.475 0.665862 -0.0828776 0
M  V30 1801 H 172.019 1.84862 -0.87443 0
M  V30 1802 H 170.174 3.82191 0.633142 0
M  V30 1803 H 170.588 5.11416 -1.16421 0
M  V30 1804 H 172.062 5.49707 0.502562 0
M  V30 1805 H 172.539 4.12697 1.50258 0
M  V30 1806 H 173.145 4.24979 -0.165102 0
M  V30 1807 N 171.46 0.379036 1.52974 0
M  V30 1808 C 172.709 -0.207612 2.00629 0
M  V30 1809 C 173.022 -1.48758 1.27006 0
M  V30 1810 O 174.228 -2.15365 1.65318 0
M  V30 1811 C 172.684 -0.42053 3.57435 0
M  V30 1812 C 172.292 0.845587 4.39948 0
M  V30 1813 C 174.036 -0.964102 4.13407 0
M  V30 1814 C 171.943 0.601513 5.88333 0
M  V30 1815 H 170.873 -0.0813591 0.749598 0
M  V30 1816 H 173.524 0.499853 1.76561 0
M  V30 1817 H 171.906 -1.18959 3.7771 0
M  V30 1818 H 173.08 1.61848 4.31442 0
M  V30 1819 H 171.395 1.31336 3.95145 0
M  V30 1820 H 173.992 -1.16225 5.21916 0
M  V30 1821 H 174.335 -1.93019 3.68849 0
M  V30 1822 H 174.868 -0.25487 3.96983 0
M  V30 1823 H 171.607 1.53831 6.37194 0
M  V30 1824 H 171.127 -0.132628 5.99653 0
M  V30 1825 H 172.806 0.232134 6.46583 0
M  V30 1826 N 172.938 -1.57226 0.108567 0
M  V30 1827 C 173.87 -2.11809 -0.875752 0
M  V30 1828 C 174.883 -1.05839 -1.23701 0
M  V30 1829 O 176.072 -1.33245 -1.18778 0
M  V30 1830 C 173.172 -2.59411 -2.18081 0
M  V30 1831 C 172.345 -3.89364 -1.99284 0
M  V30 1832 C 171.404 -4.22672 -3.13424 0
M  V30 1833 O 170.43 -4.91668 -2.86795 0
M  V30 1834 N 171.632 -3.79154 -4.3957 0
M  V30 1835 H 174.397 -2.9689 -0.409477 0
M  V30 1836 H 171.958 -1.61721 -0.076158 0
M  V30 1837 H 173.95 -2.7873 -2.93414 0
M  V30 1838 H 172.52 -1.79268 -2.5609 0
M  V30 1839 H 171.74 -3.79059 -1.08203 0
M  V30 1840 H 173.028 -4.74358 -1.84017 0
M  V30 1841 H 172.426 -3.23486 -4.64083 0
M  V30 1842 H 170.983 -4.03602 -5.11809 0
M  V30 1843 N 174.416 0.165178 -1.56732 0
M  V30 1844 C 175.326 1.22423 -2.00125 0
M  V30 1845 C 176.342 1.48084 -0.913619 0
M  V30 1846 O 177.518 1.60112 -1.22172 0
M  V30 1847 C 174.583 2.54197 -2.35764 0
M  V30 1848 C 173.644 2.36343 -3.58386 0
M  V30 1849 C 172.877 3.61834 -3.92316 0
M  V30 1850 O 173.1 4.67267 -3.27135 0
M  V30 1851 O 172.034 3.55579 -4.85641 0
M  V30 1852 H 175.86 0.885886 -2.90492 0
M  V30 1853 H 173.445 0.372518 -1.44681 0
M  V30 1854 H 175.327 3.3192 -2.59629 0
M  V30 1855 H 174.002 2.87598 -1.48557 0
M  V30 1856 H 172.909 1.56632 -3.39731 0
M  V30 1857 H 174.242 2.07865 -4.46154 0
M  V30 1858 N 175.894 1.51508 0.433938 0
M  V30 1859 C 177.171 1.54888 1.19453 0
M  V30 1860 C 177.551 0.315154 2.08734 0
M  V30 1861 O 176.899 -0.699558 2.17528 0
M  V30 1862 C 177.109 2.86467 1.99342 0
M  V30 1863 C 178.457 3.38545 2.56267 0
M  V30 1864 O 179.481 2.88041 2.0955 0
M  V30 1865 O 178.34 4.26675 3.41483 0
M  V30 1866 H 175.434 0.622863 0.544032 0
M  V30 1867 H 177.98 1.63823 0.442732 0
M  V30 1868 H 176.752 3.67718 1.33788 0
M  V30 1869 H 176.375 2.8071 2.8158 0
M  V30 1870 N 177.372 -0.689602 1.41712 0
M  V30 1871 C 178.602 -1.47613 1.44548 0
M  V30 1872 C 179.01 -1.89132 0.0509034 0
M  V30 1873 O 178.353 -1.57741 -0.94146 0
M  V30 1874 C 178.415 -2.76596 2.2964 0
M  V30 1875 C 178.079 -2.57245 3.77722 0
M  V30 1876 C 179.076 -2.22804 4.69739 0
M  V30 1877 C 176.761 -2.727 4.2183 0
M  V30 1878 C 178.755 -2.04064 6.03851 0
M  V30 1879 C 176.442 -2.53576 5.56006 0
M  V30 1880 C 177.44 -2.1931 6.46832 0
M  V30 1881 O 177.128 -2.00359 7.78532 0
M  V30 1882 H 176.86 -0.461227 0.494212 0
M  V30 1883 H 179.414 -0.856045 1.86711 0
M  V30 1884 H 177.644 -3.41033 1.82301 0
M  V30 1885 H 179.333 -3.38424 2.24107 0
M  V30 1886 H 180.099 -2.10473 4.36951 0
M  V30 1887 H 175.978 -2.98353 3.51435 0
M  V30 1888 H 179.522 -1.77241 6.74708 0
M  V30 1889 H 175.419 -2.65499 5.88371 0
M  V30 1890 H 176.187 -2.15075 7.89737 0
M  V30 1891 N 178.85 -1.27639 -0.924453 0
M  V30 1892 C 179.78 -1.13166 -2.04244 0
M  V30 1893 C 180.761 -0.032256 -1.70069 0
M  V30 1894 O 181.946 -0.207328 -1.9309 0
M  V30 1895 C 179.076 -0.781496 -3.38393 0
M  V30 1896 C 178.03 -1.83449 -3.86692 0
M  V30 1897 C 177.356 -1.33822 -5.17683 0
M  V30 1898 C 178.656 -3.23917 -4.09726 0
M  V30 1899 H 180.35 -2.06689 -2.1661 0
M  V30 1900 H 177.896 -0.995136 -1.04082 0
M  V30 1901 H 179.849 -0.667057 -4.16087 0
M  V30 1902 H 178.573 0.189439 -3.2605 0
M  V30 1903 H 177.232 -1.93789 -3.11193 0
M  V30 1904 H 176.88 -0.35665 -5.01734 0
M  V30 1905 H 176.58 -2.04224 -5.50968 0
M  V30 1906 H 178.104 -1.23679 -5.97943 0
M  V30 1907 H 179.518 -3.16559 -4.77978 0
M  V30 1908 H 177.915 -3.92059 -4.54324 0
M  V30 1909 H 178.985 -3.68729 -3.14908 0
M  V30 1910 N 180.328 1.1314 -1.09713 0
M  V30 1911 C 181.744 1.36477 -0.827423 0
M  V30 1912 C 181.944 1.93654 0.556817 0
M  V30 1913 O 181 2.15791 1.31112 0
M  V30 1914 C 182.313 2.31334 -1.92106 0
M  V30 1915 C 183.861 2.44943 -1.94864 0
M  V30 1916 C 184.336 3.4311 -3.0338 0
M  V30 1917 N 185.827 3.50662 -3.02639 0
M  V30 1918 C 186.562 4.2651 -3.83246 0
M  V30 1919 N 186.058 5.05485 -4.73768 0
M  V30 1920 N 187.851 4.2184 -3.71493 0
M  V30 1921 H 180.002 0.743807 -1.9895 0
M  V30 1922 H 182.265 0.389823 -0.864143 0
M  V30 1923 H 181.971 1.96483 -2.91698 0
M  V30 1924 H 181.845 3.31381 -1.80184 0
M  V30 1925 H 184.232 2.79079 -0.959099 0
M  V30 1926 H 184.313 1.4481 -2.10864 0
M  V30 1927 H 183.957 3.09704 -4.02549 0
M  V30 1928 H 183.887 4.43055 -2.84622 0
M  V30 1929 H 186.378 2.94315 -2.37039 0
M  V30 1930 H 186.691 5.60675 -5.3185 0
M  V30 1931 H 185.036 5.04708 -4.77802 0
M  V30 1932 H 188.227 3.5922 -3.00131 0
M  V30 1933 H 188.4 4.80697 -4.3455 0
M  V30 1934 N 181.806 0.884767 1.30421 0
M  V30 1935 C 182.716 0.355398 2.31892 0
M  V30 1936 C 183.732 -0.542261 1.65335 0
M  V30 1937 O 184.908 -0.435432 1.96637 0
M  V30 1938 C 181.973 -0.421661 3.44126 0
M  V30 1939 C 181.034 0.505727 4.26311 0
M  V30 1940 C 180.267 -0.234343 5.33185 0
M  V30 1941 O 180.49 -1.46045 5.51386 0
M  V30 1942 O 179.424 0.415443 6.00465 0
M  V30 1943 H 183.25 1.19685 2.79122 0
M  V30 1944 H 180.835 0.648596 1.34587 0
M  V30 1945 H 182.717 -0.861641 4.12497 0
M  V30 1946 H 181.392 -1.23942 2.99032 0
M  V30 1947 H 180.299 0.994513 3.60639 0
M  V30 1948 H 181.632 1.28948 4.75009 0
M  V30 1949 N 183.284 -1.43765 0.645699 0
M  V30 1950 C 184.214 -2.33471 -0.0370477 0
M  V30 1951 C 185.195 -1.49042 -0.819779 0
M  V30 1952 O 186.38 -1.77726 -0.782758 0
M  V30 1953 C 183.51 -3.32311 -1.0093 0
M  V30 1954 C 182.464 -4.2667 -0.337201 0
M  V30 1955 C 181.79 -5.1549 -1.42037 0
M  V30 1956 C 183.09 -5.16657 0.765706 0
M  V30 1957 H 184.784 -2.90809 0.712069 0
M  V30 1958 H 182.33 -1.39834 0.343876 0
M  V30 1959 H 184.283 -3.9396 -1.49578 0
M  V30 1960 H 183.007 -2.73213 -1.78948 0
M  V30 1961 H 181.666 -3.66374 0.128771 0
M  V30 1962 H 181.314 -4.52735 -2.1918 0
M  V30 1963 H 181.014 -5.79438 -0.975966 0
M  V30 1964 H 182.538 -5.80012 -1.90838 0
M  V30 1965 H 183.952 -5.72158 0.361702 0
M  V30 1966 H 182.349 -5.89286 1.13413 0
M  V30 1967 H 183.419 -4.56796 1.62683 0
M  V30 1968 N 184.763 -0.387143 -1.52771 0
M  V30 1969 C 185.693 0.440551 -2.29306 0
M  V30 1970 C 186.674 1.06535 -1.32606 0
M  V30 1971 O 187.859 1.07853 -1.61497 0
M  V30 1972 C 184.989 1.56919 -3.09829 0
M  V30 1973 C 183.943 1.07054 -4.14395 0
M  V30 1974 C 183.269 2.29109 -4.83129 0
M  V30 1975 C 184.569 0.140015 -5.22112 0
M  V30 1976 H 186.263 -0.198026 -2.98744 0
M  V30 1977 H 183.809 -0.09668 -1.43675 0
M  V30 1978 H 185.762 2.15503 -3.62128 0
M  V30 1979 H 184.486 2.23532 -2.3812 0
M  V30 1980 H 183.145 0.507247 -3.63074 0
M  V30 1981 H 182.793 2.94227 -4.0797 0
M  V30 1982 H 182.493 1.96406 -5.53804 0
M  V30 1983 H 184.017 2.88339 -5.38231 0
M  V30 1984 H 185.431 0.633978 -5.69784 0
M  V30 1985 H 183.828 -0.0971485 -6.00021 0
M  V30 1986 H 184.898 -0.811711 -4.78058 0
M  V30 1987 N 186.241 1.57166 -0.116904 0
M  V30 1988 C 187.469 1.99473 0.549383 0
M  V30 1989 C 187.884 0.996541 1.60357 0
M  V30 1990 O 187.241 -0.0108731 1.82497 0
M  V30 1991 C 187.292 3.41788 1.17741 0
M  V30 1992 O 187.013 4.37788 0.165362 0
M  V30 1993 C 188.514 3.99216 1.92722 0
M  V30 1994 H 185.734 0.655009 0.145616 0
M  V30 1995 H 188.278 2.03494 -0.202625 0
M  V30 1996 H 186.433 3.38713 1.88021 0
M  V30 1997 H 186.847 5.20806 0.621403 0
M  V30 1998 H 188.321 5.00882 2.31995 0
M  V30 1999 H 188.798 3.3824 2.80161 0
M  V30 2000 H 189.404 4.0583 1.27209 0
M  V30 2001 N 187.719 -0.156864 1.56817 0
M  V30 2002 C 188.947 -0.886316 1.86955 0
M  V30 2003 C 189.362 -1.75185 0.703975 0
M  V30 2004 O 188.719 -1.79555 -0.326552 0
M  V30 2005 C 188.77 -1.75117 3.16253 0
M  V30 2006 O 188.491 -0.920537 4.2832 0
M  V30 2007 C 189.992 -2.58905 3.59837 0
M  V30 2008 H 187.212 -0.25678 0.619923 0
M  V30 2009 H 189.756 -0.152615 2.0393 0
M  V30 2010 H 187.911 -2.43805 3.01062 0
M  V30 2011 H 188.325 -1.51337 5.02192 0
M  V30 2012 H 189.799 -3.1518 4.53172 0
M  V30 2013 H 190.276 -3.34472 2.84649 0
M  V30 2014 H 190.882 -1.95526 3.7769 0
M  V30 2015 N 189.197 -1.51736 -0.425897 0
M  V30 2016 C 190.13 -1.68574 -1.53812 0
M  V30 2017 C 191.108 -0.53328 -1.53606 0
M  V30 2018 O 192.292 -0.758555 -1.72564 0
M  V30 2019 C 189.419 -1.70977 -2.92377 0
M  V30 2020 C 188.465 -2.92324 -3.10563 0
M  V30 2021 S 189.298 -4.52952 -2.85648 0
M  V30 2022 C 190.454 -4.58117 -4.26474 0
M  V30 2023 H 190.687 -2.62647 -1.39298 0
M  V30 2024 H 188.22 -1.41564 -0.616361 0
M  V30 2025 H 190.178 -1.73047 -3.72243 0
M  V30 2026 H 188.839 -0.78061 -3.04245 0
M  V30 2027 H 188.032 -2.90439 -4.11899 0
M  V30 2028 H 187.634 -2.88055 -2.38538 0
M  V30 2029 H 189.926 -4.34462 -5.19855 0
M  V30 2030 H 190.869 -5.59983 -4.33388 0
M  V30 2031 H 191.277 -3.8732 -4.10662 0
M  V30 2032 N 190.675 0.682077 -1.42076 0
M  V30 2033 C 191.923 1.4393 -1.41876 0
M  V30 2034 C 192.244 1.94971 -0.0335599 0
M  V30 2035 O 191.514 1.72591 0.926773 0
M  V30 2036 H 190.094 0.534085 -0.522267 0
M  V30 2037 H 192.756 0.806427 -1.77434 0
M  V30 2038 H 191.852 2.29588 -2.11414 0
M  V30 2039 N 192.153 1.28127 0.917671 0
M  V30 2040 C 193.43 1.05761 1.64542 0
M  V30 2041 C 193.81 -0.404344 2.07191 0
M  V30 2042 O 193.158 -1.38963 1.81388 0
M  V30 2043 C 193.368 2.02857 2.83989 0
M  V30 2044 C 194.716 2.32786 3.551 0
M  V30 2045 O 195.74 2.0091 2.94132 0
M  V30 2046 O 194.599 2.87169 4.64969 0
M  V30 2047 H 191.693 0.403916 0.721652 0
M  V30 2048 H 194.239 1.39431 0.967322 0
M  V30 2049 H 193.011 3.01407 2.49538 0
M  V30 2050 H 192.634 1.69809 3.59514 0
M  V30 2051 N 193.631 -1.12557 1.10312 0
M  V30 2052 C 195.047 -1.36036 0.834649 0
M  V30 2053 C 195.247 -1.93946 -0.546539 0
M  V30 2054 O 194.303 -2.16484 -1.29966 0
M  V30 2055 C 195.616 -2.30312 1.9333 0
M  V30 2056 C 197.164 -2.43906 1.9616 0
M  V30 2057 C 197.639 -3.41496 3.05195 0
M  V30 2058 N 199.13 -3.49053 3.04494 0
M  V30 2059 C 199.865 -4.24471 3.85502 0
M  V30 2060 N 199.361 -5.02966 4.76442 0
M  V30 2061 N 201.154 -4.19864 3.73725 0
M  V30 2062 H 193.305 -0.733246 1.99342 0
M  V30 2063 H 195.568 -0.385234 0.866198 0
M  V30 2064 H 195.274 -1.94933 2.92735 0
M  V30 2065 H 195.148 -3.30421 1.81939 0
M  V30 2066 H 197.535 -2.78567 0.973886 0
M  V30 2067 H 197.616 -1.4369 2.11629 0
M  V30 2068 H 197.26 -3.07565 4.04186 0
M  V30 2069 H 197.19 -4.41539 2.86968 0
M  V30 2070 H 199.681 -2.93053 2.38596 0
M  V30 2071 H 199.994 -5.57846 5.34815 0
M  V30 2072 H 198.339 -5.02167 4.80472 0
M  V30 2073 H 201.53 -3.57623 3.02032 0
M  V30 2074 H 201.703 -4.78386 4.37093 0
M  V30 2075 N 195.109 -0.891671 -1.2995 0
M  V30 2076 C 196.356 -0.513501 -1.95881 0
M  V30 2077 C 196.684 0.938655 -1.70351 0
M  V30 2078 O 195.939 1.67936 -1.00478 0
M  V30 2079 C 196.238 -0.742868 -3.49594 0
M  V30 2080 C 195.904 -2.17114 -3.95186 0
M  V30 2081 C 194.566 -2.56169 -4.07346 0
M  V30 2082 C 196.918 -3.10162 -4.18866 0
M  V30 2083 C 194.246 -3.87469 -4.4055 0
M  V30 2084 C 196.598 -4.41001 -4.53542 0
M  V30 2085 C 195.262 -4.79941 -4.63911 0
M  V30 2086 H 194.532 -0.187903 -0.71678 0
M  V30 2087 H 197.179 -1.1288 -1.54694 0
M  V30 2088 H 195.484 -0.044586 -3.91775 0
M  V30 2089 H 197.181 -0.429767 -3.9869 0
M  V30 2090 H 193.771 -1.85801 -3.86233 0
M  V30 2091 H 197.955 -2.81206 -4.08946 0
M  V30 2092 H 193.211 -4.17371 -4.46779 0
M  V30 2093 H 197.385 -5.13133 -4.70815 0
M  V30 2094 H 195.012 -5.81719 -4.89395 0
M  V30 2095 N 196.587 1.43421 -0.653314 0
M  V30 2096 C 197.815 2.06163 -0.174491 0
M  V30 2097 C 198.23 1.48969 1.1599 0
M  V30 2098 O 197.587 0.621042 1.71608 0
M  V30 2099 C 197.638 3.61417 -0.0774865 0
M  V30 2100 O 197.359 4.16485 -1.35912 0
M  V30 2101 C 198.86 4.41235 0.427402 0
M  V30 2102 H 196.08 0.664946 -0.0899353 0
M  V30 2103 H 198.624 1.83924 -0.893988 0
M  V30 2104 H 196.779 3.82841 0.59257 0
M  V30 2105 H 197.193 5.10153 -1.21839 0
M  V30 2106 H 198.667 5.5021 0.44423 0
M  V30 2107 H 199.144 4.14268 1.45873 0
M  V30 2108 H 199.75 4.2478 -0.210167 0
M  V30 2109 N 198.065 0.39524 1.52563 0
M  V30 2110 C 199.342 -0.242908 1.94086 0
M  V30 2111 C 199.722 -1.63841 1.33114 0
M  V30 2112 O 199.07 -2.22928 0.501529 0
M  V30 2113 C 199.28 -0.26327 3.48006 0
M  V30 2114 C 200.628 -0.489354 4.21771 0
M  V30 2115 O 201.652 -0.343226 3.54543 0
M  V30 2116 O 200.511 -0.776169 5.4096 0
M  V30 2117 H 197.605 -0.152536 0.812811 0
M  V30 2118 H 200.151 0.450178 1.6362 0
M  V30 2119 H 198.923 0.713985 3.84731 0
M  V30 2120 H 198.546 -1.00103 3.84792 0
M  V30 2121 N 199.544 -1.57102 0.125237 0
M  V30 2122 C 200.454 -2.19191 -0.8362 0
M  V30 2123 C 201.47 -1.16985 -1.28805 0
M  V30 2124 O 202.646 -1.49479 -1.34974 0
M  V30 2125 C 199.711 -2.78407 -2.06617 0
M  V30 2126 C 198.772 -3.9567 -1.66565 0
M  V30 2127 C 198.005 -4.52052 -2.83698 0
M  V30 2128 O 198.228 -4.07326 -3.99302 0
M  V30 2129 O 197.162 -5.42645 -2.60423 0
M  V30 2130 H 200.988 -3.01816 -0.337776 0
M  V30 2131 H 198.573 -1.4906 -0.100695 0
M  V30 2132 H 200.455 -3.16129 -2.7864 0
M  V30 2133 H 199.13 -1.9881 -2.55453 0
M  V30 2134 H 198.037 -3.62705 -0.916296 0
M  V30 2135 H 199.37 -4.76722 -1.22464 0
M  V30 2136 N 201.022 0.148545 -1.56898 0
M  V30 2137 C 201.932 1.20293 -2.01412 0
M  V30 2138 C 202.948 1.47107 -0.929273 0
M  V30 2139 O 204.124 1.58807 -1.23863 0
M  V30 2140 C 201.189 2.51682 -2.38447 0
M  V30 2141 C 200.25 2.32529 -3.60872 0
M  V30 2142 C 199.483 3.57653 -3.96132 0
M  V30 2143 O 199.706 4.63771 -3.32073 0
M  V30 2144 O 198.64 3.50408 -4.89385 0
M  V30 2145 H 202.466 0.855025 -2.91416 0
M  V30 2146 H 200.051 0.357151 -1.45068 0
M  V30 2147 H 201.933 3.29147 -2.63135 0
M  V30 2148 H 200.608 2.86006 -1.51599 0
M  V30 2149 H 199.515 1.53019 -3.41373 0
M  V30 2150 H 200.848 2.03121 -4.48333 0
M  V30 2151 N 202.5 1.5196 0.417844 0
M  V30 2152 C 203.746 1.65836 1.16732 0
M  V30 2153 C 204.079 0.382881 1.90388 0
M  V30 2154 O 203.354 -0.618368 1.84408 0
M  V30 2155 C 203.637 2.87466 2.16876 0
M  V30 2156 C 203.49 4.25041 1.47174 0
M  V30 2157 C 204.809 3.04613 3.17646 0
M  V30 2158 H 201.928 0.603515 0.423011 0
M  V30 2159 H 204.57 1.84494 0.454105 0
M  V30 2160 H 202.72 2.71689 2.777 0
M  V30 2161 H 204.392 4.52527 0.895376 0
M  V30 2162 H 202.635 4.26843 0.773806 0
M  V30 2163 H 203.306 5.06176 2.20204 0
M  V30 2164 H 205.782 3.1923 2.66892 0
M  V30 2165 H 204.658 3.91247 3.8499 0
M  V30 2166 H 204.919 2.17541 3.84874 0
M  V30 2167 N 203.978 -0.674533 1.42435 0
M  V30 2168 C 205.255 -1.4305 1.33402 0
M  V30 2169 C 205.635 -2.11081 -0.0284674 0
M  V30 2170 O 204.983 -2.03257 -1.04397 0
M  V30 2171 C 205.193 -2.43272 2.50239 0
M  V30 2172 C 206.541 -3.07907 2.92367 0
M  V30 2173 O 207.565 -2.53599 2.50132 0
M  V30 2174 O 206.424 -4.0632 3.65467 0
M  V30 2175 H 203.518 -0.638076 0.526106 0
M  V30 2176 H 206.064 -0.703235 1.54443 0
M  V30 2177 H 204.836 -1.91803 3.41068 0
M  V30 2178 H 204.459 -3.23479 2.31186 0
M  V30 2179 N 205.456 -1.28612 -0.910864 0
M  V30 2180 C 206.366 -1.14643 -2.0468 0
M  V30 2181 C 207.382 -0.0723121 -1.7385 0
M  V30 2182 O 208.558 -0.282178 -1.99413 0
M  V30 2183 C 205.623 -0.812561 -3.37044 0
M  V30 2184 C 204.684 -1.96935 -3.81465 0
M  V30 2185 C 203.917 -1.65131 -5.07511 0
M  V30 2186 O 204.14 -0.567013 -5.67575 0
M  V30 2187 O 203.074 -2.49585 -5.47714 0
M  V30 2188 H 206.9 -2.1001 -2.19384 0
M  V30 2189 H 204.485 -1.07958 -1.03274 0
M  V30 2190 H 206.367 -0.640441 -4.16505 0
M  V30 2191 H 205.042 0.111426 -3.23508 0
M  V30 2192 H 203.949 -2.19664 -3.02818 0
M  V30 2193 H 205.282 -2.87414 -3.99567 0
M  V30 2194 N 206.934 1.1197 -1.10907 0
M  V30 2195 C 207.864 2.19928 -0.784473 0
M  V30 2196 C 208.845 1.6833 0.244726 0
M  V30 2197 O 210.03 1.93892 0.109418 0
M  V30 2198 C 207.16 3.46597 -0.220827 0
M  V30 2199 C 206.114 4.11376 -1.18127 0
M  V30 2200 C 205.44 5.32554 -0.478594 0
M  V30 2201 C 206.74 4.56945 -2.52979 0
M  V30 2202 H 208.434 2.47337 -1.68715 0
M  V30 2203 H 205.98 1.18879 -0.812642 0
M  V30 2204 H 207.933 4.21396 0.0184278 0
M  V30 2205 H 206.657 3.1863 0.717113 0
M  V30 2206 H 205.316 3.38564 -1.40606 0
M  V30 2207 H 204.964 5.00856 0.463976 0
M  V30 2208 H 204.664 5.76844 -1.11912 0
M  V30 2209 H 206.188 6.10096 -0.248 0
M  V30 2210 H 207.602 5.23093 -2.3462 0
M  V30 2211 H 205.999 5.1203 -3.12962 0
M  V30 2212 H 207.069 3.70676 -3.12614 0
M  V30 2213 N 208.412 0.89855 1.29475 0
M  V30 2214 C 209.642 0.538479 1.99459 0
M  V30 2215 C 210.05 -0.880922 1.67441 0
M  V30 2216 O 209.393 -1.59283 0.915127 0
M  V30 2217 C 209.455 0.649564 3.53583 0
M  V30 2218 C 209.119 2.03573 4.09154 0
M  V30 2219 C 210.116 3.00675 4.24135 0
M  V30 2220 C 207.801 2.3448 4.44212 0
M  V30 2221 C 209.795 4.26809 4.73405 0
M  V30 2222 C 207.482 3.60857 4.93179 0
M  V30 2223 C 208.48 4.56836 5.0773 0
M  V30 2224 O 208.168 5.80969 5.55635 0
M  V30 2225 H 207.9 0.205372 0.644048 0
M  V30 2226 H 210.454 1.20958 1.66007 0
M  V30 2227 H 208.684 -0.0785592 3.8662 0
M  V30 2228 H 210.373 0.29881 4.04799 0
M  V30 2229 H 211.139 2.78112 3.97339 0
M  V30 2230 H 207.018 1.60534 4.32145 0
M  V30 2231 H 210.562 5.0173 4.84678 0
M  V30 2232 H 206.459 3.83251 5.19412 0
M  V30 2233 H 207.227 5.83542 5.73952 0
M  V30 2234 N 209.89 -1.43072 0.660911 0
M  V30 2235 C 211.306 -1.56169 0.329173 0
M  V30 2236 C 211.506 -1.64317 -1.16629 0
M  V30 2237 O 210.562 -1.60245 -1.95135 0
M  V30 2238 C 211.875 -2.81873 1.04729 0
M  V30 2239 C 213.423 -2.95627 1.02828 0
M  V30 2240 C 213.898 -4.24174 1.72744 0
M  V30 2241 N 215.389 -4.31055 1.69545 0
M  V30 2242 C 216.124 -5.29304 2.20511 0
M  V30 2243 N 215.62 -6.33786 2.79799 0
M  V30 2244 N 217.413 -5.21008 2.10966 0
M  V30 2245 H 209.564 -1.36027 1.63127 0
M  V30 2246 H 211.827 -0.653823 0.686454 0
M  V30 2247 H 211.533 -2.81942 2.10242 0
M  V30 2248 H 211.407 -3.72338 0.603702 0
M  V30 2249 H 213.794 -2.95094 -0.0184742 0
M  V30 2250 H 213.875 -2.06431 1.51063 0
M  V30 2251 H 213.519 -4.25467 2.7738 0
M  V30 2252 H 213.449 -5.1228 1.2197 0
M  V30 2253 H 215.94 -3.56174 1.26288 0
M  V30 2254 H 216.253 -7.05086 3.16344 0
M  V30 2255 H 214.598 -6.34387 2.83863 0
M  V30 2256 H 217.789 -4.38301 1.64347 0
M  V30 2257 H 217.962 -5.97416 2.50993 0
M  V30 2258 N 211.368 -0.403325 -1.52352 0
M  V30 2259 C 212.278 0.432009 -2.30588 0
M  V30 2260 C 213.294 1.05884 -1.38075 0
M  V30 2261 O 214.47 1.06161 -1.71148 0
M  V30 2262 C 211.535 1.53669 -3.10784 0
M  V30 2263 C 210.596 0.933525 -4.19027 0
M  V30 2264 C 209.829 1.98557 -4.9539 0
M  V30 2265 O 210.052 3.20283 -4.71991 0
M  V30 2266 O 208.986 1.59504 -5.80381 0
M  V30 2267 H 212.812 -0.205739 -3.03002 0
M  V30 2268 H 210.397 -0.166675 -1.48467 0
M  V30 2269 H 212.279 2.17814 -3.60742 0
M  V30 2270 H 210.954 2.15915 -2.41169 0
M  V30 2271 H 209.861 0.254954 -3.7323 0
M  V30 2272 H 211.194 0.35508 -4.90918 0
M  V30 2273 N 212.846 1.57033 -0.133567 0
M  V30 2274 C 213.809 2.14897 0.796995 0
M  V30 2275 C 214.809 1.0874 1.18458 0
M  V30 2276 O 215.999 1.34446 1.1077 0
M  V30 2277 C 213.131 2.70112 2.07973 0
M  V30 2278 H 214.324 2.98457 0.293873 0
M  V30 2279 H 211.877 1.55871 0.115787 0
M  V30 2280 H 212.612 1.9018 2.62682 0
M  V30 2281 H 212.397 3.47764 1.81115 0
M  V30 2282 H 213.887 3.14738 2.74462 0
M  V30 2283 N 214.325 -0.140222 1.56975 0
M  V30 2284 C 215.736 -0.699596 1.73097 0
M  V30 2285 C 216.087 -1.8134 0.749022 0
M  V30 2286 O 215.212 -2.16241 -0.0828503 0
M  V30 2287 C 215.807 -1.27582 3.1386 0
M  V30 2288 C 214.366 -1.78169 3.31561 0
M  V30 2289 C 213.513 -0.672855 2.69013 0
M  V30 2290 H 216.464 0.0855115 1.58469 0
M  V30 2291 H 216.485 -2.14561 3.14235 0
M  V30 2292 H 215.997 -0.464955 3.85305 0
M  V30 2293 H 214.098 -2.61801 2.65124 0
M  V30 2294 H 214.211 -1.90574 4.39566 0
M  V30 2295 H 212.575 -1.10118 2.29665 0
M  V30 2296 H 213.358 0.126679 3.43066 0
M  V30 2297 N 215.803 -1.52179 -0.40978 0
M  V30 2298 C 217.052 -1.65434 -1.15388 0
M  V30 2299 C 217.365 -0.390056 -1.91671 0
M  V30 2300 O 218.571 -0.402399 -2.68501 0
M  V30 2301 C 217.027 -2.92279 -2.10003 0
M  V30 2302 C 216.635 -4.25813 -1.39239 0
M  V30 2303 C 218.379 -3.14897 -2.84675 0
M  V30 2304 C 216.286 -5.43782 -2.32498 0
M  V30 2305 H 215.216 -0.616267 -0.434432 0
M  V30 2306 H 217.867 -1.78666 -0.418401 0
M  V30 2307 H 216.249 -2.72744 -2.871 0
M  V30 2308 H 217.423 -4.55828 -0.675099 0
M  V30 2309 H 215.738 -4.09292 -0.766097 0
M  V30 2310 H 218.335 -4.0021 -3.54593 0
M  V30 2311 H 218.678 -2.29103 -3.47588 0
M  V30 2312 H 219.211 -3.34901 -2.14677 0
M  V30 2313 H 215.95 -6.3192 -1.74233 0
M  V30 2314 H 215.47 -5.18106 -3.02201 0
M  V30 2315 H 217.149 -5.76834 -2.93038 0
M  V30 2316 N 217.281 0.66697 -1.42791 0
M  V30 2317 C 218.558 1.4234 -1.34159 0
M  V30 2318 C 218.938 2.11093 0.0172729 0
M  V30 2319 O 218.286 2.03808 1.03318 0
M  V30 2320 C 218.496 2.41942 -2.51526 0
M  V30 2321 C 219.844 3.06353 -2.93995 0
M  V30 2322 O 220.868 2.52269 -2.51473 0
M  V30 2323 O 219.727 4.04376 -3.67617 0
M  V30 2324 H 216.821 0.635277 -0.529483 0
M  V30 2325 H 219.367 0.695034 -1.54814 0
M  V30 2326 H 218.139 1.89991 -3.42081 0
M  V30 2327 H 217.762 3.22249 -2.32898 0
M  V30 2328 N 218.759 1.29093 0.90403 0
M  V30 2329 C 219.706 1.13853 2.00764 0
M  V30 2330 C 220.676 0.0330084 1.66067 0
M  V30 2331 O 221.861 0.199733 1.89752 0
M  V30 2332 C 219.001 0.816537 3.35301 0
M  V30 2333 C 218.114 2.00206 3.82807 0
M  V30 2334 C 217.249 1.61983 5.059 0
M  V30 2335 C 216.288 2.77143 5.45764 0
M  V30 2336 N 215.425 2.39346 6.60044 0
M  V30 2337 H 220.265 2.08276 2.13132 0
M  V30 2338 H 217.802 1.03648 1.04381 0
M  V30 2339 H 219.76 0.610557 4.12708 0
M  V30 2340 H 218.39 -0.090779 3.22672 0
M  V30 2341 H 217.442 2.31988 3.01473 0
M  V30 2342 H 218.754 2.86512 4.08304 0
M  V30 2343 H 217.908 1.37649 5.90879 0
M  V30 2344 H 216.647 0.728202 4.82233 0
M  V30 2345 H 215.652 3.02165 4.59322 0
M  V30 2346 H 216.877 3.66964 5.71414 0
M  V30 2347 H 214.823 1.52665 6.37989 0
M  V30 2348 H 214.74 3.19185 6.85315 0
M  V30 2349 H 216.008 2.1832 7.48303 0
M  V30 2350 N 220.237 -1.11381 1.11499 0
M  V30 2351 C 221.184 -2.17439 0.773887 0
M  V30 2352 C 222.154 -1.64132 -0.254899 0
M  V30 2353 O 223.339 -1.90345 -0.13168 0
M  V30 2354 C 220.479 -3.44373 0.223917 0
M  V30 2355 C 219.592 -4.1168 1.30934 0
M  V30 2356 C 218.727 -5.263 0.71984 0
M  V30 2357 C 217.766 -5.85493 1.78507 0
M  V30 2358 N 216.903 -6.91507 1.21502 0
M  V30 2359 H 221.743 -2.45962 1.68246 0
M  V30 2360 H 219.28 -1.20744 0.840191 0
M  V30 2361 H 221.238 -4.17047 -0.112921 0
M  V30 2362 H 219.868 -3.16232 -0.647851 0
M  V30 2363 H 218.92 -3.37073 1.76312 0
M  V30 2364 H 220.232 -4.51729 2.11524 0
M  V30 2365 H 219.386 -6.05785 0.333094 0
M  V30 2366 H 218.125 -4.87559 -0.117377 0
M  V30 2367 H 217.13 -5.04686 2.18111 0
M  V30 2368 H 218.355 -6.26301 2.62533 0
M  V30 2369 H 216.301 -6.54783 0.399455 0
M  V30 2370 H 216.218 -7.30214 1.95763 0
M  V30 2371 H 217.486 -7.74795 0.855181 0
M  V30 2372 N 221.715 -0.905404 -1.28997 0
M  V30 2373 C 222.963 -0.533192 -1.9494 0
M  V30 2374 C 223.284 0.924618 -1.71685 0
M  V30 2375 O 222.554 1.65268 -1.05183 0
M  V30 2376 H 221.134 -0.194194 -0.721317 0
M  V30 2377 H 223.796 -1.15294 -1.57141 0
M  V30 2378 H 222.892 -0.72059 -3.03667 0
M  V30 2379 N 223.193 1.4272 -0.668489 0
M  V30 2380 C 224.141 2.32586 0.0254857 0
M  V30 2381 C 225.135 1.49471 0.797176 0
M  V30 2382 O 226.341 1.65583 0.705853 0
M  V30 2383 H 222.716 0.751514 0.0270339 0
M  V30 2384 H 224.687 2.88823 -0.749936 0
M  V30 2385 C 223.436 3.3397 0.967427 0
M  V30 2386 H 222.759 3.97961 0.383048 0
M  V30 2387 H 224.199 3.9945 1.42181 0
M  V30 2388 C 222.658 2.65744 2.0708 0
M  V30 2389 O 223.188 2.48454 3.15648 0
M  V30 2390 N 221.394 2.2487 1.8407 0
M  V30 2391 H 220.941 2.39132 0.95778 0
M  V30 2392 H 220.899 1.79552 2.58086 0
M  V30 2393 N 224.671 0.411399 1.52136 0
M  V30 2394 C 225.918 -0.163645 2.01838 0
M  V30 2395 C 226.246 -1.4495 1.29691 0
M  V30 2396 O 225.501 -1.91725 0.392431 0
M  V30 2397 C 225.8 -0.455872 3.54481 0
M  V30 2398 C 225.466 0.741055 4.44769 0
M  V30 2399 C 224.128 1.06936 4.69167 0
M  V30 2400 C 226.48 1.54075 4.97906 0
M  V30 2401 C 223.808 2.19851 5.43951 0
M  V30 2402 C 226.16 2.66067 5.73926 0
M  V30 2403 C 224.824 2.99381 5.96596 0
M  V30 2404 H 224.094 -0.0598821 0.738576 0
M  V30 2405 H 226.741 0.553283 1.83333 0
M  V30 2406 H 225.046 -1.2544 3.71177 0
M  V30 2407 H 226.743 -0.913802 3.90449 0
M  V30 2408 H 223.333 0.475192 4.25958 0
M  V30 2409 H 227.517 1.30033 4.78963 0
M  V30 2410 H 222.773 2.46006 5.59724 0
M  V30 2411 H 226.947 3.28419 6.14096 0
M  V30 2412 H 224.574 3.86992 6.54325 0
M  V30 2413 N 226.149 -1.5696 0.141893 0
M  V30 2414 C 227.097 -2.17784 -0.816874 0
M  V30 2415 C 228.091 -1.1334 -1.25899 0
M  V30 2416 O 229.297 -1.316 -1.22806 0
M  V30 2417 H 225.672 -0.697278 -0.281615 0
M  V30 2418 H 227.643 -2.97087 -0.279621 0
M  V30 2419 C 226.392 -2.80983 -2.04802 0
M  V30 2420 H 225.715 -3.61062 -1.7168 0
M  V30 2421 H 227.155 -3.2705 -2.69841 0
M  V30 2422 C 225.614 -1.79228 -2.8527 0
M  V30 2423 O 226.144 -1.25962 -3.8144 0
M  V30 2424 N 224.35 -1.48647 -2.49704 0
M  V30 2425 H 223.897 -1.92155 -1.71564 0
M  V30 2426 H 223.855 -0.808115 -3.03837 0
M  V30 2427 N 227.627 0.131896 -1.57047 0
M  V30 2428 C 228.857 0.855219 -1.88068 0
M  V30 2429 C 229.265 1.74557 -0.729817 0
M  V30 2430 O 228.608 1.81083 0.308962 0
M  V30 2431 C 228.67 1.75119 -3.13964 0
M  V30 2432 C 228.334 1.03646 -4.45091 0
M  V30 2433 C 229.331 0.383276 -5.18485 0
M  V30 2434 C 227.016 1.02148 -4.91804 0
M  V30 2435 C 229.01 -0.275347 -6.36805 0
M  V30 2436 C 226.697 0.359047 -6.10044 0
M  V30 2437 C 227.695 -0.288222 -6.82392 0
M  V30 2438 O 227.383 -0.94011 -7.98384 0
M  V30 2439 H 227.115 0.251864 -0.627328 0
M  V30 2440 H 229.669 0.124782 -2.05021 0
M  V30 2441 H 227.899 2.52295 -2.9306 0
M  V30 2442 H 229.588 2.3478 -3.31109 0
M  V30 2443 H 230.354 0.386562 -4.83457 0
M  V30 2444 H 226.233 1.5147 -4.35405 0
M  V30 2445 H 229.777 -0.781148 -6.93213 0
M  V30 2446 H 225.674 0.35348 -6.44531 0
M  V30 2447 H 226.442 -0.84329 -8.14144 0
M  V30 2448 N 229.106 1.52395 0.401703 0
M  V30 2449 C 230.355 1.66044 1.14509 0
M  V30 2450 C 230.668 0.400216 1.91462 0
M  V30 2451 O 231.874 0.416632 2.68284 0
M  V30 2452 C 230.33 2.93388 2.0845 0
M  V30 2453 C 229.938 4.26545 1.36978 0
M  V30 2454 C 231.682 3.16402 2.83001 0
M  V30 2455 C 229.589 5.45007 2.29611 0
M  V30 2456 H 228.519 0.618562 0.431158 0
M  V30 2457 H 231.17 1.78886 0.40892 0
M  V30 2458 H 229.552 2.74263 2.8565 0
M  V30 2459 H 230.726 4.56179 0.650916 0
M  V30 2460 H 229.041 4.09692 0.74438 0
M  V30 2461 H 231.638 4.02085 3.52465 0
M  V30 2462 H 231.981 2.30943 3.46368 0
M  V30 2463 H 232.514 3.36034 2.12898 0
M  V30 2464 H 229.253 6.32835 1.70879 0
M  V30 2465 H 228.773 5.19702 2.9945 0
M  V30 2466 H 230.452 5.7838 2.89974 0
M  V30 2467 N 230.584 -0.659388 1.43143 0
M  V30 2468 C 231.494 -1.80167 1.50256 0
M  V30 2469 C 232.51 -1.69571 0.390106 0
M  V30 2470 O 233.686 -1.90849 0.643319 0
M  V30 2471 C 230.751 -3.16409 1.41725 0
M  V30 2472 C 229.812 -3.38848 2.63591 0
M  V30 2473 C 229.045 -4.68591 2.55458 0
M  V30 2474 O 229.268 -5.47532 1.59891 0
M  V30 2475 O 228.202 -4.92614 3.45854 0
M  V30 2476 H 232.028 -1.77121 2.46702 0
M  V30 2477 H 229.613 -0.817092 1.25076 0
M  V30 2478 H 231.495 -3.9768 1.39387 0
M  V30 2479 H 230.17 -3.20059 0.484118 0
M  V30 2480 H 229.077 -2.57366 2.71502 0
M  V30 2481 H 230.41 -3.4004 3.55856 0
M  V30 2482 N 232.062 -1.29571 -0.897171 0
M  V30 2483 C 233.309 -1.17689 -1.6479 0
M  V30 2484 C 233.637 0.27107 -1.92602 0
M  V30 2485 O 232.892 1.21193 -1.53658 0
M  V30 2486 C 233.191 -1.9382 -3.00281 0
M  V30 2487 C 232.857 -3.43522 -2.92068 0
M  V30 2488 C 231.519 -3.84348 -2.89535 0
M  V30 2489 C 233.871 -4.38906 -2.81089 0
M  V30 2490 C 231.199 -5.18869 -2.73846 0
M  V30 2491 C 233.551 -5.73521 -2.66939 0
M  V30 2492 C 232.215 -6.13601 -2.62774 0
M  V30 2493 H 231.485 -0.430654 -0.603008 0
M  V30 2494 H 234.132 -1.60536 -1.04404 0
M  V30 2495 H 232.437 -1.4357 -3.64547 0
M  V30 2496 H 234.134 -1.82028 -3.57305 0
M  V30 2497 H 230.724 -3.11072 -2.94842 0
M  V30 2498 H 234.908 -4.08315 -2.82121 0
M  V30 2499 H 230.164 -5.4903 -2.69027 0
M  V30 2500 H 234.338 -6.47078 -2.57416 0
M  V30 2501 H 231.965 -7.17786 -2.50375 0
M  V30 2502 N 233.54 1.10788 -1.12088 0
M  V30 2503 C 234.768 1.86461 -0.896651 0
M  V30 2504 C 235.183 1.80492 0.553912 0
M  V30 2505 O 234.54 1.19102 1.38278 0
M  V30 2506 C 234.591 3.35006 -1.35843 0
M  V30 2507 O 234.312 3.40866 -2.75213 0
M  V30 2508 C 235.813 4.27565 -1.1706 0
M  V30 2509 H 233.033 0.589425 -0.320654 0
M  V30 2510 H 235.577 1.40076 -1.48993 0
M  V30 2511 H 233.732 3.7887 -0.808458 0
M  V30 2512 H 234.146 4.33411 -2.9539 0
M  V30 2513 H 235.62 5.30007 -1.54263 0
M  V30 2514 H 236.097 4.3906 -0.110814 0
M  V30 2515 H 236.703 3.89501 -1.70789 0
M  V30 2516 N 235.018 0.912232 1.28515 0
M  V30 2517 C 236.434 0.610159 1.47476 0
M  V30 2518 C 236.634 -0.844955 1.82928 0
M  V30 2519 O 235.69 -1.62416 1.93332 0
M  V30 2520 C 237.003 1.54675 2.57868 0
M  V30 2521 C 238.551 1.55331 2.71738 0
M  V30 2522 C 239.026 2.47649 3.85272 0
M  V30 2523 N 240.517 2.45767 3.92623 0
M  V30 2524 C 241.252 3.13896 4.79851 0
M  V30 2525 N 240.748 3.9135 5.71679 0
M  V30 2526 N 242.541 3.02991 4.73448 0
M  V30 2527 H 234.692 1.85318 1.03783 0
M  V30 2528 H 236.955 0.794777 0.516753 0
M  V30 2529 H 236.661 2.5841 2.38574 0
M  V30 2530 H 236.535 1.27671 3.54937 0
M  V30 2531 H 238.922 0.52335 2.90422 0
M  V30 2532 H 239.003 1.86378 1.75205 0
M  V30 2533 H 238.647 3.50745 3.67342 0
M  V30 2534 H 238.577 2.13904 4.81199 0
M  V30 2535 H 241.068 1.89503 3.26951 0
M  V30 2536 H 241.381 4.40359 6.35062 0
M  V30 2537 H 239.726 3.95455 5.71524 0
M  V30 2538 H 242.917 2.41987 4.007 0
M  V30 2539 H 243.09 3.5636 5.41213 0
M  V30 2540 N 236.496 -1.42363 0.676048 0
M  V30 2541 C 237.745 -2.00745 0.196037 0
M  V30 2542 C 238.058 -1.54083 -1.20489 0
M  V30 2543 O 239.264 -2.04891 -1.78134 0
M  V30 2544 C 237.72 -3.58651 0.299616 0
M  V30 2545 C 237.328 -4.143 1.70468 0
M  V30 2546 C 239.072 -4.24326 -0.121619 0
M  V30 2547 C 236.979 -5.64574 1.76096 0
M  V30 2548 H 235.909 -0.750787 0.0695301 0
M  V30 2549 H 238.56 -1.63072 0.841412 0
M  V30 2550 H 236.942 -3.93833 -0.413673 0
M  V30 2551 H 238.116 -3.90575 2.44515 0
M  V30 2552 H 236.431 -3.61081 2.07387 0
M  V30 2553 H 239.028 -5.34607 -0.0997362 0
M  V30 2554 H 239.371 -3.99897 -1.15708 0
M  V30 2555 H 239.904 -3.94108 0.540706 0
M  V30 2556 H 236.643 -5.93804 2.77628 0
M  V30 2557 H 236.163 -5.90286 1.06406 0
M  V30 2558 H 237.842 -6.29013 1.51496 0
M  V30 2559 N 237.974 -0.419461 -1.51915 0
M  V30 2560 C 238.904 0.391813 -2.30189 0
M  V30 2561 C 239.885 1.03699 -1.34836 0
M  V30 2562 O 241.07 1.04403 -1.63748 0
M  V30 2563 C 238.2 1.50312 -3.13087 0
M  V30 2564 C 237.154 0.9824 -4.16573 0
M  V30 2565 C 236.48 2.18809 -4.8788 0
M  V30 2566 C 237.78 0.0292356 -5.22292 0
M  V30 2567 H 239.474 -0.26135 -2.98257 0
M  V30 2568 H 237.02 -0.127134 -1.43438 0
M  V30 2569 H 238.973 2.07773 -3.66617 0
M  V30 2570 H 237.697 2.18431 -2.42807 0
M  V30 2571 H 236.356 0.430119 -3.64068 0
M  V30 2572 H 236.004 2.85507 -4.14119 0
M  V30 2573 H 235.704 1.84615 -5.57845 0
M  V30 2574 H 237.228 2.76858 -5.44226 0
M  V30 2575 H 238.642 0.512976 -5.71 0
M  V30 2576 H 237.039 -0.2244 -5.9968 0
M  V30 2577 H 238.109 -0.912931 -4.76228 0
M  V30 2578 N 239.452 1.56882 -0.150215 0
M  V30 2579 C 240.399 2.16922 0.788244 0
M  V30 2580 C 241.369 1.10303 1.24187 0
M  V30 2581 O 242.554 1.38359 1.31383 0
M  V30 2582 C 239.694 2.79754 2.02068 0
M  V30 2583 C 238.807 4.00775 1.61257 0
M  V30 2584 C 237.942 4.51595 2.79705 0
M  V30 2585 C 236.981 5.65074 2.35282 0
M  V30 2586 N 236.118 6.10499 3.4675 0
M  V30 2587 H 240.958 2.96779 0.269444 0
M  V30 2588 H 238.495 1.46599 0.12128 0
M  V30 2589 H 240.453 3.14329 2.74323 0
M  V30 2590 H 239.083 2.02536 2.51354 0
M  V30 2591 H 238.135 3.72158 0.787553 0
M  V30 2592 H 239.447 4.82978 1.24633 0
M  V30 2593 H 238.601 4.88242 3.60145 0
M  V30 2594 H 237.34 3.68406 3.19576 0
M  V30 2595 H 236.345 5.28 1.53283 0
M  V30 2596 H 237.57 6.50052 1.96493 0
M  V30 2597 H 235.516 5.30243 3.86236 0
M  V30 2598 H 235.433 6.87637 3.14152 0
M  V30 2599 H 236.701 6.51791 4.27537 0
M  V30 2600 N 240.93 -0.123565 1.57115 0
M  V30 2601 C 241.88 -1.1575 1.96433 0
M  V30 2602 C 242.864 -1.37313 0.838686 0
M  V30 2603 O 244.056 -1.38482 1.10235 0
M  V30 2604 C 241.185 -2.48526 2.36833 0
M  V30 2605 C 240.271 -2.30457 3.5602 0
M  V30 2606 N 240.662 -1.8219 4.71848 0
M  V30 2607 C 238.96 -2.61129 3.61563 0
M  V30 2608 C 239.661 -1.77721 5.53886 0
M  V30 2609 N 238.637 -2.21899 4.96248 0
M  V30 2610 H 242.439 -0.776797 2.83449 0
M  V30 2611 H 239.953 -0.331364 1.58983 0
M  V30 2612 H 241.95 -3.233 2.63216 0
M  V30 2613 H 240.61 -2.87358 1.5118 0
M  V30 2614 H 241.621 -1.51805 4.95152 0
M  V30 2615 H 238.298 -3.03678 2.86507 0
M  V30 2616 H 239.688 -1.41697 6.56789 0
M  V30 2617 N 242.408 -1.52605 -0.393616 0
M  V30 2618 C 243.656 -1.67093 -1.13685 0
M  V30 2619 C 243.977 -0.411011 -1.90619 0
M  V30 2620 O 243.247 0.574491 -1.87287 0
M  V30 2621 H 241.827 -0.615923 -0.422668 0
M  V30 2622 H 244.489 -1.89704 -0.447039 0
M  V30 2623 H 243.585 -2.51922 -1.84232 0
M  V30 2624 N 243.887 0.651787 -1.4349 0
M  V30 2625 C 244.85 1.74647 -1.48429 0
M  V30 2626 C 245.85 1.56513 -0.368817 0
M  V30 2627 O 247.04 1.62385 -0.630623 0
M  V30 2628 C 244.172 3.13533 -1.33827 0
M  V30 2629 H 245.365 1.71649 -2.4592 0
M  V30 2630 H 242.918 0.863573 -1.30277 0
M  V30 2631 H 243.653 3.22142 -0.37349 0
M  V30 2632 H 243.438 3.28101 -2.14691 0
M  V30 2633 H 244.928 3.93356 -1.40218 0
M  V30 2634 N 245.365 1.30045 0.890287 0
M  V30 2635 C 246.312 1.15976 1.99545 0
M  V30 2636 C 247.282 0.0506202 1.66023 0
M  V30 2637 O 248.467 0.219847 1.89529 0
M  V30 2638 C 245.607 0.852054 3.34416 0
M  V30 2639 C 244.72 2.04255 3.80662 0
M  V30 2640 C 243.855 1.6734 5.04154 0
M  V30 2641 C 242.894 2.82916 5.42794 0
M  V30 2642 N 242.031 2.46333 6.57468 0
M  V30 2643 H 246.871 2.10524 2.10911 0
M  V30 2644 H 244.408 1.04749 1.03276 0
M  V30 2645 H 246.366 0.654296 4.12037 0
M  V30 2646 H 244.996 -0.0565502 3.2275 0
M  V30 2647 H 244.048 2.35172 2.98995 0
M  V30 2648 H 245.36 2.90826 4.05242 0
M  V30 2649 H 244.514 1.43908 5.89386 0
M  V30 2650 H 243.253 0.779308 4.81433 0
M  V30 2651 H 242.258 3.0702 4.56091 0
M  V30 2652 H 243.483 3.73004 5.6749 0
M  V30 2653 H 241.429 1.59423 6.36334 0
M  V30 2654 H 241.346 3.26436 6.81891 0
M  V30 2655 H 242.614 2.26244 7.45945 0
M  V30 2656 N 246.843 -1.10192 1.12674 0
M  V30 2657 C 248.12 -1.78717 0.794965 0
M  V30 2658 C 248.5 -1.98628 -0.714853 0
M  V30 2659 O 247.848 -1.58135 -1.64941 0
M  V30 2660 C 248.058 -3.11546 1.5729 0
M  V30 2661 C 249.406 -3.86382 1.76052 0
M  V30 2662 O 250.43 -3.21274 1.53823 0
M  V30 2663 O 249.289 -5.03246 2.13087 0
M  V30 2664 H 246.383 -0.774702 0.289423 0
M  V30 2665 H 248.929 -1.16819 1.23091 0
M  V30 2666 H 247.701 -2.92489 2.59935 0
M  V30 2667 H 247.324 -3.81164 1.13137 0
M  V30 2668 N 248.321 -0.919034 -1.28029 0
M  V30 2669 C 249.268 -0.410005 -2.27129 0
M  V30 2670 C 250.238 0.518405 -1.57803 0
M  V30 2671 O 251.423 0.439451 -1.8567 0
M  V30 2672 C 248.563 0.339054 -3.4343 0
M  V30 2673 C 247.676 -0.622468 -4.27492 0
M  V30 2674 C 246.811 0.145567 -5.31001 0
M  V30 2675 C 245.85 -0.809226 -6.06727 0
M  V30 2676 N 244.987 -0.0743728 -7.02061 0
M  V30 2677 H 249.827 -1.26011 -2.70047 0
M  V30 2678 H 247.364 -0.632663 -1.328 0
M  V30 2679 H 249.322 0.789586 -4.0966 0
M  V30 2680 H 247.952 1.15346 -3.01488 0
M  V30 2681 H 247.004 -1.19153 -3.61257 0
M  V30 2682 H 248.316 -1.35252 -4.80113 0
M  V30 2683 H 247.47 0.656417 -6.03139 0
M  V30 2684 H 246.209 0.908643 -4.79161 0
M  V30 2685 H 245.214 -1.3314 -5.33436 0
M  V30 2686 H 246.439 -1.57194 -6.60656 0
M  V30 2687 H 244.385 0.670616 -6.52563 0
M  V30 2688 H 244.302 -0.744157 -7.52329 0
M  V30 2689 H 245.57 0.416109 -7.78389 0
M  V30 2690 N 249.799 1.42003 -0.683588 0
M  V30 2691 C 251.076 1.95112 -0.138075 0
M  V30 2692 C 251.456 1.62359 1.34918 0
M  V30 2693 O 250.804 0.924311 2.08971 0
M  V30 2694 C 251.014 3.46505 -0.416581 0
M  V30 2695 C 252.362 4.23254 -0.337834 0
M  V30 2696 O 253.386 3.54468 -0.35082 0
M  V30 2697 O 252.245 5.45743 -0.287596 0
M  V30 2698 H 249.339 0.826961 -0.00797996 0
M  V30 2699 H 251.885 1.51784 -0.758924 0
M  V30 2700 H 250.657 3.63582 -1.4465 0
M  V30 2701 H 250.28 3.969 0.235839 0
M  V30 2702 N 251.277 0.427512 1.51691 0
M  V30 2703 C 252.554 -0.201684 1.94557 0
M  V30 2704 C 252.934 -1.60981 1.36559 0
M  V30 2705 O 252.282 -2.21814 0.548702 0
M  V30 2706 C 252.492 -0.189394 3.48486 0
M  V30 2707 C 253.84 -0.39978 4.22714 0
M  V30 2708 O 254.864 -0.267945 3.55191 0
M  V30 2709 O 253.723 -0.661249 5.42485 0
M  V30 2710 H 250.817 -0.135261 0.815864 0
M  V30 2711 H 253.363 0.484782 1.62628 0
M  V30 2712 H 252.135 0.795431 3.8313 0
M  V30 2713 H 251.758 -0.919187 3.86829 0
M  V30 2714 O 252.794 -1.58699 0.299458 0
M  V30 2715 H 253.485 -1.91872 -0.265495 0
M  V30 END ATOM
M  V30 BEGIN BOND
M  V30 END BOND
M  V30 END CTAB
M  END
$$$$
