drugbank_target|P19321 Botulinum neurotoxin type D (DB13902)
 OpenBabel12092121133D

  0  0  0     0  0            999 V3000
M  V30 BEGIN CTAB
M  V30 COUNTS 20618 20843 0 0 0
M  V30 BEGIN ATOM
M  V30 1 H -0.908 1.98254 -0.117106 0
M  V30 2 N 0 1.576 0 0
M  V30 3 C 0.933 2.03868 1.02534 0
M  V30 4 C 1.911 0.928543 1.3348 0
M  V30 5 O 3.095 1.19667 1.45644 0
M  V30 6 C 0.222 2.43627 2.35294 0
M  V30 7 C -0.732 3.65373 2.2001 0
M  V30 8 S 0.101 5.13292 1.52614 0
M  V30 9 C 1.257 5.56322 2.86805 0
M  V30 10 H 1.49 2.90518 0.631377 0
M  V30 11 H -0.977 1.52953 0.210867 0
M  V30 12 H 0.981 2.67203 3.11629 0
M  V30 13 H -0.358 1.57376 2.7183 0
M  V30 14 H -1.165 3.90944 3.18086 0
M  V30 15 H -1.563 3.418 1.51819 0
M  V30 16 H 0.729 5.58782 3.83104 0
M  V30 17 H 1.672 6.56266 2.65933 0
M  V30 18 H 2.08 4.83886 2.90714 0
M  V30 19 N 1.4781 -0.272755 1.55222 0
M  V30 20 C 2.7061 -1.02255 1.79865 0
M  V30 21 C 3.1211 -1.79924 0.572088 0
M  V30 22 O 2.4781 -1.76638 -0.458842 0
M  V30 23 C 2.5291 -1.98094 3.02392 0
M  V30 24 O 2.2501 -1.23572 4.20311 0
M  V30 25 C 3.7511 -2.84884 3.39641 0
M  V30 26 H 0.9711 -0.302057 0.599168 0
M  V30 27 H 3.5151 -0.303465 2.02236 0
M  V30 28 H 1.6701 -2.65465 2.82147 0
M  V30 29 H 2.0841 -1.88172 4.89583 0
M  V30 30 H 3.5581 -3.47927 4.28545 0
M  V30 31 H 4.0351 -3.54665 2.59055 0
M  V30 32 H 4.6411 -2.23003 3.62146 0
M  V30 33 N 2.9562 -1.48159 -0.537278 0
M  V30 34 C 4.2022 -1.57015 -1.29297 0
M  V30 35 C 4.5572 -0.237791 -1.90925 0
M  V30 36 O 3.8502 0.758621 -1.75942 0
M  V30 37 C 4.0442 -2.63956 -2.40961 0
M  V30 38 C 3.8732 -4.07461 -1.90278 0
M  V30 39 C 2.6432 -4.74685 -1.73213 0
M  V30 40 C 4.8412 -4.93858 -1.43556 0
M  V30 41 N 2.8232 -6.02633 -1.17078 0
M  V30 42 C 4.1942 -6.11993 -0.993204 0
M  V30 43 C 6.2492 -4.80141 -1.31792 0
M  V30 44 C 4.9522 -7.17923 -0.444872 0
M  V30 45 C 6.9782 -5.86186 -0.783585 0
M  V30 46 C 6.3402 -7.03524 -0.351261 0
M  V30 47 H 2.4392 -0.629154 -0.464423 0
M  V30 48 H 5.0232 -1.85006 -0.606705 0
M  V30 49 H 3.1942 -2.378 -3.07093 0
M  V30 50 H 4.9262 -2.62539 -3.07986 0
M  V30 51 H 1.6812 -4.30902 -1.9652 0
M  V30 52 H 2.1052 -6.7085 -0.910421 0
M  V30 53 H 6.7472 -3.89772 -1.63823 0
M  V30 54 H 4.4652 -8.08022 -0.11222 0
M  V30 55 H 8.0512 -5.77624 -0.695835 0
M  V30 56 H 6.9312 -7.8418 0.055777 0
M  V30 57 N 4.4343 0.785586 -1.36625 0
M  V30 58 C 5.8453 1.36101 -1.27803 0
M  V30 59 C 6.1963 1.96035 0.0804875 0
M  V30 60 O 5.3213 1.92834 0.982042 0
M  V30 61 C 5.9163 2.47442 -2.31426 0
M  V30 62 C 4.4753 3.00789 -2.26281 0
M  V30 63 C 3.6223 1.73896 -2.15999 0
M  V30 64 H 6.5733 0.586928 -1.47448 0
M  V30 65 H 6.5943 3.2656 -1.95291 0
M  V30 66 H 6.1063 2.03791 -3.30289 0
M  V30 67 H 4.2073 3.48851 -1.30896 0
M  V30 68 H 4.3203 3.57343 -3.19128 0
M  V30 69 H 2.6843 1.9628 -1.62316 0
M  V30 70 H 3.4673 1.32368 -3.16755 0
M  V30 71 N 5.9124 1.20967 1.01018 0
M  V30 72 C 7.1584 1.02526 1.74975 0
M  V30 73 C 7.4914 -0.4408 1.89131 0
M  V30 74 O 6.7664 -1.32718 1.42184 0
M  V30 75 C 7.0494 1.71699 3.1653 0
M  V30 76 C 6.9024 3.25791 3.10129 0
M  V30 77 C 8.2214 1.45531 4.15342 0
M  V30 78 H 5.3404 0.373863 0.635134 0
M  V30 79 H 7.9824 1.49071 1.17805 0
M  V30 80 H 6.1324 1.32128 3.65341 0
M  V30 81 H 7.8044 3.74697 2.69072 0
M  V30 82 H 6.0474 3.56363 2.47362 0
M  V30 83 H 6.7184 3.69353 4.10222 0
M  V30 84 H 9.1944 1.79872 3.75213 0
M  V30 85 H 8.0704 1.96453 5.1254 0
M  V30 86 H 8.3314 0.384237 4.40427 0
M  V30 87 N 7.3905 -1.2043 1.01659 0
M  V30 88 C 8.3375 -2.23215 0.586822 0
M  V30 89 C 9.3075 -1.61382 -0.393085 0
M  V30 90 O 10.4925 -1.88544 -0.292525 0
M  V30 91 C 7.6325 -3.45032 -0.0687464 0
M  V30 92 C 6.7455 -4.21296 0.955724 0
M  V30 93 C 5.8805 -5.30507 0.271208 0
M  V30 94 C 4.9195 -5.98515 1.28244 0
M  V30 95 N 4.0565 -6.99316 0.62459 0
M  V30 96 H 8.8965 -2.59336 1.46796 0
M  V30 97 H 6.4335 -1.27431 0.734836 0
M  V30 98 H 8.3915 -4.1459 -0.465965 0
M  V30 99 H 7.0215 -3.09604 -0.913529 0
M  V30 100 H 6.0735 -3.50803 1.4711 0
M  V30 101 H 7.3855 -4.6803 1.72479 0
M  V30 102 H 6.5395 -6.06428 -0.18151 0
M  V30 103 H 5.2785 -4.8481 -0.530163 0
M  V30 104 H 4.2835 -5.21355 1.74554 0
M  V30 105 H 5.5085 -6.46298 2.08509 0
M  V30 106 H 3.4545 -6.55812 -0.156914 0
M  V30 107 H 3.3715 -7.44178 1.33172 0
M  V30 108 H 4.6395 -7.79255 0.195462 0
M  V30 109 N 8.8686 -0.792821 -1.36206 0
M  V30 110 C 10.1456 -0.290627 -1.93429 0
M  V30 111 C 10.5256 1.21773 -1.72437 0
M  V30 112 O 9.8736 2.0108 -1.08531 0
M  V30 113 C 10.0836 -0.686973 -3.42172 0
M  V30 114 C 11.4316 -0.668643 -4.19302 0
M  V30 115 O 12.4556 -0.627658 -3.50626 0
M  V30 116 O 11.3146 -0.714597 -5.41808 0
M  V30 117 H 8.4086 -0.0727927 -0.82379 0
M  V30 118 H 10.9546 -0.875593 -1.45367 0
M  V30 119 H 9.7266 -1.72711 -3.51122 0
M  V30 120 H 9.3496 -0.0760733 -3.97527 0
M  V30 121 N 10.3467 1.47872 -0.545128 0
M  V30 122 C 11.5937 2.02493 -0.0165858 0
M  V30 123 C 11.9217 1.42073 1.32836 0
M  V30 124 O 11.1767 0.561459 1.87473 0
M  V30 125 C 11.4757 3.57131 0.13867 0
M  V30 126 C 11.1417 4.36411 -1.13384 0
M  V30 127 C 9.8037 4.57792 -1.48256 0
M  V30 128 C 12.1557 4.82223 -1.97764 0
M  V30 129 C 9.4837 5.22233 -2.67376 0
M  V30 130 C 11.8357 5.47977 -3.16076 0
M  V30 131 C 10.4997 5.67593 -3.51275 0
M  V30 132 H 9.7697 0.740975 -0.00606918 0
M  V30 133 H 12.4167 1.77683 -0.714207 0
M  V30 134 H 10.7217 3.80865 0.919172 0
M  V30 135 H 12.4187 3.97031 0.562782 0
M  V30 136 H 9.0087 4.2004 -0.852297 0
M  V30 137 H 13.1927 4.65493 -1.72132 0
M  V30 138 H 8.4487 5.35616 -2.94831 0
M  V30 139 H 12.6227 5.8244 -3.81755 0
M  V30 140 H 10.2497 6.17298 -4.43675 0
M  V30 141 N 11.8248 0.280983 1.55075 0
M  V30 142 C 12.7728 -0.619864 2.24188 0
M  V30 143 C 13.7668 -1.15315 1.24092 0
M  V30 144 O 14.9728 -1.1061 1.42005 0
M  V30 145 H 11.3478 -0.218459 0.719569 0
M  V30 146 H 13.3188 -0.0141831 2.98397 0
M  V30 147 C 12.0678 -1.7899 2.98091 0
M  V30 148 H 11.3908 -1.38874 3.74905 0
M  V30 149 H 12.8308 -2.39672 3.49762 0
M  V30 150 C 11.2898 -2.68192 2.03899 0
M  V30 151 O 11.8198 -3.6872 1.594 0
M  V30 152 N 10.0258 -2.35488 1.70275 0
M  V30 153 H 9.5728 -1.53787 2.06658 0
M  V30 154 H 9.5308 -2.95442 1.07524 0
M  V30 155 N 13.3029 -1.57598 0.00835791 0
M  V30 156 C 14.5329 -1.94931 -0.684496 0
M  V30 157 C 14.9409 -0.882233 -1.67372 0
M  V30 158 O 14.2839 0.146621 -1.83114 0
M  V30 159 C 14.3459 -3.283 -1.4649 0
M  V30 160 C 14.0099 -4.52548 -0.63634 0
M  V30 161 C 15.0069 -5.19839 0.0795586 0
M  V30 162 C 12.6919 -4.98942 -0.579849 0
M  V30 163 C 14.6859 -6.3183 0.840843 0
M  V30 164 C 12.3729 -6.10819 0.185155 0
M  V30 165 C 13.3709 -6.77121 0.894227 0
M  V30 166 O 13.0589 -7.86853 1.64673 0
M  V30 167 H 12.7909 -0.647249 -0.19505 0
M  V30 168 H 15.3449 -2.05318 0.0581272 0
M  V30 169 H 13.5749 -3.14345 -2.2522 0
M  V30 170 H 15.2639 -3.50685 -2.04389 0
M  V30 171 H 16.0299 -4.84979 0.0451202 0
M  V30 172 H 11.9089 -4.47155 -1.1213 0
M  V30 173 H 15.4529 -6.83513 1.39483 0
M  V30 174 H 11.3499 -6.4512 0.221384 0
M  V30 175 H 12.1179 -8.03412 1.56432 0
M  V30 176 N 14.781 0.264519 -1.55364 0
M  V30 177 C 16.006 1.01726 -1.80739 0
M  V30 178 C 16.431 1.78836 -0.583044 0
M  V30 179 O 15.789 1.75167 0.467566 0
M  V30 180 C 15.837 1.94482 -3.03659 0
M  V30 181 O 14.941 3.03386 -2.7934 0
M  V30 182 H 14.282 0.290395 -0.597132 0
M  V30 183 H 16.812 0.290854 -2.02522 0
M  V30 184 H 16.822 2.36278 -3.32621 0
M  V30 185 H 15.497 1.37772 -3.92418 0
M  V30 186 H 14.074 2.65844 -2.61498 0
M  V30 187 N 16.2591 1.48442 0.529413 0
M  V30 188 C 17.5361 1.46978 1.29062 0
M  V30 189 C 17.9161 0.181769 2.10316 0
M  V30 190 O 17.2641 -0.836481 2.12639 0
M  V30 191 C 17.4741 2.7321 2.17157 0
M  V30 192 C 18.8221 3.21562 2.77278 0
M  V30 193 O 19.8461 2.74131 2.27444 0
M  V30 194 O 18.7051 4.04094 3.67927 0
M  V30 195 H 15.7991 0.587003 0.582543 0
M  V30 196 H 18.3451 1.60676 0.546021 0
M  V30 197 H 17.1171 3.58465 1.56903 0
M  V30 198 H 16.7401 2.62235 2.98862 0
M  V30 199 N 17.7372 -0.778329 1.37039 0
M  V30 200 C 19.1482 -1.35421 1.28523 0
M  V30 201 C 19.4992 -1.96075 -0.0700901 0
M  V30 202 O 18.6242 -1.93352 -0.971801 0
M  V30 203 C 19.2192 -2.46211 2.32735 0
M  V30 204 C 17.7782 -2.99585 2.27873 0
M  V30 205 C 16.9252 -1.72748 2.16918 0
M  V30 206 H 19.8762 -0.5791 1.47757 0
M  V30 207 H 19.8972 -3.2552 1.9702 0
M  V30 208 H 19.4092 -2.02036 3.31365 0
M  V30 209 H 17.5102 -3.48152 1.32745 0
M  V30 210 H 17.6232 -3.55646 3.21018 0
M  V30 211 H 15.9872 -1.95416 1.63354 0
M  V30 212 H 16.7702 -1.30686 3.17452 0
M  V30 213 N 19.2153 -1.21501 -1.00376 0
M  V30 214 C 20.4613 -1.03452 -1.74429 0
M  V30 215 C 20.7943 0.430764 -1.89362 0
M  V30 216 O 20.0693 1.31962 -1.42886 0
M  V30 217 C 20.3523 -1.73375 -3.15615 0
M  V30 218 C 20.2053 -3.27431 -3.08397 0
M  V30 219 C 21.5243 -1.47732 -4.14564 0
M  V30 220 H 18.6433 -0.377226 -0.633143 0
M  V30 221 H 21.2853 -1.49693 -1.17013 0
M  V30 222 H 19.4353 -1.34064 -3.64636 0
M  V30 223 H 21.1073 -3.76119 -2.67081 0
M  V30 224 H 19.3503 -3.5767 -2.45468 0
M  V30 225 H 20.0213 -3.71524 -4.08258 0
M  V30 226 H 22.4973 -1.8186 -3.74254 0
M  V30 227 H 21.3733 -1.99169 -5.11491 0
M  V30 228 H 21.6343 -0.407589 -4.40217 0
M  V30 229 N 20.6934 1.19889 -1.02296 0
M  V30 230 C 21.6414 2.24938 -0.592081 0
M  V30 231 C 22.6354 1.65257 0.372357 0
M  V30 232 O 23.8414 1.78371 0.241583 0
M  V30 233 H 20.2164 0.731787 -0.173182 0
M  V30 234 H 22.1874 2.58603 -1.48885 0
M  V30 235 C 20.9364 3.47668 0.047351 0
M  V30 236 H 20.2594 3.93875 -0.685772 0
M  V30 237 H 21.6994 4.22852 0.311862 0
M  V30 238 C 20.1584 3.11136 1.29212 0
M  V30 239 O 20.6884 3.2325 2.38479 0
M  V30 240 N 18.8944 2.65625 1.17863 0
M  V30 241 H 18.4414 2.55968 0.289493 0
M  V30 242 H 18.3994 2.41553 2.01245 0
M  V30 243 N 22.1715 0.800033 1.35784 0
M  V30 244 C 23.4485 0.30088 1.93272 0
M  V30 245 C 23.8285 -1.20857 1.73081 0
M  V30 246 O 23.1765 -2.00502 1.09596 0
M  V30 247 C 23.3865 0.70511 3.41803 0
M  V30 248 C 24.7345 0.690871 4.18942 0
M  V30 249 O 25.7585 0.646244 3.50289 0
M  V30 250 O 24.6175 0.74332 5.41421 0
M  V30 251 H 21.7115 0.0771605 0.823393 0
M  V30 252 H 24.2575 0.88329 1.449 0
M  V30 253 H 23.0295 1.74571 3.50201 0
M  V30 254 H 22.6525 0.0971541 3.97481 0
M  V30 255 N 23.6496 -1.47581 0.552962 0
M  V30 256 C 24.5976 -2.31648 -0.21023 0
M  V30 257 C 25.5916 -1.42663 -0.913432 0
M  V30 258 O 26.7976 -1.5945 -0.835201 0
M  V30 259 H 23.1726 -0.746989 -0.0866676 0
M  V30 260 H 25.1436 -2.93869 0.518051 0
M  V30 261 C 23.8926 -3.25226 -1.22976 0
M  V30 262 H 23.2156 -3.93658 -0.698077 0
M  V30 263 H 24.6556 -3.86889 -1.73473 0
M  V30 264 C 23.1146 -2.48448 -2.27542 0
M  V30 265 O 23.6446 -2.22585 -3.34393 0
M  V30 266 N 21.8506 -2.09532 -2.01357 0
M  V30 267 H 21.3976 -2.30765 -1.14478 0
M  V30 268 H 21.3556 -1.58476 -2.71538 0
M  V30 269 N 25.1277 -0.289203 -1.54924 0
M  V30 270 C 26.4047 0.376032 -1.91951 0
M  V30 271 C 26.7847 1.72622 -1.21511 0
M  V30 272 O 26.1327 2.25853 -0.346767 0
M  V30 273 C 26.3427 0.502378 -3.45365 0
M  V30 274 C 27.6907 0.778741 -4.17398 0
M  V30 275 O 28.7147 0.586647 -3.51336 0
M  V30 276 O 27.5737 1.14698 -5.34328 0
M  V30 277 H 24.6677 0.208167 -0.800372 0
M  V30 278 H 27.2137 -0.336394 -1.66332 0
M  V30 279 H 25.9857 -0.447255 -3.88736 0
M  V30 280 H 25.6087 1.26373 -3.76982 0
M  V30 281 N 26.6058 1.57591 -0.0167156 0
M  V30 282 C 27.8548 1.90461 0.663877 0
M  V30 283 C 28.1678 0.893515 1.73999 0
M  V30 284 O 29.3738 1.11302 2.47637 0
M  V30 285 C 27.8298 3.38155 1.23204 0
M  V30 286 C 27.4378 4.47597 0.189866 0
M  V30 287 C 29.1818 3.80111 1.88986 0
M  V30 288 C 27.0888 5.86379 0.768964 0
M  V30 289 H 26.0188 0.710738 0.251729 0
M  V30 290 H 28.6698 1.83326 -0.0799926 0
M  V30 291 H 27.0518 3.40182 2.02712 0
M  V30 292 H 28.2258 4.57112 -0.581846 0
M  V30 293 H 26.5408 4.14766 -0.368475 0
M  V30 294 H 29.1378 4.81145 2.33247 0
M  V30 295 H 29.4808 3.14511 2.72743 0
M  V30 296 H 30.0138 3.80454 1.16187 0
M  V30 297 H 26.7528 6.55493 -0.0301957 0
M  V30 298 H 26.2728 5.80496 1.50945 0
M  V30 299 H 27.9518 6.34563 1.26251 0
M  V30 300 N 28.0839 -0.256276 1.55502 0
M  V30 301 C 29.0139 -1.32102 1.92539 0
M  V30 302 C 29.9949 -1.50684 0.789194 0
M  V30 303 O 31.1799 -1.63449 1.04872 0
M  V30 304 C 28.3099 -2.67752 2.21192 0
M  V30 305 C 27.2639 -2.63878 3.36975 0
M  V30 306 C 26.5899 -4.03236 3.51147 0
M  V30 307 C 27.8899 -2.21682 4.72921 0
M  V30 308 H 29.5839 -1.01351 2.81724 0
M  V30 309 H 27.1299 -0.486105 1.35547 0
M  V30 310 H 29.0829 -3.42365 2.45691 0
M  V30 311 H 27.8069 -3.0012 1.28824 0
M  V30 312 H 26.4659 -1.91722 3.12471 0
M  V30 313 H 26.1139 -4.32854 2.56216 0
M  V30 314 H 25.8139 -4.01535 4.29003 0
M  V30 315 H 27.3379 -4.79563 3.77957 0
M  V30 316 H 28.7519 -2.86023 4.96854 0
M  V30 317 H 27.1489 -2.3111 5.53812 0
M  V30 318 H 28.2189 -1.16833 4.70615 0
M  V30 319 N 29.562 -1.4872 -0.521534 0
M  V30 320 C 30.792 -1.6061 -1.29954 0
M  V30 321 C 31.2 -0.268728 -1.87282 0
M  V30 322 O 30.543 0.753221 -1.67548 0
M  V30 323 C 30.605 -2.60013 -2.48261 0
M  V30 324 C 30.269 -4.04874 -2.11957 0
M  V30 325 C 31.266 -4.92304 -1.67132 0
M  V30 326 C 28.951 -4.5047 -2.22221 0
M  V30 327 C 30.945 -6.2336 -1.33047 0
M  V30 328 C 28.632 -5.81544 -1.87748 0
M  V30 329 C 29.63 -6.67812 -1.43234 0
M  V30 330 O 29.318 -7.96446 -1.09217 0
M  V30 331 H 29.05 -0.544116 -0.401141 0
M  V30 332 H 31.604 -1.95339 -0.634958 0
M  V30 333 H 29.834 -2.20422 -3.17728 0
M  V30 334 H 31.523 -2.61648 -3.10315 0
M  V30 335 H 32.289 -4.58312 -1.58665 0
M  V30 336 H 28.168 -3.83504 -2.55823 0
M  V30 337 H 31.712 -6.90649 -0.982299 0
M  V30 338 H 27.609 -6.15069 -1.95858 0
M  V30 339 H 28.377 -8.09275 -1.22542 0
M  V30 340 N 31.0401 0.771051 -1.3745 0
M  V30 341 C 31.9701 1.89827 -1.3597 0
M  V30 342 C 32.9511 1.68562 -0.228216 0
M  V30 343 O 34.1361 1.8941 -0.428675 0
M  V30 344 C 31.2661 3.2712 -1.16662 0
M  V30 345 C 30.2201 3.6295 -2.2683 0
M  V30 346 C 29.5461 4.98791 -1.92644 0
M  V30 347 C 30.8461 3.69627 -3.69017 0
M  V30 348 H 32.5401 1.91323 -2.30295 0
M  V30 349 H 30.0861 0.919082 -1.10855 0
M  V30 350 H 32.0391 4.05615 -1.14256 0
M  V30 351 H 30.7631 3.26059 -0.187926 0
M  V30 352 H 29.4221 2.86763 -2.28392 0
M  V30 353 H 29.0701 4.94271 -0.933021 0
M  V30 354 H 28.7701 5.23733 -2.66416 0
M  V30 355 H 30.2941 5.79685 -1.91826 0
M  V30 356 H 31.7081 4.38273 -3.69581 0
M  V30 357 H 30.1051 4.06067 -4.41848 0
M  V30 358 H 31.1751 2.70273 -4.02592 0
M  V30 359 N 32.5182 1.22032 0.997298 0
M  V30 360 C 33.9342 0.979326 1.26021 0
M  V30 361 C 34.1342 -0.32972 1.98784 0
M  V30 362 O 33.1902 -1.05345 2.29475 0
M  V30 363 C 34.5032 2.17509 2.07631 0
M  V30 364 C 36.0512 2.21817 2.2083 0
M  V30 365 C 36.5262 3.40933 3.05825 0
M  V30 366 N 38.0172 3.41067 3.13412 0
M  V30 367 C 38.7522 4.29885 3.79455 0
M  V30 368 N 38.2482 5.28914 4.47462 0
M  V30 369 N 40.0412 4.17673 3.76173 0
M  V30 370 H 32.1922 2.06202 0.509352 0
M  V30 371 H 34.4552 0.90334 0.287541 0
M  V30 372 H 34.1612 3.12415 1.61524 0
M  V30 373 H 34.0352 2.17206 3.08385 0
M  V30 374 H 36.4222 1.27462 2.66153 0
M  V30 375 H 36.5032 2.2616 1.1952 0
M  V30 376 H 36.1472 4.35586 2.61203 0
M  V30 377 H 36.0772 3.33829 4.07266 0
M  V30 378 H 38.5682 2.69406 2.65007 0
M  V30 379 H 38.8812 5.92973 4.95583 0
M  V30 380 H 37.2262 5.32831 4.46224 0
M  V30 381 H 40.4172 3.39564 3.22202 0
M  V30 382 H 40.5902 4.87098 4.27363 0
M  V30 383 N 33.9963 -1.19345 1.0293 0
M  V30 384 C 35.2453 -1.88363 0.721256 0
M  V30 385 C 35.5583 -1.80514 -0.753254 0
M  V30 386 O 36.7643 -2.44788 -1.17436 0
M  V30 387 C 35.2203 -3.37872 1.23978 0
M  V30 388 C 34.8283 -3.54278 2.74211 0
M  V30 389 C 36.5723 -4.12365 1.00775 0
M  V30 390 C 34.4793 -4.97682 3.19479 0
M  V30 391 H 33.4093 -0.705484 0.266098 0
M  V30 392 H 36.0603 -1.34928 1.24365 0
M  V30 393 H 34.4423 -3.90707 0.6453 0
M  V30 394 H 35.6163 -3.11769 3.39318 0
M  V30 395 H 33.9313 -2.93174 2.95699 0
M  V30 396 H 36.5283 -5.18119 1.32123 0
M  V30 397 H 36.8713 -4.16263 -0.0554308 0
M  V30 398 H 37.4043 -3.65668 1.56625 0
M  V30 399 H 34.1433 -4.98945 4.25128 0
M  V30 400 H 33.6633 -5.4095 2.591 0
M  V30 401 H 35.3423 -5.66337 3.12845 0
M  V30 402 N 35.4744 -0.807222 -1.35358 0
M  V30 403 C 36.8854 -0.44876 -1.81226 0
M  V30 404 C 37.2364 1.02929 -1.67033 0
M  V30 405 O 36.3614 1.79991 -1.20133 0
M  V30 406 C 36.9564 -0.807774 -3.2903 0
M  V30 407 C 35.5154 -0.501901 -3.73039 0
M  V30 408 C 34.6624 -1.03304 -2.57339 0
M  V30 409 H 37.6134 -0.998808 -1.23327 0
M  V30 410 H 37.6344 -0.10554 -3.80354 0
M  V30 411 H 37.1464 -1.88357 -3.39328 0
M  V30 412 H 35.2474 0.565128 -3.68289 0
M  V30 413 H 35.3604 -1.03497 -4.67787 0
M  V30 414 H 33.7244 -0.455339 -2.50597 0
M  V30 415 H 34.5074 -2.11496 -2.70415 0
M  V30 416 N 36.9525 1.47285 -0.560781 0
M  V30 417 C 37.8845 2.28118 0.222438 0
M  V30 418 C 38.8975 1.37219 0.876056 0
M  V30 419 O 40.0865 1.62011 0.749307 0
M  V30 420 C 37.1865 3.1159 1.33285 0
M  V30 421 C 36.3595 4.30473 0.77534 0
M  V30 422 C 35.4185 4.95513 1.77069 0
M  V30 423 O 34.4445 5.53792 1.31539 0
M  V30 424 N 35.6465 4.90531 3.10418 0
M  V30 425 H 38.4115 2.95976 -0.470958 0
M  V30 426 H 35.9725 1.56955 -0.39709 0
M  V30 427 H 37.9645 3.51967 1.99752 0
M  V30 428 H 36.5345 2.45951 1.92943 0
M  V30 429 H 35.7545 3.94144 -0.0662113 0
M  V30 430 H 37.0425 5.07362 0.382272 0
M  V30 431 H 36.4405 4.44389 3.5005 0
M  V30 432 H 34.9975 5.34917 3.72434 0
M  V30 433 N 38.4306 0.297415 1.54768 0
M  V30 434 C 39.3786 -0.596051 2.24833 0
M  V30 435 C 40.3726 -1.13992 1.25308 0
M  V30 436 O 41.5786 -1.09098 1.4317 0
M  V30 437 H 37.9536 -0.210814 0.721846 0
M  V30 438 H 39.9246 0.0174667 2.98395 0
M  V30 439 C 38.6736 -1.75818 2.99972 0
M  V30 440 H 37.9966 -1.3489 3.76357 0
M  V30 441 H 39.4366 -2.35949 3.52284 0
M  V30 442 C 37.8956 -2.66014 2.06732 0
M  V30 443 O 38.4256 -3.67009 1.63302 0
M  V30 444 N 36.6316 -2.33669 1.72763 0
M  V30 445 H 36.1786 -1.51586 2.08277 0
M  V30 446 H 36.1366 -2.94285 1.10652 0
M  V30 447 N 39.9087 -1.5758 0.0250728 0
M  V30 448 C 40.8557 -2.09973 -0.958129 0
M  V30 449 C 41.8257 -1.00085 -1.3256 0
M  V30 450 O 43.0107 -1.27481 -1.41962 0
M  V30 451 C 40.1507 -2.62812 -2.2366 0
M  V30 452 C 39.2637 -3.86693 -1.92594 0
M  V30 453 C 38.3987 -4.27941 -3.14707 0
M  V30 454 C 37.4377 -5.44591 -2.79442 0
M  V30 455 N 36.5747 -5.81014 -3.94167 0
M  V30 456 H 41.4147 -2.937 -0.504428 0
M  V30 457 H 38.9517 -1.45172 -0.237392 0
M  V30 458 H 40.9097 -2.91536 -2.98434 0
M  V30 459 H 39.5397 -1.81922 -2.66654 0
M  V30 460 H 38.5917 -3.64723 -1.0808 0
M  V30 461 H 39.9037 -4.71547 -1.62619 0
M  V30 462 H 39.0577 -4.58079 -3.97804 0
M  V30 463 H 37.7967 -3.41845 -3.4784 0
M  V30 464 H 36.8017 -5.1415 -1.94755 0
M  V30 465 H 38.0267 -6.32382 -2.47528 0
M  V30 466 H 35.9727 -4.97874 -4.2715 0
M  V30 467 H 35.8897 -6.60498 -3.67801 0
M  V30 468 H 37.1577 -6.15756 -4.7798 0
M  V30 469 N 41.3868 0.248026 -1.55636 0
M  V30 470 C 42.3168 1.31079 -1.93237 0
M  V30 471 C 43.2978 1.50264 -0.797174 0
M  V30 472 O 44.4828 1.62891 -1.05737 0
M  V30 473 C 41.6128 2.66575 -2.22609 0
M  V30 474 C 40.5668 2.62087 -3.3837 0
M  V30 475 C 39.8928 4.01369 -3.53281 0
M  V30 476 C 41.1928 2.19171 -4.7409 0
M  V30 477 H 42.8868 0.998556 -2.82257 0
M  V30 478 H 40.4328 0.47891 -1.35803 0
M  V30 479 H 42.3858 3.41057 -2.47503 0
M  V30 480 H 41.1098 2.99432 -1.30414 0
M  V30 481 H 39.7688 1.90063 -3.13483 0
M  V30 482 H 39.4168 4.31489 -2.58508 0
M  V30 483 H 39.1168 3.99254 -4.31127 0
M  V30 484 H 40.6408 4.77552 -3.80495 0
M  V30 485 H 42.0548 2.83384 -4.98363 0
M  V30 486 H 40.4518 2.2817 -5.5503 0
M  V30 487 H 41.5218 1.14336 -4.71227 0
M  V30 488 N 42.8649 1.48995 0.513639 0
M  V30 489 C 44.1139 1.57093 1.2651 0
M  V30 490 C 44.4269 0.257091 1.93903 0
M  V30 491 O 45.6329 0.216478 2.70636 0
M  V30 492 C 44.0889 2.77118 2.29638 0
M  V30 493 C 43.6969 4.15209 1.68241 0
M  V30 494 C 45.4409 2.94538 3.05692 0
M  V30 495 C 43.3479 5.26474 2.69406 0
M  V30 496 H 42.2779 0.584876 0.475854 0
M  V30 497 H 44.9289 1.7536 0.540487 0
M  V30 498 H 43.3109 2.52319 3.05207 0
M  V30 499 H 44.4849 4.50094 0.987505 0
M  V30 500 H 42.7999 4.03042 1.04623 0
M  V30 501 H 45.3969 3.74832 3.8132 0
M  V30 502 H 45.7399 2.04614 3.62545 0
M  V30 503 H 46.2729 3.19316 2.37238 0
M  V30 504 H 43.0119 6.18417 2.17351 0
M  V30 505 H 42.5319 4.96058 3.37175 0
M  V30 506 H 44.2109 5.55277 3.32078 0
M  V30 507 N 44.343 -0.763751 1.37857 0
M  V30 508 C 45.571 -1.55293 1.36718 0
M  V30 509 C 45.986 -1.88745 -0.0455434 0
M  V30 510 O 45.343 -1.52039 -1.00947 0
M  V30 511 C 45.394 -2.85831 2.2132 0
M  V30 512 O 45.115 -2.5381 3.57089 0
M  V30 513 C 46.616 -3.80023 2.28249 0
M  V30 514 H 43.836 -0.480841 0.468009 0
M  V30 515 H 46.38 -0.946009 1.81303 0
M  V30 516 H 44.535 -3.42926 1.80223 0
M  V30 517 H 44.949 -3.37459 4.01524 0
M  V30 518 H 46.423 -4.68599 2.91752 0
M  V30 519 H 46.9 -4.1973 1.2932 0
M  V30 520 H 47.506 -3.28855 2.69693 0
M  V30 521 N 45.8211 -1.22559 -0.990812 0
M  V30 522 C 47.0491 -1.07779 -1.76611 0
M  V30 523 C 47.4641 0.371513 -1.85109 0
M  V30 524 O 46.8211 1.25737 -1.32274 0
M  V30 525 C 46.8721 -1.68512 -3.19822 0
M  V30 526 O 46.5931 -3.07774 -3.1178 0
M  V30 527 C 48.0941 -1.59035 -4.13791 0
M  V30 528 H 45.3141 -0.377729 -0.554583 0
M  V30 529 H 47.8581 -1.62195 -1.24551 0
M  V30 530 H 46.0131 -1.18154 -3.68942 0
M  V30 531 H 46.4271 -3.37062 -4.01858 0
M  V30 532 H 47.9011 -2.0625 -5.1202 0
M  V30 533 H 48.3781 -0.547273 -4.35777 0
M  V30 534 H 48.9841 -2.08709 -3.70568 0
M  V30 535 N 47.2992 1.18797 -1.03562 0
M  V30 536 C 48.7102 1.70322 -0.764676 0
M  V30 537 C 49.0612 1.82708 0.714996 0
M  V30 538 O 48.1862 1.50299 1.55689 0
M  V30 539 C 48.7812 3.09356 -1.38145 0
M  V30 540 C 47.3402 3.58114 -1.15895 0
M  V30 541 C 46.4872 2.34798 -1.4753 0
M  V30 542 H 49.4382 1.03543 -1.20268 0
M  V30 543 H 49.4592 3.72378 -0.781977 0
M  V30 544 H 48.9712 3.00309 -2.45837 0
M  V30 545 H 47.0722 3.72464 -0.100544 0
M  V30 546 H 47.1852 4.4184 -1.8524 0
M  V30 547 H 45.5492 2.38464 -0.894829 0
M  V30 548 H 46.3322 2.28375 -2.56319 0
M  V30 549 N 48.7773 0.814389 1.34928 0
M  V30 550 C 50.0233 0.399013 1.98836 0
M  V30 551 C 50.3563 -1.03314 1.64438 0
M  V30 552 O 49.6313 -1.71811 0.911659 0
M  V30 553 C 49.9143 0.591629 3.55207 0
M  V30 554 C 49.7673 2.06928 3.99376 0
M  V30 555 C 51.0863 0.022199 4.40094 0
M  V30 556 H 48.2053 0.146451 0.722303 0
M  V30 557 H 50.8473 1.02537 1.59957 0
M  V30 558 H 48.9973 0.0584441 3.88456 0
M  V30 559 H 50.6693 2.66544 3.76499 0
M  V30 560 H 48.9123 2.56287 3.49999 0
M  V30 561 H 49.5833 2.1549 5.08201 0
M  V30 562 H 52.0593 0.477643 4.13349 0
M  V30 563 H 50.9353 0.186832 5.48582 0
M  V30 564 H 51.1963 -1.07215 4.28902 0
M  V30 565 N 50.2554 -1.46986 0.568584 0
M  V30 566 C 51.2024 -2.30153 -0.172707 0
M  V30 567 C 52.1724 -1.39759 -0.897586 0
M  V30 568 O 53.3574 -1.68716 -0.891044 0
M  V30 569 C 50.4974 -3.23952 -1.1895 0
M  V30 570 C 49.6104 -4.29441 -0.469517 0
M  V30 571 C 48.7454 -5.1038 -1.47259 0
M  V30 572 C 47.7844 -6.07632 -0.738225 0
M  V30 573 N 46.9214 -6.8149 -1.68868 0
M  V30 574 H 51.7614 -2.93019 0.542596 0
M  V30 575 H 49.2984 -1.44422 0.279401 0
M  V30 576 H 51.2564 -3.76767 -1.79173 0
M  V30 577 H 49.8864 -2.62926 -1.87269 0
M  V30 578 H 48.9384 -3.79594 0.247467 0
M  V30 579 H 50.2504 -4.98689 0.105241 0
M  V30 580 H 49.4044 -5.67402 -2.14803 0
M  V30 581 H 48.1434 -4.4106 -2.08128 0
M  V30 582 H 47.1484 -5.49778 -0.0489293 0
M  V30 583 H 48.3734 -6.78966 -0.135129 0
M  V30 584 H 46.3194 -6.14891 -2.28573 0
M  V30 585 H 46.2364 -7.46948 -1.16636 0
M  V30 586 H 47.5044 -7.43078 -2.3549 0
M  V30 587 N 51.7335 -0.305618 -1.54608 0
M  V30 588 C 52.6965 0.555591 -2.22364 0
M  V30 589 C 53.6965 1.05768 -1.21119 0
M  V30 590 O 54.8865 0.952972 -1.45822 0
M  V30 591 C 52.0185 1.76974 -2.91364 0
M  V30 592 H 53.2115 -0.0364572 -2.99878 0
M  V30 593 H 50.7645 -0.0565007 -1.56198 0
M  V30 594 H 51.4995 2.40151 -2.17941 0
M  V30 595 H 51.2845 1.41732 -3.65588 0
M  V30 596 H 52.7745 2.38148 -3.43038 0
M  V30 597 N 53.2116 1.57565 -0.0334293 0
M  V30 598 C 54.4586 1.91978 0.644272 0
M  V30 599 C 54.7866 0.910231 1.71887 0
M  V30 600 O 54.0416 -0.0801961 1.95536 0
M  V30 601 C 54.3406 3.33112 1.29504 0
M  V30 602 C 54.0066 4.49537 0.350388 0
M  V30 603 C 52.6686 4.81115 0.0903974 0
M  V30 604 C 55.0206 5.20347 -0.298032 0
M  V30 605 C 52.3486 5.8086 -0.825746 0
M  V30 606 C 54.7006 6.2107 -1.20226 0
M  V30 607 C 53.3646 6.51088 -1.4711 0
M  V30 608 H 52.6346 0.702496 0.235756 0
M  V30 609 H 55.2816 1.91259 -0.0961176 0
M  V30 610 H 53.5866 3.30113 2.11028 0
M  V30 611 H 55.2836 3.57011 1.82603 0
M  V30 612 H 51.8736 4.24883 0.563205 0
M  V30 613 H 56.0576 4.96178 -0.110234 0
M  V30 614 H 51.3136 6.02461 -1.04169 0
M  V30 615 H 55.4876 6.75057 -1.71086 0
M  V30 616 H 53.1146 7.28193 -2.18264 0
M  V30 617 N 54.6897 -0.239769 1.55765 0
M  V30 618 C 55.6227 -1.32356 1.85895 0
M  V30 619 C 56.6007 -1.46053 0.714662 0
M  V30 620 O 57.7847 -1.62154 0.961157 0
M  V30 621 C 54.9117 -2.6962 2.04994 0
M  V30 622 C 53.9577 -2.73036 3.27648 0
M  V30 623 S 54.7907 -2.28929 4.84099 0
M  V30 624 C 55.9467 -3.68103 5.06212 0
M  V30 625 H 56.1797 -1.06601 2.77531 0
M  V30 626 H 53.7127 -0.441112 1.47965 0
M  V30 627 H 55.6707 -3.48653 2.16682 0
M  V30 628 H 54.3317 -2.92609 1.14188 0
M  V30 629 H 53.5247 -3.7386 3.38 0
M  V30 630 H 53.1267 -2.02052 3.14723 0
M  V30 631 H 55.4187 -4.63656 4.93993 0
M  V30 632 H 56.3617 -3.6268 6.08168 0
M  V30 633 H 56.7697 -3.60947 4.34025 0
M  V30 634 N 56.1678 -1.49265 -0.50573 0
M  V30 635 C 57.4168 -1.57761 -1.25675 0
M  V30 636 C 57.7298 -0.267371 -1.93764 0
M  V30 637 O 58.9358 -0.230827 -2.70517 0
M  V30 638 C 57.3918 -2.78332 -2.28165 0
M  V30 639 C 56.9998 -4.16096 -1.66037 0
M  V30 640 C 58.7438 -2.96155 -3.04125 0
M  V30 641 C 56.6508 -5.27895 -2.6661 0
M  V30 642 H 55.5808 -0.587391 -0.472745 0
M  V30 643 H 58.2318 -1.75644 -0.53118 0
M  V30 644 H 56.6138 -2.53934 -3.03865 0
M  V30 645 H 57.7878 -4.50612 -0.963622 0
M  V30 646 H 56.1028 -4.03591 -1.02484 0
M  V30 647 H 58.6998 -3.76849 -3.79327 0
M  V30 648 H 59.0428 -2.06534 -3.61455 0
M  V30 649 H 59.5758 -3.2057 -2.35541 0
M  V30 650 H 56.3148 -6.1956 -2.14068 0
M  V30 651 H 55.8348 -4.97839 -3.34539 0
M  V30 652 H 57.5138 -5.57031 -3.29129 0
M  V30 653 N 57.6459 0.756429 -1.3826 0
M  V30 654 C 58.8739 1.54565 -1.3754 0
M  V30 655 C 59.2889 1.88767 0.0355331 0
M  V30 656 O 58.6459 1.52572 1.0014 0
M  V30 657 C 58.6969 2.84654 -2.22833 0
M  V30 658 O 58.4179 2.51912 -3.5843 0
M  V30 659 C 59.9189 3.78807 -2.30261 0
M  V30 660 H 57.1389 0.478353 -0.470553 0
M  V30 661 H 59.6829 0.936381 -1.81803 0
M  V30 662 H 57.8379 3.41965 -1.8204 0
M  V30 663 H 58.2519 3.35325 -4.03308 0
M  V30 664 H 59.7259 4.67045 -2.94233 0
M  V30 665 H 60.2029 4.19038 -1.31545 0
M  V30 666 H 60.8089 3.2742 -2.71433 0
M  V30 667 N 59.124 1.23083 0.984299 0
M  V30 668 C 60.056 0.96636 2.07832 0
M  V30 669 C 61.069 -0.0582135 1.62696 0
M  V30 670 O 62.258 0.176843 1.77622 0
M  V30 671 C 59.358 0.433397 3.36117 0
M  V30 672 C 58.531 1.51722 4.10243 0
M  V30 673 C 57.59 0.989821 5.16807 0
M  V30 674 O 56.616 1.67794 5.43906 0
M  V30 675 N 57.818 -0.184367 5.80207 0
M  V30 676 H 60.583 1.90824 2.31098 0
M  V30 677 H 58.144 1.13888 1.1507 0
M  V30 678 H 60.136 0.065699 4.04647 0
M  V30 679 H 58.706 -0.413806 3.09849 0
M  V30 680 H 57.926 2.05786 3.36223 0
M  V30 681 H 59.214 2.24619 4.56534 0
M  V30 682 H 58.612 -0.760062 5.60571 0
M  V30 683 H 57.169 -0.493366 6.4993 0
M  V30 684 N 60.6021 -1.18246 1.0419 0
M  V30 685 C 61.5501 -2.23968 0.627792 0
M  V30 686 C 62.5441 -1.65828 -0.346019 0
M  V30 687 O 63.7501 -1.78733 -0.213175 0
M  V30 688 H 60.1251 -0.728939 0.184802 0
M  V30 689 H 62.0961 -2.56202 1.52981 0
M  V30 690 C 60.8451 -3.47699 0.00796591 0
M  V30 691 H 60.1681 -3.92734 0.748347 0
M  V30 692 H 61.6081 -4.23294 -0.24455 0
M  V30 693 C 60.0671 -3.13153 -1.24246 0
M  V30 694 O 60.5971 -3.27003 -2.33307 0
M  V30 695 N 58.8031 -2.67467 -1.13622 0
M  V30 696 H 58.3501 -2.56396 -0.248734 0
M  V30 697 H 58.3081 -2.44724 -1.97377 0
M  V30 698 N 62.0802 -0.821533 -1.34494 0
M  V30 699 C 63.3292 -0.405355 -1.97585 0
M  V30 700 C 63.6422 1.03677 -1.65863 0
M  V30 701 O 64.8482 1.55679 -2.22433 0
M  V30 702 C 63.3042 -0.673861 -3.53535 0
M  V30 703 C 62.9122 -2.12951 -3.94152 0
M  V30 704 C 64.6562 -0.32378 -4.23263 0
M  V30 705 C 62.5632 -2.34298 -5.43009 0
M  V30 706 H 61.4932 -0.147836 -0.739365 0
M  V30 707 H 64.1442 -1.00769 -1.53355 0
M  V30 708 H 62.5262 -0.00137554 -3.96 0
M  V30 709 H 63.7002 -2.84104 -3.62797 0
M  V30 710 H 62.0152 -2.44089 -3.37356 0
M  V30 711 H 64.6122 -0.461126 -5.32708 0
M  V30 712 H 64.9552 0.731586 -4.09821 0
M  V30 713 H 65.4882 -0.950786 -3.8627 0
M  V30 714 H 62.2272 -3.38335 -5.61435 0
M  V30 715 H 61.7472 -1.67687 -5.75883 0
M  V30 716 H 63.4262 -2.16588 -6.09671 0
M  V30 717 N 63.5583 1.46682 -0.576371 0
M  V30 718 C 64.8043 2.03287 -0.0679305 0
M  V30 719 C 65.1593 1.44063 1.27529 0
M  V30 720 O 64.4523 0.593973 1.82161 0
M  V30 721 C 64.6463 3.57345 0.062886 0
M  V30 722 C 64.4753 4.31509 -1.26611 0
M  V30 723 C 63.2453 4.70664 -1.83856 0
M  V30 724 C 65.4433 4.65444 -2.18783 0
M  V30 725 N 63.4253 5.29552 -3.10561 0
M  V30 726 C 64.7963 5.24835 -3.30072 0
M  V30 727 C 66.8513 4.47375 -2.18542 0
M  V30 728 C 65.5543 5.68063 -4.41244 0
M  V30 729 C 67.5803 4.91614 -3.28739 0
M  V30 730 C 66.9423 5.51071 -4.38748 0
M  V30 731 H 63.0413 0.779083 -0.0674836 0
M  V30 732 H 65.6253 1.78918 -0.767877 0
M  V30 733 H 63.7963 3.8144 0.731988 0
M  V30 734 H 65.5283 4.00592 0.575134 0
M  V30 735 H 62.2833 4.53224 -1.37424 0
M  V30 736 H 62.7073 5.63523 -3.75195 0
M  V30 737 H 67.3493 4.00747 -1.34765 0
M  V30 738 H 65.0673 6.13672 -5.25768 0
M  V30 739 H 68.6533 4.79389 -3.29662 0
M  V30 740 H 67.5333 5.84678 -5.22611 0
M  V30 741 N 65.0364 0.313813 1.54444 0
M  V30 742 C 66.2824 -0.292108 2.00685 0
M  V30 743 C 66.6154 -1.52548 1.20177 0
M  V30 744 O 65.8904 -1.92452 0.281531 0
M  V30 745 C 66.1734 -0.635968 3.5444 0
M  V30 746 C 66.0264 0.607437 4.4568 0
M  V30 747 C 67.3454 -1.45747 4.15266 0
M  V30 748 H 64.4644 -0.104697 0.729526 0
M  V30 749 H 67.1064 0.428457 1.85106 0
M  V30 750 H 65.2564 -1.24986 3.67846 0
M  V30 751 H 66.9284 1.24581 4.44159 0
M  V30 752 H 65.1714 1.23822 4.15753 0
M  V30 753 H 65.8424 0.322515 5.51057 0
M  V30 754 H 68.3184 -0.938645 4.05375 0
M  V30 755 H 67.1944 -1.66683 5.2298 0
M  V30 756 H 67.4554 -2.45063 3.67963 0
M  V30 757 N 66.5145 -1.57545 0.0417849 0
M  V30 758 C 67.7635 -1.91494 -0.633492 0
M  V30 759 C 68.0765 -0.921084 -1.72556 0
M  V30 760 O 69.2825 -1.15228 -2.45835 0
M  V30 761 C 67.7385 -3.40072 -1.17808 0
M  V30 762 C 67.3465 -4.47843 -0.118633 0
M  V30 763 C 69.0905 -3.8307 -1.82915 0
M  V30 764 C 66.9975 -5.87529 -0.675578 0
M  V30 765 H 65.9275 -0.714653 -0.24039 0
M  V30 766 H 68.5785 -1.83175 0.109148 0
M  V30 767 H 66.9605 -3.43364 -1.97274 0
M  V30 768 H 68.1345 -4.56128 0.654494 0
M  V30 769 H 66.4495 -4.14128 0.434414 0
M  V30 770 H 69.0465 -4.84794 -2.25563 0
M  V30 771 H 69.3895 -3.1881 -2.67705 0
M  V30 772 H 69.9225 -3.82255 -1.10119 0
M  V30 773 H 66.6615 -6.55362 0.134475 0
M  V30 774 H 66.1815 -5.82824 -1.4169 0
M  V30 775 H 67.8605 -6.36491 -1.1614 0
M  V30 776 N 67.9926 0.231505 -1.5589 0
M  V30 777 C 69.4036 0.799327 -1.68724 0
M  V30 778 C 69.7546 1.85398 -0.642022 0
M  V30 779 O 68.8796 2.1539 0.208784 0
M  V30 780 C 69.4746 1.45664 -3.05888 0
M  V30 781 C 68.0336 1.97197 -3.20609 0
M  V30 782 C 67.1806 0.828552 -2.64632 0
M  V30 783 H 70.1316 0.00702616 -1.58698 0
M  V30 784 H 70.1526 2.32517 -3.01191 0
M  V30 785 H 69.6646 0.688808 -3.81939 0
M  V30 786 H 67.7656 2.76813 -2.4941 0
M  V30 787 H 67.8786 2.15878 -4.27707 0
M  V30 788 H 66.2426 1.23321 -2.22854 0
M  V30 789 H 67.0256 0.0735544 -3.43221 0
M  V30 790 N 69.4707 1.49531 0.497807 0
M  V30 791 C 70.3807 1.69176 1.62532 0
M  V30 792 C 71.3967 0.5744 1.64246 0
M  V30 793 O 72.5727 0.849497 1.82608 0
M  V30 794 C 69.6377 1.75695 2.98885 0
M  V30 795 C 68.6987 2.9929 3.07773 0
M  V30 796 C 67.9317 3.05488 4.37622 0
M  V30 797 O 68.1547 2.19192 5.26603 0
M  V30 798 O 67.0887 3.9798 4.51548 0
M  V30 799 H 70.9147 2.647 1.48887 0
M  V30 800 H 68.4997 1.3331 0.674441 0
M  V30 801 H 70.3817 1.82317 3.79919 0
M  V30 802 H 69.0567 0.8335 3.12785 0
M  V30 803 H 67.9637 2.98183 2.25915 0
M  V30 804 H 69.2967 3.91125 2.98801 0
M  V30 805 N 70.9488 -0.749086 1.3866 0
M  V30 806 C 72.3648 -1.05276 1.19955 0
M  V30 807 C 72.5648 -2.01435 0.05134 0
M  V30 808 O 71.6208 -2.45232 -0.60147 0
M  V30 809 C 72.9338 -1.62853 2.52783 0
M  V30 810 C 74.4818 -1.75002 2.59506 0
M  V30 811 C 74.9568 -2.35991 3.92521 0
M  V30 812 N 76.4478 -2.43416 3.94085 0
M  V30 813 C 77.1828 -2.91511 4.9377 0
M  V30 814 N 76.6788 -3.39608 6.03853 0
M  V30 815 N 78.4718 -2.90592 4.81157 0
M  V30 816 H 70.6228 -0.111066 2.12109 0
M  V30 817 H 72.8858 -0.111901 0.941373 0
M  V30 818 H 72.5918 -0.99664 3.37283 0
M  V30 819 H 72.4658 -2.61854 2.715 0
M  V30 820 H 74.8528 -2.37317 1.75398 0
M  V30 821 H 74.9338 -0.74693 2.44652 0
M  V30 822 H 74.5778 -1.74308 4.77053 0
M  V30 823 H 74.5078 -3.3695 4.04688 0
M  V30 824 H 76.9988 -2.09405 3.14576 0
M  V30 825 H 77.3118 -3.74775 6.75843 0
M  V30 826 H 75.6568 -3.37653 6.07466 0
M  V30 827 H 78.8478 -2.52332 3.94267 0
M  V30 828 H 79.0208 -3.27762 5.58996 0
M  V30 829 N 72.4269 -1.23603 -0.977757 0
M  V30 830 C 73.6739 -1.06971 -1.71941 0
M  V30 831 C 74.0019 0.393009 -1.90488 0
M  V30 832 O 73.2569 1.30719 -1.4564 0
M  V30 833 C 73.5559 -1.7433 -3.11999 0
M  V30 834 C 73.2219 -3.24252 -3.13323 0
M  V30 835 C 71.8839 -3.65156 -3.13392 0
M  V30 836 C 74.2359 -4.20141 -3.08433 0
M  V30 837 C 71.5639 -5.00403 -3.0629 0
M  V30 838 C 73.9159 -5.55384 -3.02873 0
M  V30 839 C 72.5799 -5.95647 -3.01265 0
M  V30 840 H 71.8499 -0.391433 -0.629175 0
M  V30 841 H 74.4969 -1.53572 -1.14403 0
M  V30 842 H 72.8019 -1.20096 -3.7294 0
M  V30 843 H 74.4989 -1.58936 -3.68158 0
M  V30 844 H 71.0889 -2.91692 -3.14029 0
M  V30 845 H 75.2729 -3.89547 -3.07517 0
M  V30 846 H 70.5289 -5.3081 -3.03399 0
M  V30 847 H 74.7029 -6.29398 -2.98046 0
M  V30 848 H 72.3299 -7.0041 -2.95516 0
M  V30 849 N 73.905 1.17692 -1.04816 0
M  V30 850 C 75.13 1.92327 -0.776207 0
M  V30 851 C 75.555 1.76082 0.661581 0
M  V30 852 O 74.913 1.076 1.45917 0
M  V30 853 C 74.961 3.41539 -1.15687 0
M  V30 854 O 74.065 4.11402 -0.286775 0
M  V30 855 H 73.406 0.599735 -0.284981 0
M  V30 856 H 75.936 1.49201 -1.4 0
M  V30 857 H 75.946 3.92269 -1.12202 0
M  V30 858 H 74.621 3.52684 -2.20425 0
M  V30 859 H 73.198 3.70939 -0.381903 0
M  V30 860 N 75.3831 0.828654 1.34056 0
M  V30 861 C 76.6081 0.431637 2.02859 0
M  V30 862 C 77.0331 -0.956339 1.61975 0
M  V30 863 O 76.3911 -1.62338 0.807228 0
M  V30 864 C 76.4391 0.548323 3.56407 0
M  V30 865 O 75.5431 -0.429556 4.10157 0
M  V30 866 H 74.8841 0.176886 0.640006 0
M  V30 867 H 77.4141 1.12066 1.71179 0
M  V30 868 H 77.4241 0.426196 4.05768 0
M  V30 869 H 76.0991 1.5606 3.8551 0
M  V30 870 H 74.6761 -0.265836 3.71951 0
M  V30 871 N 76.8612 -1.46375 0.584142 0
M  V30 872 C 78.1382 -1.956 0.0033388 0
M  V30 873 C 78.5182 -1.52679 -1.45782 0
M  V30 874 O 77.8662 -0.77816 -2.14842 0
M  V30 875 C 78.0762 -3.48551 0.176891 0
M  V30 876 C 79.4242 -4.24576 0.0454609 0
M  V30 877 O 80.4482 -3.56043 0.105801 0
M  V30 878 O 79.3072 -5.46427 -0.0890376 0
M  V30 879 H 76.4012 -0.825547 -0.0490066 0
M  V30 880 H 78.9472 -1.56652 0.65256 0
M  V30 881 H 77.7192 -3.72683 1.1926 0
M  V30 882 H 77.3422 -3.94332 -0.508695 0
M  V30 883 N 78.3393 -0.321999 -1.54275 0
M  V30 884 C 79.5673 0.283052 -2.04955 0
M  V30 885 C 79.9823 1.45904 -1.19823 0
M  V30 886 O 79.3393 1.81063 -0.228545 0
M  V30 887 C 79.3903 0.719028 -3.54277 0
M  V30 888 O 79.1113 -0.410175 -4.36176 0
M  V30 889 C 80.6123 1.38705 -4.21041 0
M  V30 890 H 77.8323 0.0584616 -0.668448 0
M  V30 891 H 80.3763 -0.467734 -1.99079 0
M  V30 892 H 78.5313 1.41979 -3.60445 0
M  V30 893 H 78.9453 -0.0669416 -5.24457 0
M  V30 894 H 80.4193 1.64306 -5.2698 0
M  V30 895 H 80.8963 2.33385 -3.72059 0
M  V30 896 H 81.5023 0.728906 -4.19007 0
M  V30 897 N 79.8174 1.5752 -0.0501392 0
M  V30 898 C 80.7654 2.12651 0.942459 0
M  V30 899 C 81.7594 1.05807 1.32292 0
M  V30 900 O 82.9654 1.24217 1.3027 0
M  V30 901 H 79.3404 0.679673 0.321789 0
M  V30 902 H 81.3114 2.94951 0.452356 0
M  V30 903 C 80.0604 2.68565 2.20836 0
M  V30 904 H 79.3834 3.50439 1.92439 0
M  V30 905 H 80.8234 3.10761 2.8845 0
M  V30 906 C 79.2824 1.62291 2.95234 0
M  V30 907 O 79.8124 1.03508 3.88135 0
M  V30 908 N 78.0184 1.33836 2.57946 0
M  V30 909 H 77.5654 1.81826 1.82475 0
M  V30 910 H 77.5234 0.629595 3.08032 0
M  V30 911 N 81.2955 -0.223234 1.56011 0
M  V30 912 C 82.7065 -0.790368 1.69145 0
M  V30 913 C 83.0575 -1.85055 0.651845 0
M  V30 914 O 82.1825 -2.15498 -0.197359 0
M  V30 915 C 82.7775 -1.4404 3.06656 0
M  V30 916 C 81.3365 -1.95494 3.2165 0
M  V30 917 C 80.4835 -0.814506 2.65068 0
M  V30 918 H 83.4345 0.00139011 1.587 0
M  V30 919 H 83.4555 -2.30916 3.0242 0
M  V30 920 H 82.9675 -0.668543 3.82298 0
M  V30 921 H 81.0685 -2.75487 2.50874 0
M  V30 922 H 81.1815 -2.13607 4.28846 0
M  V30 923 H 79.5455 -1.22137 2.23505 0
M  V30 924 H 80.3285 -0.0553515 3.43255 0
M  V30 925 N 82.7736 -1.49793 -0.48987 0
M  V30 926 C 83.9986 -1.63836 -1.27172 0
M  V30 927 C 84.4236 -0.31402 -1.8546 0
M  V30 928 O 83.7816 0.719803 -1.66399 0
M  V30 929 C 83.8296 -2.71797 -2.36978 0
M  V30 930 O 82.9336 -2.31744 -3.41128 0
M  V30 931 H 82.2746 -0.547997 -0.37496 0
M  V30 932 H 84.8046 -1.96053 -0.585191 0
M  V30 933 H 84.8146 -2.94305 -2.82575 0
M  V30 934 H 83.4896 -3.67923 -1.93921 0
M  V30 935 H 82.0666 -2.1961 -3.01373 0
M  V30 936 N 84.2517 0.741722 -1.39055 0
M  V30 937 C 85.1817 1.869 -1.39966 0
M  V30 938 C 86.1627 1.6804 -0.26392 0
M  V30 939 O 87.3477 1.88458 -0.468755 0
M  V30 940 C 84.4777 3.24572 -1.23574 0
M  V30 941 C 83.4317 3.58056 -2.34477 0
M  V30 942 C 82.7577 4.94593 -2.0318 0
M  V30 943 C 84.0577 3.61716 -3.76774 0
M  V30 944 H 85.7517 1.86395 -2.34302 0
M  V30 945 H 83.2977 0.895361 -1.1278 0
M  V30 946 H 85.2507 4.031 -1.22834 0
M  V30 947 H 83.9747 3.25587 -0.257045 0
M  V30 948 H 82.6337 2.81854 -2.34423 0
M  V30 949 H 82.2817 4.92181 -1.03765 0
M  V30 950 H 81.9817 5.17964 -2.77465 0
M  V30 951 H 83.5057 5.75486 -2.04079 0
M  V30 952 H 84.9197 4.30335 -3.78794 0
M  V30 953 H 83.3167 3.96603 -4.50362 0
M  V30 954 H 84.3867 2.61672 -4.08235 0
M  V30 955 N 85.7298 1.2412 0.971189 0
M  V30 956 C 86.9548 1.10667 1.75407 0
M  V30 957 C 87.3798 -0.337048 1.85056 0
M  V30 958 O 86.7378 -1.24396 1.31892 0
M  V30 959 C 86.7858 1.74726 3.15441 0
M  V30 960 O 85.8898 1.01566 3.99697 0
M  V30 961 H 85.2308 0.387341 0.539317 0
M  V30 962 H 87.7608 1.64358 1.2185 0
M  V30 963 H 87.7708 1.80341 3.6598 0
M  V30 964 H 86.4458 2.79773 3.07734 0
M  V30 965 H 85.0228 1.03713 3.58187 0
M  V30 966 N 87.2079 -1.17134 1.05439 0
M  V30 967 C 88.1549 -2.21235 0.657539 0
M  V30 968 C 89.1249 -1.62551 -0.341543 0
M  V30 969 O 90.3099 -1.89379 -0.232393 0
M  V30 970 C 87.4499 -3.45076 0.0410575 0
M  V30 971 C 86.5629 -4.18042 1.08927 0
M  V30 972 C 85.6979 -5.29376 0.439848 0
M  V30 973 C 84.7369 -5.94132 1.4722 0
M  V30 974 N 83.8739 -6.96975 0.846756 0
M  V30 975 H 88.7139 -2.54534 1.54972 0
M  V30 976 H 86.2509 -1.25028 0.775006 0
M  V30 977 H 88.2089 -4.15862 -0.33383 0
M  V30 978 H 86.8389 -3.12353 -0.814568 0
M  V30 979 H 85.8909 -3.45945 1.58196 0
M  V30 980 H 87.2029 -4.62306 1.87282 0
M  V30 981 H 86.3569 -6.06699 0.0115125 0
M  V30 982 H 85.0959 -4.86251 -0.375656 0
M  V30 983 H 84.1009 -5.15538 1.91052 0
M  V30 984 H 85.3259 -6.39337 2.28965 0
M  V30 985 H 83.2719 -6.5598 0.0518075 0
M  V30 986 H 83.1889 -7.39565 1.5678 0
M  V30 987 H 84.4569 -7.78239 0.443277 0
M  V30 988 N 88.686 -0.835752 -1.33615 0
M  V30 989 C 90.097 -0.487099 -1.80234 0
M  V30 990 C 90.448 0.993627 -1.69179 0
M  V30 991 O 89.573 1.77403 -1.23924 0
M  V30 992 C 90.168 -0.877385 -3.27242 0
M  V30 993 C 88.727 -0.580915 -3.7189 0
M  V30 994 C 87.874 -1.0874 -2.5509 0
M  V30 995 H 90.825 -1.02474 -1.2118 0
M  V30 996 H 90.846 -0.186195 -3.80044 0
M  V30 997 H 90.358 -1.95512 -3.35256 0
M  V30 998 H 88.459 0.486881 -3.69405 0
M  V30 999 H 88.572 -1.13396 -4.65487 0
M  V30 1000 H 86.936 -0.508392 -2.49575 0
M  V30 1001 H 87.719 -2.17184 -2.65868 0
M  V30 1002 N 90.1641 1.46063 -0.591896 0
M  V30 1003 C 91.5751 1.85944 -0.167822 0
M  V30 1004 C 91.9261 1.49429 1.27143 0
M  V30 1005 O 91.0511 0.913515 1.96173 0
M  V30 1006 C 91.6461 3.37489 -0.297794 0
M  V30 1007 C 90.2051 3.76332 0.0714732 0
M  V30 1008 C 89.3521 2.7006 -0.629509 0
M  V30 1009 H 92.3031 1.37087 -0.799555 0
M  V30 1010 H 92.3241 3.77532 0.474349 0
M  V30 1011 H 91.8361 3.64034 -1.3454 0
M  V30 1012 H 89.9371 3.55405 1.11886 0
M  V30 1013 H 90.0501 4.78088 -0.311245 0
M  V30 1014 H 88.4141 2.54607 -0.0687867 0
M  V30 1015 H 89.1971 2.99444 -1.67894 0
M  V30 1016 N 91.6422 0.330177 1.54103 0
M  V30 1017 C 93.0582 -0.0222371 1.59585 0
M  V30 1018 C 93.2582 -1.49902 1.34654 0
M  V30 1019 O 92.3142 -2.25592 1.13421 0
M  V30 1020 C 93.6272 0.401932 2.98002 0
M  V30 1021 C 95.1752 0.353145 3.11001 0
M  V30 1022 C 95.6502 0.752576 4.51775 0
M  V30 1023 N 97.1412 0.706239 4.57784 0
M  V30 1024 C 97.8762 0.987417 5.64834 0
M  V30 1025 N 97.3722 1.33607 6.79795 0
M  V30 1026 N 99.1652 0.91254 5.54643 0
M  V30 1027 H 91.3162 1.29228 1.68564 0
M  V30 1028 H 93.5792 0.525906 0.78875 0
M  V30 1029 H 93.2852 1.4311 3.21267 0
M  V30 1030 H 93.1592 -0.229699 3.765 0
M  V30 1031 H 95.5462 -0.666822 2.87467 0
M  V30 1032 H 95.6272 1.0198 2.34593 0
M  V30 1033 H 95.2712 1.77049 4.76042 0
M  V30 1034 H 95.2012 0.0635409 5.26562 0
M  V30 1035 H 97.6922 0.44889 3.75224 0
M  V30 1036 H 98.0052 1.53582 7.57385 0
M  V30 1037 H 96.3502 1.37439 6.81275 0
M  V30 1038 H 99.5412 0.639601 4.6371 0
M  V30 1039 H 99.7142 1.13503 6.37982 0
M  V30 1040 N 93.1203 -1.57491 0.0584922 0
M  V30 1041 C 94.5313 -1.80526 -0.476138 0
M  V30 1042 C 94.8823 -0.971334 -1.70469 0
M  V30 1043 O 94.0073 -0.190012 -2.15564 0
M  V30 1044 C 94.6023 -3.27424 -0.870587 0
M  V30 1045 C 93.1613 -3.51351 -1.35015 0
M  V30 1046 C 92.3083 -2.75343 -0.32887 0
M  V30 1047 H 95.2593 -1.56133 0.284312 0
M  V30 1048 H 95.2803 -3.38745 -1.73299 0
M  V30 1049 H 94.7923 -3.88093 0.0237627 0
M  V30 1050 H 92.8933 -2.95971 -2.26345 0
M  V30 1051 H 93.0063 -4.60059 -1.33726 0
M  V30 1052 H 91.3703 -2.417 -0.803321 0
M  V30 1053 H 92.1533 -3.38743 0.557521 0
M  V30 1054 N 94.5984 0.214957 -1.56127 0
M  V30 1055 C 95.8264 0.955092 -1.83536 0
M  V30 1056 C 96.2414 1.77677 -0.638472 0
M  V30 1057 O 95.5984 1.78219 0.392968 0
M  V30 1058 C 95.6494 1.86734 -3.09536 0
M  V30 1059 O 95.3704 1.07887 -4.24608 0
M  V30 1060 C 96.8714 2.72082 -3.4998 0
M  V30 1061 H 94.0914 0.279611 -0.609966 0
M  V30 1062 H 96.6354 0.228197 -2.03223 0
M  V30 1063 H 94.7904 2.5481 -2.91806 0
M  V30 1064 H 95.2044 1.69872 -4.9623 0
M  V30 1065 H 96.6784 3.31782 -4.41163 0
M  V30 1066 H 97.1554 3.44806 -2.7204 0
M  V30 1067 H 97.7614 2.09409 -3.70173 0
M  V30 1068 N 96.0765 1.50051 0.48192 0
M  V30 1069 C 97.3015 1.64508 1.26301 0
M  V30 1070 C 97.7265 0.323851 1.85291 0
M  V30 1071 O 97.0845 -0.710969 1.66778 0
M  V30 1072 C 97.1325 2.7305 2.35533 0
M  V30 1073 O 96.2365 2.3355 3.39895 0
M  V30 1074 H 95.5775 0.549978 0.372048 0
M  V30 1075 H 98.1075 1.9636 0.574786 0
M  V30 1076 H 98.1175 2.95799 2.8101 0
M  V30 1077 H 96.7925 3.68946 1.91967 0
M  V30 1078 H 95.3695 2.21205 3.00204 0
M  V30 1079 N 97.5546 -0.734337 1.39446 0
M  V30 1080 C 98.5016 -1.84835 1.38219 0
M  V30 1081 C 99.4716 -1.64331 0.24179 0
M  V30 1082 O 100.657 -1.85728 0.437002 0
M  V30 1083 C 97.7966 -3.22355 1.23212 0
M  V30 1084 C 96.9096 -3.5456 2.46801 0
M  V30 1085 C 96.0446 -4.81485 2.24377 0
M  V30 1086 C 95.0836 -5.06536 3.43639 0
M  V30 1087 N 94.2206 -6.24665 3.20528 0
M  V30 1088 H 99.0606 -1.85219 2.33448 0
M  V30 1089 H 96.5976 -0.905039 1.15963 0
M  V30 1090 H 98.5556 -4.0174 1.12522 0
M  V30 1091 H 97.1856 -3.21248 0.316121 0
M  V30 1092 H 96.2376 -2.69872 2.68092 0
M  V30 1093 H 97.5496 -3.6899 3.3563 0
M  V30 1094 H 96.7036 -5.68852 2.10933 0
M  V30 1095 H 95.4426 -4.6923 1.32944 0
M  V30 1096 H 94.4476 -4.17632 3.5758 0
M  V30 1097 H 95.6726 -5.20676 4.35974 0
M  V30 1098 H 93.6186 -6.13696 2.3176 0
M  V30 1099 H 93.5356 -6.39685 4.02913 0
M  V30 1100 H 94.8036 -7.14868 3.10779 0
M  V30 1101 N 99.0327 -1.24633 -0.964593 0
M  V30 1102 C 100.263 -1.11339 -1.74032 0
M  V30 1103 C 100.671 0.336593 -1.86182 0
M  V30 1104 O 100.014 1.24389 -1.35178 0
M  V30 1105 C 100.076 -1.68284 -3.1768 0
M  V30 1106 C 99.7397 -3.17196 -3.28992 0
M  V30 1107 C 100.737 -4.14308 -3.14078 0
M  V30 1108 C 98.4217 -3.57215 -3.53133 0
M  V30 1109 C 100.416 -5.4942 -3.23135 0
M  V30 1110 C 98.1027 -4.92468 -3.61827 0
M  V30 1111 C 99.1007 -5.8838 -3.46841 0
M  V30 1112 O 98.7887 -7.21173 -3.55197 0
M  V30 1113 H 98.5207 -0.389551 -0.552472 0
M  V30 1114 H 101.075 -1.65282 -1.21946 0
M  V30 1115 H 99.3047 -1.08777 -3.71085 0
M  V30 1116 H 100.994 -1.50234 -3.77074 0
M  V30 1117 H 101.76 -3.84731 -2.95308 0
M  V30 1118 H 97.6387 -2.83063 -3.63863 0
M  V30 1119 H 101.183 -6.24263 -3.11355 0
M  V30 1120 H 97.0797 -5.21714 -3.80111 0
M  V30 1121 H 97.8477 -7.29135 -3.71892 0
M  V30 1122 N 100.511 1.16574 -1.06058 0
M  V30 1123 C 101.443 2.2045 -0.627239 0
M  V30 1124 C 102.456 1.59752 0.313534 0
M  V30 1125 O 103.645 1.78192 0.104896 0
M  V30 1126 C 100.745 3.3875 0.100974 0
M  V30 1127 C 99.9178 4.29008 -0.852687 0
M  V30 1128 C 98.9768 5.25944 -0.164152 0
M  V30 1129 O 98.0028 5.63535 -0.801047 0
M  V30 1130 N 99.2048 5.70075 1.09518 0
M  V30 1131 H 101.97 2.58249 -1.52077 0
M  V30 1132 H 99.5308 1.3156 -0.943594 0
M  V30 1133 H 101.523 4.00638 0.57194 0
M  V30 1134 H 100.093 2.99476 0.89628 0
M  V30 1135 H 99.3128 3.64419 -1.50308 0
M  V30 1136 H 100.601 4.86195 -1.49972 0
M  V30 1137 H 99.9988 5.41624 1.6328 0
M  V30 1138 H 98.5558 6.34067 1.51006 0
M  V30 1139 N 101.989 0.842826 1.3317 0
M  V30 1140 C 103.214 0.453129 2.02389 0
M  V30 1141 C 103.639 -0.939105 1.6298 0
M  V30 1142 O 102.997 -1.61472 0.8244 0
M  V30 1143 C 103.045 0.586094 3.55805 0
M  V30 1144 O 102.149 -0.386029 4.10589 0
M  V30 1145 H 101.49 0.183664 0.638094 0
M  V30 1146 H 104.02 1.13875 1.69981 0
M  V30 1147 H 104.03 0.469209 4.05293 0
M  V30 1148 H 102.705 1.6014 3.83833 0
M  V30 1149 H 101.282 -0.226371 3.72212 0
M  V30 1150 N 103.467 -1.45747 0.599634 0
M  V30 1151 C 104.697 -2.06369 0.0977132 0
M  V30 1152 C 105.105 -1.44624 -1.21985 0
M  V30 1153 O 104.448 -0.551831 -1.75216 0
M  V30 1154 C 104.51 -3.59284 -0.124673 0
M  V30 1155 C 104.174 -4.43318 1.10987 0
M  V30 1156 C 105.171 -4.78796 2.02609 0
M  V30 1157 C 102.856 -4.84194 1.33647 0
M  V30 1158 C 104.85 -5.53997 3.15224 0
M  V30 1159 C 102.537 -5.5915 2.46565 0
M  V30 1160 C 103.535 -5.93968 3.37182 0
M  V30 1161 O 103.223 -6.67405 4.48136 0
M  V30 1162 H 102.955 -0.673122 0.0623153 0
M  V30 1163 H 105.509 -1.88104 0.824981 0
M  V30 1164 H 103.739 -3.75919 -0.906745 0
M  V30 1165 H 105.428 -4.01775 -0.577201 0
M  V30 1166 H 106.194 -4.47781 1.86325 0
M  V30 1167 H 102.073 -4.56534 0.64016 0
M  V30 1168 H 105.617 -5.81091 3.85978 0
M  V30 1169 H 101.514 -5.89579 2.62805 0
M  V30 1170 H 102.282 -6.85847 4.46717 0
M  V30 1171 N 104.945 -0.338344 -1.53925 0
M  V30 1172 C 106.175 0.260919 -2.04946 0
M  V30 1173 C 106.583 1.45174 -1.2133 0
M  V30 1174 O 105.926 1.82122 -0.240262 0
M  V30 1175 C 105.988 0.744596 -3.51704 0
M  V30 1176 C 105.652 -0.325883 -4.55837 0
M  V30 1177 C 106.649 -1.16687 -5.06636 0
M  V30 1178 C 104.334 -0.478317 -5.00017 0
M  V30 1179 C 106.328 -2.14588 -6.00192 0
M  V30 1180 C 104.015 -1.46073 -5.93385 0
M  V30 1181 C 105.013 -2.29297 -6.4336 0
M  V30 1182 O 104.701 -3.25867 -7.34892 0
M  V30 1183 H 104.433 0.0551207 -0.673749 0
M  V30 1184 H 106.987 -0.486984 -1.99544 0
M  V30 1185 H 105.217 1.54366 -3.54553 0
M  V30 1186 H 106.906 1.26383 -3.85723 0
M  V30 1187 H 107.672 -1.06016 -4.73271 0
M  V30 1188 H 103.551 0.159613 -4.60724 0
M  V30 1189 H 107.095 -2.79585 -6.39123 0
M  V30 1190 H 102.992 -1.56802 -6.26166 0
M  V30 1191 H 103.76 -3.21278 -7.5281 0
M  V30 1192 N 106.423 1.57458 -0.0668435 0
M  V30 1193 C 107.7 1.8469 0.644132 0
M  V30 1194 C 108.08 0.958343 1.88093 0
M  V30 1195 O 107.428 0.0233579 2.28488 0
M  V30 1196 C 107.638 3.34767 0.986509 0
M  V30 1197 C 108.986 4.02159 1.36212 0
M  V30 1198 O 110.01 3.39484 1.07839 0
M  V30 1199 O 108.869 5.12694 1.89227 0
M  V30 1200 H 105.963 0.762816 0.319437 0
M  V30 1201 H 108.509 1.6942 -0.0973986 0
M  V30 1202 H 107.281 3.91151 0.107883 0
M  V30 1203 H 106.904 3.55281 1.78497 0
M  V30 1204 N 107.901 -0.206675 1.56239 0
M  V30 1205 C 109.312 -0.772383 1.69974 0
M  V30 1206 C 109.663 -1.84353 0.671436 0
M  V30 1207 O 108.788 -2.15695 -0.174491 0
M  V30 1208 C 109.383 -1.40779 3.08167 0
M  V30 1209 C 107.942 -1.92072 3.23706 0
M  V30 1210 C 107.089 -0.786347 2.65917 0
M  V30 1211 H 110.04 0.0182223 1.5869 0
M  V30 1212 H 110.061 -2.27696 3.04852 0
M  V30 1213 H 109.573 -0.627958 3.82986 0
M  V30 1214 H 107.674 -2.7281 2.53782 0
M  V30 1215 H 107.787 -2.09046 4.31087 0
M  V30 1216 H 106.151 -1.1976 2.24788 0
M  V30 1217 H 106.934 -0.0189416 3.43295 0
M  V30 1218 N 109.379 -1.50304 -0.473955 0
M  V30 1219 C 110.604 -1.65175 -1.25427 0
M  V30 1220 C 111.029 -0.333673 -1.85117 0
M  V30 1221 O 110.387 0.702114 -1.67153 0
M  V30 1222 C 110.435 -2.74295 -2.34082 0
M  V30 1223 O 109.539 -2.35349 -3.38651 0
M  V30 1224 H 108.88 -0.551944 -0.369126 0
M  V30 1225 H 111.41 -1.96662 -0.564364 0
M  V30 1226 H 111.42 -2.97285 -2.79438 0
M  V30 1227 H 110.095 -3.69959 -1.90008 0
M  V30 1228 H 108.672 -2.22794 -2.99027 0
M  V30 1229 N 110.857 0.726932 -1.39834 0
M  V30 1230 C 112.087 1.51393 -1.40583 0
M  V30 1231 C 112.495 1.892 -0.000740625 0
M  V30 1232 O 111.838 1.55189 0.982951 0
M  V30 1233 C 111.9 2.82588 -2.22226 0
M  V30 1234 C 111.564 2.67169 -3.70769 0
M  V30 1235 C 112.561 2.3518 -4.63666 0
M  V30 1236 C 110.246 2.83788 -4.14451 0
M  V30 1237 C 112.24 2.20002 -5.98229 0
M  V30 1238 C 109.927 2.68229 -5.49087 0
M  V30 1239 C 110.925 2.36382 -6.4079 0
M  V30 1240 O 110.613 2.2093 -7.72946 0
M  V30 1241 H 110.345 0.474168 -0.48181 0
M  V30 1242 H 112.899 0.905247 -1.84376 0
M  V30 1243 H 111.129 3.45746 -1.73195 0
M  V30 1244 H 112.818 3.44247 -2.15055 0
M  V30 1245 H 113.584 2.21984 -4.31217 0
M  V30 1246 H 109.463 3.07566 -3.43401 0
M  V30 1247 H 113.007 1.95067 -6.69772 0
M  V30 1248 H 108.904 2.81006 -5.81125 0
M  V30 1249 H 109.672 2.35937 -7.83757 0
M  V30 1250 N 112.336 1.25143 0.95797 0
M  V30 1251 C 113.266 1.07711 2.07173 0
M  V30 1252 C 114.247 -0.0128462 1.70095 0
M  V30 1253 O 115.432 0.156061 1.93572 0
M  V30 1254 C 112.562 0.691503 3.40346 0
M  V30 1255 C 111.516 1.73132 3.9142 0
M  V30 1256 C 110.842 1.20049 5.21049 0
M  V30 1257 C 112.142 3.1294 4.1817 0
M  V30 1258 H 113.836 2.00873 2.22014 0
M  V30 1259 H 111.382 0.967191 1.06684 0
M  V30 1260 H 113.335 0.556505 4.17709 0
M  V30 1261 H 112.059 -0.275819 3.25433 0
M  V30 1262 H 110.718 1.8547 3.16222 0
M  V30 1263 H 110.366 0.223499 5.02503 0
M  V30 1264 H 110.066 1.89545 5.56189 0
M  V30 1265 H 111.59 1.07782 6.01012 0
M  V30 1266 H 113.004 3.03775 4.86203 0
M  V30 1267 H 111.401 3.79875 4.64559 0
M  V30 1268 H 112.471 3.6025 3.24573 0
M  V30 1269 N 113.814 -1.1601 1.06675 0
M  V30 1270 C 115.039 -1.91068 0.806706 0
M  V30 1271 C 115.464 -1.77112 -0.633485 0
M  V30 1272 O 114.822 -1.09908 -1.44187 0
M  V30 1273 C 114.87 -3.39655 1.21106 0
M  V30 1274 O 113.974 -4.10893 0.352189 0
M  V30 1275 H 113.315 -0.595125 0.294486 0
M  V30 1276 H 115.845 -1.46955 1.42356 0
M  V30 1277 H 115.855 -3.90434 1.18428 0
M  V30 1278 H 114.53 -3.49132 2.26008 0
M  V30 1279 H 113.107 -3.70285 0.440868 0
M  V30 1280 N 115.292 -0.849877 -1.32721 0
M  V30 1281 C 116.52 -0.464754 -2.01613 0
M  V30 1282 C 116.935 0.937191 -1.63897 0
M  V30 1283 O 116.292 1.61081 -0.857856 0
M  V30 1284 C 116.343 -0.588638 -3.56675 0
M  V30 1285 O 116.064 -1.93535 -3.93034 0
M  V30 1286 C 117.565 -0.2019 -4.4284 0
M  V30 1287 H 114.785 -0.183215 -0.645502 0
M  V30 1288 H 117.329 -1.1455 -1.69407 0
M  V30 1289 H 115.484 0.0443159 -3.87375 0
M  V30 1290 H 115.898 -1.92871 -4.87751 0
M  V30 1291 H 117.372 -0.339599 -5.50954 0
M  V30 1292 H 117.849 0.857224 -4.30753 0
M  V30 1293 H 118.455 -0.809733 -4.17521 0
M  V30 1294 N 116.77 1.45427 -0.607355 0
M  V30 1295 C 118.047 1.9557 -0.0344566 0
M  V30 1296 C 118.427 1.54979 1.43334 0
M  V30 1297 O 117.775 0.812241 2.13576 0
M  V30 1298 C 117.985 3.48226 -0.232321 0
M  V30 1299 C 119.333 4.2445 -0.113001 0
M  V30 1300 O 120.357 3.55829 -0.162431 0
M  V30 1301 O 119.216 5.465 0.00209442 0
M  V30 1302 H 116.31 0.826222 0.0358667 0
M  V30 1303 H 118.856 1.55594 -0.6774 0
M  V30 1304 H 117.628 3.70739 -1.25174 0
M  V30 1305 H 117.251 3.95092 0.445896 0
M  V30 1306 N 118.248 0.346503 1.53744 0
M  V30 1307 C 119.158 -0.517293 2.28826 0
M  V30 1308 C 120.174 -1.10935 1.3405 0
M  V30 1309 O 121.35 -1.1244 1.6709 0
M  V30 1310 C 118.415 -1.65098 3.04866 0
M  V30 1311 C 117.476 -1.0884 4.15274 0
M  V30 1312 C 116.709 -2.16806 4.87679 0
M  V30 1313 O 116.932 -3.3758 4.59778 0
M  V30 1314 O 115.866 -1.80934 5.74061 0
M  V30 1315 H 119.692 0.0931396 3.03557 0
M  V30 1316 H 117.277 0.111458 1.48984 0
M  V30 1317 H 119.159 -2.31053 3.5241 0
M  V30 1318 H 117.834 -2.24717 2.32989 0
M  V30 1319 H 116.741 -0.3933 3.72027 0
M  V30 1320 H 118.074 -0.537036 4.89261 0
M  V30 1321 N 119.726 -1.57421 0.075193 0
M  V30 1322 C 120.658 -2.09904 -0.920483 0
M  V30 1323 C 121.671 -1.03191 -1.25918 0
M  V30 1324 O 122.86 -1.30695 -1.21577 0
M  V30 1325 C 119.96 -2.54726 -2.23534 0
M  V30 1326 C 119.133 -3.8505 -2.07498 0
M  V30 1327 C 118.192 -4.15929 -3.22319 0
M  V30 1328 O 117.218 -4.85474 -2.9716 0
M  V30 1329 N 118.42 -3.69745 -4.47514 0
M  V30 1330 H 121.185 -2.95954 -0.472359 0
M  V30 1331 H 118.746 -1.61523 -0.110444 0
M  V30 1332 H 120.738 -2.72443 -2.9926 0
M  V30 1333 H 119.308 -1.73795 -2.59835 0
M  V30 1334 H 118.528 -3.76679 -1.16219 0
M  V30 1335 H 119.816 -4.70348 -1.94038 0
M  V30 1336 H 119.214 -3.13569 -4.7084 0
M  V30 1337 H 117.771 -3.92655 -5.20255 0
M  V30 1338 N 121.204 0.198386 -1.56346 0
M  V30 1339 C 122.151 1.24589 -1.94284 0
M  V30 1340 C 123.121 1.454 -0.802997 0
M  V30 1341 O 124.306 1.58588 -1.06087 0
M  V30 1342 C 121.446 2.58631 -2.28482 0
M  V30 1343 C 120.559 2.45426 -3.55514 0
M  V30 1344 C 119.694 3.7215 -3.79049 0
M  V30 1345 C 118.733 3.53763 -4.99518 0
M  V30 1346 N 117.87 4.72491 -5.19323 0
M  V30 1347 H 122.71 0.915356 -2.83593 0
M  V30 1348 H 120.247 0.440629 -1.40346 0
M  V30 1349 H 122.205 3.3672 -2.46324 0
M  V30 1350 H 120.835 2.89734 -1.42317 0
M  V30 1351 H 119.887 1.58652 -3.45737 0
M  V30 1352 H 121.199 2.27772 -4.43758 0
M  V30 1353 H 120.353 4.58679 -3.97113 0
M  V30 1354 H 119.092 3.92754 -2.89129 0
M  V30 1355 H 118.097 2.65619 -4.8138 0
M  V30 1356 H 119.322 3.34607 -5.90944 0
M  V30 1357 H 117.268 4.93365 -4.3235 0
M  V30 1358 H 117.185 4.5765 -6.01741 0
M  V30 1359 H 118.453 5.6038 -5.41843 0
M  V30 1360 N 122.682 1.50554 0.465978 0
M  V30 1361 C 123.959 1.5232 1.22712 0
M  V30 1362 C 124.339 0.270807 2.09356 0
M  V30 1363 O 123.687 -0.745541 2.15995 0
M  V30 1364 C 123.897 2.82175 2.05374 0
M  V30 1365 C 125.245 3.33033 2.6339 0
M  V30 1366 O 126.269 2.83531 2.15612 0
M  V30 1367 O 125.128 4.19336 3.50456 0
M  V30 1368 H 122.222 0.611183 0.557122 0
M  V30 1369 H 124.768 1.62847 0.477381 0
M  V30 1370 H 123.54 3.64797 1.41558 0
M  V30 1371 H 123.163 2.74675 2.87471 0
M  V30 1372 N 124.16 -0.719506 1.40217 0
M  V30 1373 C 125.388 -1.50864 1.41589 0
M  V30 1374 C 125.803 -1.88794 0.0145275 0
M  V30 1375 O 125.16 -1.55174 -0.960594 0
M  V30 1376 C 125.211 -2.78646 2.30302 0
M  V30 1377 O 124.932 -2.42321 3.64983 0
M  V30 1378 C 126.433 -3.72569 2.40224 0
M  V30 1379 H 123.653 -0.465709 0.48307 0
M  V30 1380 H 126.197 -0.88785 1.84221 0
M  V30 1381 H 124.352 -3.37019 1.91042 0
M  V30 1382 H 124.766 -3.24514 4.12057 0
M  V30 1383 H 126.24 -4.5908 3.06512 0
M  V30 1384 H 126.717 -4.15403 1.42608 0
M  V30 1385 H 127.323 -3.20109 2.80019 0
M  V30 1386 N 125.638 -1.25649 -0.95132 0
M  V30 1387 C 126.885 -1.10594 -1.69633 0
M  V30 1388 C 127.213 0.352515 -1.91279 0
M  V30 1389 O 126.468 1.27601 -1.4838 0
M  V30 1390 C 126.767 -1.80909 -3.08231 0
M  V30 1391 C 126.433 -3.30825 -3.06375 0
M  V30 1392 C 125.095 -3.71722 -3.05576 0
M  V30 1393 C 127.447 -4.26589 -2.99452 0
M  V30 1394 C 124.775 -5.06788 -2.95606 0
M  V30 1395 C 127.127 -5.61683 -2.91024 0
M  V30 1396 C 125.791 -6.01904 -2.88562 0
M  V30 1397 H 125.061 -0.404691 -0.620731 0
M  V30 1398 H 127.708 -1.55964 -1.11119 0
M  V30 1399 H 126.013 -1.27979 -3.70309 0
M  V30 1400 H 127.71 -1.6671 -3.64704 0
M  V30 1401 H 124.3 -2.98287 -3.07771 0
M  V30 1402 H 128.484 -3.95982 -2.99185 0
M  V30 1403 H 123.74 -5.37126 -2.92071 0
M  V30 1404 H 127.914 -6.35578 -2.84629 0
M  V30 1405 H 125.541 -7.06521 -2.80593 0
M  V30 1406 N 127.117 1.15442 -1.07289 0
M  V30 1407 C 128.047 2.22312 -0.714107 0
M  V30 1408 C 129.028 1.67467 0.298155 0
M  V30 1409 O 130.213 1.93445 0.171048 0
M  V30 1410 C 127.343 3.47124 -0.110448 0
M  V30 1411 C 126.297 4.14926 -1.04979 0
M  V30 1412 C 125.623 5.33807 -0.308924 0
M  V30 1413 C 126.923 4.64762 -2.38314 0
M  V30 1414 H 128.617 2.5258 -1.6076 0
M  V30 1415 H 126.163 1.21404 -0.77441 0
M  V30 1416 H 128.116 4.21124 0.152482 0
M  V30 1417 H 126.84 3.16187 0.81812 0
M  V30 1418 H 125.499 3.42866 -1.29764 0
M  V30 1419 H 125.147 4.99126 0.623084 0
M  V30 1420 H 124.847 5.80113 -0.935036 0
M  V30 1421 H 126.371 6.10576 -0.0537771 0
M  V30 1422 H 127.785 5.30292 -2.1786 0
M  V30 1423 H 126.182 5.21728 -2.96514 0
M  V30 1424 H 127.252 3.80434 -3.00663 0
M  V30 1425 N 128.595 0.856903 1.32268 0
M  V30 1426 C 129.542 0.301172 2.28827 0
M  V30 1427 C 130.512 -0.593104 1.5515 0
M  V30 1428 O 131.697 -0.527537 1.83362 0
M  V30 1429 C 128.837 -0.502523 3.41422 0
M  V30 1430 C 127.95 0.417797 4.29975 0
M  V30 1431 C 127.085 -0.398749 5.29701 0
M  V30 1432 C 126.124 0.518827 6.09897 0
M  V30 1433 N 125.261 -0.260674 7.01616 0
M  V30 1434 H 130.101 1.12983 2.75751 0
M  V30 1435 H 127.638 0.568582 1.35667 0
M  V30 1436 H 129.596 -0.984141 4.05426 0
M  V30 1437 H 128.226 -1.29599 2.95642 0
M  V30 1438 H 127.278 1.01781 3.66531 0
M  V30 1439 H 128.59 1.12191 4.86019 0
M  V30 1440 H 127.744 -0.943435 5.9932 0
M  V30 1441 H 126.483 -1.13622 4.7428 0
M  V30 1442 H 125.488 1.07538 5.39181 0
M  V30 1443 H 126.713 1.25495 6.67404 0
M  V30 1444 H 124.659 -0.981198 6.4862 0
M  V30 1445 H 124.576 0.384364 7.55022 0
M  V30 1446 H 125.844 -0.787014 7.75517 0
M  V30 1447 N 130.073 -1.45103 0.615059 0
M  V30 1448 C 131.321 -2.01784 0.112955 0
M  V30 1449 C 131.642 -1.48504 -1.26378 0
M  V30 1450 O 130.912 -0.682245 -1.83636 0
M  V30 1451 H 129.492 -0.745993 0.0387668 0
M  V30 1452 H 132.154 -1.77808 0.798141 0
M  V30 1453 H 131.25 -3.12025 0.0684069 0
M  V30 1454 N 131.551 -0.354651 -1.53558 0
M  V30 1455 C 132.8 0.239504 -2.00273 0
M  V30 1456 C 133.113 1.50759 -1.24623 0
M  V30 1457 O 134.319 2.17968 -1.61871 0
M  V30 1458 C 132.775 0.477341 -3.5672 0
M  V30 1459 C 132.383 -0.775488 -4.41237 0
M  V30 1460 C 134.127 1.02975 -4.11821 0
M  V30 1461 C 132.034 -0.507838 -5.89216 0
M  V30 1462 H 130.964 0.0932743 -0.748208 0
M  V30 1463 H 133.615 -0.471701 -1.77334 0
M  V30 1464 H 131.997 1.24953 -3.7577 0
M  V30 1465 H 133.171 -1.54963 -4.33962 0
M  V30 1466 H 131.486 -1.25033 -3.97185 0
M  V30 1467 H 134.083 1.24513 -5.2 0
M  V30 1468 H 134.426 1.98862 -3.65731 0
M  V30 1469 H 134.959 0.317994 -3.96527 0
M  V30 1470 H 131.698 -1.43674 -6.39561 0
M  V30 1471 H 131.218 0.228011 -5.99366 0
M  V30 1472 H 132.897 -0.129238 -6.46871 0
M  V30 1473 N 133.029 1.57378 -0.0835403 0
M  V30 1474 C 134.278 1.93106 0.582498 0
M  V30 1475 C 134.591 0.96651 1.70053 0
M  V30 1476 O 135.797 1.21705 2.42693 0
M  V30 1477 C 134.253 3.43076 1.08751 0
M  V30 1478 C 133.861 4.48 -0.000146404 0
M  V30 1479 C 135.605 3.87785 1.72694 0
M  V30 1480 C 133.512 5.89113 0.519568 0
M  V30 1481 H 132.442 0.720775 0.221358 0
M  V30 1482 H 135.093 1.82821 -0.157675 0
M  V30 1483 H 133.475 3.48474 1.88101 0
M  V30 1484 H 134.649 4.54233 -0.775199 0
M  V30 1485 H 132.964 4.1283 -0.54406 0
M  V30 1486 H 135.561 4.90604 2.1263 0
M  V30 1487 H 135.904 3.25796 2.59158 0
M  V30 1488 H 136.437 3.8504 0.999457 0
M  V30 1489 H 133.176 6.54775 -0.308186 0
M  V30 1490 H 132.696 5.86376 1.26188 0
M  V30 1491 H 134.375 6.39346 0.992237 0
M  V30 1492 N 134.507 -0.190092 1.56449 0
M  V30 1493 C 135.454 -1.23557 1.94942 0
M  V30 1494 C 136.424 -1.44972 0.810696 0
M  V30 1495 O 137.609 -1.58023 1.06927 0
M  V30 1496 C 134.749 -2.57416 2.2985 0
M  V30 1497 C 133.862 -2.43537 3.5681 0
M  V30 1498 C 132.997 -3.70134 3.81017 0
M  V30 1499 C 132.036 -3.51109 5.01387 0
M  V30 1500 N 131.173 -4.6973 5.21822 0
M  V30 1501 H 136.013 -0.900304 2.84075 0
M  V30 1502 H 133.55 -0.43318 1.40577 0
M  V30 1503 H 135.508 -3.35409 2.48106 0
M  V30 1504 H 134.138 -2.88975 1.43852 0
M  V30 1505 H 133.19 -1.56816 3.46573 0
M  V30 1506 H 134.502 -2.25415 4.4496 0
M  V30 1507 H 133.656 -4.56566 3.9954 0
M  V30 1508 H 132.395 -3.91215 2.91207 0
M  V30 1509 H 131.4 -2.63063 4.82782 0
M  V30 1510 H 132.625 -3.31468 5.9271 0
M  V30 1511 H 130.571 -4.91065 4.34961 0
M  V30 1512 H 130.488 -4.54452 6.0416 0
M  V30 1513 H 131.756 -5.57499 5.44808 0
M  V30 1514 N 135.985 -1.50799 -0.457987 0
M  V30 1515 C 136.915 -1.73553 -1.5621 0
M  V30 1516 C 137.896 -0.584774 -1.59732 0
M  V30 1517 O 139.081 -0.825314 -1.7579 0
M  V30 1518 C 136.211 -1.84169 -2.94447 0
M  V30 1519 C 135.165 -2.99461 -3.0579 0
M  V30 1520 C 134.491 -2.95235 -4.45803 0
M  V30 1521 C 135.791 -4.39766 -2.81786 0
M  V30 1522 H 137.485 -2.66 -1.37421 0
M  V30 1523 H 135.031 -1.28002 -0.659662 0
M  V30 1524 H 136.984 -1.98672 -3.71628 0
M  V30 1525 H 135.708 -0.883545 -3.14422 0
M  V30 1526 H 134.367 -2.8463 -2.31044 0
M  V30 1527 H 134.015 -1.97239 -4.62715 0
M  V30 1528 H 133.715 -3.72642 -4.54326 0
M  V30 1529 H 135.239 -3.11803 -5.24987 0
M  V30 1530 H 136.653 -4.55054 -3.4871 0
M  V30 1531 H 135.05 -5.18722 -3.0174 0
M  V30 1532 H 136.12 -4.51229 -1.7754 0
M  V30 1533 N 137.463 0.71206 -1.40597 0
M  V30 1534 C 138.71 1.47197 -1.39065 0
M  V30 1535 C 139.038 1.94499 0.00583891 0
M  V30 1536 O 138.293 1.68752 0.99102 0
M  V30 1537 C 138.592 2.71039 -2.32965 0
M  V30 1538 C 138.258 2.42484 -3.80148 0
M  V30 1539 C 136.92 2.34406 -4.20247 0
M  V30 1540 C 139.272 2.18598 -4.73143 0
M  V30 1541 C 136.6 2.00516 -5.51371 0
M  V30 1542 C 138.952 1.8622 -6.0457 0
M  V30 1543 C 137.616 1.76626 -6.43708 0
M  V30 1544 H 136.886 0.538634 -0.508876 0
M  V30 1545 H 139.533 0.815325 -1.73276 0
M  V30 1546 H 137.838 3.41558 -1.91951 0
M  V30 1547 H 139.535 3.29138 -2.29061 0
M  V30 1548 H 136.125 2.49659 -3.4838 0
M  V30 1549 H 140.309 2.23793 -4.42979 0
M  V30 1550 H 135.565 1.91628 -5.80593 0
M  V30 1551 H 139.739 1.66752 -6.76141 0
M  V30 1552 H 137.366 1.50133 -7.45228 0
M  V30 1553 N 138.941 1.26152 0.944643 0
M  V30 1554 C 139.888 1.07408 2.04285 0
M  V30 1555 C 140.858 -0.0198413 1.66088 0
M  V30 1556 O 142.043 0.139264 1.90291 0
M  V30 1557 C 139.183 0.70945 3.37729 0
M  V30 1558 C 138.296 1.87926 3.88983 0
M  V30 1559 C 137.431 1.45807 5.10797 0
M  V30 1560 C 136.47 2.5964 5.54305 0
M  V30 1561 N 135.607 2.18226 6.67324 0
M  V30 1562 H 140.447 2.01389 2.1965 0
M  V30 1563 H 137.984 1.00275 1.07626 0
M  V30 1564 H 139.942 0.478948 4.14442 0
M  V30 1565 H 138.572 -0.193389 3.2222 0
M  V30 1566 H 137.624 2.22279 3.08701 0
M  V30 1567 H 138.936 2.73377 4.17213 0
M  V30 1568 H 138.09 1.18781 5.94959 0
M  V30 1569 H 136.829 0.574414 4.84305 0
M  V30 1570 H 135.834 2.87399 4.68702 0
M  V30 1571 H 137.059 3.48599 5.828 0
M  V30 1572 H 135.005 1.3229 6.42523 0
M  V30 1573 H 134.922 2.97221 6.95123 0
M  V30 1574 H 136.19 1.94403 7.54869 0
M  V30 1575 N 140.419 -1.14872 1.07899 0
M  V30 1576 C 141.835 -1.37776 0.805606 0
M  V30 1577 C 142.035 -1.92743 -0.587555 0
M  V30 1578 O 141.091 -2.13678 -1.34528 0
M  V30 1579 C 142.404 -2.34361 1.88402 0
M  V30 1580 C 143.952 -2.48012 1.90942 0
M  V30 1581 C 144.427 -3.47893 2.97883 0
M  V30 1582 N 145.918 -3.55433 2.97021 0
M  V30 1583 C 146.653 -4.32553 3.76412 0
M  V30 1584 N 146.149 -5.12959 4.65666 0
M  V30 1585 N 147.942 -4.27697 3.64735 0
M  V30 1586 H 140.093 -0.775365 1.97742 0
M  V30 1587 H 142.356 -0.403521 0.857831 0
M  V30 1588 H 142.062 -2.01098 2.88535 0
M  V30 1589 H 141.936 -3.34206 1.74889 0
M  V30 1590 H 144.323 -2.8057 0.914579 0
M  V30 1591 H 144.404 -1.48147 2.08534 0
M  V30 1592 H 144.048 -3.16069 3.97571 0
M  V30 1593 H 143.978 -4.47527 2.77538 0
M  V30 1594 H 146.469 -2.98048 2.32326 0
M  V30 1595 H 146.782 -5.69065 5.22862 0
M  V30 1596 H 145.127 -5.12245 4.69712 0
M  V30 1597 H 148.318 -3.63949 2.94378 0
M  V30 1598 H 148.491 -4.8755 4.26848 0
M  V30 1599 N 141.898 -0.863906 -1.31812 0
M  V30 1600 C 143.147 -0.46801 -1.96195 0
M  V30 1601 C 143.46 0.983474 -1.69077 0
M  V30 1602 O 144.666 1.48523 -2.27273 0
M  V30 1603 C 143.122 -0.785995 -3.51212 0
M  V30 1604 C 142.73 -2.25383 -3.87178 0
M  V30 1605 C 144.474 -0.458274 -4.22019 0
M  V30 1606 C 142.381 -2.51455 -5.3528 0
M  V30 1607 H 141.311 -0.171283 -0.734287 0
M  V30 1608 H 143.962 -1.05597 -1.50072 0
M  V30 1609 H 142.344 -0.127359 -3.95795 0
M  V30 1610 H 143.518 -2.95502 -3.53575 0
M  V30 1611 H 141.833 -2.54698 -3.2942 0
M  V30 1612 H 144.43 -0.630369 -5.30971 0
M  V30 1613 H 144.773 0.600834 -4.11941 0
M  V30 1614 H 145.306 -1.07319 -3.8305 0
M  V30 1615 H 142.045 -3.56025 -5.50387 0
M  V30 1616 H 141.565 -1.85923 -5.70257 0
M  V30 1617 H 143.244 -2.35874 -6.02472 0
M  V30 1618 N 143.376 1.44774 -0.622745 0
M  V30 1619 C 144.324 2.32387 0.0994683 0
M  V30 1620 C 145.318 1.46859 0.844326 0
M  V30 1621 O 146.524 1.63254 0.758174 0
M  V30 1622 H 142.899 0.750273 0.0509291 0
M  V30 1623 H 144.87 2.91062 -0.65767 0
M  V30 1624 C 143.619 3.30723 1.07319 0
M  V30 1625 H 142.942 3.96541 0.509462 0
M  V30 1626 H 144.382 3.94725 1.54817 0
M  V30 1627 C 142.841 2.59021 2.15429 0
M  V30 1628 O 143.371 2.38286 3.23393 0
M  V30 1629 N 141.577 2.189 1.91131 0
M  V30 1630 H 141.124 2.35964 1.03337 0
M  V30 1631 H 141.082 1.71251 2.63668 0
M  V30 1632 N 144.854 0.36279 1.53368 0
M  V30 1633 C 145.764 -0.492994 2.29362 0
M  V30 1634 C 146.78 -1.09507 1.35219 0
M  V30 1635 O 147.956 -1.10662 1.68273 0
M  V30 1636 C 145.021 -1.61855 3.066 0
M  V30 1637 C 144.082 -1.04429 4.16405 0
M  V30 1638 C 143.315 -2.11621 4.89951 0
M  V30 1639 O 143.538 -3.32684 4.63333 0
M  V30 1640 O 142.472 -1.74835 5.75948 0
M  V30 1641 H 146.298 0.125331 3.03441 0
M  V30 1642 H 143.883 0.127253 1.48857 0
M  V30 1643 H 145.765 -2.27302 3.54841 0
M  V30 1644 H 144.44 -2.22233 2.3536 0
M  V30 1645 H 143.347 -0.353819 3.72423 0
M  V30 1646 H 144.68 -0.485113 4.89804 0
M  V30 1647 N 146.332 -1.57332 0.0918853 0
M  V30 1648 C 147.748 -1.57389 -0.264766 0
M  V30 1649 C 147.948 -1.10281 -1.68643 0
M  V30 1650 O 147.004 -0.777801 -2.40222 0
M  V30 1651 C 148.317 -3.00648 -0.0561195 0
M  V30 1652 C 149.865 -3.12754 -0.124116 0
M  V30 1653 C 150.34 -4.57965 0.0564972 0
M  V30 1654 N 151.831 -4.632 0.00155611 0
M  V30 1655 C 152.566 -5.73281 0.116598 0
M  V30 1656 N 152.062 -6.92208 0.286294 0
M  V30 1657 N 153.855 -5.6207 0.0580973 0
M  V30 1658 H 146.006 -1.86262 1.02079 0
M  V30 1659 H 148.269 -0.859579 0.399786 0
M  V30 1660 H 147.975 -3.393 0.925669 0
M  V30 1661 H 147.849 -3.68623 -0.799823 0
M  V30 1662 H 150.236 -2.73976 -1.09641 0
M  V30 1663 H 150.317 -2.47377 0.651024 0
M  V30 1664 H 149.961 -4.97436 1.02564 0
M  V30 1665 H 149.891 -5.21399 -0.738297 0
M  V30 1666 H 152.382 -3.77686 -0.127192 0
M  V30 1667 H 152.695 -7.71934 0.365676 0
M  V30 1668 H 151.04 -6.94254 0.32192 0
M  V30 1669 H 154.231 -4.68043 -0.0733204 0
M  V30 1670 H 154.404 -6.47824 0.151203 0
M  V30 1671 N 147.81 0.181792 -1.56548 0
M  V30 1672 C 149.087 0.926765 -1.72251 0
M  V30 1673 C 149.467 2.00831 -0.650386 0
M  V30 1674 O 148.815 2.26008 0.336521 0
M  V30 1675 C 149.025 1.50106 -3.1507 0
M  V30 1676 C 150.373 1.97805 -3.75711 0
M  V30 1677 O 151.397 1.59922 -3.18282 0
M  V30 1678 O 150.256 2.67555 -4.76525 0
M  V30 1679 H 147.35 0.435506 -0.703039 0
M  V30 1680 H 149.896 0.170443 -1.68842 0
M  V30 1681 H 148.668 0.72212 -3.84579 0
M  V30 1682 H 148.291 2.32186 -3.22763 0
M  V30 1683 N 149.288 1.51039 0.449983 0
M  V30 1684 C 150.537 1.62317 1.19733 0
M  V30 1685 C 150.85 0.339101 1.92638 0
M  V30 1686 O 152.056 0.331069 2.69474 0
M  V30 1687 C 150.512 2.86608 2.17678 0
M  V30 1688 C 150.12 4.21972 1.50479 0
M  V30 1689 C 151.864 3.07239 2.92924 0
M  V30 1690 C 149.771 5.37426 2.46834 0
M  V30 1691 H 148.701 0.604532 0.450619 0
M  V30 1692 H 151.352 1.77494 0.465625 0
M  V30 1693 H 149.734 2.65037 2.94231 0
M  V30 1694 H 150.908 4.53878 0.795716 0
M  V30 1695 H 149.223 4.07117 0.874344 0
M  V30 1696 H 151.82 3.90668 3.65079 0
M  V30 1697 H 152.163 2.19807 3.5354 0
M  V30 1698 H 152.696 3.29091 2.23481 0
M  V30 1699 H 149.435 6.27079 1.90926 0
M  V30 1700 H 148.955 5.09912 3.15832 0
M  V30 1701 H 150.634 5.68862 3.08228 0
M  V30 1702 N 150.766 -0.704594 1.40972 0
M  V30 1703 C 152.014 -1.46169 1.39568 0
M  V30 1704 C 152.335 -1.95 0.00253745 0
M  V30 1705 O 151.605 -1.71095 -0.954114 0
M  V30 1706 H 150.185 -0.542326 0.513704 0
M  V30 1707 H 152.847 -0.834553 1.76128 0
M  V30 1708 H 151.943 -2.32922 2.07735 0
M  V30 1709 N 152.244 -1.26651 -0.937939 0
M  V30 1710 C 153.191 -1.0849 -2.03712 0
M  V30 1711 C 154.161 0.011033 -1.66096 0
M  V30 1712 O 155.346 -0.149353 -1.90215 0
M  V30 1713 C 152.486 -0.72735 -3.37348 0
M  V30 1714 C 151.599 -1.89986 -3.87981 0
M  V30 1715 C 150.734 -1.48513 -5.10017 0
M  V30 1716 C 149.773 -2.62575 -5.5292 0
M  V30 1717 N 148.91 -2.21762 -6.66158 0
M  V30 1718 H 153.75 -2.02551 -2.18579 0
M  V30 1719 H 151.287 -1.00844 -1.07093 0
M  V30 1720 H 153.245 -0.50092 -4.14182 0
M  V30 1721 H 151.875 0.176298 -3.22318 0
M  V30 1722 H 150.927 -2.23913 -3.07518 0
M  V30 1723 H 152.239 -2.75586 -4.15757 0
M  V30 1724 H 151.393 -1.21934 -5.94321 0
M  V30 1725 H 150.132 -0.60009 -4.83994 0
M  V30 1726 H 149.137 -2.8988 -4.67172 0
M  V30 1727 H 150.362 -3.51685 -5.80943 0
M  V30 1728 H 148.308 -1.35696 -6.41812 0
M  V30 1729 H 148.225 -3.00903 -6.93537 0
M  V30 1730 H 149.493 -1.98403 -7.53828 0
M  V30 1731 N 153.722 1.14298 -1.08507 0
M  V30 1732 C 154.669 2.19414 -0.715965 0
M  V30 1733 C 155.639 1.63399 0.298326 0
M  V30 1734 O 156.824 1.89929 0.182101 0
M  V30 1735 C 153.964 3.44845 -0.132534 0
M  V30 1736 C 153.077 4.15007 -1.19973 0
M  V30 1737 C 152.212 5.28024 -0.580048 0
M  V30 1738 C 151.251 5.9002 -1.62921 0
M  V30 1739 N 150.388 6.94485 -1.03125 0
M  V30 1740 H 155.228 2.50336 -1.61666 0
M  V30 1741 H 152.765 1.2293 -0.807882 0
M  V30 1742 H 154.723 4.16601 0.223454 0
M  V30 1743 H 153.353 3.14403 0.731467 0
M  V30 1744 H 152.405 3.41629 -1.67313 0
M  V30 1745 H 153.717 4.57178 -1.99473 0
M  V30 1746 H 152.871 6.06455 -0.172364 0
M  V30 1747 H 151.61 4.87076 0.246603 0
M  V30 1748 H 150.615 5.10291 -2.04654 0
M  V30 1749 H 151.84 6.33042 -2.45835 0
M  V30 1750 H 149.786 6.55612 -0.225711 0
M  V30 1751 H 149.703 7.35148 -1.76334 0
M  V30 1752 H 150.971 7.7679 -0.649458 0
M  V30 1753 N 155.201 0.870884 1.31352 0
M  V30 1754 C 156.131 0.343096 2.30966 0
M  V30 1755 C 157.112 -0.566507 1.60389 0
M  V30 1756 O 158.297 -0.483336 1.88089 0
M  V30 1757 C 155.427 -0.455487 3.443 0
M  V30 1758 C 154.381 0.361103 4.26474 0
M  V30 1759 C 153.707 -0.563221 5.31725 0
M  V30 1760 C 155.007 1.59566 4.97329 0
M  V30 1761 H 156.701 1.17548 2.75359 0
M  V30 1762 H 154.247 0.566686 1.32381 0
M  V30 1763 H 156.2 -0.83525 4.13039 0
M  V30 1764 H 154.924 -1.32139 2.98675 0
M  V30 1765 H 153.583 0.722825 3.59403 0
M  V30 1766 H 153.231 -1.42643 4.82351 0
M  V30 1767 H 152.931 -0.0207409 5.87596 0
M  V30 1768 H 154.455 -0.939808 6.03324 0
M  V30 1769 H 155.869 1.28728 5.58661 0
M  V30 1770 H 154.266 2.07728 5.63 0
M  V30 1771 H 155.336 2.34798 4.24262 0
M  V30 1772 N 156.679 -1.44442 0.630414 0
M  V30 1773 C 157.928 -2.01267 0.132073 0
M  V30 1774 C 158.241 -1.50172 -1.25331 0
M  V30 1775 O 159.447 -1.9912 -1.84562 0
M  V30 1776 C 157.903 -3.59422 0.185362 0
M  V30 1777 C 157.511 -4.19514 1.57201 0
M  V30 1778 C 159.255 -4.23724 -0.256553 0
M  V30 1779 C 157.162 -5.69891 1.58045 0
M  V30 1780 H 156.092 -0.752619 0.0456092 0
M  V30 1781 H 158.743 -1.65666 0.789106 0
M  V30 1782 H 157.125 -3.92318 -0.538759 0
M  V30 1783 H 158.299 -3.98156 2.31966 0
M  V30 1784 H 156.614 -3.67496 1.95795 0
M  V30 1785 H 159.211 -5.34019 -0.269767 0
M  V30 1786 H 159.554 -3.96013 -1.28372 0
M  V30 1787 H 160.087 -3.95629 0.41505 0
M  V30 1788 H 156.826 -6.02336 2.58597 0
M  V30 1789 H 156.346 -5.93373 0.875725 0
M  V30 1790 H 158.025 -6.33515 1.31408 0
M  V30 1791 N 158.157 -0.370918 -1.53173 0
M  V30 1792 C 159.105 0.488101 -2.27421 0
M  V30 1793 C 160.099 1.07884 -1.30604 0
M  V30 1794 O 161.305 1.02143 -1.48212 0
M  V30 1795 H 157.68 0.176134 -0.731082 0
M  V30 1796 H 159.651 -0.159815 -2.97972 0
M  V30 1797 C 158.4 1.61306 -3.08019 0
M  V30 1798 H 157.723 1.1678 -3.82364 0
M  V30 1799 H 159.163 2.18872 -3.63141 0
M  V30 1800 C 157.622 2.55848 -2.19188 0
M  V30 1801 O 158.152 3.58799 -1.80626 0
M  V30 1802 N 156.358 2.2516 -1.83715 0
M  V30 1803 H 155.905 1.41476 -2.15273 0
M  V30 1804 H 155.863 2.8867 -1.24567 0
M  V30 1805 N 159.635 1.57281 -0.100228 0
M  V30 1806 C 160.865 1.98591 0.569681 0
M  V30 1807 C 161.273 0.978315 1.61943 0
M  V30 1808 O 160.616 -0.0396108 1.83657 0
M  V30 1809 C 160.678 3.36282 1.271 0
M  V30 1810 C 160.342 4.55488 0.371409 0
M  V30 1811 C 161.339 5.18491 -0.382504 0
M  V30 1812 C 159.024 5.01474 0.287965 0
M  V30 1813 C 161.018 6.25852 -1.20779 0
M  V30 1814 C 158.705 6.08701 -0.540965 0
M  V30 1815 C 159.703 6.70755 -1.28749 0
M  V30 1816 O 159.391 7.75914 -2.10269 0
M  V30 1817 H 159.123 0.65752 0.156982 0
M  V30 1818 H 161.677 2.0463 -0.177734 0
M  V30 1819 H 159.907 3.26941 2.0651 0
M  V30 1820 H 161.596 3.62005 1.83595 0
M  V30 1821 H 162.362 4.83891 -0.3278 0
M  V30 1822 H 158.241 4.52932 0.858689 0
M  V30 1823 H 161.785 6.74218 -1.79096 0
M  V30 1824 H 157.682 6.42732 -0.597131 0
M  V30 1825 H 158.45 7.92925 -2.03007 0
M  V30 1826 N 161.113 -0.173488 1.56642 0
M  V30 1827 C 162.043 -1.2171 1.99271 0
M  V30 1828 C 163.024 -1.46289 0.867959 0
M  V30 1829 O 164.209 -1.5766 1.13388 0
M  V30 1830 C 161.339 -2.55651 2.35074 0
M  V30 1831 C 160.293 -2.45645 3.50489 0
M  V30 1832 C 159.619 -3.84056 3.72028 0
M  V30 1833 C 160.919 -1.96302 4.84007 0
M  V30 1834 H 162.613 -0.86275 2.867 0
M  V30 1835 H 160.159 -0.413571 1.37933 0
M  V30 1836 H 162.112 -3.2886 2.63494 0
M  V30 1837 H 160.836 -2.92869 1.44552 0
M  V30 1838 H 159.495 -1.7489 3.22194 0
M  V30 1839 H 159.143 -4.18664 2.788 0
M  V30 1840 H 158.843 -3.7823 4.49684 0
M  V30 1841 H 160.367 -4.58854 4.02846 0
M  V30 1842 H 161.781 -2.59284 5.11317 0
M  V30 1843 H 160.178 -2.01429 5.65284 0
M  V30 1844 H 161.248 -0.917226 4.76146 0
M  V30 1845 N 162.591 -1.51276 -0.441967 0
M  V30 1846 C 163.837 -1.63958 -1.19355 0
M  V30 1847 C 164.17 -0.352543 -1.90973 0
M  V30 1848 O 163.445 0.647627 -1.83401 0
M  V30 1849 C 163.728 -2.83979 -2.21422 0
M  V30 1850 C 163.581 -4.22646 -1.53918 0
M  V30 1851 C 164.9 -2.99521 -3.22451 0
M  V30 1852 H 162.019 -0.596709 -0.432559 0
M  V30 1853 H 164.661 -1.83748 -0.483398 0
M  V30 1854 H 162.811 -2.67237 -2.81987 0
M  V30 1855 H 164.483 -4.51045 -0.967256 0
M  V30 1856 H 162.726 -4.25558 -0.841615 0
M  V30 1857 H 163.397 -5.02609 -2.28229 0
M  V30 1858 H 165.873 -3.14944 -2.71937 0
M  V30 1859 H 164.749 -3.85072 -3.91166 0
M  V30 1860 H 165.01 -2.11391 -3.88287 0
M  V30 1861 N 164.069 0.697108 -1.41344 0
M  V30 1862 C 165.315 1.4593 -1.40827 0
M  V30 1863 C 165.648 1.94193 -0.0167098 0
M  V30 1864 O 164.923 1.69425 0.955263 0
M  V30 1865 C 165.206 2.67229 -2.41373 0
M  V30 1866 C 165.059 2.24741 -3.8963 0
M  V30 1867 C 166.378 3.69423 -2.39196 0
M  V30 1868 H 163.497 0.529303 -0.512842 0
M  V30 1869 H 166.139 0.794112 -1.72609 0
M  V30 1870 H 164.289 3.23982 -2.14401 0
M  V30 1871 H 165.961 1.73327 -4.27499 0
M  V30 1872 H 164.204 1.56542 -4.0457 0
M  V30 1873 H 164.875 3.1177 -4.55525 0
M  V30 1874 H 167.351 3.2234 -2.63128 0
M  V30 1875 H 166.227 4.51907 -3.11563 0
M  V30 1876 H 166.488 4.19012 -1.41001 0
M  V30 1877 N 165.547 1.27147 0.931209 0
M  V30 1878 C 166.795 1.13055 1.6752 0
M  V30 1879 C 167.116 -0.324791 1.92276 0
M  V30 1880 O 166.386 -1.22775 1.52654 0
M  V30 1881 H 164.966 0.415391 0.620854 0
M  V30 1882 H 167.628 1.59623 1.11833 0
M  V30 1883 H 166.724 1.65694 2.64485 0
M  V30 1884 N 167.025 -1.13721 1.09112 0
M  V30 1885 C 168.25 -1.89314 0.847053 0
M  V30 1886 C 168.675 -1.78416 -0.595774 0
M  V30 1887 O 168.033 -1.12942 -1.41823 0
M  V30 1888 C 168.081 -3.3701 1.28284 0
M  V30 1889 O 167.185 -4.10054 0.439267 0
M  V30 1890 H 166.526 -0.588745 0.307044 0
M  V30 1891 H 169.056 -1.43902 1.45442 0
M  V30 1892 H 169.066 -3.87834 1.26683 0
M  V30 1893 H 167.741 -3.4426 2.33363 0
M  V30 1894 H 166.318 -3.69266 0.519312 0
M  V30 1895 N 168.503 -0.877838 -1.30888 0
M  V30 1896 C 169.914 -0.544193 -1.78593 0
M  V30 1897 C 170.265 0.939301 -1.72254 0
M  V30 1898 O 169.39 1.7337 -1.29505 0
M  V30 1899 C 169.985 -0.98105 -3.24285 0
M  V30 1900 C 168.544 -0.698935 -3.69854 0
M  V30 1901 C 167.691 -1.168 -2.51502 0
M  V30 1902 H 170.642 -1.06278 -1.17859 0
M  V30 1903 H 170.663 -0.307009 -3.79259 0
M  V30 1904 H 170.175 -2.06079 -3.28866 0
M  V30 1905 H 168.276 0.369112 -3.70767 0
M  V30 1906 H 168.389 -1.28148 -4.61644 0
M  V30 1907 H 166.753 -0.587535 -2.47831 0
M  V30 1908 H 167.536 -2.25533 -2.58824 0
M  V30 1909 N 169.982 1.44106 -0.638065 0
M  V30 1910 C 171.229 2.01978 -0.14533 0
M  V30 1911 C 171.557 1.50234 1.23532 0
M  V30 1912 O 170.812 0.679548 1.83523 0
M  V30 1913 C 171.111 3.5729 -0.0887327 0
M  V30 1914 C 170.777 4.28317 -1.40909 0
M  V30 1915 C 169.439 4.47437 -1.77069 0
M  V30 1916 C 171.791 4.6867 -2.28031 0
M  V30 1917 C 169.119 5.04171 -3.00047 0
M  V30 1918 C 171.471 5.26766 -3.50286 0
M  V30 1919 C 170.135 5.44104 -3.86661 0
M  V30 1920 H 169.405 0.739089 -0.0531801 0
M  V30 1921 H 172.052 1.72781 -0.825761 0
M  V30 1922 H 170.357 3.8594 0.675095 0
M  V30 1923 H 172.054 3.99807 0.309145 0
M  V30 1924 H 168.644 4.1377 -1.1177 0
M  V30 1925 H 172.828 4.53604 -2.01388 0
M  V30 1926 H 168.084 5.15782 -3.28298 0
M  V30 1927 H 172.258 5.56983 -4.18023 0
M  V30 1928 H 169.885 5.87832 -4.82034 0
M  V30 1929 N 171.46 0.379036 1.52974 0
M  V30 1930 C 172.393 -0.504932 2.22544 0
M  V30 1931 C 173.371 -1.0723 1.22231 0
M  V30 1932 O 174.555 -1.12589 1.51182 0
M  V30 1933 C 171.682 -1.69794 2.93066 0
M  V30 1934 C 170.728 -1.25678 4.07563 0
M  V30 1935 S 171.561 -0.246852 5.34931 0
M  V30 1936 C 172.717 -1.44588 6.08971 0
M  V30 1937 H 172.95 0.0858666 2.97176 0
M  V30 1938 H 170.483 0.163183 1.53535 0
M  V30 1939 H 172.441 -2.38219 3.34308 0
M  V30 1940 H 171.102 -2.26002 2.18133 0
M  V30 1941 H 170.295 -2.14725 4.5597 0
M  V30 1942 H 169.897 -0.651584 3.6828 0
M  V30 1943 H 172.189 -2.37469 6.34519 0
M  V30 1944 H 173.132 -1.00292 7.00962 0
M  V30 1945 H 173.54 -1.65804 5.39601 0
M  V30 1946 N 172.938 -1.57226 0.108567 0
M  V30 1947 C 174.186 -1.94448 -0.550853 0
M  V30 1948 C 174.507 -0.992074 -1.67878 0
M  V30 1949 O 173.777 -0.0465 -1.95845 0
M  V30 1950 H 172.357 -0.717897 -0.206479 0
M  V30 1951 H 175.019 -1.94112 0.175062 0
M  V30 1952 H 174.115 -2.97218 -0.952259 0
M  V30 1953 N 174.416 0.165178 -1.56732 0
M  V30 1954 C 175.693 0.908443 -1.73224 0
M  V30 1955 C 176.073 2.0013 -0.67165 0
M  V30 1956 O 175.421 2.26353 0.31253 0
M  V30 1957 C 175.631 1.46756 -3.16644 0
M  V30 1958 C 176.979 1.93809 -3.77787 0
M  V30 1959 O 178.003 1.56537 -3.1996 0
M  V30 1960 O 176.862 2.62486 -4.79336 0
M  V30 1961 H 173.956 0.428025 -0.707618 0
M  V30 1962 H 176.502 0.152526 -1.69013 0
M  V30 1963 H 175.274 0.68129 -3.85323 0
M  V30 1964 H 174.897 2.28749 -3.25207 0
M  V30 1965 N 175.894 1.51508 0.433938 0
M  V30 1966 C 177.119 1.68443 1.21003 0
M  V30 1967 C 177.544 0.382636 1.84167 0
M  V30 1968 O 176.902 -0.65755 1.68956 0
M  V30 1969 C 176.95 2.80405 2.26727 0
M  V30 1970 O 176.054 2.44245 3.32292 0
M  V30 1971 H 175.395 0.561536 0.354363 0
M  V30 1972 H 177.925 1.9809 0.512024 0
M  V30 1973 H 177.935 3.0459 2.71457 0
M  V30 1974 H 176.61 3.74867 1.80132 0
M  V30 1975 H 175.187 2.30644 2.93015 0
M  V30 1976 N 177.372 -0.689602 1.41712 0
M  V30 1977 C 178.597 -1.48329 1.44959 0
M  V30 1978 C 179.022 -1.8801 0.0581283 0
M  V30 1979 O 178.38 -1.55026 -0.940035 0
M  V30 1980 C 178.428 -2.71835 2.36935 0
M  V30 1981 O 177.532 -3.69549 1.8305 0
M  V30 1982 H 176.873 -0.446199 0.491734 0
M  V30 1983 H 179.403 -0.847127 1.86239 0
M  V30 1984 H 179.413 -3.20076 2.53013 0
M  V30 1985 H 178.088 -2.42291 3.38035 0
M  V30 1986 H 176.665 -3.2851 1.76452 0
M  V30 1987 N 178.85 -1.27639 -0.924453 0
M  V30 1988 C 180.078 -1.16989 -1.70649 0
M  V30 1989 C 180.493 0.272869 -1.86818 0
M  V30 1990 O 179.85 1.18549 -1.38753 0
M  V30 1991 C 179.901 -1.85229 -3.10439 0
M  V30 1992 O 179.622 -3.23868 -2.95028 0
M  V30 1993 C 181.123 -1.80746 -4.04779 0
M  V30 1994 H 178.343 -0.406595 -0.53378 0
M  V30 1995 H 180.887 -1.68569 -1.15778 0
M  V30 1996 H 179.042 -1.37545 -3.6216 0
M  V30 1997 H 179.456 -3.57889 -3.83426 0
M  V30 1998 H 180.93 -2.33101 -5.00368 0
M  V30 1999 H 181.407 -0.777499 -4.32263 0
M  V30 2000 H 182.013 -2.28059 -3.58984 0
M  V30 2001 N 180.328 1.1314 -1.09713 0
M  V30 2002 C 181.739 1.66029 -0.853885 0
M  V30 2003 C 182.09 1.86241 0.617142 0
M  V30 2004 O 181.215 1.5834 1.47503 0
M  V30 2005 C 181.81 3.01599 -1.5435 0
M  V30 2006 C 180.369 3.51467 -1.34714 0
M  V30 2007 C 179.516 2.26648 -1.59769 0
M  V30 2008 H 182.467 0.970226 -1.25588 0
M  V30 2009 H 182.488 3.67709 -0.978267 0
M  V30 2010 H 182 2.86856 -2.6141 0
M  V30 2011 H 180.101 3.71408 -0.297838 0
M  V30 2012 H 180.214 4.314 -2.08401 0
M  V30 2013 H 178.578 2.33385 -1.01998 0
M  V30 2014 H 179.361 2.14467 -2.68065 0
M  V30 2015 N 181.806 0.884767 1.30421 0
M  V30 2016 C 182.716 0.355398 2.31892 0
M  V30 2017 C 183.732 -0.542261 1.65335 0
M  V30 2018 O 184.908 -0.435432 1.96637 0
M  V30 2019 C 181.973 -0.421661 3.44126 0
M  V30 2020 C 181.034 0.505727 4.26311 0
M  V30 2021 C 180.267 -0.234343 5.33185 0
M  V30 2022 O 180.49 -1.46045 5.51386 0
M  V30 2023 O 179.424 0.415443 6.00465 0
M  V30 2024 H 183.25 1.19685 2.79122 0
M  V30 2025 H 180.835 0.648596 1.34587 0
M  V30 2026 H 182.717 -0.861641 4.12497 0
M  V30 2027 H 181.392 -1.23942 2.99032 0
M  V30 2028 H 180.299 0.994513 3.60639 0
M  V30 2029 H 181.632 1.28948 4.75009 0
M  V30 2030 N 183.284 -1.43765 0.645699 0
M  V30 2031 C 184.561 -1.9541 0.0862963 0
M  V30 2032 C 184.941 -1.58725 -1.39175 0
M  V30 2033 O 184.289 -0.868581 -2.11348 0
M  V30 2034 C 184.499 -3.47488 0.324565 0
M  V30 2035 C 185.847 -4.24001 0.225497 0
M  V30 2036 O 186.871 -3.55274 0.256715 0
M  V30 2037 O 185.73 -5.46313 0.142801 0
M  V30 2038 H 182.824 -0.826882 -0.0139483 0
M  V30 2039 H 185.37 -1.53743 0.718415 0
M  V30 2040 H 184.142 -3.67289 1.3496 0
M  V30 2041 H 183.765 -3.96135 -0.340987 0
M  V30 2042 N 184.763 -0.387143 -1.52771 0
M  V30 2043 C 185.991 0.195869 -2.05971 0
M  V30 2044 C 186.406 1.40691 -1.25903 0
M  V30 2045 O 185.763 1.79931 -0.305134 0
M  V30 2046 C 185.814 0.56812 -3.57008 0
M  V30 2047 O 185.535 -0.594803 -4.34043 0
M  V30 2048 C 187.036 1.20723 -4.26545 0
M  V30 2049 H 184.256 0.0300578 -0.670326 0
M  V30 2050 H 186.8 -0.551749 -1.96916 0
M  V30 2051 H 184.955 1.26564 -3.66143 0
M  V30 2052 H 185.369 -0.289322 -5.23701 0
M  V30 2053 H 186.843 1.41807 -5.33474 0
M  V30 2054 H 187.32 2.17395 -3.81623 0
M  V30 2055 H 187.926 0.550535 -4.21722 0
M  V30 2056 N 186.241 1.57166 -0.116904 0
M  V30 2057 C 187.488 1.95123 0.541603 0
M  V30 2058 C 187.816 1.00006 1.6682 0
M  V30 2059 O 187.071 0.0235658 1.95686 0
M  V30 2060 C 187.37 3.39508 1.11664 0
M  V30 2061 C 187.036 4.50762 0.111606 0
M  V30 2062 C 185.698 4.80918 -0.164758 0
M  V30 2063 C 188.05 5.18036 -0.573438 0
M  V30 2064 C 185.378 5.75666 -1.13249 0
M  V30 2065 C 187.73 6.13824 -1.52978 0
M  V30 2066 C 186.394 6.42374 -1.81415 0
M  V30 2067 H 185.664 0.714005 0.198187 0
M  V30 2068 H 188.311 1.9048 -0.197365 0
M  V30 2069 H 186.616 3.40835 1.93232 0
M  V30 2070 H 188.313 3.66189 1.63422 0
M  V30 2071 H 184.903 4.27272 0.337192 0
M  V30 2072 H 189.087 4.94896 -0.373092 0
M  V30 2073 H 184.343 5.96092 -1.35958 0
M  V30 2074 H 188.517 6.65039 -2.06629 0
M  V30 2075 H 186.144 7.15599 -2.56557 0
M  V30 2076 N 187.719 -0.156864 1.56817 0
M  V30 2077 C 188.996 -0.899244 1.73704 0
M  V30 2078 C 189.376 -1.99771 0.682254 0
M  V30 2079 O 188.724 -2.26515 -0.300522 0
M  V30 2080 C 188.934 -1.45075 3.17418 0
M  V30 2081 C 190.282 -1.91802 3.7881 0
M  V30 2082 O 191.306 -1.54838 3.20786 0
M  V30 2083 O 190.165 -2.5994 4.80722 0
M  V30 2084 H 187.259 -0.424267 0.709878 0
M  V30 2085 H 189.805 -0.143561 1.69092 0
M  V30 2086 H 188.577 -0.660846 3.85679 0
M  V30 2087 H 188.2 -2.27021 3.26416 0
M  V30 2088 N 189.197 -1.51736 -0.425897 0
M  V30 2089 C 190.444 -1.6497 -1.17436 0
M  V30 2090 C 190.772 -0.371445 -1.9092 0
M  V30 2091 O 190.027 0.644963 -1.84767 0
M  V30 2092 C 190.326 -2.81103 -2.20717 0
M  V30 2093 C 189.992 -4.19954 -1.64162 0
M  V30 2094 C 188.654 -4.57725 -1.48462 0
M  V30 2095 C 191.006 -5.06552 -1.22696 0
M  V30 2096 C 188.334 -5.79789 -0.897873 0
M  V30 2097 C 190.686 -6.29205 -0.654464 0
M  V30 2098 C 189.35 -6.6574 -0.484456 0
M  V30 2099 H 188.62 -0.603668 -0.429727 0
M  V30 2100 H 191.267 -1.85798 -0.463829 0
M  V30 2101 H 189.572 -2.54542 -2.97852 0
M  V30 2102 H 191.269 -2.8854 -2.78471 0
M  V30 2103 H 187.859 -3.90181 -1.77361 0
M  V30 2104 H 192.043 -4.77968 -1.33642 0
M  V30 2105 H 187.299 -6.06733 -0.75402 0
M  V30 2106 H 191.473 -6.95643 -0.324694 0
M  V30 2107 H 189.1 -7.60195 -0.0276833 0
M  V30 2108 N 190.675 0.682077 -1.42076 0
M  V30 2109 C 191.903 1.47057 -1.4554 0
M  V30 2110 C 192.318 1.8869 -0.0645779 0
M  V30 2111 O 191.675 1.57666 0.919115 0
M  V30 2112 C 191.726 2.72442 -2.37609 0
M  V30 2113 O 191.447 2.32559 -3.71279 0
M  V30 2114 C 192.948 3.66069 -2.50017 0
M  V30 2115 H 190.168 0.452737 -0.495248 0
M  V30 2116 H 192.712 0.838695 -1.8651 0
M  V30 2117 H 190.867 3.31835 -1.9991 0
M  V30 2118 H 191.281 3.13475 -4.20516 0
M  V30 2119 H 192.755 4.50792 -3.18576 0
M  V30 2120 H 193.232 4.11476 -1.53572 0
M  V30 2121 H 193.838 3.12572 -2.88407 0
M  V30 2122 N 192.153 1.28127 0.917671 0
M  V30 2123 C 193.569 1.05749 1.19538 0
M  V30 2124 C 193.769 -0.202633 2.00479 0
M  V30 2125 O 192.825 -0.905382 2.3571 0
M  V30 2126 C 194.138 2.30273 1.93378 0
M  V30 2127 C 195.686 2.35412 2.06277 0
M  V30 2128 C 196.161 3.59692 2.83524 0
M  V30 2129 N 197.652 3.60309 2.91087 0
M  V30 2130 C 198.387 4.53147 3.51348 0
M  V30 2131 N 197.883 5.563 4.12919 0
M  V30 2132 N 199.676 4.40751 3.48849 0
M  V30 2133 H 191.827 2.09024 0.377184 0
M  V30 2134 H 194.09 0.919798 0.22951 0
M  V30 2135 H 193.796 3.22055 1.41328 0
M  V30 2136 H 193.67 2.36378 2.93947 0
M  V30 2137 H 196.057 1.4413 2.57508 0
M  V30 2138 H 196.138 2.33304 1.04895 0
M  V30 2139 H 195.782 4.51316 2.32973 0
M  V30 2140 H 195.712 3.59054 3.85211 0
M  V30 2141 H 198.203 2.85714 2.47338 0
M  V30 2142 H 198.516 6.2329 4.56869 0
M  V30 2143 H 196.861 5.60131 4.11435 0
M  V30 2144 H 200.052 3.59367 2.99955 0
M  V30 2145 H 200.225 5.13291 3.9552 0
M  V30 2146 N 193.631 -1.12557 1.10312 0
M  V30 2147 C 194.581 -2.16331 0.720076 0
M  V30 2148 C 195.565 -1.58616 -0.270115 0
M  V30 2149 O 196.757 -1.76823 -0.0790507 0
M  V30 2150 C 193.886 -3.42963 0.152113 0
M  V30 2151 C 192.972 -4.07663 1.16927 0
M  V30 2152 N 193.363 -4.47392 2.35953 0
M  V30 2153 C 191.661 -4.34425 1.0095 0
M  V30 2154 C 192.362 -4.97932 3.0073 0
M  V30 2155 N 191.338 -4.93358 2.28252 0
M  V30 2156 H 195.14 -2.44813 1.62616 0
M  V30 2157 H 192.654 -1.29449 0.980654 0
M  V30 2158 H 194.651 -4.16664 -0.14037 0
M  V30 2159 H 193.311 -3.1595 -0.748701 0
M  V30 2160 H 194.322 -4.39802 2.73486 0
M  V30 2161 H 190.999 -4.17177 0.164134 0
M  V30 2162 H 192.389 -5.38397 4.01969 0
M  V30 2163 N 195.109 -0.891671 -1.2995 0
M  V30 2164 C 196.337 -0.52866 -2.00032 0
M  V30 2165 C 196.752 0.884574 -1.66795 0
M  V30 2166 O 196.109 1.5827 -0.908669 0
M  V30 2167 C 196.16 -0.701814 -3.54622 0
M  V30 2168 O 195.881 -2.05942 -3.86678 0
M  V30 2169 C 197.382 -0.342683 -4.41973 0
M  V30 2170 H 194.602 -0.203659 -0.639347 0
M  V30 2171 H 197.146 -1.19881 -1.65677 0
M  V30 2172 H 195.301 -0.0789468 -3.8732 0
M  V30 2173 H 195.715 -2.08291 -4.81368 0
M  V30 2174 H 197.189 -0.514709 -5.49595 0
M  V30 2175 H 197.666 0.71975 -4.33262 0
M  V30 2176 H 198.272 -0.942154 -4.14733 0
M  V30 2177 N 196.587 1.43421 -0.653314 0
M  V30 2178 C 197.815 2.06163 -0.174491 0
M  V30 2179 C 198.23 1.48969 1.1599 0
M  V30 2180 O 197.587 0.621042 1.71608 0
M  V30 2181 C 197.638 3.61417 -0.0774865 0
M  V30 2182 O 197.359 4.16485 -1.35912 0
M  V30 2183 C 198.86 4.41235 0.427402 0
M  V30 2184 H 196.08 0.664946 -0.0899353 0
M  V30 2185 H 198.624 1.83924 -0.893988 0
M  V30 2186 H 196.779 3.82841 0.59257 0
M  V30 2187 H 197.193 5.10153 -1.21839 0
M  V30 2188 H 198.667 5.5021 0.44423 0
M  V30 2189 H 199.144 4.14268 1.45873 0
M  V30 2190 H 199.75 4.2478 -0.210167 0
M  V30 2191 N 198.065 0.39524 1.52563 0
M  V30 2192 C 199.013 -0.451859 2.28169 0
M  V30 2193 C 200.007 -1.05792 1.32304 0
M  V30 2194 O 201.213 -0.997718 1.49818 0
M  V30 2195 H 197.588 -0.164481 0.733792 0
M  V30 2196 H 199.559 0.207199 2.9768 0
M  V30 2197 C 198.308 -1.56385 3.10546 0
M  V30 2198 H 197.631 -1.10682 3.84174 0
M  V30 2199 H 199.071 -2.13067 3.66577 0
M  V30 2200 C 197.53 -2.52328 2.23231 0
M  V30 2201 O 198.06 -3.5588 1.86312 0
M  V30 2202 N 196.266 -2.22209 1.87274 0
M  V30 2203 H 195.813 -1.38033 2.17496 0
M  V30 2204 H 195.771 -2.86652 1.29143 0
M  V30 2205 N 199.544 -1.57102 0.125237 0
M  V30 2206 C 200.793 -1.94582 -0.531095 0
M  V30 2207 C 201.106 -1.01126 -1.6743 0
M  V30 2208 O 202.312 -1.28097 -2.39381 0
M  V30 2209 C 200.768 -3.45839 -0.996164 0
M  V30 2210 C 200.376 -4.47842 0.118926 0
M  V30 2211 C 202.12 -3.92227 -1.62352 0
M  V30 2212 C 200.027 -5.90284 -0.363192 0
M  V30 2213 H 198.957 -0.726391 -0.20217 0
M  V30 2214 H 201.608 -1.82339 0.206092 0
M  V30 2215 H 199.99 -3.53338 -1.78796 0
M  V30 2216 H 201.164 -4.52018 0.895358 0
M  V30 2217 H 199.479 -4.11243 0.653324 0
M  V30 2218 H 202.076 -4.96069 -1.99548 0
M  V30 2219 H 202.419 -3.32552 -2.50429 0
M  V30 2220 H 202.952 -3.87554 -0.897019 0
M  V30 2221 H 199.691 -6.53728 0.481679 0
M  V30 2222 H 199.211 -5.89515 -1.10597 0
M  V30 2223 H 200.89 -6.41752 -0.822377 0
M  V30 2224 N 201.022 0.148545 -1.56898 0
M  V30 2225 C 201.985 1.16736 -1.97244 0
M  V30 2226 C 202.985 1.35947 -0.858777 0
M  V30 2227 O 204.175 1.32966 -1.12542 0
M  V30 2228 C 201.307 2.52798 -2.28705 0
M  V30 2229 H 202.5 0.821279 -2.88435 0
M  V30 2230 H 200.053 0.391831 -1.51309 0
M  V30 2231 H 200.788 2.92381 -1.403 0
M  V30 2232 H 200.573 2.40216 -3.09901 0
M  V30 2233 H 202.063 3.26179 -2.60762 0
M  V30 2234 N 202.5 1.5196 0.417844 0
M  V30 2235 C 203.746 1.65836 1.16732 0
M  V30 2236 C 204.079 0.382881 1.90388 0
M  V30 2237 O 203.354 -0.618368 1.84408 0
M  V30 2238 C 203.637 2.87466 2.16876 0
M  V30 2239 C 203.49 4.25041 1.47174 0
M  V30 2240 C 204.809 3.04613 3.17646 0
M  V30 2241 H 201.928 0.603515 0.423011 0
M  V30 2242 H 204.57 1.84494 0.454105 0
M  V30 2243 H 202.72 2.71689 2.777 0
M  V30 2244 H 204.392 4.52527 0.895376 0
M  V30 2245 H 202.635 4.26843 0.773806 0
M  V30 2246 H 203.306 5.06176 2.20204 0
M  V30 2247 H 205.782 3.1923 2.66892 0
M  V30 2248 H 204.658 3.91247 3.8499 0
M  V30 2249 H 204.919 2.17541 3.84874 0
M  V30 2250 N 203.978 -0.674533 1.42435 0
M  V30 2251 C 204.888 -1.81751 1.48337 0
M  V30 2252 C 205.904 -1.69975 0.372099 0
M  V30 2253 O 207.08 -1.91521 0.62304 0
M  V30 2254 C 204.145 -3.17895 1.38361 0
M  V30 2255 C 203.206 -3.41625 2.59982 0
M  V30 2256 C 202.439 -4.71274 2.50473 0
M  V30 2257 O 202.662 -5.49197 1.54075 0
M  V30 2258 O 201.596 -4.96254 3.4061 0
M  V30 2259 H 205.422 -1.79728 2.44809 0
M  V30 2260 H 203.007 -0.830312 1.24202 0
M  V30 2261 H 204.889 -3.99136 1.35161 0
M  V30 2262 H 203.564 -3.20555 0.450144 0
M  V30 2263 H 202.471 -2.60231 2.68757 0
M  V30 2264 H 203.804 -3.43796 3.52229 0
M  V30 2265 N 205.456 -1.28612 -0.910864 0
M  V30 2266 C 206.403 -1.12786 -2.01365 0
M  V30 2267 C 207.373 -0.024201 -1.66082 0
M  V30 2268 O 208.558 -0.189667 -1.89855 0
M  V30 2269 C 205.698 -0.798743 -3.35729 0
M  V30 2270 C 204.811 -1.98173 -3.83864 0
M  V30 2271 C 203.946 -1.59298 -5.06752 0
M  V30 2272 C 202.985 -2.74245 -5.47226 0
M  V30 2273 N 202.122 -2.35842 -6.61304 0
M  V30 2274 H 206.962 -2.07142 -2.14234 0
M  V30 2275 H 204.499 -1.03093 -1.0493 0
M  V30 2276 H 206.457 -0.588662 -4.13026 0
M  V30 2277 H 205.087 0.10789 -3.2262 0
M  V30 2278 H 204.139 -2.30386 -3.02699 0
M  V30 2279 H 205.451 -2.84343 -4.09818 0
M  V30 2280 H 204.605 -1.34513 -5.916 0
M  V30 2281 H 203.344 -0.702618 -4.82612 0
M  V30 2282 H 202.349 -2.99725 -4.60918 0
M  V30 2283 H 203.574 -3.63928 -5.73353 0
M  V30 2284 H 201.52 -1.49279 -6.38789 0
M  V30 2285 H 201.437 -3.15546 -6.86998 0
M  V30 2286 H 202.705 -2.14348 -7.4945 0
M  V30 2287 N 206.934 1.1197 -1.10907 0
M  V30 2288 C 208.181 1.83588 -0.854507 0
M  V30 2289 C 208.509 1.84357 0.6199 0
M  V30 2290 O 207.764 1.28809 1.47332 0
M  V30 2291 C 208.063 3.30749 -1.35425 0
M  V30 2292 C 207.729 3.50146 -2.84093 0
M  V30 2293 C 206.391 3.55148 -3.2469 0
M  V30 2294 C 208.743 3.56857 -3.79872 0
M  V30 2295 C 206.071 3.6441 -4.59806 0
M  V30 2296 C 208.423 3.6765 -5.14797 0
M  V30 2297 C 207.087 3.7091 -5.54961 0
M  V30 2298 H 206.357 0.671795 -0.312686 0
M  V30 2299 H 209.004 1.32091 -1.38652 0
M  V30 2300 H 207.309 3.84703 -0.742361 0
M  V30 2301 H 209.006 3.8464 -1.1337 0
M  V30 2302 H 205.596 3.46919 -2.51685 0
M  V30 2303 H 209.78 3.52258 -3.49611 0
M  V30 2304 H 205.036 3.65208 -4.9034 0
M  V30 2305 H 209.21 3.71786 -5.88853 0
M  V30 2306 H 206.837 3.7784 -6.59652 0
M  V30 2307 N 208.412 0.89855 1.29475 0
M  V30 2308 C 209.322 0.379974 2.31502 0
M  V30 2309 C 210.338 -0.524695 1.659 0
M  V30 2310 O 211.514 -0.414551 1.97087 0
M  V30 2311 C 208.579 -0.385138 3.44554 0
M  V30 2312 C 207.64 0.550914 4.2575 0
M  V30 2313 C 206.873 -0.177778 5.33404 0
M  V30 2314 O 207.096 -1.40189 5.52904 0
M  V30 2315 O 206.03 0.479106 5.9999 0
M  V30 2316 H 209.856 1.22639 2.77837 0
M  V30 2317 H 207.441 0.662834 1.33891 0
M  V30 2318 H 209.323 -0.817841 4.13388 0
M  V30 2319 H 207.998 -1.20763 3.0033 0
M  V30 2320 H 206.905 1.03271 3.59564 0
M  V30 2321 H 208.238 1.33979 4.73614 0
M  V30 2322 N 209.89 -1.43072 0.660911 0
M  V30 2323 C 210.838 -2.32569 -0.0378199 0
M  V30 2324 C 211.832 -1.49046 -0.805092 0
M  V30 2325 O 213.038 -1.65206 -0.714624 0
M  V30 2326 H 209.413 -0.75136 -0.031019 0
M  V30 2327 H 211.384 -2.89216 0.734609 0
M  V30 2328 C 210.133 -3.33453 -0.985124 0
M  V30 2329 H 209.456 -3.97752 -0.404147 0
M  V30 2330 H 210.896 -3.98691 -1.44297 0
M  V30 2331 C 209.355 -2.64642 -2.08486 0
M  V30 2332 O 209.885 -2.46776 -3.16961 0
M  V30 2333 N 208.091 -2.23891 -1.8526 0
M  V30 2334 H 207.638 -2.38621 -0.970449 0
M  V30 2335 H 207.596 -1.78181 -2.59034 0
M  V30 2336 N 211.368 -0.403325 -1.52352 0
M  V30 2337 C 212.616 0.174003 -2.0135 0
M  V30 2338 C 212.937 1.46139 -1.29106 0
M  V30 2339 O 212.207 1.91448 -0.415253 0
M  V30 2340 H 210.787 0.0672911 -0.743963 0
M  V30 2341 H 213.449 -0.538235 -1.87321 0
M  V30 2342 H 212.545 0.374254 -3.09848 0
M  V30 2343 N 212.846 1.57033 -0.133567 0
M  V30 2344 C 214.071 2.00475 0.531477 0
M  V30 2345 C 214.496 1.01291 1.58499 0
M  V30 2346 O 213.854 -0.0133279 1.81295 0
M  V30 2347 C 213.902 3.42729 1.12113 0
M  V30 2348 O 213.006 3.46498 2.23636 0
M  V30 2349 H 212.347 0.650876 0.131362 0
M  V30 2350 H 214.877 2.03344 -0.22634 0
M  V30 2351 H 214.887 3.81246 1.4531 0
M  V30 2352 H 213.562 4.14428 0.349557 0
M  V30 2353 H 212.139 3.19811 1.91769 0
M  V30 2354 N 214.325 -0.140222 1.56975 0
M  V30 2355 C 215.571 -0.848084 1.84876 0
M  V30 2356 C 215.926 -1.78481 0.718481 0
M  V30 2357 O 215.219 -1.89497 -0.283093 0
M  V30 2358 C 215.413 -1.65386 3.16832 0
M  V30 2359 C 215.242 -0.79665 4.42587 0
M  V30 2360 C 214.012 -0.459648 5.03205 0
M  V30 2361 C 216.21 -0.12389 5.14151 0
M  V30 2362 N 214.192 0.410446 6.12526 0
M  V30 2363 C 215.563 0.606064 6.17031 0
M  V30 2364 C 217.618 -0.0452654 4.97879 0
M  V30 2365 C 216.321 1.40723 7.054 0
M  V30 2366 C 218.347 0.742658 5.86718 0
M  V30 2367 C 217.709 1.46087 6.89085 0
M  V30 2368 H 213.808 -0.287946 0.727056 0
M  V30 2369 H 216.392 -0.11304 1.94372 0
M  V30 2370 H 214.563 -2.36009 3.08471 0
M  V30 2371 H 216.295 -2.30541 3.32615 0
M  V30 2372 H 213.05 -0.797006 4.66846 0
M  V30 2373 H 213.474 0.836716 6.7181 0
M  V30 2374 H 218.116 -0.586184 4.18717 0
M  V30 2375 H 215.834 1.95938 7.83986 0
M  V30 2376 H 219.42 0.805574 5.76196 0
M  V30 2377 H 218.3 2.06077 7.56639 0
M  V30 2378 N 215.803 -1.52179 -0.40978 0
M  V30 2379 C 216.75 -1.75475 -1.49924 0
M  V30 2380 C 217.72 -0.597175 -1.54994 0
M  V30 2381 O 218.905 -0.834655 -1.71575 0
M  V30 2382 C 216.045 -1.9107 -2.87378 0
M  V30 2383 C 215.158 -3.18717 -2.91622 0
M  V30 2384 C 214.293 -3.24747 -4.20372 0
M  V30 2385 C 213.332 -4.46598 -4.18588 0
M  V30 2386 N 212.469 -4.50025 -5.38908 0
M  V30 2387 H 217.309 -2.68458 -1.29361 0
M  V30 2388 H 214.846 -1.33024 -0.627934 0
M  V30 2389 H 216.804 -1.98096 -3.6717 0
M  V30 2390 H 215.434 -1.01469 -3.06437 0
M  V30 2391 H 214.486 -3.20866 -2.04326 0
M  V30 2392 H 215.798 -4.08544 -2.86169 0
M  V30 2393 H 214.952 -3.30841 -5.08556 0
M  V30 2394 H 213.691 -2.32857 -4.28519 0
M  V30 2395 H 212.696 -4.40652 -3.28794 0
M  V30 2396 H 213.921 -5.39783 -4.12081 0
M  V30 2397 H 211.867 -3.61017 -5.47725 0
M  V30 2398 H 211.784 -5.33697 -5.35447 0
M  V30 2399 H 213.052 -4.60347 -6.29048 0
M  V30 2400 N 217.281 0.66697 -1.42791 0
M  V30 2401 C 218.527 1.4291 -1.43891 0
M  V30 2402 C 218.86 1.94114 -0.0578972 0
M  V30 2403 O 218.135 1.71414 0.91911 0
M  V30 2404 C 218.418 2.62049 -2.46987 0
M  V30 2405 C 218.271 2.16426 -3.94309 0
M  V30 2406 C 219.59 3.64266 -2.46978 0
M  V30 2407 H 216.709 0.518306 -0.523954 0
M  V30 2408 H 219.351 0.757321 -1.74255 0
M  V30 2409 H 217.501 3.19361 -2.21225 0
M  V30 2410 H 219.173 1.64221 -4.31079 0
M  V30 2411 H 217.416 1.47925 -4.078 0
M  V30 2412 H 218.087 3.02038 -4.62036 0
M  V30 2413 H 220.563 3.16686 -2.69906 0
M  V30 2414 H 219.439 4.45196 -3.21079 0
M  V30 2415 H 219.7 4.15927 -1.49857 0
M  V30 2416 N 218.759 1.29093 0.90403 0
M  V30 2417 C 219.987 1.19689 1.68766 0
M  V30 2418 C 220.402 -0.243113 1.87228 0
M  V30 2419 O 219.759 -1.16326 1.40621 0
M  V30 2420 C 219.81 1.90144 3.07453 0
M  V30 2421 O 219.531 3.2852 2.89838 0
M  V30 2422 C 221.032 1.87162 4.01852 0
M  V30 2423 H 218.252 0.415035 0.527244 0
M  V30 2424 H 220.796 1.7039 1.13082 0
M  V30 2425 H 218.951 1.43289 3.59926 0
M  V30 2426 H 219.365 3.63944 3.77684 0
M  V30 2427 H 220.839 2.41032 4.96596 0
M  V30 2428 H 221.316 0.84617 4.30972 0
M  V30 2429 H 221.922 2.33741 3.5531 0
M  V30 2430 N 220.237 -1.11381 1.11499 0
M  V30 2431 C 221.185 -2.19522 0.768956 0
M  V30 2432 C 222.179 -1.67693 -0.239857 0
M  V30 2433 O 223.385 -1.79727 -0.0990755 0
M  V30 2434 H 219.76 -0.715711 0.230786 0
M  V30 2435 H 221.731 -2.45954 1.68964 0
M  V30 2436 C 220.48 -3.46945 0.229073 0
M  V30 2437 H 219.803 -3.8718 0.996596 0
M  V30 2438 H 221.243 -4.23993 0.0251441 0
M  V30 2439 C 219.702 -3.2042 -1.04079 0
M  V30 2440 O 220.232 -3.41178 -2.12038 0
M  V30 2441 N 218.438 -2.74151 -0.963823 0
M  V30 2442 H 217.985 -2.57459 -0.0851722 0
M  V30 2443 H 217.943 -2.56781 -1.81414 0
M  V30 2444 N 221.715 -0.905404 -1.28997 0
M  V30 2445 C 222.964 -0.530191 -1.94607 0
M  V30 2446 C 223.277 0.929185 -1.72121 0
M  V30 2447 O 224.483 1.41218 -2.31883 0
M  V30 2448 C 222.939 -0.897333 -3.48534 0
M  V30 2449 C 222.547 -2.37587 -3.79811 0
M  V30 2450 C 224.291 -0.592304 -4.20347 0
M  V30 2451 C 222.198 -2.68357 -5.27009 0
M  V30 2452 H 221.128 -0.194558 -0.728466 0
M  V30 2453 H 223.779 -1.10318 -1.46636 0
M  V30 2454 H 222.161 -0.253214 -3.9519 0
M  V30 2455 H 223.335 -3.06602 -3.43994 0
M  V30 2456 H 221.65 -2.6505 -3.2115 0
M  V30 2457 H 224.247 -0.798975 -5.28697 0
M  V30 2458 H 224.59 0.469474 -4.13644 0
M  V30 2459 H 225.123 -1.19452 -3.79442 0
M  V30 2460 H 221.862 -3.73355 -5.38782 0
M  V30 2461 H 221.382 -2.03971 -5.64053 0
M  V30 2462 H 223.061 -2.54922 -5.94663 0
M  V30 2463 N 223.193 1.4272 -0.668489 0
M  V30 2464 C 224.442 2.00846 -0.185389 0
M  V30 2465 C 224.755 1.53442 1.21305 0
M  V30 2466 O 225.961 2.03944 1.79218 0
M  V30 2467 C 224.417 3.58805 -0.280591 0
M  V30 2468 C 224.025 4.15198 -1.68268 0
M  V30 2469 C 225.769 4.24255 0.14412 0
M  V30 2470 C 223.676 5.655 -1.73099 0
M  V30 2471 H 222.606 0.751145 -0.0655475 0
M  V30 2472 H 225.257 1.63516 -0.832752 0
M  V30 2473 H 223.639 3.93608 0.434553 0
M  V30 2474 H 224.813 3.91866 -2.42441 0
M  V30 2475 H 223.128 3.62176 -2.05469 0
M  V30 2476 H 225.725 5.34547 0.128086 0
M  V30 2477 H 226.068 3.99277 1.17827 0
M  V30 2478 H 226.601 3.94389 -0.519798 0
M  V30 2479 H 223.34 5.95268 -2.74475 0
M  V30 2480 H 222.86 5.90842 -1.03274 0
M  V30 2481 H 224.539 6.29808 -1.48158 0
M  V30 2482 N 224.671 0.411399 1.52136 0
M  V30 2483 C 225.899 -0.163076 2.06256 0
M  V30 2484 C 226.314 -1.3867 1.28125 0
M  V30 2485 O 225.671 -1.79423 0.333721 0
M  V30 2486 C 225.722 -0.511252 3.57867 0
M  V30 2487 O 225.443 0.66378 4.33042 0
M  V30 2488 C 226.944 -1.13921 4.28412 0
M  V30 2489 H 224.164 -0.0193897 0.67072 0
M  V30 2490 H 226.708 0.583007 1.96013 0
M  V30 2491 H 224.863 -1.20723 3.6811 0
M  V30 2492 H 225.277 0.372601 5.23175 0
M  V30 2493 H 226.751 -1.33302 5.35663 0
M  V30 2494 H 227.228 -2.11296 3.85033 0
M  V30 2495 H 227.834 -0.483373 4.22544 0
M  V30 2496 N 226.149 -1.5696 0.141893 0
M  V30 2497 C 227.56 -1.82797 -0.379776 0
M  V30 2498 C 227.911 -1.06033 -1.6508 0
M  V30 2499 O 227.036 -0.304011 -2.14254 0
M  V30 2500 C 227.631 -3.31578 -0.695802 0
M  V30 2501 C 226.19 -3.58014 -1.16201 0
M  V30 2502 C 225.337 -2.76699 -0.182455 0
M  V30 2503 H 228.288 -1.54406 0.366675 0
M  V30 2504 H 228.309 -3.47454 -1.55099 0
M  V30 2505 H 227.821 -3.87421 0.229449 0
M  V30 2506 H 225.922 -3.07553 -2.10338 0
M  V30 2507 H 226.035 -4.66501 -1.09151 0
M  V30 2508 H 224.399 -2.45618 -0.674072 0
M  V30 2509 H 225.182 -3.35311 0.736297 0
M  V30 2510 N 227.627 0.131896 -1.57047 0
M  V30 2511 C 228.852 0.860418 -1.8871 0
M  V30 2512 C 229.277 1.73251 -0.73251 0
M  V30 2513 O 228.635 1.785 0.317429 0
M  V30 2514 C 228.683 1.68047 -3.19049 0
M  V30 2515 O 227.787 2.7862 -3.04047 0
M  V30 2516 H 227.128 0.238743 -0.619595 0
M  V30 2517 H 229.658 0.118169 -2.04258 0
M  V30 2518 H 229.668 2.07238 -3.51449 0
M  V30 2519 H 228.343 1.04018 -4.02682 0
M  V30 2520 H 226.92 2.42726 -2.83088 0
M  V30 2521 N 229.106 1.52395 0.401703 0
M  V30 2522 C 230.352 1.67065 1.14966 0
M  V30 2523 C 230.685 0.403052 1.89971 0
M  V30 2524 O 229.96 -0.598774 1.85054 0
M  V30 2525 C 230.243 2.8975 2.13815 0
M  V30 2526 C 230.096 4.26578 1.42658 0
M  V30 2527 C 231.415 3.07965 3.14397 0
M  V30 2528 H 228.534 0.607968 0.416587 0
M  V30 2529 H 231.176 1.84965 0.434511 0
M  V30 2530 H 229.326 2.74619 2.74803 0
M  V30 2531 H 230.998 4.53451 0.847329 0
M  V30 2532 H 229.241 4.27639 0.72849 0
M  V30 2533 H 229.912 5.08483 2.14823 0
M  V30 2534 H 232.388 3.22043 2.63491 0
M  V30 2535 H 231.264 3.95308 3.80819 0
M  V30 2536 H 231.525 2.21611 3.82545 0
M  V30 2537 N 230.584 -0.659388 1.43143 0
M  V30 2538 C 231.514 -1.78422 1.50625 0
M  V30 2539 C 232.495 -1.66216 0.361443 0
M  V30 2540 O 233.68 -1.85404 0.577834 0
M  V30 2541 C 230.81 -3.16815 1.42287 0
M  V30 2542 C 229.764 -3.43777 2.54954 0
M  V30 2543 C 229.09 -4.81905 2.31671 0
M  V30 2544 C 230.39 -3.39134 3.97222 0
M  V30 2545 H 232.084 -1.72417 2.44771 0
M  V30 2546 H 229.63 -0.828084 1.17808 0
M  V30 2547 H 231.583 -3.95253 1.46127 0
M  V30 2548 H 230.307 -3.23534 0.446435 0
M  V30 2549 H 228.966 -2.67707 2.50457 0
M  V30 2550 H 228.614 -4.85294 1.32284 0
M  V30 2551 H 228.314 -5.00906 3.07192 0
M  V30 2552 H 229.838 -5.62609 2.37284 0
M  V30 2553 H 231.252 -4.07518 4.03239 0
M  V30 2554 H 229.649 -3.69671 4.72719 0
M  V30 2555 H 230.719 -2.37426 4.22797 0
M  V30 2556 N 232.062 -1.29571 -0.897171 0
M  V30 2557 C 233.311 -1.1706 -1.64256 0
M  V30 2558 C 233.624 0.276476 -1.93636 0
M  V30 2559 O 234.83 0.52294 -2.66416 0
M  V30 2560 C 233.286 -2.0475 -2.95982 0
M  V30 2561 C 232.894 -3.54295 -2.74187 0
M  V30 2562 C 234.638 -2.0097 -3.73914 0
M  V30 2563 C 232.545 -4.34081 -4.01656 0
M  V30 2564 H 231.475 -0.43452 -0.616205 0
M  V30 2565 H 234.126 -1.54229 -0.994268 0
M  V30 2566 H 232.508 -1.60452 -3.62038 0
M  V30 2567 H 233.682 -4.06662 -2.1671 0
M  V30 2568 H 231.997 -3.59773 -2.09648 0
M  V30 2569 H 234.594 -2.57838 -4.68427 0
M  V30 2570 H 234.937 -0.990273 -4.0435 0
M  V30 2571 H 235.47 -2.43325 -3.14703 0
M  V30 2572 H 232.209 -5.36671 -3.76384 0
M  V30 2573 H 231.729 -3.86483 -4.58684 0
M  V30 2574 H 233.408 -4.44877 -4.69781 0
M  V30 2575 N 233.54 1.10788 -1.12088 0
M  V30 2576 C 234.787 1.82671 -0.873931 0
M  V30 2577 C 235.115 1.85004 0.600311 0
M  V30 2578 O 234.37 1.30365 1.45957 0
M  V30 2579 C 234.669 3.29294 -1.38926 0
M  V30 2580 C 234.335 3.47113 -2.87791 0
M  V30 2581 C 232.997 3.51684 -3.28439 0
M  V30 2582 C 235.349 3.52808 -3.83635 0
M  V30 2583 C 232.677 3.59513 -4.63646 0
M  V30 2584 C 235.029 3.62169 -5.18668 0
M  V30 2585 C 233.693 3.65003 -5.58864 0
M  V30 2586 H 232.963 0.668441 -0.319794 0
M  V30 2587 H 235.61 1.30613 -1.40045 0
M  V30 2588 H 233.915 3.83894 -0.783122 0
M  V30 2589 H 235.612 3.83416 -1.17443 0
M  V30 2590 H 232.202 3.4423 -2.5535 0
M  V30 2591 H 236.386 3.4853 -3.53328 0
M  V30 2592 H 231.642 3.59987 -4.94185 0
M  V30 2593 H 235.816 3.6552 -5.92763 0
M  V30 2594 H 233.443 3.70822 -6.63623 0
M  V30 2595 N 235.018 0.912232 1.28515 0
M  V30 2596 C 236.266 0.543523 1.94654 0
M  V30 2597 C 236.587 -0.9155 1.72173 0
M  V30 2598 O 235.857 -1.64708 1.06058 0
M  V30 2599 H 234.437 0.198017 0.720277 0
M  V30 2600 H 237.099 1.16126 1.56527 0
M  V30 2601 H 236.195 0.736684 3.03281 0
M  V30 2602 N 236.496 -1.42363 0.676048 0
M  V30 2603 C 237.907 -1.84649 0.275948 0
M  V30 2604 C 238.258 -1.56588 -1.18214 0
M  V30 2605 O 237.383 -1.02634 -1.90513 0
M  V30 2606 C 237.978 -3.35178 0.494053 0
M  V30 2607 C 236.537 -3.76109 0.148061 0
M  V30 2608 C 235.684 -2.65931 0.785891 0
M  V30 2609 H 238.635 -1.32192 0.878121 0
M  V30 2610 H 238.656 -3.79655 -0.25343 0
M  V30 2611 H 238.168 -3.55571 1.55535 0
M  V30 2612 H 236.269 -3.61323 -0.909742 0
M  V30 2613 H 236.382 -4.7546 0.589454 0
M  V30 2614 H 234.746 -2.53773 0.217113 0
M  V30 2615 H 235.529 -2.89146 1.85067 0
M  V30 2616 N 237.974 -0.419461 -1.51915 0
M  V30 2617 C 238.904 0.391813 -2.30189 0
M  V30 2618 C 239.885 1.03699 -1.34836 0
M  V30 2619 O 241.07 1.04403 -1.63748 0
M  V30 2620 C 238.2 1.50312 -3.13087 0
M  V30 2621 C 237.154 0.9824 -4.16573 0
M  V30 2622 C 236.48 2.18809 -4.8788 0
M  V30 2623 C 237.78 0.0292356 -5.22292 0
M  V30 2624 H 239.474 -0.26135 -2.98257 0
M  V30 2625 H 237.02 -0.127134 -1.43438 0
M  V30 2626 H 238.973 2.07773 -3.66617 0
M  V30 2627 H 237.697 2.18431 -2.42807 0
M  V30 2628 H 236.356 0.430119 -3.64068 0
M  V30 2629 H 236.004 2.85507 -4.14119 0
M  V30 2630 H 235.704 1.84615 -5.57845 0
M  V30 2631 H 237.228 2.76858 -5.44226 0
M  V30 2632 H 238.642 0.512976 -5.71 0
M  V30 2633 H 237.039 -0.2244 -5.9968 0
M  V30 2634 H 238.109 -0.912931 -4.76228 0
M  V30 2635 N 239.452 1.56882 -0.150215 0
M  V30 2636 C 240.863 1.82995 0.370076 0
M  V30 2637 C 241.214 1.06907 1.64515 0
M  V30 2638 O 240.339 0.315369 2.1409 0
M  V30 2639 C 240.934 3.31942 0.678208 0
M  V30 2640 C 239.493 3.58625 1.14301 0
M  V30 2641 C 238.64 2.76792 0.167778 0
M  V30 2642 H 241.591 1.54209 -0.374858 0
M  V30 2643 H 241.612 3.48272 1.53254 0
M  V30 2644 H 241.124 3.87294 -0.249991 0
M  V30 2645 H 239.225 3.08664 2.08704 0
M  V30 2646 H 239.338 4.67073 1.06676 0
M  V30 2647 H 237.702 2.45972 0.661037 0
M  V30 2648 H 238.485 3.34916 -0.754069 0
M  V30 2649 N 240.93 -0.123565 1.57115 0
M  V30 2650 C 241.878 -1.17082 2.00984 0
M  V30 2651 C 242.872 -1.43136 0.906009 0
M  V30 2652 O 244.078 -1.43152 1.09121 0
M  V30 2653 H 240.453 -0.394653 0.64012 0
M  V30 2654 H 242.424 -0.774292 2.88179 0
M  V30 2655 C 241.173 -2.49057 2.42623 0
M  V30 2656 H 240.496 -2.29846 3.27125 0
M  V30 2657 H 241.936 -3.20906 2.7712 0
M  V30 2658 C 240.395 -3.11305 1.28805 0
M  V30 2659 O 240.925 -3.97171 0.60153 0
M  V30 2660 N 239.131 -2.71111 1.04628 0
M  V30 2661 H 238.678 -2.01382 1.60634 0
M  V30 2662 H 238.636 -3.1309 0.286685 0
M  V30 2663 N 242.408 -1.52605 -0.393616 0
M  V30 2664 C 243.657 -1.66649 -1.13627 0
M  V30 2665 C 243.97 -0.410364 -1.91247 0
M  V30 2666 O 245.176 -0.430854 -2.68059 0
M  V30 2667 C 243.632 -2.9449 -2.06891 0
M  V30 2668 C 243.24 -4.27266 -1.34714 0
M  V30 2669 C 244.984 -3.17899 -2.81319 0
M  V30 2670 C 242.891 -5.46217 -2.26717 0
M  V30 2671 H 241.821 -0.62084 -0.427871 0
M  V30 2672 H 244.472 -1.791 -0.399428 0
M  V30 2673 H 242.854 -2.75774 -2.84191 0
M  V30 2674 H 244.028 -4.56518 -0.626714 0
M  V30 2675 H 242.343 -4.10081 -0.722643 0
M  V30 2676 H 244.94 -4.03949 -3.50328 0
M  V30 2677 H 245.283 -2.32777 -3.45139 0
M  V30 2678 H 245.816 -3.37159 -2.11113 0
M  V30 2679 H 242.555 -6.33733 -1.67521 0
M  V30 2680 H 242.075 -5.21283 -2.96689 0
M  V30 2681 H 243.754 -5.7991 -2.86903 0
M  V30 2682 N 243.887 0.651787 -1.4349 0
M  V30 2683 C 244.817 1.77621 -1.51569 0
M  V30 2684 C 245.798 1.66022 -0.370253 0
M  V30 2685 O 246.983 1.85095 -0.587658 0
M  V30 2686 C 244.113 3.16056 -1.43966 0
M  V30 2687 C 243.067 3.4242 -2.56774 0
M  V30 2688 C 242.393 4.8067 -2.34223 0
M  V30 2689 C 243.693 3.37023 -3.99015 0
M  V30 2690 H 245.387 1.71117 -2.45681 0
M  V30 2691 H 242.933 0.821825 -1.18246 0
M  V30 2692 H 244.886 3.94472 -1.48221 0
M  V30 2693 H 243.61 3.23293 -0.463586 0
M  V30 2694 H 242.269 2.66375 -2.51873 0
M  V30 2695 H 241.917 4.84585 -1.34856 0
M  V30 2696 H 241.617 4.9927 -3.09844 0
M  V30 2697 H 243.141 5.61342 -2.40265 0
M  V30 2698 H 244.555 4.05374 -4.05395 0
M  V30 2699 H 242.952 3.67159 -4.74673 0
M  V30 2700 H 244.022 2.3518 -4.2405 0
M  V30 2701 N 245.365 1.30045 0.890287 0
M  V30 2702 C 246.642 1.09227 1.62262 0
M  V30 2703 C 247.022 -0.360305 2.08002 0
M  V30 2704 O 246.37 -1.35084 1.84295 0
M  V30 2705 C 246.58 2.08835 2.79623 0
M  V30 2706 C 247.928 2.40266 3.50082 0
M  V30 2707 O 248.952 2.07104 2.89804 0
M  V30 2708 O 247.811 2.96967 4.58773 0
M  V30 2709 H 244.905 0.419132 0.712922 0
M  V30 2710 H 247.451 1.41451 0.937529 0
M  V30 2711 H 246.223 3.06633 2.43089 0
M  V30 2712 H 245.846 1.77397 3.55832 0
M  V30 2713 N 246.843 -1.10192 1.12674 0
M  V30 2714 C 248.073 -1.85713 0.905213 0
M  V30 2715 C 248.481 -1.81056 -0.549108 0
M  V30 2716 O 247.824 -1.19927 -1.39151 0
M  V30 2717 C 247.886 -3.34972 1.30516 0
M  V30 2718 C 247.55 -3.63385 2.77129 0
M  V30 2719 C 248.547 -3.59772 3.75313 0
M  V30 2720 C 246.232 -3.91981 3.14096 0
M  V30 2721 C 248.226 -3.84354 5.08479 0
M  V30 2722 C 245.913 -4.16218 4.47443 0
M  V30 2723 C 246.911 -4.12395 5.44444 0
M  V30 2724 O 246.599 -4.36014 6.75387 0
M  V30 2725 H 246.331 -0.593719 0.323223 0
M  V30 2726 H 248.885 -1.40198 1.50112 0
M  V30 2727 H 247.115 -3.81156 0.652463 0
M  V30 2728 H 248.804 -3.91886 1.05736 0
M  V30 2729 H 249.57 -3.37716 3.48099 0
M  V30 2730 H 245.449 -3.94085 2.39202 0
M  V30 2731 H 248.993 -3.81285 5.84181 0
M  V30 2732 H 244.89 -4.37754 4.74386 0
M  V30 2733 H 245.658 -4.53516 6.8137 0
M  V30 2734 N 248.321 -0.919034 -1.28029 0
M  V30 2735 C 249.549 -0.570971 -1.98866 0
M  V30 2736 C 249.964 0.848996 -1.68634 0
M  V30 2737 O 249.321 1.56307 -0.942036 0
M  V30 2738 C 249.372 -0.776876 -3.53054 0
M  V30 2739 O 249.093 -2.14097 -3.82222 0
M  V30 2740 C 250.594 -0.436356 -4.41147 0
M  V30 2741 H 247.814 -0.217175 -0.634883 0
M  V30 2742 H 250.358 -1.23368 -1.63097 0
M  V30 2743 H 248.513 -0.161085 -3.87065 0
M  V30 2744 H 248.927 -2.18455 -4.76841 0
M  V30 2745 H 250.401 -0.63117 -5.4838 0
M  V30 2746 H 250.878 0.627686 -4.34692 0
M  V30 2747 H 251.484 -1.02991 -4.12641 0
M  V30 2748 N 249.799 1.42003 -0.683588 0
M  V30 2749 C 250.762 2.29191 -0.0198243 0
M  V30 2750 C 251.762 1.43773 0.72013 0
M  V30 2751 O 252.952 1.65061 0.556815 0
M  V30 2752 C 250.084 3.26435 0.982487 0
M  V30 2753 H 251.277 2.8938 -0.787345 0
M  V30 2754 H 248.83 1.49789 -0.446418 0
M  V30 2755 H 249.565 2.71203 1.77819 0
M  V30 2756 H 249.35 3.89449 0.455182 0
M  V30 2757 H 250.84 3.918 1.44508 0
M  V30 2758 N 251.277 0.427512 1.51691 0
M  V30 2759 C 252.502 -0.143601 2.06902 0
M  V30 2760 C 252.927 -1.36536 1.29382 0
M  V30 2761 O 252.285 -1.78289 0.329043 0
M  V30 2762 C 252.333 -0.454207 3.57728 0
M  V30 2763 O 251.437 -1.54228 3.82475 0
M  V30 2764 H 250.778 -0.00617128 0.663971 0
M  V30 2765 H 253.308 0.606014 1.95419 0
M  V30 2766 H 253.318 -0.707525 4.01818 0
M  V30 2767 H 251.993 0.438812 4.13579 0
M  V30 2768 H 250.57 -1.2797 3.50254 0
M  V30 2769 N 252.755 -1.56801 0.158532 0
M  V30 2770 C 253.685 -2.20347 -0.772609 0
M  V30 2771 C 254.666 -1.15518 -1.24859 0
M  V30 2772 O 255.851 -1.43902 -1.30406 0
M  V30 2773 C 252.981 -2.83417 -2.00729 0
M  V30 2774 C 251.935 -3.94174 -1.66765 0
M  V30 2775 C 251.261 -4.44233 -2.97592 0
M  V30 2776 C 252.561 -5.14392 -0.905447 0
M  V30 2777 H 254.255 -2.98413 -0.242959 0
M  V30 2778 H 251.801 -1.43537 -0.115419 0
M  V30 2779 H 253.754 -3.26543 -2.6636 0
M  V30 2780 H 252.478 -2.02701 -2.56086 0
M  V30 2781 H 251.137 -3.51684 -1.03508 0
M  V30 2782 H 250.785 -3.60325 -3.50963 0
M  V30 2783 H 250.485 -5.18945 -2.75626 0
M  V30 2784 H 252.009 -4.90037 -3.64274 0
M  V30 2785 H 253.423 -5.5429 -1.46408 0
M  V30 2786 H 251.82 -5.9494 -0.7853 0
M  V30 2787 H 252.89 -4.84795 0.100668 0
M  V30 2788 N 254.233 0.115231 -1.57178 0
M  V30 2789 C 255.461 0.836437 -1.89239 0
M  V30 2790 C 255.876 1.73256 -0.750175 0
M  V30 2791 O 255.233 1.80357 0.278832 0
M  V30 2792 C 255.284 1.66671 -3.20785 0
M  V30 2793 O 255.005 0.806652 -4.3061 0
M  V30 2794 C 256.506 2.49274 -3.66575 0
M  V30 2795 H 253.726 0.240253 -0.626514 0
M  V30 2796 H 256.27 0.0984932 -2.04263 0
M  V30 2797 H 254.425 2.35737 -3.0742 0
M  V30 2798 H 254.839 1.37969 -5.06028 0
M  V30 2799 H 256.313 3.03055 -4.6137 0
M  V30 2800 H 256.79 3.26807 -2.93417 0
M  V30 2801 H 257.396 1.85443 -3.82741 0
M  V30 2802 N 255.711 1.52812 0.385517 0
M  V30 2803 C 256.641 1.80808 1.47752 0
M  V30 2804 C 257.622 0.660318 1.5676 0
M  V30 2805 O 258.807 0.908246 1.71652 0
M  V30 2806 C 255.937 1.98008 2.85324 0
M  V30 2807 C 254.891 3.13709 2.91154 0
M  V30 2808 C 254.217 3.16169 4.31209 0
M  V30 2809 C 255.517 4.52709 2.60483 0
M  V30 2810 H 257.211 2.72253 1.24573 0
M  V30 2811 H 254.757 1.31003 0.597839 0
M  V30 2812 H 256.71 2.16176 3.61726 0
M  V30 2813 H 255.434 1.03255 3.09848 0
M  V30 2814 H 254.093 2.95329 2.17201 0
M  V30 2815 H 253.741 2.19092 4.52778 0
M  V30 2816 H 253.441 3.93894 4.36029 0
M  V30 2817 H 254.965 3.36496 5.09512 0
M  V30 2818 H 256.379 4.71173 3.26602 0
M  V30 2819 H 254.776 5.32528 2.76648 0
M  V30 2820 H 255.846 4.59186 1.55809 0
M  V30 2821 N 257.189 -0.644168 1.43834 0
M  V30 2822 C 258.121 -1.76955 1.45669 0
M  V30 2823 C 259.134 -1.58956 0.351666 0
M  V30 2824 O 260.323 -1.6751 0.616644 0
M  V30 2825 C 257.423 -3.14507 1.26248 0
M  V30 2826 C 256.596 -3.59083 2.49757 0
M  V30 2827 C 255.655 -4.75467 2.25427 0
M  V30 2828 O 254.681 -4.84444 2.98836 0
M  V30 2829 N 255.883 -5.66289 1.27661 0
M  V30 2830 H 258.648 -1.75856 2.42682 0
M  V30 2831 H 256.209 -0.828312 1.39106 0
M  V30 2832 H 258.201 -3.90067 1.0784 0
M  V30 2833 H 256.771 -3.10325 0.376478 0
M  V30 2834 H 255.991 -2.7387 2.8353 0
M  V30 2835 H 257.279 -3.85613 3.31934 0
M  V30 2836 H 256.677 -5.61718 0.670064 0
M  V30 2837 H 255.234 -6.41533 1.15234 0
M  V30 2838 N 258.668 -1.30515 -0.883378 0
M  V30 2839 C 259.916 -1.19194 -1.63209 0
M  V30 2840 C 260.237 0.253205 -1.93349 0
M  V30 2841 O 259.507 1.17025 -1.57105 0
M  V30 2842 H 258.087 -0.438148 -0.605009 0
M  V30 2843 H 260.749 -1.63663 -1.05832 0
M  V30 2844 H 259.845 -1.75396 -2.58153 0
M  V30 2845 N 260.146 1.09593 -1.13257 0
M  V30 2846 C 261.078 2.16015 -0.766167 0
M  V30 2847 C 262.091 1.61423 0.211303 0
M  V30 2848 O 263.28 1.78498 -0.00863946 0
M  V30 2849 C 260.38 3.38706 -0.114662 0
M  V30 2850 C 259.553 4.22717 -1.12379 0
M  V30 2851 C 258.612 5.23835 -0.498301 0
M  V30 2852 O 257.638 5.573 -1.15781 0
M  V30 2853 N 258.84 5.75886 0.730417 0
M  V30 2854 H 261.605 2.48055 -1.68193 0
M  V30 2855 H 259.166 1.25292 -1.02535 0
M  V30 2856 H 261.158 4.03464 0.315991 0
M  V30 2857 H 259.728 3.04569 0.704011 0
M  V30 2858 H 258.948 3.54122 -1.73179 0
M  V30 2859 H 260.236 4.75673 -1.80589 0
M  V30 2860 H 259.634 5.50911 1.28504 0
M  V30 2861 H 258.191 6.42387 1.10376 0
M  V30 2862 N 261.624 0.925811 1.2754 0
M  V30 2863 C 262.556 0.380753 2.26015 0
M  V30 2864 C 263.569 -0.487485 1.5533 0
M  V30 2865 O 264.758 -0.300413 1.75954 0
M  V30 2866 C 261.858 -0.473259 3.35579 0
M  V30 2867 C 261.031 0.375249 4.35787 0
M  V30 2868 C 260.09 -0.415809 5.24555 0
M  V30 2869 O 259.116 0.175834 5.68928 0
M  V30 2870 N 260.318 -1.71607 5.54555 0
M  V30 2871 H 263.083 1.22725 2.73421 0
M  V30 2872 H 260.644 0.793037 1.41147 0
M  V30 2873 H 262.636 -1.00949 3.91907 0
M  V30 2874 H 261.206 -1.2205 2.87789 0
M  V30 2875 H 260.426 1.09279 3.7875 0
M  V30 2876 H 261.714 0.955399 4.99749 0
M  V30 2877 H 261.112 -2.2191 5.20358 0
M  V30 2878 H 259.669 -2.19887 6.1359 0
M  V30 2879 N 263.102 -1.41638 0.69111 0
M  V30 2880 C 264.327 -2.06148 0.227583 0
M  V30 2881 C 264.752 -1.51652 -1.11281 0
M  V30 2882 O 264.11 -0.64164 -1.69566 0
M  V30 2883 C 264.158 -3.60095 0.190858 0
M  V30 2884 O 263.262 -4.03845 -0.835664 0
M  V30 2885 H 262.603 -0.654434 0.112306 0
M  V30 2886 H 265.133 -1.81484 0.944714 0
M  V30 2887 H 265.143 -4.07995 0.020207 0
M  V30 2888 H 263.818 -3.99129 1.16915 0
M  V30 2889 H 262.395 -3.67458 -0.63473 0
M  V30 2890 N 264.58 -0.43555 -1.51462 0
M  V30 2891 C 265.528 0.391205 -2.29287 0
M  V30 2892 C 266.522 1.02247 -1.35062 0
M  V30 2893 O 267.728 0.957646 -1.52411 0
M  V30 2894 H 264.103 0.144968 -0.737895 0
M  V30 2895 H 266.074 -0.286051 -2.97026 0
M  V30 2896 C 264.823 1.48096 -3.14583 0
M  V30 2897 H 264.146 1.00457 -3.86973 0
M  V30 2898 H 265.586 2.03273 -3.72097 0
M  V30 2899 C 264.045 2.46321 -2.29843 0
M  V30 2900 O 264.575 3.50815 -1.95682 0
M  V30 2901 N 262.781 2.17166 -1.931 0
M  V30 2902 H 262.328 1.32218 -2.21079 0
M  V30 2903 H 262.286 2.83127 -1.36698 0
M  V30 2904 N 266.058 1.56714 -0.166846 0
M  V30 2905 C 267.469 1.83378 0.350646 0
M  V30 2906 C 267.82 1.08646 1.63372 0
M  V30 2907 O 266.945 0.338058 2.13743 0
M  V30 2908 C 267.54 3.32643 0.642963 0
M  V30 2909 C 266.099 3.59818 1.10491 0
M  V30 2910 C 265.246 2.76954 0.138411 0
M  V30 2911 H 268.197 1.53803 -0.391193 0
M  V30 2912 H 268.218 3.49878 1.49551 0
M  V30 2913 H 267.73 3.87007 -0.291055 0
M  V30 2914 H 265.831 3.1086 2.05418 0
M  V30 2915 H 265.944 4.68178 1.01716 0
M  V30 2916 H 264.308 2.4666 0.634911 0
M  V30 2917 H 265.091 3.34097 -0.789549 0
M  V30 2918 N 267.536 -0.106894 1.57237 0
M  V30 2919 C 268.761 -0.830287 1.90055 0
M  V30 2920 C 269.186 -1.72064 0.75998 0
M  V30 2921 O 268.544 -1.78982 -0.288991 0
M  V30 2922 C 268.592 -1.6295 3.21683 0
M  V30 2923 O 267.696 -2.73748 3.08441 0
M  V30 2924 H 267.037 -0.228855 0.623315 0
M  V30 2925 H 269.567 -0.085658 2.04421 0
M  V30 2926 H 269.577 -2.01621 3.54701 0
M  V30 2927 H 268.252 -0.975989 4.04286 0
M  V30 2928 H 266.829 -2.38192 2.86913 0
M  V30 2929 N 269.014 -1.53014 -0.377408 0
M  V30 2930 C 270.261 -1.68623 -1.12128 0
M  V30 2931 C 270.589 -0.431997 -1.89642 0
M  V30 2932 O 269.844 0.585855 -1.86725 0
M  V30 2933 C 270.143 -2.87982 -2.11663 0
M  V30 2934 C 269.809 -4.24964 -1.50719 0
M  V30 2935 C 268.471 -4.62217 -1.33825 0
M  V30 2936 C 270.823 -5.10199 -1.06519 0
M  V30 2937 C 268.151 -5.82352 -0.712963 0
M  V30 2938 C 270.503 -6.30969 -0.453955 0
M  V30 2939 C 269.167 -6.66944 -0.272411 0
M  V30 2940 H 268.437 -0.617034 -0.410305 0
M  V30 2941 H 271.084 -1.8718 -0.404484 0
M  V30 2942 H 269.389 -2.63889 -2.89603 0
M  V30 2943 H 271.086 -2.97253 -2.6915 0
M  V30 2944 H 267.676 -3.95626 -1.64858 0
M  V30 2945 H 271.86 -4.81978 -1.18368 0
M  V30 2946 H 267.116 -6.08824 -0.560611 0
M  V30 2947 H 271.29 -6.96324 -0.103217 0
M  V30 2948 H 268.917 -7.59898 0.214181 0
M  V30 2949 N 270.492 0.636531 -1.44174 0
M  V30 2950 C 271.402 1.77754 -1.53103 0
M  V30 2951 C 272.418 1.68928 -0.417034 0
M  V30 2952 O 273.594 1.89801 -0.6736 0
M  V30 2953 C 270.659 3.14115 -1.46741 0
M  V30 2954 C 269.72 3.34612 -2.68948 0
M  V30 2955 C 268.953 4.64467 -2.6288 0
M  V30 2956 O 269.176 5.44919 -1.68581 0
M  V30 2957 O 268.11 4.87049 -3.53648 0
M  V30 2958 H 271.936 1.73174 -2.49489 0
M  V30 2959 H 269.521 0.79709 -1.2636 0
M  V30 2960 H 271.403 3.95412 -1.45696 0
M  V30 2961 H 270.078 3.19249 -0.534975 0
M  V30 2962 H 268.985 2.53014 -2.75562 0
M  V30 2963 H 270.318 3.34336 -3.61221 0
M  V30 2964 N 271.97 1.30982 0.876444 0
M  V30 2965 C 273.218 1.20058 1.62575 0
M  V30 2966 C 273.539 -0.242947 1.93481 0
M  V30 2967 O 272.809 -1.1619 1.57724 0
M  V30 2968 H 271.389 0.44135 0.602677 0
M  V30 2969 H 274.051 1.64222 1.04962 0
M  V30 2970 H 273.147 1.76762 2.57219 0
M  V30 2971 N 273.449 -1.08991 1.13837 0
M  V30 2972 C 274.696 -1.81258 0.902882 0
M  V30 2973 C 275.024 -1.85936 -0.570803 0
M  V30 2974 O 274.279 -1.3267 -1.43865 0
M  V30 2975 C 274.578 -3.27042 1.44147 0
M  V30 2976 C 274.244 -3.4249 2.93276 0
M  V30 2977 C 272.906 -3.46414 3.33992 0
M  V30 2978 C 275.258 -3.4666 3.892 0
M  V30 2979 C 272.586 -3.52091 4.69307 0
M  V30 2980 C 274.938 -3.53872 5.24364 0
M  V30 2981 C 273.602 -3.56066 5.646 0
M  V30 2982 H 272.872 -0.663268 0.330388 0
M  V30 2983 H 275.519 -1.28368 1.42105 0
M  V30 2984 H 273.824 -3.82599 0.844097 0
M  V30 2985 H 275.521 -3.81499 1.23528 0
M  V30 2986 H 272.111 -3.40124 2.60794 0
M  V30 2987 H 276.295 -3.42865 3.58828 0
M  V30 2988 H 271.551 -3.52079 4.9985 0
M  V30 2989 H 275.725 -3.56043 5.98503 0
M  V30 2990 H 273.352 -3.60218 6.69438 0
M  V30 2991 N 274.927 -0.932562 -1.27047 0
M  V30 2992 C 276.175 -0.574422 -1.93765 0
M  V30 2993 C 276.496 0.887993 -1.73608 0
M  V30 2994 O 275.766 1.62999 -1.08665 0
M  V30 2995 H 274.346 -0.209451 -0.717035 0
M  V30 2996 H 277.008 -1.18601 -1.5466 0
M  V30 2997 H 276.104 -0.784841 -3.02071 0
M  V30 2998 N 276.405 1.4127 -0.698611 0
M  V30 2999 C 277.633 2.05503 -0.239992 0
M  V30 3000 C 278.048 1.52584 1.11191 0
M  V30 3001 O 277.405 0.675323 1.69545 0
M  V30 3002 C 277.456 3.60987 -0.192429 0
M  V30 3003 O 277.177 4.1195 -1.49094 0
M  V30 3004 C 278.678 4.42371 0.28681 0
M  V30 3005 H 275.898 0.661748 -0.111045 0
M  V30 3006 H 278.442 1.80987 -0.95205 0
M  V30 3007 H 276.597 3.84533 0.470472 0
M  V30 3008 H 277.011 5.06018 -1.38007 0
M  V30 3009 H 278.485 5.51344 0.26896 0
M  V30 3010 H 278.962 4.18699 1.32619 0
M  V30 3011 H 279.568 4.23897 -0.345201 0
M  V30 3012 N 277.883 0.443576 1.51229 0
M  V30 3013 C 278.813 -0.355142 2.30783 0
M  V30 3014 C 279.794 -1.0154 1.36468 0
M  V30 3015 O 280.979 -1.01785 1.65389 0
M  V30 3016 C 278.109 -1.45312 3.15439 0
M  V30 3017 C 277.063 -0.916002 4.18083 0
M  V30 3018 C 276.389 -2.1102 4.91299 0
M  V30 3019 C 277.689 0.0538602 5.22272 0
M  V30 3020 H 279.383 0.308767 2.97804 0
M  V30 3021 H 276.929 0.149937 1.43217 0
M  V30 3022 H 278.882 -2.01914 3.69876 0
M  V30 3023 H 277.606 -2.14541 2.46252 0
M  V30 3024 H 276.265 -0.372145 3.64706 0
M  V30 3025 H 275.913 -2.78882 4.18609 0
M  V30 3026 H 275.613 -1.75717 5.60712 0
M  V30 3027 H 277.137 -2.68164 5.48562 0
M  V30 3028 H 278.551 -0.422069 5.71744 0
M  V30 3029 H 276.948 0.319776 5.99247 0
M  V30 3030 H 278.018 0.98858 4.74716 0
M  V30 3031 N 279.361 -1.56624 0.175154 0
M  V30 3032 C 280.586 -2.01813 -0.478137 0
M  V30 3033 C 281.011 -1.05457 -1.55757 0
M  V30 3034 O 280.369 -0.0347439 -1.81267 0
M  V30 3035 C 280.417 -3.45581 -1.02987 0
M  V30 3036 O 279.521 -3.52305 -2.14371 0
M  V30 3037 H 278.862 -0.65413 -0.114059 0
M  V30 3038 H 281.392 -2.02673 0.280173 0
M  V30 3039 H 281.402 -3.84965 -1.35151 0
M  V30 3040 H 280.077 -4.1521 -0.239556 0
M  V30 3041 H 278.654 -3.24783 -1.83222 0
M  V30 3042 N 280.839 0.0985539 -1.57292 0
M  V30 3043 C 282.088 0.801358 -1.85098 0
M  V30 3044 C 282.401 1.80066 -0.763902 0
M  V30 3045 O 283.607 2.55112 -0.928981 0
M  V30 3046 C 282.063 1.47599 -3.28242 0
M  V30 3047 C 281.671 0.516624 -4.45011 0
M  V30 3048 C 283.415 2.16272 -3.65276 0
M  V30 3049 C 281.322 1.19564 -5.79188 0
M  V30 3050 H 280.252 0.303022 -0.69043 0
M  V30 3051 H 282.903 0.0542623 -1.8342 0
M  V30 3052 H 281.285 2.27042 -3.2445 0
M  V30 3053 H 282.459 -0.246065 -4.60143 0
M  V30 3054 H 280.774 -0.064227 -4.1635 0
M  V30 3055 H 283.371 2.67802 -4.62803 0
M  V30 3056 H 283.714 2.95009 -2.93727 0
M  V30 3057 H 284.247 1.43693 -3.70941 0
M  V30 3058 H 280.986 0.449157 -6.53959 0
M  V30 3059 H 280.506 1.92984 -5.67906 0
M  V30 3060 H 282.185 1.7231 -6.23633 0
M  V30 3061 N 282.317 1.53212 0.369288 0
M  V30 3062 C 283.247 1.82365 1.45826 0
M  V30 3063 C 284.228 0.676907 1.56051 0
M  V30 3064 O 285.413 0.926401 1.70679 0
M  V30 3065 C 282.543 2.01023 2.83208 0
M  V30 3066 C 281.497 3.1678 2.8781 0
M  V30 3067 C 280.823 3.20724 4.27832 0
M  V30 3068 C 282.123 4.55447 2.55667 0
M  V30 3069 H 283.817 2.73559 1.21678 0
M  V30 3070 H 281.363 1.3163 0.583911 0
M  V30 3071 H 283.316 2.20001 3.59413 0
M  V30 3072 H 282.04 1.06536 3.08736 0
M  V30 3073 H 280.699 2.97616 2.14056 0
M  V30 3074 H 280.347 2.23882 4.50429 0
M  V30 3075 H 280.047 3.98496 4.31827 0
M  V30 3076 H 281.571 3.41881 5.05915 0
M  V30 3077 H 282.985 4.74611 3.21586 0
M  V30 3078 H 281.382 5.35432 2.70984 0
M  V30 3079 H 282.452 4.60812 1.5093 0
M  V30 3080 N 283.795 -0.628877 1.44509 0
M  V30 3081 C 284.742 -1.74074 1.51549 0
M  V30 3082 C 285.712 -1.62084 0.363021 0
M  V30 3083 O 286.897 -1.81975 0.573567 0
M  V30 3084 C 284.037 -3.12328 1.46784 0
M  V30 3085 C 283.15 -3.35277 2.72422 0
M  V30 3086 C 282.285 -4.63515 2.59475 0
M  V30 3087 C 281.324 -4.7965 3.80266 0
M  V30 3088 N 280.461 -5.99168 3.65981 0
M  V30 3089 H 285.301 -1.67392 2.46544 0
M  V30 3090 H 282.838 -0.816527 1.22357 0
M  V30 3091 H 284.796 -3.92286 1.42012 0
M  V30 3092 H 283.426 -3.18018 0.553544 0
M  V30 3093 H 282.478 -2.49242 2.87372 0
M  V30 3094 H 283.79 -3.43078 3.62076 0
M  V30 3095 H 282.944 -5.51638 2.52548 0
M  V30 3096 H 281.683 -4.58076 1.67384 0
M  V30 3097 H 280.688 -3.89957 3.87574 0
M  V30 3098 H 281.913 -4.86902 4.73395 0
M  V30 3099 H 279.859 -5.94814 2.76644 0
M  V30 3100 H 279.776 -6.08035 4.49254 0
M  V30 3101 H 281.044 -6.89846 3.6295 0
M  V30 3102 N 285.273 -1.31445 -0.869486 0
M  V30 3103 C 286.519 -1.21337 -1.62496 0
M  V30 3104 C 286.852 0.227872 -1.92858 0
M  V30 3105 O 286.127 1.16094 -1.56053 0
M  V30 3106 C 286.41 -2.05814 -2.95487 0
M  V30 3107 C 286.263 -3.5824 -2.72 0
M  V30 3108 C 287.582 -1.9079 -3.96594 0
M  V30 3109 H 284.701 -0.442135 -0.589649 0
M  V30 3110 H 287.343 -1.6124 -1.00507 0
M  V30 3111 H 285.493 -1.71913 -3.48394 0
M  V30 3112 H 287.165 -4.0228 -2.25762 0
M  V30 3113 H 285.408 -3.81647 -2.06224 0
M  V30 3114 H 286.079 -4.12657 -3.66631 0
M  V30 3115 H 288.555 -2.20459 -3.52898 0
M  V30 3116 H 287.431 -2.52199 -4.87531 0
M  V30 3117 H 287.692 -0.871341 -4.33428 0
M  V30 3118 N 286.751 1.08385 -1.14413 0
M  V30 3119 C 287.714 2.13486 -0.834048 0
M  V30 3120 C 288.714 1.59988 0.161418 0
M  V30 3121 O 289.904 1.74071 -0.0669575 0
M  V30 3122 C 287.036 3.4003 -0.243354 0
M  V30 3123 H 288.229 2.42425 -1.7655 0
M  V30 3124 H 285.782 1.24101 -0.950189 0
M  V30 3125 H 286.517 3.16726 0.696807 0
M  V30 3126 H 286.302 3.80157 -0.960367 0
M  V30 3127 H 287.792 4.17577 -0.0436242 0
M  V30 3128 N 288.23 0.939286 1.26551 0
M  V30 3129 C 289.641 0.628782 1.75793 0
M  V30 3130 C 289.992 -0.856046 1.7654 0
M  V30 3131 O 289.117 -1.66994 1.3763 0
M  V30 3132 C 289.712 1.13465 3.19235 0
M  V30 3133 C 288.271 0.874601 3.66098 0
M  V30 3134 C 287.418 1.28667 2.45642 0
M  V30 3135 H 290.369 1.1178 1.12654 0
M  V30 3136 H 290.39 0.487609 3.77363 0
M  V30 3137 H 289.902 2.21535 3.1866 0
M  V30 3138 H 288.003 -0.191793 3.72106 0
M  V30 3139 H 288.116 1.50028 4.55004 0
M  V30 3140 H 286.48 0.705109 2.44745 0
M  V30 3141 H 287.263 2.37625 2.47769 0
M  V30 3142 N 289.708 -1.40897 0.706093 0
M  V30 3143 C 290.618 -2.3455 0.0482286 0
M  V30 3144 C 291.634 -1.56796 -0.754396 0
M  V30 3145 O 292.81 -1.89228 -0.689538 0
M  V30 3146 C 289.875 -3.35625 -0.869303 0
M  V30 3147 C 288.936 -4.29261 -0.0576994 0
M  V30 3148 C 288.169 -5.25508 -0.931531 0
M  V30 3149 O 288.392 -5.27472 -2.17092 0
M  V30 3150 O 287.326 -6.00727 -0.375587 0
M  V30 3151 H 291.152 -2.92407 0.820476 0
M  V30 3152 H 288.737 -1.4193 0.4665 0
M  V30 3153 H 290.619 -3.97635 -1.39514 0
M  V30 3154 H 289.294 -2.80196 -1.62086 0
M  V30 3155 H 288.201 -3.70566 0.512988 0
M  V30 3156 H 289.534 -4.87817 0.655426 0
M  V30 3157 N 291.186 -0.45159 -1.50991 0
M  V30 3158 C 292.433 0.110074 -2.02201 0
M  V30 3159 C 292.761 1.4146 -1.33489 0
M  V30 3160 O 292.016 1.90617 -0.443125 0
M  V30 3161 C 292.315 0.361728 -3.55565 0
M  V30 3162 C 291.981 -0.858717 -4.42648 0
M  V30 3163 C 290.643 -1.19338 -4.66167 0
M  V30 3164 C 292.995 -1.67221 -4.93646 0
M  V30 3165 C 290.323 -2.34195 -5.37931 0
M  V30 3166 C 292.675 -2.8119 -5.6667 0
M  V30 3167 C 291.339 -3.15094 -5.88449 0
M  V30 3168 H 290.609 0.040279 -0.739904 0
M  V30 3169 H 293.256 -0.601696 -1.81802 0
M  V30 3170 H 291.561 1.15554 -3.74372 0
M  V30 3171 H 293.258 0.80996 -3.92735 0
M  V30 3172 H 289.848 -0.58796 -4.24548 0
M  V30 3173 H 294.032 -1.42686 -4.75347 0
M  V30 3174 H 289.288 -2.6076 -5.53005 0
M  V30 3175 H 293.462 -3.44585 -6.05173 0
M  V30 3176 H 291.089 -4.04204 -6.43835 0
M  V30 3177 N 292.664 1.56529 -0.183458 0
M  V30 3178 C 293.594 2.21549 0.737456 0
M  V30 3179 C 294.575 1.17489 1.23005 0
M  V30 3180 O 295.76 1.45959 1.281 0
M  V30 3181 C 292.89 2.86575 1.96194 0
M  V30 3182 C 291.844 3.96778 1.60473 0
M  V30 3183 C 291.17 4.48911 2.90487 0
M  V30 3184 C 292.47 5.15767 0.823497 0
M  V30 3185 H 294.164 2.98761 0.195453 0
M  V30 3186 H 291.71 1.43702 0.0925686 0
M  V30 3187 H 293.663 3.30739 2.61131 0
M  V30 3188 H 292.387 2.06749 2.52828 0
M  V30 3189 H 291.046 3.53286 0.978997 0
M  V30 3190 H 290.694 3.65862 3.45186 0
M  V30 3191 H 290.394 5.23265 2.67335 0
M  V30 3192 H 291.918 4.95771 3.56432 0
M  V30 3193 H 293.332 5.56549 1.37571 0
M  V30 3194 H 291.729 5.96114 0.690551 0
M  V30 3195 H 292.799 4.84574 -0.177782 0
M  V30 3196 N 294.142 -0.090211 1.57342 0
M  V30 3197 C 295.072 -1.10976 2.05443 0
M  V30 3198 C 296.053 -1.41482 0.944284 0
M  V30 3199 O 297.238 -1.51428 1.21586 0
M  V30 3200 C 294.368 -2.42831 2.48295 0
M  V30 3201 C 293.322 -2.26721 3.63018 0
M  V30 3202 C 292.648 -3.63796 3.91863 0
M  V30 3203 C 293.948 -1.7037 4.93732 0
M  V30 3204 H 295.642 -0.709564 2.9087 0
M  V30 3205 H 293.188 -0.339874 1.39932 0
M  V30 3206 H 295.141 -3.14431 2.80555 0
M  V30 3207 H 293.865 -2.84795 1.59873 0
M  V30 3208 H 292.524 -1.57565 3.31012 0
M  V30 3209 H 292.172 -4.03297 3.00601 0
M  V30 3210 H 291.872 -3.53861 4.69101 0
M  V30 3211 H 293.396 -4.36855 4.26603 0
M  V30 3212 H 294.81 -2.31816 5.24342 0
M  V30 3213 H 293.207 -1.71181 5.75167 0
M  V30 3214 H 294.277 -0.663542 4.80339 0
M  V30 3215 N 295.62 -1.53406 -0.361157 0
M  V30 3216 C 296.848 -1.73717 -1.12383 0
M  V30 3217 C 297.263 -0.468161 -1.82904 0
M  V30 3218 O 296.62 0.559198 -1.73722 0
M  V30 3219 C 296.671 -2.90558 -2.15078 0
M  V30 3220 O 296.392 -4.12549 -1.47428 0
M  V30 3221 C 297.893 -3.22777 -3.03858 0
M  V30 3222 H 295.113 -0.580896 -0.335858 0
M  V30 3223 H 297.657 -2.00167 -0.418728 0
M  V30 3224 H 295.812 -2.66489 -2.8118 0
M  V30 3225 H 296.226 -4.78009 -2.15887 0
M  V30 3226 H 297.7 -4.07927 -3.71887 0
M  V30 3227 H 298.177 -2.38329 -3.68912 0
M  V30 3228 H 298.783 -3.48787 -2.43367 0
M  V30 3229 N 297.098 0.621204 -1.44841 0
M  V30 3230 C 298.345 1.38055 -1.48145 0
M  V30 3231 C 298.673 1.94143 -0.117867 0
M  V30 3232 O 297.928 1.74713 0.881694 0
M  V30 3233 C 298.227 2.55675 -2.4973 0
M  V30 3234 C 297.893 2.17817 -3.94799 0
M  V30 3235 C 296.555 2.07205 -4.34303 0
M  V30 3236 C 298.907 1.88065 -4.86087 0
M  V30 3237 C 296.235 1.65045 -5.63007 0
M  V30 3238 C 298.587 1.47394 -6.15189 0
M  V30 3239 C 297.251 1.35331 -6.53637 0
M  V30 3240 H 296.521 0.505181 -0.542101 0
M  V30 3241 H 299.168 0.703477 -1.78111 0
M  V30 3242 H 297.473 3.2866 -2.13284 0
M  V30 3243 H 299.17 3.13904 -2.4953 0
M  V30 3244 H 295.76 2.26998 -3.63552 0
M  V30 3245 H 299.944 1.95168 -4.56315 0
M  V30 3246 H 295.2 1.54317 -5.91605 0
M  V30 3247 H 299.374 1.23415 -6.85377 0
M  V30 3248 H 297.001 1.02435 -7.53267 0
M  V30 3249 N 298.576 1.31904 0.862503 0
M  V30 3250 C 299.801 1.25135 1.65397 0
M  V30 3251 C 300.226 -0.179 1.87246 0
M  V30 3252 O 299.584 -1.1277 1.4196 0
M  V30 3253 C 299.632 2.00832 2.99498 0
M  V30 3254 O 298.736 1.35075 3.89652 0
M  V30 3255 H 298.077 0.431655 0.504549 0
M  V30 3256 H 300.607 1.74094 1.07483 0
M  V30 3257 H 300.617 2.10709 3.49379 0
M  V30 3258 H 299.292 3.04847 2.82916 0
M  V30 3259 H 297.869 1.33696 3.48109 0
M  V30 3260 N 300.054 -1.07777 1.14986 0
M  V30 3261 C 301.331 -1.7699 0.832695 0
M  V30 3262 C 301.711 -2.001 -0.672561 0
M  V30 3263 O 301.059 -1.61598 -1.6155 0
M  V30 3264 C 301.269 -3.08139 1.63863 0
M  V30 3265 C 302.617 -3.8256 1.84208 0
M  V30 3266 O 303.641 -3.17939 1.60603 0
M  V30 3267 O 302.5 -4.98612 2.23714 0
M  V30 3268 H 299.594 -0.768389 0.305791 0
M  V30 3269 H 302.14 -1.14182 1.25541 0
M  V30 3270 H 300.912 -2.86909 2.6608 0
M  V30 3271 H 300.535 -3.78678 1.21197 0
M  V30 3272 N 301.532 -0.945985 -1.26051 0
M  V30 3273 C 302.778 -0.597002 -1.93814 0
M  V30 3274 C 303.111 0.862484 -1.73997 0
M  V30 3275 O 302.386 1.61769 -1.07986 0
M  V30 3276 C 302.669 -0.945937 -3.47454 0
M  V30 3277 C 302.522 -2.46052 -3.76535 0
M  V30 3278 C 303.841 -0.464785 -4.37639 0
M  V30 3279 H 300.96 -0.218366 -0.703907 0
M  V30 3280 H 303.602 -1.18107 -1.48831 0
M  V30 3281 H 301.752 -0.448902 -3.85898 0
M  V30 3282 H 303.424 -3.03065 -3.47778 0
M  V30 3283 H 301.667 -2.90194 -3.22444 0
M  V30 3284 H 302.338 -2.65517 -4.83947 0
M  V30 3285 H 304.814 -0.891016 -4.06448 0
M  V30 3286 H 303.69 -0.737712 -5.4392 0
M  V30 3287 H 303.951 0.635274 -4.37512 0
M  V30 3288 N 303.011 1.40521 -0.713556 0
M  V30 3289 C 304.239 2.05237 -0.261775 0
M  V30 3290 C 304.654 1.53755 1.09567 0
M  V30 3291 O 304.011 0.693268 1.6882 0
M  V30 3292 C 304.062 3.60763 -0.230706 0
M  V30 3293 O 303.783 4.10345 -1.53455 0
M  V30 3294 C 305.284 4.42651 0.239874 0
M  V30 3295 H 302.504 0.660533 -0.118057 0
M  V30 3296 H 305.048 1.79967 -0.971192 0
M  V30 3297 H 303.203 3.8501 0.429661 0
M  V30 3298 H 303.617 5.04526 -1.43366 0
M  V30 3299 H 305.091 5.51599 0.210468 0
M  V30 3300 H 305.568 4.20082 1.28171 0
M  V30 3301 H 306.174 4.23507 -0.390142 0
M  V30 3302 N 304.489 0.459591 1.5075 0
M  V30 3303 C 305.714 -0.0996819 2.0716 0
M  V30 3304 C 306.139 -1.33761 1.32249 0
M  V30 3305 O 305.497 -1.77551 0.366786 0
M  V30 3306 C 305.545 -0.378226 3.58611 0
M  V30 3307 O 304.649 -1.46081 3.85661 0
M  V30 3308 H 303.99 0.00791392 0.663953 0
M  V30 3309 H 306.52 0.647329 1.9409 0
M  V30 3310 H 306.53 -0.622135 4.03229 0
M  V30 3311 H 305.205 0.526439 4.12555 0
M  V30 3312 H 303.782 -1.20511 3.5289 0
M  V30 3313 N 305.967 -1.56429 0.191757 0
M  V30 3314 C 306.915 -2.20273 -0.747174 0
M  V30 3315 C 307.909 -1.17288 -1.22229 0
M  V30 3316 O 309.115 -1.35441 -1.18557 0
M  V30 3317 H 305.49 -0.705885 -0.259289 0
M  V30 3318 H 307.461 -2.97826 -0.184963 0
M  V30 3319 C 306.21 -2.87356 -1.95759 0
M  V30 3320 H 305.533 -3.66341 -1.60106 0
M  V30 3321 H 306.973 -3.3547 -2.59299 0
M  V30 3322 C 305.432 -1.88213 -2.79423 0
M  V30 3323 O 305.962 -1.38033 -3.7724 0
M  V30 3324 N 304.168 -1.56516 -2.44849 0
M  V30 3325 H 303.715 -1.97516 -1.65364 0
M  V30 3326 H 303.673 -0.904369 -3.01112 0
M  V30 3327 N 307.445 0.0818655 -1.57387 0
M  V30 3328 C 308.377 1.12484 -1.997 0
M  V30 3329 C 309.39 1.35564 -0.90146 0
M  V30 3330 O 310.579 1.33982 -1.17945 0
M  V30 3331 C 307.679 2.47778 -2.31213 0
M  V30 3332 C 306.852 2.44793 -3.62485 0
M  V30 3333 C 305.911 3.62117 -3.81782 0
M  V30 3334 O 304.937 3.44005 -4.53486 0
M  V30 3335 N 306.139 4.82094 -3.23367 0
M  V30 3336 H 308.904 0.764585 -2.89783 0
M  V30 3337 H 306.465 0.270664 -1.59621 0
M  V30 3338 H 308.457 3.24891 -2.41304 0
M  V30 3339 H 307.027 2.75843 -1.4707 0
M  V30 3340 H 306.247 1.53134 -3.6324 0
M  V30 3341 H 307.535 2.39889 -4.48699 0
M  V30 3342 H 306.933 4.99713 -2.65148 0
M  V30 3343 H 305.49 5.56753 -3.38923 0
M  V30 3344 N 308.923 1.53595 0.353017 0
M  V30 3345 C 310.148 1.7462 1.11904 0
M  V30 3346 C 310.573 0.479721 1.8188 0
M  V30 3347 O 309.931 -0.567066 1.72204 0
M  V30 3348 C 309.979 2.92029 2.11545 0
M  V30 3349 O 309.083 2.61516 3.18878 0
M  V30 3350 H 308.424 0.579531 0.324099 0
M  V30 3351 H 310.954 2.00525 0.406301 0
M  V30 3352 H 310.964 3.18551 2.5493 0
M  V30 3353 H 309.639 3.83888 1.60008 0
M  V30 3354 H 308.216 2.45852 2.80377 0
M  V30 3355 N 310.401 -0.613514 1.45168 0
M  V30 3356 C 311.626 -1.40437 1.52618 0
M  V30 3357 C 312.051 -1.87438 0.157707 0
M  V30 3358 O 311.409 -1.59791 -0.856537 0
M  V30 3359 C 311.457 -2.58894 2.51011 0
M  V30 3360 O 310.561 -3.59326 2.02382 0
M  V30 3361 H 309.902 -0.419506 0.514695 0
M  V30 3362 H 312.432 -0.747215 1.90467 0
M  V30 3363 H 312.442 -3.06214 2.69624 0
M  V30 3364 H 311.117 -2.24032 3.50403 0
M  V30 3365 H 309.694 -3.18695 1.93618 0
M  V30 3366 N 311.879 -1.3236 -0.855495 0
M  V30 3367 C 312.842 -1.21164 -1.94556 0
M  V30 3368 C 313.842 -0.134908 -1.60233 0
M  V30 3369 O 315.032 -0.385249 -1.69887 0
M  V30 3370 C 312.164 -0.863192 -3.29791 0
M  V30 3371 H 313.357 -2.18038 -2.05911 0
M  V30 3372 H 310.91 -1.16179 -1.04557 0
M  V30 3373 H 311.645 0.103769 -3.24134 0
M  V30 3374 H 311.43 -1.64166 -3.56078 0
M  V30 3375 H 312.92 -0.809156 -4.09686 0
M  V30 3376 N 313.357 1.07166 -1.15556 0
M  V30 3377 C 314.603 1.80065 -0.932984 0
M  V30 3378 C 314.936 1.86586 0.53845 0
M  V30 3379 O 314.211 1.35098 1.39924 0
M  V30 3380 C 314.494 3.25022 -1.55025 0
M  V30 3381 C 314.347 3.26634 -3.09242 0
M  V30 3382 C 315.666 4.22341 -1.2376 0
M  V30 3383 H 312.785 0.653697 -0.340366 0
M  V30 3384 H 315.427 1.25389 -1.4275 0
M  V30 3385 H 313.577 3.71712 -1.12972 0
M  V30 3386 H 315.249 2.88173 -3.60214 0
M  V30 3387 H 313.492 2.65539 -3.43033 0
M  V30 3388 H 314.163 4.28854 -3.47546 0
M  V30 3389 H 316.639 3.8405 -1.60139 0
M  V30 3390 H 315.515 5.22053 -1.69564 0
M  V30 3391 H 315.776 4.41828 -0.154938 0
M  V30 3392 N 314.835 0.952656 1.25548 0
M  V30 3393 C 315.765 0.489287 2.28316 0
M  V30 3394 C 316.746 -0.463359 1.63667 0
M  V30 3395 O 317.931 -0.36274 1.90782 0
M  V30 3396 C 315.061 -0.235603 3.465 0
M  V30 3397 C 314.015 0.631593 4.23314 0
M  V30 3398 C 313.341 -0.223923 5.34231 0
M  V30 3399 C 314.641 1.90871 4.86174 0
M  V30 3400 H 316.335 1.34822 2.67326 0
M  V30 3401 H 313.881 0.649728 1.28509 0
M  V30 3402 H 315.834 -0.570882 4.17515 0
M  V30 3403 H 314.558 -1.12877 3.06474 0
M  V30 3404 H 313.217 0.949929 3.54079 0
M  V30 3405 H 312.865 -1.11678 4.90446 0
M  V30 3406 H 312.565 0.35299 5.86539 0
M  V30 3407 H 314.089 -0.554214 6.0808 0
M  V30 3408 H 315.503 1.63997 5.49343 0
M  V30 3409 H 313.9 2.43112 5.4865 0
M  V30 3410 H 314.97 2.61304 4.08471 0
M  V30 3411 N 316.313 -1.40141 0.720998 0
M  V30 3412 C 317.561 -2.0039 0.262323 0
M  V30 3413 C 317.882 -1.57469 -1.15015 0
M  V30 3414 O 317.152 -0.816582 -1.78069 0
M  V30 3415 H 315.732 -0.741063 0.093996 0
M  V30 3416 H 318.394 -1.71398 0.927835 0
M  V30 3417 H 317.49 -3.10658 0.299671 0
M  V30 3418 N 317.792 -0.46758 -1.50504 0
M  V30 3419 C 318.739 0.328413 -2.28452 0
M  V30 3420 C 319.709 0.990313 -1.33349 0
M  V30 3421 O 320.894 1.00343 -1.62284 0
M  V30 3422 C 318.034 1.40648 -3.15138 0
M  V30 3423 C 317.147 0.759709 -4.25267 0
M  V30 3424 C 316.282 1.81537 -4.99217 0
M  V30 3425 C 315.321 1.14866 -6.01226 0
M  V30 3426 N 314.458 2.14702 -6.68467 0
M  V30 3427 H 319.298 -0.342603 -2.96024 0
M  V30 3428 H 316.835 -0.180801 -1.45985 0
M  V30 3429 H 318.793 2.04315 -3.63746 0
M  V30 3430 H 317.423 2.04671 -2.49619 0
M  V30 3431 H 316.475 0.0105671 -3.80399 0
M  V30 3432 H 317.787 0.233243 -4.98254 0
M  V30 3433 H 316.941 2.52793 -5.51526 0
M  V30 3434 H 315.68 2.37564 -4.25928 0
M  V30 3435 H 314.685 0.42171 -5.4818 0
M  V30 3436 H 315.91 0.595334 -6.76485 0
M  V30 3437 H 313.856 2.69752 -5.97972 0
M  V30 3438 H 313.773 1.6703 -7.37317 0
M  V30 3439 H 315.041 2.85348 -7.25394 0
M  V30 3440 N 319.27 1.56325 -0.20005 0
M  V30 3441 C 320.495 2.02548 0.44597 0
M  V30 3442 C 320.92 1.07922 1.5406 0
M  V30 3443 O 320.278 0.0635775 1.81188 0
M  V30 3444 C 320.326 3.47175 0.974761 0
M  V30 3445 O 319.43 3.55671 2.08739 0
M  V30 3446 H 318.771 0.655862 0.103638 0
M  V30 3447 H 321.301 2.02201 -0.312381 0
M  V30 3448 H 321.311 3.87067 1.2901 0
M  V30 3449 H 319.986 4.15538 0.17347 0
M  V30 3450 H 318.563 3.27657 1.78032 0
M  V30 3451 N 320.748 -0.0735177 1.57428 0
M  V30 3452 C 321.997 -0.771809 1.86349 0
M  V30 3453 C 322.31 -1.78828 0.792452 0
M  V30 3454 O 323.516 -2.53602 0.96945 0
M  V30 3455 C 321.972 -1.42358 3.30548 0
M  V30 3456 C 321.58 -0.445761 4.45777 0
M  V30 3457 C 323.324 -2.10434 3.6867 0
M  V30 3458 C 321.231 -1.10335 5.81016 0
M  V30 3459 H 320.161 -0.291999 0.695164 0
M  V30 3460 H 322.812 -0.0250749 1.83483 0
M  V30 3461 H 321.194 -2.21852 3.28021 0
M  V30 3462 H 322.368 0.319239 4.59693 0
M  V30 3463 H 320.683 0.130457 4.16196 0
M  V30 3464 H 323.28 -2.60405 4.67004 0
M  V30 3465 H 323.623 -2.90298 2.98383 0
M  V30 3466 H 324.156 -1.37773 3.7318 0
M  V30 3467 H 320.895 -0.345061 6.54591 0
M  V30 3468 H 320.415 -1.83925 5.70904 0
M  V30 3469 H 322.094 -1.62367 6.26295 0
M  V30 3470 N 322.226 -1.5378 -0.344866 0
M  V30 3471 C 323.473 -1.70963 -1.08526 0
M  V30 3472 C 323.801 -0.472126 -1.88683 0
M  V30 3473 O 323.056 0.546116 -1.87926 0
M  V30 3474 C 323.355 -2.92407 -2.05506 0
M  V30 3475 C 323.021 -4.28066 -1.41671 0
M  V30 3476 C 321.683 -4.64951 -1.2399 0
M  V30 3477 C 324.035 -5.12344 -0.956726 0
M  V30 3478 C 321.363 -5.83733 -0.589277 0
M  V30 3479 C 323.715 -6.3179 -0.320015 0
M  V30 3480 C 322.379 -6.67372 -0.130881 0
M  V30 3481 H 321.649 -0.625598 -0.397124 0
M  V30 3482 H 324.296 -1.87995 -0.36469 0
M  V30 3483 H 322.601 -2.69973 -2.8394 0
M  V30 3484 H 324.298 -3.02895 -2.62784 0
M  V30 3485 H 320.888 -3.99034 -1.56429 0
M  V30 3486 H 325.072 -4.8438 -1.08118 0
M  V30 3487 H 320.328 -6.09877 -0.431344 0
M  V30 3488 H 324.502 -6.96386 0.0445072 0
M  V30 3489 H 322.129 -7.59273 0.375318 0
M  V30 3490 N 323.704 0.605807 -1.45491 0
M  V30 3491 C 324.944 1.37606 -1.51142 0
M  V30 3492 C 325.308 1.91413 -0.150075 0
M  V30 3493 O 326.509 2.68677 -0.0812828 0
M  V30 3494 C 324.78 2.49197 -2.56195 0
M  V30 3495 S 326.339 3.36953 -2.81083 0
M  V30 3496 H 323.157 0.469118 -0.534275 0
M  V30 3497 H 325.759 0.698845 -1.82583 0
M  V30 3498 H 324.463 2.0802 -3.53773 0
M  V30 3499 H 323.994 3.21717 -2.26411 0
M  V30 3500 H 326.009 4.47395 -2.14598 0
M  V30 3501 N 325.182 1.32811 0.848464 0
M  V30 3502 C 326.115 1.16601 1.96162 0
M  V30 3503 C 327.093 0.0638855 1.62474 0
M  V30 3504 O 328.277 0.224348 1.8716 0
M  V30 3505 C 325.404 0.786333 3.29446 0
M  V30 3506 C 324.45 1.89459 3.8211 0
M  V30 3507 S 325.283 3.50395 4.04949 0
M  V30 3508 C 326.439 3.14413 5.41198 0
M  V30 3509 H 326.672 2.10832 2.09612 0
M  V30 3510 H 324.205 1.17543 1.00115 0
M  V30 3511 H 326.163 0.574044 4.06466 0
M  V30 3512 H 324.824 -0.137218 3.138 0
M  V30 3513 H 324.017 1.58207 4.78526 0
M  V30 3514 H 323.619 2.06304 3.11953 0
M  V30 3515 H 325.911 2.64642 6.23675 0
M  V30 3516 H 326.854 4.09874 5.77416 0
M  V30 3517 H 327.262 2.51266 5.05495 0
M  V30 3518 N 326.66 -1.06551 1.16123 0
M  V30 3519 C 327.937 -1.76097 0.85142 0
M  V30 3520 C 328.317 -2.00802 -0.6513 0
M  V30 3521 O 327.665 -1.63302 -1.59827 0
M  V30 3522 C 327.875 -3.06384 1.67122 0
M  V30 3523 C 329.223 -3.80585 1.88255 0
M  V30 3524 O 330.247 -3.16218 1.63966 0
M  V30 3525 O 329.106 -4.96212 2.2899 0
M  V30 3526 H 326.2 -0.765102 0.313923 0
M  V30 3527 H 328.746 -1.12844 1.26745 0
M  V30 3528 H 327.518 -2.84071 2.69108 0
M  V30 3529 H 327.141 -3.77371 1.25206 0
M  V30 3530 N 328.138 -0.959301 -1.25041 0
M  V30 3531 C 329.549 -0.65667 -1.74771 0
M  V30 3532 C 329.9 0.827852 -1.77879 0
M  V30 3533 O 329.025 1.64783 -1.40269 0
M  V30 3534 C 329.62 -1.1853 -3.1739 0
M  V30 3535 C 328.179 -0.932734 -3.6466 0
M  V30 3536 C 327.326 -1.32558 -2.43564 0
M  V30 3537 H 330.277 -1.13558 -1.10862 0
M  V30 3538 H 330.298 -0.547582 -3.76539 0
M  V30 3539 H 329.81 -2.26576 -3.15095 0
M  V30 3540 H 327.911 0.13257 -3.72364 0
M  V30 3541 H 328.024 -1.57248 -4.52559 0
M  V30 3542 H 326.388 -0.743956 -2.43593 0
M  V30 3543 H 327.171 -2.41537 -2.43957 0
M  V30 3544 N 329.616 1.39756 -0.72842 0
M  V30 3545 C 330.862 2.00942 -0.273892 0
M  V30 3546 C 331.195 1.57656 1.13394 0
M  V30 3547 O 330.47 0.802434 1.77176 0
M  V30 3548 C 330.753 3.58211 -0.368346 0
M  V30 3549 C 330.606 4.11534 -1.81548 0
M  V30 3550 C 331.925 4.39372 0.253054 0
M  V30 3551 H 329.044 0.730047 -0.100996 0
M  V30 3552 H 331.686 1.66056 -0.923337 0
M  V30 3553 H 329.836 3.88061 0.184588 0
M  V30 3554 H 331.508 3.92431 -2.42478 0
M  V30 3555 H 329.751 3.65341 -2.33898 0
M  V30 3556 H 330.422 5.20682 -1.83288 0
M  V30 3557 H 332.898 4.15527 -0.218224 0
M  V30 3558 H 331.774 5.48677 0.156585 0
M  V30 3559 H 332.035 4.21358 1.33826 0
M  V30 3560 N 331.094 0.475555 1.50254 0
M  V30 3561 C 332.343 -0.0795996 2.01543 0
M  V30 3562 C 332.656 -1.4038 1.36209 0
M  V30 3563 O 333.862 -2.04415 1.7868 0
M  V30 3564 C 332.318 -0.192363 3.59386 0
M  V30 3565 C 331.926 1.12367 4.33679 0
M  V30 3566 C 333.67 -0.699238 4.18701 0
M  V30 3567 C 331.577 0.974453 5.83317 0
M  V30 3568 H 330.507 -0.0335228 0.753254 0
M  V30 3569 H 333.158 0.611128 1.73025 0
M  V30 3570 H 331.54 -0.946974 3.84511 0
M  V30 3571 H 332.714 1.88958 4.20276 0
M  V30 3572 H 331.029 1.562 3.85993 0
M  V30 3573 H 333.626 -0.827978 5.28251 0
M  V30 3574 H 333.969 -1.69171 3.80377 0
M  V30 3575 H 334.502 -0.00188807 3.978 0
M  V30 3576 H 331.241 1.94042 6.26121 0
M  V30 3577 H 330.761 0.248998 5.99283 0
M  V30 3578 H 332.44 0.642867 6.43798 0
M  V30 3579 N 332.573 -1.56217 0.208337 0
M  V30 3580 C 333.536 -2.18455 -0.693557 0
M  V30 3581 C 334.536 -1.14268 -1.13135 0
M  V30 3582 O 335.726 -1.39577 -1.0423 0
M  V30 3583 C 332.858 -2.79727 -1.94848 0
M  V30 3584 H 334.051 -2.99519 -0.15114 0
M  V30 3585 H 331.604 -1.56245 -0.041287 0
M  V30 3586 H 332.339 -2.02497 -2.53309 0
M  V30 3587 H 332.124 -3.56009 -1.64316 0
M  V30 3588 H 333.614 -3.27475 -2.59133 0
M  V30 3589 N 334.051 0.0651679 -1.57465 0
M  V30 3590 C 334.981 1.07693 -2.07182 0
M  V30 3591 C 335.962 1.39962 -0.966673 0
M  V30 3592 O 337.147 1.49475 -1.2398 0
M  V30 3593 C 334.277 2.3885 -2.52127 0
M  V30 3594 C 333.231 2.20917 -3.66579 0
M  V30 3595 C 332.557 3.57515 -3.97601 0
M  V30 3596 C 333.857 1.62493 -4.9638 0
M  V30 3597 H 335.551 0.663199 -2.91962 0
M  V30 3598 H 333.097 0.317569 -1.40455 0
M  V30 3599 H 335.05 3.09928 -2.85522 0
M  V30 3600 H 333.774 2.82215 -1.64384 0
M  V30 3601 H 332.433 1.52279 -3.33477 0
M  V30 3602 H 332.081 3.98463 -3.06979 0
M  V30 3603 H 331.781 3.46353 -4.74672 0
M  V30 3604 H 333.305 4.30013 -4.33499 0
M  V30 3605 H 334.719 2.23445 -5.27963 0
M  V30 3606 H 333.116 1.62009 -5.77818 0
M  V30 3607 H 334.186 0.587041 -4.81333 0
M  V30 3608 N 335.529 1.53961 0.336706 0
M  V30 3609 C 336.462 1.77255 1.43722 0
M  V30 3610 C 337.44 0.62193 1.50236 0
M  V30 3611 O 338.624 0.857874 1.67847 0
M  V30 3612 C 335.751 1.87733 2.81912 0
M  V30 3613 C 334.797 3.09933 2.92991 0
M  V30 3614 S 335.63 4.68836 2.58753 0
M  V30 3615 C 336.786 4.82202 3.99039 0
M  V30 3616 H 337.019 2.70322 1.23748 0
M  V30 3617 H 334.552 1.44917 0.532777 0
M  V30 3618 H 336.51 1.94455 3.61521 0
M  V30 3619 H 335.171 0.956666 2.99177 0
M  V30 3620 H 334.364 3.1396 3.94265 0
M  V30 3621 H 333.966 3.01472 2.21338 0
M  V30 3622 H 336.258 4.64032 4.9364 0
M  V30 3623 H 337.201 5.84298 4.00002 0
M  V30 3624 H 337.609 4.10604 3.87382 0
M  V30 3625 N 337.007 -0.598083 1.45811 0
M  V30 3626 C 337.957 -1.70272 1.51629 0
M  V30 3627 C 338.941 -1.56382 0.378629 0
M  V30 3628 O 340.133 -1.65557 0.626087 0
M  V30 3629 C 337.262 -3.09042 1.49493 0
M  V30 3630 C 336.348 -3.28284 2.68496 0
M  V30 3631 N 336.739 -3.17748 3.93535 0
M  V30 3632 C 335.037 -3.59182 2.64394 0
M  V30 3633 C 335.738 -3.38579 4.7301 0
M  V30 3634 N 334.714 -3.63016 4.04624 0
M  V30 3635 H 338.516 -1.60634 2.46118 0
M  V30 3636 H 336.03 -0.801642 1.41235 0
M  V30 3637 H 338.027 -3.88302 1.51747 0
M  V30 3638 H 336.687 -3.19823 0.560683 0
M  V30 3639 H 337.698 -2.95944 4.25014 0
M  V30 3640 H 334.375 -3.76742 1.79922 0
M  V30 3641 H 335.765 -3.35747 5.82 0
M  V30 3642 N 338.485 -1.33259 -0.841409 0
M  V30 3643 C 339.395 -1.25332 -1.98316 0
M  V30 3644 C 340.411 -0.164364 -1.73222 0
M  V30 3645 O 341.587 -0.387486 -1.97637 0
M  V30 3646 C 338.652 -0.990078 -3.32262 0
M  V30 3647 C 337.713 -2.16879 -3.70489 0
M  V30 3648 C 336.946 -1.91801 -4.98044 0
M  V30 3649 O 337.169 -0.867075 -5.63771 0
M  V30 3650 O 336.103 -2.78267 -5.33714 0
M  V30 3651 H 339.929 -2.21344 -2.07944 0
M  V30 3652 H 337.514 -1.1328 -0.974058 0
M  V30 3653 H 339.396 -0.860321 -4.12524 0
M  V30 3654 H 338.071 -0.0602155 -3.23644 0
M  V30 3655 H 336.978 -2.35407 -2.90748 0
M  V30 3656 H 338.311 -3.0819 -3.8377 0
M  V30 3657 N 339.963 1.05934 -1.16686 0
M  V30 3658 C 340.893 2.1546 -0.899949 0
M  V30 3659 C 341.874 1.69391 0.155154 0
M  V30 3660 O 343.059 1.94199 0.00648693 0
M  V30 3661 C 340.189 3.44939 -0.404241 0
M  V30 3662 C 339.143 4.04536 -1.39767 0
M  V30 3663 C 338.469 5.29268 -0.760216 0
M  V30 3664 C 339.769 4.42893 -2.76845 0
M  V30 3665 H 341.463 2.38046 -1.81588 0
M  V30 3666 H 339.009 1.14404 -0.874514 0
M  V30 3667 H 340.962 4.20901 -0.204971 0
M  V30 3668 H 339.686 3.21983 0.547206 0
M  V30 3669 H 338.345 3.30635 -1.58355 0
M  V30 3670 H 337.993 5.02611 0.197831 0
M  V30 3671 H 337.693 5.70101 -1.42332 0
M  V30 3672 H 339.217 6.07924 -0.57105 0
M  V30 3673 H 340.631 5.09921 -2.62019 0
M  V30 3674 H 339.028 4.94721 -3.39663 0
M  V30 3675 H 340.098 3.53584 -3.31823 0
M  V30 3676 N 341.441 0.965919 1.2453 0
M  V30 3677 C 342.669 0.644385 1.96609 0
M  V30 3678 C 343.084 -0.785823 1.71669 0
M  V30 3679 O 342.441 -1.52703 0.999399 0
M  V30 3680 C 342.492 0.907375 3.49927 0
M  V30 3681 O 342.213 2.28136 3.74013 0
M  V30 3682 C 343.714 0.599784 4.39224 0
M  V30 3683 H 340.934 0.240588 0.626385 0
M  V30 3684 H 343.478 1.29337 1.58405 0
M  V30 3685 H 341.633 0.304631 3.862 0
M  V30 3686 H 342.047 2.36002 4.68405 0
M  V30 3687 H 343.521 0.834263 5.45659 0
M  V30 3688 H 343.998 -0.465921 4.36722 0
M  V30 3689 H 344.604 1.18235 4.08535 0
M  V30 3690 N 342.919 -1.39368 0.735821 0
M  V30 3691 C 343.869 -2.27885 0.0724287 0
M  V30 3692 C 344.853 -1.44301 -0.711756 0
M  V30 3693 O 346.045 -1.67206 -0.58063 0
M  V30 3694 C 343.174 -3.33029 -0.833454 0
M  V30 3695 C 342.26 -4.24078 -0.0433749 0
M  V30 3696 N 342.651 -4.96138 0.983903 0
M  V30 3697 C 340.949 -4.45164 -0.272905 0
M  V30 3698 C 341.65 -5.63069 1.4604 0
M  V30 3699 N 340.626 -5.37991 0.778857 0
M  V30 3700 H 344.428 -2.81052 0.859467 0
M  V30 3701 H 341.942 -1.5206 0.570227 0
M  V30 3702 H 343.939 -3.95311 -1.32419 0
M  V30 3703 H 342.599 -2.81421 -1.61964 0
M  V30 3704 H 343.61 -4.9958 1.36528 0
M  V30 3705 H 340.287 -4.04497 -1.03383 0
M  V30 3706 H 341.677 -6.30755 2.31511 0
M  V30 3707 N 344.397 -0.483516 -1.5 0
M  V30 3708 C 345.622 0.0667119 -2.07293 0
M  V30 3709 C 346.047 1.3164 -1.3436 0
M  V30 3710 O 345.405 1.76945 -0.394987 0
M  V30 3711 C 345.453 0.321126 -3.59167 0
M  V30 3712 O 344.557 1.39927 -3.87936 0
M  V30 3713 H 343.898 -0.0184758 -0.663743 0
M  V30 3714 H 346.428 -0.678125 -1.93035 0
M  V30 3715 H 346.438 0.557906 -4.04168 0
M  V30 3716 H 345.113 -0.592007 -4.11665 0
M  V30 3717 H 343.69 1.14882 -3.54763 0
M  V30 3718 N 345.875 1.56104 -0.216619 0
M  V30 3719 C 346.805 2.23063 0.690296 0
M  V30 3720 C 347.786 1.20072 1.20485 0
M  V30 3721 O 348.971 1.48643 1.24976 0
M  V30 3722 C 346.101 2.90672 1.90072 0
M  V30 3723 C 345.055 4.00092 1.5202 0
M  V30 3724 C 344.381 4.54972 2.80899 0
M  V30 3725 C 345.681 5.17398 0.71391 0
M  V30 3726 H 347.375 2.99109 0.132038 0
M  V30 3727 H 344.921 1.43866 0.0620664 0
M  V30 3728 H 346.874 3.36204 2.54057 0
M  V30 3729 H 345.598 2.12066 2.48386 0
M  V30 3730 H 344.257 3.55283 0.903839 0
M  V30 3731 H 343.905 3.73102 3.37348 0
M  V30 3732 H 343.605 5.28817 2.56176 0
M  V30 3733 H 345.129 5.0322 3.45836 0
M  V30 3734 H 346.543 5.59342 1.25735 0
M  V30 3735 H 344.94 5.97444 0.563951 0
M  V30 3736 H 346.01 4.84088 -0.280527 0
M  V30 3737 N 347.353 -0.0568162 1.57498 0
M  V30 3738 C 348.303 -1.07315 2.01166 0
M  V30 3739 C 349.287 -1.33632 0.896171 0
M  V30 3740 O 350.479 -1.33682 1.16009 0
M  V30 3741 C 347.608 -2.38257 2.47161 0
M  V30 3742 C 346.694 -2.1515 3.65474 0
M  V30 3743 N 347.085 -1.62014 4.7915 0
M  V30 3744 C 345.383 -2.45559 3.72313 0
M  V30 3745 C 346.084 -1.54069 5.60926 0
M  V30 3746 N 345.06 -2.00652 5.05213 0
M  V30 3747 H 348.862 -0.655878 2.86488 0
M  V30 3748 H 346.376 -0.263635 1.60246 0
M  V30 3749 H 348.373 -3.11845 2.76691 0
M  V30 3750 H 347.033 -2.80687 1.63232 0
M  V30 3751 H 348.044 -1.30667 5.01145 0
M  V30 3752 H 344.721 -2.91253 2.99129 0
M  V30 3753 H 346.111 -1.13712 6.62208 0
M  V30 3754 N 348.832 -1.54138 -0.328536 0
M  V30 3755 C 349.764 -1.79509 -1.4251 0
M  V30 3756 C 350.777 -0.67688 -1.48061 0
M  V30 3757 O 351.966 -0.953898 -1.50874 0
M  V30 3758 C 349.066 -1.89337 -2.81078 0
M  V30 3759 C 348.239 -3.19443 -2.98789 0
M  V30 3760 C 347.298 -3.20036 -4.17688 0
M  V30 3761 O 346.324 -3.93697 -4.11086 0
M  V30 3762 N 347.526 -2.43467 -5.26976 0
M  V30 3763 H 350.291 -2.74139 -1.21111 0
M  V30 3764 H 347.852 -1.53373 -0.518499 0
M  V30 3765 H 349.844 -1.87167 -3.58818 0
M  V30 3766 H 348.414 -1.01826 -2.95551 0
M  V30 3767 H 347.634 -3.34614 -2.08391 0
M  V30 3768 H 348.922 -4.05354 -3.07515 0
M  V30 3769 H 348.32 -1.83201 -5.35214 0
M  V30 3770 H 346.877 -2.4708 -6.03154 0
M  V30 3771 N 350.31 0.590341 -1.46126 0
M  V30 3772 C 351.24 1.71032 -1.58966 0
M  V30 3773 C 352.221 1.64302 -0.440335 0
M  V30 3774 O 353.406 1.82436 -0.665634 0
M  V30 3775 C 350.536 3.09665 -1.57241 0
M  V30 3776 C 349.49 3.31221 -2.71066 0
M  V30 3777 C 348.816 4.70303 -2.54399 0
M  V30 3778 C 350.116 3.19796 -4.1295 0
M  V30 3779 H 351.81 1.60543 -2.52718 0
M  V30 3780 H 349.356 0.770933 -1.21625 0
M  V30 3781 H 351.309 3.87831 -1.64819 0
M  V30 3782 H 350.033 3.21036 -0.600289 0
M  V30 3783 H 348.692 2.55452 -2.62944 0
M  V30 3784 H 348.34 4.78429 -1.55288 0
M  V30 3785 H 348.04 4.85679 -3.30741 0
M  V30 3786 H 349.564 5.50647 -2.63857 0
M  V30 3787 H 350.978 3.87815 -4.22223 0
M  V30 3788 H 349.375 3.46696 -4.89818 0
M  V30 3789 H 350.445 2.16983 -4.33643 0
M  V30 3790 N 351.788 1.33704 0.83433 0
M  V30 3791 C 353.018 1.28281 1.6195 0
M  V30 3792 C 353.426 -0.147603 1.88623 0
M  V30 3793 O 352.769 -1.1016 1.47005 0
M  V30 3794 C 352.831 1.99386 2.99141 0
M  V30 3795 C 352.495 3.48681 2.95416 0
M  V30 3796 C 353.492 4.438 2.70809 0
M  V30 3797 C 351.177 3.90925 3.15409 0
M  V30 3798 C 353.171 5.79138 2.66229 0
M  V30 3799 C 350.858 5.26366 3.10454 0
M  V30 3800 C 351.856 6.20284 2.85895 0
M  V30 3801 O 351.544 7.53245 2.80852 0
M  V30 3802 H 351.276 0.44315 0.510484 0
M  V30 3803 H 353.83 1.76711 1.04702 0
M  V30 3804 H 352.06 1.45554 3.58261 0
M  V30 3805 H 353.749 1.87403 3.60049 0
M  V30 3806 H 354.515 4.12485 2.5511 0
M  V30 3807 H 350.394 3.18229 3.33543 0
M  V30 3808 H 353.938 6.52416 2.4698 0
M  V30 3809 H 349.835 5.57304 3.25703 0
M  V30 3810 H 350.603 7.62846 2.96661 0
M  V30 3811 N 353.266 -1.05314 1.17247 0
M  V30 3812 C 354.514 -1.77941 0.958194 0
M  V30 3813 C 354.835 -1.88089 -0.514556 0
M  V30 3814 O 354.105 -1.39676 -1.37359 0
M  V30 3815 H 352.685 -0.659116 0.351533 0
M  V30 3816 H 355.347 -1.27166 1.47699 0
M  V30 3817 H 354.443 -2.79663 1.38546 0
M  V30 3818 N 354.744 -0.972509 -1.24016 0
M  V30 3819 C 355.993 -0.632603 -1.91523 0
M  V30 3820 C 356.306 0.836641 -1.76804 0
M  V30 3821 O 357.512 1.28728 -2.39043 0
M  V30 3822 C 355.968 -1.08082 -3.43287 0
M  V30 3823 C 355.576 -2.57386 -3.66683 0
M  V30 3824 C 357.32 -0.814288 -4.16617 0
M  V30 3825 C 355.227 -2.95915 -5.12043 0
M  V30 3826 H 354.157 -0.232898 -0.717129 0
M  V30 3827 H 356.808 -1.17936 -1.40582 0
M  V30 3828 H 355.19 -0.462339 -3.93292 0
M  V30 3829 H 356.364 -3.24405 -3.27258 0
M  V30 3830 H 354.679 -2.81701 -3.06649 0
M  V30 3831 H 357.276 -1.0781 -5.23718 0
M  V30 3832 H 357.619 0.24955 -4.15551 0
M  V30 3833 H 358.152 -1.39397 -3.72577 0
M  V30 3834 H 354.891 -4.0139 -5.18234 0
M  V30 3835 H 354.411 -2.33584 -5.52448 0
M  V30 3836 H 356.09 -2.86086 -5.80314 0
M  V30 3837 N 356.222 1.38976 -0.743202 0
M  V30 3838 C 357.17 2.32394 -0.0978389 0
M  V30 3839 C 358.164 1.53486 0.716824 0
M  V30 3840 O 359.37 1.69092 0.617088 0
M  V30 3841 H 355.745 0.75189 -0.0128402 0
M  V30 3842 H 357.716 2.84441 -0.901981 0
M  V30 3843 C 356.465 3.38629 0.789036 0
M  V30 3844 H 355.788 3.99432 0.171559 0
M  V30 3845 H 357.228 4.06426 1.20807 0
M  V30 3846 C 355.687 2.76347 1.92702 0
M  V30 3847 O 356.217 2.64836 3.02034 0
M  V30 3848 N 354.423 2.34311 1.71891 0
M  V30 3849 H 353.97 2.43873 0.829675 0
M  V30 3850 H 353.928 1.9298 2.48205 0
M  V30 3851 N 357.7 0.491464 1.49741 0
M  V30 3852 C 358.949 -0.0582189 2.01616 0
M  V30 3853 C 359.262 -1.38927 1.3769 0
M  V30 3854 O 360.468 -2.02509 1.80838 0
M  V30 3855 C 358.924 -0.154235 3.59569 0
M  V30 3856 C 358.532 1.1696 4.32463 0
M  V30 3857 C 360.276 -0.65479 4.1942 0
M  V30 3858 C 358.183 1.03627 5.8225 0
M  V30 3859 H 357.113 -0.0255317 0.753568 0
M  V30 3860 H 359.764 0.629445 1.72367 0
M  V30 3861 H 358.146 -0.906138 3.85493 0
M  V30 3862 H 359.32 1.93405 4.18248 0
M  V30 3863 H 357.635 1.60285 3.84315 0
M  V30 3864 H 360.232 -0.771903 5.29099 0
M  V30 3865 H 360.575 -1.65127 3.8215 0
M  V30 3866 H 361.108 0.040304 3.9778 0
M  V30 3867 H 357.847 2.00672 6.24028 0
M  V30 3868 H 357.367 0.312546 5.98985 0
M  V30 3869 H 359.046 0.711114 6.4308 0
M  V30 3870 N 359.178 -1.55987 0.224894 0
M  V30 3871 C 360.589 -1.84553 -0.282345 0
M  V30 3872 C 360.94 -1.14634 -1.59227 0
M  V30 3873 O 360.065 -0.417155 -2.12341 0
M  V30 3874 C 360.66 -3.348 -0.519062 0
M  V30 3875 C 359.219 -3.63671 -0.970604 0
M  V30 3876 C 358.366 -2.77277 -0.0355261 0
M  V30 3877 H 361.317 -1.52245 0.448006 0
M  V30 3878 H 361.338 -3.55187 -1.36463 0
M  V30 3879 H 360.85 -3.8566 0.43449 0
M  V30 3880 H 358.951 -3.1827 -1.9374 0
M  V30 3881 H 359.064 -4.71631 -0.842698 0
M  V30 3882 H 357.428 -2.48846 -0.542927 0
M  V30 3883 H 358.211 -3.30937 0.913003 0
M  V30 3884 N 360.656 0.0484629 -1.57525 0
M  V30 3885 C 361.881 0.759177 -1.93006 0
M  V30 3886 C 362.306 1.69125 -0.823317 0
M  V30 3887 O 361.664 1.79931 0.222364 0
M  V30 3888 C 361.712 1.50899 -3.27509 0
M  V30 3889 O 360.816 2.62112 -3.18388 0
M  V30 3890 H 360.157 0.205564 -0.631379 0
M  V30 3891 H 362.687 0.00972959 -2.04598 0
M  V30 3892 H 362.697 1.88317 -3.6194 0
M  V30 3893 H 361.372 0.825269 -4.0763 0
M  V30 3894 H 359.949 2.27379 -2.95556 0
M  V30 3895 N 362.134 1.5431 0.320358 0
M  V30 3896 C 363.411 1.63322 1.07635 0
M  V30 3897 C 363.791 0.46912 2.05821 0
M  V30 3898 O 363.139 -0.536274 2.22118 0
M  V30 3899 C 363.349 3.00465 1.77544 0
M  V30 3900 C 364.697 3.56621 2.30449 0
M  V30 3901 O 365.721 3.02791 1.87606 0
M  V30 3902 O 364.58 4.5083 3.08892 0
M  V30 3903 H 361.674 0.661502 0.496331 0
M  V30 3904 H 364.22 1.66656 0.319992 0
M  V30 3905 H 362.992 3.76629 1.06143 0
M  V30 3906 H 362.615 3.00824 2.59982 0
M  V30 3907 N 363.613 -0.582584 1.46437 0
M  V30 3908 C 364.56 -1.69164 1.5701 0
M  V30 3909 C 365.53 -1.60847 0.414403 0
M  V30 3910 O 366.715 -1.80058 0.631171 0
M  V30 3911 C 363.855 -3.075 1.56646 0
M  V30 3912 C 362.968 -3.2644 2.82951 0
M  V30 3913 C 362.103 -4.55026 2.7409 0
M  V30 3914 C 361.142 -4.6731 3.95333 0
M  V30 3915 N 360.279 -5.87221 3.84858 0
M  V30 3916 H 365.119 -1.59464 2.51744 0
M  V30 3917 H 362.656 -0.777186 1.24893 0
M  V30 3918 H 364.614 -3.8757 1.5442 0
M  V30 3919 H 363.244 -3.16096 0.654439 0
M  V30 3920 H 362.296 -2.39974 2.95155 0
M  V30 3921 H 363.608 -3.31385 3.72808 0
M  V30 3922 H 362.762 -5.43324 2.6997 0
M  V30 3923 H 361.501 -4.52519 1.81873 0
M  V30 3924 H 360.506 -3.77429 3.99784 0
M  V30 3925 H 361.731 -4.71595 4.88646 0
M  V30 3926 H 359.677 -5.85712 2.95427 0
M  V30 3927 H 359.594 -5.93435 4.6837 0
M  V30 3928 H 360.862 -6.7795 3.84713 0
M  V30 3929 N 365.091 -1.34144 -0.827227 0
M  V30 3930 C 366.507 -1.13732 -1.11969 0
M  V30 3931 C 366.707 0.0640463 -2.01398 0
M  V30 3932 O 365.763 0.740856 -2.41387 0
M  V30 3933 C 367.076 -2.43047 -1.77055 0
M  V30 3934 C 368.624 -2.49063 -1.89569 0
M  V30 3935 C 369.099 -3.78369 -2.58072 0
M  V30 3936 N 370.59 -3.79505 -2.65575 0
M  V30 3937 C 371.325 -4.76274 -3.19297 0
M  V30 3938 N 370.821 -5.83424 -3.73616 0
M  V30 3939 N 372.614 -4.63735 -3.17658 0
M  V30 3940 H 364.765 -2.11126 -0.232296 0
M  V30 3941 H 367.028 -0.933424 -0.165602 0
M  V30 3942 H 366.734 -3.31025 -1.18807 0
M  V30 3943 H 366.608 -2.56066 -2.76966 0
M  V30 3944 H 368.995 -1.61527 -2.46968 0
M  V30 3945 H 369.076 -2.39975 -0.885745 0
M  V30 3946 H 368.72 -4.66293 -2.01329 0
M  V30 3947 H 368.65 -3.84737 -3.59562 0
M  V30 3948 H 371.141 -3.02074 -2.27068 0
M  V30 3949 H 371.454 -6.53282 -4.12846 0
M  V30 3950 H 369.799 -5.87143 -3.71871 0
M  V30 3951 H 372.99 -3.79177 -2.74486 0
M  V30 3952 H 373.163 -5.39318 -3.59221 0
M  V30 3953 N 366.569 1.04691 -1.17803 0
M  V30 3954 C 367.818 1.77176 -0.963931 0
M  V30 3955 C 368.131 1.88888 0.508015 0
M  V30 3956 O 369.337 2.58164 0.840465 0
M  V30 3957 C 367.793 3.18518 -1.67555 0
M  V30 3958 C 367.401 3.14919 -3.18637 0
M  V30 3959 C 369.145 3.95424 -1.54402 0
M  V30 3960 C 367.052 4.51081 -3.82466 0
M  V30 3961 H 365.982 0.664116 -0.357023 0
M  V30 3962 H 368.633 1.17303 -1.4111 0
M  V30 3963 H 367.015 3.78748 -1.15613 0
M  V30 3964 H 368.189 2.64178 -3.77554 0
M  V30 3965 H 366.504 2.51512 -3.31859 0
M  V30 3966 H 369.101 4.96106 -1.99456 0
M  V30 3967 H 369.444 4.13343 -0.495329 0
M  V30 3968 H 369.977 3.41754 -2.0359 0
M  V30 3969 H 366.716 4.38368 -4.87354 0
M  V30 3970 H 366.236 5.01951 -3.28337 0
M  V30 3971 H 367.915 5.2001 -3.84965 0
M  V30 3972 N 368.047 0.979072 1.23499 0
M  V30 3973 C 369.463 0.687475 1.44034 0
M  V30 3974 C 369.663 -0.746801 1.8715 0
M  V30 3975 O 368.719 -1.51939 2.0167 0
M  V30 3976 C 370.032 1.68127 2.49307 0
M  V30 3977 C 371.58 1.69516 2.63122 0
M  V30 3978 C 372.055 2.67723 3.71603 0
M  V30 3979 N 373.546 2.66233 3.79044 0
M  V30 3980 C 374.281 3.38891 4.62537 0
M  V30 3981 N 373.777 4.21103 5.50131 0
M  V30 3982 N 375.57 3.27661 4.56721 0
M  V30 3983 H 367.721 1.90559 0.938135 0
M  V30 3984 H 369.984 0.821051 0.473897 0
M  V30 3985 H 369.69 2.70693 2.2454 0
M  V30 3986 H 369.564 1.46306 3.4767 0
M  V30 3987 H 371.951 0.676561 2.8724 0
M  V30 3988 H 372.032 1.95404 1.65079 0
M  V30 3989 H 371.676 3.69724 3.48233 0
M  V30 3990 H 371.606 2.39111 4.69184 0
M  V30 3991 H 374.097 2.06568 3.16446 0
M  V30 3992 H 374.41 4.73403 6.10827 0
M  V30 3993 H 372.755 4.25195 5.49759 0
M  V30 3994 H 375.946 2.62887 3.87309 0
M  V30 3995 H 376.119 3.84547 5.21562 0
M  V30 3996 N 369.525 -1.3858 0.750561 0
M  V30 3997 C 370.936 -1.82927 0.373438 0
M  V30 3998 C 371.287 -1.62634 -1.09748 0
M  V30 3999 O 370.412 -1.12588 -1.84805 0
M  V30 4000 C 371.007 -3.32088 0.671029 0
M  V30 4001 C 369.566 -3.74795 0.34722 0
M  V30 4002 C 368.713 -2.61391 0.92575 0
M  V30 4003 H 371.664 -1.27351 0.946958 0
M  V30 4004 H 371.685 -3.80465 -0.0518269 0
M  V30 4005 H 371.197 -3.46826 1.74164 0
M  V30 4006 H 369.298 -3.65638 -0.716933 0
M  V30 4007 H 369.411 -4.71667 0.840656 0
M  V30 4008 H 367.775 -2.52265 0.351327 0
M  V30 4009 H 368.558 -2.78929 2.00133 0
M  V30 4010 N 371.003 -0.499398 -1.49478 0
M  V30 4011 C 371.935 0.316575 -2.27003 0
M  V30 4012 C 372.948 0.932047 -1.33479 0
M  V30 4013 O 374.137 0.815658 -1.58774 0
M  V30 4014 C 371.237 1.46055 -3.05812 0
M  V30 4015 C 370.41 0.952679 -4.26899 0
M  V30 4016 C 369.469 1.97407 -4.87767 0
M  V30 4017 O 368.495 1.54326 -5.4788 0
M  V30 4018 N 369.697 3.30436 -4.77276 0
M  V30 4019 H 372.462 -0.348168 -2.97671 0
M  V30 4020 H 370.023 -0.33185 -1.58463 0
M  V30 4021 H 372.015 2.14135 -3.43407 0
M  V30 4022 H 370.585 2.02948 -2.37762 0
M  V30 4023 H 369.805 0.0968248 -3.94081 0
M  V30 4024 H 371.093 0.59174 -5.05347 0
M  V30 4025 H 370.491 3.68126 -4.29534 0
M  V30 4026 H 369.048 3.94235 -5.19059 0
M  V30 4027 N 372.481 1.55866 -0.233164 0
M  V30 4028 C 373.727 1.98897 0.395959 0
M  V30 4029 C 374.06 1.12091 1.58585 0
M  V30 4030 O 373.335 0.181182 1.93654 0
M  V30 4031 C 373.618 3.50658 0.819224 0
M  V30 4032 C 373.471 4.48233 -0.375109 0
M  V30 4033 C 374.79 4.07135 1.67121 0
M  V30 4034 H 371.909 0.723102 0.142451 0
M  V30 4035 H 374.551 1.87082 -0.331725 0
M  V30 4036 H 372.701 3.60857 1.43925 0
M  V30 4037 H 374.373 4.50031 -1.01341 0
M  V30 4038 H 372.616 4.21624 -1.02058 0
M  V30 4039 H 373.287 5.51988 -0.0358328 0
M  V30 4040 H 375.763 3.99952 1.14795 0
M  V30 4041 H 374.639 5.13615 1.93625 0
M  V30 4042 H 374.9 3.54736 2.63846 0
M  V30 4043 N 373.959 -0.0401083 1.57549 0
M  V30 4044 C 375.184 -0.748931 1.93406 0
M  V30 4045 C 375.609 -1.68686 0.832274 0
M  V30 4046 O 374.967 -1.80047 -0.212818 0
M  V30 4047 C 375.015 -1.4916 3.28304 0
M  V30 4048 O 374.119 -2.6042 3.19774 0
M  V30 4049 H 373.46 -0.202212 0.63246 0
M  V30 4050 H 375.99 0.00112086 2.046 0
M  V30 4051 H 376 -1.86395 3.62934 0
M  V30 4052 H 374.675 -0.80364 4.08062 0
M  V30 4053 H 373.252 -2.25808 2.96758 0
M  V30 4054 N 375.437 -1.54477 -0.31217 0
M  V30 4055 C 376.347 -1.87695 -1.4074 0
M  V30 4056 C 377.363 -0.769975 -1.56036 0
M  V30 4057 O 378.539 -1.06537 -1.70915 0
M  V30 4058 C 375.604 -2.10755 -2.75287 0
M  V30 4059 C 374.665 -3.34514 -2.69071 0
M  V30 4060 C 373.898 -3.56465 -3.97201 0
M  V30 4061 O 374.121 -2.81637 -4.96021 0
M  V30 4062 O 373.055 -4.49964 -3.9977 0
M  V30 4063 H 376.881 -2.80849 -1.15574 0
M  V30 4064 H 374.466 -1.40526 -0.507228 0
M  V30 4065 H 376.348 -2.27188 -3.54913 0
M  V30 4066 H 375.023 -1.20788 -3.0032 0
M  V30 4067 H 373.93 -3.23456 -1.87955 0
M  V30 4068 H 375.263 -4.24575 -2.48992 0
M  V30 4069 N 376.915 0.57481 -1.46744 0
M  V30 4070 C 378.163 1.33009 -1.52161 0
M  V30 4071 C 378.484 1.94185 -0.178092 0
M  V30 4072 O 377.754 1.7899 0.796196 0
M  V30 4073 H 376.334 0.493873 -0.560445 0
M  V30 4074 H 378.996 0.672589 -1.82927 0
M  V30 4075 H 378.092 2.13273 -2.27862 0
M  V30 4076 N 378.394 1.34581 0.820102 0
M  V30 4077 C 379.641 1.27096 1.57648 0
M  V30 4078 C 379.969 -0.158317 1.93855 0
M  V30 4079 O 379.224 -1.12028 1.60463 0
M  V30 4080 C 379.523 2.10997 2.8847 0
M  V30 4081 C 379.189 3.59966 2.71543 0
M  V30 4082 C 377.851 4.00575 2.66634 0
M  V30 4083 C 380.203 4.54548 2.55021 0
M  V30 4084 C 377.531 5.33953 2.43128 0
M  V30 4085 C 379.883 5.88109 2.33047 0
M  V30 4086 C 378.547 6.27878 2.26552 0
M  V30 4087 H 377.817 0.465078 0.576874 0
M  V30 4088 H 380.464 1.6635 0.948671 0
M  V30 4089 H 378.769 1.6458 3.55557 0
M  V30 4090 H 380.466 2.0255 3.46084 0
M  V30 4091 H 377.056 3.27733 2.76205 0
M  V30 4092 H 381.24 4.24069 2.57835 0
M  V30 4093 H 376.496 5.63781 2.3656 0
M  V30 4094 H 380.67 6.60985 2.19251 0
M  V30 4095 H 378.297 7.31162 2.081 0
M  V30 4096 N 379.872 -1.04064 1.18357 0
M  V30 4097 C 381.119 -1.77265 0.978947 0
M  V30 4098 C 381.447 -1.88189 -0.491428 0
M  V30 4099 O 380.702 -1.38653 -1.38108 0
M  V30 4100 C 381.001 -3.20634 1.57888 0
M  V30 4101 C 380.667 -3.29743 3.07539 0
M  V30 4102 C 379.329 -3.31937 3.48384 0
M  V30 4103 C 381.681 -3.29841 4.03552 0
M  V30 4104 C 379.009 -3.3187 4.83818 0
M  V30 4105 C 381.361 -3.31313 5.38901 0
M  V30 4106 C 380.025 -3.31799 5.79194 0
M  V30 4107 H 379.295 -0.648659 0.358222 0
M  V30 4108 H 381.942 -1.22225 1.47422 0
M  V30 4109 H 380.247 -3.78675 1.00561 0
M  V30 4110 H 381.944 -3.75917 1.39598 0
M  V30 4111 H 378.534 -3.28757 2.74986 0
M  V30 4112 H 382.718 -3.27337 3.73047 0
M  V30 4113 H 377.974 -3.30562 5.14333 0
M  V30 4114 H 382.148 -3.30338 6.13066 0
M  V30 4115 H 379.775 -3.315 6.84114 0
M  V30 4116 N 381.35 -0.985608 -1.22978 0
M  V30 4117 C 382.575 -0.675254 -1.961 0
M  V30 4118 C 383 0.752154 -1.72407 0
M  V30 4119 O 382.358 1.5131 -0.998751 0
M  V30 4120 C 382.406 -0.977899 -3.47087 0
M  V30 4121 O 381.51 -0.072685 -4.12336 0
M  V30 4122 H 380.851 -0.253443 -0.613728 0
M  V30 4123 H 383.381 -1.32061 -1.56272 0
M  V30 4124 H 383.391 -0.916739 -3.97567 0
M  V30 4125 H 382.066 -2.01807 -3.63657 0
M  V30 4126 H 380.643 -0.188703 -3.72422 0
M  V30 4127 N 382.828 1.3818 -0.7579 0
M  V30 4128 C 383.76 2.2901 -0.0932177 0
M  V30 4129 C 384.773 1.47958 0.679136 0
M  V30 4130 O 385.962 1.70773 0.519514 0
M  V30 4131 C 383.062 3.26953 0.89192 0
M  V30 4132 C 382.235 4.37045 0.176303 0
M  V30 4133 C 381.294 5.15148 1.07281 0
M  V30 4134 O 380.32 5.66616 0.541728 0
M  V30 4135 N 381.522 5.28542 2.40049 0
M  V30 4136 H 384.287 2.86694 -0.873303 0
M  V30 4137 H 381.848 1.50007 -0.609054 0
M  V30 4138 H 383.84 3.76083 1.49479 0
M  V30 4139 H 382.41 2.70136 1.57306 0
M  V30 4140 H 381.63 3.89493 -0.607328 0
M  V30 4141 H 382.918 5.07801 -0.318718 0
M  V30 4142 H 382.316 4.88285 2.85647 0
M  V30 4143 H 380.873 5.8103 2.95376 0
M  V30 4144 N 384.306 0.507319 1.49211 0
M  V30 4145 C 385.583 -0.0982702 1.95353 0
M  V30 4146 C 385.963 -1.53516 1.449 0
M  V30 4147 O 385.311 -2.18594 0.66551 0
M  V30 4148 C 385.521 -0.00440283 3.49 0
M  V30 4149 C 386.869 -0.175147 4.24239 0
M  V30 4150 O 387.893 -0.0792891 3.56112 0
M  V30 4151 O 386.752 -0.37276 5.45227 0
M  V30 4152 H 383.846 -0.0918236 0.821887 0
M  V30 4153 H 386.392 0.570307 1.5983 0
M  V30 4154 H 385.164 0.997402 3.78375 0
M  V30 4155 H 384.787 -0.712845 3.91158 0
M  V30 4156 N 385.784 -1.5574 0.241426 0
M  V30 4157 C 387.032 -1.98417 -0.384075 0
M  V30 4158 C 387.353 -1.13078 -1.58866 0
M  V30 4159 O 386.623 -0.212312 -1.94746 0
M  V30 4160 H 385.203 -0.732813 -0.144894 0
M  V30 4161 H 387.865 -1.9193 0.338943 0
M  V30 4162 H 386.961 -3.04219 -0.696939 0
M  V30 4163 N 387.262 0.0317525 -1.57568 0
M  V30 4164 C 388.673 0.578692 -1.77505 0
M  V30 4165 C 389.024 1.75749 -0.872164 0
M  V30 4166 O 388.149 2.16298 -0.0663106 0
M  V30 4167 C 388.744 1.05658 -3.21904 0
M  V30 4168 C 387.303 1.54906 -3.43047 0
M  V30 4169 C 386.45 0.485939 -2.73009 0
M  V30 4170 H 389.401 -0.194475 -1.57504 0
M  V30 4171 H 389.422 1.92404 -3.28269 0
M  V30 4172 H 388.934 0.198422 -3.87592 0
M  V30 4173 H 387.035 2.42915 -2.82529 0
M  V30 4174 H 387.148 1.59841 -4.5165 0
M  V30 4175 H 385.512 0.940354 -2.36705 0
M  V30 4176 H 386.295 -0.362709 -3.41379 0
M  V30 4177 N 388.74 1.54641 0.303973 0
M  V30 4178 C 389.688 1.86137 1.39484 0
M  V30 4179 C 390.682 0.734854 1.52631 0
M  V30 4180 O 391.888 0.918803 1.54784 0
M  V30 4181 H 388.263 0.590324 0.465856 0
M  V30 4182 H 390.234 2.77324 1.10154 0
M  V30 4183 C 388.983 2.12274 2.75382 0
M  V30 4184 H 388.306 2.98429 2.66046 0
M  V30 4185 H 389.746 2.38254 3.5073 0
M  V30 4186 C 388.205 0.920365 3.24085 0
M  V30 4187 O 388.735 0.139377 4.01458 0
M  V30 4188 N 386.941 0.726566 2.81371 0
M  V30 4189 H 386.488 1.36332 2.18567 0
M  V30 4190 H 386.446 -0.0763799 3.14307 0
M  V30 4191 N 390.218 -0.567019 1.47046 0
M  V30 4192 C 391.464 -1.32658 1.53394 0
M  V30 4193 C 391.797 -1.93254 0.19148 0
M  V30 4194 O 391.072 -1.77338 -0.798844 0
M  V30 4195 C 391.355 -2.44412 2.64452 0
M  V30 4196 C 391.208 -1.88749 4.08282 0
M  V30 4197 C 392.527 -3.46387 2.71485 0
M  V30 4198 H 389.646 -0.48098 0.558415 0
M  V30 4199 H 392.288 -0.635481 1.79058 0
M  V30 4200 H 390.438 -3.03363 2.427 0
M  V30 4201 H 392.11 -1.34134 4.41368 0
M  V30 4202 H 390.353 -1.19481 4.17021 0
M  V30 4203 H 391.024 -2.69491 4.81745 0
M  V30 4204 H 393.5 -2.9734 2.91081 0
M  V30 4205 H 392.376 -4.2202 3.50985 0
M  V30 4206 H 392.637 -4.04616 1.78153 0
M  V30 4207 N 391.696 -1.35014 -0.812953 0
M  V30 4208 C 392.628 -1.23262 -1.93233 0
M  V30 4209 C 393.641 -0.157371 -1.62038 0
M  V30 4210 O 394.83 -0.410096 -1.73725 0
M  V30 4211 C 391.93 -0.87392 -3.27438 0
M  V30 4212 C 391.103 -2.04622 -3.86586 0
M  V30 4213 C 390.162 -1.66432 -4.99186 0
M  V30 4214 O 389.188 -2.38222 -5.16951 0
M  V30 4215 N 390.39 -0.584248 -5.77552 0
M  V30 4216 H 393.155 -2.19699 -2.03844 0
M  V30 4217 H 390.716 -1.281 -0.99005 0
M  V30 4218 H 392.708 -0.600039 -4.00227 0
M  V30 4219 H 391.278 0.00057392 -3.126 0
M  V30 4220 H 390.498 -2.48427 -3.06068 0
M  V30 4221 H 391.786 -2.82999 -4.22835 0
M  V30 4222 H 391.184 0.0123526 -5.65699 0
M  V30 4223 H 389.741 -0.37013 -6.50748 0
M  V30 4224 N 393.175 1.03435 -1.18907 0
M  V30 4225 C 394.422 1.76743 -0.988334 0
M  V30 4226 C 394.75 1.88447 0.481441 0
M  V30 4227 O 394.005 1.39383 1.37371 0
M  V30 4228 C 394.304 3.19792 -1.59586 0
M  V30 4229 C 393.97 3.28108 -3.09283 0
M  V30 4230 C 392.632 3.30084 -3.5014 0
M  V30 4231 C 394.984 3.27696 -4.05296 0
M  V30 4232 C 392.312 3.29299 -4.85571 0
M  V30 4233 C 394.664 3.28451 -5.4065 0
M  V30 4234 C 393.328 3.28723 -5.80946 0
M  V30 4235 H 392.598 0.64675 -0.361657 0
M  V30 4236 H 395.245 1.21442 -1.48068 0
M  V30 4237 H 393.55 3.78136 -1.02568 0
M  V30 4238 H 395.247 3.75171 -1.41589 0
M  V30 4239 H 391.837 3.27294 -2.76725 0
M  V30 4240 H 396.021 3.25354 -3.74778 0
M  V30 4241 H 391.277 3.2783 -5.16079 0
M  V30 4242 H 395.451 3.27082 -6.14809 0
M  V30 4243 H 393.078 3.27868 -6.85862 0
M  V30 4244 N 394.653 0.992116 1.22453 0
M  V30 4245 C 395.563 0.55065 2.28046 0
M  V30 4246 C 396.579 -0.400189 1.69335 0
M  V30 4247 O 397.755 -0.267215 1.99619 0
M  V30 4248 C 394.82 -0.128496 3.46462 0
M  V30 4249 C 393.881 0.865208 4.20491 0
M  V30 4250 C 393.114 0.218377 5.33253 0
M  V30 4251 O 393.337 -0.987894 5.6178 0
M  V30 4252 O 392.271 0.922845 5.94783 0
M  V30 4253 H 396.097 1.4291 2.67975 0
M  V30 4254 H 393.682 0.760326 1.28606 0
M  V30 4255 H 395.564 -0.508947 4.18315 0
M  V30 4256 H 394.239 -0.981526 3.0846 0
M  V30 4257 H 393.146 1.29658 3.50913 0
M  V30 4258 H 394.479 1.68741 4.62371 0
M  V30 4259 N 396.131 -1.37776 0.765217 0
M  V30 4260 C 397.041 -2.34135 0.147666 0
M  V30 4261 C 398.057 -1.59854 -0.687215 0
M  V30 4262 O 399.233 -1.91983 -0.608659 0
M  V30 4263 C 396.298 -3.3901 -0.72617 0
M  V30 4264 C 395.359 -4.2912 0.124417 0
M  V30 4265 C 394.592 -5.28986 -0.707807 0
M  V30 4266 O 394.815 -5.36205 -1.94525 0
M  V30 4267 O 393.749 -6.01779 -0.12046 0
M  V30 4268 H 397.575 -2.88664 0.943758 0
M  V30 4269 H 395.16 -1.39824 0.526277 0
M  V30 4270 H 397.042 -4.03195 -1.22524 0
M  V30 4271 H 395.717 -2.86819 -1.50056 0
M  V30 4272 H 394.624 -3.68057 0.669696 0
M  V30 4273 H 395.957 -4.84598 0.861736 0
M  V30 4274 N 397.609 -0.515225 -1.4894 0
M  V30 4275 C 398.539 0.244628 -2.32215 0
M  V30 4276 C 399.52 0.949136 -1.41157 0
M  V30 4277 O 400.705 0.937783 -1.70057 0
M  V30 4278 C 397.835 1.30096 -3.22013 0
M  V30 4279 C 396.789 0.715486 -4.21977 0
M  V30 4280 C 396.115 1.87339 -5.00808 0
M  V30 4281 C 397.415 -0.302982 -5.2142 0
M  V30 4282 H 399.109 -0.450501 -2.95991 0
M  V30 4283 H 396.655 -0.218098 -1.42339 0
M  V30 4284 H 398.608 1.84037 -3.79089 0
M  V30 4285 H 397.332 2.02547 -2.56207 0
M  V30 4286 H 395.991 0.197715 -3.66066 0
M  V30 4287 H 395.639 2.58592 -4.31438 0
M  V30 4288 H 395.339 1.48764 -5.68457 0
M  V30 4289 H 396.863 2.41686 -5.60732 0
M  V30 4290 H 398.277 0.148802 -5.73107 0
M  V30 4291 H 396.674 -0.60532 -5.97039 0
M  V30 4292 H 397.744 -1.21395 -4.69459 0
M  V30 4293 N 399.087 1.5561 -0.249682 0
M  V30 4294 C 400.317 2.03116 0.377803 0
M  V30 4295 C 400.725 1.12822 1.51881 0
M  V30 4296 O 400.068 0.13562 1.83199 0
M  V30 4297 C 400.13 3.46866 0.944693 0
M  V30 4298 C 399.794 4.56955 -0.0644259 0
M  V30 4299 C 400.791 5.12485 -0.874957 0
M  V30 4300 C 398.476 5.01936 -0.19132 0
M  V30 4301 C 400.47 6.11491 -1.79881 0
M  V30 4302 C 398.157 6.00773 -1.11868 0
M  V30 4303 C 399.155 6.5543 -1.92095 0
M  V30 4304 O 398.843 7.5234 -2.83267 0
M  V30 4305 H 398.575 0.669489 0.0935961 0
M  V30 4306 H 401.129 2.02004 -0.371966 0
M  V30 4307 H 399.359 3.45136 1.74407 0
M  V30 4308 H 401.048 3.77856 1.48255 0
M  V30 4309 H 401.814 4.78564 -0.787523 0
M  V30 4310 H 397.693 4.59055 0.423072 0
M  V30 4311 H 401.237 6.54078 -2.42543 0
M  V30 4312 H 397.134 6.34114 -1.20703 0
M  V30 4313 H 397.902 7.69966 -2.7766 0
M  V30 4314 N 400.565 -0.0233959 1.57583 0
M  V30 4315 C 401.793 -0.724682 1.93794 0
M  V30 4316 C 402.208 -1.68588 0.849912 0
M  V30 4317 O 401.565 -1.81676 -0.173204 0
M  V30 4318 C 401.616 -1.47684 3.29957 0
M  V30 4319 O 401.337 -0.554222 4.3458 0
M  V30 4320 C 402.838 -2.27477 3.80485 0
M  V30 4321 H 400.058 -0.203317 0.639455 0
M  V30 4322 H 402.602 0.0207653 2.04489 0
M  V30 4323 H 400.757 -2.17412 3.20641 0
M  V30 4324 H 401.171 -1.08232 5.13212 0
M  V30 4325 H 402.645 -2.7564 4.78254 0
M  V30 4326 H 403.122 -3.09144 3.11972 0
M  V30 4327 H 403.728 -1.62813 3.92902 0
M  V30 4328 N 402.043 -1.548 -0.295768 0
M  V30 4329 C 403.29 -1.74329 -1.03032 0
M  V30 4330 C 403.618 -0.531915 -1.87085 0
M  V30 4331 O 402.873 0.486052 -1.89568 0
M  V30 4332 C 403.172 -2.98797 -1.961 0
M  V30 4333 C 402.838 -4.32356 -1.2798 0
M  V30 4334 C 401.5 -4.68661 -1.09135 0
M  V30 4335 C 403.852 -5.15128 -0.793243 0
M  V30 4336 C 401.18 -5.85312 -0.403269 0
M  V30 4337 C 403.532 -6.32488 -0.118854 0
M  V30 4338 C 402.196 -6.6745 0.0815043 0
M  V30 4339 H 401.466 -0.637916 -0.37702 0
M  V30 4340 H 404.113 -1.8906 -0.304696 0
M  V30 4341 H 402.418 -2.78869 -2.75207 0
M  V30 4342 H 404.115 -3.11102 -2.53015 0
M  V30 4343 H 400.705 -4.03808 -1.43655 0
M  V30 4344 H 404.889 -4.87575 -0.92653 0
M  V30 4345 H 400.145 -6.1094 -0.237098 0
M  V30 4346 H 404.319 -6.95892 0.266035 0
M  V30 4347 H 401.946 -7.57695 0.616685 0
M  V30 4348 N 403.521 0.559213 -1.47345 0
M  V30 4349 C 404.769 1.31388 -1.53563 0
M  V30 4350 C 405.09 1.93985 -0.198678 0
M  V30 4351 O 404.36 1.79825 0.777167 0
M  V30 4352 H 402.94 0.487901 -0.565652 0
M  V30 4353 H 405.602 0.65315 -1.8363 0
M  V30 4354 H 404.698 2.10844 -2.30111 0
M  V30 4355 N 404.999 1.35443 0.805782 0
M  V30 4356 C 406.247 1.28507 1.55982 0
M  V30 4357 C 406.568 -0.140046 1.94496 0
M  V30 4358 O 405.838 -1.07666 1.63661 0
M  V30 4359 H 404.418 0.472676 0.578434 0
M  V30 4360 H 407.08 1.69555 0.961098 0
M  V30 4361 H 406.176 1.90148 2.47488 0
M  V30 4362 N 406.477 -1.02803 1.19454 0
M  V30 4363 C 407.407 -2.12999 0.956758 0
M  V30 4364 C 408.388 -1.69743 -0.110188 0
M  V30 4365 O 409.573 -1.94148 0.0450038 0
M  V30 4366 C 406.703 -3.43746 0.495553 0
M  V30 4367 C 405.657 -4.00688 1.50443 0
M  V30 4368 C 404.983 -5.27067 0.900275 0
M  V30 4369 C 406.283 -4.35397 2.8849 0
M  V30 4370 H 407.977 -2.33148 1.87836 0
M  V30 4371 H 405.523 -1.12045 0.904539 0
M  V30 4372 H 407.476 -4.2021 0.316493 0
M  V30 4373 H 406.2 -3.23321 -0.461646 0
M  V30 4374 H 404.859 -3.2632 1.67065 0
M  V30 4375 H 404.507 -5.02959 -0.064503 0
M  V30 4376 H 404.207 -5.66127 1.57397 0
M  V30 4377 H 405.731 -6.06196 0.73203 0
M  V30 4378 H 407.145 -5.02795 2.75446 0
M  V30 4379 H 405.542 -4.85541 3.52661 0
M  V30 4380 H 406.612 -3.44662 3.41081 0
M  V30 4381 N 407.956 -0.998596 -1.21925 0
M  V30 4382 C 409.233 -0.593401 -1.86382 0
M  V30 4383 C 409.613 0.92916 -1.89552 0
M  V30 4384 O 408.961 1.81347 -1.39017 0
M  V30 4385 C 409.171 -1.22039 -3.26967 0
M  V30 4386 C 410.519 -1.32449 -4.03413 0
M  V30 4387 O 411.543 -1.17522 -3.36254 0
M  V30 4388 O 410.402 -1.56395 -5.23644 0
M  V30 4389 H 407.496 -0.202385 -0.801854 0
M  V30 4390 H 410.042 -1.09484 -1.29659 0
M  V30 4391 H 408.814 -2.26158 -3.19325 0
M  V30 4392 H 408.437 -0.704906 -3.91301 0
M  V30 4393 N 409.434 1.37368 -0.772513 0
M  V30 4394 C 410.68 1.99969 -0.337681 0
M  V30 4395 C 411.013 1.61184 1.08321 0
M  V30 4396 O 410.288 0.858395 1.74533 0
M  V30 4397 C 410.571 3.56858 -0.482121 0
M  V30 4398 C 410.424 4.0555 -1.94549 0
M  V30 4399 C 411.743 4.39955 0.113143 0
M  V30 4400 H 408.862 0.726464 -0.124171 0
M  V30 4401 H 411.504 1.63034 -0.975699 0
M  V30 4402 H 409.654 3.88452 0.0610361 0
M  V30 4403 H 411.326 3.84518 -2.54841 0
M  V30 4404 H 409.569 3.57715 -2.45403 0
M  V30 4405 H 410.24 5.14587 -1.9976 0
M  V30 4406 H 412.716 4.14623 -0.35031 0
M  V30 4407 H 411.592 5.48897 -0.0180514 0
M  V30 4408 H 411.853 4.25403 1.20354 0
M  V30 4409 N 410.912 0.523116 1.48665 0
M  V30 4410 C 411.822 -0.247406 2.33292 0
M  V30 4411 C 412.838 -0.945769 1.46052 0
M  V30 4412 O 414.014 -0.922253 1.79043 0
M  V30 4413 C 411.079 -1.28487 3.22012 0
M  V30 4414 C 410.14 -0.597592 4.2512 0
M  V30 4415 C 409.373 -1.58563 5.09601 0
M  V30 4416 O 409.596 -2.81763 4.95949 0
M  V30 4417 O 408.53 -1.12879 5.91221 0
M  V30 4418 H 412.356 0.445869 3.00409 0
M  V30 4419 H 409.941 0.284128 1.46673 0
M  V30 4420 H 411.823 -1.88459 3.7691 0
M  V30 4421 H 410.498 -1.96068 2.57564 0
M  V30 4422 H 409.405 0.0424407 3.74076 0
M  V30 4423 H 410.738 0.0361517 4.92187 0
M  V30 4424 N 412.39 -1.55475 0.257931 0
M  V30 4425 C 413.639 -1.98383 -0.364275 0
M  V30 4426 C 413.952 -1.14952 -1.58258 0
M  V30 4427 O 415.158 -1.47924 -2.27664 0
M  V30 4428 C 413.614 -3.53037 -0.699479 0
M  V30 4429 C 413.222 -4.45223 0.498046 0
M  V30 4430 C 414.966 -4.04575 -1.28526 0
M  V30 4431 C 412.873 -5.91238 0.138383 0
M  V30 4432 H 411.803 -0.740911 -0.13988 0
M  V30 4433 H 414.454 -1.79936 0.359883 0
M  V30 4434 H 412.836 -3.6722 -1.48207 0
M  V30 4435 H 414.01 -4.42803 1.27522 0
M  V30 4436 H 412.325 -4.04226 0.999503 0
M  V30 4437 H 414.922 -5.11196 -1.56788 0
M  V30 4438 H 415.265 -3.5258 -2.21344 0
M  V30 4439 H 415.798 -3.93762 -0.565337 0
M  V30 4440 H 412.537 -6.47294 1.03398 0
M  V30 4441 H 412.057 -5.96768 -0.602374 0
M  V30 4442 H 413.736 -6.46413 -0.27553 0
M  V30 4443 N 413.868 0.0150385 -1.57593 0
M  V30 4444 C 415.117 0.702115 -1.89085 0
M  V30 4445 C 415.43 1.75764 -0.858277 0
M  V30 4446 O 416.636 2.49829 -1.0629 0
M  V30 4447 C 415.092 1.29992 -3.35604 0
M  V30 4448 C 414.7 0.280007 -4.47124 0
M  V30 4449 C 416.444 1.96606 -3.76227 0
M  V30 4450 C 414.351 0.886949 -5.84711 0
M  V30 4451 H 413.281 0.265997 -0.705522 0
M  V30 4452 H 415.932 -0.0430408 -1.8345 0
M  V30 4453 H 414.314 2.09525 -3.36029 0
M  V30 4454 H 415.488 -0.489631 -4.58191 0
M  V30 4455 H 413.803 -0.284835 -4.15425 0
M  V30 4456 H 416.4 2.42893 -4.76347 0
M  V30 4457 H 416.743 2.79024 -3.08952 0
M  V30 4458 H 417.276 1.23828 -3.78036 0
M  V30 4459 H 414.015 0.101876 -6.55421 0
M  V30 4460 H 413.535 1.6261 -5.77337 0
M  V30 4461 H 415.214 1.39011 -6.3189 0
M  V30 4462 N 415.346 1.54954 0.287554 0
M  V30 4463 C 416.757 1.65732 0.859634 0
M  V30 4464 C 417.108 0.574767 1.87592 0
M  V30 4465 O 416.233 -0.286299 2.14498 0
M  V30 4466 C 416.828 3.00438 1.56597 0
M  V30 4467 C 415.387 3.13292 2.08627 0
M  V30 4468 C 414.534 2.61473 0.923416 0
M  V30 4469 H 417.485 1.5857 0.0642338 0
M  V30 4470 H 417.506 2.92613 2.43224 0
M  V30 4471 H 417.018 3.79207 0.826053 0
M  V30 4472 H 415.119 2.39268 2.85625 0
M  V30 4473 H 415.232 4.19647 2.31157 0
M  V30 4474 H 413.596 2.18264 1.31275 0
M  V30 4475 H 414.379 3.42733 0.197241 0
M  V30 4476 N 416.824 -0.551391 1.4764 0
M  V30 4477 C 417.756 -1.67333 1.56628 0
M  V30 4478 C 418.769 -1.56398 0.452045 0
M  V30 4479 O 419.958 -1.6325 0.721926 0
M  V30 4480 C 417.058 -3.05841 1.45994 0
M  V30 4481 C 416.231 -3.42472 2.72088 0
M  V30 4482 C 415.29 -4.60168 2.55209 0
M  V30 4483 O 414.316 -4.64458 3.2904 0
M  V30 4484 N 415.518 -5.57024 1.63416 0
M  V30 4485 H 418.283 -1.60066 2.53375 0
M  V30 4486 H 415.844 -0.738169 1.44093 0
M  V30 4487 H 417.836 -3.8242 1.32428 0
M  V30 4488 H 416.406 -3.07302 0.573071 0
M  V30 4489 H 415.626 -2.55284 3.00373 0
M  V30 4490 H 416.914 -3.63723 3.55785 0
M  V30 4491 H 416.312 -5.56319 1.02594 0
M  V30 4492 H 414.869 -6.32906 1.558 0
M  V30 4493 N 418.302 -1.35869 -0.798587 0
M  V30 4494 C 419.551 -1.28921 -1.5512 0
M  V30 4495 C 419.864 0.13208 -1.95154 0
M  V30 4496 O 421.07 0.323879 -2.69561 0
M  V30 4497 C 419.526 -2.26141 -2.79979 0
M  V30 4498 C 419.134 -3.73658 -2.47151 0
M  V30 4499 C 420.878 -2.28152 -3.57976 0
M  V30 4500 C 418.785 -4.62679 -3.6835 0
M  V30 4501 H 417.715 -0.479031 -0.582276 0
M  V30 4502 H 420.366 -1.61179 -0.877125 0
M  V30 4503 H 418.748 -1.86865 -3.49138 0
M  V30 4504 H 419.922 -4.21616 -1.85947 0
M  V30 4505 H 418.237 -3.74333 -1.82383 0
M  V30 4506 H 420.834 -2.91875 -4.4801 0
M  V30 4507 H 421.177 -1.28748 -3.95891 0
M  V30 4508 H 421.71 -2.65998 -2.95787 0
M  V30 4509 H 418.449 -5.63111 -3.35538 0
M  V30 4510 H 417.969 -4.19442 -4.28752 0
M  V30 4511 H 419.648 -4.78498 -4.35487 0
M  V30 4512 N 419.78 1.02168 -1.19998 0
M  V30 4513 C 420.69 2.14069 -0.959774 0
M  V30 4514 C 421.706 1.73804 0.082655 0
M  V30 4515 O 422.882 2.01133 -0.103633 0
M  V30 4516 C 419.947 3.42936 -0.509459 0
M  V30 4517 C 419.008 3.97474 -1.62213 0
M  V30 4518 C 418.241 5.2019 -1.19321 0
M  V30 4519 O 418.464 5.70369 -0.0597726 0
M  V30 4520 O 417.398 5.67749 -1.99863 0
M  V30 4521 H 421.224 2.37199 -1.89658 0
M  V30 4522 H 418.809 1.12469 -0.983411 0
M  V30 4523 H 420.691 4.20551 -0.267322 0
M  V30 4524 H 419.366 3.21234 0.398821 0
M  V30 4525 H 418.273 3.21161 -1.9185 0
M  V30 4526 H 419.606 4.23555 -2.50723 0
M  V30 4527 N 421.258 1.00505 1.21394 0
M  V30 4528 C 422.674 0.717873 1.42544 0
M  V30 4529 C 422.874 -0.706936 1.88692 0
M  V30 4530 O 421.93 -1.47627 2.04847 0
M  V30 4531 C 423.243 1.73377 2.45684 0
M  V30 4532 C 424.791 1.75059 2.59467 0
M  V30 4533 C 425.266 2.75545 3.6584 0
M  V30 4534 N 426.757 2.74213 3.73311 0
M  V30 4535 C 427.492 3.48626 4.55245 0
M  V30 4536 N 426.988 4.32678 5.41075 0
M  V30 4537 N 428.781 3.37276 4.49668 0
M  V30 4538 H 420.932 1.92506 0.897503 0
M  V30 4539 H 423.195 0.830919 0.456375 0
M  V30 4540 H 422.901 2.75395 2.18748 0
M  V30 4541 H 422.775 1.53647 3.44489 0
M  V30 4542 H 425.162 0.737337 2.8574 0
M  V30 4543 H 425.243 1.98861 1.60897 0
M  V30 4544 H 424.887 3.77028 3.40313 0
M  V30 4545 H 424.817 2.49009 4.64007 0
M  V30 4546 H 427.308 2.13234 3.11993 0
M  V30 4547 H 427.621 4.86253 6.00648 0
M  V30 4548 H 425.966 4.3676 5.40616 0
M  V30 4549 H 429.157 2.71043 3.81646 0
M  V30 4550 H 429.33 3.95524 5.13288 0
M  V30 4551 N 422.737 -1.36956 0.779787 0
M  V30 4552 C 423.962 -2.04283 0.358224 0
M  V30 4553 C 424.387 -1.58422 -1.01411 0
M  V30 4554 O 423.745 -0.748179 -1.65142 0
M  V30 4555 C 423.793 -3.58152 0.419479 0
M  V30 4556 O 422.897 -4.08342 -0.577142 0
M  V30 4557 H 422.238 -0.645967 0.153698 0
M  V30 4558 H 424.768 -1.75108 1.05822 0
M  V30 4559 H 424.778 -4.07041 0.279636 0
M  V30 4560 H 423.453 -3.90886 1.42061 0
M  V30 4561 H 422.03 -3.70751 -0.399755 0
M  V30 4562 N 424.215 -0.530993 -1.48385 0
M  V30 4563 C 425.147 0.268353 -2.27624 0
M  V30 4564 C 426.16 0.903525 -1.35426 0
M  V30 4565 O 427.349 0.781796 -1.60469 0
M  V30 4566 C 424.449 1.39535 -3.08842 0
M  V30 4567 C 423.622 0.861913 -4.28824 0
M  V30 4568 C 422.681 1.87016 -4.91845 0
M  V30 4569 O 421.707 1.4267 -5.5103 0
M  V30 4570 N 422.909 3.20238 -4.84178 0
M  V30 4571 H 425.674 -0.41123 -2.96865 0
M  V30 4572 H 423.235 -0.365387 -1.57723 0
M  V30 4573 H 425.227 2.06803 -3.47871 0
M  V30 4574 H 423.797 1.97859 -2.42014 0
M  V30 4575 H 423.017 0.0132126 -3.94198 0
M  V30 4576 H 424.305 0.484415 -5.06489 0
M  V30 4577 H 423.703 3.58932 -4.37246 0
M  V30 4578 H 422.26 3.83136 -5.27305 0
M  V30 4579 N 425.693 1.55336 -0.266172 0
M  V30 4580 C 426.623 2.25146 0.618981 0
M  V30 4581 C 427.604 1.23845 1.16604 0
M  V30 4582 O 428.789 1.52544 1.20183 0
M  V30 4583 C 425.919 2.96572 1.80728 0
M  V30 4584 C 424.873 4.04726 1.39215 0
M  V30 4585 C 424.199 4.63678 2.66283 0
M  V30 4586 C 425.499 5.19407 0.548942 0
M  V30 4587 H 427.193 2.99377 0.0368116 0
M  V30 4588 H 424.739 1.43991 0.0162651 0
M  V30 4589 H 426.692 3.44116 2.43232 0
M  V30 4590 H 425.416 2.19861 2.41514 0
M  V30 4591 H 424.075 3.57979 0.790351 0
M  V30 4592 H 423.723 3.83646 3.25308 0
M  V30 4593 H 423.423 5.367 2.39222 0
M  V30 4594 H 424.947 5.13967 3.29651 0
M  V30 4595 H 426.361 5.63059 1.07876 0
M  V30 4596 H 424.758 5.98936 0.373593 0
M  V30 4597 H 425.828 4.8295 -0.434394 0
M  V30 4598 N 427.171 -0.0066808 1.57599 0
M  V30 4599 C 428.587 -0.36267 1.55425 0
M  V30 4600 C 428.787 -1.75209 0.995187 0
M  V30 4601 O 427.843 -2.44616 0.626058 0
M  V30 4602 C 429.156 -0.244017 2.99708 0
M  V30 4603 C 430.704 -0.319451 3.11366 0
M  V30 4604 C 431.179 -0.229998 4.57422 0
M  V30 4605 N 432.67 -0.288105 4.62303 0
M  V30 4606 C 433.405 -0.242127 5.72889 0
M  V30 4607 N 432.901 -0.147133 6.92644 0
M  V30 4608 N 434.694 -0.293502 5.61333 0
M  V30 4609 H 426.845 0.902314 1.92281 0
M  V30 4610 H 429.108 0.34525 0.882896 0
M  V30 4611 H 428.814 0.711678 3.44424 0
M  V30 4612 H 428.688 -1.02877 3.629 0
M  V30 4613 H 431.075 -1.26559 2.66584 0
M  V30 4614 H 431.156 0.495055 2.50964 0
M  V30 4615 H 430.8 0.712566 5.02877 0
M  V30 4616 H 430.73 -1.0629 5.15761 0
M  V30 4617 H 433.221 -0.363126 3.76151 0
M  V30 4618 H 433.534 -0.117763 7.7271 0
M  V30 4619 H 431.879 -0.112857 6.94908 0
M  V30 4620 H 435.07 -0.365864 4.66668 0
M  V30 4621 H 435.243 -0.254204 6.47501 0
M  V30 4622 N 428.649 -1.55105 -0.279332 0
M  V30 4623 C 429.559 -1.90638 -1.36727 0
M  V30 4624 C 430.575 -0.802899 -1.54368 0
M  V30 4625 O 431.751 -1.10138 -1.68616 0
M  V30 4626 C 428.816 -2.16547 -2.70755 0
M  V30 4627 C 427.877 -3.40146 -2.61915 0
M  V30 4628 C 427.11 -3.6481 -3.8955 0
M  V30 4629 O 427.333 -2.92095 -4.89935 0
M  V30 4630 O 426.267 -4.58343 -3.90135 0
M  V30 4631 H 430.093 -2.83237 -1.09591 0
M  V30 4632 H 427.678 -1.4157 -0.477306 0
M  V30 4633 H 429.56 -2.34665 -3.50014 0
M  V30 4634 H 428.235 -1.27131 -2.9769 0
M  V30 4635 H 427.142 -3.2737 -1.81052 0
M  V30 4636 H 428.475 -4.29761 -2.3993 0
M  V30 4637 N 430.127 0.543554 -1.4793 0
M  V30 4638 C 431.074 1.64942 -1.6144 0
M  V30 4639 C 432.044 1.59692 -0.456903 0
M  V30 4640 O 433.229 1.78321 -0.678688 0
M  V30 4641 C 430.369 3.03238 -1.64744 0
M  V30 4642 C 429.482 3.18823 -2.91506 0
M  V30 4643 C 428.617 4.47599 -2.86057 0
M  V30 4644 C 427.656 4.56664 -4.07584 0
M  V30 4645 N 426.793 5.76811 -4.00292 0
M  V30 4646 H 431.633 1.52733 -2.55884 0
M  V30 4647 H 429.17 0.7438 -1.2691 0
M  V30 4648 H 431.128 3.83339 -1.64641 0
M  V30 4649 H 429.758 3.1425 -0.738017 0
M  V30 4650 H 428.81 2.32064 -3.01414 0
M  V30 4651 H 430.122 3.21384 -3.81463 0
M  V30 4652 H 429.276 5.35975 -2.84281 0
M  V30 4653 H 428.015 4.47538 -1.93807 0
M  V30 4654 H 427.02 3.66697 -4.09651 0
M  V30 4655 H 428.245 4.58474 -5.00978 0
M  V30 4656 H 426.191 5.77673 -3.10853 0
M  V30 4657 H 426.108 5.80808 -4.8394 0
M  V30 4658 H 427.376 6.67512 -4.02553 0
M  V30 4659 N 431.605 1.3629 0.791371 0
M  V30 4660 C 432.568 1.30309 1.88553 0
M  V30 4661 C 433.568 0.211204 1.59407 0
M  V30 4662 O 434.758 0.465865 1.67855 0
M  V30 4663 C 431.89 1.01956 3.25297 0
M  V30 4664 H 433.083 2.27614 1.95273 0
M  V30 4665 H 430.636 1.21035 0.988953 0
M  V30 4666 H 431.371 0.050998 3.2426 0
M  V30 4667 H 431.156 1.80968 3.4784 0
M  V30 4668 H 432.646 1.0037 4.05359 0
M  V30 4669 N 433.083 -1.0153 1.20538 0
M  V30 4670 C 434.013 -2.11972 0.979295 0
M  V30 4671 C 434.994 -1.6985 -0.0921787 0
M  V30 4672 O 436.179 -1.94089 0.0655932 0
M  V30 4673 C 433.309 -3.43201 0.531984 0
M  V30 4674 C 432.263 -3.9907 1.54685 0
M  V30 4675 C 431.589 -5.26082 0.956127 0
M  V30 4676 C 432.889 -4.32313 2.93092 0
M  V30 4677 H 434.583 -2.31143 1.90298 0
M  V30 4678 H 432.129 -1.11079 0.916372 0
M  V30 4679 H 434.082 -4.1985 0.361044 0
M  V30 4680 H 432.806 -3.23792 -0.427327 0
M  V30 4681 H 431.465 -3.2453 1.70517 0
M  V30 4682 H 431.113 -5.02999 -0.0111538 0
M  V30 4683 H 430.813 -5.64426 1.63393 0
M  V30 4684 H 432.337 -6.05386 0.796284 0
M  V30 4685 H 433.751 -4.99845 2.80763 0
M  V30 4686 H 432.148 -4.81774 3.57791 0
M  V30 4687 H 433.218 -3.41025 3.44717 0
M  V30 4688 N 434.561 -1.01147 -1.20859 0
M  V30 4689 C 435.809 -0.696486 -1.89719 0
M  V30 4690 C 436.13 0.775788 -1.78904 0
M  V30 4691 O 435.4 1.55759 -1.18811 0
M  V30 4692 H 433.98 -0.254628 -0.702263 0
M  V30 4693 H 436.642 -1.28197 -1.46804 0
M  V30 4694 H 435.738 -0.975357 -2.96468 0
M  V30 4695 N 436.039 1.36541 -0.78704 0
M  V30 4696 C 436.989 2.27459 -0.156957 0
M  V30 4697 C 437.973 1.46843 0.657709 0
M  V30 4698 O 439.165 1.69245 0.518173 0
M  V30 4699 C 436.294 3.35893 0.709278 0
M  V30 4700 C 435.38 4.23947 -0.114049 0
M  V30 4701 N 435.771 4.92145 -1.16736 0
M  V30 4702 C 434.069 4.4587 0.107497 0
M  V30 4703 C 434.77 5.57261 -1.66837 0
M  V30 4704 N 433.746 5.3473 -0.977992 0
M  V30 4705 H 437.548 2.77669 -0.963185 0
M  V30 4706 H 435.062 1.49839 -0.62627 0
M  V30 4707 H 437.059 3.99953 1.17656 0
M  V30 4708 H 435.719 2.87238 1.51408 0
M  V30 4709 H 436.73 4.94169 -1.54976 0
M  V30 4710 H 433.407 4.08056 0.882994 0
M  V30 4711 H 434.797 6.21728 -2.54762 0
M  V30 4712 N 437.518 0.538854 1.48102 0
M  V30 4713 C 438.748 0.0122958 2.06596 0
M  V30 4714 C 439.156 -1.27861 1.39457 0
M  V30 4715 O 438.499 -1.77348 0.478907 0
M  V30 4716 C 438.561 -0.273131 3.58461 0
M  V30 4717 C 438.225 0.92561 4.47528 0
M  V30 4718 C 439.222 1.82637 4.86765 0
M  V30 4719 C 436.907 1.13511 4.89306 0
M  V30 4720 C 438.901 2.92047 5.66558 0
M  V30 4721 C 436.588 2.23233 5.68868 0
M  V30 4722 C 437.586 3.12333 6.07402 0
M  V30 4723 O 437.274 4.20155 6.85365 0
M  V30 4724 H 437.006 0.0344283 0.675123 0
M  V30 4725 H 439.56 0.746494 1.91355 0
M  V30 4726 H 437.79 -1.06141 3.71848 0
M  V30 4727 H 439.479 -0.742842 3.99045 0
M  V30 4728 H 440.245 1.67649 4.55103 0
M  V30 4729 H 436.124 0.450835 4.5879 0
M  V30 4730 H 439.668 3.6162 5.96554 0
M  V30 4731 H 435.565 2.38201 5.99942 0
M  V30 4732 H 436.333 4.17975 7.03732 0
M  V30 4733 N 438.996 -1.55193 0.274407 0
M  V30 4734 C 439.943 -2.225 -0.613374 0
M  V30 4735 C 440.913 -1.19823 -1.15029 0
M  V30 4736 O 442.098 -1.48362 -1.19973 0
M  V30 4737 C 439.238 -2.94927 -1.79199 0
M  V30 4738 C 438.351 -4.12322 -1.28899 0
M  V30 4739 C 437.486 -4.72394 -2.42934 0
M  V30 4740 C 436.525 -5.81984 -1.89634 0
M  V30 4741 N 435.662 -6.36123 -2.9714 0
M  V30 4742 H 440.502 -2.97982 -0.032756 0
M  V30 4743 H 438.039 -1.47099 -0.00440146 0
M  V30 4744 H 439.997 -3.35134 -2.48478 0
M  V30 4745 H 438.627 -2.2187 -2.34465 0
M  V30 4746 H 437.679 -3.7724 -0.489327 0
M  V30 4747 H 438.991 -4.91355 -0.858587 0
M  V30 4748 H 438.145 -5.15317 -3.20208 0
M  V30 4749 H 436.884 -3.92636 -2.8929 0
M  V30 4750 H 435.889 -5.38511 -1.1084 0
M  V30 4751 H 437.114 -6.6361 -1.44215 0
M  V30 4752 H 435.06 -5.59259 -3.42878 0
M  V30 4753 H 434.977 -7.10427 -2.58515 0
M  V30 4754 H 436.245 -6.83704 -3.74391 0
M  V30 4755 N 440.474 -0.00167713 -1.576 0
M  V30 4756 C 441.751 0.719951 -1.81868 0
M  V30 4757 C 442.131 1.91895 -0.879747 0
M  V30 4758 O 441.479 2.28389 0.0711423 0
M  V30 4759 C 441.689 1.12409 -3.30402 0
M  V30 4760 C 443.037 1.52724 -3.96182 0
M  V30 4761 O 444.061 1.21784 -3.34734 0
M  V30 4762 O 442.92 2.10265 -5.04431 0
M  V30 4763 H 440.014 0.350707 -0.748955 0
M  V30 4764 H 442.56 -0.0272597 -1.69678 0
M  V30 4765 H 441.332 0.269532 -3.90371 0
M  V30 4766 H 440.955 1.93035 -3.47596 0
M  V30 4767 N 441.952 1.55251 0.271103 0
M  V30 4768 C 443.201 1.75151 1.00025 0
M  V30 4769 C 443.514 0.561041 1.87381 0
M  V30 4770 O 444.72 0.642506 2.63788 0
M  V30 4771 C 443.176 3.09999 1.82835 0
M  V30 4772 C 442.784 4.3662 1.00336 0
M  V30 4773 C 444.528 3.39249 2.55168 0
M  V30 4774 C 442.435 5.62506 1.82595 0
M  V30 4775 H 441.365 0.652877 0.377183 0
M  V30 4776 H 444.016 1.81708 0.255843 0
M  V30 4777 H 442.398 2.97485 2.61378 0
M  V30 4778 H 443.572 4.60055 0.261959 0
M  V30 4779 H 441.887 4.14527 0.394486 0
M  V30 4780 H 444.484 4.3051 3.1712 0
M  V30 4781 H 444.827 2.59467 3.2555 0
M  V30 4782 H 445.36 3.52869 1.83653 0
M  V30 4783 H 442.099 6.45041 1.16631 0
M  V30 4784 H 441.619 5.43211 2.54327 0
M  V30 4785 H 443.298 6.00875 2.39913 0
M  V30 4786 N 443.43 -0.535701 1.48216 0
M  V30 4787 C 444.393 -1.623 1.61838 0
M  V30 4788 C 445.393 -1.53087 0.492024 0
M  V30 4789 O 446.583 -1.5686 0.757668 0
M  V30 4790 C 443.715 -3.01907 1.58319 0
M  V30 4791 H 444.908 -1.51564 2.58783 0
M  V30 4792 H 442.461 -0.757317 1.36727 0
M  V30 4793 H 443.196 -3.18155 0.628299 0
M  V30 4794 H 442.981 -3.10003 2.40085 0
M  V30 4795 H 444.471 -3.80969 1.71033 0
M  V30 4796 N 444.908 -1.36708 -0.784132 0
M  V30 4797 C 445.855 -1.31466 -1.89698 0
M  V30 4798 C 446.825 -0.18239 -1.65096 0
M  V30 4799 O 448.01 -0.369762 -1.87183 0
M  V30 4800 C 445.15 -1.1151 -3.26588 0
M  V30 4801 C 444.263 -2.33859 -3.63227 0
M  V30 4802 C 443.398 -2.06873 -4.89262 0
M  V30 4803 C 442.437 -3.25154 -5.18595 0
M  V30 4804 N 441.574 -2.978 -6.35814 0
M  V30 4805 H 446.414 -2.26619 -1.93515 0
M  V30 4806 H 443.951 -1.12625 -0.946256 0
M  V30 4807 H 445.909 -0.979653 -4.05535 0
M  V30 4808 H 444.539 -0.200103 -3.22179 0
M  V30 4809 H 443.591 -2.58188 -2.79362 0
M  V30 4810 H 444.903 -3.22109 -3.8085 0
M  V30 4811 H 444.057 -1.90289 -5.76086 0
M  V30 4812 H 442.796 -1.15942 -4.73718 0
M  V30 4813 H 441.801 -3.42292 -4.30251 0
M  V30 4814 H 443.026 -4.1692 -5.36055 0
M  V30 4815 H 440.972 -2.09485 -6.21653 0
M  V30 4816 H 440.889 -3.7959 -6.53794 0
M  V30 4817 H 442.157 -2.84805 -7.25607 0
M  V30 4818 N 446.386 1.0089 -1.21074 0
M  V30 4819 C 447.802 1.2695 -0.967257 0
M  V30 4820 C 448.002 1.9846 0.348673 0
M  V30 4821 O 447.058 2.28459 1.0753 0
M  V30 4822 C 448.371 2.09697 -2.15517 0
M  V30 4823 C 449.919 2.22937 -2.197 0
M  V30 4824 C 450.394 3.09064 -3.37999 0
M  V30 4825 N 451.885 3.16653 -3.38061 0
M  V30 4826 C 452.62 3.8354 -4.26245 0
M  V30 4827 N 452.116 4.52488 -5.2462 0
M  V30 4828 N 453.909 3.80141 -4.14064 0
M  V30 4829 H 446.06 0.529005 -2.05707 0
M  V30 4830 H 448.323 0.296148 -0.900556 0
M  V30 4831 H 448.029 1.64497 -3.10859 0
M  V30 4832 H 447.903 3.10444 -2.14253 0
M  V30 4833 H 450.29 2.67357 -1.24916 0
M  V30 4834 H 450.371 1.21673 -2.2501 0
M  V30 4835 H 450.015 2.65347 -4.33074 0
M  V30 4836 H 449.945 4.10433 -3.29928 0
M  V30 4837 H 452.436 2.67566 -2.66865 0
M  V30 4838 H 452.749 5.01219 -5.88217 0
M  V30 4839 H 451.094 4.51288 -5.28549 0
M  V30 4840 H 454.285 3.25427 -3.36474 0
M  V30 4841 H 454.458 4.31992 -4.82998 0
M  V30 4842 N 447.864 1.01787 1.20321 0
M  V30 4843 C 448.794 0.609625 2.25401 0
M  V30 4844 C 449.775 -0.375951 1.65893 0
M  V30 4845 O 450.96 -0.261101 1.92437 0
M  V30 4846 C 448.09 -0.0515995 3.47262 0
M  V30 4847 C 447.044 0.855095 4.19371 0
M  V30 4848 C 446.37 0.0595757 5.34667 0
M  V30 4849 C 447.67 2.16374 4.75373 0
M  V30 4850 H 449.364 1.48803 2.59804 0
M  V30 4851 H 446.91 0.716934 1.24884 0
M  V30 4852 H 448.863 -0.348764 4.19954 0
M  V30 4853 H 447.587 -0.964726 3.12027 0
M  V30 4854 H 446.246 1.13628 3.48546 0
M  V30 4855 H 445.894 -0.85524 4.95676 0
M  V30 4856 H 445.594 0.663406 5.83843 0
M  V30 4857 H 447.118 -0.231105 6.10162 0
M  V30 4858 H 448.532 1.92885 5.39878 0
M  V30 4859 H 446.929 2.71853 5.34991 0
M  V30 4860 H 447.999 2.82589 3.94045 0
M  V30 4861 N 449.342 -1.36122 0.79427 0
M  V30 4862 C 450.29 -2.31871 0.184023 0
M  V30 4863 C 451.284 -1.56041 -0.659365 0
M  V30 4864 O 452.49 -1.71266 -0.553906 0
M  V30 4865 H 448.865 -0.750896 0.0407373 0
M  V30 4866 H 450.836 -2.80898 1.00693 0
M  V30 4867 C 449.585 -3.41324 -0.662813 0
M  V30 4868 H 448.908 -3.99793 -0.0231944 0
M  V30 4869 H 450.348 -4.10629 -1.05639 0
M  V30 4870 C 448.807 -2.83308 -1.82313 0
M  V30 4871 O 449.337 -2.75863 -2.91997 0
M  V30 4872 N 447.543 -2.40529 -1.63077 0
M  V30 4873 H 447.09 -2.46785 -0.738591 0
M  V30 4874 H 447.048 -2.02059 -2.40872 0
M  V30 4875 N 450.82 -0.546701 -1.47814 0
M  V30 4876 C 451.768 0.220048 -2.31557 0
M  V30 4877 C 452.762 0.919472 -1.42275 0
M  V30 4878 O 453.968 0.841953 -1.59095 0
M  V30 4879 H 450.343 0.0898334 -0.746615 0
M  V30 4880 H 452.314 -0.505589 -2.94086 0
M  V30 4881 C 451.063 1.24353 -3.24702 0
M  V30 4882 H 450.386 0.714758 -3.93359 0
M  V30 4883 H 451.826 1.75112 -3.8615 0
M  V30 4884 C 450.285 2.28593 -2.47481 0
M  V30 4885 O 450.815 3.35334 -2.21165 0
M  V30 4886 N 449.021 2.02244 -2.08676 0
M  V30 4887 H 448.568 1.15455 -2.30278 0
M  V30 4888 H 448.526 2.72207 -1.57323 0
M  V30 4889 N 452.299 1.55045 -0.282633 0
M  V30 4890 C 453.548 1.98938 0.332667 0
M  V30 4891 C 453.861 1.17455 1.56409 0
M  V30 4892 O 455.067 1.51527 2.25282 0
M  V30 4893 C 453.523 3.54105 0.643226 0
M  V30 4894 C 453.131 4.44374 -0.568814 0
M  V30 4895 C 454.875 4.06569 1.22074 0
M  V30 4896 C 452.782 5.90943 -0.232426 0
M  V30 4897 H 451.712 0.743043 0.128075 0
M  V30 4898 H 454.363 1.79341 -0.388464 0
M  V30 4899 H 452.745 3.69532 1.42346 0
M  V30 4900 H 453.919 4.40718 -1.34551 0
M  V30 4901 H 452.234 4.02585 -1.06369 0
M  V30 4902 H 454.831 5.13626 1.48635 0
M  V30 4903 H 455.174 3.56057 2.15707 0
M  V30 4904 H 455.707 3.94612 0.502621 0
M  V30 4905 H 452.446 6.45567 -1.13683 0
M  V30 4906 H 451.966 5.9765 0.507357 0
M  V30 4907 H 453.645 6.4677 0.172657 0
M  V30 4908 N 453.777 0.010035 1.57597 0
M  V30 4909 C 454.725 -0.996272 2.10184 0
M  V30 4910 C 455.719 -1.34942 1.02406 0
M  V30 4911 O 456.925 -1.33389 1.20861 0
M  V30 4912 H 453.3 -0.338982 0.671264 0
M  V30 4913 H 455.271 -0.527272 2.93705 0
M  V30 4914 C 454.02 -2.27599 2.62857 0
M  V30 4915 H 453.343 -2.01295 3.45428 0
M  V30 4916 H 454.783 -2.96265 3.0332 0
M  V30 4917 C 453.242 -2.99269 1.54725 0
M  V30 4918 O 453.772 -3.90644 0.93597 0
M  V30 4919 N 451.978 -2.61269 1.27228 0
M  V30 4920 H 451.525 -1.87043 1.77123 0
M  V30 4921 H 451.483 -3.09534 0.550999 0
M  V30 4922 N 455.255 -1.55392 -0.262866 0
M  V30 4923 C 456.202 -1.88966 -1.32516 0
M  V30 4924 C 457.172 -0.742187 -1.48596 0
M  V30 4925 O 458.357 -0.99439 -1.62839 0
M  V30 4926 C 455.497 -2.17592 -2.67858 0
M  V30 4927 C 454.61 -3.45061 -2.59917 0
M  V30 4928 C 453.745 -3.63336 -3.87505 0
M  V30 4929 C 452.784 -4.84462 -3.74116 0
M  V30 4930 N 451.921 -4.99342 -4.93561 0
M  V30 4931 H 456.761 -2.79566 -1.03184 0
M  V30 4932 H 454.298 -1.38404 -0.498285 0
M  V30 4933 H 456.256 -2.3219 -3.46617 0
M  V30 4934 H 454.886 -1.30215 -2.95371 0
M  V30 4935 H 453.938 -3.38881 -1.72812 0
M  V30 4936 H 455.25 -4.3396 -2.45926 0
M  V30 4937 H 454.404 -3.77807 -4.74707 0
M  V30 4938 H 453.143 -2.72641 -4.04374 0
M  V30 4939 H 452.148 -4.69985 -2.85297 0
M  V30 4940 H 453.373 -5.76603 -3.58757 0
M  V30 4941 H 451.319 -4.1158 -5.10821 0
M  V30 4942 H 451.236 -5.82303 -4.82141 0
M  V30 4943 H 452.504 -5.18208 -5.82306 0
M  V30 4944 N 456.733 0.527833 -1.48498 0
M  V30 4945 C 457.961 1.30823 -1.6029 0
M  V30 4946 C 458.376 1.86945 -0.263974 0
M  V30 4947 O 457.733 1.6651 0.747034 0
M  V30 4948 C 457.784 2.45756 -2.65116 0
M  V30 4949 O 457.505 1.91946 -3.93813 0
M  V30 4950 C 459.006 3.37543 -2.87367 0
M  V30 4951 H 456.226 0.397763 -0.540394 0
M  V30 4952 H 458.77 0.636529 -1.94341 0
M  V30 4953 H 456.925 3.08806 -2.33917 0
M  V30 4954 H 457.339 2.67195 -4.51339 0
M  V30 4955 H 458.813 4.14532 -3.6451 0
M  V30 4956 H 459.29 3.92905 -1.9627 0
M  V30 4957 H 459.896 2.80283 -3.19878 0
M  V30 4958 N 458.211 1.37122 0.776871 0
M  V30 4959 C 459.46 1.31373 1.53049 0
M  V30 4960 C 459.773 -0.101016 1.95339 0
M  V30 4961 O 460.979 -0.280953 2.70042 0
M  V30 4962 C 459.435 2.30567 2.76346 0
M  V30 4963 C 459.043 3.77543 2.41175 0
M  V30 4964 C 460.787 2.33818 3.54301 0
M  V30 4965 C 458.694 4.68481 3.60943 0
M  V30 4966 H 457.624 0.488234 0.574581 0
M  V30 4967 H 460.275 1.62554 0.851372 0
M  V30 4968 H 458.657 1.92396 3.46121 0
M  V30 4969 H 459.831 4.24521 1.79216 0
M  V30 4970 H 458.146 3.77187 1.76405 0
M  V30 4971 H 460.743 2.98965 4.4331 0
M  V30 4972 H 461.086 1.3503 3.93793 0
M  V30 4973 H 461.619 2.7067 2.91518 0
M  V30 4974 H 458.358 5.68378 3.26537 0
M  V30 4975 H 457.878 4.2621 4.22025 0
M  V30 4976 H 459.557 4.85366 4.27819 0
M  V30 4977 N 459.689 -1.00246 1.21608 0
M  V30 4978 C 461.1 -1.55511 1.03312 0
M  V30 4979 C 461.451 -1.91946 -0.406332 0
M  V30 4980 O 460.576 -1.73753 -1.28992 0
M  V30 4981 C 461.171 -2.82576 1.86913 0
M  V30 4982 C 459.73 -3.34318 1.72941 0
M  V30 4983 C 458.877 -2.07487 1.83968 0
M  V30 4984 H 461.828 -0.824638 1.35593 0
M  V30 4985 H 461.849 -3.54559 1.38087 0
M  V30 4986 H 461.361 -2.56026 2.91672 0
M  V30 4987 H 459.462 -3.65797 0.70877 0
M  V30 4988 H 459.575 -4.05566 2.55055 0
M  V30 4989 H 457.939 -2.20603 1.27304 0
M  V30 4990 H 458.722 -1.83346 2.9024 0
M  V30 4991 N 461.167 -1.02423 -1.1978 0
M  V30 4992 C 462.392 -0.7373 -1.93852 0
M  V30 4993 C 462.817 0.696923 -1.74713 0
M  V30 4994 O 462.175 1.48056 -1.04638 0
M  V30 4995 C 462.223 -1.08783 -3.438 0
M  V30 4996 O 461.327 -0.20383 -4.11896 0
M  V30 4997 H 460.668 -0.27284 -0.605355 0
M  V30 4998 H 463.198 -1.36966 -1.51992 0
M  V30 4999 H 463.208 -1.04276 -3.9445 0
M  V30 5000 H 461.883 -2.13274 -3.57053 0
M  V30 5001 H 460.46 -0.307091 -3.71633 0
M  V30 5002 N 462.645 1.35699 -0.801477 0
M  V30 5003 C 463.87 2.03687 -0.390678 0
M  V30 5004 C 464.295 1.60015 0.988778 0
M  V30 5005 O 463.653 0.774357 1.63931 0
M  V30 5006 C 463.701 3.57439 -0.476404 0
M  V30 5007 O 462.805 4.09208 0.512106 0
M  V30 5008 H 462.146 0.64344 -0.163956 0
M  V30 5009 H 464.676 1.73403 -1.08594 0
M  V30 5010 H 464.686 4.06544 -0.344357 0
M  V30 5011 H 463.361 3.88576 -1.48262 0
M  V30 5012 H 461.938 3.7134 0.340721 0
M  V30 5013 N 464.123 0.554532 1.47522 0
M  V30 5014 C 465.369 0.0377449 2.03365 0
M  V30 5015 C 465.724 -1.29654 1.42154 0
M  V30 5016 O 465.017 -1.83022 0.566865 0
M  V30 5017 C 465.211 -0.115927 3.57212 0
M  V30 5018 C 465.04 1.20191 4.33341 0
M  V30 5019 C 463.81 1.76849 4.73342 0
M  V30 5020 C 466.008 2.11849 4.68641 0
M  V30 5021 N 463.99 3.02665 5.34104 0
M  V30 5022 C 465.361 3.22245 5.29677 0
M  V30 5023 C 467.416 2.11876 4.5057 0
M  V30 5024 C 466.119 4.32763 5.74551 0
M  V30 5025 C 468.145 3.21405 4.9644 0
M  V30 5026 C 467.507 4.30519 5.57523 0
M  V30 5027 H 463.606 0.0559107 0.779999 0
M  V30 5028 H 466.19 0.741232 1.80038 0
M  V30 5029 H 464.361 -0.788533 3.80311 0
M  V30 5030 H 466.093 -0.634538 3.99695 0
M  V30 5031 H 462.848 1.30681 4.55214 0
M  V30 5032 H 463.272 3.66788 5.69031 0
M  V30 5033 H 467.914 1.28801 4.02704 0
M  V30 5034 H 465.632 5.166 6.2141 0
M  V30 5035 H 469.218 3.22509 4.8423 0
M  V30 5036 H 468.098 5.13873 5.92371 0
M  V30 5037 N 465.601 -1.54893 0.290851 0
M  V30 5038 C 466.85 -1.99111 -0.322113 0
M  V30 5039 C 467.163 -1.18283 -1.55784 0
M  V30 5040 O 468.369 -1.5272 -2.24475 0
M  V30 5041 C 466.825 -3.54442 -0.624438 0
M  V30 5042 C 466.433 -4.44066 0.592373 0
M  V30 5043 C 468.177 -4.07211 -1.19916 0
M  V30 5044 C 466.084 -5.90812 0.263762 0
M  V30 5045 H 465.014 -0.743712 -0.124133 0
M  V30 5046 H 467.665 -1.79132 0.39797 0
M  V30 5047 H 466.047 -3.70281 -1.40384 0
M  V30 5048 H 467.221 -4.39999 1.36886 0
M  V30 5049 H 465.536 -4.02015 1.08502 0
M  V30 5050 H 468.133 -5.14407 -1.45909 0
M  V30 5051 H 468.476 -3.57196 -2.13815 0
M  V30 5052 H 469.009 -3.94873 -0.481687 0
M  V30 5053 H 465.748 -6.44955 1.17105 0
M  V30 5054 H 465.268 -5.97911 -0.475655 0
M  V30 5055 H 466.947 -6.46852 -0.138354 0
M  V30 5056 N 467.08 -0.0183926 -1.57589 0
M  V30 5057 C 468.305 0.676634 -1.96052 0
M  V30 5058 C 468.73 1.6548 -0.894307 0
M  V30 5059 O 468.088 1.80712 0.145849 0
M  V30 5060 C 468.136 1.36872 -3.33614 0
M  V30 5061 O 467.24 2.48372 -3.29219 0
M  V30 5062 H 466.581 0.1786 -0.63953 0
M  V30 5063 H 469.111 -0.077056 -2.04455 0
M  V30 5064 H 469.121 1.72797 -3.69601 0
M  V30 5065 H 467.796 0.651636 -4.10763 0
M  V30 5066 H 466.373 2.14639 -3.04934 0
M  V30 5067 N 468.558 1.5553 0.254621 0
M  V30 5068 C 469.506 1.9048 1.33492 0
M  V30 5069 C 470.5 0.78304 1.50216 0
M  V30 5070 O 471.706 0.967582 1.51782 0
M  V30 5071 H 468.081 0.604846 0.44684 0
M  V30 5072 H 470.052 2.80688 1.01275 0
M  V30 5073 C 468.801 2.20928 2.68489 0
M  V30 5074 H 468.124 3.06742 2.56417 0
M  V30 5075 H 469.564 2.49291 3.42972 0
M  V30 5076 C 468.023 1.023 3.20993 0
M  V30 5077 O 468.553 0.267027 4.00811 0
M  V30 5078 N 466.759 0.815714 2.78917 0
M  V30 5079 H 466.306 1.43217 2.14119 0
M  V30 5080 H 466.264 0.0236532 3.14391 0
M  V30 5081 N 470.036 -0.519951 1.48776 0
M  V30 5082 C 471.285 -1.27175 1.56555 0
M  V30 5083 C 471.598 -1.9401 0.248869 0
M  V30 5084 O 472.804 -2.70725 0.205004 0
M  V30 5085 C 471.26 -2.30811 2.76142 0
M  V30 5086 C 470.868 -1.7 4.14493 0
M  V30 5087 C 472.612 -3.06937 2.9324 0
M  V30 5088 C 470.519 -2.71635 5.25327 0
M  V30 5089 H 469.449 -0.478329 0.582853 0
M  V30 5090 H 472.1 -0.547916 1.75129 0
M  V30 5091 H 470.482 -3.06274 2.51023 0
M  V30 5092 H 471.656 -1.00658 4.49672 0
M  V30 5093 H 469.971 -1.06331 4.02595 0
M  V30 5094 H 472.568 -3.82905 3.73213 0
M  V30 5095 H 472.911 -3.63409 2.03075 0
M  V30 5096 H 473.444 -2.38589 3.18308 0
M  V30 5097 H 470.183 -2.1997 6.1749 0
M  V30 5098 H 469.703 -3.39275 4.94624 0
M  V30 5099 H 471.382 -3.34429 5.53865 0
M  V30 5100 N 471.514 -1.37532 -0.769588 0
M  V30 5101 C 472.791 -1.23392 -1.51768 0
M  V30 5102 C 473.171 0.17157 -2.10402 0
M  V30 5103 O 472.519 1.17943 -1.95708 0
M  V30 5104 C 472.729 -2.33163 -2.59685 0
M  V30 5105 C 474.077 -2.70809 -3.27028 0
M  V30 5106 O 475.101 -2.32355 -2.69981 0
M  V30 5107 O 473.96 -3.37066 -4.30173 0
M  V30 5108 H 471.054 -0.481617 -0.67229 0
M  V30 5109 H 473.6 -1.49318 -0.806368 0
M  V30 5110 H 472.372 -3.27273 -2.14494 0
M  V30 5111 H 471.995 -2.08713 -3.38415 0
M  V30 5112 N 472.992 0.995999 -1.22138 0
M  V30 5113 C 473.939 2.08551 -0.988687 0
M  V30 5114 C 474.909 1.65864 0.0885021 0
M  V30 5115 O 476.094 1.90704 -0.0604589 0
M  V30 5116 C 473.234 3.40374 -0.569191 0
M  V30 5117 C 472.347 3.96421 -1.71681 0
M  V30 5118 C 471.482 5.1639 -1.2456 0
M  V30 5119 C 470.521 5.64567 -2.36497 0
M  V30 5120 N 469.658 6.75777 -1.90445 0
M  V30 5121 H 474.498 2.2779 -1.92135 0
M  V30 5122 H 472.035 1.1168 -0.957388 0
M  V30 5123 H 473.993 4.16068 -0.307166 0
M  V30 5124 H 472.623 3.21145 0.326462 0
M  V30 5125 H 471.675 3.17628 -2.09324 0
M  V30 5126 H 472.987 4.2816 -2.55891 0
M  V30 5127 H 472.141 5.99362 -0.940774 0
M  V30 5128 H 470.88 4.86266 -0.373662 0
M  V30 5129 H 469.885 4.80185 -2.67772 0
M  V30 5130 H 471.11 5.96716 -3.24202 0
M  V30 5131 H 469.056 6.47443 -1.05609 0
M  V30 5132 H 468.973 7.06818 -2.68223 0
M  V30 5133 H 470.241 7.62262 -1.63022 0
M  V30 5134 N 474.47 1.03057 1.19235 0
M  V30 5135 C 475.7 0.746613 1.92638 0
M  V30 5136 C 476.108 -0.698708 1.75826 0
M  V30 5137 O 475.451 -1.487 1.07861 0
M  V30 5138 C 475.513 1.02024 3.44719 0
M  V30 5139 C 475.177 2.45745 3.85303 0
M  V30 5140 C 476.174 3.43887 3.8992 0
M  V30 5141 C 473.859 2.8019 4.16892 0
M  V30 5142 C 475.853 4.74529 4.2556 0
M  V30 5143 C 473.54 4.1104 4.52205 0
M  V30 5144 C 474.538 5.0802 4.56513 0
M  V30 5145 O 474.226 6.36527 4.91008 0
M  V30 5146 H 473.958 0.272401 0.618687 0
M  V30 5147 H 476.512 1.37853 1.52269 0
M  V30 5148 H 474.742 0.331184 3.85279 0
M  V30 5149 H 476.431 0.725677 3.9936 0
M  V30 5150 H 477.197 3.18614 3.65664 0
M  V30 5151 H 473.076 2.05382 4.12722 0
M  V30 5152 H 476.62 5.50222 4.28838 0
M  V30 5153 H 472.517 4.36086 4.7592 0
M  V30 5154 H 473.285 6.41025 5.08949 0
M  V30 5155 N 475.948 -1.35272 0.808662 0
M  V30 5156 C 476.895 -2.29764 0.218482 0
M  V30 5157 C 477.865 -1.52911 -0.648652 0
M  V30 5158 O 479.05 -1.81341 -0.593297 0
M  V30 5159 C 476.19 -3.39388 -0.625282 0
M  V30 5160 C 475.303 -4.31202 0.262516 0
M  V30 5161 C 474.438 -5.27919 -0.589451 0
M  V30 5162 C 473.477 -6.11371 0.298617 0
M  V30 5163 N 472.614 -7.0022 -0.513443 0
M  V30 5164 H 477.454 -2.79645 1.02968 0
M  V30 5165 H 474.991 -1.37629 0.519303 0
M  V30 5166 H 476.949 -4.01615 -1.12966 0
M  V30 5167 H 475.579 -2.90777 -1.40173 0
M  V30 5168 H 474.631 -3.69962 0.885013 0
M  V30 5169 H 475.943 -4.89748 0.945971 0
M  V30 5170 H 475.097 -5.95529 -1.15888 0
M  V30 5171 H 473.836 -4.69875 -1.30647 0
M  V30 5172 H 472.841 -5.42707 0.880301 0
M  V30 5173 H 474.066 -6.71494 1.01352 0
M  V30 5174 H 472.012 -6.44662 -1.21439 0
M  V30 5175 H 471.929 -7.55917 0.111922 0
M  V30 5176 H 473.197 -7.72175 -1.06608 0
M  V30 5177 N 477.426 -0.562348 -1.47226 0
M  V30 5178 C 478.373 0.182461 -2.30078 0
M  V30 5179 C 479.343 0.903503 -1.39377 0
M  V30 5180 O 480.528 0.898188 -1.68337 0
M  V30 5181 C 477.668 1.20322 -3.23445 0
M  V30 5182 C 476.781 0.487717 -4.29238 0
M  V30 5183 C 475.916 1.49422 -5.09752 0
M  V30 5184 C 474.955 0.763976 -6.07314 0
M  V30 5185 N 474.092 1.71755 -6.80768 0
M  V30 5186 H 478.932 -0.530169 -2.93246 0
M  V30 5187 H 476.469 -0.273276 -1.44539 0
M  V30 5188 H 478.427 1.80768 -3.76004 0
M  V30 5189 H 477.057 1.88382 -2.6213 0
M  V30 5190 H 476.109 -0.231374 -3.79696 0
M  V30 5191 H 477.421 -0.0841003 -4.98729 0
M  V30 5192 H 476.575 2.17206 -5.66486 0
M  V30 5193 H 475.314 2.09995 -4.40174 0
M  V30 5194 H 474.319 0.0722344 -5.49753 0
M  V30 5195 H 475.544 0.16391 -6.78902 0
M  V30 5196 H 473.49 2.31177 -6.13916 0
M  V30 5197 H 473.407 1.19802 -7.46447 0
M  V30 5198 H 474.675 2.38638 -7.42073 0
M  V30 5199 N 478.904 1.54736 -0.299062 0
M  V30 5200 C 480.153 1.99279 0.311549 0
M  V30 5201 C 480.466 1.19107 1.55154 0
M  V30 5202 O 481.672 1.53908 2.23662 0
M  V30 5203 C 480.128 3.54768 0.605632 0
M  V30 5204 C 479.736 4.43746 -0.615914 0
M  V30 5205 C 481.48 4.07841 1.17754 0
M  V30 5206 C 479.387 5.90663 -0.29509 0
M  V30 5207 H 478.317 0.744359 0.120187 0
M  V30 5208 H 480.968 1.78919 -0.407464 0
M  V30 5209 H 479.35 3.71021 1.38419 0
M  V30 5210 H 480.524 4.39267 -1.39218 0
M  V30 5211 H 478.839 4.01434 -1.10633 0
M  V30 5212 H 481.436 5.15174 1.43179 0
M  V30 5213 H 481.779 3.58324 2.11918 0
M  V30 5214 H 482.312 3.95123 0.460739 0
M  V30 5215 H 479.051 6.44325 -1.20524 0
M  V30 5216 H 478.571 5.98155 0.44394 0
M  V30 5217 H 480.25 6.46916 0.104048 0
M  V30 5218 N 480.382 0.0267497 1.57577 0
M  V30 5219 C 481.629 -0.652404 1.91703 0
M  V30 5220 C 481.957 -1.72271 0.902936 0
M  V30 5221 O 481.212 -1.955 -0.0884843 0
M  V30 5222 C 481.511 -1.30914 3.3256 0
M  V30 5223 C 481.177 -0.369441 4.49384 0
M  V30 5224 C 479.839 -0.110791 4.81072 0
M  V30 5225 C 482.191 0.275971 5.20469 0
M  V30 5226 C 479.519 0.801116 5.81205 0
M  V30 5227 C 481.871 1.17592 6.21575 0
M  V30 5228 C 480.535 1.44348 6.51705 0
M  V30 5229 H 479.805 -0.238732 0.70149 0
M  V30 5230 H 482.452 0.0880091 1.91298 0
M  V30 5231 H 480.757 -2.12425 3.29216 0
M  V30 5232 H 482.454 -1.84115 3.56234 0
M  V30 5233 H 479.044 -0.581211 4.24641 0
M  V30 5234 H 483.228 0.0892 4.9622 0
M  V30 5235 H 478.484 1.01614 6.02897 0
M  V30 5236 H 482.658 1.68223 6.75777 0
M  V30 5237 H 480.285 2.15176 7.29111 0
M  V30 5238 N 481.861 -1.55662 -0.24637 0
M  V30 5239 C 483.086 -1.81914 -0.996093 0
M  V30 5240 C 483.511 -0.603875 -1.78143 0
M  V30 5241 O 482.869 0.447091 -1.75701 0
M  V30 5242 C 482.917 -3.05908 -1.90925 0
M  V30 5243 O 482.021 -2.82861 -3.00105 0
M  V30 5244 H 481.362 -0.600481 -0.283406 0
M  V30 5245 H 483.892 -2.02848 -0.267199 0
M  V30 5246 H 483.902 -3.35356 -2.3238 0
M  V30 5247 H 482.577 -3.93999 -1.33183 0
M  V30 5248 H 481.154 -2.64583 -2.62775 0
M  V30 5249 N 483.339 0.512053 -1.4905 0
M  V30 5250 C 484.249 1.64139 -1.67617 0
M  V30 5251 C 485.265 1.64786 -0.558701 0
M  V30 5252 O 486.441 1.8341 -0.832034 0
M  V30 5253 C 483.506 3.00548 -1.72835 0
M  V30 5254 C 482.567 3.10615 -2.96339 0
M  V30 5255 C 481.8 4.40517 -3.01298 0
M  V30 5256 O 482.023 5.28671 -2.14157 0
M  V30 5257 O 480.957 4.55325 -3.93653 0
M  V30 5258 H 484.783 1.51407 -2.63267 0
M  V30 5259 H 482.368 0.687131 -1.32661 0
M  V30 5260 H 484.25 3.81641 -1.78683 0
M  V30 5261 H 482.925 3.13566 -0.803616 0
M  V30 5262 H 481.832 2.2875 -2.96014 0
M  V30 5263 H 483.165 3.0252 -3.88256 0
M  V30 5264 N 484.817 1.37938 0.762283 0
M  V30 5265 C 485.764 1.34467 1.87583 0
M  V30 5266 C 486.734 0.208633 1.64785 0
M  V30 5267 O 487.919 0.399494 1.86571 0
M  V30 5268 C 485.059 1.16692 3.24772 0
M  V30 5269 C 484.172 2.39608 3.59461 0
M  V30 5270 C 483.307 2.14631 4.85908 0
M  V30 5271 C 482.346 3.33364 5.13357 0
M  V30 5272 N 481.483 3.07877 6.30996 0
M  V30 5273 H 486.323 2.29669 1.89885 0
M  V30 5274 H 483.86 1.14116 0.928219 0
M  V30 5275 H 485.818 1.04405 4.03925 0
M  V30 5276 H 484.448 0.251333 3.2182 0
M  V30 5277 H 483.5 2.626 2.75219 0
M  V30 5278 H 484.812 3.28128 3.75678 0
M  V30 5279 H 483.966 1.99429 5.72986 0
M  V30 5280 H 482.705 1.23463 4.71814 0
M  V30 5281 H 481.71 3.49094 4.24751 0
M  V30 5282 H 482.935 4.25395 5.29354 0
M  V30 5283 H 480.881 2.19348 6.18241 0
M  V30 5284 H 480.798 3.89944 6.47673 0
M  V30 5285 H 482.066 2.96313 7.20985 0
M  V30 5286 N 486.295 -0.989507 1.22664 0
M  V30 5287 C 487.525 -1.7624 1.0781 0
M  V30 5288 C 487.933 -1.85466 -0.374036 0
M  V30 5289 O 487.276 -1.32645 -1.27087 0
M  V30 5290 C 487.338 -3.21007 1.61849 0
M  V30 5291 C 487.002 -3.35316 3.10503 0
M  V30 5292 C 487.999 -3.22362 4.07896 0
M  V30 5293 C 485.684 -3.60258 3.50028 0
M  V30 5294 C 487.678 -3.34139 5.42798 0
M  V30 5295 C 485.365 -3.71676 4.85078 0
M  V30 5296 C 486.363 -3.58625 5.81272 0
M  V30 5297 O 486.051 -3.69655 7.1387 0
M  V30 5298 H 485.783 -0.560209 0.378341 0
M  V30 5299 H 488.337 -1.25252 1.62792 0
M  V30 5300 H 486.567 -3.73202 1.01279 0
M  V30 5301 H 488.256 -3.80024 1.42606 0
M  V30 5302 H 489.022 -3.03 3.78703 0
M  V30 5303 H 484.901 -3.69492 2.75675 0
M  V30 5304 H 488.445 -3.23869 6.17863 0
M  V30 5305 H 484.342 -3.90545 5.1395 0
M  V30 5306 H 485.11 -3.86507 7.21495 0
M  V30 5307 N 487.773 -1.03688 -1.18687 0
M  V30 5308 C 488.721 -0.618292 -2.24232 0
M  V30 5309 C 489.715 0.353045 -1.6568 0
M  V30 5310 O 490.921 0.220749 -1.78641 0
M  V30 5311 H 487.296 -0.181711 -0.729716 0
M  V30 5312 H 489.267 -1.51893 -2.56848 0
M  V30 5313 C 488.016 0.00677342 -3.47699 0
M  V30 5314 H 487.339 -0.731692 -3.93047 0
M  V30 5315 H 488.779 0.262492 -4.23187 0
M  V30 5316 C 487.238 1.25572 -3.12623 0
M  V30 5317 O 487.768 2.34691 -3.26011 0
M  V30 5318 N 485.974 1.14755 -2.66982 0
M  V30 5319 H 485.521 0.259601 -2.56289 0
M  V30 5320 H 485.479 1.98412 -2.43885 0
M  V30 5321 N 489.251 1.34841 -0.815825 0
M  V30 5322 C 490.498 1.98499 -0.400535 0
M  V30 5323 C 490.826 1.64699 1.03463 0
M  V30 5324 O 490.081 0.907006 1.73412 0
M  V30 5325 C 490.38 3.53273 -0.541541 0
M  V30 5326 C 490.046 4.06966 -1.94138 0
M  V30 5327 C 488.708 4.21341 -2.32433 0
M  V30 5328 C 491.06 4.35933 -2.85677 0
M  V30 5329 C 488.388 4.62007 -3.61617 0
M  V30 5330 C 490.74 4.78042 -4.14317 0
M  V30 5331 C 489.404 4.90622 -4.52599 0
M  V30 5332 H 488.674 0.72636 -0.146566 0
M  V30 5333 H 491.321 1.60902 -1.0384 0
M  V30 5334 H 489.626 3.91387 0.179741 0
M  V30 5335 H 491.323 4.00497 -0.20085 0
M  V30 5336 H 487.913 3.96235 -1.63388 0
M  V30 5337 H 492.097 4.24372 -2.57337 0
M  V30 5338 H 487.353 4.69937 -3.91113 0
M  V30 5339 H 491.527 4.99415 -4.85342 0
M  V30 5340 H 489.154 5.2189 -5.52752 0
M  V30 5341 N 490.729 0.570148 1.46925 0
M  V30 5342 C 492.006 -0.0153259 1.95594 0
M  V30 5343 C 492.386 -1.47232 1.51281 0
M  V30 5344 O 491.734 -2.15574 0.757624 0
M  V30 5345 C 491.944 0.143624 3.48704 0
M  V30 5346 C 493.292 0.00494484 4.246 0
M  V30 5347 O 494.316 0.0718214 3.56128 0
M  V30 5348 O 493.175 -0.141175 5.46318 0
M  V30 5349 H 490.269 -0.0568819 0.825041 0
M  V30 5350 H 492.815 0.637583 1.57267 0
M  V30 5351 H 491.587 1.15699 3.73804 0
M  V30 5352 H 491.21 -0.5463 3.93829 0
M  V30 5353 N 492.207 -1.54576 0.307264 0
M  V30 5354 C 493.154 -2.23751 -0.56604 0
M  V30 5355 C 494.124 -1.22235 -1.12462 0
M  V30 5356 O 495.309 -1.50873 -1.16799 0
M  V30 5357 C 492.449 -2.98661 -1.72903 0
M  V30 5358 C 491.562 -4.14963 -1.20124 0
M  V30 5359 C 490.697 -4.77441 -2.3286 0
M  V30 5360 C 489.736 -5.85875 -1.77247 0
M  V30 5361 N 488.873 -6.42282 -2.8358 0
M  V30 5362 H 493.713 -2.97984 0.0304578 0
M  V30 5363 H 491.25 -1.47076 0.0268015 0
M  V30 5364 H 493.208 -3.40329 -2.41313 0
M  V30 5365 H 491.838 -2.26793 -2.29706 0
M  V30 5366 H 490.89 -3.78193 -0.409198 0
M  V30 5367 H 492.202 -4.93066 -0.754171 0
M  V30 5368 H 491.356 -5.21993 -3.09205 0
M  V30 5369 H 490.095 -3.98684 -2.80896 0
M  V30 5370 H 489.1 -5.40741 -0.993926 0
M  V30 5371 H 490.325 -6.6652 -1.30107 0
M  V30 5372 H 488.271 -5.66406 -3.30939 0
M  V30 5373 H 488.188 -7.1575 -2.43388 0
M  V30 5374 H 489.456 -6.91492 -3.59804 0
M  V30 5375 N 493.685 -0.035106 -1.57561 0
M  V30 5376 C 494.962 0.681212 -1.83354 0
M  V30 5377 C 495.342 1.89986 -0.920252 0
M  V30 5378 O 494.69 2.28489 0.0226815 0
M  V30 5379 C 494.9 1.05376 -3.32712 0
M  V30 5380 C 496.248 1.44286 -3.99333 0
M  V30 5381 O 497.272 1.14656 -3.37242 0
M  V30 5382 O 496.131 1.99518 -5.08778 0
M  V30 5383 H 493.225 0.334741 -0.756226 0
M  V30 5384 H 495.771 -0.0632448 -1.69582 0
M  V30 5385 H 494.543 0.186668 -3.90854 0
M  V30 5386 H 494.166 1.85619 -3.51613 0
M  V30 5387 N 495.163 1.55791 0.238111 0
M  V30 5388 C 496.111 1.91885 1.31464 0
M  V30 5389 C 497.105 0.798929 1.49377 0
M  V30 5390 O 498.311 0.983626 1.50747 0
M  V30 5391 H 494.686 0.609551 0.440399 0
M  V30 5392 H 496.657 2.81747 0.982925 0
M  V30 5393 C 495.406 2.23763 2.6613 0
M  V30 5394 H 494.729 3.09444 2.53149 0
M  V30 5395 H 496.169 2.52915 3.40309 0
M  V30 5396 C 494.628 1.05699 3.1989 0
M  V30 5397 O 495.158 0.309524 4.00506 0
M  V30 5398 N 493.364 0.845251 2.78036 0
M  V30 5399 H 492.911 1.4548 2.12588 0
M  V30 5400 H 492.869 0.0569973 3.14348 0
M  V30 5401 N 496.642 -0.504142 1.49319 0
M  V30 5402 C 497.87 -1.28256 1.62351 0
M  V30 5403 C 498.285 -1.86502 0.293682 0
M  V30 5404 O 497.642 -1.67678 -0.720449 0
M  V30 5405 C 497.693 -2.41507 2.68992 0
M  V30 5406 O 497.414 -1.85656 3.96817 0
M  V30 5407 C 498.915 -3.32929 2.927 0
M  V30 5408 H 496.135 -0.389115 0.546654 0
M  V30 5409 H 498.679 -0.605531 1.95329 0
M  V30 5410 H 496.834 -3.05046 2.38801 0
M  V30 5411 H 497.248 -2.59981 4.55533 0
M  V30 5412 H 498.722 -4.0868 3.71058 0
M  V30 5413 H 499.199 -3.89733 2.02496 0
M  V30 5414 H 499.805 -2.75158 3.24296 0
M  V30 5415 N 498.12 -1.38341 -0.754957 0
M  V30 5416 C 499.368 -1.34208 -1.51105 0
M  V30 5417 C 499.689 0.0677634 -1.94882 0
M  V30 5418 O 498.959 1.01517 -1.67544 0
M  V30 5419 H 497.539 -0.493819 -0.560493 0
M  V30 5420 H 500.201 -1.73005 -0.897507 0
M  V30 5421 H 499.297 -1.99203 -2.4026 0
M  V30 5422 N 499.598 0.982988 -1.23187 0
M  V30 5423 C 500.546 2.09616 -1.00817 0
M  V30 5424 C 501.54 1.6932 0.0519995 0
M  V30 5425 O 502.746 1.79715 -0.101284 0
M  V30 5426 H 499.121 0.685628 -0.308899 0
M  V30 5427 H 501.092 2.25652 -1.95253 0
M  V30 5428 C 499.841 3.42249 -0.613243 0
M  V30 5429 H 499.164 3.73705 -1.42073 0
M  V30 5430 H 500.604 4.21086 -0.496208 0
M  V30 5431 C 499.063 3.30002 0.678233 0
M  V30 5432 O 499.593 3.6263 1.72807 0
M  V30 5433 N 497.799 2.83164 0.653165 0
M  V30 5434 H 497.346 2.56811 -0.201492 0
M  V30 5435 H 497.304 2.75352 1.51752 0
M  V30 5436 N 501.076 1.04316 1.18135 0
M  V30 5437 C 502.323 0.74802 1.88178 0
M  V30 5438 C 502.651 -0.72441 1.80506 0
M  V30 5439 O 501.906 -1.54463 1.20165 0
M  V30 5440 C 502.205 1.16271 3.37958 0
M  V30 5441 C 501.871 2.63585 3.65833 0
M  V30 5442 C 500.533 3.03829 3.73151 0
M  V30 5443 C 502.885 3.58822 3.78016 0
M  V30 5444 C 500.213 4.38194 3.90132 0
M  V30 5445 C 502.565 4.92909 3.96514 0
M  V30 5446 C 501.229 5.3282 4.02068 0
M  V30 5447 H 500.499 0.27372 0.688592 0
M  V30 5448 H 503.146 1.30863 1.39811 0
M  V30 5449 H 501.451 0.520938 3.88321 0
M  V30 5450 H 503.148 0.911672 3.90499 0
M  V30 5451 H 499.738 2.31414 3.60757 0
M  V30 5452 H 503.922 3.28875 3.71692 0
M  V30 5453 H 499.178 4.68631 3.92677 0
M  V30 5454 H 503.352 5.66606 4.04883 0
M  V30 5455 H 500.979 6.36943 4.14979 0
M  V30 5456 N 502.554 -1.34406 0.822964 0
M  V30 5457 C 503.8 -1.98578 0.411666 0
M  V30 5458 C 504.133 -1.65093 -1.02264 0
M  V30 5459 O 503.408 -0.92258 -1.71227 0
M  V30 5460 C 503.691 -3.54823 0.614235 0
M  V30 5461 C 503.544 -3.9805 2.09466 0
M  V30 5462 C 504.863 -4.40071 0.050221 0
M  V30 5463 H 501.982 -0.721355 0.151047 0
M  V30 5464 H 504.624 -1.59301 1.03554 0
M  V30 5465 H 502.774 -3.88411 0.0831774 0
M  V30 5466 H 504.446 -3.74795 2.68936 0
M  V30 5467 H 502.689 -3.4836 2.5851 0
M  V30 5468 H 503.36 -5.06819 2.18721 0
M  V30 5469 H 505.836 -4.13037 0.503953 0
M  V30 5470 H 504.712 -5.48452 0.221759 0
M  V30 5471 H 504.973 -4.29576 -1.04482 0
M  V30 5472 N 504.032 -0.577932 -1.46621 0
M  V30 5473 C 505.278 -0.0617793 -2.02706 0
M  V30 5474 C 505.611 1.29294 -1.44903 0
M  V30 5475 O 504.886 1.8461 -0.61232 0
M  V30 5476 C 505.169 0.00911824 -3.60099 0
M  V30 5477 C 505.022 -1.37416 -4.28295 0
M  V30 5478 C 506.341 0.712159 -4.343 0
M  V30 5479 H 503.46 -0.0239246 -0.736612 0
M  V30 5480 H 506.102 -0.744211 -1.74818 0
M  V30 5481 H 504.252 0.590292 -3.83989 0
M  V30 5482 H 505.924 -2.00013 -4.15683 0
M  V30 5483 H 504.167 -1.94319 -3.87843 0
M  V30 5484 H 504.838 -1.27707 -5.37024 0
M  V30 5485 H 507.314 0.218486 -4.15526 0
M  V30 5486 H 506.19 0.730782 -5.44014 0
M  V30 5487 H 506.451 1.77251 -4.05012 0
M  V30 5488 N 505.51 1.54411 -0.315457 0
M  V30 5489 C 506.458 2.25514 0.569771 0
M  V30 5490 C 507.452 1.2663 1.12522 0
M  V30 5491 O 508.658 1.44434 1.07419 0
M  V30 5492 H 505.033 0.724257 0.202376 0
M  V30 5493 H 507.004 2.98354 -0.0522895 0
M  V30 5494 C 505.753 3.02004 1.72305 0
M  V30 5495 H 505.076 3.77906 1.30488 0
M  V30 5496 H 506.516 3.55014 2.31821 0
M  V30 5497 C 504.975 2.09822 2.63583 0
M  V30 5498 O 505.505 1.67574 3.65078 0
M  V30 5499 N 503.711 1.75478 2.31637 0
M  V30 5500 H 503.258 2.10032 1.49145 0
M  V30 5501 H 503.216 1.14079 2.92973 0
M  V30 5502 N 506.988 0.0434614 1.5754 0
M  V30 5503 C 508.237 -0.631454 1.91561 0
M  V30 5504 C 508.55 -1.72457 0.92292 0
M  V30 5505 O 509.756 -2.45712 1.15489 0
M  V30 5506 C 508.212 -1.17447 3.40197 0
M  V30 5507 C 507.82 -0.113867 4.47855 0
M  V30 5508 C 509.564 -1.82507 3.83264 0
M  V30 5509 C 507.471 -0.669326 5.876 0
M  V30 5510 H 506.401 -0.239629 0.714908 0
M  V30 5511 H 509.052 0.111097 1.83163 0
M  V30 5512 H 507.434 -1.96909 3.43574 0
M  V30 5513 H 508.608 0.659348 4.56058 0
M  V30 5514 H 506.923 0.438821 4.14081 0
M  V30 5515 H 509.52 -2.25047 4.85034 0
M  V30 5516 H 509.863 -2.67365 3.19095 0
M  V30 5517 H 510.396 -1.09712 3.82372 0
M  V30 5518 H 507.135 0.141449 6.55347 0
M  V30 5519 H 506.655 -1.4107 5.82974 0
M  V30 5520 H 508.334 -1.15463 6.36614 0
M  V30 5521 N 508.466 -1.55915 -0.229846 0
M  V30 5522 C 509.743 -1.6932 -0.979295 0
M  V30 5523 C 510.123 -0.588321 -2.02736 0
M  V30 5524 O 509.471 0.40586 -2.24867 0
M  V30 5525 C 509.681 -3.10305 -1.59724 0
M  V30 5526 C 511.029 -3.6945 -2.09264 0
M  V30 5527 O 512.053 -3.13214 -1.69633 0
M  V30 5528 O 510.912 -4.68072 -2.82082 0
M  V30 5529 H 508.006 -0.689314 -0.456919 0
M  V30 5530 H 510.552 -1.68238 -0.222283 0
M  V30 5531 H 509.324 -3.82177 -0.840039 0
M  V30 5532 H 508.947 -3.1547 -2.42001 0
M  V30 5533 N 509.944 0.496216 -1.49584 0
M  V30 5534 C 510.891 1.59722 -1.66606 0
M  V30 5535 C 511.861 1.58158 -0.507477 0
M  V30 5536 O 513.046 1.76072 -0.735076 0
M  V30 5537 C 510.186 2.97844 -1.74308 0
M  V30 5538 C 509.299 3.09388 -3.01502 0
M  V30 5539 C 508.434 4.38271 -3.00153 0
M  V30 5540 C 507.473 4.43466 -4.21906 0
M  V30 5541 N 506.61 5.63784 -4.1844 0
M  V30 5542 H 511.45 1.44515 -2.60613 0
M  V30 5543 H 508.987 0.703048 -1.29212 0
M  V30 5544 H 510.945 3.77907 -1.76754 0
M  V30 5545 H 509.575 3.11743 -0.837619 0
M  V30 5546 H 508.627 2.22357 -3.08645 0
M  V30 5547 H 509.939 3.09085 -3.91494 0
M  V30 5548 H 509.093 5.2666 -3.01188 0
M  V30 5549 H 507.832 4.41146 -2.07947 0
M  V30 5550 H 506.837 3.53478 -4.21109 0
M  V30 5551 H 508.062 4.42303 -5.1531 0
M  V30 5552 H 506.008 5.67491 -3.29074 0
M  V30 5553 H 505.925 5.65118 -5.02173 0
M  V30 5554 H 507.193 6.54367 -4.23585 0
M  V30 5555 N 511.423 1.38739 0.74761 0
M  V30 5556 C 512.67 1.35274 1.50689 0
M  V30 5557 C 512.998 -0.0553359 1.94421 0
M  V30 5558 O 512.253 -1.03365 1.66175 0
M  V30 5559 C 512.552 2.25992 2.7688 0
M  V30 5560 C 512.218 3.73854 2.5208 0
M  V30 5561 C 510.88 4.14145 2.45025 0
M  V30 5562 C 513.232 4.67427 2.30568 0
M  V30 5563 C 510.56 5.4609 2.14483 0
M  V30 5564 C 512.912 5.99635 2.01545 0
M  V30 5565 C 511.576 6.39004 1.92951 0
M  V30 5566 H 510.846 0.495003 0.55141 0
M  V30 5567 H 513.493 1.71145 0.859158 0
M  V30 5568 H 511.798 1.83196 3.46333 0
M  V30 5569 H 513.495 2.20611 3.34861 0
M  V30 5570 H 510.085 3.41913 2.58444 0
M  V30 5571 H 514.269 4.3714 2.34994 0
M  V30 5572 H 509.525 5.75528 2.06342 0
M  V30 5573 H 513.699 6.71678 1.83906 0
M  V30 5574 H 511.326 7.41165 1.6905 0
M  V30 5575 N 512.901 -0.976442 1.23707 0
M  V30 5576 C 513.849 -2.09078 1.01927 0
M  V30 5577 C 514.843 -1.69345 -0.0430193 0
M  V30 5578 O 516.049 -1.79659 0.110814 0
M  V30 5579 H 512.424 -0.68398 0.312531 0
M  V30 5580 H 514.395 -2.24614 1.96447 0
M  V30 5581 C 513.144 -3.41919 0.631385 0
M  V30 5582 H 512.467 -3.72946 1.44053 0
M  V30 5583 H 513.907 -4.20817 0.518532 0
M  V30 5584 C 512.366 -3.30357 -0.660723 0
M  V30 5585 O 512.896 -3.63542 -1.70881 0
M  V30 5586 N 511.102 -2.83507 -0.638139 0
M  V30 5587 H 510.649 -2.567 0.215108 0
M  V30 5588 H 510.607 -2.76153 -1.50289 0
M  V30 5589 N 514.379 -1.04941 -1.1758 0
M  V30 5590 C 515.604 -0.778253 -1.92245 0
M  V30 5591 C 516.029 0.659707 -1.76152 0
M  V30 5592 O 515.387 1.45803 -1.07755 0
M  V30 5593 C 515.435 -1.16051 -3.41416 0
M  V30 5594 O 514.539 -0.291153 -4.11371 0
M  V30 5595 H 513.88 -0.285619 -0.599431 0
M  V30 5596 H 516.41 -1.40159 -1.49052 0
M  V30 5597 H 516.42 -1.12619 -3.92149 0
M  V30 5598 H 515.095 -2.208 -3.52449 0
M  V30 5599 H 513.672 -0.385851 -3.70898 0
M  V30 5600 N 515.857 1.33968 -0.830081 0
M  V30 5601 C 516.787 2.31911 -0.271911 0
M  V30 5602 C 517.768 1.58571 0.61556 0
M  V30 5603 O 518.953 1.86514 0.540946 0
M  V30 5604 C 516.083 3.42737 0.561146 0
M  V30 5605 C 515.037 4.27383 -0.229789 0
M  V30 5606 C 514.363 5.29742 0.726463 0
M  V30 5607 C 515.663 5.02 -1.44197 0
M  V30 5608 H 517.357 2.78844 -1.09025 0
M  V30 5609 H 514.903 1.34061 -0.52571 0
M  V30 5610 H 516.856 4.10276 0.961867 0
M  V30 5611 H 515.58 2.94471 1.41261 0
M  V30 5612 H 514.239 3.61456 -0.611964 0
M  V30 5613 H 513.887 4.77736 1.57408 0
M  V30 5614 H 513.587 5.87255 0.20142 0
M  V30 5615 H 515.111 6.00149 1.12489 0
M  V30 5616 H 516.525 5.62355 -1.11488 0
M  V30 5617 H 514.922 5.69122 -1.90317 0
M  V30 5618 H 515.992 4.31281 -2.2164 0
M  V30 5619 N 517.335 0.585699 1.46312 0
M  V30 5620 C 518.565 0.0780166 2.06453 0
M  V30 5621 C 518.973 -1.2336 1.43454 0
M  V30 5622 O 518.316 -1.75734 0.535086 0
M  V30 5623 C 518.378 -0.158951 3.59148 0
M  V30 5624 C 518.042 1.06752 4.44357 0
M  V30 5625 C 519.039 1.98031 4.80708 0
M  V30 5626 C 516.724 1.2902 4.85447 0
M  V30 5627 C 518.718 3.09924 5.5698 0
M  V30 5628 C 516.405 2.41218 5.61478 0
M  V30 5629 C 517.403 3.31499 5.97158 0
M  V30 5630 O 517.091 4.41747 6.71651 0
M  V30 5631 H 516.823 0.0558894 0.673686 0
M  V30 5632 H 519.377 0.806994 1.88883 0
M  V30 5633 H 517.607 -0.942575 3.75037 0
M  V30 5634 H 519.296 -0.615513 4.01206 0
M  V30 5635 H 520.062 1.82043 4.49539 0
M  V30 5636 H 515.941 0.596567 4.57124 0
M  V30 5637 H 519.485 3.80415 5.84748 0
M  V30 5638 H 515.382 2.57167 5.9206 0
M  V30 5639 H 516.15 4.40152 6.90079 0
M  V30 5640 N 518.813 -1.54241 0.323641 0
M  V30 5641 C 520.038 -2.05452 -0.283605 0
M  V30 5642 C 520.463 -1.19823 -1.44997 0
M  V30 5643 O 519.821 -0.207358 -1.8011 0
M  V30 5644 C 519.869 -3.53823 -0.695795 0
M  V30 5645 O 518.973 -3.71134 -1.79815 0
M  V30 5646 H 518.314 -0.662024 -0.0511917 0
M  V30 5647 H 520.844 -1.99079 0.472073 0
M  V30 5648 H 520.854 -3.96094 -0.978434 0
M  V30 5649 H 519.529 -4.15602 0.157287 0
M  V30 5650 H 518.106 -3.40768 -1.51431 0
M  V30 5651 N 520.291 -0.0518155 -1.57515 0
M  V30 5652 C 521.568 0.661727 -1.84067 0
M  V30 5653 C 521.948 1.88999 -0.940351 0
M  V30 5654 O 521.296 2.285 -0.00155404 0
M  V30 5655 C 521.506 1.01841 -3.3381 0
M  V30 5656 C 522.854 1.40043 -4.00841 0
M  V30 5657 O 523.878 1.11073 -3.38439 0
M  V30 5658 O 522.737 1.94111 -5.10865 0
M  V30 5659 H 519.831 0.326702 -0.759733 0
M  V30 5660 H 522.377 -0.0812277 -1.69505 0
M  V30 5661 H 521.149 0.145202 -3.91031 0
M  V30 5662 H 520.772 1.81879 -3.53562 0
M  V30 5663 N 521.769 1.56035 0.221574 0
M  V30 5664 C 522.699 1.95434 1.2778 0
M  V30 5665 C 523.68 0.822564 1.48889 0
M  V30 5666 O 524.865 1.08486 1.61072 0
M  V30 5667 C 521.995 2.27102 2.62759 0
M  V30 5668 C 520.949 3.4277 2.56306 0
M  V30 5669 C 520.275 3.60043 3.95314 0
M  V30 5670 C 521.575 4.77742 2.11093 0
M  V30 5671 H 523.269 2.83912 0.950504 0
M  V30 5672 H 520.815 1.36596 0.455791 0
M  V30 5673 H 522.768 2.53256 3.36807 0
M  V30 5674 H 521.492 1.35478 2.97176 0
M  V30 5675 H 520.151 3.16664 1.84715 0
M  V30 5676 H 519.799 2.65794 4.27039 0
M  V30 5677 H 519.499 4.37841 3.91879 0
M  V30 5678 H 521.023 3.88545 4.71025 0
M  V30 5679 H 522.437 5.03102 2.74885 0
M  V30 5680 H 520.834 5.58823 2.18716 0
M  V30 5681 H 521.904 4.731 1.06321 0
M  V30 5682 N 523.247 -0.488276 1.49845 0
M  V30 5683 C 524.475 -1.26527 1.63702 0
M  V30 5684 C 524.89 -1.8618 0.313447 0
M  V30 5685 O 524.247 -1.68432 -0.702624 0
M  V30 5686 C 524.298 -2.3864 2.71538 0
M  V30 5687 O 524.019 -1.81437 3.98763 0
M  V30 5688 C 525.52 -3.29805 2.96215 0
M  V30 5689 H 522.74 -0.383295 0.55075 0
M  V30 5690 H 525.284 -0.584779 1.95961 0
M  V30 5691 H 523.439 -3.02496 2.42023 0
M  V30 5692 H 523.853 -2.55135 4.58265 0
M  V30 5693 H 525.327 -4.04722 3.75372 0
M  V30 5694 H 525.804 -3.87563 2.06619 0
M  V30 5695 H 526.41 -2.71703 3.27196 0
M  V30 5696 N 524.725 -1.39134 -0.740242 0
M  V30 5697 C 525.673 -1.3757 -1.87556 0
M  V30 5698 C 526.667 -0.259593 -1.67399 0
M  V30 5699 O 527.873 -0.429349 -1.74804 0
M  V30 5700 H 524.248 -0.42947 -0.6173 0
M  V30 5701 H 526.219 -2.33345 -1.85991 0
M  V30 5702 C 524.968 -1.23087 -3.25184 0
M  V30 5703 H 524.291 -2.08237 -3.41288 0
M  V30 5704 H 525.731 -1.26049 -4.0483 0
M  V30 5705 C 524.19 0.0611471 -3.36845 0
M  V30 5706 O 524.72 1.03328 -3.88183 0
M  V30 5707 N 522.926 0.122454 -2.90342 0
M  V30 5708 H 522.473 -0.669329 -2.48752 0
M  V30 5709 H 522.431 0.986463 -2.98523 0
M  V30 5710 N 526.204 0.969867 -1.24223 0
M  V30 5711 C 527.45 1.7151 -1.08223 0
M  V30 5712 C 527.783 1.90478 0.37838 0
M  V30 5713 O 527.058 1.4647 1.27971 0
M  V30 5714 C 527.341 3.10714 -1.82013 0
M  V30 5715 C 527.194 2.9925 -3.35811 0
M  V30 5716 C 528.513 4.10332 -1.59108 0
M  V30 5717 H 525.632 0.622499 -0.394543 0
M  V30 5718 H 528.274 1.1284 -1.52863 0
M  V30 5719 H 526.424 3.608 -1.44068 0
M  V30 5720 H 528.096 2.56608 -3.83341 0
M  V30 5721 H 526.339 2.35512 -3.64303 0
M  V30 5722 H 527.01 3.97857 -3.82641 0
M  V30 5723 H 529.486 3.69097 -1.92111 0
M  V30 5724 H 528.362 5.05804 -2.13198 0
M  V30 5725 H 528.623 4.38926 -0.528832 0
M  V30 5726 N 527.682 1.05563 1.17022 0
M  V30 5727 C 528.615 0.604197 2.20056 0
M  V30 5728 C 529.593 -0.369169 1.58354 0
M  V30 5729 O 530.777 -0.279898 1.8641 0
M  V30 5730 C 527.904 -0.115265 3.38504 0
M  V30 5731 C 526.95 0.813698 4.18666 0
M  V30 5732 S 527.783 2.30492 4.83357 0
M  V30 5733 C 528.939 1.59674 6.0519 0
M  V30 5734 H 529.172 1.47713 2.58008 0
M  V30 5735 H 526.705 0.867932 1.27696 0
M  V30 5736 H 528.663 -0.524162 4.0714 0
M  V30 5737 H 527.324 -0.964284 2.98932 0
M  V30 5738 H 526.517 0.256736 5.03346 0
M  V30 5739 H 526.119 1.16213 3.55486 0
M  V30 5740 H 528.411 0.898164 6.7152 0
M  V30 5741 H 529.354 2.42115 6.65422 0
M  V30 5742 H 529.762 1.08252 5.54023 0
M  V30 5743 N 529.16 -1.33526 0.837174 0
M  V30 5744 C 530.385 -2.0258 0.444545 0
M  V30 5745 C 530.81 -1.6258 -0.946006 0
M  V30 5746 O 530.168 -0.817548 -1.6182 0
M  V30 5747 C 530.216 -3.5605 0.571006 0
M  V30 5748 O 529.32 -4.10422 -0.403431 0
M  V30 5749 H 528.661 -0.638866 0.180958 0
M  V30 5750 H 531.191 -1.70462 1.13154 0
M  V30 5751 H 531.201 -4.05488 0.452024 0
M  V30 5752 H 529.876 -3.84509 1.58512 0
M  V30 5753 H 528.453 -3.72113 -0.242147 0
M  V30 5754 N 530.638 -0.59345 -1.46 0
M  V30 5755 C 531.548 0.135817 -2.34207 0
M  V30 5756 C 532.564 0.875008 -1.50398 0
M  V30 5757 O 533.74 0.835778 -1.83239 0
M  V30 5758 C 530.805 1.12977 -3.27776 0
M  V30 5759 C 529.866 0.394081 -4.27487 0
M  V30 5760 C 529.099 1.34068 -5.16586 0
M  V30 5761 O 529.322 2.5778 -5.08828 0
M  V30 5762 O 528.256 0.845426 -5.95933 0
M  V30 5763 H 532.082 -0.588691 -2.9794 0
M  V30 5764 H 529.667 -0.353784 -1.45151 0
M  V30 5765 H 531.549 1.70261 -3.85473 0
M  V30 5766 H 530.224 1.83556 -2.66625 0
M  V30 5767 H 529.131 -0.220869 -3.73447 0
M  V30 5768 H 530.464 -0.270939 -4.91454 0
M  V30 5769 N 532.116 1.54067 -0.331816 0
M  V30 5770 C 533.362 2.01012 0.268667 0
M  V30 5771 C 533.695 1.2195 1.51136 0
M  V30 5772 O 532.97 0.303972 1.9211 0
M  V30 5773 C 533.253 3.55158 0.59456 0
M  V30 5774 C 533.106 4.4494 -0.659409 0
M  V30 5775 C 534.425 4.16939 1.4089 0
M  V30 5776 H 531.544 0.730698 0.0961756 0
M  V30 5777 H 534.186 1.84593 -0.450031 0
M  V30 5778 H 532.336 3.6928 1.20685 0
M  V30 5779 H 534.008 4.42675 -1.29756 0
M  V30 5780 H 532.251 4.1428 -1.28665 0
M  V30 5781 H 532.922 5.50643 -0.386804 0
M  V30 5782 H 535.398 4.06443 0.891272 0
M  V30 5783 H 534.274 5.24889 1.60569 0
M  V30 5784 H 534.535 3.70798 2.40752 0
M  V30 5785 N 533.594 0.0601682 1.57485 0
M  V30 5786 C 534.84 -0.612501 1.93329 0
M  V30 5787 C 535.173 -1.6996 0.939526 0
M  V30 5788 O 534.448 -1.94472 -0.0330957 0
M  V30 5789 C 534.731 -1.20025 3.39508 0
M  V30 5790 C 534.584 -0.12059 4.49638 0
M  V30 5791 C 535.903 -2.10923 3.86264 0
M  V30 5792 H 533.022 -0.221185 0.703027 0
M  V30 5793 H 535.664 0.123768 1.89596 0
M  V30 5794 H 533.814 -1.82774 3.42821 0
M  V30 5795 H 535.486 0.51185 4.58452 0
M  V30 5796 H 533.729 0.550251 4.30296 0
M  V30 5797 H 534.4 -0.572019 5.49028 0
M  V30 5798 H 536.876 -1.58124 3.84884 0
M  V30 5799 H 535.752 -2.48987 4.8918 0
M  V30 5800 H 536.013 -3.01292 3.23536 0
M  V30 5801 N 535.072 -1.5615 -0.213296 0
M  V30 5802 C 536.302 -1.83372 -0.951757 0
M  V30 5803 C 536.71 -0.638158 -1.78113 0
M  V30 5804 O 536.053 0.402609 -1.79234 0
M  V30 5805 C 536.115 -3.04444 -1.91192 0
M  V30 5806 C 535.779 -4.39107 -1.26627 0
M  V30 5807 C 536.776 -5.15794 -0.652087 0
M  V30 5808 C 534.461 -4.85834 -1.27556 0
M  V30 5809 C 536.455 -6.37376 -0.055814 0
M  V30 5810 C 534.142 -6.07356 -0.675451 0
M  V30 5811 C 535.14 -6.82967 -0.0666367 0
M  V30 5812 O 534.828 -8.0219 0.524119 0
M  V30 5813 H 534.56 -0.613398 -0.284111 0
M  V30 5814 H 537.114 -2.04096 -0.231112 0
M  V30 5815 H 535.344 -2.79559 -2.67178 0
M  V30 5816 H 537.033 -3.18466 -2.51662 0
M  V30 5817 H 537.799 -4.80796 -0.637172 0
M  V30 5818 H 533.678 -4.26949 -1.73883 0
M  V30 5819 H 537.222 -6.96334 0.420004 0
M  V30 5820 H 533.119 -6.41825 -0.687806 0
M  V30 5821 H 533.887 -8.17426 0.419243 0
M  V30 5822 N 536.55 0.480323 -1.50102 0
M  V30 5823 C 537.775 1.26126 -1.64642 0
M  V30 5824 C 538.2 1.85257 -0.325823 0
M  V30 5825 O 537.558 1.66854 0.709194 0
M  V30 5826 C 537.606 2.35243 -2.73301 0
M  V30 5827 O 536.71 3.39646 -2.33911 0
M  V30 5828 H 536.051 0.371463 -0.550374 0
M  V30 5829 H 538.581 0.572696 -1.96421 0
M  V30 5830 H 538.591 2.80695 -2.96098 0
M  V30 5831 H 537.266 1.91574 -3.6915 0
M  V30 5832 H 535.843 2.99969 -2.21525 0
M  V30 5833 N 538.028 1.39524 0.732853 0
M  V30 5834 C 539.253 1.40329 1.52717 0
M  V30 5835 C 539.678 0.000286574 1.881 0
M  V30 5836 O 539.036 -0.987262 1.52062 0
M  V30 5837 C 539.084 2.28464 2.78992 0
M  V30 5838 O 538.188 1.716 3.75003 0
M  V30 5839 H 537.529 0.47778 0.461109 0
M  V30 5840 H 540.059 1.83546 0.903996 0
M  V30 5841 H 540.069 2.43051 3.27705 0
M  V30 5842 H 538.744 3.30425 2.52572 0
M  V30 5843 H 537.321 1.66267 3.33781 0
M  V30 5844 N 539.506 -0.963266 1.24736 0
M  V30 5845 C 540.438 -2.06162 1.0015 0
M  V30 5846 C 541.451 -1.62771 -0.0305905 0
M  V30 5847 O 542.64 -1.77296 0.206966 0
M  V30 5848 C 539.74 -3.35333 0.490385 0
M  V30 5849 C 538.913 -4.07609 1.58663 0
M  V30 5850 C 537.972 -5.15052 1.0774 0
M  V30 5851 O 536.998 -5.4098 1.77002 0
M  V30 5852 N 538.2 -5.80436 -0.0858605 0
M  V30 5853 H 540.965 -2.27825 1.94719 0
M  V30 5854 H 538.526 -1.13121 1.15825 0
M  V30 5855 H 540.518 -4.04477 0.134371 0
M  V30 5856 H 539.088 -3.10507 -0.361155 0
M  V30 5857 H 538.308 -3.32681 2.11463 0
M  V30 5858 H 539.596 -4.52656 2.32336 0
M  V30 5859 H 538.994 -5.6178 -0.664806 0
M  V30 5860 H 537.551 -6.50674 -0.382981 0
M  V30 5861 N 540.985 -1.06182 -1.16461 0
M  V30 5862 C 542.215 -0.797425 -1.9059 0
M  V30 5863 C 542.623 0.651845 -1.77616 0
M  V30 5864 O 541.966 1.45788 -1.11766 0
M  V30 5865 C 542.028 -1.11128 -3.41893 0
M  V30 5866 C 541.692 -2.55874 -3.78652 0
M  V30 5867 C 542.689 -3.54104 -3.80665 0
M  V30 5868 C 540.374 -2.91144 -4.09317 0
M  V30 5869 C 542.368 -4.85645 -4.12829 0
M  V30 5870 C 540.055 -4.22885 -4.41148 0
M  V30 5871 C 541.053 -5.19945 -4.42883 0
M  V30 5872 O 540.741 -6.49322 -4.73959 0
M  V30 5873 H 540.473 -0.288709 -0.611247 0
M  V30 5874 H 543.027 -1.41841 -1.4856 0
M  V30 5875 H 541.257 -0.433217 -3.84266 0
M  V30 5876 H 542.946 -0.831306 -3.97296 0
M  V30 5877 H 543.712 -3.28197 -3.57088 0
M  V30 5878 H 539.591 -2.16252 -4.07131 0
M  V30 5879 H 543.135 -5.61398 -4.14099 0
M  V30 5880 H 539.032 -4.48551 -4.6419 0
M  V30 5881 H 539.8 -6.54294 -4.91774 0
M  V30 5882 N 542.463 1.3308 -0.844243 0
M  V30 5883 C 543.411 2.31028 -0.269954 0
M  V30 5884 C 544.405 1.58381 0.600997 0
M  V30 5885 O 545.611 1.73203 0.48996 0
M  V30 5886 H 541.986 0.748866 -0.0685782 0
M  V30 5887 H 543.957 2.76967 -1.11049 0
M  V30 5888 C 542.706 3.43549 0.535676 0
M  V30 5889 H 542.029 3.99604 -0.125202 0
M  V30 5890 H 543.469 4.14267 0.903262 0
M  V30 5891 C 541.928 2.8988 1.71672 0
M  V30 5892 O 542.458 2.86511 2.81557 0
M  V30 5893 N 540.664 2.46416 1.54037 0
M  V30 5894 H 540.211 2.49356 0.64649 0
M  V30 5895 H 540.169 2.1086 2.33207 0
M  V30 5896 N 543.941 0.601185 1.45683 0
M  V30 5897 C 545.187 0.0940202 2.02582 0
M  V30 5898 C 545.52 -1.26972 1.46941 0
M  V30 5899 O 544.795 -1.83613 0.641612 0
M  V30 5900 C 545.078 0.0481715 3.60068 0
M  V30 5901 C 544.931 1.44212 4.26055 0
M  V30 5902 C 546.25 -0.642975 4.35378 0
M  V30 5903 H 543.369 0.0356404 0.736138 0
M  V30 5904 H 546.011 0.771929 1.73612 0
M  V30 5905 H 544.161 -0.529128 3.8488 0
M  V30 5906 H 545.833 2.06601 4.12449 0
M  V30 5907 H 544.076 2.00465 3.84703 0
M  V30 5908 H 544.747 1.36234 5.34925 0
M  V30 5909 H 547.223 -0.152351 4.15821 0
M  V30 5910 H 546.099 -0.644141 5.45107 0
M  V30 5911 H 546.36 -1.70785 4.0778 0
M  V30 5912 N 545.419 -1.53889 0.339982 0
M  V30 5913 C 546.366 -2.24902 -0.518452 0
M  V30 5914 C 547.336 -1.24593 -1.09844 0
M  V30 5915 O 548.521 -1.53317 -1.13572 0
M  V30 5916 C 545.661 -3.02262 -1.66529 0
M  V30 5917 C 544.774 -4.17418 -1.11295 0
M  V30 5918 C 543.909 -4.82273 -2.2268 0
M  V30 5919 C 542.948 -5.89503 -1.6478 0
M  V30 5920 N 542.085 -6.48153 -2.69893 0
M  V30 5921 H 546.925 -2.97853 0.0936579 0
M  V30 5922 H 544.462 -1.46986 0.0579924 0
M  V30 5923 H 546.42 -3.45371 -2.3404 0
M  V30 5924 H 545.05 -2.31614 -2.24844 0
M  V30 5925 H 544.102 -3.78976 -0.328886 0
M  V30 5926 H 545.414 -4.94554 -0.649414 0
M  V30 5927 H 544.568 -5.28435 -2.98063 0
M  V30 5928 H 543.307 -4.04552 -2.72376 0
M  V30 5929 H 542.312 -5.42728 -0.879004 0
M  V30 5930 H 543.537 -6.6913 -1.1594 0
M  V30 5931 H 541.483 -5.73298 -3.1885 0
M  V30 5932 H 541.4 -7.20752 -2.28151 0
M  V30 5933 H 542.668 -6.98968 -3.45056 0
M  V30 5934 N 546.897 -0.0685191 -1.57451 0
M  V30 5935 C 547.845 0.917577 -2.13736 0
M  V30 5936 C 548.839 1.31049 -1.07344 0
M  V30 5937 O 550.045 1.28811 -1.25728 0
M  V30 5938 H 546.42 0.313835 -0.683382 0
M  V30 5939 H 548.391 0.417903 -2.95459 0
M  V30 5940 C 547.14 2.17686 -2.71123 0
M  V30 5941 H 546.463 1.88336 -3.52661 0
M  V30 5942 H 547.903 2.84803 -3.14107 0
M  V30 5943 C 546.362 2.9332 -1.65726 0
M  V30 5944 O 546.892 3.86901 -1.08031 0
M  V30 5945 N 545.098 2.56367 -1.36837 0
M  V30 5946 H 544.645 1.80341 -1.83943 0
M  V30 5947 H 544.603 3.07276 -0.665501 0
M  V30 5948 N 548.375 1.56261 0.205012 0
M  V30 5949 C 549.791 1.49623 0.555433 0
M  V30 5950 C 549.991 0.766719 1.86343 0
M  V30 5951 O 549.047 0.313158 2.50551 0
M  V30 5952 C 550.36 2.94253 0.619347 0
M  V30 5953 C 551.908 3.04868 0.708855 0
M  V30 5954 C 552.383 4.50888 0.803969 0
M  V30 5955 N 553.874 4.54999 0.867758 0
M  V30 5956 C 554.609 5.65284 0.96135 0
M  V30 5957 N 554.105 6.85282 1.01786 0
M  V30 5958 N 555.898 5.53174 0.997771 0
M  V30 5959 H 548.049 2.0211 -0.653094 0
M  V30 5960 H 550.312 0.919333 -0.231366 0
M  V30 5961 H 550.018 3.50643 -0.272458 0
M  V30 5962 H 549.892 3.47063 1.47741 0
M  V30 5963 H 552.279 2.48532 1.5911 0
M  V30 5964 H 552.36 2.55199 -0.175205 0
M  V30 5965 H 552.004 5.07846 -0.0738798 0
M  V30 5966 H 551.934 4.98279 1.70369 0
M  V30 5967 H 554.425 3.68588 0.833735 0
M  V30 5968 H 554.738 7.65081 1.08951 0
M  V30 5969 H 553.083 6.8796 0.986706 0
M  V30 5970 H 556.274 4.5835 0.950392 0
M  V30 5971 H 556.447 6.39151 1.06725 0
M  V30 5972 N 549.853 -0.472356 1.50355 0
M  V30 5973 C 551.081 -1.24784 1.65035 0
M  V30 5974 C 551.496 -1.85837 0.333176 0
M  V30 5975 O 550.853 -1.69168 -0.68472 0
M  V30 5976 C 550.904 -2.35747 2.74054 0
M  V30 5977 O 550.625 -1.77197 4.00665 0
M  V30 5978 C 552.126 -3.26645 2.99696 0
M  V30 5979 H 549.346 -0.377432 0.554785 0
M  V30 5980 H 551.89 -0.563962 1.9657 0
M  V30 5981 H 550.045 -2.99912 2.45217 0
M  V30 5982 H 550.459 -2.5026 4.60945 0
M  V30 5983 H 551.933 -4.00718 3.79644 0
M  V30 5984 H 552.41 -3.8535 2.10718 0
M  V30 5985 H 553.016 -2.68218 3.3006 0
M  V30 5986 N 551.331 -1.39911 -0.725443 0
M  V30 5987 C 552.281 -1.35878 -1.83088 0
M  V30 5988 C 553.265 -0.237989 -1.5913 0
M  V30 5989 O 554.457 -0.476302 -1.70471 0
M  V30 5990 C 551.586 -1.21403 -3.21117 0
M  V30 5991 C 550.672 -2.38223 -3.50871 0
M  V30 5992 N 551.063 -3.63703 -3.51502 0
M  V30 5993 C 549.361 -2.31388 -3.81281 0
M  V30 5994 C 550.062 -4.4101 -3.79322 0
M  V30 5995 N 549.038 -3.7072 -3.97577 0
M  V30 5996 H 552.84 -2.3085 -1.81895 0
M  V30 5997 H 550.354 -1.33543 -0.924125 0
M  V30 5998 H 552.351 -1.16597 -4.00263 0
M  V30 5999 H 551.011 -0.273902 -3.23543 0
M  V30 6000 H 552.022 -3.96998 -3.32586 0
M  V30 6001 H 548.699 -1.45689 -3.91256 0
M  V30 6002 H 550.089 -5.49819 -3.86198 0
M  V30 6003 N 552.809 0.956637 -1.25245 0
M  V30 6004 C 554.039 1.7332 -1.12445 0
M  V30 6005 C 554.447 1.86392 0.324732 0
M  V30 6006 O 553.79 1.35967 1.23526 0
M  V30 6007 C 553.852 3.16603 -1.70303 0
M  V30 6008 C 553.516 3.26966 -3.19284 0
M  V30 6009 C 554.513 3.11434 -4.16299 0
M  V30 6010 C 552.198 3.50851 -3.59456 0
M  V30 6011 C 554.192 3.1963 -5.51467 0
M  V30 6012 C 551.879 3.58684 -4.94761 0
M  V30 6013 C 552.877 3.43087 -5.90576 0
M  V30 6014 O 552.565 3.50598 -7.2342 0
M  V30 6015 H 552.297 0.549981 -0.393061 0
M  V30 6016 H 554.851 1.20892 -1.66055 0
M  V30 6017 H 553.081 3.70385 -1.11138 0
M  V30 6018 H 554.77 3.76109 -1.52632 0
M  V30 6019 H 555.536 2.92853 -3.86604 0
M  V30 6020 H 551.415 3.62053 -2.85375 0
M  V30 6021 H 554.959 3.07373 -6.26233 0
M  V30 6022 H 550.856 3.76782 -5.24124 0
M  V30 6023 H 551.624 3.67242 -7.31489 0
M  V30 6024 N 554.287 1.06798 1.15896 0
M  V30 6025 C 555.534 0.787767 1.86549 0
M  V30 6026 C 555.862 -0.685959 1.82002 0
M  V30 6027 O 555.117 -1.5188 1.23414 0
M  V30 6028 C 555.416 1.23414 3.35416 0
M  V30 6029 C 555.082 2.71285 3.6016 0
M  V30 6030 C 553.744 3.11676 3.66622 0
M  V30 6031 C 556.096 3.6676 3.7032 0
M  V30 6032 C 553.424 4.4637 3.8075 0
M  V30 6033 C 555.776 5.01209 3.8597 0
M  V30 6034 C 554.44 5.41229 3.90676 0
M  V30 6035 H 553.71 0.288264 0.682631 0
M  V30 6036 H 556.357 1.338 1.37003 0
M  V30 6037 H 554.662 0.60319 3.87129 0
M  V30 6038 H 556.359 0.994298 3.88477 0
M  V30 6039 H 552.949 2.39015 3.55767 0
M  V30 6040 H 557.133 3.36685 3.64633 0
M  V30 6041 H 552.389 4.76855 3.82648 0
M  V30 6042 H 556.563 5.75067 3.92773 0
M  V30 6043 H 554.19 6.45602 4.01375 0
M  V30 6044 N 555.766 -1.3263 0.851289 0
M  V30 6045 C 556.991 -2.02097 0.466006 0
M  V30 6046 C 557.416 -1.63574 -0.928709 0
M  V30 6047 O 556.774 -0.834665 -1.60944 0
M  V30 6048 C 556.822 -3.55425 0.608737 0
M  V30 6049 O 555.926 -4.10827 -0.359878 0
M  V30 6050 H 555.267 -0.636911 0.187724 0
M  V30 6051 H 557.797 -1.69253 1.14955 0
M  V30 6052 H 557.807 -4.04986 0.495006 0
M  V30 6053 H 556.482 -3.82806 1.62581 0
M  V30 6054 H 555.059 -3.72349 -0.202666 0
M  V30 6055 N 557.244 -0.608902 -1.45362 0
M  V30 6056 C 558.66 -0.272659 -1.57254 0
M  V30 6057 C 558.86 1.22477 -1.60005 0
M  V30 6058 O 557.916 2.00785 -1.53106 0
M  V30 6059 C 559.229 -0.944991 -2.85465 0
M  V30 6060 C 560.777 -0.921033 -2.99142 0
M  V30 6061 C 561.252 -1.5734 -4.30126 0
M  V30 6062 N 562.743 -1.53895 -4.36887 0
M  V30 6063 C 563.478 -2.01286 -5.36909 0
M  V30 6064 N 562.974 -2.56768 -6.43461 0
M  V30 6065 N 564.767 -1.92046 -5.28275 0
M  V30 6066 H 556.918 -1.58117 -1.4182 0
M  V30 6067 H 559.181 -0.662437 -0.678146 0
M  V30 6068 H 558.887 -1.99941 -2.89338 0
M  V30 6069 H 558.761 -0.469079 -3.74272 0
M  V30 6070 H 561.148 0.124846 -2.94836 0
M  V30 6071 H 561.229 -1.43522 -2.11743 0
M  V30 6072 H 560.873 -2.61862 -4.35191 0
M  V30 6073 H 560.803 -1.03422 -5.16344 0
M  V30 6074 H 563.294 -1.13366 -3.60495 0
M  V30 6075 H 563.607 -2.9072 -7.16032 0
M  V30 6076 H 561.952 -2.60808 -6.44208 0
M  V30 6077 H 565.143 -1.48439 -4.43941 0
M  V30 6078 H 565.316 -2.29293 -6.06077 0
M  V30 6079 N 558.722 1.53707 -0.348139 0
M  V30 6080 C 559.672 2.2193 0.522592 0
M  V30 6081 C 560.656 1.20831 1.06248 0
M  V30 6082 O 561.848 1.46357 0.995415 0
M  V30 6083 C 558.977 2.99904 1.6707 0
M  V30 6084 C 558.063 4.08364 1.14454 0
M  V30 6085 N 558.454 5.04656 0.339958 0
M  V30 6086 C 556.752 4.22757 1.421 0
M  V30 6087 C 557.453 5.81675 0.0538806 0
M  V30 6088 N 556.429 5.39739 0.646776 0
M  V30 6089 H 560.231 2.93733 -0.099135 0
M  V30 6090 H 557.745 1.61656 -0.15524 0
M  V30 6091 H 559.742 3.47284 2.30651 0
M  V30 6092 H 558.402 2.29629 2.29566 0
M  V30 6093 H 559.413 5.17896 -0.0193552 0
M  V30 6094 H 556.09 3.63704 2.05002 0
M  V30 6095 H 557.48 6.69256 -0.595443 0
M  V30 6096 N 560.2 0.0768682 1.57412 0
M  V30 6097 C 561.43 -0.5991 1.97723 0
M  V30 6098 C 561.838 -1.63378 0.954166 0
M  V30 6099 O 561.181 -1.83578 -0.0668706 0
M  V30 6100 C 561.243 -1.32078 3.34358 0
M  V30 6101 C 560.907 -0.438985 4.54887 0
M  V30 6102 C 561.904 0.305492 5.19002 0
M  V30 6103 C 559.589 -0.362378 5.00991 0
M  V30 6104 C 561.583 1.11475 6.27576 0
M  V30 6105 C 559.27 0.450543 6.09437 0
M  V30 6106 C 560.268 1.18777 6.72593 0
M  V30 6107 O 559.956 1.98727 7.7895 0
M  V30 6108 H 559.688 -0.166725 0.655117 0
M  V30 6109 H 562.242 0.147337 2.04871 0
M  V30 6110 H 560.472 -2.1134 3.2384 0
M  V30 6111 H 562.161 -1.88949 3.5924 0
M  V30 6112 H 562.927 0.25593 4.84324 0
M  V30 6113 H 558.806 -0.925832 4.51608 0
M  V30 6114 H 562.35 1.69068 6.76803 0
M  V30 6115 H 558.247 0.501651 6.43548 0
M  V30 6116 H 559.015 1.91214 7.95851 0
M  V30 6117 N 561.678 -1.56367 -0.196722 0
M  V30 6118 C 562.608 -1.97442 -1.24655 0
M  V30 6119 C 563.589 -0.846147 -1.47561 0
M  V30 6120 O 564.774 -1.11035 -1.59326 0
M  V30 6121 C 561.904 -2.31253 -2.59112 0
M  V30 6122 C 560.858 -3.46804 -2.50821 0
M  V30 6123 C 560.184 -3.66286 -3.89536 0
M  V30 6124 C 561.484 -4.8104 -2.03465 0
M  V30 6125 H 563.178 -2.85388 -0.905216 0
M  V30 6126 H 560.724 -1.37304 -0.434002 0
M  V30 6127 H 562.677 -2.58583 -3.32736 0
M  V30 6128 H 561.401 -1.40188 -2.94983 0
M  V30 6129 H 560.06 -3.19563 -1.79653 0
M  V30 6130 H 559.708 -2.72555 -4.22756 0
M  V30 6131 H 559.408 -4.4402 -3.84864 0
M  V30 6132 H 560.932 -3.9599 -4.64784 0
M  V30 6133 H 562.346 -5.07411 -2.66846 0
M  V30 6134 H 560.743 -5.62232 -2.09798 0
M  V30 6135 H 561.813 -4.74732 -0.98781 0
M  V30 6136 N 563.156 0.464375 -1.50603 0
M  V30 6137 C 564.567 1.04507 -1.5471 0
M  V30 6138 C 564.918 1.9297 -0.354542 0
M  V30 6139 O 564.043 2.09763 0.531812 0
M  V30 6140 C 564.638 1.90207 -2.80369 0
M  V30 6141 C 563.197 2.43373 -2.87135 0
M  V30 6142 C 562.344 1.21886 -2.49076 0
M  V30 6143 H 565.295 0.246716 -1.56771 0
M  V30 6144 H 565.316 2.75353 -2.62604 0
M  V30 6145 H 564.828 1.25796 -3.67147 0
M  V30 6146 H 562.929 3.11318 -2.04724 0
M  V30 6147 H 563.042 2.7802 -3.90181 0
M  V30 6148 H 561.406 1.55575 -2.01664 0
M  V30 6149 H 562.189 0.591268 -3.3817 0
M  V30 6150 N 564.634 1.40294 0.718013 0
M  V30 6151 C 565.88 1.38645 1.48005 0
M  V30 6152 C 566.213 -0.0121202 1.94196 0
M  V30 6153 O 565.488 -0.980309 1.67989 0
M  V30 6154 C 565.771 2.37379 2.70782 0
M  V30 6155 C 565.624 3.8625 2.30501 0
M  V30 6156 C 566.943 2.33685 3.72933 0
M  V30 6157 H 564.062 0.504928 0.536858 0
M  V30 6158 H 566.704 1.71411 0.819649 0
M  V30 6159 H 564.854 2.09568 3.27129 0
M  V30 6160 H 566.526 4.24879 1.79655 0
M  V30 6161 H 564.769 4.02202 1.6253 0
M  V30 6162 H 565.44 4.50847 3.18498 0
M  V30 6163 H 567.916 2.58314 3.2621 0
M  V30 6164 H 566.792 3.0482 4.56482 0
M  V30 6165 H 567.053 1.34765 4.21059 0
M  V30 6166 N 566.112 -0.949982 1.2575 0
M  V30 6167 C 567.359 -1.69515 1.10774 0
M  V30 6168 C 567.687 -1.91316 -0.350479 0
M  V30 6169 O 566.942 -1.48515 -1.27443 0
M  V30 6170 C 567.241 -3.08039 1.81237 0
M  V30 6171 C 566.907 -3.06023 3.31151 0
M  V30 6172 C 565.569 -3.0518 3.72047 0
M  V30 6173 C 567.921 -2.98998 4.26907 0
M  V30 6174 C 565.249 -2.95067 5.07102 0
M  V30 6175 C 567.601 -2.90426 5.61992 0
M  V30 6176 C 566.265 -2.87922 6.0221 0
M  V30 6177 H 565.535 -0.6203 0.405351 0
M  V30 6178 H 568.182 -1.10953 1.56082 0
M  V30 6179 H 566.487 -3.70172 1.28373 0
M  V30 6180 H 568.184 -3.64526 1.67098 0
M  V30 6181 H 564.774 -3.07453 2.98614 0
M  V30 6182 H 568.958 -2.98764 3.963 0
M  V30 6183 H 564.214 -2.915 5.37436 0
M  V30 6184 H 568.388 -2.83952 6.35881 0
M  V30 6185 H 566.015 -2.79841 7.06819 0
M  V30 6186 N 567.59 -1.07411 -1.15328 0
M  V30 6187 C 568.553 -0.698914 -2.18284 0
M  V30 6188 C 569.553 0.261149 -1.58665 0
M  V30 6189 O 570.743 0.0420277 -1.74149 0
M  V30 6190 C 567.875 -0.0302427 -3.40887 0
M  V30 6191 H 569.068 -1.61045 -2.52991 0
M  V30 6192 H 566.621 -0.870724 -1.298 0
M  V30 6193 H 567.356 0.893505 -3.11748 0
M  V30 6194 H 567.141 -0.720759 -3.85419 0
M  V30 6195 H 568.631 0.21759 -4.17033 0
M  V30 6196 N 569.068 1.32177 -0.85831 0
M  V30 6197 C 570.016 2.30729 -0.294442 0
M  V30 6198 C 571.01 1.59009 0.584165 0
M  V30 6199 O 572.216 1.73713 0.471562 0
M  V30 6200 H 568.591 0.748097 -0.0765171 0
M  V30 6201 H 570.562 2.75774 -1.1398 0
M  V30 6202 C 569.311 3.44098 0.499208 0
M  V30 6203 H 568.634 3.99449 -0.167579 0
M  V30 6204 H 570.074 4.15202 0.859273 0
M  V30 6205 C 568.533 2.91684 1.68588 0
M  V30 6206 O 569.063 2.89481 2.78503 0
M  V30 6207 N 567.269 2.48036 1.51415 0
M  V30 6208 H 566.816 2.50027 0.620006 0
M  V30 6209 H 566.774 2.13322 2.30957 0
M  V30 6210 N 570.547 0.616602 1.45037 0
M  V30 6211 C 571.796 0.112861 2.01384 0
M  V30 6212 C 572.109 -1.26758 1.48969 0
M  V30 6213 O 573.315 -1.86454 1.9735 0
M  V30 6214 C 571.771 0.151057 3.59583 0
M  V30 6215 C 571.379 1.53191 4.20995 0
M  V30 6216 C 573.123 -0.296974 4.2346 0
M  V30 6217 C 571.03 1.526 5.71373 0
M  V30 6218 H 569.96 0.0384254 0.75302 0
M  V30 6219 H 572.611 0.773262 1.66412 0
M  V30 6220 H 570.993 -0.57617 3.91786 0
M  V30 6221 H 572.167 2.28156 4.00352 0
M  V30 6222 H 570.482 1.92279 3.69348 0
M  V30 6223 H 573.079 -0.320712 5.33737 0
M  V30 6224 H 573.422 -1.32145 3.9477 0
M  V30 6225 H 573.955 0.377279 3.96007 0
M  V30 6226 H 570.694 2.52837 6.04776 0
M  V30 6227 H 570.214 0.819064 5.94181 0
M  V30 6228 H 571.893 1.25357 6.3474 0
M  V30 6229 N 572.025 -1.5352 0.356285 0
M  V30 6230 C 572.955 -2.28372 -0.486661 0
M  V30 6231 C 573.936 -1.30432 -1.09185 0
M  V30 6232 O 575.121 -1.59291 -1.11085 0
M  V30 6233 C 572.251 -3.06604 -1.63129 0
M  V30 6234 C 571.205 -4.12154 -1.15381 0
M  V30 6235 C 570.531 -4.78415 -2.38796 0
M  V30 6236 C 571.831 -5.21724 -0.245179 0
M  V30 6237 H 573.525 -2.99083 0.137797 0
M  V30 6238 H 571.071 -1.43841 0.0677134 0
M  V30 6239 H 573.024 -3.57712 -2.22755 0
M  V30 6240 H 571.748 -2.33568 -2.28284 0
M  V30 6241 H 570.407 -3.61978 -0.580294 0
M  V30 6242 H 570.055 -4.01959 -3.02387 0
M  V30 6243 H 569.755 -5.49734 -2.07524 0
M  V30 6244 H 571.279 -5.32313 -2.99125 0
M  V30 6245 H 572.693 -5.68391 -0.748646 0
M  V30 6246 H 571.09 -6.00095 -0.0237608 0
M  V30 6247 H 572.16 -4.79596 0.715229 0
M  V30 6248 N 573.503 -0.0852151 -1.57369 0
M  V30 6249 C 574.78 0.622534 -1.85429 0
M  V30 6250 C 575.16 1.86962 -0.980229 0
M  V30 6251 O 574.508 2.28445 -0.0500219 0
M  V30 6252 C 574.718 0.947374 -3.35896 0
M  V30 6253 C 576.066 1.31509 -4.03721 0
M  V30 6254 O 577.09 1.03869 -3.40719 0
M  V30 6255 O 575.949 1.83231 -5.14868 0
M  V30 6256 H 573.043 0.310513 -0.766492 0
M  V30 6257 H 575.589 -0.117164 -1.69295 0
M  V30 6258 H 574.361 0.0622264 -3.91251 0
M  V30 6259 H 573.984 1.74338 -3.5734 0
M  V30 6260 N 574.981 1.5647 0.188427 0
M  V30 6261 C 576.258 1.71857 0.934058 0
M  V30 6262 C 576.638 0.641867 2.01105 0
M  V30 6263 O 575.986 -0.346098 2.25864 0
M  V30 6264 C 576.196 3.14431 1.5144 0
M  V30 6265 C 577.544 3.74869 1.99396 0
M  V30 6266 O 578.568 3.17601 1.61269 0
M  V30 6267 O 577.427 4.75387 2.69573 0
M  V30 6268 H 574.521 0.701186 0.438483 0
M  V30 6269 H 577.067 1.68768 0.177599 0
M  V30 6270 H 575.839 3.8427 0.738416 0
M  V30 6271 H 575.462 3.21775 2.33552 0
M  V30 6272 N 576.459 -0.456382 1.50847 0
M  V30 6273 C 577.407 -1.57318 1.71329 0
M  V30 6274 C 578.401 -1.59187 0.579287 0
M  V30 6275 O 579.607 -1.6316 0.76018 0
M  V30 6276 H 575.982 -0.5223 0.541024 0
M  V30 6277 H 577.953 -1.3721 2.64983 0
M  V30 6278 C 576.702 -2.95142 1.83811 0
M  V30 6279 H 576.025 -2.94428 2.70467 0
M  V30 6280 H 577.465 -3.72702 2.02161 0
M  V30 6281 C 575.924 -3.31636 0.593224 0
M  V30 6282 O 576.454 -4.00852 -0.260898 0
M  V30 6283 N 574.66 -2.87205 0.442902 0
M  V30 6284 H 574.207 -2.31051 1.13901 0
M  V30 6285 H 574.165 -3.11986 -0.38884 0
M  V30 6286 N 577.937 -1.40673 -0.710563 0
M  V30 6287 C 579.186 -1.38525 -1.46607 0
M  V30 6288 C 579.499 0.0077024 -1.95598 0
M  V30 6289 O 580.705 0.151792 -2.71075 0
M  V30 6290 C 579.161 -2.43489 -2.6503 0
M  V30 6291 C 578.769 -3.88619 -2.22888 0
M  V30 6292 C 580.513 -2.50456 -3.42742 0
M  V30 6293 C 578.42 -4.85168 -3.3818 0
M  V30 6294 H 577.35 -0.515092 -0.550632 0
M  V30 6295 H 580.001 -1.66431 -0.772846 0
M  V30 6296 H 578.383 -2.0869 -3.36548 0
M  V30 6297 H 579.557 -4.32588 -1.58758 0
M  V30 6298 H 577.872 -3.85174 -1.58208 0
M  V30 6299 H 580.469 -3.19776 -4.28541 0
M  V30 6300 H 580.812 -1.53665 -3.86902 0
M  V30 6301 H 581.345 -2.84271 -2.78271 0
M  V30 6302 H 578.084 -5.8331 -2.99047 0
M  V30 6303 H 577.604 -4.4586 -4.01209 0
M  V30 6304 H 579.283 -5.05225 -4.04174 0
M  V30 6305 N 579.415 0.9433 -1.26252 0
M  V30 6306 C 580.645 1.72117 -1.14277 0
M  V30 6307 C 581.053 1.86726 0.304944 0
M  V30 6308 O 580.396 1.3727 1.22076 0
M  V30 6309 C 580.458 3.14778 -1.73651 0
M  V30 6310 C 580.122 3.23561 -3.22734 0
M  V30 6311 C 581.119 3.07001 -4.19579 0
M  V30 6312 C 578.804 3.47019 -3.63157 0
M  V30 6313 C 580.798 3.13763 -5.54826 0
M  V30 6314 C 578.485 3.53416 -4.98538 0
M  V30 6315 C 579.483 3.36804 -5.94182 0
M  V30 6316 O 579.171 3.42906 -7.27098 0
M  V30 6317 H 578.903 0.545781 -0.398873 0
M  V30 6318 H 581.457 1.19123 -1.67328 0
M  V30 6319 H 579.687 3.69186 -1.1506 0
M  V30 6320 H 581.376 3.74469 -1.56613 0
M  V30 6321 H 582.142 2.88736 -3.89688 0
M  V30 6322 H 578.021 3.59006 -2.89199 0
M  V30 6323 H 581.565 3.00714 -6.29458 0
M  V30 6324 H 577.462 3.71201 -5.28091 0
M  V30 6325 H 578.23 3.59463 -7.35342 0
M  V30 6326 N 580.893 1.08022 1.14757 0
M  V30 6327 C 582.121 0.828847 1.89572 0
M  V30 6328 C 582.536 -0.618621 1.78377 0
M  V30 6329 O 581.893 -1.42482 1.1404 0
M  V30 6330 C 581.944 1.23677 3.39685 0
M  V30 6331 O 581.665 2.62746 3.50566 0
M  V30 6332 C 583.166 1.01569 4.31507 0
M  V30 6333 H 580.386 0.299196 0.600602 0
M  V30 6334 H 582.93 1.43846 1.45357 0
M  V30 6335 H 581.085 0.671347 3.81539 0
M  V30 6336 H 581.499 2.79573 4.43778 0
M  V30 6337 H 582.973 1.35055 5.35223 0
M  V30 6338 H 583.45 -0.0475433 4.39174 0
M  V30 6339 H 584.056 1.56636 3.95405 0
M  V30 6340 N 582.371 -1.3172 0.865308 0
M  V30 6341 C 583.62 -1.96145 0.470098 0
M  V30 6342 C 583.933 -1.69182 -0.981674 0
M  V30 6343 O 585.139 -2.27431 -1.48281 0
M  V30 6344 C 583.595 -3.51129 0.789732 0
M  V30 6345 C 583.203 -3.86938 2.25795 0
M  V30 6346 C 584.947 -4.2197 0.462765 0
M  V30 6347 C 582.854 -5.35012 2.52024 0
M  V30 6348 H 581.784 -0.734105 0.172065 0
M  V30 6349 H 584.435 -1.49959 1.05757 0
M  V30 6350 H 582.817 -3.95781 0.131571 0
M  V30 6351 H 583.991 -3.5326 2.95879 0
M  V30 6352 H 582.306 -3.29149 2.55049 0
M  V30 6353 H 584.903 -5.30904 0.636019 0
M  V30 6354 H 585.246 -4.12005 -0.59645 0
M  V30 6355 H 585.779 -3.82936 1.07727 0
M  V30 6356 H 582.518 -5.50008 3.56611 0
M  V30 6357 H 582.038 -5.70058 1.8653 0
M  V30 6358 H 583.717 -6.0222 2.36515 0
M  V30 6359 N 583.85 -0.624285 -1.44708 0
M  V30 6360 C 585.266 -0.289322 -1.56956 0
M  V30 6361 C 585.466 1.20773 -1.61295 0
M  V30 6362 O 584.522 1.9915 -1.55227 0
M  V30 6363 C 585.835 -0.975215 -2.84447 0
M  V30 6364 C 587.383 -0.952709 -2.98148 0
M  V30 6365 C 587.858 -1.61893 -4.28433 0
M  V30 6366 N 589.349 -1.5852 -4.35231 0
M  V30 6367 C 590.084 -2.06969 -5.34744 0
M  V30 6368 N 589.58 -2.63579 -6.40701 0
M  V30 6369 N 591.373 -1.97638 -5.26209 0
M  V30 6370 H 583.524 -1.59612 -1.40135 0
M  V30 6371 H 585.787 -0.669592 -0.671081 0
M  V30 6372 H 585.493 -2.02999 -2.87201 0
M  V30 6373 H 585.367 -0.508749 -3.73753 0
M  V30 6374 H 587.754 0.093568 -2.94952 0
M  V30 6375 H 587.835 -1.4576 -2.10209 0
M  V30 6376 H 587.479 -2.66463 -4.32389 0
M  V30 6377 H 587.409 -1.08893 -5.15218 0
M  V30 6378 H 589.899 -1.17183 -3.59272 0
M  V30 6379 H 590.213 -2.98298 -7.12908 0
M  V30 6380 H 588.558 -2.67626 -6.41406 0
M  V30 6381 H 591.749 -1.5314 -4.42341 0
M  V30 6382 H 591.922 -2.35708 -6.03611 0
M  V30 6383 N 585.328 1.53329 -0.364422 0
M  V30 6384 C 586.605 1.93557 0.281962 0
M  V30 6385 C 586.985 1.29786 1.6649 0
M  V30 6386 O 586.333 0.456512 2.23893 0
M  V30 6387 C 586.543 3.47405 0.333331 0
M  V30 6388 C 587.891 4.20699 0.574231 0
M  V30 6389 O 588.915 3.53779 0.414588 0
M  V30 6390 O 587.774 5.39287 0.885002 0
M  V30 6391 H 584.868 0.809573 0.168881 0
M  V30 6392 H 587.414 1.64494 -0.417121 0
M  V30 6393 H 586.186 3.86091 -0.636326 0
M  V30 6394 H 585.809 3.82697 1.07836 0
M  V30 6395 N 586.806 0.0935595 1.57322 0
M  V30 6396 C 588.054 -0.569383 1.93913 0
M  V30 6397 C 588.375 -1.68817 0.976009 0
M  V30 6398 O 587.645 -1.9588 0.0278099 0
M  V30 6399 H 586.225 -0.21332 0.715894 0
M  V30 6400 H 588.887 0.156531 1.9427 0
M  V30 6401 H 587.983 -0.980577 2.96296 0
M  V30 6402 N 588.284 -1.56567 -0.180126 0
M  V30 6403 C 589.531 -1.81492 -0.898167 0
M  V30 6404 C 589.859 -0.669225 -1.82624 0
M  V30 6405 O 589.114 0.344096 -1.92651 0
M  V30 6406 C 589.413 -3.1252 -1.73395 0
M  V30 6407 C 589.079 -4.40658 -0.955567 0
M  V30 6408 C 587.741 -4.75465 -0.740707 0
M  V30 6409 C 590.093 -5.19593 -0.408948 0
M  V30 6410 C 587.421 -5.86691 0.0320128 0
M  V30 6411 C 589.773 -6.31627 0.350638 0
M  V30 6412 C 588.437 -6.65007 0.576378 0
M  V30 6413 H 587.707 -0.664125 -0.328662 0
M  V30 6414 H 590.354 -1.908 -0.163616 0
M  V30 6415 H 588.659 -2.98515 -2.53763 0
M  V30 6416 H 590.356 -3.29013 -2.29241 0
M  V30 6417 H 586.946 -4.13352 -1.13306 0
M  V30 6418 H 591.13 -4.93104 -0.562307 0
M  V30 6419 H 586.386 -6.11016 0.216735 0
M  V30 6420 H 590.56 -6.92001 0.781497 0
M  V30 6421 H 588.187 -7.51033 1.17703 0
M  V30 6422 N 589.762 0.448376 -1.51087 0
M  V30 6423 C 590.71 1.56407 -1.72161 0
M  V30 6424 C 591.704 1.58878 -0.587721 0
M  V30 6425 O 592.91 1.62755 -0.768822 0
M  V30 6426 H 589.285 0.519423 -0.543786 0
M  V30 6427 H 591.256 1.35803 -2.65707 0
M  V30 6428 C 590.005 2.94163 -1.85373 0
M  V30 6429 H 589.328 2.9299 -2.72024 0
M  V30 6430 H 590.768 3.71625 -2.04135 0
M  V30 6431 C 589.227 3.31317 -0.610803 0
M  V30 6432 O 589.757 4.00985 0.239636 0
M  V30 6433 N 587.963 2.86966 -0.458127 0
M  V30 6434 H 587.51 2.30443 -1.15124 0
M  V30 6435 H 587.468 3.12188 0.372289 0
M  V30 6436 N 591.24 1.41047 0.703093 0
M  V30 6437 C 592.17 1.45067 1.82969 0
M  V30 6438 C 593.151 0.31016 1.67248 0
M  V30 6439 O 594.336 0.520548 1.87093 0
M  V30 6440 C 591.466 1.32478 3.2104 0
M  V30 6441 C 590.42 2.44262 3.51454 0
M  V30 6442 C 589.746 2.16742 4.88801 0
M  V30 6443 C 591.046 3.86606 3.51189 0
M  V30 6444 H 592.74 2.39353 1.79863 0
M  V30 6445 H 590.286 1.15206 0.863919 0
M  V30 6446 H 592.239 1.33904 3.99559 0
M  V30 6447 H 590.963 0.346735 3.24754 0
M  V30 6448 H 589.622 2.42107 2.75282 0
M  V30 6449 H 589.27 1.17299 4.89132 0
M  V30 6450 H 588.97 2.91643 5.10116 0
M  V30 6451 H 590.494 2.19872 5.69639 0
M  V30 6452 H 591.908 3.90517 4.19725 0
M  V30 6453 H 590.305 4.61128 3.84033 0
M  V30 6454 H 591.375 4.15296 2.50315 0
M  V30 6455 N 592.718 -0.936591 1.26751 0
M  V30 6456 C 593.946 -1.71758 1.15355 0
M  V30 6457 C 594.361 -1.86549 -0.290683 0
M  V30 6458 O 593.718 -1.37616 -1.19868 0
M  V30 6459 C 593.769 -3.12193 1.82258 0
M  V30 6460 O 593.49 -2.98105 3.21038 0
M  V30 6461 C 594.991 -4.06485 1.76875 0
M  V30 6462 H 592.211 -0.537636 0.401483 0
M  V30 6463 H 594.755 -1.17382 1.67457 0
M  V30 6464 H 592.91 -3.63456 1.34083 0
M  V30 6465 H 593.324 -3.86824 3.54214 0
M  V30 6466 H 594.798 -5.02569 2.28316 0
M  V30 6467 H 595.275 -4.32986 0.736216 0
M  V30 6468 H 595.881 -3.61144 2.24623 0
M  V30 6469 N 594.196 -1.08629 -1.14182 0
M  V30 6470 C 595.144 -0.71284 -2.21408 0
M  V30 6471 C 596.138 0.282457 -1.67029 0
M  V30 6472 O 597.344 0.144783 -1.79417 0
M  V30 6473 H 593.719 -0.212497 -0.721352 0
M  V30 6474 H 595.69 -1.6265 -2.50175 0
M  V30 6475 C 594.439 -0.140704 -3.47415 0
M  V30 6476 H 593.762 -0.897739 -3.8959 0
M  V30 6477 H 595.202 0.0827677 -4.23919 0
M  V30 6478 C 593.661 1.122 -3.17668 0
M  V30 6479 O 594.191 2.20652 -3.35672 0
M  V30 6480 N 592.397 1.03328 -2.71609 0
M  V30 6481 H 591.944 0.150666 -2.57159 0
M  V30 6482 H 591.902 1.8789 -2.52081 0
M  V30 6483 N 595.674 1.31259 -0.872281 0
M  V30 6484 C 596.621 2.28459 -0.327857 0
M  V30 6485 C 597.591 1.55831 0.574957 0
M  V30 6486 O 598.776 1.83965 0.506101 0
M  V30 6487 C 595.916 3.41985 0.462644 0
M  V30 6488 C 595.029 4.29458 -0.467949 0
M  V30 6489 C 594.164 5.30131 0.336903 0
M  V30 6490 C 593.203 6.0925 -0.58997 0
M  V30 6491 N 592.34 7.01872 0.178775 0
M  V30 6492 H 597.18 2.74414 -1.16193 0
M  V30 6493 H 594.717 1.34994 -0.584376 0
M  V30 6494 H 596.675 4.06547 0.936759 0
M  V30 6495 H 595.305 2.97134 1.2614 0
M  V30 6496 H 594.357 3.65318 -1.06052 0
M  V30 6497 H 595.669 4.84677 -1.17856 0
M  V30 6498 H 594.823 6.0038 0.873427 0
M  V30 6499 H 593.562 4.75573 1.08079 0
M  V30 6500 H 592.567 5.37889 -1.13823 0
M  V30 6501 H 593.792 6.65894 -1.33275 0
M  V30 6502 H 591.738 6.49721 0.905435 0
M  V30 6503 H 591.655 7.54522 -0.472452 0
M  V30 6504 H 592.923 7.76382 0.696454 0
M  V30 6505 N 597.152 0.631951 1.44375 0
M  V30 6506 C 598.4 0.136497 2.01639 0
M  V30 6507 C 598.721 -1.24637 1.49969 0
M  V30 6508 O 597.991 -1.82827 0.70363 0
M  V30 6509 H 596.571 0.0474703 0.74549 0
M  V30 6510 H 599.233 0.818837 1.76865 0
M  V30 6511 H 598.329 0.104817 3.11924 0
M  V30 6512 N 598.631 -1.53133 0.372548 0
M  V30 6513 C 599.878 -2.01356 -0.214959 0
M  V30 6514 C 600.206 -1.2596 -1.48204 0
M  V30 6515 O 599.461 -0.343511 -1.92662 0
M  V30 6516 C 599.76 -3.53206 -0.545938 0
M  V30 6517 C 599.426 -4.46511 0.627624 0
M  V30 6518 C 598.088 -4.71737 0.949615 0
M  V30 6519 C 600.44 -5.01666 1.41353 0
M  V30 6520 C 597.768 -5.4937 2.05936 0
M  V30 6521 C 600.12 -5.80511 2.51375 0
M  V30 6522 C 598.784 -6.04022 2.84101 0
M  V30 6523 H 598.054 -0.736813 -0.078659 0
M  V30 6524 H 600.701 -1.84682 0.506447 0
M  V30 6525 H 599.006 -3.67864 -1.34845 0
M  V30 6526 H 600.703 -3.87997 -1.01287 0
M  V30 6527 H 597.293 -4.27029 0.366635 0
M  V30 6528 H 601.477 -4.82117 1.17802 0
M  V30 6529 H 596.733 -5.65803 2.31682 0
M  V30 6530 H 600.907 -6.22255 3.12684 0
M  V30 6531 H 598.534 -6.63962 3.70214 0
M  V30 6532 N 600.109 -0.101901 -1.5727 0
M  V30 6533 C 601.057 0.872034 -2.15635 0
M  V30 6534 C 602.051 1.28742 -1.10099 0
M  V30 6535 O 603.257 1.26116 -1.28432 0
M  V30 6536 H 599.632 0.299269 -0.689886 0
M  V30 6537 H 601.603 0.355137 -2.96279 0
M  V30 6538 C 600.352 2.11886 -2.7568 0
M  V30 6539 H 599.675 1.80813 -3.56576 0
M  V30 6540 H 601.115 2.78077 -3.20077 0
M  V30 6541 C 599.574 2.89739 -1.7191 0
M  V30 6542 O 600.104 3.84522 -1.16213 0
M  V30 6543 N 598.31 2.53407 -1.42245 0
M  V30 6544 H 597.857 1.76398 -1.87727 0
M  V30 6545 H 597.815 3.05795 -0.730529 0
M  V30 6546 N 601.587 1.56661 0.17182 0
M  V30 6547 C 602.836 1.81158 0.886831 0
M  V30 6548 C 603.149 0.679072 1.83434 0
M  V30 6549 O 604.355 0.808964 2.59168 0
M  V30 6550 C 602.811 3.20999 1.6275 0
M  V30 6551 C 602.419 4.42117 0.723652 0
M  V30 6552 C 604.163 3.5479 2.33076 0
M  V30 6553 C 602.07 5.7298 1.46452 0
M  V30 6554 H 601 0.675543 0.334899 0
M  V30 6555 H 603.651 1.82967 0.139765 0
M  V30 6556 H 602.033 3.13506 2.4193 0
M  V30 6557 H 603.207 4.60789 -0.0311485 0
M  V30 6558 H 601.522 4.16197 0.130063 0
M  V30 6559 H 604.119 4.49806 2.89099 0
M  V30 6560 H 604.462 2.79646 3.08389 0
M  V30 6561 H 604.995 3.63834 1.6084 0
M  V30 6562 H 601.734 6.51152 0.753729 0
M  V30 6563 H 601.254 5.58285 2.19266 0
M  V30 6564 H 602.933 6.14916 2.01214 0
M  V30 6565 N 603.065 -0.440357 1.51323 0
M  V30 6566 C 603.975 -1.55955 1.75258 0
M  V30 6567 C 604.991 -1.61933 0.636687 0
M  V30 6568 O 606.167 -1.79231 0.918593 0
M  V30 6569 C 603.232 -2.9196 1.86977 0
M  V30 6570 C 602.293 -2.96122 3.10822 0
M  V30 6571 C 601.526 -4.2564 3.21973 0
M  V30 6572 O 601.749 -5.17851 2.39137 0
M  V30 6573 O 600.683 -4.36025 4.14929 0
M  V30 6574 H 604.509 -1.38673 2.70191 0
M  V30 6575 H 602.094 -0.623055 1.35788 0
M  V30 6576 H 603.976 -3.72682 1.96688 0
M  V30 6577 H 602.651 -3.09375 0.952307 0
M  V30 6578 H 601.558 -2.14366 3.06591 0
M  V30 6579 H 602.891 -2.83651 4.02247 0
M  V30 6580 N 604.543 -1.41418 -0.695603 0
M  V30 6581 C 605.491 -1.43467 -1.83084 0
M  V30 6582 C 606.485 -0.312719 -1.66489 0
M  V30 6583 O 607.691 -0.484744 -1.7335 0
M  V30 6584 H 604.066 -0.448891 -0.603325 0
M  V30 6585 H 606.037 -2.39144 -1.78473 0
M  V30 6586 C 604.786 -1.3337 -3.21104 0
M  V30 6587 H 604.109 -2.18989 -3.3449 0
M  V30 6588 H 605.549 -1.38865 -4.00615 0
M  V30 6589 C 604.008 -0.0460484 -3.36869 0
M  V30 6590 O 604.538 0.909258 -3.91274 0
M  V30 6591 N 602.744 0.0300222 -2.90584 0
M  V30 6592 H 602.291 -0.748129 -2.46497 0
M  V30 6593 H 602.249 0.890991 -3.01511 0
M  V30 6594 N 606.021 0.929856 -1.27246 0
M  V30 6595 C 607.246 1.71674 -1.16374 0
M  V30 6596 C 607.671 1.86064 0.276024 0
M  V30 6597 O 607.029 1.3591 1.19992 0
M  V30 6598 C 607.077 3.09526 -1.85003 0
M  V30 6599 O 606.181 3.96142 -1.14653 0
M  V30 6600 H 605.522 0.52629 -0.404863 0
M  V30 6601 H 608.052 1.16381 -1.68276 0
M  V30 6602 H 608.062 3.59852 -1.92276 0
M  V30 6603 H 606.737 2.98369 -2.89739 0
M  V30 6604 H 605.314 3.54584 -1.15433 0
M  V30 6605 N 607.499 1.09233 1.13605 0
M  V30 6606 C 608.747 0.825525 1.84471 0
M  V30 6607 C 609.068 -0.650702 1.83823 0
M  V30 6608 O 608.338 -1.47204 1.29259 0
M  V30 6609 H 606.918 0.3024 0.683054 0
M  V30 6610 H 609.58 1.38006 1.37624 0
M  V30 6611 H 608.676 1.17727 2.89045 0
M  V30 6612 N 608.977 -1.30795 0.87923 0
M  V30 6613 C 609.909 -2.27241 0.299025 0
M  V30 6614 C 610.922 -1.53472 -0.543166 0
M  V30 6615 O 612.111 -1.74756 -0.363651 0
M  V30 6616 C 609.211 -3.33655 -0.593931 0
M  V30 6617 C 608.384 -4.36857 0.2179 0
M  V30 6618 C 607.443 -5.22715 -0.604646 0
M  V30 6619 O 606.469 -5.69192 -0.0293838 0
M  V30 6620 N 607.671 -5.48008 -1.91488 0
M  V30 6621 H 610.436 -2.77667 1.12788 0
M  V30 6622 H 607.997 -1.43914 0.741637 0
M  V30 6623 H 609.989 -3.88013 -1.15012 0
M  V30 6624 H 608.559 -2.83202 -1.32346 0
M  V30 6625 H 607.779 -3.82444 0.955536 0
M  V30 6626 H 609.067 -5.02869 0.774614 0
M  V30 6627 H 608.465 -5.1202 -2.40525 0
M  V30 6628 H 607.022 -6.05264 -2.41864 0
M  V30 6629 N 610.455 -0.639598 -1.44038 0
M  V30 6630 C 611.403 0.0723409 -2.32487 0
M  V30 6631 C 612.397 0.827129 -1.47834 0
M  V30 6632 O 613.603 0.73907 -1.64127 0
M  V30 6633 H 609.978 0.0421696 -0.750817 0
M  V30 6634 H 611.949 -0.691593 -2.90275 0
M  V30 6635 C 610.698 1.03452 -3.31953 0
M  V30 6636 H 610.021 0.46315 -3.97108 0
M  V30 6637 H 611.461 1.502 -3.96505 0
M  V30 6638 C 609.92 2.12392 -2.61518 0
M  V30 6639 O 610.45 3.2059 -2.42044 0
M  V30 6640 N 608.656 1.88563 -2.21116 0
M  V30 6641 H 608.203 1.00577 -2.37154 0
M  V30 6642 H 608.161 2.61651 -1.74316 0
M  V30 6643 N 611.933 1.52934 -0.380664 0
M  V30 6644 C 613.182 2.00651 0.205477 0
M  V30 6645 C 613.495 1.27164 1.48623 0
M  V30 6646 O 614.701 1.65547 2.15189 0
M  V30 6647 C 613.157 3.57479 0.416726 0
M  V30 6648 C 612.765 4.39857 -0.850268 0
M  V30 6649 C 614.509 4.13509 0.959702 0
M  V30 6650 C 612.416 5.88269 -0.607773 0
M  V30 6651 H 611.346 0.749684 0.0805614 0
M  V30 6652 H 613.997 1.76508 -0.501732 0
M  V30 6653 H 612.379 3.77836 1.18557 0
M  V30 6654 H 613.553 4.31269 -1.62307 0
M  V30 6655 H 611.868 3.95005 -1.31756 0
M  V30 6656 H 614.465 5.22039 1.15669 0
M  V30 6657 H 614.808 3.69054 1.92626 0
M  V30 6658 H 615.341 3.9701 0.250645 0
M  V30 6659 H 612.08 6.3703 -1.54509 0
M  V30 6660 H 611.6 5.99667 0.126247 0
M  V30 6661 H 613.279 6.46558 -0.239014 0
M  V30 6662 N 613.412 0.11024 1.57214 0
M  V30 6663 C 614.322 -0.857077 2.18383 0
M  V30 6664 C 615.338 -1.29915 1.1575 0
M  V30 6665 O 616.514 -1.36394 1.48184 0
M  V30 6666 C 613.579 -2.09264 2.76423 0
M  V30 6667 C 612.64 -1.70333 3.94063 0
M  V30 6668 C 611.873 -2.87999 4.49324 0
M  V30 6669 O 612.096 -4.0317 4.03497 0
M  V30 6670 O 611.03 -2.6559 5.40135 0
M  V30 6671 H 614.856 -0.366561 3.0148 0
M  V30 6672 H 612.441 -0.114914 1.48957 0
M  V30 6673 H 614.323 -2.81644 3.13456 0
M  V30 6674 H 612.998 -2.57339 1.96363 0
M  V30 6675 H 611.905 -0.950864 3.61814 0
M  V30 6676 H 613.238 -1.27007 4.75531 0
M  V30 6677 N 614.89 -1.56749 -0.16351 0
M  V30 6678 C 616.306 -1.51043 -0.515567 0
M  V30 6679 C 616.506 -0.815855 -1.84245 0
M  V30 6680 O 615.562 -0.379477 -2.49632 0
M  V30 6681 C 616.875 -2.95791 -0.541114 0
M  V30 6682 C 618.423 -3.0664 -0.627776 0
M  V30 6683 C 618.898 -4.52861 -0.684141 0
M  V30 6684 N 620.389 -4.5714 -0.746818 0
M  V30 6685 C 621.124 -5.67634 -0.811137 0
M  V30 6686 N 620.62 -6.8774 -0.835811 0
M  V30 6687 N 622.413 -5.55624 -0.850756 0
M  V30 6688 H 614.564 -2.00307 0.70645 0
M  V30 6689 H 616.827 -0.912876 0.255659 0
M  V30 6690 H 616.533 -3.49797 0.365329 0
M  V30 6691 H 616.407 -3.50858 -1.38487 0
M  V30 6692 H 618.794 -2.52663 -1.52464 0
M  V30 6693 H 618.875 -2.54645 0.242805 0
M  V30 6694 H 618.519 -5.07472 0.2085 0
M  V30 6695 H 618.449 -5.02621 -1.57098 0
M  V30 6696 H 620.94 -3.70669 -0.735717 0
M  V30 6697 H 621.253 -7.67701 -0.886279 0
M  V30 6698 H 619.598 -6.90334 -0.803958 0
M  V30 6699 H 622.789 -4.60709 -0.828535 0
M  V30 6700 H 622.962 -6.41756 -0.897418 0
M  V30 6701 N 616.368 0.432326 -1.51554 0
M  V30 6702 C 617.316 1.54572 -1.73811 0
M  V30 6703 C 618.31 1.58246 -0.604539 0
M  V30 6704 O 619.516 1.6193 -0.786041 0
M  V30 6705 H 615.891 0.513626 -0.549265 0
M  V30 6706 H 617.862 1.32977 -2.67132 0
M  V30 6707 C 616.611 2.92181 -1.88483 0
M  V30 6708 H 615.934 2.90088 -2.75116 0
M  V30 6709 H 617.374 3.69439 -2.08065 0
M  V30 6710 C 615.833 3.3065 -0.645909 0
M  V30 6711 O 616.363 4.01216 0.197093 0
M  V30 6712 N 614.569 2.86464 -0.488538 0
M  V30 6713 H 614.116 2.29209 -1.17562 0
M  V30 6714 H 614.074 3.12565 0.339156 0
M  V30 6715 N 617.846 1.41785 0.688094 0
M  V30 6716 C 619.257 1.3701 1.26828 0
M  V30 6717 C 619.608 0.056835 1.96118 0
M  V30 6718 O 618.733 -0.84475 1.99231 0
M  V30 6719 C 619.328 2.48168 2.30648 0
M  V30 6720 C 617.887 2.46766 2.84224 0
M  V30 6721 C 617.034 2.27633 1.58361 0
M  V30 6722 H 619.985 1.51192 0.482351 0
M  V30 6723 H 620.006 2.17655 3.121 0
M  V30 6724 H 619.518 3.43735 1.80188 0
M  V30 6725 H 617.619 1.54978 3.3884 0
M  V30 6726 H 617.732 3.43342 3.34145 0
M  V30 6727 H 616.096 1.75648 1.84445 0
M  V30 6728 H 616.879 3.25238 1.09887 0
M  V30 6729 N 619.324 -0.923095 1.27737 0
M  V30 6730 C 620.287 -2.00587 1.10894 0
M  V30 6731 C 621.287 -1.60718 0.0514927 0
M  V30 6732 O 622.477 -1.71658 0.296481 0
M  V30 6733 C 619.609 -3.33829 0.690717 0
M  V30 6734 H 620.802 -2.16959 2.07048 0
M  V30 6735 H 618.355 -1.10451 1.1059 0
M  V30 6736 H 619.09 -3.23157 -0.272 0
M  V30 6737 H 618.875 -3.64125 1.45448 0
M  V30 6738 H 620.365 -4.13336 0.595252 0
M  V30 6739 N 620.802 -1.09834 -1.13024 0
M  V30 6740 C 621.732 -0.763451 -2.20666 0
M  V30 6741 C 622.713 0.260778 -1.68089 0
M  V30 6742 O 623.898 0.127915 -1.93778 0
M  V30 6743 C 621.028 -0.187744 -3.46792 0
M  V30 6744 C 619.982 -1.14196 -4.12484 0
M  V30 6745 C 619.308 -0.427755 -5.32986 0
M  V30 6746 C 620.608 -2.48607 -4.59338 0
M  V30 6747 H 622.302 -1.66347 -2.48936 0
M  V30 6748 H 619.848 -0.801261 -1.19649 0
M  V30 6749 H 621.801 0.0586375 -4.21359 0
M  V30 6750 H 620.525 0.747485 -3.17931 0
M  V30 6751 H 619.184 -1.37369 -3.3989 0
M  V30 6752 H 618.832 0.511747 -5.0039 0
M  V30 6753 H 618.532 -1.06403 -5.77886 0
M  V30 6754 H 620.056 -0.189772 -6.10305 0
M  V30 6755 H 621.47 -2.29618 -5.25308 0
M  V30 6756 H 619.867 -3.08062 -5.14993 0
M  V30 6757 H 620.937 -3.09062 -3.73642 0
M  V30 6758 N 622.28 1.30327 -0.886154 0
M  V30 6759 C 623.212 2.27079 -0.311072 0
M  V30 6760 C 624.225 1.53758 0.53502 0
M  V30 6761 O 625.414 1.74947 0.354378 0
M  V30 6762 C 622.514 3.33965 0.576228 0
M  V30 6763 C 621.687 4.36735 -0.241064 0
M  V30 6764 C 620.746 5.23028 0.576916 0
M  V30 6765 O 619.772 5.692 -0.000802231 0
M  V30 6766 N 620.974 5.49016 1.88579 0
M  V30 6767 H 623.739 2.77065 -1.14259 0
M  V30 6768 H 621.3 1.43519 -0.749258 0
M  V30 6769 H 623.292 3.88618 1.12953 0
M  V30 6770 H 621.862 2.839 1.30842 0
M  V30 6771 H 621.082 3.81932 -0.975805 0
M  V30 6772 H 622.37 5.02451 -0.801272 0
M  V30 6773 H 621.768 5.13288 2.37806 0
M  V30 6774 H 620.325 6.06539 2.38651 0
M  V30 6775 N 623.758 0.647228 1.43697 0
M  V30 6776 C 624.705 -0.0480092 2.3075 0
M  V30 6777 C 625.675 -0.820705 1.44408 0
M  V30 6778 O 626.86 -0.798515 1.73287 0
M  V30 6779 C 624 -1.01259 3.2991 0
M  V30 6780 C 623.113 -0.236629 4.31351 0
M  V30 6781 C 622.248 -1.19447 5.17596 0
M  V30 6782 C 621.287 -0.408595 6.10735 0
M  V30 6783 N 620.424 -1.31772 6.89623 0
M  V30 6784 H 625.264 0.700238 2.89656 0
M  V30 6785 H 622.801 0.357082 1.427 0
M  V30 6786 H 624.759 -1.58538 3.85903 0
M  V30 6787 H 623.389 -1.72778 2.72667 0
M  V30 6788 H 622.441 0.452353 3.77701 0
M  V30 6789 H 623.753 0.374731 4.9739 0
M  V30 6790 H 622.907 -1.83809 5.78186 0
M  V30 6791 H 621.646 -1.83975 4.51669 0
M  V30 6792 H 620.651 0.24841 5.49239 0
M  V30 6793 H 621.876 0.232188 6.78703 0
M  V30 6794 H 619.822 -1.94991 6.2635 0
M  V30 6795 H 619.739 -0.760779 7.52162 0
M  V30 6796 H 621.007 -1.94967 7.54724 0
M  V30 6797 N 625.236 -1.5273 0.388769 0
M  V30 6798 C 626.166 -2.29353 -0.438111 0
M  V30 6799 C 627.147 -1.32719 -1.06394 0
M  V30 6800 O 628.332 -1.61612 -1.07681 0
M  V30 6801 C 625.462 -3.09995 -1.56589 0
M  V30 6802 C 624.416 -4.14509 -1.06613 0
M  V30 6803 C 623.742 -4.83372 -2.28594 0
M  V30 6804 C 625.042 -5.22127 -0.134459 0
M  V30 6805 H 626.736 -2.98723 0.201206 0
M  V30 6806 H 624.282 -1.43665 0.0982089 0
M  V30 6807 H 626.235 -3.62357 -2.15118 0
M  V30 6808 H 624.959 -2.38357 -2.23279 0
M  V30 6809 H 623.618 -3.63128 -0.503383 0
M  V30 6810 H 623.266 -4.08283 -2.93792 0
M  V30 6811 H 622.966 -5.54012 -1.95817 0
M  V30 6812 H 624.49 -5.38538 -2.87766 0
M  V30 6813 H 625.904 -5.69851 -0.627914 0
M  V30 6814 H 624.301 -6.00011 0.103534 0
M  V30 6815 H 625.371 -4.77971 0.816798 0
M  V30 6816 N 626.714 -0.118576 -1.57153 0
M  V30 6817 C 627.939 0.550582 -1.99958 0
M  V30 6818 C 628.364 1.59458 -0.997736 0
M  V30 6819 O 627.722 1.81274 0.0306269 0
M  V30 6820 C 627.77 1.15379 -3.41643 0
M  V30 6821 O 626.874 2.26932 -3.44348 0
M  V30 6822 H 626.215 0.137567 -0.649593 0
M  V30 6823 H 628.745 -0.206926 -2.03551 0
M  V30 6824 H 628.755 1.48942 -3.79843 0
M  V30 6825 H 627.43 0.389087 -4.14076 0
M  V30 6826 H 626.007 1.94812 -3.17967 0
M  V30 6827 N 628.193 1.56834 0.155195 0
M  V30 6828 C 629.418 1.87412 0.888337 0
M  V30 6829 C 629.843 0.70671 1.74319 0
M  V30 6830 O 629.201 -0.343892 1.78009 0
M  V30 6831 C 629.249 3.1652 1.72765 0
M  V30 6832 O 628.353 2.99877 2.83103 0
M  V30 6833 H 627.694 0.615983 0.247914 0
M  V30 6834 H 630.224 2.04061 0.148478 0
M  V30 6835 H 630.234 3.48334 2.12433 0
M  V30 6836 H 628.909 4.01094 1.09985 0
M  V30 6837 H 627.486 2.79453 2.46902 0
M  V30 6838 N 629.671 -0.424282 1.51781 0
M  V30 6839 C 630.581 -1.54087 1.76902 0
M  V30 6840 C 631.597 -1.61249 0.653826 0
M  V30 6841 O 632.773 -1.78247 0.937552 0
M  V30 6842 C 629.838 -2.8996 1.90063 0
M  V30 6843 C 628.899 -2.92809 3.13945 0
M  V30 6844 C 628.132 -4.22201 3.26469 0
M  V30 6845 O 628.355 -5.15286 2.44616 0
M  V30 6846 O 627.289 -4.31599 4.1953 0
M  V30 6847 H 631.115 -1.358 2.71647 0
M  V30 6848 H 628.7 -0.608618 1.36441 0
M  V30 6849 H 630.582 -3.70575 2.0063 0
M  V30 6850 H 629.257 -3.08347 0.985067 0
M  V30 6851 H 628.164 -2.11102 3.08847 0
M  V30 6852 H 629.497 -2.79369 4.05233 0
M  V30 6853 N 631.149 -1.42148 -0.680565 0
M  V30 6854 C 632.374 -1.45901 -1.47403 0
M  V30 6855 C 632.799 -0.0700985 -1.87969 0
M  V30 6856 O 632.157 0.930145 -1.55621 0
M  V30 6857 C 632.205 -2.38661 -2.70321 0
M  V30 6858 O 631.309 -1.85399 -3.68376 0
M  V30 6859 H 630.65 -0.494565 -0.443059 0
M  V30 6860 H 633.18 -1.86774 -0.835251 0
M  V30 6861 H 633.19 -2.55046 -3.18458 0
M  V30 6862 H 631.865 -3.39571 -2.40134 0
M  V30 6863 H 630.442 -1.78541 -3.2738 0
M  V30 6864 N 632.627 0.916307 -1.28225 0
M  V30 6865 C 633.873 1.66765 -1.154 0
M  V30 6866 C 634.206 1.91912 0.297251 0
M  V30 6867 O 633.481 1.51766 1.21644 0
M  V30 6868 C 633.764 3.02715 -1.95028 0
M  V30 6869 C 633.617 2.84738 -3.48201 0
M  V30 6870 C 634.936 4.03215 -1.76369 0
M  V30 6871 H 632.055 0.605205 -0.42059 0
M  V30 6872 H 634.697 1.06255 -1.57512 0
M  V30 6873 H 632.847 3.54365 -1.59242 0
M  V30 6874 H 634.519 2.40118 -3.9388 0
M  V30 6875 H 632.762 2.19848 -3.73964 0
M  V30 6876 H 633.433 3.8127 -3.99171 0
M  V30 6877 H 635.909 3.60617 -2.07593 0
M  V30 6878 H 634.785 4.96306 -2.34459 0
M  V30 6879 H 635.046 4.36288 -0.71452 0
M  V30 6880 N 634.105 1.10431 1.1244 0
M  V30 6881 C 635.351 0.847972 1.84221 0
M  V30 6882 C 635.684 -0.624903 1.83871 0
M  V30 6883 O 634.959 -1.46074 1.28423 0
M  V30 6884 C 635.242 1.39695 3.319 0
M  V30 6885 C 635.095 2.93668 3.40704 0
M  V30 6886 C 636.414 1.03924 4.27654 0
M  V30 6887 H 633.533 0.309502 0.668863 0
M  V30 6888 H 636.175 1.36745 1.31912 0
M  V30 6889 H 634.325 0.955095 3.76577 0
M  V30 6890 H 635.997 3.46379 3.04662 0
M  V30 6891 H 634.24 3.30272 2.81252 0
M  V30 6892 H 634.911 3.27162 4.446 0
M  V30 6893 H 637.387 1.42049 3.91102 0
M  V30 6894 H 636.263 1.45027 5.29394 0
M  V30 6895 H 636.524 -0.051336 4.4207 0
M  V30 6896 N 635.583 -1.29855 0.893053 0
M  V30 6897 C 636.86 -1.90694 0.435336 0
M  V30 6898 C 637.24 -1.8111 -1.08454 0
M  V30 6899 O 636.588 -1.23352 -1.92345 0
M  V30 6900 C 636.798 -3.36033 0.942472 0
M  V30 6901 C 638.146 -4.13083 0.982226 0
M  V30 6902 O 639.17 -3.4491 0.889686 0
M  V30 6903 O 638.029 -5.34896 1.12022 0
M  V30 6904 H 635.123 -0.815978 0.134567 0
M  V30 6905 H 637.669 -1.38367 0.982484 0
M  V30 6906 H 636.441 -3.37132 1.9864 0
M  V30 6907 H 636.064 -3.95828 0.374952 0
M  V30 6908 N 637.061 -0.65484 -1.43351 0
M  V30 6909 C 637.991 0.0221809 -2.33489 0
M  V30 6910 C 638.972 0.810272 -1.49561 0
M  V30 6911 O 640.157 0.771426 -1.78221 0
M  V30 6912 C 637.287 0.988117 -3.32947 0
M  V30 6913 C 636.241 0.310026 -4.26876 0
M  V30 6914 C 635.567 1.38752 -5.16384 0
M  V30 6915 C 636.867 -0.798589 -5.16159 0
M  V30 6916 H 638.561 -0.730571 -2.9035 0
M  V30 6917 H 636.107 -0.352773 -1.39612 0
M  V30 6918 H 638.06 1.47067 -3.94904 0
M  V30 6919 H 636.784 1.77205 -2.74346 0
M  V30 6920 H 635.443 -0.152097 -3.66284 0
M  V30 6921 H 635.091 2.16293 -4.54121 0
M  V30 6922 H 634.791 0.939051 -5.80048 0
M  V30 6923 H 636.315 1.87141 -5.81215 0
M  V30 6924 H 637.729 -0.398126 -5.71916 0
M  V30 6925 H 636.126 -1.17163 -5.88552 0
M  V30 6926 H 637.196 -1.65588 -4.55751 0
M  V30 6927 N 638.539 1.52521 -0.396863 0
M  V30 6928 C 639.786 2.01672 0.182898 0
M  V30 6929 C 640.114 1.28302 1.46181 0
M  V30 6930 O 639.369 0.374118 1.92091 0
M  V30 6931 C 639.668 3.5403 0.489677 0
M  V30 6932 C 639.334 4.45456 -0.698581 0
M  V30 6933 C 637.996 4.70166 -1.02454 0
M  V30 6934 C 640.348 4.99354 -1.49316 0
M  V30 6935 C 637.676 5.46024 -2.1465 0
M  V30 6936 C 640.028 5.76439 -2.60579 0
M  V30 6937 C 638.692 5.99426 -2.93675 0
M  V30 6938 H 637.962 0.737971 0.066927 0
M  V30 6939 H 640.609 1.83853 -0.535764 0
M  V30 6940 H 638.914 3.69963 1.28976 0
M  V30 6941 H 640.611 3.8956 0.951018 0
M  V30 6942 H 637.201 4.26392 -0.434525 0
M  V30 6943 H 641.385 4.80182 -1.25457 0
M  V30 6944 H 636.641 5.62046 -2.40654 0
M  V30 6945 H 640.815 6.17202 -3.22544 0
M  V30 6946 H 638.442 6.57988 -3.80731 0
M  V30 6947 N 640.017 0.126909 1.57088 0
M  V30 6948 C 641.245 -0.53667 1.99819 0
M  V30 6949 C 641.66 -1.5972 1.00673 0
M  V30 6950 O 641.017 -1.825 0.000747365 0
M  V30 6951 C 641.068 -1.15563 3.42531 0
M  V30 6952 O 640.789 -0.137483 4.37884 0
M  V30 6953 C 642.29 -1.90176 4.00435 0
M  V30 6954 H 639.51 -0.141443 0.655923 0
M  V30 6955 H 642.054 0.215578 2.03361 0
M  V30 6956 H 640.209 -1.85861 3.39904 0
M  V30 6957 H 640.623 -0.588229 5.21191 0
M  V30 6958 H 642.097 -2.28801 5.02349 0
M  V30 6959 H 642.574 -2.78002 3.40017 0
M  V30 6960 H 643.18 -1.24623 4.06632 0
M  V30 6961 N 641.495 -1.56914 -0.146875 0
M  V30 6962 C 642.442 -1.98275 -1.18134 0
M  V30 6963 C 643.412 -0.850367 -1.42681 0
M  V30 6964 O 644.597 -1.11244 -1.55014 0
M  V30 6965 C 641.737 -2.36861 -2.5098 0
M  V30 6966 C 640.85 -3.63391 -2.33605 0
M  V30 6967 C 639.985 -3.91079 -3.59486 0
M  V30 6968 C 639.024 -5.10879 -3.37149 0
M  V30 6969 N 638.161 -5.34577 -4.55161 0
M  V30 6970 H 643.001 -2.8645 -0.821622 0
M  V30 6971 H 640.538 -1.41718 -0.394248 0
M  V30 6972 H 642.496 -2.57262 -3.28439 0
M  V30 6973 H 641.126 -1.51766 -2.84898 0
M  V30 6974 H 640.178 -3.50766 -1.47199 0
M  V30 6975 H 641.49 -4.51007 -2.13059 0
M  V30 6976 H 640.644 -4.11979 -4.45374 0
M  V30 6977 H 639.383 -3.01885 -3.83036 0
M  V30 6978 H 638.388 -4.89853 -2.49649 0
M  V30 6979 H 639.613 -6.01626 -3.14997 0
M  V30 6980 H 637.559 -4.48337 -4.78884 0
M  V30 6981 H 637.476 -6.16463 -4.37618 0
M  V30 6982 H 638.744 -5.59975 -5.42263 0
M  V30 6983 N 642.974 0.416227 -1.52004 0
M  V30 6984 C 644.22 1.16555 -1.6596 0
M  V30 6985 C 644.553 1.90347 -0.384906 0
M  V30 6986 O 643.828 1.84474 0.616405 0
M  V30 6987 C 644.111 2.1657 -2.87696 0
M  V30 6988 C 643.964 1.46722 -4.25197 0
M  V30 6989 C 645.283 3.17321 -3.04951 0
M  V30 6990 H 642.402 0.422369 -0.603965 0
M  V30 6991 H 645.044 0.452141 -1.84542 0
M  V30 6992 H 643.194 2.77411 -2.71985 0
M  V30 6993 H 644.866 0.89056 -4.52622 0
M  V30 6994 H 643.109 0.769263 -4.26925 0
M  V30 6995 H 643.78 2.19665 -5.0641 0
M  V30 6996 H 646.256 2.66552 -3.19514 0
M  V30 6997 H 645.132 3.84573 -3.91656 0
M  V30 6998 H 645.393 3.84643 -2.17951 0
M  V30 6999 N 644.452 1.42507 0.673017 0
M  V30 7000 C 645.692 1.44559 1.44507 0
M  V30 7001 C 646.056 0.0606206 1.91904 0
M  V30 7002 O 647.257 -0.044139 2.68764 0
M  V30 7003 C 645.528 2.44291 2.60877 0
M  V30 7004 S 647.087 2.65059 3.49699 0
M  V30 7005 H 643.905 0.51181 0.49353 0
M  V30 7006 H 646.507 1.79124 0.783256 0
M  V30 7007 H 645.211 3.43685 2.24297 0
M  V30 7008 H 644.742 2.11157 3.31928 0
M  V30 7009 H 646.757 1.93494 4.56919 0
M  V30 7010 N 645.93 -0.909495 1.28709 0
M  V30 7011 C 646.86 -2.0291 1.15542 0
M  V30 7012 C 647.841 -1.7002 0.0521017 0
M  V30 7013 O 649.026 -1.92835 0.229849 0
M  V30 7014 C 646.156 -3.37458 0.820935 0
M  V30 7015 C 645.11 -3.84524 1.87949 0
M  V30 7016 C 644.436 -5.16086 1.39854 0
M  V30 7017 C 645.736 -4.05918 3.28676 0
M  V30 7018 H 647.43 -2.14183 2.09203 0
M  V30 7019 H 644.976 -1.02913 1.00722 0
M  V30 7020 H 646.929 -4.1528 0.715571 0
M  V30 7021 H 645.653 -3.26249 -0.151374 0
M  V30 7022 H 644.312 -3.08911 1.97408 0
M  V30 7023 H 643.96 -5.01284 0.41518 0
M  V30 7024 H 643.66 -5.48547 2.1064 0
M  V30 7025 H 645.184 -5.96459 1.30649 0
M  V30 7026 H 646.598 -4.74252 3.22115 0
M  V30 7027 H 644.995 -4.49717 3.97334 0
M  V30 7028 H 646.065 -3.10583 3.72379 0
M  V30 7029 N 647.408 -1.11026 -1.11852 0
M  V30 7030 C 648.824 -0.843294 -1.35502 0
M  V30 7031 C 649.024 0.534179 -1.9429 0
M  V30 7032 O 648.08 1.28585 -2.17307 0
M  V30 7033 C 649.393 -1.94793 -2.29077 0
M  V30 7034 C 650.941 -1.97709 -2.42652 0
M  V30 7035 C 651.416 -3.07364 -3.39546 0
M  V30 7036 N 652.907 -3.0671 -3.47107 0
M  V30 7037 C 653.642 -3.88197 -4.22008 0
M  V30 7038 N 653.138 -4.79635 -4.99922 0
M  V30 7039 N 654.931 -3.76391 -4.17476 0
M  V30 7040 H 647.082 -1.99805 -0.720538 0
M  V30 7041 H 649.345 -0.868633 -0.379711 0
M  V30 7042 H 649.051 -2.93971 -1.93065 0
M  V30 7043 H 648.925 -1.84039 -3.29256 0
M  V30 7044 H 651.312 -0.991604 -2.77941 0
M  V30 7045 H 651.393 -2.1254 -1.4234 0
M  V30 7046 H 651.037 -4.06136 -3.04985 0
M  V30 7047 H 650.967 -2.89774 -4.39703 0
M  V30 7048 H 653.458 -2.40457 -2.91528 0
M  V30 7049 H 653.771 -5.38357 -5.54429 0
M  V30 7050 H 652.116 -4.8366 -4.99097 0
M  V30 7051 H 655.307 -3.04303 -3.55693 0
M  V30 7052 H 655.48 -4.40131 -4.75593 0
M  V30 7053 N 648.886 1.2938 -0.899927 0
M  V30 7054 C 649.816 2.30144 -0.39446 0
M  V30 7055 C 650.797 1.61611 0.530639 0
M  V30 7056 O 651.982 1.89119 0.441319 0
M  V30 7057 C 649.112 3.45229 0.37868 0
M  V30 7058 C 648.066 4.25564 -0.456012 0
M  V30 7059 C 647.392 5.32848 0.444637 0
M  V30 7060 C 648.692 4.93651 -1.70605 0
M  V30 7061 H 650.386 2.72673 -1.23653 0
M  V30 7062 H 647.932 1.31086 -0.596034 0
M  V30 7063 H 649.885 4.14797 0.743037 0
M  V30 7064 H 648.609 3.01545 1.25453 0
M  V30 7065 H 647.268 3.57704 -0.802704 0
M  V30 7066 H 646.916 4.85408 1.31863 0
M  V30 7067 H 646.616 5.87497 -0.110154 0
M  V30 7068 H 648.14 6.05268 0.805182 0
M  V30 7069 H 649.554 5.55655 -1.41141 0
M  V30 7070 H 647.951 5.58233 -2.20217 0
M  V30 7071 H 649.021 4.18926 -2.4419 0
M  V30 7072 N 650.364 0.662433 1.43002 0
M  V30 7073 C 651.592 0.187615 2.06048 0
M  V30 7074 C 652.007 -1.15039 1.49705 0
M  V30 7075 O 651.364 -1.71209 0.631956 0
M  V30 7076 C 651.415 0.100498 3.6136 0
M  V30 7077 O 651.136 1.38562 4.15611 0
M  V30 7078 C 652.637 -0.399298 4.41498 0
M  V30 7079 H 649.857 0.0941675 0.664359 0
M  V30 7080 H 652.401 0.905681 1.83351 0
M  V30 7081 H 650.556 -0.568181 3.83211 0
M  V30 7082 H 650.97 1.25084 5.09366 0
M  V30 7083 H 652.444 -0.409187 5.50481 0
M  V30 7084 H 652.921 -1.43232 4.15188 0
M  V30 7085 H 653.527 0.23721 4.24638 0
M  V30 7086 N 651.842 -1.52309 0.404946 0
M  V30 7087 C 652.789 -2.26898 -0.422597 0
M  V30 7088 C 653.759 -1.2914 -1.04461 0
M  V30 7089 O 654.944 -1.57996 -1.06967 0
M  V30 7090 C 652.084 -3.09053 -1.53559 0
M  V30 7091 C 651.197 -4.21762 -0.934908 0
M  V30 7092 C 650.332 -4.91283 -2.02025 0
M  V30 7093 C 649.371 -5.95962 -1.39628 0
M  V30 7094 N 648.508 -6.59017 -2.42159 0
M  V30 7095 H 653.348 -2.97188 0.219903 0
M  V30 7096 H 650.885 -1.46607 0.120282 0
M  V30 7097 H 652.843 -3.54987 -2.19181 0
M  V30 7098 H 651.473 -2.40942 -2.14818 0
M  V30 7099 H 650.525 -3.80029 -0.167854 0
M  V30 7100 H 651.837 -4.96864 -0.439073 0
M  V30 7101 H 650.991 -5.40601 -2.75383 0
M  V30 7102 H 649.73 -4.15741 -2.54973 0
M  V30 7103 H 648.735 -5.45968 -0.648023 0
M  V30 7104 H 649.96 -6.73445 -0.874553 0
M  V30 7105 H 647.906 -5.86306 -2.94247 0
M  V30 7106 H 647.823 -7.2978 -1.97376 0
M  V30 7107 H 649.091 -7.12974 -3.15099 0
M  V30 7108 N 653.32 -0.135238 -1.57019 0
M  V30 7109 C 654.268 0.826099 -2.17436 0
M  V30 7110 C 655.262 1.26378 -1.12805 0
M  V30 7111 O 656.468 1.23363 -1.31079 0
M  V30 7112 H 652.843 0.284568 -0.696078 0
M  V30 7113 H 654.814 0.292212 -2.96966 0
M  V30 7114 C 653.563 2.05991 -2.80112 0
M  V30 7115 H 652.886 1.73209 -3.60331 0
M  V30 7116 H 654.326 2.71225 -3.25903 0
M  V30 7117 C 652.785 2.86027 -1.78017 0
M  V30 7118 O 653.315 3.81971 -1.24344 0
M  V30 7119 N 651.521 2.50332 -1.47588 0
M  V30 7120 H 651.068 1.72377 -1.91426 0
M  V30 7121 H 651.026 3.04177 -0.795228 0
M  V30 7122 N 654.798 1.5699 0.138552 0
M  V30 7123 C 656.023 1.88344 0.86841 0
M  V30 7124 C 656.448 0.725159 1.7356 0
M  V30 7125 O 655.806 -0.324992 1.78363 0
M  V30 7126 C 655.854 3.18334 1.69398 0
M  V30 7127 O 654.958 3.02863 2.79907 0
M  V30 7128 H 654.299 0.618577 0.241367 0
M  V30 7129 H 656.829 2.04207 0.126826 0
M  V30 7130 H 656.839 3.50567 2.08726 0
M  V30 7131 H 655.514 4.02238 1.05725 0
M  V30 7132 H 654.091 2.82056 2.43924 0
M  V30 7133 N 656.276 -0.40816 1.52223 0
M  V30 7134 C 657.692 -0.74685 1.41047 0
M  V30 7135 C 657.892 -1.94788 0.51573 0
M  V30 7136 O 656.948 -2.52494 -0.0181156 0
M  V30 7137 C 658.261 -0.999878 2.83589 0
M  V30 7138 C 659.809 -1.10253 2.92939 0
M  V30 7139 C 660.284 -1.38832 4.36451 0
M  V30 7140 N 661.775 -1.45694 4.3969 0
M  V30 7141 C 662.51 -1.69435 5.47795 0
M  V30 7142 N 662.006 -1.90774 6.66016 0
M  V30 7143 N 663.799 -1.71458 5.35312 0
M  V30 7144 H 655.95 0.382409 2.08929 0
M  V30 7145 H 658.213 0.108807 0.941735 0
M  V30 7146 H 657.919 -0.189723 3.51188 0
M  V30 7147 H 657.793 -1.91978 3.24691 0
M  V30 7148 H 660.18 -1.90328 2.2552 0
M  V30 7149 H 660.261 -0.160973 2.55293 0
M  V30 7150 H 659.905 -0.592741 5.04429 0
M  V30 7151 H 659.835 -2.34241 4.71634 0
M  V30 7152 H 662.326 -1.3099 3.54472 0
M  V30 7153 H 662.639 -2.08342 7.44186 0
M  V30 7154 H 660.984 -1.88037 6.69079 0
M  V30 7155 H 664.175 -1.54326 4.41929 0
M  V30 7156 H 664.348 -1.89621 6.19635 0
M  V30 7157 N 657.755 -1.42862 -0.66545 0
M  V30 7158 C 659.032 -1.3431 -1.42197 0
M  V30 7159 C 659.412 0.0150265 -2.11095 0
M  V30 7160 O 658.76 1.03101 -2.03918 0
M  V30 7161 C 658.97 -2.51783 -2.41674 0
M  V30 7162 C 660.318 -2.94321 -3.0604 0
M  V30 7163 O 661.342 -2.51741 -2.52001 0
M  V30 7164 O 660.201 -3.68047 -4.03985 0
M  V30 7165 H 657.295 -0.530159 -0.634713 0
M  V30 7166 H 659.841 -1.54888 -0.693386 0
M  V30 7167 H 658.613 -3.42282 -1.89627 0
M  V30 7168 H 658.236 -2.33241 -3.22001 0
M  V30 7169 N 659.233 0.902656 -1.29189 0
M  V30 7170 C 660.51 1.63296 -1.07674 0
M  V30 7171 C 660.89 2.07649 0.380137 0
M  V30 7172 O 660.238 1.82997 1.36837 0
M  V30 7173 C 660.448 2.81603 -2.06158 0
M  V30 7174 C 661.796 3.52359 -2.36914 0
M  V30 7175 O 662.82 2.91767 -2.04329 0
M  V30 7176 O 661.679 4.61586 -2.92576 0
M  V30 7177 H 658.773 0.716889 -0.41231 0
M  V30 7178 H 661.319 0.950984 -1.4055 0
M  V30 7179 H 660.091 2.46004 -3.04299 0
M  V30 7180 H 659.714 3.57508 -1.73993 0
M  V30 7181 N 660.711 1.11618 1.11262 0
M  V30 7182 C 661.936 0.889013 1.8738 0
M  V30 7183 C 662.361 -0.555884 1.79698 0
M  V30 7184 O 661.719 -1.39272 1.16073 0
M  V30 7185 C 661.767 1.35759 3.34069 0
M  V30 7186 O 660.871 0.530499 4.08974 0
M  V30 7187 H 660.212 0.320082 0.581759 0
M  V30 7188 H 662.742 1.48611 1.40627 0
M  V30 7189 H 662.752 1.35291 3.84916 0
M  V30 7190 H 661.427 2.40973 3.38976 0
M  V30 7191 H 660.004 0.601439 3.68018 0
M  V30 7192 N 662.189 -1.289 0.906776 0
M  V30 7193 C 663.417 -1.99401 0.551969 0
M  V30 7194 C 663.832 -1.67816 -0.865048 0
M  V30 7195 O 663.189 -0.927078 -1.57199 0
M  V30 7196 C 663.24 -3.53779 0.743152 0
M  V30 7197 O 662.961 -3.84248 2.1044 0
M  V30 7198 C 664.462 -4.41543 0.39424 0
M  V30 7199 H 661.682 -0.636926 0.211106 0
M  V30 7200 H 664.226 -1.64266 1.21807 0
M  V30 7201 H 662.381 -3.87201 0.124143 0
M  V30 7202 H 662.795 -4.78904 2.13895 0
M  V30 7203 H 664.269 -5.48957 0.578814 0
M  V30 7204 H 664.746 -4.34073 -0.669137 0
M  V30 7205 H 665.352 -4.13605 0.990491 0
M  V30 7206 N 663.667 -0.670007 -1.42649 0
M  V30 7207 C 664.907 -0.194106 -2.03476 0
M  V30 7208 C 665.271 1.1755 -1.51809 0
M  V30 7209 O 666.472 1.74579 -2.04391 0
M  V30 7210 C 664.743 -0.221828 -3.56711 0
M  V30 7211 S 666.302 0.183772 -4.38415 0
M  V30 7212 H 663.12 -0.0802478 -0.706457 0
M  V30 7213 H 665.722 -0.882092 -1.74469 0
M  V30 7214 H 664.426 -1.22107 -3.91814 0
M  V30 7215 H 663.957 0.486149 -3.90385 0
M  V30 7216 H 665.972 1.41839 -4.75496 0
M  V30 7217 N 665.145 1.52092 -0.413018 0
M  V30 7218 C 666.394 2.01041 0.16287 0
M  V30 7219 C 666.707 1.30288 1.45892 0
M  V30 7220 O 667.913 1.70075 2.11629 0
M  V30 7221 C 666.369 3.58283 0.340806 0
M  V30 7222 C 665.977 4.37955 -0.943377 0
M  V30 7223 C 667.721 4.15452 0.871774 0
M  V30 7224 C 665.628 5.86847 -0.732417 0
M  V30 7225 H 664.558 0.751224 0.0646414 0
M  V30 7226 H 667.209 1.75404 -0.539059 0
M  V30 7227 H 665.591 3.80266 1.10516 0
M  V30 7228 H 666.765 4.2773 -1.71418 0
M  V30 7229 H 665.08 3.92122 -1.40105 0
M  V30 7230 H 667.677 5.24375 1.0457 0
M  V30 7231 H 668.02 3.73057 1.84755 0
M  V30 7232 H 668.553 3.97452 0.166377 0
M  V30 7233 H 665.292 6.33609 -1.67986 0
M  V30 7234 H 664.812 5.998 -0.000980058 0
M  V30 7235 H 666.491 6.45906 -0.376105 0
M  V30 7236 N 666.623 0.143563 1.56945 0
M  V30 7237 C 667.57 -0.797433 2.16586 0
M  V30 7238 C 668.54 -1.24654 1.09775 0
M  V30 7239 O 669.725 -1.31968 1.37801 0
M  V30 7240 C 666.865 -2.03253 2.78895 0
M  V30 7241 C 665.978 -1.62954 4.00087 0
M  V30 7242 C 665.113 -2.81617 4.50406 0
M  V30 7243 C 664.152 -2.37675 5.64072 0
M  V30 7244 N 663.289 -3.49335 6.09023 0
M  V30 7245 H 668.129 -0.282023 2.96662 0
M  V30 7246 H 665.666 -0.127494 1.46546 0
M  V30 7247 H 667.624 -2.75653 3.13163 0
M  V30 7248 H 666.254 -2.52211 2.01469 0
M  V30 7249 H 665.306 -0.803322 3.71821 0
M  V30 7250 H 666.618 -1.26679 4.82446 0
M  V30 7251 H 665.772 -3.62212 4.86711 0
M  V30 7252 H 664.511 -3.21134 3.67048 0
M  V30 7253 H 663.516 -1.55519 5.27346 0
M  V30 7254 H 664.741 -1.99247 6.49213 0
M  V30 7255 H 662.687 -3.8848 5.28601 0
M  V30 7256 H 662.604 -3.17064 6.86299 0
M  V30 7257 H 663.872 -4.30297 6.49973 0
M  V30 7258 N 668.101 -1.57061 -0.130224 0
M  V30 7259 C 669.347 -1.8453 -0.841216 0
M  V30 7260 C 669.68 -0.727666 -1.80052 0
M  V30 7261 O 668.955 0.267419 -1.92653 0
M  V30 7262 C 669.238 -3.22553 -1.60099 0
M  V30 7263 C 669.091 -4.44901 -0.662048 0
M  V30 7264 C 670.41 -3.58003 -2.55973 0
M  V30 7265 H 667.529 -0.671215 -0.304366 0
M  V30 7266 H 670.171 -1.89705 -0.105821 0
M  V30 7267 H 668.321 -3.18272 -2.22789 0
M  V30 7268 H 669.993 -4.61278 -0.0448559 0
M  V30 7269 H 668.236 -4.33791 0.0272253 0
M  V30 7270 H 668.907 -5.3812 -1.23006 0
M  V30 7271 H 671.383 -3.63002 -2.03393 0
M  V30 7272 H 670.259 -4.55576 -3.06172 0
M  V30 7273 H 670.52 -2.84833 -3.38116 0
M  V30 7274 N 669.579 0.400081 -1.52437 0
M  V30 7275 C 670.526 1.48803 -1.76426 0
M  V30 7276 C 671.496 1.5461 -0.607032 0
M  V30 7277 O 672.681 1.71041 -0.845563 0
M  V30 7278 C 669.821 2.86156 -1.92896 0
M  V30 7279 C 668.934 2.89587 -3.20567 0
M  V30 7280 C 668.069 4.18296 -3.27417 0
M  V30 7281 C 667.108 4.15736 -4.49255 0
M  V30 7282 N 666.245 5.36032 -4.53447 0
M  V30 7283 H 671.085 1.27649 -2.69276 0
M  V30 7284 H 668.622 0.619451 -1.33421 0
M  V30 7285 H 670.58 3.65901 -2.00429 0
M  V30 7286 H 669.21 3.05785 -1.03418 0
M  V30 7287 H 668.262 2.02278 -3.22161 0
M  V30 7288 H 669.574 2.83562 -4.10358 0
M  V30 7289 H 668.728 5.06439 -3.34072 0
M  V30 7290 H 667.467 4.27028 -2.35581 0
M  V30 7291 H 666.472 3.25982 -4.42737 0
M  V30 7292 H 667.697 4.08636 -5.42396 0
M  V30 7293 H 665.643 5.45415 -3.64498 0
M  V30 7294 H 665.56 5.32038 -5.37096 0
M  V30 7295 H 666.828 6.26104 -4.64343 0
M  V30 7296 N 671.057 1.43213 0.657864 0
M  V30 7297 C 672.005 1.48271 1.79216 0
M  V30 7298 C 672.999 0.35675 1.65601 0
M  V30 7299 O 674.205 0.530535 1.72004 0
M  V30 7300 H 670.58 0.464729 0.591211 0
M  V30 7301 H 672.551 2.43792 1.7207 0
M  V30 7302 C 671.3 1.41837 3.17455 0
M  V30 7303 H 670.623 2.27781 3.28567 0
M  V30 7304 H 672.063 1.49438 3.96793 0
M  V30 7305 C 670.522 0.135347 3.36628 0
M  V30 7306 O 671.052 -0.805199 3.93547 0
M  V30 7307 N 669.258 0.0470316 2.90562 0
M  V30 7308 H 668.805 0.813221 2.44427 0
M  V30 7309 H 668.763 -0.810737 3.03767 0
M  V30 7310 N 672.536 -0.895792 1.29666 0
M  V30 7311 C 673.484 -2.02173 1.15017 0
M  V30 7312 C 674.478 -1.69276 0.0647651 0
M  V30 7313 O 675.684 -1.7859 0.224846 0
M  V30 7314 H 672.059 -0.662719 0.355397 0
M  V30 7315 H 674.03 -2.11666 2.10334 0
M  V30 7316 C 672.779 -3.37212 0.847555 0
M  V30 7317 H 672.102 -3.6303 1.67479 0
M  V30 7318 H 673.542 -4.16668 0.785106 0
M  V30 7319 C 672.001 -3.33891 -0.44929 0
M  V30 7320 O 672.531 -3.73673 -1.47415 0
M  V30 7321 N 670.737 -2.86991 -0.456547 0
M  V30 7322 H 670.284 -2.54813 0.377925 0
M  V30 7323 H 670.242 -2.85152 -1.32423 0
M  V30 7324 N 674.014 -1.12206 -1.10668 0
M  V30 7325 C 675.43 -0.857619 -1.346 0
M  V30 7326 C 675.63 0.513542 -1.94846 0
M  V30 7327 O 674.686 1.26273 -2.18658 0
M  V30 7328 C 675.999 -1.97212 -2.26998 0
M  V30 7329 C 677.547 -2.00272 -2.40542 0
M  V30 7330 C 678.022 -3.10948 -3.36267 0
M  V30 7331 N 679.513 -3.10375 -3.43834 0
M  V30 7332 C 680.248 -3.92651 -4.17867 0
M  V30 7333 N 679.744 -4.84911 -4.94807 0
M  V30 7334 N 681.537 -3.80798 -4.1346 0
M  V30 7335 H 673.688 -2.00558 -0.699306 0
M  V30 7336 H 675.951 -0.872612 -0.370477 0
M  V30 7337 H 675.657 -2.96002 -1.89936 0
M  V30 7338 H 675.531 -1.87521 -3.27286 0
M  V30 7339 H 677.918 -1.02103 -2.76874 0
M  V30 7340 H 677.999 -2.14037 -1.40077 0
M  V30 7341 H 677.643 -4.09348 -3.00661 0
M  V30 7342 H 677.573 -2.94421 -4.36605 0
M  V30 7343 H 680.064 -2.43536 -2.88961 0
M  V30 7344 H 680.377 -5.44207 -5.48688 0
M  V30 7345 H 678.722 -4.88926 -4.93939 0
M  V30 7346 H 681.913 -3.08058 -3.52445 0
M  V30 7347 H 682.086 -4.4515 -4.70898 0
M  V30 7348 N 675.492 1.28418 -0.913599 0
M  V30 7349 C 676.422 2.29713 -0.418847 0
M  V30 7350 C 677.403 1.62165 0.513469 0
M  V30 7351 O 678.588 1.89576 0.421235 0
M  V30 7352 C 675.718 3.45612 0.342042 0
M  V30 7353 C 674.672 4.25056 -0.501123 0
M  V30 7354 C 673.998 5.3329 0.388097 0
M  V30 7355 C 675.298 4.91814 -1.75831 0
M  V30 7356 H 676.992 2.71346 -1.26538 0
M  V30 7357 H 674.538 1.30446 -0.609903 0
M  V30 7358 H 676.491 4.15562 0.699 0
M  V30 7359 H 675.215 3.02858 1.22248 0
M  V30 7360 H 673.874 3.56833 -0.840598 0
M  V30 7361 H 673.522 4.8678 1.26707 0
M  V30 7362 H 673.222 5.87347 -0.172459 0
M  V30 7363 H 674.746 6.06088 0.74094 0
M  V30 7364 H 676.16 5.54126 -1.47026 0
M  V30 7365 H 674.557 5.55866 -2.26126 0
M  V30 7366 H 675.627 4.16313 -2.4862 0
M  V30 7367 N 676.97 0.677563 1.42291 0
M  V30 7368 C 678.381 0.277912 1.8462 0
M  V30 7369 C 678.732 -1.18048 1.56714 0
M  V30 7370 O 677.857 -1.90404 1.02836 0
M  V30 7371 C 678.452 0.497619 3.35126 0
M  V30 7372 C 677.011 0.152063 3.76093 0
M  V30 7373 C 676.158 0.78872 2.65847 0
M  V30 7374 H 679.109 0.879527 1.32098 0
M  V30 7375 H 679.13 -0.24939 3.79682 0
M  V30 7376 H 678.642 1.55913 3.55405 0
M  V30 7377 H 676.743 -0.905896 3.6142 0
M  V30 7378 H 676.856 0.594514 4.75397 0
M  V30 7379 H 675.22 0.219813 2.5375 0
M  V30 7380 H 676.003 1.85374 2.88949 0
M  V30 7381 N 678.448 -1.51871 0.421078 0
M  V30 7382 C 679.678 -2.06057 -0.149723 0
M  V30 7383 C 680.086 -1.29002 -1.38402 0
M  V30 7384 O 679.429 -0.338385 -1.80556 0
M  V30 7385 C 679.491 -3.55216 -0.553339 0
M  V30 7386 C 679.155 -4.53408 0.571879 0
M  V30 7387 C 680.152 -4.99586 1.4391 0
M  V30 7388 C 677.837 -4.967 0.747979 0
M  V30 7389 C 679.831 -5.87711 2.46727 0
M  V30 7390 C 677.518 -5.84619 1.77944 0
M  V30 7391 C 678.516 -6.30021 2.63748 0
M  V30 7392 O 678.204 -7.16197 3.65126 0
M  V30 7393 H 677.936 -0.675744 -0.0186102 0
M  V30 7394 H 680.49 -1.96618 0.594166 0
M  V30 7395 H 678.72 -3.62381 -1.34969 0
M  V30 7396 H 680.409 -3.91992 -1.05342 0
M  V30 7397 H 681.175 -4.66846 1.31451 0
M  V30 7398 H 677.054 -4.60913 0.0897357 0
M  V30 7399 H 680.598 -6.2307 3.13734 0
M  V30 7400 H 676.495 -6.16771 1.90429 0
M  V30 7401 H 677.263 -7.34337 3.61512 0
M  V30 7402 N 679.926 -0.151884 -1.56866 0
M  V30 7403 C 681.172 0.498742 -1.96572 0
M  V30 7404 C 681.505 1.64194 -1.03702 0
M  V30 7405 O 680.78 1.94334 -0.0803432 0
M  V30 7406 C 681.063 1.00027 -3.45929 0
M  V30 7407 C 680.916 -0.141767 -4.49577 0
M  V30 7408 C 682.235 1.88044 -3.97904 0
M  V30 7409 H 679.354 0.17982 -0.714726 0
M  V30 7410 H 681.996 -0.234097 -1.88552 0
M  V30 7411 H 680.146 1.62476 -3.52894 0
M  V30 7412 H 681.818 -0.778269 -4.54687 0
M  V30 7413 H 680.061 -0.80019 -4.26356 0
M  V30 7414 H 680.732 0.250947 -5.51429 0
M  V30 7415 H 683.208 1.35416 -3.93449 0
M  V30 7416 H 682.084 2.20043 -5.02864 0
M  V30 7417 H 682.345 2.81916 -3.40552 0
M  V30 7418 N 681.404 1.57128 0.121893 0
M  V30 7419 C 682.367 1.99197 1.13372 0
M  V30 7420 C 683.367 0.881728 1.3447 0
M  V30 7421 O 684.557 1.14783 1.31036 0
M  V30 7422 C 681.689 2.32963 2.4888 0
M  V30 7423 H 682.882 2.89788 0.772204 0
M  V30 7424 H 680.435 1.51952 0.366093 0
M  V30 7425 H 681.17 1.45243 2.89957 0
M  V30 7426 H 680.955 3.13934 2.34921 0
M  V30 7427 H 682.445 2.66261 3.21706 0
M  V30 7428 N 682.882 -0.391992 1.52647 0
M  V30 7429 C 684.159 -1.15136 1.58123 0
M  V30 7430 C 684.539 -2.07786 0.372597 0
M  V30 7431 O 683.887 -2.19374 -0.639304 0
M  V30 7432 C 684.097 -1.91367 2.91856 0
M  V30 7433 C 685.445 -2.46833 3.45483 0
M  V30 7434 O 686.469 -2.01527 2.9371 0
M  V30 7435 O 685.328 -3.29587 4.3593 0
M  V30 7436 H 682.422 -0.526649 0.637629 0
M  V30 7437 H 684.968 -0.397386 1.64982 0
M  V30 7438 H 683.74 -1.23597 3.71268 0
M  V30 7439 H 683.363 -2.73732 2.88369 0
M  V30 7440 N 684.36 -1.4356 -0.65026 0
M  V30 7441 C 685.307 -1.48948 -1.76304 0
M  V30 7442 C 686.277 -0.338919 -1.62605 0
M  V30 7443 O 687.462 -0.54649 -1.82806 0
M  V30 7444 C 684.602 -1.42131 -3.14472 0
M  V30 7445 C 683.715 -2.67415 -3.39284 0
M  V30 7446 C 682.85 -2.52565 -4.67316 0
M  V30 7447 C 681.889 -3.73103 -4.85243 0
M  V30 7448 N 681.026 -3.57046 -6.04535 0
M  V30 7449 H 685.866 -2.44032 -1.71034 0
M  V30 7450 H 683.403 -1.21131 -0.834601 0
M  V30 7451 H 685.361 -1.36172 -3.94351 0
M  V30 7452 H 683.991 -0.506273 -3.18805 0
M  V30 7453 H 683.043 -2.8364 -2.53481 0
M  V30 7454 H 684.355 -3.56943 -3.48415 0
M  V30 7455 H 683.509 -2.44331 -5.55326 0
M  V30 7456 H 682.248 -1.60566 -4.60511 0
M  V30 7457 H 681.253 -3.81743 -3.95667 0
M  V30 7458 H 682.478 -4.66115 -4.93876 0
M  V30 7459 H 680.424 -2.67783 -5.98856 0
M  V30 7460 H 680.341 -4.40178 -6.14638 0
M  V30 7461 H 681.609 -3.52669 -6.95158 0
M  V30 7462 N 685.838 0.888903 -1.30139 0
M  V30 7463 C 687.115 1.62145 -1.094 0
M  V30 7464 C 687.495 2.08041 0.358091 0
M  V30 7465 O 686.843 1.84438 1.34888 0
M  V30 7466 C 687.053 2.794 -2.09133 0
M  V30 7467 C 688.401 3.49826 -2.40638 0
M  V30 7468 O 689.425 2.89583 -2.07412 0
M  V30 7469 O 688.284 4.58457 -2.97455 0
M  V30 7470 H 685.378 0.712475 -0.41989 0
M  V30 7471 H 687.924 0.936023 -1.41551 0
M  V30 7472 H 686.696 2.42762 -3.06891 0
M  V30 7473 H 686.319 3.55643 -1.77776 0
M  V30 7474 N 687.317 1.12792 1.10072 0
M  V30 7475 C 688.542 0.908838 1.86427 0
M  V30 7476 C 688.967 -0.536793 1.80278 0
M  V30 7477 O 688.325 -1.38033 1.17543 0
M  V30 7478 C 688.373 1.39295 3.3261 0
M  V30 7479 O 687.477 0.573846 4.08388 0
M  V30 7480 H 686.818 0.326234 0.578331 0
M  V30 7481 H 689.348 1.50094 1.39043 0
M  V30 7482 H 689.358 1.39366 3.83459 0
M  V30 7483 H 688.033 2.44555 3.36401 0
M  V30 7484 H 686.61 0.640438 3.67359 0
M  V30 7485 N 688.795 -1.27931 0.920396 0
M  V30 7486 C 690.044 -1.93975 0.552867 0
M  V30 7487 C 690.357 -1.73193 -0.909035 0
M  V30 7488 O 691.563 -2.33515 -1.38502 0
M  V30 7489 C 690.019 -3.47463 0.937947 0
M  V30 7490 C 689.627 -3.77013 2.42003 0
M  V30 7491 C 691.371 -4.19628 0.64132 0
M  V30 7492 C 689.278 -5.23841 2.74489 0
M  V30 7493 H 688.208 -0.726146 0.203046 0
M  V30 7494 H 690.859 -1.45339 1.12022 0
M  V30 7495 H 689.241 -3.94867 0.299317 0
M  V30 7496 H 690.415 -3.40393 3.10595 0
M  V30 7497 H 688.73 -3.18035 2.6878 0
M  V30 7498 H 691.327 -5.27729 0.860622 0
M  V30 7499 H 691.67 -4.14164 -0.421168 0
M  V30 7500 H 692.203 -3.78022 1.23872 0
M  V30 7501 H 688.942 -5.34388 3.79618 0
M  V30 7502 H 688.462 -5.61634 2.1054 0
M  V30 7503 H 690.141 -5.91647 2.61845 0
M  V30 7504 N 690.273 -0.685099 -1.4193 0
M  V30 7505 C 691.498 -0.218842 -2.06242 0
M  V30 7506 C 691.923 1.11923 -1.51178 0
M  V30 7507 O 691.281 1.69837 -0.634446 0
M  V30 7508 C 691.329 -0.175592 -3.60172 0
M  V30 7509 O 690.433 0.852776 -4.03487 0
M  V30 7510 H 689.774 -0.109531 -0.654904 0
M  V30 7511 H 692.304 -0.937013 -1.81882 0
M  V30 7512 H 692.314 -0.00291151 -4.08 0
M  V30 7513 H 690.989 -1.15222 -3.99621 0
M  V30 7514 H 689.566 0.650301 -3.67186 0
M  V30 7515 N 691.751 1.51645 -0.429126 0
M  V30 7516 C 692.683 2.25279 0.422124 0
M  V30 7517 C 693.696 1.28986 0.993299 0
M  V30 7518 O 694.885 1.54797 0.888836 0
M  V30 7519 C 691.985 2.98666 1.60162 0
M  V30 7520 C 691.158 4.2199 1.15078 0
M  V30 7521 C 690.217 4.78028 2.19946 0
M  V30 7522 O 689.243 5.40084 1.79716 0
M  V30 7523 N 690.445 4.61342 3.5234 0
M  V30 7524 H 693.21 2.98971 -0.208931 0
M  V30 7525 H 690.771 1.59838 -0.257568 0
M  V30 7526 H 692.763 3.33044 2.29922 0
M  V30 7527 H 691.333 2.28036 2.13818 0
M  V30 7528 H 690.553 3.932 0.280552 0
M  V30 7529 H 691.841 5.02037 0.826831 0
M  V30 7530 H 691.239 4.11894 3.87763 0
M  V30 7531 H 689.796 5.00104 4.18019 0
M  V30 7532 N 693.229 0.160201 1.56784 0
M  V30 7533 C 694.139 -0.787167 2.21 0
M  V30 7534 C 695.155 -1.26167 1.19825 0
M  V30 7535 O 696.331 -1.31611 1.52448 0
M  V30 7536 C 693.396 -2.00364 2.8294 0
M  V30 7537 C 692.457 -1.5771 3.99282 0
M  V30 7538 C 691.69 -2.73558 4.58259 0
M  V30 7539 O 691.913 -3.90129 4.16119 0
M  V30 7540 O 690.847 -2.48271 5.48311 0
M  V30 7541 H 694.673 -0.270462 3.02493 0
M  V30 7542 H 692.258 -0.0674666 1.49248 0
M  V30 7543 H 694.14 -2.71529 3.22257 0
M  V30 7544 H 692.815 -2.50961 2.04451 0
M  V30 7545 H 691.722 -0.835274 3.64656 0
M  V30 7546 H 693.055 -1.11815 4.79331 0
M  V30 7547 N 694.707 -1.5719 -0.113559 0
M  V30 7548 C 695.956 -1.84325 -0.818984 0
M  V30 7549 C 696.269 -0.746685 -1.80787 0
M  V30 7550 O 697.475 -0.904596 -2.55987 0
M  V30 7551 C 695.931 -3.26818 -1.50724 0
M  V30 7552 C 695.539 -4.44498 -0.559065 0
M  V30 7553 C 697.283 -3.63196 -2.19748 0
M  V30 7554 C 695.19 -5.7802 -1.25086 0
M  V30 7555 H 694.12 -0.687507 -0.309596 0
M  V30 7556 H 696.771 -1.8336 -0.0717621 0
M  V30 7557 H 695.153 -3.22269 -2.30128 0
M  V30 7558 H 696.327 -4.60356 0.202146 0
M  V30 7559 H 694.642 -4.16393 0.024495 0
M  V30 7560 H 697.239 -4.60226 -2.72206 0
M  V30 7561 H 697.582 -2.90899 -2.97798 0
M  V30 7562 H 698.115 -3.69553 -1.47226 0
M  V30 7563 H 694.854 -6.53501 -0.511539 0
M  V30 7564 H 694.374 -5.66038 -1.98395 0
M  V30 7565 H 696.053 -6.2196 -1.78253 0
M  V30 7566 N 696.185 0.383891 -1.52853 0
M  V30 7567 C 697.432 1.12842 -1.68146 0
M  V30 7568 C 697.76 1.89823 -0.423954 0
M  V30 7569 O 697.015 1.86475 0.593765 0
M  V30 7570 C 697.314 2.12881 -2.87082 0
M  V30 7571 C 696.98 1.52519 -4.24322 0
M  V30 7572 C 695.642 1.35783 -4.61645 0
M  V30 7573 C 697.994 1.0868 -5.09743 0
M  V30 7574 C 695.322 0.737643 -5.82044 0
M  V30 7575 C 697.674 0.480699 -6.30771 0
M  V30 7576 C 696.338 0.300681 -6.66822 0
M  V30 7577 H 695.608 0.412917 -0.615289 0
M  V30 7578 H 698.255 0.412416 -1.87006 0
M  V30 7579 H 696.56 2.90719 -2.62659 0
M  V30 7580 H 698.257 2.70408 -2.96109 0
M  V30 7581 H 694.847 1.66534 -3.94923 0
M  V30 7582 H 699.031 1.2041 -4.81472 0
M  V30 7583 H 694.287 0.586415 -6.08581 0
M  V30 7584 H 698.461 0.132733 -6.96273 0
M  V30 7585 H 696.088 -0.181966 -7.59982 0
M  V30 7586 N 697.663 1.43903 0.642637 0
M  V30 7587 C 698.573 1.52349 1.78401 0
M  V30 7588 C 699.589 0.409869 1.69104 0
M  V30 7589 O 700.765 0.665548 1.90085 0
M  V30 7590 C 697.83 1.45408 3.14734 0
M  V30 7591 C 696.891 2.67528 3.35749 0
M  V30 7592 C 696.124 2.60909 4.65577 0
M  V30 7593 O 696.347 1.6627 5.45628 0
M  V30 7594 O 695.281 3.5158 4.88544 0
M  V30 7595 H 699.107 2.48752 1.7423 0
M  V30 7596 H 696.692 1.26021 0.802439 0
M  V30 7597 H 698.574 1.44019 3.96026 0
M  V30 7598 H 697.249 0.521437 3.19473 0
M  V30 7599 H 696.156 2.74487 2.5418 0
M  V30 7600 H 697.489 3.598 3.35864 0
M  V30 7601 N 699.141 -0.881989 1.30609 0
M  V30 7602 C 700.089 -2.00942 1.17155 0
M  V30 7603 C 701.083 -1.69198 0.0827154 0
M  V30 7604 O 702.289 -1.78342 0.243775 0
M  V30 7605 H 698.664 -0.658913 0.362406 0
M  V30 7606 H 700.635 -2.09423 2.12567 0
M  V30 7607 C 699.384 -3.36294 0.883273 0
M  V30 7608 H 698.707 -3.61233 1.7132 0
M  V30 7609 H 700.147 -4.15812 0.829255 0
M  V30 7610 C 698.606 -3.34348 -0.413851 0
M  V30 7611 O 699.136 -3.75216 -1.43444 0
M  V30 7612 N 697.342 -2.87459 -0.426082 0
M  V30 7613 H 696.889 -2.54397 0.40493 0
M  V30 7614 H 696.847 -2.8654 -1.29391 0
M  V30 7615 N 700.619 -1.13374 -1.09472 0
M  V30 7616 C 701.566 -0.810682 -2.16094 0
M  V30 7617 C 702.536 0.227003 -1.64541 0
M  V30 7618 O 703.721 0.0993538 -1.90541 0
M  V30 7619 C 700.861 -0.282336 -3.43943 0
M  V30 7620 C 699.974 -1.37902 -4.09398 0
M  V30 7621 C 699.109 -0.809066 -5.25002 0
M  V30 7622 C 698.148 -1.88419 -5.82379 0
M  V30 7623 N 697.285 -1.33221 -6.89345 0
M  V30 7624 H 702.125 -1.72397 -2.43071 0
M  V30 7625 H 699.662 -0.860564 -1.19301 0
M  V30 7626 H 701.62 0.0421189 -4.17179 0
M  V30 7627 H 700.25 0.594083 -3.17286 0
M  V30 7628 H 699.302 -1.82008 -3.34032 0
M  V30 7629 H 700.614 -2.19161 -4.48074 0
M  V30 7630 H 699.768 -0.435867 -6.05132 0
M  V30 7631 H 698.507 0.0346058 -4.87688 0
M  V30 7632 H 697.512 -2.26646 -5.00911 0
M  V30 7633 H 698.737 -2.73125 -6.21755 0
M  V30 7634 H 696.683 -0.510535 -6.5401 0
M  V30 7635 H 696.6 -2.08129 -7.26786 0
M  V30 7636 H 697.868 -0.986565 -7.73232 0
M  V30 7637 N 702.098 1.27442 -0.927168 0
M  V30 7638 C 703.347 1.93679 -0.563146 0
M  V30 7639 C 703.66 1.73673 0.899837 0
M  V30 7640 O 704.866 2.34247 1.37262 0
M  V30 7641 C 703.322 3.46961 -0.95636 0
M  V30 7642 C 702.93 3.75724 -2.43999 0
M  V30 7643 C 704.674 4.19282 -0.663565 0
M  V30 7644 C 702.581 5.22378 -2.77263 0
M  V30 7645 H 701.511 0.725059 -0.206894 0
M  V30 7646 H 704.162 1.44743 -1.12791 0
M  V30 7647 H 702.544 3.94703 -0.320254 0
M  V30 7648 H 703.718 3.38741 -3.12396 0
M  V30 7649 H 702.033 3.16605 -2.70463 0
M  V30 7650 H 704.63 5.27265 -0.888596 0
M  V30 7651 H 704.973 4.14382 0.399198 0
M  V30 7652 H 705.506 3.7736 -1.25875 0
M  V30 7653 H 702.245 5.32367 -3.82446 0
M  V30 7654 H 701.765 5.6051 -2.13516 0
M  V30 7655 H 703.444 5.9025 -2.64979 0
M  V30 7656 N 703.576 0.692616 1.41565 0
M  V30 7657 C 704.825 0.219452 2.00503 0
M  V30 7658 C 705.138 -1.18683 1.55479 0
M  V30 7659 O 706.344 -1.75731 2.06956 0
M  V30 7660 C 704.8 0.341451 3.58277 0
M  V30 7661 C 704.408 1.75291 4.12283 0
M  V30 7662 C 706.152 -0.0720899 4.24439 0
M  V30 7663 C 704.059 1.82673 5.62481 0
M  V30 7664 H 702.989 0.0782874 0.749925 0
M  V30 7665 H 705.64 0.860386 1.62079 0
M  V30 7666 H 704.022 -0.367683 3.94289 0
M  V30 7667 H 705.196 2.49057 3.87695 0
M  V30 7668 H 703.511 2.11587 3.58636 0
M  V30 7669 H 706.108 -0.0373385 5.34687 0
M  V30 7670 H 706.451 -1.11034 4.0122 0
M  V30 7671 H 706.984 0.586663 3.9345 0
M  V30 7672 H 703.723 2.84539 5.90523 0
M  V30 7673 H 703.243 1.13288 5.89004 0
M  V30 7674 H 704.922 1.58827 6.27203 0
M  V30 7675 N 705.054 -1.51416 0.437162 0
M  V30 7676 C 706.282 -2.06503 -0.128045 0
M  V30 7677 C 706.697 -1.30461 -1.36475 0
M  V30 7678 O 706.054 -0.364127 -1.78831 0
M  V30 7679 C 706.105 -3.58683 -0.450437 0
M  V30 7680 O 705.826 -4.31853 0.737186 0
M  V30 7681 C 707.327 -4.30284 -1.06633 0
M  V30 7682 H 704.547 -0.670952 -0.00800269 0
M  V30 7683 H 707.091 -1.94996 0.616193 0
M  V30 7684 H 705.246 -3.70106 -1.14457 0
M  V30 7685 H 705.66 -5.22467 0.461347 0
M  V30 7686 H 707.134 -5.37848 -1.24191 0
M  V30 7687 H 707.611 -3.88564 -2.0473 0
M  V30 7688 H 708.217 -4.23304 -0.411585 0
M  V30 7689 N 706.532 -0.168513 -1.56696 0
M  V30 7690 C 707.809 0.523367 -1.88468 0
M  V30 7691 C 708.189 1.81503 -1.07796 0
M  V30 7692 O 707.537 2.27859 -0.171045 0
M  V30 7693 C 707.747 0.767991 -3.40445 0
M  V30 7694 C 709.095 1.09924 -4.10124 0
M  V30 7695 O 710.119 0.856625 -3.45746 0
M  V30 7696 O 708.978 1.55681 -5.23856 0
M  V30 7697 H 706.072 0.269447 -0.781874 0
M  V30 7698 H 708.618 -0.206739 -1.68436 0
M  V30 7699 H 707.39 -0.145254 -3.9103 0
M  V30 7700 H 707.013 1.55151 -3.66079 0
M  V30 7701 N 708.01 1.57248 0.105221 0
M  V30 7702 C 708.92 2.04653 1.14693 0
M  V30 7703 C 709.936 0.969488 1.44489 0
M  V30 7704 O 711.112 1.28196 1.55331 0
M  V30 7705 C 708.177 2.45297 2.45011 0
M  V30 7706 C 707.238 3.67148 2.22489 0
M  V30 7707 C 706.471 4.05844 3.46592 0
M  V30 7708 O 706.694 3.44736 4.54437 0
M  V30 7709 O 705.628 4.98862 3.36779 0
M  V30 7710 H 709.454 2.93663 0.774336 0
M  V30 7711 H 707.039 1.45998 0.31701 0
M  V30 7712 H 708.921 2.72112 3.21766 0
M  V30 7713 H 707.596 1.59429 2.81717 0
M  V30 7714 H 706.503 3.45463 1.43547 0
M  V30 7715 H 707.836 4.53764 1.9068 0
M  V30 7716 N 709.488 -0.375779 1.53054 0
M  V30 7717 C 710.716 -1.14036 1.72637 0
M  V30 7718 C 711.131 -1.83342 0.450687 0
M  V30 7719 O 710.488 -1.7318 -0.575749 0
M  V30 7720 C 710.539 -2.17841 2.88492 0
M  V30 7721 O 710.26 -1.51358 4.11123 0
M  V30 7722 C 711.761 -3.06924 3.19863 0
M  V30 7723 H 708.981 -0.341386 0.577665 0
M  V30 7724 H 711.525 -0.437809 1.99759 0
M  V30 7725 H 709.68 -2.8371 2.63794 0
M  V30 7726 H 710.094 -2.20439 4.75928 0
M  V30 7727 H 711.568 -3.75763 4.04359 0
M  V30 7728 H 712.045 -3.71169 2.34798 0
M  V30 7729 H 712.651 -2.46684 3.46449 0
M  V30 7730 N 710.966 -1.44241 -0.634997 0
M  V30 7731 C 711.914 -1.51103 -1.76835 0
M  V30 7732 C 712.908 -0.383051 -1.65012 0
M  V30 7733 O 714.114 -0.557832 -1.71138 0
M  V30 7734 H 710.489 -0.474076 -0.583743 0
M  V30 7735 H 712.46 -2.46499 -1.68169 0
M  V30 7736 C 711.209 -1.4687 -3.15158 0
M  V30 7737 H 710.532 -2.32979 -3.24901 0
M  V30 7738 H 711.972 -1.55731 -3.94365 0
M  V30 7739 C 710.431 -0.188884 -3.3637 0
M  V30 7740 O 710.961 0.742487 -3.94778 0
M  V30 7741 N 709.167 -0.0932516 -2.9045 0
M  V30 7742 H 708.714 -0.852004 -2.43102 0
M  V30 7743 H 708.672 0.762308 -3.05018 0
M  V30 7744 N 712.444 0.87505 -1.31075 0
M  V30 7745 C 713.69 1.63009 -1.20647 0
M  V30 7746 C 714.023 1.9276 0.236045 0
M  V30 7747 O 713.298 1.55559 1.16754 0
M  V30 7748 C 713.581 2.96357 -2.0456 0
M  V30 7749 C 713.434 2.73516 -3.57084 0
M  V30 7750 C 714.753 3.974 -1.89107 0
M  V30 7751 H 711.872 0.591518 -0.439631 0
M  V30 7752 H 714.514 1.0119 -1.60812 0
M  V30 7753 H 712.664 3.49119 -1.70435 0
M  V30 7754 H 714.336 2.27465 -4.01319 0
M  V30 7755 H 712.579 2.0784 -3.80769 0
M  V30 7756 H 713.25 3.68377 -4.11099 0
M  V30 7757 H 715.726 3.5383 -2.18961 0
M  V30 7758 H 714.602 4.88596 -2.5013 0
M  V30 7759 H 714.863 4.33794 -0.85296 0
M  V30 7760 N 713.922 1.13953 1.08869 0
M  V30 7761 C 714.854 0.779906 2.15523 0
M  V30 7762 C 715.867 -0.20102 1.61554 0
M  V30 7763 O 717.056 0.0200049 1.78489 0
M  V30 7764 C 714.156 0.136226 3.38626 0
M  V30 7765 C 713.329 1.15069 4.21993 0
M  V30 7766 C 712.388 0.531645 5.23507 0
M  V30 7767 O 711.414 1.19327 5.56552 0
M  V30 7768 N 712.616 -0.693734 5.7634 0
M  V30 7769 H 715.381 1.69769 2.46979 0
M  V30 7770 H 712.942 1.03331 1.24637 0
M  V30 7771 H 714.934 -0.290295 4.03658 0
M  V30 7772 H 713.504 -0.684603 3.05011 0
M  V30 7773 H 712.724 1.75431 3.53012 0
M  V30 7774 H 714.012 1.83614 4.74514 0
M  V30 7775 H 713.41 -1.24994 5.51718 0
M  V30 7776 H 711.967 -1.06283 6.43076 0
M  V30 7777 N 715.4 -1.26948 0.933913 0
M  V30 7778 C 716.348 -2.2862 0.428463 0
M  V30 7779 C 717.342 -1.62144 -0.490464 0
M  V30 7780 O 718.548 -1.76167 -0.36948 0
M  V30 7781 H 714.923 -0.742363 0.120003 0
M  V30 7782 H 716.894 -2.68659 1.29865 0
M  V30 7783 C 715.643 -3.46423 -0.29774 0
M  V30 7784 H 714.966 -3.97792 0.400183 0
M  V30 7785 H 716.406 -4.19505 -0.615736 0
M  V30 7786 C 714.865 -3.01017 -1.51295 0
M  V30 7787 O 715.395 -3.05226 -2.61151 0
M  V30 7788 N 713.601 -2.56442 -1.36696 0
M  V30 7789 H 713.148 -2.53217 -0.473178 0
M  V30 7790 H 713.106 -2.26424 -2.18127 0
M  V30 7791 N 716.879 -0.700114 -1.41195 0
M  V30 7792 C 718.109 -0.241828 -2.0518 0
M  V30 7793 C 718.517 1.1157 -1.52803 0
M  V30 7794 O 717.86 1.70926 -0.673042 0
M  V30 7795 C 717.922 -0.12695 -3.59276 0
M  V30 7796 C 717.586 -1.41725 -4.34469 0
M  V30 7797 C 718.583 -2.35604 -4.63451 0
M  V30 7798 C 716.268 -1.67189 -4.73659 0
M  V30 7799 C 718.262 -3.53204 -5.3059 0
M  V30 7800 C 715.949 -2.85073 -5.40534 0
M  V30 7801 C 716.947 -3.77904 -5.68927 0
M  V30 7802 O 716.635 -4.93723 -6.34424 0
M  V30 7803 H 716.367 -0.109247 -0.667114 0
M  V30 7804 H 718.921 -0.954538 -1.81873 0
M  V30 7805 H 717.151 0.641571 -3.81341 0
M  V30 7806 H 718.84 0.294748 -4.04828 0
M  V30 7807 H 719.606 -2.1719 -4.33651 0
M  V30 7808 H 715.485 -0.957935 -4.50937 0
M  V30 7809 H 719.029 -4.25679 -5.52669 0
M  V30 7810 H 714.926 -3.03402 -5.69752 0
M  V30 7811 H 715.694 -4.93597 -6.5292 0
M  V30 7812 N 718.357 1.51182 -0.445186 0
M  V30 7813 C 719.582 2.07056 0.119445 0
M  V30 7814 C 720.007 1.30966 1.35016 0
M  V30 7815 O 719.365 0.349827 1.77893 0
M  V30 7816 C 719.413 3.58234 0.412428 0
M  V30 7817 O 718.517 3.84249 1.49754 0
M  V30 7818 H 717.858 0.663998 -0.00157797 0
M  V30 7819 H 720.388 1.94699 -0.628779 0
M  V30 7820 H 720.398 4.02617 0.660583 0
M  V30 7821 H 719.073 4.13038 -0.487049 0
M  V30 7822 H 717.65 3.51724 1.23873 0
M  V30 7823 N 719.835 0.176821 1.56605 0
M  V30 7824 C 721.112 -0.513365 1.88743 0
M  V30 7825 C 721.492 -1.80929 1.08757 0
M  V30 7826 O 720.84 -2.27765 0.183127 0
M  V30 7827 C 721.05 -0.749925 3.40848 0
M  V30 7828 C 722.398 -1.07747 4.10701 0
M  V30 7829 O 723.422 -0.838277 3.46196 0
M  V30 7830 O 722.281 -1.52901 5.24675 0
M  V30 7831 H 719.375 -0.265296 0.783292 0
M  V30 7832 H 721.921 0.215669 1.68324 0
M  V30 7833 H 720.693 0.16599 3.90948 0
M  V30 7834 H 720.316 -1.53208 3.66897 0
M  V30 7835 N 721.313 -1.57302 -0.09688 0
M  V30 7836 C 722.26 -2.01933 -1.11766 0
M  V30 7837 C 723.23 -0.895329 -1.39904 0
M  V30 7838 O 724.415 -1.16119 -1.51397 0
M  V30 7839 C 721.555 -2.44726 -2.43317 0
M  V30 7840 C 720.668 -3.70639 -2.21925 0
M  V30 7841 C 719.803 -4.02318 -3.46862 0
M  V30 7842 C 718.842 -5.21346 -3.20725 0
M  V30 7843 N 717.979 -5.48787 -4.37924 0
M  V30 7844 H 722.819 -2.88919 -0.730075 0
M  V30 7845 H 720.356 -1.42901 -0.348962 0
M  V30 7846 H 722.314 -2.6758 -3.20088 0
M  V30 7847 H 720.944 -1.60753 -2.79926 0
M  V30 7848 H 719.996 -3.55271 -1.35965 0
M  V30 7849 H 721.308 -4.57557 -1.98603 0
M  V30 7850 H 720.462 -4.25939 -4.32042 0
M  V30 7851 H 719.201 -3.13918 -3.73238 0
M  V30 7852 H 718.206 -4.97547 -2.33938 0
M  V30 7853 H 719.431 -6.11343 -2.95697 0
M  V30 7854 H 717.377 -4.63346 -4.64378 0
M  V30 7855 H 717.294 -6.30073 -4.17785 0
M  V30 7856 H 718.562 -5.76943 -5.24173 0
M  V30 7857 N 722.791 0.367657 -1.53252 0
M  V30 7858 C 724.038 1.11052 -1.69333 0
M  V30 7859 C 724.366 1.89363 -0.444064 0
M  V30 7860 O 723.621 1.87094 0.573953 0
M  V30 7861 C 723.92 2.09825 -2.89324 0
M  V30 7862 C 723.586 1.4801 -4.25915 0
M  V30 7863 C 722.248 1.30879 -4.6306 0
M  V30 7864 C 724.6 1.03268 -5.10867 0
M  V30 7865 C 721.928 0.675868 -5.82794 0
M  V30 7866 C 724.28 0.41377 -6.31245 0
M  V30 7867 C 722.944 0.229939 -6.67104 0
M  V30 7868 H 722.214 0.406367 -0.619634 0
M  V30 7869 H 724.861 0.392558 -1.87433 0
M  V30 7870 H 723.166 2.87917 -2.65728 0
M  V30 7871 H 724.863 2.67252 -2.98961 0
M  V30 7872 H 721.453 1.62336 -3.96667 0
M  V30 7873 H 725.637 1.15297 -4.82722 0
M  V30 7874 H 720.893 0.521833 -6.09169 0
M  V30 7875 H 725.067 0.0588768 -6.96375 0
M  V30 7876 H 722.694 -0.262562 -7.59746 0
M  V30 7877 N 724.269 1.44576 0.627338 0
M  V30 7878 C 725.494 1.51271 1.41887 0
M  V30 7879 C 725.919 0.139814 1.8758 0
M  V30 7880 O 725.277 -0.871746 1.58966 0
M  V30 7881 C 725.325 2.48529 2.61277 0
M  V30 7882 O 724.429 1.98944 3.61241 0
M  V30 7883 H 723.77 0.510668 0.424399 0
M  V30 7884 H 726.3 1.89746 0.765356 0
M  V30 7885 H 726.31 2.66689 3.08773 0
M  V30 7886 H 724.985 3.48249 2.27366 0
M  V30 7887 H 723.562 1.90568 3.20528 0
M  V30 7888 N 725.747 -0.868086 1.31537 0
M  V30 7889 C 726.677 -1.99131 1.21939 0
M  V30 7890 C 727.658 -1.69768 0.106166 0
M  V30 7891 O 728.843 -1.92006 0.291081 0
M  V30 7892 C 725.973 -3.34676 0.927879 0
M  V30 7893 C 724.927 -3.7835 2.00088 0
M  V30 7894 C 724.253 -5.11375 1.56203 0
M  V30 7895 C 725.553 -3.95256 3.41424 0
M  V30 7896 H 727.247 -2.07419 2.15911 0
M  V30 7897 H 724.793 -0.996569 1.03945 0
M  V30 7898 H 726.746 -4.12793 0.847327 0
M  V30 7899 H 725.47 -3.26565 -0.0475042 0
M  V30 7900 H 724.129 -3.02474 2.07135 0
M  V30 7901 H 723.777 -4.99709 0.57445 0
M  V30 7902 H 723.477 -5.41568 2.27985 0
M  V30 7903 H 725.001 -5.92001 1.49558 0
M  V30 7904 H 726.415 -4.63764 3.3704 0
M  V30 7905 H 724.812 -4.36849 4.1144 0
M  V30 7906 H 725.882 -2.98579 3.82072 0
M  V30 7907 N 727.225 -1.14528 -1.08264 0
M  V30 7908 C 728.502 -0.825185 -1.77342 0
M  V30 7909 C 728.882 0.681037 -1.99813 0
M  V30 7910 O 728.23 1.62234 -1.60912 0
M  V30 7911 C 728.44 -1.62556 -3.08831 0
M  V30 7912 C 729.788 -1.82585 -3.83338 0
M  V30 7913 O 730.812 -1.59254 -3.18617 0
M  V30 7914 O 729.671 -2.21598 -4.99556 0
M  V30 7915 H 726.765 -0.302531 -0.769678 0
M  V30 7916 H 729.311 -1.25056 -1.14713 0
M  V30 7917 H 728.083 -2.64862 -2.88035 0
M  V30 7918 H 727.706 -1.1959 -3.79189 0
M  V30 7919 N 728.703 1.26451 -0.940633 0
M  V30 7920 C 729.613 2.30128 -0.455881 0
M  V30 7921 C 730.629 1.67536 0.469867 0
M  V30 7922 O 731.805 1.98344 0.349529 0
M  V30 7923 C 728.87 3.45634 0.271648 0
M  V30 7924 C 727.931 4.23709 -0.690594 0
M  V30 7925 C 727.164 5.337 0.00231047 0
M  V30 7926 O 727.387 5.57215 1.21935 0
M  V30 7927 O 726.321 5.98091 -0.676111 0
M  V30 7928 H 730.147 2.73655 -1.31707 0
M  V30 7929 H 727.732 1.3164 -0.706497 0
M  V30 7930 H 729.614 4.15853 0.681486 0
M  V30 7931 H 728.289 3.04138 1.10824 0
M  V30 7932 H 727.196 3.55974 -1.15037 0
M  V30 7933 H 728.529 4.68953 -1.49478 0
M  V30 7934 N 730.181 0.707592 1.40822 0
M  V30 7935 C 731.406 0.251626 2.05868 0
M  V30 7936 C 731.831 -1.09503 1.5294 0
M  V30 7937 O 731.189 -1.68806 0.661385 0
M  V30 7938 C 731.237 0.23287 3.59847 0
M  V30 7939 O 730.341 -0.788477 4.04792 0
M  V30 7940 H 729.682 0.119936 0.653078 0
M  V30 7941 H 732.212 0.96583 1.80369 0
M  V30 7942 H 732.222 0.0678204 4.07944 0
M  V30 7943 H 730.897 1.21565 3.97737 0
M  V30 7944 H 729.474 -0.591802 3.68174 0
M  V30 7945 N 731.66 -1.50943 0.453197 0
M  V30 7946 C 732.909 -2.01402 -0.10951 0
M  V30 7947 C 733.222 -1.3411 -1.42386 0
M  V30 7948 O 734.428 -1.75626 -2.07045 0
M  V30 7949 C 732.884 -3.5906 -0.245693 0
M  V30 7950 C 732.492 -4.353 1.05916 0
M  V30 7951 C 734.236 -4.17617 -0.761318 0
M  V30 7952 C 732.143 -5.84699 0.887752 0
M  V30 7953 H 731.073 -0.752674 -0.0447013 0
M  V30 7954 H 733.724 -1.73913 0.585375 0
M  V30 7955 H 732.106 -3.83062 -1.00395 0
M  V30 7956 H 733.28 -4.23034 1.82698 0
M  V30 7957 H 731.595 -3.88269 1.50452 0
M  V30 7958 H 734.192 -5.26963 -0.906306 0
M  V30 7959 H 734.535 -3.77824 -1.74799 0
M  V30 7960 H 735.068 -3.97753 -0.0609416 0
M  V30 7961 H 731.807 -6.28933 1.84726 0
M  V30 7962 H 731.327 -5.99587 0.160006 0
M  V30 7963 H 733.006 -6.44682 0.547223 0
M  V30 7964 N 733.138 -0.185124 -1.56509 0
M  V30 7965 C 734.068 0.735098 -2.21627 0
M  V30 7966 C 735.049 1.2288 -1.1762 0
M  V30 7967 O 736.234 1.27945 -1.46095 0
M  V30 7968 C 733.364 1.95889 -2.86783 0
M  V30 7969 C 732.318 1.6005 -3.96948 0
M  V30 7970 C 731.644 2.90009 -4.4922 0
M  V30 7971 C 732.944 0.818008 -5.15855 0
M  V30 7972 H 734.638 0.192274 -2.98782 0
M  V30 7973 H 732.184 0.0910393 -1.43712 0
M  V30 7974 H 734.137 2.60779 -3.31017 0
M  V30 7975 H 732.861 2.52608 -2.07018 0
M  V30 7976 H 731.52 0.975237 -3.5339 0
M  V30 7977 H 731.168 3.44797 -3.6623 0
M  V30 7978 H 730.868 2.66778 -5.23549 0
M  V30 7979 H 732.392 3.55904 -4.9615 0
M  V30 7980 H 733.806 1.36979 -5.56695 0
M  V30 7981 H 732.203 0.684207 -5.96187 0
M  V30 7982 H 733.273 -0.182939 -4.84555 0
M  V30 7983 N 734.616 1.57351 0.0885366 0
M  V30 7984 C 735.893 1.77449 0.822873 0
M  V30 7985 C 736.273 0.768463 1.96616 0
M  V30 7986 O 735.621 -0.201757 2.27608 0
M  V30 7987 C 735.831 3.23425 1.31137 0
M  V30 7988 C 737.179 3.86791 1.75152 0
M  V30 7989 O 738.203 3.27215 1.40745 0
M  V30 7990 O 737.062 4.91568 2.38794 0
M  V30 7991 H 734.156 0.727653 0.393002 0
M  V30 7992 H 736.702 1.69556 0.0699095 0
M  V30 7993 H 735.474 3.88188 0.49254 0
M  V30 7994 H 735.097 3.35977 2.12615 0
M  V30 7995 N 736.094 -0.359525 1.53444 0
M  V30 7996 C 737.342 -1.09935 1.69584 0
M  V30 7997 C 737.663 -1.89656 0.453371 0
M  V30 7998 O 736.933 -1.8852 -0.53263 0
M  V30 7999 H 735.513 -0.408843 0.625185 0
M  V30 8000 H 738.175 -0.40467 1.90653 0
M  V30 8001 H 737.271 -1.78575 2.55964 0
M  V30 8002 N 737.572 -1.44907 -0.619662 0
M  V30 8003 C 738.504 -1.48652 -1.74457 0
M  V30 8004 C 739.517 -0.378596 -1.58337 0
M  V30 8005 O 740.706 -0.644987 -1.6644 0
M  V30 8006 C 737.806 -1.31568 -3.12319 0
M  V30 8007 C 736.979 -2.55816 -3.54792 0
M  V30 8008 C 736.038 -2.33465 -4.71573 0
M  V30 8009 O 735.064 -3.07015 -4.79302 0
M  V30 8010 N 736.266 -1.37254 -5.6404 0
M  V30 8011 H 739.031 -2.45632 -1.71712 0
M  V30 8012 H 736.592 -1.40492 -0.804582 0
M  V30 8013 H 738.584 -1.14445 -3.88181 0
M  V30 8014 H 737.154 -0.429095 -3.09641 0
M  V30 8015 H 736.374 -2.88137 -2.69018 0
M  V30 8016 H 737.662 -3.38431 -3.79924 0
M  V30 8017 H 737.06 -0.765309 -5.60499 0
M  V30 8018 H 735.617 -1.26106 -6.39485 0
M  V30 8019 N 739.05 0.861098 -1.31996 0
M  V30 8020 C 740.296 1.61721 -1.22369 0
M  V30 8021 C 740.629 1.93 0.215587 0
M  V30 8022 O 739.904 1.56789 1.15098 0
M  V30 8023 C 740.187 2.9417 -2.07691 0
M  V30 8024 C 740.04 2.69714 -3.59965 0
M  V30 8025 C 741.359 3.95372 -1.93312 0
M  V30 8026 H 738.478 0.586822 -0.44588 0
M  V30 8027 H 741.12 0.994788 -1.61876 0
M  V30 8028 H 739.27 3.47292 -1.74128 0
M  V30 8029 H 740.942 2.23196 -4.03709 0
M  V30 8030 H 739.185 2.03789 -3.82952 0
M  V30 8031 H 739.856 3.63996 -4.14983 0
M  V30 8032 H 742.332 3.51487 -2.22701 0
M  V30 8033 H 741.208 4.85916 -2.55298 0
M  V30 8034 H 741.469 4.32865 -0.898922 0
M  V30 8035 N 740.528 1.15101 1.07655 0
M  V30 8036 C 741.939 0.933848 1.61667 0
M  V30 8037 C 742.29 -0.525569 1.8903 0
M  V30 8038 O 741.415 -1.39605 1.65346 0
M  V30 8039 C 742.01 1.68876 2.93711 0
M  V30 8040 C 740.569 1.51697 3.44478 0
M  V30 8041 C 739.716 1.70633 2.18586 0
M  V30 8042 H 742.667 1.30171 0.907816 0
M  V30 8043 H 742.688 1.15645 3.625 0
M  V30 8044 H 742.2 2.7509 2.73764 0
M  V30 8045 H 740.301 0.478635 3.69513 0
M  V30 8046 H 740.414 2.29194 4.20722 0
M  V30 8047 H 738.778 1.13259 2.28132 0
M  V30 8048 H 739.561 2.78206 2.01137 0
M  V30 8049 N 742.006 -1.2595 0.947325 0
M  V30 8050 C 743.255 -1.92759 0.593887 0
M  V30 8051 C 743.568 -1.75083 -0.872093 0
M  V30 8052 O 744.774 -2.36401 -1.33518 0
M  V30 8053 C 743.23 -3.45395 1.01144 0
M  V30 8054 C 742.838 -3.71795 2.49946 0
M  V30 8055 C 744.582 -4.18173 0.730185 0
M  V30 8056 C 742.489 -5.17901 2.85539 0
M  V30 8057 H 741.419 -0.721676 0.218403 0
M  V30 8058 H 744.07 -1.4293 1.15079 0
M  V30 8059 H 742.452 -3.94143 0.383007 0
M  V30 8060 H 743.626 -3.33728 3.17746 0
M  V30 8061 H 741.941 -3.12263 2.75465 0
M  V30 8062 H 744.538 -5.25784 0.972367 0
M  V30 8063 H 744.881 -4.14964 -0.333223 0
M  V30 8064 H 745.414 -3.75309 1.31862 0
M  V30 8065 H 742.153 -5.26216 3.90867 0
M  V30 8066 H 741.673 -5.57042 2.22406 0
M  V30 8067 H 743.352 -5.8596 2.74336 0
M  V30 8068 N 743.484 -0.715051 -1.40445 0
M  V30 8069 C 744.432 -0.0509974 -2.32544 0
M  V30 8070 C 745.426 0.747602 -1.52011 0
M  V30 8071 O 746.632 0.651031 -1.67814 0
M  V30 8072 H 743.007 0.00231113 -0.751996 0
M  V30 8073 H 744.978 -0.84449 -2.86201 0
M  V30 8074 C 743.727 0.857101 -3.3697 0
M  V30 8075 H 743.05 0.252 -3.99005 0
M  V30 8076 H 744.49 1.28971 -4.03909 0
M  V30 8077 C 742.949 1.98231 -2.72408 0
M  V30 8078 O 743.479 3.07309 -2.58697 0
M  V30 8079 N 741.685 1.76577 -2.308 0
M  V30 8080 H 741.232 0.878641 -2.42152 0
M  V30 8081 H 741.19 2.52043 -1.87941 0
M  V30 8082 N 744.962 1.50701 -0.461195 0
M  V30 8083 C 746.373 1.867 -0.00370227 0
M  V30 8084 C 746.724 1.37673 1.39787 0
M  V30 8085 O 745.849 0.737515 2.03445 0
M  V30 8086 C 746.444 3.388 5.75786e-05 0
M  V30 8087 C 745.003 3.74247 0.402044 0
M  V30 8088 C 744.15 2.74549 -0.389652 0
M  V30 8089 H 747.101 1.43585 -0.675942 0
M  V30 8090 H 747.122 3.719 0.804414 0
M  V30 8091 H 746.634 3.74452 -1.02015 0
M  V30 8092 H 744.735 3.44192 1.42697 0
M  V30 8093 H 744.848 4.78973 0.110265 0
M  V30 8094 H 743.212 2.54226 0.155314 0
M  V30 8095 H 743.995 3.13044 -1.40919 0
M  V30 8096 N 746.441 0.193421 1.56409 0
M  V30 8097 C 747.351 -0.740112 2.2262 0
M  V30 8098 C 748.367 -1.23597 1.22474 0
M  V30 8099 O 749.543 -1.28348 1.55206 0
M  V30 8100 C 746.608 -1.94317 2.87127 0
M  V30 8101 C 745.669 -1.49205 4.02538 0
M  V30 8102 C 744.902 -2.63776 4.63959 0
M  V30 8103 O 745.125 -3.81215 4.24301 0
M  V30 8104 O 744.059 -2.36585 5.53454 0
M  V30 8105 H 747.885 -0.206238 3.02999 0
M  V30 8106 H 745.47 -0.0357938 1.49357 0
M  V30 8107 H 747.352 -2.64633 3.27944 0
M  V30 8108 H 746.027 -2.46568 2.09728 0
M  V30 8109 H 744.934 -0.757738 3.66346 0
M  V30 8110 H 746.267 -1.01622 4.81595 0
M  V30 8111 N 747.919 -1.57396 -0.0801906 0
M  V30 8112 C 749.168 -1.8602 -0.779702 0
M  V30 8113 C 749.481 -0.784864 -1.79163 0
M  V30 8114 O 750.687 -0.958691 -2.54011 0
M  V30 8115 C 749.143 -3.29942 -1.43758 0
M  V30 8116 C 748.751 -4.45584 -0.464654 0
M  V30 8117 C 750.495 -3.67775 -2.11995 0
M  V30 8118 C 748.402 -5.80544 -1.12797 0
M  V30 8119 H 747.332 -0.69392 -0.294943 0
M  V30 8120 H 749.983 -1.83471 -0.0328527 0
M  V30 8121 H 748.365 -3.27078 -2.2324 0
M  V30 8122 H 749.539 -4.59824 0.299749 0
M  V30 8123 H 747.854 -4.16247 0.112813 0
M  V30 8124 H 750.451 -4.65896 -2.62383 0
M  V30 8125 H 750.794 -2.9715 -2.91561 0
M  V30 8126 H 751.327 -3.72593 -1.39354 0
M  V30 8127 H 748.066 -6.54439 -0.372807 0
M  V30 8128 H 747.586 -5.70119 -1.86344 0
M  V30 8129 H 749.265 -6.25602 -1.6502 0
M  V30 8130 N 749.397 0.351382 -1.53633 0
M  V30 8131 C 750.643 1.09411 -1.70754 0
M  V30 8132 C 750.976 1.88544 -0.465293 0
M  V30 8133 O 750.251 1.86923 0.537608 0
M  V30 8134 C 750.534 2.04173 -2.96623 0
M  V30 8135 C 750.387 1.28556 -4.31038 0
M  V30 8136 C 751.706 3.04102 -3.18136 0
M  V30 8137 H 748.825 0.396373 -0.621335 0
M  V30 8138 H 751.467 0.373464 -1.86293 0
M  V30 8139 H 749.617 2.65625 -2.83506 0
M  V30 8140 H 751.289 0.697786 -4.55992 0
M  V30 8141 H 749.532 0.587498 -4.29803 0
M  V30 8142 H 750.203 1.97989 -5.15271 0
M  V30 8143 H 752.679 2.5276 -3.30532 0
M  V30 8144 H 751.555 3.67616 -4.07615 0
M  V30 8145 H 751.816 3.75053 -2.34068 0
M  V30 8146 N 750.875 1.45233 0.611969 0
M  V30 8147 C 752.152 1.39495 1.37115 0
M  V30 8148 C 752.532 0.0633303 2.11005 0
M  V30 8149 O 751.88 -0.954617 2.07604 0
M  V30 8150 C 752.09 2.60579 2.32163 0
M  V30 8151 C 753.438 3.05477 2.94905 0
M  V30 8152 O 754.462 2.60921 2.42485 0
M  V30 8153 O 753.321 3.82787 3.90047 0
M  V30 8154 H 750.415 0.55335 0.614599 0
M  V30 8155 H 752.961 1.57355 0.635423 0
M  V30 8156 H 751.733 3.49085 1.76793 0
M  V30 8157 H 751.356 2.45031 3.13122 0
M  V30 8158 N 752.353 -0.854086 1.3245 0
M  V30 8159 C 753.764 -1.42427 1.20712 0
M  V30 8160 C 754.115 -1.95371 -0.18013 0
M  V30 8161 O 753.24 -1.87587 -1.07889 0
M  V30 8162 C 753.835 -2.58897 2.18536 0
M  V30 8163 C 752.394 -3.11913 2.10683 0
M  V30 8164 C 751.541 -1.84661 2.06871 0
M  V30 8165 H 754.492 -0.661192 1.4427 0
M  V30 8166 H 754.513 -3.36074 1.78422 0
M  V30 8167 H 754.025 -2.20333 3.19492 0
M  V30 8168 H 752.126 -3.55059 1.12977 0
M  V30 8169 H 752.239 -3.73119 3.00532 0
M  V30 8170 H 750.603 -2.04285 1.52118 0
M  V30 8171 H 751.386 -1.48314 3.09609 0
M  V30 8172 N 753.831 -1.1567 -1.07043 0
M  V30 8173 C 754.761 -0.879348 -2.16309 0
M  V30 8174 C 755.742 0.171311 -1.69235 0
M  V30 8175 O 756.927 0.0250175 -1.94184 0
M  V30 8176 C 754.057 -0.371307 -3.45309 0
M  V30 8177 C 753.011 -1.359 -4.05851 0
M  V30 8178 C 752.337 -0.709678 -5.29969 0
M  V30 8179 C 753.637 -2.72606 -4.45514 0
M  V30 8180 H 755.331 -1.79308 -2.39768 0
M  V30 8181 H 752.877 -0.863558 -1.15233 0
M  V30 8182 H 754.83 -0.164798 -4.21078 0
M  V30 8183 H 753.554 0.577906 -3.21446 0
M  V30 8184 H 752.213 -1.55193 -3.32131 0
M  V30 8185 H 751.861 0.245782 -5.02399 0
M  V30 8186 H 751.561 -1.36886 -5.71433 0
M  V30 8187 H 753.085 -0.513015 -6.08441 0
M  V30 8188 H 754.499 -2.57141 -5.12398 0
M  V30 8189 H 752.896 -3.34927 -4.97939 0
M  V30 8190 H 753.966 -3.28434 -3.56734 0
M  V30 8191 N 755.309 1.25446 -0.953992 0
M  V30 8192 C 756.239 2.28264 -0.491717 0
M  V30 8193 C 757.22 1.63717 0.461617 0
M  V30 8194 O 758.405 1.90821 0.36071 0
M  V30 8195 C 755.535 3.46525 0.231915 0
M  V30 8196 C 754.489 4.23247 -0.636098 0
M  V30 8197 C 753.815 5.34254 0.218238 0
M  V30 8198 C 755.115 4.85971 -1.91389 0
M  V30 8199 H 756.809 2.67183 -1.35106 0
M  V30 8200 H 754.355 1.2844 -0.651095 0
M  V30 8201 H 756.308 4.17576 0.566439 0
M  V30 8202 H 755.032 3.06594 1.12551 0
M  V30 8203 H 753.691 3.53978 -0.953696 0
M  V30 8204 H 753.339 4.90564 1.11156 0
M  V30 8205 H 753.039 5.86501 -0.359232 0
M  V30 8206 H 754.563 6.08138 0.547743 0
M  V30 8207 H 755.977 5.49168 -1.64581 0
M  V30 8208 H 754.374 5.48391 -2.43696 0
M  V30 8209 H 755.444 4.08192 -2.61738 0
M  V30 8210 N 756.787 0.722489 1.40064 0
M  V30 8211 C 758.198 0.336507 1.83642 0
M  V30 8212 C 758.549 -1.13002 1.6039 0
M  V30 8213 O 757.674 -1.87036 1.08842 0
M  V30 8214 C 758.269 0.603985 3.33373 0
M  V30 8215 C 756.828 0.271637 3.75419 0
M  V30 8216 C 755.975 0.872898 2.63203 0
M  V30 8217 H 758.926 0.921108 1.29233 0
M  V30 8218 H 758.947 -0.128471 3.80283 0
M  V30 8219 H 758.459 1.67141 3.50265 0
M  V30 8220 H 756.56 -0.790455 3.64119 0
M  V30 8221 H 756.673 0.745457 4.73265 0
M  V30 8222 H 755.037 0.300431 2.52922 0
M  V30 8223 H 755.82 1.94473 2.82905 0
M  V30 8224 N 758.265 -1.50454 0.469181 0
M  V30 8225 C 759.213 -2.30101 -0.340033 0
M  V30 8226 C 760.207 -1.37306 -0.992135 0
M  V30 8227 O 761.413 -1.54506 -0.923458 0
M  V30 8228 H 757.788 -0.740941 -0.128495 0
M  V30 8229 H 759.759 -2.96315 0.352144 0
M  V30 8230 C 758.508 -3.17804 -1.41052 0
M  V30 8231 H 757.831 -3.89115 -0.918124 0
M  V30 8232 H 759.271 -3.76533 -1.94934 0
M  V30 8233 C 757.73 -2.35272 -2.4114 0
M  V30 8234 O 758.26 -2.03448 -3.4637 0
M  V30 8235 N 756.466 -1.97889 -2.1281 0
M  V30 8236 H 756.013 -2.2397 -1.27261 0
M  V30 8237 H 755.971 -1.42971 -2.80012 0
M  V30 8238 N 759.743 -0.201713 -1.56304 0
M  V30 8239 C 760.989 0.435952 -1.98059 0
M  V30 8240 C 761.322 1.60811 -1.08873 0
M  V30 8241 O 760.597 1.9398 -0.142128 0
M  V30 8242 C 760.88 0.889706 -3.48936 0
M  V30 8243 C 760.733 -0.284725 -4.48898 0
M  V30 8244 C 762.052 1.7529 -4.03685 0
M  V30 8245 H 759.171 0.15699 -0.720085 0
M  V30 8246 H 761.813 -0.293965 -1.87712 0
M  V30 8247 H 759.963 1.51166 -3.57884 0
M  V30 8248 H 761.635 -0.922531 -4.51981 0
M  V30 8249 H 759.878 -0.935427 -4.23594 0
M  V30 8250 H 760.549 0.0753865 -5.51949 0
M  V30 8251 H 763.025 1.2283 -3.97558 0
M  V30 8252 H 761.901 2.03933 -5.0961 0
M  V30 8253 H 762.162 2.70939 -3.49348 0
M  V30 8254 N 761.222 1.57436 0.0718424 0
M  V30 8255 C 762.17 2.04725 1.10411 0
M  V30 8256 C 763.164 0.952579 1.4008 0
M  V30 8257 O 764.37 1.13769 1.39487 0
M  V30 8258 H 760.745 0.652749 0.373393 0
M  V30 8259 H 762.716 2.90569 0.679126 0
M  V30 8260 C 761.465 2.5068 2.40946 0
M  V30 8261 H 760.788 3.34505 2.18967 0
M  V30 8262 H 762.228 2.87521 3.11621 0
M  V30 8263 C 760.687 1.38971 3.06902 0
M  V30 8264 O 761.217 0.731786 3.94978 0
M  V30 8265 N 759.423 1.13485 2.67525 0
M  V30 8266 H 758.97 1.67168 1.95991 0
M  V30 8267 H 758.928 0.389467 3.11978 0
M  V30 8268 N 762.7 -0.34323 1.53817 0
M  V30 8269 C 763.633 -1.44472 1.76644 0
M  V30 8270 C 764.611 -1.50498 0.615556 0
M  V30 8271 O 765.795 -1.6821 0.850751 0
M  V30 8272 C 762.922 -2.82705 1.86536 0
M  V30 8273 C 761.968 -2.94302 3.08688 0
M  V30 8274 S 762.801 -2.60739 4.67735 0
M  V30 8275 C 763.957 -4.01079 4.80506 0
M  V30 8276 H 764.19 -1.24893 2.69794 0
M  V30 8277 H 761.723 -0.538915 1.4469 0
M  V30 8278 H 763.681 -3.62342 1.92921 0
M  V30 8279 H 762.342 -2.9958 0.943975 0
M  V30 8280 H 761.535 -3.95593 3.12286 0
M  V30 8281 H 761.137 -2.22614 3.00531 0
M  V30 8282 H 763.429 -4.95603 4.61935 0
M  V30 8283 H 764.372 -4.02475 5.82597 0
M  V30 8284 H 764.78 -3.89119 4.08958 0
M  V30 8285 N 764.178 -1.45556 -0.604258 0
M  V30 8286 C 765.088 -1.57025 -1.74299 0
M  V30 8287 C 766.104 -0.45456 -1.67958 0
M  V30 8288 O 767.28 -0.715711 -1.88254 0
M  V30 8289 C 764.345 -1.53702 -3.10768 0
M  V30 8290 C 763.406 -2.76335 -3.28538 0
M  V30 8291 C 762.639 -2.73161 -4.58496 0
M  V30 8292 O 762.862 -1.80678 -5.41028 0
M  V30 8293 O 761.796 -3.64409 -4.79051 0
M  V30 8294 H 765.622 -2.53284 -1.67573 0
M  V30 8295 H 763.207 -1.28104 -0.768745 0
M  V30 8296 H 765.089 -1.54468 -3.92068 0
M  V30 8297 H 763.764 -0.605957 -3.17978 0
M  V30 8298 H 762.671 -2.8113 -2.46813 0
M  V30 8299 H 764.004 -3.68578 -3.26207 0
M  V30 8300 N 765.656 0.84705 -1.32902 0
M  V30 8301 C 767.067 1.41785 -1.21466 0
M  V30 8302 C 767.418 1.95464 0.169767 0
M  V30 8303 O 766.543 1.88157 1.06892 0
M  V30 8304 C 767.138 2.57734 -2.19906 0
M  V30 8305 C 765.697 3.10791 -2.12334 0
M  V30 8306 C 764.844 1.83562 -2.07847 0
M  V30 8307 H 767.795 0.653532 -1.44619 0
M  V30 8308 H 767.816 3.35123 -1.80202 0
M  V30 8309 H 767.328 2.18635 -3.20656 0
M  V30 8310 H 765.429 3.54455 -1.14858 0
M  V30 8311 H 765.542 3.71519 -3.02506 0
M  V30 8312 H 763.906 2.03475 -1.53199 0
M  V30 8313 H 764.689 1.4667 -3.10392 0
M  V30 8314 N 767.134 1.16236 1.06428 0
M  V30 8315 C 768.064 0.890807 2.1584 0
M  V30 8316 C 769.045 -0.162333 1.69324 0
M  V30 8317 O 770.23 -0.0147191 1.94194 0
M  V30 8318 C 767.36 0.389615 3.45108 0
M  V30 8319 C 766.314 1.38051 4.05125 0
M  V30 8320 C 765.64 0.737773 5.29586 0
M  V30 8321 C 766.94 2.74965 4.44062 0
M  V30 8322 H 768.634 1.80577 2.38814 0
M  V30 8323 H 766.18 0.869657 1.14774 0
M  V30 8324 H 768.133 0.187127 4.20984 0
M  V30 8325 H 766.857 -0.560851 3.21748 0
M  V30 8326 H 765.516 1.56952 3.31303 0
M  V30 8327 H 765.164 -0.219135 5.02522 0
M  V30 8328 H 764.864 1.39914 5.70699 0
M  V30 8329 H 766.388 0.545275 6.0816 0
M  V30 8330 H 767.802 2.59855 5.11027 0
M  V30 8331 H 766.199 3.37563 4.96156 0
M  V30 8332 H 767.269 3.30321 3.54987 0
M  V30 8333 N 768.612 -1.24939 0.960631 0
M  V30 8334 C 769.56 -2.27659 0.47686 0
M  V30 8335 C 770.554 -1.63148 -0.455961 0
M  V30 8336 O 771.76 -1.76911 -0.332029 0
M  V30 8337 H 768.135 -0.739651 0.135723 0
M  V30 8338 H 770.106 -2.65844 1.35534 0
M  V30 8339 C 768.855 -3.46976 -0.224191 0
M  V30 8340 H 768.178 -3.96854 0.484471 0
M  V30 8341 H 769.618 -4.20717 -0.526615 0
M  V30 8342 C 768.077 -3.04159 -1.44876 0
M  V30 8343 O 768.607 -3.10697 -2.54618 0
M  V30 8344 N 766.813 -2.59284 -1.31226 0
M  V30 8345 H 766.36 -2.54164 -0.419361 0
M  V30 8346 H 766.318 -2.31 -2.13275 0
M  V30 8347 N 770.09 -0.729906 -1.39679 0
M  V30 8348 C 771.02 -0.101618 -2.33279 0
M  V30 8349 C 772.001 0.729854 -1.53646 0
M  V30 8350 O 773.186 0.67587 -1.82059 0
M  V30 8351 C 770.316 0.81024 -3.37716 0
M  V30 8352 C 769.27 0.0833126 -4.27919 0
M  V30 8353 C 768.596 1.11185 -5.23012 0
M  V30 8354 C 769.896 -1.07107 -5.112 0
M  V30 8355 H 771.59 -0.883452 -2.86069 0
M  V30 8356 H 769.136 -0.426283 -1.37546 0
M  V30 8357 H 771.089 1.25927 -4.02145 0
M  V30 8358 H 769.813 1.62413 -2.83354 0
M  V30 8359 H 768.472 -0.346043 -3.64963 0
M  V30 8360 H 768.12 1.91917 -4.64948 0
M  V30 8361 H 767.82 0.63026 -5.8421 0
M  V30 8362 H 769.344 1.56068 -5.90318 0
M  V30 8363 H 770.758 -0.700726 -5.69002 0
M  V30 8364 H 769.155 -1.48196 -5.81514 0
M  V30 8365 H 770.225 -1.89513 -4.46332 0
M  V30 8366 N 771.568 1.50203 -0.477153 0
M  V30 8367 C 772.979 1.86685 -0.0235041 0
M  V30 8368 C 773.33 1.39148 1.38319 0
M  V30 8369 O 772.455 0.759051 2.02651 0
M  V30 8370 C 773.05 3.38781 -0.0358767 0
M  V30 8371 C 771.609 3.74652 0.362327 0
M  V30 8372 C 770.756 2.7412 -0.41875 0
M  V30 8373 H 773.707 1.4286 -0.691133 0
M  V30 8374 H 773.728 3.72732 0.764924 0
M  V30 8375 H 773.24 3.73349 -1.05981 0
M  V30 8376 H 771.341 3.45686 1.39039 0
M  V30 8377 H 771.454 4.79063 0.059457 0
M  V30 8378 H 769.818 2.54376 0.128341 0
M  V30 8379 H 770.601 3.11532 -1.44231 0
M  V30 8380 N 773.046 0.209999 1.56195 0
M  V30 8381 C 774.294 -0.423974 1.97603 0
M  V30 8382 C 774.615 -1.61112 1.09854 0
M  V30 8383 O 773.885 -1.95134 0.173032 0
M  V30 8384 H 772.465 -0.159629 0.729745 0
M  V30 8385 H 775.127 0.300205 1.92574 0
M  V30 8386 H 774.223 -0.75809 3.02753 0
M  V30 8387 N 774.524 -1.57472 -0.0634922 0
M  V30 8388 C 775.434 -2.07621 -1.09227 0
M  V30 8389 C 776.45 -1.00746 -1.41867 0
M  V30 8390 O 777.626 -1.32269 -1.51878 0
M  V30 8391 C 774.691 -2.51707 -2.38421 0
M  V30 8392 C 773.752 -3.72917 -2.12676 0
M  V30 8393 C 772.985 -4.14891 -3.3571 0
M  V30 8394 O 773.208 -3.56663 -4.45137 0
M  V30 8395 O 772.142 -5.07616 -3.23434 0
M  V30 8396 H 775.968 -2.95612 -0.696205 0
M  V30 8397 H 773.553 -1.46787 -0.27819 0
M  V30 8398 H 775.435 -2.80547 -3.14438 0
M  V30 8399 H 774.11 -1.66842 -2.77391 0
M  V30 8400 H 773.017 -3.49148 -1.34337 0
M  V30 8401 H 774.35 -4.5866 -1.78583 0
M  V30 8402 N 776.003 0.335068 -1.53997 0
M  V30 8403 C 776.913 1.43511 -1.85585 0
M  V30 8404 C 777.929 1.57162 -0.746726 0
M  V30 8405 O 779.105 1.72477 -1.03988 0
M  V30 8406 C 776.17 2.78386 -2.06646 0
M  V30 8407 C 775.231 2.74007 -3.30483 0
M  V30 8408 C 774.464 4.02449 -3.50529 0
M  V30 8409 O 774.687 5.00147 -2.74242 0
M  V30 8410 O 773.621 4.06405 -4.4398 0
M  V30 8411 H 777.447 1.19731 -2.79102 0
M  V30 8412 H 775.032 0.528033 -1.39758 0
M  V30 8413 H 776.914 3.58247 -2.21894 0
M  V30 8414 H 775.589 3.0208 -1.16317 0
M  V30 8415 H 774.496 1.92736 -3.2063 0
M  V30 8416 H 775.829 2.55267 -4.20832 0
M  V30 8417 N 777.481 1.45874 0.596531 0
M  V30 8418 C 778.73 1.49737 1.35135 0
M  V30 8419 C 779.043 0.147755 1.95041 0
M  V30 8420 O 780.249 0.0640984 2.71424 0
M  V30 8421 C 778.705 2.6378 2.44843 0
M  V30 8422 C 778.313 4.05102 1.91301 0
M  V30 8423 C 780.057 2.769 3.21755 0
M  V30 8424 C 777.964 5.10508 2.98557 0
M  V30 8425 H 776.894 0.557219 0.507959 0
M  V30 8426 H 779.545 1.72046 0.638147 0
M  V30 8427 H 777.927 2.34774 3.189 0
M  V30 8428 H 779.101 4.43836 1.2388 0
M  V30 8429 H 777.416 3.96528 1.271 0
M  V30 8430 H 780.013 3.52819 4.01775 0
M  V30 8431 H 780.356 1.83924 3.73467 0
M  V30 8432 H 780.889 3.05485 2.54802 0
M  V30 8433 H 777.628 6.0523 2.51749 0
M  V30 8434 H 777.148 4.76332 3.6451 0
M  V30 8435 H 778.827 5.35745 3.62748 0
M  V30 8436 N 778.959 -0.83999 1.33349 0
M  V30 8437 C 780.205 -1.59753 1.24927 0
M  V30 8438 C 780.538 -1.93318 -0.184855 0
M  V30 8439 O 779.813 -1.586 -1.12589 0
M  V30 8440 C 780.096 -2.90829 2.12345 0
M  V30 8441 C 779.949 -2.63953 3.6421 0
M  V30 8442 C 781.268 -3.92246 1.99577 0
M  V30 8443 H 778.387 -0.579654 0.45516 0
M  V30 8444 H 781.029 -0.968909 1.63439 0
M  V30 8445 H 779.179 -3.44478 1.79631 0
M  V30 8446 H 780.851 -2.16745 4.07209 0
M  V30 8447 H 779.094 -1.97671 3.86146 0
M  V30 8448 H 779.765 -3.57348 4.20721 0
M  V30 8449 H 782.241 -3.479 2.28265 0
M  V30 8450 H 781.117 -4.81793 2.62996 0
M  V30 8451 H 781.378 -4.3138 0.967673 0
M  V30 8452 N 780.437 -1.16799 -1.0581 0
M  V30 8453 C 781.684 -0.952524 -1.78699 0
M  V30 8454 C 782.012 0.51931 -1.87439 0
M  V30 8455 O 781.267 1.40151 -1.36587 0
M  V30 8456 C 781.566 -1.53111 -3.22942 0
M  V30 8457 C 781.232 -3.0261 -3.34273 0
M  V30 8458 C 779.894 -3.43418 -3.37072 0
M  V30 8459 C 782.246 -3.98611 -3.35795 0
M  V30 8460 C 779.574 -4.78838 -3.39015 0
M  V30 8461 C 781.926 -5.33923 -3.39277 0
M  V30 8462 C 780.59 -5.74205 -3.40361 0
M  V30 8463 H 779.86 -0.348553 -0.653905 0
M  V30 8464 H 782.507 -1.45591 -1.244 0
M  V30 8465 H 780.812 -0.949286 -3.80126 0
M  V30 8466 H 782.509 -1.34002 -3.77948 0
M  V30 8467 H 779.099 -2.70075 -3.32803 0
M  V30 8468 H 783.283 -3.68146 -3.32839 0
M  V30 8469 H 778.539 -5.09369 -3.38161 0
M  V30 8470 H 782.713 -6.08094 -3.39403 0
M  V30 8471 H 780.34 -6.79117 -3.4162 0
M  V30 8472 N 781.915 1.24427 -0.967243 0
M  V30 8473 C 783.145 1.96256 -0.64554 0
M  V30 8474 C 783.553 1.71959 0.789098 0
M  V30 8475 O 782.896 0.999913 1.54102 0
M  V30 8476 C 782.958 3.49553 -0.839798 0
M  V30 8477 C 782.622 3.97548 -2.25399 0
M  V30 8478 C 783.619 4.07257 -3.23168 0
M  V30 8479 C 781.304 4.30884 -2.58156 0
M  V30 8480 C 783.298 4.49635 -4.51782 0
M  V30 8481 C 780.985 4.72946 -3.86996 0
M  V30 8482 C 781.983 4.82286 -4.83621 0
M  V30 8483 O 781.671 5.23409 -6.10162 0
M  V30 8484 H 781.403 0.632002 -0.239895 0
M  V30 8485 H 783.957 1.59224 -1.29757 0
M  V30 8486 H 782.187 3.86479 -0.130603 0
M  V30 8487 H 783.876 4.02591 -0.517249 0
M  V30 8488 H 784.642 3.8172 -2.9919 0
M  V30 8489 H 780.521 4.22833 -1.83666 0
M  V30 8490 H 784.065 4.5684 -5.27203 0
M  V30 8491 H 779.962 4.9793 -4.10775 0
M  V30 8492 H 780.73 5.4156 -6.13722 0
M  V30 8493 N 783.393 0.737304 1.3929 0
M  V30 8494 C 784.67 0.212464 1.94443 0
M  V30 8495 C 785.05 -1.28621 1.67391 0
M  V30 8496 O 784.398 -2.0529 1.00342 0
M  V30 8497 C 784.608 0.548565 3.44662 0
M  V30 8498 C 785.956 0.499177 4.21656 0
M  V30 8499 O 786.98 0.485892 3.5287 0
M  V30 8500 O 785.839 0.495739 5.44247 0
M  V30 8501 H 782.933 0.0395457 0.826054 0
M  V30 8502 H 785.479 0.816319 1.48776 0
M  V30 8503 H 784.251 1.58426 3.57795 0
M  V30 8504 H 783.874 -0.0841399 3.97511 0
M  V30 8505 N 784.871 -1.49948 0.485112 0
M  V30 8506 C 786.148 -1.95186 -0.12726 0
M  V30 8507 C 786.528 -1.42605 -1.5565 0
M  V30 8508 O 785.876 -0.632986 -2.19558 0
M  V30 8509 C 786.086 -3.48955 -0.0562117 0
M  V30 8510 C 787.434 -4.23932 -0.238106 0
M  V30 8511 O 788.458 -3.55955 -0.132145 0
M  V30 8512 O 787.317 -5.44614 -0.453658 0
M  V30 8513 H 784.411 -0.820433 -0.104014 0
M  V30 8514 H 786.957 -1.60659 0.546517 0
M  V30 8515 H 785.729 -3.79814 0.941122 0
M  V30 8516 H 785.352 -3.90056 -0.770834 0
M  V30 8517 N 786.349 -0.21828 -1.56081 0
M  V30 8518 C 787.598 0.414644 -1.97392 0
M  V30 8519 C 787.911 1.61132 -1.10887 0
M  V30 8520 O 789.117 2.31355 -1.42082 0
M  V30 8521 C 787.573 0.789099 -3.51143 0
M  V30 8522 C 787.181 -0.384578 -4.46346 0
M  V30 8523 C 788.925 1.38781 -4.01173 0
M  V30 8524 C 786.832 0.0121288 -5.91399 0
M  V30 8525 H 785.762 0.158691 -0.737111 0
M  V30 8526 H 788.413 -0.313974 -1.80794 0
M  V30 8527 H 786.795 1.57505 -3.6333 0
M  V30 8528 H 787.969 -1.16212 -4.45905 0
M  V30 8529 H 786.284 -0.896306 -4.06639 0
M  V30 8530 H 788.881 1.69746 -5.07041 0
M  V30 8531 H 789.224 2.30245 -3.46833 0
M  V30 8532 H 789.757 0.665364 -3.92196 0
M  V30 8533 H 786.496 -0.868917 -6.49715 0
M  V30 8534 H 786.016 0.754053 -5.95041 0
M  V30 8535 H 787.695 0.439949 -6.45502 0
M  V30 8536 N 787.827 1.57504 0.0551401 0
M  V30 8537 C 789.055 1.92294 0.76358 0
M  V30 8538 C 789.47 0.815774 1.70266 0
M  V30 8539 O 788.827 -0.209772 1.8129 0
M  V30 8540 C 788.878 3.26914 1.54302 0
M  V30 8541 O 788.599 4.33375 0.641666 0
M  V30 8542 C 790.1 3.75825 2.35097 0
M  V30 8543 H 787.32 0.635229 0.216159 0
M  V30 8544 H 789.864 2.0449 0.0204385 0
M  V30 8545 H 788.019 3.16196 2.23828 0
M  V30 8546 H 788.433 5.10927 1.1855 0
M  V30 8547 H 789.907 4.72603 2.8522 0
M  V30 8548 H 790.384 3.0568 3.15367 0
M  V30 8549 H 790.99 3.89542 1.70696 0
M  V30 8550 N 789.305 -0.326896 1.54172 0
M  V30 8551 C 790.252 -1.40216 1.83325 0
M  V30 8552 C 791.222 -1.51538 0.680107 0
M  V30 8553 O 792.407 -1.66811 0.926206 0
M  V30 8554 C 789.547 -2.76626 2.0633 0
M  V30 8555 C 788.66 -2.73963 3.34019 0
M  V30 8556 C 787.795 -4.02198 3.47002 0
M  V30 8557 C 786.834 -3.93828 4.68578 0
M  V30 8558 N 785.971 -5.13787 4.78506 0
M  V30 8559 H 790.811 -1.14656 2.7506 0
M  V30 8560 H 788.348 -0.555089 1.36225 0
M  V30 8561 H 790.306 -3.55922 2.17659 0
M  V30 8562 H 788.936 -3.00503 1.1789 0
M  V30 8563 H 787.988 -1.86677 3.31445 0
M  V30 8564 H 789.3 -2.6366 4.2342 0
M  V30 8565 H 788.454 -4.89923 3.57855 0
M  V30 8566 H 787.193 -4.15302 2.55687 0
M  V30 8567 H 786.198 -3.04487 4.57786 0
M  V30 8568 H 787.423 -3.82292 5.61275 0
M  V30 8569 H 785.369 -5.27403 3.90105 0
M  V30 8570 H 785.286 -5.05807 5.61868 0
M  V30 8571 H 786.554 -6.03236 4.93686 0
M  V30 8572 N 790.784 -1.46188 -0.588786 0
M  V30 8573 C 792.014 -1.54519 -1.3714 0
M  V30 8574 C 792.422 -0.183075 -1.88312 0
M  V30 8575 O 791.765 0.828815 -1.6394 0
M  V30 8576 C 791.827 -2.48426 -2.59856 0
M  V30 8577 C 791.491 -3.94791 -2.30193 0
M  V30 8578 C 792.488 -4.84173 -1.894 0
M  V30 8579 C 790.173 -4.39872 -2.42525 0
M  V30 8580 C 792.167 -6.16647 -1.61325 0
M  V30 8581 C 789.854 -5.72381 -2.14063 0
M  V30 8582 C 790.852 -6.60589 -1.73527 0
M  V30 8583 O 790.54 -7.9064 -1.4541 0
M  V30 8584 H 790.272 -0.525264 -0.425527 0
M  V30 8585 H 792.826 -1.92242 -0.723344 0
M  V30 8586 H 791.056 -2.05709 -3.27446 0
M  V30 8587 H 792.745 -2.4723 -3.21919 0
M  V30 8588 H 793.511 -4.50603 -1.79393 0
M  V30 8589 H 789.39 -3.71444 -2.7304 0
M  V30 8590 H 792.934 -6.85454 -1.29611 0
M  V30 8591 H 788.831 -6.05501 -2.23693 0
M  V30 8592 H 789.599 -8.02847 -1.59306 0
M  V30 8593 N 792.262 0.832906 -1.33792 0
M  V30 8594 C 793.508 1.59089 -1.25772 0
M  V30 8595 C 793.841 1.93414 0.174601 0
M  V30 8596 O 793.116 1.59195 1.11746 0
M  V30 8597 C 793.399 2.89699 -2.13885 0
M  V30 8598 C 793.252 2.62017 -3.65605 0
M  V30 8599 C 794.571 3.91182 -2.01654 0
M  V30 8600 H 791.69 0.577232 -0.458227 0
M  V30 8601 H 794.332 0.960227 -1.6395 0
M  V30 8602 H 792.482 3.4352 -1.81456 0
M  V30 8603 H 794.154 2.14582 -4.08353 0
M  V30 8604 H 792.397 1.95621 -3.87189 0
M  V30 8605 H 793.068 3.55112 -4.2261 0
M  V30 8606 H 795.544 3.46684 -2.30107 0
M  V30 8607 H 794.42 4.80391 -2.65548 0
M  V30 8608 H 794.681 4.30861 -0.990536 0
M  V30 8609 N 793.74 1.17359 1.05189 0
M  V30 8610 C 795.017 0.871914 1.75091 0
M  V30 8611 C 795.397 -0.627821 2.01548 0
M  V30 8612 O 794.745 -1.5791 1.65156 0
M  V30 8613 C 794.955 1.70687 3.04413 0
M  V30 8614 C 796.303 1.92684 3.78362 0
M  V30 8615 O 797.327 1.67645 3.14282 0
M  V30 8616 O 796.186 2.34765 4.93505 0
M  V30 8617 H 793.28 0.322831 0.761386 0
M  V30 8618 H 795.826 1.28054 1.11357 0
M  V30 8619 H 794.598 2.72405 2.80911 0
M  V30 8620 H 794.221 1.29602 3.75884 0
M  V30 8621 N 795.218 -1.23913 0.973828 0
M  V30 8622 C 796.448 -1.95911 0.655938 0
M  V30 8623 C 796.856 -1.72375 -0.779967 0
M  V30 8624 O 796.199 -1.00807 -1.5357 0
M  V30 8625 C 796.261 -3.49103 0.858324 0
M  V30 8626 C 795.925 -3.96347 2.27504 0
M  V30 8627 C 796.922 -4.05537 3.25324 0
M  V30 8628 C 794.607 -4.29509 2.60437 0
M  V30 8629 C 796.601 -4.47233 4.5416 0
M  V30 8630 C 794.288 -4.70887 3.89498 0
M  V30 8631 C 795.286 -4.79714 4.86172 0
M  V30 8632 O 794.974 -5.20166 6.1293 0
M  V30 8633 H 794.706 -0.630721 0.243244 0
M  V30 8634 H 797.26 -1.58534 1.30599 0
M  V30 8635 H 795.49 -3.86405 0.151097 0
M  V30 8636 H 797.179 -4.02311 0.538592 0
M  V30 8637 H 797.945 -3.80128 3.0121 0
M  V30 8638 H 793.824 -4.21853 1.85906 0
M  V30 8639 H 797.368 -4.54038 5.29618 0
M  V30 8640 H 793.265 -4.95744 4.1341 0
M  V30 8641 H 794.033 -5.38298 6.16586 0
M  V30 8642 N 796.696 -0.74468 -1.38897 0
M  V30 8643 C 797.626 -0.126355 -2.33158 0
M  V30 8644 C 798.607 0.713517 -1.54412 0
M  V30 8645 O 799.792 0.656523 -1.82766 0
M  V30 8646 C 796.922 0.774375 -3.38557 0
M  V30 8647 C 795.876 0.0379214 -4.27983 0
M  V30 8648 C 795.202 1.05631 -5.24162 0
M  V30 8649 C 796.502 -1.12523 -5.10035 0
M  V30 8650 H 798.196 -0.913744 -2.85116 0
M  V30 8651 H 795.742 -0.440847 -1.37086 0
M  V30 8652 H 797.695 1.21655 -4.03458 0
M  V30 8653 H 796.419 1.59399 -2.85061 0
M  V30 8654 H 795.078 -0.384733 -3.64576 0
M  V30 8655 H 794.726 1.86975 -4.66958 0
M  V30 8656 H 794.426 0.568261 -5.84846 0
M  V30 8657 H 795.95 1.49799 -5.9194 0
M  V30 8658 H 797.364 -0.761037 -5.68226 0
M  V30 8659 H 795.761 -1.54355 -5.79909 0
M  V30 8660 H 796.831 -1.94237 -4.44297 0
M  V30 8661 N 798.174 1.49689 -0.493057 0
M  V30 8662 C 799.122 2.30613 0.303383 0
M  V30 8663 C 800.116 1.38867 0.970165 0
M  V30 8664 O 801.322 1.55956 0.898761 0
M  V30 8665 H 797.697 0.742891 0.116691 0
M  V30 8666 H 799.668 2.95717 -0.39924 0
M  V30 8667 C 798.417 3.20008 1.35978 0
M  V30 8668 H 797.74 3.90526 0.856103 0
M  V30 8669 H 799.18 3.79586 1.88919 0
M  V30 8670 C 797.639 2.39079 2.37367 0
M  V30 8671 O 798.169 2.08933 3.43089 0
M  V30 8672 N 796.375 2.0125 2.09635 0
M  V30 8673 H 795.922 2.25966 1.23682 0
M  V30 8674 H 795.88 1.47408 2.77702 0
M  V30 8675 N 799.652 0.226554 1.55963 0
M  V30 8676 C 800.877 -0.411527 2.03276 0
M  V30 8677 C 801.302 -1.52206 1.10521 0
M  V30 8678 O 800.66 -1.81054 0.0943217 0
M  V30 8679 C 800.708 -0.915694 3.4878 0
M  V30 8680 O 799.812 -2.02672 3.59163 0
M  V30 8681 H 799.153 -0.0924907 0.657527 0
M  V30 8682 H 801.683 0.346656 2.01642 0
M  V30 8683 H 801.693 -1.22421 3.892 0
M  V30 8684 H 800.368 -0.102915 4.15773 0
M  V30 8685 H 798.945 -1.72445 3.30632 0
M  V30 8686 N 801.13 -1.57531 -0.0467866 0
M  V30 8687 C 802.36 -1.92417 -0.752279 0
M  V30 8688 C 802.768 -0.823134 -1.70356 0
M  V30 8689 O 802.111 0.210598 -1.82489 0
M  V30 8690 C 802.173 -3.22974 -1.57887 0
M  V30 8691 C 801.837 -4.50045 -0.794285 0
M  V30 8692 C 802.834 -5.19799 -0.102368 0
M  V30 8693 C 800.519 -4.96608 -0.754061 0
M  V30 8694 C 802.513 -6.34385 0.619267 0
M  V30 8695 C 800.2 -6.11093 -0.0286682 0
M  V30 8696 C 801.198 -6.79835 0.656772 0
M  V30 8697 O 800.886 -7.92133 1.37042 0
M  V30 8698 H 800.618 -0.640029 -0.217576 0
M  V30 8699 H 803.172 -2.05395 -0.0137438 0
M  V30 8700 H 801.402 -3.06273 -2.3608 0
M  V30 8701 H 803.091 -3.43319 -2.16533 0
M  V30 8702 H 803.857 -4.8484 -0.124589 0
M  V30 8703 H 799.736 -4.42958 -1.27706 0
M  V30 8704 H 803.28 -6.87975 1.15483 0
M  V30 8705 H 799.177 -6.455 -0.00446214 0
M  V30 8706 H 799.945 -8.08394 1.28227 0
M  V30 8707 N 802.608 0.318715 -1.54344 0
M  V30 8708 C 803.838 1.07394 -1.76494 0
M  V30 8709 C 804.246 1.82031 -0.515881 0
M  V30 8710 O 803.589 1.7609 0.52325 0
M  V30 8711 C 803.651 2.11401 -2.90775 0
M  V30 8712 C 803.315 1.56118 -4.29507 0
M  V30 8713 C 804.312 1.00043 -5.10184 0
M  V30 8714 C 801.997 1.60215 -4.76063 0
M  V30 8715 C 803.991 0.487993 -6.35529 0
M  V30 8716 C 801.678 1.08584 -6.01376 0
M  V30 8717 C 802.676 0.529714 -6.80943 0
M  V30 8718 O 802.364 0.0211823 -8.03897 0
M  V30 8719 H 802.096 0.325061 -0.592715 0
M  V30 8720 H 804.65 0.36901 -2.02058 0
M  V30 8721 H 802.88 2.85524 -2.60793 0
M  V30 8722 H 804.569 2.72683 -3.00664 0
M  V30 8723 H 805.335 0.961811 -4.75367 0
M  V30 8724 H 801.214 2.02441 -4.14172 0
M  V30 8725 H 804.758 0.0532608 -6.9758 0
M  V30 8726 H 800.655 1.12155 -6.35682 0
M  V30 8727 H 801.423 0.136151 -8.18387 0
M  V30 8728 N 804.086 1.46499 0.581025 0
M  V30 8729 C 805.316 1.55244 1.36319 0
M  V30 8730 C 805.724 0.193059 1.88212 0
M  V30 8731 O 805.067 -0.820109 1.64377 0
M  V30 8732 C 805.129 2.498 2.58535 0
M  V30 8733 C 804.793 3.96007 2.28096 0
M  V30 8734 C 805.79 4.85171 1.8683 0
M  V30 8735 C 803.475 4.41152 2.40189 0
M  V30 8736 C 805.469 6.17493 1.58053 0
M  V30 8737 C 803.156 5.73508 2.11024 0
M  V30 8738 C 804.154 6.615 1.70021 0
M  V30 8739 O 803.842 7.914 1.41215 0
M  V30 8740 H 803.574 0.527513 0.422736 0
M  V30 8741 H 806.128 1.92623 0.713139 0
M  V30 8742 H 804.358 2.07443 3.2635 0
M  V30 8743 H 806.047 2.48934 3.20604 0
M  V30 8744 H 806.813 4.51548 1.77001 0
M  V30 8745 H 802.692 3.72886 2.71066 0
M  V30 8746 H 806.236 6.86131 1.25974 0
M  V30 8747 H 802.133 6.06679 2.20478 0
M  V30 8748 H 802.901 8.03681 1.55046 0
M  V30 8749 N 805.565 -0.825799 1.34232 0
M  V30 8750 C 806.495 -1.95151 1.28212 0
M  V30 8751 C 807.476 -1.69345 0.160123 0
M  V30 8752 O 808.661 -1.90983 0.352019 0
M  V30 8753 C 805.791 -3.31554 1.03388 0
M  V30 8754 C 804.745 -3.71793 2.12023 0
M  V30 8755 C 804.071 -5.06147 1.72392 0
M  V30 8756 C 805.371 -3.84193 3.53826 0
M  V30 8757 H 807.065 -2.00445 2.22401 0
M  V30 8758 H 804.611 -0.962996 1.07063 0
M  V30 8759 H 806.564 -4.09889 0.978225 0
M  V30 8760 H 805.288 -3.26551 0.0564142 0
M  V30 8761 H 803.947 -2.95731 2.16654 0
M  V30 8762 H 803.595 -4.97628 0.733137 0
M  V30 8763 H 803.295 -5.34041 2.451 0
M  V30 8764 H 804.819 -5.86943 1.68317 0
M  V30 8765 H 806.233 -4.52806 3.51624 0
M  V30 8766 H 804.63 -4.23538 4.2513 0
M  V30 8767 H 805.7 -2.86272 3.91377 0
M  V30 8768 N 807.043 -1.17915 -1.04565 0
M  V30 8769 C 807.953 -0.916449 -2.15959 0
M  V30 8770 C 808.969 0.117655 -1.73602 0
M  V30 8771 O 810.145 -0.063089 -2.01301 0
M  V30 8772 C 807.21 -0.440262 -3.43893 0
M  V30 8773 C 806.271 -1.54172 -4.00661 0
M  V30 8774 C 805.504 -1.08816 -5.22489 0
M  V30 8775 O 805.727 0.0551547 -5.70373 0
M  V30 8776 O 804.661 -1.88383 -5.7166 0
M  V30 8777 H 808.487 -1.8484 -2.40972 0
M  V30 8778 H 806.072 -0.960552 -1.14428 0
M  V30 8779 H 807.954 -0.182537 -4.21004 0
M  V30 8780 H 806.629 0.46346 -3.20365 0
M  V30 8781 H 805.536 -1.85341 -3.24961 0
M  V30 8782 H 806.869 -2.42139 -4.2852 0
M  V30 8783 N 808.521 1.23394 -0.980386 0
M  V30 8784 C 809.746 1.96384 -0.666935 0
M  V30 8785 C 810.171 1.72087 0.759456 0
M  V30 8786 O 809.529 0.992328 1.51732 0
M  V30 8787 C 809.577 3.47499 -0.963177 0
M  V30 8788 O 808.681 4.12363 -0.0552051 0
M  V30 8789 H 808.022 0.614797 -0.250839 0
M  V30 8790 H 810.552 1.56831 -1.31398 0
M  V30 8791 H 810.562 3.97953 -0.899877 0
M  V30 8792 H 809.237 3.6451 -2.00264 0
M  V30 8793 H 807.814 3.72499 -0.172914 0
M  V30 8794 N 809.999 0.752036 1.385 0
M  V30 8795 C 810.931 0.0835089 2.29048 0
M  V30 8796 C 811.944 -0.685402 1.47669 0
M  V30 8797 O 813.133 -0.526748 1.70551 0
M  V30 8798 C 810.233 -0.905772 3.26572 0
M  V30 8799 C 809.406 -0.194828 4.36966 0
M  V30 8800 C 808.465 -1.09464 5.14688 0
M  V30 8801 O 807.491 -0.565743 5.66381 0
M  V30 8802 N 808.693 -2.42287 5.2752 0
M  V30 8803 H 811.458 0.861142 2.87062 0
M  V30 8804 H 809.019 0.602689 1.50264 0
M  V30 8805 H 811.011 -1.51072 3.75446 0
M  V30 8806 H 809.581 -1.58449 2.69467 0
M  V30 8807 H 808.801 0.590812 3.89747 0
M  V30 8808 H 810.089 0.297189 5.07931 0
M  V30 8809 H 809.487 -2.87715 4.8707 0
M  V30 8810 H 808.044 -2.97836 5.79773 0
M  V30 8811 N 811.477 -1.49425 0.500989 0
M  V30 8812 C 812.424 -2.29126 -0.277443 0
M  V30 8813 C 813.394 -1.35522 -0.960363 0
M  V30 8814 O 814.579 -1.64479 -0.967027 0
M  V30 8815 C 811.719 -3.18193 -1.33593 0
M  V30 8816 C 810.832 -4.26854 -0.664791 0
M  V30 8817 C 809.967 -5.03137 -1.70372 0
M  V30 8818 C 809.006 -6.03635 -1.01445 0
M  V30 8819 N 808.143 -6.73083 -1.99758 0
M  V30 8820 H 812.983 -2.95187 0.408458 0
M  V30 8821 H 810.52 -1.45546 0.213275 0
M  V30 8822 H 812.478 -3.68207 -1.96161 0
M  V30 8823 H 811.108 -2.54116 -1.9906 0
M  V30 8824 H 810.16 -3.80328 0.0741708 0
M  V30 8825 H 811.472 -4.9865 -0.122197 0
M  V30 8826 H 810.626 -5.5702 -2.40445 0
M  V30 8827 H 809.365 -4.31114 -2.28017 0
M  V30 8828 H 808.37 -5.48984 -0.299496 0
M  V30 8829 H 809.595 -6.77644 -0.444497 0
M  V30 8830 H 807.541 -6.03832 -2.56365 0
M  V30 8831 H 807.458 -7.40855 -1.50565 0
M  V30 8832 H 808.726 -7.3157 -2.69119 0
M  V30 8833 N 812.955 -0.234822 -1.55841 0
M  V30 8834 C 813.885 0.664217 -2.23854 0
M  V30 8835 C 814.866 1.19076 -1.2147 0
M  V30 8836 O 816.051 1.23232 -1.50091 0
M  V30 8837 C 813.181 1.86666 -2.9287 0
M  V30 8838 C 812.135 1.47341 -4.01839 0
M  V30 8839 C 811.461 2.75571 -4.58219 0
M  V30 8840 C 812.761 0.653479 -5.18196 0
M  V30 8841 H 814.455 0.0971213 -2.99242 0
M  V30 8842 H 812.001 0.0452724 -1.43929 0
M  V30 8843 H 813.954 2.50116 -3.39146 0
M  V30 8844 H 812.678 2.45894 -2.1495 0
M  V30 8845 H 811.337 0.862314 -3.56314 0
M  V30 8846 H 810.985 3.32971 -3.77014 0
M  V30 8847 H 810.685 2.49987 -5.31771 0
M  V30 8848 H 812.209 3.39939 -5.07221 0
M  V30 8849 H 813.623 1.19198 -5.60771 0
M  V30 8850 H 812.02 0.494188 -5.98062 0
M  V30 8851 H 813.09 -0.337004 -4.83728 0
M  V30 8852 N 814.433 1.57553 0.0384317 0
M  V30 8853 C 815.658 1.93485 0.746872 0
M  V30 8854 C 816.083 0.834069 1.68597 0
M  V30 8855 O 815.441 -0.210902 1.80069 0
M  V30 8856 C 815.489 3.28463 1.4881 0
M  V30 8857 O 814.593 3.20051 2.60079 0
M  V30 8858 H 813.934 0.632675 0.201539 0
M  V30 8859 H 816.464 2.046 -0.00329815 0
M  V30 8860 H 816.474 3.63132 1.86009 0
M  V30 8861 H 815.149 4.08147 0.799297 0
M  V30 8862 H 813.726 2.96998 2.25492 0
M  V30 8863 N 815.911 -0.310526 1.54511 0
M  V30 8864 C 816.859 -1.40272 1.85544 0
M  V30 8865 C 817.853 -1.52941 0.728377 0
M  V30 8866 O 819.059 -1.55172 0.912234 0
M  V30 8867 H 815.434 -0.468355 0.588343 0
M  V30 8868 H 817.405 -1.11329 2.76855 0
M  V30 8869 C 816.154 -2.76279 2.11105 0
M  V30 8870 H 815.477 -2.67308 2.97298 0
M  V30 8871 H 816.917 -3.51736 2.36765 0
M  V30 8872 C 815.376 -3.24472 0.906618 0
M  V30 8873 O 815.906 -4.01514 0.122358 0
M  V30 8874 N 814.112 -2.81676 0.714632 0
M  V30 8875 H 813.659 -2.19143 1.35404 0
M  V30 8876 H 813.617 -3.14272 -0.089703 0
M  V30 8877 N 817.389 -1.46805 -0.573248 0
M  V30 8878 C 818.337 -1.58468 -1.70267 0
M  V30 8879 C 819.331 -0.452694 -1.63239 0
M  V30 8880 O 820.537 -0.629915 -1.68618 0
M  V30 8881 H 816.912 -0.498408 -0.56311 0
M  V30 8882 H 818.883 -2.5341 -1.57563 0
M  V30 8883 C 817.632 -1.60104 -3.08645 0
M  V30 8884 H 816.955 -2.4655 -3.14727 0
M  V30 8885 H 818.395 -1.72318 -3.87405 0
M  V30 8886 C 816.854 -0.33138 -3.35266 0
M  V30 8887 O 817.384 0.57438 -3.97572 0
M  V30 8888 N 815.59 -0.216358 -2.89793 0
M  V30 8889 H 815.137 -0.954345 -2.3927 0
M  V30 8890 H 815.095 0.632253 -3.07977 0
M  V30 8891 N 818.867 0.818669 -1.34668 0
M  V30 8892 C 820.113 1.57746 -1.27453 0
M  V30 8893 C 820.446 1.93588 0.154077 0
M  V30 8894 O 819.721 1.60371 1.10051 0
M  V30 8895 C 820.004 2.87414 -2.16945 0
M  V30 8896 C 819.857 2.58125 -3.68363 0
M  V30 8897 C 821.176 3.89021 -2.05792 0
M  V30 8898 H 818.295 0.572339 -0.464324 0
M  V30 8899 H 820.937 0.942784 -1.64959 0
M  V30 8900 H 819.087 3.41576 -1.85089 0
M  V30 8901 H 820.759 2.10239 -4.10606 0
M  V30 8902 H 819.002 1.91503 -3.89242 0
M  V30 8903 H 819.673 3.5061 -4.26353 0
M  V30 8904 H 822.149 3.44224 -2.33771 0
M  V30 8905 H 821.025 4.77548 -2.70628 0
M  V30 8906 H 821.286 4.29786 -1.03618 0
M  V30 8907 N 820.346 1.18468 1.03938 0
M  V30 8908 C 821.256 0.927889 2.1547 0
M  V30 8909 C 822.272 -0.108447 1.73662 0
M  V30 8910 O 823.448 0.0737636 2.01265 0
M  V30 8911 C 820.513 0.458494 3.43655 0
M  V30 8912 C 819.574 1.56295 3.99838 0
M  V30 8913 C 818.807 1.11586 5.21904 0
M  V30 8914 O 819.03 -0.0249057 5.70395 0
M  V30 8915 O 817.964 1.91412 5.70653 0
M  V30 8916 H 821.79 1.86116 2.39989 0
M  V30 8917 H 819.375 0.966607 1.13917 0
M  V30 8918 H 821.257 0.204861 4.20902 0
M  V30 8919 H 819.932 -0.446464 3.20606 0
M  V30 8920 H 818.839 1.87061 3.23974 0
M  V30 8921 H 820.172 2.44408 4.2723 0
M  V30 8922 N 821.824 -1.22873 0.986916 0
M  V30 8923 C 822.772 -2.26597 0.525043 0
M  V30 8924 C 823.766 -1.64079 -0.421252 0
M  V30 8925 O 824.972 -1.77576 -0.294429 0
M  V30 8926 H 821.347 -0.736606 0.151381 0
M  V30 8927 H 823.318 -2.62909 1.41142 0
M  V30 8928 C 822.067 -3.47374 -0.150542 0
M  V30 8929 H 821.39 -3.95737 0.568541 0
M  V30 8930 H 822.83 -4.21739 -0.437256 0
M  V30 8931 C 821.289 -3.07163 -1.38392 0
M  V30 8932 O 821.819 -3.16028 -2.47971 0
M  V30 8933 N 820.025 -2.62009 -1.25697 0
M  V30 8934 H 819.572 -2.54996 -0.365355 0
M  V30 8935 H 819.53 -2.35472 -2.08327 0
M  V30 8936 N 823.302 -0.75937 -1.38099 0
M  V30 8937 C 824.551 -0.314864 -1.99227 0
M  V30 8938 C 824.864 1.1113 -1.60964 0
M  V30 8939 O 826.07 1.65657 -2.15105 0
M  V30 8940 C 824.526 -0.512001 -3.56239 0
M  V30 8941 C 824.134 -1.94762 -4.0345 0
M  V30 8942 C 825.878 -0.130497 -4.24299 0
M  V30 8943 C 823.785 -2.09301 -5.53125 0
M  V30 8944 H 822.715 -0.113978 -0.745335 0
M  V30 8945 H 825.366 -0.936736 -1.57789 0
M  V30 8946 H 823.748 0.179144 -3.95595 0
M  V30 8947 H 824.922 -2.67271 -3.75371 0
M  V30 8948 H 823.237 -2.28457 -3.48133 0
M  V30 8949 H 825.834 -0.21781 -5.34256 0
M  V30 8950 H 826.177 0.917644 -4.0606 0
M  V30 8951 H 826.71 -0.773716 -3.90203 0
M  V30 8952 H 823.449 -3.1239 -5.76275 0
M  V30 8953 H 822.969 -1.41261 -5.82928 0
M  V30 8954 H 824.648 -1.88571 -6.1891 0
M  V30 8955 N 824.78 1.49157 -0.508906 0
M  V30 8956 C 826.008 2.06879 0.0293734 0
M  V30 8957 C 826.423 1.36823 1.30095 0
M  V30 8958 O 825.78 0.449034 1.7689 0
M  V30 8959 C 825.831 3.60423 0.278791 0
M  V30 8960 O 825.552 4.27844 -0.942389 0
M  V30 8961 C 827.053 4.34881 0.859825 0
M  V30 8962 H 824.273 0.67057 -0.0240184 0
M  V30 8963 H 826.817 1.91834 -0.708526 0
M  V30 8964 H 824.972 3.75145 0.966689 0
M  V30 8965 H 825.386 5.19671 -0.710097 0
M  V30 8966 H 826.86 5.43161 0.983884 0
M  V30 8967 H 827.337 3.9789 1.85958 0
M  V30 8968 H 827.943 4.24785 0.209152 0
M  V30 8969 N 826.258 0.243083 1.55714 0
M  V30 8970 C 827.188 -0.652336 2.24203 0
M  V30 8971 C 828.169 -1.1843 1.221 0
M  V30 8972 O 829.354 -1.22435 1.50743 0
M  V30 8973 C 826.484 -1.85111 2.93856 0
M  V30 8974 C 825.438 -1.45208 4.02615 0
M  V30 8975 C 824.764 -2.73137 4.59674 0
M  V30 8976 C 826.064 -0.625988 5.18535 0
M  V30 8977 H 827.758 -0.0812504 2.9929 0
M  V30 8978 H 825.304 -0.0376388 1.43951 0
M  V30 8979 H 827.257 -2.48314 3.40468 0
M  V30 8980 H 825.981 -2.44751 2.16251 0
M  V30 8981 H 824.64 -0.843406 3.56766 0
M  V30 8982 H 824.288 -3.30967 3.78774 0
M  V30 8983 H 823.988 -2.47163 5.33089 0
M  V30 8984 H 825.512 -3.37245 5.09017 0
M  V30 8985 H 826.926 -1.16223 5.61396 0
M  V30 8986 H 825.323 -0.462465 5.98315 0
M  V30 8987 H 826.393 0.362652 4.83542 0
M  V30 8988 N 827.736 -1.57571 -0.0300757 0
M  V30 8989 C 828.964 -1.93485 -0.732891 0
M  V30 8990 C 829.379 -0.842758 -1.68947 0
M  V30 8991 O 828.736 0.180904 -1.81601 0
M  V30 8992 C 828.787 -3.29328 -1.49082 0
M  V30 8993 O 828.508 -4.34341 -0.572639 0
M  V30 8994 C 830.009 -3.79517 -2.29088 0
M  V30 8995 H 827.229 -0.638588 -0.206026 0
M  V30 8996 H 829.773 -2.04496 0.0120966 0
M  V30 8997 H 827.928 -3.19716 -2.1877 0
M  V30 8998 H 828.342 -5.12748 -1.10406 0
M  V30 8999 H 829.816 -4.77081 -2.77665 0
M  V30 9000 H 830.293 -3.10659 -3.10464 0
M  V30 9001 H 830.899 -3.92208 -1.64477 0
M  V30 9002 N 829.214 0.302327 -1.54673 0
M  V30 9003 C 830.442 1.05669 -1.77881 0
M  V30 9004 C 830.857 1.80983 -0.537648 0
M  V30 9005 O 830.214 1.7573 0.492467 0
M  V30 9006 C 830.265 2.03828 -2.98557 0
M  V30 9007 O 829.986 1.3157 -4.17877 0
M  V30 9008 C 831.487 2.91314 -3.34143 0
M  V30 9009 H 828.707 0.313436 -0.593295 0
M  V30 9010 H 831.251 0.342003 -2.0162 0
M  V30 9011 H 829.406 2.70801 -2.7703 0
M  V30 9012 H 829.82 1.97481 -4.85903 0
M  V30 9013 H 831.294 3.56042 -4.21827 0
M  V30 9014 H 831.771 3.59544 -2.52239 0
M  V30 9015 H 832.377 2.29874 -3.57824 0
M  V30 9016 N 830.692 1.47107 0.565454 0
M  V30 9017 C 831.917 1.57153 1.35343 0
M  V30 9018 C 832.342 0.219247 1.86818 0
M  V30 9019 O 831.7 -0.803539 1.62521 0
M  V30 9020 C 831.748 2.59387 2.50501 0
M  V30 9021 O 830.852 2.14086 3.52478 0
M  V30 9022 H 830.193 0.528209 0.402357 0
M  V30 9023 H 832.723 1.92821 0.684189 0
M  V30 9024 H 832.733 2.79546 2.97184 0
M  V30 9025 H 831.408 3.57579 2.12391 0
M  V30 9026 H 829.985 2.03991 3.12157 0
M  V30 9027 N 832.17 -0.811516 1.35101 0
M  V30 9028 C 833.416 -1.57068 1.28287 0
M  V30 9029 C 833.749 -1.93667 -0.143808 0
M  V30 9030 O 833.024 -1.60953 -1.09199 0
M  V30 9031 C 833.307 -2.86259 2.18466 0
M  V30 9032 C 833.16 -2.56168 3.69727 0
M  V30 9033 C 834.479 -3.87924 2.07852 0
M  V30 9034 H 831.598 -0.569869 0.467353 0
M  V30 9035 H 834.24 -0.934023 1.65457 0
M  V30 9036 H 832.39 -3.4059 1.86898 0
M  V30 9037 H 834.062 -2.08059 4.11715 0
M  V30 9038 H 832.305 -1.89436 3.90252 0
M  V30 9039 H 832.976 -3.48344 4.28206 0
M  V30 9040 H 835.452 -3.4298 2.35593 0
M  V30 9041 H 834.328 -4.76106 2.73157 0
M  V30 9042 H 834.589 -4.2923 1.05896 0
M  V30 9043 N 833.648 -1.19017 -1.03309 0
M  V30 9044 C 834.558 -0.939303 -2.14975 0
M  V30 9045 C 835.574 0.0992359 -1.73717 0
M  V30 9046 O 836.75 -0.0844362 -2.01223 0
M  V30 9047 C 833.815 -0.476712 -3.43407 0
M  V30 9048 C 832.876 -1.58413 -3.99003 0
M  V30 9049 C 832.109 -1.14352 -5.21305 0
M  V30 9050 O 832.332 -0.00534408 -5.704 0
M  V30 9051 O 831.266 -1.94436 -5.6963 0
M  V30 9052 H 835.092 -1.87386 -2.38998 0
M  V30 9053 H 832.677 -0.972635 -1.13403 0
M  V30 9054 H 834.559 -0.22718 -4.20787 0
M  V30 9055 H 833.234 0.429455 -3.20839 0
M  V30 9056 H 832.141 -1.88777 -3.22977 0
M  V30 9057 H 833.474 -2.4667 -4.25928 0
M  V30 9058 N 835.127 1.22348 -0.993418 0
M  V30 9059 C 836.037 2.27987 -0.553076 0
M  V30 9060 C 837.053 1.69378 0.398386 0
M  V30 9061 O 838.229 1.99648 0.26509 0
M  V30 9062 C 835.294 3.46475 0.124809 0
M  V30 9063 C 834.355 4.20399 -0.869682 0
M  V30 9064 C 833.588 5.33229 -0.224052 0
M  V30 9065 O 833.811 5.61885 0.981915 0
M  V30 9066 O 832.745 5.94685 -0.929174 0
M  V30 9067 H 836.571 2.67822 -1.43195 0
M  V30 9068 H 834.156 1.28525 -0.761694 0
M  V30 9069 H 836.038 4.18369 0.504496 0
M  V30 9070 H 834.713 3.08565 0.978243 0
M  V30 9071 H 833.62 3.50774 -1.30031 0
M  V30 9072 H 834.953 4.62191 -1.69233 0
M  V30 9073 N 836.605 0.766683 1.37694 0
M  V30 9074 C 837.568 0.155849 2.2867 0
M  V30 9075 C 838.568 -0.633509 1.47795 0
M  V30 9076 O 839.758 -0.457844 1.68076 0
M  V30 9077 C 836.89 -0.786965 3.31692 0
M  V30 9078 H 838.083 0.957748 2.84196 0
M  V30 9079 H 835.636 0.534554 1.46875 0
M  V30 9080 H 836.371 -1.61406 2.8128 0
M  V30 9081 H 836.156 -0.223182 3.91464 0
M  V30 9082 H 837.646 -1.20994 3.99688 0
M  V30 9083 N 838.083 -1.48885 0.516809 0
M  V30 9084 C 839.013 -2.32241 -0.242157 0
M  V30 9085 C 839.994 -1.41258 -0.947633 0
M  V30 9086 O 841.179 -1.70156 -0.935973 0
M  V30 9087 C 838.309 -3.22151 -1.29754 0
M  V30 9088 C 837.263 -4.22053 -0.710995 0
M  V30 9089 C 836.589 -5.01007 -1.86806 0
M  V30 9090 C 837.889 -5.21388 0.30853 0
M  V30 9091 H 839.583 -2.95943 0.453651 0
M  V30 9092 H 837.129 -1.42316 0.219612 0
M  V30 9093 H 839.082 -3.79284 -1.83634 0
M  V30 9094 H 837.806 -2.56423 -2.02274 0
M  V30 9095 H 836.465 -3.66087 -0.193819 0
M  V30 9096 H 836.113 -4.31713 -2.58133 0
M  V30 9097 H 835.813 -5.68615 -1.48159 0
M  V30 9098 H 837.337 -5.60989 -2.4109 0
M  V30 9099 H 838.751 -5.73122 -0.142703 0
M  V30 9100 H 837.148 -5.96975 0.611673 0
M  V30 9101 H 838.218 -4.69329 1.21894 0
M  V30 9102 N 839.561 -0.251338 -1.55583 0
M  V30 9103 C 840.809 0.371434 -1.98657 0
M  V30 9104 C 841.13 1.58143 -1.14087 0
M  V30 9105 O 840.4 1.94607 -0.224708 0
M  V30 9106 H 838.98 0.140225 -0.733721 0
M  V30 9107 H 841.642 -0.351157 -1.9171 0
M  V30 9108 H 840.738 0.677554 -3.04657 0
M  V30 9109 N 841.039 1.57585 0.0217189 0
M  V30 9110 C 842.269 1.9359 0.721572 0
M  V30 9111 C 842.677 0.850132 1.69025 0
M  V30 9112 O 842.02 -0.181539 1.82801 0
M  V30 9113 C 842.082 3.25445 1.52729 0
M  V30 9114 C 841.746 4.51251 0.722586 0
M  V30 9115 C 842.743 5.19896 0.0196598 0
M  V30 9116 C 840.428 4.97745 0.674959 0
M  V30 9117 C 842.422 6.33319 -0.720114 0
M  V30 9118 C 840.109 6.11062 -0.068555 0
M  V30 9119 C 841.107 6.78704 -0.764845 0
M  V30 9120 O 840.795 7.89852 -1.49627 0
M  V30 9121 H 840.527 0.643409 0.207366 0
M  V30 9122 H 843.081 2.05391 -0.0189346 0
M  V30 9123 H 841.311 3.0999 2.31178 0
M  V30 9124 H 843 3.46721 2.11044 0
M  V30 9125 H 843.766 4.84977 0.0474394 0
M  V30 9126 H 839.645 4.44934 1.20643 0
M  V30 9127 H 843.189 6.86051 -1.26413 0
M  V30 9128 H 839.086 6.45425 -0.0982318 0
M  V30 9129 H 839.854 8.06251 -1.41071 0
M  V30 9130 N 842.517 -0.29412 1.54831 0
M  V30 9131 C 843.742 -1.05156 1.78765 0
M  V30 9132 C 844.167 -1.79916 0.548809 0
M  V30 9133 O 843.525 -1.74243 -0.500909 0
M  V30 9134 C 843.573 -2.00242 2.99893 0
M  V30 9135 O 842.677 -3.08662 2.73499 0
M  V30 9136 H 842.018 -0.301737 0.591482 0
M  V30 9137 H 844.548 -0.329449 2.0193 0
M  V30 9138 H 844.558 -2.42583 3.28051 0
M  V30 9139 H 843.233 -1.45235 3.89717 0
M  V30 9140 H 841.81 -2.70786 2.56377 0
M  V30 9141 N 843.995 -1.47404 -0.557645 0
M  V30 9142 C 844.943 -1.60265 -1.68576 0
M  V30 9143 C 845.937 -0.469982 -1.6275 0
M  V30 9144 O 847.143 -0.647764 -1.67941 0
M  V30 9145 H 843.518 -0.504353 -0.557792 0
M  V30 9146 H 845.489 -2.55066 -1.54867 0
M  V30 9147 C 844.238 -1.63369 -3.0693 0
M  V30 9148 H 843.561 -2.49874 -3.12095 0
M  V30 9149 H 845.001 -1.76417 -3.85556 0
M  V30 9150 C 843.46 -0.366921 -3.34896 0
M  V30 9151 O 843.99 0.53218 -3.98159 0
M  V30 9152 N 842.196 -0.247082 -2.89548 0
M  V30 9153 H 841.743 -0.979669 -2.38244 0
M  V30 9154 H 841.701 0.599552 -3.0863 0
M  V30 9155 N 845.473 0.80434 -1.35529 0
M  V30 9156 C 846.42 1.91629 -1.28635 0
M  V30 9157 C 847.39 1.65348 -0.157862 0
M  V30 9158 O 848.575 1.87711 -0.341934 0
M  V30 9159 C 845.715 3.28207 -1.0665 0
M  V30 9160 C 844.828 3.66659 -2.28441 0
M  V30 9161 C 843.963 4.92279 -1.99588 0
M  V30 9162 C 843.002 5.23365 -3.1742 0
M  V30 9163 N 842.139 6.40165 -2.88328 0
M  V30 9164 H 846.979 1.96858 -2.23721 0
M  V30 9165 H 844.516 0.962871 -1.11208 0
M  V30 9166 H 846.474 4.06945 -0.919343 0
M  V30 9167 H 845.104 3.22441 -0.152253 0
M  V30 9168 H 844.156 2.83164 -2.54013 0
M  V30 9169 H 845.468 3.8559 -3.1642 0
M  V30 9170 H 844.622 5.78847 -1.81715 0
M  V30 9171 H 843.361 4.75387 -1.08896 0
M  V30 9172 H 842.366 4.35285 -3.35867 0
M  V30 9173 H 843.591 5.42185 -4.08916 0
M  V30 9174 H 841.537 6.24694 -2.00233 0
M  V30 9175 H 841.454 6.59357 -3.69843 0
M  V30 9176 H 842.722 7.29755 -2.74002 0
M  V30 9177 N 846.951 1.19563 1.02676 0
M  V30 9178 C 848.2 0.993864 1.75514 0
M  V30 9179 C 848.513 -0.475882 1.89723 0
M  V30 9180 O 849.719 -0.796525 2.59553 0
M  V30 9181 C 848.175 1.72937 3.15628 0
M  V30 9182 C 847.783 3.23937 3.09466 0
M  V30 9183 C 849.527 1.61092 3.92746 0
M  V30 9184 C 847.434 3.90067 4.44524 0
M  V30 9185 H 846.364 0.368244 0.657961 0
M  V30 9186 H 849.015 1.43081 1.14891 0
M  V30 9187 H 847.397 1.22025 3.76731 0
M  V30 9188 H 848.571 3.81983 2.57731 0
M  V30 9189 H 846.886 3.3608 2.45843 0
M  V30 9190 H 849.483 2.07848 4.92649 0
M  V30 9191 H 849.826 0.565415 4.12442 0
M  V30 9192 H 850.359 2.09361 3.3825 0
M  V30 9193 H 847.098 4.94725 4.30032 0
M  V30 9194 H 846.618 3.36809 4.96306 0
M  V30 9195 H 848.297 3.93736 5.13401 0
M  V30 9196 N 848.429 -1.21819 0.999893 0
M  V30 9197 C 849.659 -1.94475 0.697346 0
M  V30 9198 C 850.067 -1.73991 -0.743228 0
M  V30 9199 O 849.41 -1.04042 -1.51397 0
M  V30 9200 C 849.472 -3.47204 0.932181 0
M  V30 9201 C 849.136 -3.91432 2.3586 0
M  V30 9202 C 850.133 -3.98545 3.33853 0
M  V30 9203 C 847.818 -4.23888 2.69489 0
M  V30 9204 C 849.812 -4.37499 4.63545 0
M  V30 9205 C 847.499 -4.62519 3.99399 0
M  V30 9206 C 848.497 -4.69294 4.96238 0
M  V30 9207 O 848.185 -5.07048 6.23825 0
M  V30 9208 H 847.917 -0.625419 0.256567 0
M  V30 9209 H 850.471 -1.55728 1.33933 0
M  V30 9210 H 848.701 -3.85997 0.233025 0
M  V30 9211 H 850.39 -4.01078 0.623807 0
M  V30 9212 H 851.156 -3.73654 3.09205 0
M  V30 9213 H 847.035 -4.17815 1.94812 0
M  V30 9214 H 850.579 -4.42702 5.3913 0
M  V30 9215 H 846.476 -4.86864 4.23833 0
M  V30 9216 H 847.244 -5.25098 6.27865 0
M  V30 9217 N 849.908 -0.773975 -1.37286 0
M  V30 9218 C 851.136 -0.350758 -2.03905 0
M  V30 9219 C 851.551 1.02779 -1.58373 0
M  V30 9220 O 850.908 1.65646 -0.766009 0
M  V30 9221 C 850.959 -0.387335 -3.59419 0
M  V30 9222 O 850.68 -1.7115 -4.03286 0
M  V30 9223 C 852.181 0.047198 -4.43275 0
M  V30 9224 H 849.401 -0.146663 -0.654775 0
M  V30 9225 H 851.945 -1.04852 -1.75574 0
M  V30 9226 H 850.1 0.261865 -3.86514 0
M  V30 9227 H 850.514 -1.65166 -4.97816 0
M  V30 9228 H 851.988 -0.0295474 -5.51992 0
M  V30 9229 H 852.465 1.09786 -4.25257 0
M  V30 9230 H 853.071 -0.573899 -4.2141 0
M  V30 9231 N 851.386 1.48609 -0.524698 0
M  V30 9232 C 852.633 2.02497 0.0113214 0
M  V30 9233 C 852.961 1.40229 1.34781 0
M  V30 9234 O 852.216 0.53557 1.88229 0
M  V30 9235 C 852.515 3.56906 0.187873 0
M  V30 9236 C 852.181 4.37932 -1.07359 0
M  V30 9237 C 850.843 4.59792 -1.41933 0
M  V30 9238 C 853.195 4.84902 -1.911 0
M  V30 9239 C 850.523 5.25868 -2.60154 0
M  V30 9240 C 852.875 5.52281 -3.08495 0
M  V30 9241 C 851.539 5.7238 -3.4342 0
M  V30 9242 H 850.809 0.740988 0.0041428 0
M  V30 9243 H 853.456 1.78651 -0.689652 0
M  V30 9244 H 851.761 3.79563 0.971572 0
M  V30 9245 H 853.458 3.96218 0.617443 0
M  V30 9246 H 850.048 4.21175 -0.794331 0
M  V30 9247 H 854.232 4.67821 -1.65701 0
M  V30 9248 H 849.488 5.39628 -2.87422 0
M  V30 9249 H 853.662 5.87645 -3.73692 0
M  V30 9250 H 851.289 6.23354 -4.35126 0
M  V30 9251 N 852.864 0.259585 1.55447 0
M  V30 9252 C 853.794 -0.62852 2.24882 0
M  V30 9253 C 854.775 -1.17128 1.23349 0
M  V30 9254 O 855.96 -1.20829 1.52033 0
M  V30 9255 C 853.09 -1.81983 2.95803 0
M  V30 9256 C 852.044 -1.40929 4.04132 0
M  V30 9257 C 851.37 -2.68246 4.62545 0
M  V30 9258 C 852.67 -0.570956 5.1917 0
M  V30 9259 H 854.364 -0.0495021 2.99359 0
M  V30 9260 H 851.91 -0.0223688 1.43983 0
M  V30 9261 H 853.863 -2.44689 3.43082 0
M  V30 9262 H 852.587 -2.42444 2.18835 0
M  V30 9263 H 851.246 -0.805519 3.57641 0
M  V30 9264 H 850.894 -3.26931 3.82263 0
M  V30 9265 H 850.594 -2.41495 5.35681 0
M  V30 9266 H 852.118 -3.31827 5.12565 0
M  V30 9267 H 853.532 -1.10262 5.62597 0
M  V30 9268 H 851.929 -0.398979 5.98772 0
M  V30 9269 H 852.999 0.413918 4.8313 0
M  V30 9270 N 854.342 -1.57594 -0.0133615 0
M  V30 9271 C 855.753 -1.78168 -0.557937 0
M  V30 9272 C 856.104 -0.892616 -1.74719 0
M  V30 9273 O 855.229 -0.0915491 -2.16206 0
M  V30 9274 C 855.824 -3.23115 -1.01894 0
M  V30 9275 C 854.383 -3.44831 -1.50892 0
M  V30 9276 C 853.53 -2.73558 -0.454044 0
M  V30 9277 H 856.481 -1.57266 0.212843 0
M  V30 9278 H 856.502 -3.30493 -1.8856 0
M  V30 9279 H 856.014 -3.87798 -0.153175 0
M  V30 9280 H 854.115 -2.85345 -2.39602 0
M  V30 9281 H 854.228 -4.53485 -1.54559 0
M  V30 9282 H 852.592 -2.37787 -0.912666 0
M  V30 9283 H 853.375 -3.40932 0.402524 0
M  V30 9284 N 855.82 0.285905 -1.54985 0
M  V30 9285 C 857.045 1.04207 -1.7932 0
M  V30 9286 C 857.47 1.79622 -0.558343 0
M  V30 9287 O 856.828 1.74506 0.491661 0
M  V30 9288 C 856.876 1.98648 -3.0095 0
M  V30 9289 O 855.98 3.07207 -2.75132 0
M  V30 9290 H 855.321 0.298596 -0.593074 0
M  V30 9291 H 857.851 0.318736 -2.02102 0
M  V30 9292 H 857.861 2.4084 -3.29333 0
M  V30 9293 H 856.536 1.43167 -3.90482 0
M  V30 9294 H 855.113 2.69423 -2.57809 0
M  V30 9295 N 857.298 1.47698 0.54982 0
M  V30 9296 C 858.228 1.63622 1.66583 0
M  V30 9297 C 859.209 0.485477 1.63025 0
M  V30 9298 O 860.394 0.715692 1.80531 0
M  V30 9299 C 857.524 1.65721 3.05211 0
M  V30 9300 C 856.478 2.80097 3.2362 0
M  V30 9301 C 855.804 2.67272 4.63109 0
M  V30 9302 C 857.104 4.21612 3.08286 0
M  V30 9303 H 858.798 2.57049 1.53512 0
M  V30 9304 H 856.344 1.23705 0.737099 0
M  V30 9305 H 858.297 1.75451 3.83138 0
M  V30 9306 H 857.021 0.688593 3.19258 0
M  V30 9307 H 855.68 2.69889 2.48104 0
M  V30 9308 H 855.328 1.68422 4.73965 0
M  V30 9309 H 855.028 3.44008 4.76374 0
M  V30 9310 H 856.552 2.78942 5.43161 0
M  V30 9311 H 857.966 4.32758 3.76024 0
M  V30 9312 H 856.363 4.99193 3.33057 0
M  V30 9313 H 857.433 4.39462 2.04942 0
M  V30 9314 N 858.776 -0.797141 1.35954 0
M  V30 9315 C 859.739 -1.89104 1.29508 0
M  V30 9316 C 860.739 -1.59495 0.204444 0
M  V30 9317 O 861.929 -1.68051 0.458746 0
M  V30 9318 C 859.061 -3.25726 1.00576 0
M  V30 9319 H 860.254 -1.96237 2.26785 0
M  V30 9320 H 857.807 -0.994075 1.20614 0
M  V30 9321 H 858.542 -3.24279 0.0372519 0
M  V30 9322 H 858.327 -3.48604 1.79492 0
M  V30 9323 H 859.817 -4.0578 0.986508 0
M  V30 9324 N 860.254 -1.20106 -1.0204 0
M  V30 9325 C 861.164 -0.962051 -2.13967 0
M  V30 9326 C 862.18 0.0808053 -1.73812 0
M  V30 9327 O 863.356 -0.105774 -2.01122 0
M  V30 9328 C 860.421 -0.513108 -3.42882 0
M  V30 9329 C 859.482 -1.62636 -3.97301 0
M  V30 9330 C 858.715 -1.19875 -5.20063 0
M  V30 9331 O 858.938 -0.0658423 -5.70362 0
M  V30 9332 O 857.872 -2.00467 -5.67536 0
M  V30 9333 H 861.698 -1.8991 -2.36998 0
M  V30 9334 H 859.283 -0.984608 -1.12365 0
M  V30 9335 H 861.165 -0.271797 -4.20523 0
M  V30 9336 H 859.84 0.395402 -3.21276 0
M  V30 9337 H 858.747 -1.92192 -3.20957 0
M  V30 9338 H 860.08 -2.51174 -4.23288 0
M  V30 9339 N 861.732 1.21287 -1.00634 0
M  V30 9340 C 862.679 2.23705 -0.567876 0
M  V30 9341 C 863.649 1.61043 0.406753 0
M  V30 9342 O 864.834 1.88289 0.308499 0
M  V30 9343 C 861.974 3.44961 0.097996 0
M  V30 9344 C 861.087 4.22091 -0.919972 0
M  V30 9345 C 860.222 5.30718 -0.226222 0
M  V30 9346 C 859.261 5.99581 -1.23165 0
M  V30 9347 N 858.398 6.99821 -0.565278 0
M  V30 9348 H 863.238 2.60571 -1.44592 0
M  V30 9349 H 860.775 1.28049 -0.724006 0
M  V30 9350 H 862.733 4.1418 0.501097 0
M  V30 9351 H 861.363 3.08818 0.939744 0
M  V30 9352 H 860.415 3.52038 -1.44131 0
M  V30 9353 H 861.727 4.69476 -1.68505 0
M  V30 9354 H 860.881 6.06253 0.232917 0
M  V30 9355 H 859.62 4.84343 0.571247 0
M  V30 9356 H 858.625 5.22816 -1.70128 0
M  V30 9357 H 859.85 6.48042 -2.03022 0
M  V30 9358 H 857.796 6.55656 0.212508 0
M  V30 9359 H 857.713 7.4528 -1.26858 0
M  V30 9360 H 858.981 7.79393 -0.129389 0
M  V30 9361 N 863.21 0.781244 1.36873 0
M  V30 9362 C 864.456 0.350407 1.9975 0
M  V30 9363 C 864.789 -1.07293 1.6187 0
M  V30 9364 O 864.064 -1.73983 0.869491 0
M  V30 9365 C 864.347 0.504834 3.56544 0
M  V30 9366 C 864.2 1.97127 4.04303 0
M  V30 9367 C 865.519 -0.0851272 4.40018 0
M  V30 9368 H 862.638 0.128794 0.725659 0
M  V30 9369 H 865.28 0.98606 1.6241 0
M  V30 9370 H 863.43 -0.0363006 3.88483 0
M  V30 9371 H 865.102 2.57284 3.82887 0
M  V30 9372 H 863.345 2.47676 3.56145 0
M  V30 9373 H 864.016 2.03033 5.13305 0
M  V30 9374 H 866.492 0.376704 4.14391 0
M  V30 9375 H 865.368 0.0530015 5.48874 0
M  V30 9376 H 865.629 -1.17642 4.2616 0
M  V30 9377 N 864.689 -1.48329 0.532571 0
M  V30 9378 C 865.637 -2.31336 -0.242133 0
M  V30 9379 C 866.631 -1.41391 -0.933006 0
M  V30 9380 O 867.837 -1.58284 -0.857096 0
M  V30 9381 H 864.212 -0.745724 -0.0969536 0
M  V30 9382 H 866.183 -2.94555 0.477504 0
M  V30 9383 C 864.932 -3.23501 -1.27446 0
M  V30 9384 H 864.255 -3.92659 -0.752261 0
M  V30 9385 H 865.695 -3.84461 -1.78789 0
M  V30 9386 C 864.154 -2.45288 -2.30944 0
M  V30 9387 O 864.684 -2.17955 -3.37429 0
M  V30 9388 N 862.89 -2.06737 -2.04226 0
M  V30 9389 H 862.437 -2.29166 -1.17647 0
M  V30 9390 H 862.395 -1.54719 -2.73696 0
M  V30 9391 N 866.167 -0.267825 -1.55308 0
M  V30 9392 C 867.114 0.6228 -2.22238 0
M  V30 9393 C 868.084 1.15536 -1.19334 0
M  V30 9394 O 869.269 1.206 -1.47852 0
M  V30 9395 C 866.409 1.80447 -2.94164 0
M  V30 9396 C 865.522 1.30646 -4.11771 0
M  V30 9397 C 864.657 2.44935 -4.7136 0
M  V30 9398 C 863.696 1.92099 -5.81175 0
M  V30 9399 N 862.833 2.99834 -6.34857 0
M  V30 9400 H 867.673 0.0453874 -2.97965 0
M  V30 9401 H 865.21 0.0106371 -1.47096 0
M  V30 9402 H 867.168 2.49896 -3.34078 0
M  V30 9403 H 865.798 2.35403 -2.20874 0
M  V30 9404 H 864.85 0.505314 -3.77029 0
M  V30 9405 H 866.162 0.879409 -4.90987 0
M  V30 9406 H 865.316 3.2239 -5.13955 0
M  V30 9407 H 864.055 2.90951 -3.91406 0
M  V30 9408 H 863.06 1.13122 -5.38037 0
M  V30 9409 H 864.285 1.47027 -6.62993 0
M  V30 9410 H 862.231 3.45246 -5.578 0
M  V30 9411 H 862.148 2.61524 -7.09324 0
M  V30 9412 H 863.416 3.77286 -6.82111 0
M  V30 9413 N 867.645 1.57599 0.00500368 0
M  V30 9414 C 868.893 1.89973 0.68953 0
M  V30 9415 C 869.214 0.868531 1.7459 0
M  V30 9416 O 868.484 -0.0947367 1.95671 0
M  V30 9417 H 867.064 0.701153 0.25767 0
M  V30 9418 H 869.726 1.94869 -0.0347392 0
M  V30 9419 H 868.822 2.89584 1.16394 0
M  V30 9420 N 869.123 -0.277682 1.55134 0
M  V30 9421 C 870.369 -1.0114 1.7578 0
M  V30 9422 C 870.702 -1.86109 0.554719 0
M  V30 9423 O 869.977 -1.89275 -0.447813 0
M  V30 9424 C 870.26 -1.89789 3.06027 0
M  V30 9425 C 870.113 -1.07844 4.3668 0
M  V30 9426 C 871.432 -2.88577 3.32282 0
M  V30 9427 H 868.551 -0.366277 0.639539 0
M  V30 9428 H 871.193 -0.284155 1.87863 0
M  V30 9429 H 869.343 -2.51796 2.95856 0
M  V30 9430 H 871.015 -0.479432 4.58802 0
M  V30 9431 H 869.258 -0.381764 4.32117 0
M  V30 9432 H 869.929 -1.73179 5.24131 0
M  V30 9433 H 872.405 -2.36702 3.42215 0
M  V30 9434 H 871.281 -3.47749 4.2469 0
M  V30 9435 H 871.542 -3.63458 2.51696 0
M  V30 9436 N 870.601 -1.47988 -0.541979 0
M  V30 9437 C 871.533 -1.5769 -1.66332 0
M  V30 9438 C 872.546 -0.461994 -1.56107 0
M  V30 9439 O 873.735 -0.732306 -1.62787 0
M  V30 9440 C 870.835 -1.47939 -3.04905 0
M  V30 9441 C 870.008 -2.74263 -3.40733 0
M  V30 9442 C 869.067 -2.58133 -4.58534 0
M  V30 9443 O 868.093 -3.31991 -4.62354 0
M  V30 9444 N 869.295 -1.6696 -5.55972 0
M  V30 9445 H 872.06 -2.54389 -1.5845 0
M  V30 9446 H 869.621 -1.4456 -0.728979 0
M  V30 9447 H 871.613 -1.34861 -3.81569 0
M  V30 9448 H 870.183 -0.592626 -3.06931 0
M  V30 9449 H 869.403 -3.01992 -2.53366 0
M  V30 9450 H 870.691 -3.58094 -3.6145 0
M  V30 9451 H 870.089 -1.06134 -5.55655 0
M  V30 9452 H 868.646 -1.59826 -6.31901 0
M  V30 9453 N 872.079 0.78992 -1.36375 0
M  V30 9454 C 873.042 1.88414 -1.30509 0
M  V30 9455 C 874.042 1.59384 -0.2129 0
M  V30 9456 O 875.232 1.67805 -0.467651 0
M  V30 9457 C 872.364 3.25188 -1.02302 0
M  V30 9458 H 873.557 1.95031 -2.27822 0
M  V30 9459 H 871.11 0.987664 -1.2114 0
M  V30 9460 H 871.845 3.24254 -0.0544486 0
M  V30 9461 H 871.63 3.47647 -1.81338 0
M  V30 9462 H 873.12 4.05252 -1.00801 0
M  V30 9463 N 873.557 1.20646 1.01402 0
M  V30 9464 C 874.805 1.01618 1.74695 0
M  V30 9465 C 875.126 -0.452438 1.89679 0
M  V30 9466 O 874.396 -1.32693 1.44116 0
M  V30 9467 H 872.976 0.373013 0.647202 0
M  V30 9468 H 875.638 1.518 1.22241 0
M  V30 9469 H 874.734 1.47666 2.74957 0
M  V30 9470 N 875.035 -1.20752 1.01276 0
M  V30 9471 C 875.965 -2.25658 0.600064 0
M  V30 9472 C 876.946 -1.65733 -0.38298 0
M  V30 9473 O 878.131 -1.92324 -0.269256 0
M  V30 9474 C 875.261 -3.47237 -0.0663197 0
M  V30 9475 C 874.215 -4.1973 0.83731 0
M  V30 9476 C 873.541 -5.34687 0.0369102 0
M  V30 9477 C 874.841 -4.76286 2.14357 0
M  V30 9478 H 876.535 -2.60432 1.477 0
M  V30 9479 H 874.081 -1.25187 0.711634 0
M  V30 9480 H 876.034 -4.19803 -0.366563 0
M  V30 9481 H 874.758 -3.11615 -0.977944 0
M  V30 9482 H 873.417 -3.49024 1.1215 0
M  V30 9483 H 873.065 -4.95309 -0.876244 0
M  V30 9484 H 872.765 -5.84119 0.63865 0
M  V30 9485 H 874.289 -6.10059 -0.256968 0
M  V30 9486 H 875.703 -5.40691 1.90595 0
M  V30 9487 H 874.1 -5.36139 2.69583 0
M  V30 9488 H 875.17 -3.9524 2.80916 0
M  V30 9489 N 876.513 -0.788492 -1.36457 0
M  V30 9490 C 877.76 -0.360461 -1.99266 0
M  V30 9491 C 878.088 1.0676 -1.62581 0
M  V30 9492 O 877.343 1.75205 -0.871884 0
M  V30 9493 C 877.642 -0.470255 -3.54293 0
M  V30 9494 C 877.308 -1.85899 -4.10795 0
M  V30 9495 C 875.97 -2.23896 -4.25939 0
M  V30 9496 C 878.322 -2.76836 -4.41601 0
M  V30 9497 C 875.65 -3.52235 -4.69199 0
M  V30 9498 C 878.002 -4.04602 -4.86292 0
M  V30 9499 C 876.666 -4.42623 -4.99641 0
M  V30 9500 H 875.936 -0.131902 -0.729166 0
M  V30 9501 H 878.583 -1.00577 -1.62962 0
M  V30 9502 H 876.888 0.258559 -3.90946 0
M  V30 9503 H 878.585 -0.120119 -4.0082 0
M  V30 9504 H 875.175 -1.55372 -3.99447 0
M  V30 9505 H 879.359 -2.48735 -4.2947 0
M  V30 9506 H 874.615 -3.81565 -4.77722 0
M  V30 9507 H 878.789 -4.75182 -5.09092 0
M  V30 9508 H 876.416 -5.42125 -5.32921 0
M  V30 9509 N 877.991 1.48044 -0.54043 0
M  V30 9510 C 878.921 2.32597 0.205178 0
M  V30 9511 C 879.902 1.42748 0.925041 0
M  V30 9512 O 881.087 1.71624 0.908784 0
M  V30 9513 C 878.217 3.24175 1.24612 0
M  V30 9514 C 877.171 4.23131 0.64376 0
M  V30 9515 C 876.497 5.03915 1.78812 0
M  V30 9516 C 877.797 5.20831 -0.39144 0
M  V30 9517 H 879.491 2.95184 -0.500676 0
M  V30 9518 H 877.037 1.41948 -0.242225 0
M  V30 9519 H 878.99 3.82158 1.77576 0
M  V30 9520 H 877.714 2.59608 1.98169 0
M  V30 9521 H 876.373 3.66349 0.135554 0
M  V30 9522 H 876.021 4.35765 2.51232 0
M  V30 9523 H 875.721 5.709 1.39094 0
M  V30 9524 H 877.245 5.64753 2.32134 0
M  V30 9525 H 878.659 5.73277 0.0515064 0
M  V30 9526 H 877.056 5.95926 -0.706569 0
M  V30 9527 H 878.126 4.6733 -1.29345 0
M  V30 9528 N 879.47 0.276058 1.55163 0
M  V30 9529 C 880.418 -0.626978 2.2399 0
M  V30 9530 C 881.412 -1.15708 1.23725 0
M  V30 9531 O 882.618 -1.1106 1.41653 0
M  V30 9532 H 878.993 -0.220742 0.718872 0
M  V30 9533 H 880.964 -0.0236569 2.98391 0
M  V30 9534 C 879.713 -1.79935 2.97521 0
M  V30 9535 H 879.036 -1.40064 3.74463 0
M  V30 9536 H 880.476 -2.40781 3.48999 0
M  V30 9537 C 878.935 -2.68838 2.03046 0
M  V30 9538 O 879.465 -3.69224 1.58229 0
M  V30 9539 N 877.671 -2.36028 1.69527 0
M  V30 9540 H 877.218 -1.54442 2.06169 0
M  V30 9541 H 877.176 -2.95782 1.06586 0
M  V30 9542 N 880.948 -1.576 0.00335426 0
M  V30 9543 C 882.194 -1.91833 -0.676149 0
M  V30 9544 C 882.549 -0.878079 -1.71194 0
M  V30 9545 O 881.842 0.109297 -1.91288 0
M  V30 9546 C 882.036 -3.3058 -1.35837 0
M  V30 9547 C 881.865 -4.48004 -0.390171 0
M  V30 9548 C 880.635 -5.053 0.000648493 0
M  V30 9549 C 882.833 -5.13142 0.344982 0
M  V30 9550 N 880.815 -6.06241 0.966709 0
M  V30 9551 C 882.186 -6.08944 1.16562 0
M  V30 9552 C 884.241 -4.96222 0.408457 0
M  V30 9553 C 882.944 -6.89649 2.04395 0
M  V30 9554 C 884.97 -5.77514 1.27403 0
M  V30 9555 C 884.332 -6.72912 2.08251 0
M  V30 9556 H 880.431 -0.750263 -0.220519 0
M  V30 9557 H 883.015 -1.94593 0.0644891 0
M  V30 9558 H 881.186 -3.28687 -2.06928 0
M  V30 9559 H 882.918 -3.52233 -1.99284 0
M  V30 9560 H 879.673 -4.72165 -0.368428 0
M  V30 9561 H 880.097 -6.61394 1.44521 0
M  V30 9562 H 884.739 -4.22316 -0.202324 0
M  V30 9563 H 882.457 -7.62878 2.66539 0
M  V30 9564 H 886.043 -5.66462 1.3271 0
M  V30 9565 H 884.923 -7.34721 2.74145 0
M  V30 9566 N 882.426 0.269451 -1.5528 0
M  V30 9567 C 883.389 1.31642 -1.87625 0
M  V30 9568 C 884.389 1.42182 -0.751058 0
M  V30 9569 O 885.579 1.41272 -1.01921 0
M  V30 9570 C 882.711 2.6973 -2.08467 0
M  V30 9571 H 883.904 1.0419 -2.81219 0
M  V30 9572 H 881.457 0.507685 -1.47825 0
M  V30 9573 H 882.192 3.02356 -1.17266 0
M  V30 9574 H 881.977 2.63465 -2.90394 0
M  V30 9575 H 883.467 3.4537 -2.34753 0
M  V30 9576 N 883.904 1.48273 0.534124 0
M  V30 9577 C 884.852 1.62926 1.66005 0
M  V30 9578 C 885.846 0.495814 1.61982 0
M  V30 9579 O 887.052 0.6744 1.66889 0
M  V30 9580 H 883.427 0.513163 0.549698 0
M  V30 9581 H 885.398 2.57498 1.50789 0
M  V30 9582 C 884.147 1.68231 3.04292 0
M  V30 9583 H 883.47 2.54807 3.0808 0
M  V30 9584 H 884.91 1.82528 3.827 0
M  V30 9585 C 883.369 0.420154 3.3427 0
M  V30 9586 O 883.899 -0.468769 3.98955 0
M  V30 9587 N 882.105 0.293115 2.89118 0
M  V30 9588 H 881.652 1.01745 2.36655 0
M  V30 9589 H 881.61 -0.550376 3.09545 0
M  V30 9590 N 885.382 -0.782676 1.36792 0
M  V30 9591 C 886.292 -1.92679 1.33835 0
M  V30 9592 C 887.308 -1.72344 0.23952 0
M  V30 9593 O 888.484 -1.95766 0.473045 0
M  V30 9594 C 885.549 -3.27644 1.1336 0
M  V30 9595 C 884.61 -3.6071 2.32781 0
M  V30 9596 C 883.843 -4.89234 2.13273 0
M  V30 9597 O 884.066 -5.59468 1.11136 0
M  V30 9598 O 883 -5.21112 3.01208 0
M  V30 9599 H 886.826 -1.98124 2.30175 0
M  V30 9600 H 884.411 -0.923887 1.17408 0
M  V30 9601 H 886.293 -4.08394 1.03886 0
M  V30 9602 H 884.968 -3.23076 0.200868 0
M  V30 9603 H 883.875 -2.80238 2.47825 0
M  V30 9604 H 885.208 -3.70008 3.24584 0
M  V30 9605 N 886.86 -1.21182 -1.00761 0
M  V30 9606 C 888.106 -1.02898 -1.74756 0
M  V30 9607 C 888.439 0.436774 -1.89225 0
M  V30 9608 O 887.714 1.32415 -1.42466 0
M  V30 9609 C 887.997 -1.72372 -3.16164 0
M  V30 9610 C 887.85 -3.2645 -3.09435 0
M  V30 9611 C 889.169 -1.46415 -4.15031 0
M  V30 9612 H 886.288 -0.375214 -0.634337 0
M  V30 9613 H 888.93 -1.49321 -1.17487 0
M  V30 9614 H 887.08 -1.32906 -3.65059 0
M  V30 9615 H 888.752 -3.75269 -2.68274 0
M  V30 9616 H 886.995 -3.56889 -2.46603 0
M  V30 9617 H 887.666 -3.70226 -4.09435 0
M  V30 9618 H 890.142 -1.80671 -3.7483 0
M  V30 9619 H 889.018 -1.97544 -5.12121 0
M  V30 9620 H 889.279 -0.39361 -4.40344 0
M  V30 9621 N 888.338 1.20213 -1.01915 0
M  V30 9622 C 889.584 1.89928 -0.711007 0
M  V30 9623 C 889.917 1.7881 0.75767 0
M  V30 9624 O 889.192 1.17399 1.55073 0
M  V30 9625 C 889.475 3.41225 -1.15053 0
M  V30 9626 C 889.328 3.61264 -2.67971 0
M  V30 9627 C 890.647 4.34108 -0.72377 0
M  V30 9628 H 887.766 0.689702 -0.259768 0
M  V30 9629 H 890.408 1.41557 -1.26734 0
M  V30 9630 H 888.558 3.82552 -0.677199 0
M  V30 9631 H 890.23 3.29173 -3.23176 0
M  V30 9632 H 888.473 3.04647 -3.08824 0
M  V30 9633 H 889.144 4.67331 -2.93779 0
M  V30 9634 H 891.62 4.00442 -1.13073 0
M  V30 9635 H 890.496 5.38581 -1.05931 0
M  V30 9636 H 890.757 4.40512 0.374424 0
M  V30 9637 N 889.816 0.795718 1.36037 0
M  V30 9638 C 890.726 0.199784 2.33748 0
M  V30 9639 C 891.742 -0.651436 1.61345 0
M  V30 9640 O 892.918 -0.565743 1.93291 0
M  V30 9641 C 889.983 -0.650475 3.40543 0
M  V30 9642 C 889.044 0.219974 4.28736 0
M  V30 9643 C 888.277 -0.589798 5.30431 0
M  V30 9644 O 888.5 -1.82532 5.40406 0
M  V30 9645 O 887.434 0.0136187 6.01898 0
M  V30 9646 H 891.26 1.00782 2.8649 0
M  V30 9647 H 888.845 0.557293 1.38617 0
M  V30 9648 H 890.727 -1.13512 4.05824 0
M  V30 9649 H 889.402 -1.4363 2.9009 0
M  V30 9650 H 888.309 0.751516 3.66474 0
M  V30 9651 H 889.642 0.969468 4.82558 0
M  V30 9652 N 891.294 -1.47756 0.548274 0
M  V30 9653 C 892.571 -1.9555 -0.0443603 0
M  V30 9654 C 892.951 -1.49079 -1.49462 0
M  V30 9655 O 892.299 -0.725538 -2.16675 0
M  V30 9656 C 892.509 -3.48879 0.0918425 0
M  V30 9657 C 893.857 -4.2456 -0.0580879 0
M  V30 9658 O 894.881 -3.56195 0.018946 0
M  V30 9659 O 893.74 -5.46048 -0.222261 0
M  V30 9660 H 890.834 -0.824106 -0.0691235 0
M  V30 9661 H 893.38 -1.58196 0.614166 0
M  V30 9662 H 892.152 -3.7548 1.10137 0
M  V30 9663 H 891.775 -3.92975 -0.604704 0
M  V30 9664 N 892.772 -0.284283 -1.55015 0
M  V30 9665 C 894.019 0.329864 -1.99795 0
M  V30 9666 C 894.347 1.55171 -1.1727 0
M  V30 9667 O 893.602 1.94312 -0.232667 0
M  V30 9668 C 893.901 0.747219 -3.49502 0
M  V30 9669 C 893.567 -0.37101 -4.49371 0
M  V30 9670 C 892.229 -0.678034 -4.76399 0
M  V30 9671 C 894.581 -1.12406 -5.08935 0
M  V30 9672 C 891.909 -1.74152 -5.60257 0
M  V30 9673 C 894.261 -2.17734 -5.93948 0
M  V30 9674 C 892.925 -2.49061 -6.19294 0
M  V30 9675 H 892.195 0.120706 -0.731103 0
M  V30 9676 H 894.842 -0.399904 -1.87278 0
M  V30 9677 H 893.147 1.55681 -3.59542 0
M  V30 9678 H 894.844 1.2333 -3.81563 0
M  V30 9679 H 891.434 -0.1216 -4.28427 0
M  V30 9680 H 895.618 -0.900119 -4.88069 0
M  V30 9681 H 890.874 -1.98915 -5.78137 0
M  V30 9682 H 895.048 -2.76553 -6.39133 0
M  V30 9683 H 892.675 -3.31602 -6.84064 0
M  V30 9684 N 894.251 1.57596 -0.0117121 0
M  V30 9685 C 895.479 1.9536 0.681334 0
M  V30 9686 C 895.894 0.887255 1.66653 0
M  V30 9687 O 895.251 -0.132692 1.82017 0
M  V30 9688 C 895.302 3.33165 1.40298 0
M  V30 9689 O 895.023 4.35707 0.45728 0
M  V30 9690 C 896.524 3.85458 2.18946 0
M  V30 9691 H 893.744 0.643826 0.189023 0
M  V30 9692 H 896.288 2.04392 -0.066311 0
M  V30 9693 H 894.443 3.25404 2.10216 0
M  V30 9694 H 894.857 5.15495 0.96773 0
M  V30 9695 H 896.331 4.84275 2.64918 0
M  V30 9696 H 896.808 3.18781 3.02118 0
M  V30 9697 H 897.414 3.96431 1.5402 0
M  V30 9698 N 895.729 -0.261212 1.5542 0
M  V30 9699 C 896.957 -1.00916 1.8062 0
M  V30 9700 C 897.372 -1.79494 0.585444 0
M  V30 9701 O 896.729 -1.76974 -0.445702 0
M  V30 9702 C 896.78 -1.95841 3.03856 0
M  V30 9703 O 896.501 -1.20445 4.21218 0
M  V30 9704 C 898.002 -2.82352 3.41749 0
M  V30 9705 H 895.222 -0.297596 0.601397 0
M  V30 9706 H 897.766 -0.288427 2.02456 0
M  V30 9707 H 895.921 -2.63361 2.84112 0
M  V30 9708 H 896.335 -1.84528 4.90968 0
M  V30 9709 H 897.809 -3.44733 4.31118 0
M  V30 9710 H 898.286 -3.5273 2.61683 0
M  V30 9711 H 898.892 -2.20306 3.63793 0
M  V30 9712 N 897.207 -1.48554 -0.526253 0
M  V30 9713 C 898.155 -1.63804 -1.65139 0
M  V30 9714 C 899.149 -0.504398 -1.61716 0
M  V30 9715 O 900.355 -0.683241 -1.66529 0
M  V30 9716 H 896.73 -0.516071 -0.546969 0
M  V30 9717 H 898.701 -2.58294 -1.49421 0
M  V30 9718 C 897.45 -1.69843 -3.03395 0
M  V30 9719 H 896.773 -2.56438 -3.06724 0
M  V30 9720 H 898.213 -1.84555 -3.81727 0
M  V30 9721 C 896.672 -0.437875 -3.34042 0
M  V30 9722 O 897.202 0.447604 -3.99198 0
M  V30 9723 N 895.408 -0.308444 -2.88958 0
M  V30 9724 H 894.955 -1.02998 -2.36112 0
M  V30 9725 H 894.913 0.533952 -3.09833 0
M  V30 9726 N 898.685 0.775411 -1.37205 0
M  V30 9727 C 899.934 1.52909 -1.31536 0
M  V30 9728 C 900.247 1.9535 0.0989374 0
M  V30 9729 O 901.453 2.70072 0.278079 0
M  V30 9730 C 899.909 2.761 -2.30861 0
M  V30 9731 C 899.517 2.40773 -3.77799 0
M  V30 9732 C 901.261 3.54052 -2.34195 0
M  V30 9733 C 899.168 3.60444 -4.68865 0
M  V30 9734 H 898.098 0.574061 -0.488845 0
M  V30 9735 H 900.749 0.849642 -1.62645 0
M  V30 9736 H 899.131 3.45916 -1.92764 0
M  V30 9737 H 900.305 1.78764 -4.24712 0
M  V30 9738 H 898.62 1.76004 -3.77375 0
M  V30 9739 H 901.217 4.42992 -2.99437 0
M  V30 9740 H 901.56 3.93649 -1.35449 0
M  V30 9741 H 902.093 2.91229 -2.7098 0
M  V30 9742 H 898.832 3.25932 -5.68725 0
M  V30 9743 H 898.352 4.21571 -4.26659 0
M  V30 9744 H 900.031 4.27302 -4.85821 0
M  V30 9745 N 900.163 1.21714 1.00117 0
M  V30 9746 C 901.096 0.923113 2.08696 0
M  V30 9747 C 902.074 -0.130827 1.62073 0
M  V30 9748 O 903.258 -0.00103064 1.885 0
M  V30 9749 C 900.385 0.386807 3.36484 0
M  V30 9750 C 899.431 1.42414 4.0202 0
M  V30 9751 S 900.264 2.99466 4.43937 0
M  V30 9752 C 901.42 2.47452 5.74907 0
M  V30 9753 H 901.653 1.84258 2.33315 0
M  V30 9754 H 899.186 1.0473 1.1345 0
M  V30 9755 H 901.144 0.0839547 4.10414 0
M  V30 9756 H 899.805 -0.511413 3.09909 0
M  V30 9757 H 898.998 0.998593 4.94008 0
M  V30 9758 H 898.6 1.67527 3.34381 0
M  V30 9759 H 900.892 1.88177 6.50842 0
M  V30 9760 H 901.835 3.37898 6.22279 0
M  V30 9761 H 902.243 1.89027 5.31911 0
M  V30 9762 N 901.641 -1.19671 1.02551 0
M  V30 9763 C 902.588 -2.22773 0.603394 0
M  V30 9764 C 903.558 -1.61669 -0.381081 0
M  V30 9765 O 904.743 -1.88756 -0.278505 0
M  V30 9766 C 901.883 -3.45073 -0.0431034 0
M  V30 9767 C 900.996 -4.20574 0.987006 0
M  V30 9768 C 900.131 -5.30291 0.310626 0
M  V30 9769 C 899.17 -5.97545 1.32688 0
M  V30 9770 N 898.307 -6.98833 0.676542 0
M  V30 9771 H 903.147 -2.58238 1.48719 0
M  V30 9772 H 900.684 -1.26881 0.744286 0
M  V30 9773 H 902.642 -4.14925 -0.435141 0
M  V30 9774 H 901.272 -3.10274 -0.890495 0
M  V30 9775 H 900.324 -3.497 1.49713 0
M  V30 9776 H 901.636 -4.66736 1.75952 0
M  V30 9777 H 900.79 -6.06547 -0.136438 0
M  V30 9778 H 899.529 -4.8519 -0.49412 0
M  V30 9779 H 898.534 -5.20043 1.78424 0
M  V30 9780 H 899.759 -6.4473 2.13306 0
M  V30 9781 H 897.705 -6.55911 -0.108172 0
M  V30 9782 H 897.622 -7.43168 1.38699 0
M  V30 9783 H 898.89 -7.79088 0.253367 0
M  V30 9784 N 903.119 -0.802921 -1.35613 0
M  V30 9785 C 904.066 -0.20874 -2.29854 0
M  V30 9786 C 905.036 0.655128 -1.52634 0
M  V30 9787 O 906.221 0.600979 -1.81088 0
M  V30 9788 C 903.361 0.639663 -3.3912 0
M  V30 9789 C 902.474 -0.244234 -4.31309 0
M  V30 9790 C 901.609 0.611825 -5.27665 0
M  V30 9791 C 900.648 -0.272698 -6.11492 0
M  V30 9792 N 899.785 0.543122 -6.99996 0
M  V30 9793 H 904.625 -1.01782 -2.80079 0
M  V30 9794 H 902.162 -0.513465 -1.37848 0
M  V30 9795 H 904.12 1.14668 -4.01132 0
M  V30 9796 H 902.75 1.41404 -2.9018 0
M  V30 9797 H 901.802 -0.869322 -3.70334 0
M  V30 9798 H 903.114 -0.925202 -4.90144 0
M  V30 9799 H 902.268 1.18412 -5.95032 0
M  V30 9800 H 901.007 1.32637 -4.69317 0
M  V30 9801 H 900.012 -0.857287 -5.43075 0
M  V30 9802 H 901.237 -0.985051 -6.71918 0
M  V30 9803 H 899.183 1.24171 -6.44141 0
M  V30 9804 H 899.1 -0.0798767 -7.55958 0
M  V30 9805 H 900.368 1.09881 -7.71717 0
M  V30 9806 N 904.597 1.47463 -0.556102 0
M  V30 9807 C 905.874 1.9557 0.0339892 0
M  V30 9808 C 906.254 1.49869 1.48669 0
M  V30 9809 O 905.602 0.737019 2.16288 0
M  V30 9810 C 905.812 3.48826 -0.110343 0
M  V30 9811 C 907.16 4.24585 0.0355716 0
M  V30 9812 O 908.184 3.5618 -0.0378356 0
M  V30 9813 O 907.043 5.46158 0.193299 0
M  V30 9814 H 904.137 0.824461 0.0647521 0
M  V30 9815 H 906.683 1.57868 -0.622547 0
M  V30 9816 H 905.455 3.74891 -1.12126 0
M  V30 9817 H 905.078 3.9329 0.583855 0
M  V30 9818 N 906.075 0.2925 1.54862 0
M  V30 9819 C 907.303 -0.322113 2.04377 0
M  V30 9820 C 907.718 -1.48164 1.17016 0
M  V30 9821 O 907.075 -1.81466 0.19395 0
M  V30 9822 C 907.126 -0.786506 3.5284 0
M  V30 9823 O 906.847 0.326863 4.36879 0
M  V30 9824 C 908.348 -1.46715 4.18318 0
M  V30 9825 H 905.568 -0.0712074 0.667211 0
M  V30 9826 H 908.112 0.429657 1.99935 0
M  V30 9827 H 906.267 -1.48832 3.5767 0
M  V30 9828 H 906.681 -0.0331558 5.2449 0
M  V30 9829 H 908.155 -1.74333 5.23748 0
M  V30 9830 H 908.632 -2.40443 3.67538 0
M  V30 9831 H 909.238 -0.808735 4.1754 0
M  V30 9832 N 907.553 -1.57587 0.0200696 0
M  V30 9833 C 908.483 -2.12702 -0.963333 0
M  V30 9834 C 909.464 -1.04094 -1.34531 0
M  V30 9835 O 910.649 -1.31881 -1.42552 0
M  V30 9836 C 907.779 -2.64673 -2.24868 0
M  V30 9837 C 906.733 -3.77987 -2.00772 0
M  V30 9838 C 906.059 -4.16351 -3.35494 0
M  V30 9839 C 907.359 -5.0444 -1.35416 0
M  V30 9840 H 909.053 -2.95121 -0.504363 0
M  V30 9841 H 906.599 -1.41966 -0.24116 0
M  V30 9842 H 908.552 -3.01862 -2.94036 0
M  V30 9843 H 907.276 -1.79403 -2.72914 0
M  V30 9844 H 905.935 -3.41223 -1.34025 0
M  V30 9845 H 905.583 -3.28075 -3.81282 0
M  V30 9846 H 905.283 -4.92705 -3.20181 0
M  V30 9847 H 906.807 -4.56115 -4.05945 0
M  V30 9848 H 908.221 -5.39273 -1.94571 0
M  V30 9849 H 906.618 -5.85732 -1.30529 0
M  V30 9850 H 907.688 -4.83803 -0.325923 0
M  V30 9851 N 909.032 0.252966 -1.55557 0
M  V30 9852 C 910.309 1.00432 -1.67847 0
M  V30 9853 C 910.689 2.03587 -0.55816 0
M  V30 9854 O 910.037 2.24239 0.439197 0
M  V30 9855 C 910.247 1.64313 -3.079 0
M  V30 9856 C 911.595 2.14726 -3.66303 0
M  V30 9857 O 912.619 1.74264 -3.10661 0
M  V30 9858 O 911.478 2.89 -4.63833 0
M  V30 9859 H 908.572 0.467102 -0.682455 0
M  V30 9860 H 911.118 0.247233 -1.67889 0
M  V30 9861 H 909.89 0.896681 -3.80888 0
M  V30 9862 H 909.513 2.46657 -3.11843 0
M  V30 9863 N 910.51 1.48831 0.518367 0
M  V30 9864 C 911.457 1.64216 1.62178 0
M  V30 9865 C 912.427 0.483942 1.58894 0
M  V30 9866 O 913.612 0.708857 1.77144 0
M  V30 9867 C 910.752 1.69867 3.00399 0
M  V30 9868 C 909.865 2.96875 3.1383 0
M  V30 9869 C 909 2.93613 4.42679 0
M  V30 9870 C 908.039 4.15276 4.4968 0
M  V30 9871 N 907.176 4.10024 5.69934 0
M  V30 9872 H 912.016 2.58439 1.48368 0
M  V30 9873 H 909.553 1.28154 0.722152 0
M  V30 9874 H 911.511 1.71124 3.8049 0
M  V30 9875 H 910.141 0.791249 3.12952 0
M  V30 9876 H 909.193 3.0531 2.26914 0
M  V30 9877 H 910.505 3.86863 3.14863 0
M  V30 9878 H 909.659 2.93337 5.31073 0
M  V30 9879 H 908.398 2.01375 4.44184 0
M  V30 9880 H 907.403 4.15816 3.59691 0
M  V30 9881 H 908.628 5.08687 4.49904 0
M  V30 9882 H 906.574 3.20613 5.72314 0
M  V30 9883 H 906.491 4.93728 5.72511 0
M  V30 9884 H 907.759 4.13824 6.60583 0
M  V30 9885 N 911.988 -0.768124 1.37614 0
M  V30 9886 C 913.237 -1.5221 1.32345 0
M  V30 9887 C 913.55 -1.95399 -0.0885761 0
M  V30 9888 O 914.756 -2.70216 -0.263752 0
M  V30 9889 C 913.212 -2.74872 2.32322 0
M  V30 9890 C 912.82 -2.38767 3.79071 0
M  V30 9891 C 914.564 -3.52805 2.36069 0
M  V30 9892 C 912.471 -3.57953 4.7077 0
M  V30 9893 H 911.401 -0.571461 0.491883 0
M  V30 9894 H 914.052 -0.841004 1.63093 0
M  V30 9895 H 912.434 -3.44889 1.94596 0
M  V30 9896 H 913.608 -1.7651 4.25654 0
M  V30 9897 H 911.923 -1.74 3.78303 0
M  V30 9898 H 914.52 -4.41397 3.01782 0
M  V30 9899 H 914.863 -3.92925 1.37535 0
M  V30 9900 H 915.396 -2.89788 2.72521 0
M  V30 9901 H 912.135 -3.22911 5.70446 0
M  V30 9902 H 911.655 -4.19302 4.28889 0
M  V30 9903 H 913.334 -4.2472 4.8808 0
M  V30 9904 N 913.466 -1.22244 -0.994698 0
M  V30 9905 C 914.691 -1.07299 -1.77487 0
M  V30 9906 C 915.116 0.372302 -1.84379 0
M  V30 9907 O 914.474 1.2689 -1.29494 0
M  V30 9908 C 914.522 -1.68675 -3.18718 0
M  V30 9909 O 913.626 -0.939202 -4.01563 0
M  V30 9910 H 912.967 -0.376979 -0.546611 0
M  V30 9911 H 915.497 -1.62003 -1.24965 0
M  V30 9912 H 915.507 -1.73324 -3.69354 0
M  V30 9913 H 914.182 -2.73849 -3.13017 0
M  V30 9914 H 912.759 -0.968583 -3.60101 0
M  V30 9915 N 914.944 1.19125 -1.03184 0
M  V30 9916 C 916.221 1.84674 -0.644574 0
M  V30 9917 C 916.601 1.92042 0.876534 0
M  V30 9918 O 915.949 1.43965 1.77444 0
M  V30 9919 C 916.159 3.23477 -1.3101 0
M  V30 9920 C 917.507 3.99608 -1.43524 0
M  V30 9921 O 918.531 3.32886 -1.2675 0
M  V30 9922 O 917.39 5.19132 -1.70776 0
M  V30 9923 H 914.484 0.795968 -0.22442 0
M  V30 9924 H 917.03 1.2659 -1.13018 0
M  V30 9925 H 915.802 3.12967 -2.34878 0
M  V30 9926 H 915.425 3.89209 -0.812547 0
M  V30 9927 N 916.422 0.810101 1.35185 0
M  V30 9928 C 917.668 0.392698 1.98962 0
M  V30 9929 C 918.001 -1.03835 1.64109 0
M  V30 9930 O 917.276 -1.721 0.9062 0
M  V30 9931 C 917.559 0.580349 3.55393 0
M  V30 9932 C 917.412 2.05658 4.00031 0
M  V30 9933 C 918.731 0.00822618 4.40099 0
M  V30 9934 H 915.85 0.144157 0.722764 0
M  V30 9935 H 918.492 1.02029 1.60281 0
M  V30 9936 H 916.642 0.0461106 3.88473 0
M  V30 9937 H 918.314 2.65348 3.77344 0
M  V30 9938 H 916.557 2.55174 3.50811 0
M  V30 9939 H 917.228 2.13875 5.08883 0
M  V30 9940 H 919.704 0.464517 4.13499 0
M  V30 9941 H 918.58 0.169414 5.48638 0
M  V30 9942 H 918.841 -1.08576 4.2856 0
M  V30 9943 N 917.9 -1.47166 0.563914 0
M  V30 9944 C 919.125 -2.0735 0.0454698 0
M  V30 9945 C 919.55 -1.41281 -1.24182 0
M  V30 9946 O 918.908 -0.490084 -1.7455 0
M  V30 9947 C 918.956 -3.60378 -0.126453 0
M  V30 9948 O 918.06 -3.94934 -1.18746 0
M  V30 9949 H 917.401 -0.661773 0.0543377 0
M  V30 9950 H 919.931 -1.89086 0.781508 0
M  V30 9951 H 919.941 -4.06593 -0.338554 0
M  V30 9952 H 918.616 -4.07862 0.81373 0
M  V30 9953 H 917.193 -3.60455 -0.955318 0
M  V30 9954 N 919.378 -0.300708 -1.54705 0
M  V30 9955 C 920.624 0.309111 -2.0043 0
M  V30 9956 C 920.957 1.53562 -1.1888 0
M  V30 9957 O 920.232 1.92683 -0.265205 0
M  V30 9958 C 920.515 0.665995 -3.53888 0
M  V30 9959 C 920.368 -0.56963 -4.46178 0
M  V30 9960 C 921.687 1.49262 -4.14016 0
M  V30 9961 H 918.806 0.110878 -0.728612 0
M  V30 9962 H 921.448 -0.412748 -1.85463 0
M  V30 9963 H 919.598 1.281 -3.66773 0
M  V30 9964 H 921.27 -1.20811 -4.45199 0
M  V30 9965 H 919.513 -1.20292 -4.16788 0
M  V30 9966 H 920.184 -0.275785 -5.51311 0
M  V30 9967 H 922.66 0.972979 -4.04564 0
M  V30 9968 H 921.536 1.71111 -5.21548 0
M  V30 9969 H 921.797 2.48174 -3.65872 0
M  V30 9970 N 920.856 1.57574 -0.0284266 0
M  V30 9971 C 922.105 1.9095 0.649704 0
M  V30 9972 C 922.418 0.906421 1.7333 0
M  V30 9973 O 923.624 1.1314 2.46803 0
M  V30 9974 C 922.08 3.39061 1.20687 0
M  V30 9975 C 921.688 4.47726 0.156597 0
M  V30 9976 C 923.432 3.81505 1.86156 0
M  V30 9977 C 921.339 5.86935 0.725365 0
M  V30 9978 H 920.269 0.712589 0.24644 0
M  V30 9979 H 922.92 1.83261 -0.0936143 0
M  V30 9980 H 921.302 3.41679 2.00178 0
M  V30 9981 H 922.476 4.56667 -0.6158 0
M  V30 9982 H 920.791 4.14481 -0.399288 0
M  V30 9983 H 923.388 4.82865 2.29665 0
M  V30 9984 H 923.731 3.16529 2.70398 0
M  V30 9985 H 924.264 3.81307 1.13356 0
M  V30 9986 H 921.003 6.55453 -0.0789081 0
M  V30 9987 H 920.523 5.81602 1.46627 0
M  V30 9988 H 922.202 6.35483 1.21532 0
M  V30 9989 N 922.334 -0.244713 1.55689 0
M  V30 9990 C 923.583 -0.970373 1.76824 0
M  V30 9991 C 923.896 -1.86402 0.592764 0
M  V30 9992 O 925.102 -2.62659 0.687186 0
M  V30 9993 C 923.558 -1.77547 3.13058 0
M  V30 9994 C 923.166 -0.929104 4.3826 0
M  V30 9995 C 924.91 -2.49373 3.43531 0
M  V30 9996 C 922.817 -1.73021 5.65524 0
M  V30 9997 H 921.747 -0.366048 0.659185 0
M  V30 9998 H 924.398 -0.224964 1.82116 0
M  V30 9999 H 922.78 -2.56291 3.01879 0
M  V30 10000 H 923.954 -0.183836 4.60433 0
M  V30 10001 H 922.269 -0.324071 4.15137 0
M  V30 10002 H 924.866 -3.09767 4.35831 0
M  V30 10003 H 925.209 -3.21099 2.64955 0
M  V30 10004 H 925.742 -1.77637 3.55935 0
M  V30 10005 H 922.481 -1.05666 6.46927 0
M  V30 10006 H 922.001 -2.45071 5.47449 0
M  V30 10007 H 923.68 -2.2968 6.0486 0
M  V30 10008 N 923.813 -1.49104 -0.510467 0
M  V30 10009 C 925.224 -1.51423 -1.09215 0
M  V30 10010 C 925.575 -0.295035 -1.93969 0
M  V30 10011 O 924.7 0.596064 -2.08029 0
M  V30 10012 C 925.295 -2.74387 -1.98739 0
M  V30 10013 C 923.854 -2.79515 -2.52088 0
M  V30 10014 C 923.001 -2.4521 -1.29488 0
M  V30 10015 H 925.952 -1.55938 -0.294807 0
M  V30 10016 H 925.973 -2.54012 -2.83298 0
M  V30 10017 H 925.485 -3.63105 -1.37026 0
M  V30 10018 H 923.586 -1.95054 -3.17466 0
M  V30 10019 H 923.699 -3.81447 -2.89887 0
M  V30 10020 H 922.063 -1.96785 -1.61703 0
M  V30 10021 H 922.846 -3.36192 -0.694978 0
M  V30 10022 N 925.291 0.760815 -1.38019 0
M  V30 10023 C 926.521 1.54776 -1.3685 0
M  V30 10024 C 926.929 1.89146 0.0453971 0
M  V30 10025 O 926.272 1.52746 1.0205 0
M  V30 10026 C 926.334 2.87923 -2.15269 0
M  V30 10027 C 925.998 2.76131 -3.64144 0
M  V30 10028 C 926.995 2.46417 -4.57794 0
M  V30 10029 C 924.68 2.9381 -4.07408 0
M  V30 10030 C 926.674 2.34525 -5.92686 0
M  V30 10031 C 924.361 2.81539 -5.42383 0
M  V30 10032 C 925.359 2.51938 -6.34836 0
M  V30 10033 O 925.047 2.39713 -7.67329 0
M  V30 10034 H 924.779 0.485776 -0.470104 0
M  V30 10035 H 927.333 0.949939 -1.82113 0
M  V30 10036 H 925.563 3.49867 -1.64712 0
M  V30 10037 H 927.252 3.49389 -2.06596 0
M  V30 10038 H 928.018 2.32433 -4.25676 0
M  V30 10039 H 923.897 3.15849 -3.35799 0
M  V30 10040 H 927.441 2.11342 -6.64816 0
M  V30 10041 H 923.338 2.95093 -5.741 0
M  V30 10042 H 924.106 2.5498 -7.77771 0
M  V30 10043 N 926.769 1.22769 0.988202 0
M  V30 10044 C 928.018 1.0492 1.72263 0
M  V30 10045 C 928.331 -0.415282 1.91141 0
M  V30 10046 O 929.537 -0.713547 2.61956 0
M  V30 10047 C 927.993 1.82891 3.09966 0
M  V30 10048 C 927.601 3.33618 2.99003 0
M  V30 10049 C 929.345 1.73505 3.87423 0
M  V30 10050 C 927.252 4.04012 4.3189 0
M  V30 10051 H 926.182 0.38899 0.645912 0
M  V30 10052 H 928.833 1.46664 1.10281 0
M  V30 10053 H 927.215 1.33948 3.72658 0
M  V30 10054 H 928.389 3.8999 2.45448 0
M  V30 10055 H 926.704 3.43732 2.35027 0
M  V30 10056 H 929.301 2.23416 4.85787 0
M  V30 10057 H 929.644 0.696344 4.10435 0
M  V30 10058 H 930.177 2.20016 3.31418 0
M  V30 10059 H 926.916 5.08155 4.14075 0
M  V30 10060 H 926.436 3.52428 4.8534 0
M  V30 10061 H 928.115 4.0987 5.00615 0
M  V30 10062 N 928.247 -1.18576 1.03814 0
M  V30 10063 C 929.495 -1.88121 0.738574 0
M  V30 10064 C 929.816 -1.80587 -0.735744 0
M  V30 10065 O 929.086 -1.22251 -1.53074 0
M  V30 10066 H 927.666 -0.696417 0.270208 0
M  V30 10067 H 930.328 -1.43912 1.31435 0
M  V30 10068 H 929.424 -2.94222 1.04115 0
M  V30 10069 N 929.725 -0.817259 -1.34754 0
M  V30 10070 C 931.136 -0.462215 -1.80888 0
M  V30 10071 C 931.487 1.01685 -1.67794 0
M  V30 10072 O 930.612 1.79094 -1.21468 0
M  V30 10073 C 931.207 -0.832204 -3.2842 0
M  V30 10074 C 929.766 -0.52961 -3.72655 0
M  V30 10075 C 928.913 -1.05214 -2.56564 0
M  V30 10076 H 931.864 -1.00795 -1.22581 0
M  V30 10077 H 931.885 -0.133804 -3.80265 0
M  V30 10078 H 931.397 -1.90873 -3.37919 0
M  V30 10079 H 929.498 0.537743 -3.68699 0
M  V30 10080 H 929.611 -1.06971 -4.67005 0
M  V30 10081 H 927.975 -0.473949 -2.50251 0
M  V30 10082 H 928.758 -2.135 -2.68836 0
M  V30 10083 N 931.203 1.46865 -0.571711 0
M  V30 10084 C 932.166 2.28658 0.157499 0
M  V30 10085 C 933.166 1.37773 0.829172 0
M  V30 10086 O 934.356 1.6026 0.682811 0
M  V30 10087 C 931.488 3.17859 1.23202 0
M  V30 10088 H 932.681 2.94603 -0.561171 0
M  V30 10089 H 930.234 1.52793 -0.329229 0
M  V30 10090 H 930.969 2.56637 1.98262 0
M  V30 10091 H 930.754 3.84762 0.755031 0
M  V30 10092 H 932.244 3.7945 1.74378 0
M  V30 10093 N 932.681 0.308908 1.54543 0
M  V30 10094 C 933.611 -0.556657 2.26768 0
M  V30 10095 C 934.592 -1.13145 1.27013 0
M  V30 10096 O 935.777 -1.15931 1.558 0
M  V30 10097 C 932.907 -1.72481 3.01443 0
M  V30 10098 C 931.861 -1.28001 4.08411 0
M  V30 10099 C 931.187 -2.53395 4.70845 0
M  V30 10100 C 932.487 -0.405497 5.20724 0
M  V30 10101 H 934.181 0.0457618 2.99365 0
M  V30 10102 H 931.727 0.0234495 1.43981 0
M  V30 10103 H 933.68 -2.3365 3.50693 0
M  V30 10104 H 932.404 -2.35359 2.26437 0
M  V30 10105 H 931.063 -0.69133 3.60022 0
M  V30 10106 H 930.711 -3.14604 3.92471 0
M  V30 10107 H 930.411 -2.2433 5.43093 0
M  V30 10108 H 931.935 -3.15352 5.22863 0
M  V30 10109 H 933.349 -0.923076 5.6582 0
M  V30 10110 H 931.746 -0.208282 5.99738 0
M  V30 10111 H 932.816 0.567412 4.81569 0
M  V30 10112 N 934.159 -1.57557 0.0367827 0
M  V30 10113 C 935.107 -2.11844 -0.960454 0
M  V30 10114 C 936.101 -1.04681 -1.33185 0
M  V30 10115 O 937.307 -1.23108 -1.31318 0
M  V30 10116 H 933.682 -0.676921 -0.32754 0
M  V30 10117 H 935.653 -2.94557 -0.477346 0
M  V30 10118 C 934.402 -2.66683 -2.23105 0
M  V30 10119 H 933.725 -3.48795 -1.95403 0
M  V30 10120 H 935.165 -3.08305 -2.91074 0
M  V30 10121 C 933.624 -1.59782 -2.96599 0
M  V30 10122 O 934.154 -1.00214 -3.88999 0
M  V30 10123 N 932.36 -1.31644 -2.59072 0
M  V30 10124 H 931.907 -1.80272 -1.8401 0
M  V30 10125 H 931.865 -0.603457 -3.08554 0
M  V30 10126 N 935.637 0.236453 -1.55816 0
M  V30 10127 C 936.886 0.960981 -1.77336 0
M  V30 10128 C 937.199 1.86085 -0.602641 0
M  V30 10129 O 938.405 2.62291 -0.701106 0
M  V30 10130 C 936.861 1.75884 -3.13995 0
M  V30 10131 C 936.469 0.905849 -4.38746 0
M  V30 10132 C 938.213 2.47548 -3.44848 0
M  V30 10133 C 936.12 1.7002 -5.66434 0
M  V30 10134 H 935.05 0.362547 -0.661117 0
M  V30 10135 H 937.701 0.215303 -1.82233 0
M  V30 10136 H 936.083 2.54687 -3.03234 0
M  V30 10137 H 937.257 0.159415 -4.60524 0
M  V30 10138 H 935.572 0.30205 -4.15303 0
M  V30 10139 H 938.169 3.07452 -4.37467 0
M  V30 10140 H 938.512 3.19689 -2.66655 0
M  V30 10141 H 939.045 1.75747 -3.56872 0
M  V30 10142 H 935.784 1.02234 -6.47479 0
M  V30 10143 H 935.304 2.42164 -5.48741 0
M  V30 10144 H 936.983 2.26469 -6.0607 0
M  V30 10145 N 937.115 1.49373 0.502552 0
M  V30 10146 C 938.363 1.58467 1.25429 0
M  V30 10147 C 938.684 0.272593 1.93085 0
M  V30 10148 O 937.954 -0.707947 1.82661 0
M  V30 10149 H 936.534 0.583866 0.46595 0
M  V30 10150 H 939.196 1.8599 0.582568 0
M  V30 10151 H 938.292 2.37993 2.01906 0
M  V30 10152 N 938.594 -0.753485 1.38421 0
M  V30 10153 C 939.542 -1.8886 1.35774 0
M  V30 10154 C 940.536 -1.67639 0.243608 0
M  V30 10155 O 941.742 -1.75206 0.412649 0
M  V30 10156 H 938.117 -0.62137 0.42356 0
M  V30 10157 H 940.088 -1.88209 2.3156 0
M  V30 10158 C 938.837 -3.26344 1.19979 0
M  V30 10159 H 938.16 -3.43259 2.04971 0
M  V30 10160 H 939.6 -4.06015 1.22181 0
M  V30 10161 C 938.059 -3.36771 -0.0932867 0
M  V30 10162 O 938.589 -3.8718 -1.07027 0
M  V30 10163 N 936.795 -2.90212 -0.150154 0
M  V30 10164 H 936.342 -2.4938 0.645562 0
M  V30 10165 H 936.3 -2.97569 -1.0149 0
M  V30 10166 N 940.072 -1.23292 -0.981677 0
M  V30 10167 C 941.297 -1.09176 -1.76339 0
M  V30 10168 C 941.722 0.352726 -1.84763 0
M  V30 10169 O 941.08 1.25509 -1.30832 0
M  V30 10170 C 941.128 -1.72046 -3.16911 0
M  V30 10171 O 940.232 -0.98174 -4.00544 0
M  V30 10172 H 939.573 -0.382755 -0.542581 0
M  V30 10173 H 942.103 -1.63319 -1.23239 0
M  V30 10174 H 942.113 -1.77232 -3.67495 0
M  V30 10175 H 940.788 -2.77154 -3.10095 0
M  V30 10176 H 939.365 -1.00672 -3.59054 0
M  V30 10177 N 941.55 1.18024 -1.04442 0
M  V30 10178 C 942.513 2.19992 -0.643136 0
M  V30 10179 C 943.513 1.57949 0.301444 0
M  V30 10180 O 944.703 1.73986 0.0863341 0
M  V30 10181 C 941.835 3.40853 0.0565208 0
M  V30 10182 H 943.028 2.57008 -1.54554 0
M  V30 10183 H 940.581 1.31974 -0.837408 0
M  V30 10184 H 941.316 3.09373 0.972553 0
M  V30 10185 H 941.101 3.87128 -0.622439 0
M  V30 10186 H 942.591 4.16344 0.323652 0
M  V30 10187 N 943.028 0.824394 1.34319 0
M  V30 10188 C 943.958 0.262077 2.32025 0
M  V30 10189 C 944.939 -0.622277 1.58309 0
M  V30 10190 O 946.124 -0.548848 1.86283 0
M  V30 10191 C 943.254 -0.57567 3.42496 0
M  V30 10192 C 942.208 0.21167 4.27476 0
M  V30 10193 C 941.534 -0.748913 5.29429 0
M  V30 10194 C 942.834 1.42068 5.02607 0
M  V30 10195 H 944.528 1.07842 2.79304 0
M  V30 10196 H 942.074 0.520022 1.34282 0
M  V30 10197 H 944.027 -0.979251 4.09864 0
M  V30 10198 H 942.751 -1.42508 2.93869 0
M  V30 10199 H 941.41 0.596636 3.61712 0
M  V30 10200 H 941.058 -1.59432 4.77064 0
M  V30 10201 H 940.758 -0.226313 5.87164 0
M  V30 10202 H 942.282 -1.15032 5.99667 0
M  V30 10203 H 943.696 1.09103 5.62823 0
M  V30 10204 H 942.093 1.87903 5.69923 0
M  V30 10205 H 943.163 2.1981 4.32217 0
M  V30 10206 N 944.506 -1.46559 0.579492 0
M  V30 10207 C 945.922 -1.57771 0.240921 0
M  V30 10208 C 946.122 -1.57505 -1.25676 0
M  V30 10209 O 945.178 -1.4903 -2.03829 0
M  V30 10210 C 946.491 -2.87311 0.887285 0
M  V30 10211 C 948.039 -3.00937 0.860576 0
M  V30 10212 C 948.514 -4.33208 1.48642 0
M  V30 10213 N 950.005 -4.39899 1.45062 0
M  V30 10214 C 950.74 -5.40856 1.90428 0
M  V30 10215 N 950.236 -6.48503 2.43752 0
M  V30 10216 N 952.029 -5.32037 1.81364 0
M  V30 10217 H 944.18 -1.44976 1.55228 0
M  V30 10218 H 946.443 -0.691354 0.648639 0
M  V30 10219 H 946.149 -2.93307 1.94071 0
M  V30 10220 H 946.023 -3.75141 0.393577 0
M  V30 10221 H 948.41 -2.94524 -0.184223 0
M  V30 10222 H 948.491 -2.14591 1.39227 0
M  V30 10223 H 948.135 -4.40378 2.5304 0
M  V30 10224 H 948.065 -5.18323 0.92998 0
M  V30 10225 H 950.556 -3.62706 1.0608 0
M  V30 10226 H 950.869 -7.21744 2.76234 0
M  V30 10227 H 949.214 -6.49332 2.47776 0
M  V30 10228 H 952.405 -4.46841 1.39465 0
M  V30 10229 H 952.578 -6.10573 2.17035 0
M  V30 10230 N 945.984 -0.3171 -1.54377 0
M  V30 10231 C 947.232 0.286842 -2.00054 0
M  V30 10232 C 947.553 1.53161 -1.20692 0
M  V30 10233 O 946.823 1.93479 -0.307045 0
M  V30 10234 H 945.403 0.108979 -0.739008 0
M  V30 10235 H 948.065 -0.432152 -1.90049 0
M  V30 10236 H 947.161 0.547729 -3.07256 0
M  V30 10237 N 947.462 1.57535 -0.0451378 0
M  V30 10238 C 948.41 2.12351 0.949205 0
M  V30 10239 C 949.404 1.05386 1.32628 0
M  V30 10240 O 950.61 1.23802 1.30664 0
M  V30 10241 H 946.985 0.678648 0.323945 0
M  V30 10242 H 948.956 2.94806 0.461718 0
M  V30 10243 C 947.705 2.67862 2.21687 0
M  V30 10244 H 947.028 3.49826 1.93551 0
M  V30 10245 H 948.468 3.09844 2.89435 0
M  V30 10246 C 946.927 1.61353 2.95748 0
M  V30 10247 O 947.457 1.02276 3.88462 0
M  V30 10248 N 945.663 1.33017 2.5837 0
M  V30 10249 H 945.21 1.81246 1.83051 0
M  V30 10250 H 945.168 0.619812 3.0823 0
M  V30 10251 N 948.94 -0.228186 1.55939 0
M  V30 10252 C 950.187 -0.953552 1.78644 0
M  V30 10253 C 950.515 -1.84596 0.61275 0
M  V30 10254 O 949.77 -1.91502 -0.403175 0
M  V30 10255 C 950.069 -1.82924 3.0704 0
M  V30 10256 C 949.735 -1.09062 4.37511 0
M  V30 10257 C 948.397 -0.886565 4.72962 0
M  V30 10258 C 950.749 -0.568533 5.1809 0
M  V30 10259 C 948.077 -0.148413 5.86512 0
M  V30 10260 C 950.429 0.156243 6.32407 0
M  V30 10261 C 949.093 0.371612 6.66465 0
M  V30 10262 H 948.363 -0.348929 0.653704 0
M  V30 10263 H 951.01 -0.222211 1.90206 0
M  V30 10264 H 949.315 -2.62823 2.90571 0
M  V30 10265 H 951.012 -2.3925 3.21808 0
M  V30 10266 H 947.602 -1.25963 4.09672 0
M  V30 10267 H 951.786 -0.713673 4.91142 0
M  V30 10268 H 947.042 0.0287418 6.11393 0
M  V30 10269 H 951.216 0.568333 6.94077 0
M  V30 10270 H 948.843 0.945522 7.54297 0
M  V30 10271 N 950.418 -1.49637 -0.494624 0
M  V30 10272 C 951.366 -1.6727 -1.61627 0
M  V30 10273 C 952.36 -0.538587 -1.6061 0
M  V30 10274 O 953.566 -0.718411 -1.65042 0
M  V30 10275 H 949.941 -0.527557 -0.535899 0
M  V30 10276 H 951.912 -2.61405 -1.43909 0
M  V30 10277 C 950.661 -1.7624 -2.99725 0
M  V30 10278 H 949.984 -2.62886 -3.01216 0
M  V30 10279 H 951.424 -1.92611 -3.77726 0
M  V30 10280 C 949.883 -0.508632 -3.33038 0
M  V30 10281 O 950.413 0.362828 -4.00058 0
M  V30 10282 N 948.619 -0.369667 -2.88239 0
M  V30 10283 H 948.166 -1.07984 -2.33875 0
M  V30 10284 H 948.124 0.468112 -3.10896 0
M  V30 10285 N 951.896 0.746133 -1.38819 0
M  V30 10286 C 952.828 1.86991 -1.3254 0
M  V30 10287 C 953.841 1.61077 -0.236216 0
M  V30 10288 O 955.03 1.71518 -0.494341 0
M  V30 10289 C 952.13 3.22786 -1.03258 0
M  V30 10290 C 951.303 3.76145 -2.23234 0
M  V30 10291 C 950.362 4.90474 -1.90581 0
M  V30 10292 O 949.388 5.04717 -2.63153 0
M  V30 10293 N 950.59 5.74015 -0.86525 0
M  V30 10294 H 953.355 1.92885 -2.2938 0
M  V30 10295 H 950.916 0.926392 -1.32776 0
M  V30 10296 H 952.908 3.96824 -0.794533 0
M  V30 10297 H 951.478 3.12231 -0.151895 0
M  V30 10298 H 950.698 2.93587 -2.63059 0
M  V30 10299 H 951.986 4.08528 -3.03285 0
M  V30 10300 H 951.384 5.65086 -0.263577 0
M  V30 10301 H 949.941 6.48168 -0.687087 0
M  V30 10302 N 953.375 1.23811 0.975125 0
M  V30 10303 C 954.338 1.02505 2.05001 0
M  V30 10304 C 955.338 -0.0150084 1.60793 0
M  V30 10305 O 956.528 0.225246 1.72738 0
M  V30 10306 C 953.66 0.552087 3.364 0
M  V30 10307 H 954.853 1.979 2.25335 0
M  V30 10308 H 952.406 1.05929 1.1493 0
M  V30 10309 H 953.141 -0.405394 3.21756 0
M  V30 10310 H 952.926 1.30267 3.69828 0
M  V30 10311 H 954.416 0.423828 4.15444 0
M  V30 10312 N 954.853 -1.17469 1.05066 0
M  V30 10313 C 956.1 -1.87698 0.759987 0
M  V30 10314 C 956.428 -1.80964 -0.712902 0
M  V30 10315 O 955.683 -1.21146 -1.53695 0
M  V30 10316 C 955.982 -3.37211 1.18421 0
M  V30 10317 C 955.648 -3.64148 2.65909 0
M  V30 10318 C 954.31 -3.71209 3.06199 0
M  V30 10319 C 956.662 -3.75724 3.61222 0
M  V30 10320 C 953.99 -3.87334 4.40669 0
M  V30 10321 C 956.342 -3.93368 4.95424 0
M  V30 10322 C 955.006 -3.98667 5.3537 0
M  V30 10323 H 954.276 -0.686835 0.278099 0
M  V30 10324 H 956.923 -1.38975 1.31751 0
M  V30 10325 H 955.228 -3.87982 0.545654 0
M  V30 10326 H 956.925 -3.89911 0.936518 0
M  V30 10327 H 953.515 -3.59276 2.33707 0
M  V30 10328 H 957.699 -3.69591 3.31235 0
M  V30 10329 H 952.955 -3.89685 4.71122 0
M  V30 10330 H 957.129 -4.01267 5.69173 0
M  V30 10331 H 954.756 -4.10915 6.39572 0
M  V30 10332 N 956.331 -0.831506 -1.3388 0
M  V30 10333 C 957.294 -0.264773 -2.27666 0
M  V30 10334 C 958.294 0.562273 -1.50649 0
M  V30 10335 O 959.484 0.377131 -1.70069 0
M  V30 10336 C 956.616 0.627814 -3.35069 0
M  V30 10337 H 957.809 -1.09225 -2.79303 0
M  V30 10338 H 955.362 -0.604021 -1.44157 0
M  V30 10339 H 956.097 1.47802 -2.88661 0
M  V30 10340 H 955.882 0.0361552 -3.92083 0
M  V30 10341 H 957.372 1.01786 -4.05005 0
M  V30 10342 N 957.809 1.4625 -0.587256 0
M  V30 10343 C 959.037 2.06744 -0.08033 0
M  V30 10344 C 959.452 1.43527 1.2266 0
M  V30 10345 O 958.809 0.542168 1.74261 0
M  V30 10346 C 958.86 3.61394 0.0873469 0
M  V30 10347 O 958.581 4.22247 -1.16785 0
M  V30 10348 C 960.082 4.38828 0.628095 0
M  V30 10349 H 957.302 0.668354 -0.0595301 0
M  V30 10350 H 959.846 1.87808 -0.809217 0
M  V30 10351 H 958.001 3.79742 0.766473 0
M  V30 10352 H 958.415 5.15176 -0.984565 0
M  V30 10353 H 959.889 5.47613 0.694583 0
M  V30 10354 H 960.366 4.07188 1.64606 0
M  V30 10355 H 960.972 4.25297 -0.0163115 0
M  V30 10356 N 959.287 0.325282 1.54207 0
M  V30 10357 C 960.25 -0.527228 2.23054 0
M  V30 10358 C 961.25 -1.04217 1.22456 0
M  V30 10359 O 962.44 -0.934325 1.47024 0
M  V30 10360 C 959.572 -1.7325 2.93594 0
M  V30 10361 H 960.765 0.0746423 2.99807 0
M  V30 10362 H 958.318 0.0763872 1.56113 0
M  V30 10363 H 959.053 -2.37356 2.20981 0
M  V30 10364 H 958.838 -1.37065 3.67363 0
M  V30 10365 H 960.328 -2.3376 3.46043 0
M  V30 10366 N 960.765 -1.57509 0.0534917 0
M  V30 10367 C 962.013 -1.92402 -0.618548 0
M  V30 10368 C 962.334 -0.93273 -1.71246 0
M  V30 10369 O 961.604 0.0220495 -1.95888 0
M  V30 10370 H 960.184 -0.710233 -0.23147 0
M  V30 10371 H 962.846 -1.94606 0.10704 0
M  V30 10372 H 961.942 -2.93704 -1.05566 0
M  V30 10373 N 962.243 0.219913 -1.56058 0
M  V30 10374 C 963.489 0.945463 -1.79412 0
M  V30 10375 C 963.822 1.83922 -0.62341 0
M  V30 10376 O 963.097 1.90806 0.377256 0
M  V30 10377 C 963.38 1.783 -3.1286 0
M  V30 10378 C 963.233 0.915626 -4.40382 0
M  V30 10379 C 964.552 2.76045 -3.42764 0
M  V30 10380 H 961.671 0.342288 -0.652693 0
M  V30 10381 H 964.313 0.214235 -1.88788 0
M  V30 10382 H 962.463 2.40642 -3.04998 0
M  V30 10383 H 964.135 0.30882 -4.60265 0
M  V30 10384 H 962.378 0.221124 -4.33236 0
M  V30 10385 H 963.049 1.53607 -5.30197 0
M  V30 10386 H 965.525 2.23838 -3.50764 0
M  V30 10387 H 964.401 3.31748 -4.37304 0
M  V30 10388 H 964.662 3.53866 -2.65012 0
M  V30 10389 N 963.721 1.49897 0.486681 0
M  V30 10390 C 964.684 1.67086 1.56891 0
M  V30 10391 C 965.684 0.54209 1.51387 0
M  V30 10392 O 966.874 0.80883 1.54284 0
M  V30 10393 C 964.006 1.68159 2.96539 0
M  V30 10394 H 965.199 2.63626 1.42974 0
M  V30 10395 H 962.752 1.39143 0.711954 0
M  V30 10396 H 963.487 0.732562 3.15918 0
M  V30 10397 H 963.272 2.50147 3.01942 0
M  V30 10398 H 964.762 1.83466 3.7514 0
M  V30 10399 N 965.199 -0.738761 1.39212 0
M  V30 10400 C 966.446 -1.49824 1.36231 0
M  V30 10401 C 966.774 -1.94453 -0.0429552 0
M  V30 10402 O 966.029 -1.6683 -1.02304 0
M  V30 10403 C 966.328 -2.75435 2.2775 0
M  V30 10404 C 965.994 -2.49694 3.75451 0
M  V30 10405 C 964.656 -2.42383 4.15697 0
M  V30 10406 C 967.008 -2.27587 4.68885 0
M  V30 10407 C 964.336 -2.11001 5.47444 0
M  V30 10408 C 966.688 -1.97723 6.00906 0
M  V30 10409 C 965.352 -1.88879 6.4022 0
M  V30 10410 H 964.622 -0.548247 0.498504 0
M  V30 10411 H 967.269 -0.848244 1.71689 0
M  V30 10412 H 965.574 -3.45159 1.85398 0
M  V30 10413 H 967.271 -3.33449 2.22739 0
M  V30 10414 H 963.861 -2.56261 3.43552 0
M  V30 10415 H 968.045 -2.32206 4.38628 0
M  V30 10416 H 963.301 -2.02673 5.76831 0
M  V30 10417 H 967.475 -1.79625 6.72836 0
M  V30 10418 H 965.102 -1.64327 7.42227 0
M  V30 10419 N 966.677 -1.24326 -0.968545 0
M  V30 10420 C 967.607 -1.05951 -2.08079 0
M  V30 10421 C 968.588 0.0272666 -1.70078 0
M  V30 10422 O 969.773 -0.139644 -1.93697 0
M  V30 10423 C 966.903 -0.662623 -3.4092 0
M  V30 10424 C 965.857 -1.69807 -3.92873 0
M  V30 10425 C 965.183 -1.15628 -5.22048 0
M  V30 10426 C 966.483 -3.09383 -4.20808 0
M  V30 10427 H 968.177 -1.98984 -2.23709 0
M  V30 10428 H 965.723 -0.958112 -1.075 0
M  V30 10429 H 967.676 -0.521071 -4.18166 0
M  V30 10430 H 966.4 0.303399 -3.25188 0
M  V30 10431 H 965.059 -1.82783 -3.17783 0
M  V30 10432 H 964.707 -0.180888 -5.02675 0
M  V30 10433 H 964.407 -1.84822 -5.57776 0
M  V30 10434 H 965.931 -1.02683 -6.01904 0
M  V30 10435 H 967.345 -2.99642 -4.88761 0
M  V30 10436 H 965.742 -3.75923 -4.67763 0
M  V30 10437 H 966.812 -3.57486 -3.27616 0
M  V30 10438 N 968.156 1.1691 -1.05688 0
M  V30 10439 C 969.086 2.23275 -0.683402 0
M  V30 10440 C 970.067 1.6704 0.321206 0
M  V30 10441 O 971.252 1.93191 0.197691 0
M  V30 10442 C 968.382 3.47244 -0.0626006 0
M  V30 10443 C 967.336 4.16333 -0.992513 0
M  V30 10444 C 966.662 5.34182 -0.23533 0
M  V30 10445 C 967.962 4.68002 -2.31886 0
M  V30 10446 H 969.656 2.54771 -1.57264 0
M  V30 10447 H 967.202 1.2246 -0.757606 0
M  V30 10448 H 969.155 4.20874 0.210503 0
M  V30 10449 H 967.879 3.1503 0.861616 0
M  V30 10450 H 966.538 3.44622 -1.25026 0
M  V30 10451 H 966.186 4.9822 0.69181 0
M  V30 10452 H 965.886 5.81346 -0.855002 0
M  V30 10453 H 967.41 6.10592 0.0303717 0
M  V30 10454 H 968.824 5.33244 -2.10531 0
M  V30 10455 H 967.221 5.25764 -2.89296 0
M  V30 10456 H 968.291 3.84541 -2.95391 0
M  V30 10457 N 969.634 0.838594 1.33437 0
M  V30 10458 C 970.544 0.274048 2.32994 0
M  V30 10459 C 971.56 -0.599776 1.63336 0
M  V30 10460 O 972.736 -0.503963 1.94993 0
M  V30 10461 C 969.801 -0.541804 3.4244 0
M  V30 10462 C 968.862 0.356262 4.27819 0
M  V30 10463 C 968.095 -0.420747 5.32039 0
M  V30 10464 O 968.318 -1.65247 5.45939 0
M  V30 10465 O 967.252 0.205101 6.0155 0
M  V30 10466 H 971.078 1.09846 2.83139 0
M  V30 10467 H 968.663 0.601111 1.36774 0
M  V30 10468 H 970.545 -1.00544 4.0923 0
M  V30 10469 H 969.22 -1.34328 2.94513 0
M  V30 10470 H 968.127 0.867726 3.63897 0
M  V30 10471 H 969.46 1.1225 4.79229 0
M  V30 10472 N 971.112 -1.45937 0.595003 0
M  V30 10473 C 972.36 -2.01921 0.0851368 0
M  V30 10474 C 972.681 -1.46748 -1.28413 0
M  V30 10475 O 971.951 -0.656873 -1.84559 0
M  V30 10476 H 970.531 -0.746457 0.0284826 0
M  V30 10477 H 973.193 -1.78891 0.773561 0
M  V30 10478 H 972.289 -3.1209 0.0254002 0
M  V30 10479 N 972.59 -0.333456 -1.54032 0
M  V30 10480 C 973.837 0.266133 -2.00744 0
M  V30 10481 C 974.165 1.51361 -1.22148 0
M  V30 10482 O 973.42 1.93473 -0.294368 0
M  V30 10483 C 973.719 0.63565 -3.51702 0
M  V30 10484 C 973.385 -0.513786 -4.47963 0
M  V30 10485 C 972.047 -0.829253 -4.74001 0
M  V30 10486 C 974.399 -1.2854 -5.05101 0
M  V30 10487 C 971.727 -1.91888 -5.54433 0
M  V30 10488 C 974.079 -2.3652 -5.86721 0
M  V30 10489 C 972.743 -2.68637 -6.11057 0
M  V30 10490 H 972.013 0.097385 -0.734573 0
M  V30 10491 H 974.66 -0.459282 -1.85911 0
M  V30 10492 H 972.965 1.44163 -3.64313 0
M  V30 10493 H 974.662 1.11129 -3.85294 0
M  V30 10494 H 971.252 -0.25784 -4.27824 0
M  V30 10495 H 975.436 -1.05494 -4.84958 0
M  V30 10496 H 970.692 -2.17208 -5.71516 0
M  V30 10497 H 974.866 -2.96747 -6.30011 0
M  V30 10498 H 972.493 -3.53197 -6.73169 0
M  V30 10499 N 974.068 1.57479 -0.061844 0
M  V30 10500 C 975.479 1.80627 0.472295 0
M  V30 10501 C 975.83 0.97496 1.70261 0
M  V30 10502 O 974.955 0.1946 2.15523 0
M  V30 10503 C 975.55 3.27608 0.863616 0
M  V30 10504 C 974.109 3.51638 1.34267 0
M  V30 10505 C 973.256 2.75412 0.323009 0
M  V30 10506 H 976.207 1.56072 -0.287634 0
M  V30 10507 H 976.228 3.39113 1.72577 0
M  V30 10508 H 975.74 3.88087 -0.0320226 0
M  V30 10509 H 973.841 2.96452 2.25714 0
M  V30 10510 H 973.954 4.60342 1.32747 0
M  V30 10511 H 972.318 2.4187 0.798175 0
M  V30 10512 H 973.101 3.38623 -0.564729 0
M  V30 10513 N 975.546 -0.211634 1.56173 0
M  V30 10514 C 976.456 -1.2831 1.96402 0
M  V30 10515 C 977.472 -1.50731 0.869254 0
M  V30 10516 O 978.648 -1.63669 1.17365 0
M  V30 10517 C 975.713 -2.61084 2.28114 0
M  V30 10518 C 974.774 -2.46879 3.51211 0
M  V30 10519 C 974.007 -3.73321 3.81401 0
M  V30 10520 O 974.23 -4.76773 3.13119 0
M  V30 10521 O 973.164 -3.69839 4.74871 0
M  V30 10522 H 976.99 -0.971733 2.87734 0
M  V30 10523 H 974.575 -0.415305 1.43512 0
M  V30 10524 H 976.457 -3.39481 2.49661 0
M  V30 10525 H 975.132 -2.91881 1.39954 0
M  V30 10526 H 974.039 -1.66648 3.34932 0
M  V30 10527 H 975.372 -2.21018 4.39786 0
M  V30 10528 N 977.024 -1.50153 -0.478725 0
M  V30 10529 C 978.271 -1.6076 -1.23136 0
M  V30 10530 C 978.599 -0.30442 -1.92103 0
M  V30 10531 O 977.854 0.709213 -1.82397 0
M  V30 10532 C 978.153 -2.73208 -2.30417 0
M  V30 10533 C 977.819 -4.13953 -1.78755 0
M  V30 10534 C 976.481 -4.52251 -1.64386 0
M  V30 10535 C 978.833 -5.01949 -1.40344 0
M  V30 10536 C 976.161 -5.76292 -1.10018 0
M  V30 10537 C 978.513 -6.2653 -0.874206 0
M  V30 10538 C 977.177 -6.63637 -0.717085 0
M  V30 10539 H 976.447 -0.588264 -0.450585 0
M  V30 10540 H 979.094 -1.84061 -0.528551 0
M  V30 10541 H 977.399 -2.43965 -3.06575 0
M  V30 10542 H 979.096 -2.7862 -2.88395 0
M  V30 10543 H 975.686 -3.83736 -1.90904 0
M  V30 10544 H 979.87 -4.73 -1.50283 0
M  V30 10545 H 975.126 -6.03723 -0.965838 0
M  V30 10546 H 979.3 -6.94081 -0.567883 0
M  V30 10547 H 976.927 -7.59633 -0.293639 0
M  V30 10548 N 978.502 0.731368 -1.39602 0
M  V30 10549 C 979.73 1.52059 -1.40305 0
M  V30 10550 C 980.145 1.888 0.00147921 0
M  V30 10551 O 979.502 1.54354 0.973715 0
M  V30 10552 C 979.553 2.80588 -2.27931 0
M  V30 10553 O 979.274 2.45406 -3.62915 0
M  V30 10554 C 980.775 3.74592 -2.37056 0
M  V30 10555 H 977.995 0.469787 -0.479104 0
M  V30 10556 H 980.539 0.903436 -1.83462 0
M  V30 10557 H 978.694 3.38626 -1.88178 0
M  V30 10558 H 979.108 3.27996 -4.09291 0
M  V30 10559 H 980.582 4.61662 -3.02609 0
M  V30 10560 H 981.059 4.16597 -1.39081 0
M  V30 10561 H 981.665 3.22471 -2.77295 0
M  V30 10562 N 979.98 1.24838 0.961938 0
M  V30 10563 C 981.229 1.0855 1.69999 0
M  V30 10564 C 981.542 -0.374645 1.91979 0
M  V30 10565 O 982.748 -0.657822 2.6341 0
M  V30 10566 C 981.204 1.89424 3.06017 0
M  V30 10567 C 980.812 3.39885 2.9186 0
M  V30 10568 C 982.556 1.81684 3.83655 0
M  V30 10569 C 980.463 4.13082 4.23223 0
M  V30 10570 H 979.393 0.402603 0.637516 0
M  V30 10571 H 982.044 1.4897 1.07146 0
M  V30 10572 H 980.426 1.41823 3.69733 0
M  V30 10573 H 981.6 3.95108 2.37121 0
M  V30 10574 H 979.915 3.4864 2.27683 0
M  V30 10575 H 982.512 2.3367 4.80939 0
M  V30 10576 H 982.855 0.783247 4.08865 0
M  V30 10577 H 983.388 2.26997 3.26676 0
M  V30 10578 H 980.127 5.16824 4.03204 0
M  V30 10579 H 979.647 3.62644 4.77755 0
M  V30 10580 H 981.326 4.20397 4.91808 0
M  V30 10581 N 981.458 -1.16348 1.06306 0
M  V30 10582 C 982.869 -1.68491 0.80422 0
M  V30 10583 C 983.22 -1.84327 -0.672159 0
M  V30 10584 O 982.345 -1.53892 -1.52139 0
M  V30 10585 C 982.94 -3.06048 1.45328 0
M  V30 10586 C 981.499 -3.55311 1.24221 0
M  V30 10587 C 980.646 -2.31291 1.5297 0
M  V30 10588 H 983.597 -1.00708 1.22652 0
M  V30 10589 H 983.618 -3.70451 0.868674 0
M  V30 10590 H 983.13 -2.9449 2.52779 0
M  V30 10591 H 981.231 -3.72128 0.187447 0
M  V30 10592 H 981.344 -4.37397 1.95502 0
M  V30 10593 H 979.708 -2.3631 0.950241 0
M  V30 10594 H 980.491 -2.22331 2.6158 0
M  V30 10595 N 982.937 -0.845659 -1.3299 0
M  V30 10596 C 983.9 -0.288905 -2.27372 0
M  V30 10597 C 984.9 0.546263 -1.51237 0
M  V30 10598 O 986.09 0.359072 -1.70459 0
M  V30 10599 C 983.222 0.59224 -3.35716 0
M  V30 10600 H 984.415 -1.12181 -2.78128 0
M  V30 10601 H 981.968 -0.619276 -1.43508 0
M  V30 10602 H 982.703 1.44732 -2.90212 0
M  V30 10603 H 982.488 -0.00543255 -3.921 0
M  V30 10604 H 983.978 0.974848 -4.06062 0
M  V30 10605 N 984.415 1.45619 -0.602734 0
M  V30 10606 C 985.345 2.33258 0.106342 0
M  V30 10607 C 986.326 1.46543 0.863664 0
M  V30 10608 O 987.511 1.75324 0.835175 0
M  V30 10609 C 984.641 3.29168 1.10751 0
M  V30 10610 C 983.595 4.25481 0.463717 0
M  V30 10611 C 982.921 5.11046 1.57278 0
M  V30 10612 C 984.221 5.18702 -0.61199 0
M  V30 10613 H 985.915 2.92795 -0.625423 0
M  V30 10614 H 983.461 1.40793 -0.302213 0
M  V30 10615 H 985.414 3.89346 1.61208 0
M  V30 10616 H 984.138 2.6778 1.8698 0
M  V30 10617 H 982.797 3.66595 -0.0199496 0
M  V30 10618 H 982.445 4.46029 2.32524 0
M  V30 10619 H 982.145 5.76286 1.14755 0
M  V30 10620 H 983.669 5.74091 2.07972 0
M  V30 10621 H 985.083 5.72979 -0.191686 0
M  V30 10622 H 983.48 5.92393 -0.958686 0
M  V30 10623 H 984.55 4.61424 -1.4905 0
M  V30 10624 N 985.893 0.34162 1.53853 0
M  V30 10625 C 987.141 -0.254979 2.00485 0
M  V30 10626 C 987.462 -1.51222 1.23114 0
M  V30 10627 O 986.732 -1.92966 0.337787 0
M  V30 10628 H 985.312 -0.0972084 0.740648 0
M  V30 10629 H 987.974 0.462332 1.89337 0
M  V30 10630 H 987.07 -0.498778 3.08089 0
M  V30 10631 N 987.371 -1.57444 0.0701946 0
M  V30 10632 C 988.617 -1.93716 -0.600178 0
M  V30 10633 C 988.95 -0.950329 -1.69359 0
M  V30 10634 O 988.225 0.0207123 -1.94489 0
M  V30 10635 C 988.508 -3.40266 -1.17861 0
M  V30 10636 C 988.361 -4.49706 -0.0919575 0
M  V30 10637 C 989.68 -3.87599 -2.08459 0
M  V30 10638 H 986.799 -0.704421 -0.216704 0
M  V30 10639 H 989.441 -1.89514 0.135838 0
M  V30 10640 H 987.591 -3.43977 -1.80587 0
M  V30 10641 H 989.263 -4.58116 0.541031 0
M  V30 10642 H 987.506 -4.29937 0.577639 0
M  V30 10643 H 988.177 -5.49381 -0.537048 0
M  V30 10644 H 990.653 -3.85883 -1.5567 0
M  V30 10645 H 989.529 -4.90755 -2.45867 0
M  V30 10646 H 989.79 -3.25448 -2.99226 0
M  V30 10647 N 988.849 0.203349 -1.56283 0
M  V30 10648 C 990.096 0.92501 -1.80138 0
M  V30 10649 C 990.424 1.83598 -0.64204 0
M  V30 10650 O 989.679 1.92119 0.372658 0
M  V30 10651 C 989.978 1.78016 -3.09912 0
M  V30 10652 C 989.644 1.02088 -4.39191 0
M  V30 10653 C 988.306 0.811208 -4.74313 0
M  V30 10654 C 990.658 0.486037 -5.18929 0
M  V30 10655 C 987.986 0.0550856 -5.86674 0
M  V30 10656 C 990.338 -0.256833 -6.32078 0
M  V30 10657 C 989.002 -0.477594 -6.65789 0
M  V30 10658 H 988.272 0.338485 -0.659173 0
M  V30 10659 H 990.919 0.191923 -1.90536 0
M  V30 10660 H 989.224 2.58167 -2.94715 0
M  V30 10661 H 990.921 2.341 -3.25574 0
M  V30 10662 H 987.511 1.1943 -4.11624 0
M  V30 10663 H 991.695 0.635446 -4.92215 0
M  V30 10664 H 986.951 -0.126006 -6.1127 0
M  V30 10665 H 991.125 -0.678683 -6.93085 0
M  V30 10666 H 988.752 -1.0654 -7.52697 0
M  V30 10667 N 990.327 1.50405 0.470755 0
M  V30 10668 C 991.555 1.65168 1.24608 0
M  V30 10669 C 991.97 0.335153 1.85801 0
M  V30 10670 O 991.327 -0.682919 1.69241 0
M  V30 10671 C 991.378 2.74305 2.35455 0
M  V30 10672 O 991.099 4.00854 1.76771 0
M  V30 10673 C 992.6 3.00044 3.26326 0
M  V30 10674 H 989.82 0.555186 0.376842 0
M  V30 10675 H 992.364 1.9663 0.56187 0
M  V30 10676 H 990.519 2.45536 2.99651 0
M  V30 10677 H 990.933 4.61211 2.49769 0
M  V30 10678 H 992.407 3.8007 4.00313 0
M  V30 10679 H 992.884 2.11128 3.85126 0
M  V30 10680 H 993.49 3.30345 2.67866 0
M  V30 10681 N 991.805 -0.723954 1.39988 0
M  V30 10682 C 993.052 -1.48371 1.37812 0
M  V30 10683 C 993.38 -1.94487 -0.0223285 0
M  V30 10684 O 992.635 -1.67906 -1.00529 0
M  V30 10685 C 992.934 -2.73004 2.30659 0
M  V30 10686 C 992.6 -2.45698 3.78078 0
M  V30 10687 C 991.262 -2.37961 4.18244 0
M  V30 10688 C 993.614 -2.22601 4.71273 0
M  V30 10689 C 990.942 -2.05183 5.49652 0
M  V30 10690 C 993.294 -1.91339 6.0297 0
M  V30 10691 C 991.958 -1.82078 6.42187 0
M  V30 10692 H 991.228 -0.542929 0.504291 0
M  V30 10693 H 993.875 -0.829986 1.72579 0
M  V30 10694 H 992.18 -3.43174 1.89048 0
M  V30 10695 H 993.877 -3.31068 2.26263 0
M  V30 10696 H 990.467 -2.52603 3.46251 0
M  V30 10697 H 994.651 -2.2754 4.41066 0
M  V30 10698 H 989.907 -1.96544 5.78948 0
M  V30 10699 H 994.081 -1.72479 6.74703 0
M  V30 10700 H 991.708 -1.56446 7.43928 0
M  V30 10701 N 993.283 -1.25346 -0.955304 0
M  V30 10702 C 994.513 -1.12629 -1.732 0
M  V30 10703 C 994.921 0.322748 -1.86427 0
M  V30 10704 O 994.264 1.23381 -1.36099 0
M  V30 10705 C 994.326 -1.7064 -3.16421 0
M  V30 10706 C 993.99 -3.19632 -3.26626 0
M  V30 10707 C 994.987 -4.1663 -3.10991 0
M  V30 10708 C 992.672 -3.59829 -3.50468 0
M  V30 10709 C 994.666 -5.51806 -3.19043 0
M  V30 10710 C 992.353 -4.95143 -3.58157 0
M  V30 10711 C 993.351 -5.90941 -3.42459 0
M  V30 10712 O 993.039 -7.23792 -3.49828 0
M  V30 10713 H 992.771 -0.393646 -0.549562 0
M  V30 10714 H 995.325 -1.66184 -1.20715 0
M  V30 10715 H 993.555 -1.11532 -3.70267 0
M  V30 10716 H 995.244 -1.53032 -3.75947 0
M  V30 10717 H 996.01 -3.86915 -2.92441 0
M  V30 10718 H 991.889 -2.8576 -3.61749 0
M  V30 10719 H 995.433 -6.26559 -3.06707 0
M  V30 10720 H 991.33 -5.24525 -3.76224 0
M  V30 10721 H 992.098 -7.31879 -3.66463 0
M  V30 10722 N 994.761 1.15782 -1.06922 0
M  V30 10723 C 995.986 1.90896 -0.810771 0
M  V30 10724 C 996.411 1.77246 0.629714 0
M  V30 10725 O 995.769 1.10215 1.43953 0
M  V30 10726 C 995.817 3.39397 -1.21829 0
M  V30 10727 O 994.921 4.10818 -0.360934 0
M  V30 10728 H 994.262 0.594497 -0.295752 0
M  V30 10729 H 996.792 1.46652 -1.42669 0
M  V30 10730 H 996.802 3.90181 -1.19259 0
M  V30 10731 H 995.477 3.4865 -2.2675 0
M  V30 10732 H 994.054 3.7019 -0.448748 0
M  V30 10733 N 996.239 0.8527 1.3254 0
M  V30 10734 C 997.464 0.468157 2.02047 0
M  V30 10735 C 997.889 -0.926967 1.63673 0
M  V30 10736 O 997.247 -1.60855 0.836378 0
M  V30 10737 C 997.295 0.612519 3.5536 0
M  V30 10738 O 996.399 -0.355506 4.10865 0
M  V30 10739 H 995.74 0.188401 0.636711 0
M  V30 10740 H 998.27 1.15135 1.6913 0
M  V30 10741 H 998.28 0.499315 4.04933 0
M  V30 10742 H 996.955 1.62988 3.82632 0
M  V30 10743 H 995.532 -0.198703 3.7237 0
M  V30 10744 N 997.718 -1.45297 0.610449 0
M  V30 10745 C 998.967 -2.0143 0.104323 0
M  V30 10746 C 999.28 -1.48431 -1.27388 0
M  V30 10747 O 1000.49 -1.96558 -1.87289 0
M  V30 10748 C 998.942 -3.59644 0.135812 0
M  V30 10749 C 998.55 -4.2164 1.51405 0
M  V30 10750 C 1000.29 -4.2333 -0.314922 0
M  V30 10751 C 998.201 -5.72015 1.50176 0
M  V30 10752 H 997.131 -0.753176 0.035233 0
M  V30 10753 H 999.782 -1.66738 0.7662 0
M  V30 10754 H 998.164 -3.91538 -0.592773 0
M  V30 10755 H 999.338 -4.01315 2.26457 0
M  V30 10756 H 997.653 -3.70159 1.90712 0
M  V30 10757 H 1000.25 -5.33597 -0.343335 0
M  V30 10758 H 1000.59 -3.94206 -1.33817 0
M  V30 10759 H 1001.13 -3.96163 0.360489 0
M  V30 10760 H 997.865 -6.05842 2.50271 0
M  V30 10761 H 997.385 -5.94523 0.793869 0
M  V30 10762 H 999.064 -6.35266 1.22665 0
M  V30 10763 N 999.196 -0.349774 -1.5367 0
M  V30 10764 C 1000.13 0.538575 -2.22782 0
M  V30 10765 C 1001.14 1.05896 -1.23652 0
M  V30 10766 O 1002.33 0.968045 -1.4997 0
M  V30 10767 C 999.43 1.7546 -2.89943 0
M  V30 10768 C 998.603 1.36843 -4.15443 0
M  V30 10769 C 997.662 2.4448 -4.65957 0
M  V30 10770 O 996.688 2.07528 -5.3002 0
M  V30 10771 N 997.89 3.75829 -4.42417 0
M  V30 10772 H 1000.65 -0.053348 -2.99653 0
M  V30 10773 H 998.216 -0.174193 -1.6096 0
M  V30 10774 H 1000.21 2.46911 -3.20651 0
M  V30 10775 H 998.778 2.25375 -2.16622 0
M  V30 10776 H 997.998 0.484421 -3.91212 0
M  V30 10777 H 999.286 1.0865 -4.97064 0
M  V30 10778 H 998.684 4.08635 -3.91196 0
M  V30 10779 H 997.241 4.43432 -4.77714 0
M  V30 10780 N 1000.67 1.57404 -0.0785433 0
M  V30 10781 C 1001.58 2.16612 0.900902 0
M  V30 10782 C 1002.6 1.13109 1.32221 0
M  V30 10783 O 1003.78 1.45406 1.39352 0
M  V30 10784 C 1000.84 2.7215 2.14791 0
M  V30 10785 C 999.902 3.90551 1.78237 0
M  V30 10786 C 999.135 4.43431 2.96993 0
M  V30 10787 O 999.358 3.95292 4.11218 0
M  V30 10788 O 998.292 5.34674 2.76418 0
M  V30 10789 H 1002.12 3.0068 0.427227 0
M  V30 10790 H 999.703 1.48696 0.144902 0
M  V30 10791 H 1001.58 3.07718 2.87902 0
M  V30 10792 H 1000.26 1.91139 2.61243 0
M  V30 10793 H 999.167 3.59825 1.02357 0
M  V30 10794 H 1000.5 4.72876 1.36562 0
M  V30 10795 N 1002.15 -0.195058 1.56388 0
M  V30 10796 C 1003.57 -0.545894 1.49974 0
M  V30 10797 C 1003.77 -1.85851 0.778568 0
M  V30 10798 O 1002.82 -2.50346 0.329105 0
M  V30 10799 C 1004.14 -0.600599 2.94641 0
M  V30 10800 C 1005.68 -0.689429 3.05313 0
M  V30 10801 C 1006.16 -0.775243 4.51391 0
M  V30 10802 N 1007.65 -0.838769 4.55542 0
M  V30 10803 C 1008.39 -0.925337 5.65884 0
M  V30 10804 N 1007.88 -0.974204 6.85916 0
M  V30 10805 N 1009.67 -0.962528 5.53798 0
M  V30 10806 H 1001.83 0.66595 2.0169 0
M  V30 10807 H 1004.09 0.237215 0.917842 0
M  V30 10808 H 1003.79 0.29478 3.50462 0
M  V30 10809 H 1003.67 -1.45528 3.47996 0
M  V30 10810 H 1006.06 -1.57524 2.4954 0
M  V30 10811 H 1006.14 0.191451 2.55083 0
M  V30 10812 H 1005.78 0.106215 5.07789 0
M  V30 10813 H 1005.71 -1.67193 4.99354 0
M  V30 10814 H 1008.2 -0.810249 3.69112 0
M  V30 10815 H 1008.51 -1.04077 7.6576 0
M  V30 10816 H 1006.86 -0.942881 6.88574 0
M  V30 10817 H 1010.05 -0.921188 4.58946 0
M  V30 10818 H 1010.22 -1.02653 6.39817 0
M  V30 10819 N 1003.63 -1.50653 -0.462772 0
M  V30 10820 C 1004.54 -1.72923 -1.58539 0
M  V30 10821 C 1005.56 -0.612577 -1.6286 0
M  V30 10822 O 1006.73 -0.891885 -1.80575 0
M  V30 10823 C 1003.8 -1.82623 -2.94703 0
M  V30 10824 C 1002.86 -3.06392 -3.00704 0
M  V30 10825 C 1002.09 -3.15618 -4.30373 0
M  V30 10826 O 1002.31 -2.31423 -5.21344 0
M  V30 10827 O 1001.25 -4.0841 -4.42136 0
M  V30 10828 H 1005.07 -2.68103 -1.42669 0
M  V30 10829 H 1002.66 -1.34848 -0.643144 0
M  V30 10830 H 1004.54 -1.91134 -3.7556 0
M  V30 10831 H 1003.22 -0.906275 -3.10754 0
M  V30 10832 H 1002.12 -3.03375 -2.18894 0
M  V30 10833 H 1003.46 -3.97992 -2.89591 0
M  V30 10834 N 1005.11 0.71652 -1.4037 0
M  V30 10835 C 1006.06 1.8306 -1.40562 0
M  V30 10836 C 1007.03 1.64009 -0.262697 0
M  V30 10837 O 1008.21 1.85157 -0.460619 0
M  V30 10838 C 1005.35 3.2076 -1.27307 0
M  V30 10839 C 1004.46 3.51389 -2.51296 0
M  V30 10840 C 1003.6 4.78589 -2.30491 0
M  V30 10841 C 1002.64 5.02119 -3.50061 0
M  V30 10842 N 1001.77 6.20533 -3.28457 0
M  V30 10843 H 1006.61 1.82231 -2.35788 0
M  V30 10844 H 1004.15 0.890198 -1.17106 0
M  V30 10845 H 1006.11 4.00274 -1.17628 0
M  V30 10846 H 1004.74 3.2082 -0.357005 0
M  V30 10847 H 1003.79 2.66436 -2.71507 0
M  V30 10848 H 1005.1 3.64686 -3.40302 0
M  V30 10849 H 1004.26 5.66119 -2.1816 0
M  V30 10850 H 1003 4.67499 -1.38909 0
M  V30 10851 H 1002 4.13044 -3.6287 0
M  V30 10852 H 1003.23 5.15082 -4.42569 0
M  V30 10853 H 1001.17 6.10695 -2.39556 0
M  V30 10854 H 1001.09 6.34502 -4.11027 0
M  V30 10855 H 1002.36 7.10853 -3.19857 0
M  V30 10856 N 1006.59 1.25851 0.948643 0
M  V30 10857 C 1007.84 1.10347 1.68838 0
M  V30 10858 C 1008.15 -0.354262 1.92365 0
M  V30 10859 O 1009.35 -0.629847 2.64093 0
M  V30 10860 C 1007.81 1.92659 3.03991 0
M  V30 10861 C 1007.42 3.42962 2.88238 0
M  V30 10862 C 1009.16 1.85743 3.81707 0
M  V30 10863 C 1007.07 4.17547 4.18818 0
M  V30 10864 H 1006 0.409342 0.63321 0
M  V30 10865 H 1008.65 1.50098 1.05559 0
M  V30 10866 H 1007.03 1.45736 3.68208 0
M  V30 10867 H 1008.21 3.97601 2.32917 0
M  V30 10868 H 1006.52 3.51035 2.23972 0
M  V30 10869 H 1009.12 2.38758 4.78434 0
M  V30 10870 H 1009.46 0.826568 4.08012 0
M  V30 10871 H 1009.99 2.30449 3.2425 0
M  V30 10872 H 1006.73 5.21072 3.97699 0
M  V30 10873 H 1006.25 3.6769 4.73882 0
M  V30 10874 H 1007.93 4.25589 4.87322 0
M  V30 10875 N 1008.06 -1.15214 1.07534 0
M  V30 10876 C 1009.31 -1.85388 0.794617 0
M  V30 10877 C 1009.63 -1.83331 -0.681838 0
M  V30 10878 O 1010.83 -2.49207 -1.0774 0
M  V30 10879 C 1009.29 -3.32747 1.37141 0
M  V30 10880 C 1008.9 -3.43244 2.87902 0
M  V30 10881 C 1010.64 -4.08093 1.16879 0
M  V30 10882 C 1008.55 -4.84762 3.38763 0
M  V30 10883 H 1007.48 -0.694499 0.293577 0
M  V30 10884 H 1010.13 -1.29944 1.29564 0
M  V30 10885 H 1008.51 -3.87874 0.798121 0
M  V30 10886 H 1009.68 -2.98214 3.51291 0
M  V30 10887 H 1008 -2.81345 3.06975 0
M  V30 10888 H 1010.6 -5.12535 1.52353 0
M  V30 10889 H 1010.94 -4.1616 0.107958 0
M  V30 10890 H 1011.47 -3.59241 1.70854 0
M  V30 10891 H 1008.21 -4.81879 4.4438 0
M  V30 10892 H 1007.73 -5.30366 2.80128 0
M  V30 10893 H 1009.41 -5.53624 3.34827 0
M  V30 10894 N 1009.54 -0.859717 -1.32086 0
M  V30 10895 C 1010.49 -0.306042 -2.28762 0
M  V30 10896 C 1011.46 0.589801 -1.55276 0
M  V30 10897 O 1012.64 0.523633 -1.83474 0
M  V30 10898 C 1009.78 0.495256 -3.41528 0
M  V30 10899 C 1008.9 -0.426947 -4.29885 0
M  V30 10900 C 1008.03 0.387474 -5.29785 0
M  V30 10901 C 1007.07 -0.531807 -6.09785 0
M  V30 10902 N 1006.21 0.245741 -7.0167 0
M  V30 10903 H 1011.05 -1.1357 -2.7551 0
M  V30 10904 H 1008.59 -0.571468 -1.35546 0
M  V30 10905 H 1010.54 0.97551 -4.05635 0
M  V30 10906 H 1009.17 1.28969 -2.95917 0
M  V30 10907 H 1008.23 -1.02561 -3.66313 0
M  V30 10908 H 1009.54 -1.13226 -4.85779 0
M  V30 10909 H 1008.69 0.930677 -5.99519 0
M  V30 10910 H 1007.43 1.12612 -4.74521 0
M  V30 10911 H 1006.44 -1.08685 -5.3895 0
M  V30 10912 H 1007.66 -1.26915 -6.67135 0
M  V30 10913 H 1005.61 0.967391 -6.48828 0
M  V30 10914 H 1005.52 -0.400432 -7.54939 0
M  V30 10915 H 1006.79 0.770507 -7.75683 0
M  V30 10916 N 1011.02 1.44971 -0.618145 0
M  V30 10917 C 1012.25 2.06527 -0.124165 0
M  V30 10918 C 1012.66 1.46097 1.19588 0
M  V30 10919 O 1012.02 0.57901 1.73071 0
M  V30 10920 C 1012.07 3.61498 0.0106701 0
M  V30 10921 O 1011.79 4.19675 -1.25716 0
M  V30 10922 C 1013.29 4.40061 0.534872 0
M  V30 10923 H 1010.51 0.666941 -0.0736935 0
M  V30 10924 H 1013.06 1.8605 -0.848871 0
M  V30 10925 H 1011.21 3.81282 0.685752 0
M  V30 10926 H 1011.63 5.12972 -1.09362 0
M  V30 10927 H 1013.1 5.48963 0.57827 0
M  V30 10928 H 1013.58 4.10587 1.55931 0
M  V30 10929 H 1014.18 4.25167 -0.10652 0
M  V30 10930 N 1012.5 0.357919 1.53482 0
M  V30 10931 C 1013.75 -0.235241 2.00324 0
M  V30 10932 C 1014.06 -1.50494 1.24944 0
M  V30 10933 O 1015.27 -2.17623 1.62335 0
M  V30 10934 C 1013.72 -0.469748 3.56821 0
M  V30 10935 C 1013.33 0.784877 4.41071 0
M  V30 10936 C 1015.07 -1.02098 4.12039 0
M  V30 10937 C 1012.98 0.520377 5.89106 0
M  V30 10938 H 1011.91 -0.0916816 0.748405 0
M  V30 10939 H 1014.56 0.475474 1.77233 0
M  V30 10940 H 1012.94 -1.24153 3.76035 0
M  V30 10941 H 1014.12 1.55886 4.33631 0
M  V30 10942 H 1012.43 1.25878 3.96918 0
M  V30 10943 H 1015.03 -1.23406 5.20264 0
M  V30 10944 H 1015.37 -1.98084 3.66154 0
M  V30 10945 H 1015.91 -0.309554 3.96594 0
M  V30 10946 H 1012.65 1.45035 6.39254 0
M  V30 10947 H 1012.17 -0.215254 5.99414 0
M  V30 10948 H 1013.84 0.143006 6.46842 0
M  V30 10949 N 1013.98 -1.5736 0.0868897 0
M  V30 10950 C 1014.89 -2.17087 -0.889402 0
M  V30 10951 C 1015.9 -1.13809 -1.31619 0
M  V30 10952 O 1017.08 -1.46143 -1.38579 0
M  V30 10953 C 1014.14 -2.73286 -2.13344 0
M  V30 10954 C 1013.2 -3.91491 -1.76164 0
M  V30 10955 C 1012.44 -4.45 -2.94637 0
M  V30 10956 O 1012.66 -3.97467 -4.09116 0
M  V30 10957 O 1011.59 -5.36133 -2.73579 0
M  V30 10958 H 1015.42 -3.00902 -0.411275 0
M  V30 10959 H 1013.01 -1.4877 -0.137015 0
M  V30 10960 H 1014.89 -3.0924 -2.86266 0
M  V30 10961 H 1013.56 -1.92521 -2.60225 0
M  V30 10962 H 1012.47 -3.60363 -1.00447 0
M  V30 10963 H 1013.8 -4.73593 -1.34053 0
M  V30 10964 N 1015.45 0.186762 -1.56489 0
M  V30 10965 C 1016.4 1.25084 -1.96104 0
M  V30 10966 C 1017.4 1.4667 -0.847609 0
M  V30 10967 O 1018.6 1.47432 -1.03266 0
M  V30 10968 H 1014.98 0.420121 -0.623701 0
M  V30 10969 H 1016.95 0.889761 -2.84826 0
M  V30 10970 C 1015.7 2.5863 -2.32392 0
M  V30 10971 H 1015.02 2.42838 -3.176 0
M  V30 10972 H 1016.46 3.3181 -2.63967 0
M  V30 10973 C 1014.92 3.16241 -1.16159 0
M  V30 10974 O 1015.45 3.99272 -0.441034 0
M  V30 10975 N 1013.66 2.75106 -0.936206 0
M  V30 10976 H 1013.2 2.0769 -1.5239 0
M  V30 10977 H 1013.16 3.13991 -0.160317 0
M  V30 10978 N 1016.93 1.50896 0.454776 0
M  V30 10979 C 1018.17 1.64347 1.21529 0
M  V30 10980 C 1018.54 0.343869 1.88896 0
M  V30 10981 O 1019.74 0.353973 2.66459 0
M  V30 10982 C 1018.01 2.80199 2.21864 0
M  V30 10983 S 1019.57 3.13879 3.06636 0
M  V30 10984 H 1016.39 0.579193 0.412379 0
M  V30 10985 H 1018.99 1.88741 0.509629 0
M  V30 10986 H 1017.69 3.73086 1.70982 0
M  V30 10987 H 1017.22 2.57941 2.97036 0
M  V30 10988 H 1019.24 2.58964 4.23264 0
M  V30 10989 N 1018.41 -0.709066 1.40748 0
M  V30 10990 C 1019.34 -1.83583 1.4429 0
M  V30 10991 C 1020.32 -1.67378 0.303067 0
M  V30 10992 O 1021.51 -1.87312 0.512612 0
M  V30 10993 C 1018.64 -3.21599 1.31116 0
M  V30 10994 C 1017.59 -3.52486 2.4277 0
M  V30 10995 C 1016.92 -4.89716 2.14668 0
M  V30 10996 C 1018.22 -3.52824 3.85113 0
M  V30 10997 H 1019.91 -1.80876 2.38588 0
M  V30 10998 H 1017.46 -0.868795 1.14839 0
M  V30 10999 H 1019.41 -4.00123 1.32209 0
M  V30 11000 H 1018.13 -3.24898 0.332965 0
M  V30 11001 H 1016.79 -2.76305 2.40937 0
M  V30 11002 H 1016.44 -4.89625 1.15224 0
M  V30 11003 H 1016.14 -5.11347 2.89478 0
M  V30 11004 H 1017.66 -5.70566 2.17455 0
M  V30 11005 H 1019.08 -4.21377 3.88734 0
M  V30 11006 H 1017.48 -3.85984 4.59496 0
M  V30 11007 H 1018.55 -2.52073 4.14231 0
M  V30 11008 N 1019.89 -1.26353 -0.941956 0
M  V30 11009 C 1020.8 -1.09618 -2.07415 0
M  V30 11010 C 1021.82 -0.0298963 -1.73974 0
M  V30 11011 O 1022.99 -0.233466 -2.00042 0
M  V30 11012 C 1020.06 -0.73013 -3.38925 0
M  V30 11013 C 1019.12 -1.87574 -3.86153 0
M  V30 11014 C 1018.35 -1.52706 -5.11387 0
M  V30 11015 O 1018.57 -0.428438 -5.68789 0
M  V30 11016 O 1017.51 -2.36154 -5.53638 0
M  V30 11017 H 1021.33 -2.04598 -2.2444 0
M  V30 11018 H 1018.92 -1.05407 -1.05876 0
M  V30 11019 H 1020.8 -0.538684 -4.17943 0
M  V30 11020 H 1019.48 0.190282 -3.2314 0
M  V30 11021 H 1018.38 -2.12214 -3.08084 0
M  V30 11022 H 1019.72 -2.77585 -4.06457 0
M  V30 11023 N 1021.37 1.14642 -1.08144 0
M  V30 11024 C 1022.3 2.19283 -0.6669 0
M  V30 11025 C 1023.31 1.60292 0.284668 0
M  V30 11026 O 1024.5 1.78352 0.0727383 0
M  V30 11027 C 1021.6 3.38877 0.0398572 0
M  V30 11028 C 1020.77 4.274 -0.929929 0
M  V30 11029 C 1019.83 5.25562 -0.258991 0
M  V30 11030 O 1018.86 5.61999 -0.902563 0
M  V30 11031 N 1020.06 5.71958 0.992177 0
M  V30 11032 H 1022.83 2.55464 -1.5671 0
M  V30 11033 H 1020.39 1.29836 -0.96717 0
M  V30 11034 H 1022.38 4.01605 0.499583 0
M  V30 11035 H 1020.95 3.01043 0.842118 0
M  V30 11036 H 1020.17 3.61649 -1.56857 0
M  V30 11037 H 1021.46 4.83411 -1.58717 0
M  V30 11038 H 1020.86 5.44481 1.53484 0
M  V30 11039 H 1019.41 6.36687 1.39544 0
M  V30 11040 N 1022.85 0.866709 1.31628 0
M  V30 11041 C 1024.26 0.558188 1.49521 0
M  V30 11042 C 1024.46 -0.90844 1.7986 0
M  V30 11043 O 1023.52 -1.6908 1.87531 0
M  V30 11044 C 1024.83 1.45559 2.63122 0
M  V30 11045 C 1026.38 1.45728 2.77006 0
M  V30 11046 C 1026.85 2.34017 3.937 0
M  V30 11047 N 1028.34 2.31879 4.00982 0
M  V30 11048 C 1029.08 2.96915 4.90539 0
M  V30 11049 N 1028.58 3.71109 5.85021 0
M  V30 11050 N 1030.37 2.86241 4.83759 0
M  V30 11051 H 1022.52 1.81574 1.10203 0
M  V30 11052 H 1024.78 0.77621 0.544244 0
M  V30 11053 H 1024.49 2.49904 2.47469 0
M  V30 11054 H 1024.36 1.15174 3.59186 0
M  V30 11055 H 1026.75 0.421419 2.92075 0
M  V30 11056 H 1026.83 1.80134 1.81619 0
M  V30 11057 H 1026.47 3.37678 3.79389 0
M  V30 11058 H 1026.4 1.96937 4.88388 0
M  V30 11059 H 1028.9 1.77948 3.33381 0
M  V30 11060 H 1029.21 4.1787 6.5008 0
M  V30 11061 H 1027.55 3.75217 5.8501 0
M  V30 11062 H 1030.74 2.27819 4.08921 0
M  V30 11063 H 1030.92 3.37206 5.5335 0
M  V30 11064 N 1024.32 -1.44642 0.625825 0
M  V30 11065 C 1025.57 -2.02393 0.128391 0
M  V30 11066 C 1025.9 -1.49075 -1.2446 0
M  V30 11067 O 1025.18 -0.672684 -1.82497 0
M  V30 11068 C 1025.46 -3.59934 0.109279 0
M  V30 11069 C 1025.31 -4.23546 1.51423 0
M  V30 11070 C 1026.63 -4.36406 -0.568985 0
M  V30 11071 H 1023.75 -0.735427 0.0481299 0
M  V30 11072 H 1026.39 -1.72277 0.801286 0
M  V30 11073 H 1024.54 -3.85722 -0.463726 0
M  V30 11074 H 1026.22 -4.08882 2.13572 0
M  V30 11075 H 1024.46 -3.81245 2.06966 0
M  V30 11076 H 1025.13 -5.32535 1.45294 0
M  V30 11077 H 1027.61 -4.1602 -0.0817516 0
M  V30 11078 H 1026.48 -5.46122 -0.551527 0
M  V30 11079 H 1026.74 -4.1062 -1.6384 0
M  V30 11080 N 1025.8 -0.366053 -1.5329 0
M  V30 11081 C 1026.75 0.480205 -2.25749 0
M  V30 11082 C 1027.72 1.07713 -1.2644 0
M  V30 11083 O 1028.9 1.10953 -1.55222 0
M  V30 11084 C 1026.04 1.61374 -3.05045 0
M  V30 11085 C 1025.16 1.04194 -4.19246 0
M  V30 11086 C 1024.29 2.14462 -4.85983 0
M  V30 11087 C 1023.33 1.5475 -5.92215 0
M  V30 11088 N 1022.47 2.58852 -6.52641 0
M  V30 11089 H 1027.31 -0.144199 -2.97651 0
M  V30 11090 H 1024.84 -0.0829321 -1.46866 0
M  V30 11091 H 1026.8 2.28144 -3.49294 0
M  V30 11092 H 1025.43 2.2088 -2.35397 0
M  V30 11093 H 1024.48 0.264514 -3.79479 0
M  V30 11094 H 1025.8 0.565379 -4.95585 0
M  V30 11095 H 1024.95 2.89051 -5.33418 0
M  V30 11096 H 1023.69 2.6547 -4.09117 0
M  V30 11097 H 1022.69 0.786759 -5.44142 0
M  V30 11098 H 1023.92 1.04566 -6.71001 0
M  V30 11099 H 1021.87 3.09073 -5.78627 0
M  V30 11100 H 1021.78 2.15884 -7.24521 0
M  V30 11101 H 1023.05 3.33142 -7.04724 0
M  V30 11102 N 1027.28 1.57312 -0.0952337 0
M  V30 11103 C 1028.7 1.57445 0.261416 0
M  V30 11104 C 1028.9 1.10639 1.68408 0
M  V30 11105 O 1027.95 0.782912 2.40056 0
M  V30 11106 C 1029.26 3.00659 0.0497206 0
M  V30 11107 C 1030.81 3.1278 0.117459 0
M  V30 11108 C 1031.29 4.57952 -0.0662441 0
M  V30 11109 N 1032.78 4.63199 -0.0114146 0
M  V30 11110 C 1033.51 5.73255 -0.128799 0
M  V30 11111 N 1033.01 6.92146 -0.301026 0
M  V30 11112 N 1034.8 5.62056 -0.0700599 0
M  V30 11113 H 1026.95 1.86045 -1.02475 0
M  V30 11114 H 1029.22 0.858726 -0.401614 0
M  V30 11115 H 1028.92 3.39102 -0.932888 0
M  V30 11116 H 1028.8 3.68792 0.791975 0
M  V30 11117 H 1031.18 2.74209 1.09057 0
M  V30 11118 H 1031.26 2.47238 -0.656288 0
M  V30 11119 H 1030.91 4.97217 -1.03623 0
M  V30 11120 H 1030.84 5.21555 0.727198 0
M  V30 11121 H 1033.33 3.77712 0.119154 0
M  V30 11122 H 1033.64 7.71855 -0.382104 0
M  V30 11123 H 1031.99 6.94184 -0.336695 0
M  V30 11124 H 1035.18 4.68057 0.0633587 0
M  V30 11125 H 1035.35 6.4779 -0.164991 0
M  V30 11126 N 1028.76 -0.17846 1.56586 0
M  V30 11127 C 1030 -0.892915 1.82753 0
M  V30 11128 C 1030.36 -1.8018 0.674744 0
M  V30 11129 O 1029.65 -1.8875 -0.329219 0
M  V30 11130 C 1029.85 -1.73063 3.12704 0
M  V30 11131 C 1029.67 -0.904341 4.40513 0
M  V30 11132 C 1028.44 -0.582221 5.01935 0
M  V30 11133 C 1030.64 -0.249232 5.13696 0
M  V30 11134 N 1028.62 0.260955 6.13345 0
M  V30 11135 C 1030 0.455417 6.18325 0
M  V30 11136 C 1032.05 -0.166663 4.97621 0
M  V30 11137 C 1030.75 1.23479 7.08622 0
M  V30 11138 C 1032.78 0.599362 5.88355 0
M  V30 11139 C 1032.14 1.2924 6.92442 0
M  V30 11140 H 1028.24 -0.30559 0.719818 0
M  V30 11141 H 1030.82 -0.160405 1.94038 0
M  V30 11142 H 1029 -2.43461 3.02624 0
M  V30 11143 H 1030.73 -2.38584 3.26894 0
M  V30 11144 H 1027.48 -0.910612 4.64763 0
M  V30 11145 H 1027.91 0.672643 6.7365 0
M  V30 11146 H 1032.55 -0.688116 4.17163 0
M  V30 11147 H 1030.27 1.76762 7.88531 0
M  V30 11148 H 1033.85 0.664826 5.77989 0
M  V30 11149 H 1032.73 1.87564 7.61439 0
M  V30 11150 N 1030.24 -1.51135 -0.446768 0
M  V30 11151 C 1031.18 -1.71767 -1.54158 0
M  V30 11152 C 1032.15 -0.559201 -1.56404 0
M  V30 11153 O 1033.34 -0.792567 -1.7356 0
M  V30 11154 C 1030.48 -1.84006 -2.91952 0
M  V30 11155 C 1029.59 -3.11511 -2.99308 0
M  V30 11156 C 1028.73 -3.144 -4.28166 0
M  V30 11157 C 1027.76 -4.36258 -4.29355 0
M  V30 11158 N 1026.9 -4.3675 -5.49722 0
M  V30 11159 H 1031.74 -2.65224 -1.35869 0
M  V30 11160 H 1029.28 -1.31453 -0.660186 0
M  V30 11161 H 1031.24 -1.89083 -3.71892 0
M  V30 11162 H 1029.87 -0.939661 -3.08821 0
M  V30 11163 H 1028.92 -3.15788 -2.12089 0
M  V30 11164 H 1030.23 -4.01445 -2.96047 0
M  V30 11165 H 1029.38 -3.18341 -5.16473 0
M  V30 11166 H 1028.12 -2.22338 -4.3407 0
M  V30 11167 H 1027.13 -4.32503 -3.39442 0
M  V30 11168 H 1028.35 -5.29574 -4.25122 0
M  V30 11169 H 1026.3 -3.47554 -5.56365 0
M  V30 11170 H 1026.22 -5.20481 -5.48302 0
M  V30 11171 H 1027.48 -4.4487 -6.40086 0
M  V30 11172 N 1031.71 0.701592 -1.41122 0
M  V30 11173 C 1032.99 1.45569 -1.30648 0
M  V30 11174 C 1033.37 2.10988 0.068744 0
M  V30 11175 O 1032.72 2.01228 1.08257 0
M  V30 11176 C 1032.93 2.48003 -2.45551 0
M  V30 11177 C 1034.28 3.13431 -2.86437 0
M  V30 11178 O 1035.3 2.58327 -2.45247 0
M  V30 11179 O 1034.16 4.13221 -3.57646 0
M  V30 11180 H 1031.25 0.648 -0.513834 0
M  V30 11181 H 1033.8 0.73258 -1.53073 0
M  V30 11182 H 1032.57 1.98276 -3.37346 0
M  V30 11183 H 1032.19 3.27832 -2.24971 0
M  V30 11184 N 1033.19 1.2685 0.935242 0
M  V30 11185 C 1034.42 1.15645 1.72165 0
M  V30 11186 C 1034.84 -0.283909 1.85945 0
M  V30 11187 O 1034.2 -1.20567 1.354 0
M  V30 11188 C 1034.25 1.83689 3.10307 0
M  V30 11189 O 1033.35 1.12972 3.96625 0
M  V30 11190 H 1032.69 0.402629 0.528002 0
M  V30 11191 H 1035.22 1.67781 1.17093 0
M  V30 11192 H 1035.23 1.90749 3.60664 0
M  V30 11193 H 1033.91 2.88472 2.99595 0
M  V30 11194 H 1032.48 1.13929 3.5507 0
M  V30 11195 N 1034.67 -1.14067 1.0875 0
M  V30 11196 C 1035.9 -1.88767 0.839682 0
M  V30 11197 C 1036.31 -1.79024 -0.612119 0
M  V30 11198 O 1035.65 -1.14986 -1.43262 0
M  V30 11199 C 1035.71 -3.39333 1.18716 0
M  V30 11200 C 1035.38 -3.72858 2.64245 0
M  V30 11201 C 1036.37 -3.72683 3.62496 0
M  V30 11202 C 1034.06 -4.0273 3.0019 0
M  V30 11203 C 1036.05 -4.01909 4.9472 0
M  V30 11204 C 1033.74 -4.31618 4.32607 0
M  V30 11205 C 1034.74 -4.31192 5.29682 0
M  V30 11206 O 1034.43 -4.59377 6.59718 0
M  V30 11207 H 1034.16 -0.604665 0.302253 0
M  V30 11208 H 1036.71 -1.45364 1.45115 0
M  V30 11209 H 1034.94 -3.83205 0.518707 0
M  V30 11210 H 1036.63 -3.95346 0.919599 0
M  V30 11211 H 1037.4 -3.49688 3.3607 0
M  V30 11212 H 1033.28 -4.02213 2.25268 0
M  V30 11213 H 1036.82 -4.01491 5.70483 0
M  V30 11214 H 1032.72 -4.54083 4.58779 0
M  V30 11215 H 1033.49 -4.77078 6.65086 0
M  V30 11216 N 1036.15 -0.873678 -1.31166 0
M  V30 11217 C 1037.08 -0.289389 -2.27366 0
M  V30 11218 C 1038.09 0.549667 -1.5324 0
M  V30 11219 O 1039.28 0.371056 -1.74601 0
M  V30 11220 C 1036.38 0.60807 -3.334 0
M  V30 11221 C 1035.56 -0.199379 -4.36945 0
M  V30 11222 C 1034.61 0.626798 -5.22454 0
M  V30 11223 O 1033.64 0.0535121 -5.69175 0
M  V30 11224 N 1034.84 1.93809 -5.47191 0
M  V30 11225 H 1037.61 -1.1161 -2.78143 0
M  V30 11226 H 1035.17 -0.735529 -1.44228 0
M  V30 11227 H 1037.16 1.16656 -3.87522 0
M  V30 11228 H 1035.73 1.33545 -2.82638 0
M  V30 11229 H 1034.95 -0.939316 -3.82845 0
M  V30 11230 H 1036.24 -0.75329 -5.03193 0
M  V30 11231 H 1035.64 2.42693 -5.10995 0
M  V30 11232 H 1034.19 2.44428 -6.04234 0
M  V30 11233 N 1037.63 1.44308 -0.633487 0
M  V30 11234 C 1038.87 2.02863 -0.14765 0
M  V30 11235 C 1039.23 1.48956 1.21778 0
M  V30 11236 O 1038.52 0.664997 1.7969 0
M  V30 11237 C 1038.71 3.57316 -0.0773886 0
M  V30 11238 C 1038.54 4.26208 -1.43446 0
M  V30 11239 C 1037.31 4.63087 -2.02184 0
M  V30 11240 C 1039.51 4.56501 -2.36879 0
M  V30 11241 N 1037.49 5.16957 -3.31102 0
M  V30 11242 C 1038.86 5.11479 -3.50413 0
M  V30 11243 C 1040.92 4.38454 -2.35929 0
M  V30 11244 C 1039.62 5.50311 -4.63196 0
M  V30 11245 C 1041.65 4.78336 -3.47777 0
M  V30 11246 C 1041.01 5.3343 -4.60035 0
M  V30 11247 H 1037.11 0.775835 -0.0980038 0
M  V30 11248 H 1039.69 1.75767 -0.837495 0
M  V30 11249 H 1037.86 3.84019 0.581743 0
M  V30 11250 H 1039.6 4.02541 0.417494 0
M  V30 11251 H 1036.35 4.47482 -1.55103 0
M  V30 11252 H 1036.78 5.48366 -3.97019 0
M  V30 11253 H 1041.42 3.9515 -1.50387 0
M  V30 11254 H 1039.14 5.92568 -5.49444 0
M  V30 11255 H 1042.72 4.66084 -3.4822 0
M  V30 11256 H 1041.6 5.63719 -5.45151 0
M  V30 11257 N 1039.1 0.374177 1.53094 0
M  V30 11258 C 1040.04 -0.511995 2.22382 0
M  V30 11259 C 1041.02 -1.07617 1.2189 0
M  V30 11260 O 1042.2 -1.13068 1.50824 0
M  V30 11261 C 1039.33 -1.70724 2.92525 0
M  V30 11262 C 1038.37 -1.26972 4.07161 0
M  V30 11263 S 1039.21 -0.263835 5.3485 0
M  V30 11264 C 1040.36 -1.46521 6.08508 0
M  V30 11265 H 1040.59 0.0764311 2.97202 0
M  V30 11266 H 1038.13 0.158307 1.53586 0
M  V30 11267 H 1040.09 -2.39279 3.3355 0
M  V30 11268 H 1038.75 -2.26693 2.17414 0
M  V30 11269 H 1037.94 -2.16172 4.55286 0
M  V30 11270 H 1037.54 -0.663273 3.68072 0
M  V30 11271 H 1039.83 -2.39483 6.33762 0
M  V30 11272 H 1040.78 -1.02517 7.0064 0
M  V30 11273 H 1041.18 -1.67516 5.39072 0
M  V30 11274 N 1040.58 -1.57259 0.103575 0
M  V30 11275 C 1041.83 -1.94945 -0.558953 0
M  V30 11276 C 1042.16 -0.986038 -1.67305 0
M  V30 11277 O 1041.44 -0.0205464 -1.94489 0
M  V30 11278 C 1041.72 -3.42689 -1.10617 0
M  V30 11279 C 1041.57 -4.498 0.00345246 0
M  V30 11280 C 1042.89 -3.91933 -2.00191 0
M  V30 11281 H 1040.01 -0.708859 -0.201713 0
M  V30 11282 H 1042.65 -1.89183 0.176006 0
M  V30 11283 H 1040.8 -3.4773 -1.73251 0
M  V30 11284 H 1042.47 -4.56866 0.638082 0
M  V30 11285 H 1040.72 -4.28615 0.668705 0
M  V30 11286 H 1041.39 -5.50397 -0.420396 0
M  V30 11287 H 1043.86 -3.89098 -1.4745 0
M  V30 11288 H 1042.74 -4.9586 -2.35402 0
M  V30 11289 H 1043 -3.31722 -2.92255 0
M  V30 11290 N 1042.06 0.170153 -1.56679 0
M  V30 11291 C 1043.29 0.90618 -1.86556 0
M  V30 11292 C 1043.71 1.74986 -0.690044 0
M  V30 11293 O 1043.07 1.77672 0.360862 0
M  V30 11294 C 1043.12 1.75777 -3.14857 0
M  V30 11295 O 1042.22 2.85952 -2.97162 0
M  V30 11296 H 1041.56 0.253781 -0.613589 0
M  V30 11297 H 1044.09 0.167943 -2.0391 0
M  V30 11298 H 1044.1 2.15747 -3.46291 0
M  V30 11299 H 1042.78 1.13807 -4.00026 0
M  V30 11300 H 1041.35 2.49557 -2.77084 0
M  V30 11301 N 1043.54 1.5137 0.438746 0
M  V30 11302 C 1044.49 1.73154 1.55308 0
M  V30 11303 C 1045.48 0.597825 1.58501 0
M  V30 11304 O 1046.69 0.77917 1.62262 0
M  V30 11305 H 1043.06 0.547083 0.51595 0
M  V30 11306 H 1045.03 2.66566 1.34108 0
M  V30 11307 C 1043.78 1.87242 2.92977 0
M  V30 11308 H 1043.1 2.73884 2.91252 0
M  V30 11309 H 1044.54 2.06497 3.70317 0
M  V30 11310 C 1043 0.631887 3.30921 0
M  V30 11311 O 1043.53 -0.214099 4.01129 0
M  V30 11312 N 1041.74 0.47639 2.86669 0
M  V30 11313 H 1041.29 1.16589 2.29706 0
M  V30 11314 H 1041.24 -0.352403 3.12419 0
M  V30 11315 N 1045.02 -0.694098 1.41492 0
M  V30 11316 C 1046.26 -1.45493 1.42138 0
M  V30 11317 C 1046.62 -1.92376 0.0302688 0
M  V30 11318 O 1045.91 -1.66723 -0.944142 0
M  V30 11319 C 1046.1 -2.6805 2.36398 0
M  V30 11320 C 1045.93 -2.33157 3.84536 0
M  V30 11321 C 1044.7 -2.2345 4.53209 0
M  V30 11322 C 1046.9 -1.96037 4.75473 0
M  V30 11323 N 1044.88 -1.81457 5.8647 0
M  V30 11324 C 1046.25 -1.64814 5.97693 0
M  V30 11325 C 1048.31 -1.8286 4.63106 0
M  V30 11326 C 1047.01 -1.21738 7.08923 0
M  V30 11327 C 1049.04 -1.41188 5.74299 0
M  V30 11328 C 1048.4 -1.10877 6.95619 0
M  V30 11329 H 1044.5 -0.529635 0.575335 0
M  V30 11330 H 1047.08 -0.802901 1.77374 0
M  V30 11331 H 1045.25 -3.30972 2.03254 0
M  V30 11332 H 1046.99 -3.34531 2.27753 0
M  V30 11333 H 1043.74 -2.41894 4.07166 0
M  V30 11334 H 1044.17 -1.62938 6.571 0
M  V30 11335 H 1048.81 -2.04947 3.69806 0
M  V30 11336 H 1046.53 -0.983947 8.02087 0
M  V30 11337 H 1050.11 -1.3154 5.66735 0
M  V30 11338 H 1048.99 -0.791191 7.80199 0
M  V30 11339 N 1046.49 -1.27344 -0.928501 0
M  V30 11340 C 1047.42 -1.12517 -2.04602 0
M  V30 11341 C 1048.41 -0.0268563 -1.70079 0
M  V30 11342 O 1049.59 -0.201197 -1.93155 0
M  V30 11343 C 1046.72 -0.770749 -3.3864 0
M  V30 11344 C 1045.67 -1.8222 -3.87272 0
M  V30 11345 C 1045 -1.32178 -5.18105 0
M  V30 11346 C 1046.3 -3.22614 -4.10752 0
M  V30 11347 H 1047.99 -2.06 -2.17265 0
M  V30 11348 H 1045.54 -0.991827 -1.04397 0
M  V30 11349 H 1047.49 -0.653843 -4.16297 0
M  V30 11350 H 1046.22 0.19979 -3.25988 0
M  V30 11351 H 1044.88 -1.928 -3.11807 0
M  V30 11352 H 1044.52 -0.340719 -5.01845 0
M  V30 11353 H 1044.22 -2.02474 -5.51614 0
M  V30 11354 H 1045.75 -1.2178 -5.98333 0
M  V30 11355 H 1047.16 -3.1504 -4.78981 0
M  V30 11356 H 1045.56 -3.90614 -4.55566 0
M  V30 11357 H 1046.63 -3.67727 -3.16077 0
M  V30 11358 N 1047.97 1.13488 -1.09353 0
M  V30 11359 C 1049.2 1.89133 -0.85108 0
M  V30 11360 C 1049.62 1.78542 0.591976 0
M  V30 11361 O 1048.98 1.13243 1.41583 0
M  V30 11362 C 1049.03 3.36736 -1.29001 0
M  V30 11363 O 1048.13 4.09959 -0.447993 0
M  V30 11364 H 1047.47 0.58809 -0.308296 0
M  V30 11365 H 1050 1.43593 -1.45747 0
M  V30 11366 H 1050.01 3.87564 -1.27508 0
M  V30 11367 H 1048.69 3.43762 -2.34095 0
M  V30 11368 H 1047.27 3.69155 -0.52717 0
M  V30 11369 N 1049.45 0.880621 1.30701 0
M  V30 11370 C 1050.87 0.574015 1.4892 0
M  V30 11371 C 1051.07 -0.889312 1.80813 0
M  V30 11372 O 1050.12 -1.67082 1.89314 0
M  V30 11373 C 1051.44 1.48341 2.61563 0
M  V30 11374 C 1052.98 1.48658 2.75445 0
M  V30 11375 C 1053.46 2.3818 3.91196 0
M  V30 11376 N 1054.95 2.36119 3.985 0
M  V30 11377 C 1055.69 3.02101 4.87363 0
M  V30 11378 N 1055.18 3.77293 5.81052 0
M  V30 11379 N 1056.97 2.91356 4.80696 0
M  V30 11380 H 1049.13 1.82732 1.08271 0
M  V30 11381 H 1051.39 0.781939 0.535981 0
M  V30 11382 H 1051.09 2.52515 2.44804 0
M  V30 11383 H 1050.97 1.18977 3.57944 0
M  V30 11384 H 1053.36 0.452374 2.91612 0
M  V30 11385 H 1053.44 1.8205 1.79698 0
M  V30 11386 H 1053.08 3.41683 3.75786 0
M  V30 11387 H 1053.01 2.02106 4.86272 0
M  V30 11388 H 1055.5 1.81474 3.31475 0
M  V30 11389 H 1055.81 4.24742 6.45612 0
M  V30 11390 H 1054.16 3.81401 5.80998 0
M  V30 11391 H 1057.35 2.32143 4.06481 0
M  V30 11392 H 1057.52 3.43056 5.49742 0
M  V30 11393 N 1050.93 -1.4397 0.641131 0
M  V30 11394 C 1052.18 -2.01163 0.147026 0
M  V30 11395 C 1052.49 -1.51099 -1.24211 0
M  V30 11396 O 1053.7 -2.00487 -1.83078 0
M  V30 11397 C 1052.15 -3.59275 0.212068 0
M  V30 11398 C 1051.76 -4.18334 1.60314 0
M  V30 11399 C 1053.51 -4.23903 -0.225057 0
M  V30 11400 C 1051.41 -5.68701 1.62276 0
M  V30 11401 H 1050.34 -0.75226 0.051201 0
M  V30 11402 H 1052.99 -1.65075 0.801396 0
M  V30 11403 H 1051.38 -3.92708 -0.509589 0
M  V30 11404 H 1052.55 -3.96422 2.34918 0
M  V30 11405 H 1050.86 -3.66031 1.9852 0
M  V30 11406 H 1053.46 -5.34205 -0.230074 0
M  V30 11407 H 1053.8 -3.96956 -1.25426 0
M  V30 11408 H 1054.34 -3.95309 0.44444 0
M  V30 11409 H 1051.08 -6.00397 2.63066 0
M  V30 11410 H 1050.6 -5.92705 0.919797 0
M  V30 11411 H 1052.28 -6.32521 1.36112 0
M  V30 11412 N 1052.41 -0.382291 -1.52893 0
M  V30 11413 C 1053.64 0.202408 -2.05908 0
M  V30 11414 C 1054.05 1.4109 -1.25456 0
M  V30 11415 O 1053.41 1.80027 -0.29942 0
M  V30 11416 C 1053.46 0.579452 -3.56826 0
M  V30 11417 O 1053.18 -0.58102 -4.3423 0
M  V30 11418 C 1054.68 1.22076 -4.2616 0
M  V30 11419 H 1051.9 0.0321859 -0.670228 0
M  V30 11420 H 1054.44 -0.545494 -1.9709 0
M  V30 11421 H 1052.6 1.27726 -3.65739 0
M  V30 11422 H 1053.01 -0.272693 -5.23791 0
M  V30 11423 H 1054.49 1.435 -5.33021 0
M  V30 11424 H 1054.96 2.18605 -3.80931 0
M  V30 11425 H 1055.57 0.563922 -4.21545 0
M  V30 11426 N 1053.89 1.57202 -0.111913 0
M  V30 11427 C 1055.11 1.99297 0.555713 0
M  V30 11428 C 1055.53 0.991444 1.60673 0
M  V30 11429 O 1054.89 -0.0166672 1.82492 0
M  V30 11430 C 1054.94 3.41413 1.18826 0
M  V30 11431 O 1054.66 4.37733 0.179261 0
M  V30 11432 C 1056.16 3.98602 1.93989 0
M  V30 11433 H 1053.38 0.654543 0.147695 0
M  V30 11434 H 1055.92 2.03557 -0.196163 0
M  V30 11435 H 1054.08 3.38115 1.89096 0
M  V30 11436 H 1054.49 5.20606 0.637935 0
M  V30 11437 H 1055.97 5.00143 2.33584 0
M  V30 11438 H 1056.44 3.37349 2.81233 0
M  V30 11439 H 1057.05 4.05424 1.28497 0
M  V30 11440 N 1055.36 -0.161842 1.56767 0
M  V30 11441 C 1056.3 -1.22499 1.93718 0
M  V30 11442 C 1057.31 -1.39975 0.831314 0
M  V30 11443 O 1058.5 -1.3981 1.10975 0
M  V30 11444 C 1055.6 -2.59222 2.18306 0
M  V30 11445 C 1054.77 -2.6292 3.4956 0
M  V30 11446 C 1053.83 -3.81074 3.62863 0
M  V30 11447 O 1052.86 -3.66633 4.35395 0
M  V30 11448 N 1054.06 -4.97923 2.98418 0
M  V30 11449 H 1056.82 -0.911043 2.85517 0
M  V30 11450 H 1054.38 -0.351533 1.58038 0
M  V30 11451 H 1056.38 -3.36749 2.24461 0
M  V30 11452 H 1054.95 -2.82969 1.32844 0
M  V30 11453 H 1054.17 -1.71418 3.54978 0
M  V30 11454 H 1055.45 -2.62409 4.35911 0
M  V30 11455 H 1054.85 -5.12557 2.39378 0
M  V30 11456 H 1053.41 -5.73277 3.10155 0
M  V30 11457 N 1056.84 -1.516 -0.430713 0
M  V30 11458 C 1058.09 -1.64596 -1.17959 0
M  V30 11459 C 1058.42 -0.365382 -1.91037 0
M  V30 11460 O 1057.67 0.650826 -1.84561 0
M  V30 11461 C 1057.97 -2.804 -2.21609 0
M  V30 11462 C 1057.64 -4.19431 -1.65495 0
M  V30 11463 C 1056.3 -4.57252 -1.49915 0
M  V30 11464 C 1058.65 -5.0616 -1.24304 0
M  V30 11465 C 1055.98 -5.79501 -0.916276 0
M  V30 11466 C 1058.33 -6.28995 -0.674437 0
M  V30 11467 C 1056.99 -6.65582 -0.505591 0
M  V30 11468 H 1056.26 -0.602301 -0.431642 0
M  V30 11469 H 1058.91 -1.8565 -0.469726 0
M  V30 11470 H 1057.22 -2.53595 -2.98658 0
M  V30 11471 H 1058.91 -2.87654 -2.79385 0
M  V30 11472 H 1055.5 -3.89615 -1.78599 0
M  V30 11473 H 1059.69 -4.77541 -1.35159 0
M  V30 11474 H 1054.94 -6.0649 -0.77328 0
M  V30 11475 H 1059.12 -6.95536 -0.346779 0
M  V30 11476 H 1056.74 -7.60182 -0.0518188 0
M  V30 11477 N 1058.32 0.686584 -1.41858 0
M  V30 11478 C 1059.27 1.82167 -1.4463 0
M  V30 11479 C 1060.26 1.66286 -0.323313 0
M  V30 11480 O 1061.47 1.73038 -0.495773 0
M  V30 11481 H 1057.84 0.600454 -0.452724 0
M  V30 11482 H 1059.81 1.76947 -2.40276 0
M  V30 11483 C 1058.56 3.20248 -1.35412 0
M  V30 11484 H 1057.89 3.33089 -2.21115 0
M  V30 11485 H 1059.33 3.99723 -1.41413 0
M  V30 11486 C 1057.78 3.36832 -0.0674972 0
M  V30 11487 O 1058.31 3.91845 0.884325 0
M  V30 11488 N 1056.52 2.90598 0.011519 0
M  V30 11489 H 1056.07 2.46016 -0.76381 0
M  V30 11490 H 1056.03 3.02072 0.871774 0
M  V30 11491 N 1059.8 1.27835 0.921735 0
M  V30 11492 C 1060.75 1.07723 2.00947 0
M  V30 11493 C 1061.73 0.00336676 1.609 0
M  V30 11494 O 1062.92 0.222593 1.75595 0
M  V30 11495 C 1060.05 0.732732 3.35389 0
M  V30 11496 C 1059.14 1.84504 3.81863 0
M  V30 11497 N 1059.53 3.08551 4.00787 0
M  V30 11498 C 1057.83 1.73308 4.10951 0
M  V30 11499 C 1058.53 3.80974 4.39584 0
M  V30 11500 N 1057.5 3.08773 4.47393 0
M  V30 11501 H 1061.31 2.01854 2.13617 0
M  V30 11502 H 1058.82 1.18637 1.109 0
M  V30 11503 H 1060.82 0.56975 4.12988 0
M  V30 11504 H 1059.48 -0.200885 3.24078 0
M  V30 11505 H 1060.49 3.44248 3.86928 0
M  V30 11506 H 1057.17 0.870698 4.0832 0
M  V30 11507 H 1058.56 4.87617 4.62255 0
M  V30 11508 N 1061.28 -1.12907 1.09954 0
M  V30 11509 C 1062.52 -1.83661 0.833761 0
M  V30 11510 C 1062.84 -1.84736 -0.642798 0
M  V30 11511 O 1064.04 -2.51437 -1.0243 0
M  V30 11512 C 1062.5 -3.29763 1.44168 0
M  V30 11513 C 1062.11 -3.3706 2.95118 0
M  V30 11514 C 1063.85 -4.05522 1.25509 0
M  V30 11515 C 1061.76 -4.77467 3.48969 0
M  V30 11516 H 1060.69 -0.688115 0.308242 0
M  V30 11517 H 1063.34 -1.27166 1.32291 0
M  V30 11518 H 1061.72 -3.86094 0.880215 0
M  V30 11519 H 1062.9 -2.90695 3.57537 0
M  V30 11520 H 1061.21 -2.7477 3.12874 0
M  V30 11521 H 1063.81 -5.09188 1.63191 0
M  V30 11522 H 1064.15 -4.15837 0.196208 0
M  V30 11523 H 1064.68 -3.55536 1.78435 0
M  V30 11524 H 1061.42 -4.72344 4.54501 0
M  V30 11525 H 1060.94 -5.24305 2.91315 0
M  V30 11526 H 1062.62 -5.46397 3.46495 0
M  V30 11527 N 1062.75 -0.88754 -1.30232 0
M  V30 11528 C 1063.7 -0.345765 -2.30016 0
M  V30 11529 C 1064.7 0.5486 -1.60271 0
M  V30 11530 O 1065.9 0.43275 -1.74721 0
M  V30 11531 H 1062.28 -0.0931623 -0.746207 0
M  V30 11532 H 1064.25 -1.20095 -2.73166 0
M  V30 11533 C 1063 0.422435 -3.45124 0
M  V30 11534 H 1062.32 -0.256516 -3.98976 0
M  V30 11535 H 1063.76 0.766572 -4.17013 0
M  V30 11536 C 1062.22 1.62049 -2.95367 0
M  V30 11537 O 1062.75 2.71985 -2.95613 0
M  V30 11538 N 1060.95 1.45852 -2.51347 0
M  V30 11539 H 1060.5 0.564158 -2.51346 0
M  V30 11540 H 1060.46 2.26148 -2.18413 0
M  V30 11541 N 1064.23 1.43628 -0.648757 0
M  V30 11542 C 1065.46 2.05918 -0.167701 0
M  V30 11543 C 1065.87 1.48681 1.17006 0
M  V30 11544 O 1065.21 0.610984 1.73242 0
M  V30 11545 C 1065.28 3.595 0.00265514 0
M  V30 11546 C 1064.94 4.39295 -1.2597 0
M  V30 11547 C 1065.94 4.71643 -2.18743 0
M  V30 11548 C 1063.62 4.79379 -1.50004 0
M  V30 11549 C 1065.62 5.42978 -3.33846 0
M  V30 11550 C 1063.3 5.50459 -2.65401 0
M  V30 11551 C 1064.3 5.82181 -3.57148 0
M  V30 11552 O 1063.99 6.5181 -4.7053 0
M  V30 11553 H 1063.72 0.670619 -0.0851261 0
M  V30 11554 H 1066.27 1.85196 -0.888351 0
M  V30 11555 H 1064.5 3.7878 0.77863 0
M  V30 11556 H 1066.19 4.03503 0.440501 0
M  V30 11557 H 1066.96 4.41199 -2.01416 0
M  V30 11558 H 1062.84 4.54098 -0.794745 0
M  V30 11559 H 1066.38 5.67656 -4.05479 0
M  V30 11560 H 1062.28 5.8032 -2.82664 0
M  V30 11561 H 1063.05 6.7029 -4.69738 0
M  V30 11562 N 1065.71 0.390394 1.52688 0
M  V30 11563 C 1066.64 -0.479319 2.24132 0
M  V30 11564 C 1067.66 -1.0258 1.26416 0
M  V30 11565 O 1068.84 -0.927943 1.52484 0
M  V30 11566 C 1065.94 -1.67711 2.94493 0
M  V30 11567 C 1065.12 -1.2578 4.18925 0
M  V30 11568 C 1064.18 -2.3204 4.72275 0
M  V30 11569 O 1063.2 -1.93402 5.35336 0
M  V30 11570 N 1064.4 -3.63967 4.52226 0
M  V30 11571 H 1067.17 0.132777 2.99406 0
M  V30 11572 H 1064.73 0.216807 1.60442 0
M  V30 11573 H 1066.72 -2.38323 3.27084 0
M  V30 11574 H 1065.29 -2.19552 2.22521 0
M  V30 11575 H 1064.51 -0.380528 3.92359 0
M  V30 11576 H 1065.8 -0.954329 4.9977 0
M  V30 11577 H 1065.2 -3.98119 4.01892 0
M  V30 11578 H 1063.76 -4.30611 4.89303 0
M  V30 11579 N 1067.19 -1.57141 0.120249 0
M  V30 11580 C 1068.12 -2.11097 -0.8668 0
M  V30 11581 C 1069.1 -1.02768 -1.26006 0
M  V30 11582 O 1070.28 -1.3043 -1.36089 0
M  V30 11583 C 1067.41 -2.6087 -2.1602 0
M  V30 11584 C 1066.46 -3.81095 -1.91491 0
M  V30 11585 S 1067.29 -5.23441 -1.13005 0
M  V30 11586 C 1068.45 -5.76583 -2.43521 0
M  V30 11587 H 1068.68 -2.94489 -0.407871 0
M  V30 11588 H 1066.21 -1.54116 -0.0935491 0
M  V30 11589 H 1068.17 -2.90201 -2.90333 0
M  V30 11590 H 1066.83 -1.77657 -2.5903 0
M  V30 11591 H 1066.02 -4.14074 -2.8733 0
M  V30 11592 H 1065.63 -3.52387 -1.25297 0
M  V30 11593 H 1067.92 -5.86384 -3.39352 0
M  V30 11594 H 1068.86 -6.74644 -2.15085 0
M  V30 11595 H 1069.27 -5.04657 -2.52946 0
M  V30 11596 N 1068.67 0.153526 -1.5685 0
M  V30 11597 C 1069.9 0.881055 -1.86872 0
M  V30 11598 C 1070.3 1.75547 -0.705692 0
M  V30 11599 O 1069.65 1.8064 0.333888 0
M  V30 11600 C 1069.71 1.79429 -3.11521 0
M  V30 11601 C 1069.37 1.0977 -4.43621 0
M  V30 11602 C 1070.37 0.454693 -5.17908 0
M  V30 11603 C 1068.06 1.08915 -4.9035 0
M  V30 11604 C 1070.05 -0.187562 -6.37124 0
M  V30 11605 C 1067.74 0.443084 -6.09492 0
M  V30 11606 C 1068.73 -0.194154 -6.82724 0
M  V30 11607 O 1068.42 -0.829995 -7.99604 0
M  V30 11608 H 1068.15 0.260486 -0.623797 0
M  V30 11609 H 1070.71 0.153024 -2.04829 0
M  V30 11610 H 1068.94 2.5631 -2.89555 0
M  V30 11611 H 1070.63 2.39321 -3.27842 0
M  V30 11612 H 1071.39 0.453151 -4.82878 0
M  V30 11613 H 1067.27 1.57456 -4.33276 0
M  V30 11614 H 1070.82 -0.685542 -6.94223 0
M  V30 11615 H 1066.71 0.44227 -6.43983 0
M  V30 11616 H 1067.48 -0.731013 -8.15229 0
M  V30 11617 N 1070.14 1.51827 0.422667 0
M  V30 11618 C 1071.42 1.55772 1.18299 0
M  V30 11619 C 1071.8 0.330657 2.08494 0
M  V30 11620 O 1071.15 -0.683373 2.18042 0
M  V30 11621 C 1071.36 2.87941 1.97208 0
M  V30 11622 C 1072.71 3.4044 2.53744 0
M  V30 11623 O 1073.73 2.8959 2.07403 0
M  V30 11624 O 1072.59 4.29201 3.38303 0
M  V30 11625 H 1069.68 0.626889 0.539388 0
M  V30 11626 H 1072.23 1.64147 0.430545 0
M  V30 11627 H 1071 3.68702 1.31052 0
M  V30 11628 H 1070.63 2.82795 2.79486 0
M  V30 11629 N 1071.62 -0.679052 1.4222 0
M  V30 11630 C 1072.85 -1.47248 1.46058 0
M  V30 11631 C 1073.27 -1.87962 0.0720987 0
M  V30 11632 O 1072.63 -1.5572 -0.928488 0
M  V30 11633 C 1072.68 -2.70067 2.38948 0
M  V30 11634 O 1071.78 -3.68178 1.85791 0
M  V30 11635 H 1071.12 -0.442533 0.495036 0
M  V30 11636 H 1073.65 -0.833263 1.86863 0
M  V30 11637 H 1073.66 -3.18187 2.55385 0
M  V30 11638 H 1072.34 -2.39773 3.39826 0
M  V30 11639 H 1070.92 -3.2719 1.78889 0
M  V30 11640 N 1073.1 -1.28322 -0.914942 0
M  V30 11641 C 1074.03 -1.14681 -2.03398 0
M  V30 11642 C 1075.01 -0.0448939 -1.70041 0
M  V30 11643 O 1076.2 -0.221672 -1.92931 0
M  V30 11644 C 1073.33 -0.806623 -3.37803 0
M  V30 11645 C 1072.28 -1.86318 -3.85318 0
M  V30 11646 C 1071.61 -1.37665 -5.16674 0
M  V30 11647 C 1072.91 -3.26953 -4.07307 0
M  V30 11648 H 1074.6 -2.08293 -2.15068 0
M  V30 11649 H 1072.15 -1.00284 -1.03339 0
M  V30 11650 H 1074.1 -0.69796 -4.1558 0
M  V30 11651 H 1072.82 0.165203 -3.26182 0
M  V30 11652 H 1071.48 -1.96096 -3.09745 0
M  V30 11653 H 1071.13 -0.393927 -5.01455 0
M  V30 11654 H 1070.83 -2.08313 -5.49435 0
M  V30 11655 H 1072.35 -1.28119 -5.97007 0
M  V30 11656 H 1073.77 -3.20102 -4.75613 0
M  V30 11657 H 1072.17 -3.95424 -4.51398 0
M  V30 11658 H 1073.24 -3.71059 -3.12159 0
M  V30 11659 N 1074.58 1.12322 -1.10551 0
M  V30 11660 C 1075.8 1.8822 -0.871093 0
M  V30 11661 C 1076.23 1.7916 0.573005 0
M  V30 11662 O 1075.59 1.14738 1.40374 0
M  V30 11663 C 1075.63 3.35349 -1.32565 0
M  V30 11664 O 1074.74 4.09461 -0.49145 0
M  V30 11665 H 1074.08 0.584787 -0.314516 0
M  V30 11666 H 1076.61 1.42039 -1.47262 0
M  V30 11667 H 1076.62 3.86189 -1.31612 0
M  V30 11668 H 1075.29 3.4126 -2.37728 0
M  V30 11669 H 1073.87 3.68575 -0.566294 0
M  V30 11670 N 1076.06 0.894434 1.2976 0
M  V30 11671 C 1077.29 0.532143 1.99629 0
M  V30 11672 C 1077.69 -0.886234 1.6716 0
M  V30 11673 O 1077.04 -1.59573 0.910065 0
M  V30 11674 C 1077.1 0.638335 3.53787 0
M  V30 11675 C 1076.76 2.02273 4.09798 0
M  V30 11676 C 1077.76 2.99327 4.25087 0
M  V30 11677 C 1075.45 2.33069 4.44954 0
M  V30 11678 C 1077.44 4.25304 4.74758 0
M  V30 11679 C 1075.13 3.59289 4.94322 0
M  V30 11680 C 1076.12 4.55222 5.09178 0
M  V30 11681 O 1075.81 5.79202 5.57477 0
M  V30 11682 H 1075.54 0.203326 0.644697 0
M  V30 11683 H 1078.1 1.2043 1.6639 0
M  V30 11684 H 1076.33 -0.0908338 3.86593 0
M  V30 11685 H 1078.02 0.285956 4.04891 0
M  V30 11686 H 1078.78 2.76849 3.9822 0
M  V30 11687 H 1074.66 1.59162 4.32653 0
M  V30 11688 H 1078.21 5.00189 4.86269 0
M  V30 11689 H 1074.1 3.816 5.20626 0
M  V30 11690 H 1074.87 5.81717 5.75802 0
M  V30 11691 N 1077.53 -1.43282 0.656365 0
M  V30 11692 C 1078.47 -2.29087 -0.0720378 0
M  V30 11693 C 1079.48 -1.4268 -0.783982 0
M  V30 11694 O 1080.67 -1.66585 -0.641213 0
M  V30 11695 C 1077.77 -3.19676 -1.12519 0
M  V30 11696 C 1076.94 -4.34638 -0.490756 0
M  V30 11697 C 1076 -5.06079 -1.44121 0
M  V30 11698 O 1075.03 -5.6124 -0.948595 0
M  V30 11699 N 1076.23 -5.09872 -2.77509 0
M  V30 11700 H 1078.99 -2.92241 0.664456 0
M  V30 11701 H 1076.55 -1.54006 0.499383 0
M  V30 11702 H 1078.55 -3.64334 -1.76189 0
M  V30 11703 H 1077.12 -2.581 -1.76362 0
M  V30 11704 H 1076.34 -3.92857 0.3251 0
M  V30 11705 H 1077.62 -5.08777 -0.0480061 0
M  V30 11706 H 1077.02 -4.66433 -3.20088 0
M  V30 11707 H 1075.58 -5.58237 -3.36474 0
M  V30 11708 N 1079.01 -0.398486 -1.52479 0
M  V30 11709 C 1079.98 0.420206 -2.25315 0
M  V30 11710 C 1080.98 0.982559 -1.27289 0
M  V30 11711 O 1082.17 0.863113 -1.51314 0
M  V30 11712 C 1079.3 1.59045 -3.01525 0
M  V30 11713 H 1080.49 -0.217599 -2.9911 0
M  V30 11714 H 1078.04 -0.150784 -1.55571 0
M  V30 11715 H 1078.78 2.26542 -2.32054 0
M  V30 11716 H 1078.56 1.19382 -3.73484 0
M  V30 11717 H 1080.05 2.16984 -3.56802 0
M  V30 11718 N 1080.49 1.57075 -0.12858 0
M  V30 11719 C 1081.77 1.87075 0.571162 0
M  V30 11720 C 1082.15 1.03141 1.84188 0
M  V30 11721 O 1081.5 0.113001 2.2822 0
M  V30 11722 C 1081.71 3.3838 0.854383 0
M  V30 11723 C 1083.05 4.07194 1.20326 0
M  V30 11724 O 1084.08 3.43454 0.944338 0
M  V30 11725 O 1082.94 5.19725 1.68963 0
M  V30 11726 H 1080.03 0.774764 0.289258 0
M  V30 11727 H 1082.58 1.68908 -0.163806 0
M  V30 11728 H 1081.35 3.91273 -0.0456925 0
M  V30 11729 H 1080.97 3.62012 1.64418 0
M  V30 11730 N 1081.97 -0.145205 1.5693 0
M  V30 11731 C 1082.93 -1.16316 1.97492 0
M  V30 11732 C 1083.93 -1.35764 0.861668 0
M  V30 11733 O 1085.12 -1.32726 1.12825 0
M  V30 11734 C 1082.25 -2.52311 2.29242 0
M  V30 11735 H 1083.45 -0.815138 2.8861 0
M  V30 11736 H 1081 -0.38861 1.51392 0
M  V30 11737 H 1081.74 -2.92081 1.40922 0
M  V30 11738 H 1081.52 -2.39555 3.10412 0
M  V30 11739 H 1083.01 -3.25624 2.61456 0
M  V30 11740 N 1083.45 -1.52049 -0.414609 0
M  V30 11741 C 1084.7 -1.65067 -1.15912 0
M  V30 11742 C 1085.01 -0.383969 -1.91794 0
M  V30 11743 O 1086.22 -0.393872 -2.68628 0
M  V30 11744 C 1084.67 -2.91611 -2.1093 0
M  V30 11745 C 1084.28 -4.25369 -1.4059 0
M  V30 11746 C 1086.02 -3.13992 -2.85674 0
M  V30 11747 C 1083.93 -5.43041 -2.34223 0
M  V30 11748 H 1082.86 -0.614884 -0.436387 0
M  V30 11749 H 1085.51 -1.78533 -0.424072 0
M  V30 11750 H 1083.89 -2.71831 -2.87965 0
M  V30 11751 H 1085.07 -4.55611 -0.689568 0
M  V30 11752 H 1083.38 -4.09047 -0.779088 0
M  V30 11753 H 1085.98 -3.99082 -3.55861 0
M  V30 11754 H 1086.32 -2.27998 -3.48314 0
M  V30 11755 H 1086.86 -3.34217 -2.1574 0
M  V30 11756 H 1083.59 -6.31364 -1.76238 0
M  V30 11757 H 1083.11 -5.17144 -3.03845 0
M  V30 11758 H 1084.79 -5.75901 -2.94868 0
M  V30 11759 N 1084.93 0.6715 -1.42579 0
M  V30 11760 C 1085.87 1.78496 -1.46314 0
M  V30 11761 C 1086.84 1.63091 -0.314743 0
M  V30 11762 O 1088.03 1.83597 -0.519292 0
M  V30 11763 C 1085.17 3.16548 -1.37447 0
M  V30 11764 C 1084.28 3.43216 -2.62348 0
M  V30 11765 C 1083.42 4.71014 -2.456 0
M  V30 11766 C 1082.45 4.90728 -3.65859 0
M  V30 11767 N 1081.59 6.09769 -3.48032 0
M  V30 11768 H 1086.43 1.74638 -2.41466 0
M  V30 11769 H 1083.97 0.852491 -1.19879 0
M  V30 11770 H 1085.93 3.96329 -1.30303 0
M  V30 11771 H 1084.56 3.19522 -0.458891 0
M  V30 11772 H 1083.61 2.57664 -2.79846 0
M  V30 11773 H 1084.92 3.53675 -3.51732 0
M  V30 11774 H 1084.07 5.58892 -2.3606 0
M  V30 11775 H 1082.81 4.62843 -1.53712 0
M  V30 11776 H 1081.82 4.01291 -3.75827 0
M  V30 11777 H 1083.04 5.00741 -4.58732 0
M  V30 11778 H 1080.99 6.02765 -2.58864 0
M  V30 11779 H 1080.91 6.21104 -4.31005 0
M  V30 11780 H 1082.17 7.00317 -3.42311 0
M  V30 11781 N 1086.4 1.28806 0.908124 0
M  V30 11782 C 1087.37 1.13228 1.99279 0
M  V30 11783 C 1088.37 0.0702456 1.60646 0
M  V30 11784 O 1089.56 0.316494 1.71301 0
M  V30 11785 C 1086.69 0.729629 3.33 0
M  V30 11786 H 1087.88 2.09566 2.14528 0
M  V30 11787 H 1085.43 1.11872 1.09153 0
M  V30 11788 H 1086.17 -0.234268 3.23453 0
M  V30 11789 H 1085.95 1.49688 3.62403 0
M  V30 11790 H 1087.44 0.643449 4.12613 0
M  V30 11791 N 1087.88 -1.11734 1.11145 0
M  V30 11792 C 1088.83 -2.17683 0.766979 0
M  V30 11793 C 1089.8 -1.64051 -0.260108 0
M  V30 11794 O 1090.98 -1.90302 -0.137723 0
M  V30 11795 C 1088.12 -3.44442 0.212982 0
M  V30 11796 C 1087.24 -4.12094 1.29626 0
M  V30 11797 C 1086.37 -5.26526 0.703127 0
M  V30 11798 C 1085.41 -5.86057 1.76647 0
M  V30 11799 N 1084.55 -6.91889 1.19306 0
M  V30 11800 H 1089.39 -2.46495 1.67465 0
M  V30 11801 H 1086.92 -1.21011 0.836353 0
M  V30 11802 H 1088.88 -4.17009 -0.126162 0
M  V30 11803 H 1087.51 -3.16025 -0.657888 0
M  V30 11804 H 1086.56 -3.37631 1.75241 0
M  V30 11805 H 1087.88 -4.52398 2.10089 0
M  V30 11806 H 1087.03 -6.05888 0.313859 0
M  V30 11807 H 1085.77 -4.87519 -0.132856 0
M  V30 11808 H 1084.77 -5.05375 2.16508 0
M  V30 11809 H 1086 -6.27132 2.60543 0
M  V30 11810 H 1083.95 -6.54906 0.378664 0
M  V30 11811 H 1083.86 -7.30832 1.93443 0
M  V30 11812 H 1085.13 -7.75062 0.830578 0
M  V30 11813 N 1089.36 -0.901303 -1.29284 0
M  V30 11814 C 1090.61 -0.52401 -1.94774 0
M  V30 11815 C 1090.92 0.934645 -1.71825 0
M  V30 11816 O 1092.13 1.41953 -2.31434 0
M  V30 11817 C 1090.58 -0.886262 -3.48817 0
M  V30 11818 C 1090.19 -2.3638 -3.80564 0
M  V30 11819 C 1091.94 -0.578955 -4.20533 0
M  V30 11820 C 1089.84 -2.66682 -5.27858 0
M  V30 11821 H 1088.77 -0.192244 -0.72908 0
M  V30 11822 H 1091.42 -1.09852 -1.46986 0
M  V30 11823 H 1089.81 -0.240666 -3.95268 0
M  V30 11824 H 1090.98 -3.05508 -3.44966 0
M  V30 11825 H 1089.29 -2.64029 -3.2199 0
M  V30 11826 H 1091.89 -0.782185 -5.28948 0
M  V30 11827 H 1092.23 0.482605 -4.13493 0
M  V30 11828 H 1092.77 -1.18246 -3.79819 0
M  V30 11829 H 1089.51 -3.71643 -5.39965 0
M  V30 11830 H 1089.03 -2.02179 -5.64698 0
M  V30 11831 H 1090.71 -2.53033 -5.95469 0
M  V30 11832 N 1090.84 1.42931 -0.663954 0
M  V30 11833 C 1092.11 1.95284 -0.111174 0
M  V30 11834 C 1092.49 1.60484 1.37142 0
M  V30 11835 O 1091.84 0.895425 2.10225 0
M  V30 11836 C 1092.05 3.47046 -0.368789 0
M  V30 11837 C 1093.4 4.23679 -0.279473 0
M  V30 11838 O 1094.42 3.54918 -0.301937 0
M  V30 11839 O 1093.28 5.46087 -0.21236 0
M  V30 11840 H 1090.38 0.826993 0.00341718 0
M  V30 11841 H 1092.92 1.52816 -0.737935 0
M  V30 11842 H 1091.7 3.65541 -1.39626 0
M  V30 11843 H 1091.32 3.96537 0.290514 0
M  V30 11844 N 1092.32 0.406567 1.52266 0
M  V30 11845 C 1093.25 -0.411314 2.29849 0
M  V30 11846 C 1094.23 -1.04838 1.33952 0
M  V30 11847 O 1095.41 -1.05788 1.62857 0
M  V30 11848 C 1092.54 -1.52961 3.11802 0
M  V30 11849 C 1091.5 -1.01768 4.15725 0
M  V30 11850 C 1090.82 -2.22938 4.86007 0
M  V30 11851 C 1092.12 -0.073515 5.22248 0
M  V30 11852 H 1093.82 0.236054 2.98468 0
M  V30 11853 H 1091.36 0.114968 1.4354 0
M  V30 11854 H 1093.31 -2.10874 3.64843 0
M  V30 11855 H 1092.04 -2.20482 2.40947 0
M  V30 11856 H 1090.7 -0.46097 3.6369 0
M  V30 11857 H 1090.35 -2.89007 4.11684 0
M  V30 11858 H 1090.05 -1.89338 5.5626 0
M  V30 11859 H 1091.57 -2.81462 5.41859 0
M  V30 11860 H 1092.98 -0.561367 5.70545 0
M  V30 11861 H 1091.38 0.173551 5.99849 0
M  V30 11862 H 1092.45 0.872524 4.76985 0
M  V30 11863 N 1093.79 -1.57004 0.136909 0
M  V30 11864 C 1094.7 -2.19807 -0.819887 0
M  V30 11865 C 1095.72 -1.17939 -1.27932 0
M  V30 11866 O 1096.9 -1.50478 -1.3386 0
M  V30 11867 C 1093.96 -2.79935 -2.04542 0
M  V30 11868 C 1093.02 -3.96897 -1.6362 0
M  V30 11869 C 1092.26 -4.54148 -2.80331 0
M  V30 11870 O 1092.48 -4.10282 -3.96264 0
M  V30 11871 O 1091.41 -5.44565 -2.56384 0
M  V30 11872 H 1095.24 -3.02058 -0.315337 0
M  V30 11873 H 1092.82 -1.49131 -0.0896151 0
M  V30 11874 H 1094.71 -3.18191 -2.76283 0
M  V30 11875 H 1093.38 -2.00703 -2.53969 0
M  V30 11876 H 1092.29 -3.63376 -0.889316 0
M  V30 11877 H 1093.62 -4.77618 -1.18918 0
M  V30 11878 N 1095.27 0.136881 -1.57004 0
M  V30 11879 C 1096.5 0.861186 -1.87796 0
M  V30 11880 C 1096.91 1.74788 -0.724272 0
M  V30 11881 O 1096.25 1.80984 0.31471 0
M  V30 11882 C 1096.32 1.76115 -3.13407 0
M  V30 11883 C 1095.98 1.05059 -4.4476 0
M  V30 11884 C 1096.98 0.399736 -5.18361 0
M  V30 11885 C 1094.66 1.03709 -4.91477 0
M  V30 11886 C 1096.66 -0.255127 -6.36889 0
M  V30 11887 C 1094.34 0.378414 -6.09927 0
M  V30 11888 C 1095.34 -0.266555 -6.8248 0
M  V30 11889 O 1095.03 -0.914757 -7.98679 0
M  V30 11890 H 1094.76 0.253855 -0.626525 0
M  V30 11891 H 1097.31 0.131291 -2.0498 0
M  V30 11892 H 1095.54 2.53224 -2.92257 0
M  V30 11893 H 1097.23 2.3583 -3.30362 0
M  V30 11894 H 1098 0.401909 -4.83332 0
M  V30 11895 H 1093.88 1.52852 -4.34922 0
M  V30 11896 H 1097.42 -0.759135 -6.93457 0
M  V30 11897 H 1093.32 0.373942 -6.44416 0
M  V30 11898 H 1094.09 -0.817437 -8.14408 0
M  V30 11899 N 1096.75 1.52266 0.40654 0
M  V30 11900 C 1097.7 1.75794 1.4955 0
M  V30 11901 C 1098.67 0.600472 1.54866 0
M  V30 11902 O 1099.85 0.838305 1.71397 0
M  V30 11903 C 1096.99 1.91682 2.86971 0
M  V30 11904 C 1096.11 3.19337 2.90943 0
M  V30 11905 C 1095.24 3.25641 4.1968 0
M  V30 11906 C 1094.28 4.47488 4.17637 0
M  V30 11907 N 1093.42 4.51171 5.37949 0
M  V30 11908 H 1098.26 2.68733 1.28789 0
M  V30 11909 H 1095.79 1.33157 0.625102 0
M  V30 11910 H 1097.75 1.98877 3.66748 0
M  V30 11911 H 1096.38 1.02121 3.06221 0
M  V30 11912 H 1095.43 3.21301 2.03642 0
M  V30 11913 H 1096.75 4.09153 2.85299 0
M  V30 11914 H 1095.9 3.31922 5.07851 0
M  V30 11915 H 1094.64 2.33769 4.28023 0
M  V30 11916 H 1093.64 4.41351 3.27856 0
M  V30 11917 H 1094.87 5.40659 4.10932 0
M  V30 11918 H 1092.81 3.62182 5.46955 0
M  V30 11919 H 1092.73 5.34835 5.3431 0
M  V30 11920 H 1094 4.61685 6.28066 0
M  V30 11921 N 1098.23 -0.663929 1.42933 0
M  V30 11922 C 1099.18 -1.77717 1.47259 0
M  V30 11923 C 1100.15 -1.62922 0.323387 0
M  V30 11924 O 1101.33 -1.83319 0.529021 0
M  V30 11925 C 1098.47 -3.15814 1.39124 0
M  V30 11926 C 1097.58 -3.4182 2.64165 0
M  V30 11927 C 1096.72 -4.69705 2.48094 0
M  V30 11928 C 1095.76 -4.88781 3.68456 0
M  V30 11929 N 1094.89 -6.07915 3.51261 0
M  V30 11930 H 1099.73 -1.73355 2.42388 0
M  V30 11931 H 1097.27 -0.846121 1.2033 0
M  V30 11932 H 1099.23 -3.95633 1.32403 0
M  V30 11933 H 1097.86 -3.19274 0.475829 0
M  V30 11934 H 1096.91 -2.56176 2.81208 0
M  V30 11935 H 1098.22 -3.51805 3.53602 0
M  V30 11936 H 1097.38 -5.57632 2.39021 0
M  V30 11937 H 1096.12 -4.62022 1.56164 0
M  V30 11938 H 1095.12 -3.99292 3.7795 0
M  V30 11939 H 1096.35 -4.98301 4.61381 0
M  V30 11940 H 1094.29 -6.01384 2.62057 0
M  V30 11941 H 1094.21 -6.1881 4.34293 0
M  V30 11942 H 1095.48 -6.98492 3.4602 0
M  V30 11943 N 1099.71 -1.29285 -0.901281 0
M  V30 11944 C 1100.94 -1.19874 -1.68267 0
M  V30 11945 C 1101.34 0.243387 -1.87628 0
M  V30 11946 O 1100.69 1.17497 -1.41209 0
M  V30 11947 C 1100.75 -1.83907 -3.08899 0
M  V30 11948 C 1100.41 -3.33198 -3.12775 0
M  V30 11949 C 1101.41 -4.29446 -2.9304 0
M  V30 11950 C 1099.1 -3.7437 -3.34892 0
M  V30 11951 C 1101.09 -5.64842 -2.95352 0
M  V30 11952 C 1098.78 -5.09888 -3.36834 0
M  V30 11953 C 1099.77 -6.04934 -3.17087 0
M  V30 11954 O 1099.46 -7.37979 -3.18815 0
M  V30 11955 H 1099.19 -0.416601 -0.532372 0
M  V30 11956 H 1101.75 -1.71154 -1.13558 0
M  V30 11957 H 1099.98 -1.27136 -3.65203 0
M  V30 11958 H 1101.67 -1.6884 -3.69118 0
M  V30 11959 H 1102.43 -3.9897 -2.75767 0
M  V30 11960 H 1098.31 -3.00846 -3.49303 0
M  V30 11961 H 1101.86 -6.39004 -2.79856 0
M  V30 11962 H 1097.75 -5.40009 -3.53638 0
M  V30 11963 H 1098.52 -7.46763 -3.35092 0
M  V30 11964 N 1101.18 1.11143 -1.11736 0
M  V30 11965 C 1102.41 1.87285 -0.891007 0
M  V30 11966 C 1102.83 1.79758 0.553971 0
M  V30 11967 O 1102.19 1.16221 1.39149 0
M  V30 11968 C 1102.24 3.33924 -1.36114 0
M  V30 11969 O 1101.34 4.08917 -0.534851 0
M  V30 11970 H 1100.69 0.581418 -0.320701 0
M  V30 11971 H 1103.22 1.40469 -1.4876 0
M  V30 11972 H 1103.23 3.84772 -1.35701 0
M  V30 11973 H 1101.9 3.38719 -2.41334 0
M  V30 11974 H 1100.48 3.67954 -0.605355 0
M  V30 11975 N 1102.66 0.908147 1.28804 0
M  V30 11976 C 1103.91 0.53734 1.94826 0
M  V30 11977 C 1104.23 -0.920962 1.71882 0
M  V30 11978 O 1103.5 -1.65043 1.05534 0
M  V30 11979 H 1102.08 0.195729 0.720902 0
M  V30 11980 H 1104.74 1.15628 1.56895 0
M  V30 11981 H 1103.84 0.727052 3.03513 0
M  V30 11982 N 1104.14 -1.42577 0.671525 0
M  V30 11983 C 1105.37 -2.06442 0.199152 0
M  V30 11984 C 1105.79 -1.50104 -1.1336 0
M  V30 11985 O 1105.15 -0.618211 -1.70434 0
M  V30 11986 C 1105.2 -3.60323 0.141215 0
M  V30 11987 O 1104.3 -4.02655 -0.891238 0
M  V30 11988 H 1103.64 -0.655919 0.103277 0
M  V30 11989 H 1106.17 -1.82768 0.919614 0
M  V30 11990 H 1106.18 -4.07984 -0.0360209 0
M  V30 11991 H 1104.86 -4.00702 1.11403 0
M  V30 11992 H 1103.43 -3.66549 -0.685309 0
M  V30 11993 N 1105.62 -0.414636 -1.52048 0
M  V30 11994 C 1106.9 0.218172 -1.94379 0
M  V30 11995 C 1107.28 1.62133 -1.35189 0
M  V30 11996 O 1106.62 2.22271 -0.529877 0
M  V30 11997 C 1106.83 0.218932 -3.48313 0
M  V30 11998 C 1108.18 0.435604 -4.2236 0
M  V30 11999 O 1109.21 0.298049 -3.54951 0
M  V30 12000 O 1108.06 0.707217 -5.41905 0
M  V30 12001 H 1105.16 0.142173 -0.814688 0
M  V30 12002 H 1107.7 -0.470977 -1.63033 0
M  V30 12003 H 1106.48 -0.76292 -3.83791 0
M  V30 12004 H 1106.1 0.951949 -3.86036 0
M  V30 12005 N 1107.1 1.56929 -0.145233 0
M  V30 12006 C 1108.04 2.16671 0.795128 0
M  V30 12007 C 1109.01 1.09908 1.24537 0
M  V30 12008 O 1110.2 1.37941 1.31821 0
M  V30 12009 C 1107.34 2.79111 2.02956 0
M  V30 12010 C 1106.45 4.00261 1.62528 0
M  V30 12011 C 1105.59 4.50705 2.81137 0
M  V30 12012 C 1104.63 5.64324 2.37075 0
M  V30 12013 N 1103.76 6.09395 3.48687 0
M  V30 12014 H 1108.6 2.96692 0.278865 0
M  V30 12015 H 1106.14 1.4656 0.125934 0
M  V30 12016 H 1108.1 3.13456 2.7532 0
M  V30 12017 H 1106.73 2.01737 2.51996 0
M  V30 12018 H 1105.78 3.71906 0.799365 0
M  V30 12019 H 1107.09 4.8258 1.26166 0
M  V30 12020 H 1106.25 4.87096 3.61693 0
M  V30 12021 H 1104.98 3.67389 3.20744 0
M  V30 12022 H 1103.99 5.27511 1.54958 0
M  V30 12023 H 1105.21 6.49425 1.98556 0
M  V30 12024 H 1103.16 5.29014 3.87917 0
M  V30 12025 H 1103.08 6.86636 3.16333 0
M  V30 12026 H 1104.35 6.50431 4.29605 0
M  V30 12027 N 1108.58 -0.128553 1.57075 0
M  V30 12028 C 1109.49 -1.17718 2.02927 0
M  V30 12029 C 1110.5 -1.45912 0.947932 0
M  V30 12030 O 1111.68 -1.57217 1.25876 0
M  V30 12031 C 1108.74 -2.48625 2.41633 0
M  V30 12032 C 1107.8 -2.27914 3.63804 0
M  V30 12033 C 1107.04 -3.52579 4.00654 0
M  V30 12034 O 1107.26 -4.59505 3.37952 0
M  V30 12035 O 1106.19 -3.44147 4.93808 0
M  V30 12036 H 1110.02 -0.817846 2.92481 0
M  V30 12037 H 1107.6 -0.338649 1.45511 0
M  V30 12038 H 1109.49 -3.2577 2.67305 0
M  V30 12039 H 1108.16 -2.84052 1.55229 0
M  V30 12040 H 1107.07 -1.4866 3.43294 0
M  V30 12041 H 1108.4 -1.97395 4.50883 0
M  V30 12042 N 1110.05 -1.5248 -0.398459 0
M  V30 12043 C 1111 -1.77211 -1.50662 0
M  V30 12044 C 1112 -0.639638 -1.5686 0
M  V30 12045 O 1113.2 -0.821917 -1.60139 0
M  V30 12046 H 1109.58 -0.56057 -0.501264 0
M  V30 12047 H 1111.55 -2.70028 -1.26993 0
M  V30 12048 C 1110.3 -1.94944 -2.8791 0
M  V30 12049 H 1109.62 -2.8151 -2.83888 0
M  V30 12050 H 1111.06 -2.16243 -3.64712 0
M  V30 12051 C 1109.52 -0.719402 -3.29129 0
M  V30 12052 O 1110.05 0.107671 -4.01556 0
M  V30 12053 N 1108.25 -0.552228 -2.85305 0
M  V30 12054 H 1107.8 -1.22638 -2.26534 0
M  V30 12055 H 1107.76 0.269447 -3.13243 0
M  V30 12056 N 1111.53 0.65634 -1.43283 0
M  V30 12057 C 1112.78 1.41212 -1.44021 0
M  V30 12058 C 1113.09 1.95485 -0.0669783 0
M  V30 12059 O 1114.3 2.71457 0.0481909 0
M  V30 12060 C 1112.76 2.55541 -2.5343 0
M  V30 12061 C 1112.36 2.07889 -3.96845 0
M  V30 12062 C 1114.11 3.3293 -2.63359 0
M  V30 12063 C 1112.01 3.19411 -4.97726 0
M  V30 12064 H 1110.94 0.530566 -0.535739 0
M  V30 12065 H 1113.6 0.708743 -1.6926 0
M  V30 12066 H 1111.98 3.28335 -2.21387 0
M  V30 12067 H 1113.15 1.42127 -4.38334 0
M  V30 12068 H 1111.47 1.43388 -3.90933 0
M  V30 12069 H 1114.06 4.1602 -3.35903 0
M  V30 12070 H 1114.41 3.80753 -1.68324 0
M  V30 12071 H 1114.94 2.67216 -2.94687 0
M  V30 12072 H 1111.68 2.7656 -5.94302 0
M  V30 12073 H 1111.2 3.83895 -4.60853 0
M  V30 12074 H 1112.88 3.84591 -5.20287 0
M  V30 12075 N 1113.01 1.29761 0.894412 0
M  V30 12076 C 1113.96 1.15341 1.99912 0
M  V30 12077 C 1114.93 0.0453488 1.66038 0
M  V30 12078 O 1116.11 0.213829 1.89598 0
M  V30 12079 C 1113.25 0.841432 3.34685 0
M  V30 12080 C 1112.36 2.03046 3.81309 0
M  V30 12081 C 1111.5 1.65739 5.04682 0
M  V30 12082 C 1110.54 2.81191 5.43689 0
M  V30 12083 N 1109.68 2.44244 6.58247 0
M  V30 12084 H 1114.52 2.09854 2.11578 0
M  V30 12085 H 1112.05 1.04421 1.03608 0
M  V30 12086 H 1114.01 0.641211 4.12243 0
M  V30 12087 H 1112.64 -0.066797 3.22731 0
M  V30 12088 H 1111.69 2.34222 2.9974 0
M  V30 12089 H 1113 2.89538 4.06164 0
M  V30 12090 H 1112.16 1.42036 5.8984 0
M  V30 12091 H 1110.9 0.764019 4.81678 0
M  V30 12092 H 1109.9 3.0557 4.57064 0
M  V30 12093 H 1111.13 3.712 5.68672 0
M  V30 12094 H 1109.07 1.57402 6.36837 0
M  V30 12095 H 1108.99 3.24269 6.82924 0
M  V30 12096 H 1110.26 2.23875 7.46659 0
M  V30 12097 N 1114.49 -1.10549 1.12324 0
M  V30 12098 C 1115.71 -1.8681 0.900927 0
M  V30 12099 C 1116.14 -1.80049 -0.54443 0
M  V30 12100 O 1115.5 -1.16957 -1.38531 0
M  V30 12101 C 1115.54 -3.33197 1.37883 0
M  V30 12102 O 1114.65 -4.08628 0.556529 0
M  V30 12103 H 1113.99 -0.579709 0.32378 0
M  V30 12104 H 1116.52 -1.39678 1.49503 0
M  V30 12105 H 1116.53 -3.84047 1.37739 0
M  V30 12106 H 1115.2 -3.37435 2.43127 0
M  V30 12107 H 1113.78 -3.67627 0.62486 0
M  V30 12108 N 1115.97 -0.914965 -1.28321 0
M  V30 12109 C 1116.9 -0.361578 -2.2633 0
M  V30 12110 C 1117.91 0.500637 -1.54911 0
M  V30 12111 O 1119.1 0.31532 -1.75693 0
M  V30 12112 C 1116.2 0.501693 -3.35166 0
M  V30 12113 C 1115.37 -0.338289 -4.3609 0
M  V30 12114 C 1114.43 0.460267 -5.24183 0
M  V30 12115 O 1113.46 -0.127594 -5.69057 0
M  V30 12116 N 1114.66 1.76302 -5.5308 0
M  V30 12117 H 1117.42 -1.20402 -2.74451 0
M  V30 12118 H 1114.99 -0.781042 -1.41814 0
M  V30 12119 H 1116.98 1.04268 -3.91037 0
M  V30 12120 H 1115.55 1.24485 -2.86744 0
M  V30 12121 H 1114.77 -1.06064 -3.79663 0
M  V30 12122 H 1116.06 -0.912996 -5.00542 0
M  V30 12123 H 1115.45 2.26314 -5.18458 0
M  V30 12124 H 1114.01 2.25081 -6.11704 0
M  V30 12125 N 1117.44 1.42219 -0.679077 0
M  V30 12126 C 1118.69 2.01777 -0.20342 0
M  V30 12127 C 1119.02 1.53592 1.18841 0
M  V30 12128 O 1118.3 0.739954 1.79875 0
M  V30 12129 C 1118.58 3.59281 -0.242791 0
M  V30 12130 C 1118.43 4.17634 -1.67038 0
M  V30 12131 C 1119.75 4.38218 0.406624 0
M  V30 12132 H 1116.87 0.733134 -0.0753916 0
M  V30 12133 H 1119.51 1.69185 -0.864673 0
M  V30 12134 H 1117.66 3.87178 0.320248 0
M  V30 12135 H 1119.34 4.00674 -2.286 0
M  V30 12136 H 1117.58 3.73301 -2.20973 0
M  V30 12137 H 1118.25 5.26776 -1.64958 0
M  V30 12138 H 1120.73 4.16036 -0.0727077 0
M  V30 12139 H 1119.6 5.47793 0.348457 0
M  V30 12140 H 1119.86 4.16418 1.48487 0
M  V30 12141 N 1118.92 0.422693 1.51826 0
M  V30 12142 C 1119.83 -0.40261 2.31119 0
M  V30 12143 C 1120.85 -1.04117 1.39412 0
M  V30 12144 O 1122.02 -1.03973 1.72486 0
M  V30 12145 C 1119.09 -1.49699 3.12716 0
M  V30 12146 C 1118.15 -0.880088 4.20182 0
M  V30 12147 C 1117.38 -1.92232 4.97878 0
M  V30 12148 O 1117.61 -3.14246 4.76031 0
M  V30 12149 O 1116.54 -1.521 5.82365 0
M  V30 12150 H 1120.37 0.244308 3.02716 0
M  V30 12151 H 1117.95 0.185569 1.48243 0
M  V30 12152 H 1119.83 -2.13202 3.63487 0
M  V30 12153 H 1118.51 -2.12826 2.43899 0
M  V30 12154 H 1117.41 -0.207404 3.73525 0
M  V30 12155 H 1118.75 -0.292535 4.9133 0
M  V30 12156 N 1120.4 -1.5685 0.153553 0
M  V30 12157 C 1121.35 -2.18385 -0.800667 0
M  V30 12158 C 1122.34 -1.14272 -1.25053 0
M  V30 12159 O 1123.55 -1.32509 -1.21825 0
M  V30 12160 H 1119.92 -0.699352 -0.276425 0
M  V30 12161 H 1121.89 -2.97287 -0.257535 0
M  V30 12162 C 1120.64 -2.82497 -2.02708 0
M  V30 12163 H 1119.97 -3.62328 -1.68992 0
M  V30 12164 H 1121.41 -3.29047 -2.67403 0
M  V30 12165 C 1119.86 -1.81343 -2.8393 0
M  V30 12166 O 1120.39 -1.28793 -3.80493 0
M  V30 12167 N 1118.6 -1.50499 -2.48593 0
M  V30 12168 H 1118.15 -1.93425 -1.70131 0
M  V30 12169 H 1118.11 -0.830672 -3.03228 0
M  V30 12170 N 1121.88 0.120221 -1.57141 0
M  V30 12171 C 1122.81 1.14876 -2.03287 0
M  V30 12172 C 1123.79 1.43259 -0.917112 0
M  V30 12173 O 1124.97 1.53721 -1.18674 0
M  V30 12174 C 1122.1 2.47525 -2.43616 0
M  V30 12175 C 1121.06 2.33607 -3.58625 0
M  V30 12176 C 1120.38 3.71207 -3.84849 0
M  V30 12177 C 1121.68 1.79761 -4.90391 0
M  V30 12178 H 1123.38 0.764943 -2.89463 0
M  V30 12179 H 1120.92 0.366516 -1.39258 0
M  V30 12180 H 1122.88 3.19728 -2.74504 0
M  V30 12181 H 1121.6 2.87794 -1.54409 0
M  V30 12182 H 1120.26 1.63853 -3.27945 0
M  V30 12183 H 1119.91 4.0896 -2.9285 0
M  V30 12184 H 1119.61 3.62749 -4.62263 0
M  V30 12185 H 1121.13 4.44917 -4.18188 0
M  V30 12186 H 1122.55 2.4178 -5.19822 0
M  V30 12187 H 1120.94 1.82126 -5.71795 0
M  V30 12188 H 1122.01 0.755087 -4.78985 0
M  V30 12189 N 1123.36 1.52689 0.390367 0
M  V30 12190 C 1124.3 1.7737 1.47677 0
M  V30 12191 C 1125.27 0.616864 1.54221 0
M  V30 12192 O 1126.46 0.856437 1.70499 0
M  V30 12193 C 1123.6 1.94715 2.84921 0
M  V30 12194 C 1122.71 3.22405 2.8754 0
M  V30 12195 C 1121.85 3.30074 4.16202 0
M  V30 12196 C 1120.89 4.51893 4.12867 0
M  V30 12197 N 1120.02 4.56851 5.33134 0
M  V30 12198 H 1124.86 2.70084 1.25932 0
M  V30 12199 H 1122.4 1.33813 0.610943 0
M  V30 12200 H 1124.36 2.02755 3.64618 0
M  V30 12201 H 1122.99 1.05363 3.0512 0
M  V30 12202 H 1122.04 3.23442 2.00223 0
M  V30 12203 H 1123.35 4.12156 2.80943 0
M  V30 12204 H 1122.51 3.3729 5.04302 0
M  V30 12205 H 1121.24 2.38295 4.25519 0
M  V30 12206 H 1120.25 4.44803 3.23156 0
M  V30 12207 H 1121.47 5.44987 4.05174 0
M  V30 12208 H 1119.42 3.67963 5.43083 0
M  V30 12209 H 1119.34 5.40472 5.28607 0
M  V30 12210 H 1120.61 4.6832 6.23134 0
M  V30 12211 N 1124.83 -0.648732 1.43629 0
M  V30 12212 C 1125.78 -1.78269 1.49409 0
M  V30 12213 C 1126.78 -1.6537 0.367288 0
M  V30 12214 O 1127.98 -1.71663 0.541476 0
M  V30 12215 H 1124.36 -0.58824 0.468484 0
M  V30 12216 H 1126.33 -1.70514 2.44883 0
M  V30 12217 C 1125.08 -3.16545 1.43856 0
M  V30 12218 H 1124.4 -3.2711 2.29868 0
M  V30 12219 H 1125.84 -3.95833 1.51961 0
M  V30 12220 C 1124.3 -3.36535 0.156779 0
M  V30 12221 O 1124.83 -3.94052 -0.780124 0
M  V30 12222 N 1123.04 -2.90526 0.0655319 0
M  V30 12223 H 1122.58 -2.43904 0.828768 0
M  V30 12224 H 1122.54 -3.04277 -0.791379 0
M  V30 12225 N 1126.31 -1.30234 -0.887518 0
M  V30 12226 C 1127.54 -1.21955 -1.67755 0
M  V30 12227 C 1127.96 0.214701 -1.86871 0
M  V30 12228 O 1127.32 1.15459 -1.39782 0
M  V30 12229 C 1127.37 -1.95079 -3.03276 0
M  V30 12230 O 1126.47 -1.27615 -3.92158 0
M  V30 12231 H 1125.81 -0.421948 -0.512695 0
M  V30 12232 H 1128.34 -1.72011 -1.10785 0
M  V30 12233 H 1128.35 -2.04004 -3.53336 0
M  V30 12234 H 1127.03 -2.99392 -2.88682 0
M  V30 12235 H 1125.61 -1.27029 -3.50597 0
M  V30 12236 N 1127.79 1.09952 -1.12909 0
M  V30 12237 C 1128.72 2.18477 -0.824014 0
M  V30 12238 C 1129.7 1.68744 0.214324 0
M  V30 12239 O 1130.89 1.94057 0.0744281 0
M  V30 12240 C 1128.02 3.46143 -0.283308 0
M  V30 12241 C 1126.97 4.09178 -1.25528 0
M  V30 12242 C 1126.3 5.31604 -0.574574 0
M  V30 12243 C 1127.6 4.52308 -2.6118 0
M  V30 12244 H 1129.29 2.44254 -1.73148 0
M  V30 12245 H 1126.84 1.17394 -0.833952 0
M  V30 12246 H 1128.79 4.21361 -0.057583 0
M  V30 12247 H 1127.51 3.19872 0.659525 0
M  V30 12248 H 1126.17 3.35973 -1.4669 0
M  V30 12249 H 1125.82 5.01611 0.37356 0
M  V30 12250 H 1125.52 5.74732 -1.22299 0
M  V30 12251 H 1127.04 6.0955 -0.358004 0
M  V30 12252 H 1128.46 5.18776 -2.44017 0
M  V30 12253 H 1126.86 5.06302 -3.22147 0
M  V30 12254 H 1127.93 3.64977 -3.19249 0
M  V30 12255 N 1129.27 0.921757 1.27833 0
M  V30 12256 C 1130.55 0.477706 1.89677 0
M  V30 12257 C 1130.93 -1.04392 1.83481 0
M  V30 12258 O 1130.27 -1.89549 1.27606 0
M  V30 12259 C 1130.48 1.01709 3.33851 0
M  V30 12260 C 1131.83 1.074 4.10792 0
M  V30 12261 O 1132.86 0.966295 3.42843 0
M  V30 12262 O 1131.71 1.23909 5.32268 0
M  V30 12263 H 1128.81 0.15271 0.812778 0
M  V30 12264 H 1131.35 1.01306 1.36144 0
M  V30 12265 H 1130.13 2.061 3.32623 0
M  V30 12266 H 1129.75 0.463031 3.94895 0
M  V30 12267 N 1130.75 -1.41857 0.686609 0
M  V30 12268 C 1131.99 -2.01666 0.214118 0
M  V30 12269 C 1132.33 -1.5422 -1.18025 0
M  V30 12270 O 1131.6 -0.749482 -1.7948 0
M  V30 12271 C 1131.88 -3.59147 0.261841 0
M  V30 12272 C 1131.74 -4.16742 1.69251 0
M  V30 12273 C 1133.06 -4.38427 -0.383378 0
M  V30 12274 H 1130.17 -0.732724 0.0792785 0
M  V30 12275 H 1132.82 -1.68724 0.873633 0
M  V30 12276 H 1130.97 -3.87342 -0.29971 0
M  V30 12277 H 1132.64 -3.99456 2.30722 0
M  V30 12278 H 1130.88 -3.72124 2.2295 0
M  V30 12279 H 1131.55 -5.25894 1.6775 0
M  V30 12280 H 1134.03 -4.15992 0.0947701 0
M  V30 12281 H 1132.9 -5.4797 -0.319401 0
M  V30 12282 H 1133.17 -4.172 -1.46276 0
M  V30 12283 N 1132.22 -0.430739 -1.51599 0
M  V30 12284 C 1133.17 0.384024 -2.27583 0
M  V30 12285 C 1134.14 1.02254 -1.30895 0
M  V30 12286 O 1135.33 1.0427 -1.59789 0
M  V30 12287 C 1132.47 1.48291 -3.11615 0
M  V30 12288 C 1131.58 0.863187 -4.23288 0
M  V30 12289 C 1130.71 1.93657 -4.94642 0
M  V30 12290 C 1129.75 1.29493 -5.98246 0
M  V30 12291 N 1128.89 2.30939 -6.63032 0
M  V30 12292 H 1133.73 -0.270314 -2.96771 0
M  V30 12293 H 1131.27 -0.145148 -1.46382 0
M  V30 12294 H 1133.23 2.13124 -3.58656 0
M  V30 12295 H 1131.86 2.10697 -2.44554 0
M  V30 12296 H 1130.91 0.103326 -3.8026 0
M  V30 12297 H 1132.22 0.354676 -4.97537 0
M  V30 12298 H 1131.37 2.66167 -5.45197 0
M  V30 12299 H 1130.11 2.4788 -4.20008 0
M  V30 12300 H 1129.12 0.555262 -5.46989 0
M  V30 12301 H 1130.34 0.760122 -6.74833 0
M  V30 12302 H 1128.29 2.84254 -5.91216 0
M  V30 12303 H 1128.21 1.84961 -7.33025 0
M  V30 12304 H 1129.47 3.02953 -7.1822 0
M  V30 12305 N 1133.7 1.56767 -0.161869 0
M  V30 12306 C 1134.95 1.95769 0.485536 0
M  V30 12307 C 1135.26 1.05006 1.65025 0
M  V30 12308 O 1136.47 1.33649 2.36326 0
M  V30 12309 C 1134.93 3.4807 0.915176 0
M  V30 12310 C 1134.53 4.47443 -0.223416 0
M  V30 12311 C 1136.28 3.95909 1.53153 0
M  V30 12312 C 1134.19 5.90971 0.225325 0
M  V30 12313 H 1133.12 0.730911 0.185161 0
M  V30 12314 H 1135.77 1.81808 -0.248592 0
M  V30 12315 H 1134.15 3.57415 1.705 0
M  V30 12316 H 1135.32 4.49805 -1.00061 0
M  V30 12317 H 1133.64 4.09606 -0.749127 0
M  V30 12318 H 1136.23 5.00592 1.87915 0
M  V30 12319 H 1136.58 3.38307 2.42599 0
M  V30 12320 H 1137.11 3.89542 0.806322 0
M  V30 12321 H 1133.85 6.52426 -0.634124 0
M  V30 12322 H 1133.37 5.91936 0.96808 0
M  V30 12323 H 1135.05 6.43497 0.672373 0
M  V30 12324 N 1135.18 -0.111886 1.57202 0
M  V30 12325 C 1136.41 -0.836317 1.89791 0
M  V30 12326 C 1136.83 -1.72304 0.754513 0
M  V30 12327 O 1136.19 -1.78889 -0.294672 0
M  V30 12328 C 1136.24 -1.63971 3.21164 0
M  V30 12329 O 1135.34 -2.74726 3.0757 0
M  V30 12330 H 1134.68 -0.230833 0.622585 0
M  V30 12331 H 1137.21 -0.0921478 2.04392 0
M  V30 12332 H 1137.22 -2.02746 3.54059 0
M  V30 12333 H 1135.9 -0.98882 4.03974 0
M  V30 12334 H 1134.47 -2.39101 2.86156 0
M  V30 12335 N 1136.66 -1.52894 -0.382264 0
M  V30 12336 C 1137.57 -1.81084 -1.4915 0
M  V30 12337 C 1138.58 -0.698045 -1.59384 0
M  V30 12338 O 1139.76 -0.98635 -1.75594 0
M  V30 12339 C 1136.83 -1.97987 -2.84608 0
M  V30 12340 C 1135.89 -3.219 -2.8404 0
M  V30 12341 C 1135.12 -3.37988 -4.13037 0
M  V30 12342 O 1135.34 -2.58733 -5.08344 0
M  V30 12343 O 1134.28 -4.31273 -4.19866 0
M  V30 12344 H 1138.1 -2.75289 -1.28257 0
M  V30 12345 H 1135.69 -1.38068 -0.57076 0
M  V30 12346 H 1137.57 -2.10773 -3.64901 0
M  V30 12347 H 1136.24 -1.06972 -3.05514 0
M  V30 12348 H 1135.15 -3.14551 -2.02505 0
M  V30 12349 H 1136.48 -4.12783 -2.68087 0
M  V30 12350 N 1138.14 0.641106 -1.43971 0
M  V30 12351 C 1139.1 1.73539 -1.49723 0
M  V30 12352 C 1140.1 1.56235 -0.380438 0
M  V30 12353 O 1141.29 1.61912 -0.642673 0
M  V30 12354 C 1138.42 3.1253 -1.36153 0
M  V30 12355 H 1139.62 1.69816 -2.47189 0
M  V30 12356 H 1137.17 0.853867 -1.30915 0
M  V30 12357 H 1137.9 3.21856 -0.39742 0
M  V30 12358 H 1137.69 3.26496 -2.17124 0
M  V30 12359 H 1139.18 3.92303 -1.43138 0
M  V30 12360 N 1139.62 1.30703 0.880598 0
M  V30 12361 C 1140.55 1.11783 1.98947 0
M  V30 12362 C 1141.53 0.0242461 1.62582 0
M  V30 12363 O 1142.71 0.178641 1.87652 0
M  V30 12364 C 1139.84 0.705762 3.31265 0
M  V30 12365 C 1138.88 1.80084 3.86616 0
M  V30 12366 S 1139.72 3.40416 4.13373 0
M  V30 12367 C 1140.87 3.01122 5.48704 0
M  V30 12368 H 1141.11 2.05658 2.14691 0
M  V30 12369 H 1138.64 1.15067 1.02951 0
M  V30 12370 H 1140.6 0.474754 4.07745 0
M  V30 12371 H 1139.26 -0.213699 3.13372 0
M  V30 12372 H 1138.45 1.4649 4.82241 0
M  V30 12373 H 1138.05 1.98636 3.16891 0
M  V30 12374 H 1140.34 2.49355 6.29943 0
M  V30 12375 H 1141.29 3.95671 5.87239 0
M  V30 12376 H 1141.7 2.38865 5.11472 0
M  V30 12377 N 1141.09 -1.09351 1.1349 0
M  V30 12378 C 1142.04 -2.18099 0.808426 0
M  V30 12379 C 1143.04 -1.68099 -0.209571 0
M  V30 12380 O 1144.24 -1.79877 -0.0666417 0
M  V30 12381 H 1140.62 -0.711432 0.243658 0
M  V30 12382 H 1142.59 -2.42867 1.73373 0
M  V30 12383 C 1141.34 -3.46475 0.291615 0
M  V30 12384 H 1140.66 -3.85319 1.06627 0
M  V30 12385 H 1142.1 -4.23878 0.101616 0
M  V30 12386 C 1140.56 -3.22245 -0.982827 0
M  V30 12387 O 1141.09 -3.44947 -2.0585 0
M  V30 12388 N 1139.29 -2.75845 -0.914218 0
M  V30 12389 H 1138.84 -2.57571 -0.03872 0
M  V30 12390 H 1138.8 -2.60011 -1.76753 0
M  V30 12391 N 1142.57 -0.928524 -1.27343 0
M  V30 12392 C 1143.52 -0.418768 -2.28799 0
M  V30 12393 C 1144.51 0.497334 -1.61935 0
M  V30 12394 O 1145.72 0.376945 -1.76009 0
M  V30 12395 H 1142.09 -0.116855 -0.742865 0
M  V30 12396 H 1144.07 -1.28725 -2.69207 0
M  V30 12397 C 1142.81 0.312422 -3.46294 0
M  V30 12398 H 1142.14 -0.383317 -3.97958 0
M  V30 12399 H 1143.58 0.633514 -4.19241 0
M  V30 12400 C 1142.04 1.5257 -3.00373 0
M  V30 12401 O 1142.57 2.62443 -3.04116 0
M  V30 12402 N 1140.77 1.37782 -2.5586 0
M  V30 12403 H 1140.32 0.483908 -2.53014 0
M  V30 12404 H 1140.28 2.19085 -2.25498 0
M  V30 12405 N 1144.05 1.41491 -0.694123 0
M  V30 12406 C 1145.3 2.00479 -0.221585 0
M  V30 12407 C 1145.61 1.55605 1.18518 0
M  V30 12408 O 1146.82 2.07143 1.7551 0
M  V30 12409 C 1145.27 3.5824 -0.345264 0
M  V30 12410 C 1144.88 4.12096 -1.7573 0
M  V30 12411 C 1146.63 4.24446 0.0675731 0
M  V30 12412 C 1144.53 5.62286 -1.83271 0
M  V30 12413 H 1143.46 0.749841 -0.0790854 0
M  V30 12414 H 1146.11 1.61987 -0.86211 0
M  V30 12415 H 1144.5 3.94328 0.363487 0
M  V30 12416 H 1145.67 3.8743 -2.49469 0
M  V30 12417 H 1143.98 3.58411 -2.11969 0
M  V30 12418 H 1146.58 5.34691 0.0316485 0
M  V30 12419 H 1146.92 4.01338 1.10606 0
M  V30 12420 H 1147.46 3.93388 -0.59085 0
M  V30 12421 H 1144.2 5.9022 -2.85168 0
M  V30 12422 H 1143.72 5.88883 -1.13914 0
M  V30 12423 H 1145.4 6.27033 -1.59494 0
M  V30 12424 N 1145.53 0.438773 1.51369 0
M  V30 12425 C 1146.48 -0.386324 2.29369 0
M  V30 12426 C 1147.47 -1.0196 1.3528 0
M  V30 12427 O 1148.68 -0.9544 1.52615 0
M  V30 12428 H 1145.05 -0.143397 0.738201 0
M  V30 12429 H 1147.02 0.292372 2.96964 0
M  V30 12430 C 1145.77 -1.47426 3.14898 0
M  V30 12431 H 1145.09 -0.996335 3.87186 0
M  V30 12432 H 1146.53 -2.02481 3.72529 0
M  V30 12433 C 1144.99 -2.45831 2.30366 0
M  V30 12434 O 1145.52 -3.50398 1.96428 0
M  V30 12435 N 1143.73 -2.16754 1.93561 0
M  V30 12436 H 1143.28 -1.31748 2.2136 0
M  V30 12437 H 1143.23 -2.82836 1.373 0
M  V30 12438 N 1147.01 -1.56678 0.170181 0
M  V30 12439 C 1147.95 -2.17909 -0.760556 0
M  V30 12440 C 1148.92 -1.11875 -1.22773 0
M  V30 12441 O 1150.11 -1.40021 -1.2961 0
M  V30 12442 C 1147.25 -2.82305 -1.9849 0
M  V30 12443 C 1146.36 -4.02796 -1.5614 0
M  V30 12444 C 1145.5 -4.55121 -2.73932 0
M  V30 12445 C 1144.53 -5.68025 -2.28067 0
M  V30 12446 N 1143.67 -6.14865 -3.38947 0
M  V30 12447 H 1148.51 -2.97098 -0.231629 0
M  V30 12448 H 1146.05 -1.46742 -0.102602 0
M  V30 12449 H 1148.01 -3.17797 -2.70298 0
M  V30 12450 H 1146.64 -2.05721 -2.48755 0
M  V30 12451 H 1145.69 -3.73131 -0.740097 0
M  V30 12452 H 1147 -4.84526 -1.18472 0
M  V30 12453 H 1146.15 -4.92789 -3.53898 0
M  V30 12454 H 1144.89 -3.72445 -3.14858 0
M  V30 12455 H 1143.9 -5.2991 -1.46546 0
M  V30 12456 H 1145.12 -6.52501 -1.88199 0
M  V30 12457 H 1143.07 -5.35119 -3.79452 0
M  V30 12458 H 1142.99 -6.91582 -3.05369 0
M  V30 12459 H 1144.25 -6.57183 -4.19203 0
M  V30 12460 N 1148.48 0.103547 -1.57259 0
M  V30 12461 C 1149.73 0.808576 -1.85656 0
M  V30 12462 C 1150.06 1.79143 -0.757502 0
M  V30 12463 O 1149.31 1.941 0.249723 0
M  V30 12464 C 1149.61 1.57946 -3.20605 0
M  V30 12465 C 1149.28 0.739502 -4.44795 0
M  V30 12466 C 1147.94 0.507921 -4.78512 0
M  V30 12467 C 1150.29 0.155034 -5.20969 0
M  V30 12468 C 1147.62 -0.318129 -5.85837 0
M  V30 12469 C 1149.97 -0.658292 -6.29166 0
M  V30 12470 C 1148.64 -0.900044 -6.61404 0
M  V30 12471 H 1147.91 0.295879 -0.679365 0
M  V30 12472 H 1150.55 0.0703604 -1.91371 0
M  V30 12473 H 1148.86 2.38902 -3.10537 0
M  V30 12474 H 1150.56 2.12921 -3.39803 0
M  V30 12475 H 1147.15 0.930103 -4.18386 0
M  V30 12476 H 1151.33 0.32113 -4.9526 0
M  V30 12477 H 1146.59 -0.514495 -6.09231 0
M  V30 12478 H 1150.76 -1.11809 -6.87366 0
M  V30 12479 H 1148.39 -1.54194 -7.44398 0
M  V30 12480 N 1149.96 1.53094 0.37415 0
M  V30 12481 C 1151.21 1.68082 1.11495 0
M  V30 12482 C 1151.52 0.434685 1.90709 0
M  V30 12483 O 1152.73 0.464956 2.67489 0
M  V30 12484 C 1151.19 2.97101 2.03124 0
M  V30 12485 C 1150.79 4.28947 1.29262 0
M  V30 12486 C 1152.54 3.21456 2.77248 0
M  V30 12487 C 1150.44 5.4906 2.19743 0
M  V30 12488 H 1149.37 0.626238 0.419931 0
M  V30 12489 H 1152.03 1.79594 0.376588 0
M  V30 12490 H 1150.41 2.79371 2.80656 0
M  V30 12491 H 1151.58 4.57279 0.568528 0
M  V30 12492 H 1149.9 4.10968 0.670362 0
M  V30 12493 H 1152.49 4.08377 3.45155 0
M  V30 12494 H 1152.84 2.37153 3.42146 0
M  V30 12495 H 1153.37 3.3982 2.06803 0
M  V30 12496 H 1150.11 6.35815 1.59437 0
M  V30 12497 H 1149.63 5.25019 2.90027 0
M  V30 12498 H 1151.31 5.83517 2.79495 0
M  V30 12499 N 1151.44 -0.633461 1.44309 0
M  V30 12500 C 1152.86 -0.951379 1.28144 0
M  V30 12501 C 1153.06 -2.00344 0.215512 0
M  V30 12502 O 1152.11 -2.49321 -0.399389 0
M  V30 12503 C 1153.42 -1.41686 2.65227 0
M  V30 12504 C 1154.97 -1.53247 2.72918 0
M  V30 12505 C 1155.45 -2.03179 4.10466 0
M  V30 12506 N 1156.94 -2.10453 4.1263 0
M  V30 12507 C 1157.67 -2.50254 5.15907 0
M  V30 12508 N 1157.17 -2.89209 6.29547 0
M  V30 12509 N 1158.96 -2.50368 5.03262 0
M  V30 12510 H 1151.11 0.0623574 2.12308 0
M  V30 12511 H 1153.38 -0.0347244 0.947364 0
M  V30 12512 H 1153.08 -0.71814 3.4429 0
M  V30 12513 H 1152.96 -2.3883 2.91959 0
M  V30 12514 H 1155.34 -2.22216 1.94176 0
M  V30 12515 H 1155.42 -0.544836 2.4993 0
M  V30 12516 H 1155.07 -1.34806 4.89683 0
M  V30 12517 H 1155 -3.02809 4.3083 0
M  V30 12518 H 1157.49 -1.83042 3.30612 0
M  V30 12519 H 1157.8 -3.18386 7.04166 0
M  V30 12520 H 1156.15 -2.86966 6.32989 0
M  V30 12521 H 1159.34 -2.19324 4.13539 0
M  V30 12522 H 1159.51 -2.81062 5.83873 0
M  V30 12523 N 1152.92 -1.31168 -0.873655 0
M  V30 12524 C 1153.83 -1.20458 -2.01313 0
M  V30 12525 C 1154.84 -0.122074 -1.73571 0
M  V30 12526 O 1156.02 -0.339176 -1.98523 0
M  V30 12527 C 1153.09 -0.90876 -3.34578 0
M  V30 12528 C 1152.15 -2.07779 -3.75668 0
M  V30 12529 C 1151.38 -1.79599 -5.02573 0
M  V30 12530 O 1151.6 -0.729338 -5.65718 0
M  V30 12531 O 1150.54 -2.65169 -5.40341 0
M  V30 12532 H 1154.36 -2.16207 -2.13279 0
M  V30 12533 H 1151.95 -1.10871 -1.00139 0
M  V30 12534 H 1153.83 -0.759469 -4.145 0
M  V30 12535 H 1152.5 0.0187249 -3.23695 0
M  V30 12536 H 1151.41 -2.28247 -2.96402 0
M  V30 12537 H 1152.74 -2.9874 -3.91172 0
M  V30 12538 N 1154.4 1.08748 -1.14068 0
M  V30 12539 C 1155.64 1.82672 -0.917072 0
M  V30 12540 C 1156 1.84052 0.546688 0
M  V30 12541 O 1157.2 2.53704 0.888118 0
M  V30 12542 C 1155.47 3.24525 -1.49727 0
M  V30 12543 S 1157.03 4.15369 -1.41472 0
M  V30 12544 H 1153.85 0.629576 -0.330387 0
M  V30 12545 H 1156.45 1.3074 -1.45352 0
M  V30 12546 H 1155.16 3.21101 -2.55583 0
M  V30 12547 H 1154.69 3.8153 -0.959069 0
M  V30 12548 H 1156.7 4.94602 -0.39788 0
M  V30 12549 N 1155.87 0.935264 1.26849 0
M  V30 12550 C 1157.1 0.595704 1.98661 0
M  V30 12551 C 1157.52 -0.821001 1.69237 0
M  V30 12552 O 1156.88 -1.55211 0.936982 0
M  V30 12553 C 1156.93 0.837275 3.50745 0
M  V30 12554 O 1156.03 -0.0934914 4.12294 0
M  V30 12555 H 1155.38 0.228512 0.623441 0
M  V30 12556 H 1157.91 1.25658 1.61466 0
M  V30 12557 H 1157.92 0.755827 4.00938 0
M  V30 12558 H 1156.59 1.86993 3.71492 0
M  V30 12559 H 1155.17 0.0385124 3.7288 0
M  V30 12560 N 1157.35 -1.41121 0.701616 0
M  V30 12561 C 1158.6 -2.01428 0.235495 0
M  V30 12562 C 1158.93 -1.55463 -1.16382 0
M  V30 12563 O 1158.21 -0.768477 -1.78675 0
M  V30 12564 C 1158.49 -3.58849 0.299919 0
M  V30 12565 C 1158.34 -4.14924 1.73661 0
M  V30 12566 C 1159.66 -4.38809 -0.336856 0
M  V30 12567 H 1156.78 -0.731842 0.0870456 0
M  V30 12568 H 1159.42 -1.67787 0.891479 0
M  V30 12569 H 1157.57 -3.87638 -0.258611 0
M  V30 12570 H 1159.24 -3.96987 2.34945 0
M  V30 12571 H 1157.49 -3.69738 2.26884 0
M  V30 12572 H 1158.16 -5.24085 1.73318 0
M  V30 12573 H 1160.63 -4.15868 0.138886 0
M  V30 12574 H 1159.51 -5.48278 -0.261264 0
M  V30 12575 H 1159.77 -4.18728 -1.41843 0
M  V30 12576 N 1158.83 -0.446794 -1.51134 0
M  V30 12577 C 1160.06 0.114893 -2.06581 0
M  V30 12578 C 1160.47 1.35642 -1.31327 0
M  V30 12579 O 1159.83 1.78595 -0.375506 0
M  V30 12580 C 1159.88 0.427589 -3.58962 0
M  V30 12581 O 1159.6 -0.764669 -4.31375 0
M  V30 12582 C 1161.1 1.03891 -4.30954 0
M  V30 12583 H 1158.32 0.00373031 -0.67099 0
M  V30 12584 H 1160.87 -0.628596 -1.94599 0
M  V30 12585 H 1159.02 1.12099 -3.70827 0
M  V30 12586 H 1159.44 -0.494605 -5.22163 0
M  V30 12587 H 1160.91 1.20764 -5.38628 0
M  V30 12588 H 1161.39 2.02252 -3.8986 0
M  V30 12589 H 1161.99 0.384623 -4.23557 0
M  V30 12590 N 1160.31 1.56586 -0.178487 0
M  V30 12591 C 1161.54 2.01183 0.470002 0
M  V30 12592 C 1161.95 1.05781 1.56866 0
M  V30 12593 O 1161.29 0.0519678 1.83626 0
M  V30 12594 C 1161.35 3.42199 1.10183 0
M  V30 12595 C 1161.02 4.56773 0.143945 0
M  V30 12596 C 1162.01 5.1594 -0.64043 0
M  V30 12597 C 1159.7 5.02286 0.0376874 0
M  V30 12598 C 1161.69 6.19055 -1.51819 0
M  V30 12599 C 1159.38 6.05248 -0.843652 0
M  V30 12600 C 1160.38 6.63505 -1.62017 0
M  V30 12601 O 1160.06 7.6447 -2.48677 0
M  V30 12602 H 1159.8 0.664527 0.124018 0
M  V30 12603 H 1162.35 2.0349 -0.279495 0
M  V30 12604 H 1160.58 3.36827 1.89959 0
M  V30 12605 H 1162.27 3.70705 1.65326 0
M  V30 12606 H 1163.04 4.81656 -0.56855 0
M  V30 12607 H 1158.91 4.56649 0.631893 0
M  V30 12608 H 1162.46 6.64455 -2.12475 0
M  V30 12609 H 1158.36 6.38958 -0.916708 0
M  V30 12610 H 1159.12 7.81823 -2.42272 0
M  V30 12611 N 1161.79 -0.095206 1.57312 0
M  V30 12612 C 1162.72 -1.11627 2.05089 0
M  V30 12613 C 1163.7 -1.41782 0.939787 0
M  V30 12614 O 1164.88 -1.51813 1.21105 0
M  V30 12615 C 1162.01 -2.43618 2.47523 0
M  V30 12616 C 1160.97 -2.27872 3.62296 0
M  V30 12617 C 1160.29 -3.65038 3.90706 0
M  V30 12618 C 1161.59 -1.71936 4.93189 0
M  V30 12619 H 1163.29 -0.718795 2.90644 0
M  V30 12620 H 1160.83 -0.344315 1.39823 0
M  V30 12621 H 1162.79 -3.1532 2.79556 0
M  V30 12622 H 1161.51 -2.85301 1.58968 0
M  V30 12623 H 1160.17 -1.58615 3.3051 0
M  V30 12624 H 1159.82 -4.04249 2.99319 0
M  V30 12625 H 1159.52 -3.55349 4.67976 0
M  V30 12626 H 1161.04 -4.38208 4.25213 0
M  V30 12627 H 1162.45 -2.33479 5.23603 0
M  V30 12628 H 1160.85 -1.73006 5.74621 0
M  V30 12629 H 1161.92 -0.678789 4.80125 0
M  V30 12630 N 1163.26 -1.53291 -0.366026 0
M  V30 12631 C 1164.51 -1.69451 -1.10872 0
M  V30 12632 C 1164.84 -0.446078 -1.89316 0
M  V30 12633 O 1164.09 0.571962 -1.87155 0
M  V30 12634 C 1164.39 -2.89547 -2.09517 0
M  V30 12635 C 1164.06 -4.26073 -1.47556 0
M  V30 12636 C 1162.72 -4.63199 -1.30386 0
M  V30 12637 C 1165.07 -5.10977 -1.02724 0
M  V30 12638 C 1162.4 -5.82866 -0.669666 0
M  V30 12639 C 1164.75 -6.31289 -0.407052 0
M  V30 12640 C 1163.42 -6.67128 -0.222839 0
M  V30 12641 H 1162.69 -0.620066 -0.405708 0
M  V30 12642 H 1165.33 -1.87475 -0.390563 0
M  V30 12643 H 1163.64 -2.66034 -2.87634 0
M  V30 12644 H 1165.34 -2.99245 -2.66933 0
M  V30 12645 H 1161.93 -3.9684 -1.61914 0
M  V30 12646 H 1166.11 -4.82844 -1.14783 0
M  V30 12647 H 1161.37 -6.09224 -0.515351 0
M  V30 12648 H 1165.54 -6.96381 -0.0514661 0
M  V30 12649 H 1163.17 -7.59718 0.270647 0
M  V30 12650 N 1164.74 0.6258 -1.44643 0
M  V30 12651 C 1165.69 1.73751 -1.51919 0
M  V30 12652 C 1166.66 1.62007 -0.36647 0
M  V30 12653 O 1167.84 1.81852 -0.577439 0
M  V30 12654 C 1164.98 3.12015 -1.47448 0
M  V30 12655 C 1164.1 3.34696 -2.73135 0
M  V30 12656 C 1163.23 4.62962 -2.6046 0
M  V30 12657 C 1162.27 4.7884 -3.81286 0
M  V30 12658 N 1161.41 5.98388 -3.67255 0
M  V30 12659 H 1166.25 1.66867 -2.46899 0
M  V30 12660 H 1163.79 0.813921 -1.22531 0
M  V30 12661 H 1165.74 3.91983 -1.42846 0
M  V30 12662 H 1164.37 3.179 -0.560312 0
M  V30 12663 H 1163.43 2.4863 -2.87901 0
M  V30 12664 H 1164.74 3.42306 -3.62806 0
M  V30 12665 H 1163.89 5.51099 -2.53722 0
M  V30 12666 H 1162.63 4.57719 -1.68359 0
M  V30 12667 H 1161.64 3.89131 -3.88403 0
M  V30 12668 H 1162.86 4.85893 -4.74431 0
M  V30 12669 H 1160.81 5.94224 -2.77909 0
M  V30 12670 H 1160.72 6.07078 -4.50547 0
M  V30 12671 H 1161.99 6.89072 -3.64417 0
M  V30 12672 N 1166.22 1.31629 0.866686 0
M  V30 12673 C 1167.17 1.19492 1.99561 0
M  V30 12674 C 1168.16 0.102456 1.6909 0
M  V30 12675 O 1169.37 0.264571 1.78045 0
M  V30 12676 H 1165.74 0.370071 0.654638 0
M  V30 12677 H 1167.71 2.14996 2.06928 0
M  V30 12678 C 1166.46 0.92246 3.3524 0
M  V30 12679 H 1165.79 1.75524 3.59209 0
M  V30 12680 H 1167.23 0.877726 4.14816 0
M  V30 12681 C 1165.69 -0.374803 3.34809 0
M  V30 12682 O 1166.22 -1.39055 3.76864 0
M  V30 12683 N 1164.42 -0.392506 2.87937 0
M  V30 12684 H 1163.97 0.434591 2.53908 0
M  V30 12685 H 1163.93 -1.26038 2.88031 0
M  V30 12686 N 1167.7 -1.08142 1.14644 0
M  V30 12687 C 1168.63 -2.14476 0.779437 0
M  V30 12688 C 1169.61 -1.60812 -0.240454 0
M  V30 12689 O 1170.79 -1.88059 -0.128881 0
M  V30 12690 C 1167.92 -3.38333 0.157692 0
M  V30 12691 C 1166.97 -4.10754 1.14819 0
M  V30 12692 S 1167.8 -4.63227 2.68666 0
M  V30 12693 C 1168.96 -5.90367 2.07888 0
M  V30 12694 H 1169.19 -2.45276 1.68009 0
M  V30 12695 H 1166.72 -1.20292 0.967942 0
M  V30 12696 H 1168.68 -4.10038 -0.194607 0
M  V30 12697 H 1167.34 -3.05726 -0.720435 0
M  V30 12698 H 1166.53 -4.99644 0.661226 0
M  V30 12699 H 1166.14 -3.44974 1.44462 0
M  V30 12700 H 1168.43 -6.62107 1.43599 0
M  V30 12701 H 1169.37 -6.43764 2.94913 0
M  V30 12702 H 1169.78 -5.43507 1.52514 0
M  V30 12703 N 1169.18 -0.941978 -1.26351 0
M  V30 12704 C 1170.11 -0.469913 -2.28723 0
M  V30 12705 C 1171.09 0.477218 -1.63269 0
M  V30 12706 O 1172.27 0.378902 -1.90468 0
M  V30 12707 C 1169.4 0.264971 -3.46288 0
M  V30 12708 C 1168.36 -0.595682 -4.23834 0
M  V30 12709 C 1167.68 0.269208 -5.34022 0
M  V30 12710 C 1168.98 -1.86743 -4.87775 0
M  V30 12711 H 1170.68 -1.32551 -2.6846 0
M  V30 12712 H 1168.22 -0.638809 -1.29055 0
M  V30 12713 H 1170.18 0.606259 -4.17016 0
M  V30 12714 H 1168.9 1.15471 -3.05506 0
M  V30 12715 H 1167.56 -0.919875 -3.54872 0
M  V30 12716 H 1167.21 1.15832 -4.89481 0
M  V30 12717 H 1166.91 -0.30325 -5.86817 0
M  V30 12718 H 1168.43 0.605748 -6.07588 0
M  V30 12719 H 1169.85 -1.59333 -5.50714 0
M  V30 12720 H 1168.24 -2.38452 -5.50691 0
M  V30 12721 H 1169.31 -2.57831 -4.10671 0
M  V30 12722 N 1170.66 1.40747 -0.709091 0
M  V30 12723 C 1172.07 1.83955 -0.318968 0
M  V30 12724 C 1172.42 1.59304 1.14527 0
M  V30 12725 O 1171.54 1.07052 1.88066 0
M  V30 12726 C 1172.14 3.33934 -0.572147 0
M  V30 12727 C 1170.7 3.75661 -0.235802 0
M  V30 12728 C 1169.84 2.64024 -0.847743 0
M  V30 12729 H 1172.79 1.30107 -0.908734 0
M  V30 12730 H 1172.82 3.80143 0.164752 0
M  V30 12731 H 1172.33 3.51844 -1.63791 0
M  V30 12732 H 1170.43 3.63348 0.825164 0
M  V30 12733 H 1170.54 4.73955 -0.700263 0
M  V30 12734 H 1168.91 2.53197 -0.276283 0
M  V30 12735 H 1169.69 2.84748 -1.91765 0
M  V30 12736 N 1172.13 0.454803 1.50895 0
M  V30 12737 C 1173.08 -0.347769 2.28165 0
M  V30 12738 C 1174.05 -1.00158 1.32505 0
M  V30 12739 O 1175.24 -1.01715 1.61427 0
M  V30 12740 C 1172.38 -1.43315 3.13934 0
M  V30 12741 C 1171.49 -0.795736 4.24608 0
M  V30 12742 C 1170.62 -1.85763 4.9766 0
M  V30 12743 C 1169.66 -1.19959 6.0023 0
M  V30 12744 N 1168.8 -2.20361 6.66622 0
M  V30 12745 H 1173.64 0.317493 2.96304 0
M  V30 12746 H 1171.18 0.168418 1.46133 0
M  V30 12747 H 1173.13 -2.07391 3.62001 0
M  V30 12748 H 1171.76 -2.0678 2.47875 0
M  V30 12749 H 1170.82 -0.0428173 3.80376 0
M  V30 12750 H 1172.13 -0.275477 4.98039 0
M  V30 12751 H 1171.28 -2.5746 5.49363 0
M  V30 12752 H 1170.02 -2.41166 4.23899 0
M  V30 12753 H 1169.03 -0.46817 5.47803 0
M  V30 12754 H 1170.25 -0.652666 6.75956 0
M  V30 12755 H 1168.2 -2.74812 5.95663 0
M  V30 12756 H 1168.11 -1.73275 7.35875 0
M  V30 12757 H 1169.38 -2.91488 7.22949 0
M  V30 12758 N 1173.61 -1.56489 0.186789 0
M  V30 12759 C 1174.86 -1.97634 -0.454831 0
M  V30 12760 C 1175.19 -1.07334 -1.61843 0
M  V30 12761 O 1174.47 -0.123612 -1.94107 0
M  V30 12762 C 1174.75 -3.48071 -0.922962 0
M  V30 12763 C 1174.6 -4.49149 0.241877 0
M  V30 12764 C 1175.92 -4.01994 -1.79134 0
M  V30 12765 H 1173.04 -0.718555 -0.163854 0
M  V30 12766 H 1175.68 -1.87984 0.27604 0
M  V30 12767 H 1173.83 -3.56425 -1.54575 0
M  V30 12768 H 1175.5 -4.52841 0.87936 0
M  V30 12769 H 1173.75 -4.24468 0.894964 0
M  V30 12770 H 1174.42 -5.51851 -0.128051 0
M  V30 12771 H 1176.89 -3.96367 -1.26618 0
M  V30 12772 H 1175.77 -5.07641 -2.08787 0
M  V30 12773 H 1176.03 -3.46747 -2.74261 0
M  V30 12774 N 1175.09 0.086862 -1.5736 0
M  V30 12775 C 1176.34 0.787581 -1.85688 0
M  V30 12776 C 1176.65 1.79494 -0.777263 0
M  V30 12777 O 1177.86 2.54415 -0.947914 0
M  V30 12778 C 1176.31 1.45155 -3.2933 0
M  V30 12779 C 1175.92 0.483539 -4.45383 0
M  V30 12780 C 1177.67 2.13552 -3.66873 0
M  V30 12781 C 1175.57 1.15257 -5.8006 0
M  V30 12782 H 1174.5 0.297882 -0.692663 0
M  V30 12783 H 1177.15 0.0406299 -1.83455 0
M  V30 12784 H 1175.54 2.24625 -3.26128 0
M  V30 12785 H 1176.71 -0.280254 -4.59947 0
M  V30 12786 H 1175.02 -0.0951664 -4.16291 0
M  V30 12787 H 1177.62 2.64355 -4.6478 0
M  V30 12788 H 1177.96 2.92818 -2.95911 0
M  V30 12789 H 1178.5 1.40932 -3.71999 0
M  V30 12790 H 1175.24 0.400546 -6.54275 0
M  V30 12791 H 1174.76 1.88759 -5.69324 0
M  V30 12792 H 1176.44 1.67671 -6.24896 0
M  V30 12793 N 1176.57 1.53483 0.357892 0
M  V30 12794 C 1177.84 1.60649 1.11585 0
M  V30 12795 C 1178.22 0.418789 2.06904 0
M  V30 12796 O 1177.57 -0.590279 2.20744 0
M  V30 12797 C 1177.78 2.96046 1.84818 0
M  V30 12798 C 1179.13 3.50895 2.39076 0
M  V30 12799 O 1180.15 2.98126 1.94934 0
M  V30 12800 O 1179.01 4.43163 3.19794 0
M  V30 12801 H 1176.11 0.649202 0.512315 0
M  V30 12802 H 1178.65 1.65826 0.360537 0
M  V30 12803 H 1177.43 3.73929 1.15296 0
M  V30 12804 H 1177.05 2.94395 2.6724 0
M  V30 12805 N 1178.05 -0.61812 1.44973 0
M  V30 12806 C 1178.96 -1.7579 1.55355 0
M  V30 12807 C 1179.97 -1.68384 0.438512 0
M  V30 12808 O 1181.15 -1.88928 0.697715 0
M  V30 12809 C 1178.21 -3.1222 1.50729 0
M  V30 12810 C 1177.27 -3.3116 2.73188 0
M  V30 12811 C 1176.51 -4.61082 2.68774 0
M  V30 12812 O 1176.73 -5.42728 1.75507 0
M  V30 12813 O 1175.66 -4.82506 3.59821 0
M  V30 12814 H 1179.49 -1.69983 2.51674 0
M  V30 12815 H 1177.07 -0.780934 1.27365 0
M  V30 12816 H 1178.96 -3.93524 1.5072 0
M  V30 12817 H 1177.63 -3.18541 0.575587 0
M  V30 12818 H 1176.54 -2.49485 2.78762 0
M  V30 12819 H 1177.87 -3.29709 3.65449 0
M  V30 12820 N 1179.52 -1.32087 -0.859693 0
M  V30 12821 C 1180.45 -1.23204 -1.98351 0
M  V30 12822 C 1181.43 -0.116974 -1.69697 0
M  V30 12823 O 1182.62 -0.303301 -1.91817 0
M  V30 12824 C 1179.75 -0.949171 -3.34078 0
M  V30 12825 C 1178.7 -2.02493 -3.77069 0
M  V30 12826 C 1178.03 -1.59455 -5.1037 0
M  V30 12827 C 1179.33 -3.43934 -3.93074 0
M  V30 12828 H 1181.02 -2.17227 -2.0604 0
M  V30 12829 H 1178.57 -1.04577 -0.989931 0
M  V30 12830 H 1180.52 -0.873594 -4.12245 0
M  V30 12831 H 1179.25 0.0267095 -3.26589 0
M  V30 12832 H 1177.91 -2.09057 -3.01149 0
M  V30 12833 H 1177.55 -0.606256 -4.99333 0
M  V30 12834 H 1177.25 -2.31429 -5.40106 0
M  V30 12835 H 1178.78 -1.53325 -5.91036 0
M  V30 12836 H 1180.19 -3.39986 -4.61608 0
M  V30 12837 H 1178.59 -4.14214 -4.3422 0
M  V30 12838 H 1179.66 -3.83965 -2.9614 0
M  V30 12839 N 1181 1.07532 -1.15215 0
M  V30 12840 C 1181.95 2.16785 -0.843022 0
M  V30 12841 C 1182.94 1.68411 0.182802 0
M  V30 12842 O 1184.15 1.7996 0.0380164 0
M  V30 12843 H 1180.52 0.707465 -0.254945 0
M  V30 12844 H 1182.5 2.40078 -1.77215 0
M  V30 12845 C 1181.24 3.45967 -0.346699 0
M  V30 12846 H 1180.57 3.83574 -1.12744 0
M  V30 12847 H 1182.01 4.23663 -0.169039 0
M  V30 12848 C 1180.47 3.23768 0.931437 0
M  V30 12849 O 1181 3.48179 2.00336 0
M  V30 12850 N 1179.2 2.77264 0.870217 0
M  V30 12851 H 1178.75 2.576 -0.00226223 0
M  V30 12852 H 1178.71 2.6279 1.72594 0
M  V30 12853 N 1182.48 0.948665 1.2585 0
M  V30 12854 C 1183.43 0.462904 2.2611 0
M  V30 12855 C 1184.4 -0.481433 1.5897 0
M  V30 12856 O 1185.58 -0.395997 1.86645 0
M  V30 12857 C 1182.72 -0.258808 3.44128 0
M  V30 12858 C 1181.84 0.722072 4.25923 0
M  V30 12859 C 1180.97 -0.0215958 5.31196 0
M  V30 12860 C 1180.01 0.950612 6.04673 0
M  V30 12861 N 1179.15 0.238209 7.01696 0
M  V30 12862 H 1183.99 1.32279 2.67032 0
M  V30 12863 H 1181.52 0.663485 1.31287 0
M  V30 12864 H 1183.48 -0.693759 4.11391 0
M  V30 12865 H 1182.11 -1.08278 3.04098 0
M  V30 12866 H 1181.16 1.27552 3.58378 0
M  V30 12867 H 1182.48 1.46421 4.76825 0
M  V30 12868 H 1181.63 -0.51547 6.04506 0
M  V30 12869 H 1180.37 -0.796563 4.81151 0
M  V30 12870 H 1179.37 1.45554 5.30183 0
M  V30 12871 H 1180.6 1.72571 6.56808 0
M  V30 12872 H 1178.54 -0.518129 6.53951 0
M  V30 12873 H 1178.46 0.919542 7.50387 0
M  V30 12874 H 1179.73 -0.234325 7.79148 0
M  V30 12875 N 1183.96 -1.40369 0.716545 0
M  V30 12876 C 1185.21 -2.00869 0.256466 0
M  V30 12877 C 1185.53 -1.56816 -1.15061 0
M  V30 12878 O 1184.79 -0.779696 -1.79497 0
M  V30 12879 C 1185.09 -3.56257 0.285583 0
M  V30 12880 C 1184.75 -4.19897 1.64309 0
M  V30 12881 C 1183.42 -4.36994 2.01469 0
M  V30 12882 C 1185.77 -4.55385 2.53524 0
M  V30 12883 C 1183.1 -4.86862 3.27387 0
M  V30 12884 C 1185.45 -5.06653 3.78795 0
M  V30 12885 C 1184.11 -5.21959 4.16071 0
M  V30 12886 H 1183.38 -0.735033 0.0938475 0
M  V30 12887 H 1186.03 -1.67966 0.919765 0
M  V30 12888 H 1184.33 -3.89075 -0.461287 0
M  V30 12889 H 1186.03 -4.00903 -0.0882496 0
M  V30 12890 H 1182.62 -4.06978 1.34413 0
M  V30 12891 H 1186.8 -4.41811 2.2609 0
M  V30 12892 H 1182.06 -4.96897 3.56235 0
M  V30 12893 H 1186.23 -5.33089 4.48095 0
M  V30 12894 H 1183.86 -5.60362 5.1371 0
M  V30 12895 N 1185.44 -0.462799 -1.50652 0
M  V30 12896 C 1186.71 0.156221 -1.94975 0
M  V30 12897 C 1187.09 1.5775 -1.40279 0
M  V30 12898 O 1186.44 2.20473 -0.600323 0
M  V30 12899 C 1186.65 0.108008 -3.48833 0
M  V30 12900 C 1188 0.301013 -4.23532 0
M  V30 12901 O 1189.02 0.184973 -3.55719 0
M  V30 12902 O 1187.88 0.534457 -5.4388 0
M  V30 12903 H 1184.98 0.116182 -0.818798 0
M  V30 12904 H 1187.52 -0.522607 -1.61453 0
M  V30 12905 H 1186.29 -0.884634 -3.81169 0
M  V30 12906 H 1185.92 0.828653 -3.88869 0
M  V30 12907 N 1186.91 1.56388 -0.195085 0
M  V30 12908 C 1187.84 2.22091 0.720971 0
M  V30 12909 C 1188.83 1.184 1.22128 0
M  V30 12910 O 1190.01 1.46907 1.27012 0
M  V30 12911 C 1187.14 2.88025 1.94059 0
M  V30 12912 C 1186.09 3.97959 1.5752 0
M  V30 12913 C 1185.42 4.51058 2.87143 0
M  V30 12914 C 1186.72 5.16365 0.785145 0
M  V30 12915 H 1188.41 2.98898 0.173245 0
M  V30 12916 H 1185.96 1.43767 0.0818868 0
M  V30 12917 H 1187.91 3.32671 2.58666 0
M  V30 12918 H 1186.64 2.08623 2.51285 0
M  V30 12919 H 1185.3 3.54004 0.952715 0
M  V30 12920 H 1184.94 3.68418 3.42458 0
M  V30 12921 H 1184.64 5.25237 2.63439 0
M  V30 12922 H 1186.17 4.98406 3.52738 0
M  V30 12923 H 1187.58 5.57556 1.33431 0
M  V30 12924 H 1185.98 5.9661 0.646231 0
M  V30 12925 H 1187.05 4.84428 -0.213789 0
M  V30 12926 N 1188.39 -0.0785156 1.57404 0
M  V30 12927 C 1189.81 -0.433143 1.5361 0
M  V30 12928 C 1190.01 -1.79564 0.914283 0
M  V30 12929 O 1189.06 -2.47215 0.513899 0
M  V30 12930 C 1190.38 -0.380387 2.98284 0
M  V30 12931 C 1191.93 -0.461056 3.09586 0
M  V30 12932 C 1192.4 -0.438276 4.55898 0
M  V30 12933 N 1193.89 -0.498548 4.60509 0
M  V30 12934 C 1194.63 -0.503028 5.71189 0
M  V30 12935 N 1194.12 -0.462724 6.91253 0
M  V30 12936 N 1195.92 -0.549083 5.59412 0
M  V30 12937 H 1188.07 0.813724 1.96195 0
M  V30 12938 H 1190.33 0.304644 0.897717 0
M  V30 12939 H 1190.04 0.553932 3.4731 0
M  V30 12940 H 1189.91 -1.19313 3.57833 0
M  V30 12941 H 1192.3 -1.3858 2.60537 0
M  V30 12942 H 1192.38 0.380138 2.5296 0
M  V30 12943 H 1192.02 0.482588 5.05602 0
M  V30 12944 H 1191.95 -1.29691 5.1038 0
M  V30 12945 H 1194.44 -0.534219 3.74105 0
M  V30 12946 H 1194.76 -0.469883 7.7137 0
M  V30 12947 H 1193.1 -0.429515 6.93672 0
M  V30 12948 H 1196.29 -0.578215 4.64515 0
M  V30 12949 H 1196.46 -0.549105 6.45669 0
M  V30 12950 N 1189.87 -1.5367 -0.349747 0
M  V30 12951 C 1191.1 -1.74547 -1.11089 0
M  V30 12952 C 1191.51 -0.481741 -1.82551 0
M  V30 12953 O 1190.87 0.546272 -1.74132 0
M  V30 12954 C 1190.92 -2.92148 -2.12913 0
M  V30 12955 O 1190.64 -4.13633 -1.44358 0
M  V30 12956 C 1192.14 -3.25027 -3.01451 0
M  V30 12957 H 1189.36 -0.583376 -0.331532 0
M  V30 12958 H 1191.91 -2.00473 -0.403841 0
M  V30 12959 H 1190.06 -2.68572 -2.79192 0
M  V30 12960 H 1190.48 -4.79601 -2.12329 0
M  V30 12961 H 1191.95 -4.10679 -3.68845 0
M  V30 12962 H 1192.43 -2.41064 -3.67131 0
M  V30 12963 H 1193.03 -3.50586 -2.40768 0
M  V30 12964 N 1191.35 0.610423 -1.45298 0
M  V30 12965 C 1192.3 1.7213 -1.53753 0
M  V30 12966 C 1193.27 1.61609 -0.383632 0
M  V30 12967 O 1194.45 1.8123 -0.596694 0
M  V30 12968 C 1191.59 3.10433 -1.50749 0
M  V30 12969 C 1190.7 3.3178 -2.76669 0
M  V30 12970 C 1189.84 4.60173 -2.65356 0
M  V30 12971 C 1188.88 4.74769 -3.86343 0
M  V30 12972 N 1188.01 5.94459 -3.73581 0
M  V30 12973 H 1192.85 1.64239 -2.48655 0
M  V30 12974 H 1190.39 0.800879 -1.23387 0
M  V30 12975 H 1192.35 3.90446 -1.46996 0
M  V30 12976 H 1190.98 3.17288 -0.593998 0
M  V30 12977 H 1190.03 2.45563 -2.90522 0
M  V30 12978 H 1191.34 3.38439 -3.66416 0
M  V30 12979 H 1190.5 5.48377 -2.59553 0
M  V30 12980 H 1189.24 4.55907 -1.73204 0
M  V30 12981 H 1188.24 3.8499 -3.92509 0
M  V30 12982 H 1189.47 4.80834 -4.79557 0
M  V30 12983 H 1187.41 5.91243 -2.84196 0
M  V30 12984 H 1187.33 6.02265 -4.5696 0
M  V30 12985 H 1188.6 6.85168 -3.71705 0
M  V30 12986 N 1192.83 1.32541 0.852676 0
M  V30 12987 C 1194.05 1.2622 1.6394 0
M  V30 12988 C 1194.47 -0.169455 1.88038 0
M  V30 12989 O 1193.83 -1.10719 1.45078 0
M  V30 12990 C 1193.88 2.02062 2.99755 0
M  V30 12991 O 1193.6 3.39641 2.76723 0
M  V30 12992 C 1195.1 2.02787 3.94198 0
M  V30 12993 H 1192.32 0.435405 0.510552 0
M  V30 12994 H 1194.86 1.74696 1.06309 0
M  V30 12995 H 1193.02 1.57303 3.54026 0
M  V30 12996 H 1193.43 3.78484 3.63111 0
M  V30 12997 H 1194.91 2.60333 4.86755 0
M  V30 12998 H 1195.38 1.01464 4.27319 0
M  V30 12999 H 1195.99 2.47504 3.45864 0
M  V30 13000 N 1194.3 -1.0692 1.15784 0
M  V30 13001 C 1195.21 -2.17762 0.872753 0
M  V30 13002 C 1196.23 -1.73329 -0.152608 0
M  V30 13003 O 1197.41 -2.01387 0.022519 0
M  V30 13004 C 1194.47 -3.4471 0.370887 0
M  V30 13005 C 1193.53 -4.03686 1.46069 0
M  V30 13006 C 1192.77 -5.24575 0.982675 0
M  V30 13007 O 1192.99 -5.70146 -0.17006 0
M  V30 13008 O 1191.92 -5.7534 1.76828 0
M  V30 13009 H 1195.75 -2.44648 1.79948 0
M  V30 13010 H 1193.33 -1.1634 0.937303 0
M  V30 13011 H 1195.22 -4.21287 0.0976779 0
M  V30 13012 H 1193.89 -3.19366 -0.527912 0
M  V30 13013 H 1192.8 -3.28629 1.78756 0
M  V30 13014 H 1194.13 -4.33312 2.33456 0
M  V30 13015 N 1195.78 -0.955326 -1.25345 0
M  V30 13016 C 1196.71 -0.494145 -2.28211 0
M  V30 13017 C 1197.69 0.459875 -1.63766 0
M  V30 13018 O 1198.88 0.358679 -1.90859 0
M  V30 13019 C 1196.01 0.228228 -3.46549 0
M  V30 13020 C 1194.96 -0.640601 -4.23179 0
M  V30 13021 C 1194.29 0.212553 -5.34277 0
M  V30 13022 C 1195.59 -1.91906 -4.85767 0
M  V30 13023 H 1197.28 -1.35391 -2.67039 0
M  V30 13024 H 1194.83 -0.652462 -1.2837 0
M  V30 13025 H 1196.78 0.561995 -4.17636 0
M  V30 13026 H 1195.51 1.12224 -3.06714 0
M  V30 13027 H 1194.16 -0.957462 -3.53876 0
M  V30 13028 H 1193.81 1.10634 -4.90682 0
M  V30 13029 H 1193.51 -0.365473 -5.86462 0
M  V30 13030 H 1195.04 0.541271 -6.08196 0
M  V30 13031 H 1196.45 -1.65165 -5.48993 0
M  V30 13032 H 1194.85 -2.44279 -5.48131 0
M  V30 13033 H 1195.92 -2.62173 -4.07914 0
M  V30 13034 N 1197.26 1.39987 -0.723979 0
M  V30 13035 C 1198.51 1.99964 -0.26406 0
M  V30 13036 C 1198.82 1.58084 1.1519 0
M  V30 13037 O 1200.03 2.10819 1.71077 0
M  V30 13038 C 1198.49 3.57427 -0.421174 0
M  V30 13039 C 1198.09 4.08276 -1.84432 0
M  V30 13040 C 1199.84 4.24494 -0.0224734 0
M  V30 13041 C 1197.74 5.58272 -1.95157 0
M  V30 13042 H 1196.67 0.747995 -0.0949728 0
M  V30 13043 H 1199.33 1.60122 -0.896276 0
M  V30 13044 H 1197.71 3.95011 0.279762 0
M  V30 13045 H 1198.88 3.82051 -2.57631 0
M  V30 13046 H 1197.2 3.53834 -2.19523 0
M  V30 13047 H 1199.79 5.34637 -0.0817744 0
M  V30 13048 H 1200.14 4.03593 1.02069 0
M  V30 13049 H 1200.67 3.92046 -0.67416 0
M  V30 13050 H 1197.41 5.84038 -2.97623 0
M  V30 13051 H 1196.93 5.86335 -1.2638 0
M  V30 13052 H 1198.61 6.23509 -1.72759 0
M  V30 13053 N 1198.74 0.470782 1.50404 0
M  V30 13054 C 1199.69 -0.337584 2.30137 0
M  V30 13055 C 1200.68 -0.990673 1.37412 0
M  V30 13056 O 1201.89 -0.921813 1.54605 0
M  V30 13057 H 1198.26 -0.127707 0.741077 0
M  V30 13058 H 1200.23 0.355297 2.96277 0
M  V30 13059 C 1198.98 -1.40714 3.17954 0
M  V30 13060 H 1198.31 -0.913982 3.89213 0
M  V30 13061 H 1199.75 -1.94533 3.7674 0
M  V30 13062 C 1198.2 -2.40889 2.35529 0
M  V30 13063 O 1198.73 -3.46153 2.03816 0
M  V30 13064 N 1196.94 -2.126 1.98115 0
M  V30 13065 H 1196.49 -1.27023 2.24105 0
M  V30 13066 H 1196.45 -2.7986 1.43269 0
M  V30 13067 N 1200.22 -1.56282 0.203376 0
M  V30 13068 C 1201.15 -2.2247 -0.709183 0
M  V30 13069 C 1202.13 -1.19046 -1.21499 0
M  V30 13070 O 1203.31 -1.47578 -1.26231 0
M  V30 13071 C 1200.44 -2.8905 -1.92529 0
M  V30 13072 C 1199.4 -3.98789 -1.55407 0
M  V30 13073 C 1198.72 -4.52574 -2.84747 0
M  V30 13074 C 1200.02 -5.16774 -0.75775 0
M  V30 13075 H 1201.72 -2.98986 -0.157392 0
M  V30 13076 H 1199.26 -1.43808 -0.0742613 0
M  V30 13077 H 1201.22 -3.34038 -2.56898 0
M  V30 13078 H 1199.94 -2.09952 -2.50175 0
M  V30 13079 H 1198.6 -3.54504 -0.933928 0
M  V30 13080 H 1198.25 -3.70229 -3.40499 0
M  V30 13081 H 1197.95 -5.26627 -2.6065 0
M  V30 13082 H 1199.47 -5.00269 -3.5009 0
M  V30 13083 H 1200.89 -5.58256 -1.30472 0
M  V30 13084 H 1199.28 -5.96945 -0.614583 0
M  V30 13085 H 1200.35 -4.84308 0.239476 0
M  V30 13086 N 1201.7 0.070167 -1.57444 0
M  V30 13087 C 1202.94 0.767842 -1.86513 0
M  V30 13088 C 1203.26 1.78659 -0.796257 0
M  V30 13089 O 1204.46 2.53395 -0.974845 0
M  V30 13090 C 1202.92 1.41654 -3.30851 0
M  V30 13091 C 1202.53 0.436273 -4.45871 0
M  V30 13092 C 1204.27 2.09649 -3.69117 0
M  V30 13093 C 1202.18 1.09098 -5.8125 0
M  V30 13094 H 1201.11 0.290519 -0.695784 0
M  V30 13095 H 1203.76 0.0211697 -1.83488 0
M  V30 13096 H 1202.14 2.21153 -3.28493 0
M  V30 13097 H 1203.32 -0.329022 -4.59624 0
M  V30 13098 H 1201.63 -0.139314 -4.16167 0
M  V30 13099 H 1204.23 2.59411 -4.67558 0
M  V30 13100 H 1204.57 2.89663 -2.99 0
M  V30 13101 H 1205.1 1.36979 -3.73472 0
M  V30 13102 H 1201.84 0.331128 -6.54663 0
M  V30 13103 H 1201.36 1.8271 -5.71294 0
M  V30 13104 H 1203.04 1.61034 -6.2664 0
M  V30 13105 N 1203.17 1.53854 0.341593 0
M  V30 13106 C 1204.45 1.61823 1.09875 0
M  V30 13107 C 1204.83 0.440711 2.06448 0
M  V30 13108 O 1204.18 -0.566833 2.21358 0
M  V30 13109 C 1204.39 2.9799 1.81668 0
M  V30 13110 C 1205.74 3.53411 2.35341 0
M  V30 13111 O 1206.76 3.00177 1.91761 0
M  V30 13112 O 1205.62 4.4653 3.15076 0
M  V30 13113 H 1202.71 0.654599 0.5054 0
M  V30 13114 H 1205.26 1.66199 0.342929 0
M  V30 13115 H 1204.03 3.7513 1.11323 0
M  V30 13116 H 1203.65 2.97213 2.64103 0
M  V30 13117 N 1204.65 -0.602709 1.4562 0
M  V30 13118 C 1205.88 -1.39299 1.53657 0
M  V30 13119 C 1206.3 -1.87315 0.171632 0
M  V30 13120 O 1205.66 -1.60423 -0.844639 0
M  V30 13121 C 1205.71 -2.57021 2.52928 0
M  V30 13122 O 1204.81 -3.57812 2.05047 0
M  V30 13123 H 1204.15 -0.41567 0.517798 0
M  V30 13124 H 1206.68 -0.73304 1.91018 0
M  V30 13125 H 1206.69 -3.04202 2.71892 0
M  V30 13126 H 1205.37 -2.21422 3.52058 0
M  V30 13127 H 1203.94 -3.17247 1.95981 0
M  V30 13128 N 1206.13 -1.32992 -0.845635 0
M  V30 13129 C 1207.08 -1.19256 -1.94325 0
M  V30 13130 C 1208.06 -0.0971701 -1.60606 0
M  V30 13131 O 1209.26 -0.324591 -1.73998 0
M  V30 13132 C 1206.38 -0.927027 -3.30547 0
M  V30 13133 C 1205.47 -2.06454 -3.70456 0
M  V30 13134 N 1205.86 -3.31393 -3.82116 0
M  V30 13135 C 1204.16 -1.96972 -4.00147 0
M  V30 13136 C 1204.86 -4.05955 -4.16624 0
M  V30 13137 N 1203.84 -3.34332 -4.28629 0
M  V30 13138 H 1207.64 -2.13965 -2.01485 0
M  V30 13139 H 1205.15 -1.24901 -1.03795 0
M  V30 13140 H 1207.15 -0.809565 -4.08964 0
M  V30 13141 H 1205.81 0.011597 -3.24698 0
M  V30 13142 H 1206.82 -3.66222 -3.662 0
M  V30 13143 H 1203.5 -1.10728 -4.02549 0
M  V30 13144 H 1204.89 -5.13738 -4.33039 0
M  V30 13145 N 1207.61 1.06304 -1.1635 0
M  V30 13146 C 1208.56 2.15879 -0.865967 0
M  V30 13147 C 1209.55 1.68595 0.164929 0
M  V30 13148 O 1210.76 1.7999 0.0189271 0
M  V30 13149 H 1207.13 0.704721 -0.262435 0
M  V30 13150 H 1209.1 2.38185 -1.79751 0
M  V30 13151 C 1207.85 3.4558 -0.383374 0
M  V30 13152 H 1207.17 3.82356 -1.16806 0
M  V30 13153 H 1208.61 4.2346 -0.213964 0
M  V30 13154 C 1207.07 3.24738 0.897044 0
M  V30 13155 O 1207.6 3.50284 1.96632 0
M  V30 13156 N 1205.81 2.78172 0.840761 0
M  V30 13157 H 1205.36 2.57583 -0.029584 0
M  V30 13158 H 1205.31 2.64606 1.69797 0
M  V30 13159 N 1209.09 0.96196 1.24836 0
M  V30 13160 C 1210.33 0.616342 1.92052 0
M  V30 13161 C 1210.65 -0.851601 1.76088 0
M  V30 13162 O 1211.85 -1.3075 2.37943 0
M  V30 13163 C 1210.31 1.05168 3.44191 0
M  V30 13164 C 1209.92 2.54268 3.68852 0
M  V30 13165 C 1211.66 0.778938 4.17292 0
M  V30 13166 C 1209.57 2.91564 5.14533 0
M  V30 13167 H 1208.5 0.22681 0.719078 0
M  V30 13168 H 1211.15 1.1674 1.41577 0
M  V30 13169 H 1209.53 0.428979 3.9367 0
M  V30 13170 H 1210.71 3.21619 3.29997 0
M  V30 13171 H 1209.02 2.79091 3.09026 0
M  V30 13172 H 1211.62 1.03366 5.24614 0
M  V30 13173 H 1211.96 -0.284772 4.15325 0
M  V30 13174 H 1212.49 1.36233 3.73745 0
M  V30 13175 H 1209.23 3.96982 5.21618 0
M  V30 13176 H 1208.75 2.28892 5.54408 0
M  V30 13177 H 1210.43 2.81155 5.82718 0
M  V30 13178 N 1210.56 -1.39601 0.731392 0
M  V30 13179 C 1211.81 -1.99821 0.274661 0
M  V30 13180 C 1212.13 -1.58693 -1.1435 0
M  V30 13181 O 1213.33 -2.11724 -1.69957 0
M  V30 13182 C 1211.79 -3.57199 0.440124 0
M  V30 13183 C 1211.4 -4.07292 1.86594 0
M  V30 13184 C 1213.14 -4.24476 0.0449851 0
M  V30 13185 C 1211.05 -5.57229 1.98115 0
M  V30 13186 H 1209.98 -0.747481 0.0989383 0
M  V30 13187 H 1212.63 -1.59645 0.904755 0
M  V30 13188 H 1211.01 -3.95153 -0.25881 0
M  V30 13189 H 1212.18 -3.80679 2.59654 0
M  V30 13190 H 1210.5 -3.52665 2.21397 0
M  V30 13191 H 1213.1 -5.34587 0.110126 0
M  V30 13192 H 1213.44 -4.04129 -0.999269 0
M  V30 13193 H 1213.97 -3.91683 0.694942 0
M  V30 13194 H 1210.71 -5.82452 3.00716 0
M  V30 13195 H 1210.23 -5.85656 1.29487 0
M  V30 13196 H 1211.91 -6.22584 1.76063 0
M  V30 13197 N 1212.04 -0.478751 -1.50152 0
M  V30 13198 C 1212.97 0.301182 -2.31549 0
M  V30 13199 C 1213.95 0.983276 -1.38801 0
M  V30 13200 O 1215.14 0.978973 -1.67719 0
M  V30 13201 C 1212.27 1.3791 -3.18745 0
M  V30 13202 C 1211.22 0.818175 -4.20107 0
M  V30 13203 C 1210.55 1.99496 -4.9609 0
M  V30 13204 C 1211.85 -0.17574 -5.22004 0
M  V30 13205 H 1213.54 -0.378188 -2.97002 0
M  V30 13206 H 1211.09 -0.183323 -1.42828 0
M  V30 13207 H 1213.04 1.93227 -3.74488 0
M  V30 13208 H 1211.77 2.08735 -2.51192 0
M  V30 13209 H 1210.42 0.286924 -3.65475 0
M  V30 13210 H 1210.07 2.69036 -4.25004 0
M  V30 13211 H 1209.77 1.62582 -5.6466 0
M  V30 13212 H 1211.3 2.55288 -5.54671 0
M  V30 13213 H 1212.71 0.288513 -5.72574 0
M  V30 13214 H 1211.11 -0.459549 -5.98338 0
M  V30 13215 H 1212.18 -1.09911 -4.72279 0
M  V30 13216 N 1213.52 1.56172 -0.211661 0
M  V30 13217 C 1214.77 1.98332 0.423332 0
M  V30 13218 C 1215.1 1.09895 1.60115 0
M  V30 13219 O 1214.37 0.154477 1.93886 0
M  V30 13220 C 1214.66 3.49495 0.86747 0
M  V30 13221 C 1214.51 4.48708 -0.313302 0
M  V30 13222 C 1215.83 4.04793 1.72716 0
M  V30 13223 H 1212.95 0.72107 0.152402 0
M  V30 13224 H 1215.59 1.87521 -0.305912 0
M  V30 13225 H 1213.74 3.58839 1.48885 0
M  V30 13226 H 1215.41 4.51385 -0.951291 0
M  V30 13227 H 1213.66 4.2299 -0.96238 0
M  V30 13228 H 1214.33 5.51985 0.0402402 0
M  V30 13229 H 1216.8 3.98332 1.20296 0
M  V30 13230 H 1215.68 5.10898 2.00684 0
M  V30 13231 H 1215.94 3.51067 2.68709 0
M  V30 13232 N 1215 -0.0618163 1.57479 0
M  V30 13233 C 1216.25 -0.757569 1.87364 0
M  V30 13234 C 1216.57 -1.77607 0.805025 0
M  V30 13235 O 1215.84 -1.95202 -0.165216 0
M  V30 13236 H 1214.42 -0.28278 0.691408 0
M  V30 13237 H 1217.08 -0.0355354 1.94868 0
M  V30 13238 H 1216.18 -1.26758 2.85199 0
M  V30 13239 N 1216.48 -1.54033 -0.333429 0
M  V30 13240 C 1217.39 -1.85737 -1.43314 0
M  V30 13241 C 1218.4 -0.748398 -1.57083 0
M  V30 13242 O 1219.58 -1.04171 -1.72367 0
M  V30 13243 C 1216.64 -2.06942 -2.78165 0
M  V30 13244 C 1215.7 -3.30774 -2.73655 0
M  V30 13245 C 1214.94 -3.50957 -4.02075 0
M  V30 13246 O 1215.16 -2.74774 -4.99855 0
M  V30 13247 O 1214.09 -4.44412 -4.05933 0
M  V30 13248 H 1217.92 -2.7923 -1.19434 0
M  V30 13249 H 1215.51 -1.39814 -0.526546 0
M  V30 13250 H 1217.39 -2.22276 -3.58011 0
M  V30 13251 H 1216.06 -1.16638 -3.01956 0
M  V30 13252 H 1214.97 -3.20835 -1.92395 0
M  V30 13253 H 1216.3 -4.21103 -2.54819 0
M  V30 13254 N 1217.95 0.594978 -1.45938 0
M  V30 13255 C 1219.2 1.35561 -1.50834 0
M  V30 13256 C 1219.53 1.93584 -0.154566 0
M  V30 13257 O 1218.81 1.75781 0.832541 0
M  V30 13258 C 1219.09 2.49414 -2.5974 0
M  V30 13259 C 1218.94 1.96506 -4.04605 0
M  V30 13260 C 1220.26 3.51505 -2.64825 0
M  V30 13261 H 1217.38 0.491549 -0.549134 0
M  V30 13262 H 1220.02 0.669536 -1.77812 0
M  V30 13263 H 1218.17 3.07939 -2.36866 0
M  V30 13264 H 1219.85 1.42533 -4.38728 0
M  V30 13265 H 1218.09 1.27418 -4.14665 0
M  V30 13266 H 1218.76 2.78636 -4.76515 0
M  V30 13267 H 1221.24 3.02841 -2.85353 0
M  V30 13268 H 1220.11 4.28641 -3.42867 0
M  V30 13269 H 1220.37 4.07942 -1.70399 0
M  V30 13270 N 1219.43 1.33438 0.838571 0
M  V30 13271 C 1220.71 1.1551 1.5785 0
M  V30 13272 C 1221.09 -0.278405 2.09256 0
M  V30 13273 O 1220.44 -1.27748 1.89453 0
M  V30 13274 C 1220.65 2.19647 2.71212 0
M  V30 13275 C 1222 2.53818 3.40384 0
M  V30 13276 O 1223.02 2.18317 2.81454 0
M  V30 13277 O 1221.88 3.14741 4.46766 0
M  V30 13278 H 1218.97 0.446785 0.695925 0
M  V30 13279 H 1221.52 1.45021 0.8813 0
M  V30 13280 H 1220.29 3.15936 2.30869 0
M  V30 13281 H 1219.91 1.91224 3.48596 0
M  V30 13282 N 1220.91 -1.05686 1.16912 0
M  V30 13283 C 1222.33 -1.30744 0.915327 0
M  V30 13284 C 1222.53 -1.96895 -0.428344 0
M  V30 13285 O 1221.58 -2.23941 -1.16647 0
M  V30 13286 C 1222.9 -2.18209 2.06894 0
M  V30 13287 C 1224.44 -2.31607 2.1054 0
M  V30 13288 C 1224.92 -3.2243 3.25273 0
M  V30 13289 N 1226.41 -3.30015 3.2503 0
M  V30 13290 C 1227.14 -4.00401 4.10447 0
M  V30 13291 N 1226.64 -4.73256 5.05965 0
M  V30 13292 N 1228.43 -3.96514 3.98413 0
M  V30 13293 H 1220.58 -0.611449 2.03409 0
M  V30 13294 H 1222.85 -0.332188 0.887894 0
M  V30 13295 H 1222.55 -1.76887 3.0398 0
M  V30 13296 H 1222.43 -3.18823 2.01573 0
M  V30 13297 H 1224.81 -2.72173 1.14044 0
M  V30 13298 H 1224.9 -1.30639 2.19925 0
M  V30 13299 H 1224.54 -2.82579 4.22032 0
M  V30 13300 H 1224.47 -4.23392 3.13125 0
M  V30 13301 H 1226.96 -2.781 2.55869 0
M  V30 13302 H 1227.27 -5.24509 5.67547 0
M  V30 13303 H 1225.62 -4.72215 5.09939 0
M  V30 13304 H 1228.81 -3.38719 3.2309 0
M  V30 13305 H 1228.98 -4.511 4.65202 0
M  V30 13306 N 1222.39 -0.968567 -1.24324 0
M  V30 13307 C 1223.32 -0.518323 -2.27674 0
M  V30 13308 C 1224.3 0.442479 -1.64244 0
M  V30 13309 O 1225.48 0.338416 -1.91229 0
M  V30 13310 C 1222.61 0.191459 -3.46772 0
M  V30 13311 C 1221.57 -0.685449 -4.22476 0
M  V30 13312 C 1220.89 0.155873 -5.34473 0
M  V30 13313 C 1222.19 -1.97047 -4.83704 0
M  V30 13314 H 1223.89 -1.38215 -2.65588 0
M  V30 13315 H 1221.43 -0.66604 -1.27671 0
M  V30 13316 H 1223.39 0.517667 -4.18208 0
M  V30 13317 H 1222.11 1.08965 -3.07887 0
M  V30 13318 H 1220.77 -0.994942 -3.52841 0
M  V30 13319 H 1220.42 1.05424 -4.91828 0
M  V30 13320 H 1220.12 -0.427655 -5.86042 0
M  V30 13321 H 1221.64 0.476733 -6.08736 0
M  V30 13322 H 1223.06 -1.70979 -5.4721 0
M  V30 13323 H 1221.45 -2.50079 -5.45509 0
M  V30 13324 H 1222.52 -2.66484 -4.0511 0
M  V30 13325 N 1223.87 1.39211 -0.738786 0
M  V30 13326 C 1224.81 2.30578 -0.10129 0
M  V30 13327 C 1225.78 1.49412 0.725616 0
M  V30 13328 O 1226.97 1.78087 0.684799 0
M  V30 13329 C 1224.11 3.35767 0.797161 0
M  V30 13330 C 1223.22 4.31979 -0.0427701 0
M  V30 13331 C 1222.36 5.24236 0.857306 0
M  V30 13332 C 1221.4 6.12099 0.0128501 0
M  V30 13333 N 1220.53 6.96701 0.869067 0
M  V30 13334 H 1225.37 2.84522 -0.88606 0
M  V30 13335 H 1222.91 1.40093 -0.448602 0
M  V30 13336 H 1224.87 3.95347 1.33255 0
M  V30 13337 H 1223.5 2.83268 1.54787 0
M  V30 13338 H 1222.55 3.73986 -0.695622 0
M  V30 13339 H 1223.86 4.93927 -0.69555 0
M  V30 13340 H 1223.02 5.88861 1.4604 0
M  V30 13341 H 1221.75 4.62619 1.54386 0
M  V30 13342 H 1220.76 5.46483 -0.603018 0
M  V30 13343 H 1221.98 6.75781 -0.67054 0
M  V30 13344 H 1219.93 6.37647 1.54084 0
M  V30 13345 H 1219.85 7.55507 0.272852 0
M  V30 13346 H 1221.12 7.65751 1.4576 0
M  V30 13347 N 1225.34 0.486708 1.49896 0
M  V30 13348 C 1226.31 -0.288126 2.27382 0
M  V30 13349 C 1227.31 -0.906675 1.32801 0
M  V30 13350 O 1228.5 -0.773425 1.56089 0
M  V30 13351 C 1225.63 -1.41194 3.10285 0
M  V30 13352 H 1226.82 0.391618 2.97332 0
M  V30 13353 H 1224.38 0.24123 1.54427 0
M  V30 13354 H 1225.11 -2.12627 2.44868 0
M  V30 13355 H 1224.9 -0.974033 3.79809 0
M  V30 13356 H 1226.39 -1.95812 3.68846 0
M  V30 13357 N 1226.82 -1.56058 0.219941 0
M  V30 13358 C 1227.77 -2.20218 -0.690846 0
M  V30 13359 C 1228.74 -1.15725 -1.19151 0
M  V30 13360 O 1229.93 -1.44073 -1.2509 0
M  V30 13361 C 1227.07 -2.88477 -1.89408 0
M  V30 13362 C 1226.18 -4.07559 -1.43246 0
M  V30 13363 C 1225.31 -4.63605 -2.59314 0
M  V30 13364 C 1224.35 -5.74993 -2.0988 0
M  V30 13365 N 1223.49 -6.25337 -3.19214 0
M  V30 13366 H 1228.33 -2.97685 -0.136992 0
M  V30 13367 H 1225.87 -1.46994 -0.055865 0
M  V30 13368 H 1227.82 -3.26235 -2.60051 0
M  V30 13369 H 1226.45 -2.1353 -2.42084 0
M  V30 13370 H 1225.51 -3.75297 -0.621013 0
M  V30 13371 H 1226.82 -4.8805 -1.02997 0
M  V30 13372 H 1225.97 -5.03798 -3.38041 0
M  V30 13373 H 1224.71 -3.82274 -3.0285 0
M  V30 13374 H 1223.72 -5.34304 -1.29613 0
M  V30 13375 H 1224.94 -6.58158 -1.67345 0
M  V30 13376 H 1222.89 -5.4692 -3.62236 0
M  V30 13377 H 1222.8 -7.00947 -2.83213 0
M  V30 13378 H 1224.07 -6.70187 -3.98083 0
M  V30 13379 N 1228.3 0.053464 -1.57509 0
M  V30 13380 C 1229.55 0.750212 -1.88414 0
M  V30 13381 C 1229.88 1.76288 -0.814619 0
M  V30 13382 O 1229.16 1.93728 0.173136 0
M  V30 13383 C 1229.44 1.44176 -3.29978 0
M  V30 13384 C 1229.29 0.444263 -4.47601 0
M  V30 13385 C 1230.61 2.38207 -3.70061 0
M  V30 13386 H 1227.73 0.271266 -0.685262 0
M  V30 13387 H 1230.37 0.0131676 -1.89995 0
M  V30 13388 H 1228.52 2.07001 -3.2876 0
M  V30 13389 H 1230.19 -0.180182 -4.60948 0
M  V30 13390 H 1228.44 -0.238771 -4.33142 0
M  V30 13391 H 1229.11 0.966134 -5.43479 0
M  V30 13392 H 1231.58 1.85446 -3.7249 0
M  V30 13393 H 1230.46 2.83588 -4.69967 0
M  V30 13394 H 1230.72 3.23821 -3.00985 0
M  V30 13395 N 1229.78 1.54207 0.325255 0
M  V30 13396 C 1230.73 1.84197 1.42036 0
M  V30 13397 C 1231.72 0.71375 1.53629 0
M  V30 13398 O 1232.93 0.897385 1.56035 0
M  V30 13399 H 1229.3 0.583848 0.473947 0
M  V30 13400 H 1231.27 2.7578 1.13965 0
M  V30 13401 C 1230.02 2.08459 2.78281 0
M  V30 13402 H 1229.35 2.94734 2.70133 0
M  V30 13403 H 1230.79 2.33398 3.5398 0
M  V30 13404 C 1229.24 0.875615 3.25322 0
M  V30 13405 O 1229.77 0.0840387 4.01612 0
M  V30 13406 N 1227.98 0.687721 2.82345 0
M  V30 13407 H 1227.53 1.33307 2.20425 0
M  V30 13408 H 1227.49 -0.119687 3.14172 0
M  V30 13409 N 1231.26 -0.58723 1.46251 0
M  V30 13410 C 1232.17 -1.72455 1.59048 0
M  V30 13411 C 1233.18 -1.67416 0.47413 0
M  V30 13412 O 1234.36 -1.87406 0.737633 0
M  V30 13413 C 1231.42 -3.08953 1.57318 0
M  V30 13414 C 1230.49 -3.25291 2.80151 0
M  V30 13415 C 1229.72 -4.55277 2.78493 0
M  V30 13416 O 1229.94 -5.38883 1.8698 0
M  V30 13417 O 1228.88 -4.74765 3.69975 0
M  V30 13418 H 1232.7 -1.64606 2.55223 0
M  V30 13419 H 1230.29 -0.753742 1.28993 0
M  V30 13420 H 1232.17 -3.90239 1.59033 0
M  V30 13421 H 1230.84 -3.17249 0.643025 0
M  V30 13422 H 1229.75 -2.43515 2.83991 0
M  V30 13423 H 1231.08 -3.21883 3.7236 0
M  V30 13424 N 1232.74 -1.33881 -0.831482 0
M  V30 13425 C 1233.96 -1.28961 -1.62431 0
M  V30 13426 C 1234.39 0.135249 -1.87613 0
M  V30 13427 O 1233.74 1.09426 -1.44553 0
M  V30 13428 C 1233.79 -2.07767 -2.94729 0
M  V30 13429 O 1232.9 -1.44133 -3.86393 0
M  V30 13430 H 1232.24 -0.443313 -0.494337 0
M  V30 13431 H 1234.77 -1.76555 -1.0339 0
M  V30 13432 H 1234.78 -2.18806 -3.44366 0
M  V30 13433 H 1233.45 -3.11367 -2.75724 0
M  V30 13434 H 1232.03 -1.41784 -3.44894 0
M  V30 13435 N 1234.21 1.05064 -1.1747 0
M  V30 13436 C 1235.46 1.78089 -0.963883 0
M  V30 13437 C 1235.79 1.87766 0.507365 0
M  V30 13438 O 1235.04 1.37477 1.39279 0
M  V30 13439 C 1235.34 3.21961 -1.55164 0
M  V30 13440 C 1235.01 3.32339 -3.04732 0
M  V30 13441 C 1233.67 3.34878 -3.45557 0
M  V30 13442 C 1236.02 3.3325 -4.00741 0
M  V30 13443 C 1233.35 3.35959 -4.80987 0
M  V30 13444 C 1235.7 3.3587 -5.36073 0
M  V30 13445 C 1234.37 3.36697 -5.7636 0
M  V30 13446 H 1233.64 0.651672 -0.35271 0
M  V30 13447 H 1236.28 1.23471 -1.4638 0
M  V30 13448 H 1234.59 3.79514 -0.973471 0
M  V30 13449 H 1236.29 3.77087 -1.36406 0
M  V30 13450 H 1232.88 3.31076 -2.72188 0
M  V30 13451 H 1237.06 3.30488 -3.70258 0
M  V30 13452 H 1232.32 3.34911 -5.11512 0
M  V30 13453 H 1236.49 3.35524 -6.10243 0
M  V30 13454 H 1234.12 3.37288 -6.81279 0
M  V30 13455 N 1235.69 0.975146 1.23809 0
M  V30 13456 C 1236.6 0.51917 2.28783 0
M  V30 13457 C 1237.62 -0.423487 1.68768 0
M  V30 13458 O 1238.79 -0.294699 1.99232 0
M  V30 13459 C 1235.86 -0.176229 3.46252 0
M  V30 13460 C 1234.92 0.807177 4.21643 0
M  V30 13461 C 1234.15 0.144869 5.33503 0
M  V30 13462 O 1234.38 -1.06522 5.60365 0
M  V30 13463 O 1233.31 0.84079 5.95999 0
M  V30 13464 H 1237.14 1.39204 2.69919 0
M  V30 13465 H 1234.72 0.74253 1.29641 0
M  V30 13466 H 1236.6 -0.566547 4.17574 0
M  V30 13467 H 1235.28 -1.02394 3.07078 0
M  V30 13468 H 1234.18 1.2481 3.52666 0
M  V30 13469 H 1235.52 1.62354 4.64653 0
M  V30 13470 N 1237.17 -1.38817 0.746158 0
M  V30 13471 C 1238.12 -2.32373 0.102785 0
M  V30 13472 C 1239.11 -1.53638 -0.713556 0
M  V30 13473 O 1240.32 -1.69223 -0.613488 0
M  V30 13474 H 1236.69 -0.751861 0.0144405 0
M  V30 13475 H 1238.66 -2.84249 0.908032 0
M  V30 13476 C 1237.41 -3.38796 -0.781827 0
M  V30 13477 H 1236.74 -3.99467 -0.163057 0
M  V30 13478 H 1238.18 -4.06682 -1.19941 0
M  V30 13479 C 1236.63 -2.76756 -1.92113 0
M  V30 13480 O 1237.16 -2.65478 -3.0147 0
M  V30 13481 N 1235.37 -2.34676 -1.71392 0
M  V30 13482 H 1234.92 -2.44049 -0.824483 0
M  V30 13483 H 1234.88 -1.93508 -2.47794 0
M  V30 13484 N 1238.65 -0.49465 -1.49636 0
M  V30 13485 C 1239.88 0.0491129 -2.06842 0
M  V30 13486 C 1240.29 1.31395 -1.35576 0
M  V30 13487 O 1239.65 1.7731 -0.432135 0
M  V30 13488 C 1239.7 0.313171 -3.60141 0
M  V30 13489 O 1239.42 -0.90152 -4.28724 0
M  V30 13490 C 1240.92 0.901284 -4.34041 0
M  V30 13491 H 1238.14 -0.0176186 -0.670769 0
M  V30 13492 H 1240.68 -0.690188 -1.92501 0
M  V30 13493 H 1238.84 1.00244 -3.74206 0
M  V30 13494 H 1239.25 -0.660477 -5.20325 0
M  V30 13495 H 1240.73 1.03567 -5.42197 0
M  V30 13496 H 1241.2 1.89746 -3.96097 0
M  V30 13497 H 1241.81 0.249677 -4.24566 0
M  V30 13498 N 1240.13 1.55939 -0.228214 0
M  V30 13499 C 1241.06 2.16566 0.719321 0
M  V30 13500 C 1242.04 1.11204 1.18627 0
M  V30 13501 O 1243.22 1.39495 1.2678 0
M  V30 13502 C 1240.35 2.75132 1.97536 0
M  V30 13503 C 1239.39 3.93381 1.64783 0
M  V30 13504 S 1240.23 5.29982 0.76678 0
M  V30 13505 C 1241.38 5.91989 2.03223 0
M  V30 13506 H 1241.62 2.96599 0.204035 0
M  V30 13507 H 1239.15 1.54395 -0.0128406 0
M  V30 13508 H 1241.11 3.09512 2.69652 0
M  V30 13509 H 1239.77 1.95079 2.46176 0
M  V30 13510 H 1238.96 4.32884 2.58122 0
M  V30 13511 H 1238.56 3.60181 1.00724 0
M  V30 13512 H 1240.85 6.08368 2.98152 0
M  V30 13513 H 1241.8 6.87858 1.68099 0
M  V30 13514 H 1242.21 5.20883 2.1758 0
M  V30 13515 N 1241.6 -0.0451101 1.57535 0
M  V30 13516 C 1243.02 -0.59372 1.77008 0
M  V30 13517 C 1243.37 -1.76482 0.857233 0
M  V30 13518 O 1242.49 -2.16347 0.0479703 0
M  V30 13519 C 1243.09 -1.08383 3.20996 0
M  V30 13520 C 1241.65 -1.57808 3.41721 0
M  V30 13521 C 1240.79 -0.509067 2.72587 0
M  V30 13522 H 1243.74 0.181114 1.57663 0
M  V30 13523 H 1243.76 -1.95181 3.26626 0
M  V30 13524 H 1243.28 -0.231276 3.8741 0
M  V30 13525 H 1241.38 -2.45302 2.8046 0
M  V30 13526 H 1241.49 -1.63664 4.50279 0
M  V30 13527 H 1239.85 -0.960389 2.359 0
M  V30 13528 H 1240.64 0.333753 3.41674 0
M  V30 13529 N 1243.08 -1.54377 -0.317073 0
M  V30 13530 C 1244.33 -1.72893 -1.05424 0
M  V30 13531 C 1244.66 -0.506082 -1.87801 0
M  V30 13532 O 1243.91 0.51213 -1.8888 0
M  V30 13533 C 1244.21 -2.96066 -2.00199 0
M  V30 13534 C 1243.88 -4.30551 -1.33927 0
M  V30 13535 C 1242.54 -4.67112 -1.15584 0
M  V30 13536 C 1244.89 -5.13986 -0.864158 0
M  V30 13537 C 1242.22 -5.84701 -0.483892 0
M  V30 13538 C 1244.57 -6.32264 -0.206006 0
M  V30 13539 C 1243.24 -6.67499 -0.0104849 0
M  V30 13540 H 1242.51 -0.63266 -0.385776 0
M  V30 13541 H 1245.15 -1.88623 -0.330722 0
M  V30 13542 H 1243.46 -2.7505 -2.79024 0
M  V30 13543 H 1245.15 -3.07586 -2.57278 0
M  V30 13544 H 1241.74 -4.0179 -1.49207 0
M  V30 13545 H 1245.93 -4.86252 -0.993635 0
M  V30 13546 H 1241.18 -6.10555 -0.32127 0
M  V30 13547 H 1245.36 -6.96192 0.170108 0
M  V30 13548 H 1242.99 -7.58472 0.512209 0
M  V30 13549 N 1244.56 0.579466 -1.4656 0
M  V30 13550 C 1245.51 1.70937 -1.57744 0
M  V30 13551 C 1246.5 1.6343 -0.44577 0
M  V30 13552 O 1247.71 1.68884 -0.622762 0
M  V30 13553 H 1244.08 0.565218 -0.496017 0
M  V30 13554 H 1246.05 1.58636 -2.52739 0
M  V30 13555 C 1244.8 3.09321 -1.58794 0
M  V30 13556 H 1244.13 3.1577 -2.45213 0
M  V30 13557 H 1245.57 3.88132 -1.70674 0
M  V30 13558 C 1244.03 3.35404 -0.317165 0
M  V30 13559 O 1244.56 3.97325 0.591228 0
M  V30 13560 N 1242.76 2.89883 -0.204071 0
M  V30 13561 H 1242.31 2.39672 -0.944194 0
M  V30 13562 H 1242.27 3.07706 0.645303 0
M  V30 13563 N 1246.04 1.3432 0.824371 0
M  V30 13564 C 1247.29 1.25938 1.57552 0
M  V30 13565 C 1247.6 -0.169298 1.94866 0
M  V30 13566 O 1248.81 -0.375262 2.68894 0
M  V30 13567 C 1247.26 2.20757 2.84244 0
M  V30 13568 C 1246.87 3.68873 2.54237 0
M  V30 13569 C 1248.61 2.21279 3.62265 0
M  V30 13570 C 1246.52 4.55566 3.77113 0
M  V30 13571 H 1245.45 0.467832 0.591311 0
M  V30 13572 H 1248.1 1.59476 0.907724 0
M  V30 13573 H 1246.48 1.80168 3.52641 0
M  V30 13574 H 1247.66 4.17991 1.93959 0
M  V30 13575 H 1245.97 3.70784 1.89494 0
M  V30 13576 H 1248.57 2.83272 4.53499 0
M  V30 13577 H 1248.91 1.2117 3.98276 0
M  V30 13578 H 1249.45 2.60305 3.00809 0
M  V30 13579 H 1246.19 5.56605 3.46223 0
M  V30 13580 H 1245.71 4.11184 4.36678 0
M  V30 13581 H 1247.38 4.701 4.44539 0
M  V30 13582 N 1247.52 -1.0444 1.18026 0
M  V30 13583 C 1248.76 -1.77575 0.973314 0
M  V30 13584 C 1249.09 -1.88032 -0.4974 0
M  V30 13585 O 1248.35 -1.38214 -1.38548 0
M  V30 13586 C 1248.65 -3.21134 1.56869 0
M  V30 13587 C 1248.31 -3.30718 3.0649 0
M  V30 13588 C 1246.97 -3.33041 3.47328 0
M  V30 13589 C 1249.33 -3.3112 4.02503 0
M  V30 13590 C 1246.65 -3.33404 4.82762 0
M  V30 13591 C 1249.01 -3.33023 5.37846 0
M  V30 13592 C 1247.67 -3.33636 5.78138 0
M  V30 13593 H 1246.94 -0.649793 0.356161 0
M  V30 13594 H 1249.59 -1.22693 1.47033 0
M  V30 13595 H 1247.89 -3.78992 0.993584 0
M  V30 13596 H 1249.59 -3.76358 1.38404 0
M  V30 13597 H 1246.18 -3.29628 2.7394 0
M  V30 13598 H 1250.36 -3.2852 3.72006 0
M  V30 13599 H 1245.62 -3.32194 5.13281 0
M  V30 13600 H 1249.79 -3.32283 6.12014 0
M  V30 13601 H 1247.42 -3.33671 6.83058 0
M  V30 13602 N 1248.99 -0.981699 -1.2329 0
M  V30 13603 C 1250.22 -0.669025 -1.96313 0
M  V30 13604 C 1250.64 0.757624 -1.72168 0
M  V30 13605 O 1250 1.51626 -0.993942 0
M  V30 13606 C 1250.05 -0.966875 -3.47396 0
M  V30 13607 O 1249.15 -0.0595933 -4.12357 0
M  V30 13608 H 1248.5 -0.251493 -0.61453 0
M  V30 13609 H 1251.03 -1.31564 -1.56691 0
M  V30 13610 H 1251.04 -0.904112 -3.97857 0
M  V30 13611 H 1249.71 -2.00651 -3.64296 0
M  V30 13612 H 1248.29 -0.176878 -3.7248 0
M  V30 13613 N 1250.47 1.3842 -0.753509 0
M  V30 13614 C 1251.7 2.04107 -0.319985 0
M  V30 13615 C 1252.11 1.56951 1.05655 0
M  V30 13616 O 1251.45 0.737807 1.68232 0
M  V30 13617 C 1251.52 3.58529 -0.26402 0
M  V30 13618 C 1251.18 4.28741 -1.58209 0
M  V30 13619 C 1252.18 4.54118 -2.53126 0
M  V30 13620 C 1249.86 4.66931 -1.8515 0
M  V30 13621 C 1251.86 5.16719 -3.73203 0
M  V30 13622 C 1249.54 5.29256 -3.05502 0
M  V30 13623 C 1250.54 5.54085 -3.99348 0
M  V30 13624 O 1250.23 6.15112 -5.17584 0
M  V30 13625 H 1249.96 0.662457 -0.134636 0
M  V30 13626 H 1252.51 1.78096 -1.02328 0
M  V30 13627 H 1250.74 3.83512 0.495516 0
M  V30 13628 H 1252.43 4.05659 0.139979 0
M  V30 13629 H 1253.2 4.25043 -2.33588 0
M  V30 13630 H 1249.08 4.46952 -1.12939 0
M  V30 13631 H 1252.62 5.36014 -4.46469 0
M  V30 13632 H 1248.52 5.57754 -3.24932 0
M  V30 13633 H 1249.29 6.33599 -5.18164 0
M  V30 13634 N 1251.95 0.502579 1.49372 0
M  V30 13635 C 1253.18 -0.0381429 2.06865 0
M  V30 13636 C 1253.59 -1.30674 1.36271 0
M  V30 13637 O 1252.95 -1.77078 0.441532 0
M  V30 13638 C 1253 -0.294068 3.60302 0
M  V30 13639 O 1252.72 0.924244 4.2824 0
M  V30 13640 C 1254.22 -0.878253 4.34513 0
M  V30 13641 H 1251.44 0.0211756 0.670666 0
M  V30 13642 H 1253.99 0.700387 1.92132 0
M  V30 13643 H 1252.14 -0.982583 3.74732 0
M  V30 13644 H 1252.56 0.688062 5.19967 0
M  V30 13645 H 1254.03 -1.0069 5.42739 0
M  V30 13646 H 1254.51 -1.87643 3.97098 0
M  V30 13647 H 1255.11 -0.227157 4.24693 0
M  V30 13648 N 1253.43 -1.55816 0.23648 0
M  V30 13649 C 1254.38 -2.22322 -0.68378 0
M  V30 13650 C 1255.37 -1.2074 -1.1882 0
M  V30 13651 O 1256.58 -1.38781 -1.14629 0
M  V30 13652 H 1252.95 -0.713021 -0.238966 0
M  V30 13653 H 1254.92 -2.98234 -0.0995879 0
M  V30 13654 C 1253.67 -2.92845 -1.87449 0
M  V30 13655 H 1252.99 -3.70777 -1.49548 0
M  V30 13656 H 1254.43 -3.42758 -2.49585 0
M  V30 13657 C 1252.89 -1.96139 -2.73918 0
M  V30 13658 O 1253.42 -1.48781 -3.73132 0
M  V30 13659 N 1251.63 -1.63465 -2.40266 0
M  V30 13660 H 1251.18 -2.02171 -1.59639 0
M  V30 13661 H 1251.13 -0.990239 -2.98398 0
M  V30 13662 N 1254.91 0.036755 -1.57557 0
M  V30 13663 C 1255.85 1.05823 -2.07133 0
M  V30 13664 C 1256.85 1.37923 -0.983546 0
M  V30 13665 O 1258.05 1.36918 -1.16848 0
M  V30 13666 H 1254.43 0.358761 -0.660905 0
M  V30 13667 H 1256.4 0.614232 -2.9201 0
M  V30 13668 C 1255.15 2.35302 -2.55985 0
M  V30 13669 H 1254.47 2.11461 -3.393 0
M  V30 13670 H 1255.91 3.05139 -2.94391 0
M  V30 13671 C 1254.37 3.0373 -1.45773 0
M  V30 13672 O 1254.9 3.9325 -0.819587 0
M  V30 13673 N 1253.11 2.64931 -1.19416 0
M  V30 13674 H 1252.65 1.92219 -1.71492 0
M  V30 13675 H 1252.61 3.11033 -0.458865 0
M  V30 13676 N 1256.39 1.54543 0.308881 0
M  V30 13677 C 1257.61 1.77753 1.06857 0
M  V30 13678 C 1258.04 0.531616 1.80431 0
M  V30 13679 O 1257.39 -0.517513 1.73757 0
M  V30 13680 C 1257.44 2.97968 2.03094 0
M  V30 13681 O 1256.55 2.70541 3.11257 0
M  V30 13682 H 1255.89 0.588576 0.307368 0
M  V30 13683 H 1258.42 2.01607 0.348703 0
M  V30 13684 H 1258.43 3.25722 2.45702 0
M  V30 13685 H 1257.1 3.88314 1.48948 0
M  V30 13686 H 1255.68 2.53781 2.7322 0
M  V30 13687 N 1257.86 -0.571685 1.46866 0
M  V30 13688 C 1258.79 -1.68994 1.61131 0
M  V30 13689 C 1259.77 -1.63728 0.461222 0
M  V30 13690 O 1260.96 -1.81574 0.688813 0
M  V30 13691 C 1258.09 -3.07638 1.61172 0
M  V30 13692 C 1257.04 -3.27742 2.75262 0
M  V30 13693 C 1256.37 -4.67025 2.60368 0
M  V30 13694 C 1257.67 -3.14511 4.16989 0
M  V30 13695 H 1259.36 -1.57311 2.54742 0
M  V30 13696 H 1256.91 -0.755382 1.22597 0
M  V30 13697 H 1258.86 -3.857 1.69744 0
M  V30 13698 H 1257.59 -3.20245 0.641122 0
M  V30 13699 H 1256.25 -2.52083 2.66176 0
M  V30 13700 H 1255.89 -4.76413 1.61368 0
M  V30 13701 H 1255.59 -4.81428 3.36899 0
M  V30 13702 H 1257.12 -5.47242 2.70848 0
M  V30 13703 H 1258.53 -3.82407 4.27128 0
M  V30 13704 H 1256.93 -3.40431 4.94193 0
M  V30 13705 H 1258 -2.11443 4.36371 0
M  V30 13706 N 1259.34 -1.34755 -0.817236 0
M  V30 13707 C 1260.27 -1.29452 -1.94331 0
M  V30 13708 C 1261.25 -0.170902 -1.69239 0
M  V30 13709 O 1262.44 -0.364173 -1.90755 0
M  V30 13710 C 1259.57 -1.05497 -3.30889 0
M  V30 13711 C 1258.52 -2.14386 -3.70436 0
M  V30 13712 C 1257.85 -1.75612 -5.05039 0
M  V30 13713 C 1259.15 -3.56265 -3.81933 0
M  V30 13714 H 1260.84 -2.23672 -1.99025 0
M  V30 13715 H 1258.39 -1.07674 -0.956159 0
M  V30 13716 H 1260.34 -1.0043 -4.09257 0
M  V30 13717 H 1259.06 -0.0772059 -3.26509 0
M  V30 13718 H 1257.72 -2.18532 -2.94345 0
M  V30 13719 H 1257.37 -0.764809 -4.97152 0
M  V30 13720 H 1257.07 -2.48495 -5.3247 0
M  V30 13721 H 1258.6 -1.72051 -5.85859 0
M  V30 13722 H 1260.01 -3.545 -4.50558 0
M  V30 13723 H 1258.41 -4.27818 -4.20822 0
M  V30 13724 H 1259.48 -3.93192 -2.83775 0
M  V30 13725 N 1260.82 1.03812 -1.18578 0
M  V30 13726 C 1261.77 2.11883 -0.915115 0
M  V30 13727 C 1262.74 1.65453 0.146479 0
M  V30 13728 O 1263.92 1.90799 0.00630058 0
M  V30 13729 C 1261.06 3.42157 -0.449755 0
M  V30 13730 C 1260.17 4.02185 -1.57706 0
M  V30 13731 C 1259.31 5.20431 -1.06417 0
M  V30 13732 C 1258.35 5.72496 -2.16599 0
M  V30 13733 N 1257.49 6.82027 -1.66685 0
M  V30 13734 H 1262.33 2.34373 -1.84047 0
M  V30 13735 H 1259.86 1.14962 -0.917728 0
M  V30 13736 H 1261.82 4.16888 -0.161407 0
M  V30 13737 H 1260.45 3.19806 0.438622 0
M  V30 13738 H 1259.5 3.24757 -1.98083 0
M  V30 13739 H 1260.81 4.36851 -2.40754 0
M  V30 13740 H 1259.97 6.02286 -0.730497 0
M  V30 13741 H 1258.71 4.87276 -0.203301 0
M  V30 13742 H 1257.71 4.8926 -2.50808 0
M  V30 13743 H 1258.94 6.07694 -3.03126 0
M  V30 13744 H 1256.88 6.50742 -0.828916 0
M  V30 13745 H 1256.8 7.1577 -2.43329 0
M  V30 13746 H 1258.07 7.67499 -1.36253 0
M  V30 13747 N 1262.3 0.988223 1.22768 0
M  V30 13748 C 1263.57 0.577578 1.86878 0
M  V30 13749 C 1263.95 -0.945197 1.88757 0
M  V30 13750 O 1263.3 -1.82519 1.37474 0
M  V30 13751 C 1263.51 1.19263 3.2799 0
M  V30 13752 C 1264.86 1.29024 4.04522 0
M  V30 13753 O 1265.88 1.14667 3.37239 0
M  V30 13754 O 1264.74 1.51949 5.24951 0
M  V30 13755 H 1261.84 0.195579 0.803541 0
M  V30 13756 H 1264.38 1.0838 1.30582 0
M  V30 13757 H 1263.16 2.23442 3.21231 0
M  V30 13758 H 1262.78 0.671706 3.91885 0
M  V30 13759 N 1263.78 -1.38018 0.760839 0
M  V30 13760 C 1265.02 -1.99194 0.316984 0
M  V30 13761 C 1265.34 -1.61083 -1.10958 0
M  V30 13762 O 1266.54 -2.15281 -1.65428 0
M  V30 13763 C 1265 -3.56185 0.515792 0
M  V30 13764 C 1264.61 -4.03242 1.95191 0
M  V30 13765 C 1266.35 -4.24285 0.135013 0
M  V30 13766 C 1264.26 -5.52902 2.0989 0
M  V30 13767 H 1263.19 -0.745214 0.114771 0
M  V30 13768 H 1265.84 -1.5769 0.938415 0
M  V30 13769 H 1264.22 -3.95613 -0.174934 0
M  V30 13770 H 1265.4 -3.75086 2.6767 0
M  V30 13771 H 1263.71 -3.47889 2.28827 0
M  V30 13772 H 1266.31 -5.34233 0.223495 0
M  V30 13773 H 1266.65 -4.06158 -0.913322 0
M  V30 13774 H 1267.18 -3.90121 0.777868 0
M  V30 13775 H 1263.92 -5.75942 3.13003 0
M  V30 13776 H 1263.44 -5.82778 1.41881 0
M  V30 13777 H 1265.12 -6.18709 1.89229 0
M  V30 13778 N 1265.25 -0.510493 -1.49103 0
M  V30 13779 C 1266.5 0.0325393 -2.01674 0
M  V30 13780 C 1266.82 1.37162 -1.39448 0
M  V30 13781 O 1268.02 2.00189 -1.83402 0
M  V30 13782 C 1266.48 0.108433 -3.59737 0
M  V30 13783 C 1266.09 -1.22458 -4.30939 0
M  V30 13784 C 1267.83 0.601326 -4.20219 0
M  V30 13785 C 1265.74 -1.11033 -5.80884 0
M  V30 13786 H 1264.67 0.0159333 -0.753832 0
M  V30 13787 H 1267.32 -0.651344 -1.71551 0
M  V30 13788 H 1265.7 0.856974 -3.86616 0
M  V30 13789 H 1266.87 -1.98715 -4.15751 0
M  V30 13790 H 1265.19 -1.65166 -3.82242 0
M  V30 13791 H 1267.79 0.704462 -5.30039 0
M  V30 13792 H 1268.13 1.60247 -3.84222 0
M  V30 13793 H 1268.66 -0.0909561 -3.97696 0
M  V30 13794 H 1265.4 -2.08603 -6.21422 0
M  V30 13795 H 1264.92 -0.388798 -5.98539 0
M  V30 13796 H 1266.6 -0.792949 -6.42123 0
M  V30 13797 N 1266.73 1.55688 -0.24474 0
M  V30 13798 C 1267.68 2.22682 0.67198 0
M  V30 13799 C 1268.67 1.21369 1.18178 0
M  V30 13800 O 1269.88 1.39387 1.13892 0
M  V30 13801 H 1266.25 0.714279 0.235181 0
M  V30 13802 H 1268.23 2.98282 0.0837704 0
M  V30 13803 C 1266.97 2.93835 1.85893 0
M  V30 13804 H 1266.3 3.71565 1.4758 0
M  V30 13805 H 1267.74 3.44077 2.47764 0
M  V30 13806 C 1266.2 1.97589 2.72874 0
M  V30 13807 O 1266.73 1.50758 3.72337 0
M  V30 13808 N 1264.93 1.64737 2.39395 0
M  V30 13809 H 1264.48 2.03015 1.58564 0
M  V30 13810 H 1264.44 1.00605 2.97869 0
M  V30 13811 N 1268.21 -0.0283989 1.57574 0
M  V30 13812 C 1269.12 -1.04575 2.10003 0
M  V30 13813 C 1270.14 -1.39588 1.03881 0
M  V30 13814 O 1271.31 -1.48894 1.35619 0
M  V30 13815 C 1268.38 -2.32755 2.56955 0
M  V30 13816 C 1267.44 -2.04317 3.77562 0
M  V30 13817 C 1266.67 -3.26385 4.22266 0
M  V30 13818 O 1266.89 -4.37082 3.66491 0
M  V30 13819 O 1265.83 -3.12046 5.14695 0
M  V30 13820 H 1269.65 -0.630183 2.9709 0
M  V30 13821 H 1267.24 -0.245423 1.4737 0
M  V30 13822 H 1269.12 -3.08111 2.87482 0
M  V30 13823 H 1267.8 -2.73605 1.72979 0
M  V30 13824 H 1266.7 -1.26527 3.52054 0
M  V30 13825 H 1268.04 -1.68321 4.62524 0
M  V30 13826 N 1269.69 -1.54705 -0.300681 0
M  V30 13827 C 1270.92 -1.77735 -1.05327 0
M  V30 13828 C 1271.33 -0.53709 -1.81417 0
M  V30 13829 O 1270.67 0.502663 -1.76689 0
M  V30 13830 C 1270.73 -2.93222 -2.07993 0
M  V30 13831 C 1270.39 -4.313 -1.51095 0
M  V30 13832 C 1271.39 -5.11317 -0.94082 0
M  V30 13833 C 1269.08 -4.77901 -1.54648 0
M  V30 13834 C 1271.07 -6.36055 -0.413791 0
M  V30 13835 C 1268.76 -6.02602 -1.01558 0
M  V30 13836 C 1269.76 -6.81515 -0.450209 0
M  V30 13837 O 1269.44 -8.03867 0.0726375 0
M  V30 13838 H 1269.18 -0.596468 -0.318122 0
M  V30 13839 H 1271.73 -2.02475 -0.345404 0
M  V30 13840 H 1269.96 -2.64108 -2.82461 0
M  V30 13841 H 1271.65 -3.03826 -2.69156 0
M  V30 13842 H 1272.41 -4.76458 -0.906268 0
M  V30 13843 H 1268.29 -4.16507 -1.97594 0
M  V30 13844 H 1271.84 -6.97594 0.0281534 0
M  V30 13845 H 1267.73 -6.36948 -1.04728 0
M  V30 13846 H 1268.5 -8.1849 -0.0406321 0
M  V30 13847 N 1271.17 0.563888 -1.47167 0
M  V30 13848 C 1272.41 1.32136 -1.53448 0
M  V30 13849 C 1272.74 1.9353 -0.19396 0
M  V30 13850 O 1272 1.78038 0.812456 0
M  V30 13851 C 1272.3 2.45678 -2.59571 0
M  V30 13852 C 1271.96 2.02157 -4.03043 0
M  V30 13853 C 1270.62 1.90003 -4.421 0
M  V30 13854 C 1272.98 1.68846 -4.93093 0
M  V30 13855 C 1270.3 1.42825 -5.6905 0
M  V30 13856 C 1272.66 1.2314 -6.20499 0
M  V30 13857 C 1271.32 1.09578 -6.58444 0
M  V30 13858 H 1270.59 0.483519 -0.561507 0
M  V30 13859 H 1273.24 0.633042 -1.80734 0
M  V30 13860 H 1271.54 3.20037 -2.26017 0
M  V30 13861 H 1273.24 3.03871 -2.61655 0
M  V30 13862 H 1269.83 2.12557 -3.7218 0
M  V30 13863 H 1274.01 1.77111 -4.63622 0
M  V30 13864 H 1269.27 1.30983 -5.97205 0
M  V30 13865 H 1273.44 0.964247 -6.89692 0
M  V30 13866 H 1271.07 0.727975 -7.56706 0
M  V30 13867 N 1272.64 1.35187 0.810078 0
M  V30 13868 C 1273.59 1.27848 1.94313 0
M  V30 13869 C 1274.59 0.174081 1.68503 0
M  V30 13870 O 1275.79 0.339848 1.76763 0
M  V30 13871 H 1272.17 0.397504 0.638353 0
M  V30 13872 H 1274.14 2.23579 1.97623 0
M  V30 13873 C 1272.89 1.06382 3.31026 0
M  V30 13874 H 1272.21 1.90601 3.51441 0
M  V30 13875 H 1273.65 1.05287 4.1072 0
M  V30 13876 C 1272.11 -0.232462 3.36097 0
M  V30 13877 O 1272.64 -1.22946 3.82423 0
M  V30 13878 N 1270.85 -0.270028 2.89343 0
M  V30 13879 H 1270.39 0.541891 2.51836 0
M  V30 13880 H 1270.35 -1.13708 2.93117 0
M  V30 13881 N 1274.12 -1.03182 1.19127 0
M  V30 13882 C 1275.35 -1.80703 1.01791 0
M  V30 13883 C 1275.77 -1.83147 -0.428824 0
M  V30 13884 O 1275.13 -1.2553 -1.30812 0
M  V30 13885 C 1275.18 -3.23754 1.58794 0
M  V30 13886 O 1274.28 -4.04261 0.815274 0
M  V30 13887 H 1273.62 -0.557944 0.359992 0
M  V30 13888 H 1276.15 -1.29887 1.58084 0
M  V30 13889 H 1276.16 -3.7451 1.61884 0
M  V30 13890 H 1274.84 -3.2129 2.64094 0
M  V30 13891 H 1273.42 -3.62909 0.857392 0
M  V30 13892 N 1275.6 -0.99472 -1.22242 0
M  V30 13893 C 1276.85 -0.667045 -1.90351 0
M  V30 13894 C 1277.16 0.804615 -1.78284 0
M  V30 13895 O 1278.37 1.24395 -2.41326 0
M  V30 13896 C 1276.82 -1.14256 -3.41282 0
M  V30 13897 C 1276.43 -2.63958 -3.61981 0
M  V30 13898 C 1278.18 -0.889302 -4.1508 0
M  V30 13899 C 1276.08 -3.05103 -5.06622 0
M  V30 13900 H 1275.01 -0.245795 -0.712812 0
M  V30 13901 H 1277.66 -1.20452 -1.38432 0
M  V30 13902 H 1276.05 -0.533203 -3.92394 0
M  V30 13903 H 1277.22 -3.30255 -3.21354 0
M  V30 13904 H 1275.54 -2.87186 -3.01518 0
M  V30 13905 H 1278.13 -1.17239 -5.21689 0
M  V30 13906 H 1278.48 0.174556 -4.15934 0
M  V30 13907 H 1279.01 -1.46095 -3.70002 0
M  V30 13908 H 1275.75 -4.10672 -5.1091 0
M  V30 13909 H 1275.27 -2.4351 -5.48145 0
M  V30 13910 H 1276.95 -2.96506 -5.75059 0
M  V30 13911 N 1277.08 1.37613 -0.768148 0
M  V30 13912 C 1278.03 2.3218 -0.13974 0
M  V30 13913 C 1279.02 1.54754 0.689023 0
M  V30 13914 O 1280.23 1.70177 0.586489 0
M  V30 13915 H 1276.6 0.751536 -0.0264001 0
M  V30 13916 H 1278.57 2.82768 -0.953139 0
M  V30 13917 C 1277.32 3.39997 0.727829 0
M  V30 13918 H 1276.64 3.99676 0.0994851 0
M  V30 13919 H 1278.08 4.08538 1.13456 0
M  V30 13920 C 1276.54 2.79778 1.87686 0
M  V30 13921 O 1277.07 2.70241 2.97208 0
M  V30 13922 N 1275.28 2.37373 1.67637 0
M  V30 13923 H 1274.83 2.4533 0.785552 0
M  V30 13924 H 1274.78 1.97426 2.44684 0
M  V30 13925 N 1278.56 0.518393 1.4883 0
M  V30 13926 C 1279.83 -0.0837498 1.95421 0
M  V30 13927 C 1280.21 -1.52435 1.46037 0
M  V30 13928 O 1279.56 -2.18093 0.681736 0
M  V30 13929 C 1279.77 0.0215333 3.48993 0
M  V30 13930 C 1281.12 -0.143615 4.24357 0
M  V30 13931 O 1282.14 -0.0528223 3.56161 0
M  V30 13932 O 1281 -0.332231 5.45489 0
M  V30 13933 H 1278.1 -0.0857132 0.822546 0
M  V30 13934 H 1280.64 0.582169 1.59402 0
M  V30 13935 H 1279.41 1.02549 3.77623 0
M  V30 13936 H 1279.04 -0.683756 3.91677 0
M  V30 13937 N 1280.03 -1.55556 0.252993 0
M  V30 13938 C 1281.26 -2.03945 -0.376965 0
M  V30 13939 C 1281.68 -1.13089 -1.50308 0
M  V30 13940 O 1281.04 -0.125039 -1.80868 0
M  V30 13941 C 1281.09 -3.50284 -0.856363 0
M  V30 13942 O 1280.19 -3.62551 -1.96546 0
M  V30 13943 H 1279.54 -0.659002 -0.081317 0
M  V30 13944 H 1282.07 -2.01024 0.380831 0
M  V30 13945 H 1282.08 -3.91222 -1.15798 0
M  V30 13946 H 1280.75 -4.15887 -0.0323302 0
M  V30 13947 H 1279.33 -3.33511 -1.66808 0
M  V30 13948 N 1281.51 0.0200419 -1.57587 0
M  V30 13949 C 1282.46 1.01784 -2.07144 0
M  V30 13950 C 1283.43 1.3537 -0.962501 0
M  V30 13951 O 1284.61 1.45553 -1.23365 0
M  V30 13952 C 1281.75 2.31091 -2.56302 0
M  V30 13953 C 1280.87 2.03584 -3.81022 0
M  V30 13954 C 1280 3.26827 -4.18757 0
M  V30 13955 C 1279.04 2.94915 -5.36369 0
M  V30 13956 N 1278.18 4.10636 -5.69493 0
M  V30 13957 H 1283.02 0.588288 -2.92136 0
M  V30 13958 H 1280.56 0.278848 -1.44433 0
M  V30 13959 H 1282.51 3.06656 -2.82874 0
M  V30 13960 H 1281.14 2.71752 -1.74215 0
M  V30 13961 H 1280.2 1.18475 -3.6148 0
M  V30 13962 H 1281.51 1.76049 -4.66699 0
M  V30 13963 H 1280.66 4.10753 -4.46505 0
M  V30 13964 H 1279.4 3.57483 -3.31749 0
M  V30 13965 H 1278.41 2.09392 -5.08365 0
M  V30 13966 H 1279.63 2.65528 -6.25037 0
M  V30 13967 H 1277.58 4.41226 -4.85444 0
M  V30 13968 H 1277.49 3.86556 -6.497 0
M  V30 13969 H 1278.76 4.95409 -6.01822 0
M  V30 13970 N 1282.99 1.54862 0.292472 0
M  V30 13971 C 1284.24 1.73756 1.02429 0
M  V30 13972 C 1284.55 0.535164 1.88137 0
M  V30 13973 O 1285.76 0.606092 2.64648 0
M  V30 13974 C 1284.21 3.0745 1.8709 0
M  V30 13975 C 1283.82 4.35195 1.06343 0
M  V30 13976 C 1285.57 3.357 2.59819 0
M  V30 13977 C 1283.47 5.59936 1.9033 0
M  V30 13978 H 1282.4 0.647617 0.386145 0
M  V30 13979 H 1285.05 1.81338 0.28086 0
M  V30 13980 H 1283.44 2.93855 2.65453 0
M  V30 13981 H 1284.61 4.5965 0.325335 0
M  V30 13982 H 1282.93 4.13944 0.451574 0
M  V30 13983 H 1285.52 4.26099 3.23023 0
M  V30 13984 H 1285.87 2.54956 3.29094 0
M  V30 13985 H 1286.4 3.50304 1.88499 0
M  V30 13986 H 1283.14 6.43372 1.25509 0
M  V30 13987 H 1282.66 5.39654 2.61789 0
M  V30 13988 H 1284.34 5.97512 2.48171 0
M  V30 13989 N 1284.47 -0.556076 1.47464 0
M  V30 13990 C 1285.4 -1.67275 1.62915 0
M  V30 13991 C 1286.38 -1.63229 0.478562 0
M  V30 13992 O 1287.56 -1.80833 0.708032 0
M  V30 13993 C 1284.69 -3.05911 1.64426 0
M  V30 13994 C 1283.65 -3.24804 2.78722 0
M  V30 13995 C 1282.97 -4.64238 2.65307 0
M  V30 13996 C 1284.27 -3.10071 4.20302 0
M  V30 13997 H 1285.97 -1.54601 2.56396 0
M  V30 13998 H 1283.51 -0.742337 1.23391 0
M  V30 13999 H 1285.47 -3.83878 1.73826 0
M  V30 14000 H 1284.19 -3.19547 0.675053 0
M  V30 14001 H 1282.85 -2.49246 2.68835 0
M  V30 14002 H 1282.5 -4.74675 1.66412 0
M  V30 14003 H 1282.2 -4.77828 3.41986 0
M  V30 14004 H 1283.72 -5.44339 2.76637 0
M  V30 14005 H 1285.14 -3.77855 4.3116 0
M  V30 14006 H 1283.53 -3.3517 4.97776 0
M  V30 14007 H 1284.6 -2.06803 4.38589 0
M  V30 14008 N 1285.95 -1.35615 -0.802897 0
M  V30 14009 C 1287.17 -1.32377 -1.59659 0
M  V30 14010 C 1287.6 0.0954235 -1.87858 0
M  V30 14011 O 1286.96 1.06336 -1.46842 0
M  V30 14012 C 1287 -2.13972 -2.90256 0
M  V30 14013 O 1286.11 -1.52296 -3.83249 0
M  V30 14014 H 1285.45 -0.453699 -0.484823 0
M  V30 14015 H 1287.98 -1.78708 -0.996217 0
M  V30 14016 H 1287.99 -2.26061 -3.39647 0
M  V30 14017 H 1286.66 -3.17145 -2.69057 0
M  V30 14018 H 1285.24 -1.49068 -3.41809 0
M  V30 14019 N 1287.43 1.02549 -1.19673 0
M  V30 14020 C 1288.36 2.12794 -0.961289 0
M  V30 14021 C 1289.34 1.69766 0.106575 0
M  V30 14022 O 1290.52 1.94138 -0.0491358 0
M  V30 14023 C 1287.65 3.4364 -0.502868 0
M  V30 14024 C 1286.61 4.00367 -1.51296 0
M  V30 14025 C 1285.93 5.26874 -0.911491 0
M  V30 14026 C 1287.23 4.34782 -2.89416 0
M  V30 14027 H 1288.93 2.32748 -1.88331 0
M  V30 14028 H 1286.47 1.11852 -0.906922 0
M  V30 14029 H 1288.42 4.20141 -0.325436 0
M  V30 14030 H 1287.15 3.23418 0.454764 0
M  V30 14031 H 1285.81 3.25964 -1.67759 0
M  V30 14032 H 1285.46 5.02971 0.0537982 0
M  V30 14033 H 1285.16 5.65791 -1.58602 0
M  V30 14034 H 1286.68 6.06039 -0.74493 0
M  V30 14035 H 1288.09 5.02207 -2.76516 0
M  V30 14036 H 1286.49 4.8479 -3.53693 0
M  V30 14037 H 1287.56 3.43935 -3.41814 0
M  V30 14038 N 1288.9 1.00119 1.21713 0
M  V30 14039 C 1289.84 0.516633 2.23301 0
M  V30 14040 C 1290.85 -0.392732 1.57992 0
M  V30 14041 O 1292.04 -0.19354 1.77448 0
M  V30 14042 C 1289.14 -0.269612 3.37826 0
M  V30 14043 C 1288.31 0.637898 4.32723 0
M  V30 14044 C 1287.37 -0.0980745 5.26109 0
M  V30 14045 O 1286.4 0.519302 5.66826 0
M  V30 14046 N 1287.6 -1.37783 5.63911 0
M  V30 14047 H 1290.36 1.39022 2.65505 0
M  V30 14048 H 1287.92 0.87688 1.36097 0
M  V30 14049 H 1289.92 -0.770826 3.97291 0
M  V30 14050 H 1288.49 -1.04436 2.94638 0
M  V30 14051 H 1287.71 1.31966 3.71455 0
M  V30 14052 H 1288.99 1.25564 4.93063 0
M  V30 14053 H 1288.39 -1.90061 5.32817 0
M  V30 14054 H 1286.95 -1.82407 6.25756 0
M  V30 14055 N 1290.38 -1.37203 0.775435 0
M  V30 14056 C 1291.33 -2.32102 0.152051 0
M  V30 14057 C 1292.32 -1.55117 -0.680806 0
M  V30 14058 O 1293.53 -1.70486 -0.577455 0
M  V30 14059 H 1289.9 -0.751386 0.0303853 0
M  V30 14060 H 1291.88 -2.82259 0.968121 0
M  V30 14061 C 1290.62 -3.40378 -0.709788 0
M  V30 14062 H 1289.95 -3.99723 -0.0782879 0
M  V30 14063 H 1291.39 -4.09134 -1.11288 0
M  V30 14064 C 1289.85 -2.80769 -1.862 0
M  V30 14065 O 1290.38 -2.71813 -2.95771 0
M  V30 14066 N 1288.58 -2.38259 -1.66376 0
M  V30 14067 H 1288.13 -2.45743 -0.772531 0
M  V30 14068 H 1288.09 -1.98721 -2.43634 0
M  V30 14069 N 1291.86 -0.526279 -1.48553 0
M  V30 14070 C 1292.81 0.238513 -2.29564 0
M  V30 14071 C 1293.78 0.937222 -1.37133 0
M  V30 14072 O 1294.96 0.93897 -1.66096 0
M  V30 14073 C 1292.1 1.28173 -3.20415 0
M  V30 14074 C 1291.21 0.592244 -4.27921 0
M  V30 14075 C 1290.35 1.61808 -5.05956 0
M  V30 14076 C 1289.39 0.911846 -6.0527 0
M  V30 14077 N 1288.53 1.88305 -6.76377 0
M  V30 14078 H 1293.37 -0.458502 -2.94452 0
M  V30 14079 H 1290.9 -0.237948 -1.45163 0
M  V30 14080 H 1292.86 1.89883 -3.71484 0
M  V30 14081 H 1291.49 1.94718 -2.57458 0
M  V30 14082 H 1290.54 -0.138714 -3.80147 0
M  V30 14083 H 1291.85 0.0375427 -4.98786 0
M  V30 14084 H 1291.01 2.30956 -5.61021 0
M  V30 14085 H 1289.75 2.20667 -4.34922 0
M  V30 14086 H 1288.75 0.206273 -5.49413 0
M  V30 14087 H 1289.98 0.329415 -6.78301 0
M  V30 14088 H 1287.92 2.46079 -6.08096 0
M  V30 14089 H 1287.84 1.37969 -7.43304 0
M  V30 14090 H 1289.11 2.56663 -7.36033 0
M  V30 14091 N 1293.34 1.5542 -0.261239 0
M  V30 14092 C 1294.28 2.21972 0.632216 0
M  V30 14093 C 1295.25 1.18843 1.16041 0
M  V30 14094 O 1296.44 1.47339 1.21226 0
M  V30 14095 C 1293.58 2.93397 1.81693 0
M  V30 14096 C 1292.69 4.11214 1.3239 0
M  V30 14097 C 1291.83 4.70318 2.46931 0
M  V30 14098 C 1290.87 5.80355 1.94561 0
M  V30 14099 N 1290 6.33581 3.02523 0
M  V30 14100 H 1294.84 2.97944 0.058018 0
M  V30 14101 H 1292.38 1.4709 0.0168725 0
M  V30 14102 H 1294.34 3.33015 2.5131 0
M  V30 14103 H 1292.97 2.19874 2.36337 0
M  V30 14104 H 1292.02 3.76811 0.521292 0
M  V30 14105 H 1293.33 4.90609 0.900214 0
M  V30 14106 H 1292.49 5.12584 3.24565 0
M  V30 14107 H 1291.23 3.90169 2.92608 0
M  V30 14108 H 1290.23 5.37552 1.15402 0
M  V30 14109 H 1291.46 6.62364 1.49836 0
M  V30 14110 H 1289.4 5.56332 3.47608 0
M  V30 14111 H 1289.32 7.08209 2.64529 0
M  V30 14112 H 1290.59 6.80506 3.80174 0
M  V30 14113 N 1294.82 -0.0116844 1.57596 0
M  V30 14114 C 1295.76 -1.02514 2.08791 0
M  V30 14115 C 1296.76 -1.36341 1.00536 0
M  V30 14116 O 1297.96 -1.35042 1.19011 0
M  V30 14117 H 1294.34 -0.348201 0.666528 0
M  V30 14118 H 1296.31 -0.567698 2.9295 0
M  V30 14119 C 1295.06 -2.312 2.59696 0
M  V30 14120 H 1294.38 -2.06036 3.42621 0
M  V30 14121 H 1295.82 -3.00417 2.99208 0
M  V30 14122 C 1294.28 -3.01372 1.50586 0
M  V30 14123 O 1294.81 -3.91896 0.882046 0
M  V30 14124 N 1293.02 -2.62997 1.23616 0
M  V30 14125 H 1292.56 -1.89466 1.74529 0
M  V30 14126 H 1292.52 -3.10264 0.508289 0
M  V30 14127 N 1296.29 -1.55015 -0.284256 0
M  V30 14128 C 1297.26 -1.8636 -1.33426 0
M  V30 14129 C 1298.26 -0.737457 -1.42892 0
M  V30 14130 O 1299.45 -1.00569 -1.42238 0
M  V30 14131 C 1296.58 -2.05884 -2.71707 0
M  V30 14132 H 1297.77 -2.80212 -1.06869 0
M  V30 14133 H 1295.32 -1.47334 -0.521767 0
M  V30 14134 H 1296.06 -1.14376 -3.03461 0
M  V30 14135 H 1295.84 -2.87867 -2.66224 0
M  V30 14136 H 1297.33 -2.31447 -3.47595 0
M  V30 14137 N 1297.77 0.548248 -1.47757 0
M  V30 14138 C 1298.7 1.66409 -1.63799 0
M  V30 14139 C 1299.68 1.62973 -0.487211 0
M  V30 14140 O 1300.87 1.80455 -0.717612 0
M  V30 14141 C 1298 3.05035 -1.66046 0
M  V30 14142 C 1296.95 3.23322 -2.80441 0
M  V30 14143 C 1296.28 4.62824 -2.67765 0
M  V30 14144 C 1297.58 3.07837 -4.2194 0
M  V30 14145 H 1299.27 1.53239 -2.57212 0
M  V30 14146 H 1296.82 0.735783 -1.23783 0
M  V30 14147 H 1298.77 3.82951 -1.75859 0
M  V30 14148 H 1297.49 3.19185 -0.69199 0
M  V30 14149 H 1296.15 2.47816 -2.70153 0
M  V30 14150 H 1295.8 4.73786 -1.68927 0
M  V30 14151 H 1295.5 4.76007 -3.44515 0
M  V30 14152 H 1297.03 5.42864 -2.7952 0
M  V30 14153 H 1298.44 3.75563 -4.33157 0
M  V30 14154 H 1296.84 3.32525 -4.99547 0
M  V30 14155 H 1297.91 2.04474 -4.3968 0
M  V30 14156 N 1299.25 1.36039 0.795694 0
M  V30 14157 C 1300.5 1.30112 1.5556 0
M  V30 14158 C 1300.83 -0.121197 1.93821 0
M  V30 14159 O 1300.1 -1.07313 1.62216 0
M  V30 14160 C 1300.39 2.21792 2.8369 0
M  V30 14161 C 1300.24 3.72691 2.51836 0
M  V30 14162 C 1301.56 2.12365 3.85472 0
M  V30 14163 H 1298.68 0.473971 0.564376 0
M  V30 14164 H 1301.32 1.66536 0.91465 0
M  V30 14165 H 1299.47 1.9086 3.38386 0
M  V30 14166 H 1301.14 4.14115 2.0324 0
M  V30 14167 H 1299.38 3.92436 1.84869 0
M  V30 14168 H 1300.06 4.32242 3.43323 0
M  V30 14169 H 1302.53 2.3958 3.40207 0
M  V30 14170 H 1301.41 2.78695 4.72885 0
M  V30 14171 H 1301.67 1.10898 4.27965 0
M  V30 14172 N 1300.73 -1.01913 1.20215 0
M  V30 14173 C 1302.01 -1.7262 0.919867 0
M  V30 14174 C 1302.39 -2.03203 -0.572001 0
M  V30 14175 O 1301.73 -1.69448 -1.53296 0
M  V30 14176 C 1301.94 -2.9959 1.79016 0
M  V30 14177 C 1303.29 -3.72905 2.03045 0
M  V30 14178 O 1304.32 -3.0954 1.76249 0
M  V30 14179 O 1303.17 -4.86844 2.48285 0
M  V30 14180 H 1300.27 -0.752194 0.343705 0
M  V30 14181 H 1302.81 -1.07783 1.31076 0
M  V30 14182 H 1301.59 -2.73292 2.80048 0
M  V30 14183 H 1301.21 -3.72168 1.39918 0
M  V30 14184 N 1302.21 -1.00763 -1.2118 0
M  V30 14185 C 1303.43 -0.710746 -1.94309 0
M  V30 14186 C 1303.85 0.727103 -1.74237 0
M  V30 14187 O 1303.21 1.49223 -1.05065 0
M  V30 14188 C 1303.26 -1.02562 -3.46646 0
M  V30 14189 O 1302.98 -2.40699 -3.66054 0
M  V30 14190 C 1304.48 -0.748517 -4.36935 0
M  V30 14191 H 1301.7 -0.26171 -0.617858 0
M  V30 14192 H 1304.24 -1.34639 -1.53924 0
M  V30 14193 H 1302.4 -0.435537 -3.84944 0
M  V30 14194 H 1302.81 -2.51764 -4.60125 0
M  V30 14195 H 1304.29 -1.01899 -5.42513 0
M  V30 14196 H 1304.76 0.317423 -4.38051 0
M  V30 14197 H 1305.37 -1.32033 -4.04286 0
M  V30 14198 N 1303.68 1.3679 -0.7827 0
M  V30 14199 C 1304.91 2.04206 -0.362571 0
M  V30 14200 C 1305.33 1.58637 1.01074 0
M  V30 14201 O 1304.69 0.751692 1.64983 0
M  V30 14202 C 1304.74 3.58062 -0.4271 0
M  V30 14203 O 1303.84 4.08463 0.56845 0
M  V30 14204 H 1303.19 0.645638 -0.155073 0
M  V30 14205 H 1305.72 1.74883 -1.06194 0
M  V30 14206 H 1305.73 4.0698 -0.288298 0
M  V30 14207 H 1304.4 3.90582 -1.42893 0
M  V30 14208 H 1302.98 3.70835 0.391863 0
M  V30 14209 N 1305.16 0.53415 1.48272 0
M  V30 14210 C 1306.41 0.00156948 2.021 0
M  V30 14211 C 1306.73 -1.34371 1.41313 0
M  V30 14212 O 1306 -1.87117 0.579996 0
M  V30 14213 H 1304.58 -0.00240789 0.746996 0
M  V30 14214 H 1307.24 0.698928 1.81937 0
M  V30 14215 H 1306.34 -0.103671 3.11928 0
M  V30 14216 N 1306.64 -1.55279 0.269478 0
M  V30 14217 C 1307.87 -2.03581 -0.351907 0
M  V30 14218 C 1308.28 -1.14747 -1.50432 0
M  V30 14219 O 1307.62 -0.158939 -1.83011 0
M  V30 14220 C 1307.68 -3.48041 -0.900444 0
M  V30 14221 C 1307.35 -4.56835 0.122612 0
M  V30 14222 C 1308.34 -5.11329 0.940149 0
M  V30 14223 C 1306.03 -5.01651 0.255224 0
M  V30 14224 C 1308.02 -6.09151 1.87654 0
M  V30 14225 C 1305.71 -5.993 1.19509 0
M  V30 14226 C 1306.71 -6.52931 2.00426 0
M  V30 14227 O 1306.4 -7.48671 2.92825 0
M  V30 14228 H 1306.13 -0.670627 -0.0850629 0
M  V30 14229 H 1308.68 -2.01514 0.39766 0
M  V30 14230 H 1306.91 -3.47329 -1.69998 0
M  V30 14231 H 1308.6 -3.79713 -1.43431 0
M  V30 14232 H 1309.37 -4.77522 0.848402 0
M  V30 14233 H 1305.25 -4.59556 -0.364579 0
M  V30 14234 H 1308.79 -6.50937 2.50853 0
M  V30 14235 H 1304.69 -6.32526 1.28768 0
M  V30 14236 H 1305.46 -7.66368 2.87442 0
M  V30 14237 N 1308.12 0.00332656 -1.576 0
M  V30 14238 C 1309.07 1.01406 -2.09331 0
M  V30 14239 C 1310.06 1.35806 -1.01258 0
M  V30 14240 O 1311.27 1.34409 -1.19726 0
M  V30 14241 H 1307.64 0.344661 -0.668366 0
M  V30 14242 H 1309.61 0.552154 -2.93247 0
M  V30 14243 C 1308.36 2.29819 -2.60918 0
M  V30 14244 H 1307.68 2.04216 -3.43709 0
M  V30 14245 H 1309.12 2.98826 -3.00797 0
M  V30 14246 C 1307.58 3.0057 -1.52182 0
M  V30 14247 O 1308.11 3.91423 -0.902817 0
M  V30 14248 N 1306.32 2.62338 -1.25009 0
M  V30 14249 H 1305.87 1.88538 -1.75531 0
M  V30 14250 H 1305.82 3.0999 -0.524736 0
M  V30 14251 N 1309.6 1.55164 0.276031 0
M  V30 14252 C 1310.56 1.87065 1.32436 0
M  V30 14253 C 1311.56 0.745024 1.42499 0
M  V30 14254 O 1312.75 1.01321 1.41702 0
M  V30 14255 C 1309.88 2.07322 2.70611 0
M  V30 14256 H 1311.07 2.80775 1.05382 0
M  V30 14257 H 1308.63 1.47609 0.513947 0
M  V30 14258 H 1309.36 1.15983 3.0285 0
M  V30 14259 H 1309.15 2.89275 2.64693 0
M  V30 14260 H 1310.64 2.33287 3.46362 0
M  V30 14261 N 1311.07 -0.540404 1.48045 0
M  V30 14262 C 1311.98 -1.67308 1.64455 0
M  V30 14263 C 1313 -1.65823 0.527152 0
M  V30 14264 O 1314.18 -1.84964 0.796881 0
M  V30 14265 C 1311.24 -3.03792 1.67068 0
M  V30 14266 C 1310.3 -3.16213 2.90358 0
M  V30 14267 C 1309.54 -4.46187 2.92837 0
M  V30 14268 O 1309.76 -5.32662 2.04029 0
M  V30 14269 O 1308.69 -4.62754 3.84892 0
M  V30 14270 H 1312.52 -1.56403 2.6033 0
M  V30 14271 H 1310.1 -0.712323 1.31325 0
M  V30 14272 H 1311.99 -3.84982 1.71368 0
M  V30 14273 H 1310.66 -3.15043 0.74363 0
M  V30 14274 H 1309.57 -2.34357 2.91595 0
M  V30 14275 H 1310.9 -3.09874 3.82412 0
M  V30 14276 N 1312.55 -1.36459 -0.788468 0
M  V30 14277 C 1313.8 -1.30935 -1.54867 0
M  V30 14278 C 1314.13 0.110916 -1.93883 0
M  V30 14279 O 1313.41 1.06452 -1.62783 0
M  V30 14280 C 1313.69 -2.23294 -2.8251 0
M  V30 14281 C 1313.54 -3.74022 -2.49856 0
M  V30 14282 C 1314.86 -2.14407 -3.84341 0
M  V30 14283 H 1311.98 -0.476958 -0.561854 0
M  V30 14284 H 1314.62 -1.67018 -0.905805 0
M  V30 14285 H 1312.77 -1.92652 -3.37369 0
M  V30 14286 H 1314.44 -4.15187 -2.01041 0
M  V30 14287 H 1312.69 -3.93411 -1.82785 0
M  V30 14288 H 1313.36 -4.34057 -3.41026 0
M  V30 14289 H 1315.83 -2.41381 -3.38932 0
M  V30 14290 H 1314.71 -2.81199 -4.71401 0
M  V30 14291 H 1314.97 -1.13166 -4.27371 0
M  V30 14292 N 1314.03 1.01274 -1.20754 0
M  V30 14293 C 1315.45 1.27256 -0.963221 0
M  V30 14294 C 1315.65 1.98349 0.354972 0
M  V30 14295 O 1314.7 2.28116 1.08255 0
M  V30 14296 C 1316.02 2.1038 -2.14851 0
M  V30 14297 C 1317.56 2.23633 -2.18991 0
M  V30 14298 C 1318.04 3.10136 -3.37016 0
M  V30 14299 N 1319.53 3.17724 -3.37054 0
M  V30 14300 C 1320.26 3.84891 -4.25025 0
M  V30 14301 N 1319.76 4.54152 -5.23181 0
M  V30 14302 N 1321.55 3.81454 -4.12855 0
M  V30 14303 H 1313.7 0.535534 -2.05538 0
M  V30 14304 H 1315.97 0.299006 -0.899611 0
M  V30 14305 H 1315.67 1.65484 -3.10335 0
M  V30 14306 H 1315.55 3.11122 -2.13267 0
M  V30 14307 H 1317.93 2.67753 -1.24067 0
M  V30 14308 H 1318.02 1.22387 -2.24622 0
M  V30 14309 H 1317.66 2.66721 -4.32229 0
M  V30 14310 H 1317.59 4.11478 -3.28623 0
M  V30 14311 H 1320.08 2.68412 -2.66014 0
M  V30 14312 H 1320.39 5.03084 -5.86623 0
M  V30 14313 H 1318.74 4.52964 -5.27113 0
M  V30 14314 H 1321.93 3.26494 -3.35439 0
M  V30 14315 H 1322.1 4.33523 -4.81624 0
M  V30 14316 N 1315.51 1.01404 1.20644 0
M  V30 14317 C 1316.76 0.702949 1.90227 0
M  V30 14318 C 1317.09 -0.765243 1.78487 0
M  V30 14319 O 1316.36 -1.55569 1.16741 0
M  V30 14320 C 1316.65 1.13606 3.4171 0
M  V30 14321 C 1316.5 2.66437 3.62397 0
M  V30 14322 C 1317.82 0.705361 4.34411 0
M  V30 14323 H 1314.94 0.256842 0.690797 0
M  V30 14324 H 1317.58 1.26133 1.42093 0
M  V30 14325 H 1315.73 0.660977 3.82836 0
M  V30 14326 H 1317.4 3.21778 3.3054 0
M  V30 14327 H 1315.64 3.0753 3.05954 0
M  V30 14328 H 1316.32 2.91795 4.68572 0
M  V30 14329 H 1318.79 1.11375 4.00918 0
M  V30 14330 H 1317.67 1.03647 5.39026 0
M  V30 14331 H 1317.93 -0.393094 4.40349 0
M  V30 14332 N 1316.99 -1.36373 0.789944 0
M  V30 14333 C 1318.24 -1.98834 0.361866 0
M  V30 14334 C 1318.56 -1.63006 -1.07024 0
M  V30 14335 O 1317.83 -0.904312 -1.73779 0
M  V30 14336 H 1316.41 -0.735457 0.130812 0
M  V30 14337 H 1319.07 -1.66561 1.0121 0
M  V30 14338 H 1318.16 -3.08778 0.454122 0
M  V30 14339 N 1318.47 -0.542005 -1.47987 0
M  V30 14340 C 1319.74 0.0526494 -1.95529 0
M  V30 14341 C 1320.12 1.50092 -1.48444 0
M  V30 14342 O 1319.47 2.16981 -0.716347 0
M  V30 14343 C 1319.68 -0.0770524 -3.48915 0
M  V30 14344 C 1321.03 0.0760849 -4.24532 0
M  V30 14345 O 1322.05 -0.00384644 -3.562 0
M  V30 14346 O 1320.91 0.245406 -5.45949 0
M  V30 14347 H 1318.01 0.0726163 -0.823806 0
M  V30 14348 H 1320.55 -0.607454 -1.58455 0
M  V30 14349 H 1319.32 -1.08544 -3.75944 0
M  V30 14350 H 1318.95 0.621357 -3.92715 0
M  V30 14351 N 1319.94 1.55134 -0.277709 0
M  V30 14352 C 1320.89 2.24057 0.624594 0
M  V30 14353 C 1321.89 1.23848 1.15577 0
M  V30 14354 O 1323.09 1.41771 1.1091 0
M  V30 14355 H 1319.47 0.719106 0.219977 0
M  V30 14356 H 1321.44 2.98393 0.0204815 0
M  V30 14357 C 1320.19 2.97712 1.79618 0
M  V30 14358 H 1319.51 3.74611 1.39665 0
M  V30 14359 H 1320.95 3.49255 2.4041 0
M  V30 14360 C 1319.41 2.03332 2.68622 0
M  V30 14361 O 1319.94 1.58622 3.69056 0
M  V30 14362 N 1318.14 1.69778 2.35847 0
M  V30 14363 H 1317.69 2.06333 1.54222 0
M  V30 14364 H 1317.65 1.06901 2.95668 0
M  V30 14365 N 1321.42 0.00503138 1.57599 0
M  V30 14366 C 1322.67 -0.679766 1.91068 0
M  V30 14367 C 1323 -1.73144 0.879486 0
M  V30 14368 O 1322.28 -1.94237 -0.101116 0
M  V30 14369 C 1322.56 -1.3183 3.35101 0
M  V30 14370 C 1322.41 -0.277833 4.48941 0
M  V30 14371 C 1323.73 -2.24308 3.78647 0
M  V30 14372 H 1320.85 -0.245646 0.694857 0
M  V30 14373 H 1323.49 0.057357 1.89913 0
M  V30 14374 H 1321.64 -1.94657 3.36216 0
M  V30 14375 H 1323.31 0.351136 4.59962 0
M  V30 14376 H 1321.56 0.399365 4.31958 0
M  V30 14377 H 1322.23 -0.763759 5.46691 0
M  V30 14378 H 1324.7 -1.71494 3.79116 0
M  V30 14379 H 1323.58 -2.6595 4.80169 0
M  V30 14380 H 1323.84 -3.12427 3.12797 0
M  V30 14381 N 1322.9 -1.55308 -0.267798 0
M  V30 14382 C 1323.83 -1.84963 -1.35356 0
M  V30 14383 C 1324.84 -0.73446 -1.45291 0
M  V30 14384 O 1326.03 -1.01237 -1.47015 0
M  V30 14385 C 1323.13 -2.00221 -2.73432 0
M  V30 14386 C 1322.31 -3.30922 -2.86024 0
M  V30 14387 C 1321.37 -3.3618 -4.04808 0
M  V30 14388 O 1320.39 -4.09525 -3.9532 0
M  V30 14389 N 1321.59 -2.63958 -5.17017 0
M  V30 14390 H 1324.36 -2.7868 -1.1026 0
M  V30 14391 H 1321.92 -1.55289 -0.457914 0
M  V30 14392 H 1323.91 -2.01103 -3.51197 0
M  V30 14393 H 1322.48 -1.13346 -2.91327 0
M  V30 14394 H 1321.7 -3.42534 -1.951 0
M  V30 14395 H 1322.99 -4.17109 -2.91371 0
M  V30 14396 H 1322.39 -2.04062 -5.27613 0
M  V30 14397 H 1320.94 -2.70558 -5.92994 0
M  V30 14398 N 1324.38 0.532545 -1.4833 0
M  V30 14399 C 1325.31 1.64662 -1.65555 0
M  V30 14400 C 1326.29 1.62447 -0.50447 0
M  V30 14401 O 1327.47 1.79684 -0.736712 0
M  V30 14402 C 1324.6 3.03256 -1.69272 0
M  V30 14403 C 1323.56 3.20329 -2.83854 0
M  V30 14404 C 1322.88 4.59958 -2.72659 0
M  V30 14405 C 1324.18 3.03345 -4.25181 0
M  V30 14406 H 1325.88 1.50502 -2.58823 0
M  V30 14407 H 1323.42 0.722612 -1.24556 0
M  V30 14408 H 1325.38 3.81064 -1.79911 0
M  V30 14409 H 1324.1 3.18433 -0.725805 0
M  V30 14410 H 1322.76 2.44937 -2.72766 0
M  V30 14411 H 1322.41 4.71967 -1.73942 0
M  V30 14412 H 1322.11 4.72327 -3.49544 0
M  V30 14413 H 1323.63 5.39869 -2.85262 0
M  V30 14414 H 1325.05 3.70948 -4.37116 0
M  V30 14415 H 1323.44 3.27208 -5.03045 0
M  V30 14416 H 1324.51 1.998 -4.41824 0
M  V30 14417 N 1325.86 1.36875 0.78122 0
M  V30 14418 C 1326.8 1.31941 1.91557 0
M  V30 14419 C 1327.8 0.209783 1.68096 0
M  V30 14420 O 1329 0.377266 1.76002 0
M  V30 14421 H 1325.38 0.410955 0.629778 0
M  V30 14422 H 1327.35 2.27721 1.92836 0
M  V30 14423 C 1326.1 1.13379 3.28695 0
M  V30 14424 H 1325.42 1.98013 3.47319 0
M  V30 14425 H 1326.86 1.13976 4.08394 0
M  V30 14426 C 1325.32 -0.161119 3.36515 0
M  V30 14427 O 1325.85 -1.14806 3.84945 0
M  V30 14428 N 1324.06 -0.208594 2.8985 0
M  V30 14429 H 1323.6 0.595187 2.5063 0
M  V30 14430 H 1323.56 -1.07465 2.95463 0
M  V30 14431 N 1327.33 -1.00632 1.21289 0
M  V30 14432 C 1328.56 -1.77967 1.05524 0
M  V30 14433 C 1328.98 -1.84621 -0.395023 0
M  V30 14434 O 1328.33 -1.30664 -1.27409 0
M  V30 14435 C 1328.38 -3.21939 1.64432 0
M  V30 14436 O 1328.11 -3.15669 3.03784 0
M  V30 14437 C 1329.61 -4.1578 1.5376 0
M  V30 14438 H 1326.83 -0.559341 0.370646 0
M  V30 14439 H 1329.37 -1.26604 1.60598 0
M  V30 14440 H 1327.53 -3.70415 1.13453 0
M  V30 14441 H 1327.94 -4.06112 3.31924 0
M  V30 14442 H 1329.41 -5.14602 1.99722 0
M  V30 14443 H 1329.89 -4.36438 0.491811 0
M  V30 14444 H 1330.5 -3.73192 2.0398 0
M  V30 14445 N 1328.81 -1.02043 -1.20104 0
M  V30 14446 C 1330.06 -0.707271 -1.88893 0
M  V30 14447 C 1330.37 0.766617 -1.79951 0
M  V30 14448 O 1331.58 1.19248 -2.4391 0
M  V30 14449 C 1330.04 -1.2147 -3.38782 0
M  V30 14450 C 1329.64 -2.71576 -3.56301 0
M  V30 14451 C 1331.39 -0.977146 -4.13101 0
M  V30 14452 C 1329.29 -3.15781 -5.00037 0
M  V30 14453 H 1328.22 -0.26086 -0.707438 0
M  V30 14454 H 1330.88 -1.23361 -1.35846 0
M  V30 14455 H 1329.26 -0.616315 -3.91175 0
M  V30 14456 H 1330.43 -3.36997 -3.14276 0
M  V30 14457 H 1328.75 -2.93517 -2.95359 0
M  V30 14458 H 1331.34 -1.28278 -5.19085 0
M  V30 14459 H 1331.69 0.0862909 -4.16211 0
M  V30 14460 H 1332.22 -1.5391 -3.6682 0
M  V30 14461 H 1328.96 -4.21417 -5.02084 0
M  V30 14462 H 1328.48 -2.55083 -5.42856 0
M  V30 14463 H 1330.16 -3.08637 -5.6864 0
M  V30 14464 N 1330.29 1.35952 -0.797165 0
M  V30 14465 C 1331.52 2.02986 -0.384758 0
M  V30 14466 C 1331.93 1.60233 1.00608 0
M  V30 14467 O 1331.27 0.790955 1.658 0
M  V30 14468 C 1331.33 3.57508 -0.37795 0
M  V30 14469 C 1331 4.23491 -1.71769 0
M  V30 14470 C 1331.99 4.45835 -2.67445 0
M  V30 14471 C 1329.68 4.60804 -1.99911 0
M  V30 14472 C 1331.67 5.04584 -3.89453 0
M  V30 14473 C 1329.36 5.19269 -3.22185 0
M  V30 14474 C 1330.36 5.41099 -4.16774 0
M  V30 14475 O 1330.05 5.98334 -5.36891 0
M  V30 14476 H 1329.78 0.657838 -0.155644 0
M  V30 14477 H 1332.33 1.7475 -1.07942 0
M  V30 14478 H 1330.56 3.84894 0.373253 0
M  V30 14479 H 1332.25 4.05899 0.0108505 0
M  V30 14480 H 1333.02 4.17397 -2.46992 0
M  V30 14481 H 1328.9 4.43132 -1.27102 0
M  V30 14482 H 1332.44 5.21539 -4.63296 0
M  V30 14483 H 1328.34 5.47134 -3.42512 0
M  V30 14484 H 1329.11 6.16794 -5.38059 0
M  V30 14485 N 1331.77 0.549846 1.47697 0
M  V30 14486 C 1333 0.0276889 2.06881 0
M  V30 14487 C 1333.41 -1.26273 1.40359 0
M  V30 14488 O 1332.77 -1.75584 0.497644 0
M  V30 14489 C 1332.82 -0.179291 3.61055 0
M  V30 14490 O 1332.54 1.06002 4.25083 0
M  V30 14491 C 1334.04 -0.739571 4.37087 0
M  V30 14492 H 1331.26 0.0425016 0.669653 0
M  V30 14493 H 1333.81 0.761158 1.89807 0
M  V30 14494 H 1331.96 -0.862867 3.77668 0
M  V30 14495 H 1332.37 0.853137 5.17515 0
M  V30 14496 H 1333.85 -0.833722 5.45668 0
M  V30 14497 H 1334.33 -1.74915 4.02867 0
M  V30 14498 H 1334.93 -0.0919294 4.25201 0
M  V30 14499 N 1333.25 -1.54984 0.285932 0
M  V30 14500 C 1334.19 -2.24385 -0.612703 0
M  V30 14501 C 1335.19 -1.24459 -1.14918 0
M  V30 14502 O 1336.39 -1.42357 -1.10156 0
M  V30 14503 H 1332.77 -0.720263 -0.21616 0
M  V30 14504 H 1334.74 -2.984 -0.00465668 0
M  V30 14505 C 1333.49 -2.98661 -1.78037 0
M  V30 14506 H 1332.81 -3.75347 -1.37676 0
M  V30 14507 H 1334.25 -3.50525 -2.38554 0
M  V30 14508 C 1332.71 -2.04754 -2.67539 0
M  V30 14509 O 1333.24 -1.60577 -3.68209 0
M  V30 14510 N 1331.45 -1.71026 -2.34944 0
M  V30 14511 H 1330.99 -2.07148 -1.53126 0
M  V30 14512 H 1330.95 -1.08467 -2.95097 0
M  V30 14513 N 1334.72 -0.0133892 -1.57594 0
M  V30 14514 C 1336 0.706416 -1.82398 0
M  V30 14515 C 1336.38 1.91236 -0.893983 0
M  V30 14516 O 1335.73 2.28436 0.0541675 0
M  V30 14517 C 1335.94 1.09951 -3.31228 0
M  V30 14518 C 1337.29 1.49776 -3.97306 0
M  V30 14519 O 1338.31 1.19293 -3.3563 0
M  V30 14520 O 1337.17 2.06511 -5.0598 0
M  V30 14521 H 1334.26 0.345131 -0.751541 0
M  V30 14522 H 1336.81 -0.0398687 -1.69653 0
M  V30 14523 H 1335.58 0.240514 -3.9056 0
M  V30 14524 H 1335.21 1.90447 -3.49021 0
M  V30 14525 N 1336.2 1.55448 0.259558 0
M  V30 14526 C 1337.45 1.76686 0.98935 0
M  V30 14527 C 1337.78 0.575434 1.85793 0
M  V30 14528 O 1337.03 -0.441676 1.90651 0
M  V30 14529 C 1337.33 3.03292 1.89073 0
M  V30 14530 C 1337 4.35225 1.17855 0
M  V30 14531 C 1335.66 4.7108 0.981675 0
M  V30 14532 C 1338.01 5.16839 0.6728 0
M  V30 14533 C 1335.34 5.86094 0.266551 0
M  V30 14534 C 1337.69 6.32593 -0.0287965 0
M  V30 14535 C 1336.36 6.67078 -0.23726 0
M  V30 14536 H 1335.63 0.646542 0.362029 0
M  V30 14537 H 1338.27 1.8972 0.260488 0
M  V30 14538 H 1336.58 2.85217 2.68624 0
M  V30 14539 H 1338.27 3.16923 2.45685 0
M  V30 14540 H 1334.86 4.07051 1.34192 0
M  V30 14541 H 1339.05 4.89604 0.812481 0
M  V30 14542 H 1334.3 6.11327 0.0944447 0
M  V30 14543 H 1338.48 6.95081 -0.428378 0
M  V30 14544 H 1336.11 7.56049 -0.793358 0
M  V30 14545 N 1337.68 -0.524672 1.4861 0
M  V30 14546 C 1338.63 -1.62872 1.63527 0
M  V30 14547 C 1339.6 -1.59097 0.477202 0
M  V30 14548 O 1340.78 -1.77443 0.701341 0
M  V30 14549 C 1337.92 -3.01116 1.68592 0
M  V30 14550 C 1337.04 -3.15085 2.95542 0
M  V30 14551 C 1336.17 -4.4392 2.91734 0
M  V30 14552 C 1335.21 -4.51436 4.13366 0
M  V30 14553 N 1334.35 -5.71667 4.07605 0
M  V30 14554 H 1339.19 -1.49462 2.57808 0
M  V30 14555 H 1336.72 -0.727578 1.27846 0
M  V30 14556 H 1338.68 -3.81212 1.6951 0
M  V30 14557 H 1337.31 -3.13285 0.777975 0
M  V30 14558 H 1336.36 -2.28207 3.04345 0
M  V30 14559 H 1337.68 -3.165 3.85524 0
M  V30 14560 H 1336.83 -5.32312 2.91083 0
M  V30 14561 H 1335.57 -4.45034 1.9949 0
M  V30 14562 H 1334.57 -3.6145 4.14287 0
M  V30 14563 H 1335.8 -4.52057 5.06776 0
M  V30 14564 H 1333.74 -5.73668 3.18184 0
M  V30 14565 H 1333.66 -5.74599 4.91297 0
M  V30 14566 H 1334.93 -6.62331 4.1102 0
M  V30 14567 N 1339.16 -1.37287 -0.77395 0
M  V30 14568 C 1340.09 -1.35569 -1.90114 0
M  V30 14569 C 1341.07 -0.224658 -1.6861 0
M  V30 14570 O 1342.25 -0.424676 -1.895 0
M  V30 14571 C 1339.38 -1.15971 -3.27365 0
M  V30 14572 C 1338.34 -2.26063 -3.63427 0
M  V30 14573 C 1337.66 -1.9159 -4.99197 0
M  V30 14574 C 1338.96 -3.68236 -3.70405 0
M  V30 14575 H 1340.66 -2.29891 -1.91808 0
M  V30 14576 H 1338.2 -1.10661 -0.92142 0
M  V30 14577 H 1340.16 -1.134 -4.05855 0
M  V30 14578 H 1338.88 -0.181043 -3.26098 0
M  V30 14579 H 1337.54 -2.27786 -2.87244 0
M  V30 14580 H 1337.19 -0.922586 -4.94467 0
M  V30 14581 H 1336.89 -2.65309 -5.24294 0
M  V30 14582 H 1338.41 -1.90602 -5.80089 0
M  V30 14583 H 1339.83 -3.68655 -4.39052 0
M  V30 14584 H 1338.22 -4.4099 -4.06999 0
M  V30 14585 H 1339.29 -4.02021 -2.71122 0
M  V30 14586 N 1340.64 0.999871 -1.21821 0
M  V30 14587 C 1341.86 1.7794 -1.06546 0
M  V30 14588 C 1342.29 1.84219 0.380115 0
M  V30 14589 O 1341.64 1.28955 1.27438 0
M  V30 14590 C 1341.69 3.1943 -1.67322 0
M  V30 14591 O 1340.8 4.01957 -0.922171 0
M  V30 14592 H 1340.14 0.548204 -0.374658 0
M  V30 14593 H 1342.67 1.2565 -1.61472 0
M  V30 14594 H 1342.68 3.70086 -1.71757 0
M  V30 14595 H 1341.35 3.14175 -2.7252 0
M  V30 14596 H 1339.93 3.60509 -0.95331 0
M  V30 14597 N 1342.11 1.02678 1.19562 0
M  V30 14598 C 1343.34 0.741424 1.93695 0
M  V30 14599 C 1343.76 -0.693203 1.74861 0
M  V30 14600 O 1343.12 -1.47833 1.04953 0
M  V30 14601 C 1343.17 1.09514 3.43568 0
M  V30 14602 O 1342.27 0.212596 4.11852 0
M  V30 14603 H 1341.62 0.274128 0.604773 0
M  V30 14604 H 1344.15 1.37289 1.517 0
M  V30 14605 H 1344.16 1.05115 3.94227 0
M  V30 14606 H 1342.83 2.14034 3.56598 0
M  V30 14607 H 1341.41 0.315 3.71567 0
M  V30 14608 N 1343.59 -1.35528 0.804364 0
M  V30 14609 C 1344.82 -2.03604 0.395013 0
M  V30 14610 C 1345.24 -1.60225 -0.985371 0
M  V30 14611 O 1344.6 -0.777844 -1.63766 0
M  V30 14612 C 1344.65 -3.57337 0.484011 0
M  V30 14613 O 1343.75 -4.09316 -0.503395 0
M  V30 14614 H 1343.09 -0.643089 0.165325 0
M  V30 14615 H 1345.62 -1.73171 1.08963 0
M  V30 14616 H 1345.63 -4.0647 0.353009 0
M  V30 14617 H 1344.31 -3.8826 1.49088 0
M  V30 14618 H 1342.89 -3.71412 -0.332817 0
M  V30 14619 N 1345.07 -0.557671 -1.47404 0
M  V30 14620 C 1346.32 -0.0337216 -2.02072 0
M  V30 14621 C 1346.64 1.32106 -1.43433 0
M  V30 14622 O 1345.91 1.86171 -0.609692 0
M  V30 14623 H 1344.49 -0.00947648 -0.74694 0
M  V30 14624 H 1347.15 -0.727784 -1.80802 0
M  V30 14625 H 1346.25 0.0540331 -3.12053 0
M  V30 14626 N 1346.55 1.54831 -0.294147 0
M  V30 14627 C 1347.83 1.92071 0.369902 0
M  V30 14628 C 1348.21 1.22061 1.72233 0
M  V30 14629 O 1347.55 0.353975 2.25742 0
M  V30 14630 C 1347.76 3.45524 0.49135 0
M  V30 14631 C 1349.11 4.17644 0.765411 0
M  V30 14632 O 1350.14 3.51521 0.575428 0
M  V30 14633 O 1349 5.34692 1.12992 0
M  V30 14634 H 1346.09 0.801033 0.20561 0
M  V30 14635 H 1348.64 1.66224 -0.341702 0
M  V30 14636 H 1347.41 3.88591 -0.459663 0
M  V30 14637 H 1347.03 3.77384 1.25169 0
M  V30 14638 N 1348.03 0.0217466 1.57585 0
M  V30 14639 C 1348.97 -0.962559 2.0977 0
M  V30 14640 C 1349.94 -1.32771 0.998053 0
M  V30 14641 O 1351.13 -1.42231 1.27181 0
M  V30 14642 C 1348.27 -2.24214 2.62339 0
M  V30 14643 C 1347.38 -1.9341 3.86286 0
M  V30 14644 C 1346.52 -3.15609 4.27275 0
M  V30 14645 C 1345.56 -2.8059 5.43999 0
M  V30 14646 N 1344.69 -3.95392 5.8018 0
M  V30 14647 H 1349.53 -0.510626 2.93593 0
M  V30 14648 H 1347.07 -0.240456 1.45121 0
M  V30 14649 H 1349.03 -2.99049 2.90905 0
M  V30 14650 H 1347.66 -2.67037 1.81358 0
M  V30 14651 H 1346.71 -1.08849 3.64494 0
M  V30 14652 H 1348.02 -1.63614 4.71203 0
M  V30 14653 H 1347.18 -3.9877 4.57239 0
M  V30 14654 H 1345.92 -3.48561 3.41111 0
M  V30 14655 H 1344.92 -1.9584 5.13738 0
M  V30 14656 H 1346.15 -2.48863 6.31858 0
M  V30 14657 H 1344.09 -4.282 4.96971 0
M  V30 14658 H 1344.01 -3.69195 6.59721 0
M  V30 14659 H 1345.28 -4.79279 6.14746 0
M  V30 14660 N 1349.51 -1.55583 -0.251311 0
M  V30 14661 C 1350.75 -1.76411 -0.977859 0
M  V30 14662 C 1351.07 -0.584857 -1.86651 0
M  V30 14663 O 1352.27 -0.676046 -2.62948 0
M  V30 14664 C 1350.73 -3.12302 -1.78872 0
M  V30 14665 C 1350.34 -4.37862 -0.947674 0
M  V30 14666 C 1352.08 -3.42471 -2.50827 0
M  V30 14667 C 1349.99 -5.64786 -1.75417 0
M  V30 14668 H 1348.92 -0.657628 -0.368839 0
M  V30 14669 H 1351.57 -1.82019 -0.232682 0
M  V30 14670 H 1349.95 -3.0079 -2.57569 0
M  V30 14671 H 1351.13 -4.60351 -0.203352 0
M  V30 14672 H 1349.44 -4.14996 -0.341666 0
M  V30 14673 H 1352.04 -4.34514 -3.11612 0
M  V30 14674 H 1352.38 -2.63592 -3.22219 0
M  V30 14675 H 1352.91 -3.55179 -1.79145 0
M  V30 14676 H 1349.65 -6.46474 -1.08407 0
M  V30 14677 H 1349.17 -5.46405 -2.47389 0
M  V30 14678 H 1350.85 -6.03881 -2.32242 0
M  V30 14679 N 1350.98 0.516783 -1.48886 0
M  V30 14680 C 1352.23 1.26841 -1.56825 0
M  V30 14681 C 1352.55 1.93957 -0.252998 0
M  V30 14682 O 1353.75 2.70681 -0.210765 0
M  V30 14683 C 1352.21 2.30223 -2.76633 0
M  V30 14684 C 1351.82 1.69117 -4.14853 0
M  V30 14685 C 1353.56 3.06313 -2.93893 0
M  V30 14686 C 1351.47 2.70516 -5.25904 0
M  V30 14687 H 1350.4 0.477087 -0.58387 0
M  V30 14688 H 1353.05 0.544187 -1.75245 0
M  V30 14689 H 1351.43 3.05739 -2.51674 0
M  V30 14690 H 1352.6 0.997003 -4.49885 0
M  V30 14691 H 1350.92 1.05473 -4.0282 0
M  V30 14692 H 1353.52 3.8211 -3.74027 0
M  V30 14693 H 1353.86 3.62976 -2.03848 0
M  V30 14694 H 1354.39 2.37911 -3.18815 0
M  V30 14695 H 1351.13 2.18655 -6.17956 0
M  V30 14696 H 1350.65 3.38221 -4.95345 0
M  V30 14697 H 1352.33 3.3325 -5.54575 0
M  V30 14698 N 1352.46 1.37696 0.766659 0
M  V30 14699 C 1353.71 1.33382 1.52765 0
M  V30 14700 C 1354.04 -0.0800569 1.94035 0
M  V30 14701 O 1353.32 -1.03848 1.64456 0
M  V30 14702 C 1353.6 2.2776 2.78922 0
M  V30 14703 C 1353.45 3.77949 2.43874 0
M  V30 14704 C 1354.77 2.20494 3.80881 0
M  V30 14705 H 1351.89 0.485836 0.554195 0
M  V30 14706 H 1354.53 1.68438 0.879119 0
M  V30 14707 H 1352.68 1.97994 3.34261 0
M  V30 14708 H 1354.35 4.18333 1.9441 0
M  V30 14709 H 1352.6 3.96269 1.76503 0
M  V30 14710 H 1353.27 4.39428 3.34077 0
M  V30 14711 H 1355.74 2.46742 3.35048 0
M  V30 14712 H 1354.62 2.88663 4.66867 0
M  V30 14713 H 1354.88 1.19951 4.25516 0
M  V30 14714 N 1353.94 -0.993397 1.22349 0
M  V30 14715 C 1354.89 -2.10463 0.990358 0
M  V30 14716 C 1355.88 -1.6927 -0.0663528 0
M  V30 14717 O 1357.09 -1.79794 0.0860444 0
M  V30 14718 H 1353.46 -0.688222 0.303075 0
M  V30 14719 H 1355.43 -2.273 1.93333 0
M  V30 14720 C 1354.18 -3.42757 0.584205 0
M  V30 14721 H 1353.51 -3.74896 1.38899 0
M  V30 14722 H 1354.95 -4.21492 0.46049 0
M  V30 14723 C 1353.4 -3.29416 -0.706187 0
M  V30 14724 O 1353.93 -3.61152 -1.75875 0
M  V30 14725 N 1352.14 -2.82601 -0.677148 0
M  V30 14726 H 1351.69 -2.56972 0.179712 0
M  V30 14727 H 1351.65 -2.74056 -1.54081 0
M  V30 14728 N 1355.42 -1.03311 -1.19015 0
M  V30 14729 C 1356.35 -0.638279 -2.24607 0
M  V30 14730 C 1357.33 0.354795 -1.66359 0
M  V30 14731 O 1358.51 0.236574 -1.92754 0
M  V30 14732 C 1355.64 0.00737316 -3.47299 0
M  V30 14733 C 1354.6 -0.908431 -4.18248 0
M  V30 14734 C 1353.92 -0.127658 -5.34548 0
M  V30 14735 C 1355.22 -2.2241 -4.72579 0
M  V30 14736 H 1356.92 -1.52099 -2.57888 0
M  V30 14737 H 1354.46 -0.732779 -1.23961 0
M  V30 14738 H 1356.42 0.295256 -4.20364 0
M  V30 14739 H 1355.14 0.924912 -3.1323 0
M  V30 14740 H 1353.8 -1.18058 -3.47071 0
M  V30 14741 H 1353.45 0.792048 -4.96725 0
M  V30 14742 H 1353.15 -0.737702 -5.82951 0
M  V30 14743 H 1354.67 0.153385 -6.10407 0
M  V30 14744 H 1356.09 -1.99745 -5.37378 0
M  V30 14745 H 1354.48 -2.78644 -5.31486 0
M  V30 14746 H 1355.55 -2.87584 -3.90415 0
M  V30 14747 N 1356.9 1.35099 -0.81154 0
M  V30 14748 C 1357.84 2.31618 -0.213536 0
M  V30 14749 C 1358.84 1.56868 0.63944 0
M  V30 14750 O 1360.04 1.71957 0.532051 0
M  V30 14751 H 1356.42 0.750316 -0.0502963 0
M  V30 14752 H 1358.39 2.79593 -1.04262 0
M  V30 14753 C 1357.14 3.4214 0.619293 0
M  V30 14754 H 1356.46 3.9979 -0.0277192 0
M  V30 14755 H 1357.9 4.11941 1.00401 0
M  V30 14756 C 1356.36 2.85607 1.7869 0
M  V30 14757 O 1356.89 2.7956 2.8846 0
M  V30 14758 N 1355.1 2.42587 1.6 0
M  V30 14759 H 1354.64 2.47705 0.707105 0
M  V30 14760 H 1354.6 2.0511 2.38279 0
M  V30 14761 N 1358.37 0.56548 1.47106 0
M  V30 14762 C 1359.32 -0.190542 2.31818 0
M  V30 14763 C 1360.32 -0.901279 1.43434 0
M  V30 14764 O 1361.52 -0.821625 1.60154 0
M  V30 14765 H 1357.9 -0.0803183 0.747698 0
M  V30 14766 H 1359.87 0.542999 2.93418 0
M  V30 14767 C 1358.62 -1.20208 3.2626 0
M  V30 14768 H 1357.94 -0.664608 3.94237 0
M  V30 14769 H 1359.38 -1.7018 3.88349 0
M  V30 14770 C 1357.84 -2.25423 2.50372 0
M  V30 14771 O 1358.37 -3.3249 2.25418 0
M  V30 14772 N 1356.57 -1.9957 2.11235 0
M  V30 14773 H 1356.12 -1.12513 2.31729 0
M  V30 14774 H 1356.08 -2.70182 1.60777 0
M  V30 14775 N 1359.85 -1.54672 0.302354 0
M  V30 14776 C 1360.8 -2.25022 -0.58887 0
M  V30 14777 C 1361.79 -1.25671 -1.13592 0
M  V30 14778 O 1363 -1.43518 -1.0864 0
M  V30 14779 H 1359.38 -0.722515 -0.208509 0
M  V30 14780 H 1361.35 -2.98388 0.0269928 0
M  V30 14781 C 1360.1 -3.00532 -1.74859 0
M  V30 14782 H 1359.42 -3.76786 -1.33688 0
M  V30 14783 H 1360.86 -3.53036 -2.34823 0
M  V30 14784 C 1359.32 -2.0758 -2.65353 0
M  V30 14785 O 1359.85 -1.64473 -3.66485 0
M  V30 14786 N 1358.05 -1.73508 -2.33116 0
M  V30 14787 H 1357.6 -2.0876 -1.5092 0
M  V30 14788 H 1357.56 -1.11591 -2.9393 0
M  V30 14789 N 1361.33 -0.0301034 -1.57571 0
M  V30 14790 C 1362.58 0.647672 -1.91019 0
M  V30 14791 C 1362.89 1.73234 -0.908265 0
M  V30 14792 O 1364.1 2.46682 -1.13402 0
M  V30 14793 C 1362.55 1.20327 -3.3919 0
M  V30 14794 C 1362.16 0.151833 -4.47743 0
M  V30 14795 C 1363.91 1.8575 -3.81703 0
M  V30 14796 C 1361.81 0.719119 -5.87012 0
M  V30 14797 H 1360.74 0.245682 -0.712851 0
M  V30 14798 H 1363.39 -0.0955645 -1.83251 0
M  V30 14799 H 1361.78 1.99814 -3.41892 0
M  V30 14800 H 1362.95 -0.620659 -4.56601 0
M  V30 14801 H 1361.27 -0.403699 -4.14438 0
M  V30 14802 H 1363.86 2.29151 -4.83109 0
M  V30 14803 H 1364.21 2.70061 -3.16817 0
M  V30 14804 H 1364.74 1.1295 -3.81428 0
M  V30 14805 H 1361.48 -0.0858832 -6.55444 0
M  V30 14806 H 1361 1.46008 -5.81758 0
M  V30 14807 H 1362.68 1.20856 -6.35612 0
M  V30 14808 N 1362.81 1.55714 0.243056 0
M  V30 14809 C 1363.74 1.93655 1.30461 0
M  V30 14810 C 1364.72 0.801968 1.50008 0
M  V30 14811 O 1365.9 1.06256 1.62552 0
M  V30 14812 C 1363.03 2.23459 2.65863 0
M  V30 14813 C 1361.99 3.39205 2.61006 0
M  V30 14814 C 1361.31 3.5456 4.00239 0
M  V30 14815 C 1362.61 4.74787 2.17656 0
M  V30 14816 H 1364.31 2.82575 0.98954 0
M  V30 14817 H 1361.85 1.35955 0.474572 0
M  V30 14818 H 1363.81 2.48591 3.40266 0
M  V30 14819 H 1362.53 1.31369 2.99014 0
M  V30 14820 H 1361.19 3.14088 1.89061 0
M  V30 14821 H 1360.84 2.59884 4.30661 0
M  V30 14822 H 1360.54 4.32399 3.97876 0
M  V30 14823 H 1362.06 3.82017 4.76335 0
M  V30 14824 H 1363.48 4.99266 2.81792 0
M  V30 14825 H 1361.87 5.55756 2.26397 0
M  V30 14826 H 1362.94 4.7159 1.12831 0
M  V30 14827 N 1364.29 -0.50888 1.49158 0
M  V30 14828 C 1365.52 -1.28585 1.61708 0
M  V30 14829 C 1365.92 -1.87047 0.284629 0
M  V30 14830 O 1365.27 -1.68182 -0.738959 0
M  V30 14831 C 1365.33 -2.46043 2.62113 0
M  V30 14832 C 1364.99 -2.0851 4.0666 0
M  V30 14833 C 1365.99 -1.62943 4.93706 0
M  V30 14834 C 1363.68 -2.18386 4.52342 0
M  V30 14835 C 1365.67 -1.27747 6.24467 0
M  V30 14836 C 1363.36 -1.82801 5.83118 0
M  V30 14837 C 1364.35 -1.37555 6.69005 0
M  V30 14838 O 1364.04 -1.02447 7.97345 0
M  V30 14839 H 1363.77 -0.396504 0.547504 0
M  V30 14840 H 1366.33 -0.61834 1.95872 0
M  V30 14841 H 1364.56 -3.15844 2.23113 0
M  V30 14842 H 1366.25 -3.08081 2.64275 0
M  V30 14843 H 1367.01 -1.54766 4.59644 0
M  V30 14844 H 1362.89 -2.52556 3.85664 0
M  V30 14845 H 1366.44 -0.923589 6.91459 0
M  V30 14846 H 1362.33 -1.90626 6.16711 0
M  V30 14847 H 1363.1 -1.15663 8.10287 0
M  V30 14848 N 1365.76 -1.381 -0.759346 0
M  V30 14849 C 1366.99 -1.37389 -1.55367 0
M  V30 14850 C 1367.41 0.0356097 -1.88066 0
M  V30 14851 O 1366.77 1.0161 -1.5015 0
M  V30 14852 C 1366.82 -2.23098 -2.83302 0
M  V30 14853 O 1365.92 -1.64412 -3.7821 0
M  V30 14854 H 1365.27 -0.468894 -0.470143 0
M  V30 14855 H 1367.8 -1.81787 -0.938858 0
M  V30 14856 H 1367.81 -2.36753 -3.32283 0
M  V30 14857 H 1366.48 -3.25544 -2.58831 0
M  V30 14858 H 1365.06 -1.59867 -3.36893 0
M  V30 14859 N 1367.24 0.986894 -1.22875 0
M  V30 14860 C 1368.21 2.0597 -1.00544 0
M  V30 14861 C 1369.21 1.60771 0.0303509 0
M  V30 14862 O 1370.4 1.72945 -0.208753 0
M  V30 14863 C 1367.53 3.36911 -0.519962 0
M  V30 14864 H 1368.72 2.27213 -1.9574 0
M  V30 14865 H 1366.27 1.15935 -1.04827 0
M  V30 14866 H 1367.01 3.21355 0.436078 0
M  V30 14867 H 1366.79 3.71054 -1.26732 0
M  V30 14868 H 1368.28 4.15829 -0.384166 0
M  V30 14869 N 1368.72 1.0394 1.18466 0
M  V30 14870 C 1369.97 0.737233 1.87744 0
M  V30 14871 C 1370.28 -0.737891 1.81148 0
M  V30 14872 O 1371.49 -1.15353 2.45776 0
M  V30 14873 C 1369.94 1.26844 3.36806 0
M  V30 14874 C 1369.55 2.7721 3.51935 0
M  V30 14875 C 1371.3 1.04274 4.11494 0
M  V30 14876 C 1369.2 3.23696 4.9495 0
M  V30 14877 H 1368.13 0.272082 0.703198 0
M  V30 14878 H 1370.78 1.25507 1.33866 0
M  V30 14879 H 1369.17 0.67847 3.90145 0
M  V30 14880 H 1370.34 3.41954 3.08875 0
M  V30 14881 H 1368.66 2.98179 2.90652 0
M  V30 14882 H 1371.25 1.3652 5.16978 0
M  V30 14883 H 1371.6 -0.0200645 4.16295 0
M  V30 14884 H 1372.13 1.59726 3.64325 0
M  V30 14885 H 1368.87 4.29351 4.95316 0
M  V30 14886 H 1368.39 2.63687 5.38729 0
M  V30 14887 H 1370.07 3.17645 5.63658 0
M  V30 14888 N 1370.2 -1.34667 0.818693 0
M  V30 14889 C 1371.43 -2.02348 0.417002 0
M  V30 14890 C 1371.84 -1.61813 -0.980464 0
M  V30 14891 O 1371.18 -0.817232 -1.64521 0
M  V30 14892 C 1371.24 -3.56861 0.434779 0
M  V30 14893 C 1370.91 -4.20704 1.78485 0
M  V30 14894 C 1371.9 -4.41524 2.74504 0
M  V30 14895 C 1369.59 -4.57566 2.07217 0
M  V30 14896 C 1371.58 -4.98324 3.97431 0
M  V30 14897 C 1369.27 -5.14078 3.30405 0
M  V30 14898 C 1370.27 -5.344 4.2533 0
M  V30 14899 O 1369.95 -5.89717 5.46342 0
M  V30 14900 H 1369.69 -0.655279 0.16609 0
M  V30 14901 H 1372.24 -1.73011 1.10708 0
M  V30 14902 H 1370.47 -3.8544 -0.311973 0
M  V30 14903 H 1372.16 -4.05864 0.0537258 0
M  V30 14904 H 1372.93 -4.13414 2.53601 0
M  V30 14905 H 1368.8 -4.41054 1.34135 0
M  V30 14906 H 1372.35 -5.14102 4.71534 0
M  V30 14907 H 1368.25 -5.41616 3.51174 0
M  V30 14908 H 1369.01 -6.08155 5.47804 0
M  V30 14909 N 1371.68 -0.573274 -1.46804 0
M  V30 14910 C 1372.59 0.168081 -2.33997 0
M  V30 14911 C 1373.6 0.895652 -1.49178 0
M  V30 14912 O 1374.78 0.860951 -1.8207 0
M  V30 14913 C 1371.84 1.17483 -3.26188 0
M  V30 14914 C 1370.9 0.452956 -4.26904 0
M  V30 14915 C 1370.14 1.41175 -5.1469 0
M  V30 14916 O 1370.36 2.64767 -5.05227 0
M  V30 14917 O 1369.29 0.927472 -5.94711 0
M  V30 14918 H 1373.12 -0.547576 -2.98723 0
M  V30 14919 H 1370.71 -0.333747 -1.45624 0
M  V30 14920 H 1372.59 1.75557 -3.8309 0
M  V30 14921 H 1371.26 1.87213 -2.6407 0
M  V30 14922 H 1370.17 -0.169383 -3.73716 0
M  V30 14923 H 1371.5 -0.203186 -4.9178 0
M  V30 14924 N 1373.15 1.5451 -0.310553 0
M  V30 14925 C 1374.1 2.25332 0.576928 0
M  V30 14926 C 1375.1 1.26272 1.12924 0
M  V30 14927 O 1376.3 1.44092 1.07878 0
M  V30 14928 H 1372.68 0.723611 0.204674 0
M  V30 14929 H 1374.65 2.98369 -0.0428167 0
M  V30 14930 C 1373.4 3.01455 1.73263 0
M  V30 14931 H 1372.72 3.7749 1.31688 0
M  V30 14932 H 1374.16 3.54276 2.32947 0
M  V30 14933 C 1372.62 2.08984 2.64248 0
M  V30 14934 O 1373.15 1.66414 3.65608 0
M  V30 14935 N 1371.36 1.74742 2.32193 0
M  V30 14936 H 1370.9 2.09558 1.49811 0
M  V30 14937 H 1370.86 1.13148 2.93334 0
M  V30 14938 N 1374.63 0.0384594 1.57553 0
M  V30 14939 C 1375.86 -0.651613 1.96898 0
M  V30 14940 C 1376.28 -1.64328 0.915308 0
M  V30 14941 O 1375.64 -1.80883 -0.122824 0
M  V30 14942 C 1375.69 -1.32613 3.3533 0
M  V30 14943 O 1374.79 -2.44159 3.32355 0
M  V30 14944 H 1374.13 -0.170441 0.641752 0
M  V30 14945 H 1376.66 0.103086 2.0434 0
M  V30 14946 H 1376.67 -1.68076 3.71772 0
M  V30 14947 H 1375.35 -0.599275 4.1156 0
M  V30 14948 H 1373.93 -2.10738 3.07642 0
M  V30 14949 N 1376.11 -1.55841 -0.234795 0
M  V30 14950 C 1377.34 -1.82649 -0.982547 0
M  V30 14951 C 1377.76 -0.617097 -1.77689 0
M  V30 14952 O 1377.12 0.434022 -1.76028 0
M  V30 14953 C 1377.17 -3.07319 -1.88646 0
M  V30 14954 O 1376.27 -2.85084 -2.97995 0
M  V30 14955 H 1375.61 -0.60257 -0.278936 0
M  V30 14956 H 1378.14 -2.03041 -0.252117 0
M  V30 14957 H 1378.15 -3.37073 -2.29882 0
M  V30 14958 H 1376.83 -3.94978 -1.30251 0
M  V30 14959 H 1375.4 -2.66528 -2.60801 0
M  V30 14960 N 1377.59 0.500963 -1.49426 0
M  V30 14961 C 1378.84 1.25694 -1.5915 0
M  V30 14962 C 1379.17 1.92209 -0.277365 0
M  V30 14963 O 1378.44 1.8072 0.719065 0
M  V30 14964 C 1378.73 2.32391 -2.75076 0
M  V30 14965 C 1378.58 1.70377 -4.16283 0
M  V30 14966 C 1379.9 3.33952 -2.86643 0
M  V30 14967 H 1377.02 0.455631 -0.579283 0
M  V30 14968 H 1379.66 0.555099 -1.8171 0
M  V30 14969 H 1377.81 2.92252 -2.55971 0
M  V30 14970 H 1379.48 1.14343 -4.46904 0
M  V30 14971 H 1377.72 1.00789 -4.21929 0
M  V30 14972 H 1378.4 2.47767 -4.9327 0
M  V30 14973 H 1380.87 2.84081 -3.04035 0
M  V30 14974 H 1379.75 4.05969 -3.69433 0
M  V30 14975 H 1380.01 3.96279 -1.95998 0
M  V30 14976 N 1379.07 1.38501 0.752011 0
M  V30 14977 C 1380.29 1.38212 1.54636 0
M  V30 14978 C 1380.72 -0.0256356 1.88083 0
M  V30 14979 O 1380.08 -1.00812 1.50687 0
M  V30 14980 C 1380.12 2.24597 2.82114 0
M  V30 14981 O 1379.23 1.66415 3.77332 0
M  V30 14982 H 1378.57 0.47138 0.46765 0
M  V30 14983 H 1381.1 1.82283 0.929205 0
M  V30 14984 H 1381.11 2.38511 3.31023 0
M  V30 14985 H 1379.78 3.26913 2.57101 0
M  V30 14986 H 1378.36 1.61651 3.36041 0
M  V30 14987 N 1380.55 -0.980364 1.23396 0
M  V30 14988 C 1381.79 -1.72166 1.06607 0
M  V30 14989 C 1382.12 -1.90405 -0.397029 0
M  V30 14990 O 1381.38 -1.45363 -1.31027 0
M  V30 14991 C 1381.67 -3.12367 1.73671 0
M  V30 14992 C 1381.34 -3.14007 3.2359 0
M  V30 14993 C 1380 -3.14162 3.64494 0
M  V30 14994 C 1382.35 -3.09319 4.19489 0
M  V30 14995 C 1379.68 -3.07345 4.99756 0
M  V30 14996 C 1382.03 -3.04044 5.54743 0
M  V30 14997 C 1380.7 -3.02521 5.9501 0
M  V30 14998 H 1379.97 -0.63 0.390104 0
M  V30 14999 H 1382.62 -1.14727 1.5333 0
M  V30 15000 H 1380.92 -3.73193 1.19308 0
M  V30 15001 H 1382.62 -3.68493 1.58159 0
M  V30 15002 H 1379.21 -3.14644 2.91028 0
M  V30 15003 H 1383.39 -3.08339 3.88897 0
M  V30 15004 H 1378.65 -3.04519 5.30168 0
M  V30 15005 H 1382.82 -2.99374 6.28767 0
M  V30 15006 H 1380.45 -2.96994 6.99785 0
M  V30 15007 N 1382.02 -1.04567 -1.17913 0
M  V30 15008 C 1383.27 -0.762914 -1.8855 0
M  V30 15009 C 1383.62 0.702052 -1.79134 0
M  V30 15010 O 1382.92 1.50622 -1.18421 0
M  V30 15011 C 1383.11 -1.1699 -3.3771 0
M  V30 15012 C 1382.94 -2.67289 -3.61645 0
M  V30 15013 C 1381.71 -3.34508 -3.78724 0
M  V30 15014 C 1383.91 -3.6551 -3.61811 0
M  V30 15015 N 1381.89 -4.73736 -3.90445 0
M  V30 15016 C 1383.26 -4.90436 -3.79306 0
M  V30 15017 C 1385.32 -3.59068 -3.44927 0
M  V30 15018 C 1384.02 -6.09693 -3.81663 0
M  V30 15019 C 1386.05 -4.77758 -3.4857 0
M  V30 15020 C 1385.41 -6.01505 -3.66566 0
M  V30 15021 H 1381.51 -0.331303 -0.708352 0
M  V30 15022 H 1384.09 -1.33636 -1.41596 0
M  V30 15023 H 1382.26 -0.62448 -3.83347 0
M  V30 15024 H 1383.99 -0.837634 -3.95937 0
M  V30 15025 H 1380.75 -2.84911 -3.78316 0
M  V30 15026 H 1381.17 -5.46111 -4.00115 0
M  V30 15027 H 1385.81 -2.64366 -3.29955 0
M  V30 15028 H 1383.53 -7.04746 -3.95422 0
M  V30 15029 H 1387.12 -4.74421 -3.36773 0
M  V30 15030 H 1386 -6.9181 -3.69281 0
M  V30 15031 N 1383.5 1.34231 -0.825823 0
M  V30 15032 C 1384.75 1.97454 -0.411661 0
M  V30 15033 C 1385.06 1.66193 1.03147 0
M  V30 15034 O 1386.27 2.22929 1.54968 0
M  V30 15035 C 1384.73 3.53318 -0.685145 0
M  V30 15036 C 1384.33 3.9347 -2.14208 0
M  V30 15037 C 1386.08 4.23158 -0.337291 0
M  V30 15038 C 1383.98 5.42258 -2.3603 0
M  V30 15039 H 1382.91 0.738889 -0.150196 0
M  V30 15040 H 1385.57 1.53033 -1.01258 0
M  V30 15041 H 1383.95 3.95998 -0.0140178 0
M  V30 15042 H 1385.12 3.61888 -2.85261 0
M  V30 15043 H 1383.44 3.36575 -2.45165 0
M  V30 15044 H 1386.03 5.32558 -0.47813 0
M  V30 15045 H 1386.38 4.10053 0.718499 0
M  V30 15046 H 1386.91 3.85965 -0.963113 0
M  V30 15047 H 1383.65 5.60352 -3.40126 0
M  V30 15048 H 1383.17 5.75345 -1.69524 0
M  V30 15049 H 1384.85 6.08976 -2.18533 0
M  V30 15050 N 1384.98 0.581051 1.46498 0
M  V30 15051 C 1385.93 -0.153147 2.30291 0
M  V30 15052 C 1386.9 -0.885681 1.40517 0
M  V30 15053 O 1388.08 -0.876678 1.69467 0
M  V30 15054 C 1385.22 -1.16193 3.24951 0
M  V30 15055 C 1384.33 -0.433016 4.29824 0
M  V30 15056 C 1383.47 -1.42918 5.11613 0
M  V30 15057 C 1382.51 -0.686576 6.08237 0
M  V30 15058 N 1381.65 -1.63072 6.829 0
M  V30 15059 H 1386.49 0.56747 2.92547 0
M  V30 15060 H 1384.02 0.29166 1.4418 0
M  V30 15061 H 1385.98 -1.75965 3.78275 0
M  V30 15062 H 1384.61 -1.85028 2.64508 0
M  V30 15063 H 1383.66 0.279707 3.7937 0
M  V30 15064 H 1384.97 0.147604 4.98582 0
M  V30 15065 H 1384.13 -2.09975 5.69206 0
M  V30 15066 H 1382.87 -2.04373 4.42813 0
M  V30 15067 H 1381.87 -0.00222013 5.498 0
M  V30 15068 H 1383.1 -0.0774416 6.79056 0
M  V30 15069 H 1381.04 -2.2334 6.1681 0
M  V30 15070 H 1380.96 -1.10286 7.47912 0
M  V30 15071 H 1382.23 -2.29169 7.45052 0
M  V30 15072 N 1386.46 -1.54343 0.318742 0
M  V30 15073 C 1387.71 -1.9966 -0.286146 0
M  V30 15074 C 1388.02 -1.21073 -1.53625 0
M  V30 15075 O 1389.23 -1.56744 -2.21684 0
M  V30 15076 C 1387.68 -3.5551 -0.560405 0
M  V30 15077 C 1387.29 -4.42926 0.672373 0
M  V30 15078 C 1389.03 -4.09307 -1.12551 0
M  V30 15079 C 1386.94 -5.9024 0.370285 0
M  V30 15080 H 1385.87 -0.74583 -0.110698 0
M  V30 15081 H 1388.52 -1.78386 0.430215 0
M  V30 15082 H 1386.9 -3.72753 -1.33683 0
M  V30 15083 H 1388.08 -4.37458 1.448 0
M  V30 15084 H 1386.39 -3.99993 1.15736 0
M  V30 15085 H 1388.99 -5.16955 -1.36607 0
M  V30 15086 H 1389.33 -3.60994 -2.07338 0
M  V30 15087 H 1389.87 -3.95677 -0.410385 0
M  V30 15088 H 1386.6 -6.42738 1.28719 0
M  V30 15089 H 1386.12 -5.98672 -0.367731 0
M  V30 15090 H 1387.8 -6.46996 -0.0216582 0
M  V30 15091 N 1387.94 -0.0468143 -1.5753 0
M  V30 15092 C 1389.16 0.641161 -1.97241 0
M  V30 15093 C 1389.59 1.6384 -0.92401 0
M  V30 15094 O 1388.94 1.80946 0.113229 0
M  V30 15095 C 1388.99 1.30832 -3.36029 0
M  V30 15096 O 1388.1 2.42394 -3.33645 0
M  V30 15097 H 1387.44 0.167035 -0.642647 0
M  V30 15098 H 1389.97 -0.113921 -2.04283 0
M  V30 15099 H 1389.98 1.66102 -3.72658 0
M  V30 15100 H 1388.65 0.57744 -4.11872 0
M  V30 15101 H 1387.23 2.09104 -3.08756 0
M  V30 15102 N 1389.41 1.55964 0.226527 0
M  V30 15103 C 1390.36 1.92007 1.28069 0
M  V30 15104 C 1391.33 0.776666 1.46823 0
M  V30 15105 O 1392.52 1.03213 1.60474 0
M  V30 15106 C 1389.66 2.23784 2.62707 0
M  V30 15107 C 1388.77 3.51034 2.51792 0
M  V30 15108 C 1387.9 3.72281 3.7892 0
M  V30 15109 C 1386.94 4.93062 3.62707 0
M  V30 15110 N 1386.08 5.10725 4.81772 0
M  V30 15111 H 1390.92 2.81898 0.96631 0
M  V30 15112 H 1388.46 1.39529 0.465847 0
M  V30 15113 H 1390.42 2.40217 3.41104 0
M  V30 15114 H 1389.05 1.37073 2.92251 0
M  V30 15115 H 1388.1 3.42822 1.64856 0
M  V30 15116 H 1389.41 4.39582 2.35731 0
M  V30 15117 H 1388.56 3.88783 4.6576 0
M  V30 15118 H 1387.3 2.82004 3.97901 0
M  V30 15119 H 1386.31 4.76515 2.7425 0
M  V30 15120 H 1387.53 5.84819 3.45201 0
M  V30 15121 H 1385.48 4.2339 5.01076 0
M  V30 15122 H 1385.4 5.93397 4.68419 0
M  V30 15123 H 1386.66 5.31658 5.70053 0
M  V30 15124 N 1390.89 -0.493031 1.4969 0
M  V30 15125 C 1392.17 -1.25436 1.50084 0
M  V30 15126 C 1392.55 -2.0981 0.233038 0
M  V30 15127 O 1391.9 -2.14617 -0.784342 0
M  V30 15128 C 1392.11 -2.10425 2.78428 0
M  V30 15129 C 1393.46 -2.69349 3.28232 0
M  V30 15130 O 1394.48 -2.20686 2.796 0
M  V30 15131 O 1393.34 -3.57956 4.12953 0
M  V30 15132 H 1390.43 -0.568044 0.601045 0
M  V30 15133 H 1392.98 -0.506648 1.6196 0
M  V30 15134 H 1391.75 -1.48108 3.62187 0
M  V30 15135 H 1391.37 -2.92374 2.6945 0
M  V30 15136 N 1392.37 -1.38898 -0.744656 0
M  V30 15137 C 1393.3 -1.39571 -1.87195 0
M  V30 15138 C 1394.28 -0.260372 -1.68095 0
M  V30 15139 O 1395.47 -0.464776 -1.88556 0
M  V30 15140 C 1392.6 -1.22889 -3.24832 0
M  V30 15141 C 1391.55 -2.33721 -3.58551 0
M  V30 15142 C 1390.88 -2.02136 -4.9502 0
M  V30 15143 C 1392.18 -3.7601 -3.62511 0
M  V30 15144 H 1393.87 -2.33908 -1.86889 0
M  V30 15145 H 1391.42 -1.12591 -0.897739 0
M  V30 15146 H 1393.37 -1.21983 -4.03359 0
M  V30 15147 H 1392.09 -0.250172 -3.2564 0
M  V30 15148 H 1390.75 -2.33828 -2.82348 0
M  V30 15149 H 1390.4 -1.02726 -4.92399 0
M  V30 15150 H 1390.1 -2.76371 -5.18549 0
M  V30 15151 H 1391.62 -2.02864 -5.75915 0
M  V30 15152 H 1393.04 -3.77885 -4.31133 0
M  V30 15153 H 1391.44 -4.49524 -3.97553 0
M  V30 15154 H 1392.51 -4.07682 -2.62533 0
M  V30 15155 N 1393.85 0.973806 -1.23914 0
M  V30 15156 C 1395.08 1.75107 -1.10206 0
M  V30 15157 C 1395.49 1.85604 0.345935 0
M  V30 15158 O 1394.85 1.33996 1.239 0
M  V30 15159 C 1394.9 3.17466 -1.72909 0
M  V30 15160 O 1394.62 3.07504 -3.12047 0
M  V30 15161 C 1396.12 4.11557 -1.6473 0
M  V30 15162 H 1393.34 0.549318 -0.385345 0
M  V30 15163 H 1395.89 1.22301 -1.63898 0
M  V30 15164 H 1394.04 3.67277 -1.23234 0
M  V30 15165 H 1394.45 3.97169 -3.42575 0
M  V30 15166 H 1395.93 5.09126 -2.13295 0
M  V30 15167 H 1396.41 4.3498 -0.607352 0
M  V30 15168 H 1397.01 3.67653 -2.13802 0
M  V30 15169 N 1395.33 1.05191 1.17357 0
M  V30 15170 C 1396.27 0.646796 2.23426 0
M  V30 15171 C 1397.27 -0.331918 1.66116 0
M  V30 15172 O 1398.47 -0.197982 1.78908 0
M  V30 15173 H 1394.85 0.190988 0.727343 0
M  V30 15174 H 1396.82 1.55152 2.54893 0
M  V30 15175 C 1395.57 0.037505 3.4768 0
M  V30 15176 H 1394.89 0.781686 3.92084 0
M  V30 15177 H 1396.33 -0.20858 4.23487 0
M  V30 15178 C 1394.79 -1.21581 3.14197 0
M  V30 15179 O 1395.32 -2.3052 3.28973 0
M  V30 15180 N 1393.53 -1.11346 2.68422 0
M  V30 15181 H 1393.07 -0.226943 2.56598 0
M  V30 15182 H 1393.03 -1.95291 2.46392 0
M  V30 15183 N 1396.8 -1.33791 0.83293 0
M  V30 15184 C 1398.03 -2.0272 0.438111 0
M  V30 15185 C 1398.45 -1.62279 -0.951163 0
M  V30 15186 O 1397.81 -0.812406 -1.62079 0
M  V30 15187 C 1397.86 -3.5623 0.559698 0
M  V30 15188 O 1396.96 -4.10292 -0.41646 0
M  V30 15189 H 1396.31 -0.639438 0.178928 0
M  V30 15190 H 1398.84 -1.70821 1.12612 0
M  V30 15191 H 1398.85 -4.0563 0.439148 0
M  V30 15192 H 1397.52 -3.8501 1.5729 0
M  V30 15193 H 1396.1 -3.72034 -0.25396 0
M  V30 15194 N 1398.28 -0.588812 -1.46187 0
M  V30 15195 C 1399.23 0.161973 -2.27424 0
M  V30 15196 C 1400.22 0.856178 -1.36229 0
M  V30 15197 O 1401.41 0.749266 -1.60359 0
M  V30 15198 C 1398.54 1.17104 -3.2271 0
M  V30 15199 C 1397.62 0.478637 -4.2139 0
M  V30 15200 N 1398.01 -0.46921 -5.03619 0
M  V30 15201 C 1396.31 0.728608 -4.40008 0
M  V30 15202 C 1397.01 -0.874455 -5.7509 0
M  V30 15203 N 1395.99 -0.222267 -5.43145 0
M  V30 15204 H 1399.79 -0.566306 -2.88392 0
M  V30 15205 H 1397.31 -0.41106 -1.57112 0
M  V30 15206 H 1399.3 1.72314 -3.79623 0
M  V30 15207 H 1397.96 1.90008 -2.63301 0
M  V30 15208 H 1398.97 -0.84504 -5.10959 0
M  V30 15209 H 1395.65 1.44375 -3.91742 0
M  V30 15210 H 1397.04 -1.65514 -6.51195 0
M  V30 15211 N 1399.76 1.54172 -0.326923 0
M  V30 15212 C 1400.71 2.25931 0.552996 0
M  V30 15213 C 1401.7 1.27463 1.11578 0
M  V30 15214 O 1402.91 1.45228 1.06343 0
M  V30 15215 H 1399.28 0.725741 0.196988 0
M  V30 15216 H 1401.25 2.98307 -0.0744603 0
M  V30 15217 C 1400 3.03276 1.70056 0
M  V30 15218 H 1399.33 3.78865 1.27676 0
M  V30 15219 H 1400.77 3.56727 2.29177 0
M  V30 15220 C 1399.23 2.11775 2.62017 0
M  V30 15221 O 1399.76 1.70282 3.63822 0
M  V30 15222 N 1397.96 1.77195 2.30327 0
M  V30 15223 H 1397.51 2.11135 1.4758 0
M  V30 15224 H 1397.47 1.16253 2.92117 0
M  V30 15225 N 1401.24 0.0551678 1.57503 0
M  V30 15226 C 1402.15 -0.932959 2.15251 0
M  V30 15227 C 1403.16 -1.33885 1.11134 0
M  V30 15228 O 1404.34 -1.41495 1.43321 0
M  V30 15229 C 1401.41 -2.18807 2.68932 0
M  V30 15230 C 1400.47 -1.84016 3.87862 0
M  V30 15231 C 1399.7 -3.03543 4.38973 0
M  V30 15232 O 1399.92 -4.17041 3.89144 0
M  V30 15233 O 1398.86 -2.84325 5.30512 0
M  V30 15234 H 1402.68 -0.471816 3.00013 0
M  V30 15235 H 1400.27 -0.16696 1.48464 0
M  V30 15236 H 1402.15 -2.92439 3.0341 0
M  V30 15237 H 1400.82 -2.64051 1.87239 0
M  V30 15238 H 1399.73 -1.07687 3.58266 0
M  V30 15239 H 1401.06 -1.43567 4.70796 0
M  V30 15240 N 1402.72 -1.56081 -0.218252 0
M  V30 15241 C 1403.95 -1.83069 -0.957574 0
M  V30 15242 C 1404.35 -0.6325 -1.78315 0
M  V30 15243 O 1403.7 0.408298 -1.79105 0
M  V30 15244 C 1403.76 -3.03835 -1.92157 0
M  V30 15245 C 1403.42 -4.38702 -1.2802 0
M  V30 15246 C 1404.42 -5.15585 -0.66846 0
M  V30 15247 C 1402.11 -4.85427 -1.29098 0
M  V30 15248 C 1404.1 -6.37355 -0.0760499 0
M  V30 15249 C 1401.79 -6.07138 -0.69473 0
M  V30 15250 C 1402.78 -6.82943 -0.0883201 0
M  V30 15251 O 1402.47 -8.02352 0.498648 0
M  V30 15252 H 1402.2 -0.612493 -0.286057 0
M  V30 15253 H 1404.76 -2.04021 -0.23759 0
M  V30 15254 H 1402.99 -2.78709 -2.68064 0
M  V30 15255 H 1404.68 -3.17666 -2.52672 0
M  V30 15256 H 1405.44 -4.80592 -0.652434 0
M  V30 15257 H 1401.32 -4.26395 -1.75238 0
M  V30 15258 H 1404.87 -6.96464 0.397893 0
M  V30 15259 H 1400.76 -6.41604 -0.70818 0
M  V30 15260 H 1401.53 -8.17555 0.393289 0
M  V30 15261 N 1404.2 0.485086 -1.49949 0
M  V30 15262 C 1405.42 1.26179 -1.63971 0
M  V30 15263 C 1405.84 1.86113 -0.317408 0
M  V30 15264 O 1405.2 1.68581 0.699038 0
M  V30 15265 C 1405.25 2.38062 -2.72046 0
M  V30 15266 O 1404.97 1.80588 -3.99149 0
M  V30 15267 C 1406.47 3.29174 -2.96916 0
M  V30 15268 H 1403.69 0.382122 -0.551565 0
M  V30 15269 H 1406.23 0.580607 -1.96085 0
M  V30 15270 H 1404.39 3.0198 -2.42666 0
M  V30 15271 H 1404.8 2.54159 -4.58807 0
M  V30 15272 H 1406.28 4.03922 -3.76233 0
M  V30 15273 H 1406.75 3.87123 -2.07443 0
M  V30 15274 H 1407.36 2.71006 -3.27774 0
M  V30 15275 N 1405.67 1.39291 0.737279 0
M  V30 15276 C 1406.92 1.35702 1.49224 0
M  V30 15277 C 1407.24 -0.0450282 1.95548 0
M  V30 15278 O 1408.44 -0.203495 2.70736 0
M  V30 15279 C 1406.9 2.38387 2.69629 0
M  V30 15280 C 1406.51 3.84295 2.30263 0
M  V30 15281 C 1408.25 2.4387 3.47459 0
M  V30 15282 C 1406.16 4.78626 3.47377 0
M  V30 15283 H 1405.09 0.50449 0.560362 0
M  V30 15284 H 1407.74 1.64926 0.804466 0
M  V30 15285 H 1406.12 2.0223 3.40469 0
M  V30 15286 H 1407.29 4.2948 1.66984 0
M  V30 15287 H 1405.61 3.82085 1.6553 0
M  V30 15288 H 1408.21 3.11539 4.34566 0
M  V30 15289 H 1408.55 1.46253 3.89764 0
M  V30 15290 H 1409.08 2.78908 2.83646 0
M  V30 15291 H 1405.82 5.77497 3.10124 0
M  V30 15292 H 1405.34 4.38123 4.09645 0
M  V30 15293 H 1407.02 4.9742 4.13742 0
M  V30 15294 N 1407.15 -0.967221 1.24429 0
M  V30 15295 C 1408.4 -1.70458 1.07829 0
M  V30 15296 C 1408.71 -1.91818 -0.38278 0
M  V30 15297 O 1409.92 -2.63129 -0.668982 0
M  V30 15298 C 1408.38 -3.06817 1.88125 0
M  V30 15299 C 1407.98 -2.93298 3.38645 0
M  V30 15300 C 1409.73 -3.84422 1.80056 0
M  V30 15301 C 1407.63 -4.2497 4.11284 0
M  V30 15302 H 1406.56 -0.639217 0.399897 0
M  V30 15303 H 1409.22 -1.07776 1.48515 0
M  V30 15304 H 1407.6 -3.70331 1.40254 0
M  V30 15305 H 1408.77 -2.38793 3.94099 0
M  V30 15306 H 1407.09 -2.29159 3.47671 0
M  V30 15307 H 1409.68 -4.81925 2.31629 0
M  V30 15308 H 1410.03 -4.09194 0.765908 0
M  V30 15309 H 1410.56 -3.27636 2.2561 0
M  V30 15310 H 1407.3 -4.05391 5.1511 0
M  V30 15311 H 1406.82 -4.79288 3.60615 0
M  V30 15312 H 1408.5 -4.93586 4.18308 0
M  V30 15313 N 1408.63 -1.05812 -1.16797 0
M  V30 15314 C 1409.58 -0.658636 -2.2308 0
M  V30 15315 C 1410.57 0.323104 -1.6629 0
M  V30 15316 O 1411.78 0.188492 -1.7901 0
M  V30 15317 H 1408.15 -0.194843 -0.72632 0
M  V30 15318 H 1410.12 -1.56501 -2.54067 0
M  V30 15319 C 1408.87 -0.0559428 -3.47655 0
M  V30 15320 H 1408.2 -0.802468 -3.91664 0
M  V30 15321 H 1409.64 0.186118 -4.23591 0
M  V30 15322 C 1408.09 1.19913 -3.14837 0
M  V30 15323 O 1408.62 2.28772 -3.30191 0
M  V30 15324 N 1406.83 1.09921 -2.69009 0
M  V30 15325 H 1406.38 0.213331 -2.56715 0
M  V30 15326 H 1406.34 1.93981 -2.47424 0
M  V30 15327 N 1410.11 1.33347 -0.840014 0
M  V30 15328 C 1411.33 2.02485 -0.448856 0
M  V30 15329 C 1411.76 1.62781 0.942543 0
M  V30 15330 O 1411.12 0.82099 1.61646 0
M  V30 15331 C 1411.16 3.55928 -0.578582 0
M  V30 15332 O 1410.27 4.10507 0.394695 0
M  V30 15333 H 1409.61 0.63848 -0.182317 0
M  V30 15334 H 1412.14 1.70221 -1.13516 0
M  V30 15335 H 1412.15 4.05391 -0.460653 0
M  V30 15336 H 1410.82 3.8417 -1.5933 0
M  V30 15337 H 1409.4 3.72164 0.234227 0
M  V30 15338 N 1411.59 0.596556 1.45873 0
M  V30 15339 C 1412.83 0.0850976 2.0152 0
M  V30 15340 C 1413.15 -1.28799 1.47208 0
M  V30 15341 O 1414.35 -1.89156 1.94762 0
M  V30 15342 C 1412.81 0.101488 3.59757 0
M  V30 15343 C 1412.42 1.47374 4.23066 0
M  V30 15344 C 1414.16 -0.355303 4.2301 0
M  V30 15345 C 1412.07 1.44711 5.73422 0
M  V30 15346 H 1411 0.0280444 0.753478 0
M  V30 15347 H 1413.65 0.750255 1.67462 0
M  V30 15348 H 1412.03 -0.630108 3.90955 0
M  V30 15349 H 1413.21 2.22617 4.03458 0
M  V30 15350 H 1411.52 1.87171 3.71962 0
M  V30 15351 H 1414.12 -0.394236 5.33245 0
M  V30 15352 H 1414.46 -1.37573 3.92911 0
M  V30 15353 H 1414.99 0.32267 3.96489 0
M  V30 15354 H 1411.73 2.44479 6.08203 0
M  V30 15355 H 1411.25 0.737102 5.95254 0
M  V30 15356 H 1412.93 1.16598 6.36407 0
M  V30 15357 N 1413.06 -1.53996 0.335095 0
M  V30 15358 C 1413.97 -2.28436 -0.534244 0
M  V30 15359 C 1414.99 -1.33224 -1.11926 0
M  V30 15360 O 1416.17 -1.66252 -1.13676 0
M  V30 15361 C 1413.23 -3.03634 -1.67354 0
M  V30 15362 C 1412.29 -4.14455 -1.11916 0
M  V30 15363 C 1411.52 -4.86058 -2.20416 0
M  V30 15364 O 1411.75 -4.57263 -3.40979 0
M  V30 15365 O 1410.68 -5.72704 -1.85185 0
M  V30 15366 H 1414.51 -3.03618 0.0706314 0
M  V30 15367 H 1412.09 -1.49062 0.100409 0
M  V30 15368 H 1413.97 -3.50687 -2.33659 0
M  V30 15369 H 1412.65 -2.31317 -2.26438 0
M  V30 15370 H 1411.56 -3.71725 -0.420871 0
M  V30 15371 H 1412.89 -4.8885 -0.573295 0
M  V30 15372 N 1414.54 -0.0635198 -1.57472 0
M  V30 15373 C 1415.47 0.93602 -2.09216 0
M  V30 15374 C 1416.49 1.2668 -1.02255 0
M  V30 15375 O 1417.68 1.22543 -1.2979 0
M  V30 15376 C 1414.78 2.25417 -2.53062 0
M  V30 15377 C 1413.95 2.10347 -3.83501 0
M  V30 15378 C 1413.01 3.25394 -4.13528 0
M  V30 15379 O 1412.03 3.00751 -4.83257 0
M  V30 15380 N 1413.24 4.50243 -3.66417 0
M  V30 15381 H 1416 0.494288 -2.95596 0
M  V30 15382 H 1413.56 0.122416 -1.61437 0
M  V30 15383 H 1415.55 3.01272 -2.70217 0
M  V30 15384 H 1414.12 2.61116 -1.71864 0
M  V30 15385 H 1413.34 1.19009 -3.75807 0
M  V30 15386 H 1414.63 1.97519 -4.68896 0
M  V30 15387 H 1414.03 4.73152 -3.1007 0
M  V30 15388 H 1412.59 5.23152 -3.88787 0
M  V30 15389 N 1416.02 1.56195 0.209972 0
M  V30 15390 C 1416.97 1.94226 1.27981 0
M  V30 15391 C 1417.96 0.825742 1.47912 0
M  V30 15392 O 1419.17 1.01066 1.48949 0
M  V30 15393 H 1415.54 0.617395 0.429333 0
M  V30 15394 H 1417.51 2.83474 0.931946 0
M  V30 15395 C 1416.26 2.28527 2.62051 0
M  V30 15396 H 1415.59 3.1396 2.47526 0
M  V30 15397 H 1417.03 2.59012 3.35692 0
M  V30 15398 C 1415.48 1.11452 3.17931 0
M  V30 15399 O 1416.01 0.381713 3.99882 0
M  V30 15400 N 1414.22 0.895263 2.76466 0
M  V30 15401 H 1413.77 1.4929 2.09929 0
M  V30 15402 H 1413.73 0.113688 3.14194 0
M  V30 15403 N 1417.5 -0.477127 1.50204 0
M  V30 15404 C 1418.72 -1.25775 1.6491 0
M  V30 15405 C 1419.15 -1.85187 0.329765 0
M  V30 15406 O 1418.51 -1.67004 -0.705641 0
M  V30 15407 C 1418.55 -2.3466 2.73801 0
M  V30 15408 O 1417.66 -3.39147 2.34634 0
M  V30 15409 H 1417 -0.370291 0.551163 0
M  V30 15410 H 1419.53 -0.568514 1.96543 0
M  V30 15411 H 1419.54 -2.80065 2.96695 0
M  V30 15412 H 1418.21 -1.90788 3.69557 0
M  V30 15413 H 1416.79 -2.99496 2.22163 0
M  V30 15414 N 1418.98 -1.3968 -0.729882 0
M  V30 15415 C 1420.22 -1.36911 -1.4866 0
M  V30 15416 C 1420.55 0.0326011 -1.94973 0
M  V30 15417 O 1419.82 0.984789 -1.69348 0
M  V30 15418 H 1418.4 -0.503848 -0.551495 0
M  V30 15419 H 1421.06 -1.74596 -0.866155 0
M  V30 15420 H 1420.15 -2.03504 -2.36628 0
M  V30 15421 N 1420.45 0.960609 -1.2494 0
M  V30 15422 C 1421.7 1.70765 -1.10503 0
M  V30 15423 C 1422.06 1.89164 0.351384 0
M  V30 15424 O 1421.35 1.44718 1.25568 0
M  V30 15425 C 1421.54 3.09564 -1.78619 0
M  V30 15426 C 1421.37 3.04705 -3.30734 0
M  V30 15427 C 1420.14 3.08793 -3.99969 0
M  V30 15428 C 1422.34 2.86333 -4.27221 0
M  V30 15429 N 1420.32 2.94028 -5.38907 0
M  V30 15430 C 1421.69 2.79938 -5.53204 0
M  V30 15431 C 1423.75 2.70967 -4.17709 0
M  V30 15432 C 1422.45 2.59747 -6.70764 0
M  V30 15433 C 1424.48 2.52146 -5.34954 0
M  V30 15434 C 1423.84 2.46466 -6.59874 0
M  V30 15435 H 1419.94 0.633102 -0.459027 0
M  V30 15436 H 1422.52 1.13833 -1.57956 0
M  V30 15437 H 1420.69 3.64674 -1.33669 0
M  V30 15438 H 1422.42 3.73015 -1.56978 0
M  V30 15439 H 1419.18 3.17751 -3.51185 0
M  V30 15440 H 1419.6 2.89867 -6.11806 0
M  V30 15441 H 1424.25 2.74137 -3.21883 0
M  V30 15442 H 1421.96 2.5532 -7.66705 0
M  V30 15443 H 1425.55 2.41191 -5.29451 0
M  V30 15444 H 1424.43 2.32091 -7.49068 0
M  V30 15445 N 1421.93 1.0643 1.16234 0
M  V30 15446 C 1422.88 0.676311 2.20669 0
M  V30 15447 C 1423.85 -0.327721 1.62835 0
M  V30 15448 O 1425.03 -0.216296 1.8957 0
M  V30 15449 C 1422.17 0.0703726 3.45028 0
M  V30 15450 C 1421.29 1.12475 4.17101 0
M  V30 15451 C 1420.42 0.484806 5.28983 0
M  V30 15452 C 1419.46 1.52262 5.9286 0
M  V30 15453 N 1418.6 0.905938 6.96231 0
M  V30 15454 H 1423.44 1.57129 2.53209 0
M  V30 15455 H 1420.98 0.7856 1.24365 0
M  V30 15456 H 1422.93 -0.298488 4.16131 0
M  V30 15457 H 1421.56 -0.788002 3.13034 0
M  V30 15458 H 1420.62 1.6113 3.44589 0
M  V30 15459 H 1421.93 1.91202 4.60698 0
M  V30 15460 H 1421.08 0.0630553 6.06667 0
M  V30 15461 H 1419.82 -0.334332 4.86553 0
M  V30 15462 H 1418.83 1.95425 5.13896 0
M  V30 15463 H 1420.05 2.34388 6.37369 0
M  V30 15464 H 1418 0.107536 6.55912 0
M  V30 15465 H 1417.91 1.63058 7.38206 0
M  V30 15466 H 1419.18 0.509378 7.77834 0
M  V30 15467 N 1423.41 -1.329 0.847073 0
M  V30 15468 C 1424.34 -2.31546 0.301422 0
M  V30 15469 C 1425.32 -1.59342 -0.595317 0
M  V30 15470 O 1426.51 -1.87188 -0.517151 0
M  V30 15471 C 1423.64 -3.43423 -0.517454 0
M  V30 15472 C 1422.59 -4.27055 0.284195 0
M  V30 15473 C 1421.92 -5.30624 -0.658944 0
M  V30 15474 C 1423.22 -5.00123 1.50578 0
M  V30 15475 H 1424.91 -2.77433 1.12567 0
M  V30 15476 H 1422.46 -1.3338 0.542739 0
M  V30 15477 H 1424.41 -4.11467 -0.909543 0
M  V30 15478 H 1423.13 -2.96246 -1.37499 0
M  V30 15479 H 1421.79 -3.60648 0.657944 0
M  V30 15480 H 1421.44 -4.79702 -1.51311 0
M  V30 15481 H 1421.14 -5.87464 -0.12662 0
M  V30 15482 H 1422.66 -6.01533 -1.04837 0
M  V30 15483 H 1424.08 -5.6089 1.18641 0
M  V30 15484 H 1422.48 -5.66652 1.97549 0
M  V30 15485 H 1423.55 -4.28424 2.27115 0
M  V30 15486 N 1424.89 -0.604284 -1.45555 0
M  V30 15487 C 1426.13 -0.101149 -2.0415 0
M  V30 15488 C 1426.49 1.24348 -1.46292 0
M  V30 15489 O 1427.69 1.83714 -1.9622 0
M  V30 15490 C 1425.96 -0.0589898 -3.57351 0
M  V30 15491 S 1427.52 0.383434 -4.37122 0
M  V30 15492 H 1424.34 -0.0479603 -0.709381 0
M  V30 15493 H 1426.94 -0.801643 -1.78309 0
M  V30 15494 H 1425.65 -1.04119 -3.96973 0
M  V30 15495 H 1425.18 0.663601 -3.87763 0
M  V30 15496 H 1427.19 1.63367 -4.68536 0
M  V30 15497 N 1426.37 1.53816 -0.343257 0
M  V30 15498 C 1427.62 2.0009 0.254346 0
M  V30 15499 C 1427.93 1.23502 1.51679 0
M  V30 15500 O 1429.13 1.60251 2.19162 0
M  V30 15501 C 1427.59 3.56357 0.503775 0
M  V30 15502 C 1427.2 4.418 -0.742754 0
M  V30 15503 C 1428.94 4.11046 1.06025 0
M  V30 15504 C 1426.85 5.89576 -0.46414 0
M  V30 15505 H 1425.78 0.747496 0.0988189 0
M  V30 15506 H 1428.43 1.77679 -0.45854 0
M  V30 15507 H 1426.81 3.74833 1.27736 0
M  V30 15508 H 1427.99 4.35099 -1.51742 0
M  V30 15509 H 1426.3 3.98101 -1.22085 0
M  V30 15510 H 1428.9 5.19063 1.28365 0
M  V30 15511 H 1429.24 3.64247 2.01568 0
M  V30 15512 H 1429.77 3.9628 0.347384 0
M  V30 15513 H 1426.51 6.40608 -1.38928 0
M  V30 15514 H 1426.03 5.99181 0.272441 0
M  V30 15515 H 1427.71 6.46949 -0.0812761 0
M  V30 15516 N 1427.84 0.0718701 1.57436 0
M  V30 15517 C 1429.26 -0.28476 1.57039 0
M  V30 15518 C 1429.46 -1.70032 1.08127 0
M  V30 15519 O 1428.52 -2.41191 0.747189 0
M  V30 15520 C 1429.83 -0.0943482 3.00552 0
M  V30 15521 C 1431.38 -0.163879 3.12571 0
M  V30 15522 C 1431.85 -0.00174658 4.58 0
M  V30 15523 N 1433.34 -0.0573489 4.63164 0
M  V30 15524 C 1434.08 0.0436849 5.73383 0
M  V30 15525 N 1433.57 0.198243 6.92516 0
M  V30 15526 N 1435.37 -0.0133856 5.62098 0
M  V30 15527 H 1427.52 0.99702 1.87545 0
M  V30 15528 H 1429.78 0.388822 0.864593 0
M  V30 15529 H 1429.49 0.882445 3.40449 0
M  V30 15530 H 1429.36 -0.846636 3.67576 0
M  V30 15531 H 1431.75 -1.13116 2.7256 0
M  V30 15532 H 1431.83 0.619513 2.48185 0
M  V30 15533 H 1431.47 0.9623 4.98701 0
M  V30 15534 H 1431.4 -0.804543 5.20418 0
M  V30 15535 H 1433.89 -0.175212 3.77494 0
M  V30 15536 H 1434.21 0.267479 7.72337 0
M  V30 15537 H 1432.55 0.233606 6.94607 0
M  V30 15538 H 1435.74 -0.132835 4.67911 0
M  V30 15539 H 1435.92 0.0688076 6.47963 0
M  V30 15540 N 1429.32 -1.56304 -0.201686 0
M  V30 15541 C 1430.27 -1.94901 -1.26949 0
M  V30 15542 C 1431.26 -0.833574 -1.47472 0
M  V30 15543 O 1432.47 -1.01854 -1.48411 0
M  V30 15544 H 1428.85 -0.619663 -0.426053 0
M  V30 15545 H 1430.82 -2.83964 -0.9169 0
M  V30 15546 C 1429.57 -2.29913 -2.60835 0
M  V30 15547 H 1428.89 -3.15268 -2.45858 0
M  V30 15548 H 1430.33 -2.60789 -3.34313 0
M  V30 15549 C 1428.79 -1.13136 -3.17335 0
M  V30 15550 O 1429.32 -0.402915 -3.99674 0
M  V30 15551 N 1427.52 -0.909912 -2.75987 0
M  V30 15552 H 1427.07 -1.50402 -2.09134 0
M  V30 15553 H 1427.03 -0.130348 -3.1413 0
M  V30 15554 N 1430.8 0.469154 -1.50455 0
M  V30 15555 C 1432.05 1.21868 -1.61222 0
M  V30 15556 C 1432.37 1.9243 -0.315535 0
M  V30 15557 O 1431.64 1.84192 0.667083 0
M  V30 15558 H 1430.22 0.452828 -0.594101 0
M  V30 15559 H 1432.88 0.540993 -1.87241 0
M  V30 15560 H 1431.98 1.96554 -2.42431 0
M  V30 15561 N 1432.28 1.40065 0.722464 0
M  V30 15562 C 1433.23 1.39947 1.85789 0
M  V30 15563 C 1434.22 0.28089 1.67055 0
M  V30 15564 O 1435.43 0.451575 1.74244 0
M  V30 15565 H 1431.8 0.437296 0.611781 0
M  V30 15566 H 1433.77 2.35695 1.83004 0
M  V30 15567 C 1432.52 1.27218 3.2359 0
M  V30 15568 H 1431.84 2.12566 3.38609 0
M  V30 15569 H 1433.28 1.31194 4.03192 0
M  V30 15570 C 1431.74 -0.0182466 3.36895 0
M  V30 15571 O 1432.27 -0.983761 3.89468 0
M  V30 15572 N 1430.48 -0.0854707 2.90474 0
M  V30 15573 H 1430.03 0.700953 2.4788 0
M  V30 15574 H 1429.98 -0.948367 2.99755 0
M  V30 15575 N 1433.76 -0.95397 1.25448 0
M  V30 15576 C 1435.01 -1.69305 1.09631 0
M  V30 15577 C 1435.32 -1.92213 -0.362413 0
M  V30 15578 O 1436.53 -2.63824 -0.641036 0
M  V30 15579 C 1434.98 -3.04805 1.91369 0
M  V30 15580 C 1434.59 -2.8969 3.41737 0
M  V30 15581 C 1436.33 -3.82491 1.84123 0
M  V30 15582 C 1434.24 -4.20584 4.15768 0
M  V30 15583 H 1433.17 -0.63494 0.406654 0
M  V30 15584 H 1435.82 -1.06195 1.49649 0
M  V30 15585 H 1434.2 -3.68822 1.44174 0
M  V30 15586 H 1435.38 -2.346 3.9661 0
M  V30 15587 H 1433.69 -2.25458 3.50082 0
M  V30 15588 H 1436.29 -4.79442 2.36727 0
M  V30 15589 H 1436.63 -4.08358 0.809265 0
M  V30 15590 H 1437.17 -3.25224 2.29072 0
M  V30 15591 H 1433.9 -3.99905 5.19381 0
M  V30 15592 H 1433.42 -4.75436 3.65678 0
M  V30 15593 H 1435.1 -4.89122 4.2352 0
M  V30 15594 N 1435.24 -1.07045 -1.15668 0
M  V30 15595 C 1436.15 -0.699332 -2.23934 0
M  V30 15596 C 1437.16 0.288036 -1.71599 0
M  V30 15597 O 1438.34 0.135447 -2.00944 0
M  V30 15598 C 1435.4 -0.0994775 -3.46557 0
M  V30 15599 C 1434.46 -1.13968 -4.13896 0
M  V30 15600 C 1433.7 -0.56836 -5.30665 0
M  V30 15601 O 1433.92 0.616556 -5.67058 0
M  V30 15602 O 1432.85 -1.31174 -5.87432 0
M  V30 15603 H 1436.68 -1.60212 -2.58003 0
M  V30 15604 H 1434.26 -0.843202 -1.23331 0
M  V30 15605 H 1436.15 0.23293 -4.20756 0
M  V30 15606 H 1434.82 0.776684 -3.14244 0
M  V30 15607 H 1433.73 -1.5244 -3.41633 0
M  V30 15608 H 1435.06 -1.98764 -4.50282 0
M  V30 15609 N 1436.71 1.32449 -0.85411 0
M  V30 15610 C 1437.96 1.97962 -0.467177 0
M  V30 15611 C 1438.31 1.66368 0.966409 0
M  V30 15612 O 1437.61 0.941277 1.66885 0
M  V30 15613 C 1437.8 3.51577 -0.642499 0
M  V30 15614 C 1437.63 3.98099 -2.09158 0
M  V30 15615 C 1436.4 4.25207 -2.72996 0
M  V30 15616 C 1438.6 4.13207 -3.0621 0
M  V30 15617 N 1436.58 4.57973 -4.0882 0
M  V30 15618 C 1437.95 4.49504 -4.2702 0
M  V30 15619 C 1440.01 3.95539 -3.02412 0
M  V30 15620 C 1438.71 4.69978 -5.4453 0
M  V30 15621 C 1440.74 4.17197 -4.19167 0
M  V30 15622 C 1440.1 4.5381 -5.38735 0
M  V30 15623 H 1436.2 0.75051 -0.21968 0
M  V30 15624 H 1438.78 1.60279 -1.10538 0
M  V30 15625 H 1436.95 3.88385 -0.033996 0
M  V30 15626 H 1438.68 4.04071 -0.225515 0
M  V30 15627 H 1435.44 4.17258 -2.24038 0
M  V30 15628 H 1435.86 4.78541 -4.78881 0
M  V30 15629 H 1440.5 3.66334 -2.1109 0
M  V30 15630 H 1438.22 4.98037 -6.36384 0
M  V30 15631 H 1441.81 4.0503 -4.17663 0
M  V30 15632 H 1440.69 4.70233 -6.27575 0
M  V30 15633 N 1438.19 0.611994 1.45232 0
M  V30 15634 C 1439.44 0.106467 2.01419 0
M  V30 15635 C 1439.75 -1.2723 1.48566 0
M  V30 15636 O 1440.96 -1.8708 1.96757 0
M  V30 15637 C 1439.42 0.139639 3.59629 0
M  V30 15638 C 1439.02 1.51853 4.21479 0
M  V30 15639 C 1440.77 -0.310417 4.23364 0
M  V30 15640 C 1438.67 1.50785 5.71855 0
M  V30 15641 H 1437.6 0.0360345 0.753138 0
M  V30 15642 H 1440.26 0.767974 1.66657 0
M  V30 15643 H 1438.64 -0.588606 3.91601 0
M  V30 15644 H 1439.81 2.26884 4.01074 0
M  V30 15645 H 1438.13 1.91105 3.69956 0
M  V30 15646 H 1440.72 -0.337656 5.33633 0
M  V30 15647 H 1441.07 -1.33398 3.94348 0
M  V30 15648 H 1441.6 0.364704 3.96125 0
M  V30 15649 H 1438.34 2.50916 6.05575 0
M  V30 15650 H 1437.86 0.800195 5.94438 0
M  V30 15651 H 1439.54 1.23341 6.35135 0
M  V30 15652 N 1439.67 -1.53632 0.351409 0
M  V30 15653 C 1440.6 -2.28217 -0.49391 0
M  V30 15654 C 1441.58 -1.30085 -1.09599 0
M  V30 15655 O 1442.77 -1.58938 -1.1159 0
M  V30 15656 C 1439.9 -3.06085 -1.64102 0
M  V30 15657 C 1438.85 -4.11786 -1.16689 0
M  V30 15658 C 1438.18 -4.77654 -2.40314 0
M  V30 15659 C 1439.48 -5.21644 -0.261742 0
M  V30 15660 H 1441.17 -2.99125 0.1283 0
M  V30 15661 H 1438.72 -1.43861 0.0631462 0
M  V30 15662 H 1440.67 -3.57003 -2.2389 0
M  V30 15663 H 1439.39 -2.32842 -2.29025 0
M  V30 15664 H 1438.05 -3.61792 -0.591784 0
M  V30 15665 H 1437.7 -4.00997 -3.03661 0
M  V30 15666 H 1437.4 -5.49072 -2.09268 0
M  V30 15667 H 1438.92 -5.3136 -3.00813 0
M  V30 15668 H 1440.34 -5.6815 -0.766689 0
M  V30 15669 H 1438.73 -6.00085 -0.0428132 0
M  V30 15670 H 1439.8 -4.79821 0.699999 0
M  V30 15671 N 1441.15 -0.0802183 -1.57396 0
M  V30 15672 C 1442.08 0.913777 -2.10197 0
M  V30 15673 C 1443.09 1.25588 -1.03593 0
M  V30 15674 O 1444.28 1.21159 -1.31083 0
M  V30 15675 C 1441.38 2.2272 -2.55439 0
M  V30 15676 C 1440.55 2.06268 -3.8571 0
M  V30 15677 C 1439.61 3.20989 -4.16956 0
M  V30 15678 O 1438.64 2.95608 -4.8642 0
M  V30 15679 N 1439.84 4.46331 -3.71172 0
M  V30 15680 H 1442.61 0.462908 -2.96103 0
M  V30 15681 H 1440.17 0.105287 -1.61557 0
M  V30 15682 H 1442.16 2.98389 -2.73397 0
M  V30 15683 H 1440.73 2.59278 -1.74624 0
M  V30 15684 H 1439.95 1.15016 -3.77048 0
M  V30 15685 H 1441.24 1.92535 -4.70965 0
M  V30 15686 H 1440.64 4.69837 -3.15071 0
M  V30 15687 H 1439.19 5.18999 -3.94314 0
M  V30 15688 N 1442.63 1.56409 0.193394 0
M  V30 15689 C 1443.9 1.71559 0.93951 0
M  V30 15690 C 1444.28 0.635478 2.01308 0
M  V30 15691 O 1443.63 -0.353267 2.25753 0
M  V30 15692 C 1443.84 3.13948 1.52438 0
M  V30 15693 C 1445.19 3.74234 2.00585 0
M  V30 15694 O 1446.21 3.17088 1.62277 0
M  V30 15695 O 1445.07 4.74529 2.71081 0
M  V30 15696 H 1442.17 0.69979 0.440707 0
M  V30 15697 H 1444.71 1.68711 0.182957 0
M  V30 15698 H 1443.48 3.84033 0.750613 0
M  V30 15699 H 1443.11 3.21032 2.34572 0
M  V30 15700 N 1444.1 -0.461169 1.50702 0
M  V30 15701 C 1445.35 -1.21431 1.62427 0
M  V30 15702 C 1445.68 -1.91406 0.328228 0
M  V30 15703 O 1444.96 -1.82563 -0.670898 0
M  V30 15704 C 1445.24 -2.25016 2.8114 0
M  V30 15705 C 1445.09 -1.5928 4.20654 0
M  V30 15706 C 1446.41 -3.26234 2.95397 0
M  V30 15707 H 1443.53 -0.440113 0.59116 0
M  V30 15708 H 1446.17 -0.506726 1.83118 0
M  V30 15709 H 1444.32 -2.85363 2.63629 0
M  V30 15710 H 1446 -1.02454 4.49779 0
M  V30 15711 H 1444.24 -0.895665 4.24453 0
M  V30 15712 H 1444.91 -2.34602 4.99666 0
M  V30 15713 H 1447.39 -2.7592 3.1146 0
M  V30 15714 H 1446.26 -3.96031 3.80067 0
M  V30 15715 H 1446.52 -3.90943 2.06436 0
M  V30 15716 N 1445.58 -1.40446 -0.715026 0
M  V30 15717 C 1446.53 -1.40931 -1.85044 0
M  V30 15718 C 1447.52 -0.289745 -1.66904 0
M  V30 15719 O 1448.73 -0.460809 -1.74002 0
M  V30 15720 H 1445.1 -0.440534 -0.609454 0
M  V30 15721 H 1447.08 -2.36662 -1.81752 0
M  V30 15722 C 1445.82 -1.28933 -3.22911 0
M  V30 15723 H 1445.15 -2.14359 -3.37476 0
M  V30 15724 H 1446.59 -1.33331 -4.02491 0
M  V30 15725 C 1445.05 0.000379936 -3.369 0
M  V30 15726 O 1445.58 0.963093 -3.89984 0
M  V30 15727 N 1443.78 0.0700649 -2.90516 0
M  V30 15728 H 1443.33 -0.714088 -2.47505 0
M  V30 15729 H 1443.29 0.932457 -3.00254 0
M  V30 15730 N 1447.06 0.947303 -1.25952 0
M  V30 15731 C 1448.48 1.21972 -1.02932 0
M  V30 15732 C 1448.68 1.99951 0.249333 0
M  V30 15733 O 1447.73 2.33534 0.960108 0
M  V30 15734 C 1449.04 1.98695 -2.257 0
M  V30 15735 C 1450.59 2.11711 -2.30538 0
M  V30 15736 C 1451.07 2.91835 -3.52982 0
M  V30 15737 N 1452.56 2.99411 -3.53422 0
M  V30 15738 C 1453.29 3.6182 -4.4483 0
M  V30 15739 N 1452.79 4.25781 -5.46519 0
M  V30 15740 N 1454.58 3.59033 -4.32495 0
M  V30 15741 H 1446.73 0.42583 -2.08088 0
M  V30 15742 H 1449 0.250899 -0.914196 0
M  V30 15743 H 1448.7 1.48801 -3.18671 0
M  V30 15744 H 1448.58 2.9938 -2.29459 0
M  V30 15745 H 1450.96 2.608 -1.38085 0
M  V30 15746 H 1451.04 1.10308 -2.30794 0
M  V30 15747 H 1450.69 2.43435 -4.4576 0
M  V30 15748 H 1450.62 3.9348 -3.49973 0
M  V30 15749 H 1453.11 2.53934 -2.79868 0
M  V30 15750 H 1453.42 4.71281 -6.12466 0
M  V30 15751 H 1451.77 4.24386 -5.50383 0
M  V30 15752 H 1454.96 3.08254 -3.52274 0
M  V30 15753 H 1455.13 4.07384 -5.03927 0
M  V30 15754 N 1448.54 1.07657 1.15099 0
M  V30 15755 C 1449.49 0.699678 2.19939 0
M  V30 15756 C 1450.46 -0.310432 1.63173 0
M  V30 15757 O 1451.64 -0.196177 1.89789 0
M  V30 15758 C 1448.78 0.106963 3.44934 0
M  V30 15759 C 1447.89 1.16892 4.15885 0
M  V30 15760 C 1447.03 0.540884 5.28439 0
M  V30 15761 C 1446.07 1.58542 5.91211 0
M  V30 15762 N 1445.2 0.979731 6.95231 0
M  V30 15763 H 1450.04 1.59805 2.51528 0
M  V30 15764 H 1447.58 0.798746 1.23525 0
M  V30 15765 H 1449.54 -0.254335 4.16424 0
M  V30 15766 H 1448.17 -0.754756 3.13852 0
M  V30 15767 H 1447.22 1.64775 3.4286 0
M  V30 15768 H 1448.53 1.96078 4.58645 0
M  V30 15769 H 1447.69 0.127397 6.06566 0
M  V30 15770 H 1446.43 -0.282708 4.8688 0
M  V30 15771 H 1445.43 2.00865 5.11794 0
M  V30 15772 H 1446.66 2.41135 6.34847 0
M  V30 15773 H 1444.6 0.177098 6.55761 0
M  V30 15774 H 1444.52 1.70878 7.36435 0
M  V30 15775 H 1445.79 0.591849 7.7725 0
M  V30 15776 N 1450.02 -1.31994 0.861122 0
M  V30 15777 C 1451.25 -2.00919 0.481167 0
M  V30 15778 C 1451.65 -1.64851 -0.928488 0
M  V30 15779 O 1451 -0.86916 -1.61837 0
M  V30 15780 C 1451.06 -3.55297 0.548091 0
M  V30 15781 C 1450.72 -4.14813 1.91779 0
M  V30 15782 C 1451.72 -4.32567 2.88412 0
M  V30 15783 C 1449.41 -4.50742 2.21669 0
M  V30 15784 C 1451.4 -4.85428 4.13084 0
M  V30 15785 C 1449.09 -5.03306 3.46593 0
M  V30 15786 C 1450.08 -5.20598 4.42116 0
M  V30 15787 O 1449.77 -5.72037 5.64827 0
M  V30 15788 H 1449.5 -0.649663 0.186853 0
M  V30 15789 H 1452.06 -1.69401 1.16157 0
M  V30 15790 H 1450.29 -3.86237 -0.18919 0
M  V30 15791 H 1451.98 -4.05488 0.182821 0
M  V30 15792 H 1452.74 -4.05137 2.66625 0
M  V30 15793 H 1448.62 -4.36563 1.48099 0
M  V30 15794 H 1452.17 -4.98841 4.87651 0
M  V30 15795 H 1448.06 -5.30169 3.68227 0
M  V30 15796 H 1448.83 -5.9042 5.66875 0
M  V30 15797 N 1451.49 -0.619688 -1.44906 0
M  V30 15798 C 1452.44 0.0920359 -2.30616 0
M  V30 15799 C 1453.41 0.848114 -1.42815 0
M  V30 15800 O 1454.6 0.831439 -1.71732 0
M  V30 15801 C 1451.74 1.07537 -3.27917 0
M  V30 15802 C 1450.85 0.318904 -4.30821 0
M  V30 15803 C 1449.98 1.29303 -5.15222 0
M  V30 15804 C 1449.02 0.525071 -6.09844 0
M  V30 15805 N 1448.16 1.44909 -6.86983 0
M  V30 15806 H 1453 -0.644834 -2.9094 0
M  V30 15807 H 1450.54 -0.329785 -1.43356 0
M  V30 15808 H 1452.5 1.65874 -3.82808 0
M  V30 15809 H 1451.13 1.7795 -2.6932 0
M  V30 15810 H 1450.18 -0.380192 -3.78495 0
M  V30 15811 H 1451.49 -0.279742 -4.98015 0
M  V30 15812 H 1450.64 1.94809 -5.74573 0
M  V30 15813 H 1449.38 1.92561 -4.48076 0
M  V30 15814 H 1448.39 -0.14355 -5.49613 0
M  V30 15815 H 1449.61 -0.102625 -6.79022 0
M  V30 15816 H 1447.56 2.06908 -6.22515 0
M  V30 15817 H 1447.48 0.90418 -7.50574 0
M  V30 15818 H 1448.74 2.09335 -7.50866 0
M  V30 15819 N 1452.97 1.53444 -0.359552 0
M  V30 15820 C 1454.2 2.06058 0.235576 0
M  V30 15821 C 1454.62 1.23175 1.42161 0
M  V30 15822 O 1453.98 0.249338 1.79577 0
M  V30 15823 C 1454.03 3.55351 0.613025 0
M  V30 15824 O 1453.13 3.75229 1.71104 0
M  V30 15825 H 1452.47 0.663038 0.0357266 0
M  V30 15826 H 1455 1.97923 -0.518408 0
M  V30 15827 H 1455.01 3.9827 0.885722 0
M  V30 15828 H 1453.69 4.15122 -0.254243 0
M  V30 15829 H 1452.27 3.4421 1.43437 0
M  V30 15830 N 1454.45 0.0885642 1.57351 0
M  V30 15831 C 1455.38 -0.869946 2.16689 0
M  V30 15832 C 1456.36 -1.29878 1.09844 0
M  V30 15833 O 1457.55 -1.36684 1.37954 0
M  V30 15834 C 1454.68 -2.13148 2.74199 0
M  V30 15835 C 1453.63 -1.84149 3.86359 0
M  V30 15836 C 1452.96 -3.17075 4.30543 0
M  V30 15837 C 1454.26 -1.13357 5.09851 0
M  V30 15838 H 1455.95 -0.375578 2.97035 0
M  V30 15839 H 1453.5 -0.17921 1.42881 0
M  V30 15840 H 1455.45 -2.80634 3.14361 0
M  V30 15841 H 1454.17 -2.64856 1.91098 0
M  V30 15842 H 1452.83 -1.19063 3.46727 0
M  V30 15843 H 1452.48 -3.66658 3.44342 0
M  V30 15844 H 1452.18 -2.98457 5.06159 0
M  V30 15845 H 1453.7 -3.85731 4.73333 0
M  V30 15846 H 1455.12 -1.70941 5.47222 0
M  V30 15847 H 1453.52 -1.0494 5.90853 0
M  V30 15848 H 1454.59 -0.115273 4.84763 0
M  V30 15849 N 1455.93 -1.56509 -0.185096 0
M  V30 15850 C 1457.18 -1.804 -0.902158 0
M  V30 15851 C 1457.49 -0.663496 -1.84003 0
M  V30 15852 O 1458.7 -0.786963 -2.59844 0
M  V30 15853 C 1457.15 -3.19608 -1.65466 0
M  V30 15854 C 1456.76 -4.41487 -0.761109 0
M  V30 15855 C 1458.5 -3.52801 -2.36076 0
M  V30 15856 C 1456.41 -5.71717 -1.51305 0
M  V30 15857 H 1455.34 -0.67268 -0.340614 0
M  V30 15858 H 1457.99 -1.82842 -0.155273 0
M  V30 15859 H 1456.37 -3.11443 -2.44579 0
M  V30 15860 H 1457.55 -4.60799 -0.00791878 0
M  V30 15861 H 1455.86 -4.16072 -0.165344 0
M  V30 15862 H 1458.46 -4.47339 -2.92902 0
M  V30 15863 H 1458.8 -2.77021 -3.10749 0
M  V30 15864 H 1459.34 -3.62457 -1.63919 0
M  V30 15865 H 1456.08 -6.5049 -0.808907 0
M  V30 15866 H 1455.6 -5.56406 -2.23992 0
M  V30 15867 H 1457.27 -6.13188 -2.0642 0
M  V30 15868 N 1457.41 0.45317 -1.50944 0
M  V30 15869 C 1458.65 1.20389 -1.62827 0
M  V30 15870 C 1458.98 1.91559 -0.336982 0
M  V30 15871 O 1458.24 1.83574 0.678153 0
M  V30 15872 C 1458.54 2.25747 -2.7708 0
M  V30 15873 C 1458.2 1.71703 -4.16928 0
M  V30 15874 C 1456.86 1.56686 -4.54976 0
M  V30 15875 C 1459.22 1.31804 -5.04259 0
M  V30 15876 C 1456.54 1.0022 -5.78077 0
M  V30 15877 C 1458.9 0.767738 -6.27924 0
M  V30 15878 C 1457.56 0.604341 -6.64759 0
M  V30 15879 H 1456.83 0.440536 -0.595827 0
M  V30 15880 H 1459.48 0.497234 -1.84932 0
M  V30 15881 H 1457.78 3.0239 -2.49134 0
M  V30 15882 H 1459.48 2.83625 -2.83475 0
M  V30 15883 H 1456.07 1.84364 -3.86921 0
M  V30 15884 H 1460.25 1.42233 -4.75482 0
M  V30 15885 H 1455.51 0.863228 -6.05275 0
M  V30 15886 H 1459.68 0.449994 -6.94945 0
M  V30 15887 H 1457.31 0.164663 -7.60022 0
M  V30 15888 N 1458.88 1.40823 0.707568 0
M  V30 15889 C 1460.16 1.3003 1.46122 0
M  V30 15890 C 1460.54 -0.0776873 2.10957 0
M  V30 15891 O 1459.89 -1.09109 2.00767 0
M  V30 15892 C 1460.1 2.44498 2.49042 0
M  V30 15893 C 1461.45 2.85106 3.14642 0
M  V30 15894 O 1462.47 2.44149 2.59364 0
M  V30 15895 O 1461.33 3.55892 4.14733 0
M  V30 15896 H 1458.42 0.511082 0.650172 0
M  V30 15897 H 1460.97 1.52761 0.739062 0
M  V30 15898 H 1459.74 3.36502 1.99705 0
M  V30 15899 H 1459.37 2.23579 3.28783 0
M  V30 15900 N 1460.36 -0.94061 1.26453 0
M  V30 15901 C 1461.59 -1.71874 1.14643 0
M  V30 15902 C 1462 -1.86791 -0.300969 0
M  V30 15903 O 1461.34 -1.37529 -1.21784 0
M  V30 15904 C 1461.41 -3.14408 1.74321 0
M  V30 15905 C 1461.07 -3.22873 3.23422 0
M  V30 15906 C 1462.07 -3.06107 4.20231 0
M  V30 15907 C 1459.75 -3.46245 3.63895 0
M  V30 15908 C 1461.75 -3.12581 5.55492 0
M  V30 15909 C 1459.43 -3.52354 4.99289 0
M  V30 15910 C 1460.43 -3.35539 5.94897 0
M  V30 15911 O 1460.12 -3.41357 7.27826 0
M  V30 15912 H 1459.85 -0.544931 0.400033 0
M  V30 15913 H 1462.4 -1.18767 1.67581 0
M  V30 15914 H 1460.63 -3.6894 1.15846 0
M  V30 15915 H 1462.32 -3.74135 1.57409 0
M  V30 15916 H 1463.09 -2.87906 3.90302 0
M  V30 15917 H 1458.97 -3.58389 2.89962 0
M  V30 15918 H 1462.51 -2.99374 6.30096 0
M  V30 15919 H 1458.41 -3.70077 5.2888 0
M  V30 15920 H 1459.18 -3.57897 7.36106 0
M  V30 15921 N 1461.84 -1.08266 -1.14527 0
M  V30 15922 C 1463.07 -0.832994 -1.89937 0
M  V30 15923 C 1463.49 0.608985 -1.77969 0
M  V30 15924 O 1462.85 1.42657 -1.11887 0
M  V30 15925 C 1462.9 -1.25782 -3.37952 0
M  V30 15926 O 1462 -0.408853 -4.10368 0
M  V30 15927 H 1461.34 -0.30267 -0.591005 0
M  V30 15928 H 1463.87 -1.44371 -1.44977 0
M  V30 15929 H 1463.88 -1.23804 -3.88763 0
M  V30 15930 H 1462.56 -2.30804 -3.4598 0
M  V30 15931 H 1461.13 -0.49192 -3.69641 0
M  V30 15932 N 1463.32 1.31536 -0.86811 0
M  V30 15933 C 1464.23 2.32326 -0.32588 0
M  V30 15934 C 1465.25 1.64632 0.563243 0
M  V30 15935 O 1466.42 1.96067 0.460403 0
M  V30 15936 C 1463.49 3.43562 0.46539 0
M  V30 15937 C 1462.55 4.26919 -0.451472 0
M  V30 15938 C 1461.78 5.32844 0.302129 0
M  V30 15939 O 1462 5.49485 1.53045 0
M  V30 15940 O 1460.94 6.00944 -0.339048 0
M  V30 15941 H 1464.76 2.80622 -1.16126 0
M  V30 15942 H 1462.35 1.35401 -0.631428 0
M  V30 15943 H 1464.23 4.11368 0.914028 0
M  V30 15944 H 1462.91 2.97432 1.27734 0
M  V30 15945 H 1461.81 3.61874 -0.948571 0
M  V30 15946 H 1463.15 4.7661 -1.22897 0
M  V30 15947 N 1464.8 0.627364 1.44575 0
M  V30 15948 C 1466.02 0.135576 2.06956 0
M  V30 15949 C 1466.45 -1.17922 1.46547 0
M  V30 15950 O 1465.81 -1.72255 0.565509 0
M  V30 15951 C 1465.85 0.030347 3.60587 0
M  V30 15952 O 1464.96 -1.01464 3.99724 0
M  V30 15953 H 1464.3 0.083058 0.658785 0
M  V30 15954 H 1466.83 0.862977 1.8551 0
M  V30 15955 H 1466.84 -0.161461 4.0768 0
M  V30 15956 H 1465.51 0.990285 4.03938 0
M  V30 15957 H 1464.09 -0.797701 3.64268 0
M  V30 15958 N 1466.28 -1.53251 0.367684 0
M  V30 15959 C 1467.21 -2.28728 -0.469676 0
M  V30 15960 C 1468.19 -1.3124 -1.08213 0
M  V30 15961 O 1469.37 -1.60112 -1.09898 0
M  V30 15962 C 1466.5 -3.07808 -1.60846 0
M  V30 15963 C 1465.46 -4.13 -1.12315 0
M  V30 15964 C 1464.78 -4.80176 -2.35234 0
M  V30 15965 C 1466.08 -5.21892 -0.2064 0
M  V30 15966 H 1467.78 -2.98972 0.160019 0
M  V30 15967 H 1465.32 -1.43786 0.0784011 0
M  V30 15968 H 1467.27 -3.59358 -2.20091 0
M  V30 15969 H 1466 -2.35258 -2.26542 0
M  V30 15970 H 1464.66 -3.62399 -0.553378 0
M  V30 15971 H 1464.31 -4.04196 -2.99391 0
M  V30 15972 H 1464.01 -5.51261 -2.03433 0
M  V30 15973 H 1465.53 -5.34521 -2.9516 0
M  V30 15974 H 1466.94 -5.68932 -0.706386 0
M  V30 15975 H 1465.34 -6.00096 0.0208362 0
M  V30 15976 H 1466.41 -4.79051 0.750851 0
M  V30 15977 N 1467.75 -0.0969077 -1.57302 0
M  V30 15978 C 1468.98 0.578086 -1.99181 0
M  V30 15979 C 1469.4 1.60818 -0.975667 0
M  V30 15980 O 1468.76 1.81215 0.0556054 0
M  V30 15981 C 1468.81 1.20076 -3.40021 0
M  V30 15982 O 1467.91 2.31656 -3.41188 0
M  V30 15983 H 1467.25 0.146506 -0.647636 0
M  V30 15984 H 1469.78 -0.178855 -2.03817 0
M  V30 15985 H 1469.79 1.54162 -3.77754 0
M  V30 15986 H 1468.47 0.446114 -4.135 0
M  V30 15987 H 1467.05 1.99175 -3.15252 0
M  V30 15988 N 1469.23 1.56605 0.176793 0
M  V30 15989 C 1470.18 1.92393 1.22347 0
M  V30 15990 C 1471.17 0.791622 1.40079 0
M  V30 15991 O 1472.36 1.05474 1.42142 0
M  V30 15992 C 1469.49 2.28266 2.56417 0
M  V30 15993 C 1468.57 3.47997 2.42402 0
M  V30 15994 N 1468.96 4.65396 1.98092 0
M  V30 15995 C 1467.26 3.52496 2.73244 0
M  V30 15996 C 1467.96 5.47539 1.96409 0
M  V30 15997 N 1466.94 4.88434 2.38606 0
M  V30 15998 H 1470.74 2.8065 0.872507 0
M  V30 15999 H 1468.25 1.57768 0.385107 0
M  V30 16000 H 1470.25 2.52097 3.32043 0
M  V30 16001 H 1468.91 1.41345 2.92321 0
M  V30 16002 H 1469.92 4.89717 1.68515 0
M  V30 16003 H 1466.6 2.7604 3.13223 0
M  V30 16004 H 1467.99 6.51604 1.63896 0
M  V30 16005 N 1470.71 -0.445159 1.51182 0
M  V30 16006 C 1471.94 -1.21787 1.67259 0
M  V30 16007 C 1472.35 -1.85206 0.366641 0
M  V30 16008 O 1471.71 -1.70376 -0.654095 0
M  V30 16009 C 1471.76 -2.30765 2.78262 0
M  V30 16010 O 1471.48 -1.69942 4.03796 0
M  V30 16011 C 1472.98 -3.21186 3.05539 0
M  V30 16012 H 1470.2 -0.367364 0.561502 0
M  V30 16013 H 1472.75 -0.528415 1.97555 0
M  V30 16014 H 1470.9 -2.9544 2.50587 0
M  V30 16015 H 1471.32 -2.41905 4.65384 0
M  V30 16016 H 1472.79 -3.93805 3.8681 0
M  V30 16017 H 1473.27 -3.81487 2.17634 0
M  V30 16018 H 1473.87 -2.62221 3.34844 0
M  V30 16019 N 1472.19 -1.41197 -0.700089 0
M  V30 16020 C 1473.44 -1.40034 -1.45722 0
M  V30 16021 C 1473.76 -0.00876281 -1.94998 0
M  V30 16022 O 1473.03 0.948647 -1.71399 0
M  V30 16023 H 1471.61 -0.515433 -0.540683 0
M  V30 16024 H 1474.27 -1.76394 -0.828926 0
M  V30 16025 H 1473.36 -2.08477 -2.32258 0
M  V30 16026 N 1473.67 0.933891 -1.2695 0
M  V30 16027 C 1474.9 1.71263 -1.15553 0
M  V30 16028 C 1475.3 1.86948 0.291059 0
M  V30 16029 O 1474.65 1.38173 1.21053 0
M  V30 16030 C 1474.71 3.13479 -1.75986 0
M  V30 16031 C 1474.37 3.21154 -3.2513 0
M  V30 16032 C 1475.37 3.03874 -4.21849 0
M  V30 16033 C 1473.05 3.44311 -3.65726 0
M  V30 16034 C 1475.05 3.09631 -5.57142 0
M  V30 16035 C 1472.74 3.49702 -5.01151 0
M  V30 16036 C 1473.73 3.32379 -5.96668 0
M  V30 16037 O 1473.42 3.37493 -7.29626 0
M  V30 16038 H 1473.15 0.542801 -0.402918 0
M  V30 16039 H 1475.71 1.17877 -1.68209 0
M  V30 16040 H 1473.94 3.6832 -1.178 0
M  V30 16041 H 1475.63 3.73295 -1.59391 0
M  V30 16042 H 1476.39 2.85832 -3.91823 0
M  V30 16043 H 1472.27 3.56847 -2.91859 0
M  V30 16044 H 1475.82 2.96028 -6.31675 0
M  V30 16045 H 1471.71 3.67267 -5.30835 0
M  V30 16046 H 1472.48 3.53988 -7.37994 0
M  V30 16047 N 1475.14 1.08871 1.13951 0
M  V30 16048 C 1476.37 0.842913 1.88951 0
M  V30 16049 C 1476.79 -0.605348 1.78832 0
M  V30 16050 O 1476.14 -1.41631 1.15095 0
M  V30 16051 C 1476.19 1.26198 3.38757 0
M  V30 16052 O 1475.92 2.65344 3.48603 0
M  V30 16053 C 1477.42 1.04773 4.30741 0
M  V30 16054 H 1474.64 0.303651 0.598362 0
M  V30 16055 H 1477.18 1.44922 1.44284 0
M  V30 16056 H 1475.34 0.699682 3.81029 0
M  V30 16057 H 1475.75 2.82863 4.41688 0
M  V30 16058 H 1477.22 1.39029 5.34205 0
M  V30 16059 H 1477.7 -0.0149046 4.39197 0
M  V30 16060 H 1478.31 1.5957 3.9423 0
M  V30 16061 N 1476.62 -1.31073 0.875073 0
M  V30 16062 C 1477.57 -2.30335 0.3238 0
M  V30 16063 C 1478.56 -1.5974 -0.563869 0
M  V30 16064 O 1479.77 -1.743 -0.449402 0
M  V30 16065 H 1476.14 -0.747062 0.0860376 0
M  V30 16066 H 1478.12 -2.743 1.17483 0
M  V30 16067 C 1476.86 -3.44705 -0.455348 0
M  V30 16068 H 1476.19 -3.99203 0.218433 0
M  V30 16069 H 1477.63 -4.16262 -0.806329 0
M  V30 16070 C 1476.09 -2.93807 -1.6486 0
M  V30 16071 O 1476.62 -2.93004 -2.74794 0
M  V30 16072 N 1474.82 -2.49944 -1.48244 0
M  V30 16073 H 1474.37 -2.50797 -0.588116 0
M  V30 16074 H 1474.33 -2.16245 -2.28222 0
M  V30 16075 N 1478.1 -0.635022 -1.4424 0
M  V30 16076 C 1479.05 0.0675707 -2.30701 0
M  V30 16077 C 1480.02 0.832919 -1.43707 0
M  V30 16078 O 1481.2 0.813177 -1.72604 0
M  V30 16079 C 1478.34 1.04053 -3.2904 0
M  V30 16080 C 1477.46 0.273191 -4.31135 0
M  V30 16081 C 1476.59 1.23831 -5.16565 0
M  V30 16082 C 1475.63 0.460359 -6.10366 0
M  V30 16083 N 1474.77 1.37614 -6.88481 0
M  V30 16084 H 1479.61 -0.675656 -2.90239 0
M  V30 16085 H 1477.14 -0.344971 -1.42998 0
M  V30 16086 H 1479.1 1.61805 -3.84545 0
M  V30 16087 H 1477.73 1.75084 -2.71193 0
M  V30 16088 H 1476.78 -0.420315 -3.78071 0
M  V30 16089 H 1478.1 -0.332548 -4.9769 0
M  V30 16090 H 1477.25 1.88704 -5.76607 0
M  V30 16091 H 1475.99 1.87797 -4.50093 0
M  V30 16092 H 1474.99 -0.201836 -5.49429 0
M  V30 16093 H 1476.22 -0.174639 -6.78875 0
M  V30 16094 H 1474.16 2.00294 -6.24675 0
M  V30 16095 H 1474.08 0.82452 -7.5149 0
M  V30 16096 H 1475.35 2.01359 -7.53044 0
M  V30 16097 N 1479.58 1.53054 -0.375806 0
M  V30 16098 C 1480.82 2.02379 0.203516 0
M  V30 16099 C 1481.18 1.25788 1.45586 0
M  V30 16100 O 1480.47 0.345983 1.8845 0
M  V30 16101 C 1480.67 3.53321 0.538419 0
M  V30 16102 C 1480.5 4.4453 -0.679917 0
M  V30 16103 C 1479.27 4.90964 -1.1951 0
M  V30 16104 C 1481.46 4.90444 -1.54821 0
M  V30 16105 N 1479.45 5.66207 -2.37239 0
M  V30 16106 C 1480.82 5.64132 -2.57206 0
M  V30 16107 C 1482.87 4.72503 -1.56989 0
M  V30 16108 C 1481.57 6.21786 -3.61627 0
M  V30 16109 C 1483.6 5.3103 -2.6031 0
M  V30 16110 C 1482.96 6.04613 -3.61417 0
M  V30 16111 H 1479.06 0.781128 0.0369159 0
M  V30 16112 H 1481.65 1.87554 -0.522657 0
M  V30 16113 H 1479.82 3.68287 1.23366 0
M  V30 16114 H 1481.55 3.89359 1.10372 0
M  V30 16115 H 1478.3 4.67492 -0.758156 0
M  V30 16116 H 1478.73 6.08487 -2.96771 0
M  V30 16117 H 1483.37 4.15129 -0.801715 0
M  V30 16118 H 1481.09 6.7825 -4.39321 0
M  V30 16119 H 1484.67 5.19037 -2.62854 0
M  V30 16120 H 1483.55 6.49093 -4.40054 0
M  V30 16121 N 1481.06 0.105248 1.57248 0
M  V30 16122 C 1482.3 -0.556054 1.94716 0
M  V30 16123 C 1482.63 -1.67557 0.987669 0
M  V30 16124 O 1481.89 -1.95698 0.00905706 0
M  V30 16125 C 1482.19 -1.14178 3.38671 0
M  V30 16126 C 1481.85 -0.145022 4.50667 0
M  V30 16127 C 1480.51 0.129099 4.81027 0
M  V30 16128 C 1482.87 0.535015 5.18447 0
M  V30 16129 C 1480.19 1.08978 5.7649 0
M  V30 16130 C 1482.55 1.48423 6.14942 0
M  V30 16131 C 1481.21 1.76648 6.43702 0
M  V30 16132 H 1480.48 -0.203475 0.712516 0
M  V30 16133 H 1483.13 0.183237 1.90621 0
M  V30 16134 H 1481.43 -1.95754 3.39393 0
M  V30 16135 H 1483.13 -1.66132 3.64967 0
M  V30 16136 H 1479.72 -0.36886 4.2701 0
M  V30 16137 H 1483.9 0.336391 4.95159 0
M  V30 16138 H 1479.16 1.31535 5.97083 0
M  V30 16139 H 1483.33 2.01693 6.66553 0
M  V30 16140 H 1480.96 2.51245 7.17482 0
M  V30 16141 N 1482.53 -1.56697 -0.168486 0
M  V30 16142 C 1483.78 -1.82154 -0.884654 0
M  V30 16143 C 1484.11 -0.682778 -1.82122 0
M  V30 16144 O 1483.36 0.32977 -1.92902 0
M  V30 16145 C 1483.66 -3.138 -1.71068 0
M  V30 16146 C 1483.33 -4.41356 -0.922793 0
M  V30 16147 C 1481.99 -4.76002 -0.705352 0
M  V30 16148 C 1484.34 -5.19883 -0.370323 0
M  V30 16149 C 1481.67 -5.86651 0.0756121 0
M  V30 16150 C 1484.02 -6.31349 0.397568 0
M  V30 16151 C 1482.69 -6.6456 0.625782 0
M  V30 16152 H 1481.96 -0.666549 -0.323718 0
M  V30 16153 H 1484.6 -1.90916 -0.149432 0
M  V30 16154 H 1482.91 -3.00393 -2.51538 0
M  V30 16155 H 1484.61 -3.30708 -2.2679 0
M  V30 16156 H 1481.2 -4.14182 -1.10231 0
M  V30 16157 H 1485.38 -4.93509 -0.525646 0
M  V30 16158 H 1480.64 -6.10838 0.262137 0
M  V30 16159 H 1484.81 -6.91401 0.832902 0
M  V30 16160 H 1482.44 -7.50137 1.23281 0
M  V30 16161 N 1484.01 0.437135 -1.51416 0
M  V30 16162 C 1485.26 1.18831 -1.64338 0
M  V30 16163 C 1485.59 1.9086 -0.358638 0
M  V30 16164 O 1484.87 1.83607 0.641769 0
M  V30 16165 C 1485.15 2.20515 -2.84685 0
M  V30 16166 C 1485 1.52568 -4.23135 0
M  V30 16167 C 1486.32 3.21494 -3.00549 0
M  V30 16168 H 1483.44 0.430652 -0.598087 0
M  V30 16169 H 1486.08 0.47753 -1.83901 0
M  V30 16170 H 1484.23 2.81132 -2.68136 0
M  V30 16171 H 1485.9 0.952851 -4.51352 0
M  V30 16172 H 1484.15 0.828025 -4.25824 0
M  V30 16173 H 1484.82 2.26623 -5.03335 0
M  V30 16174 H 1487.29 2.7093 -3.1581 0
M  V30 16175 H 1486.17 3.89934 -3.86319 0
M  V30 16176 H 1486.43 3.8761 -2.12629 0
M  V30 16177 N 1485.49 1.41566 0.692592 0
M  V30 16178 C 1486.72 1.44445 1.48132 0
M  V30 16179 C 1487.13 0.0505867 1.88732 0
M  V30 16180 O 1486.49 -0.930779 1.5698 0
M  V30 16181 C 1486.54 2.35582 2.74196 0
M  V30 16182 O 1486.26 3.69545 2.35305 0
M  V30 16183 C 1487.76 2.47296 3.67912 0
M  V30 16184 H 1484.98 0.491877 0.456396 0
M  V30 16185 H 1487.53 1.85884 0.852499 0
M  V30 16186 H 1485.68 1.97445 3.33308 0
M  V30 16187 H 1486.1 4.1818 3.16584 0
M  V30 16188 H 1487.57 3.15225 4.53141 0
M  V30 16189 H 1488.05 1.50517 4.12603 0
M  V30 16190 H 1488.65 2.86082 3.14702 0
M  V30 16191 N 1486.97 -0.927146 1.27443 0
M  V30 16192 C 1488.22 -1.66941 1.13197 0
M  V30 16193 C 1488.53 -1.92939 -0.32156 0
M  V30 16194 O 1489.74 -2.65124 -0.584931 0
M  V30 16195 C 1488.19 -3.00677 1.97791 0
M  V30 16196 C 1487.8 -2.82376 3.47805 0
M  V30 16197 C 1489.54 -3.78499 1.92195 0
M  V30 16198 C 1487.45 -4.1167 4.24596 0
M  V30 16199 H 1486.38 -0.626171 0.420031 0
M  V30 16200 H 1489.03 -1.02997 1.51868 0
M  V30 16201 H 1487.41 -3.65681 1.51965 0
M  V30 16202 H 1488.59 -2.26135 4.01497 0
M  V30 16203 H 1486.9 -2.17982 3.54786 0
M  V30 16204 H 1489.5 -4.74312 2.46844 0
M  V30 16205 H 1489.84 -4.0655 0.895702 0
M  V30 16206 H 1490.38 -3.20292 2.35919 0
M  V30 16207 H 1487.12 -3.88798 5.27747 0
M  V30 16208 H 1486.64 -4.67573 3.75681 0
M  V30 16209 H 1488.31 -4.80028 4.338 0
M  V30 16210 N 1488.45 -1.09474 -1.13372 0
M  V30 16211 C 1489.67 -0.852921 -1.88502 0
M  V30 16212 C 1490.09 0.595855 -1.79151 0
M  V30 16213 O 1489.45 1.41019 -1.15845 0
M  V30 16214 C 1489.5 -1.27993 -3.38083 0
M  V30 16215 O 1489.22 -2.67189 -3.47191 0
M  V30 16216 C 1490.72 -1.07056 -4.30179 0
M  V30 16217 H 1487.94 -0.30682 -0.596743 0
M  V30 16218 H 1490.48 -1.45685 -1.43513 0
M  V30 16219 H 1488.64 -0.719879 -3.80653 0
M  V30 16220 H 1489.05 -2.85202 -4.40182 0
M  V30 16221 H 1490.53 -1.4186 -5.3346 0
M  V30 16222 H 1491 -0.00838732 -4.39199 0
M  V30 16223 H 1491.61 -1.61659 -3.93378 0
M  V30 16224 N 1489.92 1.30607 -0.882012 0
M  V30 16225 C 1490.87 2.3016 -0.336011 0
M  V30 16226 C 1491.87 1.60037 0.555389 0
M  V30 16227 O 1493.07 1.74536 0.440152 0
M  V30 16228 H 1489.45 0.746595 -0.0899982 0
M  V30 16229 H 1491.42 2.73673 -1.18936 0
M  V30 16230 C 1490.17 3.44942 0.437061 0
M  V30 16231 H 1489.49 3.99081 -0.2396 0
M  V30 16232 H 1490.93 4.16684 0.784242 0
M  V30 16233 C 1489.39 2.94678 1.633 0
M  V30 16234 O 1489.92 2.94457 2.73236 0
M  V30 16235 N 1488.13 2.50727 1.46917 0
M  V30 16236 H 1487.67 2.51105 0.574807 0
M  V30 16237 H 1487.63 2.17453 2.27072 0
M  V30 16238 N 1491.4 0.642663 1.43901 0
M  V30 16239 C 1492.35 -0.0673926 2.32502 0
M  V30 16240 C 1493.34 -0.823981 1.4801 0
M  V30 16241 O 1494.55 -0.735575 1.64284 0
M  V30 16242 H 1490.93 -0.0405715 0.750905 0
M  V30 16243 H 1492.9 0.69777 2.90127 0
M  V30 16244 C 1491.65 -1.02745 3.32173 0
M  V30 16245 H 1490.97 -0.454697 3.97206 0
M  V30 16246 H 1492.41 -1.49355 3.96824 0
M  V30 16247 C 1490.87 -2.11835 2.61969 0
M  V30 16248 O 1491.4 -3.20074 2.42725 0
M  V30 16249 N 1489.6 -1.88092 2.21517 0
M  V30 16250 H 1489.15 -1.00072 2.37368 0
M  V30 16251 H 1489.11 -2.61279 1.74873 0
M  V30 16252 N 1492.88 -1.52852 0.383918 0
M  V30 16253 C 1494.13 -2.00694 -0.201206 0
M  V30 16254 C 1494.44 -1.2748 -1.48352 0
M  V30 16255 O 1495.65 -1.66005 -2.14836 0
M  V30 16256 C 1494.11 -3.57567 -0.409117 0
M  V30 16257 C 1493.71 -4.39675 0.859628 0
M  V30 16258 C 1495.46 -4.13713 -0.950899 0
M  V30 16259 C 1493.36 -5.88138 0.620292 0
M  V30 16260 H 1492.29 -0.749854 -0.0789656 0
M  V30 16261 H 1494.95 -1.764 0.505488 0
M  V30 16262 H 1493.33 -3.78088 -1.17753 0
M  V30 16263 H 1494.5 -4.30923 1.63224 0
M  V30 16264 H 1492.82 -3.94724 1.32597 0
M  V30 16265 H 1495.41 -5.22284 -1.14558 0
M  V30 16266 H 1495.76 -3.69463 -1.9184 0
M  V30 16267 H 1496.29 -3.97062 -0.242195 0
M  V30 16268 H 1493.03 -6.367 1.55864 0
M  V30 16269 H 1492.55 -5.99693 -0.113483 0
M  V30 16270 H 1494.23 -6.46506 0.252775 0
M  V30 16271 N 1494.36 -0.113586 -1.5719 0
M  V30 16272 C 1495.29 0.875741 -2.10727 0
M  V30 16273 C 1496.27 1.2644 -1.02233 0
M  V30 16274 O 1497.45 1.36641 -1.29852 0
M  V30 16275 C 1494.58 2.17123 -2.59952 0
M  V30 16276 C 1493.63 1.93105 -3.8028 0
M  V30 16277 S 1494.46 1.15223 -5.22957 0
M  V30 16278 C 1495.62 2.45963 -5.75546 0
M  V30 16279 H 1495.85 0.420351 -2.94313 0
M  V30 16280 H 1493.38 0.100081 -1.54075 0
M  V30 16281 H 1495.34 2.91561 -2.88968 0
M  V30 16282 H 1494 2.59781 -1.76558 0
M  V30 16283 H 1493.19 2.89082 -4.12853 0
M  V30 16284 H 1492.8 1.2679 -3.51853 0
M  V30 16285 H 1495.09 3.41835 -5.8494 0
M  V30 16286 H 1496.03 2.17943 -6.73726 0
M  V30 16287 H 1496.44 2.55083 -5.0358 0
M  V30 16288 N 1495.84 1.56784 0.160173 0
M  V30 16289 C 1497.09 1.8226 0.873253 0
M  V30 16290 C 1497.41 0.692384 1.82294 0
M  V30 16291 O 1496.68 -0.286961 1.93787 0
M  V30 16292 H 1495.26 0.672371 0.325463 0
M  V30 16293 H 1497.92 1.94264 0.157325 0
M  V30 16294 H 1497.01 2.76714 1.44345 0
M  V30 16295 N 1497.32 -0.429099 1.51646 0
M  V30 16296 C 1498.55 -1.19832 1.68297 0
M  V30 16297 C 1498.95 -1.85275 0.383378 0
M  V30 16298 O 1498.3 -1.71862 -0.648771 0
M  V30 16299 C 1498.36 -2.31803 2.74786 0
M  V30 16300 C 1498.02 -1.8666 4.17141 0
M  V30 16301 C 1499.02 -1.36544 5.01649 0
M  V30 16302 C 1496.7 -1.94101 4.63282 0
M  V30 16303 C 1498.7 -0.944655 6.30361 0
M  V30 16304 C 1496.39 -1.51634 5.91988 0
M  V30 16305 C 1497.38 -1.01899 6.75356 0
M  V30 16306 O 1497.07 -0.600375 8.01655 0
M  V30 16307 H 1496.8 -0.366924 0.567752 0
M  V30 16308 H 1499.36 -0.513643 1.98874 0
M  V30 16309 H 1497.59 -3.03573 2.39542 0
M  V30 16310 H 1499.28 -2.93639 2.80234 0
M  V30 16311 H 1500.04 -1.30184 4.67201 0
M  V30 16312 H 1495.92 -2.31758 3.98509 0
M  V30 16313 H 1499.47 -0.555763 6.95383 0
M  V30 16314 H 1495.36 -1.57667 6.25948 0
M  V30 16315 H 1496.13 -0.725485 8.15278 0
M  V30 16316 N 1498.79 -1.41931 -0.685074 0
M  V30 16317 C 1499.73 -1.39028 -1.8096 0
M  V30 16318 C 1500.7 -0.256001 -1.60572 0
M  V30 16319 O 1501.89 -0.44459 -1.83182 0
M  V30 16320 C 1499.02 -1.17125 -3.17804 0
M  V30 16321 C 1498.06 -2.33411 -3.56961 0
M  V30 16322 S 1498.89 -3.9592 -3.60565 0
M  V30 16323 C 1500.05 -3.7634 -5.00119 0
M  V30 16324 H 1500.28 -2.34189 -1.83146 0
M  V30 16325 H 1497.82 -1.2858 -0.854778 0
M  V30 16326 H 1499.77 -1.05175 -3.96798 0
M  V30 16327 H 1498.44 -0.235668 -3.13215 0
M  V30 16328 H 1497.63 -2.13807 -4.56402 0
M  V30 16329 H 1497.23 -2.41823 -2.85303 0
M  V30 16330 H 1499.52 -3.36695 -5.87914 0
M  V30 16331 H 1500.47 -4.7542 -5.24768 0
M  V30 16332 H 1500.87 -3.09407 -4.72152 0
M  V30 16333 N 1500.27 0.920374 -1.27933 0
M  V30 16334 C 1501.22 2.02196 -1.1129 0
M  V30 16335 C 1502.19 1.66096 -0.0118871 0
M  V30 16336 O 1503.37 1.8999 -0.175586 0
M  V30 16337 C 1500.51 3.36312 -0.77383 0
M  V30 16338 C 1499.63 3.85322 -1.95322 0
M  V30 16339 C 1498.76 5.07919 -1.55537 0
M  V30 16340 C 1497.8 5.49244 -2.7018 0
M  V30 16341 N 1496.94 6.63034 -2.30933 0
M  V30 16342 H 1501.78 2.15764 -2.05548 0
M  V30 16343 H 1499.31 1.05691 -1.02312 0
M  V30 16344 H 1501.27 4.13451 -0.558024 0
M  V30 16345 H 1499.9 3.22531 0.131806 0
M  V30 16346 H 1498.95 3.04399 -2.28135 0
M  V30 16347 H 1500.27 4.11915 -2.81296 0
M  V30 16348 H 1499.42 5.92581 -1.30123 0
M  V30 16349 H 1498.16 4.8312 -0.666818 0
M  V30 16350 H 1497.16 4.63127 -2.96299 0
M  V30 16351 H 1498.39 5.76035 -3.59667 0
M  V30 16352 H 1496.34 6.39878 -1.44539 0
M  V30 16353 H 1496.25 6.89319 -3.10444 0
M  V30 16354 H 1497.52 7.51018 -2.08786 0
M  V30 16355 N 1501.75 1.10074 1.1279 0
M  V30 16356 C 1502.68 0.768146 2.20503 0
M  V30 16357 C 1503.66 -0.257199 1.68144 0
M  V30 16358 O 1504.85 -0.12379 1.93805 0
M  V30 16359 C 1501.98 0.195125 3.46751 0
M  V30 16360 C 1500.93 1.15074 4.1224 0
M  V30 16361 C 1500.26 0.439098 5.32894 0
M  V30 16362 C 1501.56 2.49584 4.58808 0
M  V30 16363 H 1503.25 1.66876 2.48581 0
M  V30 16364 H 1500.8 0.803806 1.19478 0
M  V30 16365 H 1502.75 -0.0496695 4.21371 0
M  V30 16366 H 1501.47 -0.740717 3.1809 0
M  V30 16367 H 1500.13 1.38092 3.39597 0
M  V30 16368 H 1499.78 -0.501096 5.00498 0
M  V30 16369 H 1499.48 1.07632 5.77658 0
M  V30 16370 H 1501 0.202761 6.10263 0
M  V30 16371 H 1502.42 2.30736 5.24818 0
M  V30 16372 H 1500.81 3.09157 5.14336 0
M  V30 16373 H 1501.88 3.09857 3.72984 0
M  V30 16374 N 1503.23 -1.30138 0.888926 0
M  V30 16375 C 1504.46 -1.99853 0.523676 0
M  V30 16376 C 1504.87 -1.66783 -0.893312 0
M  V30 16377 O 1504.21 -0.903292 -1.59957 0
M  V30 16378 C 1504.27 -3.54055 0.623332 0
M  V30 16379 C 1503.93 -4.10652 2.00534 0
M  V30 16380 C 1504.93 -4.26353 2.97522 0
M  V30 16381 C 1502.62 -4.45938 2.3118 0
M  V30 16382 C 1504.61 -4.76557 4.23288 0
M  V30 16383 C 1502.3 -4.95841 3.57191 0
M  V30 16384 C 1503.3 -5.11103 4.53059 0
M  V30 16385 O 1502.98 -5.59927 5.76833 0
M  V30 16386 H 1502.72 -0.645553 0.200591 0
M  V30 16387 H 1505.27 -1.66899 1.19724 0
M  V30 16388 H 1503.5 -3.86551 -0.107221 0
M  V30 16389 H 1505.19 -4.05009 0.26879 0
M  V30 16390 H 1505.95 -3.9939 2.75159 0
M  V30 16391 H 1501.83 -4.33324 1.57326 0
M  V30 16392 H 1505.38 -4.88385 4.98123 0
M  V30 16393 H 1501.27 -5.22239 3.7939 0
M  V30 16394 H 1502.04 -5.78263 5.79271 0
M  V30 16395 N 1504.71 -0.650285 -1.43559 0
M  V30 16396 C 1505.95 -0.159832 -2.01066 0
M  V30 16397 C 1506.27 1.23246 -1.51887 0
M  V30 16398 O 1507.47 1.81797 -2.01648 0
M  V30 16399 C 1505.93 -0.23494 -3.59132 0
M  V30 16400 C 1505.54 -1.62975 -4.17305 0
M  V30 16401 C 1507.28 0.198061 -4.24038 0
M  V30 16402 C 1505.19 -1.65894 -5.67656 0
M  V30 16403 H 1504.12 -0.0559899 -0.751918 0
M  V30 16404 H 1506.77 -0.811891 -1.64562 0
M  V30 16405 H 1505.15 0.484573 -3.93024 0
M  V30 16406 H 1506.33 -2.37438 -3.94918 0
M  V30 16407 H 1504.64 -2.00847 -3.64759 0
M  V30 16408 H 1507.24 0.196054 -5.3434 0
M  V30 16409 H 1507.58 1.22896 -3.97747 0
M  V30 16410 H 1508.11 -0.469602 -3.95018 0
M  V30 16411 H 1504.85 -2.66883 -5.9871 0
M  V30 16412 H 1504.37 -0.957519 -5.92108 0
M  V30 16413 H 1506.05 -1.40137 -6.31641 0
M  V30 16414 N 1506.18 1.52647 -0.392018 0
M  V30 16415 C 1507.13 2.28073 0.456674 0
M  V30 16416 C 1508.13 1.3208 1.06071 0
M  V30 16417 O 1509.33 1.49608 1.00088 0
M  V30 16418 H 1505.71 0.733443 0.166029 0
M  V30 16419 H 1507.68 2.97723 -0.200916 0
M  V30 16420 C 1506.43 3.10216 1.5704 0
M  V30 16421 H 1505.75 3.83939 1.11493 0
M  V30 16422 H 1507.19 3.66126 2.1384 0
M  V30 16423 C 1505.65 2.22698 2.52799 0
M  V30 16424 O 1506.18 1.8556 3.56273 0
M  V30 16425 N 1504.38 1.86804 2.22604 0
M  V30 16426 H 1503.93 2.17204 1.38492 0
M  V30 16427 H 1503.89 1.28538 2.86924 0
M  V30 16428 N 1507.66 0.121921 1.57128 0
M  V30 16429 C 1508.91 -0.534313 1.94909 0
M  V30 16430 C 1509.23 -1.67029 1.0063 0
M  V30 16431 O 1508.5 -1.95798 0.0631366 0
M  V30 16432 H 1507.08 -0.200372 0.719625 0
M  V30 16433 H 1509.74 0.191546 1.93956 0
M  V30 16434 H 1508.84 -0.926974 2.98016 0
M  V30 16435 N 1509.14 -1.56867 -0.151857 0
M  V30 16436 C 1510.05 -2.01157 -1.20718 0
M  V30 16437 C 1511.07 -0.926166 -1.47303 0
M  V30 16438 O 1512.24 -1.23528 -1.59069 0
M  V30 16439 C 1509.31 -2.37915 -2.52185 0
M  V30 16440 C 1508.37 -3.60381 -2.3329 0
M  V30 16441 C 1507.6 -3.95376 -3.58488 0
M  V30 16442 O 1507.82 -3.31093 -4.64471 0
M  V30 16443 O 1506.76 -4.88645 -3.5144 0
M  V30 16444 H 1510.58 -2.91234 -0.861175 0
M  V30 16445 H 1508.17 -1.44993 -0.360213 0
M  V30 16446 H 1510.05 -2.6244 -3.29702 0
M  V30 16447 H 1508.73 -1.50995 -2.86325 0
M  V30 16448 H 1507.63 -3.4105 -1.5374 0
M  V30 16449 H 1508.97 -4.47903 -2.04067 0
M  V30 16450 N 1510.62 0.421051 -1.51871 0
M  V30 16451 C 1511.55 1.51928 -1.77313 0
M  V30 16452 C 1512.53 1.58258 -0.623579 0
M  V30 16453 O 1513.71 1.73724 -0.867967 0
M  V30 16454 C 1510.84 2.89865 -1.913 0
M  V30 16455 C 1509.8 2.98391 -3.06834 0
M  V30 16456 C 1509.12 4.38466 -3.06026 0
M  V30 16457 C 1510.42 2.7097 -4.46511 0
M  V30 16458 H 1512.12 1.30889 -2.69274 0
M  V30 16459 H 1509.66 0.628229 -1.29573 0
M  V30 16460 H 1511.62 3.66669 -2.07682 0
M  V30 16461 H 1510.34 3.12172 -0.960011 0
M  V30 16462 H 1509 2.24029 -2.90184 0
M  V30 16463 H 1508.65 4.57764 -2.08472 0
M  V30 16464 H 1508.35 4.45097 -3.83618 0
M  V30 16465 H 1509.87 5.17221 -3.24522 0
M  V30 16466 H 1511.29 3.37501 -4.63428 0
M  V30 16467 H 1509.68 2.88992 -5.25931 0
M  V30 16468 H 1510.75 1.66476 -4.55427 0
M  V30 16469 N 1512.1 1.42293 0.677538 0
M  V30 16470 C 1513.04 1.45556 1.79114 0
M  V30 16471 C 1514.01 0.307826 1.63223 0
M  V30 16472 O 1515.2 0.511504 1.83816 0
M  V30 16473 C 1512.34 1.36104 3.17127 0
M  V30 16474 C 1511.45 2.60891 3.44325 0
M  V30 16475 C 1510.59 2.43601 4.72051 0
M  V30 16476 C 1509.63 3.63775 4.92274 0
M  V30 16477 N 1508.76 3.45444 6.11239 0
M  V30 16478 H 1513.6 2.40723 1.7566 0
M  V30 16479 H 1511.14 1.19517 0.857565 0
M  V30 16480 H 1513.1 1.28622 3.96878 0
M  V30 16481 H 1511.73 0.445342 3.19713 0
M  V30 16482 H 1510.78 2.78751 2.58848 0
M  V30 16483 H 1512.09 3.50229 3.55163 0
M  V30 16484 H 1511.25 2.33689 5.59888 0
M  V30 16485 H 1509.98 1.51748 4.63491 0
M  V30 16486 H 1508.99 3.74122 4.0288 0
M  V30 16487 H 1510.21 4.56605 5.02681 0
M  V30 16488 H 1508.16 2.56306 6.03857 0
M  V30 16489 H 1508.08 4.28368 6.22926 0
M  V30 16490 H 1509.35 3.39339 7.01762 0
M  V30 16491 N 1513.57 -0.913576 1.28419 0
M  V30 16492 C 1514.51 -2.02073 1.08163 0
M  V30 16493 C 1515.52 -1.62766 0.0333064 0
M  V30 16494 O 1516.71 -1.76347 0.27638 0
M  V30 16495 C 1513.81 -3.33151 0.621596 0
M  V30 16496 C 1512.98 -4.01068 1.74536 0
M  V30 16497 C 1512.04 -5.10428 1.27868 0
M  V30 16498 O 1511.07 -5.33617 1.98094 0
M  V30 16499 N 1512.27 -5.80326 0.141976 0
M  V30 16500 H 1515.03 -2.20009 2.0351 0
M  V30 16501 H 1512.59 -1.08488 1.20174 0
M  V30 16502 H 1514.59 -4.03638 0.292989 0
M  V30 16503 H 1513.16 -3.11685 -0.239031 0
M  V30 16504 H 1512.38 -3.24127 2.24355 0
M  V30 16505 H 1513.66 -4.4319 2.49919 0
M  V30 16506 H 1513.06 -5.63956 -0.443845 0
M  V30 16507 H 1511.62 -6.51676 -0.127354 0
M  V30 16508 N 1515.05 -1.1067 -1.12204 0
M  V30 16509 C 1516.28 -0.873095 -1.88127 0
M  V30 16510 C 1516.7 0.571099 -1.79221 0
M  V30 16511 O 1516.06 1.40251 -1.14888 0
M  V30 16512 C 1516.11 -1.32922 -3.35208 0
M  V30 16513 O 1515.21 -0.495807 -4.09409 0
M  V30 16514 H 1514.55 -0.315138 -0.584452 0
M  V30 16515 H 1517.08 -1.47413 -1.41882 0
M  V30 16516 H 1517.09 -1.32023 -3.86049 0
M  V30 16517 H 1515.77 -2.38091 -3.41007 0
M  V30 16518 H 1514.35 -0.570216 -3.68515 0
M  V30 16519 N 1516.53 1.29665 -0.895815 0
M  V30 16520 C 1517.46 2.26842 -0.327939 0
M  V30 16521 C 1518.48 1.54151 0.523578 0
M  V30 16522 O 1519.66 1.75205 0.341367 0
M  V30 16523 C 1516.76 3.34384 0.551393 0
M  V30 16524 C 1515.94 4.36544 -0.273514 0
M  V30 16525 C 1515 5.23442 0.538031 0
M  V30 16526 O 1514.02 5.69184 -0.0431025 0
M  V30 16527 N 1515.22 5.50402 1.84493 0
M  V30 16528 H 1517.99 2.76208 -1.16315 0
M  V30 16529 H 1515.55 1.42958 -0.759903 0
M  V30 16530 H 1517.54 3.89446 1.10062 0
M  V30 16531 H 1516.11 2.84864 1.28728 0
M  V30 16532 H 1515.33 3.81196 -1.00416 0
M  V30 16533 H 1516.62 5.01842 -0.838589 0
M  V30 16534 H 1516.02 5.15041 2.33985 0
M  V30 16535 H 1514.58 6.08295 2.34137 0
M  V30 16536 N 1518.01 0.657889 1.43212 0
M  V30 16537 C 1518.96 -0.0308596 2.30779 0
M  V30 16538 C 1519.93 -0.809951 1.45014 0
M  V30 16539 O 1521.11 -0.785615 1.73876 0
M  V30 16540 C 1518.25 -0.988048 3.30653 0
M  V30 16541 C 1517.36 -0.204567 4.31515 0
M  V30 16542 C 1516.5 -1.15598 5.1847 0
M  V30 16543 C 1515.54 -0.363197 6.11022 0
M  V30 16544 N 1514.67 -1.26644 6.90584 0
M  V30 16545 H 1519.51 0.721745 2.89128 0
M  V30 16546 H 1517.05 0.367677 1.42431 0
M  V30 16547 H 1519.01 -1.55666 3.87071 0
M  V30 16548 H 1517.64 -1.70747 2.73944 0
M  V30 16549 H 1516.69 0.48041 3.77354 0
M  V30 16550 H 1518 0.411684 4.97098 0
M  V30 16551 H 1517.16 -1.79507 5.79536 0
M  V30 16552 H 1515.9 -1.80613 4.53023 0
M  V30 16553 H 1514.9 0.28922 5.49039 0
M  V30 16554 H 1516.13 0.28262 6.78512 0
M  V30 16555 H 1514.07 -1.90331 6.27782 0
M  V30 16556 H 1513.99 -0.70486 7.52707 0
M  V30 16557 H 1515.26 -1.89353 7.56152 0
M  V30 16558 N 1519.49 -1.52437 0.400108 0
M  V30 16559 C 1520.74 -2.00896 -0.179909 0
M  V30 16560 C 1521.05 -1.29046 -1.46991 0
M  V30 16561 O 1522.25 -1.68274 -2.13063 0
M  V30 16562 C 1520.71 -3.57981 -0.371169 0
M  V30 16563 C 1520.32 -4.38739 0.906213 0
M  V30 16564 C 1522.06 -4.14698 -0.906965 0
M  V30 16565 C 1519.97 -5.87447 0.682637 0
M  V30 16566 H 1518.9 -0.750649 -0.071008 0
M  V30 16567 H 1521.55 -1.75854 0.524169 0
M  V30 16568 H 1519.93 -3.79315 -1.13736 0
M  V30 16569 H 1521.11 -4.29167 1.67785 0
M  V30 16570 H 1519.42 -3.93296 1.36776 0
M  V30 16571 H 1522.02 -5.2347 -1.09012 0
M  V30 16572 H 1522.36 -3.71477 -1.87911 0
M  V30 16573 H 1522.89 -3.97297 -0.200068 0
M  V30 16574 H 1519.63 -6.35011 1.62608 0
M  V30 16575 H 1519.15 -5.99779 -0.0498716 0
M  V30 16576 H 1520.83 -6.46202 0.321331 0
M  V30 16577 N 1520.96 -0.130252 -1.57061 0
M  V30 16578 C 1521.87 0.829198 -2.19457 0
M  V30 16579 C 1522.89 1.2843 -1.17395 0
M  V30 16580 O 1524.07 1.34496 -1.49909 0
M  V30 16581 C 1521.13 2.05727 -2.79065 0
M  V30 16582 C 1520.19 1.65301 -3.962 0
M  V30 16583 C 1519.43 2.82253 -4.52956 0
M  V30 16584 O 1519.65 3.97999 -4.08598 0
M  V30 16585 O 1518.58 2.5869 -5.43473 0
M  V30 16586 H 1522.41 0.328139 -3.01922 0
M  V30 16587 H 1519.99 0.0959361 -1.49092 0
M  V30 16588 H 1521.88 2.7763 -3.17017 0
M  V30 16589 H 1520.55 2.54817 -1.99624 0
M  V30 16590 H 1519.46 0.904712 -3.62996 0
M  V30 16591 H 1520.79 1.20942 -4.7711 0
M  V30 16592 N 1522.44 1.56945 0.143535 0
M  V30 16593 C 1523.72 1.74461 0.884454 0
M  V30 16594 C 1524.1 0.699201 1.99184 0
M  V30 16595 O 1523.45 -0.281267 2.26762 0
M  V30 16596 C 1523.66 3.18639 1.42373 0
M  V30 16597 C 1525.01 3.80426 1.88577 0
M  V30 16598 O 1526.03 3.2209 1.52107 0
M  V30 16599 O 1524.89 4.82913 2.55847 0
M  V30 16600 H 1521.98 0.713457 0.41822 0
M  V30 16601 H 1524.53 1.69208 0.12919 0
M  V30 16602 H 1523.3 3.86227 0.628056 0
M  V30 16603 H 1522.92 3.28332 2.2424 0
M  V30 16604 N 1523.92 -0.412991 1.52093 0
M  V30 16605 C 1524.85 -1.50986 1.78117 0
M  V30 16606 C 1525.83 -1.57925 0.631963 0
M  V30 16607 O 1527.02 -1.73261 0.877168 0
M  V30 16608 C 1524.15 -2.88846 1.92835 0
M  V30 16609 C 1523.1 -2.96759 3.08412 0
M  V30 16610 C 1522.43 -4.36837 3.08347 0
M  V30 16611 C 1523.73 -2.68599 4.47942 0
M  V30 16612 H 1525.42 -1.29459 2.69964 0
M  V30 16613 H 1522.97 -0.621348 1.29905 0
M  V30 16614 H 1524.92 -3.65563 2.09623 0
M  V30 16615 H 1523.64 -3.11658 0.976553 0
M  V30 16616 H 1522.3 -2.22487 2.91368 0
M  V30 16617 H 1521.95 -4.56652 2.10897 0
M  V30 16618 H 1521.65 -4.43056 3.85973 0
M  V30 16619 H 1523.18 -5.15493 3.2726 0
M  V30 16620 H 1524.59 -3.35039 4.65212 0
M  V30 16621 H 1522.99 -2.86199 5.27456 0
M  V30 16622 H 1524.06 -1.64058 4.56304 0
M  V30 16623 N 1525.4 -1.4265 -0.669982 0
M  V30 16624 C 1526.68 -1.33858 -1.42623 0
M  V30 16625 C 1527.06 0.0217285 -2.11089 0
M  V30 16626 O 1526.4 1.03748 -2.03589 0
M  V30 16627 C 1526.61 -2.51015 -2.42472 0
M  V30 16628 C 1527.96 -2.93348 -3.06972 0
M  V30 16629 O 1528.99 -2.5094 -2.52799 0
M  V30 16630 O 1527.85 -3.66762 -4.05151 0
M  V30 16631 H 1524.94 -0.528141 -0.636393 0
M  V30 16632 H 1527.49 -1.54667 -0.6983 0
M  V30 16633 H 1526.26 -3.41679 -1.90713 0
M  V30 16634 H 1525.88 -2.32218 -3.2274 0
M  V30 16635 N 1526.88 0.906753 -1.28902 0
M  V30 16636 C 1527.79 2.04313 -1.15296 0
M  V30 16637 C 1528.8 1.73826 -0.0778619 0
M  V30 16638 O 1529.98 1.99322 -0.288543 0
M  V30 16639 C 1527.04 3.36782 -0.823317 0
M  V30 16640 C 1526.11 3.80834 -1.98152 0
M  V30 16641 C 1525.34 5.06981 -1.66751 0
M  V30 16642 O 1525.56 5.67391 -0.58513 0
M  V30 16643 O 1524.5 5.46915 -2.51332 0
M  V30 16644 H 1528.32 2.18713 -2.10709 0
M  V30 16645 H 1525.91 1.02928 -1.08287 0
M  V30 16646 H 1527.79 4.16298 -0.653735 0
M  V30 16647 H 1526.46 3.23542 0.101097 0
M  V30 16648 H 1525.37 3.02115 -2.2063 0
M  V30 16649 H 1526.7 3.98648 -2.88688 0
M  V30 16650 N 1528.36 1.11264 1.11616 0
M  V30 16651 C 1529.6 0.861639 1.83585 0
M  V30 16652 C 1529.93 -0.611221 1.8433 0
M  V30 16653 O 1529.21 -1.45116 1.29505 0
M  V30 16654 C 1529.49 1.42157 3.30852 0
M  V30 16655 C 1529.35 2.96192 3.38512 0
M  V30 16656 C 1530.66 1.07099 4.2687 0
M  V30 16657 H 1527.78 0.314464 0.666545 0
M  V30 16658 H 1530.43 1.37722 1.30892 0
M  V30 16659 H 1528.58 0.983054 3.75857 0
M  V30 16660 H 1530.25 3.48634 3.0208 0
M  V30 16661 H 1528.49 3.32353 2.7879 0
M  V30 16662 H 1529.16 3.30457 4.42156 0
M  V30 16663 H 1531.64 1.44952 3.90036 0
M  V30 16664 H 1530.51 1.48957 5.28302 0
M  V30 16665 H 1530.77 -0.018482 4.42096 0
M  V30 16666 N 1529.83 -1.29188 0.902679 0
M  V30 16667 C 1530.78 -2.27632 0.381088 0
M  V30 16668 C 1531.75 -1.57131 -0.538431 0
M  V30 16669 O 1532.94 -1.85096 -0.463027 0
M  V30 16670 C 1530.08 -3.42971 -0.382701 0
M  V30 16671 C 1529.19 -4.28249 0.568054 0
M  V30 16672 C 1528.32 -5.30772 -0.213082 0
M  V30 16673 C 1527.36 -6.07707 0.732004 0
M  V30 16674 N 1526.5 -7.02098 -0.0149139 0
M  V30 16675 H 1531.34 -2.71628 1.22566 0
M  V30 16676 H 1528.88 -1.33594 0.615724 0
M  V30 16677 H 1530.83 -4.08623 -0.841619 0
M  V30 16678 H 1529.46 -2.99997 -1.19171 0
M  V30 16679 H 1528.52 -3.62743 1.14549 0
M  V30 16680 H 1529.83 -4.81794 1.29136 0
M  V30 16681 H 1528.98 -6.02255 -0.733065 0
M  V30 16682 H 1527.72 -4.77966 -0.969504 0
M  V30 16683 H 1526.73 -5.35086 1.26346 0
M  V30 16684 H 1527.95 -6.62602 1.4878 0
M  V30 16685 H 1525.9 -6.51658 -0.753548 0
M  V30 16686 H 1525.81 -7.53214 0.648423 0
M  V30 16687 H 1527.08 -7.77796 -0.515062 0
M  V30 16688 N 1531.31 -0.665475 -1.42861 0
M  V30 16689 C 1532.24 0.00482845 -2.335 0
M  V30 16690 C 1533.22 0.799135 -1.50159 0
M  V30 16691 O 1534.41 0.75816 -1.78789 0
M  V30 16692 C 1531.54 0.963347 -3.33672 0
M  V30 16693 C 1530.49 0.278294 -4.27094 0
M  V30 16694 C 1529.82 1.34911 -5.174 0
M  V30 16695 C 1531.12 -0.836925 -5.15551 0
M  V30 16696 H 1532.81 -0.752129 -2.89799 0
M  V30 16697 H 1530.36 -0.363139 -1.39346 0
M  V30 16698 H 1532.31 1.44128 -3.95986 0
M  V30 16699 H 1531.03 1.75161 -2.75656 0
M  V30 16700 H 1529.69 -0.179314 -3.66161 0
M  V30 16701 H 1529.34 2.12912 -4.55716 0
M  V30 16702 H 1529.04 0.895919 -5.8073 0
M  V30 16703 H 1530.57 1.82816 -5.8259 0
M  V30 16704 H 1531.98 -0.440617 -5.71604 0
M  V30 16705 H 1530.38 -1.21533 -5.87665 0
M  V30 16706 H 1531.45 -1.6897 -4.54507 0
M  V30 16707 N 1532.79 1.52222 -0.408187 0
M  V30 16708 C 1534.07 1.94285 0.22641 0
M  V30 16709 C 1534.45 1.34501 1.62705 0
M  V30 16710 O 1533.79 0.52045 2.22494 0
M  V30 16711 C 1534 3.48217 0.233695 0
M  V30 16712 C 1535.35 4.22171 0.453504 0
M  V30 16713 O 1536.38 3.54821 0.313093 0
M  V30 16714 O 1535.24 5.416 0.730183 0
M  V30 16715 H 1532.33 0.814078 0.145625 0
M  V30 16716 H 1534.88 1.63232 -0.464062 0
M  V30 16717 H 1533.65 3.84111 -0.746644 0
M  V30 16718 H 1533.27 3.85629 0.968305 0
M  V30 16719 N 1534.27 0.138579 1.5699 0
M  V30 16720 C 1535.21 -0.804305 2.16332 0
M  V30 16721 C 1536.18 -1.25002 1.09379 0
M  V30 16722 O 1537.37 -1.32405 1.37381 0
M  V30 16723 C 1534.51 -2.04137 2.78248 0
M  V30 16724 C 1533.62 -1.64223 3.99568 0
M  V30 16725 C 1532.76 -2.83046 4.49509 0
M  V30 16726 C 1531.8 -2.39465 5.63314 0
M  V30 16727 N 1530.93 -3.51267 6.07911 0
M  V30 16728 H 1535.77 -0.29144 2.96571 0
M  V30 16729 H 1533.31 -0.132146 1.46505 0
M  V30 16730 H 1535.27 -2.76646 3.12286 0
M  V30 16731 H 1533.9 -2.52849 2.00667 0
M  V30 16732 H 1532.95 -0.815123 3.71564 0
M  V30 16733 H 1534.26 -1.2821 4.82041 0
M  V30 16734 H 1533.42 -3.63755 4.85559 0
M  V30 16735 H 1532.16 -3.22298 3.66026 0
M  V30 16736 H 1531.16 -1.57193 5.2685 0
M  V30 16737 H 1532.39 -2.01307 6.48577 0
M  V30 16738 H 1530.33 -3.90156 5.27365 0
M  V30 16739 H 1530.25 -3.19241 6.85289 0
M  V30 16740 H 1531.52 -4.32358 6.48604 0
M  V30 16741 N 1535.75 -1.57019 -0.13521 0
M  V30 16742 C 1536.97 -1.8816 -0.860434 0
M  V30 16743 C 1537.39 -0.728081 -1.74196 0
M  V30 16744 O 1536.75 0.301745 -1.79988 0
M  V30 16745 C 1536.8 -3.1864 -1.70737 0
M  V30 16746 O 1536.52 -4.29549 -0.861347 0
M  V30 16747 C 1538.02 -3.63376 -2.53915 0
M  V30 16748 H 1535.24 -0.623408 -0.248201 0
M  V30 16749 H 1537.78 -2.04121 -0.124461 0
M  V30 16750 H 1535.94 -3.04397 -2.39627 0
M  V30 16751 H 1536.35 -5.04233 -1.44393 0
M  V30 16752 H 1537.83 -4.57478 -3.08897 0
M  V30 16753 H 1538.3 -2.89238 -3.30512 0
M  V30 16754 H 1538.91 -3.80352 -1.90296 0
M  V30 16755 N 1537.22 0.404919 -1.52309 0
M  V30 16756 C 1538.47 1.14859 -1.65802 0
M  V30 16757 C 1538.79 1.91546 -0.396174 0
M  V30 16758 O 1539.99 2.68372 -0.410969 0
M  V30 16759 C 1538.45 2.09068 -2.92948 0
M  V30 16760 C 1538.06 1.37878 -4.26255 0
M  V30 16761 C 1539.8 2.83669 -3.15804 0
M  V30 16762 C 1537.71 2.30761 -5.44521 0
M  V30 16763 H 1536.64 0.432463 -0.61765 0
M  V30 16764 H 1539.29 0.412695 -1.78799 0
M  V30 16765 H 1537.67 2.86228 -2.7366 0
M  V30 16766 H 1538.84 0.660543 -4.56041 0
M  V30 16767 H 1537.16 0.753026 -4.09534 0
M  V30 16768 H 1539.76 3.53313 -4.0134 0
M  V30 16769 H 1540.1 3.46855 -2.30212 0
M  V30 16770 H 1540.63 2.13607 -3.35584 0
M  V30 16771 H 1537.37 1.72214 -6.32473 0
M  V30 16772 H 1536.89 3.00546 -5.19069 0
M  V30 16773 H 1538.57 2.91195 -5.77767 0
M  V30 16774 N 1538.7 1.43003 0.662408 0
M  V30 16775 C 1539.95 1.44346 1.4245 0
M  V30 16776 C 1540.28 0.064094 1.94094 0
M  V30 16777 O 1539.56 -0.913633 1.71706 0
M  V30 16778 C 1539.84 2.47822 2.61259 0
M  V30 16779 C 1539.69 3.94998 2.15166 0
M  V30 16780 C 1541.01 2.48139 3.63476 0
M  V30 16781 H 1538.13 0.525606 0.51663 0
M  V30 16782 H 1540.77 1.74495 0.751754 0
M  V30 16783 H 1538.92 2.22244 3.18653 0
M  V30 16784 H 1540.59 4.31601 1.62843 0
M  V30 16785 H 1538.84 4.0827 1.46622 0
M  V30 16786 H 1539.51 4.62998 3.00561 0
M  V30 16787 H 1541.98 2.70916 3.15823 0
M  V30 16788 H 1540.86 3.22498 4.44169 0
M  V30 16789 H 1541.12 1.51184 4.15447 0
M  V30 16790 N 1540.18 -0.899904 1.29381 0
M  V30 16791 C 1541.43 -1.65038 1.17341 0
M  V30 16792 C 1541.76 -1.92544 -0.275135 0
M  V30 16793 O 1541.01 -1.53402 -1.21517 0
M  V30 16794 C 1541.31 -3.0069 1.93185 0
M  V30 16795 C 1540.98 -2.92792 3.42905 0
M  V30 16796 C 1539.64 -2.90345 3.83736 0
M  V30 16797 C 1541.99 -2.82015 4.38312 0
M  V30 16798 C 1539.32 -2.7494 5.1829 0
M  V30 16799 C 1541.67 -2.68149 5.72956 0
M  V30 16800 C 1540.33 -2.64068 6.13045 0
M  V30 16801 H 1539.6 -0.603915 0.42938 0
M  V30 16802 H 1542.25 -1.04743 1.60316 0
M  V30 16803 H 1540.56 -3.6485 1.428 0
M  V30 16804 H 1542.25 -3.57688 1.81274 0
M  V30 16805 H 1538.84 -2.95498 3.10449 0
M  V30 16806 H 1543.03 -2.82982 4.07719 0
M  V30 16807 H 1538.28 -2.70186 5.48461 0
M  V30 16808 H 1542.46 -2.58781 6.46533 0
M  V30 16809 H 1540.08 -2.51889 7.17256 0
M  V30 16810 N 1541.66 -1.11854 -1.11024 0
M  V30 16811 C 1542.91 -0.868355 -1.82494 0
M  V30 16812 C 1543.23 0.607622 -1.85292 0
M  V30 16813 O 1542.5 1.44147 -1.32659 0
M  V30 16814 H 1541.08 -0.31826 -0.67581 0
M  V30 16815 H 1543.74 -1.4118 -1.34366 0
M  V30 16816 H 1542.84 -1.24441 -2.86218 0
M  V30 16817 N 1543.14 1.28707 -0.909517 0
M  V30 16818 C 1544.39 1.94437 -0.536401 0
M  V30 16819 C 1544.7 1.72416 0.923685 0
M  V30 16820 O 1545.9 2.32333 1.40477 0
M  V30 16821 C 1544.36 3.48246 -0.908455 0
M  V30 16822 C 1543.97 3.79051 -2.38798 0
M  V30 16823 C 1545.71 4.20156 -0.605721 0
M  V30 16824 C 1543.62 5.2615 -2.70038 0
M  V30 16825 H 1542.55 0.727842 -0.196882 0
M  V30 16826 H 1545.2 1.46283 -1.10786 0
M  V30 16827 H 1543.58 3.95107 -0.265829 0
M  V30 16828 H 1544.76 3.43014 -3.07698 0
M  V30 16829 H 1543.07 3.20303 -2.66074 0
M  V30 16830 H 1545.67 5.28439 -0.815849 0
M  V30 16831 H 1546.01 4.13792 0.456266 0
M  V30 16832 H 1546.54 3.79059 -1.20662 0
M  V30 16833 H 1543.28 5.37587 -3.75073 0
M  V30 16834 H 1542.8 5.63399 -2.05771 0
M  V30 16835 H 1544.48 5.93846 -2.56819 0
M  V30 16836 N 1544.61 0.673042 1.42506 0
M  V30 16837 C 1545.89 0.123606 1.95209 0
M  V30 16838 C 1546.27 -1.36118 1.61354 0
M  V30 16839 O 1545.62 -2.0965 0.908793 0
M  V30 16840 C 1545.83 0.39088 3.46804 0
M  V30 16841 C 1547.18 0.306445 4.23493 0
M  V30 16842 O 1548.2 0.32453 3.54719 0
M  V30 16843 O 1547.06 0.247127 5.45941 0
M  V30 16844 H 1544.15 0.00184868 0.826998 0
M  V30 16845 H 1546.7 0.74765 1.52343 0
M  V30 16846 H 1545.47 1.41951 3.64645 0
M  V30 16847 H 1545.1 -0.265259 3.96714 0
M  V30 16848 N 1546.09 -1.52004 0.416254 0
M  V30 16849 C 1547 -2.30947 -0.412403 0
M  V30 16850 C 1548.02 -1.38969 -1.04707 0
M  V30 16851 O 1549.19 -1.72044 -1.04703 0
M  V30 16852 C 1546.26 -3.12078 -1.51024 0
M  V30 16853 C 1545.32 -4.19805 -0.897892 0
M  V30 16854 C 1544.55 -4.97059 -1.94341 0
M  V30 16855 O 1544.78 -4.74695 -3.16261 0
M  V30 16856 O 1543.71 -5.81715 -1.54567 0
M  V30 16857 H 1547.54 -3.02817 0.231473 0
M  V30 16858 H 1545.12 -1.4832 0.179283 0
M  V30 16859 H 1547 -3.6258 -2.14741 0
M  V30 16860 H 1545.68 -2.42995 -2.13858 0
M  V30 16861 H 1544.59 -3.73433 -0.223236 0
M  V30 16862 H 1545.92 -4.91201 -0.31336 0
M  V30 16863 N 1547.57 -0.146903 -1.56914 0
M  V30 16864 C 1548.52 0.809917 -2.18044 0
M  V30 16865 C 1549.51 1.25536 -1.13741 0
M  V30 16866 O 1550.72 1.22385 -1.31992 0
M  V30 16867 H 1547.09 0.279387 -0.698174 0
M  V30 16868 H 1549.06 0.270135 -2.97175 0
M  V30 16869 C 1547.81 2.03904 -2.81635 0
M  V30 16870 H 1547.14 1.70526 -3.61609 0
M  V30 16871 H 1548.58 2.68795 -3.2791 0
M  V30 16872 C 1547.04 2.84696 -1.80138 0
M  V30 16873 O 1547.57 3.81036 -1.27179 0
M  V30 16874 N 1545.77 2.49229 -1.49444 0
M  V30 16875 H 1545.32 1.70949 -1.92702 0
M  V30 16876 H 1545.28 3.03577 -0.817811 0
M  V30 16877 N 1549.05 1.57088 0.126881 0
M  V30 16878 C 1550.3 1.83624 0.834582 0
M  V30 16879 C 1550.61 0.731331 1.81414 0
M  V30 16880 O 1551.82 0.88286 2.56745 0
M  V30 16881 C 1550.27 3.25529 1.5349 0
M  V30 16882 C 1549.88 4.44008 0.59673 0
M  V30 16883 C 1551.62 3.6132 2.22819 0
M  V30 16884 C 1549.53 5.76939 1.29982 0
M  V30 16885 H 1548.46 0.684858 0.315414 0
M  V30 16886 H 1551.11 1.83292 0.087305 0
M  V30 16887 H 1549.49 3.20306 2.32852 0
M  V30 16888 H 1550.67 4.60511 -0.163109 0
M  V30 16889 H 1548.98 4.16399 0.0108081 0
M  V30 16890 H 1551.58 4.57902 2.76098 0
M  V30 16891 H 1551.92 2.88363 3.00254 0
M  V30 16892 H 1552.46 3.68291 1.50354 0
M  V30 16893 H 1549.2 6.53044 0.566925 0
M  V30 16894 H 1548.72 5.64336 2.03187 0
M  V30 16895 H 1550.39 6.20427 1.8352 0
M  V30 16896 N 1550.53 -0.396836 1.52522 0
M  V30 16897 C 1551.8 -1.15638 1.57757 0
M  V30 16898 C 1552.18 -2.07903 0.365998 0
M  V30 16899 O 1551.53 -2.1917 -0.646266 0
M  V30 16900 C 1551.74 -1.92292 2.91247 0
M  V30 16901 C 1553.09 -2.47929 3.44697 0
M  V30 16902 O 1554.11 -2.02458 2.93069 0
M  V30 16903 O 1552.97 -3.30969 4.34881 0
M  V30 16904 H 1550.07 -0.52867 0.635953 0
M  V30 16905 H 1552.61 -0.402622 1.64855 0
M  V30 16906 H 1551.38 -1.24775 3.70873 0
M  V30 16907 H 1551.01 -2.74646 2.87498 0
M  V30 16908 N 1552.01 -1.43353 -0.654814 0
M  V30 16909 C 1552.92 -1.50831 -1.79687 0
M  V30 16910 C 1553.93 -0.395518 -1.69445 0
M  V30 16911 O 1555.11 -0.649408 -1.90643 0
M  V30 16912 C 1552.17 -1.42735 -3.15955 0
M  V30 16913 C 1551.23 -2.64671 -3.38005 0
M  V30 16914 C 1550.47 -2.56952 -4.67773 0
M  V30 16915 O 1550.69 -1.61638 -5.47019 0
M  V30 16916 O 1549.62 -3.47425 -4.91507 0
M  V30 16917 H 1553.45 -2.47266 -1.76333 0
M  V30 16918 H 1551.03 -1.25336 -0.813095 0
M  V30 16919 H 1552.92 -1.40656 -3.97233 0
M  V30 16920 H 1551.59 -0.494334 -3.19903 0
M  V30 16921 H 1550.5 -2.72323 -2.56498 0
M  V30 16922 H 1551.83 -3.5694 -3.38903 0
M  V30 16923 N 1553.48 0.89303 -1.29857 0
M  V30 16924 C 1554.43 2.01928 -1.15447 0
M  V30 16925 C 1555.43 1.69262 -0.0683677 0
M  V30 16926 O 1556.63 1.78542 -0.228646 0
M  V30 16927 H 1553.01 0.661961 -0.356807 0
M  V30 16928 H 1554.98 2.11218 -2.10784 0
M  V30 16929 C 1553.73 3.37031 -0.85473 0
M  V30 16930 H 1553.05 3.62673 -1.68251 0
M  V30 16931 H 1554.49 4.165 -0.793973 0
M  V30 16932 C 1552.95 3.33986 0.442183 0
M  V30 16933 O 1553.48 3.73986 1.4662 0
M  V30 16934 N 1551.68 2.87088 0.450438 0
M  V30 16935 H 1551.23 2.54732 -0.383347 0
M  V30 16936 H 1551.19 2.85433 1.31815 0
M  V30 16937 N 1554.96 1.12442 1.10429 0
M  V30 16938 C 1555.89 0.750131 2.16577 0
M  V30 16939 C 1556.91 -0.223265 1.61262 0
M  V30 16940 O 1558.1 -0.00459454 1.78499 0
M  V30 16941 C 1555.2 0.0895474 3.38782 0
M  V30 16942 C 1554.37 1.09242 4.23539 0
M  V30 16943 C 1553.43 0.45945 5.2419 0
M  V30 16944 O 1552.45 1.11646 5.58143 0
M  V30 16945 N 1553.66 -0.773093 5.75329 0
M  V30 16946 H 1556.42 1.66349 2.49295 0
M  V30 16947 H 1553.98 1.01603 1.26049 0
M  V30 16948 H 1555.97 -0.345895 4.03219 0
M  V30 16949 H 1554.54 -0.726572 3.04039 0
M  V30 16950 H 1553.76 1.70549 3.55396 0
M  V30 16951 H 1555.05 1.77057 4.76999 0
M  V30 16952 H 1554.45 -1.32585 5.49943 0
M  V30 16953 H 1553.01 -1.15135 6.41551 0
M  V30 16954 N 1556.44 -1.28223 0.91633 0
M  V30 16955 C 1557.37 -2.25482 0.351128 0
M  V30 16956 C 1558.35 -1.53155 -0.546108 0
M  V30 16957 O 1559.53 -1.82042 -0.489182 0
M  V30 16958 C 1556.66 -3.35021 -0.497832 0
M  V30 16959 C 1555.71 -4.25187 0.334384 0
M  V30 16960 S 1556.54 -5.06348 1.74276 0
M  V30 16961 C 1557.7 -6.19378 0.901172 0
M  V30 16962 H 1557.93 -2.73075 1.17547 0
M  V30 16963 H 1555.46 -1.36703 0.717752 0
M  V30 16964 H 1557.42 -3.98586 -0.98182 0
M  V30 16965 H 1556.08 -2.8609 -1.29658 0
M  V30 16966 H 1555.27 -5.03015 -0.314884 0
M  V30 16967 H 1554.88 -3.66359 0.75212 0
M  V30 16968 H 1557.17 -6.77371 0.131985 0
M  V30 16969 H 1558.11 -6.88558 1.65208 0
M  V30 16970 H 1558.52 -5.62718 0.448206 0
M  V30 16971 N 1557.92 -0.68059 -1.42147 0
M  V30 16972 C 1558.85 -0.0199376 -2.33491 0
M  V30 16973 C 1559.83 0.783164 -1.50999 0
M  V30 16974 O 1561.01 0.739154 -1.79583 0
M  V30 16975 C 1558.14 0.927902 -3.34675 0
M  V30 16976 C 1557.1 0.232979 -4.27365 0
M  V30 16977 C 1556.42 1.29415 -5.18802 0
M  V30 16978 C 1557.72 -0.891559 -5.14634 0
M  V30 16979 H 1559.42 -0.782823 -2.88985 0
M  V30 16980 H 1556.96 -0.377898 -1.38953 0
M  V30 16981 H 1558.92 1.3992 -3.97493 0
M  V30 16982 H 1557.64 1.72228 -2.77498 0
M  V30 16983 H 1556.3 -0.21814 -3.6595 0
M  V30 16984 H 1555.95 2.08067 -4.57949 0
M  V30 16985 H 1555.65 0.834274 -5.81647 0
M  V30 16986 H 1557.17 1.76627 -5.84496 0
M  V30 16987 H 1558.59 -0.501219 -5.71105 0
M  V30 16988 H 1556.98 -1.27759 -5.86343 0
M  V30 16989 H 1558.05 -1.73781 -4.5269 0
M  V30 16990 N 1559.4 1.51781 -0.424309 0
M  V30 16991 C 1560.64 2.02924 0.139027 0
M  V30 16992 C 1561 1.30356 1.4151 0
M  V30 16993 O 1560.29 0.405762 1.87254 0
M  V30 16994 C 1560.48 3.54855 0.42574 0
M  V30 16995 C 1560.31 4.42142 -0.820996 0
M  V30 16996 C 1559.08 4.86913 -1.35069 0
M  V30 16997 C 1561.28 4.8527 -1.70346 0
M  V30 16998 N 1559.26 5.58373 -2.55133 0
M  V30 16999 C 1560.63 5.55664 -2.75023 0
M  V30 17000 C 1562.69 4.67269 -1.71942 0
M  V30 17001 C 1561.39 6.09967 -3.81226 0
M  V30 17002 C 1563.42 5.2248 -2.77072 0
M  V30 17003 C 1562.78 5.92809 -3.8047 0
M  V30 17004 H 1558.88 0.781907 0.0120462 0
M  V30 17005 H 1561.46 1.85796 -0.582061 0
M  V30 17006 H 1559.63 3.72026 1.11587 0
M  V30 17007 H 1561.37 3.92673 0.979289 0
M  V30 17008 H 1558.12 4.64844 -0.906501 0
M  V30 17009 H 1558.54 5.98737 -3.15979 0
M  V30 17010 H 1563.19 4.12369 -0.933379 0
M  V30 17011 H 1560.9 6.6393 -4.60676 0
M  V30 17012 H 1564.49 5.10411 -2.79234 0
M  V30 17013 H 1563.37 6.34764 -4.60482 0
M  V30 17014 N 1560.87 0.155222 1.56834 0
M  V30 17015 C 1562.12 -0.493831 1.95561 0
M  V30 17016 C 1562.44 -1.65468 1.04305 0
M  V30 17017 O 1563.64 -2.36891 1.32646 0
M  V30 17018 C 1562.1 -0.929923 3.47679 0
M  V30 17019 C 1561.71 0.204447 4.47533 0
M  V30 17020 C 1563.45 -1.5483 3.95257 0
M  V30 17021 C 1561.36 -0.250375 5.9087 0
M  V30 17022 H 1560.29 -0.188258 0.73012 0
M  V30 17023 H 1562.94 0.240883 1.81912 0
M  V30 17024 H 1561.32 -1.72014 3.56689 0
M  V30 17025 H 1562.49 0.981535 4.50225 0
M  V30 17026 H 1560.81 0.731756 4.0992 0
M  V30 17027 H 1563.41 -1.90036 4.9979 0
M  V30 17028 H 1563.75 -2.44031 3.37275 0
M  V30 17029 H 1564.28 -0.822828 3.89197 0
M  V30 17030 H 1561.02 0.606461 6.52689 0
M  V30 17031 H 1560.54 -0.993164 5.9152 0
M  V30 17032 H 1562.22 -0.699645 6.43206 0
M  V30 17033 N 1562.35 -1.57153 -0.118549 0
M  V30 17034 C 1563.77 -1.52458 -0.472096 0
M  V30 17035 C 1563.97 -0.868289 -1.81832 0
M  V30 17036 O 1563.02 -0.450817 -2.48443 0
M  V30 17037 C 1564.34 -2.9722 -0.456175 0
M  V30 17038 C 1565.88 -3.08312 -0.539694 0
M  V30 17039 C 1566.36 -4.54635 -0.554158 0
M  V30 17040 N 1567.85 -4.59091 -0.615584 0
M  V30 17041 C 1568.59 -5.69724 -0.64823 0
M  V30 17042 N 1568.08 -6.89852 -0.638494 0
M  V30 17043 N 1569.87 -5.57833 -0.691272 0
M  V30 17044 H 1562.03 -1.98202 0.76353 0
M  V30 17045 H 1564.29 -0.905179 0.281699 0
M  V30 17046 H 1563.99 -3.48608 0.465364 0
M  V30 17047 H 1563.87 -3.5468 -1.28381 0
M  V30 17048 H 1566.26 -2.56926 -1.45165 0
M  V30 17049 H 1566.34 -2.53845 0.315638 0
M  V30 17050 H 1565.98 -5.06667 0.353759 0
M  V30 17051 H 1565.91 -5.06914 -1.42638 0
M  V30 17052 H 1568.4 -3.72624 -0.629253 0
M  V30 17053 H 1568.71 -7.69925 -0.66604 0
M  V30 17054 H 1567.06 -6.92354 -0.605912 0
M  V30 17055 H 1570.25 -4.62893 -0.696244 0
M  V30 17056 H 1570.42 -6.44063 -0.713246 0
M  V30 17057 N 1563.83 0.388742 -1.5273 0
M  V30 17058 C 1565.11 1.14799 -1.58368 0
M  V30 17059 C 1565.49 2.07706 -0.377018 0
M  V30 17060 O 1564.83 2.1951 0.634634 0
M  V30 17061 C 1565.04 1.90745 -2.92262 0
M  V30 17062 C 1566.39 2.46098 -3.46007 0
M  V30 17063 O 1567.42 2.00901 -2.94138 0
M  V30 17064 O 1566.28 3.28658 -4.3663 0
M  V30 17065 H 1563.37 0.52529 -0.638748 0
M  V30 17066 H 1565.92 0.393874 -1.65066 0
M  V30 17067 H 1564.69 1.22806 -3.7153 0
M  V30 17068 H 1564.31 2.73118 -2.88951 0
M  V30 17069 N 1565.31 1.43698 0.647203 0
M  V30 17070 C 1566.55 1.45633 1.40703 0
M  V30 17071 C 1566.88 0.0828643 1.94323 0
M  V30 17072 O 1566.14 -0.913033 1.73096 0
M  V30 17073 C 1566.44 2.45083 2.60133 0
M  V30 17074 C 1566.1 3.9081 2.24896 0
M  V30 17075 C 1564.76 4.30499 2.14998 0
M  V30 17076 C 1567.12 4.8262 1.96794 0
M  V30 17077 C 1564.44 5.59942 1.75163 0
M  V30 17078 C 1566.8 6.12433 1.58456 0
M  V30 17079 C 1565.46 6.51092 1.47088 0
M  V30 17080 H 1564.73 0.53291 0.514867 0
M  V30 17081 H 1567.38 1.76814 0.735458 0
M  V30 17082 H 1565.68 2.07327 3.3245 0
M  V30 17083 H 1567.38 2.43833 3.1835 0
M  V30 17084 H 1563.97 3.59403 2.33512 0
M  V30 17085 H 1568.15 4.52724 2.03359 0
M  V30 17086 H 1563.41 5.88728 1.64952 0
M  V30 17087 H 1567.58 6.83042 1.35745 0
M  V30 17088 H 1565.21 7.51299 1.15992 0
M  V30 17089 N 1566.79 -0.886131 1.30328 0
M  V30 17090 C 1567.73 -2.01312 1.16516 0
M  V30 17091 C 1568.73 -1.69223 0.0773431 0
M  V30 17092 O 1569.93 -1.78418 0.238111 0
M  V30 17093 H 1566.31 -0.66006 0.360312 0
M  V30 17094 H 1568.28 -2.10097 2.11901 0
M  V30 17095 C 1567.03 -3.36573 0.872592 0
M  V30 17096 H 1566.35 -3.61775 1.70172 0
M  V30 17097 H 1567.79 -4.16073 0.816049 0
M  V30 17098 C 1566.25 -3.34215 -0.424465 0
M  V30 17099 O 1566.78 -3.74758 -1.44634 0
M  V30 17100 N 1564.99 -2.87323 -0.435207 0
M  V30 17101 H 1564.53 -2.54525 0.396851 0
M  V30 17102 H 1564.49 -2.86128 -1.303 0
M  V30 17103 N 1568.26 -1.13026 -1.09832 0
M  V30 17104 C 1569.51 -0.884093 -1.81292 0
M  V30 17105 C 1569.83 0.591608 -1.86439 0
M  V30 17106 O 1571.03 0.954571 -2.54166 0
M  V30 17107 C 1569.49 -1.53207 -3.25662 0
M  V30 17108 C 1569.1 -3.043 -3.28794 0
M  V30 17109 C 1570.84 -1.36644 -4.01906 0
M  V30 17110 C 1568.75 -3.62003 -4.67662 0
M  V30 17111 H 1567.68 -0.327101 -0.679353 0
M  V30 17112 H 1570.33 -1.35748 -1.2347 0
M  V30 17113 H 1568.71 -0.986353 -3.83519 0
M  V30 17114 H 1569.88 -3.65418 -2.80725 0
M  V30 17115 H 1568.2 -3.20332 -2.66038 0
M  V30 17116 H 1570.8 -1.7717 -5.04495 0
M  V30 17117 H 1571.14 -0.310809 -4.15138 0
M  V30 17118 H 1571.67 -1.88172 -3.5048 0
M  V30 17119 H 1568.41 -4.67354 -4.59631 0
M  V30 17120 H 1567.93 -3.05663 -5.16072 0
M  V30 17121 H 1569.61 -3.61432 -5.36634 0
M  V30 17122 N 1569.74 1.27735 -0.923117 0
M  V30 17123 C 1570.99 1.9457 -0.561149 0
M  V30 17124 C 1571.32 1.72591 0.896805 0
M  V30 17125 O 1570.57 1.04546 1.65434 0
M  V30 17126 C 1570.87 3.47677 -0.827959 0
M  V30 17127 C 1570.54 3.8977 -2.26693 0
M  V30 17128 C 1569.2 4.00973 -2.66033 0
M  V30 17129 C 1571.55 4.11173 -3.20291 0
M  V30 17130 C 1568.88 4.30963 -3.98105 0
M  V30 17131 C 1571.23 4.42645 -4.51938 0
M  V30 17132 C 1569.9 4.52061 -4.91119 0
M  V30 17133 H 1569.17 0.711981 -0.205339 0
M  V30 17134 H 1571.81 1.51894 -1.16621 0
M  V30 17135 H 1570.12 3.91549 -0.140178 0
M  V30 17136 H 1571.81 3.97523 -0.526932 0
M  V30 17137 H 1568.4 3.81584 -1.95171 0
M  V30 17138 H 1572.59 4.01962 -2.91102 0
M  V30 17139 H 1567.84 4.36461 -4.28149 0
M  V30 17140 H 1572.02 4.58153 -5.2447 0
M  V30 17141 H 1569.65 4.75053 -5.93488 0
M  V30 17142 N 1571.22 0.688118 1.41784 0
M  V30 17143 C 1572.45 0.223231 2.06195 0
M  V30 17144 C 1572.87 -1.11601 1.51416 0
M  V30 17145 O 1572.23 -1.69701 0.638059 0
M  V30 17146 C 1572.28 0.183257 3.60134 0
M  V30 17147 O 1571.38 -0.844186 4.03667 0
M  V30 17148 H 1570.72 0.110925 0.654669 0
M  V30 17149 H 1573.25 0.940882 1.81683 0
M  V30 17150 H 1573.26 0.0115951 4.07998 0
M  V30 17151 H 1571.94 1.16072 3.99375 0
M  V30 17152 H 1570.51 -0.642484 3.67323 0
M  V30 17153 N 1572.7 -1.51554 0.432352 0
M  V30 17154 C 1573.65 -2.27623 -0.381602 0
M  V30 17155 C 1574.62 -1.31003 -1.02114 0
M  V30 17156 O 1575.8 -1.59899 -1.041 0
M  V30 17157 C 1572.94 -3.11772 -1.47959 0
M  V30 17158 C 1572.05 -4.2338 -0.858682 0
M  V30 17159 C 1571.19 -4.94847 -1.93131 0
M  V30 17160 C 1570.23 -5.98383 -1.28856 0
M  V30 17161 N 1569.36 -6.63278 -2.30233 0
M  V30 17162 H 1574.2 -2.96743 0.273472 0
M  V30 17163 H 1571.74 -1.46367 0.146706 0
M  V30 17164 H 1573.7 -3.58882 -2.12742 0
M  V30 17165 H 1572.33 -2.44778 -2.10437 0
M  V30 17166 H 1571.38 -3.8027 -0.0992797 0
M  V30 17167 H 1572.69 -4.97575 -0.349381 0
M  V30 17168 H 1571.85 -5.4548 -2.65587 0
M  V30 17169 H 1570.59 -4.20272 -2.47432 0
M  V30 17170 H 1569.59 -5.47048 -0.549441 0
M  V30 17171 H 1570.82 -6.74913 -0.752941 0
M  V30 17172 H 1568.76 -5.91518 -2.83624 0
M  V30 17173 H 1568.68 -7.33221 -1.84181 0
M  V30 17174 H 1569.95 -7.18542 -3.02188 0
M  V30 17175 N 1574.18 -0.163538 -1.56749 0
M  V30 17176 C 1575.09 0.782461 -2.21167 0
M  V30 17177 C 1576.1 1.25911 -1.20093 0
M  V30 17178 O 1577.28 1.31286 -1.52728 0
M  V30 17179 C 1574.34 1.99761 -2.83366 0
M  V30 17180 C 1573.4 1.56859 -3.99617 0
M  V30 17181 C 1572.64 2.72582 -4.58841 0
M  V30 17182 O 1572.86 3.89243 -4.16949 0
M  V30 17183 O 1571.79 2.47104 -5.48838 0
M  V30 17184 H 1575.62 0.264023 -3.0255 0
M  V30 17185 H 1573.21 0.06429 -1.49262 0
M  V30 17186 H 1575.09 2.70843 -3.22835 0
M  V30 17187 H 1573.76 2.50526 -2.04984 0
M  V30 17188 H 1572.67 0.827511 -3.64833 0
M  V30 17189 H 1574 1.10794 -4.79568 0
M  V30 17190 N 1575.65 1.57214 0.110213 0
M  V30 17191 C 1576.58 2.04015 1.13579 0
M  V30 17192 C 1577.57 0.926215 1.42672 0
M  V30 17193 O 1578.75 1.19651 1.52962 0
M  V30 17194 C 1575.88 2.45187 2.45969 0
M  V30 17195 C 1574.83 3.60105 2.31319 0
M  V30 17196 C 1574.16 3.87205 3.68749 0
M  V30 17197 C 1575.46 4.91526 1.76635 0
M  V30 17198 H 1577.15 2.89944 0.746496 0
M  V30 17199 H 1574.7 1.39488 0.357642 0
M  V30 17200 H 1576.65 2.76534 3.17973 0
M  V30 17201 H 1575.38 1.56238 2.86805 0
M  V30 17202 H 1574.04 3.28981 1.61762 0
M  V30 17203 H 1573.68 2.95448 4.07087 0
M  V30 17204 H 1573.38 4.64563 3.59798 0
M  V30 17205 H 1574.91 4.21013 4.42245 0
M  V30 17206 H 1576.32 5.21351 2.38465 0
M  V30 17207 H 1574.72 5.72944 1.78482 0
M  V30 17208 H 1575.79 4.79456 0.724573 0
M  V30 17209 N 1577.13 -0.380637 1.52934 0
M  V30 17210 C 1578.36 -1.15033 1.72575 0
M  V30 17211 C 1578.78 -1.82715 0.446869 0
M  V30 17212 O 1578.14 -1.71154 -0.598004 0
M  V30 17213 C 1578.19 -2.16773 2.8817 0
M  V30 17214 O 1577.29 -3.23539 2.55727 0
M  V30 17215 H 1576.63 -0.334489 0.573597 0
M  V30 17216 H 1579.16 -0.442369 1.9976 0
M  V30 17217 H 1579.17 -2.60629 3.13905 0
M  V30 17218 H 1577.85 -1.669 3.80943 0
M  V30 17219 H 1576.43 -2.84761 2.4076 0
M  V30 17220 N 1578.61 -1.44039 -0.639573 0
M  V30 17221 C 1579.56 -1.50541 -1.77314 0
M  V30 17222 C 1580.55 -0.37781 -1.65133 0
M  V30 17223 O 1581.76 -0.552396 -1.71314 0
M  V30 17224 H 1578.13 -0.472221 -0.585245 0
M  V30 17225 H 1580.1 -2.45964 -1.68951 0
M  V30 17226 C 1578.85 -1.45868 -3.15623 0
M  V30 17227 H 1578.18 -2.31946 -3.25639 0
M  V30 17228 H 1579.62 -1.54479 -3.94857 0
M  V30 17229 C 1578.08 -0.178204 -3.36428 0
M  V30 17230 O 1578.61 0.755017 -3.94541 0
M  V30 17231 N 1576.81 -0.0840295 -2.90478 0
M  V30 17232 H 1576.36 -0.844281 -2.43371 0
M  V30 17233 H 1576.32 0.771988 -3.04775 0
M  V30 17234 N 1580.09 0.879207 -1.30796 0
M  V30 17235 C 1581 2.01822 -1.19604 0
M  V30 17236 C 1582.01 1.73621 -0.114715 0
M  V30 17237 O 1583.19 1.98665 -0.330757 0
M  V30 17238 C 1580.26 3.3496 -0.894569 0
M  V30 17239 C 1579.32 3.76545 -2.06185 0
M  V30 17240 C 1578.55 5.0333 -1.77467 0
M  V30 17241 O 1578.77 5.66022 -0.70535 0
M  V30 17242 O 1577.71 5.41461 -2.62876 0
M  V30 17243 H 1581.53 2.14194 -2.15301 0
M  V30 17244 H 1579.12 1.00608 -1.10446 0
M  V30 17245 H 1581 4.14818 -0.741891 0
M  V30 17246 H 1579.67 3.23684 0.0324464 0
M  V30 17247 H 1578.58 2.97367 -2.26988 0
M  V30 17248 H 1579.91 3.92434 -2.97079 0
M  V30 17249 N 1581.57 1.13606 1.09231 0
M  V30 17250 C 1582.84 0.81012 1.78035 0
M  V30 17251 C 1583.22 -0.697953 1.99228 0
M  V30 17252 O 1582.57 -1.63592 1.5953 0
M  V30 17253 C 1582.78 1.59932 3.10198 0
M  V30 17254 C 1584.13 1.79328 3.84872 0
M  V30 17255 O 1585.15 1.56547 3.19955 0
M  V30 17256 O 1584.01 2.17355 5.01417 0
M  V30 17257 H 1581.11 0.295995 0.772215 0
M  V30 17258 H 1583.65 1.24079 1.15769 0
M  V30 17259 H 1582.43 2.6241 2.9027 0
M  V30 17260 H 1582.05 1.16371 3.80189 0
M  V30 17261 N 1583.05 -1.27244 0.929878 0
M  V30 17262 C 1584.29 -1.93559 0.567267 0
M  V30 17263 C 1584.61 -1.73864 -0.896138 0
M  V30 17264 O 1585.81 -2.34538 -1.36763 0
M  V30 17265 C 1584.27 -3.46756 0.963743 0
M  V30 17266 C 1583.88 -3.75204 2.44798 0
M  V30 17267 C 1585.62 -4.19139 0.672487 0
M  V30 17268 C 1583.53 -5.21787 2.78375 0
M  V30 17269 H 1582.46 -0.724617 0.208437 0
M  V30 17270 H 1585.11 -1.44502 1.13099 0
M  V30 17271 H 1583.49 -3.94634 0.328654 0
M  V30 17272 H 1584.67 -3.38075 3.13116 0
M  V30 17273 H 1582.98 -3.16029 2.71136 0
M  V30 17274 H 1585.58 -5.27074 0.899816 0
M  V30 17275 H 1585.92 -4.14466 -0.390378 0
M  V30 17276 H 1586.45 -3.77091 1.26678 0
M  V30 17277 H 1583.19 -5.31552 3.83579 0
M  V30 17278 H 1582.71 -5.60054 2.14708 0
M  V30 17279 H 1584.39 -5.89685 2.66234 0
M  V30 17280 N 1584.52 -0.695628 -1.41417 0
M  V30 17281 C 1585.47 -0.0189456 -2.32592 0
M  V30 17282 C 1586.47 0.76848 -1.50966 0
M  V30 17283 O 1587.67 0.674096 -1.66901 0
M  V30 17284 H 1584.05 0.0126742 -0.751893 0
M  V30 17285 H 1586.02 -0.804968 -2.87337 0
M  V30 17286 C 1584.77 0.903458 -3.35757 0
M  V30 17287 H 1584.09 0.306963 -3.9862 0
M  V30 17288 H 1585.53 1.34525 -4.02093 0
M  V30 17289 C 1583.99 2.01966 -2.69651 0
M  V30 17290 O 1584.52 3.10845 -2.54438 0
M  V30 17291 N 1582.72 1.79741 -2.28345 0
M  V30 17292 H 1582.27 0.911929 -2.40918 0
M  V30 17293 H 1582.23 2.54609 -1.84449 0
M  V30 17294 N 1586 1.51322 -0.440383 0
M  V30 17295 C 1587.25 2.01302 0.126581 0
M  V30 17296 C 1587.56 1.32898 1.43518 0
M  V30 17297 O 1588.77 1.73864 2.08527 0
M  V30 17298 C 1587.23 3.58839 0.276126 0
M  V30 17299 C 1586.83 4.36182 -1.02222 0
M  V30 17300 C 1588.58 4.16957 0.796697 0
M  V30 17301 C 1586.48 5.85431 -0.838148 0
M  V30 17302 H 1585.41 0.752268 0.0510809 0
M  V30 17303 H 1588.07 1.74403 -0.570609 0
M  V30 17304 H 1586.45 3.82198 1.03639 0
M  V30 17305 H 1587.62 4.24568 -1.79105 0
M  V30 17306 H 1585.94 3.89531 -1.47155 0
M  V30 17307 H 1588.53 5.26176 0.95095 0
M  V30 17308 H 1588.88 3.76329 1.77996 0
M  V30 17309 H 1589.41 3.97687 0.0946613 0
M  V30 17310 H 1586.15 6.30476 -1.79387 0
M  V30 17311 H 1585.67 5.99701 -0.109167 0
M  V30 17312 H 1587.35 6.45122 -0.492547 0
M  V30 17313 N 1587.48 0.171848 1.5666 0
M  V30 17314 C 1588.73 -0.473669 1.97191 0
M  V30 17315 C 1589.06 -1.6286 1.05784 0
M  V30 17316 O 1588.33 -1.94216 0.105084 0
M  V30 17317 C 1588.62 -0.956134 3.47174 0
M  V30 17318 C 1588.47 0.199007 4.4936 0
M  V30 17319 C 1589.79 -1.82962 4.00266 0
M  V30 17320 H 1586.91 -0.170704 0.716958 0
M  V30 17321 H 1589.55 0.25809 1.88239 0
M  V30 17322 H 1587.7 -1.57969 3.54934 0
M  V30 17323 H 1589.37 0.836109 4.53659 0
M  V30 17324 H 1587.61 0.85442 4.25302 0
M  V30 17325 H 1588.29 -0.180704 5.51704 0
M  V30 17326 H 1590.76 -1.30394 3.95141 0
M  V30 17327 H 1589.64 -2.13621 5.05625 0
M  V30 17328 H 1589.9 -2.77557 3.44114 0
M  V30 17329 N 1588.96 -1.5727 -0.101874 0
M  V30 17330 C 1590.19 -1.89667 -0.81914 0
M  V30 17331 C 1590.6 -0.763027 -1.73132 0
M  V30 17332 O 1589.94 0.274317 -1.8164 0
M  V30 17333 C 1590 -3.17252 -1.6909 0
M  V30 17334 C 1589.66 -4.4699 -0.951257 0
M  V30 17335 C 1590.66 -5.19123 -0.28417 0
M  V30 17336 C 1588.35 -4.93665 -0.927349 0
M  V30 17337 C 1590.34 -6.36163 0.396934 0
M  V30 17338 C 1588.03 -6.10619 -0.242456 0
M  V30 17339 C 1589.03 -6.81717 0.418514 0
M  V30 17340 O 1588.71 -7.96443 1.09244 0
M  V30 17341 H 1588.45 -0.632024 -0.239836 0
M  V30 17342 H 1591 -2.05222 -0.0855979 0
M  V30 17343 H 1589.23 -2.97825 -2.46651 0
M  V30 17344 H 1590.92 -3.35533 -2.28413 0
M  V30 17345 H 1591.68 -4.84107 -0.294146 0
M  V30 17346 H 1587.56 -4.38219 -1.43126 0
M  V30 17347 H 1591.11 -6.91594 0.913417 0
M  V30 17348 H 1587 -6.45089 -0.230303 0
M  V30 17349 H 1587.77 -8.12385 0.998647 0
M  V30 17350 N 1590.44 0.372521 -1.53134 0
M  V30 17351 C 1591.35 1.47994 -1.8203 0
M  V30 17352 C 1592.36 1.58937 -0.708179 0
M  V30 17353 O 1593.54 1.74962 -0.997511 0
M  V30 17354 C 1590.6 2.83342 -1.99796 0
M  V30 17355 C 1589.66 2.81984 -3.23702 0
M  V30 17356 C 1588.9 4.10877 -3.40611 0
M  V30 17357 O 1589.12 5.06686 -2.61964 0
M  V30 17358 O 1588.05 4.17111 -4.33938 0
M  V30 17359 H 1591.88 1.26501 -2.761 0
M  V30 17360 H 1589.46 0.561957 -1.38428 0
M  V30 17361 H 1591.35 3.63551 -2.13092 0
M  V30 17362 H 1590.02 3.04826 -1.08916 0
M  V30 17363 H 1588.93 2.00498 -3.15834 0
M  V30 17364 H 1590.26 2.65453 -4.14482 0
M  V30 17365 N 1591.91 1.44376 0.631925 0
M  V30 17366 C 1593.16 1.46827 1.38875 0
M  V30 17367 C 1593.48 0.101789 1.94734 0
M  V30 17368 O 1592.75 -0.86579 1.7573 0
M  V30 17369 H 1591.33 0.540642 0.515475 0
M  V30 17370 H 1593.99 1.80148 0.743822 0
M  V30 17371 H 1593.09 2.19321 2.22047 0
M  V30 17372 N 1593.39 -0.872258 1.31261 0
M  V30 17373 C 1594.32 -1.9853 1.14537 0
M  V30 17374 C 1595.34 -1.62578 0.0850723 0
M  V30 17375 O 1596.53 -1.75379 0.332343 0
M  V30 17376 C 1593.63 -3.31005 0.72727 0
M  V30 17377 C 1592.8 -3.95313 1.87208 0
M  V30 17378 C 1591.86 -5.06101 1.44042 0
M  V30 17379 O 1590.88 -5.27045 2.1497 0
M  V30 17380 N 1592.09 -5.79581 0.32653 0
M  V30 17381 H 1594.85 -2.13423 2.10406 0
M  V30 17382 H 1592.41 -1.0461 1.23565 0
M  V30 17383 H 1594.4 -4.02502 0.421255 0
M  V30 17384 H 1592.97 -3.12287 -0.13975 0
M  V30 17385 H 1592.19 -3.16825 2.34553 0
M  V30 17386 H 1593.48 -4.35015 2.63893 0
M  V30 17387 H 1592.88 -5.65083 -0.264202 0
M  V30 17388 H 1591.44 -6.51751 0.0800358 0
M  V30 17389 N 1594.87 -1.14184 -1.08627 0
M  V30 17390 C 1596.12 -0.903271 -1.80344 0
M  V30 17391 C 1596.43 0.571801 -1.87056 0
M  V30 17392 O 1597.64 0.92756 -2.55164 0
M  V30 17393 C 1596.09 -1.56653 -3.24018 0
M  V30 17394 C 1595.7 -3.07771 -3.25548 0
M  V30 17395 C 1597.45 -1.40899 -4.00434 0
M  V30 17396 C 1595.35 -3.66943 -4.63796 0
M  V30 17397 H 1594.28 -0.334288 -0.675846 0
M  V30 17398 H 1596.93 -1.3705 -1.22023 0
M  V30 17399 H 1595.32 -1.02698 -3.82452 0
M  V30 17400 H 1596.49 -3.68375 -2.76834 0
M  V30 17401 H 1594.8 -3.23136 -2.62625 0
M  V30 17402 H 1597.4 -1.82511 -5.02587 0
M  V30 17403 H 1597.74 -0.354822 -4.14785 0
M  V30 17404 H 1598.28 -1.91879 -3.48464 0
M  V30 17405 H 1595.02 -4.72203 -4.54648 0
M  V30 17406 H 1594.54 -3.11119 -5.12801 0
M  V30 17407 H 1596.22 -3.67103 -5.32771 0
M  V30 17408 N 1596.35 1.26749 -0.936613 0
M  V30 17409 C 1597.28 2.2892 -0.460213 0
M  V30 17410 C 1598.26 1.63065 0.484135 0
M  V30 17411 O 1599.44 1.90305 0.386973 0
M  V30 17412 C 1596.57 3.46172 0.279648 0
M  V30 17413 C 1595.53 4.24083 -0.57771 0
M  V30 17414 C 1594.85 5.33903 0.291843 0
M  V30 17415 C 1596.15 4.88562 -1.84673 0
M  V30 17416 H 1597.85 2.69019 -1.31412 0
M  V30 17417 H 1595.39 1.29325 -0.633333 0
M  V30 17418 H 1597.35 4.16755 0.623931 0
M  V30 17419 H 1596.07 3.05014 1.16765 0
M  V30 17420 H 1594.73 3.55258 -0.904824 0
M  V30 17421 H 1594.38 4.88986 1.17906 0
M  V30 17422 H 1594.08 5.8694 -0.278372 0
M  V30 17423 H 1595.6 6.07326 0.631498 0
M  V30 17424 H 1597.02 5.51384 -1.56997 0
M  V30 17425 H 1595.41 5.51697 -2.36115 0
M  V30 17426 H 1596.48 4.11761 -2.56088 0
M  V30 17427 N 1597.83 0.703118 1.41046 0
M  V30 17428 C 1599.24 0.375417 1.55122 0
M  V30 17429 C 1599.44 -1.11696 1.67709 0
M  V30 17430 O 1598.5 -1.90289 1.65971 0
M  V30 17431 C 1599.81 1.13056 2.78638 0
M  V30 17432 C 1601.36 1.11564 2.92442 0
M  V30 17433 C 1601.83 1.85268 4.18855 0
M  V30 17434 N 1603.33 1.82275 4.25829 0
M  V30 17435 C 1604.06 2.36137 5.2252 0
M  V30 17436 N 1603.56 2.98502 6.25195 0
M  V30 17437 N 1605.35 2.26349 5.14512 0
M  V30 17438 H 1597.5 1.67096 1.31121 0
M  V30 17439 H 1599.76 0.705573 0.633144 0
M  V30 17440 H 1599.47 2.18524 2.75572 0
M  V30 17441 H 1599.34 0.714037 3.7038 0
M  V30 17442 H 1601.73 0.0691901 2.95019 0
M  V30 17443 H 1601.81 1.57128 2.01853 0
M  V30 17444 H 1601.46 2.89896 4.1704 0
M  V30 17445 H 1601.39 1.37133 5.08431 0
M  V30 17446 H 1603.88 1.36812 3.52265 0
M  V30 17447 H 1604.19 3.37149 6.95378 0
M  V30 17448 H 1602.53 3.02582 6.25675 0
M  V30 17449 H 1605.73 1.77294 4.33226 0
M  V30 17450 H 1605.9 2.68629 5.89697 0
M  V30 17451 N 1599.3 -1.51086 0.448402 0
M  V30 17452 C 1600.25 -2.29611 -0.371711 0
M  V30 17453 C 1601.25 -1.35926 -1.01096 0
M  V30 17454 O 1602.45 -1.53219 -0.944663 0
M  V30 17455 H 1598.83 -0.739099 -0.138694 0
M  V30 17456 H 1600.8 -2.96772 0.311275 0
M  V30 17457 C 1599.55 -3.1583 -1.45418 0
M  V30 17458 H 1598.87 -3.87813 -0.971661 0
M  V30 17459 H 1600.31 -3.7381 -2.00105 0
M  V30 17460 C 1598.77 -2.31927 -2.44359 0
M  V30 17461 O 1599.3 -1.98655 -3.4914 0
M  V30 17462 N 1597.51 -1.94938 -2.15517 0
M  V30 17463 H 1597.05 -2.22195 -1.30335 0
M  V30 17464 H 1597.01 -1.39098 -2.81956 0
M  V30 17465 N 1600.78 -0.180154 -1.56567 0
M  V30 17466 C 1602.03 0.463205 -1.97439 0
M  V30 17467 C 1602.36 1.62296 -1.06647 0
M  V30 17468 O 1601.64 1.94157 -0.115382 0
M  V30 17469 C 1601.92 0.937709 -3.47677 0
M  V30 17470 C 1601.77 -0.222835 -4.49248 0
M  V30 17471 C 1603.09 1.80836 -4.01231 0
M  V30 17472 H 1600.21 0.166899 -0.717854 0
M  V30 17473 H 1602.85 -0.268069 -1.88099 0
M  V30 17474 H 1601 1.56084 -3.55767 0
M  V30 17475 H 1602.67 -0.860155 -4.5321 0
M  V30 17476 H 1600.92 -0.876962 -4.24843 0
M  V30 17477 H 1601.59 0.151444 -5.51792 0
M  V30 17478 H 1604.06 1.28297 -3.95827 0
M  V30 17479 H 1602.94 2.10937 -5.06751 0
M  V30 17480 H 1603.2 2.75728 -3.45581 0
M  V30 17481 N 1602.26 1.57322 0.0935319 0
M  V30 17482 C 1603.51 1.85353 0.795445 0
M  V30 17483 C 1603.82 0.769647 1.79822 0
M  V30 17484 O 1605.03 0.937121 2.54814 0
M  V30 17485 C 1603.48 3.28711 1.4655 0
M  V30 17486 C 1603.09 4.45174 0.502415 0
M  V30 17487 C 1604.84 3.65965 2.15105 0
M  V30 17488 C 1602.74 5.79566 1.17715 0
M  V30 17489 H 1601.67 0.691394 0.300816 0
M  V30 17490 H 1604.32 1.83436 0.0484063 0
M  V30 17491 H 1602.71 3.25173 2.26005 0
M  V30 17492 H 1603.88 4.60062 -0.260754 0
M  V30 17493 H 1602.2 4.16328 -0.0775186 0
M  V30 17494 H 1604.79 4.63655 2.66323 0
M  V30 17495 H 1605.14 2.94667 2.94069 0
M  V30 17496 H 1605.67 3.71398 1.42508 0
M  V30 17497 H 1602.41 6.54099 0.428277 0
M  V30 17498 H 1601.93 5.68519 1.9117 0
M  V30 17499 H 1603.61 6.2418 1.70318 0
M  V30 17500 N 1603.74 -0.364395 1.53329 0
M  V30 17501 C 1604.69 -1.44645 1.79851 0
M  V30 17502 C 1605.66 -1.53151 0.642951 0
M  V30 17503 O 1606.84 -1.6902 0.885252 0
M  V30 17504 C 1603.98 -2.81575 1.99523 0
M  V30 17505 C 1603.09 -2.82026 3.27239 0
M  V30 17506 C 1602.23 -4.1054 3.37091 0
M  V30 17507 C 1601.27 -4.05138 4.58835 0
M  V30 17508 N 1600.4 -5.25303 4.65834 0
M  V30 17509 H 1605.24 -1.21329 2.72182 0
M  V30 17510 H 1602.78 -0.588143 1.34831 0
M  V30 17511 H 1604.74 -3.61124 2.08915 0
M  V30 17512 H 1603.37 -3.03288 1.10527 0
M  V30 17513 H 1602.42 -1.94704 3.26794 0
M  V30 17514 H 1603.73 -2.73907 4.16865 0
M  V30 17515 H 1602.89 -4.98504 3.45801 0
M  V30 17516 H 1601.63 -4.21413 2.45483 0
M  V30 17517 H 1600.63 -3.1556 4.50224 0
M  V30 17518 H 1601.86 -3.95866 5.51785 0
M  V30 17519 H 1599.8 -5.36759 3.77128 0
M  V30 17520 H 1599.72 -5.19358 5.49367 0
M  V30 17521 H 1600.99 -6.15096 4.78829 0
M  V30 17522 N 1605.22 -1.44709 -0.62426 0
M  V30 17523 C 1606.49 -1.38328 -1.38292 0
M  V30 17524 C 1606.87 -0.0454388 -2.11051 0
M  V30 17525 O 1606.22 0.972183 -2.06787 0
M  V30 17526 C 1606.43 -2.58602 -2.34364 0
M  V30 17527 C 1607.78 -3.02966 -2.97484 0
M  V30 17528 O 1608.8 -2.58856 -2.44688 0
M  V30 17529 O 1607.66 -3.79466 -3.93278 0
M  V30 17530 H 1604.76 -0.54812 -0.619269 0
M  V30 17531 H 1607.3 -1.5681 -0.648741 0
M  V30 17532 H 1606.07 -3.47573 -1.79746 0
M  V30 17533 H 1605.7 -2.42368 -3.15188 0
M  V30 17534 N 1606.69 0.865285 -1.31722 0
M  V30 17535 C 1607.92 1.64897 -1.24469 0
M  V30 17536 C 1608.33 1.88228 0.191553 0
M  V30 17537 O 1607.68 1.44396 1.13559 0
M  V30 17538 C 1607.74 3.0371 -1.92355 0
M  V30 17539 C 1607.4 3.03468 -3.41696 0
M  V30 17540 C 1608.4 2.81086 -4.37364 0
M  V30 17541 C 1606.08 3.2444 -3.83463 0
M  V30 17542 C 1608.08 2.79663 -5.72772 0
M  V30 17543 C 1605.76 3.22645 -5.18983 0
M  V30 17544 C 1606.76 3.00284 -6.13448 0
M  V30 17545 O 1606.45 2.98342 -7.4649 0
M  V30 17546 H 1606.18 0.520681 -0.431124 0
M  V30 17547 H 1608.74 1.08795 -1.74221 0
M  V30 17548 H 1606.97 3.61558 -1.37159 0
M  V30 17549 H 1608.66 3.64321 -1.78955 0
M  V30 17550 H 1609.42 2.6466 -4.06423 0
M  V30 17551 H 1605.3 3.40874 -3.10364 0
M  V30 17552 H 1608.84 2.62128 -6.46479 0
M  V30 17553 H 1604.74 3.38612 -5.49556 0
M  V30 17554 H 1605.51 3.14371 -7.5572 0
M  V30 17555 N 1608.17 1.14759 1.0802 0
M  V30 17556 C 1609.42 0.929574 1.80916 0
M  V30 17557 C 1609.77 -0.53792 1.84727 0
M  V30 17558 O 1609.07 -1.39348 1.31501 0
M  V30 17559 C 1609.26 1.4692 3.25805 0
M  V30 17560 C 1609.09 2.98763 3.36111 0
M  V30 17561 C 1607.86 3.67248 3.47069 0
M  V30 17562 C 1610.06 3.966 3.27433 0
M  V30 17563 N 1608.04 5.06965 3.46207 0
M  V30 17564 C 1609.41 5.22594 3.33609 0
M  V30 17565 C 1611.47 3.88665 3.11197 0
M  V30 17566 C 1610.17 6.41579 3.25221 0
M  V30 17567 C 1612.19 5.07201 3.0414 0
M  V30 17568 C 1611.56 6.32066 3.10921 0
M  V30 17569 H 1607.66 0.393733 0.675647 0
M  V30 17570 H 1610.24 1.45842 1.2899 0
M  V30 17571 H 1608.41 0.967084 3.76168 0
M  V30 17572 H 1610.14 1.19071 3.86787 0
M  V30 17573 H 1606.9 3.17815 3.51128 0
M  V30 17574 H 1607.32 5.79917 3.49322 0
M  V30 17575 H 1611.96 2.93 3.04813 0
M  V30 17576 H 1609.68 7.37485 3.30365 0
M  V30 17577 H 1613.27 5.02815 2.92691 0
M  V30 17578 H 1612.15 7.22248 3.05495 0
M  V30 17579 N 1609.65 -1.26251 0.943322 0
M  V30 17580 C 1610.9 -1.9327 0.590863 0
M  V30 17581 C 1611.22 -1.74356 -0.873212 0
M  V30 17582 O 1610.49 -1.10046 -1.6207 0
M  V30 17583 H 1609.07 -0.71523 0.215535 0
M  V30 17584 H 1611.73 -1.53647 1.19911 0
M  V30 17585 H 1610.83 -3.01393 0.810475 0
M  V30 17586 N 1611.13 -0.710588 -1.40671 0
M  V30 17587 C 1612.08 -0.043614 -2.32559 0
M  V30 17588 C 1613.07 0.752425 -1.51773 0
M  V30 17589 O 1614.28 0.656356 -1.67607 0
M  V30 17590 H 1610.65 0.00469865 -0.751985 0
M  V30 17591 H 1612.62 -0.835399 -2.86468 0
M  V30 17592 C 1611.37 0.867796 -3.36697 0
M  V30 17593 H 1610.7 0.264667 -3.98923 0
M  V30 17594 H 1612.14 1.30252 -4.03498 0
M  V30 17595 C 1610.59 1.99094 -2.71778 0
M  V30 17596 O 1611.12 3.08129 -2.5772 0
M  V30 17597 N 1609.33 1.77309 -2.30239 0
M  V30 17598 H 1608.88 0.886325 -2.41872 0
M  V30 17599 H 1608.84 2.52639 -1.87139 0
M  V30 17600 N 1612.61 1.50847 -0.456408 0
M  V30 17601 C 1614.02 1.867 0.00222532 0
M  V30 17602 C 1614.37 1.37229 1.40224 0
M  V30 17603 O 1613.49 0.731052 2.03678 0
M  V30 17604 C 1614.09 3.38798 0.0108142 0
M  V30 17605 C 1612.65 3.74117 0.413924 0
M  V30 17606 C 1611.8 2.74671 -0.380933 0
M  V30 17607 H 1614.75 1.43799 -0.671379 0
M  V30 17608 H 1614.77 3.71642 0.816217 0
M  V30 17609 H 1614.28 3.74774 -1.00826 0
M  V30 17610 H 1612.38 3.43737 1.43789 0
M  V30 17611 H 1612.49 4.78936 0.125471 0
M  V30 17612 H 1610.86 2.54175 0.163385 0
M  V30 17613 H 1611.64 3.1349 -1.39924 0
M  V30 17614 N 1614.09 0.188454 1.56469 0
M  V30 17615 C 1615.02 -0.730379 2.21783 0
M  V30 17616 C 1616 -1.22629 1.17882 0
M  V30 17617 O 1617.18 -1.27634 1.46367 0
M  V30 17618 C 1614.31 -1.95278 2.872 0
M  V30 17619 C 1613.27 -1.59205 3.97288 0
M  V30 17620 C 1612.59 -2.89052 4.49836 0
M  V30 17621 C 1613.89 -0.807027 5.16027 0
M  V30 17622 H 1615.59 -0.185914 2.98822 0
M  V30 17623 H 1613.13 -0.0879804 1.43731 0
M  V30 17624 H 1615.08 -2.60074 3.31571 0
M  V30 17625 H 1613.81 -2.52167 2.07556 0
M  V30 17626 H 1612.47 -0.967713 3.53597 0
M  V30 17627 H 1612.12 -3.44017 3.66963 0
M  V30 17628 H 1611.82 -2.65663 5.24115 0
M  V30 17629 H 1613.34 -3.54847 4.96906 0
M  V30 17630 H 1614.75 -1.35794 5.56986 0
M  V30 17631 H 1613.15 -0.671516 5.96331 0
M  V30 17632 H 1614.22 0.193251 4.84515 0
M  V30 17633 N 1615.56 -1.5737 -0.0851874 0
M  V30 17634 C 1616.51 -2.02758 -1.10262 0
M  V30 17635 C 1617.48 -0.905702 -1.39235 0
M  V30 17636 O 1618.67 -1.17241 -1.50529 0
M  V30 17637 C 1615.81 -2.46528 -2.41492 0
M  V30 17638 C 1614.92 -3.72278 -2.19165 0
M  V30 17639 C 1614.05 -4.04885 -3.43863 0
M  V30 17640 C 1613.09 -5.23715 -3.16842 0
M  V30 17641 N 1612.23 -5.52026 -4.33833 0
M  V30 17642 H 1617.07 -2.89453 -0.708583 0
M  V30 17643 H 1614.61 -1.43156 -0.338332 0
M  V30 17644 H 1616.56 -2.69952 -3.18091 0
M  V30 17645 H 1615.19 -1.62829 -2.78723 0
M  V30 17646 H 1614.25 -3.56272 -1.33321 0
M  V30 17647 H 1615.56 -4.5902 -1.95197 0
M  V30 17648 H 1614.71 -4.29138 -4.28865 0
M  V30 17649 H 1613.45 -3.16683 -3.70895 0
M  V30 17650 H 1612.46 -4.99272 -2.30234 0
M  V30 17651 H 1613.68 -6.13523 -2.91146 0
M  V30 17652 H 1611.63 -4.66784 -4.60922 0
M  V30 17653 H 1611.54 -6.3316 -4.13091 0
M  V30 17654 H 1612.81 -5.80822 -5.19871 0
M  V30 17655 N 1617.04 0.356258 -1.53521 0
M  V30 17656 C 1618.29 1.0979 -1.70154 0
M  V30 17657 C 1618.62 1.89028 -0.458124 0
M  V30 17658 O 1617.87 1.87516 0.560033 0
M  V30 17659 C 1618.17 2.07669 -2.90875 0
M  V30 17660 C 1617.84 1.4484 -4.27004 0
M  V30 17661 C 1616.5 1.27434 -4.64019 0
M  V30 17662 C 1618.85 0.994684 -5.1162 0
M  V30 17663 C 1616.18 0.632539 -5.8328 0
M  V30 17664 C 1618.53 0.366847 -6.31535 0
M  V30 17665 C 1617.19 0.180356 -6.67256 0
M  V30 17666 H 1616.46 0.401751 -0.622637 0
M  V30 17667 H 1619.11 0.378618 -1.8772 0
M  V30 17668 H 1617.42 2.85934 -2.6786 0
M  V30 17669 H 1619.11 2.65023 -3.00939 0
M  V30 17670 H 1615.7 1.59384 -3.97863 0
M  V30 17671 H 1619.89 1.11706 -4.83565 0
M  V30 17672 H 1615.14 0.476548 -6.0954 0
M  V30 17673 H 1619.32 0.00712378 -6.964 0
M  V30 17674 H 1616.94 -0.319016 -7.5953 0
M  V30 17675 N 1618.52 1.45038 0.616577 0
M  V30 17676 C 1619.8 1.39059 1.37557 0
M  V30 17677 C 1620.18 0.0566307 2.11024 0
M  V30 17678 O 1619.52 -0.961203 2.073 0
M  V30 17679 C 1619.73 2.59841 2.32989 0
M  V30 17680 C 1621.08 3.04539 2.95874 0
M  V30 17681 O 1622.11 2.6015 2.43312 0
M  V30 17682 O 1620.97 3.81547 3.9126 0
M  V30 17683 H 1618.06 0.551396 0.616353 0
M  V30 17684 H 1620.61 1.57152 0.640416 0
M  V30 17685 H 1619.38 3.48521 1.779 0
M  V30 17686 H 1619 2.44036 3.13899 0
M  V30 17687 N 1620 -0.858287 1.32179 0
M  V30 17688 C 1621.23 -1.64473 1.25523 0
M  V30 17689 C 1621.64 -1.87964 -0.177425 0
M  V30 17690 O 1621 -1.44607 -1.11333 0
M  V30 17691 C 1621.05 -3.00609 2.0079 0
M  V30 17692 O 1620.77 -2.7816 3.38465 0
M  V30 17693 C 1622.27 -3.95054 2.01115 0
M  V30 17694 H 1619.49 -0.512393 0.433237 0
M  V30 17695 H 1622.03 -1.07048 1.74244 0
M  V30 17696 H 1620.19 -3.5469 1.55801 0
M  V30 17697 H 1620.6 -3.64712 3.76942 0
M  V30 17698 H 1622.08 -4.87854 2.58268 0
M  V30 17699 H 1622.55 -4.27746 0.996513 0
M  V30 17700 H 1623.16 -3.4691 2.46035 0
M  V30 17701 N 1621.48 -1.1533 -1.07409 0
M  V30 17702 C 1622.39 -0.863514 -2.1813 0
M  V30 17703 C 1623.4 0.159954 -1.73263 0
M  V30 17704 O 1624.58 -0.0139818 -2.01395 0
M  V30 17705 C 1621.64 -0.356271 -3.44865 0
M  V30 17706 C 1620.7 -1.44356 -4.04302 0
M  V30 17707 C 1619.94 -0.960429 -5.24987 0
M  V30 17708 O 1620.16 0.194227 -5.70069 0
M  V30 17709 O 1619.09 -1.74387 -5.76084 0
M  V30 17710 H 1622.92 -1.78909 -2.45408 0
M  V30 17711 H 1620.5 -0.932362 -1.16736 0
M  V30 17712 H 1622.39 -0.0798183 -4.21324 0
M  V30 17713 H 1621.06 0.541445 -3.1914 0
M  V30 17714 H 1619.97 -1.77361 -3.29384 0
M  V30 17715 H 1621.3 -2.31617 -4.34298 0
M  V30 17716 N 1622.95 1.25748 -0.950004 0
M  V30 17717 C 1624.18 1.97127 -0.618432 0
M  V30 17718 C 1624.59 1.70855 0.81272 0
M  V30 17719 O 1623.93 0.978581 1.55465 0
M  V30 17720 C 1624 3.50678 -0.791546 0
M  V30 17721 C 1623.66 4.00617 -2.19899 0
M  V30 17722 C 1624.66 4.11672 -3.17525 0
M  V30 17723 C 1622.34 4.34401 -2.52193 0
M  V30 17724 C 1624.34 4.55818 -4.45543 0
M  V30 17725 C 1622.02 4.78234 -3.80441 0
M  V30 17726 C 1623.02 4.88905 -4.76929 0
M  V30 17727 O 1622.71 5.31768 -6.02891 0
M  V30 17728 H 1622.44 0.635248 -0.231163 0
M  V30 17729 H 1625 1.60997 -1.2755 0
M  V30 17730 H 1623.23 3.86623 -0.0773298 0
M  V30 17731 H 1624.91 4.03265 -0.461719 0
M  V30 17732 H 1625.68 3.85807 -2.93901 0
M  V30 17733 H 1621.56 4.25324 -1.77821 0
M  V30 17734 H 1625.1 4.64062 -5.20857 0
M  V30 17735 H 1621 5.03543 -4.03874 0
M  V30 17736 H 1621.77 5.49966 -6.06201 0
M  V30 17737 N 1624.43 0.718038 1.40292 0
M  V30 17738 C 1625.66 0.267937 2.04855 0
M  V30 17739 C 1626.07 -1.09615 1.54211 0
M  V30 17740 O 1625.41 -1.70055 0.694754 0
M  V30 17741 C 1625.47 0.172691 3.59085 0
M  V30 17742 C 1625.14 1.47246 4.32629 0
M  V30 17743 C 1626.14 2.41487 4.60413 0
M  V30 17744 C 1623.82 1.73207 4.71492 0
M  V30 17745 C 1625.81 3.59932 5.26049 0
M  V30 17746 C 1623.5 2.91933 5.3686 0
M  V30 17747 C 1624.5 3.85118 5.64068 0
M  V30 17748 O 1624.19 5.01762 6.28085 0
M  V30 17749 H 1623.92 0.117734 0.665669 0
M  V30 17750 H 1626.47 0.977621 1.80643 0
M  V30 17751 H 1624.7 -0.592957 3.82127 0
M  V30 17752 H 1626.39 -0.243171 4.05171 0
M  V30 17753 H 1627.16 2.22695 4.3085 0
M  V30 17754 H 1623.04 1.01528 4.49681 0
M  V30 17755 H 1626.58 4.32683 5.47203 0
M  V30 17756 H 1622.48 3.10633 5.65842 0
M  V30 17757 H 1623.25 5.01872 6.46581 0
M  V30 17758 N 1625.91 -1.50602 0.464402 0
M  V30 17759 C 1627.16 -2.01478 -0.0945398 0
M  V30 17760 C 1627.47 -1.35165 -1.41386 0
M  V30 17761 O 1628.68 -1.7716 -2.05735 0
M  V30 17762 C 1627.13 -3.59233 -0.219003 0
M  V30 17763 C 1626.74 -4.345 1.09148 0
M  V30 17764 C 1628.49 -4.18172 -0.730262 0
M  V30 17765 C 1626.39 -5.84023 0.931179 0
M  V30 17766 H 1625.32 -0.752985 -0.0391065 0
M  V30 17767 H 1627.97 -1.73473 0.598283 0
M  V30 17768 H 1626.36 -3.83798 -0.975455 0
M  V30 17769 H 1627.53 -4.21665 1.85837 0
M  V30 17770 H 1625.85 -3.8714 1.53334 0
M  V30 17771 H 1628.44 -5.27622 -0.867119 0
M  V30 17772 H 1628.79 -3.79113 -1.71986 0
M  V30 17773 H 1629.32 -3.97788 -0.0313808 0
M  V30 17774 H 1626.06 -6.27543 1.89395 0
M  V30 17775 H 1625.58 -5.99451 0.20456 0
M  V30 17776 H 1627.26 -6.44257 0.595118 0
M  V30 17777 N 1627.39 -0.19675 -1.56367 0
M  V30 17778 C 1628.64 0.441807 -1.96802 0
M  V30 17779 C 1628.95 1.62645 -1.08656 0
M  V30 17780 O 1630.16 2.33291 -1.3888 0
M  V30 17781 C 1628.61 0.837415 -3.50022 0
M  V30 17782 C 1628.22 -0.323031 -4.46834 0
M  V30 17783 C 1629.96 1.44296 -3.99223 0
M  V30 17784 C 1627.87 0.0936285 -5.91326 0
M  V30 17785 H 1626.8 0.168834 -0.734854 0
M  V30 17786 H 1629.45 -0.289029 -1.81209 0
M  V30 17787 H 1627.83 1.62497 -3.61124 0
M  V30 17788 H 1629.01 -1.10056 -4.47464 0
M  V30 17789 H 1627.32 -0.840182 -4.07836 0
M  V30 17790 H 1629.92 1.76718 -5.04653 0
M  V30 17791 H 1630.26 2.35003 -3.43627 0
M  V30 17792 H 1630.8 0.71935 -3.91242 0
M  V30 17793 H 1627.54 -0.779297 -6.50851 0
M  V30 17794 H 1627.06 0.835984 -5.93946 0
M  V30 17795 H 1628.73 0.528864 -6.44835 0
M  V30 17796 N 1628.87 1.57413 0.0768405 0
M  V30 17797 C 1629.81 2.04373 1.1106 0
M  V30 17798 C 1630.81 0.948127 1.40381 0
M  V30 17799 O 1632.01 1.13325 1.39848 0
M  V30 17800 H 1628.39 0.65156 0.375464 0
M  V30 17801 H 1630.36 2.90352 0.688348 0
M  V30 17802 C 1629.11 2.49914 2.41741 0
M  V30 17803 H 1628.43 3.33808 2.20027 0
M  V30 17804 H 1629.87 2.8653 3.12532 0
M  V30 17805 C 1628.33 1.37996 3.07341 0
M  V30 17806 O 1628.86 0.719242 3.95209 0
M  V30 17807 N 1627.07 1.12635 2.67884 0
M  V30 17808 H 1626.61 1.66545 1.96521 0
M  V30 17809 H 1626.57 0.37956 3.121 0
M  V30 17810 N 1630.34 -0.348112 1.53707 0
M  V30 17811 C 1631.62 -1.1056 1.61356 0
M  V30 17812 C 1632 -2.06633 0.431955 0
M  V30 17813 O 1631.35 -2.21115 -0.576211 0
M  V30 17814 C 1631.56 -1.82929 2.97217 0
M  V30 17815 C 1632.91 -2.36837 3.52411 0
M  V30 17816 O 1633.93 -1.93032 2.99361 0
M  V30 17817 O 1632.79 -3.16966 4.45191 0
M  V30 17818 H 1629.88 -0.50817 0.652451 0
M  V30 17819 H 1632.43 -0.349971 1.66052 0
M  V30 17820 H 1631.2 -1.12912 3.74655 0
M  V30 17821 H 1630.83 -2.65361 2.9609 0
M  V30 17822 N 1631.82 -1.45363 -0.608876 0
M  V30 17823 C 1632.77 -1.54268 -1.7408 0
M  V30 17824 C 1633.76 -0.412752 -1.64295 0
M  V30 17825 O 1634.97 -0.58861 -1.70104 0
M  V30 17826 H 1631.35 -0.484528 -0.575097 0
M  V30 17827 H 1633.32 -2.49492 -1.63696 0
M  V30 17828 C 1632.07 -1.5253 -3.12458 0
M  V30 17829 H 1631.39 -2.38801 -3.20646 0
M  V30 17830 H 1632.83 -1.62819 -3.91492 0
M  V30 17831 C 1631.29 -0.249525 -3.35975 0
M  V30 17832 O 1631.82 0.671159 -3.96053 0
M  V30 17833 N 1630.02 -0.145625 -2.90235 0
M  V30 17834 H 1629.57 -0.895714 -2.41526 0
M  V30 17835 H 1629.53 0.707167 -3.06344 0
M  V30 17836 N 1633.3 0.851265 -1.32632 0
M  V30 17837 C 1634.53 1.63568 -1.26211 0
M  V30 17838 C 1634.94 1.8842 0.171578 0
M  V30 17839 O 1634.28 1.45592 1.12021 0
M  V30 17840 C 1634.34 3.01653 -1.95566 0
M  V30 17841 C 1634.01 2.99827 -3.44896 0
M  V30 17842 C 1635 2.76431 -4.4032 0
M  V30 17843 C 1632.69 3.20355 -3.86883 0
M  V30 17844 C 1634.68 2.73572 -5.75706 0
M  V30 17845 C 1632.37 3.17122 -5.22376 0
M  V30 17846 C 1633.37 2.9376 -6.16599 0
M  V30 17847 O 1633.06 2.90408 -7.49612 0
M  V30 17848 H 1632.79 0.516079 -0.436622 0
M  V30 17849 H 1635.34 1.06941 -1.75365 0
M  V30 17850 H 1633.57 3.60083 -1.40986 0
M  V30 17851 H 1635.26 3.62403 -1.82809 0
M  V30 17852 H 1636.03 2.60335 -4.09208 0
M  V30 17853 H 1631.91 3.37563 -3.13962 0
M  V30 17854 H 1635.45 2.55257 -6.49222 0
M  V30 17855 H 1631.35 3.32764 -5.53117 0
M  V30 17856 H 1632.12 3.06338 -7.59012 0
M  V30 17857 N 1634.78 1.15898 1.06796 0
M  V30 17858 C 1636.03 0.931848 1.78884 0
M  V30 17859 C 1636.34 -0.54197 1.87942 0
M  V30 17860 O 1637.55 -0.886848 2.56607 0
M  V30 17861 C 1636 1.61788 3.21485 0
M  V30 17862 C 1635.61 3.12911 3.2061 0
M  V30 17863 C 1637.35 1.47252 3.98142 0
M  V30 17864 C 1635.26 3.74275 4.579 0
M  V30 17865 H 1634.19 0.344998 0.670442 0
M  V30 17866 H 1636.84 1.38974 1.19827 0
M  V30 17867 H 1635.22 1.08769 3.80769 0
M  V30 17868 H 1636.4 3.72732 2.70938 0
M  V30 17869 H 1634.71 3.27273 2.57451 0
M  V30 17870 H 1637.31 1.90484 4.9962 0
M  V30 17871 H 1637.65 0.420766 4.14168 0
M  V30 17872 H 1638.19 1.97398 3.45367 0
M  V30 17873 H 1634.93 4.79376 4.47078 0
M  V30 17874 H 1634.45 3.19238 5.07786 0
M  V30 17875 H 1636.12 3.75532 5.26863 0
M  V30 17876 N 1636.26 -1.25243 0.956659 0
M  V30 17877 C 1637.53 -1.88287 0.529832 0
M  V30 17878 C 1637.91 -1.8629 -0.992929 0
M  V30 17879 O 1637.26 -1.32785 -1.85958 0
M  V30 17880 C 1637.47 -3.30919 1.10877 0
M  V30 17881 C 1638.82 -4.07674 1.18687 0
M  V30 17882 O 1639.84 -3.40048 1.06047 0
M  V30 17883 O 1638.7 -5.28648 1.38541 0
M  V30 17884 H 1635.8 -0.808258 0.175066 0
M  V30 17885 H 1638.34 -1.33298 1.05022 0
M  V30 17886 H 1637.11 -3.26813 2.15195 0
M  V30 17887 H 1636.74 -3.93468 0.571755 0
M  V30 17888 N 1637.73 -0.725468 -1.3991 0
M  V30 17889 C 1639.15 -0.400048 -1.54505 0
M  V30 17890 C 1639.35 1.09014 -1.69464 0
M  V30 17891 O 1638.41 1.87624 -1.68977 0
M  V30 17892 C 1639.72 -1.17474 -2.76804 0
M  V30 17893 C 1641.27 -1.16202 -2.9063 0
M  V30 17894 C 1641.74 -1.91908 -4.15855 0
M  V30 17895 N 1643.23 -1.89026 -4.22875 0
M  V30 17896 C 1643.97 -2.4442 -5.18697 0
M  V30 17897 N 1643.46 -3.0841 -6.20367 0
M  V30 17898 N 1645.26 -2.34506 -5.10846 0
M  V30 17899 H 1637.41 -1.6916 -1.28447 0
M  V30 17900 H 1639.67 -0.715556 -0.621839 0
M  V30 17901 H 1639.38 -2.22881 -2.72061 0
M  V30 17902 H 1639.25 -0.772871 -3.69197 0
M  V30 17903 H 1641.64 -0.116116 -2.94871 0
M  V30 17904 H 1641.72 -1.60319 -1.99327 0
M  V30 17905 H 1641.36 -2.96494 -4.12375 0
M  V30 17906 H 1641.29 -1.45204 -5.06185 0
M  V30 17907 H 1643.78 -1.42399 -3.50044 0
M  V30 17908 H 1644.1 -3.48169 -6.89926 0
M  V30 17909 H 1642.44 -3.12497 -6.20782 0
M  V30 17910 H 1645.63 -1.84164 -4.3035 0
M  V30 17911 H 1645.81 -2.77976 -5.85349 0
M  V30 17912 N 1639.21 1.50354 -0.472382 0
M  V30 17913 C 1640.44 2.06446 0.0796976 0
M  V30 17914 C 1640.85 1.33626 1.33943 0
M  V30 17915 O 1640.19 0.399473 1.79304 0
M  V30 17916 C 1640.26 3.56889 0.432455 0
M  V30 17917 C 1639.92 4.51205 -0.725443 0
M  V30 17918 C 1640.92 4.94413 -1.60784 0
M  V30 17919 C 1638.6 4.93875 -0.916135 0
M  V30 17920 C 1640.6 5.78998 -2.66533 0
M  V30 17921 C 1638.28 5.78242 -1.97684 0
M  V30 17922 C 1639.28 6.20706 -2.8498 0
M  V30 17923 O 1638.97 7.03391 -3.89224 0
M  V30 17924 H 1638.7 0.675986 -0.00433625 0
M  V30 17925 H 1641.25 1.94489 -0.660558 0
M  V30 17926 H 1639.48 3.66754 1.22591 0
M  V30 17927 H 1641.17 3.95342 0.919769 0
M  V30 17928 H 1641.94 4.62116 -1.47221 0
M  V30 17929 H 1637.82 4.60343 -0.246124 0
M  V30 17930 H 1641.36 6.12063 -3.34701 0
M  V30 17931 H 1637.26 6.09953 -2.11254 0
M  V30 17932 H 1638.03 7.21644 -3.86229 0
M  V30 17933 N 1640.69 0.205039 1.56261 0
M  V30 17934 C 1641.94 -0.431364 1.97033 0
M  V30 17935 C 1642.25 -1.62066 1.09517 0
M  V30 17936 O 1643.46 -2.32551 1.40116 0
M  V30 17937 C 1641.92 -0.818841 3.50461 0
M  V30 17938 C 1641.52 0.346723 4.46656 0
M  V30 17939 C 1643.27 -1.42177 3.99982 0
M  V30 17940 C 1641.17 -0.0622677 5.91367 0
M  V30 17941 H 1640.1 -0.164934 0.73574 0
M  V30 17942 H 1642.76 0.298635 1.81054 0
M  V30 17943 H 1641.14 -1.60579 3.61981 0
M  V30 17944 H 1642.31 1.12427 4.46874 0
M  V30 17945 H 1640.63 0.861799 4.07384 0
M  V30 17946 H 1643.22 -1.74039 5.05583 0
M  V30 17947 H 1643.57 -2.33177 3.44868 0
M  V30 17948 H 1644.1 -0.698591 3.91618 0
M  V30 17949 H 1640.84 0.813802 6.50429 0
M  V30 17950 H 1640.36 -0.804474 5.94381 0
M  V30 17951 H 1642.04 -0.49466 6.45106 0
M  V30 17952 N 1642.17 -1.57451 -0.0684915 0
M  V30 17953 C 1643.13 -2.0293 -1.06545 0
M  V30 17954 C 1644.13 -0.926861 -1.314 0
M  V30 17955 O 1645.32 -1.19164 -1.27065 0
M  V30 17956 C 1642.45 -2.41276 -2.4083 0
M  V30 17957 H 1643.65 -2.92242 -0.673401 0
M  V30 17958 H 1641.2 -1.53107 -0.314307 0
M  V30 17959 H 1641.94 -1.55 -2.8486 0
M  V30 17960 H 1641.72 -3.21727 -2.2413 0
M  V30 17961 H 1643.21 -2.77026 -3.12484 0
M  V30 17962 N 1643.65 0.339955 -1.5389 0
M  V30 17963 C 1645.06 0.915362 -1.62721 0
M  V30 17964 C 1645.41 1.89434 -0.510798 0
M  V30 17965 O 1644.53 2.13403 0.3589 0
M  V30 17966 C 1645.13 1.66699 -2.94953 0
M  V30 17967 C 1643.69 2.19135 -3.06034 0
M  V30 17968 C 1642.84 1.01159 -2.5819 0
M  V30 17969 H 1645.79 0.11799 -1.58261 0
M  V30 17970 H 1645.81 2.53011 -2.84193 0
M  V30 17971 H 1645.32 0.954219 -3.76186 0
M  V30 17972 H 1643.42 2.93577 -2.29441 0
M  V30 17973 H 1643.53 2.4526 -4.11563 0
M  V30 17974 H 1641.9 1.38604 -2.13685 0
M  V30 17975 H 1642.68 0.313396 -3.41867 0
M  V30 17976 N 1645.13 1.45684 0.601159 0
M  V30 17977 C 1646.04 1.57396 1.73965 0
M  V30 17978 C 1647.05 0.458133 1.6786 0
M  V30 17979 O 1648.23 0.719717 1.88101 0
M  V30 17980 C 1645.29 1.54363 3.1044 0
M  V30 17981 C 1644.35 2.77034 3.27949 0
M  V30 17982 C 1643.59 2.74136 4.57914 0
M  V30 17983 O 1643.81 1.81829 5.40643 0
M  V30 17984 O 1642.74 3.65428 4.78274 0
M  V30 17985 H 1646.57 2.5364 1.67034 0
M  V30 17986 H 1644.15 1.28267 0.766017 0
M  V30 17987 H 1646.04 1.55302 3.91739 0
M  V30 17988 H 1644.71 0.612723 3.17848 0
M  V30 17989 H 1643.62 2.81655 2.46214 0
M  V30 17990 H 1644.95 3.69272 3.25422 0
M  V30 17991 N 1646.6 -0.84422 1.33082 0
M  V30 17992 C 1647.83 -1.63654 1.27405 0
M  V30 17993 C 1648.25 -1.87476 -0.153146 0
M  V30 17994 O 1647.61 -1.43502 -1.10801 0
M  V30 17995 C 1647.66 -2.96698 2.04945 0
M  V30 17996 O 1646.76 -3.87751 1.40439 0
M  V30 17997 H 1646.1 -0.498545 0.438576 0
M  V30 17998 H 1648.63 -1.0507 1.7556 0
M  V30 17999 H 1648.64 -3.46438 2.1551 0
M  V30 18000 H 1647.32 -2.78682 3.08722 0
M  V30 18001 H 1645.9 -3.46231 1.38487 0
M  V30 18002 N 1648.08 -1.16463 -1.0618 0
M  V30 18003 C 1649.03 -0.868264 -2.15787 0
M  V30 18004 C 1650.02 0.163135 -1.68613 0
M  V30 18005 O 1651.23 0.0170117 -1.79992 0
M  V30 18006 H 1647.6 -0.263184 -0.704442 0
M  V30 18007 H 1649.58 -1.80005 -2.37993 0
M  V30 18008 C 1648.32 -0.387052 -3.45539 0
M  V30 18009 H 1647.65 -1.17212 -3.82232 0
M  V30 18010 H 1649.09 -0.218471 -4.23437 0
M  V30 18011 C 1647.55 0.893588 -3.24833 0
M  V30 18012 O 1648.08 1.96259 -3.50493 0
M  V30 18013 N 1646.28 0.8378 -2.78261 0
M  V30 18014 H 1645.83 -0.0323251 -2.5758 0
M  V30 18015 H 1645.79 1.69515 -2.64787 0
M  V30 18016 N 1649.56 1.24734 -0.963288 0
M  V30 18017 C 1650.81 1.92971 -0.623688 0
M  V30 18018 C 1651.14 1.7517 0.838393 0
M  V30 18019 O 1650.41 1.10208 1.60264 0
M  V30 18020 C 1650.7 3.46115 -0.99379 0
M  V30 18021 C 1650.55 3.73104 -2.51224 0
M  V30 18022 C 1651.87 4.36956 -0.525128 0
M  V30 18023 H 1648.99 0.700827 -0.228058 0
M  V30 18024 H 1651.63 1.47187 -1.2015 0
M  V30 18025 H 1649.78 3.85242 -0.502108 0
M  V30 18026 H 1651.45 3.43563 -3.07835 0
M  V30 18027 H 1649.69 3.18409 -2.94616 0
M  V30 18028 H 1650.37 4.80237 -2.7217 0
M  V30 18029 H 1652.84 4.0518 -0.947015 0
M  V30 18030 H 1651.72 5.4285 -0.812695 0
M  V30 18031 H 1651.98 4.38347 0.574843 0
M  V30 18032 N 1651.04 0.732878 1.39523 0
M  V30 18033 C 1651.97 0.106583 2.33257 0
M  V30 18034 C 1652.95 -0.726582 1.53801 0
M  V30 18035 O 1654.13 -0.671994 1.82203 0
M  V30 18036 C 1651.26 -0.803051 3.37888 0
M  V30 18037 C 1650.22 -0.0742048 4.27936 0
M  V30 18038 C 1649.54 -1.10071 5.23248 0
M  V30 18039 C 1650.84 1.08195 5.10971 0
M  V30 18040 H 1652.54 0.889539 2.8588 0
M  V30 18041 H 1650.08 0.429209 1.37455 0
M  V30 18042 H 1652.04 -1.25071 4.02412 0
M  V30 18043 H 1650.76 -1.6181 2.83699 0
M  V30 18044 H 1649.42 0.35381 3.64889 0
M  V30 18045 H 1649.07 -1.90927 4.65356 0
M  V30 18046 H 1648.77 -0.617825 5.84343 0
M  V30 18047 H 1650.29 -1.54812 5.90649 0
M  V30 18048 H 1651.71 0.712835 5.68851 0
M  V30 18049 H 1650.1 1.49433 5.81197 0
M  V30 18050 H 1651.17 1.90463 4.45928 0
M  V30 18051 N 1652.52 -1.50101 0.480349 0
M  V30 18052 C 1653.76 -2.02674 -0.0715373 0
M  V30 18053 C 1654.09 -1.36095 -1.38535 0
M  V30 18054 O 1653.37 -0.489703 -1.88234 0
M  V30 18055 C 1653.65 -3.59261 -0.245693 0
M  V30 18056 C 1653.51 -4.36399 1.08979 0
M  V30 18057 C 1654.82 -4.28682 -0.995966 0
M  V30 18058 H 1651.94 -0.736592 -0.0245244 0
M  V30 18059 H 1654.59 -1.7933 0.627743 0
M  V30 18060 H 1652.74 -3.79281 -0.841308 0
M  V30 18061 H 1654.41 -4.27926 1.72269 0
M  V30 18062 H 1652.65 -3.99773 1.68417 0
M  V30 18063 H 1653.32 -5.44254 0.921468 0
M  V30 18064 H 1655.8 -4.13193 -0.491025 0
M  V30 18065 H 1654.67 -5.38037 -1.08663 0
M  V30 18066 H 1654.93 -3.92491 -2.03479 0
M  V30 18067 N 1653.99 -0.213323 -1.5615 0
M  V30 18068 C 1654.92 0.695003 -2.22917 0
M  V30 18069 C 1655.9 1.20738 -1.19818 0
M  V30 18070 O 1657.09 1.25289 -1.48379 0
M  V30 18071 C 1654.22 1.90685 -2.9027 0
M  V30 18072 C 1653.17 1.52865 -3.9977 0
M  V30 18073 C 1652.5 2.81859 -4.54378 0
M  V30 18074 C 1653.8 0.724829 -5.17246 0
M  V30 18075 H 1655.49 0.138351 -2.9908 0
M  V30 18076 H 1653.04 0.0651029 -1.43853 0
M  V30 18077 H 1654.99 2.54766 -3.35667 0
M  V30 18078 H 1653.72 2.48833 -2.11541 0
M  V30 18079 H 1652.38 0.911336 -3.55092 0
M  V30 18080 H 1652.02 3.38135 -3.72389 0
M  V30 18081 H 1651.72 2.57291 -5.28275 0
M  V30 18082 H 1653.25 3.46897 -5.02489 0
M  V30 18083 H 1654.66 1.26915 -5.59076 0
M  V30 18084 H 1653.06 0.57656 -5.97324 0
M  V30 18085 H 1654.13 -0.270309 -4.84146 0
M  V30 18086 N 1655.47 1.57485 0.0601405 0
M  V30 18087 C 1656.72 1.88094 0.758192 0
M  V30 18088 C 1657.05 0.807138 1.76632 0
M  V30 18089 O 1656.33 -0.181347 1.93653 0
M  V30 18090 C 1656.61 3.29363 1.45574 0
M  V30 18091 C 1656.46 4.47408 0.463233 0
M  V30 18092 C 1657.78 3.69048 2.39773 0
M  V30 18093 H 1654.9 0.684106 0.274169 0
M  V30 18094 H 1657.54 1.89988 0.0212215 0
M  V30 18095 H 1655.69 3.27879 2.08393 0
M  V30 18096 H 1657.36 4.6102 -0.160641 0
M  V30 18097 H 1655.61 4.3324 -0.220408 0
M  V30 18098 H 1656.28 5.43065 0.989164 0
M  V30 18099 H 1658.75 3.71701 1.87024 0
M  V30 18100 H 1657.63 4.68761 2.85577 0
M  V30 18101 H 1657.89 2.9961 3.25094 0
M  V30 18102 N 1656.95 -0.331789 1.54068 0
M  V30 18103 C 1657.88 -1.42889 1.79208 0
M  V30 18104 C 1658.9 -1.48204 0.673754 0
M  V30 18105 O 1660.08 -1.51075 0.950712 0
M  V30 18106 C 1657.18 -2.81477 1.88743 0
M  V30 18107 C 1656.36 -2.99463 3.18812 0
M  V30 18108 C 1655.42 -4.18363 3.19154 0
M  V30 18109 O 1654.44 -4.11916 3.92828 0
M  V30 18110 N 1655.64 -5.27489 2.42354 0
M  V30 18111 H 1658.41 -1.21689 2.73883 0
M  V30 18112 H 1655.97 -0.521735 1.53263 0
M  V30 18113 H 1657.96 -3.59213 1.86409 0
M  V30 18114 H 1656.53 -2.95765 1.01202 0
M  V30 18115 H 1655.75 -2.09097 3.34174 0
M  V30 18116 H 1657.04 -3.0837 4.04704 0
M  V30 18117 H 1656.44 -5.35599 1.82071 0
M  V30 18118 H 1655 -6.03674 2.45806 0
M  V30 18119 N 1658.43 -1.46001 -0.593424 0
M  V30 18120 C 1659.66 -1.54083 -1.3763 0
M  V30 18121 C 1660.07 -0.177096 -1.88369 0
M  V30 18122 O 1659.41 0.834016 -1.63676 0
M  V30 18123 C 1659.47 -2.47599 -2.60643 0
M  V30 18124 C 1659.14 -3.94058 -2.31445 0
M  V30 18125 C 1660.13 -4.83569 -1.90936 0
M  V30 18126 C 1657.82 -4.39099 -2.4392 0
M  V30 18127 C 1659.81 -6.16131 -1.63282 0
M  V30 18128 C 1657.5 -5.71699 -2.15879 0
M  V30 18129 C 1658.5 -6.60034 -1.75624 0
M  V30 18130 O 1658.18 -7.90174 -1.4792 0
M  V30 18131 H 1657.92 -0.52391 -0.427193 0
M  V30 18132 H 1660.47 -1.92011 -0.729444 0
M  V30 18133 H 1658.7 -2.04669 -3.28097 0
M  V30 18134 H 1660.39 -2.46207 -3.22703 0
M  V30 18135 H 1661.16 -4.50031 -1.80822 0
M  V30 18136 H 1657.03 -3.70575 -2.74218 0
M  V30 18137 H 1660.58 -6.85039 -1.31787 0
M  V30 18138 H 1656.48 -6.04788 -2.25614 0
M  V30 18139 H 1657.24 -8.02338 -1.61854 0
M  V30 18140 N 1659.91 0.83715 -1.33527 0
M  V30 18141 C 1661.32 1.40878 -1.22516 0
M  V30 18142 C 1661.67 1.95585 0.155236 0
M  V30 18143 O 1660.79 1.88946 1.05491 0
M  V30 18144 C 1661.39 2.56093 -2.21815 0
M  V30 18145 C 1659.95 3.09205 -2.14638 0
M  V30 18146 C 1659.09 1.82012 -2.09205 0
M  V30 18147 H 1662.05 0.642766 -1.45101 0
M  V30 18148 H 1662.07 3.33775 -1.82687 0
M  V30 18149 H 1661.58 2.16246 -3.22272 0
M  V30 18150 H 1659.68 3.53592 -1.17489 0
M  V30 18151 H 1659.79 3.69261 -3.05259 0
M  V30 18152 H 1658.16 2.02331 -1.54707 0
M  V30 18153 H 1658.94 1.44359 -3.11473 0
M  V30 18154 N 1661.38 1.17024 1.05561 0
M  V30 18155 C 1662.66 0.86635 1.75367 0
M  V30 18156 C 1663.04 -0.634217 2.01348 0
M  V30 18157 O 1662.39 -1.58434 1.64654 0
M  V30 18158 C 1662.6 1.69719 3.04953 0
M  V30 18159 C 1663.95 1.91482 3.78972 0
M  V30 18160 O 1664.97 1.66647 3.14813 0
M  V30 18161 O 1663.83 2.33197 4.94248 0
M  V30 18162 H 1660.92 0.320412 0.762407 0
M  V30 18163 H 1663.47 1.277 1.11763 0
M  V30 18164 H 1662.24 2.71512 2.81775 0
M  V30 18165 H 1661.87 1.28408 3.76294 0
M  V30 18166 N 1662.86 -1.24221 0.969889 0
M  V30 18167 C 1664.28 -1.4454 0.676778 0
M  V30 18168 C 1664.48 -1.86591 -0.760656 0
M  V30 18169 O 1663.53 -2.00538 -1.5343 0
M  V30 18170 C 1664.85 -2.50546 1.66274 0
M  V30 18171 C 1666.4 -2.64372 1.67561 0
M  V30 18172 C 1666.87 -3.73577 2.6496 0
M  V30 18173 N 1668.36 -3.81007 2.63416 0
M  V30 18174 C 1669.1 -4.65037 3.35452 0
M  V30 18175 N 1668.59 -5.53238 4.17013 0
M  V30 18176 N 1670.39 -4.59138 3.24266 0
M  V30 18177 H 1662.54 -0.952237 1.89858 0
M  V30 18178 H 1664.8 -0.479972 0.817515 0
M  V30 18179 H 1664.51 -2.26541 2.6902 0
M  V30 18180 H 1664.38 -3.48745 1.43724 0
M  V30 18181 H 1666.77 -2.87733 0.655247 0
M  V30 18182 H 1666.85 -1.66523 1.94174 0
M  V30 18183 H 1666.49 -3.50965 3.67132 0
M  V30 18184 H 1666.42 -4.70944 2.35626 0
M  V30 18185 H 1668.91 -3.17969 2.04216 0
M  V30 18186 H 1669.23 -6.1432 4.68861 0
M  V30 18187 H 1667.57 -5.52896 4.21107 0
M  V30 18188 H 1670.76 -3.89247 2.60008 0
M  V30 18189 H 1670.93 -5.24399 3.8067 0
M  V30 18190 N 1664.34 -0.740267 -1.39132 0
M  V30 18191 C 1665.57 -0.299605 -2.05225 0
M  V30 18192 C 1665.99 1.05904 -1.55454 0
M  V30 18193 O 1665.35 1.67216 -0.700603 0
M  V30 18194 C 1665.4 -0.316792 -3.59206 0
M  V30 18195 O 1664.5 0.693786 -4.06522 0
M  V30 18196 H 1663.84 -0.135146 -0.650101 0
M  V30 18197 H 1666.37 -1.00766 -1.78065 0
M  V30 18198 H 1666.38 -0.163013 -4.07674 0
M  V30 18199 H 1665.06 -1.30814 -3.94792 0
M  V30 18200 H 1663.63 0.505712 -3.69455 0
M  V30 18201 N 1665.82 1.49844 -0.488302 0
M  V30 18202 C 1666.77 2.28883 0.296859 0
M  V30 18203 C 1667.74 1.34703 0.971818 0
M  V30 18204 O 1668.92 1.63653 0.980937 0
M  V30 18205 C 1666.06 3.17049 1.36286 0
M  V30 18206 C 1665.17 4.26275 0.700956 0
M  V30 18207 C 1664.31 5.01674 1.74632 0
M  V30 18208 C 1663.35 6.02753 1.06559 0
M  V30 18209 N 1662.48 6.71366 2.05457 0
M  V30 18210 H 1667.32 2.95523 -0.383417 0
M  V30 18211 H 1664.86 1.45721 -0.200928 0
M  V30 18212 H 1666.82 3.66531 1.99276 0
M  V30 18213 H 1665.45 2.52419 2.01207 0
M  V30 18214 H 1664.5 3.80377 -0.0419236 0
M  V30 18215 H 1665.81 4.98529 0.164469 0
M  V30 18216 H 1664.97 5.54961 2.45159 0
M  V30 18217 H 1663.71 4.29166 2.31664 0
M  V30 18218 H 1662.71 5.4871 0.346029 0
M  V30 18219 H 1663.94 6.77243 0.501932 0
M  V30 18220 H 1661.88 6.01637 2.61475 0
M  V30 18221 H 1661.8 7.39552 1.56841 0
M  V30 18222 H 1663.07 7.29262 2.75312 0
M  V30 18223 N 1667.3 0.221601 1.56034 0
M  V30 18224 C 1668.23 -0.683171 2.23282 0
M  V30 18225 C 1669.21 -1.20101 1.20456 0
M  V30 18226 O 1670.39 -1.245 1.49041 0
M  V30 18227 C 1667.52 -1.89143 2.91277 0
M  V30 18228 C 1666.48 -1.50742 4.00576 0
M  V30 18229 C 1665.8 -2.79446 4.55867 0
M  V30 18230 C 1667.1 -0.697388 5.17623 0
M  V30 18231 H 1668.8 -0.122488 2.99149 0
M  V30 18232 H 1666.34 -0.0574732 1.43885 0
M  V30 18233 H 1668.3 -2.52982 3.37013 0
M  V30 18234 H 1667.02 -2.47708 2.12858 0
M  V30 18235 H 1665.68 -0.892492 3.5557 0
M  V30 18236 H 1665.33 -3.36155 3.74177 0
M  V30 18237 H 1665.03 -2.54486 5.29633 0
M  V30 18238 H 1666.55 -3.44228 5.04321 0
M  V30 18239 H 1667.96 -1.23948 5.59741 0
M  V30 18240 H 1666.36 -0.544875 5.97621 0
M  V30 18241 H 1667.43 0.295981 4.83996 0
M  V30 18242 N 1668.77 -1.57515 -0.0517878 0
M  V30 18243 C 1670 -1.92177 -0.758384 0
M  V30 18244 C 1670.41 -0.817721 -1.70616 0
M  V30 18245 O 1669.76 0.216391 -1.82421 0
M  V30 18246 C 1669.82 -3.22471 -1.58912 0
M  V30 18247 C 1669.48 -4.4979 -0.808569 0
M  V30 18248 C 1670.48 -5.19764 -0.118871 0
M  V30 18249 C 1668.16 -4.96366 -0.769824 0
M  V30 18250 C 1670.16 -6.34578 0.599123 0
M  V30 18251 C 1667.84 -6.11081 -0.0480698 0
M  V30 18252 C 1668.84 -6.8004 0.635185 0
M  V30 18253 O 1668.53 -7.92564 1.34527 0
M  V30 18254 H 1668.26 -0.639335 -0.219607 0
M  V30 18255 H 1670.82 -2.0539 -0.0202648 0
M  V30 18256 H 1669.05 -3.05522 -2.37051 0
M  V30 18257 H 1670.74 -3.4263 -2.17622 0
M  V30 18258 H 1671.5 -4.84798 -0.139982 0
M  V30 18259 H 1667.38 -4.42551 -1.29112 0
M  V30 18260 H 1670.92 -6.88338 1.13298 0
M  V30 18261 H 1666.82 -6.45495 -0.0249563 0
M  V30 18262 H 1667.59 -8.08797 1.2566 0
M  V30 18263 N 1670.25 0.323614 -1.54242 0
M  V30 18264 C 1671.48 1.0811 -1.76408 0
M  V30 18265 C 1671.9 1.81707 -0.512656 0
M  V30 18266 O 1671.25 1.75035 0.516638 0
M  V30 18267 C 1671.3 2.07923 -2.9572 0
M  V30 18268 O 1671.03 1.37317 -4.16024 0
M  V30 18269 C 1672.53 2.95891 -3.30096 0
M  V30 18270 H 1669.75 0.321583 -0.588919 0
M  V30 18271 H 1672.29 0.369756 -2.01129 0
M  V30 18272 H 1670.45 2.74593 -2.73272 0
M  V30 18273 H 1670.86 2.04158 -4.83135 0
M  V30 18274 H 1672.33 3.61822 -4.1688 0
M  V30 18275 H 1672.81 3.62986 -2.47261 0
M  V30 18276 H 1673.42 2.34783 -3.54622 0
M  V30 18277 N 1671.73 1.46313 0.585673 0
M  V30 18278 C 1672.98 1.51171 1.34134 0
M  V30 18279 C 1673.3 0.163691 1.94312 0
M  V30 18280 O 1672.57 -0.809444 1.78395 0
M  V30 18281 H 1671.15 0.556768 0.498014 0
M  V30 18282 H 1673.81 1.82423 0.686133 0
M  V30 18283 H 1672.91 2.26274 2.14957 0
M  V30 18284 N 1673.21 -0.830057 1.33969 0
M  V30 18285 C 1674.16 -1.96189 1.2495 0
M  V30 18286 C 1675.15 -1.68743 0.149047 0
M  V30 18287 O 1676.36 -1.77248 0.31357 0
M  V30 18288 H 1672.73 -0.644184 0.387983 0
M  V30 18289 H 1674.7 -2.0092 2.20621 0
M  V30 18290 C 1673.45 -3.32569 1.01456 0
M  V30 18291 H 1672.78 -3.54232 1.85363 0
M  V30 18292 H 1674.22 -4.12237 0.991786 0
M  V30 18293 C 1672.67 -3.35715 -0.282331 0
M  V30 18294 O 1673.2 -3.80556 -1.28609 0
M  V30 18295 N 1671.41 -2.8891 -0.312952 0
M  V30 18296 H 1670.96 -2.52613 0.504446 0
M  V30 18297 H 1670.92 -2.91397 -1.18047 0
M  V30 18298 N 1674.69 -1.17582 -1.04939 0
M  V30 18299 C 1676.1 -0.971326 -1.59443 0
M  V30 18300 C 1676.45 0.481308 -1.90205 0
M  V30 18301 O 1675.57 1.35708 -1.6856 0
M  V30 18302 C 1676.17 -1.75685 -2.8969 0
M  V30 18303 C 1674.73 -1.59695 -3.40844 0
M  V30 18304 C 1673.88 -1.75688 -2.14544 0
M  V30 18305 H 1676.83 -1.32254 -0.877188 0
M  V30 18306 H 1676.85 -1.24074 -3.59703 0
M  V30 18307 H 1676.36 -2.81405 -2.67269 0
M  V30 18308 H 1674.46 -0.564746 -3.68295 0
M  V30 18309 H 1674.57 -2.38951 -4.15258 0
M  V30 18310 H 1672.94 -1.18553 -2.25427 0
M  V30 18311 H 1673.72 -2.82825 -1.94589 0
M  V30 18312 N 1676.17 1.23705 -0.976463 0
M  V30 18313 C 1677.41 1.9132 -0.638714 0
M  V30 18314 C 1677.73 1.7707 0.830993 0
M  V30 18315 O 1678.93 2.39453 1.27964 0
M  V30 18316 C 1677.39 3.42941 -1.09178 0
M  V30 18317 C 1677 3.6586 -2.58555 0
M  V30 18318 C 1678.74 4.16355 -0.827585 0
M  V30 18319 C 1676.65 5.11096 -2.97549 0
M  V30 18320 H 1675.58 0.716382 -0.235187 0
M  V30 18321 H 1678.23 1.40205 -1.18384 0
M  V30 18322 H 1676.61 3.93142 -0.474893 0
M  V30 18323 H 1677.79 3.26221 -3.25448 0
M  V30 18324 H 1676.1 3.05748 -2.82678 0
M  V30 18325 H 1678.7 5.23372 -1.09482 0
M  V30 18326 H 1679.04 4.15629 0.236282 0
M  V30 18327 H 1679.57 3.7213 -1.40586 0
M  V30 18328 H 1676.31 5.1695 -4.03042 0
M  V30 18329 H 1675.83 5.51699 -2.35346 0
M  V30 18330 H 1677.51 5.79397 -2.87937 0
M  V30 18331 N 1677.64 0.747635 1.38738 0
M  V30 18332 C 1678.87 0.311781 2.04537 0
M  V30 18333 C 1679.29 -1.05782 1.56383 0
M  V30 18334 O 1678.64 -1.67077 0.734259 0
M  V30 18335 C 1678.69 0.318675 3.60093 0
M  V30 18336 O 1678.42 1.63423 4.06478 0
M  V30 18337 C 1679.92 -0.131782 4.43104 0
M  V30 18338 H 1677.14 0.134141 0.657455 0
M  V30 18339 H 1679.68 1.01482 1.77543 0
M  V30 18340 H 1677.84 -0.335578 3.85944 0
M  V30 18341 H 1678.25 1.55636 5.00877 0
M  V30 18342 H 1679.72 -0.0757978 5.51948 0
M  V30 18343 H 1680.2 -1.17881 4.23085 0
M  V30 18344 H 1680.81 0.493375 4.22429 0
M  V30 18345 N 1679.12 -1.49583 0.496242 0
M  V30 18346 C 1680.37 -2.01634 -0.051782 0
M  V30 18347 C 1680.68 -1.38133 -1.38487 0
M  V30 18348 O 1681.89 -1.81484 -2.0193 0
M  V30 18349 C 1680.35 -3.59617 -0.142755 0
M  V30 18350 C 1679.95 -4.32088 1.1834 0
M  V30 18351 C 1681.7 -4.19626 -0.641397 0
M  V30 18352 C 1679.6 -5.81917 1.05485 0
M  V30 18353 H 1678.53 -0.753645 -0.0231258 0
M  V30 18354 H 1681.19 -1.72165 0.634944 0
M  V30 18355 H 1679.57 -3.85781 -0.893826 0
M  V30 18356 H 1680.74 -4.17628 1.94739 0
M  V30 18357 H 1679.06 -3.83801 1.61511 0
M  V30 18358 H 1681.65 -5.29343 -0.755008 0
M  V30 18359 H 1682 -3.82676 -1.63906 0
M  V30 18360 H 1682.53 -3.97765 0.053003 0
M  V30 18361 H 1679.27 -6.23384 2.02664 0
M  V30 18362 H 1678.79 -5.98882 0.331667 0
M  V30 18363 H 1680.47 -6.4285 0.731641 0
M  V30 18364 N 1680.6 -0.229873 -1.55915 0
M  V30 18365 C 1681.55 0.676809 -2.20653 0
M  V30 18366 C 1682.52 1.18412 -1.16481 0
M  V30 18367 O 1683.7 1.2417 -1.44867 0
M  V30 18368 C 1680.84 1.87567 -2.89677 0
M  V30 18369 C 1679.95 1.40648 -4.08463 0
M  V30 18370 C 1679.09 2.56356 -4.65247 0
M  V30 18371 C 1678.13 2.06215 -5.76318 0
M  V30 18372 N 1677.27 3.15226 -6.27357 0
M  V30 18373 H 1682.11 0.118035 -2.97766 0
M  V30 18374 H 1679.64 0.0465042 -1.47026 0
M  V30 18375 H 1681.6 2.57968 -3.27884 0
M  V30 18376 H 1680.23 2.40719 -2.15067 0
M  V30 18377 H 1679.28 0.597104 -3.75684 0
M  V30 18378 H 1680.59 0.998877 -4.88696 0
M  V30 18379 H 1679.75 3.34827 -5.05941 0
M  V30 18380 H 1678.49 3.0041 -3.84194 0
M  V30 18381 H 1677.49 1.26209 -5.35118 0
M  V30 18382 H 1678.72 1.63151 -6.59211 0
M  V30 18383 H 1676.66 3.58746 -5.49215 0
M  V30 18384 H 1676.58 2.78744 -7.02736 0
M  V30 18385 H 1677.85 3.93807 -6.72708 0
M  V30 18386 N 1682.08 1.5754 0.0434337 0
M  V30 18387 C 1683.3 1.93247 0.753012 0
M  V30 18388 C 1683.73 0.828712 1.68861 0
M  V30 18389 O 1683.09 -0.216618 1.80001 0
M  V30 18390 C 1683.13 3.27989 1.49852 0
M  V30 18391 O 1682.24 3.19223 2.61094 0
M  V30 18392 H 1681.58 0.632032 0.203547 0
M  V30 18393 H 1684.11 2.046 0.00319776 0
M  V30 18394 H 1684.12 3.62539 1.87161 0
M  V30 18395 H 1682.79 4.07891 0.812251 0
M  V30 18396 H 1681.37 2.9628 2.26434 0
M  V30 18397 N 1683.56 -0.31543 1.54411 0
M  V30 18398 C 1684.8 -1.05396 1.73261 0
M  V30 18399 C 1685.13 -1.87406 0.509171 0
M  V30 18400 O 1684.41 -1.88126 -0.493836 0
M  V30 18401 C 1684.69 -1.97195 3.01308 0
M  V30 18402 C 1684.55 -1.18461 4.33921 0
M  V30 18403 C 1685.86 -2.96594 3.25146 0
M  V30 18404 H 1682.98 -0.381763 0.630417 0
M  V30 18405 H 1685.63 -0.329882 1.87114 0
M  V30 18406 H 1683.78 -2.58936 2.89628 0
M  V30 18407 H 1685.45 -0.591171 4.57496 0
M  V30 18408 H 1683.69 -0.487025 4.31057 0
M  V30 18409 H 1684.36 -1.85909 5.19752 0
M  V30 18410 H 1686.84 -2.44977 3.36341 0
M  V30 18411 H 1685.71 -3.58002 4.16084 0
M  V30 18412 H 1685.97 -3.69487 2.42758 0
M  V30 18413 N 1685.03 -1.46622 -0.577906 0
M  V30 18414 C 1686.26 -1.56 -1.36671 0
M  V30 18415 C 1686.68 -0.2034 -1.86997 0
M  V30 18416 O 1686.04 0.817288 -1.61834 0
M  V30 18417 C 1686.09 -2.57254 -2.52691 0
M  V30 18418 O 1685.19 -2.1109 -3.54281 0
M  V30 18419 H 1684.54 -0.524779 -0.406821 0
M  V30 18420 H 1687.07 -1.92234 -0.700512 0
M  V30 18421 H 1687.08 -2.77016 -2.99543 0
M  V30 18422 H 1685.75 -3.55766 -2.15415 0
M  V30 18423 H 1684.33 -2.01337 -3.13875 0
M  V30 18424 N 1686.51 0.822941 -1.34408 0
M  V30 18425 C 1687.79 1.56492 -1.17345 0
M  V30 18426 C 1688.17 2.09567 0.253965 0
M  V30 18427 O 1687.52 1.90931 1.25529 0
M  V30 18428 C 1687.73 2.6863 -2.22797 0
M  V30 18429 C 1689.08 3.37399 -2.57773 0
M  V30 18430 O 1690.1 2.78887 -2.21587 0
M  V30 18431 O 1688.96 4.43063 -3.19934 0
M  V30 18432 H 1686.05 0.690664 -0.454876 0
M  V30 18433 H 1688.6 0.864315 -1.4604 0
M  V30 18434 H 1687.37 2.27166 -3.18608 0
M  V30 18435 H 1686.99 3.46341 -1.95279 0
M  V30 18436 N 1687.99 1.18137 1.04314 0
M  V30 18437 C 1688.94 0.906125 2.12269 0
M  V30 18438 C 1689.91 -0.153492 1.65389 0
M  V30 18439 O 1691.09 -0.0143887 1.90795 0
M  V30 18440 C 1688.23 0.435247 3.42344 0
M  V30 18441 C 1687.35 1.56 4.0285 0
M  V30 18442 C 1686.48 1.0421 5.20878 0
M  V30 18443 C 1685.52 2.14171 5.73409 0
M  V30 18444 N 1684.66 1.63792 6.82727 0
M  V30 18445 H 1689.5 1.83052 2.35151 0
M  V30 18446 H 1687.03 0.912846 1.1535 0
M  V30 18447 H 1688.99 0.143733 4.16952 0
M  V30 18448 H 1687.62 -0.452175 3.19617 0
M  V30 18449 H 1686.67 1.96705 3.25594 0
M  V30 18450 H 1687.99 2.389 4.37868 0
M  V30 18451 H 1687.14 0.704959 6.0259 0
M  V30 18452 H 1685.88 0.182643 4.87358 0
M  V30 18453 H 1684.88 2.48732 4.90319 0
M  V30 18454 H 1686.11 3.00547 6.08973 0
M  V30 18455 H 1684.05 0.801323 6.51087 0
M  V30 18456 H 1683.97 2.40293 7.16795 0
M  V30 18457 H 1685.24 1.32998 7.6807 0
M  V30 18458 N 1689.47 -1.23186 0.98301 0
M  V30 18459 C 1690.42 -2.26762 0.517846 0
M  V30 18460 C 1691.41 -1.63944 -0.426459 0
M  V30 18461 O 1692.62 -1.77481 -0.300065 0
M  V30 18462 H 1688.99 -0.737082 0.149042 0
M  V30 18463 H 1690.96 -2.63356 1.40307 0
M  V30 18464 C 1689.71 -3.47324 -0.16157 0
M  V30 18465 H 1689.03 -3.95915 0.555973 0
M  V30 18466 H 1690.47 -4.21598 -0.450644 0
M  V30 18467 C 1688.93 -3.06722 -1.39366 0
M  V30 18468 O 1689.46 -3.15239 -2.48973 0
M  V30 18469 N 1687.67 -2.61609 -1.26528 0
M  V30 18470 H 1687.22 -2.54879 -0.373449 0
M  V30 18471 H 1687.17 -2.34809 -2.09074 0
M  V30 18472 N 1690.95 -0.754982 -1.38339 0
M  V30 18473 C 1692.36 -0.379276 -1.82807 0
M  V30 18474 C 1692.71 1.09228 -1.62984 0
M  V30 18475 O 1691.83 1.84445 -1.13177 0
M  V30 18476 C 1692.43 -0.681628 -3.31872 0
M  V30 18477 C 1690.99 -0.359183 -3.74682 0
M  V30 18478 C 1690.13 -0.93409 -2.61094 0
M  V30 18479 H 1693.09 -0.951019 -1.27048 0
M  V30 18480 H 1693.11 0.0396803 -3.80479 0
M  V30 18481 H 1692.62 -1.75271 -3.46268 0
M  V30 18482 H 1690.72 0.705257 -3.65865 0
M  V30 18483 H 1690.83 -0.85571 -4.71396 0
M  V30 18484 H 1689.2 -0.359379 -2.52152 0
M  V30 18485 H 1689.98 -2.01023 -2.78289 0
M  V30 18486 N 1692.42 1.49318 -0.504168 0
M  V30 18487 C 1693.65 2.06569 0.0358894 0
M  V30 18488 C 1694.06 1.36437 1.31079 0
M  V30 18489 O 1693.41 0.437416 1.78416 0
M  V30 18490 C 1693.47 3.57726 0.356656 0
M  V30 18491 C 1693.13 4.49565 -0.820987 0
M  V30 18492 C 1694.13 4.90892 -1.71235 0
M  V30 18493 C 1691.81 4.9182 -1.02069 0
M  V30 18494 C 1693.81 5.73214 -2.78754 0
M  V30 18495 C 1691.49 5.73919 -2.09905 0
M  V30 18496 C 1692.49 6.14521 -2.98082 0
M  V30 18497 O 1692.18 6.94977 -4.04057 0
M  V30 18498 H 1691.91 0.675742 -0.0186739 0
M  V30 18499 H 1694.47 1.93044 -0.701664 0
M  V30 18500 H 1692.7 3.69271 1.14785 0
M  V30 18501 H 1694.39 3.97204 0.835704 0
M  V30 18502 H 1695.15 4.58889 -1.5699 0
M  V30 18503 H 1691.03 4.59717 -0.343714 0
M  V30 18504 H 1694.57 6.04826 -3.47609 0
M  V30 18505 H 1690.47 6.05334 -2.24144 0
M  V30 18506 H 1691.24 7.13289 -4.01449 0
M  V30 18507 N 1693.9 0.238138 1.5579 0
M  V30 18508 C 1695.13 -0.396409 2.03576 0
M  V30 18509 C 1695.55 -1.5138 1.11649 0
M  V30 18510 O 1694.91 -1.80979 0.107774 0
M  V30 18511 C 1694.96 -0.889749 3.49451 0
M  V30 18512 O 1694.06 -1.99997 3.60659 0
M  V30 18513 H 1693.4 -0.0876017 0.658196 0
M  V30 18514 H 1695.93 0.361632 2.01379 0
M  V30 18515 H 1695.94 -1.19526 3.901 0
M  V30 18516 H 1694.62 -0.0720136 4.15838 0
M  V30 18517 H 1693.2 -1.69983 3.31904 0
M  V30 18518 N 1695.38 -1.57561 -0.0350783 0
M  V30 18519 C 1696.8 -1.54746 -0.390618 0
M  V30 18520 C 1697 -0.963454 -1.76974 0
M  V30 18521 O 1696.05 -0.581878 -2.45704 0
M  V30 18522 C 1697.37 -2.9922 -0.297984 0
M  V30 18523 C 1698.91 -3.10739 -0.375506 0
M  V30 18524 C 1699.39 -4.56933 -0.312387 0
M  V30 18525 N 1700.88 -4.61709 -0.371364 0
M  V30 18526 C 1701.61 -5.72359 -0.34532 0
M  V30 18527 N 1701.11 -6.92266 -0.271921 0
M  V30 18528 N 1702.9 -5.60713 -0.394605 0
M  V30 18529 H 1695.05 -1.93876 0.867519 0
M  V30 18530 H 1697.32 -0.888974 0.329285 0
M  V30 18531 H 1697.02 -3.45651 0.649499 0
M  V30 18532 H 1696.9 -3.60987 -1.094 0
M  V30 18533 H 1699.28 -2.6426 -1.31342 0
M  V30 18534 H 1699.37 -2.51815 0.449752 0
M  V30 18535 H 1699.01 -5.04079 0.621834 0
M  V30 18536 H 1698.94 -5.13762 -1.15567 0
M  V30 18537 H 1701.43 -3.75436 -0.430848 0
M  V30 18538 H 1701.74 -7.72373 -0.256983 0
M  V30 18539 H 1700.09 -6.94592 -0.238058 0
M  V30 18540 H 1703.28 -4.65933 -0.449896 0
M  V30 18541 H 1703.45 -6.46938 -0.37084 0
M  V30 18542 N 1696.86 0.307236 -1.54576 0
M  V30 18543 C 1698.11 1.04082 -1.72771 0
M  V30 18544 C 1698.42 1.88639 -0.517188 0
M  V30 18545 O 1699.63 2.65215 -0.580811 0
M  V30 18546 C 1698.08 1.90015 -3.05651 0
M  V30 18547 C 1697.69 1.10491 -4.34161 0
M  V30 18548 C 1699.43 2.6301 -3.33205 0
M  V30 18549 C 1697.34 1.95664 -5.58094 0
M  V30 18550 H 1696.27 0.392307 -0.643903 0
M  V30 18551 H 1698.92 0.29815 -1.81062 0
M  V30 18552 H 1697.3 2.68245 -2.91309 0
M  V30 18553 H 1698.48 0.369181 -4.59319 0
M  V30 18554 H 1696.79 0.491053 -4.13494 0
M  V30 18555 H 1699.39 3.27074 -4.22997 0
M  V30 18556 H 1699.73 3.31512 -2.51804 0
M  V30 18557 H 1700.27 1.91833 -3.4849 0
M  V30 18558 H 1697.01 1.31643 -6.42145 0
M  V30 18559 H 1696.53 2.66927 -5.37131 0
M  V30 18560 H 1698.2 2.53861 -5.95116 0
M  V30 18561 N 1698.34 1.46926 0.570122 0
M  V30 18562 C 1699.27 1.61311 1.68822 0
M  V30 18563 C 1700.25 0.462964 1.63678 0
M  V30 18564 O 1701.43 0.690745 1.815 0
M  V30 18565 C 1698.56 1.61499 3.07466 0
M  V30 18566 C 1697.52 2.7561 3.27449 0
M  V30 18567 C 1696.84 2.60865 4.66748 0
M  V30 18568 C 1698.14 4.17324 3.14067 0
M  V30 18569 H 1699.84 2.54909 1.5704 0
M  V30 18570 H 1697.38 1.22677 0.754077 0
M  V30 18571 H 1699.34 1.70155 3.8552 0
M  V30 18572 H 1698.06 0.64453 3.20177 0
M  V30 18573 H 1696.72 2.66444 2.51799 0
M  V30 18574 H 1696.37 1.61875 4.76241 0
M  V30 18575 H 1696.07 3.37411 4.81069 0
M  V30 18576 H 1697.59 2.7143 5.46954 0
M  V30 18577 H 1699 4.27534 3.81952 0
M  V30 18578 H 1697.4 4.94555 3.39905 0
M  V30 18579 H 1698.47 4.36596 2.10979 0
M  V30 18580 N 1699.82 -0.815801 1.34842 0
M  V30 18581 C 1700.76 -1.94853 1.27024 0
M  V30 18582 C 1701.76 -1.68575 0.166936 0
M  V30 18583 O 1702.96 -1.76905 0.332352 0
M  V30 18584 H 1699.34 -0.640033 0.394794 0
M  V30 18585 H 1701.31 -1.98569 2.2274 0
M  V30 18586 C 1700.06 -3.31474 1.04977 0
M  V30 18587 H 1699.38 -3.52246 1.8911 0
M  V30 18588 H 1700.82 -4.11162 1.03545 0
M  V30 18589 C 1699.28 -3.35995 -0.246708 0
M  V30 18590 O 1699.81 -3.81898 -1.24566 0
M  V30 18591 N 1698.02 -2.89226 -0.282292 0
M  V30 18592 H 1697.56 -2.52063 0.531211 0
M  V30 18593 H 1697.52 -2.92633 -1.1495 0
M  V30 18594 N 1701.29 -1.18689 -1.03686 0
M  V30 18595 C 1702.54 -0.982656 -1.76602 0
M  V30 18596 C 1702.86 0.488553 -1.88781 0
M  V30 18597 O 1702.13 1.35419 -1.41558 0
M  V30 18598 H 1700.71 -0.360595 -0.654202 0
M  V30 18599 H 1703.37 -1.49439 -1.25115 0
M  V30 18600 H 1702.47 -1.42392 -2.77725 0
M  V30 18601 N 1702.77 1.22662 -0.989529 0
M  V30 18602 C 1704.05 1.86816 -0.579566 0
M  V30 18603 C 1704.43 1.88858 0.943188 0
M  V30 18604 O 1703.78 1.37668 1.82372 0
M  V30 18605 C 1703.99 3.27863 -1.19612 0
M  V30 18606 C 1705.33 4.04384 -1.29454 0
M  V30 18607 O 1706.36 3.37116 -1.15026 0
M  V30 18608 O 1705.22 5.24789 -1.52508 0
M  V30 18609 H 1702.31 0.803332 -0.196434 0
M  V30 18610 H 1704.86 1.30467 -1.08519 0
M  V30 18611 H 1703.63 3.20993 -2.23784 0
M  V30 18612 H 1703.25 3.91813 -0.675875 0
M  V30 18613 N 1704.25 0.762308 1.37937 0
M  V30 18614 C 1705.2 0.129897 2.32237 0
M  V30 18615 C 1706.19 -0.695577 1.54461 0
M  V30 18616 O 1707.4 -0.593697 1.69927 0
M  V30 18617 H 1703.77 0.023214 0.751642 0
M  V30 18618 H 1705.74 0.941144 2.8317 0
M  V30 18619 C 1704.49 -0.742235 3.39685 0
M  V30 18620 H 1703.82 -0.116427 3.9963 0
M  V30 18621 H 1705.26 -1.15187 4.08054 0
M  V30 18622 C 1703.71 -1.8887 2.7898 0
M  V30 18623 O 1704.24 -2.98351 2.68979 0
M  V30 18624 N 1702.45 -1.68642 2.36661 0
M  V30 18625 H 1702 -0.795945 2.44995 0
M  V30 18626 H 1701.96 -2.45519 1.96387 0
M  V30 18627 N 1705.73 -1.49049 0.51208 0
M  V30 18628 C 1706.98 -2.01677 -0.0303931 0
M  V30 18629 C 1707.29 -1.39594 -1.37014 0
M  V30 18630 O 1708.5 -1.83615 -1.99994 0
M  V30 18631 C 1706.95 -3.59748 -0.104605 0
M  V30 18632 C 1706.56 -4.30808 1.22916 0
M  V30 18633 C 1708.3 -4.20283 -0.596854 0
M  V30 18634 C 1706.21 -5.80765 1.11651 0
M  V30 18635 H 1705.14 -0.753848 -0.015131 0
M  V30 18636 H 1707.79 -1.71482 0.653169 0
M  V30 18637 H 1706.17 -3.86707 -0.852859 0
M  V30 18638 H 1707.35 -4.15539 1.99158 0
M  V30 18639 H 1705.66 -3.82066 1.65573 0
M  V30 18640 H 1708.26 -5.30114 -0.698821 0
M  V30 18641 H 1708.6 -3.84392 -1.59838 0
M  V30 18642 H 1709.14 -3.97686 0.0951882 0
M  V30 18643 H 1705.87 -6.212 2.09264 0
M  V30 18644 H 1705.39 -5.98497 0.395167 0
M  V30 18645 H 1707.07 -6.42038 0.799782 0
M  V30 18646 N 1707.21 -0.246397 -1.55662 0
M  V30 18647 C 1708.45 0.378973 -1.98108 0
M  V30 18648 C 1708.77 1.59106 -1.13775 0
M  V30 18649 O 1709.97 2.28754 -1.46232 0
M  V30 18650 C 1708.43 0.725634 -3.52509 0
M  V30 18651 C 1708.04 -0.465024 -4.4558 0
M  V30 18652 C 1709.78 1.31522 -4.03611 0
M  V30 18653 C 1707.69 -0.0945447 -5.91324 0
M  V30 18654 H 1706.62 0.14537 -0.739854 0
M  V30 18655 H 1709.27 -0.346533 -1.80198 0
M  V30 18656 H 1707.65 1.50925 -3.66111 0
M  V30 18657 H 1708.83 -1.24236 -4.43736 0
M  V30 18658 H 1707.14 -0.969507 -4.04956 0
M  V30 18659 H 1709.74 1.60573 -5.1002 0
M  V30 18660 H 1710.08 2.23952 -3.50929 0
M  V30 18661 H 1710.61 0.594515 -3.93332 0
M  V30 18662 H 1707.35 -0.985965 -6.48042 0
M  V30 18663 H 1706.87 0.646601 -5.96305 0
M  V30 18664 H 1708.55 0.323447 -6.46191 0
M  V30 18665 N 1708.68 1.57577 0.026722 0
M  V30 18666 C 1709.61 2.09748 1.02605 0
M  V30 18667 C 1710.59 1.00054 1.37562 0
M  V30 18668 O 1711.78 1.2759 1.46405 0
M  V30 18669 C 1708.91 2.57881 2.32626 0
M  V30 18670 C 1707.86 3.7186 2.11905 0
M  V30 18671 C 1707.19 4.06208 3.47706 0
M  V30 18672 C 1708.49 5.00198 1.50332 0
M  V30 18673 H 1710.18 2.93494 0.591753 0
M  V30 18674 H 1707.73 1.41188 0.283199 0
M  V30 18675 H 1709.68 2.93 3.02868 0
M  V30 18676 H 1708.41 1.71222 2.7812 0
M  V30 18677 H 1707.07 3.37094 1.44096 0
M  V30 18678 H 1706.71 3.16611 3.90853 0
M  V30 18679 H 1706.41 4.82982 3.34667 0
M  V30 18680 H 1707.94 4.43863 4.19306 0
M  V30 18681 H 1709.35 5.33259 2.10494 0
M  V30 18682 H 1707.75 5.81599 1.4786 0
M  V30 18683 H 1708.82 4.82623 0.469405 0
M  V30 18684 N 1710.16 -0.299034 1.54737 0
M  V30 18685 C 1711.11 -1.37055 1.82208 0
M  V30 18686 C 1712.1 -1.45855 0.679357 0
M  V30 18687 O 1713.29 -1.49974 0.940044 0
M  V30 18688 C 1710.42 -2.73525 2.07459 0
M  V30 18689 C 1709.5 -2.6894 3.27921 0
M  V30 18690 N 1709.89 -2.33972 4.48432 0
M  V30 18691 C 1708.19 -3.0004 3.29988 0
M  V30 18692 C 1708.89 -2.38734 5.30454 0
M  V30 18693 N 1707.87 -2.76167 4.68223 0
M  V30 18694 H 1711.67 -1.08986 2.72945 0
M  V30 18695 H 1709.18 -0.507618 1.54263 0
M  V30 18696 H 1711.18 -3.50787 2.25287 0
M  V30 18697 H 1709.84 -3.02503 1.1799 0
M  V30 18698 H 1710.85 -2.06392 4.74998 0
M  V30 18699 H 1707.53 -3.33901 2.50632 0
M  V30 18700 H 1708.92 -2.1448 6.36748 0
M  V30 18701 N 1711.64 -1.47227 -0.562322 0
M  V30 18702 C 1712.57 -1.53865 -1.68526 0
M  V30 18703 C 1713.55 -0.391166 -1.57825 0
M  V30 18704 O 1714.73 -0.598238 -1.78755 0
M  V30 18705 C 1711.86 -1.43638 -3.06734 0
M  V30 18706 C 1710.91 -2.62824 -3.35895 0
M  V30 18707 S 1711.74 -4.25054 -3.25714 0
M  V30 18708 C 1712.9 -4.17372 -4.66424 0
M  V30 18709 H 1713.13 -2.48869 -1.6264 0
M  V30 18710 H 1710.66 -1.35362 -0.74273 0
M  V30 18711 H 1712.62 -1.38425 -3.86457 0
M  V30 18712 H 1711.28 -0.500271 -3.1009 0
M  V30 18713 H 1710.47 -2.51718 -4.3664 0
M  V30 18714 H 1710.08 -2.65133 -2.63782 0
M  V30 18715 H 1712.37 -3.8531 -5.57263 0
M  V30 18716 H 1713.31 -5.18184 -4.82587 0
M  V30 18717 H 1713.72 -3.48309 -4.44231 0
M  V30 18718 N 1713.12 0.808639 -1.35273 0
M  V30 18719 C 1714.05 1.93502 -1.30687 0
M  V30 18720 C 1715.03 1.69127 -0.181675 0
M  V30 18721 O 1716.21 1.90519 -0.376312 0
M  V30 18722 C 1713.34 3.30211 -1.07602 0
M  V30 18723 C 1712.3 3.69063 -2.16741 0
M  V30 18724 C 1711.62 5.03911 -1.78824 0
M  V30 18725 C 1712.92 3.79656 -3.5869 0
M  V30 18726 H 1714.62 1.97597 -2.24935 0
M  V30 18727 H 1712.16 0.949284 -1.0828 0
M  V30 18728 H 1714.12 4.0861 -1.03034 0
M  V30 18729 H 1712.84 3.26453 -0.0979944 0
M  V30 18730 H 1711.5 2.92948 -2.20402 0
M  V30 18731 H 1711.15 4.96655 -0.796449 0
M  V30 18732 H 1710.85 5.30877 -2.51881 0
M  V30 18733 H 1712.37 5.84752 -1.75777 0
M  V30 18734 H 1713.79 4.48292 -3.57362 0
M  V30 18735 H 1712.18 4.1809 -4.30489 0
M  V30 18736 H 1713.25 2.81265 -3.94991 0
M  V30 18737 N 1714.6 1.19237 1.03055 0
M  V30 18738 C 1715.83 1.01769 1.79796 0
M  V30 18739 C 1716.23 -0.436738 1.8409 0
M  V30 18740 O 1715.58 -1.31514 1.28257 0
M  V30 18741 C 1715.64 1.50866 3.26312 0
M  V30 18742 C 1715.3 2.98949 3.45657 0
M  V30 18743 C 1716.3 3.96725 3.36014 0
M  V30 18744 C 1713.99 3.37605 3.71925 0
M  V30 18745 C 1715.98 5.31151 3.5236 0
M  V30 18746 C 1713.67 4.7219 3.87918 0
M  V30 18747 C 1714.66 5.68772 3.78137 0
M  V30 18748 O 1714.35 7.00919 3.9366 0
M  V30 18749 H 1714.08 0.359119 0.572721 0
M  V30 18750 H 1716.64 1.58449 1.30702 0
M  V30 18751 H 1714.87 0.885599 3.76423 0
M  V30 18752 H 1716.56 1.29633 3.84643 0
M  V30 18753 H 1717.32 3.68206 3.15672 0
M  V30 18754 H 1713.2 2.62982 3.78631 0
M  V30 18755 H 1716.75 6.06521 3.44643 0
M  V30 18756 H 1712.64 5.00405 4.07756 0
M  V30 18757 H 1713.41 7.07968 4.10761 0
M  V30 18758 N 1716.07 -1.22136 0.99602 0
M  V30 18759 C 1717.02 -2.262 0.541868 0
M  V30 18760 C 1718.02 -1.64387 -0.409047 0
M  V30 18761 O 1719.22 -1.7779 -0.281224 0
M  V30 18762 H 1715.6 -0.73546 0.156851 0
M  V30 18763 H 1717.57 -2.61853 1.43092 0
M  V30 18764 C 1716.32 -3.47476 -0.124723 0
M  V30 18765 H 1715.64 -3.95303 0.597934 0
M  V30 18766 H 1717.08 -4.22053 -0.405902 0
M  V30 18767 C 1715.54 -3.08183 -1.36105 0
M  V30 18768 O 1716.07 -3.17862 -2.45615 0
M  V30 18769 N 1714.28 -2.62936 -1.23746 0
M  V30 18770 H 1713.82 -2.5526 -0.346394 0
M  V30 18771 H 1713.78 -2.37014 -2.06572 0
M  V30 18772 N 1717.55 -0.769612 -1.37531 0
M  V30 18773 C 1718.78 -0.343069 -2.04543 0
M  V30 18774 C 1719.2 1.02583 -1.57665 0
M  V30 18775 O 1718.56 1.65692 -0.735915 0
M  V30 18776 C 1718.61 -0.392914 -3.58453 0
M  V30 18777 O 1717.71 0.607401 -4.07902 0
M  V30 18778 H 1717.05 -0.148905 -0.647088 0
M  V30 18779 H 1719.58 -1.04521 -1.75888 0
M  V30 18780 H 1719.59 -0.24945 -4.07237 0
M  V30 18781 H 1718.27 -1.39159 -3.91928 0
M  V30 18782 H 1716.85 0.427231 -3.70445 0
M  V30 18783 N 1719.03 1.48775 -0.519977 0
M  V30 18784 C 1720.45 1.58614 -0.177164 0
M  V30 18785 C 1720.65 1.52314 1.31919 0
M  V30 18786 O 1719.7 1.40697 2.09668 0
M  V30 18787 C 1721.02 2.90653 -0.770816 0
M  V30 18788 C 1722.56 3.0416 -0.73864 0
M  V30 18789 C 1723.04 4.38845 -1.31069 0
M  V30 18790 N 1724.53 4.45386 -1.27222 0
M  V30 18791 C 1725.26 5.48088 -1.68484 0
M  V30 18792 N 1724.76 6.57797 -2.17428 0
M  V30 18793 N 1726.55 5.38912 -1.59782 0
M  V30 18794 H 1718.7 1.51112 -1.49261 0
M  V30 18795 H 1720.97 0.716925 -0.62026 0
M  V30 18796 H 1720.67 3.00888 -1.82097 0
M  V30 18797 H 1720.55 3.76422 -0.242125 0
M  V30 18798 H 1722.93 2.93543 0.302728 0
M  V30 18799 H 1723.02 2.20026 -1.30469 0
M  V30 18800 H 1722.66 4.50215 -2.35093 0
M  V30 18801 H 1722.59 5.21649 -0.720409 0
M  V30 18802 H 1725.08 3.66685 -0.913813 0
M  V30 18803 H 1725.39 7.32287 -2.46933 0
M  V30 18804 H 1723.74 6.58787 -2.21415 0
M  V30 18805 H 1726.93 4.52097 -1.2135 0
M  V30 18806 H 1727.1 6.18821 -1.92261 0
M  V30 18807 N 1720.51 0.254649 1.55529 0
M  V30 18808 C 1721.46 -0.64162 2.21702 0
M  V30 18809 C 1722.43 -1.16544 1.1835 0
M  V30 18810 O 1723.61 -1.2185 1.46824 0
M  V30 18811 C 1720.75 -1.82935 2.92624 0
M  V30 18812 C 1719.86 -1.34132 4.10649 0
M  V30 18813 C 1719 -2.48922 4.69267 0
M  V30 18814 C 1718.04 -1.9702 5.79525 0
M  V30 18815 N 1717.17 -3.05206 6.32293 0
M  V30 18816 H 1722.01 -0.0706476 2.97916 0
M  V30 18817 H 1719.55 -0.0231077 1.47082 0
M  V30 18818 H 1721.51 -2.52719 3.31947 0
M  V30 18819 H 1720.14 -2.37267 2.1887 0
M  V30 18820 H 1719.19 -0.53726 3.76587 0
M  V30 18821 H 1720.5 -0.921003 4.90223 0
M  V30 18822 H 1719.66 -3.26735 5.11203 0
M  V30 18823 H 1718.4 -2.94259 3.88925 0
M  V30 18824 H 1717.4 -1.17679 5.37058 0
M  V30 18825 H 1718.63 -1.52643 6.61723 0
M  V30 18826 H 1716.57 -3.49963 5.54853 0
M  V30 18827 H 1716.49 -2.67528 7.07082 0
M  V30 18828 H 1717.76 -3.83055 6.78888 0
M  V30 18829 N 1721.99 -1.57589 -0.0183649 0
M  V30 18830 C 1723.22 -1.93743 -0.71745 0
M  V30 18831 C 1723.62 -0.853727 -1.68844 0
M  V30 18832 O 1722.97 0.177648 -1.82839 0
M  V30 18833 C 1723.03 -3.25769 -1.52036 0
M  V30 18834 C 1722.69 -4.51404 -0.71298 0
M  V30 18835 C 1723.69 -5.19899 -0.00859461 0
M  V30 18836 C 1721.38 -4.97887 -0.664364 0
M  V30 18837 C 1723.37 -6.33164 0.733592 0
M  V30 18838 C 1721.06 -6.11046 0.0815603 0
M  V30 18839 C 1722.05 -6.7854 0.779288 0
M  V30 18840 O 1721.74 -7.89532 1.51308 0
M  V30 18841 H 1721.47 -0.643849 -0.205996 0
M  V30 18842 H 1724.03 -2.05387 0.023306 0
M  V30 18843 H 1722.26 -3.10481 -2.30518 0
M  V30 18844 H 1723.95 -3.47169 -2.10305 0
M  V30 18845 H 1724.71 -4.84986 -0.0371173 0
M  V30 18846 H 1720.59 -4.4519 -1.19696 0
M  V30 18847 H 1724.14 -6.8578 1.27873 0
M  V30 18848 H 1720.03 -6.45403 0.111968 0
M  V30 18849 H 1720.8 -8.05949 1.42787 0
M  V30 18850 N 1723.46 0.290824 -1.54893 0
M  V30 18851 C 1724.4 1.38393 -1.81446 0
M  V30 18852 C 1725.38 1.48322 -0.666282 0
M  V30 18853 O 1726.56 1.65225 -0.907354 0
M  V30 18854 C 1723.69 2.76211 -1.96024 0
M  V30 18855 C 1722.73 2.83655 -3.18499 0
M  V30 18856 S 1723.57 2.44713 -4.76315 0
M  V30 18857 C 1724.72 3.84539 -4.93843 0
M  V30 18858 H 1724.95 1.15664 -2.73878 0
M  V30 18859 H 1722.49 0.489495 -1.46435 0
M  V30 18860 H 1724.45 3.55585 -2.05108 0
M  V30 18861 H 1723.11 2.96203 -1.04511 0
M  V30 18862 H 1722.3 3.84765 -3.25533 0
M  V30 18863 H 1721.9 2.12285 -3.07914 0
M  V30 18864 H 1724.19 4.79639 -4.7849 0
M  V30 18865 H 1725.14 3.82469 -5.95922 0
M  V30 18866 H 1725.54 3.75014 -4.2193 0
M  V30 18867 N 1724.94 1.47523 0.554506 0
M  V30 18868 C 1726.19 1.53546 1.30791 0
M  V30 18869 C 1726.5 0.203555 1.94538 0
M  V30 18870 O 1727.71 0.14181 2.71129 0
M  V30 18871 C 1726.17 2.70684 2.37188 0
M  V30 18872 C 1725.77 4.10415 1.7962 0
M  V30 18873 C 1727.52 2.86002 3.13693 0
M  V30 18874 C 1725.43 5.18849 2.83813 0
M  V30 18875 H 1724.36 0.571539 0.491792 0
M  V30 18876 H 1727.01 1.73803 0.58861 0
M  V30 18877 H 1725.39 2.43812 3.12045 0
M  V30 18878 H 1726.56 4.47202 1.11117 0
M  V30 18879 H 1724.88 4.00006 1.15691 0
M  V30 18880 H 1727.47 3.64181 3.91505 0
M  V30 18881 H 1727.82 1.94545 3.68046 0
M  V30 18882 H 1728.35 3.12657 2.45948 0
M  V30 18883 H 1725.09 6.12192 2.34311 0
M  V30 18884 H 1724.61 4.86577 3.50718 0
M  V30 18885 H 1726.29 5.45915 3.47255 0
M  V30 18886 N 1726.42 -0.801453 1.357 0
M  V30 18887 C 1727.67 -1.55392 1.28594 0
M  V30 18888 C 1727.98 -1.95125 -0.136199 0
M  V30 18889 O 1729.19 -2.69492 -0.329568 0
M  V30 18890 C 1727.64 -2.80456 2.2555 0
M  V30 18891 C 1727.25 -2.47939 3.73135 0
M  V30 18892 C 1729 -3.58457 2.27396 0
M  V30 18893 C 1726.9 -3.69326 4.61901 0
M  V30 18894 H 1725.83 -0.583286 0.477801 0
M  V30 18895 H 1728.48 -0.880525 1.60994 0
M  V30 18896 H 1726.87 -3.49532 1.86127 0
M  V30 18897 H 1728.04 -1.86837 4.21223 0
M  V30 18898 H 1726.36 -1.83173 3.73947 0
M  V30 18899 H 1728.95 -4.48625 2.90929 0
M  V30 18900 H 1729.3 -3.96162 1.27912 0
M  V30 18901 H 1729.83 -2.96348 2.65373 0
M  V30 18902 H 1726.57 -3.36726 5.62402 0
M  V30 18903 H 1726.09 -4.29636 4.18536 0
M  V30 18904 H 1727.77 -4.36496 4.77578 0
M  V30 18905 N 1727.9 -1.19782 -1.02421 0
M  V30 18906 C 1729.31 -0.951034 -1.2817 0
M  V30 18907 C 1729.51 0.373883 -1.98001 0
M  V30 18908 O 1728.57 1.10427 -2.27073 0
M  V30 18909 C 1729.88 -2.12833 -2.12421 0
M  V30 18910 C 1731.43 -2.16847 -2.25713 0
M  V30 18911 C 1731.91 -3.34041 -3.13337 0
M  V30 18912 N 1733.4 -3.34007 -3.20926 0
M  V30 18913 C 1734.13 -4.21333 -3.88929 0
M  V30 18914 N 1733.63 -5.18823 -4.59123 0
M  V30 18915 N 1735.42 -4.09197 -3.85376 0
M  V30 18916 H 1727.57 -2.05017 -0.555122 0
M  V30 18917 H 1729.84 -0.896717 -0.307576 0
M  V30 18918 H 1729.54 -3.08742 -1.68437 0
M  V30 18919 H 1729.42 -2.10288 -3.13143 0
M  V30 18920 H 1731.8 -1.21506 -2.68924 0
M  V30 18921 H 1731.88 -2.23444 -1.24525 0
M  V30 18922 H 1731.53 -4.29665 -2.70833 0
M  V30 18923 H 1731.46 -3.24682 -4.14595 0
M  V30 18924 H 1733.95 -2.63441 -2.70938 0
M  V30 18925 H 1734.26 -5.81796 -5.08658 0
M  V30 18926 H 1732.61 -5.22767 -4.57973 0
M  V30 18927 H 1735.8 -3.32308 -3.2968 0
M  V30 18928 H 1735.97 -4.77465 -4.38099 0
M  V30 18929 N 1729.38 1.21606 -1.00248 0
M  V30 18930 C 1730.65 1.86191 -0.599348 0
M  V30 18931 C 1731.03 1.89847 0.923104 0
M  V30 18932 O 1730.38 1.39595 1.80902 0
M  V30 18933 C 1730.59 3.26576 -1.23082 0
M  V30 18934 C 1731.94 4.02989 -1.33736 0
M  V30 18935 O 1732.96 3.35877 -1.18595 0
M  V30 18936 O 1731.82 5.23142 -1.58065 0
M  V30 18937 H 1728.92 0.801204 -0.204943 0
M  V30 18938 H 1731.46 1.29309 -1.09897 0
M  V30 18939 H 1730.24 3.18601 -2.27176 0
M  V30 18940 H 1729.86 3.91074 -0.717394 0
M  V30 18941 N 1730.86 0.776895 1.37121 0
M  V30 18942 C 1732.08 0.355097 2.0383 0
M  V30 18943 C 1732.5 -1.02441 1.58591 0
M  V30 18944 O 1731.86 -1.65482 0.769533 0
M  V30 18945 C 1731.91 0.394984 3.59336 0
M  V30 18946 O 1731.63 1.72008 4.0292 0
M  V30 18947 C 1733.13 -0.0377636 4.43284 0
M  V30 18948 H 1730.35 0.148056 0.654462 0
M  V30 18949 H 1732.89 1.05225 1.75351 0
M  V30 18950 H 1731.05 -0.253638 3.86569 0
M  V30 18951 H 1731.46 1.66225 4.97463 0
M  V30 18952 H 1732.94 0.0412956 5.51985 0
M  V30 18953 H 1733.41 -1.08881 4.2549 0
M  V30 18954 H 1734.02 0.582867 4.21287 0
M  V30 18955 N 1732.33 -1.48497 0.527859 0
M  V30 18956 C 1733.61 -1.9547 -0.0713049 0
M  V30 18957 C 1733.99 -1.47005 -1.51502 0
M  V30 18958 O 1733.34 -0.695609 -2.17655 0
M  V30 18959 C 1733.55 -3.48973 0.0437547 0
M  V30 18960 C 1734.9 -4.2444 -0.116591 0
M  V30 18961 O 1735.92 -3.56187 -0.0301431 0
M  V30 18962 O 1734.78 -5.4569 -0.297491 0
M  V30 18963 H 1731.87 -0.823075 -0.080474 0
M  V30 18964 H 1734.42 -1.59028 0.592307 0
M  V30 18965 H 1733.19 -3.76963 1.04952 0
M  V30 18966 H 1732.81 -3.92104 -0.658803 0
M  V30 18967 N 1733.81 -0.262893 -1.55392 0
M  V30 18968 C 1735.04 0.361057 -2.03725 0
M  V30 18969 C 1735.45 1.5037 -1.14168 0
M  V30 18970 O 1734.81 1.81804 -0.159284 0
M  V30 18971 C 1734.86 0.853697 -3.51275 0
M  V30 18972 O 1734.58 -0.243431 -4.37423 0
M  V30 18973 C 1736.08 1.54671 -4.15442 0
M  V30 18974 H 1733.3 0.0839272 -0.665731 0
M  V30 18975 H 1735.85 -0.391424 -2.00719 0
M  V30 18976 H 1734 1.55631 -3.54765 0
M  V30 18977 H 1734.42 0.133241 -5.24331 0
M  V30 18978 H 1735.89 1.84296 -5.20326 0
M  V30 18979 H 1736.37 2.47413 -3.62882 0
M  V30 18980 H 1736.97 0.888269 -4.15921 0
M  V30 18981 N 1735.29 1.57597 0.0100073 0
M  V30 18982 C 1736.54 1.89308 0.696075 0
M  V30 18983 C 1736.85 0.863884 1.75489 0
M  V30 18984 O 1738.06 1.07087 2.49489 0
M  V30 18985 C 1736.51 3.36017 1.2892 0
M  V30 18986 C 1736.12 4.47211 0.265731 0
M  V30 18987 C 1737.87 3.76852 1.95404 0
M  V30 18988 C 1735.77 5.84991 0.868277 0
M  V30 18989 H 1734.7 0.706368 0.263744 0
M  V30 18990 H 1737.35 1.83435 -0.0488972 0
M  V30 18991 H 1735.74 3.36696 2.08451 0
M  V30 18992 H 1736.91 4.58033 -0.504256 0
M  V30 18993 H 1735.22 4.15332 -0.298096 0
M  V30 18994 H 1737.82 4.77121 2.41371 0
M  V30 18995 H 1738.16 3.09841 2.78036 0
M  V30 18996 H 1738.7 3.7843 1.22621 0
M  V30 18997 H 1735.44 6.5545 0.0809513 0
M  V30 18998 H 1734.96 5.77853 1.60766 0
M  V30 18999 H 1736.64 6.32331 1.36993 0
M  V30 19000 N 1736.77 -0.282606 1.55045 0
M  V30 19001 C 1738 -1.03245 1.78952 0
M  V30 19002 C 1738.41 -1.80777 0.558225 0
M  V30 19003 O 1737.75 -1.77264 -0.482009 0
M  V30 19004 C 1737.81 -2.04557 2.95629 0
M  V30 19005 C 1737.47 -1.46051 4.33034 0
M  V30 19006 C 1738.47 -0.881083 5.1238 0
M  V30 19007 C 1736.16 -1.4906 4.79673 0
M  V30 19008 C 1738.15 -0.339532 6.36495 0
M  V30 19009 C 1735.84 -0.945189 6.03746 0
M  V30 19010 C 1736.84 -0.370643 6.81994 0
M  V30 19011 O 1736.52 0.166447 8.03728 0
M  V30 19012 H 1736.26 -0.311139 0.60014 0
M  V30 19013 H 1738.81 -0.32175 2.02864 0
M  V30 19014 H 1737.04 -2.79359 2.67386 0
M  V30 19015 H 1738.73 -2.65592 3.06946 0
M  V30 19016 H 1739.49 -0.850602 4.77483 0
M  V30 19017 H 1735.37 -1.92719 4.18784 0
M  V30 19018 H 1738.92 0.109564 6.97514 0
M  V30 19019 H 1734.81 -0.972878 6.38126 0
M  V30 19020 H 1735.58 0.054892 8.18482 0
M  V30 19021 N 1738.25 -1.47815 -0.546675 0
M  V30 19022 C 1739.21 -1.6063 -1.63495 0
M  V30 19023 C 1740.21 -0.480661 -1.53448 0
M  V30 19024 O 1741.4 -0.746017 -1.57417 0
M  V30 19025 C 1738.53 -1.56076 -3.03073 0
M  V30 19026 H 1739.72 -2.57652 -1.53478 0
M  V30 19027 H 1737.28 -1.36162 -0.767433 0
M  V30 19028 H 1738.01 -0.604694 -3.18613 0
M  V30 19029 H 1737.8 -2.3778 -3.11774 0
M  V30 19030 H 1739.29 -1.68204 -3.82227 0
M  V30 19031 N 1739.72 0.794246 -1.36123 0
M  V30 19032 C 1740.95 1.58297 -1.33228 0
M  V30 19033 C 1741.37 1.88597 0.0875426 0
M  V30 19034 O 1740.72 1.49754 1.04307 0
M  V30 19035 C 1740.77 2.90687 -2.14904 0
M  V30 19036 O 1740.5 2.61695 -3.51351 0
M  V30 19037 C 1742 3.85009 -2.19734 0
M  V30 19038 H 1739.22 0.491139 -0.457191 0
M  V30 19039 H 1741.76 0.986129 -1.79153 0
M  V30 19040 H 1739.92 3.46852 -1.72546 0
M  V30 19041 H 1740.33 3.46313 -3.93913 0
M  V30 19042 H 1741.8 4.74976 -2.8125 0
M  V30 19043 H 1742.28 4.22504 -1.19946 0
M  V30 19044 H 1742.89 3.34777 -2.62307 0
M  V30 19045 N 1741.2 1.20323 1.01785 0
M  V30 19046 C 1742.13 0.908716 2.10416 0
M  V30 19047 C 1743.15 -0.103029 1.62474 0
M  V30 19048 O 1744.34 0.127825 1.78042 0
M  V30 19049 C 1741.44 0.340601 3.37184 0
M  V30 19050 C 1740.61 1.40358 4.14268 0
M  V30 19051 C 1739.67 0.847016 5.19338 0
M  V30 19052 O 1738.69 1.5274 5.48324 0
M  V30 19053 N 1739.9 -0.344198 5.79479 0
M  V30 19054 H 1742.66 1.84383 2.36269 0
M  V30 19055 H 1740.22 1.10673 1.18165 0
M  V30 19056 H 1742.21 -0.0458443 4.04674 0
M  V30 19057 H 1740.78 -0.499042 3.08591 0
M  V30 19058 H 1740 1.96442 3.41766 0
M  V30 19059 H 1741.29 2.11952 4.62551 0
M  V30 19060 H 1740.69 -0.914263 5.58263 0
M  V30 19061 H 1739.25 -0.672296 6.48324 0
M  V30 19062 N 1742.68 -1.21073 1.00892 0
M  V30 19063 C 1743.93 -1.89866 0.69248 0
M  V30 19064 C 1744.25 -1.7874 -0.779562 0
M  V30 19065 O 1743.52 -1.18482 -1.56009 0
M  V30 19066 H 1742.1 -0.702799 0.253145 0
M  V30 19067 H 1744.76 -1.47075 1.27887 0
M  V30 19068 H 1743.86 -2.96673 0.969098 0
M  V30 19069 N 1744.16 -0.784156 -1.36707 0
M  V30 19070 C 1745.41 -0.353434 -1.98986 0
M  V30 19071 C 1745.73 1.07714 -1.62551 0
M  V30 19072 O 1745 1.7416 -0.896938 0
M  V30 19073 H 1743.58 -0.127693 -0.736005 0
M  V30 19074 H 1746.24 -1.00503 -1.66988 0
M  V30 19075 H 1745.34 -0.441028 -3.08968 0
M  V30 19076 N 1745.64 1.48215 -0.535727 0
M  V30 19077 C 1746.55 2.33494 0.227577 0
M  V30 19078 C 1747.56 1.4685 0.933327 0
M  V30 19079 O 1748.74 1.7982 0.907008 0
M  V30 19080 C 1745.8 3.23092 1.25747 0
M  V30 19081 C 1744.86 4.25613 0.561454 0
M  V30 19082 C 1744.1 5.1093 1.54228 0
M  V30 19083 O 1744.32 4.98325 2.77539 0
M  V30 19084 O 1743.25 5.92158 1.07852 0
M  V30 19085 H 1747.08 3.0002 -0.471375 0
M  V30 19086 H 1744.67 1.46427 -0.296579 0
M  V30 19087 H 1746.55 3.78498 1.8525 0
M  V30 19088 H 1745.22 2.5922 1.93872 0
M  V30 19089 H 1744.13 3.74026 -0.0742194 0
M  V30 19090 H 1745.46 4.92138 -0.0779649 0
M  V30 19091 N 1747.11 0.27113 1.5525 0
M  V30 19092 C 1748.35 -0.34803 2.01415 0
M  V30 19093 C 1748.72 -1.53347 1.15536 0
M  V30 19094 O 1749.92 -2.222 1.51264 0
M  V30 19095 C 1748.19 -0.72441 3.49982 0
M  V30 19096 S 1749.75 -1.33067 4.18137 0
M  V30 19097 H 1746.57 -0.108431 0.702683 0
M  V30 19098 H 1749.17 0.392033 1.91529 0
M  V30 19099 H 1747.87 0.14729 4.10136 0
M  V30 19100 H 1747.4 -1.49604 3.63844 0
M  V30 19101 H 1749.42 -2.61934 4.21432 0
M  V30 19102 N 1748.59 -1.576 -0.00164943 0
M  V30 19103 C 1749.82 -1.95176 -0.701511 0
M  V30 19104 C 1750.24 -0.873191 -1.66604 0
M  V30 19105 O 1749.6 0.168818 -1.80512 0
M  V30 19106 C 1749.65 -3.31847 -1.41104 0
M  V30 19107 O 1748.75 -3.26034 -2.52539 0
M  V30 19108 H 1748.09 -0.637207 -0.186718 0
M  V30 19109 H 1750.62 -2.04536 0.0510494 0
M  V30 19110 H 1750.63 -3.67374 -1.77483 0
M  V30 19111 H 1749.31 -4.09901 -0.70382 0
M  V30 19112 H 1747.89 -3.0218 -2.18499 0
M  V30 19113 N 1750.07 0.274379 -1.55193 0
M  V30 19114 C 1751 1.36139 -1.84388 0
M  V30 19115 C 1752.02 1.45601 -0.728294 0
M  V30 19116 O 1753.2 1.47443 -1.00613 0
M  V30 19117 C 1750.3 2.74278 -1.9906 0
M  V30 19118 C 1749.48 2.87424 -3.29706 0
M  V30 19119 C 1748.54 4.06229 -3.34461 0
M  V30 19120 O 1747.56 3.97053 -4.07845 0
M  V30 19121 N 1748.76 5.18131 -2.61764 0
M  V30 19122 H 1751.53 1.1144 -2.78211 0
M  V30 19123 H 1749.09 0.464493 -1.55094 0
M  V30 19124 H 1751.08 3.52047 -1.99613 0
M  V30 19125 H 1749.65 2.91805 -1.1211 0
M  V30 19126 H 1748.87 1.96551 -3.41704 0
M  V30 19127 H 1750.16 2.93137 -4.15871 0
M  V30 19128 H 1749.56 5.28473 -2.01824 0
M  V30 19129 H 1748.12 5.94135 -2.68042 0
M  V30 19130 N 1751.55 1.48103 0.538828 0
M  V30 19131 C 1752.5 1.62398 1.66522 0
M  V30 19132 C 1753.49 0.490669 1.62138 0
M  V30 19133 O 1754.7 0.669098 1.67102 0
M  V30 19134 H 1751.07 0.511415 0.551324 0
M  V30 19135 H 1753.04 2.57018 1.51606 0
M  V30 19136 C 1751.79 1.67264 3.04824 0
M  V30 19137 H 1751.11 2.53828 3.08887 0
M  V30 19138 H 1752.55 1.81312 3.83278 0
M  V30 19139 C 1751.01 0.409539 3.34402 0
M  V30 19140 O 1751.54 -0.481433 3.98805 0
M  V30 19141 N 1749.75 0.283934 2.8921 0
M  V30 19142 H 1749.3 1.00993 2.36977 0
M  V30 19143 H 1749.25 -0.560201 3.09369 0
M  V30 19144 N 1753.03 -0.787016 1.36542 0
M  V30 19145 C 1754.27 -1.55817 1.3229 0
M  V30 19146 C 1754.63 -1.91759 -0.0961159 0
M  V30 19147 O 1755.83 -2.67508 -0.26322 0
M  V30 19148 C 1754.1 -2.79934 2.22198 0
M  V30 19149 S 1755.66 -3.70154 2.35651 0
M  V30 19150 H 1752.48 -0.533633 0.469847 0
M  V30 19151 H 1755.08 -0.926755 1.72138 0
M  V30 19152 H 1753.79 -2.51583 3.24244 0
M  V30 19153 H 1753.32 -3.48046 1.83378 0
M  V30 19154 H 1755.33 -4.71179 1.55579 0
M  V30 19155 N 1754.5 -1.20861 -1.01145 0
M  V30 19156 C 1755.75 -1.02343 -1.75082 0
M  V30 19157 C 1756.08 0.44278 -1.89085 0
M  V30 19158 O 1755.36 1.32867 -1.42045 0
M  V30 19159 C 1755.64 -1.71368 -3.1671 0
M  V30 19160 C 1755.49 -3.25466 -3.1047 0
M  V30 19161 C 1756.81 -1.45097 -4.15494 0
M  V30 19162 H 1753.93 -0.373198 -0.635525 0
M  V30 19163 H 1756.57 -1.48947 -1.17961 0
M  V30 19164 H 1754.72 -1.31746 -3.6548 0
M  V30 19165 H 1756.4 -3.74415 -2.69464 0
M  V30 19166 H 1754.64 -3.56104 -2.47735 0
M  V30 19167 H 1755.31 -3.68924 -4.10608 0
M  V30 19168 H 1757.79 -1.7948 -3.75401 0
M  V30 19169 H 1756.66 -1.95917 -5.12745 0
M  V30 19170 H 1756.92 -0.379628 -4.40467 0
M  V30 19171 N 1755.98 1.20536 -1.01532 0
M  V30 19172 C 1757.21 1.93571 -0.722055 0
M  V30 19173 C 1757.62 1.74923 0.721011 0
M  V30 19174 O 1756.96 1.05961 1.5006 0
M  V30 19175 C 1757.03 3.45989 -0.97632 0
M  V30 19176 C 1756.69 3.88397 -2.40825 0
M  V30 19177 C 1757.69 3.94262 -3.38901 0
M  V30 19178 C 1755.37 4.20422 -2.74865 0
M  V30 19179 C 1757.37 4.3156 -4.69078 0
M  V30 19180 C 1755.05 4.57395 -4.05256 0
M  V30 19181 C 1756.05 4.62937 -5.02174 0
M  V30 19182 O 1755.74 4.99063 -6.30232 0
M  V30 19183 H 1755.47 0.622101 -0.264511 0
M  V30 19184 H 1758.02 1.5401 -1.35905 0
M  V30 19185 H 1756.25 3.85669 -0.282161 0
M  V30 19186 H 1757.94 4.00251 -0.674832 0
M  V30 19187 H 1758.71 3.69686 -3.13938 0
M  V30 19188 H 1754.59 4.153 -2.00117 0
M  V30 19189 H 1758.13 4.358 -5.44724 0
M  V30 19190 H 1754.03 4.81427 -4.29998 0
M  V30 19191 H 1754.8 5.1706 -6.34501 0
M  V30 19192 N 1757.46 0.791395 1.36289 0
M  V30 19193 C 1758.42 0.197069 2.28351 0
M  V30 19194 C 1759.42 -0.606748 1.48913 0
M  V30 19195 O 1760.61 -0.427453 1.68874 0
M  V30 19196 C 1757.75 -0.727009 3.33058 0
M  V30 19197 H 1758.94 1.00885 2.82422 0
M  V30 19198 H 1756.49 0.560959 1.45887 0
M  V30 19199 H 1757.23 -1.56306 2.84146 0
M  V30 19200 H 1757.01 -0.152537 3.91803 0
M  V30 19201 H 1758.5 -1.13765 4.01805 0
M  V30 19202 N 1758.94 -1.47929 0.54358 0
M  V30 19203 C 1759.87 -2.3264 -0.200228 0
M  V30 19204 C 1760.85 -1.42945 -0.922 0
M  V30 19205 O 1762.04 -1.71817 -0.905129 0
M  V30 19206 C 1759.17 -3.24439 -1.23922 0
M  V30 19207 C 1758.12 -4.23267 -0.634753 0
M  V30 19208 C 1757.45 -5.04295 -1.77739 0
M  V30 19209 C 1758.75 -5.20747 0.402524 0
M  V30 19210 H 1760.44 -2.95077 0.506957 0
M  V30 19211 H 1757.99 -1.41896 0.245246 0
M  V30 19212 H 1759.94 -3.82535 -1.76763 0
M  V30 19213 H 1758.66 -2.60029 -1.97616 0
M  V30 19214 H 1757.32 -3.66377 -0.127756 0
M  V30 19215 H 1756.97 -4.36299 -2.50304 0
M  V30 19216 H 1756.67 -5.71195 -1.37879 0
M  V30 19217 H 1758.19 -5.65246 -2.30932 0
M  V30 19218 H 1759.61 -5.73287 -0.039305 0
M  V30 19219 H 1758 -5.95774 0.719251 0
M  V30 19220 H 1759.07 -4.67054 1.3034 0
M  V30 19221 N 1760.42 -0.27936 -1.55104 0
M  V30 19222 C 1761.36 0.606268 -2.22695 0
M  V30 19223 C 1762.33 1.14646 -1.20189 0
M  V30 19224 O 1763.52 1.19498 -1.48744 0
M  V30 19225 C 1760.66 1.78256 -2.95497 0
M  V30 19226 C 1759.77 1.27582 -4.12731 0
M  V30 19227 C 1758.91 2.41425 -4.73167 0
M  V30 19228 C 1757.95 1.87775 -5.82586 0
M  V30 19229 N 1757.08 2.95108 -6.37068 0
M  V30 19230 H 1761.92 0.0232427 -2.97991 0
M  V30 19231 H 1759.46 -0.000294714 -1.471 0
M  V30 19232 H 1761.42 2.47406 -3.35925 0
M  V30 19233 H 1760.05 2.33755 -2.22617 0
M  V30 19234 H 1759.1 0.477281 -3.77394 0
M  V30 19235 H 1760.41 0.842897 -4.91627 0
M  V30 19236 H 1759.57 3.18561 -5.16337 0
M  V30 19237 H 1758.31 2.88035 -3.93557 0
M  V30 19238 H 1757.31 1.0912 -5.38862 0
M  V30 19239 H 1758.54 1.42096 -6.64067 0
M  V30 19240 H 1756.48 3.41091 -5.60351 0
M  V30 19241 H 1756.4 2.56246 -7.11248 0
M  V30 19242 H 1757.67 3.72206 -6.84896 0
M  V30 19243 N 1761.9 1.57599 -0.0067085 0
M  V30 19244 C 1762.83 2.11878 0.981331 0
M  V30 19245 C 1763.81 1.02949 1.35408 0
M  V30 19246 O 1764.99 1.30667 1.43665 0
M  V30 19247 C 1762.12 2.62757 2.27104 0
M  V30 19248 C 1761.08 3.76272 2.0397 0
M  V30 19249 C 1760.4 4.13491 3.39012 0
M  V30 19250 C 1761.7 5.03274 1.39688 0
M  V30 19251 H 1763.4 2.94683 0.529366 0
M  V30 19252 H 1760.94 1.41757 0.253187 0
M  V30 19253 H 1762.89 2.99359 2.96585 0
M  V30 19254 H 1761.62 1.77082 2.74426 0
M  V30 19255 H 1760.28 3.40074 1.36913 0
M  V30 19256 H 1759.93 3.24831 3.8405 0
M  V30 19257 H 1759.63 4.89972 3.24347 0
M  V30 19258 H 1761.15 4.52657 4.09797 0
M  V30 19259 H 1762.56 5.37604 1.99136 0
M  V30 19260 H 1760.96 5.84604 1.3549 0
M  V30 19261 H 1762.03 4.8351 0.366928 0
M  V30 19262 N 1763.37 -0.266145 1.55336 0
M  V30 19263 C 1764.31 -1.35159 1.85107 0
M  V30 19264 C 1765.32 -1.45213 0.736006 0
M  V30 19265 O 1766.51 -1.46907 1.01393 0
M  V30 19266 C 1763.61 -2.73218 2.00512 0
M  V30 19267 C 1762.78 -2.85671 3.31226 0
M  V30 19268 C 1761.84 -4.0445 3.36611 0
M  V30 19269 O 1760.87 -3.94884 4.09945 0
M  V30 19270 N 1762.07 -5.16735 2.64508 0
M  V30 19271 H 1764.83 -1.09963 2.78798 0
M  V30 19272 H 1762.39 -0.456261 1.55338 0
M  V30 19273 H 1764.39 -3.50983 2.01477 0
M  V30 19274 H 1762.96 -2.91206 1.13655 0
M  V30 19275 H 1762.18 -1.94736 3.42741 0
M  V30 19276 H 1763.46 -2.90927 4.17419 0
M  V30 19277 H 1762.86 -5.27395 2.04624 0
M  V30 19278 H 1761.42 -5.92706 2.71189 0
M  V30 19279 N 1764.85 -1.48386 -0.530967 0
M  V30 19280 C 1766.08 -1.60269 -1.31638 0
M  V30 19281 C 1766.5 -0.262789 -1.86255 0
M  V30 19282 O 1765.86 0.765389 -1.64352 0
M  V30 19283 C 1765.91 -2.65163 -2.44379 0
M  V30 19284 O 1765.01 -2.22254 -3.47386 0
M  V30 19285 H 1764.35 -0.537456 -0.38992 0
M  V30 19286 H 1766.88 -1.94366 -0.639 0
M  V30 19287 H 1766.89 -2.86405 -2.90579 0
M  V30 19288 H 1765.57 -3.62439 -2.03987 0
M  V30 19289 H 1764.14 -2.11221 -3.07311 0
M  V30 19290 N 1766.33 0.779763 -1.36958 0
M  V30 19291 C 1767.28 1.91417 -1.32145 0
M  V30 19292 C 1768.27 1.68074 -0.211572 0
M  V30 19293 O 1769.48 1.75962 -0.379139 0
M  V30 19294 H 1765.85 0.62934 -0.411624 0
M  V30 19295 H 1767.82 1.92594 -2.27926 0
M  V30 19296 C 1766.57 3.28574 -1.13729 0
M  V30 19297 H 1765.9 3.47109 -1.98383 0
M  V30 19298 H 1767.34 4.08272 -1.1441 0
M  V30 19299 C 1765.79 3.36531 0.157538 0
M  V30 19300 O 1766.32 3.85067 1.14397 0
M  V30 19301 N 1764.53 2.89872 0.205509 0
M  V30 19302 H 1764.08 2.50566 -0.597854 0
M  V30 19303 H 1764.04 2.95578 1.07151 0
M  V30 19304 N 1767.81 1.21396 1.00503 0
M  V30 19305 C 1768.74 0.997268 2.11132 0
M  V30 19306 C 1769.72 -0.0777455 1.69922 0
M  V30 19307 O 1770.9 0.08208 1.94026 0
M  V30 19308 C 1768.03 0.561122 3.42737 0
M  V30 19309 C 1766.99 1.58069 3.97741 0
M  V30 19310 C 1766.31 1.00079 5.25251 0
M  V30 19311 C 1767.61 2.96754 4.29807 0
M  V30 19312 H 1769.31 1.92255 2.29518 0
M  V30 19313 H 1766.85 0.925776 1.10297 0
M  V30 19314 H 1768.81 0.396701 4.19529 0
M  V30 19315 H 1767.53 -0.399804 3.24144 0
M  V30 19316 H 1766.19 1.73268 3.23069 0
M  V30 19317 H 1765.84 0.0315797 5.0299 0
M  V30 19318 H 1765.54 1.68182 5.63017 0
M  V30 19319 H 1767.06 0.847687 6.04687 0
M  V30 19320 H 1768.48 2.85 4.97441 0
M  V30 19321 H 1766.87 3.61871 4.78717 0
M  V30 19322 H 1767.94 3.47602 3.38084 0
M  V30 19323 N 1769.29 -1.19996 1.0217 0
M  V30 19324 C 1770.53 -1.89121 0.712579 0
M  V30 19325 C 1770.85 -1.79556 -0.760561 0
M  V30 19326 O 1770.12 -1.2013 -1.54744 0
M  V30 19327 H 1768.7 -0.700075 0.260585 0
M  V30 19328 H 1771.37 -1.4571 1.2944 0
M  V30 19329 H 1770.46 -2.95629 1.00051 0
M  V30 19330 N 1770.76 -0.798611 -1.35867 0
M  V30 19331 C 1771.71 -0.191425 -2.31811 0
M  V30 19332 C 1772.71 0.65438 -1.56251 0
M  V30 19333 O 1773.91 0.548435 -1.71441 0
M  V30 19334 H 1770.29 -0.0431343 -0.750762 0
M  V30 19335 H 1772.26 -1.01589 -2.80575 0
M  V30 19336 C 1771.01 0.651912 -3.41534 0
M  V30 19337 H 1770.33 0.0104309 -3.99799 0
M  V30 19338 H 1771.77 1.04328 -4.10964 0
M  V30 19339 C 1770.23 1.81407 -2.83889 0
M  V30 19340 O 1770.76 2.91115 -2.76794 0
M  V30 19341 N 1768.96 1.62308 -2.41049 0
M  V30 19342 H 1768.51 0.730709 -2.47019 0
M  V30 19343 H 1768.47 2.40226 -2.02827 0
M  V30 19344 N 1772.24 1.47639 -0.551417 0
M  V30 19345 C 1773.47 2.06578 -0.0298471 0
M  V30 19346 C 1773.88 1.40538 1.26672 0
M  V30 19347 O 1773.22 0.493957 1.76934 0
M  V30 19348 C 1773.28 3.5868 0.242667 0
M  V30 19349 C 1772.95 4.46726 -0.963597 0
M  V30 19350 C 1773.95 4.85195 -1.86766 0
M  V30 19351 C 1771.63 4.88324 -1.17664 0
M  V30 19352 C 1773.62 5.64056 -2.96849 0
M  V30 19353 C 1771.31 5.66951 -2.28058 0
M  V30 19354 C 1772.31 6.04727 -3.17482 0
M  V30 19355 O 1772 6.81771 -4.25963 0
M  V30 19356 H 1771.73 0.674806 -0.0401627 0
M  V30 19357 H 1774.28 1.90714 -0.762724 0
M  V30 19358 H 1772.51 3.72736 1.02978 0
M  V30 19359 H 1774.2 3.99661 0.708914 0
M  V30 19360 H 1774.97 4.53662 -1.7151 0
M  V30 19361 H 1770.85 4.58391 -0.489796 0
M  V30 19362 H 1774.39 5.93461 -3.66675 0
M  V30 19363 H 1770.29 5.97897 -2.43289 0
M  V30 19364 H 1771.06 7.00156 -4.23938 0
M  V30 19365 N 1773.72 0.287581 1.54954 0
M  V30 19366 C 1774.97 -0.324967 1.9947 0
M  V30 19367 C 1775.29 -1.55437 1.17747 0
M  V30 19368 O 1774.56 -1.9403 0.270067 0
M  V30 19369 H 1773.14 -0.123062 0.736794 0
M  V30 19370 H 1775.8 0.395805 1.90839 0
M  V30 19371 H 1774.9 -0.606265 3.06155 0
M  V30 19372 N 1775.2 -1.57593 0.0150662 0
M  V30 19373 C 1776.45 -1.90392 -0.66587 0
M  V30 19374 C 1776.76 -0.891694 -1.74092 0
M  V30 19375 O 1777.97 -1.11043 -2.47753 0
M  V30 19376 C 1776.42 -3.38026 -1.23558 0
M  V30 19377 C 1776.03 -4.47577 -0.19455 0
M  V30 19378 C 1777.77 -3.79913 -1.89384 0
M  V30 19379 C 1775.68 -5.86299 -0.7751 0
M  V30 19380 H 1774.61 -0.710474 -0.252473 0
M  V30 19381 H 1777.26 -1.83334 0.0780739 0
M  V30 19382 H 1775.64 -3.3997 -2.03068 0
M  V30 19383 H 1776.82 -4.57172 0.577061 0
M  V30 19384 H 1775.13 -4.14805 0.364134 0
M  V30 19385 H 1777.73 -4.809 -2.3375 0
M  V30 19386 H 1778.07 -3.14225 -2.73072 0
M  V30 19387 H 1778.61 -3.80333 -1.16585 0
M  V30 19388 H 1775.35 -6.55496 0.0233354 0
M  V30 19389 H 1774.87 -5.80338 -1.51552 0
M  V30 19390 H 1776.54 -6.3443 -1.26915 0
M  V30 19391 N 1776.68 0.257904 -1.55475 0
M  V30 19392 C 1777.92 0.985519 -1.76442 0
M  V30 19393 C 1778.25 1.86267 -0.577033 0
M  V30 19394 O 1777.52 1.91613 0.407582 0
M  V30 19395 H 1776.1 0.366872 -0.650702 0
M  V30 19396 H 1778.76 0.278498 -1.929 0
M  V30 19397 H 1777.85 1.61367 -2.67146 0
M  V30 19398 N 1778.15 1.48666 0.52309 0
M  V30 19399 C 1779.4 1.56286 1.27505 0
M  V30 19400 C 1779.72 0.244774 1.94062 0
M  V30 19401 O 1780.92 0.199289 2.70768 0
M  V30 19402 C 1779.38 2.75654 2.31393 0
M  V30 19403 C 1778.99 4.14133 1.70874 0
M  V30 19404 C 1780.73 2.92591 3.07556 0
M  V30 19405 C 1778.64 5.24752 2.72743 0
M  V30 19406 H 1777.57 0.581842 0.479558 0
M  V30 19407 H 1780.22 1.75013 0.551611 0
M  V30 19408 H 1778.6 2.50376 3.06803 0
M  V30 19409 H 1779.77 4.49458 1.01607 0
M  V30 19410 H 1778.09 4.0237 1.0718 0
M  V30 19411 H 1780.69 3.72403 3.83692 0
M  V30 19412 H 1781.03 2.02308 3.63837 0
M  V30 19413 H 1781.56 3.17804 2.39261 0
M  V30 19414 H 1778.3 6.17024 2.21273 0
M  V30 19415 H 1777.82 4.93907 3.40318 0
M  V30 19416 H 1779.5 5.53158 3.35598 0
M  V30 19417 N 1779.63 -0.772489 1.37369 0
M  V30 19418 C 1780.88 -1.53102 1.32537 0
M  V30 19419 C 1781.21 -1.9429 -0.0903608 0
M  V30 19420 O 1780.46 -1.64286 -1.06342 0
M  V30 19421 C 1780.76 -2.80907 2.20966 0
M  V30 19422 C 1780.43 -2.58775 3.69251 0
M  V30 19423 C 1779.09 -2.52448 4.09663 0
M  V30 19424 C 1781.44 -2.38954 4.63196 0
M  V30 19425 C 1778.77 -2.24288 5.42136 0
M  V30 19426 C 1781.12 -2.12318 5.95906 0
M  V30 19427 C 1779.79 -2.04434 6.35423 0
M  V30 19428 H 1779.06 -0.56024 0.484987 0
M  V30 19429 H 1781.7 -0.889859 1.69569 0
M  V30 19430 H 1780.01 -3.49578 1.76925 0
M  V30 19431 H 1781.7 -3.38782 2.14541 0
M  V30 19432 H 1778.29 -2.64563 3.37201 0
M  V30 19433 H 1782.48 -2.42833 4.32835 0
M  V30 19434 H 1777.73 -2.16679 5.71717 0
M  V30 19435 H 1781.91 -1.95979 6.68255 0
M  V30 19436 H 1779.54 -1.82378 7.37999 0
M  V30 19437 N 1781.11 -1.21927 -0.998575 0
M  V30 19438 C 1782.34 -1.06735 -1.77827 0
M  V30 19439 C 1782.76 0.378154 -1.8426 0
M  V30 19440 O 1782.12 1.27301 -1.2909 0
M  V30 19441 C 1782.17 -1.67662 -3.19252 0
M  V30 19442 O 1781.27 -0.926448 -4.01859 0
M  V30 19443 H 1780.61 -0.375241 -0.547805 0
M  V30 19444 H 1783.14 -1.61605 -1.25478 0
M  V30 19445 H 1783.15 -1.72151 -3.69903 0
M  V30 19446 H 1781.83 -2.72854 -3.13885 0
M  V30 19447 H 1780.4 -0.957145 -3.60407 0
M  V30 19448 N 1782.59 1.19452 -1.02805 0
M  V30 19449 C 1783.84 1.88439 -0.719284 0
M  V30 19450 C 1784.15 1.80435 0.755143 0
M  V30 19451 O 1785.36 2.44664 1.17693 0
M  V30 19452 C 1783.81 3.38001 -1.23625 0
M  V30 19453 C 1783.42 3.54564 -2.7384 0
M  V30 19454 C 1785.16 4.1247 -1.00343 0
M  V30 19455 C 1783.07 4.98016 -3.18958 0
M  V30 19456 H 1782 0.705762 -0.265359 0
M  V30 19457 H 1784.65 1.35058 -1.24224 0
M  V30 19458 H 1783.03 3.90774 -0.641211 0
M  V30 19459 H 1784.21 3.12124 -3.38991 0
M  V30 19460 H 1782.52 2.93484 -2.95392 0
M  V30 19461 H 1785.12 5.18257 -1.31581 0
M  V30 19462 H 1785.46 4.16257 0.0597873 0
M  V30 19463 H 1786 3.65832 -1.56243 0
M  V30 19464 H 1782.74 4.9939 -4.24605 0
M  V30 19465 H 1782.26 5.41221 -2.58534 0
M  V30 19466 H 1783.93 5.66664 -3.12252 0
M  V30 19467 N 1784.07 0.805805 1.35442 0
M  V30 19468 C 1785.01 0.213632 2.29809 0
M  V30 19469 C 1785.98 -0.651878 1.52774 0
M  V30 19470 O 1787.17 -0.597124 1.81216 0
M  V30 19471 C 1784.31 -0.632444 3.39255 0
M  V30 19472 C 1783.42 0.253414 4.31256 0
M  V30 19473 C 1782.56 -0.600593 5.27794 0
M  V30 19474 C 1781.6 0.285712 6.11433 0
M  V30 19475 N 1780.73 -0.528222 7.0011 0
M  V30 19476 H 1785.57 1.02378 2.79862 0
M  V30 19477 H 1783.11 0.516397 1.37738 0
M  V30 19478 H 1785.07 -1.13814 4.01376 0
M  V30 19479 H 1783.7 -1.40786 2.90481 0
M  V30 19480 H 1782.75 0.877202 3.70148 0
M  V30 19481 H 1784.06 0.935631 4.89946 0
M  V30 19482 H 1783.22 -1.17145 5.95283 0
M  V30 19483 H 1781.95 -1.31638 4.69598 0
M  V30 19484 H 1780.96 0.868843 5.42891 0
M  V30 19485 H 1782.18 0.999349 6.71707 0
M  V30 19486 H 1780.13 -1.228 6.44404 0
M  V30 19487 H 1780.05 0.0959658 7.55939 0
M  V30 19488 H 1781.32 -1.08238 7.71949 0
M  V30 19489 N 1785.54 -1.47344 0.559239 0
M  V30 19490 C 1786.49 -2.31735 -0.200368 0
M  V30 19491 C 1787.49 -1.43051 -0.907351 0
M  V30 19492 O 1788.69 -1.59804 -0.828406 0
M  V30 19493 H 1785.07 -0.747351 -0.0834871 0
M  V30 19494 H 1787.04 -2.93645 0.530556 0
M  V30 19495 C 1785.79 -3.25747 -1.2159 0
M  V30 19496 H 1785.11 -3.93952 -0.681314 0
M  V30 19497 H 1786.55 -3.87624 -1.71825 0
M  V30 19498 C 1785.01 -2.49414 -2.26482 0
M  V30 19499 O 1785.54 -2.24006 -3.33443 0
M  V30 19500 N 1783.75 -2.10387 -2.00464 0
M  V30 19501 H 1783.29 -2.3125 -1.13495 0
M  V30 19502 H 1783.25 -1.5963 -2.70861 0
M  V30 19503 N 1787.02 -0.295795 -1.54799 0
M  V30 19504 C 1788.27 0.315754 -1.99213 0
M  V30 19505 C 1788.58 1.55405 -1.18779 0
M  V30 19506 O 1789.79 2.23986 -1.53436 0
M  V30 19507 C 1788.25 0.613119 -3.54639 0
M  V30 19508 C 1787.85 -0.606546 -4.43875 0
M  V30 19509 C 1789.6 1.18615 -4.07591 0
M  V30 19510 C 1787.51 -0.282622 -5.90724 0
M  V30 19511 H 1786.44 0.121758 -0.744104 0
M  V30 19512 H 1789.09 -0.403686 -1.79005 0
M  V30 19513 H 1787.47 1.39202 -3.70728 0
M  V30 19514 H 1788.64 -1.3829 -4.39559 0
M  V30 19515 H 1786.96 -1.09785 -4.01667 0
M  V30 19516 H 1789.55 1.44266 -5.1487 0
M  V30 19517 H 1789.9 2.12674 -3.57876 0
M  V30 19518 H 1790.43 0.469078 -3.95025 0
M  V30 19519 H 1787.17 -1.19164 -6.44578 0
M  V30 19520 H 1786.69 0.456564 -5.9806 0
M  V30 19521 H 1788.37 0.117703 -6.46893 0
M  V30 19522 N 1788.5 1.57583 -0.0234236 0
M  V30 19523 C 1789.75 1.91848 0.657422 0
M  V30 19524 C 1790.08 0.899633 1.72105 0
M  V30 19525 O 1789.36 -0.0784409 1.94342 0
M  V30 19526 C 1789.64 3.36617 1.2791 0
M  V30 19527 C 1789.49 4.49235 0.225421 0
M  V30 19528 C 1790.81 3.81239 2.19874 0
M  V30 19529 H 1787.93 0.697677 0.23752 0
M  V30 19530 H 1790.57 1.89834 -0.0795169 0
M  V30 19531 H 1788.72 3.38465 1.90719 0
M  V30 19532 H 1790.39 4.59521 -0.404792 0
M  V30 19533 H 1788.64 4.31462 -0.449749 0
M  V30 19534 H 1789.31 5.47545 0.699906 0
M  V30 19535 H 1791.78 3.81092 1.67058 0
M  V30 19536 H 1790.66 4.8324 2.60328 0
M  V30 19537 H 1790.92 3.16421 3.08755 0
M  V30 19538 N 1789.98 -0.249655 1.5561 0
M  V30 19539 C 1791.2 -0.999931 1.81703 0
M  V30 19540 C 1791.63 -1.7827 0.600113 0
M  V30 19541 O 1790.99 -1.75606 -0.450799 0
M  V30 19542 C 1791.04 -1.9157 3.05505 0
M  V30 19543 O 1790.14 -3.00702 2.82227 0
M  V30 19544 H 1789.48 -0.284673 0.599881 0
M  V30 19545 H 1792.01 -0.27148 2.02791 0
M  V30 19546 H 1792.02 -2.33088 3.34864 0
M  V30 19547 H 1790.7 -1.34014 3.93717 0
M  V30 19548 H 1789.27 -2.63332 2.64027 0
M  V30 19549 N 1791.46 -1.48941 -0.515198 0
M  V30 19550 C 1792.4 -1.64561 -1.61828 0
M  V30 19551 C 1793.37 -0.487323 -1.5879 0
M  V30 19552 O 1794.56 -0.712626 -1.76992 0
M  V30 19553 C 1791.7 -1.70506 -3.00036 0
M  V30 19554 C 1790.81 -2.97543 -3.13197 0
M  V30 19555 C 1789.95 -2.94555 -4.42053 0
M  V30 19556 C 1788.99 -4.16232 -4.48795 0
M  V30 19557 N 1788.12 -4.11236 -5.6906 0
M  V30 19558 H 1792.96 -2.58754 -1.47818 0
M  V30 19559 H 1790.5 -1.28307 -0.719423 0
M  V30 19560 H 1792.46 -1.71934 -3.80125 0
M  V30 19561 H 1791.09 -0.797907 -3.12783 0
M  V30 19562 H 1790.14 -3.05792 -2.26264 0
M  V30 19563 H 1791.45 -3.87532 -3.14039 0
M  V30 19564 H 1790.61 -2.94466 -5.30447 0
M  V30 19565 H 1789.35 -2.0232 -4.43754 0
M  V30 19566 H 1788.35 -4.1658 -3.58805 0
M  V30 19567 H 1789.58 -5.09644 -4.48821 0
M  V30 19568 H 1787.52 -3.2183 -5.7163 0
M  V30 19569 H 1787.44 -4.94945 -5.71459 0
M  V30 19570 H 1788.71 -4.15229 -6.59701 0
M  V30 19571 N 1792.94 0.765193 -1.37777 0
M  V30 19572 C 1793.88 1.90005 -1.34168 0
M  V30 19573 C 1794.88 1.6784 -0.229387 0
M  V30 19574 O 1796.08 1.7555 -0.39778 0
M  V30 19575 H 1792.46 0.624939 -0.418276 0
M  V30 19576 H 1794.43 1.90165 -2.29956 0
M  V30 19577 C 1793.18 3.27349 -1.17208 0
M  V30 19578 H 1792.5 3.44985 -2.02053 0
M  V30 19579 H 1793.94 4.07036 -1.18734 0
M  V30 19580 C 1792.4 3.3668 0.121835 0
M  V30 19581 O 1792.93 3.86258 1.10306 0
M  V30 19582 N 1791.14 2.90074 0.174753 0
M  V30 19583 H 1790.68 2.49918 -0.624397 0
M  V30 19584 H 1790.64 2.96697 1.0401 0
M  V30 19585 N 1794.41 1.22455 0.992094 0
M  V30 19586 C 1795.36 0.99534 2.08235 0
M  V30 19587 C 1796.33 -0.0832064 1.65891 0
M  V30 19588 O 1797.52 0.0665468 1.90684 0
M  V30 19589 C 1794.66 0.580055 3.4019 0
M  V30 19590 C 1793.77 1.72946 3.95871 0
M  V30 19591 C 1792.9 1.26208 5.15989 0
M  V30 19592 C 1791.94 2.38298 5.63809 0
M  V30 19593 N 1791.08 1.92602 6.75166 0
M  V30 19594 H 1795.92 1.92861 2.27175 0
M  V30 19595 H 1793.46 0.960948 1.11374 0
M  V30 19596 H 1795.41 0.320448 4.15968 0
M  V30 19597 H 1794.04 -0.316208 3.21248 0
M  V30 19598 H 1793.1 2.10337 3.16958 0
M  V30 19599 H 1794.41 2.57257 4.27341 0
M  V30 19600 H 1793.56 0.959904 5.99058 0
M  V30 19601 H 1792.3 0.389184 4.86145 0
M  V30 19602 H 1791.31 2.69304 4.79328 0
M  V30 19603 H 1792.53 3.26105 5.95678 0
M  V30 19604 H 1790.48 1.07675 6.47103 0
M  V30 19605 H 1790.39 2.70478 7.05959 0
M  V30 19606 H 1791.66 1.65455 7.61738 0
M  V30 19607 N 1795.89 -1.18905 1.03437 0
M  V30 19608 C 1797.12 -1.92398 0.752759 0
M  V30 19609 C 1797.53 -1.76048 -0.693091 0
M  V30 19610 O 1796.87 -1.08335 -1.48355 0
M  V30 19611 C 1796.93 -3.44392 1.03124 0
M  V30 19612 C 1796.6 -3.84516 2.46974 0
M  V30 19613 C 1797.6 -3.8882 3.4513 0
M  V30 19614 C 1795.28 -4.15996 2.81519 0
M  V30 19615 C 1797.27 -4.24043 4.75885 0
M  V30 19616 C 1794.96 -4.5089 4.12482 0
M  V30 19617 C 1795.96 -4.54889 5.09475 0
M  V30 19618 O 1795.65 -4.88973 6.38091 0
M  V30 19619 H 1795.38 -0.617814 0.274375 0
M  V30 19620 H 1797.93 -1.51828 1.38338 0
M  V30 19621 H 1796.16 -3.85172 0.343482 0
M  V30 19622 H 1797.85 -3.99127 0.738423 0
M  V30 19623 H 1798.62 -3.64645 3.1978 0
M  V30 19624 H 1794.5 -4.12064 2.06699 0
M  V30 19625 H 1798.04 -4.27079 5.51588 0
M  V30 19626 H 1793.94 -4.74525 4.37603 0
M  V30 19627 H 1794.71 -5.069 6.42647 0
M  V30 19628 N 1797.37 -0.812977 -1.35013 0
M  V30 19629 C 1798.61 -0.402068 -2.00407 0
M  V30 19630 C 1798.97 1.01337 -1.63079 0
M  V30 19631 O 1800.17 1.52663 -2.21241 0
M  V30 19632 C 1798.45 -0.587029 -3.52546 0
M  V30 19633 S 1800 -0.267491 -4.37984 0
M  V30 19634 H 1796.82 -0.152383 -0.694479 0
M  V30 19635 H 1799.42 -1.05662 -1.64486 0
M  V30 19636 H 1798.13 -1.61704 -3.772 0
M  V30 19637 H 1797.66 0.0826178 -3.93313 0
M  V30 19638 H 1799.67 0.922508 -4.87549 0
M  V30 19639 N 1798.85 1.47045 -0.567045 0
M  V30 19640 C 1800.07 2.0734 -0.0498828 0
M  V30 19641 C 1800.5 1.41545 1.23881 0
M  V30 19642 O 1799.86 0.493798 1.74446 0
M  V30 19643 C 1799.9 3.60404 0.118782 0
M  V30 19644 O 1799.01 3.95186 1.17905 0
M  V30 19645 H 1798.35 0.661656 -0.055746 0
M  V30 19646 H 1800.88 1.8892 -0.78553 0
M  V30 19647 H 1800.89 4.06664 0.3299 0
M  V30 19648 H 1799.56 4.07688 -0.822409 0
M  V30 19649 H 1798.14 3.60658 0.947644 0
M  V30 19650 N 1800.33 0.304 1.5464 0
M  V30 19651 C 1801.26 -0.604475 2.21085 0
M  V30 19652 C 1802.27 -1.0952 1.20454 0
M  V30 19653 O 1803.46 -1.01214 1.47031 0
M  V30 19654 C 1800.56 -1.8399 2.84607 0
M  V30 19655 C 1799.73 -1.49116 4.11197 0
M  V30 19656 C 1798.79 -2.58205 4.58494 0
M  V30 19657 O 1797.82 -2.23171 5.23625 0
M  V30 19658 N 1799.02 -3.88798 4.31065 0
M  V30 19659 H 1801.78 -0.035633 2.99679 0
M  V30 19660 H 1799.35 0.126332 1.61406 0
M  V30 19661 H 1801.34 -2.56322 3.13179 0
M  V30 19662 H 1799.91 -2.31706 2.09836 0
M  V30 19663 H 1799.13 -0.600347 3.89602 0
M  V30 19664 H 1800.42 -1.23358 4.93619 0
M  V30 19665 H 1799.81 -4.20068 3.78892 0
M  V30 19666 H 1798.37 -4.57419 4.6434 0
M  V30 19667 N 1801.8 -1.57568 0.0317802 0
M  V30 19668 C 1803.05 -1.91087 -0.645639 0
M  V30 19669 C 1803.37 -0.910108 -1.73137 0
M  V30 19670 O 1804.57 -1.13665 -2.46562 0
M  V30 19671 C 1803.03 -3.39317 -1.19966 0
M  V30 19672 C 1802.64 -4.47759 -0.147068 0
M  V30 19673 C 1804.38 -3.81901 -1.85343 0
M  V30 19674 C 1802.29 -5.87088 -0.712872 0
M  V30 19675 H 1801.22 -0.713112 -0.244923 0
M  V30 19676 H 1803.87 -1.83241 0.0975145 0
M  V30 19677 H 1802.25 -3.42105 -1.99451 0
M  V30 19678 H 1803.42 -4.56535 0.625518 0
M  V30 19679 H 1801.74 -4.14395 0.408109 0
M  V30 19680 H 1804.34 -4.83352 -2.28636 0
M  V30 19681 H 1804.68 -3.17104 -2.69724 0
M  V30 19682 H 1805.21 -3.81548 -1.12544 0
M  V30 19683 H 1801.95 -6.55434 0.0928582 0
M  V30 19684 H 1801.47 -5.81913 -1.45388 0
M  V30 19685 H 1803.15 -6.3574 -1.20179 0
M  V30 19686 N 1803.28 0.241399 -1.5574 0
M  V30 19687 C 1804.53 0.968663 -1.77829 0
M  V30 19688 C 1804.86 1.85109 -0.597078 0
M  V30 19689 O 1804.11 1.91153 0.419396 0
M  V30 19690 C 1804.41 1.8552 -3.05478 0
M  V30 19691 C 1804.08 1.12767 -4.36571 0
M  V30 19692 C 1802.74 0.926631 -4.72194 0
M  V30 19693 C 1805.09 0.612437 -5.17589 0
M  V30 19694 C 1802.42 0.198133 -5.86365 0
M  V30 19695 C 1804.77 -0.102621 -6.32517 0
M  V30 19696 C 1803.44 -0.315095 -6.66756 0
M  V30 19697 H 1802.71 0.354459 -0.650723 0
M  V30 19698 H 1805.35 0.238329 -1.90011 0
M  V30 19699 H 1803.66 2.65277 -2.88332 0
M  V30 19700 H 1805.35 2.4197 -3.19768 0
M  V30 19701 H 1801.94 1.29432 -4.08589 0
M  V30 19702 H 1806.13 0.755287 -4.90519 0
M  V30 19703 H 1801.38 0.0230937 -6.11396 0
M  V30 19704 H 1805.56 -0.509468 -6.94534 0
M  V30 19705 H 1803.19 -0.881538 -7.55071 0
M  V30 19706 N 1804.76 1.49212 0.507292 0
M  V30 19707 C 1805.99 1.62343 1.29072 0
M  V30 19708 C 1806.41 0.292387 1.85814 0
M  V30 19709 O 1805.77 -0.739145 1.65549 0
M  V30 19710 C 1805.82 2.69017 2.40129 0
M  V30 19711 O 1804.92 2.27753 3.43806 0
M  V30 19712 H 1804.26 0.543591 0.38132 0
M  V30 19713 H 1806.79 1.95358 0.607997 0
M  V30 19714 H 1806.8 2.90992 2.85985 0
M  V30 19715 H 1805.48 3.65638 1.98195 0
M  V30 19716 H 1804.05 2.16084 3.03912 0
M  V30 19717 N 1806.24 -0.757876 1.38181 0
M  V30 19718 C 1807.46 -1.55221 1.37555 0
M  V30 19719 C 1807.89 -1.8807 -0.0336083 0
M  V30 19720 O 1807.25 -1.50258 -1.0145 0
M  V30 19721 C 1807.29 -2.83064 2.23399 0
M  V30 19722 O 1806.4 -3.78034 1.64814 0
M  V30 19723 H 1805.74 -0.469644 0.469394 0
M  V30 19724 H 1808.27 -0.936923 1.81887 0
M  V30 19725 H 1808.28 -3.32031 2.37106 0
M  V30 19726 H 1806.95 -2.58485 3.2582 0
M  V30 19727 H 1805.53 -3.36723 1.60225 0
M  V30 19728 N 1807.72 -1.22979 -0.985586 0
M  V30 19729 C 1808.96 -1.05877 -1.72616 0
M  V30 19730 C 1809.29 0.405097 -1.90235 0
M  V30 19731 O 1808.55 1.31642 -1.44807 0
M  V30 19732 C 1808.85 -1.72346 -3.131 0
M  V30 19733 C 1808.51 -3.22256 -3.15376 0
M  V30 19734 C 1807.17 -3.63159 -3.15704 0
M  V30 19735 C 1809.53 -4.18174 -3.11094 0
M  V30 19736 C 1806.85 -4.98448 -3.09461 0
M  V30 19737 C 1809.21 -5.53449 -3.06393 0
M  V30 19738 C 1807.87 -5.93722 -3.05041 0
M  V30 19739 H 1807.14 -0.38743 -0.631648 0
M  V30 19740 H 1809.79 -1.52842 -1.15375 0
M  V30 19741 H 1808.09 -1.17725 -3.73695 0
M  V30 19742 H 1809.79 -1.56595 -3.6916 0
M  V30 19743 H 1806.38 -2.89692 -3.15875 0
M  V30 19744 H 1810.56 -3.87586 -3.09985 0
M  V30 19745 H 1805.82 -5.28873 -3.06763 0
M  V30 19746 H 1809.99 -6.27492 -3.02037 0
M  V30 19747 H 1807.62 -6.98519 -2.99958 0
M  V30 19748 N 1809.19 1.18355 -1.04066 0
M  V30 19749 C 1810.61 1.40349 -0.759898 0
M  V30 19750 C 1810.81 1.90709 0.650574 0
M  V30 19751 O 1809.87 2.09142 1.41477 0
M  V30 19752 C 1811.18 2.40426 -1.80599 0
M  V30 19753 C 1812.73 2.54153 -1.8269 0
M  V30 19754 C 1813.2 3.57494 -2.8629 0
M  V30 19755 N 1814.69 3.65001 -2.85181 0
M  V30 19756 C 1815.43 4.44688 -3.61995 0
M  V30 19757 N 1814.92 5.27984 -4.48559 0
M  V30 19758 N 1816.72 4.39451 -3.50484 0
M  V30 19759 H 1808.87 0.839924 -1.95087 0
M  V30 19760 H 1811.13 0.431492 -0.844108 0
M  V30 19761 H 1810.84 2.10471 -2.81771 0
M  V30 19762 H 1810.71 3.39773 -1.63812 0
M  V30 19763 H 1813.1 2.83424 -0.821889 0
M  V30 19764 H 1813.18 1.54919 -2.03553 0
M  V30 19765 H 1812.82 3.28963 -3.8697 0
M  V30 19766 H 1812.75 4.56405 -2.62682 0
M  V30 19767 H 1815.24 3.05522 -2.22407 0
M  V30 19768 H 1815.56 5.85939 -5.0388 0
M  V30 19769 H 1813.9 5.27404 -4.52626 0
M  V30 19770 H 1817.09 3.73426 -2.8226 0
M  V30 19771 H 1817.27 5.01313 -4.10596 0
M  V30 19772 N 1810.67 0.820125 1.3458 0
M  V30 19773 C 1811.58 0.241913 2.33349 0
M  V30 19774 C 1812.6 -0.622228 1.62494 0
M  V30 19775 O 1813.77 -0.530787 1.9428 0
M  V30 19776 C 1810.84 -0.588944 3.41661 0
M  V30 19777 C 1809.9 0.29727 4.2827 0
M  V30 19778 C 1809.13 -0.494028 5.31409 0
M  V30 19779 O 1809.36 -1.72755 5.4361 0
M  V30 19780 O 1808.29 0.122182 6.01776 0
M  V30 19781 H 1812.12 1.05934 2.84626 0
M  V30 19782 H 1809.7 0.582205 1.37589 0
M  V30 19783 H 1811.58 -1.06174 4.07805 0
M  V30 19784 H 1810.26 -1.38374 2.92633 0
M  V30 19785 H 1809.17 0.817495 3.65059 0
M  V30 19786 H 1810.5 1.05635 4.80731 0
M  V30 19787 N 1812.15 -1.46743 0.574835 0
M  V30 19788 C 1813.1 -2.31935 -0.175778 0
M  V30 19789 C 1814.09 -1.44005 -0.892128 0
M  V30 19790 O 1815.3 -1.60674 -0.81141 0
M  V30 19791 H 1811.67 -0.748195 -0.0755558 0
M  V30 19792 H 1813.64 -2.93066 0.561671 0
M  V30 19793 C 1812.39 -3.27018 -1.18128 0
M  V30 19794 H 1811.72 -3.94652 -0.639492 0
M  V30 19795 H 1813.16 -3.89424 -1.67704 0
M  V30 19796 C 1811.62 -2.51802 -2.23824 0
M  V30 19797 O 1812.15 -2.2753 -3.31048 0
M  V30 19798 N 1810.35 -2.12501 -1.98221 0
M  V30 19799 H 1809.9 -2.32441 -1.11035 0
M  V30 19800 H 1809.86 -1.62494 -2.69153 0
M  V30 19801 N 1813.63 -0.312197 -1.54477 0
M  V30 19802 C 1814.86 0.296061 -2.04771 0
M  V30 19803 C 1815.27 1.46662 -1.18894 0
M  V30 19804 O 1814.63 1.81205 -0.217043 0
M  V30 19805 C 1814.68 0.74151 -3.53813 0
M  V30 19806 O 1814.4 -0.382471 -4.36427 0
M  V30 19807 C 1815.9 1.41376 -4.20152 0
M  V30 19808 H 1813.12 0.062705 -0.668064 0
M  V30 19809 H 1815.67 -0.455083 -1.99372 0
M  V30 19810 H 1813.82 1.44265 -3.59536 0
M  V30 19811 H 1814.23 -0.0336382 -5.24489 0
M  V30 19812 H 1815.71 1.67649 -5.25926 0
M  V30 19813 H 1816.19 2.35743 -3.7057 0
M  V30 19814 H 1816.79 0.755498 -4.18536 0
M  V30 19815 N 1815.11 1.57549 -0.040136 0
M  V30 19816 C 1816.04 2.06413 0.973089 0
M  V30 19817 C 1817.02 0.962235 1.31072 0
M  V30 19818 O 1818.2 1.23337 1.42549 0
M  V30 19819 C 1815.33 2.49541 2.29013 0
M  V30 19820 C 1814.37 3.70858 2.10634 0
M  V30 19821 S 1815.21 5.17013 1.39493 0
M  V30 19822 C 1816.36 5.63445 2.72544 0
M  V30 19823 H 1816.6 2.92032 0.557186 0
M  V30 19824 H 1814.13 1.53441 0.171846 0
M  V30 19825 H 1816.09 2.75052 3.04723 0
M  V30 19826 H 1814.75 1.64247 2.67734 0
M  V30 19827 H 1813.94 3.98918 3.08027 0
M  V30 19828 H 1813.54 3.45555 1.43065 0
M  V30 19829 H 1815.84 5.68357 3.68749 0
M  V30 19830 H 1816.78 6.62826 2.49134 0
M  V30 19831 H 1817.19 4.91133 2.78296 0
M  V30 19832 N 1816.58 -0.233136 1.55866 0
M  V30 19833 C 1817.51 -1.29225 1.94482 0
M  V30 19834 C 1818.5 -1.49495 0.811503 0
M  V30 19835 O 1819.68 -1.61872 1.07289 0
M  V30 19836 C 1816.81 -2.64435 2.25147 0
M  V30 19837 C 1815.76 -2.5884 3.4086 0
M  V30 19838 C 1815.09 -3.97973 3.57102 0
M  V30 19839 C 1816.39 -2.14629 4.76164 0
M  V30 19840 H 1818.08 -0.971527 2.83199 0
M  V30 19841 H 1815.63 -0.465905 1.36255 0
M  V30 19842 H 1817.58 -3.38676 2.50752 0
M  V30 19843 H 1816.31 -2.98172 1.33271 0
M  V30 19844 H 1814.97 -1.87057 3.15286 0
M  V30 19845 H 1814.61 -4.28998 2.62621 0
M  V30 19846 H 1814.31 -3.95114 4.34924 0
M  V30 19847 H 1815.84 -4.73893 3.85043 0
M  V30 19848 H 1817.25 -2.78607 5.0105 0
M  V30 19849 H 1815.65 -2.22853 5.57186 0
M  V30 19850 H 1816.72 -1.09826 4.72299 0
M  V30 19851 N 1818.06 -1.49479 -0.499372 0
M  V30 19852 C 1818.99 -1.69182 -1.60934 0
M  V30 19853 C 1819.97 -0.54053 -1.61283 0
M  V30 19854 O 1821.16 -0.776554 -1.77998 0
M  V30 19855 C 1818.29 -1.75985 -2.99411 0
M  V30 19856 C 1817.24 -2.9092 -3.13926 0
M  V30 19857 C 1816.57 -2.82837 -4.5377 0
M  V30 19858 C 1817.87 -4.31833 -2.93799 0
M  V30 19859 H 1819.56 -2.62112 -1.44699 0
M  V30 19860 H 1817.11 -1.26135 -0.694688 0
M  V30 19861 H 1819.06 -1.88354 -3.76962 0
M  V30 19862 H 1817.79 -0.796557 -3.16737 0
M  V30 19863 H 1816.45 -2.78155 -2.388 0
M  V30 19864 H 1816.09 -1.84412 -4.67976 0
M  V30 19865 H 1815.79 -3.59979 -4.64423 0
M  V30 19866 H 1817.32 -2.97217 -5.3338 0
M  V30 19867 H 1818.73 -4.45271 -3.61119 0
M  V30 19868 H 1817.13 -5.10209 -3.15922 0
M  V30 19869 H 1818.2 -4.46165 -1.89908 0
M  V30 19870 N 1819.54 0.750537 -1.38581 0
M  V30 19871 C 1820.5 1.84599 -1.35852 0
M  V30 19872 C 1821.5 1.58709 -0.258462 0
M  V30 19873 O 1822.69 1.66397 -0.51552 0
M  V30 19874 C 1819.83 3.22124 -1.11573 0
M  V30 19875 H 1821.02 1.88426 -2.33314 0
M  V30 19876 H 1818.57 0.952564 -1.23919 0
M  V30 19877 H 1819.31 3.23965 -0.147295 0
M  V30 19878 H 1819.09 3.42311 -1.91221 0
M  V30 19879 H 1820.58 4.02198 -1.12367 0
M  V30 19880 N 1821.02 1.235 0.979051 0
M  V30 19881 C 1822.3 0.976124 1.69503 0
M  V30 19882 C 1822.68 -0.504883 2.04974 0
M  V30 19883 O 1822.02 -1.47642 1.74397 0
M  V30 19884 C 1822.23 1.8877 2.93542 0
M  V30 19885 C 1823.58 2.15196 3.66027 0
M  V30 19886 O 1824.61 1.8633 3.03578 0
M  V30 19887 O 1823.47 2.64157 4.78417 0
M  V30 19888 H 1820.56 0.36825 0.740487 0
M  V30 19889 H 1823.11 1.34549 1.03415 0
M  V30 19890 H 1821.88 2.88882 2.63937 0
M  V30 19891 H 1821.5 1.52079 3.67366 0
M  V30 19892 N 1822.5 -1.17802 1.04693 0
M  V30 19893 C 1823.75 -1.87271 0.749172 0
M  V30 19894 C 1824.06 -1.81614 -0.726342 0
M  V30 19895 O 1825.27 -2.46506 -1.13785 0
M  V30 19896 C 1823.72 -3.35992 1.28986 0
M  V30 19897 C 1823.33 -3.50163 2.79446 0
M  V30 19898 C 1825.07 -4.10821 1.06892 0
M  V30 19899 C 1822.98 -4.92878 3.26841 0
M  V30 19900 H 1821.91 -0.701451 0.276554 0
M  V30 19901 H 1824.56 -1.33065 1.26357 0
M  V30 19902 H 1822.94 -3.89705 0.703298 0
M  V30 19903 H 1824.12 -3.06692 3.43914 0
M  V30 19904 H 1822.43 -2.88747 3.00023 0
M  V30 19905 H 1825.03 -5.16098 1.39809 0
M  V30 19906 H 1825.37 -4.163 0.00644311 0
M  V30 19907 H 1825.91 -3.633 1.62043 0
M  V30 19908 H 1822.64 -4.92572 4.32497 0
M  V30 19909 H 1822.16 -5.3704 2.67112 0
M  V30 19910 H 1823.84 -5.61624 3.21227 0
M  V30 19911 N 1823.98 -0.827251 -1.34143 0
M  V30 19912 C 1825.21 -0.429878 -2.02078 0
M  V30 19913 C 1825.61 0.970141 -1.62434 0
M  V30 19914 O 1824.96 1.63997 -0.827692 0
M  V30 19915 C 1825.02 -0.457493 -3.56577 0
M  V30 19916 C 1824.68 -1.8116 -4.19559 0
M  V30 19917 C 1825.68 -2.7731 -4.39767 0
M  V30 19918 C 1823.36 -2.10126 -4.56237 0
M  V30 19919 C 1825.36 -4.00596 -4.95784 0
M  V30 19920 C 1823.05 -3.33672 -5.11963 0
M  V30 19921 C 1824.04 -4.28724 -5.31681 0
M  V30 19922 O 1823.73 -5.50086 -5.86226 0
M  V30 19923 H 1823.46 -0.170259 -0.654208 0
M  V30 19924 H 1826.02 -1.11808 -1.72303 0
M  V30 19925 H 1824.25 0.287424 -3.8563 0
M  V30 19926 H 1825.94 -0.0795677 -4.05822 0
M  V30 19927 H 1826.7 -2.56228 -4.11791 0
M  V30 19928 H 1822.58 -1.36941 -4.40191 0
M  V30 19929 H 1826.13 -4.74798 -5.11089 0
M  V30 19930 H 1822.02 -3.54615 -5.39369 0
M  V30 19931 H 1822.79 -5.51665 -6.04655 0
M  V30 19932 N 1825.45 1.46436 -0.582609 0
M  V30 19933 C 1826.4 2.30308 0.150697 0
M  V30 19934 C 1827.37 1.40611 0.884185 0
M  V30 19935 O 1828.56 1.6956 0.874874 0
M  V30 19936 C 1825.7 3.25074 1.15847 0
M  V30 19937 C 1824.81 4.2987 0.428442 0
M  V30 19938 C 1823.94 5.11765 1.42373 0
M  V30 19939 C 1822.98 6.0831 0.680103 0
M  V30 19940 N 1822.12 6.83073 1.62345 0
M  V30 19941 H 1826.96 2.92487 -0.570583 0
M  V30 19942 H 1824.5 1.44148 -0.293195 0
M  V30 19943 H 1826.45 3.78462 1.75563 0
M  V30 19944 H 1825.08 2.64704 1.84747 0
M  V30 19945 H 1824.14 3.7934 -0.283744 0
M  V30 19946 H 1825.45 4.98566 -0.15291 0
M  V30 19947 H 1824.6 5.69429 2.09369 0
M  V30 19948 H 1823.34 4.4303 2.03902 0
M  V30 19949 H 1822.35 5.498 -0.00363067 0
M  V30 19950 H 1823.57 6.79064 0.0702152 0
M  V30 19951 H 1821.52 6.17048 2.22684 0
M  V30 19952 H 1821.43 7.48029 1.0949 0
M  V30 19953 H 1822.7 7.45295 2.28376 0
M  V30 19954 N 1826.93 0.320385 1.54309 0
M  V30 19955 C 1828.34 -0.16833 1.8594 0
M  V30 19956 C 1828.69 -1.51877 1.24208 0
M  V30 19957 O 1827.82 -2.09374 0.546933 0
M  V30 19958 C 1828.41 -0.312212 3.37358 0
M  V30 19959 C 1826.97 -0.745147 3.68951 0
M  V30 19960 C 1826.12 0.135038 2.76971 0
M  V30 19961 H 1829.07 0.540773 1.49202 0
M  V30 19962 H 1829.09 -1.14364 3.62906 0
M  V30 19963 H 1828.6 0.670809 3.82259 0
M  V30 19964 H 1826.7 -1.73803 3.29581 0
M  V30 19965 H 1826.82 -0.5511 4.7592 0
M  V30 19966 H 1825.18 -0.388886 2.51714 0
M  V30 19967 H 1825.96 1.11477 3.24697 0
M  V30 19968 N 1828.41 -1.57525 0.0484906 0
M  V30 19969 C 1829.66 -1.93691 -0.620929 0
M  V30 19970 C 1830.01 -0.92675 -1.68609 0
M  V30 19971 O 1829.3 0.0544658 -1.91523 0
M  V30 19972 C 1829.5 -3.34335 -1.26313 0
M  V30 19973 C 1829.33 -4.48938 -0.261699 0
M  V30 19974 C 1828.1 -5.05091 0.14537 0
M  V30 19975 C 1830.29 -5.11943 0.491808 0
M  V30 19976 N 1828.28 -6.03223 1.13994 0
M  V30 19977 C 1829.65 -6.05356 1.33955 0
M  V30 19978 C 1831.7 -4.94848 0.550412 0
M  V30 19979 C 1830.41 -6.83512 2.24063 0
M  V30 19980 C 1832.43 -5.73628 1.43891 0
M  V30 19981 C 1831.79 -6.66672 2.27438 0
M  V30 19982 H 1827.89 -0.756272 -0.198941 0
M  V30 19983 H 1830.48 -1.94329 0.120196 0
M  V30 19984 H 1828.65 -3.34479 -1.9743 0
M  V30 19985 H 1830.38 -3.57796 -1.89114 0
M  V30 19986 H 1827.13 -4.73026 -0.233045 0
M  V30 19987 H 1827.56 -6.56984 1.63405 0
M  V30 19988 H 1832.2 -4.22722 -0.0812867 0
M  V30 19989 H 1829.92 -7.54931 2.88279 0
M  V30 19990 H 1833.5 -5.62429 1.48879 0
M  V30 19991 H 1832.38 -7.26567 2.95075 0
M  V30 19992 N 1829.89 0.224867 -1.55988 0
M  V30 19993 C 1831.3 0.574415 -1.48905 0
M  V30 19994 C 1831.5 1.87303 -0.74296 0
M  V30 19995 O 1830.56 2.50929 -0.28127 0
M  V30 19996 C 1831.87 0.656717 -2.93441 0
M  V30 19997 C 1833.42 0.747568 -3.03941 0
M  V30 19998 C 1833.9 0.861243 -4.4983 0
M  V30 19999 N 1835.39 0.92555 -4.53859 0
M  V30 20000 C 1836.12 1.03316 -5.64015 0
M  V30 20001 N 1835.62 1.10492 -6.83932 0
M  V30 20002 N 1837.41 1.06804 -5.5186 0
M  V30 20003 H 1829.56 -0.627339 -2.02924 0
M  V30 20004 H 1831.82 -0.219656 -0.922201 0
M  V30 20005 H 1831.53 -0.227845 -3.50961 0
M  V30 20006 H 1831.4 1.52142 -3.45156 0
M  V30 20007 H 1833.79 1.62257 -2.46489 0
M  V30 20008 H 1833.87 -0.142737 -2.55401 0
M  V30 20009 H 1833.52 -0.00929123 -5.07899 0
M  V30 20010 H 1833.45 1.76692 -4.96072 0
M  V30 20011 H 1835.94 0.880541 -3.67498 0
M  V30 20012 H 1836.25 1.18672 -7.63634 0
M  V30 20013 H 1834.6 1.07411 -6.8665 0
M  V30 20014 H 1837.79 1.0086 -4.57105 0
M  V30 20015 H 1837.96 1.14845 -6.37742 0
M  V30 20016 N 1831.37 1.49742 0.491438 0
M  V30 20017 C 1832.61 1.59711 1.24494 0
M  V30 20018 C 1832.94 0.288122 1.92354 0
M  V30 20019 O 1832.2 -0.724652 1.81789 0
M  V30 20020 C 1832.49 2.71245 2.32725 0
M  V30 20021 C 1832.16 4.12423 1.82258 0
M  V30 20022 C 1830.82 4.50841 1.68214 0
M  V30 20023 C 1833.17 5.00741 1.44595 0
M  V30 20024 C 1830.5 5.75339 1.149 0
M  V30 20025 C 1832.85 6.25767 0.927292 0
M  V30 20026 C 1831.52 6.63005 0.773323 0
M  V30 20027 H 1830.79 0.584422 0.455556 0
M  V30 20028 H 1833.44 1.83607 0.544137 0
M  V30 20029 H 1831.74 2.41357 3.08632 0
M  V30 20030 H 1833.44 2.76165 2.90747 0
M  V30 20031 H 1830.03 3.82104 1.94151 0
M  V30 20032 H 1834.21 4.71709 1.54288 0
M  V30 20033 H 1829.47 6.02883 1.01699 0
M  V30 20034 H 1833.64 6.93574 0.626707 0
M  V30 20035 H 1831.27 7.59356 0.358031 0
M  V30 20036 N 1832.84 -0.743177 1.38977 0
M  V30 20037 C 1834.07 -1.53753 1.39193 0
M  V30 20038 C 1834.49 -1.88095 -0.0136591 0
M  V30 20039 O 1833.85 -1.51326 -0.998508 0
M  V30 20040 C 1833.9 -2.80679 2.26389 0
M  V30 20041 O 1833 -3.76265 1.68815 0
M  V30 20042 H 1832.35 -0.464639 0.474349 0
M  V30 20043 H 1834.88 -0.917579 1.82871 0
M  V30 20044 H 1834.89 -3.29498 2.40614 0
M  V30 20045 H 1833.56 -2.55014 3.28543 0
M  V30 20046 H 1832.14 -3.35004 1.63788 0
M  V30 20047 N 1834.32 -1.24018 -0.972487 0
M  V30 20048 C 1835.57 -1.07702 -1.71484 0
M  V30 20049 C 1835.9 0.384897 -1.90654 0
M  V30 20050 O 1835.15 1.30098 -1.46195 0
M  V30 20051 C 1835.45 -1.75657 -3.11255 0
M  V30 20052 C 1835.12 -3.25583 -3.1194 0
M  V30 20053 C 1833.78 -3.66487 -3.11834 0
M  V30 20054 C 1836.13 -4.2145 -3.06642 0
M  V30 20055 C 1833.46 -5.01703 -3.04157 0
M  V30 20056 C 1835.81 -5.56668 -3.00506 0
M  V30 20057 C 1834.48 -5.96924 -2.98726 0
M  V30 20058 H 1833.75 -0.394108 -0.627503 0
M  V30 20059 H 1836.39 -1.54057 -1.13748 0
M  V30 20060 H 1834.7 -1.21682 -3.72425 0
M  V30 20061 H 1836.39 -1.60502 -3.67478 0
M  V30 20062 H 1832.98 -2.93026 -3.12784 0
M  V30 20063 H 1837.17 -3.90852 -3.05856 0
M  V30 20064 H 1832.42 -5.32096 -3.01137 0
M  V30 20065 H 1836.6 -6.30661 -2.95365 0
M  V30 20066 H 1834.23 -7.01661 -2.92532 0
M  V30 20067 N 1835.8 1.17245 -1.05316 0
M  V30 20068 C 1836.75 2.21304 -0.655223 0
M  V30 20069 C 1837.72 1.62515 0.343244 0
M  V30 20070 O 1838.9 1.89355 0.234375 0
M  V30 20071 C 1836.04 3.4508 -0.037446 0
M  V30 20072 C 1835.16 4.18155 -1.0849 0
M  V30 20073 C 1834.29 5.29422 -0.434307 0
M  V30 20074 C 1833.33 5.94286 -1.46598 0
M  V30 20075 N 1832.47 6.97063 -0.839461 0
M  V30 20076 H 1837.31 2.54696 -1.54705 0
M  V30 20077 H 1834.84 1.25109 -0.773697 0
M  V30 20078 H 1836.8 4.15827 0.338182 0
M  V30 20079 H 1835.43 3.12268 0.817837 0
M  V30 20080 H 1834.48 3.46111 -1.57834 0
M  V30 20081 H 1835.8 4.62502 -1.86798 0
M  V30 20082 H 1834.95 6.067 -0.00516288 0
M  V30 20083 H 1833.69 4.86212 0.380745 0
M  V30 20084 H 1832.69 5.15737 -1.90513 0
M  V30 20085 H 1833.92 6.39576 -2.28295 0
M  V30 20086 H 1831.86 6.55985 -0.0449421 0
M  V30 20087 H 1831.78 7.39728 -1.56006 0
M  V30 20088 H 1833.05 7.78285 -0.435132 0
M  V30 20089 N 1837.28 0.834353 1.33702 0
M  V30 20090 C 1838.23 0.252818 2.31222 0
M  V30 20091 C 1839.22 -0.612723 1.57931 0
M  V30 20092 O 1840.43 -0.502788 1.72835 0
M  V30 20093 H 1836.8 0.0630243 0.749354 0
M  V30 20094 H 1838.77 1.08992 2.77783 0
M  V30 20095 C 1837.52 -0.561132 3.43142 0
M  V30 20096 H 1836.84 0.0955723 3.99686 0
M  V30 20097 H 1838.28 -0.933951 4.13586 0
M  V30 20098 C 1836.74 -1.73817 2.88599 0
M  V30 20099 O 1837.27 -2.83674 2.84415 0
M  V30 20100 N 1835.48 -1.5586 2.45267 0
M  V30 20101 H 1835.03 -0.664959 2.4887 0
M  V30 20102 H 1834.98 -2.34764 2.09125 0
M  V30 20103 N 1838.76 -1.46125 0.590367 0
M  V30 20104 C 1839.72 -2.2884 -0.128368 0
M  V30 20105 C 1840.72 -1.38818 -0.81156 0
M  V30 20106 O 1841.91 -1.61117 -0.662347 0
M  V30 20107 C 1839.04 -3.19402 -1.19144 0
M  V30 20108 H 1840.23 -2.93864 0.598641 0
M  V30 20109 H 1837.79 -1.52362 0.34866 0
M  V30 20110 H 1838.52 -2.59141 -1.94978 0
M  V30 20111 H 1838.31 -3.85692 -0.705973 0
M  V30 20112 H 1839.8 -3.8164 -1.69532 0
M  V30 20113 N 1840.23 -0.328564 -1.54137 0
M  V30 20114 C 1841.46 0.273928 -2.04776 0
M  V30 20115 C 1841.87 1.45942 -1.20406 0
M  V30 20116 O 1841.22 1.82271 -0.228693 0
M  V30 20117 C 1841.28 0.766914 -3.51225 0
M  V30 20118 C 1840.94 -0.296932 -4.56034 0
M  V30 20119 C 1841.94 -1.13468 -5.07367 0
M  V30 20120 C 1839.62 -0.446557 -5.00311 0
M  V30 20121 C 1841.62 -2.10773 -6.01543 0
M  V30 20122 C 1839.3 -1.42302 -5.94301 0
M  V30 20123 C 1840.3 -2.25207 -6.44803 0
M  V30 20124 O 1839.99 -3.21194 -7.36946 0
M  V30 20125 H 1839.72 0.0593978 -0.673385 0
M  V30 20126 H 1842.28 -0.474303 -1.99849 0
M  V30 20127 H 1840.51 1.56614 -3.53566 0
M  V30 20128 H 1842.2 1.2883 -3.84912 0
M  V30 20129 H 1842.96 -1.03009 -4.73935 0
M  V30 20130 H 1838.84 0.188865 -4.60613 0
M  V30 20131 H 1842.38 -2.75521 -6.40885 0
M  V30 20132 H 1838.28 -1.52822 -6.27149 0
M  V30 20133 H 1839.05 -3.16491 -7.54835 0
M  V30 20134 N 1841.71 1.57497 -0.0568439 0
M  V30 20135 C 1842.94 1.97231 0.625102 0
M  V30 20136 C 1843.36 0.934622 1.64043 0
M  V30 20137 O 1842.71 -0.0805064 1.82322 0
M  V30 20138 C 1842.76 3.37046 1.30698 0
M  V30 20139 O 1842.48 4.36838 0.332302 0
M  V30 20140 C 1843.99 3.9157 2.07816 0
M  V30 20141 H 1841.21 0.648975 0.170505 0
M  V30 20142 H 1843.75 2.04119 -0.124823 0
M  V30 20143 H 1841.9 3.31292 2.0081 0
M  V30 20144 H 1842.32 5.18055 0.819691 0
M  V30 20145 H 1843.79 4.91664 2.5094 0
M  V30 20146 H 1844.27 3.27303 2.92864 0
M  V30 20147 H 1844.88 4.0068 1.42603 0
M  V30 20148 N 1843.19 -0.216591 1.56105 0
M  V30 20149 C 1844.6 -0.783161 1.6948 0
M  V30 20150 C 1844.95 -1.84776 0.659716 0
M  V30 20151 O 1844.08 -2.1558 -0.188184 0
M  V30 20152 C 1844.67 -1.42733 3.07267 0
M  V30 20153 C 1843.23 -1.94123 3.2248 0
M  V30 20154 C 1842.38 -0.803216 2.65412 0
M  V30 20155 H 1845.33 0.00814542 1.58698 0
M  V30 20156 H 1845.35 -2.29627 3.034 0
M  V30 20157 H 1844.86 -0.652264 3.8258 0
M  V30 20158 H 1842.96 -2.74416 2.52045 0
M  V30 20159 H 1843.08 -2.1178 4.29751 0
M  V30 20160 H 1841.44 -1.21185 2.24023 0
M  V30 20161 H 1842.22 -0.0407398 3.43276 0
M  V30 20162 N 1844.67 -1.5 -0.48349 0
M  V30 20163 C 1845.91 -1.60606 -1.23829 0
M  V30 20164 C 1846.25 -0.299778 -1.91872 0
M  V30 20165 O 1845.52 0.697925 -1.81547 0
M  V30 20166 C 1845.81 -2.77769 -2.29165 0
M  V30 20167 C 1845.66 -4.18243 -1.65507 0
M  V30 20168 C 1846.98 -2.90521 -3.30584 0
M  V30 20169 H 1844.1 -0.584561 -0.44884 0
M  V30 20170 H 1846.74 -1.82346 -0.533855 0
M  V30 20171 H 1844.89 -2.59364 -2.89245 0
M  V30 20172 H 1846.56 -4.48208 -1.09119 0
M  V30 20173 H 1844.8 -4.23077 -0.958577 0
M  V30 20174 H 1845.47 -4.96128 -2.41994 0
M  V30 20175 H 1847.95 -3.0733 -2.80513 0
M  V30 20176 H 1846.83 -3.74146 -4.0163 0
M  V30 20177 H 1847.09 -2.00609 -3.93965 0
M  V30 20178 N 1846.15 0.735796 -1.39369 0
M  V30 20179 C 1847.11 1.83148 -1.37802 0
M  V30 20180 C 1848.11 1.58426 -0.27528 0
M  V30 20181 O 1849.3 1.65841 -0.53314 0
M  V30 20182 C 1846.43 3.20923 -1.14984 0
M  V30 20183 H 1847.62 1.85941 -2.353 0
M  V30 20184 H 1845.18 0.939367 -1.24922 0
M  V30 20185 H 1845.91 3.23791 -0.181648 0
M  V30 20186 H 1845.7 3.40264 -1.94841 0
M  V30 20187 H 1847.19 4.00984 -1.16626 0
M  V30 20188 N 1847.63 1.24532 0.965897 0
M  V30 20189 C 1848.87 1.0877 1.71163 0
M  V30 20190 C 1849.2 -0.372297 1.90598 0
M  V30 20191 O 1848.48 -1.27503 1.46878 0
M  V30 20192 C 1848.76 1.83004 3.10131 0
M  V30 20193 C 1848.62 3.36765 2.98177 0
M  V30 20194 C 1849.93 1.60417 4.09822 0
M  V30 20195 H 1847.05 0.396528 0.621236 0
M  V30 20196 H 1849.7 1.53223 1.12351 0
M  V30 20197 H 1847.85 1.4522 3.60338 0
M  V30 20198 H 1849.52 3.84158 2.55382 0
M  V30 20199 H 1847.76 3.65053 2.34347 0
M  V30 20200 H 1848.43 3.83909 3.96633 0
M  V30 20201 H 1850.91 1.93289 3.68482 0
M  V30 20202 H 1849.78 2.14812 5.05121 0
M  V30 20203 H 1850.04 0.542843 4.38755 0
M  V30 20204 N 1849.1 -1.16685 1.05936 0
M  V30 20205 C 1850.33 -1.91035 0.794553 0
M  V30 20206 C 1850.75 -1.77234 -0.650663 0
M  V30 20207 O 1850.1 -1.11454 -1.44514 0
M  V30 20208 C 1850.15 -3.41859 1.17536 0
M  V30 20209 O 1849.88 -3.55243 2.56386 0
M  V30 20210 C 1851.38 -4.33267 0.937774 0
M  V30 20211 H 1848.6 -0.605896 0.288325 0
M  V30 20212 H 1851.14 -1.47925 1.41203 0
M  V30 20213 H 1849.3 -3.82686 0.602486 0
M  V30 20214 H 1849.71 -4.48744 2.71531 0
M  V30 20215 H 1851.18 -5.3757 1.25389 0
M  V30 20216 H 1851.66 -4.39017 -0.126673 0
M  V30 20217 H 1852.27 -3.98163 1.49486 0
M  V30 20218 N 1850.58 -0.841432 -1.33258 0
M  V30 20219 C 1851.53 -0.265077 -2.31085 0
M  V30 20220 C 1852.52 0.604339 -1.58253 0
M  V30 20221 O 1853.73 0.493615 -1.731 0
M  V30 20222 H 1850.1 -0.0669974 -0.74901 0
M  V30 20223 H 1852.08 -1.10464 -2.77201 0
M  V30 20224 C 1850.82 0.542926 -3.43435 0
M  V30 20225 H 1850.15 -0.116767 -3.99629 0
M  V30 20226 H 1851.59 0.912004 -4.14075 0
M  V30 20227 C 1850.05 1.72284 -2.89517 0
M  V30 20228 O 1850.58 2.82161 -2.85916 0
M  V30 20229 N 1848.78 1.54557 -2.4609 0
M  V30 20230 H 1848.33 0.651752 -2.49219 0
M  V30 20231 H 1848.29 2.33651 -2.10367 0
M  V30 20232 N 1852.06 1.4581 -0.598108 0
M  V30 20233 C 1853.29 2.06379 -0.0955533 0
M  V30 20234 C 1853.7 1.44497 1.22137 0
M  V30 20235 O 1853.04 0.549997 1.75273 0
M  V30 20236 C 1853.1 3.59271 0.128433 0
M  V30 20237 C 1852.77 4.43434 -1.10523 0
M  V30 20238 C 1853.76 4.79008 -2.02107 0
M  V30 20239 C 1851.45 4.84334 -1.3314 0
M  V30 20240 C 1853.44 5.54326 -3.14644 0
M  V30 20241 C 1851.13 5.59408 -2.45979 0
M  V30 20242 C 1852.13 5.9432 -3.3656 0
M  V30 20243 O 1851.82 6.67874 -4.47437 0
M  V30 20244 H 1851.55 0.673187 -0.0616108 0
M  V30 20245 H 1854.1 1.88191 -0.823012 0
M  V30 20246 H 1852.33 3.75824 0.910679 0
M  V30 20247 H 1854.02 4.01714 0.581406 0
M  V30 20248 H 1854.79 4.47976 -1.85856 0
M  V30 20249 H 1850.67 4.566 -0.635381 0
M  V30 20250 H 1854.21 5.81495 -3.8537 0
M  V30 20251 H 1850.11 5.89854 -2.62187 0
M  V30 20252 H 1850.87 6.86314 -4.45999 0
M  V30 20253 N 1853.54 0.336733 1.53961 0
M  V30 20254 C 1854.45 -0.531812 2.28493 0
M  V30 20255 C 1855.46 -1.11784 1.33343 0
M  V30 20256 O 1856.64 -1.13499 1.66373 0
M  V30 20257 C 1853.7 -1.67031 3.03812 0
M  V30 20258 C 1852.77 -1.11475 4.14574 0
M  V30 20259 C 1852 -2.19898 4.86292 0
M  V30 20260 O 1852.22 -3.40492 4.57625 0
M  V30 20261 O 1851.16 -1.84576 5.72901 0
M  V30 20262 H 1854.98 0.0738624 3.0361 0
M  V30 20263 H 1852.57 0.101996 1.49051 0
M  V30 20264 H 1854.45 -2.33286 3.50936 0
M  V30 20265 H 1853.12 -2.26192 2.31558 0
M  V30 20266 H 1852.03 -0.416915 3.7177 0
M  V30 20267 H 1853.36 -0.568092 4.88911 0
M  V30 20268 N 1855.02 -1.57465 0.0651956 0
M  V30 20269 C 1856.24 -1.9756 -0.614633 0
M  V30 20270 C 1856.66 -0.943308 -1.63546 0
M  V30 20271 O 1856.02 0.0708362 -1.82362 0
M  V30 20272 C 1856.07 -3.37735 -1.28909 0
M  V30 20273 O 1855.79 -4.37008 -0.309131 0
M  V30 20274 C 1857.29 -3.92667 -2.05736 0
M  V30 20275 H 1854.51 -0.64987 -0.167061 0
M  V30 20276 H 1857.05 -2.0405 0.135647 0
M  V30 20277 H 1855.21 -3.32352 -1.9905 0
M  V30 20278 H 1855.62 -5.18483 -0.792206 0
M  V30 20279 H 1857.1 -4.92988 -2.48329 0
M  V30 20280 H 1857.57 -3.28851 -2.91124 0
M  V30 20281 H 1858.18 -4.01431 -1.40476 0
M  V30 20282 N 1856.49 0.20831 -1.56217 0
M  V30 20283 C 1857.44 1.2582 -1.93489 0
M  V30 20284 C 1858.41 1.45907 -0.793748 0
M  V30 20285 O 1859.6 1.59258 -1.05078 0
M  V30 20286 C 1856.74 2.60077 -2.26835 0
M  V30 20287 C 1855.85 2.47678 -3.53948 0
M  V30 20288 C 1854.98 3.74549 -3.76678 0
M  V30 20289 C 1854.02 3.56928 -4.97261 0
M  V30 20290 N 1853.16 4.75779 -5.16313 0
M  V30 20291 H 1858 0.933346 -2.83006 0
M  V30 20292 H 1855.54 0.449531 -1.40063 0
M  V30 20293 H 1857.49 3.38277 -2.44181 0
M  V30 20294 H 1856.12 2.90632 -1.40474 0
M  V30 20295 H 1855.18 1.60844 -3.44722 0
M  V30 20296 H 1856.49 2.30585 -4.42303 0
M  V30 20297 H 1855.64 4.61191 -3.94193 0
M  V30 20298 H 1854.38 3.94582 -2.86629 0
M  V30 20299 H 1853.39 2.6867 -4.79683 0
M  V30 20300 H 1854.61 3.38353 -5.88808 0
M  V30 20301 H 1852.56 4.96101 -4.29209 0
M  V30 20302 H 1852.47 4.61462 -5.98823 0
M  V30 20303 H 1853.74 5.6381 -5.38274 0
M  V30 20304 N 1857.97 1.50255 0.475528 0
M  V30 20305 C 1858.9 1.71721 1.58222 0
M  V30 20306 C 1859.88 0.56612 1.60403 0
M  V30 20307 O 1861.07 0.804774 1.7674 0
M  V30 20308 C 1858.2 1.80726 2.96573 0
M  V30 20309 C 1857.15 2.95877 3.09258 0
M  V30 20310 C 1856.48 2.9002 4.49213 0
M  V30 20311 C 1857.78 4.36452 2.86891 0
M  V30 20312 H 1859.47 2.6438 1.40511 0
M  V30 20313 H 1857.02 1.27224 0.674533 0
M  V30 20314 H 1858.97 1.94328 3.73918 0
M  V30 20315 H 1857.69 0.846846 3.1543 0
M  V30 20316 H 1856.35 2.81918 2.34345 0
M  V30 20317 H 1856 1.91834 4.64982 0
M  V30 20318 H 1855.7 3.67322 4.58637 0
M  V30 20319 H 1857.23 3.05665 5.28584 0
M  V30 20320 H 1858.64 4.5096 3.53989 0
M  V30 20321 H 1857.04 5.15171 3.07765 0
M  V30 20322 H 1858.11 4.49129 1.82786 0
M  V30 20323 N 1859.45 -0.728395 1.39758 0
M  V30 20324 C 1860.38 -1.85554 1.41747 0
M  V30 20325 C 1861.36 -1.6778 0.279972 0
M  V30 20326 O 1862.55 -1.88001 0.48675 0
M  V30 20327 C 1859.68 -3.23375 1.26671 0
M  V30 20328 C 1858.63 -3.55799 2.37889 0
M  V30 20329 C 1857.96 -4.92628 2.07899 0
M  V30 20330 C 1859.26 -3.58098 3.80215 0
M  V30 20331 H 1860.95 -1.84146 2.36073 0
M  V30 20332 H 1858.5 -0.884539 1.13631 0
M  V30 20333 H 1860.45 -4.01907 1.26682 0
M  V30 20334 H 1859.17 -3.25326 0.288159 0
M  V30 20335 H 1857.83 -2.796 2.37107 0
M  V30 20336 H 1857.48 -4.91166 1.08466 0
M  V30 20337 H 1857.18 -5.15288 2.82404 0
M  V30 20338 H 1858.7 -5.73509 2.09571 0
M  V30 20339 H 1860.12 -4.26694 3.82891 0
M  V30 20340 H 1858.51 -3.9228 4.54133 0
M  V30 20341 H 1859.58 -2.57758 4.10718 0
M  V30 20342 N 1860.93 -1.25042 -0.959279 0
M  V30 20343 C 1862.15 -1.12339 -1.74341 0
M  V30 20344 C 1862.58 0.319342 -1.85369 0
M  V30 20345 O 1861.94 1.23129 -1.33075 0
M  V30 20346 C 1861.98 -1.77734 -3.13756 0
M  V30 20347 O 1861.09 -1.05383 -3.98708 0
M  V30 20348 H 1860.43 -0.392479 -0.535589 0
M  V30 20349 H 1862.96 -1.65516 -1.20274 0
M  V30 20350 H 1862.97 -1.83832 -3.64239 0
M  V30 20351 H 1861.64 -2.82702 -3.05045 0
M  V30 20352 H 1860.22 -1.07132 -3.57179 0
M  V30 20353 N 1862.41 1.16121 -1.06553 0
M  V30 20354 C 1863.63 1.90611 -0.804673 0
M  V30 20355 C 1864.05 1.77576 0.641255 0
M  V30 20356 O 1863.41 1.12218 1.43921 0
M  V30 20357 C 1863.46 3.41231 -1.19348 0
M  V30 20358 O 1863.18 3.53879 -2.58266 0
M  V30 20359 C 1864.68 4.32764 -0.960738 0
M  V30 20360 H 1861.9 0.604358 -0.291534 0
M  V30 20361 H 1864.44 1.47174 -1.41986 0
M  V30 20362 H 1862.6 3.82361 -0.622772 0
M  V30 20363 H 1863.01 4.47298 -2.73907 0
M  V30 20364 H 1864.49 5.36898 -1.28238 0
M  V30 20365 H 1864.96 4.39078 0.103389 0
M  V30 20366 H 1865.57 3.97365 -1.51595 0
M  V30 20367 N 1863.88 0.848487 1.3281 0
M  V30 20368 C 1865.11 0.46174 2.02195 0
M  V30 20369 C 1865.53 -0.932159 1.63378 0
M  V30 20370 O 1864.89 -1.6112 0.831266 0
M  V30 20371 C 1864.94 0.601234 3.55552 0
M  V30 20372 O 1864.04 -0.368549 4.1075 0
M  V30 20373 H 1863.39 0.186379 0.637306 0
M  V30 20374 H 1865.92 1.14598 1.69495 0
M  V30 20375 H 1865.93 0.486456 4.0509 0
M  V30 20376 H 1864.6 1.61773 3.83148 0
M  V30 20377 H 1863.18 -0.210525 3.72305 0
M  V30 20378 N 1865.36 -1.4549 0.605832 0
M  V30 20379 C 1866.59 -2.07135 0.104838 0
M  V30 20380 C 1867.01 -1.4478 -1.20085 0
M  V30 20381 O 1866.37 -0.539875 -1.73075 0
M  V30 20382 C 1866.42 -3.60593 -0.0231858 0
M  V30 20383 O 1865.52 -3.98173 -1.07386 0
M  V30 20384 H 1864.86 -0.659945 0.0732691 0
M  V30 20385 H 1867.39 -1.8677 0.835343 0
M  V30 20386 H 1867.4 -4.07396 -0.221964 0
M  V30 20387 H 1866.08 -4.05364 0.930211 0
M  V30 20388 H 1864.66 -3.63044 -0.851689 0
M  V30 20389 N 1866.84 -0.344893 -1.5378 0
M  V30 20390 C 1868.09 0.251208 -2.00936 0
M  V30 20391 C 1868.42 1.50449 -1.23269 0
M  V30 20392 O 1867.67 1.93249 -0.308738 0
M  V30 20393 C 1867.97 0.609495 -3.52165 0
M  V30 20394 C 1867.64 -0.547063 -4.47569 0
M  V30 20395 C 1866.3 -0.864456 -4.73372 0
M  V30 20396 C 1868.65 -1.3229 -5.04132 0
M  V30 20397 C 1865.98 -1.96003 -5.52991 0
M  V30 20398 C 1868.33 -2.40874 -5.84947 0
M  V30 20399 C 1866.99 -2.73171 -6.09043 0
M  V30 20400 H 1866.26 0.0919233 -0.735276 0
M  V30 20401 H 1868.91 -0.473086 -1.85564 0
M  V30 20402 H 1867.22 1.41452 -3.65375 0
M  V30 20403 H 1868.91 1.08262 -3.86109 0
M  V30 20404 H 1865.5 -0.289626 -4.2762 0
M  V30 20405 H 1869.69 -1.09095 -4.84161 0
M  V30 20406 H 1864.94 -2.21449 -5.69886 0
M  V30 20407 H 1869.12 -3.01421 -6.27789 0
M  V30 20408 H 1866.74 -3.5819 -6.70525 0
M  V30 20409 N 1868.32 1.57428 -0.0735454 0
M  V30 20410 C 1869.56 1.94654 0.590036 0
M  V30 20411 C 1869.92 0.953457 1.67114 0
M  V30 20412 O 1869.21 -0.0239893 1.91585 0
M  V30 20413 C 1869.41 3.36302 1.20978 0
M  V30 20414 C 1869.24 4.49297 0.190244 0
M  V30 20415 C 1868.01 5.04796 -0.225707 0
M  V30 20416 C 1870.2 5.11096 -0.573191 0
M  V30 20417 N 1868.19 6.01334 -1.23577 0
M  V30 20418 C 1869.56 6.03149 -1.43568 0
M  V30 20419 C 1871.61 4.9391 -0.629068 0
M  V30 20420 C 1870.31 6.7986 -2.34909 0
M  V30 20421 C 1872.34 5.71266 -1.52999 0
M  V30 20422 C 1871.7 6.62969 -2.38015 0
M  V30 20423 H 1867.8 0.759341 0.186884 0
M  V30 20424 H 1870.39 1.94113 -0.151096 0
M  V30 20425 H 1868.56 3.37578 1.92083 0
M  V30 20426 H 1870.29 3.6076 1.83398 0
M  V30 20427 H 1867.04 4.73337 0.157761 0
M  V30 20428 H 1867.47 6.54301 -1.73836 0
M  V30 20429 H 1872.11 4.22798 0.014025 0
M  V30 20430 H 1869.83 7.50249 -3.00253 0
M  V30 20431 H 1873.41 5.59989 -1.57808 0
M  V30 20432 H 1872.29 7.21781 -3.06597 0
M  V30 20433 N 1869.8 -0.200022 1.56326 0
M  V30 20434 C 1870.74 -1.24792 1.94154 0
M  V30 20435 C 1871.71 -1.45484 0.801474 0
M  V30 20436 O 1872.9 -1.58699 1.05921 0
M  V30 20437 C 1870.04 -2.5887 2.28211 0
M  V30 20438 C 1869.15 -2.45798 3.55257 0
M  V30 20439 C 1868.29 -3.72546 3.78659 0
M  V30 20440 C 1867.33 -3.54286 4.99147 0
M  V30 20441 N 1866.46 -4.73034 5.18829 0
M  V30 20442 H 1871.3 -0.918324 2.83497 0
M  V30 20443 H 1868.84 -0.442097 1.40299 0
M  V30 20444 H 1870.8 -3.36977 2.45972 0
M  V30 20445 H 1869.43 -2.89883 1.42014 0
M  V30 20446 H 1868.48 -1.59013 3.4557 0
M  V30 20447 H 1869.79 -2.28236 4.4352 0
M  V30 20448 H 1868.95 -4.59094 3.96633 0
M  V30 20449 H 1867.68 -3.93057 2.88717 0
M  V30 20450 H 1866.69 -2.66123 4.81102 0
M  V30 20451 H 1867.91 -3.35225 5.90594 0
M  V30 20452 H 1865.86 -4.93818 4.31834 0
M  V30 20453 H 1865.78 -4.58279 6.01262 0
M  V30 20454 H 1867.05 -5.60947 5.41257 0
M  V30 20455 N 1871.27 -1.50505 -0.467553 0
M  V30 20456 C 1872.52 -1.61671 -1.21938 0
M  V30 20457 C 1872.85 -0.318688 -1.91871 0
M  V30 20458 O 1872.1 0.695639 -1.82919 0
M  V30 20459 C 1872.4 -2.74913 -2.28381 0
M  V30 20460 C 1872.07 -4.1527 -1.75674 0
M  V30 20461 C 1870.73 -4.5346 -1.6102 0
M  V30 20462 C 1873.08 -5.02978 -1.3661 0
M  V30 20463 C 1870.41 -5.77094 -1.05732 0
M  V30 20464 C 1872.76 -6.27163 -0.827621 0
M  V30 20465 C 1871.43 -6.64152 -0.667746 0
M  V30 20466 H 1870.7 -0.591596 -0.446201 0
M  V30 20467 H 1873.34 -1.84449 -0.514858 0
M  V30 20468 H 1871.65 -2.46237 -3.04754 0
M  V30 20469 H 1873.35 -2.80756 -2.86317 0
M  V30 20470 H 1869.94 -3.85144 -1.88047 0
M  V30 20471 H 1874.12 -4.74103 -1.46764 0
M  V30 20472 H 1869.38 -6.04424 -0.920946 0
M  V30 20473 H 1873.55 -6.94484 -0.516286 0
M  V30 20474 H 1871.18 -7.5983 -0.237178 0
M  V30 20475 N 1872.75 0.720973 -1.40142 0
M  V30 20476 C 1874 1.4763 -1.37435 0
M  V30 20477 C 1874.31 1.95587 0.0222038 0
M  V30 20478 O 1875.52 2.70955 0.171885 0
M  V30 20479 C 1873.98 2.66828 -2.41517 0
M  V30 20480 C 1873.58 2.25763 -3.86956 0
M  V30 20481 C 1875.33 3.44589 -2.47908 0
M  V30 20482 C 1873.24 3.41768 -4.82648 0
M  V30 20483 H 1872.17 0.554436 -0.510996 0
M  V30 20484 H 1874.82 0.785164 -1.65854 0
M  V30 20485 H 1873.2 3.38086 -2.0619 0
M  V30 20486 H 1874.37 1.61961 -4.31399 0
M  V30 20487 H 1872.69 1.61059 -3.83991 0
M  V30 20488 H 1875.28 4.309 -3.1659 0
M  V30 20489 H 1875.63 3.8803 -1.50792 0
M  V30 20490 H 1876.16 2.80371 -2.822 0
M  V30 20491 H 1872.9 3.03364 -5.81077 0
M  V30 20492 H 1872.42 4.04504 -4.42873 0
M  V30 20493 H 1874.1 4.07909 -5.02214 0
M  V30 20494 N 1874.23 1.25549 0.952634 0
M  V30 20495 C 1875.46 1.13262 1.73743 0
M  V30 20496 C 1875.88 -0.309507 1.85536 0
M  V30 20497 O 1875.24 -1.22422 1.33726 0
M  V30 20498 C 1875.29 1.79395 3.12809 0
M  V30 20499 O 1874.39 1.07496 3.98144 0
M  V30 20500 H 1873.73 0.395314 0.5335 0
M  V30 20501 H 1876.26 1.66151 1.19394 0
M  V30 20502 H 1876.27 1.85761 3.63259 0
M  V30 20503 H 1874.95 2.84316 3.03542 0
M  V30 20504 H 1873.52 1.09025 3.56606 0
M  V30 20505 N 1875.71 -1.15554 1.07168 0
M  V30 20506 C 1877.12 -1.38284 0.796841 0
M  V30 20507 C 1877.32 -1.92366 -0.599782 0
M  V30 20508 O 1876.38 -2.1282 -1.35883 0
M  V30 20509 C 1877.69 -2.35553 1.8691 0
M  V30 20510 C 1879.24 -2.4922 1.89364 0
M  V30 20511 C 1879.72 -3.49778 2.95668 0
M  V30 20512 N 1881.21 -3.57312 2.94759 0
M  V30 20513 C 1881.94 -4.34934 3.73657 0
M  V30 20514 N 1881.44 -5.15905 4.624 0
M  V30 20515 N 1883.23 -4.30004 3.62012 0
M  V30 20516 H 1875.38 -0.787905 1.97246 0
M  V30 20517 H 1877.65 -0.40896 0.855252 0
M  V30 20518 H 1877.35 -2.02927 2.87252 0
M  V30 20519 H 1877.23 -3.3531 1.72763 0
M  V30 20520 H 1879.61 -2.81145 0.896745 0
M  V30 20521 H 1879.69 -1.49468 2.07589 0
M  V30 20522 H 1879.34 -3.18588 3.95556 0
M  V30 20523 H 1879.27 -4.4928 2.74691 0
M  V30 20524 H 1881.76 -2.99518 2.30429 0
M  V30 20525 H 1882.07 -5.72373 5.19238 0
M  V30 20526 H 1880.42 -5.15218 4.6645 0
M  V30 20527 H 1883.61 -3.65811 2.92061 0
M  V30 20528 H 1883.78 -4.90251 4.23743 0
M  V30 20529 N 1877.19 -0.855519 -1.32358 0
M  V30 20530 C 1878.46 -0.380575 -1.91862 0
M  V30 20531 C 1878.84 1.13593 -1.77932 0
M  V30 20532 O 1878.19 1.95797 -1.17796 0
M  V30 20533 C 1878.4 -0.845902 -3.38593 0
M  V30 20534 C 1879.75 -0.863586 -4.15725 0
M  V30 20535 O 1880.77 -0.790597 -3.47315 0
M  V30 20536 O 1879.63 -0.966658 -5.37883 0
M  V30 20537 H 1876.73 -0.111156 -0.819496 0
M  V30 20538 H 1879.27 -0.942476 -1.41122 0
M  V30 20539 H 1878.05 -1.88909 -3.42679 0
M  V30 20540 H 1877.67 -0.2615 -3.96739 0
M  V30 20541 N 1878.67 1.45167 -0.61354 0
M  V30 20542 C 1880.08 1.85674 -0.19544 0
M  V30 20543 C 1880.43 1.51303 1.24908 0
M  V30 20544 O 1879.55 0.94257 1.94794 0
M  V30 20545 C 1880.15 3.37009 -0.347921 0
M  V30 20546 C 1878.71 3.76397 0.0155323 0
M  V30 20547 C 1877.85 2.69095 -0.669578 0
M  V30 20548 H 1880.8 1.35883 -0.819842 0
M  V30 20549 H 1880.83 3.78195 0.418185 0
M  V30 20550 H 1880.34 3.61994 -1.39935 0
M  V30 20551 H 1878.44 3.57028 1.06591 0
M  V30 20552 H 1878.55 4.77573 -0.382267 0
M  V30 20553 H 1876.92 2.54477 -0.10662 0
M  V30 20554 H 1877.7 2.96915 -1.72326 0
M  V30 20555 N 1880.14 0.353044 1.53595 0
M  V30 20556 C 1881.39 -0.240073 2.00669 0
M  V30 20557 C 1881.71 -1.50303 1.24234 0
M  V30 20558 O 1880.98 -1.92709 0.352118 0
M  V30 20559 H 1879.56 -0.0917016 0.74135 0
M  V30 20560 H 1882.22 0.47639 1.88988 0
M  V30 20561 H 1881.32 -0.475869 3.08451 0
M  V30 20562 N 1881.62 -1.57387 0.0818932 0
M  V30 20563 C 1882.87 -1.94964 -0.579705 0
M  V30 20564 C 1883.22 -0.962306 -1.66606 0
M  V30 20565 O 1882.52 0.0138288 -1.91595 0
M  V30 20566 C 1882.71 -3.36939 -1.19193 0
M  V30 20567 C 1882.54 -4.49392 -0.166414 0
M  V30 20568 C 1881.31 -5.04669 0.252475 0
M  V30 20569 C 1883.51 -5.10785 0.600288 0
M  V30 20570 N 1881.49 -6.0067 1.26764 0
M  V30 20571 C 1882.86 -6.02379 1.46765 0
M  V30 20572 C 1884.91 -4.9357 0.655252 0
M  V30 20573 C 1883.62 -6.78605 2.38511 0
M  V30 20574 C 1885.64 -5.70447 1.56026 0
M  V30 20575 C 1885.01 -6.61697 2.41528 0
M  V30 20576 H 1881.1 -0.760321 -0.182854 0
M  V30 20577 H 1883.69 -1.9403 0.161389 0
M  V30 20578 H 1881.86 -3.38591 -1.9029 0
M  V30 20579 H 1883.59 -3.61727 -1.81482 0
M  V30 20580 H 1880.35 -4.73414 -0.132657 0
M  V30 20581 H 1880.77 -6.5337 1.77303 0
M  V30 20582 H 1885.41 -4.22799 0.00839717 0
M  V30 20583 H 1883.13 -7.48646 3.04228 0
M  V30 20584 H 1886.72 -5.59144 1.60776 0
M  V30 20585 H 1885.6 -7.20145 3.1042 0
M  V30 20586 N 1883.1 0.191729 -1.56429 0
M  V30 20587 C 1884.35 0.912948 -1.81089 0
M  V30 20588 C 1884.68 1.82767 -0.656483 0
M  V30 20589 O 1883.95 1.91456 0.342779 0
M  V30 20590 C 1884.24 1.72628 -3.16025 0
M  V30 20591 C 1884.09 0.836045 -4.41962 0
M  V30 20592 C 1885.41 2.69818 -3.47687 0
M  V30 20593 H 1882.53 0.33046 -0.658761 0
M  V30 20594 H 1885.17 0.180148 -1.89144 0
M  V30 20595 H 1883.32 2.35102 -3.09289 0
M  V30 20596 H 1884.99 0.225751 -4.60747 0
M  V30 20597 H 1883.23 0.142944 -4.33564 0
M  V30 20598 H 1883.91 1.44019 -5.32881 0
M  V30 20599 H 1886.38 2.17475 -3.54745 0
M  V30 20600 H 1885.26 3.23806 -4.43216 0
M  V30 20601 H 1885.52 3.49028 -2.71352 0
M  V30 20602 N 1884.58 1.50751 0.459565 0
M  V30 20603 C 1885.49 1.7326 1.58171 0
M  V30 20604 C 1886.5 0.616042 1.6273 0
M  V30 20605 O 1887.68 0.895726 1.80385 0
M  V30 20606 C 1884.74 1.83249 2.94314 0
M  V30 20607 C 1883.81 3.07031 3.00051 0
M  V30 20608 C 1883.04 3.16534 4.297 0
M  V30 20609 O 1883.26 2.32532 5.2085 0
M  V30 20610 O 1882.2 4.0935 4.41266 0
M  V30 20611 H 1886.02 2.68406 1.42098 0
M  V30 20612 H 1883.61 1.34985 0.640273 0
M  V30 20613 H 1885.49 1.91933 3.75153 0
M  V30 20614 H 1884.16 0.912887 3.10561 0
M  V30 20615 H 1883.07 3.0384 2.18248 0
M  V30 20616 H 1884.4 3.98608 2.88743 0
M  V30 20617 O 1886.09 -0.605188 1.49732 0
M  V30 20618 H 1886.79 -1.25982 1.47134 0
M  V30 END ATOM
M  V30 BEGIN BOND
M  V30 END BOND
M  V30 END CTAB
M  END
$$$$
