drugbank_target|P19429 Troponin I, cardiac muscle (DB04513)
 OpenBabel12092119363D

  0  0  0     0  0            999 V3000
M  V30 BEGIN CTAB
M  V30 COUNTS 3434 3452 0 0 0
M  V30 BEGIN ATOM
M  V30 1 H -0.908 1.98254 -0.117106 0
M  V30 2 N 0 1.576 0 0
M  V30 3 C 0.933 2.03868 1.02534 0
M  V30 4 C 1.911 0.928543 1.3348 0
M  V30 5 O 3.095 1.19667 1.45644 0
M  V30 6 C 0.222 2.43627 2.35294 0
M  V30 7 C -0.732 3.65373 2.2001 0
M  V30 8 S 0.101 5.13292 1.52614 0
M  V30 9 C 1.257 5.56322 2.86805 0
M  V30 10 H 1.49 2.90518 0.631377 0
M  V30 11 H -0.977 1.52953 0.210867 0
M  V30 12 H 0.981 2.67203 3.11629 0
M  V30 13 H -0.358 1.57376 2.7183 0
M  V30 14 H -1.165 3.90944 3.18086 0
M  V30 15 H -1.563 3.418 1.51819 0
M  V30 16 H 0.729 5.58782 3.83104 0
M  V30 17 H 1.672 6.56266 2.65933 0
M  V30 18 H 2.08 4.83886 2.90714 0
M  V30 19 N 1.4781 -0.272755 1.55222 0
M  V30 20 C 2.4411 -1.32041 1.87344 0
M  V30 21 C 3.4411 -1.42342 0.74803 0
M  V30 22 O 4.6311 -1.41488 1.0162 0
M  V30 23 C 1.7631 -2.70173 2.07893 0
M  V30 24 H 2.9561 -1.04789 2.80997 0
M  V30 25 H 0.5091 -0.51083 1.47717 0
M  V30 26 H 1.2441 -3.02605 1.16622 0
M  V30 27 H 1.0291 -2.64082 2.89833 0
M  V30 28 H 2.5191 -3.45869 2.34017 0
M  V30 29 N 2.9562 -1.48159 -0.537278 0
M  V30 30 C 4.2332 -1.46291 -1.29839 0
M  V30 31 C 4.6132 -0.170613 -2.10409 0
M  V30 32 O 3.9612 0.847746 -2.12192 0
M  V30 33 C 4.1712 -2.72055 -2.18603 0
M  V30 34 C 5.5192 -3.20087 -2.7898 0
M  V30 35 O 6.5432 -2.72921 -2.28894 0
M  V30 36 O 5.4022 -4.02138 -3.70064 0
M  V30 37 H 2.4962 -0.583906 -0.585647 0
M  V30 38 H 5.0422 -1.60384 -0.554534 0
M  V30 39 H 3.8142 -3.57628 -1.58801 0
M  V30 40 H 3.4372 -2.60646 -3.00249 0
M  V30 41 N 4.4343 0.785586 -1.36625 0
M  V30 42 C 5.6823 1.54057 -1.30808 0
M  V30 43 C 6.0033 1.94683 0.111157 0
M  V30 44 O 5.2733 1.65241 1.05224 0
M  V30 45 H 3.8533 0.571354 -0.481211 0
M  V30 46 H 6.5153 0.935821 -1.70963 0
M  V30 47 H 5.6113 2.44637 -1.93801 0
M  V30 48 N 5.9124 1.20967 1.01018 0
M  V30 49 C 7.1374 1.0503 1.78839 0
M  V30 50 C 7.5624 -0.395752 1.8389 0
M  V30 51 O 6.9204 -1.28529 1.27867 0
M  V30 52 C 6.9684 1.64602 3.2084 0
M  V30 53 O 6.0724 0.887988 4.02726 0
M  V30 54 H 5.4134 0.369987 0.551367 0
M  V30 55 H 7.9434 1.60399 1.27018 0
M  V30 56 H 7.9534 1.68607 3.71532 0
M  V30 57 H 6.6284 2.69841 3.16479 0
M  V30 58 H 5.2054 0.922648 3.61305 0
M  V30 59 N 7.3905 -1.2043 1.01659 0
M  V30 60 C 8.6155 -1.94318 0.724942 0
M  V30 61 C 9.0405 -1.74266 -0.708034 0
M  V30 62 O 8.3985 -1.03694 -1.48719 0
M  V30 63 C 8.4465 -3.44486 1.06591 0
M  V30 64 O 7.5505 -4.12017 0.177599 0
M  V30 65 H 6.8915 -0.60708 0.26898 0
M  V30 66 H 9.4215 -1.52861 1.35995 0
M  V30 67 H 9.4315 -3.95106 1.01762 0
M  V30 68 H 8.1065 -3.58404 2.10997 0
M  V30 69 H 6.6835 -3.71821 0.283421 0
M  V30 70 N 8.8686 -0.792821 -1.36206 0
M  V30 71 C 10.1456 -0.290627 -1.93429 0
M  V30 72 C 10.5256 1.21773 -1.72437 0
M  V30 73 O 9.8736 2.0108 -1.08531 0
M  V30 74 C 10.0836 -0.686973 -3.42172 0
M  V30 75 C 11.4316 -0.668643 -4.19302 0
M  V30 76 O 12.4556 -0.627658 -3.50626 0
M  V30 77 O 11.3146 -0.714597 -5.41808 0
M  V30 78 H 8.4086 -0.0727927 -0.82379 0
M  V30 79 H 10.9546 -0.875593 -1.45367 0
M  V30 80 H 9.7266 -1.72711 -3.51122 0
M  V30 81 H 9.3496 -0.0760733 -3.97527 0
M  V30 82 N 10.3467 1.47872 -0.545128 0
M  V30 83 C 11.3097 2.28337 0.198717 0
M  V30 84 C 12.3097 1.36255 0.853888 0
M  V30 85 O 13.4997 1.59003 0.711606 0
M  V30 86 C 10.6317 3.15585 1.28915 0
M  V30 87 H 11.8247 2.95567 -0.507941 0
M  V30 88 H 9.3777 1.53362 -0.301616 0
M  V30 89 H 10.1127 2.53019 2.02859 0
M  V30 90 H 9.8977 3.83337 0.824309 0
M  V30 91 H 11.3877 3.76243 1.81194 0
M  V30 92 N 11.8248 0.280983 1.55075 0
M  V30 93 C 12.7878 -0.590896 2.21452 0
M  V30 94 C 13.7878 -1.07682 1.19421 0
M  V30 95 O 14.9778 -0.97605 1.44288 0
M  V30 96 C 12.1098 -1.81587 2.88511 0
M  V30 97 H 13.3028 -0.0112554 2.99898 0
M  V30 98 H 10.8558 0.0316438 1.56268 0
M  V30 99 H 11.5908 -2.43587 2.14093 0
M  V30 100 H 11.3758 -1.4753 3.63287 0
M  V30 101 H 12.8658 -2.43575 3.39206 0
M  V30 102 N 13.3029 -1.57598 0.00835791 0
M  V30 103 C 14.7189 -1.55764 -0.347822 0
M  V30 104 C 14.9189 -1.01186 -1.74252 0
M  V30 105 O 13.9749 -0.649371 -2.44007 0
M  V30 106 C 15.2879 -2.99927 -0.215407 0
M  V30 107 C 16.8359 -3.11656 -0.289725 0
M  V30 108 C 17.3109 -4.57621 -0.18634 0
M  V30 109 N 18.8019 -4.62557 -0.243978 0
M  V30 110 C 19.5369 -5.73094 -0.18745 0
M  V30 111 N 19.0329 -6.92753 -0.0810331 0
M  V30 112 N 20.8259 -5.61588 -0.239925 0
M  V30 113 H 12.9769 -1.91411 0.92062 0
M  V30 114 H 15.2399 -0.879562 0.353659 0
M  V30 115 H 14.9459 -3.43729 0.744512 0
M  V30 116 H 14.8199 -3.63865 -0.994097 0
M  V30 117 H 17.2069 -2.67779 -1.24009 0
M  V30 118 H 17.2879 -2.5048 0.51898 0
M  V30 119 H 16.9319 -5.02174 0.760519 0
M  V30 120 H 16.8619 -5.16752 -1.01364 0
M  V30 121 H 19.3529 -3.76481 -0.327217 0
M  V30 122 H 19.6659 -7.72787 -0.0440241 0
M  V30 123 H 18.0109 -6.94984 -0.0465419 0
M  V30 124 H 21.2019 -4.66996 -0.321317 0
M  V30 125 H 21.3749 -6.47714 -0.192407 0
M  V30 126 N 14.781 0.264519 -1.55364 0
M  V30 127 C 15.691 1.34902 -1.91934 0
M  V30 128 C 16.707 1.53595 -0.817593 0
M  V30 129 O 17.883 1.67558 -1.11742 0
M  V30 130 C 14.948 2.68676 -2.19121 0
M  V30 131 C 14.009 2.58657 -3.4263 0
M  V30 132 C 13.242 3.86051 -3.68511 0
M  V30 133 O 13.465 4.87126 -2.96757 0
M  V30 134 O 12.399 3.85744 -4.62045 0
M  V30 135 H 16.225 1.06883 -2.8427 0
M  V30 136 H 13.81 0.463775 -1.42019 0
M  V30 137 H 15.692 3.47759 -2.37995 0
M  V30 138 H 14.367 2.96463 -1.29966 0
M  V30 139 H 13.274 1.7792 -3.29082 0
M  V30 140 H 14.607 2.35818 -4.32031 0
M  V30 141 N 16.2591 1.48442 0.529413 0
M  V30 142 C 17.6701 1.5002 1.11134 0
M  V30 143 C 18.0211 0.27031 1.94329 0
M  V30 144 O 17.1461 -0.622507 2.07253 0
M  V30 145 C 17.7411 2.71834 2.02217 0
M  V30 146 C 16.3001 2.76283 2.55627 0
M  V30 147 C 15.4471 2.43542 1.326 0
M  V30 148 H 18.3981 1.5555 0.314641 0
M  V30 149 H 18.4191 2.50384 2.8651 0
M  V30 150 H 17.9311 3.61331 1.41639 0
M  V30 151 H 16.0321 1.90995 3.19924 0
M  V30 152 H 16.1451 3.77725 2.94721 0
M  V30 153 H 14.5091 1.94709 1.64196 0
M  V30 154 H 15.2921 3.3528 0.737734 0
M  V30 155 N 17.7372 -0.778329 1.37039 0
M  V30 156 C 19.1532 -1.07796 1.17695 0
M  V30 157 C 19.3532 -2.01498 0.00860115 0
M  V30 158 O 18.4092 -2.43901 -0.653352 0
M  V30 159 C 19.7222 -1.68178 2.49272 0
M  V30 160 C 21.2702 -1.80467 2.55735 0
M  V30 161 C 21.7452 -2.44263 3.87427 0
M  V30 162 N 23.2362 -2.51721 3.88833 0
M  V30 163 C 23.9712 -3.01919 4.87476 0
M  V30 164 N 23.4672 -3.5234 5.96513 0
M  V30 165 N 25.2602 -3.00733 4.74885 0
M  V30 166 H 17.4112 -0.156032 2.11826 0
M  V30 167 H 19.6742 -0.131844 0.938787 0
M  V30 168 H 19.3802 -1.06796 3.35093 0
M  V30 169 H 19.2542 -2.67554 2.65885 0
M  V30 170 H 21.6412 -2.40984 1.70325 0
M  V30 171 H 21.7222 -0.798656 2.43013 0
M  V30 172 H 21.3662 -1.84388 4.73248 0
M  V30 173 H 21.2962 -3.45458 3.9745 0
M  V30 174 H 23.7872 -2.1603 3.10063 0
M  V30 175 H 24.1002 -3.89027 6.67741 0
M  V30 176 H 22.4452 -3.50462 6.00168 0
M  V30 177 H 25.6362 -2.60638 3.88826 0
M  V30 178 H 25.8092 -3.39545 5.51918 0
M  V30 179 N 19.2153 -1.21501 -1.00376 0
M  V30 180 C 20.6263 -1.03146 -1.55621 0
M  V30 181 C 20.9773 0.408375 -1.91903 0
M  V30 182 O 20.1023 1.29177 -1.73616 0
M  V30 183 C 20.6973 -1.86612 -2.82775 0
M  V30 184 C 19.2563 -1.72586 -3.34501 0
M  V30 185 C 18.4033 -1.83747 -2.07683 0
M  V30 186 H 21.3543 -1.35505 -0.826081 0
M  V30 187 H 21.3753 -1.3771 -3.54706 0
M  V30 188 H 20.8873 -2.91399 -2.56336 0
M  V30 189 H 18.9883 -0.704877 -3.65872 0
M  V30 190 H 19.1013 -2.54623 -4.05837 0
M  V30 191 H 17.4653 -1.27069 -2.20739 0
M  V30 192 H 18.2483 -2.90044 -1.83655 0
M  V30 193 N 20.6934 1.19889 -1.02296 0
M  V30 194 C 21.6564 2.21116 -0.603351 0
M  V30 195 C 22.6564 1.5738 0.329884 0
M  V30 196 O 23.8464 1.73802 0.117702 0
M  V30 197 C 20.9784 3.40696 0.117992 0
M  V30 198 H 22.1714 2.59754 -1.49893 0
M  V30 199 H 19.7244 1.33463 -0.813468 0
M  V30 200 H 20.4594 3.07569 1.0282 0
M  V30 201 H 20.2444 3.88188 -0.552511 0
M  V30 202 H 21.7344 4.15692 0.398696 0
M  V30 203 N 22.1715 0.800033 1.35784 0
M  V30 204 C 23.5825 0.439142 1.81462 0
M  V30 205 C 23.9335 -1.03813 1.66485 0
M  V30 206 O 23.0585 -1.80626 1.19177 0
M  V30 207 C 23.6535 0.790314 3.29453 0
M  V30 208 C 22.2125 0.482111 3.733 0
M  V30 209 C 21.3595 1.01938 2.57883 0
M  V30 210 H 24.3105 0.992254 1.23855 0
M  V30 211 H 24.3315 0.0853677 3.80404 0
M  V30 212 H 23.8435 1.86554 3.40322 0
M  V30 213 H 21.9445 -0.584652 3.67984 0
M  V30 214 H 22.0575 1.01015 4.6833 0
M  V30 215 H 20.4215 0.442043 2.50835 0
M  V30 216 H 21.2045 2.10059 2.71533 0
M  V30 217 N 23.6496 -1.47581 0.552962 0
M  V30 218 C 24.6126 -2.28439 -0.186605 0
M  V30 219 C 25.6126 -1.36706 -0.84665 0
M  V30 220 O 26.8026 -1.59378 -0.703164 0
M  V30 221 C 23.9346 -3.16264 -1.2724 0
M  V30 222 H 25.1276 -2.95294 0.523609 0
M  V30 223 H 22.6806 -1.532 0.309745 0
M  V30 224 H 23.4156 -2.54091 -2.01514 0
M  V30 225 H 23.2006 -3.83769 -0.803968 0
M  V30 226 H 24.6906 -3.77198 -1.79196 0
M  V30 227 N 25.1277 -0.289203 -1.54924 0
M  V30 228 C 26.5387 0.205791 -1.85562 0
M  V30 229 C 26.8897 1.54351 -1.2112 0
M  V30 230 O 26.0147 2.10435 -0.504601 0
M  V30 231 C 26.6097 0.380177 -3.3666 0
M  V30 232 C 25.1687 0.819395 -3.67373 0
M  V30 233 C 24.3157 -0.079159 -2.77187 0
M  V30 234 H 27.2667 -0.510577 -1.50262 0
M  V30 235 H 27.2877 1.21659 -3.60526 0
M  V30 236 H 26.7997 -0.593589 -3.83534 0
M  V30 237 H 24.9007 1.80413 -3.26009 0
M  V30 238 H 25.0137 0.646957 -4.74712 0
M  V30 239 H 23.3777 0.439565 -2.50878 0
M  V30 240 H 24.1607 -1.04906 -3.26878 0
M  V30 241 N 26.6058 1.57591 -0.0167156 0
M  V30 242 C 27.8548 1.90461 0.663877 0
M  V30 243 C 28.1678 0.893515 1.73999 0
M  V30 244 O 29.3738 1.11302 2.47637 0
M  V30 245 C 27.8298 3.38155 1.23204 0
M  V30 246 C 27.4378 4.47597 0.189866 0
M  V30 247 C 29.1818 3.80111 1.88986 0
M  V30 248 C 27.0888 5.86379 0.768964 0
M  V30 249 H 26.0188 0.710738 0.251729 0
M  V30 250 H 28.6698 1.83326 -0.0799926 0
M  V30 251 H 27.0518 3.40182 2.02712 0
M  V30 252 H 28.2258 4.57112 -0.581846 0
M  V30 253 H 26.5408 4.14766 -0.368475 0
M  V30 254 H 29.1378 4.81145 2.33247 0
M  V30 255 H 29.4808 3.14511 2.72743 0
M  V30 256 H 30.0138 3.80454 1.16187 0
M  V30 257 H 26.7528 6.55493 -0.0301957 0
M  V30 258 H 26.2728 5.80496 1.50945 0
M  V30 259 H 27.9518 6.34563 1.26251 0
M  V30 260 N 28.0839 -0.256276 1.55502 0
M  V30 261 C 29.4999 -0.604325 1.47716 0
M  V30 262 C 29.6999 -1.88763 0.705039 0
M  V30 263 O 28.7559 -2.51445 0.230613 0
M  V30 264 C 30.0689 -0.715756 2.92057 0
M  V30 265 C 31.6169 -0.808706 3.02372 0
M  V30 266 C 32.0919 -0.951777 4.48001 0
M  V30 267 N 33.5829 -1.01688 4.519 0
M  V30 268 C 34.3179 -1.14668 5.61817 0
M  V30 269 N 33.8139 -1.24261 6.81565 0
M  V30 270 N 35.6069 -1.1791 5.49594 0
M  V30 271 H 27.7579 0.586291 2.04148 0
M  V30 272 H 30.0209 0.201015 0.926443 0
M  V30 273 H 29.7269 0.157027 3.51349 0
M  V30 274 H 29.6009 -1.59071 3.42018 0
M  V30 275 H 31.9879 -1.67195 2.43166 0
M  V30 276 H 32.0689 0.0912063 2.55637 0
M  V30 277 H 31.7129 -0.0931291 5.07815 0
M  V30 278 H 31.6429 -1.86659 4.92408 0
M  V30 279 H 34.1339 -0.954468 3.65648 0
M  V30 280 H 34.4469 -1.34046 7.61086 0
M  V30 281 H 32.7919 -1.21236 6.84344 0
M  V30 282 H 35.9829 -1.10057 4.54978 0
M  V30 283 H 36.1559 -1.27681 6.35296 0
M  V30 284 N 29.562 -1.4872 -0.521534 0
M  V30 285 C 30.978 -1.35028 -0.850855 0
M  V30 286 C 31.178 -0.367712 -1.98116 0
M  V30 287 O 30.234 0.208037 -2.51642 0
M  V30 288 C 31.547 -2.75263 -1.21041 0
M  V30 289 C 33.095 -2.83813 -1.31981 0
M  V30 290 C 33.57 -4.24769 -1.71276 0
M  V30 291 N 35.061 -4.27482 -1.78363 0
M  V30 292 C 35.796 -5.33494 -2.1017 0
M  V30 293 N 35.292 -6.49775 -2.40343 0
M  V30 294 N 37.085 -5.20894 -2.11248 0
M  V30 295 H 29.236 -2.11214 0.22413 0
M  V30 296 H 31.499 -0.947252 0.0376439 0
M  V30 297 H 31.205 -3.48765 -0.453415 0
M  V30 298 H 31.079 -3.09327 -2.15863 0
M  V30 299 H 33.466 -2.10561 -2.06756 0
M  V30 300 H 33.547 -2.53358 -0.352596 0
M  V30 301 H 33.191 -4.9854 -0.970588 0
M  V30 302 H 33.121 -4.52673 -2.69062 0
M  V30 303 H 35.612 -3.43611 -1.57288 0
M  V30 304 H 35.925 -7.26402 -2.63743 0
M  V30 305 H 34.27 -6.53035 -2.37844 0
M  V30 306 H 37.461 -4.29065 -1.87139 0
M  V30 307 H 37.634 -6.03612 -2.35704 0
M  V30 308 N 31.0401 0.771051 -1.3745 0
M  V30 309 C 32.4561 1.07171 -1.18265 0
M  V30 310 C 32.6561 2.01491 -0.019287 0
M  V30 311 O 31.7121 2.44244 0.640408 0
M  V30 312 C 33.0251 1.66854 -2.50161 0
M  V30 313 C 34.5731 1.79109 -2.56689 0
M  V30 314 C 35.0481 2.42205 -3.88717 0
M  V30 315 N 36.5391 2.49655 -3.90162 0
M  V30 316 C 37.2741 2.9933 -4.8907 0
M  V30 317 N 36.7701 3.49172 -5.98374 0
M  V30 318 N 38.5631 2.9821 -4.76474 0
M  V30 319 H 30.7141 0.144796 -2.11906 0
M  V30 320 H 32.9771 0.126863 -0.939473 0
M  V30 321 H 32.6831 1.05017 -3.35655 0
M  V30 322 H 32.5571 2.6614 -2.673 0
M  V30 323 H 34.9441 2.40077 -1.71601 0
M  V30 324 H 35.0251 0.785757 -2.43433 0
M  V30 325 H 34.6691 1.81875 -4.74219 0
M  V30 326 H 34.5991 3.43345 -3.99276 0
M  V30 327 H 37.0901 2.14383 -3.11205 0
M  V30 328 H 37.4031 3.8548 -6.69795 0
M  V30 329 H 35.7481 3.47275 -6.02018 0
M  V30 330 H 38.9391 2.58572 -3.90203 0
M  V30 331 H 39.1121 3.36613 -5.53711 0
M  V30 332 N 32.5182 1.22032 0.997298 0
M  V30 333 C 33.7432 1.06921 1.77715 0
M  V30 334 C 34.1682 -0.376226 1.84299 0
M  V30 335 O 33.5262 -1.27165 1.29223 0
M  V30 336 C 33.5742 1.67996 3.19076 0
M  V30 337 O 32.6782 0.930653 4.01762 0
M  V30 338 H 32.0192 0.375814 0.547412 0
M  V30 339 H 34.5492 1.61737 1.25309 0
M  V30 340 H 34.5592 1.72538 3.69723 0
M  V30 341 H 33.2342 2.73182 3.13599 0
M  V30 342 H 31.8112 0.960917 3.60307 0
M  V30 343 N 33.9963 -1.19345 1.0293 0
M  V30 344 C 35.2213 -1.93538 0.745511 0
M  V30 345 C 35.6463 -1.75007 -0.689511 0
M  V30 346 O 35.0043 -1.05265 -1.47611 0
M  V30 347 C 35.0523 -3.43336 1.10239 0
M  V30 348 O 34.1563 -4.11806 0.221289 0
M  V30 349 H 33.4973 -0.604193 0.275404 0
M  V30 350 H 36.0273 -1.5141 1.37609 0
M  V30 351 H 36.0373 -3.94004 1.05947 0
M  V30 352 H 34.7123 -3.56146 2.14786 0
M  V30 353 H 33.2893 -3.715 0.322842 0
M  V30 354 N 35.4744 -0.807222 -1.35358 0
M  V30 355 C 36.4224 -0.20614 -2.31685 0
M  V30 356 C 37.4164 0.644445 -1.56663 0
M  V30 357 O 38.6224 0.537538 -1.71786 0
M  V30 358 H 34.9974 -0.0479006 -0.750473 0
M  V30 359 H 36.9684 -1.03369 -2.79924 0
M  V30 360 C 35.7174 0.630212 -3.41941 0
M  V30 361 H 35.0404 -0.0149558 -3.99797 0
M  V30 362 H 36.4804 1.01716 -4.11619 0
M  V30 363 C 34.9394 1.79601 -2.85035 0
M  V30 364 O 35.4694 2.89351 -2.78637 0
M  V30 365 N 33.6754 1.60774 -2.42074 0
M  V30 366 H 33.2224 0.715009 -2.47478 0
M  V30 367 H 33.1804 2.38933 -2.04349 0
M  V30 368 N 36.9525 1.47285 -0.560781 0
M  V30 369 C 38.1825 2.06555 -0.0429638 0
M  V30 370 C 38.5905 1.41339 1.25777 0
M  V30 371 O 37.9335 0.505182 1.76617 0
M  V30 372 C 37.9955 3.58827 0.219887 0
M  V30 373 C 37.6595 4.46105 -0.991944 0
M  V30 374 C 38.6565 4.84 -1.89843 0
M  V30 375 C 36.3415 4.87567 -1.20762 0
M  V30 376 C 38.3355 5.6216 -3.00425 0
M  V30 377 C 36.0225 5.65491 -2.31653 0
M  V30 378 C 37.0205 6.02699 -3.21315 0
M  V30 379 O 36.7085 6.79052 -4.30283 0
M  V30 380 H 36.4405 0.674537 -0.0444468 0
M  V30 381 H 38.9945 1.90225 -0.774818 0
M  V30 382 H 37.2245 3.73383 1.00609 0
M  V30 383 H 38.9135 4.00103 0.683522 0
M  V30 384 H 39.6795 4.52564 -1.74387 0
M  V30 385 H 35.5585 4.5807 -0.518893 0
M  V30 386 H 39.1025 5.9112 -3.70436 0
M  V30 387 H 34.9995 5.9634 -2.47081 0
M  V30 388 H 35.7675 6.9745 -4.28376 0
M  V30 389 N 38.4306 0.297415 1.54768 0
M  V30 390 C 39.8466 -0.0560823 1.59501 0
M  V30 391 C 40.0466 -1.52725 1.31444 0
M  V30 392 O 39.1026 -2.27947 1.08611 0
M  V30 393 C 40.4156 0.338631 2.98787 0
M  V30 394 C 41.9636 0.287097 3.11681 0
M  V30 395 C 42.4386 0.656579 4.53269 0
M  V30 396 N 43.9296 0.608977 4.59179 0
M  V30 397 C 44.6646 0.867385 5.66802 0
M  V30 398 N 44.1606 1.19157 6.82476 0
M  V30 399 N 45.9536 0.794687 5.56454 0
M  V30 400 H 38.1046 1.25624 1.71267 0
M  V30 401 H 40.3676 0.509057 0.799728 0
M  V30 402 H 40.0736 1.36263 3.2423 0
M  V30 403 H 39.9476 -0.309508 3.75928 0
M  V30 404 H 42.3346 -0.727649 2.85988 0
M  V30 405 H 42.4156 0.969809 2.36703 0
M  V30 406 H 42.0596 1.66912 4.7969 0
M  V30 407 H 41.9896 -0.0481649 5.26578 0
M  V30 408 H 44.4806 0.369198 3.76092 0
M  V30 409 H 44.7936 1.37482 7.60473 0
M  V30 410 H 43.1386 1.22958 6.84037 0
M  V30 411 H 46.3296 0.541098 4.64962 0
M  V30 412 H 46.5026 0.999445 6.40246 0
M  V30 413 N 39.9087 -1.5758 0.0250728 0
M  V30 414 C 40.8717 -2.08896 -0.943139 0
M  V30 415 C 41.8717 -1.00321 -1.25668 0
M  V30 416 O 43.0617 -1.26495 -1.19769 0
M  V30 417 C 40.1937 -2.55143 -2.26086 0
M  V30 418 H 41.3867 -2.95723 -0.498775 0
M  V30 419 H 38.9397 -1.54703 -0.222888 0
M  V30 420 H 39.6747 -1.71633 -2.75159 0
M  V30 421 H 39.4597 -3.34461 -2.04641 0
M  V30 422 H 40.9497 -2.95083 -2.95492 0
M  V30 423 N 41.3868 0.248026 -1.55636 0
M  V30 424 C 42.6168 0.992367 -1.81206 0
M  V30 425 C 43.0248 1.7949 -0.598324 0
M  V30 426 O 42.3678 1.78292 0.442434 0
M  V30 427 C 42.4298 1.97926 -3.00109 0
M  V30 428 C 42.0938 1.36377 -4.36177 0
M  V30 429 C 43.0908 0.76682 -5.14214 0
M  V30 430 C 40.7758 1.38347 -4.82872 0
M  V30 431 C 42.7698 0.197778 -6.37093 0
M  V30 432 C 40.4568 0.810574 -6.057 0
M  V30 433 C 41.4548 0.218754 -6.8265 0
M  V30 434 O 41.1428 -0.345298 -8.03158 0
M  V30 435 H 40.8748 0.297704 -0.606917 0
M  V30 436 H 43.4288 0.276517 -2.0353 0
M  V30 437 H 41.6588 2.73339 -2.73538 0
M  V30 438 H 43.3478 2.58694 -3.12781 0
M  V30 439 H 44.1138 0.744114 -4.79258 0
M  V30 440 H 39.9928 1.8335 -4.2297 0
M  V30 441 H 43.5368 -0.264788 -6.97097 0
M  V30 442 H 39.4338 0.830604 -6.40134 0
M  V30 443 H 40.2018 -0.237055 -8.18157 0
M  V30 444 N 42.8649 1.48995 0.513639 0
M  V30 445 C 43.8279 1.64229 1.59879 0
M  V30 446 C 44.8279 0.514696 1.5234 0
M  V30 447 O 46.0179 0.78087 1.55718 0
M  V30 448 C 43.1499 1.62783 2.99524 0
M  V30 449 H 44.3429 2.61004 1.47705 0
M  V30 450 H 41.8959 1.37837 0.736936 0
M  V30 451 H 42.6309 0.675461 3.17188 0
M  V30 452 H 42.4159 2.4466 3.06404 0
M  V30 453 H 43.9059 1.76669 3.78388 0
M  V30 454 N 44.343 -0.763751 1.37857 0
M  V30 455 C 45.571 -1.55293 1.36718 0
M  V30 456 C 45.986 -1.88745 -0.0455434 0
M  V30 457 O 45.343 -1.52039 -1.00947 0
M  V30 458 C 45.394 -2.85831 2.2132 0
M  V30 459 O 45.115 -2.5381 3.57089 0
M  V30 460 C 46.616 -3.80023 2.28249 0
M  V30 461 H 43.836 -0.480841 0.468009 0
M  V30 462 H 46.38 -0.946009 1.81303 0
M  V30 463 H 44.535 -3.42926 1.80223 0
M  V30 464 H 44.949 -3.37459 4.01524 0
M  V30 465 H 46.423 -4.68599 2.91752 0
M  V30 466 H 46.9 -4.1973 1.2932 0
M  V30 467 H 47.506 -3.28855 2.69693 0
M  V30 468 N 45.8211 -1.22559 -0.990812 0
M  V30 469 C 46.7311 -1.01394 -2.11557 0
M  V30 470 C 47.7471 0.0383962 -1.73958 0
M  V30 471 O 48.9231 -0.154787 -2.00804 0
M  V30 472 C 45.9881 -0.596569 -3.41529 0
M  V30 473 C 45.0491 -1.72276 -3.93217 0
M  V30 474 C 44.2821 -1.32521 -5.16985 0
M  V30 475 O 44.5051 -0.204909 -5.70032 0
M  V30 476 O 43.4391 -2.14247 -5.62478 0
M  V30 477 H 47.2651 -1.95633 -2.32296 0
M  V30 478 H 44.8501 -1.01172 -1.0993 0
M  V30 479 H 46.7321 -0.374263 -4.19735 0
M  V30 480 H 45.4071 0.316939 -3.22145 0
M  V30 481 H 44.3141 -1.99961 -3.16174 0
M  V30 482 H 45.6471 -2.61421 -4.17037 0
M  V30 483 N 47.2992 1.18797 -1.03562 0
M  V30 484 C 48.7102 1.70322 -0.764676 0
M  V30 485 C 49.0612 1.82708 0.714996 0
M  V30 486 O 48.1862 1.50299 1.55689 0
M  V30 487 C 48.7812 3.09356 -1.38145 0
M  V30 488 C 47.3402 3.58114 -1.15895 0
M  V30 489 C 46.4872 2.34798 -1.4753 0
M  V30 490 H 49.4382 1.03543 -1.20268 0
M  V30 491 H 49.4592 3.72378 -0.781977 0
M  V30 492 H 48.9712 3.00309 -2.45837 0
M  V30 493 H 47.0722 3.72464 -0.100544 0
M  V30 494 H 47.1852 4.4184 -1.8524 0
M  V30 495 H 45.5492 2.38464 -0.894829 0
M  V30 496 H 46.3322 2.28375 -2.56319 0
M  V30 497 N 48.7773 0.814389 1.34928 0
M  V30 498 C 49.7273 0.202752 2.27097 0
M  V30 499 C 50.7113 -0.62799 1.48139 0
M  V30 500 O 51.9033 -0.483969 1.70255 0
M  V30 501 C 49.0323 -0.64146 3.37254 0
M  V30 502 C 48.1183 0.19944 4.23631 0
M  V30 503 N 48.5093 1.26628 4.89693 0
M  V30 504 C 46.8073 -0.0176433 4.45997 0
M  V30 505 C 47.5083 1.78031 5.53787 0
M  V30 506 N 46.4843 1.08553 5.32651 0
M  V30 507 H 50.2863 1.01893 2.75672 0
M  V30 508 H 47.8003 0.656332 1.48546 0
M  V30 509 H 49.7973 -1.09575 4.02243 0
M  V30 510 H 48.4573 -1.4559 2.9023 0
M  V30 511 H 49.4683 1.64901 4.90946 0
M  V30 512 H 46.1453 -0.800601 4.09752 0
M  V30 513 H 47.5353 2.67236 6.16469 0
M  V30 514 N 50.2554 -1.46986 0.568584 0
M  V30 515 C 51.2184 -2.28624 -0.162366 0
M  V30 516 C 52.2184 -1.37596 -0.832103 0
M  V30 517 O 53.4084 -1.60115 -0.68622 0
M  V30 518 C 50.5404 -3.17596 -1.23878 0
M  V30 519 H 51.7334 -2.94722 0.554899 0
M  V30 520 H 49.2864 -1.52863 0.325976 0
M  V30 521 H 50.0214 -2.56214 -1.98808 0
M  V30 522 H 49.8064 -3.846 -0.763219 0
M  V30 523 H 51.2964 -3.79078 -1.75185 0
M  V30 524 N 51.7335 -0.305618 -1.54608 0
M  V30 525 C 52.6805 0.568421 -2.23691 0
M  V30 526 C 53.6505 1.12592 -1.22116 0
M  V30 527 O 54.8355 1.16959 -1.50749 0
M  V30 528 C 51.9755 1.7322 -2.98477 0
M  V30 529 C 51.0885 1.20566 -4.14835 0
M  V30 530 C 50.2235 2.33368 -4.77193 0
M  V30 531 C 49.2625 1.7787 -5.85686 0
M  V30 532 N 48.3995 2.84263 -6.4198 0
M  V30 533 H 53.2395 -0.0272867 -2.97988 0
M  V30 534 H 50.7765 -0.0252363 -1.47078 0
M  V30 535 H 52.7345 2.41675 -3.40072 0
M  V30 536 H 51.3645 2.29947 -2.26548 0
M  V30 537 H 50.4165 0.413223 -3.78149 0
M  V30 538 H 51.7285 0.759417 -4.92985 0
M  V30 539 H 50.8825 3.09761 -5.21664 0
M  V30 540 H 49.6215 2.8132 -3.98385 0
M  V30 541 H 48.6265 0.99968 -5.40635 0
M  V30 542 H 49.8515 1.30816 -6.66381 0
M  V30 543 H 47.7975 3.31541 -5.66053 0
M  V30 544 H 47.7145 2.44149 -7.15491 0
M  V30 545 H 48.9825 3.6054 -6.91109 0
M  V30 546 N 53.2116 1.57565 -0.0334293 0
M  V30 547 C 54.1586 2.10478 0.946981 0
M  V30 548 C 55.1286 1.00787 1.32027 0
M  V30 549 O 56.3136 1.28232 1.41284 0
M  V30 550 C 53.4536 2.63994 2.22263 0
M  V30 551 C 52.5666 3.87709 1.90541 0
M  V30 552 C 51.7016 4.29604 3.12433 0
M  V30 553 C 50.7406 5.46065 2.76549 0
M  V30 554 N 49.8776 5.83096 3.9108 0
M  V30 555 H 54.7176 2.93963 0.488846 0
M  V30 556 H 52.2546 1.45296 0.22969 0
M  V30 557 H 54.2126 2.93114 2.96884 0
M  V30 558 H 52.8426 1.83333 2.65685 0
M  V30 559 H 51.8946 3.65291 1.06144 0
M  V30 560 H 53.2066 4.72403 1.60116 0
M  V30 561 H 52.3606 4.60182 3.9537 0
M  V30 562 H 51.0996 3.43685 3.46023 0
M  V30 563 H 50.1046 5.15176 1.92026 0
M  V30 564 H 51.3296 6.33685 2.44171 0
M  V30 565 H 49.2756 5.00132 4.24504 0
M  V30 566 H 49.1926 6.6244 3.64293 0
M  V30 567 H 50.4606 6.18282 4.74708 0
M  V30 568 N 54.6897 -0.239769 1.55765 0
M  V30 569 C 55.6367 -1.29696 1.90913 0
M  V30 570 C 56.6067 -1.47478 0.764164 0
M  V30 571 O 57.7917 -1.61345 1.01845 0
M  V30 572 C 54.9317 -2.64598 2.21544 0
M  V30 573 C 54.0447 -2.54765 3.48882 0
M  V30 574 C 53.1797 -3.82069 3.69049 0
M  V30 575 C 52.2187 -3.66883 4.89963 0
M  V30 576 N 51.3557 -4.86094 5.06614 0
M  V30 577 H 56.1957 -0.990224 2.81067 0
M  V30 578 H 53.7327 -0.477684 1.39128 0
M  V30 579 H 55.6907 -3.43132 2.3731 0
M  V30 580 H 54.3207 -2.93405 1.34585 0
M  V30 581 H 53.3727 -1.67763 3.41409 0
M  V30 582 H 54.6847 -2.39457 4.37563 0
M  V30 583 H 53.8387 -4.69046 3.84812 0
M  V30 584 H 52.5777 -4.00282 2.78614 0
M  V30 585 H 51.5827 -2.78289 4.74168 0
M  V30 586 H 52.8077 -3.50157 5.81865 0
M  V30 587 H 50.7537 -5.04655 4.19117 0
M  V30 588 H 50.6707 -4.73443 5.89396 0
M  V30 589 H 51.9387 -5.74549 5.26795 0
M  V30 590 N 56.1678 -1.49265 -0.50573 0
M  V30 591 C 57.3928 -1.62478 -1.28902 0
M  V30 592 C 57.8178 -0.294332 -1.85783 0
M  V30 593 O 57.1758 0.737412 -1.65626 0
M  V30 594 C 57.2238 -2.69268 -2.39848 0
M  V30 595 O 56.3278 -2.28113 -3.43567 0
M  V30 596 H 55.6688 -0.54399 -0.380751 0
M  V30 597 H 58.1988 -1.95421 -0.605952 0
M  V30 598 H 58.2088 -2.91291 -2.85681 0
M  V30 599 H 56.8838 -3.65846 -1.97812 0
M  V30 600 H 55.4608 -2.16401 -3.03685 0
M  V30 601 N 57.6459 0.756429 -1.3826 0
M  V30 602 C 58.5929 1.87011 -1.35261 0
M  V30 603 C 59.5629 1.64695 -0.215616 0
M  V30 604 O 60.7479 1.864 -0.407399 0
M  V30 605 C 57.8879 3.24275 -1.18068 0
M  V30 606 C 57.0009 3.58442 -2.41129 0
M  V30 607 C 56.1359 4.84994 -2.16689 0
M  V30 608 C 55.1749 5.11939 -3.35537 0
M  V30 609 N 54.3119 6.29685 -3.10549 0
M  V30 610 H 59.1519 1.8891 -2.30472 0
M  V30 611 H 56.6889 0.923373 -1.14509 0
M  V30 612 H 58.6469 4.03479 -1.06116 0
M  V30 613 H 57.2769 3.21711 -0.264973 0
M  V30 614 H 56.3289 2.74103 -2.63764 0
M  V30 615 H 57.6409 3.74283 -3.29717 0
M  V30 616 H 56.7949 5.72135 -2.01857 0
M  V30 617 H 55.5339 4.71286 -1.25462 0
M  V30 618 H 54.5389 4.23268 -3.50891 0
M  V30 619 H 55.7639 5.27546 -4.27635 0
M  V30 620 H 53.7099 6.17306 -2.21967 0
M  V30 621 H 53.6269 6.46014 -3.92686 0
M  V30 622 H 54.8949 7.19722 -2.99367 0
M  V30 623 N 59.124 1.23083 0.984299 0
M  V30 624 C 60.373 1.05466 1.71929 0
M  V30 625 C 60.686 -0.409211 1.91272 0
M  V30 626 O 61.892 -0.705226 2.62181 0
M  V30 627 C 60.348 1.83874 3.09384 0
M  V30 628 C 59.956 3.34566 2.97943 0
M  V30 629 C 61.7 1.74734 3.8687 0
M  V30 630 C 59.607 4.05381 4.30605 0
M  V30 631 H 58.537 0.391039 0.644674 0
M  V30 632 H 61.188 1.47013 1.09815 0
M  V30 633 H 59.57 1.35131 3.72231 0
M  V30 634 H 60.744 3.90767 2.44209 0
M  V30 635 H 59.059 3.44476 2.33934 0
M  V30 636 H 61.656 2.24957 4.85076 0
M  V30 637 H 61.999 0.709372 4.10212 0
M  V30 638 H 62.532 2.21067 3.30717 0
M  V30 639 H 59.271 5.09467 4.1246 0
M  V30 640 H 58.791 3.53967 4.84218 0
M  V30 641 H 60.47 4.11458 4.99311 0
M  V30 642 N 60.6021 -1.18246 1.0419 0
M  V30 643 C 61.8271 -1.92736 0.765996 0
M  V30 644 C 62.2521 -1.75728 -0.67091 0
M  V30 645 O 61.6101 -1.06825 -1.46486 0
M  V30 646 C 61.6581 -3.42148 1.13875 0
M  V30 647 O 60.7621 -4.11548 0.264954 0
M  V30 648 H 60.1031 -0.601238 0.281797 0
M  V30 649 H 62.6331 -1.49942 1.39207 0
M  V30 650 H 62.6431 -3.92858 1.1012 0
M  V30 651 H 61.3181 -3.53848 2.18551 0
M  V30 652 H 59.8951 -3.71137 0.362226 0
M  V30 653 N 62.0802 -0.821533 -1.34494 0
M  V30 654 C 63.0432 -0.247847 -2.27856 0
M  V30 655 C 64.0432 0.573453 -1.50227 0
M  V30 656 O 65.2332 0.389759 -1.69784 0
M  V30 657 C 62.3652 0.652698 -3.34593 0
M  V30 658 H 63.5582 -1.07146 -2.80107 0
M  V30 659 H 61.1112 -0.593291 -1.44602 0
M  V30 660 H 61.8462 1.49943 -2.87555 0
M  V30 661 H 61.6312 0.065292 -3.92046 0
M  V30 662 H 63.1212 1.04793 -4.04238 0
M  V30 663 N 63.5583 1.46682 -0.576371 0
M  V30 664 C 64.7833 2.07304 -0.0630475 0
M  V30 665 C 65.2083 1.42329 1.2298 0
M  V30 666 O 64.5663 0.504865 1.74129 0
M  V30 667 C 64.6143 3.60472 0.095895 0
M  V30 668 O 63.7183 3.95927 1.15394 0
M  V30 669 H 63.0593 0.661288 -0.0599463 0
M  V30 670 H 65.5893 1.88417 -0.797511 0
M  V30 671 H 65.5993 4.06865 0.304071 0
M  V30 672 H 64.2743 4.07157 -0.84828 0
M  V30 673 H 62.8513 3.61252 0.924724 0
M  V30 674 N 65.0364 0.313813 1.54444 0
M  V30 675 C 66.4524 -0.0391619 1.59552 0
M  V30 676 C 66.6524 -1.51322 1.33056 0
M  V30 677 O 65.7084 -2.26782 1.11022 0
M  V30 678 C 67.0214 0.370302 2.98411 0
M  V30 679 C 68.5694 0.320139 3.11358 0
M  V30 680 C 69.0444 0.704617 4.52547 0
M  V30 681 N 70.5354 0.657645 4.58508 0
M  V30 682 C 71.2704 0.927453 5.6585 0
M  V30 683 N 70.7664 1.26389 6.81174 0
M  V30 684 N 72.5594 0.853662 5.5558 0
M  V30 685 H 64.7104 1.27433 1.69925 0
M  V30 686 H 66.9734 0.517511 0.794284 0
M  V30 687 H 66.6794 1.39694 3.22767 0
M  V30 688 H 66.5534 -0.269619 3.76235 0
M  V30 689 H 68.9404 -0.697275 2.86744 0
M  V30 690 H 69.0214 0.99486 2.35661 0
M  V30 691 H 68.6654 1.7199 4.77893 0
M  V30 692 H 68.5954 0.00768843 5.26599 0
M  V30 693 H 71.0864 0.409067 3.75679 0
M  V30 694 H 71.3994 1.4554 7.58972 0
M  V30 695 H 69.7444 1.30206 6.82694 0
M  V30 696 H 72.9354 0.590383 4.64362 0
M  V30 697 H 73.1084 1.0673 6.3915 0
M  V30 698 N 66.5145 -1.57545 0.0417849 0
M  V30 699 C 67.4615 -2.10977 -0.935805 0
M  V30 700 C 68.4315 -1.01486 -1.31491 0
M  V30 701 O 69.6165 -1.2898 -1.40602 0
M  V30 702 C 66.7565 -2.65169 -2.2086 0
M  V30 703 C 65.8695 -3.88714 -1.88482 0
M  V30 704 C 65.0045 -4.31254 -3.1015 0
M  V30 705 C 64.0435 -5.47524 -2.7365 0
M  V30 706 N 63.1805 -5.85162 -3.87982 0
M  V30 707 H 68.0205 -2.94218 -0.473249 0
M  V30 708 H 65.5575 -1.45415 -0.221981 0
M  V30 709 H 67.5155 -2.94685 -2.95325 0
M  V30 710 H 66.1455 -1.8474 -2.64709 0
M  V30 711 H 65.1975 -3.65849 -1.04205 0
M  V30 712 H 66.5095 -4.73245 -1.57608 0
M  V30 713 H 65.6635 -4.62273 -3.92923 0
M  V30 714 H 64.4025 -3.45516 -3.44195 0
M  V30 715 H 63.4075 -5.16187 -1.89291 0
M  V30 716 H 64.6325 -6.34971 -2.40807 0
M  V30 717 H 62.5785 -5.02377 -4.21846 0
M  V30 718 H 62.4955 -6.64362 -3.60775 0
M  V30 719 H 63.7635 -6.20791 -4.71422 0
M  V30 720 N 67.9926 0.231505 -1.5589 0
M  V30 721 C 68.9226 1.29022 -1.94617 0
M  V30 722 C 69.9036 1.4941 -0.813067 0
M  V30 723 O 71.0886 1.6176 -1.07459 0
M  V30 724 C 68.2186 2.64199 -2.25424 0
M  V30 725 C 67.1726 2.58484 -3.41131 0
M  V30 726 C 66.4986 3.97599 -3.57518 0
M  V30 727 C 67.7986 2.1413 -4.76388 0
M  V30 728 H 69.4926 0.968563 -2.83301 0
M  V30 729 H 67.0386 0.464479 -1.36303 0
M  V30 730 H 68.9916 3.38413 -2.51107 0
M  V30 731 H 67.7156 2.98032 -1.33583 0
M  V30 732 H 66.3746 1.86727 -3.15481 0
M  V30 733 H 66.0226 4.28723 -2.6307 0
M  V30 734 H 65.7226 3.94659 -4.35337 0
M  V30 735 H 67.2466 4.7349 -3.85538 0
M  V30 736 H 68.6606 2.78083 -5.01341 0
M  V30 737 H 67.0576 2.2227 -5.57419 0
M  V30 738 H 68.1276 1.09331 -4.72414 0
M  V30 739 N 69.4707 1.49531 0.497807 0
M  V30 740 C 70.4027 1.62559 1.61578 0
M  V30 741 C 71.4157 0.508134 1.54667 0
M  V30 742 O 72.6047 0.780309 1.60541 0
M  V30 743 C 69.7047 1.56925 3.00379 0
M  V30 744 C 68.8777 2.84257 3.3244 0
M  V30 745 C 67.9367 2.71632 4.50669 0
M  V30 746 O 66.9627 3.4557 4.52294 0
M  V30 747 N 68.1647 1.83391 5.5077 0
M  V30 748 H 70.9297 2.58981 1.50828 0
M  V30 749 H 68.4907 1.4666 0.685743 0
M  V30 750 H 70.4827 1.46129 3.77397 0
M  V30 751 H 69.0527 0.683483 3.05037 0
M  V30 752 H 68.2727 3.09381 2.44289 0
M  V30 753 H 69.5607 3.68666 3.5066 0
M  V30 754 H 68.9587 1.22583 5.52259 0
M  V30 755 H 67.5157 1.78515 6.26878 0
M  V30 756 N 70.9488 -0.749086 1.3866 0
M  V30 757 C 71.8788 -1.8764 1.38973 0
M  V30 758 C 72.8598 -1.68178 0.255004 0
M  V30 759 O 74.0448 -1.88704 0.458754 0
M  V30 760 C 71.1748 -3.25222 1.21851 0
M  V30 761 C 70.1288 -3.59295 2.32575 0
M  V30 762 C 69.4548 -4.95663 2.00555 0
M  V30 763 C 70.7548 -3.63709 3.7485 0
M  V30 764 H 72.4488 -1.87635 2.3331 0
M  V30 765 H 69.9948 -0.901329 1.12303 0
M  V30 766 H 71.9478 -4.03746 1.20695 0
M  V30 767 H 70.6718 -3.25719 0.239775 0
M  V30 768 H 69.3308 -2.83093 2.32925 0
M  V30 769 H 68.9788 -4.92724 1.01154 0
M  V30 770 H 68.6788 -5.19429 2.74714 0
M  V30 771 H 70.2028 -5.7656 2.01024 0
M  V30 772 H 71.6168 -4.32338 3.76506 0
M  V30 773 H 70.0138 -3.98986 4.48252 0
M  V30 774 H 71.0838 -2.63834 4.06841 0
M  V30 775 N 72.4269 -1.23603 -0.977757 0
M  V30 776 C 73.3739 -1.01954 -2.07061 0
M  V30 777 C 74.3439 0.0638697 -1.65977 0
M  V30 778 O 75.5289 -0.0887624 -1.90593 0
M  V30 779 C 72.6689 -0.619658 -3.39491 0
M  V30 780 C 71.7819 -1.77547 -3.93829 0
M  V30 781 C 70.9169 -1.32212 -5.14484 0
M  V30 782 C 69.9559 -2.44852 -5.60994 0
M  V30 783 N 69.0929 -2.00456 -6.72876 0
M  V30 784 H 73.9329 -1.95495 -2.24913 0
M  V30 785 H 71.4699 -0.973861 -1.10247 0
M  V30 786 H 73.4279 -0.368898 -4.15566 0
M  V30 787 H 72.0579 0.278752 -3.21594 0
M  V30 788 H 71.1099 -2.14016 -3.14486 0
M  V30 789 H 72.4219 -2.62219 -4.24314 0
M  V30 790 H 71.5759 -1.02965 -5.97899 0
M  V30 791 H 70.3149 -0.445808 -4.85658 0
M  V30 792 H 69.3199 -2.74871 -4.76157 0
M  V30 793 H 70.5449 -3.33024 -5.91837 0
M  V30 794 H 68.4909 -1.15208 -6.45804 0
M  V30 795 H 68.4079 -2.78687 -7.02759 0
M  V30 796 H 69.6759 -1.7432 -7.59758 0
M  V30 797 N 73.905 1.17692 -1.04816 0
M  V30 798 C 75.133 1.91786 -0.776254 0
M  V30 799 C 75.548 1.76604 0.667577 0
M  V30 800 O 74.905 1.10067 1.45573 0
M  V30 801 C 74.956 3.42967 -1.14263 0
M  V30 802 O 74.677 3.57678 -2.52978 0
M  V30 803 C 76.178 4.34144 -0.896311 0
M  V30 804 H 73.398 0.608624 -0.282519 0
M  V30 805 H 75.942 1.49268 -1.39783 0
M  V30 806 H 74.097 3.83245 -0.565874 0
M  V30 807 H 74.511 4.51319 -2.67229 0
M  V30 808 H 75.985 5.38744 -1.20244 0
M  V30 809 H 76.462 4.38876 0.168636 0
M  V30 810 H 77.068 3.99574 -1.45672 0
M  V30 811 N 75.3831 0.828654 1.34056 0
M  V30 812 C 76.3131 0.269443 2.3194 0
M  V30 813 C 77.2941 -0.617247 1.58506 0
M  V30 814 O 78.4791 -0.542931 1.86456 0
M  V30 815 C 75.6091 -0.564793 3.42677 0
M  V30 816 C 74.5631 0.225241 4.27407 0
M  V30 817 C 73.8891 -0.7321 5.29664 0
M  V30 818 C 75.1891 1.43663 5.02154 0
M  V30 819 H 76.8831 1.08728 2.7896 0
M  V30 820 H 74.4291 0.524283 1.34117 0
M  V30 821 H 76.3821 -0.966233 4.10173 0
M  V30 822 H 75.1061 -1.41574 2.9432 0
M  V30 823 H 73.7651 0.608117 3.61521 0
M  V30 824 H 73.4131 -1.57916 4.77568 0
M  V30 825 H 73.1131 -0.20767 5.87233 0
M  V30 826 H 74.6371 -1.13128 6.00029 0
M  V30 827 H 76.0511 1.1089 5.62473 0
M  V30 828 H 74.4481 1.89711 5.69324 0
M  V30 829 H 75.5181 2.21181 4.31517 0
M  V30 830 N 76.8612 -1.46375 0.584142 0
M  V30 831 C 77.7912 -2.33103 -0.136037 0
M  V30 832 C 78.7722 -1.45431 -0.882255 0
M  V30 833 O 79.9572 -1.74246 -0.857434 0
M  V30 834 C 77.0872 -3.27731 -1.14933 0
M  V30 835 C 76.0412 -4.24855 -0.517862 0
M  V30 836 C 75.3672 -5.09001 -1.63773 0
M  V30 837 C 76.6672 -5.19439 0.545886 0
M  V30 838 H 78.3612 -2.93568 0.588086 0
M  V30 839 H 75.9072 -1.41166 0.284259 0
M  V30 840 H 77.8602 -3.87261 -1.66153 0
M  V30 841 H 76.5842 -2.65377 -1.90375 0
M  V30 842 H 75.2432 -3.6659 -0.0267361 0
M  V30 843 H 74.8912 -4.43031 -2.38185 0
M  V30 844 H 74.5912 -5.74777 -1.22085 0
M  V30 845 H 76.1152 -5.71396 -2.15266 0
M  V30 846 H 77.5292 -5.73177 0.118704 0
M  V30 847 H 75.9262 -5.93566 0.88317 0
M  V30 848 H 76.9962 -4.63285 1.43162 0
M  V30 849 N 78.3393 -0.321999 -1.54275 0
M  V30 850 C 79.2693 0.537411 -2.27231 0
M  V30 851 C 80.2503 1.12064 -1.27968 0
M  V30 852 O 81.4353 1.14606 -1.56777 0
M  V30 853 C 78.5653 1.69919 -3.02894 0
M  V30 854 C 77.5193 1.24534 -4.09482 0
M  V30 855 C 76.8453 2.49394 -4.72977 0
M  V30 856 C 78.1453 0.361335 -5.21049 0
M  V30 857 H 79.8393 -0.0711406 -2.99315 0
M  V30 858 H 77.3853 -0.0356555 -1.43956 0
M  V30 859 H 79.3383 2.30668 -3.52662 0
M  V30 860 H 78.0623 2.33431 -2.28424 0
M  V30 861 H 76.7213 0.660782 -3.60596 0
M  V30 862 H 76.3693 3.11265 -3.95124 0
M  V30 863 H 76.0693 2.19718 -5.44975 0
M  V30 864 H 77.5933 3.10908 -5.25517 0
M  V30 865 H 79.0073 0.875072 -5.66582 0
M  V30 866 H 77.4043 0.157428 -5.99893 0
M  V30 867 H 78.4743 -0.60822 -4.8107 0
M  V30 868 N 79.8174 1.5752 -0.0501392 0
M  V30 869 C 80.7494 2.08413 0.95376 0
M  V30 870 C 81.7624 1.01175 1.27544 0
M  V30 871 O 82.9514 1.28744 1.23641 0
M  V30 872 C 80.0514 2.51138 2.27559 0
M  V30 873 C 79.2244 3.817 2.13598 0
M  V30 874 C 78.2834 4.10749 3.28895 0
M  V30 875 O 77.3094 4.80685 3.04845 0
M  V30 876 N 78.5114 3.62579 4.5334 0
M  V30 877 H 81.2764 2.95165 0.519383 0
M  V30 878 H 78.8374 1.61327 0.136127 0
M  V30 879 H 80.8294 2.67648 3.03557 0
M  V30 880 H 79.3994 1.6964 2.62567 0
M  V30 881 H 78.6194 3.74782 1.22197 0
M  V30 882 H 79.9074 4.67201 2.01496 0
M  V30 883 H 79.3054 3.06039 4.75769 0
M  V30 884 H 77.8624 3.84329 5.26436 0
M  V30 885 N 81.2955 -0.223234 1.56011 0
M  V30 886 C 82.5445 -0.945912 1.78144 0
M  V30 887 C 82.8575 -1.85567 0.618396 0
M  V30 888 O 84.0635 -2.61688 0.723318 0
M  V30 889 C 82.5195 -1.73216 3.15475 0
M  V30 890 C 82.1275 -0.868619 4.39499 0
M  V30 891 C 83.8715 -2.44615 3.46935 0
M  V30 892 C 81.7785 -1.65212 5.67855 0
M  V30 893 H 80.7085 -0.356929 0.664167 0
M  V30 894 H 83.3595 -0.199845 1.82409 0
M  V30 895 H 81.7415 -2.52107 3.05382 0
M  V30 896 H 82.9155 -0.120366 4.60643 0
M  V30 897 H 81.2305 -0.26683 4.15544 0
M  V30 898 H 83.8275 -3.03732 4.40058 0
M  V30 899 H 84.1705 -3.17417 2.69355 0
M  V30 900 H 84.7035 -1.72715 3.58349 0
M  V30 901 H 81.4425 -0.967407 6.48322 0
M  V30 902 H 80.9625 -2.37503 5.50774 0
M  V30 903 H 82.6415 -2.21322 6.07968 0
M  V30 904 N 82.7736 -1.49793 -0.48987 0
M  V30 905 C 83.7366 -1.66752 -1.57246 0
M  V30 906 C 84.7366 -0.538867 -1.51502 0
M  V30 907 O 85.9266 -0.805545 -1.54456 0
M  V30 908 C 83.0586 -1.67528 -2.96896 0
M  V30 909 H 84.2516 -2.63321 -1.43534 0
M  V30 910 H 81.8046 -1.38992 -0.714914 0
M  V30 911 H 82.5396 -0.725837 -3.16073 0
M  V30 912 H 82.3246 -2.49504 -3.02473 0
M  V30 913 H 83.8146 -1.82667 -3.7553 0
M  V30 914 N 84.2517 0.741722 -1.39055 0
M  V30 915 C 85.1987 1.85566 -1.37237 0
M  V30 916 C 86.1687 1.64457 -0.233072 0
M  V30 917 O 87.3537 1.85957 -0.427147 0
M  V30 918 C 84.4937 3.23004 -1.215 0
M  V30 919 C 83.6067 3.55864 -2.44918 0
M  V30 920 C 82.7417 4.82669 -2.21821 0
M  V30 921 C 81.7807 5.08351 -3.40948 0
M  V30 922 N 80.9177 6.26356 -3.17211 0
M  V30 923 H 85.7577 1.86455 -2.32462 0
M  V30 924 H 83.2947 0.911176 -1.15482 0
M  V30 925 H 85.2527 4.02331 -1.10389 0
M  V30 926 H 83.8827 3.21411 -0.29908 0
M  V30 927 H 82.9347 2.7129 -2.66657 0
M  V30 928 H 84.2467 3.70765 -3.33668 0
M  V30 929 H 83.4007 5.69962 -2.07914 0
M  V30 930 H 82.1397 4.69929 -1.30454 0
M  V30 931 H 81.1447 4.19522 -3.55361 0
M  V30 932 H 82.3697 5.22981 -4.33207 0
M  V30 933 H 80.3157 6.14917 -2.28502 0
M  V30 934 H 80.2327 6.41813 -3.99515 0
M  V30 935 H 81.5007 7.16506 -3.06984 0
M  V30 936 N 85.7298 1.2412 0.971189 0
M  V30 937 C 86.6618 0.988349 2.06795 0
M  V30 938 C 87.6748 -0.0409541 1.62748 0
M  V30 939 O 88.8638 0.195673 1.77424 0
M  V30 940 C 85.9638 0.469023 3.35639 0
M  V30 941 C 85.1368 1.56065 4.08611 0
M  V30 942 C 84.1958 1.04458 5.15728 0
M  V30 943 O 83.2218 1.73553 5.42096 0
M  V30 944 N 84.4238 -0.122817 5.8037 0
M  V30 945 H 87.1888 1.93265 2.29061 0
M  V30 946 H 84.7498 1.15102 1.13856 0
M  V30 947 H 86.7418 0.108613 4.04554 0
M  V30 948 H 85.3118 -0.380919 3.1027 0
M  V30 949 H 84.5318 2.09341 3.34021 0
M  V30 950 H 85.8198 2.29449 4.54126 0
M  V30 951 H 85.2178 -0.700563 5.61345 0
M  V30 952 H 83.7748 -0.424404 6.50417 0
M  V30 953 N 87.2079 -1.17134 1.05439 0
M  V30 954 C 88.1179 -2.24878 0.668365 0
M  V30 955 C 89.1339 -1.71186 -0.311687 0
M  V30 956 O 90.3099 -2.00738 -0.163161 0
M  V30 957 C 87.3749 -3.46662 0.051648 0
M  V30 958 C 86.4359 -4.15429 1.08246 0
M  V30 959 C 85.6689 -5.31399 0.495082 0
M  V30 960 O 85.8919 -5.66153 -0.694743 0
M  V30 961 O 84.8259 -5.89187 1.23056 0
M  V30 962 H 88.6519 -2.60189 1.56637 0
M  V30 963 H 86.2369 -1.24482 0.826104 0
M  V30 964 H 88.1189 -4.20394 -0.290966 0
M  V30 965 H 86.7939 -3.13142 -0.819971 0
M  V30 966 H 85.7009 -3.43704 1.47711 0
M  V30 967 H 87.0339 -4.52982 1.92532 0
M  V30 968 N 88.686 -0.835752 -1.33615 0
M  V30 969 C 89.616 -0.281739 -2.31794 0
M  V30 970 C 90.597 0.608833 -1.58831 0
M  V30 971 O 91.782 0.533035 -1.86741 0
M  V30 972 C 88.912 0.546612 -3.42971 0
M  V30 973 C 87.866 -0.247904 -4.27281 0
M  V30 974 C 87.192 0.704001 -5.30045 0
M  V30 975 C 88.492 -1.46324 -5.01385 0
M  V30 976 H 90.186 -1.10206 -2.78379 0
M  V30 977 H 87.732 -0.531388 -1.33837 0
M  V30 978 H 89.685 0.944467 -4.1068 0
M  V30 979 H 88.409 1.40011 -2.95067 0
M  V30 980 H 87.068 -0.627281 -3.61194 0
M  V30 981 H 86.716 1.55381 -4.78399 0
M  V30 982 H 86.416 0.176524 -5.87335 0
M  V30 983 H 87.94 1.09944 -6.0062 0
M  V30 984 H 89.354 -1.13871 -5.61877 0
M  V30 985 H 87.751 -1.92728 -5.6831 0
M  V30 986 H 88.821 -2.23467 -4.30338 0
M  V30 987 N 90.1641 1.46063 -0.591896 0
M  V30 988 C 91.0741 2.34192 0.13831 0
M  V30 989 C 92.0901 1.50305 0.876608 0
M  V30 990 O 93.2661 1.8315 0.837728 0
M  V30 991 C 90.3311 3.27656 1.13326 0
M  V30 992 C 89.3921 4.27445 0.39863 0
M  V30 993 C 88.6251 5.16443 1.34618 0
M  V30 994 O 88.8481 5.08553 2.58321 0
M  V30 995 O 87.7821 5.95843 0.851768 0
M  V30 996 H 91.6081 2.98002 -0.58552 0
M  V30 997 H 89.1931 1.45188 -0.352239 0
M  V30 998 H 91.0751 3.85291 1.70671 0
M  V30 999 H 89.7501 2.6643 1.83839 0
M  V30 1000 H 88.6571 3.73471 -0.216895 0
M  V30 1001 H 89.9901 4.91482 -0.265709 0
M  V30 1002 N 91.6422 0.330177 1.54103 0
M  V30 1003 C 93.0582 -0.0222371 1.59585 0
M  V30 1004 C 93.2582 -1.49902 1.34654 0
M  V30 1005 O 92.3142 -2.25592 1.13421 0
M  V30 1006 C 93.6272 0.401932 2.98002 0
M  V30 1007 C 95.1752 0.353145 3.11001 0
M  V30 1008 C 95.6502 0.752576 4.51775 0
M  V30 1009 N 97.1412 0.706239 4.57784 0
M  V30 1010 C 97.8762 0.987417 5.64834 0
M  V30 1011 N 97.3722 1.33607 6.79795 0
M  V30 1012 N 99.1652 0.91254 5.54643 0
M  V30 1013 H 91.3162 1.29228 1.68564 0
M  V30 1014 H 93.5792 0.525906 0.78875 0
M  V30 1015 H 93.2852 1.4311 3.21267 0
M  V30 1016 H 93.1592 -0.229699 3.765 0
M  V30 1017 H 95.5462 -0.666822 2.87467 0
M  V30 1018 H 95.6272 1.0198 2.34593 0
M  V30 1019 H 95.2712 1.77049 4.76042 0
M  V30 1020 H 95.2012 0.0635409 5.26562 0
M  V30 1021 H 97.6922 0.44889 3.75224 0
M  V30 1022 H 98.0052 1.53582 7.57385 0
M  V30 1023 H 96.3502 1.37439 6.81275 0
M  V30 1024 H 99.5412 0.639601 4.6371 0
M  V30 1025 H 99.7142 1.13503 6.37982 0
M  V30 1026 N 93.1203 -1.57491 0.0584922 0
M  V30 1027 C 94.0303 -2.15448 -0.928414 0
M  V30 1028 C 95.0463 -1.11416 -1.3365 0
M  V30 1029 O 96.2223 -1.4362 -1.41193 0
M  V30 1030 C 93.2873 -2.69393 -2.18239 0
M  V30 1031 C 92.3483 -3.88249 -1.83196 0
M  V30 1032 C 91.5813 -4.39613 -3.02616 0
M  V30 1033 O 91.8043 -3.90023 -4.16219 0
M  V30 1034 O 90.7383 -5.31111 -2.83204 0
M  V30 1035 H 94.5643 -3.00112 -0.465483 0
M  V30 1036 H 92.1493 -1.48499 -0.163826 0
M  V30 1037 H 94.0313 -3.04026 -2.91798 0
M  V30 1038 H 92.7063 -1.87796 -2.63656 0
M  V30 1039 H 91.6133 -3.58492 -1.06931 0
M  V30 1040 H 92.9463 -4.71098 -1.42573 0
M  V30 1041 N 94.5984 0.214957 -1.56127 0
M  V30 1042 C 95.5614 1.24997 -1.92116 0
M  V30 1043 C 96.5614 1.39467 -0.800344 0
M  V30 1044 O 97.7514 1.37619 -1.06802 0
M  V30 1045 C 94.8834 2.62271 -2.17777 0
M  V30 1046 H 96.0764 0.942875 -2.84693 0
M  V30 1047 H 93.6294 0.455654 -1.49511 0
M  V30 1048 H 94.3644 2.98068 -1.27773 0
M  V30 1049 H 94.1494 2.53143 -2.99434 0
M  V30 1050 H 95.6394 3.36946 -2.46693 0
M  V30 1051 N 96.0765 1.50051 0.48192 0
M  V30 1052 C 96.9865 1.7089 1.60728 0
M  V30 1053 C 98.0025 0.591788 1.63627 0
M  V30 1054 O 99.1785 0.868817 1.81696 0
M  V30 1055 C 96.2435 1.78855 2.97005 0
M  V30 1056 C 95.3045 3.02537 3.04581 0
M  V30 1057 C 94.5375 3.10112 4.34357 0
M  V30 1058 O 94.7605 2.24765 5.24249 0
M  V30 1059 O 93.6945 4.02747 4.47301 0
M  V30 1060 H 97.5205 2.66264 1.46072 0
M  V30 1061 H 95.1055 1.34018 0.660264 0
M  V30 1062 H 96.9875 1.86336 3.77964 0
M  V30 1063 H 95.6625 0.866628 3.11883 0
M  V30 1064 H 94.5695 3.00563 2.22739 0
M  V30 1065 H 95.9025 3.94272 2.94636 0
M  V30 1066 N 97.5546 -0.734337 1.39446 0
M  V30 1067 C 98.4646 -1.87879 1.40495 0
M  V30 1068 C 99.4806 -1.714 0.299672 0
M  V30 1069 O 100.657 -1.93991 0.541249 0
M  V30 1070 C 97.7216 -3.23477 1.24754 0
M  V30 1071 C 96.7826 -3.52344 2.45259 0
M  V30 1072 C 96.0156 -4.81473 2.30259 0
M  V30 1073 O 96.2386 -5.55237 1.30643 0
M  V30 1074 O 95.1726 -5.10254 3.19256 0
M  V30 1075 H 98.9986 -1.89949 2.36966 0
M  V30 1076 H 96.5836 -0.882243 1.20569 0
M  V30 1077 H 98.4656 -4.04509 1.18111 0
M  V30 1078 H 97.1406 -3.22176 0.313781 0
M  V30 1079 H 96.0476 -2.71396 2.57478 0
M  V30 1080 H 97.3806 -3.58426 3.37331 0
M  V30 1081 N 99.0327 -1.24633 -0.964593 0
M  V30 1082 C 100.449 -1.01239 -1.2338 0
M  V30 1083 C 100.649 0.2769 -1.99588 0
M  V30 1084 O 99.7047 0.992241 -2.32187 0
M  V30 1085 C 101.018 -2.22937 -2.01791 0
M  V30 1086 C 102.566 -2.27594 -2.14872 0
M  V30 1087 C 103.041 -3.48921 -2.96678 0
M  V30 1088 N 104.532 -3.49257 -3.04259 0
M  V30 1089 C 105.267 -4.39795 -3.67924 0
M  V30 1090 N 104.763 -5.40591 -4.33281 0
M  V30 1091 N 106.556 -4.275 -3.64966 0
M  V30 1092 H 98.7067 -2.0748 -0.454502 0
M  V30 1093 H 100.97 -0.910647 -0.26349 0
M  V30 1094 H 100.676 -3.16587 -1.53184 0
M  V30 1095 H 100.55 -2.25306 -3.02518 0
M  V30 1096 H 102.937 -1.34473 -2.6268 0
M  V30 1097 H 103.018 -2.2925 -1.13482 0
M  V30 1098 H 102.662 -4.42359 -2.49562 0
M  V30 1099 H 102.592 -3.4451 -3.98272 0
M  V30 1100 H 105.083 -2.76337 -2.57771 0
M  V30 1101 H 105.396 -6.05904 -4.79687 0
M  V30 1102 H 103.741 -5.44475 -4.3194 0
M  V30 1103 H 106.932 -3.47987 -3.13086 0
M  V30 1104 H 107.105 -4.98258 -4.14298 0
M  V30 1105 N 100.511 1.16574 -1.06058 0
M  V30 1106 C 101.927 1.3904 -0.783585 0
M  V30 1107 C 102.127 1.91784 0.618145 0
M  V30 1108 O 101.183 2.11511 1.37911 0
M  V30 1109 C 102.496 2.37329 -1.84649 0
M  V30 1110 C 104.044 2.51018 -1.86973 0
M  V30 1111 C 104.519 3.52588 -2.92311 0
M  V30 1112 N 106.01 3.60113 -2.91329 0
M  V30 1113 C 106.745 4.38486 -3.69482 0
M  V30 1114 N 106.241 5.20302 -4.57447 0
M  V30 1115 N 108.034 4.33446 -3.57885 0
M  V30 1116 H 100.185 0.806725 -1.96483 0
M  V30 1117 H 102.448 0.417117 -0.851303 0
M  V30 1118 H 102.154 2.05663 -2.85299 0
M  V30 1119 H 102.028 3.36946 -1.6955 0
M  V30 1120 H 104.415 2.81989 -0.869827 0
M  V30 1121 H 104.496 1.51445 -2.0615 0
M  V30 1122 H 104.14 3.22354 -3.92492 0
M  V30 1123 H 104.07 4.51886 -2.70383 0
M  V30 1124 H 106.561 3.01707 -2.27555 0
M  V30 1125 H 106.874 5.77311 -5.13743 0
M  V30 1126 H 105.219 5.19653 -4.61503 0
M  V30 1127 H 108.41 3.68586 -2.88551 0
M  V30 1128 H 108.583 4.94279 -4.19037 0
M  V30 1129 N 101.989 0.842826 1.3317 0
M  V30 1130 C 103.237 0.439577 1.97262 0
M  V30 1131 C 103.558 -1.00548 1.67078 0
M  V30 1132 O 102.828 -1.70098 0.971779 0
M  V30 1133 H 101.408 0.159558 0.72976 0
M  V30 1134 H 104.07 1.07665 1.62463 0
M  V30 1135 H 103.166 0.574886 3.0676 0
M  V30 1136 N 103.467 -1.45747 0.599634 0
M  V30 1137 C 104.377 -2.34262 -0.125888 0
M  V30 1138 C 105.393 -1.50768 -0.868625 0
M  V30 1139 O 106.569 -1.83592 -0.828003 0
M  V30 1140 C 103.634 -3.28252 -1.11587 0
M  V30 1141 C 102.695 -4.27651 -0.375956 0
M  V30 1142 C 101.928 -5.1715 -1.31877 0
M  V30 1143 O 102.151 -5.09916 -2.55621 0
M  V30 1144 O 101.085 -5.96286 -0.820157 0
M  V30 1145 H 104.911 -2.97688 0.601315 0
M  V30 1146 H 102.496 -1.44999 0.359934 0
M  V30 1147 H 104.378 -3.86191 -1.68626 0
M  V30 1148 H 103.053 -2.67401 -1.82424 0
M  V30 1149 H 101.96 -3.7335 0.236698 0
M  V30 1150 H 103.293 -4.91334 0.29177 0
M  V30 1151 N 104.945 -0.338344 -1.53925 0
M  V30 1152 C 105.892 0.520845 -2.24846 0
M  V30 1153 C 106.862 1.09976 -1.24477 0
M  V30 1154 O 108.047 1.13735 -1.53196 0
M  V30 1155 C 105.187 1.6685 -3.02084 0
M  V30 1156 C 104.3 1.11739 -4.17299 0
M  V30 1157 C 103.435 2.23193 -4.82036 0
M  V30 1158 C 102.474 1.65407 -5.89328 0
M  V30 1159 N 101.611 2.70582 -6.47866 0
M  V30 1160 H 106.451 -0.0904881 -2.97863 0
M  V30 1161 H 103.988 -0.0564282 -1.46992 0
M  V30 1162 H 105.946 2.34407 -3.45122 0
M  V30 1163 H 104.576 2.2509 -2.31375 0
M  V30 1164 H 103.628 0.332919 -3.7894 0
M  V30 1165 H 104.94 0.654677 -4.94485 0
M  V30 1166 H 104.094 2.98626 -5.28117 0
M  V30 1167 H 102.833 2.72807 -4.04262 0
M  V30 1168 H 101.838 0.884779 -5.42634 0
M  V30 1169 H 103.063 1.16652 -6.69006 0
M  V30 1170 H 101.009 3.1946 -5.72959 0
M  V30 1171 H 100.926 2.28917 -7.20509 0
M  V30 1172 H 102.194 3.45799 -6.98601 0
M  V30 1173 N 106.423 1.57458 -0.0668435 0
M  V30 1174 C 107.671 1.92919 0.602214 0
M  V30 1175 C 107.992 0.947215 1.70449 0
M  V30 1176 O 107.262 -0.00544117 1.95899 0
M  V30 1177 H 105.842 0.71217 0.22544 0
M  V30 1178 H 108.504 1.94508 -0.123535 0
M  V30 1179 H 107.6 2.94589 1.03073 0
M  V30 1180 N 107.901 -0.206675 1.56239 0
M  V30 1181 C 109.317 -0.557025 1.49564 0
M  V30 1182 C 109.517 -1.86424 0.764735 0
M  V30 1183 O 108.573 -2.50584 0.310491 0
M  V30 1184 C 109.886 -0.622478 2.94186 0
M  V30 1185 C 111.434 -0.712099 3.04792 0
M  V30 1186 C 111.909 -0.808767 4.50803 0
M  V30 1187 N 113.4 -0.8726 4.54907 0
M  V30 1188 C 114.135 -0.967365 5.65181 0
M  V30 1189 N 113.631 -1.02515 6.85173 0
M  V30 1190 N 115.424 -1.00366 5.53067 0
M  V30 1191 H 107.575 0.650943 2.02179 0
M  V30 1192 H 109.838 0.230387 0.919579 0
M  V30 1193 H 109.544 0.268727 3.50672 0
M  V30 1194 H 109.418 -1.4811 3.46905 0
M  V30 1195 H 111.805 -1.59374 2.48363 0
M  V30 1196 H 111.886 0.172489 2.55218 0
M  V30 1197 H 111.53 0.0684754 5.07854 0
M  V30 1198 H 111.46 -1.70899 4.98098 0
M  V30 1199 H 113.951 -0.837657 3.68499 0
M  V30 1200 H 114.264 -1.09765 7.64965 0
M  V30 1201 H 112.609 -0.994026 6.87855 0
M  V30 1202 H 115.8 -0.95527 4.58249 0
M  V30 1203 H 115.973 -1.07405 6.39037 0
M  V30 1204 N 109.379 -1.50304 -0.473955 0
M  V30 1205 C 110.342 -1.6841 -1.55469 0
M  V30 1206 C 111.342 -0.554905 -1.50922 0
M  V30 1207 O 112.532 -0.821882 -1.53593 0
M  V30 1208 C 109.664 -1.70667 -2.95102 0
M  V30 1209 H 110.857 -2.64828 -1.40733 0
M  V30 1210 H 108.41 -1.39742 -0.700132 0
M  V30 1211 H 109.145 -0.75932 -3.15285 0
M  V30 1212 H 108.93 -2.52698 -2.9981 0
M  V30 1213 H 110.42 -1.8664 -3.73571 0
M  V30 1214 N 110.857 0.726932 -1.39834 0
M  V30 1215 C 111.787 1.85405 -1.41941 0
M  V30 1216 C 112.768 1.67751 -0.281728 0
M  V30 1217 O 113.953 1.8795 -0.488717 0
M  V30 1218 C 111.083 3.23243 -1.2701 0
M  V30 1219 C 110.037 3.55549 -2.38262 0
M  V30 1220 C 109.363 4.9241 -2.08415 0
M  V30 1221 C 110.663 3.577 -3.80589 0
M  V30 1222 H 112.357 1.83899 -2.36266 0
M  V30 1223 H 109.903 0.883349 -1.13723 0
M  V30 1224 H 111.856 4.01775 -1.27103 0
M  V30 1225 H 110.58 3.25296 -0.291564 0
M  V30 1226 H 109.239 2.79351 -2.37399 0
M  V30 1227 H 108.887 4.91052 -1.0898 0
M  V30 1228 H 108.587 5.14992 -2.82943 0
M  V30 1229 H 110.111 5.73289 -2.10171 0
M  V30 1230 H 111.525 4.26293 -3.83337 0
M  V30 1231 H 109.922 3.91804 -4.54543 0
M  V30 1232 H 110.992 2.57328 -4.10987 0
M  V30 1233 N 112.336 1.25143 0.95797 0
M  V30 1234 C 113.561 1.12521 1.74223 0
M  V30 1235 C 113.986 -0.317402 1.85403 0
M  V30 1236 O 113.344 -1.2299 1.33204 0
M  V30 1237 C 113.392 1.78062 3.1357 0
M  V30 1238 O 112.496 1.058 3.98598 0
M  V30 1239 H 111.837 0.39304 0.535178 0
M  V30 1240 H 114.367 1.65641 1.201 0
M  V30 1241 H 114.377 1.84213 3.64046 0
M  V30 1242 H 113.052 2.83021 3.04749 0
M  V30 1243 H 111.629 1.07506 3.57067 0
M  V30 1244 N 113.814 -1.1601 1.06675 0
M  V30 1245 C 115.042 -1.90527 0.806667 0
M  V30 1246 C 115.457 -1.77643 -0.639396 0
M  V30 1247 O 114.814 -1.12369 -1.43803 0
M  V30 1248 C 114.865 -3.41106 1.19705 0
M  V30 1249 O 114.586 -3.53608 2.58636 0
M  V30 1250 C 116.087 -4.32663 0.965266 0
M  V30 1251 H 113.307 -0.604053 0.292166 0
M  V30 1252 H 115.851 -1.47026 1.4214 0
M  V30 1253 H 114.006 -3.82296 0.626774 0
M  V30 1254 H 114.42 -4.47011 2.74375 0
M  V30 1255 H 115.894 -5.36763 1.288 0
M  V30 1256 H 116.371 -4.39089 -0.0987936 0
M  V30 1257 H 116.977 -3.97206 1.52011 0
M  V30 1258 N 115.292 -0.849877 -1.32721 0
M  V30 1259 C 116.708 -0.539102 -1.50219 0
M  V30 1260 C 116.908 0.931271 -1.78689 0
M  V30 1261 O 115.964 1.71455 -1.85363 0
M  V30 1262 C 117.277 -1.42196 -2.64954 0
M  V30 1263 C 118.825 -1.42189 -2.78839 0
M  V30 1264 C 119.3 -2.28985 -3.96648 0
M  V30 1265 N 120.791 -2.26754 -4.03902 0
M  V30 1266 C 121.526 -2.90644 -4.94281 0
M  V30 1267 N 121.022 -3.63629 -5.897 0
M  V30 1268 N 122.815 -2.80057 -4.87365 0
M  V30 1269 H 114.966 -1.80156 -1.12506 0
M  V30 1270 H 117.229 -0.769217 -0.554085 0
M  V30 1271 H 116.935 -2.46733 -2.50631 0
M  V30 1272 H 116.809 -1.10591 -3.60624 0
M  V30 1273 H 119.196 -0.38419 -2.92588 0
M  V30 1274 H 119.277 -1.77807 -1.83898 0
M  V30 1275 H 118.921 -3.32819 -3.83658 0
M  V30 1276 H 118.851 -1.90702 -4.90857 0
M  V30 1277 H 121.342 -1.73688 -3.3562 0
M  V30 1278 H 121.655 -4.09558 -6.55349 0
M  V30 1279 H 120 -3.67737 -5.89741 0
M  V30 1280 H 123.191 -2.22593 -4.11789 0
M  V30 1281 H 123.364 -3.30132 -5.57599 0
M  V30 1282 N 116.77 1.45427 -0.607355 0
M  V30 1283 C 118.01 2.04128 -0.105458 0
M  V30 1284 C 118.374 1.46555 1.24039 0
M  V30 1285 O 119.575 1.96608 1.833 0
M  V30 1286 C 117.846 3.57338 -0.0665324 0
M  V30 1287 S 119.405 4.37201 0.374207 0
M  V30 1288 H 116.223 0.709278 -0.0494575 0
M  V30 1289 H 118.825 1.78139 -0.805404 0
M  V30 1290 H 117.529 3.96752 -1.04957 0
M  V30 1291 H 117.06 3.87902 0.655415 0
M  V30 1292 H 119.075 4.6888 1.62377 0
M  V30 1293 N 118.248 0.346503 1.53744 0
M  V30 1294 C 119.18 -0.543316 2.22667 0
M  V30 1295 C 120.193 -1.06159 1.23427 0
M  V30 1296 O 121.382 -0.971235 1.49764 0
M  V30 1297 C 118.482 -1.76076 2.89569 0
M  V30 1298 C 117.655 -1.37727 4.15151 0
M  V30 1299 C 116.714 -2.45471 4.65436 0
M  V30 1300 O 115.74 -2.08655 5.29577 0
M  V30 1301 N 116.942 -3.7677 4.41616 0
M  V30 1302 H 119.707 0.0469703 2.99663 0
M  V30 1303 H 117.268 0.170766 1.60997 0
M  V30 1304 H 119.26 -2.47593 3.20125 0
M  V30 1305 H 117.83 -2.25835 2.16142 0
M  V30 1306 H 117.05 -0.492746 3.91108 0
M  V30 1307 H 118.338 -1.09708 4.96832 0
M  V30 1308 H 117.736 -4.09467 3.90325 0
M  V30 1309 H 116.293 -4.44448 4.7677 0
M  V30 1310 N 119.726 -1.57421 0.075193 0
M  V30 1311 C 121.137 -1.81021 -0.456964 0
M  V30 1312 C 121.488 -0.98936 -1.69429 0
M  V30 1313 O 120.613 -0.212865 -2.15351 0
M  V30 1314 C 121.208 -3.28329 -0.83581 0
M  V30 1315 C 119.767 -3.52764 -1.31281 0
M  V30 1316 C 118.914 -2.75676 -0.299648 0
M  V30 1317 H 121.865 -1.55822 0.300856 0
M  V30 1318 H 121.886 -3.40564 -1.69696 0
M  V30 1319 H 121.398 -3.88046 0.0649238 0
M  V30 1320 H 119.499 -2.98355 -2.23193 0
M  V30 1321 H 119.612 -4.61451 -1.28839 0
M  V30 1322 H 117.976 -2.42538 -0.777641 0
M  V30 1323 H 118.759 -3.38132 0.593417 0
M  V30 1324 N 121.204 0.198386 -1.56346 0
M  V30 1325 C 122.134 1.24865 -1.9731 0
M  V30 1326 C 123.115 1.47651 -0.844576 0
M  V30 1327 O 124.3 1.59444 -1.10866 0
M  V30 1328 C 121.43 2.59358 -2.30977 0
M  V30 1329 C 120.384 2.5119 -3.46537 0
M  V30 1330 C 119.71 3.89926 -3.65871 0
M  V30 1331 C 121.01 2.03977 -4.80823 0
M  V30 1332 H 122.704 0.908252 -2.85291 0
M  V30 1333 H 120.25 0.435462 -1.37258 0
M  V30 1334 H 122.203 3.33011 -2.58228 0
M  V30 1335 H 120.927 2.95132 -1.39874 0
M  V30 1336 H 119.586 1.79993 -3.19371 0
M  V30 1337 H 119.234 4.23046 -2.72105 0
M  V30 1338 H 118.934 3.85336 -4.4361 0
M  V30 1339 H 120.458 4.65205 -3.95495 0
M  V30 1340 H 121.872 2.67386 -5.07127 0
M  V30 1341 H 120.269 2.10397 -5.62008 0
M  V30 1342 H 121.339 0.992861 -4.74626 0
M  V30 1343 N 122.682 1.50554 0.465978 0
M  V30 1344 C 123.592 1.72585 1.58907 0
M  V30 1345 C 124.608 0.60911 1.6299 0
M  V30 1346 O 125.784 0.88804 1.80765 0
M  V30 1347 C 122.849 1.81995 2.95091 0
M  V30 1348 C 121.91 3.05751 3.01355 0
M  V30 1349 C 121.143 3.14702 4.31043 0
M  V30 1350 O 121.366 2.30313 5.21835 0
M  V30 1351 O 120.3 4.07468 4.43005 0
M  V30 1352 H 124.126 2.67799 1.43239 0
M  V30 1353 H 121.711 1.34711 0.646013 0
M  V30 1354 H 123.593 1.90335 3.75966 0
M  V30 1355 H 122.268 0.899659 3.10947 0
M  V30 1356 H 121.175 3.02908 2.19539 0
M  V30 1357 H 122.508 3.97375 2.90437 0
M  V30 1358 N 124.16 -0.719506 1.40217 0
M  V30 1359 C 125.09 -1.8465 1.42922 0
M  V30 1360 C 126.071 -1.67599 0.29062 0
M  V30 1361 O 127.256 -1.87688 0.498677 0
M  V30 1362 C 124.386 -3.22565 1.28722 0
M  V30 1363 C 123.34 -3.54281 2.40144 0
M  V30 1364 C 122.666 -4.91298 2.11023 0
M  V30 1365 C 123.966 -3.55676 3.82481 0
M  V30 1366 H 125.66 -1.82644 2.37237 0
M  V30 1367 H 123.206 -0.877305 1.1419 0
M  V30 1368 H 125.159 -4.01095 1.29232 0
M  V30 1369 H 123.883 -3.25137 0.308811 0
M  V30 1370 H 122.542 -2.78088 2.38877 0
M  V30 1371 H 122.19 -4.90468 1.11582 0
M  V30 1372 H 121.89 -5.13485 2.8567 0
M  V30 1373 H 123.414 -5.72166 2.13209 0
M  V30 1374 H 124.828 -4.24254 3.85592 0
M  V30 1375 H 123.225 -3.89388 4.56614 0
M  V30 1376 H 124.295 -2.55144 4.12346 0
M  V30 1377 N 125.638 -1.25649 -0.95132 0
M  V30 1378 C 126.601 -1.06399 -2.03007 0
M  V30 1379 C 127.601 -0.0156794 -1.60792 0
M  V30 1380 O 128.791 -0.25817 -1.72276 0
M  V30 1381 C 125.923 -0.616184 -3.35285 0
M  V30 1382 H 127.116 -2.02164 -2.21517 0
M  V30 1383 H 124.669 -1.08103 -1.12887 0
M  V30 1384 H 125.404 0.343917 -3.22471 0
M  V30 1385 H 125.189 -1.37301 -3.67275 0
M  V30 1386 H 126.679 -0.503032 -4.14559 0
M  V30 1387 N 127.117 1.15442 -1.07289 0
M  V30 1388 C 128.365 1.85845 -0.794096 0
M  V30 1389 C 128.686 1.82692 0.681809 0
M  V30 1390 O 127.956 1.26741 1.49377 0
M  V30 1391 H 126.536 0.688089 -0.290763 0
M  V30 1392 H 129.198 1.39947 -1.3565 0
M  V30 1393 H 128.294 2.91001 -1.12804 0
M  V30 1394 N 128.595 0.856903 1.32268 0
M  V30 1395 C 129.525 0.31858 2.31316 0
M  V30 1396 C 130.506 -0.583487 1.59779 0
M  V30 1397 O 131.691 -0.503259 1.87566 0
M  V30 1398 C 128.821 -0.491979 3.43798 0
M  V30 1399 C 127.775 0.315849 4.26833 0
M  V30 1400 C 127.101 -0.619586 5.31098 0
M  V30 1401 C 128.401 1.54282 4.98993 0
M  V30 1402 H 130.095 1.14621 2.76591 0
M  V30 1403 H 127.641 0.552613 1.32974 0
M  V30 1404 H 129.594 -0.879012 4.1213 0
M  V30 1405 H 128.318 -1.35299 2.97257 0
M  V30 1406 H 126.977 0.684664 3.6015 0
M  V30 1407 H 126.625 -1.47751 4.8081 0
M  V30 1408 H 126.325 -0.0830621 5.87541 0
M  V30 1409 H 127.849 -1.00375 6.02293 0
M  V30 1410 H 129.263 1.22796 5.59995 0
M  V30 1411 H 127.66 2.01745 5.65172 0
M  V30 1412 H 128.73 2.30285 4.26728 0
M  V30 1413 N 130.073 -1.45103 0.615059 0
M  V30 1414 C 131.321 -2.01784 0.112955 0
M  V30 1415 C 131.642 -1.48504 -1.26378 0
M  V30 1416 O 130.912 -0.682245 -1.83636 0
M  V30 1417 H 129.492 -0.745993 0.0387668 0
M  V30 1418 H 132.154 -1.77808 0.798141 0
M  V30 1419 H 131.25 -3.12025 0.0684069 0
M  V30 1420 N 131.551 -0.354651 -1.53558 0
M  V30 1421 C 132.798 0.238443 -2.01091 0
M  V30 1422 C 133.126 1.49663 -1.24222 0
M  V30 1423 O 132.381 1.93049 -0.321003 0
M  V30 1424 C 132.68 0.587121 -3.52545 0
M  V30 1425 C 132.346 -0.575472 -4.47213 0
M  V30 1426 C 131.008 -0.894497 -4.72813 0
M  V30 1427 C 133.36 -1.35489 -5.03281 0
M  V30 1428 C 130.688 -1.99511 -5.51736 0
M  V30 1429 C 133.04 -2.44583 -5.83405 0
M  V30 1430 C 131.704 -2.77033 -6.07296 0
M  V30 1431 H 130.974 0.0872526 -0.735845 0
M  V30 1432 H 133.621 -0.484859 -1.8526 0
M  V30 1433 H 131.926 1.39129 -3.66265 0
M  V30 1434 H 133.623 1.05809 -3.86789 0
M  V30 1435 H 130.213 -0.316774 -4.27428 0
M  V30 1436 H 134.397 -1.12167 -4.83459 0
M  V30 1437 H 129.653 -2.25063 -5.68469 0
M  V30 1438 H 133.827 -3.05401 -6.25862 0
M  V30 1439 H 131.454 -3.6244 -6.68237 0
M  V30 1440 N 133.029 1.57378 -0.0835403 0
M  V30 1441 C 133.992 2.12252 0.864959 0
M  V30 1442 C 134.992 1.04916 1.21858 0
M  V30 1443 O 136.182 1.30853 1.14991 0
M  V30 1444 C 133.314 2.63358 2.16461 0
M  V30 1445 H 134.507 2.97371 0.388676 0
M  V30 1446 H 132.06 1.55423 0.165317 0
M  V30 1447 H 132.795 1.81727 2.686 0
M  V30 1448 H 132.58 3.41826 1.92087 0
M  V30 1449 H 134.07 3.05847 2.84337 0
M  V30 1450 N 134.507 -0.190092 1.56449 0
M  V30 1451 C 135.417 -1.25591 1.98152 0
M  V30 1452 C 136.433 -1.49519 0.889944 0
M  V30 1453 O 137.609 -1.62036 1.19609 0
M  V30 1454 C 134.674 -2.57916 2.3169 0
M  V30 1455 C 133.735 -2.42015 3.5458 0
M  V30 1456 C 132.968 -3.6803 3.8651 0
M  V30 1457 O 133.191 -4.72413 3.1966 0
M  V30 1458 O 132.125 -3.6326 4.79923 0
M  V30 1459 H 135.951 -0.931988 2.89046 0
M  V30 1460 H 133.536 -0.395488 1.4407 0
M  V30 1461 H 135.418 -3.36008 2.54316 0
M  V30 1462 H 134.093 -2.89925 1.43963 0
M  V30 1463 H 133 -1.62017 3.37196 0
M  V30 1464 H 134.333 -2.14937 4.4279 0
M  V30 1465 N 135.985 -1.50799 -0.457987 0
M  V30 1466 C 136.915 -1.73553 -1.5621 0
M  V30 1467 C 137.896 -0.584774 -1.59732 0
M  V30 1468 O 139.081 -0.825314 -1.7579 0
M  V30 1469 C 136.211 -1.84169 -2.94447 0
M  V30 1470 C 135.165 -2.99461 -3.0579 0
M  V30 1471 C 134.491 -2.95235 -4.45803 0
M  V30 1472 C 135.791 -4.39766 -2.81786 0
M  V30 1473 H 137.485 -2.66 -1.37421 0
M  V30 1474 H 135.031 -1.28002 -0.659662 0
M  V30 1475 H 136.984 -1.98672 -3.71628 0
M  V30 1476 H 135.708 -0.883545 -3.14422 0
M  V30 1477 H 134.367 -2.8463 -2.31044 0
M  V30 1478 H 134.015 -1.97239 -4.62715 0
M  V30 1479 H 133.715 -3.72642 -4.54326 0
M  V30 1480 H 135.239 -3.11803 -5.24987 0
M  V30 1481 H 136.653 -4.55054 -3.4871 0
M  V30 1482 H 135.05 -5.18722 -3.0174 0
M  V30 1483 H 136.12 -4.51229 -1.7754 0
M  V30 1484 N 137.463 0.71206 -1.40597 0
M  V30 1485 C 138.395 1.83704 -1.37061 0
M  V30 1486 C 139.408 1.60453 -0.275426 0
M  V30 1487 O 140.597 1.70262 -0.53602 0
M  V30 1488 C 137.697 3.20172 -1.11099 0
M  V30 1489 C 136.87 3.7059 -2.3234 0
M  V30 1490 C 135.929 4.85681 -2.02485 0
M  V30 1491 O 134.955 4.9815 -2.75382 0
M  V30 1492 N 136.157 5.71735 -1.00497 0
M  V30 1493 H 138.922 1.87235 -2.34016 0
M  V30 1494 H 136.483 0.893739 -1.34996 0
M  V30 1495 H 138.475 3.94768 -0.891064 0
M  V30 1496 H 137.045 3.11767 -0.227989 0
M  V30 1497 H 136.265 2.87085 -2.7014 0
M  V30 1498 H 137.553 4.01011 -3.13157 0
M  V30 1499 H 136.951 5.64275 -0.401298 0
M  V30 1500 H 135.508 6.463 -0.844942 0
M  V30 1501 N 138.941 1.26152 0.944643 0
M  V30 1502 C 140.218 1.02247 1.66748 0
M  V30 1503 C 140.598 -0.448202 2.06287 0
M  V30 1504 O 139.946 -1.42779 1.78399 0
M  V30 1505 C 140.156 1.96788 2.88228 0
M  V30 1506 C 141.504 2.25201 3.59958 0
M  V30 1507 O 142.528 1.94626 2.98327 0
M  V30 1508 O 141.387 2.77242 4.70956 0
M  V30 1509 H 138.481 0.388517 0.730057 0
M  V30 1510 H 141.027 1.37348 0.99668 0
M  V30 1511 H 139.799 2.96047 2.55875 0
M  V30 1512 H 139.422 1.62145 3.63035 0
M  V30 1513 N 140.419 -1.14872 1.07899 0
M  V30 1514 C 141.349 -2.2193 0.725887 0
M  V30 1515 C 142.33 -1.67622 -0.28927 0
M  V30 1516 O 143.515 -1.93533 -0.160787 0
M  V30 1517 C 140.645 -3.47061 0.128856 0
M  V30 1518 C 139.599 -4.14363 1.07178 0
M  V30 1519 C 138.925 -5.33636 0.337229 0
M  V30 1520 C 140.225 -4.63492 2.40775 0
M  V30 1521 H 141.919 -2.51724 1.62097 0
M  V30 1522 H 139.465 -1.20991 0.780838 0
M  V30 1523 H 141.418 -4.21199 -0.130147 0
M  V30 1524 H 140.142 -3.16617 -0.80134 0
M  V30 1525 H 138.801 -3.42173 1.3158 0
M  V30 1526 H 138.449 -4.99449 -0.596606 0
M  V30 1527 H 138.149 -5.79609 0.965788 0
M  V30 1528 H 139.673 -6.10539 0.0861567 0
M  V30 1529 H 141.087 -5.2913 2.20669 0
M  V30 1530 H 139.484 -5.20148 2.99276 0
M  V30 1531 H 140.554 -3.78834 3.02676 0
M  V30 1532 N 141.898 -0.863906 -1.31812 0
M  V30 1533 C 143.138 -0.47825 -1.98726 0
M  V30 1534 C 143.502 0.950397 -1.66828 0
M  V30 1535 O 144.703 1.44109 -2.26905 0
M  V30 1536 C 142.974 -0.721134 -3.50049 0
M  V30 1537 S 144.533 -0.434432 -4.36644 0
M  V30 1538 H 141.351 -0.178773 -0.688158 0
M  V30 1539 H 143.953 -1.11862 -1.60334 0
M  V30 1540 H 142.657 -1.75981 -3.70755 0
M  V30 1541 H 142.188 -0.0675315 -3.93342 0
M  V30 1542 H 144.203 0.735786 -4.90714 0
M  V30 1543 N 143.376 1.44774 -0.622745 0
M  V30 1544 C 144.792 1.56986 -0.287652 0
M  V30 1545 C 144.992 1.61167 1.20944 0
M  V30 1546 O 144.048 1.55015 1.99315 0
M  V30 1547 C 145.361 2.84551 -0.972188 0
M  V30 1548 C 146.909 2.9825 -0.949536 0
M  V30 1549 C 147.384 4.28605 -1.61437 0
M  V30 1550 N 148.875 4.35399 -1.58057 0
M  V30 1551 C 149.61 5.34964 -2.064 0
M  V30 1552 N 149.106 6.40981 -2.62897 0
M  V30 1553 N 150.899 5.26419 -1.97078 0
M  V30 1554 H 143.05 1.40304 -1.59463 0
M  V30 1555 H 145.313 0.671794 -0.668878 0
M  V30 1556 H 145.019 2.87417 -2.02693 0
M  V30 1557 H 144.893 3.73807 -0.504771 0
M  V30 1558 H 147.28 2.94941 0.0967067 0
M  V30 1559 H 147.361 2.10364 -1.45536 0
M  V30 1560 H 147.005 4.32672 -2.66002 0
M  V30 1561 H 146.935 5.15334 -1.08344 0
M  V30 1562 H 149.426 3.59397 -1.16801 0
M  V30 1563 H 149.739 7.13225 -2.97539 0
M  V30 1564 H 148.084 6.4169 -2.66943 0
M  V30 1565 H 151.275 4.42504 -1.52669 0
M  V30 1566 H 151.448 6.03861 -2.35066 0
M  V30 1567 N 144.854 0.36279 1.53368 0
M  V30 1568 C 145.786 -0.519668 2.23231 0
M  V30 1569 C 146.799 -1.04844 1.24546 0
M  V30 1570 O 147.988 -0.955296 1.50786 0
M  V30 1571 C 145.088 -1.72995 2.9142 0
M  V30 1572 C 144.261 -1.33316 4.16588 0
M  V30 1573 C 143.32 -2.40521 4.68013 0
M  V30 1574 O 142.346 -2.03027 5.3176 0
M  V30 1575 N 143.548 -3.72065 4.45587 0
M  V30 1576 H 146.313 0.078751 2.99597 0
M  V30 1577 H 143.874 0.187833 1.60807 0
M  V30 1578 H 145.866 -2.44184 3.22733 0
M  V30 1579 H 144.436 -2.2353 2.18525 0
M  V30 1580 H 143.656 -0.451236 3.91609 0
M  V30 1581 H 144.944 -1.04432 4.97967 0
M  V30 1582 H 144.342 -4.05304 3.94646 0
M  V30 1583 H 142.899 -4.39366 4.81457 0
M  V30 1584 N 146.332 -1.57332 0.0918853 0
M  V30 1585 C 147.262 -2.16872 -0.865371 0
M  V30 1586 C 148.243 -1.10118 -1.29646 0
M  V30 1587 O 149.428 -1.38242 -1.36392 0
M  V30 1588 C 146.558 -2.74649 -2.12569 0
M  V30 1589 C 145.512 -3.86747 -1.83333 0
M  V30 1590 C 144.838 -4.31212 -3.16166 0
M  V30 1591 C 146.138 -5.10089 -1.1228 0
M  V30 1592 H 147.832 -2.97114 -0.369307 0
M  V30 1593 H 145.378 -1.42918 -0.176194 0
M  V30 1594 H 147.331 -3.14952 -2.7997 0
M  V30 1595 H 146.055 -1.91657 -2.64452 0
M  V30 1596 H 144.714 -3.46978 -1.18331 0
M  V30 1597 H 144.362 -3.45115 -3.6593 0
M  V30 1598 H 144.062 -5.06788 -2.97388 0
M  V30 1599 H 145.586 -4.74146 -3.84731 0
M  V30 1600 H 147 -5.47582 -1.69785 0
M  V30 1601 H 145.397 -5.91073 -1.03693 0
M  V30 1602 H 146.467 -4.84786 -0.105041 0
M  V30 1603 N 147.81 0.181792 -1.56548 0
M  V30 1604 C 148.76 1.22961 -1.92002 0
M  V30 1605 C 149.744 1.40331 -0.787146 0
M  V30 1606 O 150.936 1.42478 -1.05019 0
M  V30 1607 C 148.065 2.57144 -2.27446 0
M  V30 1608 C 147.151 2.43512 -3.47222 0
M  V30 1609 N 147.542 1.99577 -4.64761 0
M  V30 1610 C 145.84 2.74368 -3.51622 0
M  V30 1611 C 146.541 1.98156 -5.46909 0
M  V30 1612 N 145.517 2.40164 -4.8767 0
M  V30 1613 H 149.319 0.881462 -2.8037 0
M  V30 1614 H 146.833 0.390141 -1.57644 0
M  V30 1615 H 148.83 3.32847 -2.51035 0
M  V30 1616 H 147.49 2.92771 -1.40411 0
M  V30 1617 H 148.501 1.70078 -4.89177 0
M  V30 1618 H 145.178 3.14102 -2.75038 0
M  V30 1619 H 146.568 1.65975 -6.51077 0
M  V30 1620 N 149.288 1.51039 0.449983 0
M  V30 1621 C 150.251 1.70863 1.5277 0
M  V30 1622 C 151.251 0.578846 1.5002 0
M  V30 1623 O 152.441 0.846213 1.52266 0
M  V30 1624 C 149.573 1.75341 2.9235 0
M  V30 1625 H 150.766 2.67034 1.36502 0
M  V30 1626 H 148.319 1.40838 0.677812 0
M  V30 1627 H 149.054 0.809383 3.14037 0
M  V30 1628 H 148.839 2.57436 2.95752 0
M  V30 1629 H 150.329 1.92559 3.70555 0
M  V30 1630 N 150.766 -0.704594 1.40972 0
M  V30 1631 C 152.182 -1.01406 1.23244 0
M  V30 1632 C 152.382 -2.01169 0.115399 0
M  V30 1633 O 151.438 -2.47021 -0.523147 0
M  V30 1634 C 152.751 -1.54728 2.57836 0
M  V30 1635 C 154.299 -1.66658 2.64942 0
M  V30 1636 C 154.774 -2.23383 3.9983 0
M  V30 1637 N 156.265 -2.30756 4.01629 0
M  V30 1638 C 157 -2.75655 5.02794 0
M  V30 1639 N 156.496 -3.20225 6.14352 0
M  V30 1640 N 158.289 -2.75138 4.90159 0
M  V30 1641 H 150.44 -0.0435285 2.12355 0
M  V30 1642 H 152.703 -0.0818951 0.944456 0
M  V30 1643 H 152.409 -0.888832 3.40283 0
M  V30 1644 H 152.283 -2.53084 2.79693 0
M  V30 1645 H 154.67 -2.31617 1.8286 0
M  V30 1646 H 154.751 -0.668717 2.46904 0
M  V30 1647 H 154.395 -1.59043 4.82357 0
M  V30 1648 H 154.325 -3.23904 4.15203 0
M  V30 1649 H 156.816 -1.99291 3.21079 0
M  V30 1650 H 157.129 -3.53084 6.87424 0
M  V30 1651 H 155.474 -3.18156 6.17901 0
M  V30 1652 H 158.665 -2.39661 4.02095 0
M  V30 1653 H 158.838 -3.09812 5.6914 0
M  V30 1654 N 152.244 -1.26651 -0.937939 0
M  V30 1655 C 153.49 -1.12553 -1.687 0
M  V30 1656 C 153.823 0.329782 -1.91379 0
M  V30 1657 O 153.098 1.24202 -1.4968 0
M  V30 1658 C 153.381 -1.89862 -3.05981 0
M  V30 1659 C 153.234 -3.43318 -2.90607 0
M  V30 1660 C 154.553 -1.69499 -4.0615 0
M  V30 1661 H 151.672 -0.410257 -0.612257 0
M  V30 1662 H 154.314 -1.55685 -1.08913 0
M  V30 1663 H 152.464 -1.53204 -3.57017 0
M  V30 1664 H 154.136 -3.89747 -2.46769 0
M  V30 1665 H 152.379 -3.70179 -2.26164 0
M  V30 1666 H 153.05 -3.92642 -3.8799 0
M  V30 1667 H 155.526 -2.01442 -3.64088 0
M  V30 1668 H 154.402 -2.26002 -5.00214 0
M  V30 1669 H 154.663 -0.640365 -4.37438 0
M  V30 1670 N 153.722 1.14298 -1.08507 0
M  V30 1671 C 154.999 1.81544 -0.728088 0
M  V30 1672 C 155.379 1.95838 0.78808 0
M  V30 1673 O 154.727 1.51904 1.70697 0
M  V30 1674 C 154.937 3.17169 -1.45619 0
M  V30 1675 C 156.285 3.9265 -1.61591 0
M  V30 1676 O 157.309 3.26762 -1.41793 0
M  V30 1677 O 156.168 5.10807 -1.94263 0
M  V30 1678 H 153.262 0.78491 -0.260471 0
M  V30 1679 H 155.808 1.21307 -1.18671 0
M  V30 1680 H 154.58 3.01934 -2.489 0
M  V30 1681 H 154.203 3.851 -0.989124 0
M  V30 1682 N 155.201 0.870884 1.31352 0
M  V30 1683 C 156.148 0.325425 2.28494 0
M  V30 1684 C 157.118 -0.576615 1.5577 0
M  V30 1685 O 158.303 -0.508059 1.83911 0
M  V30 1686 C 155.443 -0.466283 3.41935 0
M  V30 1687 C 154.556 0.463378 4.29508 0
M  V30 1688 C 153.691 -0.342544 5.30094 0
M  V30 1689 C 152.73 0.583486 6.09313 0
M  V30 1690 N 151.867 -0.186244 7.01853 0
M  V30 1691 H 156.707 1.15901 2.74538 0
M  V30 1692 H 154.244 0.58294 1.35056 0
M  V30 1693 H 156.202 -0.941085 4.06447 0
M  V30 1694 H 154.832 -1.26456 2.97 0
M  V30 1695 H 153.884 1.05663 3.65431 0
M  V30 1696 H 155.196 1.1734 4.84802 0
M  V30 1697 H 154.35 -0.879816 6.00287 0
M  V30 1698 H 153.089 -1.08585 4.75458 0
M  V30 1699 H 152.094 1.13251 5.3801 0
M  V30 1700 H 153.319 1.32566 6.66035 0
M  V30 1701 H 151.265 -0.912348 6.49625 0
M  V30 1702 H 151.182 0.464422 7.54572 0
M  V30 1703 H 152.45 -0.704716 7.76308 0
M  V30 1704 N 156.679 -1.44442 0.630414 0
M  V30 1705 C 157.925 -2.02351 0.134816 0
M  V30 1706 C 158.258 -1.4947 -1.23986 0
M  V30 1707 O 157.533 -0.678475 -1.82283 0
M  V30 1708 C 157.816 -3.59898 0.120707 0
M  V30 1709 C 157.669 -4.23063 1.52767 0
M  V30 1710 C 158.988 -4.36585 -0.555127 0
M  V30 1711 H 156.107 -0.73527 0.0504646 0
M  V30 1712 H 158.749 -1.72022 0.806751 0
M  V30 1713 H 156.899 -3.85868 -0.451477 0
M  V30 1714 H 158.571 -4.08202 2.14869 0
M  V30 1715 H 156.814 -3.80586 2.08175 0
M  V30 1716 H 157.485 -5.32071 1.46984 0
M  V30 1717 H 159.961 -4.16044 -0.0685429 0
M  V30 1718 H 158.837 -5.46294 -0.534185 0
M  V30 1719 H 159.098 -4.11138 -1.62535 0
M  V30 1720 N 158.157 -0.370918 -1.53173 0
M  V30 1721 C 159.434 0.273754 -1.93675 0
M  V30 1722 C 159.814 1.65938 -1.3049 0
M  V30 1723 O 159.162 2.23698 -0.465999 0
M  V30 1724 C 159.372 0.318602 -3.47543 0
M  V30 1725 C 160.72 0.556392 -4.20939 0
M  V30 1726 O 161.744 0.399587 -3.53952 0
M  V30 1727 O 160.603 0.862133 -5.39657 0
M  V30 1728 H 157.697 0.165448 -0.810281 0
M  V30 1729 H 160.243 -0.42409 -1.64315 0
M  V30 1730 H 159.015 -0.652687 -3.85818 0
M  V30 1731 H 158.638 1.06212 -3.83151 0
M  V30 1732 N 159.635 1.57281 -0.100228 0
M  V30 1733 C 160.545 2.17833 0.870965 0
M  V30 1734 C 161.561 1.14921 1.30649 0
M  V30 1735 O 162.737 1.47313 1.37335 0
M  V30 1736 C 159.802 2.75085 2.1102 0
M  V30 1737 C 158.863 3.9297 1.72838 0
M  V30 1738 C 158.096 4.47482 2.90854 0
M  V30 1739 O 158.319 4.00922 4.05731 0
M  V30 1740 O 157.253 5.38433 2.69023 0
M  V30 1741 H 161.079 3.0124 0.38575 0
M  V30 1742 H 158.664 1.48881 0.124397 0
M  V30 1743 H 160.546 3.11656 2.83634 0
M  V30 1744 H 159.221 1.94721 2.58584 0
M  V30 1745 H 158.128 3.61201 0.973883 0
M  V30 1746 H 159.461 4.74713 1.30033 0
M  V30 1747 N 161.113 -0.173488 1.56642 0
M  V30 1748 C 162.023 -1.23482 1.99473 0
M  V30 1749 C 163.039 -1.48567 0.905752 0
M  V30 1750 O 164.215 -1.60758 1.21321 0
M  V30 1751 C 161.28 -2.55444 2.34413 0
M  V30 1752 C 160.341 -2.38241 3.57127 0
M  V30 1753 C 159.574 -3.63909 3.90392 0
M  V30 1754 O 159.797 -4.68996 3.24653 0
M  V30 1755 O 158.731 -3.58149 4.83749 0
M  V30 1756 H 162.557 -0.901279 2.90018 0
M  V30 1757 H 160.142 -0.380185 1.44482 0
M  V30 1758 H 162.024 -3.33292 2.57865 0
M  V30 1759 H 160.699 -2.88382 1.4703 0
M  V30 1760 H 159.606 -1.58431 3.38896 0
M  V30 1761 H 160.939 -2.10228 4.45045 0
M  V30 1762 N 162.591 -1.51276 -0.441967 0
M  V30 1763 C 164.007 -1.39349 -0.778083 0
M  V30 1764 C 164.207 -0.472212 -1.95889 0
M  V30 1765 O 163.263 0.0743551 -2.5239 0
M  V30 1766 C 164.576 -2.81292 -1.0628 0
M  V30 1767 C 166.124 -2.9041 -1.16751 0
M  V30 1768 C 166.599 -4.33251 -1.48519 0
M  V30 1769 N 168.09 -4.36336 -1.55453 0
M  V30 1770 C 168.825 -5.43885 -1.81596 0
M  V30 1771 N 168.321 -6.61601 -2.05562 0
M  V30 1772 N 170.114 -5.3136 -1.8334 0
M  V30 1773 H 162.265 -2.09729 0.335774 0
M  V30 1774 H 164.528 -0.943925 0.0878028 0
M  V30 1775 H 164.234 -3.50678 -0.267905 0
M  V30 1776 H 164.108 -3.20334 -1.99163 0
M  V30 1777 H 166.495 -2.21225 -1.95304 0
M  V30 1778 H 166.576 -2.54871 -0.217801 0
M  V30 1779 H 166.22 -5.02984 -0.704958 0
M  V30 1780 H 166.15 -4.66299 -2.44689 0
M  V30 1781 H 168.641 -3.51466 -1.38853 0
M  V30 1782 H 168.954 -7.39361 -2.24867 0
M  V30 1783 H 167.299 -6.64725 -2.02894 0
M  V30 1784 H 170.49 -4.38382 -1.64132 0
M  V30 1785 H 170.663 -6.15258 -2.03377 0
M  V30 1786 N 164.069 0.697108 -1.41344 0
M  V30 1787 C 165.299 1.48377 -1.43763 0
M  V30 1788 C 165.707 1.89156 -0.0408726 0
M  V30 1789 O 165.05 1.57239 0.949812 0
M  V30 1790 C 165.112 2.7781 -2.2817 0
M  V30 1791 C 164.776 2.59244 -3.76353 0
M  V30 1792 C 165.773 2.25292 -4.68551 0
M  V30 1793 C 163.458 2.74933 -4.20378 0
M  V30 1794 C 165.452 2.07264 -6.02761 0
M  V30 1795 C 163.139 2.56521 -5.54653 0
M  V30 1796 C 164.137 2.22737 -6.4566 0
M  V30 1797 O 163.825 2.04485 -7.77458 0
M  V30 1798 H 163.557 0.463842 -0.491759 0
M  V30 1799 H 166.111 0.865934 -1.86255 0
M  V30 1800 H 164.341 3.41995 -1.8049 0
M  V30 1801 H 166.03 3.39608 -2.22309 0
M  V30 1802 H 166.796 2.12787 -4.35829 0
M  V30 1803 H 162.675 3.00213 -3.49848 0
M  V30 1804 H 166.219 1.80817 -6.73759 0
M  V30 1805 H 162.116 2.68616 -5.86955 0
M  V30 1806 H 162.884 2.1926 -7.88586 0
M  V30 1807 N 165.547 1.27147 0.931209 0
M  V30 1808 C 166.824 1.0401 1.65654 0
M  V30 1809 C 167.204 -0.426297 2.06751 0
M  V30 1810 O 166.552 -1.40879 1.79904 0
M  V30 1811 C 166.762 1.99834 2.86125 0
M  V30 1812 C 168.11 2.29007 3.57549 0
M  V30 1813 O 169.134 1.97779 2.96246 0
M  V30 1814 O 167.993 2.82222 4.67989 0
M  V30 1815 H 165.087 0.396239 0.725895 0
M  V30 1816 H 167.633 1.38397 0.982056 0
M  V30 1817 H 166.405 2.98744 2.52721 0
M  V30 1818 H 166.028 1.65987 3.61295 0
M  V30 1819 N 167.025 -1.13721 1.09112 0
M  V30 1820 C 168.274 -1.84275 0.82009 0
M  V30 1821 C 168.587 -1.84253 -0.656509 0
M  V30 1822 O 169.793 -2.50668 -1.04296 0
M  V30 1823 C 168.249 -3.30825 1.41714 0
M  V30 1824 C 167.857 -3.39244 2.92605 0
M  V30 1825 C 169.601 -4.06443 1.22492 0
M  V30 1826 C 167.508 -4.80047 3.45411 0
M  V30 1827 H 166.438 -0.690387 0.30312 0
M  V30 1828 H 169.089 -1.28146 1.31343 0
M  V30 1829 H 167.471 -3.86737 0.851498 0
M  V30 1830 H 168.645 -2.93344 3.55367 0
M  V30 1831 H 166.96 -2.77088 3.10823 0
M  V30 1832 H 169.557 -5.10387 1.59402 0
M  V30 1833 H 169.9 -4.15972 0.165299 0
M  V30 1834 H 170.433 -3.56852 1.75788 0
M  V30 1835 H 167.172 -4.75709 4.50978 0
M  V30 1836 H 166.692 -5.26455 2.87411 0
M  V30 1837 H 168.371 -5.48957 3.42425 0
M  V30 1838 N 168.503 -0.877838 -1.30888 0
M  V30 1839 C 169.413 -0.343096 -2.32078 0
M  V30 1840 C 170.429 0.551022 -1.65045 0
M  V30 1841 O 171.605 0.445854 -1.96403 0
M  V30 1842 C 168.67 0.439905 -3.43898 0
M  V30 1843 C 167.731 -0.483111 -4.26573 0
M  V30 1844 C 166.964 0.262616 -5.33053 0
M  V30 1845 O 167.187 1.48967 -5.50604 0
M  V30 1846 O 166.121 -0.383593 -6.00676 0
M  V30 1847 H 169.947 -1.18203 -2.79753 0
M  V30 1848 H 167.532 -0.64145 -1.34929 0
M  V30 1849 H 169.414 0.883504 -4.12034 0
M  V30 1850 H 168.089 1.25526 -2.98371 0
M  V30 1851 H 166.996 -0.975374 -3.61161 0
M  V30 1852 H 168.329 -1.26427 -4.75686 0
M  V30 1853 N 169.982 1.44106 -0.638065 0
M  V30 1854 C 170.945 2.29138 0.0531013 0
M  V30 1855 C 171.945 1.41409 0.765506 0
M  V30 1856 O 173.135 1.63206 0.609046 0
M  V30 1857 C 170.267 3.23144 1.08584 0
M  V30 1858 H 171.46 2.91739 -0.694883 0
M  V30 1859 H 169.013 1.51134 -0.398538 0
M  V30 1860 H 169.748 2.65408 1.86357 0
M  V30 1861 H 169.533 3.87804 0.578852 0
M  V30 1862 H 171.023 3.87004 1.56899 0
M  V30 1863 N 171.46 0.379036 1.52974 0
M  V30 1864 C 172.407 -0.461048 2.26148 0
M  V30 1865 C 173.377 -1.06637 1.27349 0
M  V30 1866 O 174.562 -1.09633 1.56157 0
M  V30 1867 C 171.702 -1.58782 3.06402 0
M  V30 1868 C 170.815 -1.00636 4.20115 0
M  V30 1869 C 169.95 -2.10334 4.87784 0
M  V30 1870 C 168.989 -1.49724 5.93506 0
M  V30 1871 N 168.126 -2.5331 6.54812 0
M  V30 1872 H 172.966 0.169429 2.97518 0
M  V30 1873 H 170.503 0.0953806 1.4679 0
M  V30 1874 H 172.461 -2.25174 3.51215 0
M  V30 1875 H 171.091 -2.18876 2.37261 0
M  V30 1876 H 170.143 -0.232332 3.7969 0
M  V30 1877 H 171.455 -0.523343 4.96047 0
M  V30 1878 H 170.609 -2.84519 5.35849 0
M  V30 1879 H 169.348 -2.61992 4.11353 0
M  V30 1880 H 168.353 -0.740598 5.44789 0
M  V30 1881 H 169.578 -0.988732 6.71864 0
M  V30 1882 H 167.524 -3.04156 5.81227 0
M  V30 1883 H 167.441 -2.09734 7.26325 0
M  V30 1884 H 168.709 -3.27155 7.07524 0
M  V30 1885 N 172.938 -1.57226 0.108567 0
M  V30 1886 C 174.184 -1.95121 -0.552761 0
M  V30 1887 C 174.517 -0.991345 -1.66991 0
M  V30 1888 O 173.792 -0.0267211 -1.94482 0
M  V30 1889 C 174.075 -3.43039 -1.09528 0
M  V30 1890 C 173.928 -4.49797 0.0177332 0
M  V30 1891 C 175.247 -3.92567 -1.98945 0
M  V30 1892 H 172.366 -0.709496 -0.199461 0
M  V30 1893 H 175.008 -1.89126 0.182011 0
M  V30 1894 H 173.158 -3.48279 -1.72146 0
M  V30 1895 H 174.83 -4.56661 0.652584 0
M  V30 1896 H 173.073 -4.284 0.682309 0
M  V30 1897 H 173.744 -5.50528 -0.402919 0
M  V30 1898 H 176.22 -3.89565 -1.46214 0
M  V30 1899 H 175.096 -4.96605 -2.33827 0
M  V30 1900 H 175.357 -3.32648 -2.91201 0
M  V30 1901 N 174.416 0.165178 -1.56732 0
M  V30 1902 C 175.644 0.896218 -1.86482 0
M  V30 1903 C 176.059 1.75555 -0.694675 0
M  V30 1904 O 175.416 1.79379 0.33607 0
M  V30 1905 C 175.467 1.76792 -3.1532 0
M  V30 1906 O 175.188 0.943239 -4.27825 0
M  V30 1907 C 176.689 2.6081 -3.58459 0
M  V30 1908 H 173.909 0.260064 -0.618553 0
M  V30 1909 H 176.453 0.163428 -2.03846 0
M  V30 1910 H 174.608 2.45398 -2.99764 0
M  V30 1911 H 175.022 1.53998 -5.01383 0
M  V30 1912 H 176.496 3.17579 -4.51495 0
M  V30 1913 H 176.973 3.35977 -2.82872 0
M  V30 1914 H 177.579 1.97526 -3.76648 0
M  V30 1915 N 175.894 1.51508 0.433938 0
M  V30 1916 C 176.841 1.73068 1.52696 0
M  V30 1917 C 177.811 0.572441 1.55924 0
M  V30 1918 O 178.996 0.807253 1.72882 0
M  V30 1919 C 176.136 1.86474 2.90381 0
M  V30 1920 C 175.249 3.14037 2.96656 0
M  V30 1921 C 174.384 3.18019 4.25485 0
M  V30 1922 C 173.423 4.39882 4.2564 0
M  V30 1923 N 172.56 4.41394 5.45999 0
M  V30 1924 H 177.4 2.66366 1.33615 0
M  V30 1925 H 174.937 1.32008 0.649018 0
M  V30 1926 H 176.895 1.92229 3.70275 0
M  V30 1927 H 175.525 0.965809 3.08013 0
M  V30 1928 H 174.577 3.17575 2.09404 0
M  V30 1929 H 175.889 4.0394 2.92633 0
M  V30 1930 H 175.043 3.22708 5.13755 0
M  V30 1931 H 173.782 2.2601 4.3217 0
M  V30 1932 H 172.787 4.35366 3.35763 0
M  V30 1933 H 174.012 5.33159 4.20617 0
M  V30 1934 H 171.958 3.52258 5.53399 0
M  V30 1935 H 171.875 5.25111 5.4387 0
M  V30 1936 H 173.143 4.50281 6.36292 0
M  V30 1937 N 177.372 -0.689602 1.41712 0
M  V30 1938 C 178.32 -1.82475 1.44242 0
M  V30 1939 C 179.314 -1.66354 0.319774 0
M  V30 1940 O 180.52 -1.73143 0.492089 0
M  V30 1941 H 176.895 -0.601416 0.451445 0
M  V30 1942 H 178.866 -1.77458 2.39899 0
M  V30 1943 C 177.615 -3.20535 1.3473 0
M  V30 1944 H 176.938 -3.33559 2.20405 0
M  V30 1945 H 178.378 -4.00023 1.40562 0
M  V30 1946 C 176.837 -3.36846 0.0603281 0
M  V30 1947 O 177.367 -3.91656 -0.892663 0
M  V30 1948 N 175.573 -2.90595 -0.0177039 0
M  V30 1949 H 175.12 -2.46178 0.758572 0
M  V30 1950 H 175.078 -3.01886 -0.878201 0
M  V30 1951 N 178.85 -1.27639 -0.924453 0
M  V30 1952 C 180.099 -1.13549 -1.66702 0
M  V30 1953 C 180.412 0.317487 -1.93006 0
M  V30 1954 O 181.618 0.579333 -2.65247 0
M  V30 1955 C 180.074 -1.98426 -3.00259 0
M  V30 1956 C 179.682 -3.484 -2.81641 0
M  V30 1957 C 181.426 -1.92993 -3.78092 0
M  V30 1958 C 179.333 -4.25464 -4.10773 0
M  V30 1959 H 178.263 -0.421351 -0.625283 0
M  V30 1960 H 180.914 -1.52085 -1.02676 0
M  V30 1961 H 179.296 -1.52736 -3.6536 0
M  V30 1962 H 180.47 -4.01973 -2.25287 0
M  V30 1963 H 178.785 -3.55245 -2.17232 0
M  V30 1964 H 181.382 -2.47844 -4.7379 0
M  V30 1965 H 181.725 -0.904281 -4.0636 0
M  V30 1966 H 182.258 -2.36595 -3.19793 0
M  V30 1967 H 178.997 -5.28566 -3.87683 0
M  V30 1968 H 178.517 -3.76667 -4.66779 0
M  V30 1969 H 180.196 -4.34812 -4.79111 0
M  V30 1970 N 180.328 1.1314 -1.09713 0
M  V30 1971 C 181.556 1.88321 -0.856898 0
M  V30 1972 C 181.971 1.79276 0.592073 0
M  V30 1973 O 181.328 1.16142 1.40774 0
M  V30 1974 C 181.379 3.37812 -1.28706 0
M  V30 1975 O 181.1 3.46627 -2.67921 0
M  V30 1976 C 182.601 4.29952 -1.07964 0
M  V30 1977 H 179.821 0.596094 -0.308079 0
M  V30 1978 H 182.365 1.43205 -1.45988 0
M  V30 1979 H 180.52 3.805 -0.727912 0
M  V30 1980 H 180.934 4.39579 -2.8613 0
M  V30 1981 H 182.408 5.33159 -1.42986 0
M  V30 1982 H 182.885 4.39196 -0.0176577 0
M  V30 1983 H 183.491 3.93036 -1.62489 0
M  V30 1984 N 181.806 0.884767 1.30421 0
M  V30 1985 C 182.716 0.355398 2.31892 0
M  V30 1986 C 183.732 -0.542261 1.65335 0
M  V30 1987 O 184.908 -0.435432 1.96637 0
M  V30 1988 C 181.973 -0.421661 3.44126 0
M  V30 1989 C 181.034 0.505727 4.26311 0
M  V30 1990 C 180.267 -0.234343 5.33185 0
M  V30 1991 O 180.49 -1.46045 5.51386 0
M  V30 1992 O 179.424 0.415443 6.00465 0
M  V30 1993 H 183.25 1.19685 2.79122 0
M  V30 1994 H 180.835 0.648596 1.34587 0
M  V30 1995 H 182.717 -0.861641 4.12497 0
M  V30 1996 H 181.392 -1.23942 2.99032 0
M  V30 1997 H 180.299 0.994513 3.60639 0
M  V30 1998 H 181.632 1.28948 4.75009 0
M  V30 1999 N 183.284 -1.43765 0.645699 0
M  V30 2000 C 184.533 -2.01116 0.153412 0
M  V30 2001 C 184.846 -1.51493 -1.23731 0
M  V30 2002 O 186.052 -2.01067 -1.8244 0
M  V30 2003 C 184.508 -3.59206 0.223473 0
M  V30 2004 C 184.116 -4.17823 1.61642 0
M  V30 2005 C 185.86 -4.23972 -0.211597 0
M  V30 2006 C 183.767 -5.68183 1.64081 0
M  V30 2007 H 182.697 -0.752093 0.0535891 0
M  V30 2008 H 185.348 -1.6482 0.806633 0
M  V30 2009 H 183.73 -3.92867 -0.497118 0
M  V30 2010 H 184.904 -3.95674 2.36176 0
M  V30 2011 H 183.219 -3.65399 1.99681 0
M  V30 2012 H 185.816 -5.34275 -0.213112 0
M  V30 2013 H 186.159 -3.97352 -1.24165 0
M  V30 2014 H 186.692 -3.95166 0.456988 0
M  V30 2015 H 183.431 -5.99559 2.64971 0
M  V30 2016 H 182.951 -5.9241 0.938611 0
M  V30 2017 H 184.63 -6.32085 1.3812 0
M  V30 2018 N 184.763 -0.387143 -1.52771 0
M  V30 2019 C 185.726 0.436939 -2.24997 0
M  V30 2020 C 186.726 0.991991 -1.26555 0
M  V30 2021 O 187.916 0.874335 -1.50669 0
M  V30 2022 C 185.048 1.61281 -3.00335 0
M  V30 2023 H 186.241 -0.195365 -2.99263 0
M  V30 2024 H 183.794 -0.139218 -1.55679 0
M  V30 2025 H 184.529 2.2826 -2.30364 0
M  V30 2026 H 184.314 1.22154 -3.72587 0
M  V30 2027 H 185.804 2.19629 -3.5518 0
M  V30 2028 N 186.241 1.57166 -0.116904 0
M  V30 2029 C 187.518 1.86645 0.585049 0
M  V30 2030 C 187.898 1.0177 1.84949 0
M  V30 2031 O 187.246 0.0960379 2.28298 0
M  V30 2032 C 187.456 3.37736 0.879507 0
M  V30 2033 C 188.804 4.06289 1.23348 0
M  V30 2034 O 189.828 3.42743 0.969836 0
M  V30 2035 O 188.687 5.18455 1.7282 0
M  V30 2036 H 185.781 0.772593 0.295007 0
M  V30 2037 H 188.327 1.69025 -0.151249 0
M  V30 2038 H 187.099 3.91296 -0.0166136 0
M  V30 2039 H 186.722 3.6078 1.67103 0
M  V30 2040 N 187.719 -0.156864 1.56817 0
M  V30 2041 C 188.649 -1.19589 2.00551 0
M  V30 2042 C 189.63 -1.4536 0.883426 0
M  V30 2043 O 190.815 -1.56449 1.15054 0
M  V30 2044 C 187.945 -2.53143 2.37773 0
M  V30 2045 C 186.899 -2.41913 3.53075 0
M  V30 2046 C 186.225 -3.80088 3.76081 0
M  V30 2047 C 187.525 -1.91157 4.86062 0
M  V30 2048 H 189.219 -0.832293 2.87599 0
M  V30 2049 H 186.765 -0.398918 1.38364 0
M  V30 2050 H 188.718 -3.26047 2.66967 0
M  V30 2051 H 187.442 -2.91319 1.4765 0
M  V30 2052 H 186.101 -1.71462 3.24031 0
M  V30 2053 H 185.749 -4.15683 2.83225 0
M  V30 2054 H 185.449 -3.73439 4.53671 0
M  V30 2055 H 186.973 -4.54556 4.0769 0
M  V30 2056 H 188.387 -2.53846 5.14038 0
M  V30 2057 H 186.784 -1.95422 5.67389 0
M  V30 2058 H 187.854 -0.866673 4.77092 0
M  V30 2059 N 189.197 -1.51736 -0.425897 0
M  V30 2060 C 190.425 -1.68794 -1.1965 0
M  V30 2061 C 190.84 -0.390164 -1.84725 0
M  V30 2062 O 190.197 0.632376 -1.71194 0
M  V30 2063 C 190.248 -2.81174 -2.27208 0
M  V30 2064 O 189.969 -4.05925 -1.64793 0
M  V30 2065 C 191.47 -3.09599 -3.17275 0
M  V30 2066 H 188.69 -0.566128 -0.360194 0
M  V30 2067 H 191.234 -1.98211 -0.503249 0
M  V30 2068 H 189.389 -2.54324 -2.9223 0
M  V30 2069 H 189.803 -4.68423 -2.35967 0
M  V30 2070 H 191.277 -3.91786 -3.88854 0
M  V30 2071 H 191.754 -2.22468 -3.78688 0
M  V30 2072 H 192.36 -3.38151 -2.57941 0
M  V30 2073 N 190.675 0.682077 -1.42076 0
M  V30 2074 C 191.607 1.80755 -1.40926 0
M  V30 2075 C 192.62 1.59833 -0.309398 0
M  V30 2076 O 193.809 1.69087 -0.572014 0
M  V30 2077 C 190.909 3.17744 -1.17865 0
M  V30 2078 C 190.082 3.65578 -2.40149 0
M  V30 2079 C 189.141 4.81277 -2.12742 0
M  V30 2080 O 188.167 4.92197 -2.85887 0
M  V30 2081 N 189.369 5.69474 -1.12602 0
M  V30 2082 H 192.134 1.82229 -2.37935 0
M  V30 2083 H 189.695 0.864903 -1.36861 0
M  V30 2084 H 191.687 3.9279 -0.9746 0
M  V30 2085 H 190.257 3.11214 -0.294068 0
M  V30 2086 H 189.477 2.81291 -2.76169 0
M  V30 2087 H 190.765 3.94278 -3.21593 0
M  V30 2088 H 190.163 5.63297 -0.520899 0
M  V30 2089 H 188.72 6.44363 -0.981842 0
M  V30 2090 N 192.153 1.28127 0.917671 0
M  V30 2091 C 193.1 1.11717 2.0196 0
M  V30 2092 C 194.07 0.0153929 1.66093 0
M  V30 2093 O 195.255 0.179596 1.89953 0
M  V30 2094 C 192.395 0.780927 3.36148 0
M  V30 2095 C 191.508 1.96135 3.84909 0
M  V30 2096 C 190.643 1.56609 5.0759 0
M  V30 2097 C 189.682 2.71339 5.48673 0
M  V30 2098 N 188.819 2.32332 6.62545 0
M  V30 2099 H 193.659 2.06003 2.15329 0
M  V30 2100 H 191.196 1.02535 1.05475 0
M  V30 2101 H 193.154 0.56675 4.13333 0
M  V30 2102 H 191.784 -0.124998 3.22558 0
M  V30 2103 H 190.836 2.28777 3.03916 0
M  V30 2104 H 192.148 2.82165 4.1132 0
M  V30 2105 H 191.302 1.31374 5.92305 0
M  V30 2106 H 190.041 0.677014 4.82978 0
M  V30 2107 H 189.046 2.97276 4.62501 0
M  V30 2108 H 190.271 3.60882 5.75274 0
M  V30 2109 H 188.217 1.45889 6.39572 0
M  V30 2110 H 188.134 3.11899 6.88662 0
M  V30 2111 H 189.402 2.10371 7.50576 0
M  V30 2112 N 193.631 -1.12557 1.10312 0
M  V30 2113 C 194.88 -1.83395 0.839588 0
M  V30 2114 C 195.193 -1.84939 -0.636929 0
M  V30 2115 O 196.399 -2.51761 -1.01631 0
M  V30 2116 C 194.855 -3.29303 1.45215 0
M  V30 2117 C 194.463 -3.36122 2.96186 0
M  V30 2118 C 196.207 -4.05121 1.26796 0
M  V30 2119 C 194.114 -4.76357 3.50483 0
M  V30 2120 H 193.044 -0.687133 0.310425 0
M  V30 2121 H 195.695 -1.26746 1.32694 0
M  V30 2122 H 194.077 -3.85812 0.892469 0
M  V30 2123 H 195.251 -2.89559 3.58458 0
M  V30 2124 H 193.566 -2.73776 3.13745 0
M  V30 2125 H 196.163 -5.08668 1.64806 0
M  V30 2126 H 196.506 -4.15773 0.209409 0
M  V30 2127 H 197.039 -3.54967 1.79563 0
M  V30 2128 H 193.778 -4.70899 4.55998 0
M  V30 2129 H 193.298 -5.23377 2.92978 0
M  V30 2130 H 194.977 -5.45294 3.48228 0
M  V30 2131 N 195.109 -0.891671 -1.2995 0
M  V30 2132 C 196.356 -0.513501 -1.95881 0
M  V30 2133 C 196.684 0.938655 -1.70351 0
M  V30 2134 O 195.939 1.67936 -1.00478 0
M  V30 2135 C 196.238 -0.742868 -3.49594 0
M  V30 2136 C 195.904 -2.17114 -3.95186 0
M  V30 2137 C 194.566 -2.56169 -4.07346 0
M  V30 2138 C 196.918 -3.10162 -4.18866 0
M  V30 2139 C 194.246 -3.87469 -4.4055 0
M  V30 2140 C 196.598 -4.41001 -4.53542 0
M  V30 2141 C 195.262 -4.79941 -4.63911 0
M  V30 2142 H 194.532 -0.187903 -0.71678 0
M  V30 2143 H 197.179 -1.1288 -1.54694 0
M  V30 2144 H 195.484 -0.044586 -3.91775 0
M  V30 2145 H 197.181 -0.429767 -3.9869 0
M  V30 2146 H 193.771 -1.85801 -3.86233 0
M  V30 2147 H 197.955 -2.81206 -4.08946 0
M  V30 2148 H 193.211 -4.17371 -4.46779 0
M  V30 2149 H 197.385 -5.13133 -4.70815 0
M  V30 2150 H 195.012 -5.81719 -4.89395 0
M  V30 2151 N 196.587 1.43421 -0.653314 0
M  V30 2152 C 197.864 1.95361 -0.0966581 0
M  V30 2153 C 198.244 1.59461 1.38331 0
M  V30 2154 O 197.592 0.879777 2.10884 0
M  V30 2155 C 197.802 3.47311 -0.342988 0
M  V30 2156 C 199.15 4.23875 -0.24798 0
M  V30 2157 O 200.174 3.55133 -0.275553 0
M  V30 2158 O 199.033 5.4623 -0.171771 0
M  V30 2159 H 196.127 0.826945 0.00956291 0
M  V30 2160 H 198.673 1.5336 -0.726558 0
M  V30 2161 H 197.445 3.66569 -1.36906 0
M  V30 2162 H 197.068 3.9631 0.319975 0
M  V30 2163 N 198.065 0.39524 1.52563 0
M  V30 2164 C 198.995 -0.428384 2.29537 0
M  V30 2165 C 199.976 -1.05831 1.33169 0
M  V30 2166 O 201.161 -1.06995 1.62067 0
M  V30 2167 C 198.291 -1.55274 3.10656 0
M  V30 2168 C 197.245 -1.04855 4.14957 0
M  V30 2169 C 196.571 -2.26543 4.84337 0
M  V30 2170 C 197.871 -0.112324 5.22179 0
M  V30 2171 H 199.565 0.213867 2.98635 0
M  V30 2172 H 197.111 0.104298 1.43622 0
M  V30 2173 H 199.064 -2.1358 3.63265 0
M  V30 2174 H 197.788 -2.22266 2.39302 0
M  V30 2175 H 196.447 -0.487985 3.63338 0
M  V30 2176 H 196.095 -2.92059 4.09525 0
M  V30 2177 H 195.795 -1.93466 5.54837 0
M  V30 2178 H 197.319 -2.85481 5.39753 0
M  V30 2179 H 198.733 -0.603752 5.70112 0
M  V30 2180 H 197.13 0.128968 5.99961 0
M  V30 2181 H 198.2 0.837052 4.77621 0
M  V30 2182 N 199.544 -1.57102 0.125237 0
M  V30 2183 C 200.96 -1.57915 -0.231322 0
M  V30 2184 C 201.16 -1.13833 -1.66266 0
M  V30 2185 O 200.216 -0.828581 -2.38518 0
M  V30 2186 C 201.529 -3.00699 0.00766489 0
M  V30 2187 C 203.077 -3.12947 -0.0577483 0
M  V30 2188 C 203.552 -4.57742 0.153626 0
M  V30 2189 N 205.043 -4.63092 0.0998073 0
M  V30 2190 C 205.778 -5.72905 0.238174 0
M  V30 2191 N 205.274 -6.91445 0.433057 0
M  V30 2192 N 207.067 -5.6182 0.177308 0
M  V30 2193 H 199.218 -1.84055 1.06007 0
M  V30 2194 H 201.481 -0.850905 0.417929 0
M  V30 2195 H 201.187 -3.3726 0.997431 0
M  V30 2196 H 201.061 -3.70236 -0.721452 0
M  V30 2197 H 203.448 -2.7624 -1.03804 0
M  V30 2198 H 203.529 -2.4594 0.70335 0
M  V30 2199 H 203.173 -4.95149 1.13092 0
M  V30 2200 H 203.103 -5.22848 -0.627534 0
M  V30 2201 H 205.594 -3.77871 -0.047051 0
M  V30 2202 H 205.907 -7.70985 0.529332 0
M  V30 2203 H 204.252 -6.93415 0.469109 0
M  V30 2204 H 207.443 -4.68093 0.0259748 0
M  V30 2205 H 207.616 -6.47357 0.288582 0
M  V30 2206 N 201.022 0.148545 -1.56898 0
M  V30 2207 C 202.27 0.859717 -1.82902 0
M  V30 2208 C 202.591 1.81775 -0.70588 0
M  V30 2209 O 201.861 1.93994 0.272586 0
M  V30 2210 H 200.441 0.320469 -0.674766 0
M  V30 2211 H 203.103 0.142918 -1.94375 0
M  V30 2212 H 202.199 1.4229 -2.77777 0
M  V30 2213 N 202.5 1.5196 0.417844 0
M  V30 2214 C 203.447 1.74678 1.50852 0
M  V30 2215 C 204.417 0.588947 1.55308 0
M  V30 2216 O 205.602 0.825544 1.72016 0
M  V30 2217 C 202.742 1.89544 2.88387 0
M  V30 2218 C 201.855 3.17166 2.93309 0
M  V30 2219 C 200.99 3.22513 4.22088 0
M  V30 2220 C 200.029 4.44372 4.20951 0
M  V30 2221 N 199.166 4.47161 5.41287 0
M  V30 2222 H 204.006 2.67768 1.30783 0
M  V30 2223 H 201.543 1.32689 0.63498 0
M  V30 2224 H 203.501 1.96146 3.68216 0
M  V30 2225 H 202.131 0.998424 3.06971 0
M  V30 2226 H 201.183 3.19778 2.06024 0
M  V30 2227 H 202.495 4.07021 2.88332 0
M  V30 2228 H 201.649 3.28139 5.10303 0
M  V30 2229 H 200.388 2.30581 4.29748 0
M  V30 2230 H 199.393 4.38902 3.31127 0
M  V30 2231 H 200.618 5.3759 4.14938 0
M  V30 2232 H 198.564 3.58108 5.49632 0
M  V30 2233 H 198.481 5.3085 5.3827 0
M  V30 2234 H 199.749 4.57005 6.3148 0
M  V30 2235 N 203.978 -0.674533 1.42435 0
M  V30 2236 C 205.225 -1.43459 1.42919 0
M  V30 2237 C 205.553 -1.94446 0.0457312 0
M  V30 2238 O 204.808 -1.7132 -0.94593 0
M  V30 2239 C 205.107 -2.64767 2.40069 0
M  V30 2240 C 204.773 -2.3232 3.86443 0
M  V30 2241 C 203.435 -2.23182 4.26314 0
M  V30 2242 C 205.787 -2.05977 4.78773 0
M  V30 2243 C 203.115 -1.85827 5.56494 0
M  V30 2244 C 205.467 -1.70125 6.09295 0
M  V30 2245 C 204.131 -1.59498 6.48164 0
M  V30 2246 H 203.401 -0.524952 0.522978 0
M  V30 2247 H 206.048 -0.769097 1.75377 0
M  V30 2248 H 204.353 -3.36349 2.00939 0
M  V30 2249 H 206.05 -3.22949 2.37707 0
M  V30 2250 H 202.64 -2.40334 3.54877 0
M  V30 2251 H 206.824 -2.11969 4.48757 0
M  V30 2252 H 202.08 -1.76168 5.8547 0
M  V30 2253 H 206.254 -1.48767 6.80324 0
M  V30 2254 H 203.881 -1.30322 7.48946 0
M  V30 2255 N 205.456 -1.28612 -0.910864 0
M  V30 2256 C 206.403 -1.12786 -2.01365 0
M  V30 2257 C 207.373 -0.024201 -1.66082 0
M  V30 2258 O 208.558 -0.189667 -1.89855 0
M  V30 2259 C 205.698 -0.798743 -3.35729 0
M  V30 2260 C 204.811 -1.98173 -3.83864 0
M  V30 2261 C 203.946 -1.59298 -5.06752 0
M  V30 2262 C 202.985 -2.74245 -5.47226 0
M  V30 2263 N 202.122 -2.35842 -6.61304 0
M  V30 2264 H 206.962 -2.07142 -2.14234 0
M  V30 2265 H 204.499 -1.03093 -1.0493 0
M  V30 2266 H 206.457 -0.588662 -4.13026 0
M  V30 2267 H 205.087 0.10789 -3.2262 0
M  V30 2268 H 204.139 -2.30386 -3.02699 0
M  V30 2269 H 205.451 -2.84343 -4.09818 0
M  V30 2270 H 204.605 -1.34513 -5.916 0
M  V30 2271 H 203.344 -0.702618 -4.82612 0
M  V30 2272 H 202.349 -2.99725 -4.60918 0
M  V30 2273 H 203.574 -3.63928 -5.73353 0
M  V30 2274 H 201.52 -1.49279 -6.38789 0
M  V30 2275 H 201.437 -3.15546 -6.86998 0
M  V30 2276 H 202.705 -2.14348 -7.4945 0
M  V30 2277 N 206.934 1.1197 -1.10907 0
M  V30 2278 C 208.35 1.35591 -0.841852 0
M  V30 2279 C 208.55 1.94233 0.536246 0
M  V30 2280 O 207.606 2.1717 1.28816 0
M  V30 2281 C 208.919 2.29284 -1.94549 0
M  V30 2282 C 210.467 2.42862 -1.97451 0
M  V30 2283 C 210.942 3.39873 -3.07002 0
M  V30 2284 N 212.433 3.47433 -3.06341 0
M  V30 2285 C 213.168 4.22421 -3.87748 0
M  V30 2286 N 212.664 5.00432 -4.79103 0
M  V30 2287 N 214.457 4.17876 -3.75946 0
M  V30 2288 H 206.608 0.722664 -1.99728 0
M  V30 2289 H 208.871 0.380635 -0.868229 0
M  V30 2290 H 208.577 1.93378 -2.93765 0
M  V30 2291 H 208.451 3.29452 -1.83688 0
M  V30 2292 H 210.838 2.78046 -0.988645 0
M  V30 2293 H 210.919 1.42566 -2.12388 0
M  V30 2294 H 210.563 3.05417 -4.05811 0
M  V30 2295 H 210.493 4.40011 -2.89306 0
M  V30 2296 H 212.984 2.91784 -2.40147 0
M  V30 2297 H 213.297 5.55002 -5.37766 0
M  V30 2298 H 211.642 4.99612 -4.83128 0
M  V30 2299 H 214.833 3.56016 -3.03924 0
M  V30 2300 H 215.006 4.76061 -4.39624 0
M  V30 2301 N 208.412 0.89855 1.29475 0
M  V30 2302 C 209.823 0.572537 1.77705 0
M  V30 2303 C 210.174 -0.911778 1.73727 0
M  V30 2304 O 209.299 -1.71288 1.32247 0
M  V30 2305 C 209.894 1.03252 3.22683 0
M  V30 2306 C 208.453 0.757687 3.68695 0
M  V30 2307 C 207.6 1.20787 2.49612 0
M  V30 2308 H 210.551 1.08139 1.16153 0
M  V30 2309 H 210.572 0.367307 3.78723 0
M  V30 2310 H 210.084 2.11285 3.25546 0
M  V30 2311 H 208.185 -0.310079 3.71308 0
M  V30 2312 H 208.298 1.35476 4.59547 0
M  V30 2313 H 206.662 0.626888 2.46865 0
M  V30 2314 H 207.445 2.29622 2.55203 0
M  V30 2315 N 209.89 -1.43072 0.660911 0
M  V30 2316 C 211.118 -2.06067 0.185422 0
M  V30 2317 C 211.533 -1.49582 -1.15198 0
M  V30 2318 O 210.89 -0.630134 -1.71276 0
M  V30 2319 C 210.941 -3.61371 0.0966523 0
M  V30 2320 O 210.662 -4.15758 1.38119 0
M  V30 2321 C 212.163 -4.41455 -0.403996 0
M  V30 2322 H 209.383 -0.664459 0.0934604 0
M  V30 2323 H 211.927 -1.83447 0.90373 0
M  V30 2324 H 210.082 -3.8315 -0.572259 0
M  V30 2325 H 210.496 -5.09499 1.24542 0
M  V30 2326 H 211.97 -5.50437 -0.415045 0
M  V30 2327 H 212.447 -4.15036 -1.43674 0
M  V30 2328 H 213.053 -4.24663 0.232691 0
M  V30 2329 N 211.368 -0.403325 -1.52352 0
M  V30 2330 C 212.298 0.416205 -2.29761 0
M  V30 2331 C 213.279 1.05123 -1.33728 0
M  V30 2332 O 214.464 1.06134 -1.62632 0
M  V30 2333 C 211.594 1.53624 -3.11475 0
M  V30 2334 C 210.548 1.02653 -4.15507 0
M  V30 2335 C 209.874 2.23971 -4.85532 0
M  V30 2336 C 211.174 0.08463 -5.22231 0
M  V30 2337 H 212.868 -0.229701 -2.98518 0
M  V30 2338 H 210.414 -0.111913 -1.43564 0
M  V30 2339 H 212.367 2.1165 -3.64393 0
M  V30 2340 H 211.091 2.20994 -2.40477 0
M  V30 2341 H 209.75 0.46871 -3.63591 0
M  V30 2342 H 209.398 2.89883 -4.11068 0
M  V30 2343 H 209.098 1.90521 -5.55856 0
M  V30 2344 H 210.622 2.82614 -5.41259 0
M  V30 2345 H 212.036 0.573509 -5.70424 0
M  V30 2346 H 210.433 -0.160783 -5.99885 0
M  V30 2347 H 211.503 -0.86237 -4.7717 0
M  V30 2348 N 212.846 1.57033 -0.133567 0
M  V30 2349 C 214.262 1.58035 0.222944 0
M  V30 2350 C 214.462 1.14713 1.6566 0
M  V30 2351 O 213.518 0.841218 2.38075 0
M  V30 2352 C 214.831 3.00691 -0.0236116 0
M  V30 2353 C 216.379 3.12973 0.0411512 0
M  V30 2354 C 216.854 4.57654 -0.177899 0
M  V30 2355 N 218.345 4.63033 -0.124365 0
M  V30 2356 C 219.08 5.72771 -0.268553 0
M  V30 2357 N 218.576 6.91206 -0.46972 0
M  V30 2358 N 220.369 5.61718 -0.2071 0
M  V30 2359 H 212.52 1.8349 -1.06981 0
M  V30 2360 H 214.783 0.848677 -0.422436 0
M  V30 2361 H 214.489 3.36726 -1.0153 0
M  V30 2362 H 214.363 3.70614 0.701808 0
M  V30 2363 H 216.75 2.76787 1.02338 0
M  V30 2364 H 216.831 2.45564 -0.716383 0
M  V30 2365 H 216.475 4.94542 -1.15717 0
M  V30 2366 H 216.405 5.23173 0.599797 0
M  V30 2367 H 218.896 3.7789 0.027011 0
M  V30 2368 H 219.209 7.70693 -0.570212 0
M  V30 2369 H 217.554 6.93156 -0.505876 0
M  V30 2370 H 220.745 4.68072 -0.0507986 0
M  V30 2371 H 220.918 6.47195 -0.322909 0
M  V30 2372 N 214.325 -0.140222 1.56975 0
M  V30 2373 C 215.741 -0.493088 1.51792 0
M  V30 2374 C 215.941 -1.83013 0.843116 0
M  V30 2375 O 214.997 -2.49041 0.416493 0
M  V30 2376 C 216.31 -0.497144 2.96562 0
M  V30 2377 C 217.858 -0.582186 3.07538 0
M  V30 2378 C 218.333 -0.616838 4.53827 0
M  V30 2379 N 219.824 -0.678873 4.58198 0
M  V30 2380 C 220.559 -0.726782 5.68775 0
M  V30 2381 N 220.055 -0.733623 6.88905 0
M  V30 2382 N 221.848 -0.768179 5.56826 0
M  V30 2383 H 213.999 0.736108 1.99237 0
M  V30 2384 H 216.262 0.269182 0.90898 0
M  V30 2385 H 215.968 0.417217 3.49217 0
M  V30 2386 H 215.842 -1.33263 3.52875 0
M  V30 2387 H 218.229 -1.48697 2.54899 0
M  V30 2388 H 218.31 0.280581 2.54257 0
M  V30 2389 H 217.954 0.283812 5.07106 0
M  V30 2390 H 217.884 -1.49619 5.04898 0
M  V30 2391 H 220.375 -0.68061 3.7172 0
M  V30 2392 H 220.688 -0.772215 7.68932 0
M  V30 2393 H 219.033 -0.701389 6.91452 0
M  V30 2394 H 222.224 -0.760051 4.61888 0
M  V30 2395 H 222.397 -0.80205 6.43017 0
M  V30 2396 N 215.803 -1.52179 -0.40978 0
M  V30 2397 C 217.049 -1.66453 -1.15851 0
M  V30 2398 C 217.382 -0.392972 -1.90182 0
M  V30 2399 O 216.657 0.608579 -1.84734 0
M  V30 2400 C 216.94 -2.88612 -2.15349 0
M  V30 2401 C 216.793 -4.25815 -1.44918 0
M  V30 2402 C 218.112 -3.06294 -3.16026 0
M  V30 2403 H 215.231 -0.60575 -0.419805 0
M  V30 2404 H 217.873 -1.84732 -0.444314 0
M  V30 2405 H 216.023 -2.73158 -2.76255 0
M  V30 2406 H 217.695 -4.52995 -0.871365 0
M  V30 2407 H 215.938 -4.27247 -0.751159 0
M  V30 2408 H 216.609 -5.07337 -2.17516 0
M  V30 2409 H 219.085 -3.20641 -2.65195 0
M  V30 2410 H 217.961 -3.93283 -3.8291 0
M  V30 2411 H 218.222 -2.19579 -3.83715 0
M  V30 2412 N 217.281 0.66697 -1.42791 0
M  V30 2413 C 218.697 0.981027 -1.25889 0
M  V30 2414 C 218.897 2.00793 -0.168695 0
M  V30 2415 O 217.953 2.48321 0.45747 0
M  V30 2416 C 219.266 1.47838 -2.61848 0
M  V30 2417 C 220.814 1.59575 -2.69267 0
M  V30 2418 C 221.289 2.12704 -4.05612 0
M  V30 2419 N 222.78 2.20026 -4.07606 0
M  V30 2420 C 223.515 2.62227 -5.09926 0
M  V30 2421 N 223.011 3.03824 -6.22626 0
M  V30 2422 N 224.804 2.62045 -4.97281 0
M  V30 2423 H 216.955 -0.0127891 -2.12396 0
M  V30 2424 H 219.218 0.0568258 -0.946295 0
M  V30 2425 H 218.924 0.798299 -3.4252 0
M  V30 2426 H 218.798 2.45579 -2.86305 0
M  V30 2427 H 221.185 2.26687 -1.88936 0
M  V30 2428 H 221.266 0.60302 -2.48591 0
M  V30 2429 H 220.91 1.46198 -4.86404 0
M  V30 2430 H 220.84 3.12782 -4.23645 0
M  V30 2431 H 223.331 1.90708 -3.2625 0
M  V30 2432 H 223.644 3.34734 -6.96544 0
M  V30 2433 H 221.989 3.01662 -6.26119 0
M  V30 2434 H 225.18 2.28916 -4.08308 0
M  V30 2435 H 225.353 2.94613 -5.77154 0
M  V30 2436 N 218.759 1.29093 0.90403 0
M  V30 2437 C 220.008 1.16187 1.64874 0
M  V30 2438 C 220.321 -0.286742 1.93487 0
M  V30 2439 O 221.527 -0.537062 2.66135 0
M  V30 2440 C 219.983 2.03177 2.97064 0
M  V30 2441 C 219.591 3.52836 2.76062 0
M  V30 2442 C 221.335 1.98984 3.74974 0
M  V30 2443 C 219.242 4.31945 4.03952 0
M  V30 2444 H 218.172 0.431246 0.618501 0
M  V30 2445 H 220.823 1.53699 1.00243 0
M  V30 2446 H 219.205 1.5853 3.62883 0
M  V30 2447 H 220.379 4.05507 2.18863 0
M  V30 2448 H 218.694 3.58656 2.11553 0
M  V30 2449 H 221.291 2.55351 4.69787 0
M  V30 2450 H 221.634 0.968815 4.0487 0
M  V30 2451 H 222.167 2.41652 3.15989 0
M  V30 2452 H 218.906 5.34667 3.79225 0
M  V30 2453 H 218.426 3.84045 4.60727 0
M  V30 2454 H 220.105 4.42379 4.72133 0
M  V30 2455 N 220.237 -1.11381 1.11499 0
M  V30 2456 C 221.462 -1.87475 0.887019 0
M  V30 2457 C 221.887 -1.79639 -0.557796 0
M  V30 2458 O 221.245 -1.15924 -1.39396 0
M  V30 2459 C 221.293 -3.34213 1.35403 0
M  V30 2460 O 220.397 -4.0903 0.526146 0
M  V30 2461 H 219.738 -0.582099 0.319463 0
M  V30 2462 H 222.268 -1.40785 1.48461 0
M  V30 2463 H 222.278 -3.8506 1.34881 0
M  V30 2464 H 220.953 -3.39232 2.40612 0
M  V30 2465 H 219.53 -3.68082 0.597522 0
M  V30 2466 N 221.715 -0.905404 -1.28997 0
M  V30 2467 C 222.678 -0.392253 -2.25819 0
M  V30 2468 C 223.678 0.476753 -1.5357 0
M  V30 2469 O 224.868 0.280994 -1.71919 0
M  V30 2470 C 222 0.438588 -3.38067 0
M  V30 2471 H 223.193 -1.24743 -2.72725 0
M  V30 2472 H 220.746 -0.684051 -1.40536 0
M  V30 2473 H 221.481 1.31352 -2.96508 0
M  V30 2474 H 221.266 -0.184167 -3.91667 0
M  V30 2475 H 222.756 0.78873 -4.10084 0
M  V30 2476 N 223.193 1.4272 -0.668489 0
M  V30 2477 C 224.47 1.95248 -0.117373 0
M  V30 2478 C 224.85 1.60919 1.36632 0
M  V30 2479 O 224.198 0.902095 2.09939 0
M  V30 2480 C 224.408 3.46927 -0.379806 0
M  V30 2481 C 225.756 4.23588 -0.292923 0
M  V30 2482 O 226.78 3.5482 -0.313204 0
M  V30 2483 O 225.639 5.46017 -0.229697 0
M  V30 2484 H 222.733 0.827 0.00079152 0
M  V30 2485 H 225.279 1.52581 -0.742783 0
M  V30 2486 H 224.051 3.65096 -1.40786 0
M  V30 2487 H 223.674 3.96627 0.277923 0
M  V30 2488 N 224.671 0.411399 1.52136 0
M  V30 2489 C 225.634 -0.401089 2.25663 0
M  V30 2490 C 226.634 -0.971732 1.28117 0
M  V30 2491 O 227.824 -0.850254 1.52041 0
M  V30 2492 C 224.956 -1.56483 3.02863 0
M  V30 2493 H 226.149 0.24295 2.98914 0
M  V30 2494 H 223.702 0.163968 1.55438 0
M  V30 2495 H 224.437 -2.24567 2.33967 0
M  V30 2496 H 224.222 -1.16211 3.74483 0
M  V30 2497 H 225.712 -2.13951 3.58629 0
M  V30 2498 N 226.149 -1.5696 0.141893 0
M  V30 2499 C 227.082 -2.12271 -0.837627 0
M  V30 2500 C 228.06 -1.04495 -1.24578 0
M  V30 2501 O 229.244 -1.32293 -1.34278 0
M  V30 2502 C 226.371 -2.63822 -2.12404 0
M  V30 2503 C 225.417 -3.83698 -1.86221 0
M  V30 2504 S 226.25 -5.24948 -1.05781 0
M  V30 2505 C 227.406 -5.79884 -2.35552 0
M  V30 2506 H 227.639 -2.95023 -0.367249 0
M  V30 2507 H 225.172 -1.54231 -0.0723014 0
M  V30 2508 H 227.13 -2.94175 -2.86307 0
M  V30 2509 H 225.791 -1.8121 -2.56557 0
M  V30 2510 H 224.984 -4.17995 -2.81596 0
M  V30 2511 H 224.586 -3.5408 -1.20429 0
M  V30 2512 H 226.878 -5.91005 -3.31239 0
M  V30 2513 H 227.821 -6.77544 -2.05767 0
M  V30 2514 H 228.229 -5.08095 -2.45967 0
M  V30 2515 N 227.627 0.131896 -1.57047 0
M  V30 2516 C 228.56 1.19236 -1.94571 0
M  V30 2517 C 229.538 1.40782 -0.813576 0
M  V30 2518 O 230.722 1.55148 -1.07058 0
M  V30 2519 C 227.849 2.54858 -2.23081 0
M  V30 2520 C 226.895 2.49817 -3.45679 0
M  V30 2521 S 227.728 1.95036 -4.98719 0
M  V30 2522 C 228.884 3.32357 -5.30367 0
M  V30 2523 H 229.117 0.872297 -2.84215 0
M  V30 2524 H 226.65 0.338134 -1.50652 0
M  V30 2525 H 228.608 3.32898 -2.40185 0
M  V30 2526 H 227.269 2.84047 -1.34074 0
M  V30 2527 H 226.462 3.49688 -3.62952 0
M  V30 2528 H 226.064 1.79892 -3.27895 0
M  V30 2529 H 228.356 4.28525 -5.2476 0
M  V30 2530 H 229.299 3.19923 -6.31708 0
M  V30 2531 H 229.707 3.3019 -4.57859 0
M  V30 2532 N 229.106 1.52395 0.401703 0
M  V30 2533 C 230.038 1.72505 1.50912 0
M  V30 2534 C 231.051 0.605468 1.51122 0
M  V30 2535 O 232.24 0.880828 1.55254 0
M  V30 2536 C 229.34 1.75711 2.89791 0
M  V30 2537 C 228.513 3.04824 3.1369 0
M  V30 2538 C 227.572 2.99743 4.32482 0
M  V30 2539 O 226.598 3.73635 4.29402 0
M  V30 2540 N 227.8 2.18047 5.37992 0
M  V30 2541 H 230.565 2.68049 1.34052 0
M  V30 2542 H 228.126 1.50724 0.591084 0
M  V30 2543 H 230.118 1.69834 3.6734 0
M  V30 2544 H 228.688 0.876092 3.00072 0
M  V30 2545 H 227.908 3.2429 2.24119 0
M  V30 2546 H 229.196 3.90221 3.26504 0
M  V30 2547 H 228.594 1.57456 5.43345 0
M  V30 2548 H 227.151 2.18021 6.14256 0
M  V30 2549 N 230.584 -0.659388 1.43143 0
M  V30 2550 C 231.547 -1.75432 1.47501 0
M  V30 2551 C 232.547 -1.56707 0.360512 0
M  V30 2552 O 233.737 -1.62717 0.622002 0
M  V30 2553 C 230.869 -3.14239 1.32162 0
M  V30 2554 H 232.062 -1.7295 2.45006 0
M  V30 2555 H 229.615 -0.870469 1.29817 0
M  V30 2556 H 230.35 -3.22336 0.356401 0
M  V30 2557 H 230.135 -3.29235 2.12948 0
M  V30 2558 H 231.625 -3.94094 1.3813 0
M  V30 2559 N 232.062 -1.29571 -0.897171 0
M  V30 2560 C 232.992 -1.17473 -2.01798 0
M  V30 2561 C 233.973 -0.068323 -1.69963 0
M  V30 2562 O 235.158 -0.248239 -1.92607 0
M  V30 2563 C 232.288 -0.853099 -3.36659 0
M  V30 2564 C 231.242 -1.9161 -3.82713 0
M  V30 2565 C 230.568 -1.44773 -5.14728 0
M  V30 2566 C 231.868 -3.32535 -4.02763 0
M  V30 2567 H 233.562 -2.11237 -2.12177 0
M  V30 2568 H 231.108 -1.01699 -1.01948 0
M  V30 2569 H 233.061 -0.755165 -4.14578 0
M  V30 2570 H 231.785 0.120236 -3.26379 0
M  V30 2571 H 230.444 -2.00346 -3.07013 0
M  V30 2572 H 230.092 -0.462995 -5.00865 0
M  V30 2573 H 229.792 -2.15865 -5.46513 0
M  V30 2574 H 231.316 -1.36334 -5.95185 0
M  V30 2575 H 232.73 -3.26626 -4.71156 0
M  V30 2576 H 231.127 -4.01607 -4.45905 0
M  V30 2577 H 232.197 -3.75326 -3.07016 0
M  V30 2578 N 233.54 1.10788 -1.12088 0
M  V30 2579 C 234.47 2.19083 -0.807755 0
M  V30 2580 C 235.451 1.6858 0.226859 0
M  V30 2581 O 236.636 1.93997 0.0888475 0
M  V30 2582 C 233.766 3.46344 -0.257576 0
M  V30 2583 C 232.72 4.101 -1.22483 0
M  V30 2584 C 232.046 5.32016 -0.535052 0
M  V30 2585 C 233.346 4.54236 -2.57811 0
M  V30 2586 H 235.04 2.45534 -1.71328 0
M  V30 2587 H 232.586 1.1801 -0.825205 0
M  V30 2588 H 234.539 4.21392 -0.0262679 0
M  V30 2589 H 233.263 3.19373 0.683278 0
M  V30 2590 H 231.922 3.37054 -1.44189 0
M  V30 2591 H 231.57 5.01319 0.410827 0
M  V30 2592 H 231.27 5.75625 -1.18024 0
M  V30 2593 H 232.794 6.09799 -0.312695 0
M  V30 2594 H 234.208 5.20575 -2.40155 0
M  V30 2595 H 232.605 5.08682 -3.18375 0
M  V30 2596 H 233.675 3.6734 -3.16528 0
M  V30 2597 N 235.018 0.912232 1.28515 0
M  V30 2598 C 236.266 0.543523 1.94654 0
M  V30 2599 C 236.587 -0.9155 1.72173 0
M  V30 2600 O 235.857 -1.64708 1.06058 0
M  V30 2601 H 234.437 0.198017 0.720277 0
M  V30 2602 H 237.099 1.16126 1.56527 0
M  V30 2603 H 236.195 0.736684 3.03281 0
M  V30 2604 N 236.496 -1.42363 0.676048 0
M  V30 2605 C 237.459 -2.29199 0.00766941 0
M  V30 2606 C 238.459 -1.43389 -0.727745 0
M  V30 2607 O 239.649 -1.64764 -0.56556 0
M  V30 2608 C 236.781 -3.2591 -0.999785 0
M  V30 2609 H 237.974 -2.89794 0.771988 0
M  V30 2610 H 235.527 -1.50024 0.438468 0
M  V30 2611 H 236.262 -2.70256 -1.79255 0
M  V30 2612 H 236.047 -3.89202 -0.475829 0
M  V30 2613 H 237.537 -3.91028 -1.46583 0
M  V30 2614 N 237.974 -0.419461 -1.51915 0
M  V30 2615 C 239.39 -0.0708431 -1.59443 0
M  V30 2616 C 239.59 1.41796 -1.43164 0
M  V30 2617 O 238.646 2.18596 -1.26381 0
M  V30 2618 C 239.959 -0.574991 -2.95151 0
M  V30 2619 C 241.507 -0.533867 -3.08413 0
M  V30 2620 C 241.982 -1.01469 -4.46618 0
M  V30 2621 N 243.473 -0.971939 -4.52888 0
M  V30 2622 C 244.208 -1.31505 -5.58116 0
M  V30 2623 N 243.704 -1.73014 -6.70849 0
M  V30 2624 N 245.497 -1.23436 -5.48379 0
M  V30 2625 H 237.648 -1.38836 -1.60743 0
M  V30 2626 H 239.911 -0.570998 -0.756747 0
M  V30 2627 H 239.617 -1.61597 -3.12377 0
M  V30 2628 H 239.491 0.00979777 -3.77199 0
M  V30 2629 H 241.878 0.498086 -2.90866 0
M  V30 2630 H 241.959 -1.15484 -2.28248 0
M  V30 2631 H 241.603 -2.04502 -4.6491 0
M  V30 2632 H 241.533 -0.370433 -5.25295 0
M  V30 2633 H 244.024 -0.666893 -3.71969 0
M  V30 2634 H 244.337 -1.97479 -7.47143 0
M  V30 2635 H 242.682 -1.76926 -6.72103 0
M  V30 2636 H 245.873 -0.908869 -4.59192 0
M  V30 2637 H 246.046 -1.50506 -6.30279 0
M  V30 2638 N 239.452 1.56882 -0.150215 0
M  V30 2639 C 240.415 2.1573 0.774157 0
M  V30 2640 C 241.415 1.0999 1.17298 0
M  V30 2641 O 242.605 1.35613 1.09338 0
M  V30 2642 C 239.737 2.72302 2.05096 0
M  V30 2643 H 240.93 2.98752 0.262201 0
M  V30 2644 H 238.483 1.55985 0.099248 0
M  V30 2645 H 239.218 1.92956 2.6065 0
M  V30 2646 H 239.003 3.49665 1.77416 0
M  V30 2647 H 240.493 3.17632 2.71109 0
M  V30 2648 N 240.93 -0.123565 1.57115 0
M  V30 2649 C 241.877 -1.15177 2.00007 0
M  V30 2650 C 242.847 -1.41403 0.871454 0
M  V30 2651 O 244.032 -1.53346 1.13533 0
M  V30 2652 C 241.172 -2.47436 2.40561 0
M  V30 2653 C 240.285 -2.28184 3.66819 0
M  V30 2654 C 239.42 -3.53641 3.96373 0
M  V30 2655 C 238.459 -3.29528 5.15827 0
M  V30 2656 N 237.596 -4.47175 5.41275 0
M  V30 2657 H 242.436 -0.779008 2.87638 0
M  V30 2658 H 239.973 -0.373166 1.42288 0
M  V30 2659 H 241.931 -3.24584 2.62109 0
M  V30 2660 H 240.561 -2.82614 1.55978 0
M  V30 2661 H 239.613 -1.41976 3.52912 0
M  V30 2662 H 240.925 -2.0634 4.5412 0
M  V30 2663 H 240.079 -4.39209 4.18545 0
M  V30 2664 H 238.818 -3.78512 3.07538 0
M  V30 2665 H 237.823 -2.42349 4.93505 0
M  V30 2666 H 239.048 -3.06031 6.06236 0
M  V30 2667 H 236.994 -4.72175 4.55397 0
M  V30 2668 H 236.911 -4.28419 6.22891 0
M  V30 2669 H 238.179 -5.3389 5.67963 0
M  V30 2670 N 242.408 -1.52605 -0.393616 0
M  V30 2671 C 243.318 -1.79971 -1.50492 0
M  V30 2672 C 244.334 -0.686181 -1.59899 0
M  V30 2673 O 245.51 -0.973274 -1.76322 0
M  V30 2674 C 242.575 -1.95867 -2.86072 0
M  V30 2675 C 241.636 -3.19781 -2.86424 0
M  V30 2676 C 240.869 -3.34909 -4.15538 0
M  V30 2677 O 241.092 -2.54948 -5.10253 0
M  V30 2678 O 240.026 -4.28141 -4.23059 0
M  V30 2679 H 243.852 -2.74328 -1.30299 0
M  V30 2680 H 241.437 -1.3764 -0.581005 0
M  V30 2681 H 243.319 -2.08056 -3.66457 0
M  V30 2682 H 241.994 -1.04699 -3.063 0
M  V30 2683 H 240.901 -3.13038 -2.04837 0
M  V30 2684 H 242.234 -4.1078 -2.71147 0
M  V30 2685 N 243.887 0.651787 -1.4349 0
M  V30 2686 C 245.112 1.44434 -1.48841 0
M  V30 2687 C 245.537 1.8779 -0.107955 0
M  V30 2688 O 244.895 1.57464 0.898602 0
M  V30 2689 C 244.943 2.65458 -2.44059 0
M  V30 2690 O 244.047 3.64566 -1.92784 0
M  V30 2691 H 243.388 0.433005 -0.503391 0
M  V30 2692 H 245.918 0.797451 -1.88419 0
M  V30 2693 H 245.928 3.13255 -2.6141 0
M  V30 2694 H 244.603 2.33244 -3.4434 0
M  V30 2695 H 243.18 3.23716 -1.851 0
M  V30 2696 N 245.365 1.30045 0.890287 0
M  V30 2697 C 246.295 1.18541 2.01172 0
M  V30 2698 C 247.276 0.0773356 1.69924 0
M  V30 2699 O 248.461 0.25845 1.92473 0
M  V30 2700 C 245.591 0.870941 3.36202 0
M  V30 2701 C 244.545 1.93637 3.81692 0
M  V30 2702 C 243.871 1.475 5.13953 0
M  V30 2703 C 245.171 3.34666 4.00994 0
M  V30 2704 H 246.865 2.12359 2.11054 0
M  V30 2705 H 244.411 1.02238 1.01407 0
M  V30 2706 H 246.364 0.777141 4.14172 0
M  V30 2707 H 245.088 -0.102926 3.26438 0
M  V30 2708 H 243.747 2.01972 3.05946 0
M  V30 2709 H 243.395 0.489551 5.00612 0
M  V30 2710 H 243.095 2.1876 5.4536 0
M  V30 2711 H 244.619 1.39489 5.94454 0
M  V30 2712 H 246.033 3.2912 4.69417 0
M  V30 2713 H 244.43 4.03966 4.43769 0
M  V30 2714 H 245.5 3.76949 3.05021 0
M  V30 2715 N 246.843 -1.10192 1.12674 0
M  V30 2716 C 248.12 -1.78717 0.794965 0
M  V30 2717 C 248.5 -1.98628 -0.714853 0
M  V30 2718 O 247.848 -1.58135 -1.64941 0
M  V30 2719 C 248.058 -3.11546 1.5729 0
M  V30 2720 C 249.406 -3.86382 1.76052 0
M  V30 2721 O 250.43 -3.21274 1.53823 0
M  V30 2722 O 249.289 -5.03246 2.13087 0
M  V30 2723 H 246.383 -0.774702 0.289423 0
M  V30 2724 H 248.929 -1.16819 1.23091 0
M  V30 2725 H 247.701 -2.92489 2.59935 0
M  V30 2726 H 247.324 -3.81164 1.13137 0
M  V30 2727 N 248.321 -0.919034 -1.28029 0
M  V30 2728 C 249.251 -0.428581 -2.29533 0
M  V30 2729 C 250.232 0.50659 -1.62381 0
M  V30 2730 O 251.417 0.413195 -1.89753 0
M  V30 2731 C 248.547 0.327388 -3.45753 0
M  V30 2732 C 247.501 -0.519137 -4.2484 0
M  V30 2733 C 246.827 0.365486 -5.33449 0
M  V30 2734 C 248.127 -1.77914 -4.91064 0
M  V30 2735 H 249.821 -1.27687 -2.70807 0
M  V30 2736 H 247.367 -0.615428 -1.30186 0
M  V30 2737 H 249.32 0.681378 -4.15855 0
M  V30 2738 H 248.044 1.20963 -3.03374 0
M  V30 2739 H 246.703 -0.855717 -3.56473 0
M  V30 2740 H 246.351 1.24642 -4.87312 0
M  V30 2741 H 246.051 -0.197356 -5.87268 0
M  V30 2742 H 247.575 0.715241 -6.06396 0
M  V30 2743 H 248.989 -1.49374 -5.53498 0
M  V30 2744 H 247.386 -2.2848 -5.54903 0
M  V30 2745 H 248.456 -2.50382 -4.15255 0
M  V30 2746 N 249.799 1.42003 -0.683588 0
M  V30 2747 C 251.215 1.55625 -0.353976 0
M  V30 2748 C 251.415 1.66151 1.14 0
M  V30 2749 O 250.471 1.63329 1.92561 0
M  V30 2750 C 251.784 2.80171 -1.092 0
M  V30 2751 C 253.332 2.93954 -1.07518 0
M  V30 2752 C 253.807 4.21372 -1.79471 0
M  V30 2753 N 255.298 4.28303 -1.76381 0
M  V30 2754 C 256.033 5.25729 -2.28904 0
M  V30 2755 N 255.529 6.29254 -2.89846 0
M  V30 2756 N 257.322 5.17586 -2.19228 0
M  V30 2757 H 249.473 1.33415 -1.6527 0
M  V30 2758 H 251.736 0.64282 -0.696769 0
M  V30 2759 H 251.442 2.78561 -2.14701 0
M  V30 2760 H 251.316 3.7133 -0.662862 0
M  V30 2761 H 253.703 2.95086 -0.028475 0
M  V30 2762 H 253.784 2.04002 -1.54328 0
M  V30 2763 H 253.428 4.21001 -2.84114 0
M  V30 2764 H 253.358 5.10275 -1.30104 0
M  V30 2765 H 255.849 3.54119 -1.31939 0
M  V30 2766 H 256.162 6.99964 -3.27522 0
M  V30 2767 H 254.507 6.29791 -2.93919 0
M  V30 2768 H 257.698 4.35631 -1.71299 0
M  V30 2769 H 257.871 5.93348 -2.60466 0
M  V30 2770 N 251.277 0.427512 1.51691 0
M  V30 2771 C 252.24 -0.377132 2.26076 0
M  V30 2772 C 253.24 -0.958089 1.29141 0
M  V30 2773 O 254.43 -0.83408 1.52934 0
M  V30 2774 C 251.562 -1.53262 3.04506 0
M  V30 2775 H 252.755 0.27464 2.9864 0
M  V30 2776 H 250.308 0.180445 1.55255 0
M  V30 2777 H 251.043 -2.22072 2.36335 0
M  V30 2778 H 250.828 -1.12232 3.75694 0
M  V30 2779 H 252.318 -2.10135 3.60878 0
M  V30 2780 N 252.755 -1.56801 0.158532 0
M  V30 2781 C 253.705 -2.13923 -0.788738 0
M  V30 2782 C 254.689 -1.07006 -1.2016 0
M  V30 2783 O 255.881 -1.33159 -1.1661 0
M  V30 2784 C 253.01 -2.77348 -2.02319 0
M  V30 2785 C 252.096 -3.91404 -1.6329 0
M  V30 2786 N 252.487 -4.9677 -0.951463 0
M  V30 2787 C 250.785 -4.02326 -1.92482 0
M  V30 2788 C 251.486 -5.76698 -0.761221 0
M  V30 2789 N 250.462 -5.27859 -1.29869 0
M  V30 2790 H 254.264 -2.92757 -0.258995 0
M  V30 2791 H 251.778 -1.62344 -0.0426055 0
M  V30 2792 H 253.775 -3.16639 -2.71192 0
M  V30 2793 H 252.435 -1.99991 -2.558 0
M  V30 2794 H 253.446 -5.14284 -0.610928 0
M  V30 2795 H 250.123 -3.36059 -2.47732 0
M  V30 2796 H 251.513 -6.71529 -0.223284 0
M  V30 2797 N 254.233 0.115231 -1.57178 0
M  V30 2798 C 255.163 1.1423 -2.03651 0
M  V30 2799 C 256.144 1.42967 -0.921655 0
M  V30 2800 O 257.329 1.53343 -1.19162 0
M  V30 2801 C 254.459 2.4675 -2.44401 0
M  V30 2802 C 253.413 2.32467 -3.59365 0
M  V30 2803 C 252.739 3.69984 -3.86026 0
M  V30 2804 C 254.039 1.78203 -4.90959 0
M  V30 2805 H 255.733 0.755749 -2.89705 0
M  V30 2806 H 253.279 0.362093 -1.39373 0
M  V30 2807 H 255.232 3.18854 -2.75517 0
M  V30 2808 H 253.956 2.87302 -1.55322 0
M  V30 2809 H 252.615 1.62811 -3.28463 0
M  V30 2810 H 252.263 4.08028 -2.94147 0
M  V30 2811 H 251.963 3.61279 -4.63412 0
M  V30 2812 H 253.487 4.43587 -4.19599 0
M  V30 2813 H 254.901 2.40128 -5.20587 0
M  V30 2814 H 253.298 1.8031 -5.72371 0
M  V30 2815 H 254.368 0.739876 -4.79222 0
M  V30 2816 N 255.711 1.52812 0.385517 0
M  V30 2817 C 256.658 1.77838 1.47113 0
M  V30 2818 C 257.628 0.621757 1.54024 0
M  V30 2819 O 258.813 0.861846 1.70226 0
M  V30 2820 C 255.953 1.95618 2.84302 0
M  V30 2821 C 255.066 3.23316 2.86515 0
M  V30 2822 C 254.201 3.31394 4.15152 0
M  V30 2823 C 253.24 4.53201 4.1143 0
M  V30 2824 N 252.377 4.58542 5.3168 0
M  V30 2825 H 257.217 2.70482 1.25073 0
M  V30 2826 H 254.754 1.34006 0.606692 0
M  V30 2827 H 256.712 2.03912 3.63972 0
M  V30 2828 H 255.342 1.06331 3.04784 0
M  V30 2829 H 254.394 3.24076 1.99195 0
M  V30 2830 H 255.706 4.13045 2.79634 0
M  V30 2831 H 254.86 3.3889 5.03228 0
M  V30 2832 H 253.599 2.39645 4.24761 0
M  V30 2833 H 252.604 4.45827 3.21742 0
M  V30 2834 H 253.829 5.46271 4.03442 0
M  V30 2835 H 251.775 3.69686 5.41912 0
M  V30 2836 H 251.692 5.42148 5.26889 0
M  V30 2837 H 252.96 4.70296 6.21644 0
M  V30 2838 N 257.189 -0.644168 1.43834 0
M  V30 2839 C 258.121 -1.76955 1.45669 0
M  V30 2840 C 259.134 -1.58956 0.351666 0
M  V30 2841 O 260.323 -1.6751 0.616644 0
M  V30 2842 C 257.423 -3.14507 1.26248 0
M  V30 2843 C 256.596 -3.59083 2.49757 0
M  V30 2844 C 255.655 -4.75467 2.25427 0
M  V30 2845 O 254.681 -4.84444 2.98836 0
M  V30 2846 N 255.883 -5.66289 1.27661 0
M  V30 2847 H 258.648 -1.75856 2.42682 0
M  V30 2848 H 256.209 -0.828312 1.39106 0
M  V30 2849 H 258.201 -3.90067 1.0784 0
M  V30 2850 H 256.771 -3.10325 0.376478 0
M  V30 2851 H 255.991 -2.7387 2.8353 0
M  V30 2852 H 257.279 -3.85613 3.31934 0
M  V30 2853 H 256.677 -5.61718 0.670064 0
M  V30 2854 H 255.234 -6.41533 1.15234 0
M  V30 2855 N 258.668 -1.30515 -0.883378 0
M  V30 2856 C 259.914 -1.19607 -1.63774 0
M  V30 2857 C 260.247 0.248314 -1.92606 0
M  V30 2858 O 259.522 1.17742 -1.54813 0
M  V30 2859 C 259.805 -2.02669 -2.97653 0
M  V30 2860 C 259.658 -3.55335 -2.75784 0
M  V30 2861 C 260.977 -1.86573 -3.98596 0
M  V30 2862 H 258.096 -0.435856 -0.594305 0
M  V30 2863 H 260.738 -1.60165 -1.02212 0
M  V30 2864 H 258.888 -1.68208 -3.50197 0
M  V30 2865 H 260.56 -3.99863 -2.30016 0
M  V30 2866 H 258.803 -3.79438 -2.1026 0
M  V30 2867 H 259.474 -4.08745 -3.70988 0
M  V30 2868 H 261.95 -2.16703 -3.55217 0
M  V30 2869 H 260.826 -2.47014 -4.90179 0
M  V30 2870 H 261.087 -0.825321 -4.34328 0
M  V30 2871 N 260.146 1.09593 -1.13257 0
M  V30 2872 C 261.093 2.1618 -0.808381 0
M  V30 2873 C 262.063 1.64517 0.228754 0
M  V30 2874 O 263.248 1.9053 0.101381 0
M  V30 2875 C 260.388 3.43973 -0.278675 0
M  V30 2876 C 259.501 4.09545 -1.37466 0
M  V30 2877 C 258.636 5.25088 -0.803479 0
M  V30 2878 C 257.675 5.82579 -1.87799 0
M  V30 2879 N 256.812 6.89486 -1.32488 0
M  V30 2880 H 261.652 2.43254 -1.72138 0
M  V30 2881 H 259.189 1.19392 -0.859294 0
M  V30 2882 H 261.147 4.17174 0.0465583 0
M  V30 2883 H 259.777 3.17223 0.597459 0
M  V30 2884 H 258.829 3.34226 -1.81652 0
M  V30 2885 H 260.141 4.48307 -2.18684 0
M  V30 2886 H 259.295 6.05178 -0.429427 0
M  V30 2887 H 258.034 4.87684 0.0397956 0
M  V30 2888 H 257.039 5.01152 -2.26113 0
M  V30 2889 H 258.264 6.22045 -2.72463 0
M  V30 2890 H 256.21 6.54064 -0.503575 0
M  V30 2891 H 256.127 7.27007 -2.07355 0
M  V30 2892 H 257.395 7.73336 -0.978336 0
M  V30 2893 N 261.624 0.925811 1.2754 0
M  V30 2894 C 262.571 0.422045 2.26908 0
M  V30 2895 C 263.541 -0.510029 1.58076 0
M  V30 2896 O 264.726 -0.429599 1.85901 0
M  V30 2897 C 261.866 -0.320837 3.43605 0
M  V30 2898 C 260.979 0.64513 4.27156 0
M  V30 2899 C 260.114 -0.117405 5.3107 0
M  V30 2900 C 259.153 0.841391 6.0629 0
M  V30 2901 N 258.29 0.111604 7.02011 0
M  V30 2902 H 263.13 1.27441 2.69375 0
M  V30 2903 H 260.667 0.639697 1.32462 0
M  V30 2904 H 262.625 -0.76785 4.10073 0
M  V30 2905 H 261.255 -1.13745 3.02096 0
M  V30 2906 H 260.307 1.21067 3.6062 0
M  V30 2907 H 261.619 1.37797 4.79389 0
M  V30 2908 H 260.773 -0.624422 6.03478 0
M  V30 2909 H 259.512 -0.883219 4.79636 0
M  V30 2910 H 258.517 1.35967 5.32722 0
M  V30 2911 H 259.742 1.60696 6.59813 0
M  V30 2912 H 257.688 -0.635999 6.5291 0
M  V30 2913 H 257.605 0.784044 7.51923 0
M  V30 2914 H 258.873 -0.374823 7.78598 0
M  V30 2915 N 263.102 -1.41638 0.69111 0
M  V30 2916 C 264.012 -2.34588 0.0233487 0
M  V30 2917 C 265.028 -1.55987 -0.770984 0
M  V30 2918 O 266.204 -1.88486 -0.709569 0
M  V30 2919 C 263.269 -3.34684 -0.904851 0
M  V30 2920 C 262.33 -4.29176 -0.103225 0
M  V30 2921 C 261.563 -5.2449 -0.987216 0
M  V30 2922 O 261.786 -5.2514 -2.22674 0
M  V30 2923 O 260.72 -6.00295 -0.439281 0
M  V30 2924 H 264.546 -2.93261 0.789416 0
M  V30 2925 H 262.131 -1.42417 0.45142 0
M  V30 2926 H 264.013 -3.96133 -1.43724 0
M  V30 2927 H 262.688 -2.78461 -1.65049 0
M  V30 2928 H 261.595 -3.71089 0.473655 0
M  V30 2929 H 262.928 -4.88484 0.60365 0
M  V30 2930 N 264.58 -0.43555 -1.51462 0
M  V30 2931 C 265.857 0.191364 -1.94662 0
M  V30 2932 C 266.237 1.60254 -1.37411 0
M  V30 2933 O 265.585 2.2152 -0.560458 0
M  V30 2934 C 265.795 0.17091 -3.48581 0
M  V30 2935 C 267.143 0.377357 -4.2292 0
M  V30 2936 O 268.167 0.249104 -3.55328 0
M  V30 2937 O 267.026 0.63247 -5.42828 0
M  V30 2938 H 264.12 0.130932 -0.816569 0
M  V30 2939 H 266.666 -0.4934 -1.62369 0
M  V30 2940 H 265.438 -0.815738 -3.82703 0
M  V30 2941 H 265.061 0.898659 -3.87311 0
M  V30 2942 N 266.058 1.56714 -0.166846 0
M  V30 2943 C 267.286 2.0112 0.485644 0
M  V30 2944 C 267.701 1.04705 1.57106 0
M  V30 2945 O 267.058 0.0471923 1.82439 0
M  V30 2946 C 267.109 3.45361 1.06808 0
M  V30 2947 O 266.83 4.38092 0.0259995 0
M  V30 2948 C 268.331 4.05145 1.79924 0
M  V30 2949 H 265.551 0.65931 0.124704 0
M  V30 2950 H 268.095 2.02746 -0.267262 0
M  V30 2951 H 266.25 3.44524 1.7715 0
M  V30 2952 H 266.664 5.22519 0.455398 0
M  V30 2953 H 268.138 5.08009 2.15942 0
M  V30 2954 H 268.615 3.46982 2.69258 0
M  V30 2955 H 269.221 4.09672 1.14234 0
M  V30 2956 N 267.536 -0.106894 1.57237 0
M  V30 2957 C 268.446 -1.14911 2.0453 0
M  V30 2958 C 269.462 -1.44592 0.96795 0
M  V30 2959 O 270.638 -1.55468 1.2803 0
M  V30 2960 C 267.703 -2.45272 2.45036 0
M  V30 2961 C 266.764 -2.22879 3.66911 0
M  V30 2962 C 265.997 -3.47024 4.05475 0
M  V30 2963 O 266.22 -4.54804 3.44252 0
M  V30 2964 O 265.154 -3.3731 4.98504 0
M  V30 2965 H 268.98 -0.777461 2.9358 0
M  V30 2966 H 266.565 -0.318563 1.45964 0
M  V30 2967 H 268.447 -3.22055 2.71769 0
M  V30 2968 H 267.122 -2.81886 1.59129 0
M  V30 2969 H 266.029 -1.43915 3.45311 0
M  V30 2970 H 267.362 -1.91163 4.53561 0
M  V30 2971 N 269.014 -1.53014 -0.377408 0
M  V30 2972 C 269.961 -1.78616 -1.46168 0
M  V30 2973 C 270.931 -0.629917 -1.53692 0
M  V30 2974 O 272.116 -0.870861 -1.69766 0
M  V30 2975 C 269.256 -1.97123 -2.8326 0
M  V30 2976 C 268.369 -3.24831 -2.84796 0
M  V30 2977 C 267.504 -3.33591 -4.13389 0
M  V30 2978 C 266.543 -4.55377 -4.09021 0
M  V30 2979 N 265.68 -4.61355 -5.29241 0
M  V30 2980 H 270.52 -2.71142 -1.23637 0
M  V30 2981 H 268.057 -1.34326 -0.599577 0
M  V30 2982 H 270.015 -2.05839 -3.62886 0
M  V30 2983 H 268.645 -1.07946 -3.04216 0
M  V30 2984 H 267.697 -3.25128 -1.97474 0
M  V30 2985 H 269.009 -4.14523 -2.77439 0
M  V30 2986 H 268.163 -3.41554 -5.01424 0
M  V30 2987 H 266.902 -2.41894 -4.23484 0
M  V30 2988 H 265.907 -4.47527 -3.19373 0
M  V30 2989 H 267.132 -5.48402 -4.00539 0
M  V30 2990 H 265.078 -3.72554 -5.39944 0
M  V30 2991 H 264.995 -5.44935 -5.24006 0
M  V30 2992 H 266.263 -4.73586 -6.19141 0
M  V30 2993 N 270.492 0.636531 -1.44174 0
M  V30 2994 C 271.402 1.77754 -1.53103 0
M  V30 2995 C 272.418 1.68928 -0.417034 0
M  V30 2996 O 273.594 1.89801 -0.6736 0
M  V30 2997 C 270.659 3.14115 -1.46741 0
M  V30 2998 C 269.72 3.34612 -2.68948 0
M  V30 2999 C 268.953 4.64467 -2.6288 0
M  V30 3000 O 269.176 5.44919 -1.68581 0
M  V30 3001 O 268.11 4.87049 -3.53648 0
M  V30 3002 H 271.936 1.73174 -2.49489 0
M  V30 3003 H 269.521 0.79709 -1.2636 0
M  V30 3004 H 271.403 3.95412 -1.45696 0
M  V30 3005 H 270.078 3.19249 -0.534975 0
M  V30 3006 H 268.985 2.53014 -2.75562 0
M  V30 3007 H 270.318 3.34336 -3.61221 0
M  V30 3008 N 271.97 1.30982 0.876444 0
M  V30 3009 C 272.918 1.18006 2.00443 0
M  V30 3010 C 273.912 0.0898871 1.69161 0
M  V30 3011 O 275.118 0.251333 1.78237 0
M  V30 3012 H 271.493 0.365196 0.65737 0
M  V30 3013 H 273.464 2.13453 2.0852 0
M  V30 3014 C 272.213 0.897521 3.35916 0
M  V30 3015 H 271.536 1.7285 3.60504 0
M  V30 3016 H 272.976 0.846874 4.15456 0
M  V30 3017 C 271.435 -0.399674 3.34521 0
M  V30 3018 O 271.965 -1.41852 3.7582 0
M  V30 3019 N 270.171 -0.413893 2.87637 0
M  V30 3020 H 269.718 0.41571 2.54224 0
M  V30 3021 H 269.676 -1.28175 2.87086 0
M  V30 3022 N 273.449 -1.08991 1.13837 0
M  V30 3023 C 274.865 -1.33312 0.877506 0
M  V30 3024 C 275.065 -1.95587 -0.48456 0
M  V30 3025 O 274.121 -2.20509 -1.23013 0
M  V30 3026 C 275.434 -2.24045 2.0056 0
M  V30 3027 C 276.982 -2.37542 2.03821 0
M  V30 3028 C 277.457 -3.31614 3.15905 0
M  V30 3029 N 278.948 -3.39189 3.15445 0
M  V30 3030 C 279.683 -4.11992 3.98811 0
M  V30 3031 N 279.179 -4.87553 4.92203 0
M  V30 3032 N 280.972 -4.07762 3.86894 0
M  V30 3033 H 273.123 -0.669456 2.01574 0
M  V30 3034 H 275.386 -0.357482 0.878015 0
M  V30 3035 H 275.092 -1.85521 2.98789 0
M  V30 3036 H 274.966 -3.24466 1.92359 0
M  V30 3037 H 277.353 -2.75327 1.06202 0
M  V30 3038 H 277.434 -1.36884 2.16093 0
M  V30 3039 H 277.078 -2.94551 4.13766 0
M  V30 3040 H 277.008 -4.32186 3.0087 0
M  V30 3041 H 279.499 -2.85314 2.47799 0
M  V30 3042 H 279.812 -5.40549 5.52292 0
M  V30 3043 H 278.157 -4.86627 4.96205 0
M  V30 3044 H 281.348 -3.47833 3.13257 0
M  V30 3045 H 281.521 -4.64238 4.52092 0
M  V30 3046 N 274.927 -0.932562 -1.27047 0
M  V30 3047 C 275.837 -0.441219 -2.30414 0
M  V30 3048 C 276.853 0.480525 -1.67233 0
M  V30 3049 O 278.029 0.362151 -1.98117 0
M  V30 3050 C 275.094 0.293651 -3.45454 0
M  V30 3051 C 274.155 -0.663601 -4.2414 0
M  V30 3052 C 273.388 0.0362932 -5.33688 0
M  V30 3053 O 273.611 1.2548 -5.56427 0
M  V30 3054 O 272.545 -0.638015 -5.98509 0
M  V30 3055 H 276.371 -1.29962 -2.74488 0
M  V30 3056 H 273.956 -0.6981 -1.32087 0
M  V30 3057 H 275.838 0.707951 -4.15411 0
M  V30 3058 H 274.513 1.12758 -3.03426 0
M  V30 3059 H 273.42 -1.12768 -3.56699 0
M  V30 3060 H 274.753 -1.46489 -4.69896 0
M  V30 3061 N 276.405 1.4127 -0.698611 0
M  V30 3062 C 277.651 2.01478 -0.231207 0
M  V30 3063 C 277.984 1.55215 1.16713 0
M  V30 3064 O 277.259 0.764672 1.78838 0
M  V30 3065 C 277.542 3.58912 -0.292281 0
M  V30 3066 C 277.395 4.15293 -1.72778 0
M  V30 3067 C 278.714 4.38736 0.346194 0
M  V30 3068 H 275.833 0.732025 -0.0854878 0
M  V30 3069 H 278.475 1.67977 -0.887906 0
M  V30 3070 H 276.625 3.87582 0.26686 0
M  V30 3071 H 278.297 3.97486 -2.341 0
M  V30 3072 H 276.54 3.7022 -2.26096 0
M  V30 3073 H 277.211 5.24452 -1.72202 0
M  V30 3074 H 279.687 4.15897 -0.130035 0
M  V30 3075 H 278.563 5.48221 0.272932 0
M  V30 3076 H 278.824 4.18425 1.42734 0
M  V30 3077 N 277.883 0.443576 1.51229 0
M  V30 3078 C 279.131 -0.120557 2.0174 0
M  V30 3079 C 279.452 -1.42665 1.32935 0
M  V30 3080 O 278.722 -1.9028 0.465866 0
M  V30 3081 H 277.302 -0.0475426 0.745486 0
M  V30 3082 H 279.964 0.587711 1.85828 0
M  V30 3083 H 279.06 -0.291972 3.10731 0
M  V30 3084 N 279.361 -1.56624 0.175154 0
M  V30 3085 C 280.638 -1.88688 -0.515373 0
M  V30 3086 C 281.018 -1.08564 -1.81044 0
M  V30 3087 O 280.366 -0.180703 -2.27784 0
M  V30 3088 C 280.576 -3.40768 -0.753552 0
M  V30 3089 C 281.924 -4.10587 -1.08184 0
M  V30 3090 O 282.948 -3.46106 -0.841961 0
M  V30 3091 O 281.807 -5.24512 -1.53459 0
M  V30 3092 H 278.901 -0.78301 -0.26613 0
M  V30 3093 H 281.447 -1.68347 0.213877 0
M  V30 3094 H 280.219 -3.90965 0.161829 0
M  V30 3095 H 279.842 -3.66733 -1.53598 0
M  V30 3096 N 280.839 0.0985539 -1.57292 0
M  V30 3097 C 282.085 0.798769 -1.87059 0
M  V30 3098 C 282.44 1.76514 -0.76555 0
M  V30 3099 O 281.733 1.90181 0.232752 0
M  V30 3100 C 281.927 1.56927 -3.21105 0
M  V30 3101 C 281.756 0.679026 -4.44544 0
M  V30 3102 C 280.526 0.326071 -5.04247 0
M  V30 3103 C 282.724 -0.0124715 -5.14298 0
M  V30 3104 N 280.706 -0.572702 -6.11223 0
M  V30 3105 C 282.077 -0.769446 -6.15207 0
M  V30 3106 C 284.132 -0.0867545 -4.97824 0
M  V30 3107 C 282.835 -1.59376 -7.01421 0
M  V30 3108 C 284.861 -0.897955 -5.84543 0
M  V30 3109 C 284.223 -1.64306 -6.84969 0
M  V30 3110 H 280.322 0.268568 -0.734435 0
M  V30 3111 H 282.906 0.0614664 -1.94603 0
M  V30 3112 H 281.077 2.27748 -3.1462 0
M  V30 3113 H 282.809 2.21641 -3.38611 0
M  V30 3114 H 279.564 0.67295 -4.68795 0
M  V30 3115 H 279.988 -1.01454 -6.69355 0
M  V30 3116 H 284.63 0.474963 -4.20124 0
M  V30 3117 H 282.348 -2.16655 -7.78515 0
M  V30 3118 H 285.934 -0.958059 -5.73858 0
M  V30 3119 H 284.814 -2.26065 -7.50909 0
M  V30 3120 N 282.317 1.53212 0.369288 0
M  V30 3121 C 283.733 1.42902 0.710712 0
M  V30 3122 C 283.933 0.565135 1.93413 0
M  V30 3123 O 282.989 0.0461484 2.52458 0
M  V30 3124 C 284.302 2.86042 0.927382 0
M  V30 3125 C 285.85 2.9565 1.02762 0
M  V30 3126 C 286.325 4.39843 1.27679 0
M  V30 3127 N 287.816 4.43256 1.34457 0
M  V30 3128 C 288.551 5.51929 1.55439 0
M  V30 3129 N 288.047 6.70655 1.73762 0
M  V30 3130 N 289.84 5.39502 1.57779 0
M  V30 3131 H 281.991 2.07888 -0.435457 0
M  V30 3132 H 284.254 0.938661 -0.132739 0
M  V30 3133 H 283.96 3.51557 0.100287 0
M  V30 3134 H 283.834 3.29472 1.83653 0
M  V30 3135 H 286.221 2.30291 1.84527 0
M  V30 3136 H 286.302 2.5562 0.0959504 0
M  V30 3137 H 285.946 5.05774 0.464175 0
M  V30 3138 H 285.876 4.77443 2.22162 0
M  V30 3139 H 288.367 3.5769 1.21926 0
M  V30 3140 H 288.68 7.49248 1.89335 0
M  V30 3141 H 287.025 6.73648 1.70948 0
M  V30 3142 H 290.216 4.45713 1.43029 0
M  V30 3143 H 290.389 6.2426 1.7379 0
M  V30 3144 N 283.795 -0.628877 1.44509 0
M  V30 3145 C 284.742 -1.74074 1.51549 0
M  V30 3146 C 285.712 -1.62084 0.363021 0
M  V30 3147 O 286.897 -1.81975 0.573567 0
M  V30 3148 C 284.037 -3.12328 1.46784 0
M  V30 3149 C 283.15 -3.35277 2.72422 0
M  V30 3150 C 282.285 -4.63515 2.59475 0
M  V30 3151 C 281.324 -4.7965 3.80266 0
M  V30 3152 N 280.461 -5.99168 3.65981 0
M  V30 3153 H 285.301 -1.67392 2.46544 0
M  V30 3154 H 282.838 -0.816527 1.22357 0
M  V30 3155 H 284.796 -3.92286 1.42012 0
M  V30 3156 H 283.426 -3.18018 0.553544 0
M  V30 3157 H 282.478 -2.49242 2.87372 0
M  V30 3158 H 283.79 -3.43078 3.62076 0
M  V30 3159 H 282.944 -5.51638 2.52548 0
M  V30 3160 H 281.683 -4.58076 1.67384 0
M  V30 3161 H 280.688 -3.89957 3.87574 0
M  V30 3162 H 281.913 -4.86902 4.73395 0
M  V30 3163 H 279.859 -5.94814 2.76644 0
M  V30 3164 H 279.776 -6.08035 4.49254 0
M  V30 3165 H 281.044 -6.89846 3.6295 0
M  V30 3166 N 285.273 -1.31445 -0.869486 0
M  V30 3167 C 286.221 -1.19067 -1.99814 0
M  V30 3168 C 287.215 -0.0988569 -1.69111 0
M  V30 3169 O 288.421 -0.260781 -1.78101 0
M  V30 3170 H 284.796 -0.368677 -0.655425 0
M  V30 3171 H 286.767 -2.14555 -2.07385 0
M  V30 3172 C 285.516 -0.915323 -3.35436 0
M  V30 3173 H 284.839 -1.74759 -3.59582 0
M  V30 3174 H 286.279 -0.868895 -4.15001 0
M  V30 3175 C 284.738 0.381928 -3.34728 0
M  V30 3176 O 285.268 1.39857 -3.76567 0
M  V30 3177 N 283.474 0.398633 -2.87853 0
M  V30 3178 H 283.021 -0.429186 -2.54 0
M  V30 3179 H 282.979 1.26651 -2.87762 0
M  V30 3180 N 286.751 1.08385 -1.14413 0
M  V30 3181 C 288 1.80153 -0.907076 0
M  V30 3182 C 288.313 1.87176 0.567851 0
M  V30 3183 O 289.519 2.55359 0.922172 0
M  V30 3184 C 287.975 3.23687 -1.57336 0
M  V30 3185 C 287.583 3.24897 -3.08457 0
M  V30 3186 C 289.327 4.00136 -1.41744 0
M  V30 3187 C 287.234 4.6302 -3.67921 0
M  V30 3188 H 286.164 0.675139 -0.335714 0
M  V30 3189 H 288.815 1.21733 -1.37307 0
M  V30 3190 H 287.197 3.82234 -1.03505 0
M  V30 3191 H 288.371 2.76055 -3.68958 0
M  V30 3192 H 286.686 2.61943 -3.2369 0
M  V30 3193 H 289.283 5.02201 -1.83572 0
M  V30 3194 H 289.626 4.14709 -0.363576 0
M  V30 3195 H 290.159 3.48058 -1.92614 0
M  V30 3196 H 286.898 4.5365 -4.73161 0
M  V30 3197 H 286.418 5.12143 -3.12201 0
M  V30 3198 H 288.097 5.31994 -3.68227 0
M  V30 3199 N 288.23 0.939286 1.26551 0
M  V30 3200 C 289.507 0.5038 1.89001 0
M  V30 3201 C 289.887 -1.01854 1.84903 0
M  V30 3202 O 289.235 -1.87773 1.30206 0
M  V30 3203 C 289.445 1.063 3.32417 0
M  V30 3204 C 290.793 1.13051 4.09273 0
M  V30 3205 O 291.817 1.01345 3.41479 0
M  V30 3206 O 290.676 1.31233 5.30509 0
M  V30 3207 H 287.77 0.163897 0.810597 0
M  V30 3208 H 290.316 1.03173 1.34735 0
M  V30 3209 H 289.088 2.10665 3.29752 0
M  V30 3210 H 288.711 0.517408 3.94219 0
M  V30 3211 N 289.708 -1.40897 0.706093 0
M  V30 3212 C 290.671 -2.29131 0.0562841 0
M  V30 3213 C 291.671 -1.44901 -0.697166 0
M  V30 3214 O 292.861 -1.65926 -0.530484 0
M  V30 3215 C 289.993 -3.27957 -0.93043 0
M  V30 3216 H 291.186 -2.88091 0.833284 0
M  V30 3217 H 288.739 -1.4906 0.470192 0
M  V30 3218 H 289.474 -2.73997 -1.73482 0
M  V30 3219 H 289.259 -3.90124 -0.393166 0
M  V30 3220 H 290.749 -3.94049 -1.38256 0
M  V30 3221 N 291.186 -0.45159 -1.50991 0
M  V30 3222 C 292.116 0.342898 -2.30969 0
M  V30 3223 C 293.097 1.00815 -1.37005 0
M  V30 3224 O 294.282 1.00907 -1.65926 0
M  V30 3225 C 291.412 1.43637 -3.16205 0
M  V30 3226 C 290.366 0.893818 -4.18563 0
M  V30 3227 C 289.692 2.08411 -4.92411 0
M  V30 3228 C 290.992 -0.0815568 -5.22236 0
M  V30 3229 H 292.686 -0.324556 -2.97636 0
M  V30 3230 H 290.232 -0.157531 -1.43136 0
M  V30 3231 H 292.185 1.9995 -3.70942 0
M  V30 3232 H 290.909 2.13232 -2.47386 0
M  V30 3233 H 289.568 0.352798 -3.64898 0
M  V30 3234 H 289.216 2.76658 -4.20082 0
M  V30 3235 H 288.916 1.72741 -5.61636 0
M  V30 3236 H 290.44 2.65251 -5.49976 0
M  V30 3237 H 291.854 0.391742 -5.7196 0
M  V30 3238 H 290.251 -0.351551 -5.99069 0
M  V30 3239 H 291.321 -1.01374 -4.74185 0
M  V30 3240 N 292.664 1.56529 -0.183458 0
M  V30 3241 C 293.889 2.02064 0.467428 0
M  V30 3242 C 294.314 1.06282 1.55196 0
M  V30 3243 O 293.672 0.0443565 1.81246 0
M  V30 3244 C 293.72 3.46122 1.01153 0
M  V30 3245 O 292.824 3.53437 2.12499 0
M  V30 3246 H 292.165 0.654726 0.110588 0
M  V30 3247 H 294.695 2.02521 -0.290917 0
M  V30 3248 H 294.705 3.85676 1.33108 0
M  V30 3249 H 293.38 4.15331 0.217533 0
M  V30 3250 H 291.957 3.2575 1.81497 0
M  V30 3251 N 294.142 -0.090211 1.57342 0
M  V30 3252 C 295.39 -0.791241 1.85967 0
M  V30 3253 C 295.711 -1.7903 0.772859 0
M  V30 3254 O 294.981 -1.94872 -0.200398 0
M  V30 3255 H 293.561 -0.295205 0.686195 0
M  V30 3256 H 296.223 -0.0706782 1.94772 0
M  V30 3257 H 295.319 -1.31882 2.82867 0
M  V30 3258 N 295.62 -1.53406 -0.361157 0
M  V30 3259 C 296.553 -1.74946 -1.46524 0
M  V30 3260 C 297.531 -0.59795 -1.51206 0
M  V30 3261 O 298.715 -0.831062 -1.69191 0
M  V30 3262 C 295.842 -1.83224 -2.84863 0
M  V30 3263 C 294.888 -3.05233 -2.97885 0
M  V30 3264 S 295.721 -4.6466 -2.66179 0
M  V30 3265 C 296.877 -4.75793 -4.06659 0
M  V30 3266 H 297.11 -2.68319 -1.28033 0
M  V30 3267 H 294.643 -1.44051 -0.555764 0
M  V30 3268 H 296.601 -1.88679 -3.64569 0
M  V30 3269 H 295.262 -0.908948 -3.00661 0
M  V30 3270 H 294.455 -3.07648 -3.9921 0
M  V30 3271 H 294.057 -2.97913 -2.26106 0
M  V30 3272 H 296.349 -4.5612 -5.0096 0
M  V30 3273 H 297.292 -5.7786 -4.09247 0
M  V30 3274 H 297.7 -4.04389 -3.93865 0
M  V30 3275 N 297.098 0.621204 -1.44841 0
M  V30 3276 C 298.008 1.7612 -1.5498 0
M  V30 3277 C 299.024 1.68477 -0.434927 0
M  V30 3278 O 300.2 1.89076 -0.693693 0
M  V30 3279 C 297.265 3.1254 -1.50065 0
M  V30 3280 C 296.326 3.31741 -2.72482 0
M  V30 3281 C 295.559 4.61653 -2.67792 0
M  V30 3282 O 295.782 5.431 -1.74352 0
M  V30 3283 O 294.716 4.83271 -3.58794 0
M  V30 3284 H 298.542 1.70518 -2.51311 0
M  V30 3285 H 296.127 0.783643 -1.27198 0
M  V30 3286 H 298.009 3.93844 -1.49882 0
M  V30 3287 H 296.684 3.18663 -0.568806 0
M  V30 3288 H 295.591 2.50077 -2.7823 0
M  V30 3289 H 296.924 3.30486 -3.64746 0
M  V30 3290 N 298.576 1.31904 0.862503 0
M  V30 3291 C 299.824 1.21776 1.61292 0
M  V30 3292 C 300.145 -0.222413 1.93727 0
M  V30 3293 O 299.415 -1.1451 1.58947 0
M  V30 3294 H 297.995 0.447717 0.597962 0
M  V30 3295 H 300.657 1.65326 1.03215 0
M  V30 3296 H 299.753 1.7948 2.5533 0
M  V30 3297 N 300.054 -1.07777 1.14986 0
M  V30 3298 C 301.47 -1.32373 0.891596 0
M  V30 3299 C 301.67 -1.9609 -0.463788 0
M  V30 3300 O 300.726 -2.21801 -1.20667 0
M  V30 3301 C 302.039 -2.21905 2.02925 0
M  V30 3302 C 303.587 -2.35367 2.06329 0
M  V30 3303 C 304.062 -3.28245 3.19405 0
M  V30 3304 N 305.553 -3.35824 3.19024 0
M  V30 3305 C 306.288 -4.07739 4.03158 0
M  V30 3306 N 305.784 -4.82306 4.97346 0
M  V30 3307 N 307.577 -4.03635 3.91197 0
M  V30 3308 H 299.728 -0.648039 2.02273 0
M  V30 3309 H 301.991 -0.348149 0.881757 0
M  V30 3310 H 301.697 -1.82342 3.0074 0
M  V30 3311 H 301.571 -3.22407 1.95789 0
M  V30 3312 H 303.958 -2.74186 1.09116 0
M  V30 3313 H 304.039 -1.34585 2.17533 0
M  V30 3314 H 303.683 -2.90146 4.16867 0
M  V30 3315 H 303.613 -4.28971 3.05437 0
M  V30 3316 H 306.104 -2.8267 2.50811 0
M  V30 3317 H 306.417 -5.34661 5.57994 0
M  V30 3318 H 304.762 -4.81337 5.01338 0
M  V30 3319 H 307.953 -3.44491 3.16928 0
M  V30 3320 H 308.126 -4.59417 4.5699 0
M  V30 3321 N 301.532 -0.945985 -1.26051 0
M  V30 3322 C 302.479 -0.45809 -2.26208 0
M  V30 3323 C 303.449 0.484816 -1.58867 0
M  V30 3324 O 304.634 0.399969 -1.86561 0
M  V30 3325 C 301.774 0.266131 -3.44072 0
M  V30 3326 C 300.887 -0.713005 -4.26075 0
M  V30 3327 C 300.022 0.0329013 -5.3119 0
M  V30 3328 C 299.061 -0.93774 -6.04874 0
M  V30 3329 N 298.198 -0.223274 -7.01745 0
M  V30 3330 H 303.038 -1.3171 -2.67313 0
M  V30 3331 H 300.575 -0.66069 -1.31428 0
M  V30 3332 H 302.533 0.702514 -4.11243 0
M  V30 3333 H 301.163 1.08925 -3.03867 0
M  V30 3334 H 300.215 -1.26789 -3.58648 0
M  V30 3335 H 301.527 -1.45406 -4.77136 0
M  V30 3336 H 300.681 0.528335 -6.04395 0
M  V30 3337 H 299.42 0.806801 -4.8098 0
M  V30 3338 H 298.425 -1.44425 -5.30492 0
M  V30 3339 H 299.65 -1.71172 -6.57173 0
M  V30 3340 H 297.596 0.532046 -6.53839 0
M  V30 3341 H 297.513 -0.90357 -7.50581 0
M  V30 3342 H 298.781 0.250907 -7.79096 0
M  V30 3343 N 303.011 1.40521 -0.713556 0
M  V30 3344 C 303.958 2.30723 -0.059684 0
M  V30 3345 C 304.928 1.48079 0.752448 0
M  V30 3346 O 306.113 1.76823 0.71681 0
M  V30 3347 C 303.253 3.34274 0.857594 0
M  V30 3348 C 302.366 4.31986 0.0351536 0
M  V30 3349 C 301.501 5.22605 0.951724 0
M  V30 3350 C 300.54 6.11976 0.123253 0
M  V30 3351 N 299.677 6.9502 0.99459 0
M  V30 3352 H 304.517 2.86074 -0.834596 0
M  V30 3353 H 302.054 1.40879 -0.42326 0
M  V30 3354 H 304.012 3.92879 1.40364 0
M  V30 3355 H 302.642 2.8043 1.59871 0
M  V30 3356 H 301.694 3.7518 -0.628052 0
M  V30 3357 H 303.006 4.95101 -0.606347 0
M  V30 3358 H 302.16 5.86131 1.56638 0
M  V30 3359 H 300.899 4.59759 1.62705 0
M  V30 3360 H 299.904 5.47482 -0.50435 0
M  V30 3361 H 301.129 6.76881 -0.548539 0
M  V30 3362 H 299.075 6.34764 1.6556 0
M  V30 3363 H 298.992 7.54892 0.40908 0
M  V30 3364 H 300.26 7.62997 1.59549 0
M  V30 3365 N 304.489 0.459591 1.5075 0
M  V30 3366 C 305.436 -0.340524 2.28274 0
M  V30 3367 C 306.406 -0.997371 1.32822 0
M  V30 3368 O 307.591 -1.01202 1.61749 0
M  V30 3369 C 304.731 -1.42317 3.14388 0
M  V30 3370 C 303.844 -0.782251 4.24859 0
M  V30 3371 C 302.979 -1.84182 4.98247 0
M  V30 3372 C 302.018 -1.18053 6.00608 0
M  V30 3373 N 301.155 -2.18244 6.67319 0
M  V30 3374 H 305.995 0.326899 2.96202 0
M  V30 3375 H 303.532 0.173057 1.46078 0
M  V30 3376 H 305.49 -2.06241 3.62658 0
M  V30 3377 H 304.12 -2.05992 2.4853 0
M  V30 3378 H 303.172 -0.0307404 3.80388 0
M  V30 3379 H 304.484 -0.259663 4.98124 0
M  V30 3380 H 303.638 -2.55714 5.50177 0
M  V30 3381 H 302.377 -2.39819 4.24662 0
M  V30 3382 H 301.382 -0.450776 5.47949 0
M  V30 3383 H 302.607 -0.631202 6.7616 0
M  V30 3384 H 300.553 -2.72919 5.96533 0
M  V30 3385 H 300.47 -1.70938 7.36421 0
M  V30 3386 H 301.738 -2.89191 7.23871 0
M  V30 3387 N 305.967 -1.56429 0.191757 0
M  V30 3388 C 307.214 -1.97485 -0.447891 0
M  V30 3389 C 307.542 -1.07852 -1.61859 0
M  V30 3390 O 306.797 -0.116903 -1.95351 0
M  V30 3391 C 307.096 -3.44449 -0.953384 0
M  V30 3392 C 306.762 -4.50781 0.103586 0
M  V30 3393 C 305.424 -4.79584 0.394023 0
M  V30 3394 C 307.776 -5.1471 0.819946 0
M  V30 3395 C 305.104 -5.69607 1.40585 0
M  V30 3396 C 307.456 -6.05827 1.8209 0
M  V30 3397 C 306.12 -6.32987 2.11857 0
M  V30 3398 H 305.39 -0.722648 -0.163895 0
M  V30 3399 H 308.037 -1.89322 0.28802 0
M  V30 3400 H 306.342 -3.49666 -1.76751 0
M  V30 3401 H 308.039 -3.73569 -1.45765 0
M  V30 3402 H 304.629 -4.28394 -0.132951 0
M  V30 3403 H 308.813 -4.92552 0.608789 0
M  V30 3404 H 304.069 -5.88926 1.64243 0
M  V30 3405 H 308.243 -6.54424 2.38123 0
M  V30 3406 H 305.87 -7.02544 2.90407 0
M  V30 3407 N 307.445 0.0818655 -1.57387 0
M  V30 3408 C 308.355 1.11642 -2.06333 0
M  V30 3409 C 309.371 1.43033 -0.99083 0
M  V30 3410 O 310.547 1.53411 -1.30488 0
M  V30 3411 C 307.612 2.41342 -2.48907 0
M  V30 3412 C 306.673 2.17014 -3.7041 0
M  V30 3413 C 305.906 3.4053 -4.10944 0
M  V30 3414 O 306.129 4.4927 -3.51444 0
M  V30 3415 O 305.063 3.29336 -5.03807 0
M  V30 3416 H 308.889 0.730657 -2.9478 0
M  V30 3417 H 306.474 0.295301 -1.46452 0
M  V30 3418 H 308.356 3.17691 -2.76858 0
M  V30 3419 H 307.031 2.79319 -1.63593 0
M  V30 3420 H 305.938 1.38403 -3.47556 0
M  V30 3421 H 307.271 1.83923 -4.56545 0
M  V30 3422 N 308.923 1.53595 0.353017 0
M  V30 3423 C 310.148 1.7462 1.11904 0
M  V30 3424 C 310.573 0.479721 1.8188 0
M  V30 3425 O 309.931 -0.567066 1.72204 0
M  V30 3426 C 309.979 2.92029 2.11545 0
M  V30 3427 O 309.083 2.61516 3.18878 0
M  V30 3428 H 308.424 0.579531 0.324099 0
M  V30 3429 H 310.954 2.00525 0.406301 0
M  V30 3430 H 310.964 3.18551 2.5493 0
M  V30 3431 H 309.639 3.83888 1.60008 0
M  V30 3432 H 308.216 2.45852 2.80377 0
M  V30 3433 O 310.44 -0.498996 1.53598 0
M  V30 3434 H 311.131 -1.15384 1.55584 0
M  V30 END ATOM
M  V30 BEGIN BOND
M  V30 END BOND
M  V30 END CTAB
M  END
$$$$
