drugbank_target|P19424 Endoglucanase (DB02061)
 OpenBabel12092119543D

  0  0  0     0  0            999 V3000
M  V30 BEGIN CTAB
M  V30 COUNTS 14351 14530 0 0 0
M  V30 BEGIN ATOM
M  V30 1 H -0.908 1.98254 -0.117106 0
M  V30 2 N 0 1.576 0 0
M  V30 3 C 0.933 2.03868 1.02534 0
M  V30 4 C 1.911 0.928543 1.3348 0
M  V30 5 O 3.095 1.19667 1.45644 0
M  V30 6 C 0.222 2.43627 2.35294 0
M  V30 7 C -0.732 3.65373 2.2001 0
M  V30 8 S 0.101 5.13292 1.52614 0
M  V30 9 C 1.257 5.56322 2.86805 0
M  V30 10 H 1.49 2.90518 0.631377 0
M  V30 11 H -0.977 1.52953 0.210867 0
M  V30 12 H 0.981 2.67203 3.11629 0
M  V30 13 H -0.358 1.57376 2.7183 0
M  V30 14 H -1.165 3.90944 3.18086 0
M  V30 15 H -1.563 3.418 1.51819 0
M  V30 16 H 0.729 5.58782 3.83104 0
M  V30 17 H 1.672 6.56266 2.65933 0
M  V30 18 H 2.08 4.83886 2.90714 0
M  V30 19 N 1.4781 -0.272755 1.55222 0
M  V30 20 C 2.4251 -1.33716 1.88119 0
M  V30 21 C 3.3951 -1.49066 0.73271 0
M  V30 22 O 4.5801 -1.63469 0.984002 0
M  V30 23 C 1.7201 -2.69238 2.15882 0
M  V30 24 C 0.8331 -2.62108 3.43399 0
M  V30 25 C -0.0319 -3.89811 3.60861 0
M  V30 26 C -0.9929 -3.77193 4.8207 0
M  V30 27 N -1.8559 -4.9673 4.96189 0
M  V30 28 H 2.9841 -1.04962 2.78903 0
M  V30 29 H 0.5211 -0.507088 1.38083 0
M  V30 30 H 2.4791 -3.48089 2.29978 0
M  V30 31 H 1.1091 -2.96194 1.28331 0
M  V30 32 H 0.1611 -1.74967 3.37773 0
M  V30 33 H 1.4731 -2.48685 4.32386 0
M  V30 34 H 0.6271 -4.77103 3.74777 0
M  V30 35 H -0.6339 -4.06102 2.7006 0
M  V30 36 H -1.6289 -2.88284 4.68159 0
M  V30 37 H -0.4039 -3.62421 5.74307 0
M  V30 38 H -2.4579 -5.13431 4.08319 0
M  V30 39 H -2.5409 -4.85839 5.79221 0
M  V30 40 H -1.2729 -5.85594 5.1449 0
M  V30 41 N 2.9562 -1.48159 -0.537278 0
M  V30 42 C 4.2052 -1.5506 -1.28993 0
M  V30 43 C 4.5182 -0.226211 -1.94288 0
M  V30 44 O 5.7242 -0.173395 -2.70946 0
M  V30 45 C 4.1802 -2.73429 -2.34018 0
M  V30 46 C 3.7882 -4.1248 -1.74825 0
M  V30 47 C 5.5322 -2.89638 -3.10339 0
M  V30 48 C 3.4392 -5.22121 -2.77747 0
M  V30 49 H 2.3692 -0.577231 -0.485098 0
M  V30 50 H 5.0202 -1.74478 -0.568317 0
M  V30 51 H 3.4022 -2.47431 -3.09182 0
M  V30 52 H 4.5762 -4.48466 -1.05899 0
M  V30 53 H 2.8912 -4.01327 -1.11022 0
M  V30 54 H 5.4882 -3.68718 -3.87235 0
M  V30 55 H 5.8312 -1.9882 -3.65754 0
M  V30 56 H 6.3642 -3.15502 -2.42288 0
M  V30 57 H 3.1032 -6.1488 -2.27161 0
M  V30 58 H 2.6232 -4.90631 -3.45024 0
M  V30 59 H 4.3022 -5.49924 -3.4087 0
M  V30 60 N 4.4343 0.785586 -1.36625 0
M  V30 61 C 5.3813 1.89838 -1.31264 0
M  V30 62 C 6.3513 1.65115 -0.180633 0
M  V30 63 O 7.5363 1.87222 -0.36777 0
M  V30 64 C 4.6763 3.26706 -1.11163 0
M  V30 65 C 3.7893 3.63476 -2.33472 0
M  V30 66 C 2.9243 4.89481 -2.06353 0
M  V30 67 C 1.9633 5.18941 -3.24602 0
M  V30 68 N 1.1003 6.36131 -2.97123 0
M  V30 69 H 5.9403 1.93756 -2.26413 0
M  V30 70 H 3.4773 0.947454 -1.12524 0
M  V30 71 H 5.4353 4.05639 -0.975337 0
M  V30 72 H 4.0653 3.222 -0.196674 0
M  V30 73 H 3.1173 2.79636 -2.57891 0
M  V30 74 H 4.4293 3.81193 -3.21704 0
M  V30 75 H 3.5833 5.76288 -1.89675 0
M  V30 76 H 2.3223 4.73841 -1.15437 0
M  V30 77 H 1.3273 4.30615 -3.41834 0
M  V30 78 H 2.5523 5.36498 -4.16349 0
M  V30 79 H 0.4983 6.21875 -2.08823 0
M  V30 80 H 0.4153 6.54198 -3.78894 0
M  V30 81 H 1.6833 7.2591 -2.84033 0
M  V30 82 N 5.9124 1.20967 1.01018 0
M  V30 83 C 6.8444 0.922059 2.09835 0
M  V30 84 C 7.8574 -0.0927106 1.62536 0
M  V30 85 O 9.0464 0.139127 1.77957 0
M  V30 86 C 6.1464 0.362004 3.36961 0
M  V30 87 C 5.3194 1.42986 4.13369 0
M  V30 88 C 4.3784 0.879976 5.1879 0
M  V30 89 O 3.4044 1.56219 5.47343 0
M  V30 90 N 4.6064 -0.307396 5.79686 0
M  V30 91 H 7.3714 1.8588 2.35093 0
M  V30 92 H 4.9324 1.11422 1.1746 0
M  V30 93 H 6.9244 -0.0201474 4.04695 0
M  V30 94 H 5.4944 -0.479437 3.08902 0
M  V30 95 H 4.7144 1.98608 3.40512 0
M  V30 96 H 6.0024 2.14885 4.61196 0
M  V30 97 H 5.4004 -0.878796 5.58832 0
M  V30 98 H 3.9574 -0.631115 6.48737 0
M  V30 99 N 7.3905 -1.2043 1.01659 0
M  V30 100 C 8.6395 -1.89118 0.701237 0
M  V30 101 C 8.9525 -1.79705 -0.772358 0
M  V30 102 O 10.1585 -2.43528 -1.20026 0
M  V30 103 C 8.6145 -3.39168 1.20388 0
M  V30 104 C 8.2225 -3.57166 2.70438 0
M  V30 105 C 9.9665 -4.1341 0.963953 0
M  V30 106 C 7.8735 -5.01042 3.14183 0
M  V30 107 H 6.8035 -0.708267 0.2586 0
M  V30 108 H 9.4545 -1.36239 1.22927 0
M  V30 109 H 7.8365 -3.91369 0.603824 0
M  V30 110 H 9.0105 -3.15351 3.35992 0
M  V30 111 H 7.3255 -2.96294 2.92572 0
M  V30 112 H 9.9225 -5.19491 1.26621 0
M  V30 113 H 10.2655 -4.16181 -0.099578 0
M  V30 114 H 10.7985 -3.67309 1.52738 0
M  V30 115 H 7.5375 -5.03426 4.19812 0
M  V30 116 H 7.0575 -5.43668 2.53348 0
M  V30 117 H 8.7365 -5.69623 3.0682 0
M  V30 118 N 8.8686 -0.792821 -1.36206 0
M  V30 119 C 9.8156 -0.191653 -2.30003 0
M  V30 120 C 10.7856 0.666453 -1.52143 0
M  V30 121 O 11.9706 0.61442 -1.80636 0
M  V30 122 C 9.1106 0.664848 -3.38635 0
M  V30 123 C 8.2236 -0.212175 -4.31479 0
M  V30 124 C 7.3586 0.651022 -5.27196 0
M  V30 125 C 6.3976 -0.227247 -6.11678 0
M  V30 126 N 5.5346 0.595127 -6.99573 0
M  V30 127 H 10.3746 -0.996978 -2.80828 0
M  V30 128 H 7.9116 -0.503206 -1.38225 0
M  V30 129 H 9.8696 1.17645 -4.00269 0
M  V30 130 H 8.4996 1.43557 -2.89122 0
M  V30 131 H 7.5516 -0.841777 -3.70969 0
M  V30 132 H 8.8636 -0.888751 -4.90818 0
M  V30 133 H 8.0176 1.2283 -5.94136 0
M  V30 134 H 6.7566 1.36121 -4.68319 0
M  V30 135 H 5.7616 -0.816904 -5.43697 0
M  V30 136 H 6.9866 -0.93509 -6.72631 0
M  V30 137 H 4.9326 1.28955 -6.432 0
M  V30 138 H 4.8496 -0.0236952 -7.55996 0
M  V30 139 H 6.1176 1.15613 -7.70879 0
M  V30 140 N 10.3467 1.47872 -0.545128 0
M  V30 141 C 11.2787 2.27869 0.246621 0
M  V30 142 C 12.2917 1.36282 0.890561 0
M  V30 143 O 13.4807 1.61207 0.766449 0
M  V30 144 C 10.5807 3.10159 1.36582 0
M  V30 145 C 9.7537 4.29627 0.820954 0
M  V30 146 C 8.8127 4.93607 1.82314 0
M  V30 147 O 7.8387 5.52366 1.37406 0
M  V30 148 N 9.0407 4.87211 3.15603 0
M  V30 149 H 11.8057 2.96459 -0.439539 0
M  V30 150 H 9.3667 1.57367 -0.380421 0
M  V30 151 H 11.3587 3.49829 2.03474 0
M  V30 152 H 9.9287 2.43891 1.9554 0
M  V30 153 H 9.1487 3.94192 -0.0244032 0
M  V30 154 H 10.4367 5.06928 0.436063 0
M  V30 155 H 9.8347 4.40651 3.54744 0
M  V30 156 H 8.3917 5.30937 3.78087 0
M  V30 157 N 11.8248 0.280983 1.55075 0
M  V30 158 C 13.0498 -0.340154 2.04592 0
M  V30 159 C 13.4748 -1.48246 1.15779 0
M  V30 160 O 12.8328 -1.80614 0.15761 0
M  V30 161 C 12.8808 -0.793104 3.5177 0
M  V30 162 O 11.9848 -1.89981 3.66034 0
M  V30 163 H 11.3258 -0.0694289 0.66036 0
M  V30 164 H 13.8558 0.416993 2.00306 0
M  V30 165 H 13.8658 -1.08729 3.93245 0
M  V30 166 H 12.5408 0.0426163 4.15878 0
M  V30 167 H 11.1178 -1.60771 3.36463 0
M  V30 168 N 13.3029 -1.57598 0.00835791 0
M  V30 169 C 14.2329 -2.1198 -0.979113 0
M  V30 170 C 15.2139 -1.03091 -1.35301 0
M  V30 171 O 16.3989 -1.30818 -1.43528 0
M  V30 172 C 13.5289 -2.62995 -2.26828 0
M  V30 173 C 12.4829 -3.76485 -2.03576 0
M  V30 174 C 11.8089 -4.13846 -3.38579 0
M  V30 175 C 13.1089 -5.0342 -1.39161 0
M  V30 176 H 14.8029 -2.94738 -0.526281 0
M  V30 177 H 12.3489 -1.41783 -0.251704 0
M  V30 178 H 14.3019 -2.99669 -2.96271 0
M  V30 179 H 13.0259 -1.7737 -2.7424 0
M  V30 180 H 11.6849 -3.40217 -1.36557 0
M  V30 181 H 11.3329 -3.25232 -3.83709 0
M  V30 182 H 11.0329 -4.90312 -3.23834 0
M  V30 183 H 12.5569 -4.53086 -4.09323 0
M  V30 184 H 13.9709 -5.37812 -1.98573 0
M  V30 185 H 12.3679 -5.84746 -1.34878 0
M  V30 186 H 13.4379 -4.83548 -0.361868 0
M  V30 187 N 14.781 0.264519 -1.55364 0
M  V30 188 C 16.006 1.01726 -1.80739 0
M  V30 189 C 16.431 1.78836 -0.583044 0
M  V30 190 O 15.789 1.75167 0.467566 0
M  V30 191 C 15.837 1.94482 -3.03659 0
M  V30 192 O 14.941 3.03386 -2.7934 0
M  V30 193 H 14.282 0.290395 -0.597132 0
M  V30 194 H 16.812 0.290854 -2.02522 0
M  V30 195 H 16.822 2.36278 -3.32621 0
M  V30 196 H 15.497 1.37772 -3.92418 0
M  V30 197 H 14.074 2.65844 -2.61498 0
M  V30 198 N 16.2591 1.48442 0.529413 0
M  V30 199 C 17.1891 1.65902 1.64313 0
M  V30 200 C 18.1701 0.507897 1.6234 0
M  V30 201 O 19.3551 0.740503 1.79528 0
M  V30 202 C 16.4851 1.69911 3.02898 0
M  V30 203 C 15.4391 2.8453 3.19729 0
M  V30 204 C 14.7651 2.73629 4.59381 0
M  V30 205 C 16.0651 4.25821 3.02447 0
M  V30 206 H 17.7591 2.5914 1.49955 0
M  V30 207 H 15.3051 1.24709 0.719982 0
M  V30 208 H 17.2581 1.80715 3.80684 0
M  V30 209 H 15.9821 0.732524 3.18279 0
M  V30 210 H 14.6411 2.73283 2.44361 0
M  V30 211 H 14.2891 1.74938 4.71599 0
M  V30 212 H 13.9891 3.50541 4.71588 0
M  V30 213 H 15.5131 2.86401 5.39265 0
M  V30 214 H 16.9271 4.37898 3.70024 0
M  V30 215 H 15.3241 5.03735 3.26146 0
M  V30 216 H 16.3941 4.42244 1.98867 0
M  V30 217 N 17.7372 -0.778329 1.37039 0
M  V30 218 C 18.6672 -1.90546 1.34962 0
M  V30 219 C 19.6482 -1.68681 0.219274 0
M  V30 220 O 20.8332 -1.89634 0.418624 0
M  V30 221 C 17.9632 -3.27734 1.14925 0
M  V30 222 C 16.9172 -3.64147 2.24902 0
M  V30 223 C 16.2432 -4.99806 1.89996 0
M  V30 224 C 17.5432 -3.71579 3.67051 0
M  V30 225 H 19.2372 -1.92541 2.29277 0
M  V30 226 H 16.7832 -0.924948 1.10366 0
M  V30 227 H 18.7362 -4.06215 1.12104 0
M  V30 228 H 17.4602 -3.26154 0.170631 0
M  V30 229 H 16.1192 -2.8797 2.26868 0
M  V30 230 H 15.7672 -4.94759 0.906796 0
M  V30 231 H 15.4672 -5.25139 2.63634 0
M  V30 232 H 16.9912 -5.80694 1.88749 0
M  V30 233 H 18.4052 -4.40227 3.67251 0
M  V30 234 H 16.8022 -4.08405 4.39688 0
M  V30 235 H 17.8722 -2.72404 4.01154 0
M  V30 236 N 19.2153 -1.21501 -1.00376 0
M  V30 237 C 20.1453 -0.999478 -2.11028 0
M  V30 238 C 21.1263 0.0759671 -1.6993 0
M  V30 239 O 22.3113 -0.0841106 -1.94018 0
M  V30 240 C 19.4413 -0.564709 -3.42678 0
M  V30 241 C 18.3953 -1.58486 -3.97576 0
M  V30 242 C 17.7213 -1.00628 -5.25146 0
M  V30 243 C 19.0213 -2.97204 -4.29496 0
M  V30 244 H 20.7153 -1.92495 -2.29317 0
M  V30 245 H 18.2613 -0.92693 -1.102 0
M  V30 246 H 20.2143 -0.401091 -4.19487 0
M  V30 247 H 18.9383 0.396411 -3.24185 0
M  V30 248 H 17.5973 -1.73606 -3.22888 0
M  V30 249 H 17.2453 -0.0368439 -5.02987 0
M  V30 250 H 16.9453 -1.68771 -5.62841 0
M  V30 251 H 18.4693 -0.854015 -6.04598 0
M  V30 252 H 19.8833 -2.8552 -4.97143 0
M  V30 253 H 18.2803 -3.62372 -4.78338 0
M  V30 254 H 19.3503 -3.47956 -3.3772 0
M  V30 255 N 20.6934 1.19889 -1.02296 0
M  V30 256 C 21.9424 1.88743 -0.711257 0
M  V30 257 C 22.2554 1.80112 0.762817 0
M  V30 258 O 23.4614 2.44161 1.18733 0
M  V30 259 C 21.9174 3.38525 -1.22185 0
M  V30 260 C 21.5254 3.55727 -2.72328 0
M  V30 261 C 23.2694 4.12893 -0.985864 0
M  V30 262 C 21.1764 4.99369 -3.16835 0
M  V30 263 H 20.1064 0.706885 -0.262353 0
M  V30 264 H 22.7574 1.35586 -1.23648 0
M  V30 265 H 21.1394 3.91044 -0.624571 0
M  V30 266 H 22.3134 3.13564 -3.3766 0
M  V30 267 H 20.6284 2.94739 -2.9414 0
M  V30 268 H 23.2254 5.18813 -1.29374 0
M  V30 269 H 23.5684 4.16228 0.0775055 0
M  V30 270 H 24.1014 3.66494 -1.54684 0
M  V30 271 H 20.8404 5.01193 -4.22476 0
M  V30 272 H 20.3604 5.42317 -2.56228 0
M  V30 273 H 22.0394 5.67988 -3.09837 0
M  V30 274 N 22.1715 0.800033 1.35784 0
M  V30 275 C 23.4205 0.37387 1.98205 0
M  V30 276 C 23.7335 -1.06302 1.64193 0
M  V30 277 O 24.9395 -1.59198 2.19928 0
M  V30 278 C 23.3955 0.617532 3.54562 0
M  V30 279 C 23.0035 2.06654 3.9749 0
M  V30 280 C 24.7475 0.256401 4.23725 0
M  V30 281 C 22.6545 2.2563 5.46667 0
M  V30 282 H 21.5845 0.136055 0.741623 0
M  V30 283 H 24.2355 0.983166 1.54939 0
M  V30 284 H 22.6175 -0.0616248 3.95952 0
M  V30 285 H 23.7915 2.78296 3.67271 0
M  V30 286 H 22.1065 2.38691 3.41197 0
M  V30 287 H 24.7035 0.376318 5.33374 0
M  V30 288 H 25.0465 -0.796692 4.08606 0
M  V30 289 H 25.5795 0.889214 3.87734 0
M  V30 290 H 22.3185 3.2936 5.66747 0
M  V30 291 H 21.8385 1.58504 5.78478 0
M  V30 292 H 23.5175 2.06861 6.1304 0
M  V30 293 N 23.6496 -1.47581 0.552962 0
M  V30 294 C 24.8776 -2.06875 0.0320556 0
M  V30 295 C 25.2926 -1.40625 -1.25976 0
M  V30 296 O 24.6496 -0.501349 -1.75479 0
M  V30 297 C 24.7006 -3.61092 -0.17167 0
M  V30 298 O 24.4216 -4.24858 1.06899 0
M  V30 299 C 25.9226 -4.37242 -0.730344 0
M  V30 300 H 23.1426 -0.669561 0.043915 0
M  V30 301 H 25.6866 -1.89646 0.765163 0
M  V30 302 H 23.8416 -3.7785 -0.854894 0
M  V30 303 H 24.2556 -5.17334 0.864059 0
M  V30 304 H 25.7296 -5.45842 -0.822203 0
M  V30 305 H 26.2066 -4.03235 -1.74064 0
M  V30 306 H 26.8126 -4.25219 -0.0829543 0
M  V30 307 N 25.1277 -0.289203 -1.54924 0
M  V30 308 C 26.0577 0.58549 -2.2604 0
M  V30 309 C 27.0387 1.14753 -1.25562 0
M  V30 310 O 28.2237 1.17906 -1.54311 0
M  V30 311 C 25.3537 1.76305 -2.99222 0
M  V30 312 C 24.3077 1.33191 -4.06748 0
M  V30 313 C 23.6337 2.5937 -4.6758 0
M  V30 314 C 24.9337 0.471775 -5.20165 0
M  V30 315 H 26.6277 -0.00763532 -2.99399 0
M  V30 316 H 24.1737 -0.00511229 -1.43999 0
M  V30 317 H 26.1267 2.38097 -3.47689 0
M  V30 318 H 24.8507 2.38223 -2.23422 0
M  V30 319 H 23.5097 0.737121 -3.59113 0
M  V30 320 H 23.1577 3.19576 -3.88433 0
M  V30 321 H 22.8577 2.31228 -5.40192 0
M  V30 322 H 24.3817 3.21985 -5.18804 0
M  V30 323 H 25.7957 0.995056 -5.64599 0
M  V30 324 H 24.1927 0.284639 -5.99425 0
M  V30 325 H 25.2627 -0.506041 -4.82252 0
M  V30 326 N 26.6058 1.57591 -0.0167156 0
M  V30 327 C 27.8548 1.90461 0.663877 0
M  V30 328 C 28.1678 0.893515 1.73999 0
M  V30 329 O 29.3738 1.11302 2.47637 0
M  V30 330 C 27.8298 3.38155 1.23204 0
M  V30 331 C 27.4378 4.47597 0.189866 0
M  V30 332 C 29.1818 3.80111 1.88986 0
M  V30 333 C 27.0888 5.86379 0.768964 0
M  V30 334 H 26.0188 0.710738 0.251729 0
M  V30 335 H 28.6698 1.83326 -0.0799926 0
M  V30 336 H 27.0518 3.40182 2.02712 0
M  V30 337 H 28.2258 4.57112 -0.581846 0
M  V30 338 H 26.5408 4.14766 -0.368475 0
M  V30 339 H 29.1378 4.81145 2.33247 0
M  V30 340 H 29.4808 3.14511 2.72743 0
M  V30 341 H 30.0138 3.80454 1.16187 0
M  V30 342 H 26.7528 6.55493 -0.0301957 0
M  V30 343 H 26.2728 5.80496 1.50945 0
M  V30 344 H 27.9518 6.34563 1.26251 0
M  V30 345 N 28.0839 -0.256276 1.55502 0
M  V30 346 C 29.0169 -1.34321 1.84481 0
M  V30 347 C 29.9949 -1.46802 0.699131 0
M  V30 348 O 31.1789 -1.63165 0.943904 0
M  V30 349 C 28.3059 -2.71779 2.02123 0
M  V30 350 C 27.3519 -2.76496 3.24734 0
M  V30 351 S 28.1849 -2.3405 4.81644 0
M  V30 352 C 29.3409 -3.73452 5.02279 0
M  V30 353 H 29.5739 -1.09539 2.76385 0
M  V30 354 H 27.1069 -0.45678 1.47489 0
M  V30 355 H 29.0649 -3.50932 2.12972 0
M  V30 356 H 27.7259 -2.93803 1.11078 0
M  V30 357 H 26.9189 -3.77424 3.34016 0
M  V30 358 H 26.5209 -2.05379 3.12563 0
M  V30 359 H 28.8129 -4.6887 4.89047 0
M  V30 360 H 29.7559 -3.6911 6.04287 0
M  V30 361 H 30.1639 -3.6553 4.30172 0
M  V30 362 N 29.562 -1.4872 -0.521534 0
M  V30 363 C 30.787 -1.61101 -1.30618 0
M  V30 364 C 31.212 -0.274611 -1.86085 0
M  V30 365 O 30.57 0.754937 -1.64834 0
M  V30 366 C 30.618 -2.66709 -2.4269 0
M  V30 367 O 29.722 -2.24456 -3.45967 0
M  V30 368 H 29.063 -0.539921 -0.386499 0
M  V30 369 H 31.593 -1.94767 -0.626645 0
M  V30 370 H 31.603 -2.88245 -2.88754 0
M  V30 371 H 30.278 -3.63727 -2.01682 0
M  V30 372 H 28.855 -2.13168 -3.05964 0
M  V30 373 N 31.0401 0.771051 -1.3745 0
M  V30 374 C 31.9701 1.89827 -1.3597 0
M  V30 375 C 32.9511 1.68562 -0.228216 0
M  V30 376 O 34.1361 1.8941 -0.428675 0
M  V30 377 C 31.2661 3.2712 -1.16662 0
M  V30 378 C 30.2201 3.6295 -2.2683 0
M  V30 379 C 29.5461 4.98791 -1.92644 0
M  V30 380 C 30.8461 3.69627 -3.69017 0
M  V30 381 H 32.5401 1.91323 -2.30295 0
M  V30 382 H 30.0861 0.919082 -1.10855 0
M  V30 383 H 32.0391 4.05615 -1.14256 0
M  V30 384 H 30.7631 3.26059 -0.187926 0
M  V30 385 H 29.4221 2.86763 -2.28392 0
M  V30 386 H 29.0701 4.94271 -0.933021 0
M  V30 387 H 28.7701 5.23733 -2.66416 0
M  V30 388 H 30.2941 5.79685 -1.91826 0
M  V30 389 H 31.7081 4.38273 -3.69581 0
M  V30 390 H 30.1051 4.06067 -4.41848 0
M  V30 391 H 31.1751 2.70273 -4.02592 0
M  V30 392 N 32.5182 1.22032 0.997298 0
M  V30 393 C 33.7652 1.04222 1.73621 0
M  V30 394 C 34.0932 -0.423264 1.89839 0
M  V30 395 O 33.3482 -1.3302 1.43542 0
M  V30 396 C 33.6472 1.69345 3.14733 0
M  V30 397 C 33.3132 3.19226 3.18442 0
M  V30 398 C 31.9752 3.60124 3.19161 0
M  V30 399 C 34.3272 4.15181 3.15078 0
M  V30 400 C 31.6552 4.95467 3.14212 0
M  V30 401 C 34.0072 5.50495 3.1167 0
M  V30 402 C 32.6712 5.90779 3.10703 0
M  V30 403 H 31.9412 0.381374 0.635323 0
M  V30 404 H 34.5882 1.51732 1.16831 0
M  V30 405 H 32.8932 1.14147 3.74803 0
M  V30 406 H 34.5902 1.53059 3.7064 0
M  V30 407 H 31.1802 2.86659 3.18629 0
M  V30 408 H 35.3642 3.84605 3.13676 0
M  V30 409 H 30.6202 5.25916 3.11805 0
M  V30 410 H 34.7942 6.24576 3.08022 0
M  V30 411 H 32.4212 6.9562 3.06622 0
M  V30 412 N 33.9963 -1.19345 1.0293 0
M  V30 413 C 35.2423 -1.89318 0.727083 0
M  V30 414 C 35.5753 -1.79446 -0.742483 0
M  V30 415 O 34.8503 -1.1871 -1.54072 0
M  V30 416 C 35.1333 -3.40238 1.17942 0
M  V30 417 C 34.9863 -3.58979 2.71024 0
M  V30 418 C 36.3053 -4.33479 0.760548 0
M  V30 419 H 33.4243 -0.687475 0.265606 0
M  V30 420 H 36.0663 -1.40477 1.2793 0
M  V30 421 H 34.2163 -3.81964 0.709608 0
M  V30 422 H 35.8883 -3.26421 3.25955 0
M  V30 423 H 34.1313 -3.02018 3.11396 0
M  V30 424 H 34.8023 -4.64823 2.9773 0
M  V30 425 H 37.2783 -3.99469 1.16464 0
M  V30 426 H 36.1543 -5.37664 1.10493 0
M  V30 427 H 36.4153 -4.40813 -0.337063 0
M  V30 428 N 35.4744 -0.807222 -1.35358 0
M  V30 429 C 36.8854 -0.44876 -1.81226 0
M  V30 430 C 37.2364 1.02929 -1.67033 0
M  V30 431 O 36.3614 1.79991 -1.20133 0
M  V30 432 C 36.9564 -0.807774 -3.2903 0
M  V30 433 C 35.5154 -0.501901 -3.73039 0
M  V30 434 C 34.6624 -1.03304 -2.57339 0
M  V30 435 H 37.6134 -0.998808 -1.23327 0
M  V30 436 H 37.6344 -0.10554 -3.80354 0
M  V30 437 H 37.1464 -1.88357 -3.39328 0
M  V30 438 H 35.2474 0.565128 -3.68289 0
M  V30 439 H 35.3604 -1.03497 -4.67787 0
M  V30 440 H 33.7244 -0.455339 -2.50597 0
M  V30 441 H 34.5074 -2.11496 -2.70415 0
M  V30 442 N 36.9525 1.47285 -0.560781 0
M  V30 443 C 37.8855 2.27009 0.232821 0
M  V30 444 C 38.8635 1.34273 0.917039 0
M  V30 445 O 40.0475 1.63659 0.935315 0
M  V30 446 C 37.1745 3.11406 1.33206 0
M  V30 447 C 36.2205 4.19746 0.756019 0
M  V30 448 S 37.0535 5.34003 -0.400165 0
M  V30 449 C 38.2095 6.21964 0.700805 0
M  V30 450 H 38.4425 2.93971 -0.443683 0
M  V30 451 H 35.9755 1.50446 -0.347181 0
M  V30 452 H 37.9335 3.60601 1.96156 0
M  V30 453 H 36.5945 2.438 1.98041 0
M  V30 454 H 35.7875 4.78541 1.5816 0
M  V30 455 H 35.3895 3.73451 0.202619 0
M  V30 456 H 37.6815 6.58529 1.59202 0
M  V30 457 H 38.6245 7.07941 0.150126 0
M  V30 458 H 39.0325 5.5566 0.995083 0
M  V30 459 N 38.4306 0.297415 1.54768 0
M  V30 460 C 39.3936 -0.567375 2.22066 0
M  V30 461 C 40.3936 -1.06409 1.20556 0
M  V30 462 O 41.5836 -0.960691 1.45315 0
M  V30 463 C 38.7156 -1.78517 2.90421 0
M  V30 464 H 39.9086 0.0205534 2.99893 0
M  V30 465 H 37.4616 0.0482163 1.56226 0
M  V30 466 H 38.1966 -2.41303 2.16664 0
M  V30 467 H 37.9816 -1.43669 3.64831 0
M  V30 468 H 39.4716 -2.39964 3.41771 0
M  V30 469 N 39.9087 -1.5758 0.0250728 0
M  V30 470 C 41.1337 -1.96337 -0.668317 0
M  V30 471 C 41.5587 -0.901314 -1.651 0
M  V30 472 O 40.9167 0.138187 -1.80773 0
M  V30 473 C 40.9647 -3.34191 -1.35457 0
M  V30 474 O 40.0687 -3.30269 -2.46974 0
M  V30 475 H 39.4097 -0.640281 -0.175887 0
M  V30 476 H 41.9397 -2.0442 0.0857224 0
M  V30 477 H 41.9497 -3.70331 -1.71228 0
M  V30 478 H 40.6247 -4.11036 -0.634218 0
M  V30 479 H 39.2017 -3.05841 -2.13344 0
M  V30 480 N 41.3868 0.248026 -1.55636 0
M  V30 481 C 42.3498 1.29044 -1.89421 0
M  V30 482 C 43.3498 1.41134 -0.770581 0
M  V30 483 O 44.5398 1.39854 -1.03858 0
M  V30 484 C 41.6718 2.66831 -2.12165 0
M  V30 485 H 42.8648 1.00305 -2.82629 0
M  V30 486 H 40.4178 0.487265 -1.48511 0
M  V30 487 H 41.1528 3.00711 -1.21422 0
M  V30 488 H 40.9378 2.59438 -2.93997 0
M  V30 489 H 42.4278 3.42103 -2.3949 0
M  V30 490 N 42.8649 1.48995 0.513639 0
M  V30 491 C 43.8129 1.65199 1.63744 0
M  V30 492 C 44.8069 0.51809 1.61283 0
M  V30 493 O 46.0129 0.697335 1.65943 0
M  V30 494 H 42.3879 0.52069 0.542574 0
M  V30 495 H 44.3589 2.59552 1.47226 0
M  V30 496 C 43.1079 1.72409 3.01945 0
M  V30 497 H 42.4309 2.59029 3.04539 0
M  V30 498 H 43.8709 1.87785 3.80148 0
M  V30 499 C 42.3299 0.46618 3.33659 0
M  V30 500 O 42.8599 -0.413744 3.99564 0
M  V30 501 N 41.0659 0.332931 2.88687 0
M  V30 502 H 40.6129 1.04996 2.35231 0
M  V30 503 H 40.5709 -0.507665 3.10274 0
M  V30 504 N 44.343 -0.763751 1.37857 0
M  V30 505 C 45.571 -1.55293 1.36718 0
M  V30 506 C 45.986 -1.88745 -0.0455434 0
M  V30 507 O 45.343 -1.52039 -1.00947 0
M  V30 508 C 45.394 -2.85831 2.2132 0
M  V30 509 O 45.115 -2.5381 3.57089 0
M  V30 510 C 46.616 -3.80023 2.28249 0
M  V30 511 H 43.836 -0.480841 0.468009 0
M  V30 512 H 46.38 -0.946009 1.81303 0
M  V30 513 H 44.535 -3.42926 1.80223 0
M  V30 514 H 44.949 -3.37459 4.01524 0
M  V30 515 H 46.423 -4.68599 2.91752 0
M  V30 516 H 46.9 -4.1973 1.2932 0
M  V30 517 H 47.506 -3.28855 2.69693 0
M  V30 518 N 45.8211 -1.22559 -0.990812 0
M  V30 519 C 46.7691 -0.994798 -2.10253 0
M  V30 520 C 47.7631 0.0627798 -1.69284 0
M  V30 521 O 48.9691 -0.0898392 -1.79776 0
M  V30 522 H 45.3441 -0.304527 -0.687581 0
M  V30 523 H 47.3151 -1.93812 -2.26891 0
M  V30 524 C 46.0641 -0.591439 -3.42633 0
M  V30 525 H 45.3871 -1.3969 -3.74602 0
M  V30 526 H 46.8271 -0.469385 -4.21394 0
M  V30 527 C 45.2861 0.699232 -3.29564 0
M  V30 528 O 45.8161 1.75112 -3.61523 0
M  V30 529 N 44.0221 0.671182 -2.82743 0
M  V30 530 H 43.5691 -0.185136 -2.56934 0
M  V30 531 H 43.5271 1.53502 -2.7438 0
M  V30 532 N 47.2992 1.18797 -1.03562 0
M  V30 533 C 48.2092 2.25913 -0.632505 0
M  V30 534 C 49.2252 1.70668 0.338882 0
M  V30 535 O 50.4012 2.00453 0.195076 0
M  V30 536 C 47.4662 3.467 0.00350942 0
M  V30 537 C 46.5272 4.17098 -1.01624 0
M  V30 538 C 45.7602 5.32119 -0.410478 0
M  V30 539 O 45.9832 5.64976 0.784725 0
M  V30 540 O 44.9172 5.9107 -1.13667 0
M  V30 541 H 48.7432 2.62648 -1.52478 0
M  V30 542 H 46.3282 1.25781 -0.806195 0
M  V30 543 H 48.2102 4.19878 0.35781 0
M  V30 544 H 46.8852 3.11798 0.869686 0
M  V30 545 H 45.7922 3.4601 -1.42224 0
M  V30 546 H 47.1252 4.55987 -1.85301 0
M  V30 547 N 48.7773 0.814389 1.34928 0
M  V30 548 C 50.0023 0.410097 2.03305 0
M  V30 549 C 50.4273 -0.973464 1.60951 0
M  V30 550 O 49.7853 -1.63185 0.789964 0
M  V30 551 C 49.8333 0.51049 3.56968 0
M  V30 552 O 48.9373 -0.473035 4.09678 0
M  V30 553 H 48.2783 0.170088 0.641846 0
M  V30 554 H 50.8083 1.10244 1.72358 0
M  V30 555 H 50.8183 0.383135 4.06197 0
M  V30 556 H 49.4933 1.51963 3.87144 0
M  V30 557 H 48.0703 -0.305272 3.71648 0
M  V30 558 N 50.2554 -1.46986 0.568584 0
M  V30 559 C 51.2024 -2.30153 -0.172707 0
M  V30 560 C 52.1724 -1.39759 -0.897586 0
M  V30 561 O 53.3574 -1.68716 -0.891044 0
M  V30 562 C 50.4974 -3.23952 -1.1895 0
M  V30 563 C 49.6104 -4.29441 -0.469517 0
M  V30 564 C 48.7454 -5.1038 -1.47259 0
M  V30 565 C 47.7844 -6.07632 -0.738225 0
M  V30 566 N 46.9214 -6.8149 -1.68868 0
M  V30 567 H 51.7614 -2.93019 0.542596 0
M  V30 568 H 49.2984 -1.44422 0.279401 0
M  V30 569 H 51.2564 -3.76767 -1.79173 0
M  V30 570 H 49.8864 -2.62926 -1.87269 0
M  V30 571 H 48.9384 -3.79594 0.247467 0
M  V30 572 H 50.2504 -4.98689 0.105241 0
M  V30 573 H 49.4044 -5.67402 -2.14803 0
M  V30 574 H 48.1434 -4.4106 -2.08128 0
M  V30 575 H 47.1484 -5.49778 -0.0489293 0
M  V30 576 H 48.3734 -6.78966 -0.135129 0
M  V30 577 H 46.3194 -6.14891 -2.28573 0
M  V30 578 H 46.2364 -7.46948 -1.16636 0
M  V30 579 H 47.5044 -7.43078 -2.3549 0
M  V30 580 N 51.7335 -0.305618 -1.54608 0
M  V30 581 C 52.9585 0.307562 -2.05107 0
M  V30 582 C 53.3835 1.46385 -1.18123 0
M  V30 583 O 52.7415 1.8034 -0.186324 0
M  V30 584 C 52.7895 0.73704 -3.52987 0
M  V30 585 O 51.8935 1.84134 -3.6901 0
M  V30 586 H 51.2345 0.0589143 -0.661381 0
M  V30 587 H 53.7645 -0.448807 -1.99617 0
M  V30 588 H 53.7745 1.02459 -3.94925 0
M  V30 589 H 52.4495 -0.108773 -4.15758 0
M  V30 590 H 51.0265 1.55398 -3.38978 0
M  V30 591 N 53.2116 1.57565 -0.0334293 0
M  V30 592 C 54.1596 2.1164 0.96496 0
M  V30 593 C 55.1536 1.04398 1.33407 0
M  V30 594 O 56.3596 1.22828 1.3158 0
M  V30 595 H 52.7346 0.676222 0.32898 0
M  V30 596 H 54.7056 2.94455 0.483614 0
M  V30 597 C 53.4546 2.66207 2.23672 0
M  V30 598 H 52.7776 3.48378 1.96145 0
M  V30 599 H 54.2176 3.07685 2.9173 0
M  V30 600 C 52.6766 1.59151 2.96939 0
M  V30 601 O 53.2066 0.993858 3.89211 0
M  V30 602 N 51.4126 1.31093 2.59351 0
M  V30 603 H 50.9596 1.7988 1.84393 0
M  V30 604 H 50.9176 0.596889 3.08682 0
M  V30 605 N 54.6897 -0.239769 1.55765 0
M  V30 606 C 55.6527 -1.28038 1.90103 0
M  V30 607 C 56.6527 -1.40723 0.778055 0
M  V30 608 O 57.8427 -1.39301 1.04599 0
M  V30 609 C 54.9747 -2.65702 2.13577 0
M  V30 610 H 56.1677 -0.988048 2.83157 0
M  V30 611 H 53.7207 -0.479382 1.48767 0
M  V30 612 H 54.4557 -3.00063 1.23015 0
M  V30 613 H 54.2407 -2.57875 2.95369 0
M  V30 614 H 55.7307 -3.40828 2.41301 0
M  V30 615 N 56.1678 -1.49265 -0.50573 0
M  V30 616 C 57.4148 -1.58513 -1.26015 0
M  V30 617 C 57.7428 -0.26972 -1.92621 0
M  V30 618 O 56.9978 0.741997 -1.81088 0
M  V30 619 C 57.2968 -2.69008 -2.35308 0
M  V30 620 C 56.9628 -4.10662 -1.86192 0
M  V30 621 C 55.6248 -4.49212 -1.72516 0
M  V30 622 C 57.9768 -4.99336 -1.49375 0
M  V30 623 C 55.3048 -5.74214 -1.20394 0
M  V30 624 C 57.6568 -6.24852 -0.987072 0
M  V30 625 C 56.3208 -6.62236 -0.836669 0
M  V30 626 H 55.5908 -0.580041 -0.461122 0
M  V30 627 H 58.2378 -1.83078 -0.561665 0
M  V30 628 H 56.5428 -2.38396 -3.10926 0
M  V30 629 H 58.2398 -2.73373 -2.93374 0
M  V30 630 H 54.8298 -3.8023 -1.97795 0
M  V30 631 H 59.0138 -4.70212 -1.5879 0
M  V30 632 H 54.2698 -6.01883 -1.07458 0
M  V30 633 H 58.4438 -6.92944 -0.692983 0
M  V30 634 H 56.0708 -7.58979 -0.430607 0
M  V30 635 N 57.6459 0.756429 -1.3826 0
M  V30 636 C 59.0569 1.33359 -1.30661 0
M  V30 637 C 59.4079 1.96161 0.0388875 0
M  V30 638 O 58.5329 1.94874 0.940918 0
M  V30 639 C 59.1279 2.42477 -2.36622 0
M  V30 640 C 57.6869 2.95922 -2.3261 0
M  V30 641 C 56.8339 1.69275 -2.19639 0
M  V30 642 H 59.7849 0.55552 -1.4866 0
M  V30 643 H 59.8059 3.22345 -2.02174 0
M  V30 644 H 59.3179 1.96739 -3.34538 0
M  V30 645 H 57.4189 3.45996 -1.38267 0
M  V30 646 H 57.5319 3.50494 -3.26636 0
M  V30 647 H 55.8959 1.92793 -1.66442 0
M  V30 648 H 56.6789 1.25619 -3.19491 0
M  V30 649 N 59.124 1.23083 0.984299 0
M  V30 650 C 60.371 1.06057 1.72505 0
M  V30 651 C 60.699 -0.403105 1.90277 0
M  V30 652 O 59.954 -1.3149 1.44944 0
M  V30 653 C 60.253 1.72673 3.1292 0
M  V30 654 C 59.919 3.22586 3.15038 0
M  V30 655 C 58.581 3.63489 3.15324 0
M  V30 656 C 60.933 4.185 3.10657 0
M  V30 657 C 58.261 4.98772 3.08939 0
M  V30 658 C 60.613 5.53769 3.05814 0
M  V30 659 C 59.277 5.94041 3.04419 0
M  V30 660 H 58.547 0.388091 0.631242 0
M  V30 661 H 61.194 1.52963 1.15215 0
M  V30 662 H 59.499 1.18116 3.73572 0
M  V30 663 H 61.196 1.56982 3.68996 0
M  V30 664 H 57.786 2.90022 3.15571 0
M  V30 665 H 61.97 3.87911 3.09579 0
M  V30 666 H 57.226 5.29193 3.0621 0
M  V30 667 H 61.4 6.27808 3.0138 0
M  V30 668 H 59.027 6.98833 2.99227 0
M  V30 669 N 60.6021 -1.18246 1.0419 0
M  V30 670 C 61.8271 -1.92736 0.765996 0
M  V30 671 C 62.2521 -1.75728 -0.67091 0
M  V30 672 O 61.6101 -1.06825 -1.46486 0
M  V30 673 C 61.6581 -3.42148 1.13875 0
M  V30 674 O 60.7621 -4.11548 0.264954 0
M  V30 675 H 60.1031 -0.601238 0.281797 0
M  V30 676 H 62.6331 -1.49942 1.39207 0
M  V30 677 H 62.6431 -3.92858 1.1012 0
M  V30 678 H 61.3181 -3.53848 2.18551 0
M  V30 679 H 59.8951 -3.71137 0.362226 0
M  V30 680 N 62.0802 -0.821533 -1.34494 0
M  V30 681 C 63.3572 -0.33159 -1.92769 0
M  V30 682 C 63.7372 1.18088 -1.74981 0
M  V30 683 O 63.0852 1.98733 -1.12772 0
M  V30 684 C 63.2952 -0.759398 -3.40638 0
M  V30 685 C 64.6432 -0.757433 -4.1779 0
M  V30 686 O 65.6672 -0.70189 -3.49216 0
M  V30 687 O 64.5262 -0.829361 -5.4017 0
M  V30 688 H 61.6202 -0.0902502 -0.822061 0
M  V30 689 H 64.1662 -0.906231 -1.43477 0
M  V30 690 H 62.9382 -1.8012 -3.47379 0
M  V30 691 H 62.5612 -0.160378 -3.97276 0
M  V30 692 N 63.5583 1.46682 -0.576371 0
M  V30 693 C 64.8043 2.02712 -0.0596221 0
M  V30 694 C 65.1373 1.44765 1.29448 0
M  V30 695 O 64.4123 0.610355 1.84675 0
M  V30 696 C 64.6953 3.60098 0.0129503 0
M  V30 697 C 64.5483 4.28441 -1.3696 0
M  V30 698 C 65.8673 4.34224 0.71678 0
M  V30 699 H 62.9863 0.736637 -0.0231407 0
M  V30 700 H 65.6283 1.74898 -0.742351 0
M  V30 701 H 63.7783 3.83926 0.594378 0
M  V30 702 H 65.4503 4.15896 -1.9957 0
M  V30 703 H 63.6933 3.8805 -1.93907 0
M  V30 704 H 64.3643 5.3716 -1.27135 0
M  V30 705 H 66.8403 4.15503 0.222908 0
M  V30 706 H 65.7163 5.43936 0.73657 0
M  V30 707 H 65.9773 4.04823 1.77682 0
M  V30 708 N 65.0364 0.313813 1.54444 0
M  V30 709 C 65.9834 -0.55655 2.23989 0
M  V30 710 C 66.9534 -1.11943 1.22711 0
M  V30 711 O 68.1384 -1.16158 1.51367 0
M  V30 712 C 65.2784 -1.71635 2.99392 0
M  V30 713 C 64.3914 -1.18364 4.15468 0
M  V30 714 C 63.5264 -2.30834 4.78424 0
M  V30 715 C 62.5654 -1.74762 5.86622 0
M  V30 716 N 61.7024 -2.80855 6.43479 0
M  V30 717 H 66.5424 0.0430893 2.97969 0
M  V30 718 H 64.0794 0.0330359 1.47063 0
M  V30 719 H 66.0374 -2.39868 3.41349 0
M  V30 720 H 64.6674 -2.28742 2.27765 0
M  V30 721 H 63.7194 -0.393163 3.78363 0
M  V30 722 H 65.0314 -0.733262 4.93381 0
M  V30 723 H 64.1854 -3.0699 5.23299 0
M  V30 724 H 62.9244 -2.79204 3.99871 0
M  V30 725 H 61.9294 -0.970995 5.41158 0
M  V30 726 H 63.1544 -1.2728 6.67066 0
M  V30 727 H 61.1004 -3.28535 5.67804 0
M  V30 728 H 61.0174 -2.40351 7.16776 0
M  V30 729 H 62.2854 -3.5687 6.93011 0
M  V30 730 N 66.5145 -1.57545 0.0417849 0
M  V30 731 C 67.4615 -2.10977 -0.935805 0
M  V30 732 C 68.4315 -1.01486 -1.31491 0
M  V30 733 O 69.6165 -1.2898 -1.40602 0
M  V30 734 C 66.7565 -2.65169 -2.2086 0
M  V30 735 C 65.8695 -3.88714 -1.88482 0
M  V30 736 C 65.0045 -4.31254 -3.1015 0
M  V30 737 C 64.0435 -5.47524 -2.7365 0
M  V30 738 N 63.1805 -5.85162 -3.87982 0
M  V30 739 H 68.0205 -2.94218 -0.473249 0
M  V30 740 H 65.5575 -1.45415 -0.221981 0
M  V30 741 H 67.5155 -2.94685 -2.95325 0
M  V30 742 H 66.1455 -1.8474 -2.64709 0
M  V30 743 H 65.1975 -3.65849 -1.04205 0
M  V30 744 H 66.5095 -4.73245 -1.57608 0
M  V30 745 H 65.6635 -4.62273 -3.92923 0
M  V30 746 H 64.4025 -3.45516 -3.44195 0
M  V30 747 H 63.4075 -5.16187 -1.89291 0
M  V30 748 H 64.6325 -6.34971 -2.40807 0
M  V30 749 H 62.5785 -5.02377 -4.21846 0
M  V30 750 H 62.4955 -6.64362 -3.60775 0
M  V30 751 H 63.7635 -6.20791 -4.71422 0
M  V30 752 N 67.9926 0.231505 -1.5589 0
M  V30 753 C 69.2206 0.974505 -1.82513 0
M  V30 754 C 69.6356 1.78344 -0.619591 0
M  V30 755 O 68.9926 1.77792 0.411848 0
M  V30 756 C 69.0436 1.90007 -3.07538 0
M  V30 757 O 68.7646 1.12385 -4.2344 0
M  V30 758 C 70.2656 2.75779 -3.47075 0
M  V30 759 H 67.4856 0.286065 -0.606966 0
M  V30 760 H 70.0296 0.249739 -2.02969 0
M  V30 761 H 68.1846 2.57891 -2.89086 0
M  V30 762 H 68.5986 1.75125 -4.944 0
M  V30 763 H 70.0726 3.36443 -4.37619 0
M  V30 764 H 70.5496 3.47672 -2.68367 0
M  V30 765 H 71.1556 2.13323 -3.67931 0
M  V30 766 N 69.4707 1.49531 0.497807 0
M  V30 767 C 70.6957 1.63159 1.28039 0
M  V30 768 C 71.1207 0.30418 1.85624 0
M  V30 769 O 70.4787 -0.728618 1.66015 0
M  V30 770 C 70.5267 2.70537 2.38416 0
M  V30 771 O 69.6307 2.29931 3.42353 0
M  V30 772 H 68.9717 0.546001 0.377861 0
M  V30 773 H 71.5017 1.9574 0.59558 0
M  V30 774 H 71.5117 2.92802 2.84132 0
M  V30 775 H 70.1867 3.6689 1.95869 0
M  V30 776 H 68.7637 2.18009 3.02533 0
M  V30 777 N 70.9488 -0.749086 1.3866 0
M  V30 778 C 72.1948 -1.50959 1.36319 0
M  V30 779 C 72.5498 -1.92347 -0.0452451 0
M  V30 780 O 71.8428 -1.6289 -1.00884 0
M  V30 781 C 72.0368 -2.7712 2.25697 0
M  V30 782 C 71.8658 -2.48067 3.7509 0
M  V30 783 C 70.6358 -2.41062 4.44091 0
M  V30 784 C 72.8338 -2.14544 4.67414 0
M  V30 785 N 70.8158 -2.04331 5.78897 0
M  V30 786 C 72.1868 -1.88141 5.90765 0
M  V30 787 C 74.2418 -2.00892 4.55573 0
M  V30 788 C 72.9448 -1.49463 7.036 0
M  V30 789 C 74.9708 -1.63616 5.68317 0
M  V30 790 C 74.3328 -1.38088 6.90732 0
M  V30 791 H 70.4318 -0.551804 0.554108 0
M  V30 792 H 73.0158 -0.871886 1.74087 0
M  V30 793 H 71.1868 -3.38693 1.9011 0
M  V30 794 H 72.9188 -3.4321 2.1445 0
M  V30 795 H 69.6738 -2.57685 3.9736 0
M  V30 796 H 70.0978 -1.88598 6.502 0
M  V30 797 H 74.7398 -2.19301 3.61479 0
M  V30 798 H 72.4578 -1.29794 7.97608 0
M  V30 799 H 76.0438 -1.53678 5.61137 0
M  V30 800 H 74.9238 -1.09674 7.76493 0
M  V30 801 N 72.4269 -1.23603 -0.977757 0
M  V30 802 C 73.6519 -1.09735 -1.75991 0
M  V30 803 C 74.0769 0.346858 -1.84874 0
M  V30 804 O 73.4349 1.25093 -1.3123 0
M  V30 805 C 73.4829 -1.73051 -3.16363 0
M  V30 806 O 72.5869 -0.994452 -4.0023 0
M  V30 807 H 71.9279 -0.384476 -0.541364 0
M  V30 808 H 74.4579 -1.6371 -1.2272 0
M  V30 809 H 74.4679 -1.78398 -3.66931 0
M  V30 810 H 73.1429 -2.78137 -3.09213 0
M  V30 811 H 71.7199 -1.01812 -3.58732 0
M  V30 812 N 73.905 1.17692 -1.04816 0
M  V30 813 C 75.152 1.87859 -0.75599 0
M  V30 814 C 75.48 1.80812 0.716752 0
M  V30 815 O 74.735 1.20819 1.53952 0
M  V30 816 C 75.034 3.37462 -1.17703 0
M  V30 817 C 74.7 3.64713 -2.65133 0
M  V30 818 C 73.362 3.71859 -3.05408 0
M  V30 819 C 75.714 3.76492 -3.60421 0
M  V30 820 C 73.042 3.88271 -4.39843 0
M  V30 821 C 75.394 3.94421 -4.94585 0
M  V30 822 C 74.058 3.99806 -5.3452 0
M  V30 823 H 73.328 0.687425 -0.276636 0
M  V30 824 H 75.975 1.39255 -1.31455 0
M  V30 825 H 74.28 3.88097 -0.537395 0
M  V30 826 H 75.977 3.90109 -0.928218 0
M  V30 827 H 72.567 3.59772 -2.32942 0
M  V30 828 H 76.751 3.70295 -3.30447 0
M  V30 829 H 72.007 3.90687 -4.70291 0
M  V30 830 H 76.181 4.02477 -5.68318 0
M  V30 831 H 73.808 4.12276 -6.38696 0
M  V30 832 N 75.3831 0.828654 1.34056 0
M  V30 833 C 76.7941 0.477534 1.8049 0
M  V30 834 C 77.1451 -1.00258 1.6865 0
M  V30 835 O 76.2701 -1.78057 1.22982 0
M  V30 836 C 76.8651 0.860018 3.27703 0
M  V30 837 C 75.4241 0.561185 3.72193 0
M  V30 838 C 74.5711 1.07385 2.55663 0
M  V30 839 H 77.5221 1.0183 1.21722 0
M  V30 840 H 77.5431 0.166038 3.80138 0
M  V30 841 H 77.0551 1.93731 3.36288 0
M  V30 842 H 75.1561 -0.506465 3.69142 0
M  V30 843 H 75.2691 1.10926 4.66082 0
M  V30 844 H 73.6331 0.495149 2.49841 0
M  V30 845 H 74.4161 2.15771 2.67016 0
M  V30 846 N 76.8612 -1.46375 0.584142 0
M  V30 847 C 78.0912 -2.06461 0.0758195 0
M  V30 848 C 78.4992 -1.43322 -1.23512 0
M  V30 849 O 77.8422 -0.533216 -1.75791 0
M  V30 850 C 77.9042 -3.59131 -0.162773 0
M  V30 851 C 77.5682 -4.4447 1.06279 0
M  V30 852 C 78.5652 -4.80918 1.97519 0
M  V30 853 C 76.2502 -4.85584 1.28504 0
M  V30 854 C 78.2442 -5.57309 3.09331 0
M  V30 855 C 75.9312 -5.61734 2.4062 0
M  V30 856 C 76.9292 -5.9751 3.30863 0
M  V30 857 O 76.6172 -6.72121 4.41032 0
M  V30 858 H 76.3492 -0.673745 0.0551725 0
M  V30 859 H 78.9032 -1.88969 0.804984 0
M  V30 860 H 77.1332 -3.74936 -0.946565 0
M  V30 861 H 78.8222 -4.0114 -0.619782 0
M  V30 862 H 79.5882 -4.49732 1.81565 0
M  V30 863 H 75.4672 -4.57187 0.591702 0
M  V30 864 H 79.0112 -5.85152 3.79793 0
M  V30 865 H 74.9082 -5.92334 2.56537 0
M  V30 866 H 75.6762 -6.90547 4.39417 0
M  V30 867 N 78.3393 -0.321999 -1.54275 0
M  V30 868 C 79.5883 0.281931 -1.9972 0
M  V30 869 C 79.9013 1.53369 -1.21397 0
M  V30 870 O 81.1073 2.21352 -1.57211 0
M  V30 871 C 79.5633 0.5529 -3.55628 0
M  V30 872 C 79.1713 -0.681721 -4.42783 0
M  V30 873 C 80.9153 1.11687 -4.09544 0
M  V30 874 C 78.8223 -0.382742 -5.9016 0
M  V30 875 H 77.7523 0.109124 -0.746062 0
M  V30 876 H 80.4033 -0.43398 -1.78294 0
M  V30 877 H 78.7853 1.32896 -3.73035 0
M  V30 878 H 79.9593 -1.45723 -4.37151 0
M  V30 879 H 78.2743 -1.1658 -3.99748 0
M  V30 880 H 80.8713 1.35515 -5.17242 0
M  V30 881 H 81.2143 2.06575 -3.61431 0
M  V30 882 H 81.7473 0.402032 -3.95763 0
M  V30 883 H 78.4863 -1.30076 -6.42464 0
M  V30 884 H 78.0063 0.355094 -5.98748 0
M  V30 885 H 79.6853 0.00800157 -6.47 0
M  V30 886 N 79.8174 1.5752 -0.0501392 0
M  V30 887 C 80.7644 2.1147 0.924603 0
M  V30 888 C 81.7344 1.02182 1.30951 0
M  V30 889 O 82.9194 1.29723 1.39916 0
M  V30 890 C 80.0594 2.66337 2.19451 0
M  V30 891 C 79.1724 3.89708 1.86418 0
M  V30 892 C 78.3074 4.32893 3.07859 0
M  V30 893 C 77.3464 5.48967 2.70742 0
M  V30 894 N 76.4834 5.87211 3.84874 0
M  V30 895 H 81.3234 2.94465 0.457639 0
M  V30 896 H 78.8604 1.45531 0.214266 0
M  V30 897 H 80.8184 2.96247 2.93758 0
M  V30 898 H 79.4484 1.86141 2.63726 0
M  V30 899 H 78.5004 3.66396 1.02264 0
M  V30 900 H 79.8124 4.74074 1.55096 0
M  V30 901 H 78.9664 4.6435 3.90466 0
M  V30 902 H 77.7054 3.47336 3.42358 0
M  V30 903 H 76.7104 5.17183 1.86551 0
M  V30 904 H 77.9354 6.3624 2.37436 0
M  V30 905 H 75.8814 5.04607 4.19175 0
M  V30 906 H 75.7984 6.66266 3.57247 0
M  V30 907 H 77.0664 6.23282 4.68123 0
M  V30 908 N 81.2955 -0.223234 1.56011 0
M  V30 909 C 82.5725 -0.972108 1.69733 0
M  V30 910 C 82.9525 -2.02485 0.59691 0
M  V30 911 O 82.3005 -2.25037 -0.396324 0
M  V30 912 C 82.5105 -1.58407 3.10979 0
M  V30 913 C 83.8585 -2.07696 3.70334 0
M  V30 914 O 84.8825 -1.68304 3.1393 0
M  V30 915 O 83.7415 -2.80096 4.69264 0
M  V30 916 H 80.8355 -0.453993 0.691245 0
M  V30 917 H 83.3815 -0.215149 1.68331 0
M  V30 918 H 82.1535 -0.823831 3.82529 0
M  V30 919 H 81.7765 -2.40661 3.16493 0
M  V30 920 N 82.7736 -1.49793 -0.48987 0
M  V30 921 C 83.7036 -1.70201 -1.59856 0
M  V30 922 C 84.6846 -0.55076 -1.60937 0
M  V30 923 O 85.8696 -0.787841 -1.77501 0
M  V30 924 C 82.9996 -1.77882 -2.98287 0
M  V30 925 C 81.9536 -2.92907 -3.12073 0
M  V30 926 C 81.2796 -2.85712 -4.51965 0
M  V30 927 C 82.5796 -4.3369 -2.91051 0
M  V30 928 H 84.2736 -2.63025 -1.43032 0
M  V30 929 H 81.8196 -1.26574 -0.686664 0
M  V30 930 H 83.7726 -1.90744 -3.75759 0
M  V30 931 H 82.4966 -0.816653 -3.16225 0
M  V30 932 H 81.1556 -2.79665 -2.37029 0
M  V30 933 H 80.8036 -1.8738 -4.66795 0
M  V30 934 H 80.5036 -3.62921 -4.62128 0
M  V30 935 H 82.0276 -3.00598 -5.31482 0
M  V30 936 H 83.4416 -4.47555 -3.58284 0
M  V30 937 H 81.8386 -5.12205 -3.12675 0
M  V30 938 H 82.9086 -4.47362 -1.87071 0
M  V30 939 N 84.2517 0.741722 -1.39055 0
M  V30 940 C 85.4817 1.52876 -1.3897 0
M  V30 941 C 85.8897 1.8919 0.0193266 0
M  V30 942 O 85.2327 1.54138 0.999356 0
M  V30 943 C 85.2947 2.84929 -2.19216 0
M  V30 944 C 84.9587 2.71086 -3.67915 0
M  V30 945 C 85.9557 2.40084 -4.61146 0
M  V30 946 C 83.6407 2.88168 -4.11418 0
M  V30 947 C 85.6347 2.26335 -5.95862 0
M  V30 948 C 83.3217 2.74037 -5.46211 0
M  V30 949 C 84.3197 2.43166 -6.38247 0
M  V30 950 O 84.0077 2.29115 -7.70559 0
M  V30 951 H 83.7397 0.479252 -0.476753 0
M  V30 952 H 86.2937 0.924751 -1.83405 0
M  V30 953 H 84.5237 3.47564 -1.69518 0
M  V30 954 H 86.2127 3.46509 -2.11392 0
M  V30 955 H 86.9787 2.26545 -4.28838 0
M  V30 956 H 82.8577 3.11191 -3.40119 0
M  V30 957 H 86.4017 2.0216 -6.67665 0
M  V30 958 H 82.2987 2.87153 -5.78112 0
M  V30 959 H 83.0667 2.44237 -7.81211 0
M  V30 960 N 85.7298 1.2412 0.971189 0
M  V30 961 C 86.6398 1.04747 2.09917 0
M  V30 962 C 87.6558 -0.0107162 1.73997 0
M  V30 963 O 88.8318 0.186714 2.00533 0
M  V30 964 C 85.8968 0.650828 3.40537 0
M  V30 965 C 84.9578 1.7851 3.90426 0
M  V30 966 C 84.1908 1.40729 5.14812 0
M  V30 967 O 84.4138 0.29557 5.69634 0
M  V30 968 O 83.3478 2.23168 5.58999 0
M  V30 969 H 87.1738 1.99304 2.29154 0
M  V30 970 H 84.7588 1.02908 1.08307 0
M  V30 971 H 86.6408 0.440992 4.19086 0
M  V30 972 H 85.3158 -0.265649 3.22608 0
M  V30 973 H 84.2228 2.04966 3.12953 0
M  V30 974 H 85.5558 2.68023 4.12825 0
M  V30 975 N 87.2079 -1.17134 1.05439 0
M  V30 976 C 88.1399 -2.2078 0.615539 0
M  V30 977 C 89.1529 -1.59584 -0.322001 0
M  V30 978 O 90.3419 -1.78133 -0.114344 0
M  V30 979 C 87.4419 -3.38691 -0.118938 0
M  V30 980 C 86.6149 -4.29454 0.829924 0
M  V30 981 C 85.6739 -5.26024 0.136258 0
M  V30 982 O 84.6999 -5.63952 0.77115 0
M  V30 983 N 85.9019 -5.69487 -1.1254 0
M  V30 984 H 88.6669 -2.59052 1.50705 0
M  V30 985 H 86.2279 -1.32058 0.936603 0
M  V30 986 H 88.2199 -4.00329 -0.593179 0
M  V30 987 H 86.7899 -2.98996 -0.91215 0
M  V30 988 H 86.0099 -3.65211 1.48373 0
M  V30 989 H 87.2979 -4.86984 1.47392 0
M  V30 990 H 86.6959 -5.4075 -1.6615 0
M  V30 991 H 85.2529 -6.33257 -1.54366 0
M  V30 992 N 88.686 -0.835752 -1.33615 0
M  V30 993 C 89.596 -0.269088 -2.33052 0
M  V30 994 C 90.612 0.603251 -1.63208 0
M  V30 995 O 91.788 0.508112 -1.94885 0
M  V30 996 C 88.853 0.549091 -3.42324 0
M  V30 997 C 87.914 -0.347156 -4.27894 0
M  V30 998 C 87.147 0.43207 -5.31948 0
M  V30 999 O 87.37 1.66409 -5.45586 0
M  V30 1000 O 86.304 -0.192298 -6.01593 0
M  V30 1001 H 90.13 -1.09243 -2.83372 0
M  V30 1002 H 87.715 -0.598198 -1.36901 0
M  V30 1003 H 89.597 1.01414 -4.09015 0
M  V30 1004 H 88.272 1.34955 -2.94226 0
M  V30 1005 H 87.179 -0.859979 -3.64081 0
M  V30 1006 H 88.512 -1.1123 -4.79467 0
M  V30 1007 N 90.1641 1.46063 -0.591896 0
M  V30 1008 C 91.4101 2.02638 -0.0811191 0
M  V30 1009 C 91.7431 1.4613 1.27905 0
M  V30 1010 O 91.0181 0.629908 1.84017 0
M  V30 1011 C 91.3011 3.60091 -0.0252436 0
M  V30 1012 C 91.1541 4.26965 -1.41496 0
M  V30 1013 C 92.4731 4.3496 0.670685 0
M  V30 1014 H 89.5921 0.73635 -0.0309524 0
M  V30 1015 H 92.2341 1.741 -0.760859 0
M  V30 1016 H 90.3841 3.84535 0.553624 0
M  V30 1017 H 92.0561 4.13756 -2.0397 0
M  V30 1018 H 90.2991 3.85971 -1.98011 0
M  V30 1019 H 90.9701 5.35781 -1.32825 0
M  V30 1020 H 93.4461 4.15716 0.178825 0
M  V30 1021 H 92.3221 5.44686 0.678837 0
M  V30 1022 H 92.5831 4.06685 1.73379 0
M  V30 1023 N 91.6422 0.330177 1.54103 0
M  V30 1024 C 92.8912 -0.271336 1.99867 0
M  V30 1025 C 93.2042 -1.52723 1.22209 0
M  V30 1026 O 94.4102 -2.20515 1.58383 0
M  V30 1027 C 92.8662 -0.534032 3.55916 0
M  V30 1028 C 92.4742 0.705193 4.42415 0
M  V30 1029 C 94.2182 -1.09514 4.1013 0
M  V30 1030 C 92.1252 0.414035 5.89949 0
M  V30 1031 H 91.0552 -0.105166 0.74663 0
M  V30 1032 H 93.7062 0.443429 1.78062 0
M  V30 1033 H 92.0882 -1.30915 3.73734 0
M  V30 1034 H 93.2622 1.4804 4.36372 0
M  V30 1035 H 91.5772 1.18698 3.99124 0
M  V30 1036 H 94.1742 -1.3277 5.17954 0
M  V30 1037 H 94.5172 -2.04656 3.62521 0
M  V30 1038 H 95.0502 -0.381038 3.95971 0
M  V30 1039 H 91.7892 1.33481 6.41766 0
M  V30 1040 H 91.3092 -0.323336 5.98928 0
M  V30 1041 H 92.9882 0.0263105 6.46995 0
M  V30 1042 N 93.1203 -1.57491 0.0584922 0
M  V30 1043 C 94.3483 -1.97296 -0.623037 0
M  V30 1044 C 94.7633 -0.936338 -1.63946 0
M  V30 1045 O 94.1203 0.0785981 -1.82331 0
M  V30 1046 C 94.1713 -3.37183 -1.30345 0
M  V30 1047 O 93.8923 -4.36872 -0.32773 0
M  V30 1048 C 95.3933 -3.91788 -2.07406 0
M  V30 1049 H 92.6133 -0.649153 -0.169826 0
M  V30 1050 H 95.1573 -2.04106 0.12696 0
M  V30 1051 H 93.3123 -3.31502 -2.00463 0
M  V30 1052 H 93.7263 -5.18141 -0.814269 0
M  V30 1053 H 95.2003 -4.91926 -2.50425 0
M  V30 1054 H 95.6773 -3.27609 -2.92521 0
M  V30 1055 H 96.2833 -4.00829 -1.42184 0
M  V30 1056 N 94.5984 0.214957 -1.56127 0
M  V30 1057 C 95.8464 0.936518 -1.79091 0
M  V30 1058 C 96.1674 1.84606 -0.628148 0
M  V30 1059 O 95.4374 1.92664 0.35462 0
M  V30 1060 H 94.0174 0.3488 -0.660566 0
M  V30 1061 H 96.6794 0.22523 -1.93594 0
M  V30 1062 H 95.7754 1.53943 -2.71492 0
M  V30 1063 N 96.0765 1.50051 0.48192 0
M  V30 1064 C 97.3045 1.64237 1.25832 0
M  V30 1065 C 97.7195 0.321336 1.86045 0
M  V30 1066 O 97.0765 -0.695478 1.68729 0
M  V30 1067 C 97.1275 2.72548 2.37487 0
M  V30 1068 O 96.8485 3.99529 1.79745 0
M  V30 1069 C 98.3495 2.9761 3.28547 0
M  V30 1070 H 95.5695 0.55237 0.380957 0
M  V30 1071 H 98.1135 1.96207 0.576467 0
M  V30 1072 H 96.2685 2.43303 3.01467 0
M  V30 1073 H 96.6825 4.59342 2.5319 0
M  V30 1074 H 98.1565 3.77084 4.03127 0
M  V30 1075 H 98.6335 2.0826 3.86684 0
M  V30 1076 H 99.2395 3.28345 2.70314 0
M  V30 1077 N 97.5546 -0.734337 1.39446 0
M  V30 1078 C 98.7796 -1.52866 1.40167 0
M  V30 1079 C 99.2046 -1.881 -0.00171513 0
M  V30 1080 O 98.5626 -1.51957 -0.988879 0
M  V30 1081 C 98.6106 -2.79235 2.28167 0
M  V30 1082 O 97.7146 -3.75185 1.71201 0
M  V30 1083 H 97.0556 -0.461618 0.477289 0
M  V30 1084 H 99.5856 -0.905949 1.8345 0
M  V30 1085 H 99.5956 -3.27963 2.42702 0
M  V30 1086 H 98.2706 -2.52923 3.30156 0
M  V30 1087 H 96.8476 -3.33958 1.65912 0
M  V30 1088 N 99.0327 -1.24633 -0.964593 0
M  V30 1089 C 99.9957 -1.0424 -2.04124 0
M  V30 1090 C 100.996 0.00137563 -1.608 0
M  V30 1091 O 102.186 -0.239883 -1.7254 0
M  V30 1092 C 99.3177 -0.580588 -3.3592 0
M  V30 1093 H 100.511 -1.99803 -2.23649 0
M  V30 1094 H 98.0637 -1.06899 -1.14027 0
M  V30 1095 H 98.7987 0.3781 -3.22088 0
M  V30 1096 H 98.5837 -1.33398 -3.6871 0
M  V30 1097 H 100.074 -0.459034 -4.15069 0
M  V30 1098 N 100.511 1.16574 -1.06058 0
M  V30 1099 C 101.739 1.90952 -0.796552 0
M  V30 1100 C 102.154 1.77302 0.648808 0
M  V30 1101 O 101.511 1.11605 1.44397 0
M  V30 1102 C 101.562 3.41736 -1.17894 0
M  V30 1103 O 101.283 3.54975 -2.56758 0
M  V30 1104 C 102.784 4.33169 -0.942308 0
M  V30 1105 H 100.004 0.605594 -0.288959 0
M  V30 1106 H 102.548 1.47777 -1.41358 0
M  V30 1107 H 100.703 3.82623 -0.606491 0
M  V30 1108 H 101.117 4.4846 -2.72 0
M  V30 1109 H 102.591 5.37439 -1.25952 0
M  V30 1110 H 103.068 4.3903 0.122078 0
M  V30 1111 H 103.674 3.98007 -1.49902 0
M  V30 1112 N 101.989 0.842826 1.3317 0
M  V30 1113 C 103.217 0.454055 2.01856 0
M  V30 1114 C 103.632 -0.94587 1.63397 0
M  V30 1115 O 102.989 -1.61534 0.849302 0
M  V30 1116 C 103.04 0.569715 3.56982 0
M  V30 1117 O 102.761 1.91448 3.94055 0
M  V30 1118 C 104.262 0.178412 4.42941 0
M  V30 1119 H 101.482 0.17979 0.646465 0
M  V30 1120 H 104.026 1.1365 1.70012 0
M  V30 1121 H 102.181 -0.0648587 3.87346 0
M  V30 1122 H 102.595 1.90282 4.88767 0
M  V30 1123 H 104.069 0.310376 5.51127 0
M  V30 1124 H 104.546 -0.880056 4.30293 0
M  V30 1125 H 105.152 0.787579 4.17944 0
M  V30 1126 N 103.467 -1.45747 0.599634 0
M  V30 1127 C 104.714 -2.02292 0.0917284 0
M  V30 1128 C 105.042 -1.46906 -1.27472 0
M  V30 1129 O 104.297 -0.630652 -1.8526 0
M  V30 1130 C 104.596 -3.57399 -0.00602758 0
M  V30 1131 C 104.262 -4.31902 1.29503 0
M  V30 1132 C 102.924 -4.51974 1.65144 0
M  V30 1133 C 105.276 -4.74551 2.15525 0
M  V30 1134 C 102.604 -5.11949 2.86574 0
M  V30 1135 C 104.956 -5.35868 3.36196 0
M  V30 1136 C 103.62 -5.54165 3.72099 0
M  V30 1137 H 102.89 -0.740239 0.0335658 0
M  V30 1138 H 105.537 -1.7491 0.779661 0
M  V30 1139 H 103.842 -3.84014 -0.777183 0
M  V30 1140 H 105.539 -3.98846 -0.415038 0
M  V30 1141 H 102.129 -4.16588 1.00761 0
M  V30 1142 H 106.313 -4.58784 1.8929 0
M  V30 1143 H 101.569 -5.24305 3.14507 0
M  V30 1144 H 105.743 -5.6787 4.03109 0
M  V30 1145 H 103.37 -6.00406 4.6628 0
M  V30 1146 N 104.945 -0.338344 -1.53925 0
M  V30 1147 C 106.17 0.263987 -2.05713 0
M  V30 1148 C 106.595 1.43847 -1.21201 0
M  V30 1149 O 105.953 1.79904 -0.224535 0
M  V30 1150 C 106.001 0.662 -3.54471 0
M  V30 1151 O 105.105 1.76265 -3.72833 0
M  V30 1152 H 104.446 0.0448722 -0.662482 0
M  V30 1153 H 106.976 -0.491048 -1.9862 0
M  V30 1154 H 106.986 0.940594 -3.9701 0
M  V30 1155 H 105.661 -0.196937 -4.15433 0
M  V30 1156 H 104.238 1.48173 -3.42198 0
M  V30 1157 N 106.423 1.57458 -0.0668435 0
M  V30 1158 C 107.834 1.80776 0.466558 0
M  V30 1159 C 108.185 0.980361 1.69951 0
M  V30 1160 O 107.31 0.201441 2.1546 0
M  V30 1161 C 107.905 3.27881 0.85321 0
M  V30 1162 C 106.464 3.52062 1.3315 0
M  V30 1163 C 105.611 2.75513 0.314264 0
M  V30 1164 H 108.562 1.5598 -0.292588 0
M  V30 1165 H 108.583 3.39659 1.715 0
M  V30 1166 H 108.095 3.88075 -0.0443439 0
M  V30 1167 H 106.196 2.97167 2.24772 0
M  V30 1168 H 106.309 4.60762 1.31285 0
M  V30 1169 H 104.673 2.42123 0.790492 0
M  V30 1170 H 105.456 3.38442 -0.575477 0
M  V30 1171 N 107.901 -0.206675 1.56239 0
M  V30 1172 C 109.129 -0.945345 1.8404 0
M  V30 1173 C 109.544 -1.77336 0.647885 0
M  V30 1174 O 108.901 -1.78425 -0.383511 0
M  V30 1175 C 108.952 -1.8509 3.10522 0
M  V30 1176 O 108.673 -1.05634 4.25174 0
M  V30 1177 C 110.174 -2.70222 3.51418 0
M  V30 1178 H 107.394 -0.276372 0.61144 0
M  V30 1179 H 109.938 -0.217417 2.03341 0
M  V30 1180 H 108.093 -2.53259 2.93153 0
M  V30 1181 H 108.507 -1.67238 4.97124 0
M  V30 1182 H 109.981 -3.29438 4.42916 0
M  V30 1183 H 110.458 -3.43358 2.73864 0
M  V30 1184 H 111.064 -2.07443 3.71278 0
M  V30 1185 N 109.379 -1.50304 -0.473955 0
M  V30 1186 C 110.656 -1.51667 -1.23518 0
M  V30 1187 C 111.036 -0.259701 -2.09496 0
M  V30 1188 O 110.384 0.756986 -2.15597 0
M  V30 1189 C 110.594 -2.81082 -2.06868 0
M  V30 1190 C 111.942 -3.31631 -2.65153 0
M  V30 1191 O 112.966 -2.82384 -2.17113 0
M  V30 1192 O 111.825 -4.17471 -3.52675 0
M  V30 1193 H 108.919 -0.60822 -0.560355 0
M  V30 1194 H 111.465 -1.62592 -0.486011 0
M  V30 1195 H 110.237 -3.64041 -1.4349 0
M  V30 1196 H 109.86 -2.73146 -2.88924 0
M  V30 1197 N 110.857 0.726932 -1.39834 0
M  V30 1198 C 112.082 1.52121 -1.40976 0
M  V30 1199 C 112.507 1.88098 -0.00826029 0
M  V30 1200 O 111.865 1.52479 0.980807 0
M  V30 1201 C 111.913 2.78021 -2.29644 0
M  V30 1202 O 111.017 3.74272 -1.73188 0
M  V30 1203 H 110.358 0.45908 -0.479731 0
M  V30 1204 H 112.888 0.896207 -1.83927 0
M  V30 1205 H 112.898 3.26671 -2.44438 0
M  V30 1206 H 111.573 2.51169 -3.31492 0
M  V30 1207 H 110.15 3.33073 -1.6768 0
M  V30 1208 N 112.336 1.25143 0.95797 0
M  V30 1209 C 113.582 1.09855 1.70469 0
M  V30 1210 C 113.915 -0.360187 1.90831 0
M  V30 1211 O 113.19 -1.26568 1.47685 0
M  V30 1212 C 113.473 1.8497 3.08963 0
M  V30 1213 C 113.326 3.38652 2.96032 0
M  V30 1214 C 114.645 1.63016 4.08795 0
M  V30 1215 H 111.764 0.400465 0.618706 0
M  V30 1216 H 114.406 1.53933 1.11376 0
M  V30 1217 H 112.556 1.47505 3.59409 0
M  V30 1218 H 114.228 3.85772 2.52938 0
M  V30 1219 H 112.471 3.66534 2.32025 0
M  V30 1220 H 113.142 3.8642 3.94187 0
M  V30 1221 H 115.618 1.95625 3.67247 0
M  V30 1222 H 114.494 2.18015 5.03747 0
M  V30 1223 H 114.755 0.570692 4.38401 0
M  V30 1224 N 113.814 -1.1601 1.06675 0
M  V30 1225 C 115.042 -1.90527 0.806667 0
M  V30 1226 C 115.457 -1.77643 -0.639396 0
M  V30 1227 O 114.814 -1.12369 -1.43803 0
M  V30 1228 C 114.865 -3.41106 1.19705 0
M  V30 1229 O 114.586 -3.53608 2.58636 0
M  V30 1230 C 116.087 -4.32663 0.965266 0
M  V30 1231 H 113.307 -0.604053 0.292166 0
M  V30 1232 H 115.851 -1.47026 1.4214 0
M  V30 1233 H 114.006 -3.82296 0.626774 0
M  V30 1234 H 114.42 -4.47011 2.74375 0
M  V30 1235 H 115.894 -5.36763 1.288 0
M  V30 1236 H 116.371 -4.39089 -0.0987936 0
M  V30 1237 H 116.977 -3.97206 1.52011 0
M  V30 1238 N 115.292 -0.849877 -1.32721 0
M  V30 1239 C 116.708 -0.539102 -1.50219 0
M  V30 1240 C 116.908 0.931271 -1.78689 0
M  V30 1241 O 115.964 1.71455 -1.85363 0
M  V30 1242 C 117.277 -1.42196 -2.64954 0
M  V30 1243 C 118.825 -1.42189 -2.78839 0
M  V30 1244 C 119.3 -2.28985 -3.96648 0
M  V30 1245 N 120.791 -2.26754 -4.03902 0
M  V30 1246 C 121.526 -2.90644 -4.94281 0
M  V30 1247 N 121.022 -3.63629 -5.897 0
M  V30 1248 N 122.815 -2.80057 -4.87365 0
M  V30 1249 H 114.966 -1.80156 -1.12506 0
M  V30 1250 H 117.229 -0.769217 -0.554085 0
M  V30 1251 H 116.935 -2.46733 -2.50631 0
M  V30 1252 H 116.809 -1.10591 -3.60624 0
M  V30 1253 H 119.196 -0.38419 -2.92588 0
M  V30 1254 H 119.277 -1.77807 -1.83898 0
M  V30 1255 H 118.921 -3.32819 -3.83658 0
M  V30 1256 H 118.851 -1.90702 -4.90857 0
M  V30 1257 H 121.342 -1.73688 -3.3562 0
M  V30 1258 H 121.655 -4.09558 -6.55349 0
M  V30 1259 H 120 -3.67737 -5.89741 0
M  V30 1260 H 123.191 -2.22593 -4.11789 0
M  V30 1261 H 123.364 -3.30132 -5.57599 0
M  V30 1262 N 116.77 1.45427 -0.607355 0
M  V30 1263 C 117.733 2.28974 0.101693 0
M  V30 1264 C 118.733 1.39754 0.795329 0
M  V30 1265 O 119.923 1.61878 0.643527 0
M  V30 1266 C 117.055 3.20768 1.15414 0
M  V30 1267 H 118.248 2.93147 -0.632844 0
M  V30 1268 H 115.801 1.51945 -0.366391 0
M  V30 1269 H 116.536 2.61395 1.91945 0
M  V30 1270 H 116.321 3.86489 0.66098 0
M  V30 1271 H 117.811 3.83589 1.65073 0
M  V30 1272 N 118.248 0.346503 1.53744 0
M  V30 1273 C 119.18 -0.543316 2.22667 0
M  V30 1274 C 120.193 -1.06159 1.23427 0
M  V30 1275 O 121.382 -0.971235 1.49764 0
M  V30 1276 C 118.482 -1.76076 2.89569 0
M  V30 1277 C 117.655 -1.37727 4.15151 0
M  V30 1278 C 116.714 -2.45471 4.65436 0
M  V30 1279 O 115.74 -2.08655 5.29577 0
M  V30 1280 N 116.942 -3.7677 4.41616 0
M  V30 1281 H 119.707 0.0469703 2.99663 0
M  V30 1282 H 117.268 0.170766 1.60997 0
M  V30 1283 H 119.26 -2.47593 3.20125 0
M  V30 1284 H 117.83 -2.25835 2.16142 0
M  V30 1285 H 117.05 -0.492746 3.91108 0
M  V30 1286 H 118.338 -1.09708 4.96832 0
M  V30 1287 H 117.736 -4.09467 3.90325 0
M  V30 1288 H 116.293 -4.44448 4.7677 0
M  V30 1289 N 119.726 -1.57421 0.075193 0
M  V30 1290 C 120.973 -1.93618 -0.593146 0
M  V30 1291 C 121.301 -0.955484 -1.69413 0
M  V30 1292 O 120.556 0.0283251 -1.9568 0
M  V30 1293 C 120.855 -3.36428 -1.20626 0
M  V30 1294 C 120.521 -4.50307 -0.231078 0
M  V30 1295 C 119.183 -4.81186 0.0371936 0
M  V30 1296 C 121.535 -5.19374 0.435888 0
M  V30 1297 C 118.863 -5.78466 0.979461 0
M  V30 1298 C 121.215 -6.17665 1.3665 0
M  V30 1299 C 119.879 -6.46958 1.6432 0
M  V30 1300 H 119.149 -0.708499 -0.217047 0
M  V30 1301 H 121.796 -1.90937 0.146793 0
M  V30 1302 H 120.101 -3.35592 -2.02201 0
M  V30 1303 H 121.798 -3.61727 -1.73073 0
M  V30 1304 H 118.388 -4.26227 -0.450357 0
M  V30 1305 H 122.572 -4.95711 0.241748 0
M  V30 1306 H 117.828 -5.99487 1.20106 0
M  V30 1307 H 122.002 -6.70284 1.88924 0
M  V30 1308 H 119.629 -7.2215 2.37494 0
M  V30 1309 N 121.204 0.198386 -1.56346 0
M  V30 1310 C 122.432 0.935572 -1.84539 0
M  V30 1311 C 122.847 1.76989 -0.657281 0
M  V30 1312 O 122.204 1.78626 0.374043 0
M  V30 1313 C 122.255 1.8344 -3.11499 0
M  V30 1314 O 121.976 1.03377 -4.25728 0
M  V30 1315 C 123.477 2.68355 -3.52846 0
M  V30 1316 H 120.697 0.273126 -0.612897 0
M  V30 1317 H 123.241 0.20663 -2.03453 0
M  V30 1318 H 121.396 2.51701 -2.94492 0
M  V30 1319 H 121.81 1.64599 -4.98003 0
M  V30 1320 H 123.284 3.27085 -4.44657 0
M  V30 1321 H 123.761 3.41901 -2.75681 0
M  V30 1322 H 124.367 2.05471 -3.72373 0
M  V30 1323 N 122.682 1.50554 0.465978 0
M  V30 1324 C 123.928 1.62038 1.21949 0
M  V30 1325 C 124.261 0.322116 1.9151 0
M  V30 1326 O 123.536 -0.676723 1.82348 0
M  V30 1327 C 123.819 2.80421 2.25912 0
M  V30 1328 C 123.672 4.20144 1.60622 0
M  V30 1329 C 124.991 2.94354 3.27176 0
M  V30 1330 H 122.11 0.589752 0.441998 0
M  V30 1331 H 124.752 1.82956 0.51257 0
M  V30 1332 H 122.902 2.62717 2.86203 0
M  V30 1333 H 124.574 4.49449 1.03889 0
M  V30 1334 H 122.817 4.24165 0.909211 0
M  V30 1335 H 123.488 4.98914 2.36196 0
M  V30 1336 H 125.964 3.10578 2.76913 0
M  V30 1337 H 124.84 3.788 3.97242 0
M  V30 1338 H 125.101 2.05186 3.916 0
M  V30 1339 N 124.16 -0.719506 1.40217 0
M  V30 1340 C 125.093 -1.84298 1.34571 0
M  V30 1341 C 126.071 -1.61149 0.216741 0
M  V30 1342 O 127.255 -1.84212 0.399756 0
M  V30 1343 C 124.382 -3.20568 1.09335 0
M  V30 1344 C 123.428 -3.62551 2.24631 0
M  V30 1345 S 124.261 -3.7012 3.87004 0
M  V30 1346 C 125.417 -5.09154 3.64024 0
M  V30 1347 H 125.65 -1.88807 2.2965 0
M  V30 1348 H 123.183 -0.885901 1.26456 0
M  V30 1349 H 125.141 -3.99246 0.954602 0
M  V30 1350 H 123.802 -3.13696 0.159164 0
M  V30 1351 H 122.995 -4.61483 2.02606 0
M  V30 1352 H 122.597 -2.91119 2.34789 0
M  V30 1353 H 124.889 -5.95955 3.22248 0
M  V30 1354 H 125.832 -5.36213 4.62473 0
M  V30 1355 H 126.24 -4.79562 2.97793 0
M  V30 1356 N 125.638 -1.25649 -0.95132 0
M  V30 1357 C 126.568 -1.08808 -2.06599 0
M  V30 1358 C 127.549 0.00382547 -1.701 0
M  V30 1359 O 128.734 -0.166325 -1.93486 0
M  V30 1360 C 125.864 -0.709542 -3.39975 0
M  V30 1361 C 124.818 -1.75206 -3.90496 0
M  V30 1362 C 124.144 -1.22811 -5.20405 0
M  V30 1363 C 125.444 -3.15153 -4.16504 0
M  V30 1364 H 127.138 -2.02048 -2.20946 0
M  V30 1365 H 124.684 -0.972835 -1.06169 0
M  V30 1366 H 126.637 -0.578649 -4.17408 0
M  V30 1367 H 125.361 0.258556 -3.25575 0
M  V30 1368 H 124.02 -1.87145 -3.15234 0
M  V30 1369 H 123.668 -0.250145 -5.02378 0
M  V30 1370 H 123.368 -1.92492 -5.55176 0
M  V30 1371 H 124.892 -1.10968 -6.00432 0
M  V30 1372 H 126.306 -3.06349 -4.84586 0
M  V30 1373 H 124.703 -3.82333 -4.62538 0
M  V30 1374 H 125.773 -3.61966 -3.22658 0
M  V30 1375 N 127.117 1.15442 -1.07289 0
M  V30 1376 C 128.345 1.90096 -0.81676 0
M  V30 1377 C 128.76 1.7798 0.629966 0
M  V30 1378 O 128.117 1.1313 1.43206 0
M  V30 1379 C 128.168 3.40466 -1.21512 0
M  V30 1380 O 127.889 3.52232 -2.60508 0
M  V30 1381 C 129.39 4.32145 -0.988198 0
M  V30 1382 H 126.61 0.602495 -0.295366 0
M  V30 1383 H 129.154 1.4627 -1.42918 0
M  V30 1384 H 127.309 3.81958 -0.647039 0
M  V30 1385 H 127.723 4.45549 -2.76742 0
M  V30 1386 H 129.197 5.36072 -1.31645 0
M  V30 1387 H 129.674 4.39135 0.0755063 0
M  V30 1388 H 130.28 3.96395 -1.54115 0
M  V30 1389 N 128.595 0.856903 1.32268 0
M  V30 1390 C 130.011 0.547061 1.49931 0
M  V30 1391 C 130.211 -0.921781 1.7918 0
M  V30 1392 O 129.267 -1.70469 1.8627 0
M  V30 1393 C 130.58 1.43599 2.64196 0
M  V30 1394 C 132.128 1.43665 2.78081 0
M  V30 1395 C 132.603 2.31085 3.95428 0
M  V30 1396 N 134.094 2.28893 4.02694 0
M  V30 1397 C 134.829 2.93262 4.92732 0
M  V30 1398 N 134.325 3.66751 5.87763 0
M  V30 1399 N 136.118 2.82638 4.85873 0
M  V30 1400 H 128.269 1.8075 1.11549 0
M  V30 1401 H 130.532 0.772144 0.549997 0
M  V30 1402 H 130.238 2.48058 2.49319 0
M  V30 1403 H 130.112 1.12502 3.60032 0
M  V30 1404 H 132.499 0.399701 2.92381 0
M  V30 1405 H 132.58 1.7878 1.82952 0
M  V30 1406 H 132.224 3.34849 3.81888 0
M  V30 1407 H 132.154 1.93302 4.89839 0
M  V30 1408 H 134.645 1.75466 3.34694 0
M  V30 1409 H 134.958 4.13027 6.53168 0
M  V30 1410 H 133.303 3.70859 5.87783 0
M  V30 1411 H 136.494 2.24774 4.10602 0
M  V30 1412 H 136.667 3.33084 5.55841 0
M  V30 1413 N 130.073 -1.45103 0.615059 0
M  V30 1414 C 131.321 -2.01784 0.112955 0
M  V30 1415 C 131.642 -1.48504 -1.26378 0
M  V30 1416 O 130.912 -0.682245 -1.83636 0
M  V30 1417 H 129.492 -0.745993 0.0387668 0
M  V30 1418 H 132.154 -1.77808 0.798141 0
M  V30 1419 H 131.25 -3.12025 0.0684069 0
M  V30 1420 N 131.551 -0.354651 -1.53558 0
M  V30 1421 C 132.481 0.489091 -2.2832 0
M  V30 1422 C 133.462 1.09324 -1.30316 0
M  V30 1423 O 134.647 1.11255 -1.59173 0
M  V30 1424 C 131.777 1.63456 -3.0643 0
M  V30 1425 C 130.731 1.1582 -4.12031 0
M  V30 1426 C 130.057 2.39305 -4.7816 0
M  V30 1427 C 131.357 0.250731 -5.21698 0
M  V30 1428 H 133.051 -0.134614 -2.99097 0
M  V30 1429 H 130.597 -0.0661826 -1.43848 0
M  V30 1430 H 132.55 2.23136 -3.57475 0
M  V30 1431 H 131.274 2.28533 -2.33325 0
M  V30 1432 H 129.933 0.584146 -3.61916 0
M  V30 1433 H 129.581 3.02814 -4.01637 0
M  V30 1434 H 129.281 2.08109 -5.49513 0
M  V30 1435 H 130.805 2.99691 -5.31994 0
M  V30 1436 H 132.219 0.754695 -5.68311 0
M  V30 1437 H 130.616 0.0301468 -6.00092 0
M  V30 1438 H 131.686 -0.710125 -4.79672 0
M  V30 1439 N 133.029 1.57378 -0.0835403 0
M  V30 1440 C 134.277 1.93547 0.581718 0
M  V30 1441 C 134.598 0.96524 1.69435 0
M  V30 1442 O 133.868 0.0153369 1.95894 0
M  V30 1443 H 132.448 0.714521 0.217874 0
M  V30 1444 H 135.11 1.94366 -0.144158 0
M  V30 1445 H 134.206 2.95665 0.999423 0
M  V30 1446 N 134.507 -0.190092 1.56449 0
M  V30 1447 C 135.437 -1.23816 1.97969 0
M  V30 1448 C 136.418 -1.47201 0.852395 0
M  V30 1449 O 137.603 -1.58854 1.1171 0
M  V30 1450 C 134.733 -2.5813 2.3235 0
M  V30 1451 C 133.687 -2.49348 3.47864 0
M  V30 1452 C 133.013 -3.8798 3.67934 0
M  V30 1453 C 134.313 -2.01424 4.81898 0
M  V30 1454 H 136.007 -0.89311 2.85769 0
M  V30 1455 H 133.553 -0.428177 1.37487 0
M  V30 1456 H 135.506 -3.31637 2.59991 0
M  V30 1457 H 134.23 -2.94386 1.41438 0
M  V30 1458 H 132.889 -1.78297 3.20321 0
M  V30 1459 H 132.537 -4.21597 2.74344 0
M  V30 1460 H 132.237 -3.82978 4.45648 0
M  V30 1461 H 133.761 -4.63101 3.97957 0
M  V30 1462 H 135.175 -2.64693 5.08538 0
M  V30 1463 H 133.572 -2.07413 5.63116 0
M  V30 1464 H 134.642 -0.967677 4.75146 0
M  V30 1465 N 135.985 -1.50799 -0.457987 0
M  V30 1466 C 136.895 -1.73426 -1.57989 0
M  V30 1467 C 137.911 -0.617745 -1.62665 0
M  V30 1468 O 139.087 -0.897614 -1.80291 0
M  V30 1469 C 136.152 -1.83557 -2.94122 0
M  V30 1470 C 135.213 -3.07345 -2.99729 0
M  V30 1471 C 134.446 -3.16983 -4.29368 0
M  V30 1472 O 134.669 -2.33077 -5.20607 0
M  V30 1473 O 133.603 -4.09812 -4.40837 0
M  V30 1474 H 137.429 -2.68555 -1.41817 0
M  V30 1475 H 135.014 -1.35052 -0.638859 0
M  V30 1476 H 136.896 -1.92326 -3.74952 0
M  V30 1477 H 135.571 -0.916137 -3.10465 0
M  V30 1478 H 134.478 -3.04068 -2.1793 0
M  V30 1479 H 135.811 -3.9891 -2.88326 0
M  V30 1480 N 137.463 0.71206 -1.40597 0
M  V30 1481 C 138.426 1.80785 -1.40888 0
M  V30 1482 C 139.426 1.57937 -0.302103 0
M  V30 1483 O 140.616 1.64913 -0.561182 0
M  V30 1484 C 137.748 3.18927 -1.20409 0
M  V30 1485 H 138.941 1.81924 -2.38419 0
M  V30 1486 H 136.494 0.91805 -1.26497 0
M  V30 1487 H 137.229 3.23436 -0.236522 0
M  V30 1488 H 137.014 3.36911 -2.00582 0
M  V30 1489 H 138.504 3.98949 -1.23408 0
M  V30 1490 N 138.941 1.26152 0.944643 0
M  V30 1491 C 140.166 1.14363 1.7302 0
M  V30 1492 C 140.591 -0.29772 1.85729 0
M  V30 1493 O 139.949 -1.2157 1.34501 0
M  V30 1494 C 139.997 1.81378 3.11664 0
M  V30 1495 O 139.101 1.10022 3.97453 0
M  V30 1496 H 138.442 0.398694 0.53098 0
M  V30 1497 H 140.972 1.66906 1.18337 0
M  V30 1498 H 140.982 1.88064 3.62072 0
M  V30 1499 H 139.657 2.86237 3.0173 0
M  V30 1500 H 138.234 1.11287 3.55907 0
M  V30 1501 N 140.419 -1.14872 1.07899 0
M  V30 1502 C 141.644 -1.90202 0.826926 0
M  V30 1503 C 142.069 -1.77774 -0.614664 0
M  V30 1504 O 141.427 -1.11431 -1.43013 0
M  V30 1505 C 141.475 -3.38352 1.24702 0
M  V30 1506 O 140.579 -4.10497 0.39575 0
M  V30 1507 H 139.92 -0.591968 0.300782 0
M  V30 1508 H 142.45 -1.45437 1.43907 0
M  V30 1509 H 142.46 -3.89156 1.22563 0
M  V30 1510 H 141.135 -3.46715 2.29698 0
M  V30 1511 H 139.712 -3.69796 0.480117 0
M  V30 1512 N 141.898 -0.863906 -1.31812 0
M  V30 1513 C 142.845 -0.313303 -2.28664 0
M  V30 1514 C 143.815 0.584868 -1.55462 0
M  V30 1515 O 145 0.517805 -1.83639 0
M  V30 1516 C 142.14 0.48441 -3.41683 0
M  V30 1517 C 141.253 -0.440594 -4.29747 0
M  V30 1518 C 140.388 0.370652 -5.29905 0
M  V30 1519 C 139.427 -0.551164 -6.09613 0
M  V30 1520 N 138.564 0.223462 -7.01744 0
M  V30 1521 H 143.404 -1.14444 -2.75148 0
M  V30 1522 H 140.941 -0.575769 -1.35364 0
M  V30 1523 H 142.899 0.962627 -4.05943 0
M  V30 1524 H 141.529 1.28029 -2.96325 0
M  V30 1525 H 140.581 -1.03724 -3.65986 0
M  V30 1526 H 141.893 -1.14767 -4.85417 0
M  V30 1527 H 141.047 0.911638 -5.99812 0
M  V30 1528 H 139.786 1.11105 -4.74876 0
M  V30 1529 H 138.791 -1.10396 -5.38603 0
M  V30 1530 H 140.016 -1.29032 -6.66729 0
M  V30 1531 H 137.962 0.946787 -6.49132 0
M  V30 1532 H 137.879 -0.424399 -7.54808 0
M  V30 1533 H 139.147 0.745876 -7.75923 0
M  V30 1534 N 143.376 1.44774 -0.622745 0
M  V30 1535 C 144.653 1.95522 -0.0551974 0
M  V30 1536 C 145.033 1.5649 1.41683 0
M  V30 1537 O 144.381 0.834848 2.12703 0
M  V30 1538 C 144.591 3.4796 -0.269242 0
M  V30 1539 C 145.939 4.24306 -0.158014 0
M  V30 1540 O 146.963 3.55637 -0.200162 0
M  V30 1541 O 145.822 5.46471 -0.0558693 0
M  V30 1542 H 142.916 0.826556 0.0271015 0
M  V30 1543 H 145.462 1.54866 -0.693864 0
M  V30 1544 H 144.234 3.6939 -1.29099 0
M  V30 1545 H 143.857 3.95543 0.403966 0
M  V30 1546 N 144.854 0.36279 1.53368 0
M  V30 1547 C 146.084 -0.228281 2.05335 0
M  V30 1548 C 146.492 -1.43226 1.23625 0
M  V30 1549 O 145.835 -1.81717 0.269206 0
M  V30 1550 C 145.897 -0.688549 3.52845 0
M  V30 1551 C 145.561 0.398362 4.5526 0
M  V30 1552 C 146.558 1.24732 5.04716 0
M  V30 1553 C 144.243 0.557805 4.99193 0
M  V30 1554 C 146.237 2.2411 5.96702 0
M  V30 1555 C 143.924 1.55495 5.90986 0
M  V30 1556 C 144.922 2.39503 6.39631 0
M  V30 1557 O 144.61 3.37517 7.29615 0
M  V30 1558 H 144.342 -0.044395 0.674541 0
M  V30 1559 H 146.896 0.518668 1.98744 0
M  V30 1560 H 145.126 -1.48706 3.56964 0
M  V30 1561 H 146.815 -1.20231 3.87685 0
M  V30 1562 H 147.581 1.13532 4.71525 0
M  V30 1563 H 143.46 -0.0862959 4.60919 0
M  V30 1564 H 147.004 2.89718 6.34594 0
M  V30 1565 H 142.901 1.66744 6.23592 0
M  V30 1566 H 143.669 3.33213 7.47604 0
M  V30 1567 N 146.332 -1.57332 0.0918853 0
M  V30 1568 C 147.743 -1.81496 -0.437739 0
M  V30 1569 C 148.094 -1.00727 -1.6837 0
M  V30 1570 O 147.219 -0.235694 -2.15113 0
M  V30 1571 C 147.814 -3.29197 -0.800939 0
M  V30 1572 C 146.373 -3.54136 -1.27532 0
M  V30 1573 C 145.52 -2.75979 -0.270392 0
M  V30 1574 H 148.471 -1.55494 0.317366 0
M  V30 1575 H 148.492 -3.42344 -1.66074 0
M  V30 1576 H 148.004 -3.87955 0.106078 0
M  V30 1577 H 146.105 -3.00705 -2.20016 0
M  V30 1578 H 146.218 -4.62792 -1.23938 0
M  V30 1579 H 144.582 -2.43349 -0.751872 0
M  V30 1580 H 145.365 -3.37484 0.629248 0
M  V30 1581 N 147.81 0.181792 -1.56548 0
M  V30 1582 C 149.057 0.900097 -1.81396 0
M  V30 1583 C 149.385 1.82695 -0.667281 0
M  V30 1584 O 148.64 1.92614 0.346146 0
M  V30 1585 C 148.939 1.73728 -3.12335 0
M  V30 1586 C 148.605 0.960255 -4.40556 0
M  V30 1587 C 147.267 0.745766 -4.75386 0
M  V30 1588 C 149.619 0.414477 -5.19549 0
M  V30 1589 C 146.947 -0.0257694 -5.86694 0
M  V30 1590 C 149.299 -0.343916 -6.31664 0
M  V30 1591 C 147.963 -0.569301 -6.65068 0
M  V30 1592 H 147.233 0.329369 -0.663775 0
M  V30 1593 H 149.88 0.165647 -1.90782 0
M  V30 1594 H 148.185 2.54081 -2.98245 0
M  V30 1595 H 149.882 2.29591 -3.28769 0
M  V30 1596 H 146.472 1.13746 -4.13231 0
M  V30 1597 H 150.656 0.567554 -4.93044 0
M  V30 1598 H 145.912 -0.210233 -6.11038 0
M  V30 1599 H 150.086 -0.774133 -6.92084 0
M  V30 1600 H 147.713 -1.16903 -7.51158 0
M  V30 1601 N 149.288 1.51039 0.449983 0
M  V30 1602 C 150.235 1.71439 1.54523 0
M  V30 1603 C 151.205 0.555871 1.56522 0
M  V30 1604 O 152.39 0.788871 1.73728 0
M  V30 1605 C 149.53 1.83384 2.92343 0
M  V30 1606 C 148.643 3.10873 2.9997 0
M  V30 1607 C 147.778 3.13488 4.28834 0
M  V30 1608 C 146.817 4.35343 4.30282 0
M  V30 1609 N 145.954 4.35579 5.5065 0
M  V30 1610 H 150.794 2.64934 1.36433 0
M  V30 1611 H 148.331 1.31312 0.662982 0
M  V30 1612 H 150.289 1.88291 3.72293 0
M  V30 1613 H 148.919 0.933086 3.0902 0
M  V30 1614 H 147.971 3.15336 2.12761 0
M  V30 1615 H 149.283 4.00814 2.96901 0
M  V30 1616 H 148.437 3.17241 5.17149 0
M  V30 1617 H 147.176 2.21414 4.34543 0
M  V30 1618 H 146.181 4.3178 3.40362 0
M  V30 1619 H 147.406 5.28668 4.26248 0
M  V30 1620 H 145.352 3.46369 5.57104 0
M  V30 1621 H 145.269 5.19313 5.49409 0
M  V30 1622 H 146.537 4.43507 6.41032 0
M  V30 1623 N 150.766 -0.704594 1.40972 0
M  V30 1624 C 152.043 -1.45847 1.30338 0
M  V30 1625 C 152.423 -2.10973 -0.0732344 0
M  V30 1626 O 151.771 -2.00997 -1.08685 0
M  V30 1627 C 151.981 -2.48525 2.45023 0
M  V30 1628 C 153.329 -3.1404 2.8577 0
M  V30 1629 O 154.353 -2.58848 2.44696 0
M  V30 1630 O 153.212 -4.13981 3.56766 0
M  V30 1631 H 150.306 -0.649092 0.512454 0
M  V30 1632 H 152.852 -0.735836 1.52917 0
M  V30 1633 H 151.624 -1.98994 3.36923 0
M  V30 1634 H 151.247 -3.2831 2.24272 0
M  V30 1635 N 152.244 -1.26651 -0.937939 0
M  V30 1636 C 153.66 -1.03834 -1.21205 0
M  V30 1637 C 153.86 0.234502 -2.00131 0
M  V30 1638 O 152.916 0.942767 -2.3424 0
M  V30 1639 C 154.229 -2.27167 -1.97017 0
M  V30 1640 C 155.777 -2.32101 -2.09996 0
M  V30 1641 C 156.252 -3.55136 -2.8921 0
M  V30 1642 N 157.743 -3.55632 -2.96783 0
M  V30 1643 C 158.478 -4.475 -3.58512 0
M  V30 1644 N 157.974 -5.4966 -4.21717 0
M  V30 1645 N 159.767 -4.35145 -3.55816 0
M  V30 1646 H 151.918 -2.08398 -0.410391 0
M  V30 1647 H 154.181 -0.916031 -0.244114 0
M  V30 1648 H 153.887 -3.19765 -1.46434 0
M  V30 1649 H 153.761 -2.31672 -2.97671 0
M  V30 1650 H 156.148 -1.40015 -2.59769 0
M  V30 1651 H 156.229 -2.31605 -1.08594 0
M  V30 1652 H 155.873 -4.47553 -2.40123 0
M  V30 1653 H 155.803 -3.5288 -3.90875 0
M  V30 1654 H 158.294 -2.81743 -2.51852 0
M  V30 1655 H 158.607 -6.15943 -4.66727 0
M  V30 1656 H 156.952 -5.53514 -4.20294 0
M  V30 1657 H 160.143 -3.5455 -3.05634 0
M  V30 1658 H 160.316 -5.06934 -4.03636 0
M  V30 1659 N 153.722 1.14298 -1.08507 0
M  V30 1660 C 154.669 2.19414 -0.715965 0
M  V30 1661 C 155.639 1.63399 0.298326 0
M  V30 1662 O 156.824 1.89929 0.182101 0
M  V30 1663 C 153.964 3.44845 -0.132534 0
M  V30 1664 C 153.077 4.15007 -1.19973 0
M  V30 1665 C 152.212 5.28024 -0.580048 0
M  V30 1666 C 151.251 5.9002 -1.62921 0
M  V30 1667 N 150.388 6.94485 -1.03125 0
M  V30 1668 H 155.228 2.50336 -1.61666 0
M  V30 1669 H 152.765 1.2293 -0.807882 0
M  V30 1670 H 154.723 4.16601 0.223454 0
M  V30 1671 H 153.353 3.14403 0.731467 0
M  V30 1672 H 152.405 3.41629 -1.67313 0
M  V30 1673 H 153.717 4.57178 -1.99473 0
M  V30 1674 H 152.871 6.06455 -0.172364 0
M  V30 1675 H 151.61 4.87076 0.246603 0
M  V30 1676 H 150.615 5.10291 -2.04654 0
M  V30 1677 H 151.84 6.33042 -2.45835 0
M  V30 1678 H 149.786 6.55612 -0.225711 0
M  V30 1679 H 149.703 7.35148 -1.76334 0
M  V30 1680 H 150.971 7.7679 -0.649458 0
M  V30 1681 N 155.201 0.870884 1.31352 0
M  V30 1682 C 156.149 0.316445 2.30437 0
M  V30 1683 C 157.143 -0.568965 1.59559 0
M  V30 1684 O 158.349 -0.454964 1.74155 0
M  V30 1685 H 154.724 0.0836521 0.747333 0
M  V30 1686 H 156.695 1.16606 2.74673 0
M  V30 1687 C 155.444 -0.46635 3.44558 0
M  V30 1688 H 154.767 0.205687 3.99271 0
M  V30 1689 H 156.207 -0.819614 4.16003 0
M  V30 1690 C 154.666 -1.65797 2.9328 0
M  V30 1691 O 155.196 -2.75728 2.92125 0
M  V30 1692 N 153.402 -1.49041 2.4947 0
M  V30 1693 H 152.949 -0.59612 2.50608 0
M  V30 1694 H 152.907 -2.28911 2.15516 0
M  V30 1695 N 156.679 -1.44442 0.630414 0
M  V30 1696 C 157.925 -2.02894 0.143332 0
M  V30 1697 C 158.28 -1.48697 -1.22094 0
M  V30 1698 O 157.573 -0.661171 -1.79831 0
M  V30 1699 C 157.767 -3.57332 0.0697835 0
M  V30 1700 C 157.596 -4.26512 1.42539 0
M  V30 1701 C 156.366 -4.63516 2.01198 0
M  V30 1702 C 158.564 -4.57004 2.35907 0
M  V30 1703 N 156.546 -5.17661 3.30001 0
M  V30 1704 C 157.917 -5.12223 3.49324 0
M  V30 1705 C 159.972 -4.38955 2.34995 0
M  V30 1706 C 158.675 -5.51295 4.62024 0
M  V30 1707 C 160.701 -4.79075 3.46758 0
M  V30 1708 C 160.063 -5.34407 4.58899 0
M  V30 1709 H 156.162 -0.776041 0.0963523 0
M  V30 1710 H 158.746 -1.75945 0.833752 0
M  V30 1711 H 156.917 -3.83894 -0.589915 0
M  V30 1712 H 158.649 -4.02451 -0.42606 0
M  V30 1713 H 155.404 -4.47811 1.54151 0
M  V30 1714 H 155.828 -5.4921 3.95851 0
M  V30 1715 H 160.47 -3.95469 1.49545 0
M  V30 1716 H 158.188 -5.93736 5.48182 0
M  V30 1717 H 161.774 -4.66824 3.47227 0
M  V30 1718 H 160.654 -5.64878 5.4395 0
M  V30 1719 N 158.157 -0.370918 -1.53173 0
M  V30 1720 C 159.12 0.460778 -2.24521 0
M  V30 1721 C 160.12 1.00536 -1.25496 0
M  V30 1722 O 161.31 0.890266 -1.49733 0
M  V30 1723 C 158.442 1.64457 -2.98608 0
M  V30 1724 H 159.635 -0.163613 -2.99453 0
M  V30 1725 H 157.188 -0.122699 -1.55818 0
M  V30 1726 H 157.923 2.30691 -2.2793 0
M  V30 1727 H 157.708 1.26099 -3.7127 0
M  V30 1728 H 159.198 2.23384 -3.5283 0
M  V30 1729 N 159.635 1.57281 -0.100228 0
M  V30 1730 C 160.865 1.98591 0.569681 0
M  V30 1731 C 161.273 0.978315 1.61943 0
M  V30 1732 O 160.616 -0.0396108 1.83657 0
M  V30 1733 C 160.678 3.36282 1.271 0
M  V30 1734 C 160.342 4.55488 0.371409 0
M  V30 1735 C 161.339 5.18491 -0.382504 0
M  V30 1736 C 159.024 5.01474 0.287965 0
M  V30 1737 C 161.018 6.25852 -1.20779 0
M  V30 1738 C 158.705 6.08701 -0.540965 0
M  V30 1739 C 159.703 6.70755 -1.28749 0
M  V30 1740 O 159.391 7.75914 -2.10269 0
M  V30 1741 H 159.123 0.65752 0.156982 0
M  V30 1742 H 161.677 2.0463 -0.177734 0
M  V30 1743 H 159.907 3.26941 2.0651 0
M  V30 1744 H 161.596 3.62005 1.83595 0
M  V30 1745 H 162.362 4.83891 -0.3278 0
M  V30 1746 H 158.241 4.52932 0.858689 0
M  V30 1747 H 161.785 6.74218 -1.79096 0
M  V30 1748 H 157.682 6.42732 -0.597131 0
M  V30 1749 H 158.45 7.92925 -2.03007 0
M  V30 1750 N 161.113 -0.173488 1.56642 0
M  V30 1751 C 162.06 -1.21482 1.96242 0
M  V30 1752 C 163.03 -1.44104 0.826027 0
M  V30 1753 O 164.215 -1.5688 1.08597 0
M  V30 1754 C 161.355 -2.54964 2.32567 0
M  V30 1755 C 160.468 -2.39739 3.59373 0
M  V30 1756 C 159.603 -3.66072 3.84921 0
M  V30 1757 C 158.642 -3.45771 5.05083 0
M  V30 1758 N 157.779 -4.64169 5.26775 0
M  V30 1759 H 162.619 -0.870123 2.85014 0
M  V30 1760 H 160.156 -0.418245 1.41029 0
M  V30 1761 H 162.114 -3.32758 2.5165 0
M  V30 1762 H 160.744 -2.87433 1.46908 0
M  V30 1763 H 159.796 -1.53131 3.48217 0
M  V30 1764 H 161.108 -2.20683 4.47326 0
M  V30 1765 H 160.262 -4.52303 4.0436 0
M  V30 1766 H 159.001 -3.88105 2.9534 0
M  V30 1767 H 158.006 -2.57927 4.85545 0
M  V30 1768 H 159.231 -3.25163 5.96193 0
M  V30 1769 H 157.177 -4.86425 4.40144 0
M  V30 1770 H 157.094 -4.48019 6.08946 0
M  V30 1771 H 158.362 -5.51689 5.5069 0
M  V30 1772 N 162.591 -1.51276 -0.441967 0
M  V30 1773 C 163.501 -1.75092 -1.56141 0
M  V30 1774 C 164.517 -0.634963 -1.62001 0
M  V30 1775 O 165.693 -0.916686 -1.79329 0
M  V30 1776 C 162.758 -1.86666 -2.92158 0
M  V30 1777 C 161.819 -3.10506 -2.96453 0
M  V30 1778 C 161.052 -3.21519 -4.25982 0
M  V30 1779 O 161.275 -2.38586 -5.18105 0
M  V30 1780 O 160.209 -4.14465 -4.36466 0
M  V30 1781 H 164.035 -2.70044 -1.38961 0
M  V30 1782 H 161.62 -1.35722 -0.624499 0
M  V30 1783 H 163.502 -1.96292 -3.72891 0
M  V30 1784 H 162.177 -0.949014 -3.09476 0
M  V30 1785 H 161.084 -3.06363 -2.14692 0
M  V30 1786 H 162.417 -4.01945 -2.84079 0
M  V30 1787 N 164.069 0.697108 -1.41344 0
M  V30 1788 C 165.318 1.45279 -1.39918 0
M  V30 1789 C 165.631 1.95597 -0.0109624 0
M  V30 1790 O 166.837 2.71208 0.125919 0
M  V30 1791 C 165.293 2.62695 -2.46007 0
M  V30 1792 C 164.901 2.19169 -3.90729 0
M  V30 1793 C 166.645 3.40336 -2.53715 0
M  V30 1794 C 164.552 3.33535 -4.88373 0
M  V30 1795 H 163.482 0.545692 -0.520323 0
M  V30 1796 H 166.133 0.756929 -1.67161 0
M  V30 1797 H 164.515 3.34541 -2.11892 0
M  V30 1798 H 165.689 1.54623 -4.34083 0
M  V30 1799 H 164.004 1.54525 -3.86666 0
M  V30 1800 H 166.601 4.2547 -3.2385 0
M  V30 1801 H 166.944 3.85418 -1.5735 0
M  V30 1802 H 167.477 2.75546 -2.86913 0
M  V30 1803 H 164.216 2.93468 -5.86137 0
M  V30 1804 H 163.736 3.96936 -4.49668 0
M  V30 1805 H 165.415 3.99335 -5.09059 0
M  V30 1806 N 165.547 1.27147 0.931209 0
M  V30 1807 C 166.479 1.05364 2.03546 0
M  V30 1808 C 167.492 0.0108438 1.62796 0
M  V30 1809 O 168.681 0.25202 1.76712 0
M  V30 1810 C 165.781 0.575566 3.33977 0
M  V30 1811 C 164.954 1.68985 4.03439 0
M  V30 1812 C 164.013 1.20813 5.12143 0
M  V30 1813 O 163.039 1.90712 5.363 0
M  V30 1814 N 164.241 0.0618851 5.80467 0
M  V30 1815 H 167.006 2.00454 2.22796 0
M  V30 1816 H 164.567 1.18666 1.10136 0
M  V30 1817 H 166.559 0.237264 4.04004 0
M  V30 1818 H 165.129 -0.282016 3.11325 0
M  V30 1819 H 164.349 2.19861 3.27192 0
M  V30 1820 H 165.637 2.4378 4.46597 0
M  V30 1821 H 165.035 -0.521621 5.6329 0
M  V30 1822 H 163.592 -0.217264 6.51438 0
M  V30 1823 N 167.025 -1.13721 1.09112 0
M  V30 1824 C 167.988 -2.17222 0.731241 0
M  V30 1825 C 168.988 -1.59035 -0.237566 0
M  V30 1826 O 170.178 -1.74192 -0.0161704 0
M  V30 1827 C 167.31 -3.40804 0.0808443 0
M  V30 1828 H 168.503 -2.50573 1.64783 0
M  V30 1829 H 166.056 -1.28493 0.889897 0
M  V30 1830 H 166.791 -3.1304 -0.847127 0
M  V30 1831 H 166.576 -3.84306 0.777896 0
M  V30 1832 H 168.066 -4.1731 -0.155657 0
M  V30 1833 N 168.503 -0.877838 -1.30888 0
M  V30 1834 C 169.466 -0.344265 -2.266 0
M  V30 1835 C 170.466 0.50922 -1.52524 0
M  V30 1836 O 171.656 0.317398 -1.71284 0
M  V30 1837 C 168.788 0.510198 -3.37061 0
M  V30 1838 H 169.981 -1.1893 -2.7531 0
M  V30 1839 H 167.534 -0.654088 -1.41956 0
M  V30 1840 H 168.269 1.37612 -2.93655 0
M  V30 1841 H 168.054 -0.101047 -3.9197 0
M  V30 1842 H 169.544 0.875537 -4.08319 0
M  V30 1843 N 169.982 1.44106 -0.638065 0
M  V30 1844 C 171.212 2.06037 -0.152394 0
M  V30 1845 C 171.62 1.47808 1.18108 0
M  V30 1846 O 170.963 0.598092 1.73691 0
M  V30 1847 C 171.025 3.59488 0.0293714 0
M  V30 1848 C 170.689 4.4022 -1.22702 0
M  V30 1849 C 171.686 4.73256 -2.15232 0
M  V30 1850 C 169.371 4.8048 -1.46437 0
M  V30 1851 C 171.365 5.45444 -3.29802 0
M  V30 1852 C 169.052 5.52417 -2.61303 0
M  V30 1853 C 170.05 5.84819 -3.52811 0
M  V30 1854 O 169.738 6.55289 -4.65673 0
M  V30 1855 H 169.47 0.671233 -0.0801401 0
M  V30 1856 H 172.024 1.85851 -0.874563 0
M  V30 1857 H 170.254 3.78191 0.806758 0
M  V30 1858 H 171.943 4.03164 0.470475 0
M  V30 1859 H 172.709 4.42684 -1.98131 0
M  V30 1860 H 168.588 4.54676 -0.760977 0
M  V30 1861 H 172.132 5.70653 -4.01249 0
M  V30 1862 H 168.029 5.82404 -2.78344 0
M  V30 1863 H 168.797 6.73762 -4.64744 0
M  V30 1864 N 171.46 0.379036 1.52974 0
M  V30 1865 C 172.37 -0.468639 2.29872 0
M  V30 1866 C 173.386 -1.08067 1.36373 0
M  V30 1867 O 174.562 -1.08871 1.69438 0
M  V30 1868 C 171.627 -1.58594 3.083 0
M  V30 1869 C 170.688 -1.00007 4.17489 0
M  V30 1870 C 169.921 -2.06413 4.92168 0
M  V30 1871 O 170.144 -3.27751 4.66835 0
M  V30 1872 O 169.078 -1.68717 5.7777 0
M  V30 1873 H 172.904 0.157508 3.03291 0
M  V30 1874 H 170.489 0.143035 1.48714 0
M  V30 1875 H 172.371 -2.23525 3.57232 0
M  V30 1876 H 171.046 -2.19724 2.37703 0
M  V30 1877 H 169.953 -0.314299 3.72777 0
M  V30 1878 H 171.286 -0.433135 4.90291 0
M  V30 1879 N 172.938 -1.57226 0.108567 0
M  V30 1880 C 173.901 -2.13602 -0.831082 0
M  V30 1881 C 174.901 -1.06841 -1.20173 0
M  V30 1882 O 176.091 -1.32666 -1.12895 0
M  V30 1883 C 173.223 -2.66769 -2.12243 0
M  V30 1884 H 174.416 -2.97951 -0.341317 0
M  V30 1885 H 171.969 -1.55667 -0.14057 0
M  V30 1886 H 172.704 -1.85977 -2.65675 0
M  V30 1887 H 172.489 -3.44839 -1.86625 0
M  V30 1888 H 173.979 -3.10332 -2.79435 0
M  V30 1889 N 174.416 0.165178 -1.56732 0
M  V30 1890 C 175.664 0.879068 -1.8198 0
M  V30 1891 C 175.985 1.82514 -0.686561 0
M  V30 1892 O 175.255 1.93694 0.293146 0
M  V30 1893 H 173.835 0.327608 -0.671329 0
M  V30 1894 H 176.497 0.163526 -1.94213 0
M  V30 1895 H 175.593 1.45228 -2.76252 0
M  V30 1896 N 175.894 1.51508 0.433938 0
M  V30 1897 C 177.143 1.63578 1.18005 0
M  V30 1898 C 177.456 0.359514 1.92268 0
M  V30 1899 O 178.662 0.359632 2.69108 0
M  V30 1900 C 177.118 2.88901 2.14626 0
M  V30 1901 C 176.726 4.23544 1.45995 0
M  V30 1902 C 178.47 3.10328 2.89649 0
M  V30 1903 C 176.377 5.40014 2.4112 0
M  V30 1904 H 175.307 0.609277 0.444182 0
M  V30 1905 H 177.958 1.77978 0.446773 0
M  V30 1906 H 176.34 2.68142 2.91403 0
M  V30 1907 H 177.514 4.54696 0.747532 0
M  V30 1908 H 175.829 4.08021 0.831115 0
M  V30 1909 H 178.426 3.94518 3.60915 0
M  V30 1910 H 178.769 2.23544 3.51189 0
M  V30 1911 H 179.302 3.31443 2.19978 0
M  V30 1912 H 176.041 6.29068 1.84264 0
M  V30 1913 H 175.561 5.13233 3.10406 0
M  V30 1914 H 177.24 5.72099 3.02177 0
M  V30 1915 N 177.372 -0.689602 1.41712 0
M  V30 1916 C 178.618 -1.45181 1.41599 0
M  V30 1917 C 178.951 -1.94181 0.0270081 0
M  V30 1918 O 178.226 -1.6993 -0.946265 0
M  V30 1919 C 178.509 -2.65945 2.42787 0
M  V30 1920 C 178.362 -2.22672 3.90816 0
M  V30 1921 C 179.681 -3.68149 2.41151 0
M  V30 1922 H 176.8 -0.526576 0.515642 0
M  V30 1923 H 179.442 -0.784947 1.73028 0
M  V30 1924 H 177.592 -3.2284 2.16116 0
M  V30 1925 H 179.264 -1.71058 4.28412 0
M  V30 1926 H 177.507 -1.54394 4.05395 0
M  V30 1927 H 178.178 -3.0935 4.57172 0
M  V30 1928 H 180.654 -3.2094 2.64834 0
M  V30 1929 H 179.53 -4.50248 3.13955 0
M  V30 1930 H 179.791 -4.18259 1.43221 0
M  V30 1931 N 178.85 -1.27639 -0.924453 0
M  V30 1932 C 180.078 -1.16989 -1.70649 0
M  V30 1933 C 180.493 0.272869 -1.86818 0
M  V30 1934 O 179.85 1.18549 -1.38753 0
M  V30 1935 C 179.901 -1.85229 -3.10439 0
M  V30 1936 O 179.622 -3.23868 -2.95028 0
M  V30 1937 C 181.123 -1.80746 -4.04779 0
M  V30 1938 H 178.343 -0.406595 -0.53378 0
M  V30 1939 H 180.887 -1.68569 -1.15778 0
M  V30 1940 H 179.042 -1.37545 -3.6216 0
M  V30 1941 H 179.456 -3.57889 -3.83426 0
M  V30 1942 H 180.93 -2.33101 -5.00368 0
M  V30 1943 H 181.407 -0.777499 -4.32263 0
M  V30 1944 H 182.013 -2.28059 -3.58984 0
M  V30 1945 N 180.328 1.1314 -1.09713 0
M  V30 1946 C 181.576 1.84119 -0.833338 0
M  V30 1947 C 181.897 1.84097 0.642904 0
M  V30 1948 O 181.167 1.29881 1.46655 0
M  V30 1949 H 179.747 0.681766 -0.305293 0
M  V30 1950 H 182.409 1.37038 -1.38588 0
M  V30 1951 H 181.505 2.88543 -1.18951 0
M  V30 1952 N 181.806 0.884767 1.30421 0
M  V30 1953 C 182.753 0.349642 2.28136 0
M  V30 1954 C 183.723 -0.560061 1.56373 0
M  V30 1955 O 184.908 -0.488524 1.8444 0
M  V30 1956 C 182.048 -0.42999 3.42411 0
M  V30 1957 C 181.161 0.508907 4.28992 0
M  V30 1958 C 180.296 -0.286301 5.30428 0
M  V30 1959 C 179.335 0.648079 6.08659 0
M  V30 1960 N 178.472 -0.111792 7.02011 0
M  V30 1961 H 183.312 1.18807 2.73293 0
M  V30 1962 H 180.849 0.597231 1.3443 0
M  V30 1963 H 182.807 -0.897923 4.07423 0
M  V30 1964 H 181.437 -1.23299 2.98324 0
M  V30 1965 H 180.489 1.09533 3.64289 0
M  V30 1966 H 181.801 1.22475 4.8353 0
M  V30 1967 H 180.955 -0.816098 6.01186 0
M  V30 1968 H 179.694 -1.03536 4.76583 0
M  V30 1969 H 178.699 1.18951 5.36778 0
M  V30 1970 H 179.924 1.39623 6.64592 0
M  V30 1971 H 177.87 -0.843395 6.50556 0
M  V30 1972 H 177.787 0.544429 7.54037 0
M  V30 1973 H 179.055 -0.622339 7.77012 0
M  V30 1974 N 183.284 -1.43765 0.645699 0
M  V30 1975 C 184.512 -2.06253 0.163556 0
M  V30 1976 C 184.927 -1.48352 -1.16778 0
M  V30 1977 O 184.284 -0.611932 -1.71935 0
M  V30 1978 C 184.335 -3.61453 0.0583186 0
M  V30 1979 O 184.056 -4.172 1.33702 0
M  V30 1980 C 185.557 -4.41002 -0.450795 0
M  V30 1981 H 182.777 -0.665413 0.0864077 0
M  V30 1982 H 185.321 -1.84396 0.884222 0
M  V30 1983 H 183.476 -3.82522 -0.612865 0
M  V30 1984 H 183.89 -5.10791 1.19131 0
M  V30 1985 H 185.364 -5.49966 -0.473403 0
M  V30 1986 H 185.841 -4.13488 -1.48068 0
M  V30 1987 H 186.447 -4.24886 0.187637 0
M  V30 1988 N 184.763 -0.387143 -1.52771 0
M  V30 1989 C 185.711 0.463953 -2.27926 0
M  V30 1990 C 186.705 1.06493 -1.31741 0
M  V30 1991 O 187.911 1.00565 -1.49287 0
M  V30 1992 H 184.286 0.16837 -0.732909 0
M  V30 1993 H 186.257 -0.19141 -2.97785 0
M  V30 1994 C 185.006 1.5803 -3.09713 0
M  V30 1995 H 184.329 1.12718 -3.83581 0
M  V30 1996 H 185.769 2.15008 -3.65442 0
M  V30 1997 C 184.228 2.53509 -2.2189 0
M  V30 1998 O 184.758 3.56863 -1.84422 0
M  V30 1999 N 182.964 2.23199 -1.86093 0
M  V30 2000 H 182.511 1.39185 -2.16761 0
M  V30 2001 H 182.469 2.87333 -1.27621 0
M  V30 2002 N 186.241 1.57166 -0.116904 0
M  V30 2003 C 187.489 1.94737 0.540533 0
M  V30 2004 C 187.81 1.00096 1.67349 0
M  V30 2005 O 187.08 0.0568854 1.95817 0
M  V30 2006 H 185.66 0.718981 0.202669 0
M  V30 2007 H 188.322 1.94017 -0.185353 0
M  V30 2008 H 187.418 2.97719 0.936483 0
M  V30 2009 N 187.719 -0.156864 1.56817 0
M  V30 2010 C 188.629 -1.2136 2.00771 0
M  V30 2011 C 189.645 -1.47598 0.921459 0
M  V30 2012 O 190.821 -1.59462 1.2302 0
M  V30 2013 C 187.886 -2.52943 2.37109 0
M  V30 2014 C 186.947 -2.34439 3.59634 0
M  V30 2015 C 186.18 -3.59748 3.94229 0
M  V30 2016 O 186.403 -4.65526 3.29609 0
M  V30 2017 O 185.337 -3.52998 4.8752 0
M  V30 2018 H 189.163 -0.870468 2.90958 0
M  V30 2019 H 186.748 -0.36484 1.44877 0
M  V30 2020 H 188.63 -3.30538 2.61386 0
M  V30 2021 H 187.305 -2.86806 1.5008 0
M  V30 2022 H 186.212 -1.54828 3.40557 0
M  V30 2023 H 187.545 -2.05496 4.4725 0
M  V30 2024 N 189.197 -1.51736 -0.425897 0
M  V30 2025 C 190.444 -1.6497 -1.17436 0
M  V30 2026 C 190.772 -0.371445 -1.9092 0
M  V30 2027 O 190.027 0.644963 -1.84767 0
M  V30 2028 C 190.326 -2.81103 -2.20717 0
M  V30 2029 C 189.992 -4.19954 -1.64162 0
M  V30 2030 C 188.654 -4.57725 -1.48462 0
M  V30 2031 C 191.006 -5.06552 -1.22696 0
M  V30 2032 C 188.334 -5.79789 -0.897873 0
M  V30 2033 C 190.686 -6.29205 -0.654464 0
M  V30 2034 C 189.35 -6.6574 -0.484456 0
M  V30 2035 H 188.62 -0.603668 -0.429727 0
M  V30 2036 H 191.267 -1.85798 -0.463829 0
M  V30 2037 H 189.572 -2.54542 -2.97852 0
M  V30 2038 H 191.269 -2.8854 -2.78471 0
M  V30 2039 H 187.859 -3.90181 -1.77361 0
M  V30 2040 H 192.043 -4.77968 -1.33642 0
M  V30 2041 H 187.299 -6.06733 -0.75402 0
M  V30 2042 H 191.473 -6.95643 -0.324694 0
M  V30 2043 H 189.1 -7.60195 -0.0276833 0
M  V30 2044 N 190.675 0.682077 -1.42076 0
M  V30 2045 C 191.638 1.77756 -1.44691 0
M  V30 2046 C 192.638 1.5726 -0.335535 0
M  V30 2047 O 193.828 1.63686 -0.596037 0
M  V30 2048 C 190.96 3.16301 -1.27146 0
M  V30 2049 H 192.153 1.76826 -2.42224 0
M  V30 2050 H 189.706 0.891012 -1.28416 0
M  V30 2051 H 190.441 3.22862 -0.305075 0
M  V30 2052 H 190.226 3.32581 -2.07683 0
M  V30 2053 H 191.716 3.96241 -1.31843 0
M  V30 2054 N 192.153 1.28127 0.917671 0
M  V30 2055 C 193.564 1.13622 1.48145 0
M  V30 2056 C 193.915 -0.275207 1.9426 0
M  V30 2057 O 193.04 -1.1691 1.82102 0
M  V30 2058 C 193.635 2.05648 2.69248 0
M  V30 2059 C 192.194 1.95219 3.21818 0
M  V30 2060 C 191.341 1.97618 1.94532 0
M  V30 2061 H 194.292 1.40874 0.730772 0
M  V30 2062 H 194.313 1.61818 3.44377 0
M  V30 2063 H 193.825 3.08365 2.35653 0
M  V30 2064 H 191.926 0.955244 3.60147 0
M  V30 2065 H 192.039 2.81976 3.87333 0
M  V30 2066 H 190.403 1.41973 2.11461 0
M  V30 2067 H 191.186 3.02007 1.63238 0
M  V30 2068 N 193.631 -1.12557 1.10312 0
M  V30 2069 C 194.579 -2.20325 0.745629 0
M  V30 2070 C 195.573 -1.67429 -0.25763 0
M  V30 2071 O 196.779 -1.79612 -0.118132 0
M  V30 2072 H 193.154 -0.718118 0.223182 0
M  V30 2073 H 195.125 -2.47733 1.66346 0
M  V30 2074 C 193.874 -3.47168 0.192262 0
M  V30 2075 H 193.197 -3.88215 0.955475 0
M  V30 2076 H 194.637 -4.23995 -0.0198274 0
M  V30 2077 C 193.096 -3.19298 -1.07472 0
M  V30 2078 O 193.626 -3.3891 -2.15645 0
M  V30 2079 N 191.832 -2.73113 -0.992847 0
M  V30 2080 H 191.379 -2.57354 -0.112474 0
M  V30 2081 H 191.337 -2.54842 -1.84127 0
M  V30 2082 N 195.109 -0.891671 -1.2995 0
M  V30 2083 C 196.019 -0.367691 -2.31701 0
M  V30 2084 C 197.035 0.533486 -1.6562 0
M  V30 2085 O 198.211 0.424997 -1.96865 0
M  V30 2086 C 195.276 0.403406 -3.44345 0
M  V30 2087 C 194.337 -0.528328 -4.26037 0
M  V30 2088 C 193.57 0.206063 -5.33302 0
M  V30 2089 O 193.793 1.43119 -5.52153 0
M  V30 2090 O 192.727 -0.447281 -6.00236 0
M  V30 2091 H 196.553 -1.21163 -2.78484 0
M  V30 2092 H 194.138 -0.655725 -1.34241 0
M  V30 2093 H 196.02 0.839753 -4.12948 0
M  V30 2094 H 194.695 1.22354 -2.99685 0
M  V30 2095 H 193.602 -1.01362 -3.60106 0
M  V30 2096 H 194.935 -1.31465 -4.74318 0
M  V30 2097 N 196.587 1.43421 -0.653314 0
M  V30 2098 C 197.535 2.32546 0.0501531 0
M  V30 2099 C 198.529 1.48617 0.812985 0
M  V30 2100 O 199.735 1.64825 0.723375 0
M  V30 2101 H 196.11 0.751185 0.0350032 0
M  V30 2102 H 198.081 2.89602 -0.719261 0
M  V30 2103 C 196.83 3.32925 1.00279 0
M  V30 2104 H 196.153 3.97532 0.425236 0
M  V30 2105 H 197.593 3.9792 1.46409 0
M  V30 2106 C 196.052 2.63532 2.09886 0
M  V30 2107 O 196.582 2.45092 3.18265 0
M  V30 2108 N 194.788 2.22905 1.86445 0
M  V30 2109 H 194.335 2.38103 0.98309 0
M  V30 2110 H 194.293 1.76805 2.59976 0
M  V30 2111 N 198.065 0.39524 1.52563 0
M  V30 2112 C 199.314 -0.186321 2.00838 0
M  V30 2113 C 199.627 -1.47402 1.28577 0
M  V30 2114 O 200.833 -2.13599 1.67593 0
M  V30 2115 C 199.289 -0.382595 3.57861 0
M  V30 2116 C 198.897 0.892202 4.39026 0
M  V30 2117 C 200.641 -0.9202 4.14406 0
M  V30 2118 C 198.548 0.66388 5.87662 0
M  V30 2119 H 197.478 -0.0734041 0.750418 0
M  V30 2120 H 200.129 0.518552 1.76021 0
M  V30 2121 H 198.511 -1.14946 3.7895 0
M  V30 2122 H 199.685 1.66414 4.29701 0
M  V30 2123 H 198 1.35519 3.9373 0
M  V30 2124 H 200.597 -1.10683 5.23119 0
M  V30 2125 H 200.94 -1.89096 3.70875 0
M  V30 2126 H 201.473 -0.212751 3.97231 0
M  V30 2127 H 198.212 1.6058 6.35527 0
M  V30 2128 H 197.732 -0.0690193 5.9976 0
M  V30 2129 H 199.411 0.300699 6.46301 0
M  V30 2130 N 199.544 -1.57102 0.125237 0
M  V30 2131 C 200.772 -1.99761 -0.538797 0
M  V30 2132 C 201.187 -1.00503 -1.59827 0
M  V30 2133 O 200.544 0.00119474 -1.825 0
M  V30 2134 C 200.595 -3.42408 -1.15927 0
M  V30 2135 O 200.316 -4.37869 -0.142143 0
M  V30 2136 C 201.817 -4.00232 -1.90602 0
M  V30 2137 H 199.037 -0.655772 -0.14214 0
M  V30 2138 H 201.581 -2.03383 0.213413 0
M  V30 2139 H 199.736 -3.39706 -1.86223 0
M  V30 2140 H 200.15 -5.21128 -0.593775 0
M  V30 2141 H 201.624 -5.02105 -2.29335 0
M  V30 2142 H 202.101 -3.39721 -2.78363 0
M  V30 2143 H 202.707 -4.06499 -1.25055 0
M  V30 2144 N 201.022 0.148545 -1.56898 0
M  V30 2145 C 202.438 0.501131 -1.51528 0
M  V30 2146 C 202.638 1.83458 -0.833399 0
M  V30 2147 O 201.694 2.49259 -0.40328 0
M  V30 2148 C 203.007 0.512864 -2.96294 0
M  V30 2149 C 204.555 0.598487 -3.07225 0
M  V30 2150 C 205.03 0.640897 -4.53494 0
M  V30 2151 N 206.521 0.703163 -4.57832 0
M  V30 2152 C 207.256 0.756935 -5.68382 0
M  V30 2153 N 206.752 0.770147 -6.88506 0
M  V30 2154 N 208.545 0.797698 -5.56411 0
M  V30 2155 H 200.696 -0.725532 -1.99624 0
M  V30 2156 H 202.959 -0.264358 -0.910395 0
M  V30 2157 H 202.665 -0.398691 -3.49433 0
M  V30 2158 H 202.539 1.35133 -3.52163 0
M  V30 2159 H 204.926 1.50046 -2.54106 0
M  V30 2160 H 205.007 -0.267093 -2.54402 0
M  V30 2161 H 204.651 -0.256915 -5.0725 0
M  V30 2162 H 204.581 1.52295 -5.04097 0
M  V30 2163 H 207.072 0.700314 -3.71354 0
M  V30 2164 H 207.385 0.812983 -7.68512 0
M  V30 2165 H 205.73 0.738049 -6.9107 0
M  V30 2166 H 208.921 0.784535 -4.61479 0
M  V30 2167 H 209.094 0.83614 -6.42583 0
M  V30 2168 N 202.5 1.5196 0.417844 0
M  V30 2169 C 203.41 1.77554 1.53336 0
M  V30 2170 C 204.426 0.660655 1.6097 0
M  V30 2171 O 205.602 0.945099 1.77848 0
M  V30 2172 C 202.667 1.91291 2.89152 0
M  V30 2173 C 201.728 3.15183 2.91475 0
M  V30 2174 C 200.961 3.28256 4.20813 0
M  V30 2175 O 201.184 2.46798 5.14244 0
M  V30 2176 O 200.118 4.21356 4.29817 0
M  V30 2177 H 203.944 2.7222 1.34647 0
M  V30 2178 H 201.529 1.36698 0.602828 0
M  V30 2179 H 203.411 2.02199 3.69721 0
M  V30 2180 H 202.086 0.998129 3.07927 0
M  V30 2181 H 200.993 3.09739 2.09791 0
M  V30 2182 H 202.326 4.06414 2.77648 0
M  V30 2183 N 203.978 -0.674533 1.42435 0
M  V30 2184 C 204.91 -1.80005 1.41883 0
M  V30 2185 C 205.923 -1.59667 0.31787 0
M  V30 2186 O 207.112 -1.68781 0.580973 0
M  V30 2187 C 204.212 -3.17114 1.19549 0
M  V30 2188 C 203.385 -3.64299 2.42084 0
M  V30 2189 C 202.444 -4.80142 2.15291 0
M  V30 2190 O 201.47 -4.90673 2.88493 0
M  V30 2191 N 202.672 -5.68869 1.1562 0
M  V30 2192 H 205.437 -1.80964 2.38898 0
M  V30 2193 H 202.998 -0.857633 1.37318 0
M  V30 2194 H 204.99 -3.92267 0.995417 0
M  V30 2195 H 203.56 -3.11053 0.310569 0
M  V30 2196 H 202.78 -2.79822 2.77657 0
M  V30 2197 H 204.068 -3.92567 3.23679 0
M  V30 2198 H 203.466 -5.63012 0.550765 0
M  V30 2199 H 202.023 -6.43833 1.016 0
M  V30 2200 N 205.456 -1.28612 -0.910864 0
M  V30 2201 C 206.389 -1.07109 -2.01502 0
M  V30 2202 C 207.367 0.013706 -1.62594 0
M  V30 2203 O 208.551 -0.134796 -1.88017 0
M  V30 2204 C 205.678 -0.628255 -3.32822 0
M  V30 2205 C 204.724 -1.71012 -3.90714 0
M  V30 2206 S 205.557 -3.30676 -4.21205 0
M  V30 2207 C 206.713 -2.88234 -5.55583 0
M  V30 2208 H 206.946 -2.00591 -2.19432 0
M  V30 2209 H 204.479 -1.12633 -1.05609 0
M  V30 2210 H 206.437 -0.37946 -4.08742 0
M  V30 2211 H 205.098 0.28678 -3.12788 0
M  V30 2212 H 204.291 -1.35195 -4.85529 0
M  V30 2213 H 203.893 -1.91186 -3.21441 0
M  V30 2214 H 206.185 -2.34584 -6.35591 0
M  V30 2215 H 207.128 -3.81857 -5.96314 0
M  V30 2216 H 207.536 -2.26862 -5.16908 0
M  V30 2217 N 206.934 1.1197 -1.10907 0
M  V30 2218 C 207.897 2.16031 -0.765707 0
M  V30 2219 C 208.897 1.59393 0.212235 0
M  V30 2220 O 210.087 1.74196 -0.0115441 0
M  V30 2221 C 207.219 3.40632 -0.135053 0
M  V30 2222 H 208.412 2.47919 -1.68748 0
M  V30 2223 H 205.965 1.27061 -0.910226 0
M  V30 2224 H 206.7 3.14348 0.797218 0
M  V30 2225 H 206.485 3.8302 -0.838937 0
M  V30 2226 H 207.975 4.17505 0.0892469 0
M  V30 2227 N 208.412 0.89855 1.29475 0
M  V30 2228 C 209.375 0.380272 2.26023 0
M  V30 2229 C 210.375 -0.484891 1.53315 0
M  V30 2230 O 211.565 -0.290108 1.71767 0
M  V30 2231 C 208.697 -0.45651 3.3783 0
M  V30 2232 H 209.89 1.23295 2.73383 0
M  V30 2233 H 207.443 0.676589 1.40897 0
M  V30 2234 H 208.178 -1.32922 2.95808 0
M  V30 2235 H 207.963 0.163393 3.91759 0
M  V30 2236 H 209.453 -0.810466 4.0966 0
M  V30 2237 N 209.89 -1.43072 0.660911 0
M  V30 2238 C 210.823 -2.28074 -0.0758862 0
M  V30 2239 C 211.801 -1.40271 -0.822362 0
M  V30 2240 O 212.985 -1.69713 -0.820352 0
M  V30 2241 C 210.112 -3.19843 -1.11437 0
M  V30 2242 C 209.158 -4.23957 -0.465069 0
M  V30 2243 S 209.991 -5.29978 0.767078 0
M  V30 2244 C 211.147 -6.25314 -0.270682 0
M  V30 2245 H 211.38 -2.90216 0.645139 0
M  V30 2246 H 208.913 -1.47697 0.449995 0
M  V30 2247 H 210.871 -3.73257 -1.70849 0
M  V30 2248 H 209.532 -2.56863 -1.80776 0
M  V30 2249 H 208.725 -4.88299 -1.24819 0
M  V30 2250 H 208.327 -3.73959 0.0551242 0
M  V30 2251 H 210.619 -6.67932 -1.13459 0
M  V30 2252 H 211.562 -7.07293 0.337916 0
M  V30 2253 H 211.97 -5.61195 -0.609937 0
M  V30 2254 N 211.368 -0.403325 -1.52352 0
M  V30 2255 C 212.331 0.413051 -2.25447 0
M  V30 2256 C 213.331 0.978513 -1.276 0
M  V30 2257 O 214.521 0.858305 -1.51587 0
M  V30 2258 C 211.653 1.58087 -3.02029 0
M  V30 2259 H 212.846 -0.227094 -2.99039 0
M  V30 2260 H 210.399 -0.155722 -1.55522 0
M  V30 2261 H 211.134 2.25804 -2.32772 0
M  V30 2262 H 210.919 1.18195 -3.73861 0
M  V30 2263 H 212.409 2.1585 -3.57489 0
M  V30 2264 N 212.846 1.57033 -0.133567 0
M  V30 2265 C 214.092 1.95976 0.521649 0
M  V30 2266 C 214.425 1.01779 1.65393 0
M  V30 2267 O 213.7 0.0576581 1.94415 0
M  V30 2268 C 213.983 3.44738 1.04057 0
M  V30 2269 C 213.836 4.49711 -0.0892897 0
M  V30 2270 C 215.155 3.95682 1.92675 0
M  V30 2271 H 212.274 0.712579 0.188149 0
M  V30 2272 H 214.916 1.88813 -0.212076 0
M  V30 2273 H 213.066 3.50973 1.66583 0
M  V30 2274 H 214.738 4.55565 -0.725152 0
M  V30 2275 H 212.981 4.27261 -0.750378 0
M  V30 2276 H 213.652 5.51099 0.315284 0
M  V30 2277 H 216.128 3.91841 1.39998 0
M  V30 2278 H 215.004 5.00262 2.25897 0
M  V30 2279 H 215.265 3.37239 2.85872 0
M  V30 2280 N 214.325 -0.140222 1.56975 0
M  V30 2281 C 215.741 -0.493088 1.51792 0
M  V30 2282 C 215.941 -1.83013 0.843116 0
M  V30 2283 O 214.997 -2.49041 0.416493 0
M  V30 2284 C 216.31 -0.497144 2.96562 0
M  V30 2285 C 217.858 -0.582186 3.07538 0
M  V30 2286 C 218.333 -0.616838 4.53827 0
M  V30 2287 N 219.824 -0.678873 4.58198 0
M  V30 2288 C 220.559 -0.726782 5.68775 0
M  V30 2289 N 220.055 -0.733623 6.88905 0
M  V30 2290 N 221.848 -0.768179 5.56826 0
M  V30 2291 H 213.999 0.736108 1.99237 0
M  V30 2292 H 216.262 0.269182 0.90898 0
M  V30 2293 H 215.968 0.417217 3.49217 0
M  V30 2294 H 215.842 -1.33263 3.52875 0
M  V30 2295 H 218.229 -1.48697 2.54899 0
M  V30 2296 H 218.31 0.280581 2.54257 0
M  V30 2297 H 217.954 0.283812 5.07106 0
M  V30 2298 H 217.884 -1.49619 5.04898 0
M  V30 2299 H 220.375 -0.68061 3.7172 0
M  V30 2300 H 220.688 -0.772215 7.68932 0
M  V30 2301 H 219.033 -0.701389 6.91452 0
M  V30 2302 H 222.224 -0.760051 4.61888 0
M  V30 2303 H 222.397 -0.80205 6.43017 0
M  V30 2304 N 215.803 -1.52179 -0.40978 0
M  V30 2305 C 216.766 -1.74853 -1.48186 0
M  V30 2306 C 217.766 -0.618417 -1.48433 0
M  V30 2307 O 218.956 -0.886286 -1.49969 0
M  V30 2308 C 216.088 -1.8303 -2.87598 0
M  V30 2309 H 217.281 -2.70559 -1.29374 0
M  V30 2310 H 214.834 -1.42586 -0.640233 0
M  V30 2311 H 215.569 -0.89236 -3.11781 0
M  V30 2312 H 215.354 -2.65187 -2.88822 0
M  V30 2313 H 216.844 -2.02316 -3.65319 0
M  V30 2314 N 217.281 0.66697 -1.42791 0
M  V30 2315 C 218.511 1.45294 -1.46878 0
M  V30 2316 C 218.919 1.89027 -0.0809861 0
M  V30 2317 O 218.262 1.59219 0.916246 0
M  V30 2318 C 218.324 2.72908 -2.34012 0
M  V30 2319 C 217.988 2.51203 -3.81767 0
M  V30 2320 C 218.985 2.15302 -4.73224 0
M  V30 2321 C 216.67 2.65954 -4.26115 0
M  V30 2322 C 218.664 1.94431 -6.07022 0
M  V30 2323 C 216.351 2.44699 -5.59969 0
M  V30 2324 C 217.349 2.08992 -6.5024 0
M  V30 2325 O 217.037 1.87948 -7.81621 0
M  V30 2326 H 216.769 0.453306 -0.501487 0
M  V30 2327 H 219.323 0.826232 -1.88049 0
M  V30 2328 H 217.553 3.38089 -1.87703 0
M  V30 2329 H 219.242 3.34816 -2.29462 0
M  V30 2330 H 220.008 2.03495 -4.40244 0
M  V30 2331 H 215.887 2.92724 -3.56137 0
M  V30 2332 H 219.431 1.66484 -6.77443 0
M  V30 2333 H 215.328 2.56105 -5.9252 0
M  V30 2334 H 216.096 2.02483 -7.93059 0
M  V30 2335 N 218.759 1.29093 0.90403 0
M  V30 2336 C 219.669 1.15727 2.0407 0
M  V30 2337 C 220.685 0.0815308 1.73809 0
M  V30 2338 O 221.861 0.292749 1.99261 0
M  V30 2339 C 218.926 0.830424 3.36608 0
M  V30 2340 C 217.987 1.98955 3.80415 0
M  V30 2341 C 217.22 1.6782 5.06628 0
M  V30 2342 O 217.443 0.597105 5.67266 0
M  V30 2343 O 216.377 2.52486 5.46383 0
M  V30 2344 H 220.203 2.11171 2.18267 0
M  V30 2345 H 217.788 1.08504 1.027 0
M  V30 2346 H 219.67 0.662521 4.16159 0
M  V30 2347 H 218.345 -0.0942678 3.23563 0
M  V30 2348 H 217.252 2.21267 3.01648 0
M  V30 2349 H 218.585 2.89529 3.98037 0
M  V30 2350 N 220.237 -1.11381 1.11499 0
M  V30 2351 C 221.467 -1.86663 0.885464 0
M  V30 2352 C 221.875 -1.80464 -0.568281 0
M  V30 2353 O 221.218 -1.18445 -1.40415 0
M  V30 2354 C 221.28 -3.36337 1.26956 0
M  V30 2355 C 220.944 -3.66304 2.73259 0
M  V30 2356 C 221.941 -3.63733 3.71476 0
M  V30 2357 C 219.626 -3.9529 3.09921 0
M  V30 2358 C 221.62 -3.89725 5.04374 0
M  V30 2359 C 219.307 -4.20941 4.43004 0
M  V30 2360 C 220.305 -4.18147 5.40039 0
M  V30 2361 O 219.993 -4.43153 6.70724 0
M  V30 2362 H 219.725 -0.597114 0.316908 0
M  V30 2363 H 222.279 -1.41782 1.48617 0
M  V30 2364 H 220.509 -3.81826 0.611999 0
M  V30 2365 H 222.198 -3.92986 1.01573 0
M  V30 2366 H 222.964 -3.41389 3.44498 0
M  V30 2367 H 218.843 -3.966 2.35009 0
M  V30 2368 H 222.387 -3.8746 5.80104 0
M  V30 2369 H 218.284 -4.42761 4.69716 0
M  V30 2370 H 219.052 -4.60717 6.76522 0
M  V30 2371 N 221.715 -0.905404 -1.28997 0
M  V30 2372 C 222.645 -0.404212 -2.29975 0
M  V30 2373 C 223.626 0.523784 -1.61835 0
M  V30 2374 O 224.811 0.433298 -1.89304 0
M  V30 2375 C 221.941 0.364042 -3.45387 0
M  V30 2376 C 220.895 -0.474048 -4.25367 0
M  V30 2377 C 220.221 0.422045 -5.33032 0
M  V30 2378 C 221.521 -1.72696 -4.92923 0
M  V30 2379 H 223.215 -1.24807 -2.72146 0
M  V30 2380 H 220.761 -0.601585 -1.30832 0
M  V30 2381 H 222.714 0.725447 -4.15109 0
M  V30 2382 H 221.438 1.24174 -3.02074 0
M  V30 2383 H 220.097 -0.81786 -3.57361 0
M  V30 2384 H 219.745 1.29804 -4.85963 0
M  V30 2385 H 219.445 -0.135057 -5.87445 0
M  V30 2386 H 220.969 0.779517 -6.05604 0
M  V30 2387 H 222.383 -1.43495 -5.55051 0
M  V30 2388 H 220.78 -2.22582 -5.57295 0
M  V30 2389 H 221.85 -2.45964 -4.17887 0
M  V30 2390 N 223.193 1.4272 -0.668489 0
M  V30 2391 C 224.103 2.34596 0.0139753 0
M  V30 2392 C 225.119 1.5474 0.795703 0
M  V30 2393 O 226.295 1.87334 0.739466 0
M  V30 2394 C 223.36 3.33202 0.957982 0
M  V30 2395 C 222.421 4.28957 0.17149 0
M  V30 2396 C 221.654 5.22853 1.07053 0
M  V30 2397 O 221.877 5.21531 2.31001 0
M  V30 2398 O 220.811 5.9952 0.534727 0
M  V30 2399 H 224.637 2.9448 -0.742661 0
M  V30 2400 H 222.222 1.43117 -0.428705 0
M  V30 2401 H 224.104 3.93796 1.50008 0
M  V30 2402 H 222.779 2.758 1.69458 0
M  V30 2403 H 221.686 3.71796 -0.414558 0
M  V30 2404 H 223.019 4.89383 -0.52586 0
M  V30 2405 N 224.671 0.411399 1.52136 0
M  V30 2406 C 225.619 -0.427633 2.28635 0
M  V30 2407 C 226.613 -1.04383 1.33419 0
M  V30 2408 O 227.819 -0.981772 1.50868 0
M  V30 2409 H 224.194 -0.156689 0.735495 0
M  V30 2410 H 226.165 0.238761 2.97443 0
M  V30 2411 C 224.914 -1.53082 3.12188 0
M  V30 2412 H 224.237 -1.06601 3.85326 0
M  V30 2413 H 225.677 -2.09167 3.68816 0
M  V30 2414 C 224.136 -2.49946 2.25895 0
M  V30 2415 O 224.666 -3.53884 1.90076 0
M  V30 2416 N 222.872 -2.2021 1.8962 0
M  V30 2417 H 222.419 -1.35719 2.18948 0
M  V30 2418 H 222.377 -2.85266 1.32176 0
M  V30 2419 N 226.149 -1.5696 0.141893 0
M  V30 2420 C 227.059 -2.20066 -0.812905 0
M  V30 2421 C 228.075 -1.18344 -1.27557 0
M  V30 2422 O 229.251 -1.50902 -1.33381 0
M  V30 2423 C 226.316 -2.80583 -2.03652 0
M  V30 2424 C 225.377 -3.97414 -1.62359 0
M  V30 2425 C 224.61 -4.55036 -2.78887 0
M  V30 2426 O 224.833 -4.11538 -3.94959 0
M  V30 2427 O 223.767 -5.45376 -2.54653 0
M  V30 2428 H 227.593 -3.02157 -0.305746 0
M  V30 2429 H 225.178 -1.49159 -0.0848799 0
M  V30 2430 H 227.06 -3.19067 -2.75272 0
M  V30 2431 H 225.735 -2.01508 -2.5333 0
M  V30 2432 H 224.642 -3.63656 -0.877775 0
M  V30 2433 H 225.975 -4.77994 -1.17401 0
M  V30 2434 N 227.627 0.131896 -1.57047 0
M  V30 2435 C 228.557 1.16384 -2.02428 0
M  V30 2436 C 229.538 1.43936 -0.90644 0
M  V30 2437 O 230.723 1.54599 -1.17528 0
M  V30 2438 C 227.853 2.49328 -2.4177 0
M  V30 2439 C 226.807 2.36266 -3.56879 0
M  V30 2440 C 226.133 3.74057 -3.8208 0
M  V30 2441 C 227.433 1.834 -4.89042 0
M  V30 2442 H 229.127 0.786433 -2.88887 0
M  V30 2443 H 226.673 0.376855 -1.38981 0
M  V30 2444 H 228.626 3.21759 -2.7212 0
M  V30 2445 H 227.35 2.88934 -1.52266 0
M  V30 2446 H 226.009 1.66286 -3.26718 0
M  V30 2447 H 225.657 4.11125 -2.89803 0
M  V30 2448 H 225.357 3.66174 -4.59554 0
M  V30 2449 H 226.881 4.48012 -4.1487 0
M  V30 2450 H 228.295 2.45636 -5.18011 0
M  V30 2451 H 226.692 1.8637 -5.70426 0
M  V30 2452 H 227.762 0.790662 -4.7841 0
M  V30 2453 N 229.106 1.52395 0.401703 0
M  V30 2454 C 230.331 1.70972 1.17403 0
M  V30 2455 C 230.756 0.421615 1.83314 0
M  V30 2456 O 230.114 -0.621564 1.70312 0
M  V30 2457 C 230.162 2.85151 2.20728 0
M  V30 2458 O 229.266 2.51238 3.27037 0
M  V30 2459 H 228.607 0.568927 0.342372 0
M  V30 2460 H 231.137 1.99131 0.469891 0
M  V30 2461 H 231.147 3.10279 2.64936 0
M  V30 2462 H 229.822 3.78603 1.7214 0
M  V30 2463 H 228.399 2.36808 2.88057 0
M  V30 2464 N 230.584 -0.659388 1.43143 0
M  V30 2465 C 231.514 -1.78422 1.50625 0
M  V30 2466 C 232.495 -1.66216 0.361443 0
M  V30 2467 O 233.68 -1.85404 0.577834 0
M  V30 2468 C 230.81 -3.16815 1.42287 0
M  V30 2469 C 229.764 -3.43777 2.54954 0
M  V30 2470 C 229.09 -4.81905 2.31671 0
M  V30 2471 C 230.39 -3.39134 3.97222 0
M  V30 2472 H 232.084 -1.72417 2.44771 0
M  V30 2473 H 229.63 -0.828084 1.17808 0
M  V30 2474 H 231.583 -3.95253 1.46127 0
M  V30 2475 H 230.307 -3.23534 0.446435 0
M  V30 2476 H 228.966 -2.67707 2.50457 0
M  V30 2477 H 228.614 -4.85294 1.32284 0
M  V30 2478 H 228.314 -5.00906 3.07192 0
M  V30 2479 H 229.838 -5.62609 2.37284 0
M  V30 2480 H 231.252 -4.07518 4.03239 0
M  V30 2481 H 229.649 -3.69671 4.72719 0
M  V30 2482 H 230.719 -2.37426 4.22797 0
M  V30 2483 N 232.062 -1.29571 -0.897171 0
M  V30 2484 C 233.473 -1.15964 -1.46319 0
M  V30 2485 C 233.824 0.244267 -1.94674 0
M  V30 2486 O 232.949 1.13998 -1.83939 0
M  V30 2487 C 233.544 -2.09906 -2.65942 0
M  V30 2488 C 232.103 -2.00314 -3.18671 0
M  V30 2489 C 231.25 -2.00687 -1.91363 0
M  V30 2490 H 234.201 -1.42019 -0.708268 0
M  V30 2491 H 234.222 -1.67276 -3.41759 0
M  V30 2492 H 233.734 -3.12075 -2.30718 0
M  V30 2493 H 231.835 -1.01242 -3.58582 0
M  V30 2494 H 231.948 -2.88102 -3.82798 0
M  V30 2495 H 230.312 -1.45319 -2.09175 0
M  V30 2496 H 231.095 -3.04566 -1.58413 0
M  V30 2497 N 233.54 1.10788 -1.12088 0
M  V30 2498 C 234.45 2.20599 -0.798338 0
M  V30 2499 C 235.466 1.72712 0.21135 0
M  V30 2500 O 236.642 2.01348 0.0458477 0
M  V30 2501 C 233.707 3.45771 -0.253674 0
M  V30 2502 C 232.768 4.08411 -1.32283 0
M  V30 2503 C 232.001 5.27608 -0.80406 0
M  V30 2504 O 232.224 5.69241 0.363478 0
M  V30 2505 O 231.158 5.8101 -1.57198 0
M  V30 2506 H 234.984 2.50614 -1.7154 0
M  V30 2507 H 232.569 1.19454 -0.897275 0
M  V30 2508 H 234.451 4.21376 0.0453691 0
M  V30 2509 H 233.126 3.1739 0.636005 0
M  V30 2510 H 232.033 3.34507 -1.67499 0
M  V30 2511 H 233.366 4.40986 -2.18614 0
M  V30 2512 N 235.018 0.912232 1.28515 0
M  V30 2513 C 235.928 0.404506 2.31086 0
M  V30 2514 C 236.944 -0.50707 1.66448 0
M  V30 2515 O 238.12 -0.393624 1.97516 0
M  V30 2516 C 235.185 -0.348572 3.44943 0
M  V30 2517 C 234.246 0.59604 4.25142 0
M  V30 2518 C 233.479 -0.121194 5.33562 0
M  V30 2519 O 233.702 -1.34317 5.5436 0
M  V30 2520 O 232.636 0.542716 5.99448 0
M  V30 2521 H 236.462 1.25579 2.76521 0
M  V30 2522 H 234.047 0.676998 1.33181 0
M  V30 2523 H 235.929 -0.77395 4.14232 0
M  V30 2524 H 234.604 -1.17571 3.01594 0
M  V30 2525 H 233.511 1.07079 3.58448 0
M  V30 2526 H 234.844 1.38995 4.72167 0
M  V30 2527 N 236.496 -1.42363 0.676048 0
M  V30 2528 C 237.428 -2.29164 -0.0404605 0
M  V30 2529 C 238.441 -1.43747 -0.764245 0
M  V30 2530 O 239.63 -1.67453 -0.618195 0
M  V30 2531 C 236.73 -3.21196 -1.08103 0
M  V30 2532 C 235.903 -4.35273 -0.430812 0
M  V30 2533 C 234.962 -5.08017 -1.37133 0
M  V30 2534 O 233.988 -5.62494 -0.87116 0
M  V30 2535 N 235.19 -5.13647 -2.70456 0
M  V30 2536 H 237.955 -2.91298 0.704667 0
M  V30 2537 H 235.516 -1.53303 0.520559 0
M  V30 2538 H 237.508 -3.66728 -1.71152 0
M  V30 2539 H 236.078 -2.60505 -1.72788 0
M  V30 2540 H 235.298 -3.92372 0.379209 0
M  V30 2541 H 236.586 -5.08795 0.0221132 0
M  V30 2542 H 235.984 -4.708 -3.1363 0
M  V30 2543 H 234.541 -5.62821 -3.28749 0
M  V30 2544 N 237.974 -0.419461 -1.51915 0
M  V30 2545 C 239.39 -0.0708431 -1.59443 0
M  V30 2546 C 239.59 1.41796 -1.43164 0
M  V30 2547 O 238.646 2.18596 -1.26381 0
M  V30 2548 C 239.959 -0.574991 -2.95151 0
M  V30 2549 C 241.507 -0.533867 -3.08413 0
M  V30 2550 C 241.982 -1.01469 -4.46618 0
M  V30 2551 N 243.473 -0.971939 -4.52888 0
M  V30 2552 C 244.208 -1.31505 -5.58116 0
M  V30 2553 N 243.704 -1.73014 -6.70849 0
M  V30 2554 N 245.497 -1.23436 -5.48379 0
M  V30 2555 H 237.648 -1.38836 -1.60743 0
M  V30 2556 H 239.911 -0.570998 -0.756747 0
M  V30 2557 H 239.617 -1.61597 -3.12377 0
M  V30 2558 H 239.491 0.00979777 -3.77199 0
M  V30 2559 H 241.878 0.498086 -2.90866 0
M  V30 2560 H 241.959 -1.15484 -2.28248 0
M  V30 2561 H 241.603 -2.04502 -4.6491 0
M  V30 2562 H 241.533 -0.370433 -5.25295 0
M  V30 2563 H 244.024 -0.666893 -3.71969 0
M  V30 2564 H 244.337 -1.97479 -7.47143 0
M  V30 2565 H 242.682 -1.76926 -6.72103 0
M  V30 2566 H 245.873 -0.908869 -4.59192 0
M  V30 2567 H 246.046 -1.50506 -6.30279 0
M  V30 2568 N 239.452 1.56882 -0.150215 0
M  V30 2569 C 240.362 2.20494 0.801222 0
M  V30 2570 C 241.378 1.19019 1.26927 0
M  V30 2571 O 242.554 1.51607 1.32579 0
M  V30 2572 C 239.619 2.81659 2.02161 0
M  V30 2573 C 238.68 3.9827 1.60249 0
M  V30 2574 C 237.913 4.56508 2.7647 0
M  V30 2575 O 238.136 4.13627 3.92771 0
M  V30 2576 O 237.07 5.46719 2.51757 0
M  V30 2577 H 240.896 3.02315 0.289717 0
M  V30 2578 H 238.481 1.49202 0.0769684 0
M  V30 2579 H 240.363 3.20522 2.73576 0
M  V30 2580 H 239.038 2.02849 2.52258 0
M  V30 2581 H 237.945 3.64117 0.858477 0
M  V30 2582 H 239.278 4.78609 1.14864 0
M  V30 2583 N 240.93 -0.123565 1.57115 0
M  V30 2584 C 242.16 -0.845233 1.88519 0
M  V30 2585 C 242.568 -1.74168 0.739064 0
M  V30 2586 O 241.911 -1.81244 -0.299355 0
M  V30 2587 C 241.973 -1.73452 3.14888 0
M  V30 2588 C 241.637 -1.01285 4.45635 0
M  V30 2589 C 242.634 -0.355774 5.18681 0
M  V30 2590 C 240.319 -0.99538 4.92339 0
M  V30 2591 C 242.313 0.309114 6.3665 0
M  V30 2592 C 240 -0.32669 6.10226 0
M  V30 2593 C 240.998 0.324406 6.82229 0
M  V30 2594 O 240.686 0.982437 7.97874 0
M  V30 2595 H 240.418 -0.248534 0.628655 0
M  V30 2596 H 242.972 -0.113907 2.05084 0
M  V30 2597 H 241.202 -2.50737 2.94394 0
M  V30 2598 H 242.891 -2.33021 3.32349 0
M  V30 2599 H 243.657 -0.360918 4.83655 0
M  V30 2600 H 239.536 -1.49159 4.36202 0
M  V30 2601 H 243.08 0.8179 6.92789 0
M  V30 2602 H 238.977 -0.319294 6.4471 0
M  V30 2603 H 239.745 0.886454 8.13686 0
M  V30 2604 N 242.408 -1.52605 -0.393616 0
M  V30 2605 C 243.356 -1.77688 -1.50099 0
M  V30 2606 C 244.35 -0.644615 -1.56656 0
M  V30 2607 O 245.556 -0.826997 -1.59877 0
M  V30 2608 H 241.931 -0.562159 -0.499481 0
M  V30 2609 H 243.902 -2.7043 -1.26135 0
M  V30 2610 C 242.651 -1.95858 -2.87289 0
M  V30 2611 H 241.974 -2.8241 -2.82992 0
M  V30 2612 H 243.414 -2.174 -3.64024 0
M  V30 2613 C 241.873 -0.729848 -3.28899 0
M  V30 2614 O 242.403 0.0949217 -4.01588 0
M  V30 2615 N 240.609 -0.561283 -2.85128 0
M  V30 2616 H 240.156 -1.23357 -2.26143 0
M  V30 2617 H 240.114 0.2595 -3.13327 0
M  V30 2618 N 243.887 0.651787 -1.4349 0
M  V30 2619 C 245.164 1.40909 -1.35661 0
M  V30 2620 C 245.544 2.11099 -0.00511733 0
M  V30 2621 O 244.892 2.04892 1.0115 0
M  V30 2622 C 245.102 2.3926 -2.54078 0
M  V30 2623 C 246.45 3.03217 -2.97228 0
M  V30 2624 O 247.474 2.49588 -2.54135 0
M  V30 2625 O 246.333 4.00455 -3.71885 0
M  V30 2626 H 243.427 0.629625 -0.536191 0
M  V30 2627 H 245.973 0.678575 -1.55542 0
M  V30 2628 H 244.745 1.86352 -3.44076 0
M  V30 2629 H 244.368 3.1976 -2.36303 0
M  V30 2630 N 245.365 1.30045 0.890287 0
M  V30 2631 C 246.59 1.21598 1.68014 0
M  V30 2632 C 247.015 -0.218678 1.86825 0
M  V30 2633 O 246.373 -1.15756 1.39536 0
M  V30 2634 C 246.421 1.94434 3.03691 0
M  V30 2635 O 245.525 1.2678 3.92429 0
M  V30 2636 H 244.866 0.420856 0.513592 0
M  V30 2637 H 247.396 1.71775 1.11151 0
M  V30 2638 H 247.406 2.03251 3.5377 0
M  V30 2639 H 246.081 2.98777 2.89318 0
M  V30 2640 H 244.658 1.26282 3.50866 0
M  V30 2641 N 246.843 -1.10192 1.12674 0
M  V30 2642 C 248.068 -1.86523 0.906853 0
M  V30 2643 C 248.493 -1.80221 -0.538711 0
M  V30 2644 O 247.851 -1.17396 -1.38158 0
M  V30 2645 C 247.899 -3.32758 1.3894 0
M  V30 2646 O 247.003 -4.08449 0.5695 0
M  V30 2647 H 246.344 -0.578678 0.325619 0
M  V30 2648 H 248.874 -1.39203 1.49946 0
M  V30 2649 H 248.884 -3.83608 1.38958 0
M  V30 2650 H 247.559 -3.36661 2.44197 0
M  V30 2651 H 246.136 -3.67427 0.636528 0
M  V30 2652 N 248.321 -0.919034 -1.28029 0
M  V30 2653 C 249.546 -0.570357 -1.99403 0
M  V30 2654 C 249.971 0.842486 -1.68178 0
M  V30 2655 O 249.329 1.56391 -0.917141 0
M  V30 2656 C 249.377 -0.792541 -3.51783 0
M  V30 2657 O 248.481 0.145988 -4.12142 0
M  V30 2658 H 247.822 -0.220555 -0.6263 0
M  V30 2659 H 250.352 -1.23592 -1.63053 0
M  V30 2660 H 250.362 -0.704708 -4.01868 0
M  V30 2661 H 249.037 -1.82247 -3.73844 0
M  V30 2662 H 247.614 0.00897528 -3.72899 0
M  V30 2663 N 249.799 1.42003 -0.683588 0
M  V30 2664 C 251.048 2.00638 -0.206681 0
M  V30 2665 C 251.361 1.5472 1.19671 0
M  V30 2666 O 252.567 2.05833 1.77045 0
M  V30 2667 C 251.023 3.58487 -0.318632 0
M  V30 2668 C 250.631 4.1339 -1.72663 0
M  V30 2669 C 252.375 4.24384 0.0991141 0
M  V30 2670 C 250.282 5.63633 -1.79087 0
M  V30 2671 H 249.212 0.750408 -0.0735107 0
M  V30 2672 H 251.863 1.62624 -0.850048 0
M  V30 2673 H 250.245 3.94047 0.392781 0
M  V30 2674 H 251.419 3.89273 -2.46583 0
M  V30 2675 H 249.734 3.59976 -2.09299 0
M  V30 2676 H 252.331 5.34652 0.0713833 0
M  V30 2677 H 252.674 4.00505 1.13586 0
M  V30 2678 H 253.207 3.93816 -0.561599 0
M  V30 2679 H 249.946 5.92323 -2.80774 0
M  V30 2680 H 249.466 5.89714 -1.09535 0
M  V30 2681 H 251.145 6.28201 -1.5483 0
M  V30 2682 N 251.277 0.427512 1.51691 0
M  V30 2683 C 252.502 -0.143601 2.06902 0
M  V30 2684 C 252.927 -1.36536 1.29382 0
M  V30 2685 O 252.285 -1.78289 0.329043 0
M  V30 2686 C 252.333 -0.454207 3.57728 0
M  V30 2687 O 251.437 -1.54228 3.82475 0
M  V30 2688 H 250.778 -0.00617128 0.663971 0
M  V30 2689 H 253.308 0.606014 1.95419 0
M  V30 2690 H 253.318 -0.707525 4.01818 0
M  V30 2691 H 251.993 0.438812 4.13579 0
M  V30 2692 H 250.57 -1.2797 3.50254 0
M  V30 2693 N 252.755 -1.56801 0.158532 0
M  V30 2694 C 253.983 -2.00859 -0.496303 0
M  V30 2695 C 254.398 -1.03871 -1.57659 0
M  V30 2696 O 253.755 -0.0375165 -1.82461 0
M  V30 2697 C 253.806 -3.4479 -1.08638 0
M  V30 2698 O 253.527 -4.38072 -0.0492322 0
M  V30 2699 C 255.028 -4.04185 -1.8207 0
M  V30 2700 H 252.248 -0.65864 -0.128199 0
M  V30 2701 H 254.792 -2.02885 0.256506 0
M  V30 2702 H 252.947 -3.43579 -1.78975 0
M  V30 2703 H 253.361 -5.2227 -0.483102 0
M  V30 2704 H 254.835 -5.06857 -2.18633 0
M  V30 2705 H 255.312 -3.45549 -2.71095 0
M  V30 2706 H 255.918 -4.0906 -1.16405 0
M  V30 2707 N 254.233 0.115231 -1.57178 0
M  V30 2708 C 255.48 0.822351 -1.8505 0
M  V30 2709 C 255.808 1.79701 -0.744168 0
M  V30 2710 O 255.063 1.93909 0.26414 0
M  V30 2711 C 255.362 1.60324 -3.19423 0
M  V30 2712 C 255.028 0.772536 -4.44233 0
M  V30 2713 C 253.69 0.543468 -4.78121 0
M  V30 2714 C 256.042 0.193746 -5.2084 0
M  V30 2715 C 253.37 -0.274583 -5.86057 0
M  V30 2716 C 255.722 -0.611517 -6.29637 0
M  V30 2717 C 254.386 -0.850867 -6.62055 0
M  V30 2718 H 253.656 0.30092 -0.677147 0
M  V30 2719 H 256.303 0.0845802 -1.91313 0
M  V30 2720 H 254.608 2.41203 -3.08753 0
M  V30 2721 H 256.305 2.1544 -3.38211 0
M  V30 2722 H 252.895 0.96117 -4.17683 0
M  V30 2723 H 257.079 0.357926 -4.95008 0
M  V30 2724 H 252.335 -0.469206 -6.09597 0
M  V30 2725 H 256.509 -1.06697 -6.88178 0
M  V30 2726 H 254.136 -1.48657 -7.45523 0
M  V30 2727 N 255.711 1.52812 0.385517 0
M  V30 2728 C 256.674 1.77188 1.45386 0
M  V30 2729 C 257.674 0.641953 1.4743 0
M  V30 2730 O 258.864 0.910033 1.4854 0
M  V30 2731 C 255.996 1.87582 2.8465 0
M  V30 2732 H 257.189 2.72583 1.25054 0
M  V30 2733 H 254.742 1.43586 0.617467 0
M  V30 2734 H 255.477 0.941849 3.10322 0
M  V30 2735 H 255.262 2.69748 2.84567 0
M  V30 2736 H 256.752 2.08102 3.62054 0
M  V30 2737 N 257.189 -0.644168 1.43834 0
M  V30 2738 C 258.121 -1.76955 1.45669 0
M  V30 2739 C 259.134 -1.58956 0.351666 0
M  V30 2740 O 260.323 -1.6751 0.616644 0
M  V30 2741 C 257.423 -3.14507 1.26248 0
M  V30 2742 C 256.596 -3.59083 2.49757 0
M  V30 2743 C 255.655 -4.75467 2.25427 0
M  V30 2744 O 254.681 -4.84444 2.98836 0
M  V30 2745 N 255.883 -5.66289 1.27661 0
M  V30 2746 H 258.648 -1.75856 2.42682 0
M  V30 2747 H 256.209 -0.828312 1.39106 0
M  V30 2748 H 258.201 -3.90067 1.0784 0
M  V30 2749 H 256.771 -3.10325 0.376478 0
M  V30 2750 H 255.991 -2.7387 2.8353 0
M  V30 2751 H 257.279 -3.85613 3.31934 0
M  V30 2752 H 256.677 -5.61718 0.670064 0
M  V30 2753 H 255.234 -6.41533 1.15234 0
M  V30 2754 N 258.668 -1.30515 -0.883378 0
M  V30 2755 C 259.945 -1.10086 -1.6168 0
M  V30 2756 C 260.325 0.349269 -2.08191 0
M  V30 2757 O 259.673 1.34105 -1.85008 0
M  V30 2758 C 259.883 -2.10315 -2.78511 0
M  V30 2759 C 261.231 -2.42119 -3.48803 0
M  V30 2760 O 262.255 -2.08638 -2.88702 0
M  V30 2761 O 261.114 -2.99396 -4.57192 0
M  V30 2762 H 258.208 -0.422907 -0.710689 0
M  V30 2763 H 260.754 -1.41947 -0.930015 0
M  V30 2764 H 259.526 -3.07917 -2.41459 0
M  V30 2765 H 259.149 -1.79282 -3.54886 0
M  V30 2766 N 260.146 1.09593 -1.13257 0
M  V30 2767 C 261.109 2.14359 -0.811358 0
M  V30 2768 C 262.109 1.59808 0.178377 0
M  V30 2769 O 263.299 1.74132 -0.0484911 0
M  V30 2770 C 260.431 3.40269 -0.207276 0
M  V30 2771 H 261.624 2.44284 -1.73969 0
M  V30 2772 H 259.177 1.25102 -0.936973 0
M  V30 2773 H 259.912 3.15969 0.73036 0
M  V30 2774 H 259.697 3.81154 -0.919992 0
M  V30 2775 H 261.187 4.176 0.000667944 0
M  V30 2776 N 261.624 0.925811 1.2754 0
M  V30 2777 C 262.87 0.566092 1.94739 0
M  V30 2778 C 263.203 -0.890057 1.72603 0
M  V30 2779 O 262.478 -1.63467 1.05399 0
M  V30 2780 C 262.761 0.89054 3.48915 0
M  V30 2781 C 262.614 2.4003 3.80402 0
M  V30 2782 C 263.933 0.395101 4.38323 0
M  V30 2783 H 261.052 0.20714 0.707292 0
M  V30 2784 H 263.694 1.15725 1.50691 0
M  V30 2785 H 261.844 0.387452 3.86563 0
M  V30 2786 H 263.516 2.97494 3.52555 0
M  V30 2787 H 261.759 2.85028 3.2702 0
M  V30 2788 H 262.43 2.57785 4.8811 0
M  V30 2789 H 264.906 0.826241 4.07814 0
M  V30 2790 H 263.782 0.651086 5.45025 0
M  V30 2791 H 264.043 -0.704798 4.36446 0
M  V30 2792 N 263.102 -1.41638 0.69111 0
M  V30 2793 C 264.034 -2.29194 -0.0161523 0
M  V30 2794 C 265.047 -1.44549 -0.748955 0
M  V30 2795 O 266.236 -1.681 -0.6004 0
M  V30 2796 C 263.336 -3.22325 -1.0469 0
M  V30 2797 C 262.509 -4.35706 -0.384621 0
M  V30 2798 C 261.568 -5.09443 -1.31737 0
M  V30 2799 O 260.594 -5.63386 -0.811451 0
M  V30 2800 N 261.796 -5.16487 -2.64993 0
M  V30 2801 H 264.561 -2.90534 0.735523 0
M  V30 2802 H 262.122 -1.52742 0.53679 0
M  V30 2803 H 264.114 -3.68522 -1.67252 0
M  V30 2804 H 262.684 -2.62323 -1.70015 0
M  V30 2805 H 261.904 -3.91948 0.420804 0
M  V30 2806 H 263.192 -5.08743 0.0760765 0
M  V30 2807 H 262.59 -4.741 -3.08619 0
M  V30 2808 H 261.147 -5.66276 -3.22761 0
M  V30 2809 N 264.58 -0.43555 -1.51462 0
M  V30 2810 C 265.527 0.376797 -2.27703 0
M  V30 2811 C 266.497 1.01838 -1.31219 0
M  V30 2812 O 267.682 1.03762 -1.60119 0
M  V30 2813 C 264.822 1.47301 -3.12084 0
M  V30 2814 C 263.935 0.849744 -4.2356 0
M  V30 2815 C 263.07 1.92086 -4.95254 0
M  V30 2816 C 262.109 1.27593 -5.98654 0
M  V30 2817 N 261.246 2.28833 -6.63762 0
M  V30 2818 H 266.086 -0.279734 -2.96684 0
M  V30 2819 H 263.623 -0.149795 -1.46335 0
M  V30 2820 H 265.581 2.11984 -3.59331 0
M  V30 2821 H 264.211 2.0992 -2.45221 0
M  V30 2822 H 263.263 0.0912529 -3.80291 0
M  V30 2823 H 264.575 0.338878 -4.97648 0
M  V30 2824 H 263.729 2.64435 -5.46039 0
M  V30 2825 H 262.468 2.46545 -4.20793 0
M  V30 2826 H 261.473 0.537893 -5.47162 0
M  V30 2827 H 262.698 0.738693 -6.7507 0
M  V30 2828 H 260.644 2.82375 -5.92115 0
M  V30 2829 H 260.561 1.82632 -7.33608 0
M  V30 2830 H 261.829 3.00671 -7.19178 0
M  V30 2831 N 266.058 1.56714 -0.166846 0
M  V30 2832 C 267.021 2.16539 0.751232 0
M  V30 2833 C 268.021 1.11228 1.16125 0
M  V30 2834 O 269.211 1.36765 1.07894 0
M  V30 2835 C 266.343 2.74462 2.02196 0
M  V30 2836 H 267.536 2.99013 0.230499 0
M  V30 2837 H 265.089 1.56081 0.0826982 0
M  V30 2838 H 265.824 1.95709 2.58589 0
M  V30 2839 H 265.609 3.51527 1.73698 0
M  V30 2840 H 267.099 3.20489 2.67725 0
M  V30 2841 N 267.536 -0.106894 1.57237 0
M  V30 2842 C 268.766 -0.825191 1.89405 0
M  V30 2843 C 269.174 -1.73374 0.757496 0
M  V30 2844 O 268.517 -1.81552 -0.280115 0
M  V30 2845 C 268.579 -1.70102 3.1671 0
M  V30 2846 C 268.243 -0.965523 4.46684 0
M  V30 2847 C 269.24 -0.300741 5.19029 0
M  V30 2848 C 266.925 -0.943105 4.93367 0
M  V30 2849 C 268.919 0.376622 6.36286 0
M  V30 2850 C 266.606 -0.261949 6.10538 0
M  V30 2851 C 267.604 0.396748 6.81847 0
M  V30 2852 O 267.292 1.06701 7.96787 0
M  V30 2853 H 267.024 -0.241852 0.631255 0
M  V30 2854 H 269.578 -0.0921491 2.05193 0
M  V30 2855 H 267.808 -2.47601 2.97036 0
M  V30 2856 H 269.497 -2.29483 3.34802 0
M  V30 2857 H 270.263 -0.309599 4.84011 0
M  V30 2858 H 266.142 -1.44524 4.3776 0
M  V30 2859 H 269.686 0.891334 6.91882 0
M  V30 2860 H 265.583 -0.250896 6.45012 0
M  V30 2861 H 266.351 0.972707 8.127 0
M  V30 2862 N 269.014 -1.53014 -0.377408 0
M  V30 2863 C 270.26 -1.68872 -1.12294 0
M  V30 2864 C 270.593 -0.433224 -1.89306 0
M  V30 2865 O 269.868 0.569258 -1.85983 0
M  V30 2866 C 270.151 -2.93115 -2.09179 0
M  V30 2867 C 270.004 -4.28794 -1.35853 0
M  V30 2868 C 271.323 -3.12928 -3.09458 0
M  V30 2869 H 268.442 -0.614518 -0.406862 0
M  V30 2870 H 271.084 -1.85633 -0.40503 0
M  V30 2871 H 269.234 -2.78956 -2.70399 0
M  V30 2872 H 270.906 -4.54742 -0.775082 0
M  V30 2873 H 269.149 -4.28744 -0.660364 0
M  V30 2874 H 269.82 -5.11837 -2.06706 0
M  V30 2875 H 272.296 -3.26194 -2.58334 0
M  V30 2876 H 271.172 -4.01316 -3.74482 0
M  V30 2877 H 271.433 -2.27669 -3.78971 0
M  V30 2878 N 270.492 0.636531 -1.44174 0
M  V30 2879 C 271.422 1.76003 -1.53444 0
M  V30 2880 C 272.403 1.65619 -0.387841 0
M  V30 2881 O 273.588 1.84461 -0.607257 0
M  V30 2882 C 270.718 3.14511 -1.4731 0
M  V30 2883 C 269.672 3.39677 -2.60391 0
M  V30 2884 C 268.998 4.78159 -2.39308 0
M  V30 2885 C 270.298 3.32772 -4.02567 0
M  V30 2886 H 271.992 1.68501 -2.47483 0
M  V30 2887 H 269.538 0.809237 -1.19111 0
M  V30 2888 H 271.491 3.92878 -1.52397 0
M  V30 2889 H 270.215 3.22783 -0.49785 0
M  V30 2890 H 268.874 2.63688 -2.54684 0
M  V30 2891 H 268.522 4.83128 -1.39988 0
M  V30 2892 H 268.222 4.95956 -3.15122 0
M  V30 2893 H 269.746 5.58762 -2.46205 0
M  V30 2894 H 271.16 4.01051 -4.09672 0
M  V30 2895 H 269.557 3.62104 -4.7854 0
M  V30 2896 H 270.627 2.30669 -4.2652 0
M  V30 2897 N 271.97 1.30982 0.876444 0
M  V30 2898 C 272.88 1.2003 2.01569 0
M  V30 2899 C 273.896 0.11838 1.73597 0
M  V30 2900 O 275.072 0.33495 1.98595 0
M  V30 2901 C 272.137 0.901637 3.34771 0
M  V30 2902 C 271.198 2.06979 3.76109 0
M  V30 2903 C 270.431 1.78529 5.02954 0
M  V30 2904 O 270.654 0.717296 5.65872 0
M  V30 2905 O 269.588 2.64019 5.40905 0
M  V30 2906 H 273.414 2.15753 2.13739 0
M  V30 2907 H 270.999 1.10658 1.00375 0
M  V30 2908 H 272.881 0.750645 4.1466 0
M  V30 2909 H 271.556 -0.0256141 3.2369 0
M  V30 2910 H 270.463 2.27616 2.96887 0
M  V30 2911 H 271.796 2.97907 3.91807 0
M  V30 2912 N 273.449 -1.08991 1.13837 0
M  V30 2913 C 274.379 -2.17771 0.842507 0
M  V30 2914 C 275.36 -1.6892 -0.20001 0
M  V30 2915 O 276.545 -1.94113 -0.0579731 0
M  V30 2916 C 273.675 -3.4589 0.312644 0
M  V30 2917 C 272.629 -4.08099 1.28992 0
M  V30 2918 C 271.955 -5.31098 0.619623 0
M  V30 2919 C 273.255 -4.50077 2.65005 0
M  V30 2920 H 274.949 -2.42777 1.75213 0
M  V30 2921 H 272.495 -1.16682 0.843875 0
M  V30 2922 H 274.448 -4.21297 0.0933043 0
M  V30 2923 H 273.172 -3.20419 -0.632382 0
M  V30 2924 H 271.831 -3.34717 1.49533 0
M  V30 2925 H 271.479 -5.0191 -0.33102 0
M  V30 2926 H 271.179 -5.73674 1.27167 0
M  V30 2927 H 272.703 -6.09224 0.409669 0
M  V30 2928 H 274.117 -5.16688 2.48407 0
M  V30 2929 H 272.514 -5.03553 3.26427 0
M  V30 2930 H 273.584 -3.62257 3.22332 0
M  V30 2931 N 274.927 -0.932562 -1.27047 0
M  V30 2932 C 275.86 -0.379774 -2.25018 0
M  V30 2933 C 276.838 0.526587 -1.53837 0
M  V30 2934 O 278.022 0.465992 -1.82649 0
M  V30 2935 C 275.149 0.455187 -3.35627 0
M  V30 2936 C 274.195 -0.388428 -4.24728 0
M  V30 2937 S 275.028 -1.80701 -5.04091 0
M  V30 2938 C 276.184 -0.979865 -6.18182 0
M  V30 2939 H 276.417 -1.2101 -2.71558 0
M  V30 2940 H 273.95 -0.735078 -1.35779 0
M  V30 2941 H 275.908 0.931052 -3.99802 0
M  V30 2942 H 274.569 1.26009 -2.87716 0
M  V30 2943 H 273.762 0.25089 -5.03375 0
M  V30 2944 H 273.364 -0.798649 -3.65373 0
M  V30 2945 H 275.656 -0.218115 -6.77149 0
M  V30 2946 H 276.599 -1.73951 -6.86401 0
M  V30 2947 H 277.007 -0.51973 -5.62102 0
M  V30 2948 N 276.405 1.4127 -0.698611 0
M  V30 2949 C 277.315 2.34573 -0.0357891 0
M  V30 2950 C 278.331 1.56393 0.762701 0
M  V30 2951 O 279.507 1.8886 0.699564 0
M  V30 2952 C 276.572 3.35159 0.887089 0
M  V30 2953 C 275.633 4.29225 0.0804634 0
M  V30 2954 C 274.866 5.25006 0.959387 0
M  V30 2955 O 275.089 5.26314 2.19886 0
M  V30 2956 O 274.023 6.00519 0.407439 0
M  V30 2957 H 277.849 2.92838 -0.804957 0
M  V30 2958 H 275.434 1.42175 -0.458966 0
M  V30 2959 H 277.316 3.9689 1.41621 0
M  V30 2960 H 275.991 2.79333 1.6357 0
M  V30 2961 H 274.898 3.70833 -0.493328 0
M  V30 2962 H 276.231 4.88157 -0.629547 0
M  V30 2963 N 277.883 0.443576 1.51229 0
M  V30 2964 C 279.131 -0.120557 2.0174 0
M  V30 2965 C 279.452 -1.42665 1.32935 0
M  V30 2966 O 278.722 -1.9028 0.465866 0
M  V30 2967 H 277.302 -0.0475426 0.745486 0
M  V30 2968 H 279.964 0.587711 1.85828 0
M  V30 2969 H 279.06 -0.291972 3.10731 0
M  V30 2970 N 279.361 -1.56624 0.175154 0
M  V30 2971 C 280.309 -2.19468 -0.770495 0
M  V30 2972 C 281.303 -1.15985 -1.23466 0
M  V30 2973 O 282.509 -1.34176 -1.19987 0
M  V30 2974 H 278.884 -0.703095 -0.266761 0
M  V30 2975 H 280.855 -2.97613 -0.216542 0
M  V30 2976 C 279.604 -2.85264 -1.98796 0
M  V30 2977 H 278.927 -3.64623 -1.63983 0
M  V30 2978 H 280.367 -3.327 -2.62843 0
M  V30 2979 C 278.826 -1.85239 -2.81404 0
M  V30 2980 O 279.356 -1.34024 -3.78682 0
M  V30 2981 N 277.562 -1.53911 -2.46495 0
M  V30 2982 H 277.109 -1.95751 -1.67449 0
M  V30 2983 H 277.067 -0.872382 -3.02054 0
M  V30 2984 N 280.839 0.0985539 -1.57292 0
M  V30 2985 C 282.067 0.816318 -1.90115 0
M  V30 2986 C 282.482 1.72451 -0.768509 0
M  V30 2987 O 281.839 1.80643 0.259687 0
M  V30 2988 C 281.89 1.63259 -3.22535 0
M  V30 2989 O 281.611 0.760934 -4.31441 0
M  V30 2990 C 283.112 2.45372 -3.69199 0
M  V30 2991 H 280.332 0.233595 -0.629027 0
M  V30 2992 H 282.876 0.0768229 -2.04356 0
M  V30 2993 H 281.031 2.32463 -3.09903 0
M  V30 2994 H 281.445 1.32595 -5.07463 0
M  V30 2995 H 282.919 2.98144 -4.64558 0
M  V30 2996 H 283.396 3.23677 -2.96867 0
M  V30 2997 H 284.002 1.81373 -3.84687 0
M  V30 2998 N 282.317 1.53212 0.369288 0
M  V30 2999 C 283.594 1.59815 1.12776 0
M  V30 3000 C 283.974 0.403402 2.0721 0
M  V30 3001 O 283.322 -0.606667 2.20299 0
M  V30 3002 C 283.532 2.94664 1.87013 0
M  V30 3003 C 284.88 3.49109 2.41677 0
M  V30 3004 O 285.904 2.96669 1.97144 0
M  V30 3005 O 284.763 4.40775 3.23079 0
M  V30 3006 H 281.857 0.645376 0.517125 0
M  V30 3007 H 284.403 1.65553 0.37285 0
M  V30 3008 H 283.175 3.73061 1.18071 0
M  V30 3009 H 282.798 2.92401 2.69421 0
M  V30 3010 N 283.795 -0.628877 1.44509 0
M  V30 3011 C 285.043 -1.38565 1.4712 0
M  V30 3012 C 285.364 -1.94712 0.105899 0
M  V30 3013 O 284.634 -1.75912 -0.862079 0
M  V30 3014 H 283.214 -0.514333 0.541729 0
M  V30 3015 H 285.876 -0.740018 1.80305 0
M  V30 3016 H 284.972 -2.21583 2.19789 0
M  V30 3017 N 285.273 -1.31445 -0.869486 0
M  V30 3018 C 286.503 -1.23942 -1.65294 0
M  V30 3019 C 286.911 0.197561 -1.88166 0
M  V30 3020 O 286.254 1.14019 -1.44033 0
M  V30 3021 C 286.316 -1.91385 -3.04322 0
M  V30 3022 C 285.98 -3.40726 -3.04557 0
M  V30 3023 C 286.977 -4.36464 -2.82481 0
M  V30 3024 C 284.662 -3.82425 -3.25663 0
M  V30 3025 C 286.656 -5.71876 -2.8149 0
M  V30 3026 C 284.343 -5.1795 -3.243 0
M  V30 3027 C 285.341 -6.12486 -3.02241 0
M  V30 3028 O 285.029 -7.45534 -3.00724 0
M  V30 3029 H 284.761 -0.429459 -0.522054 0
M  V30 3030 H 287.315 -1.73873 -1.0935 0
M  V30 3031 H 285.545 -1.36004 -3.61994 0
M  V30 3032 H 287.234 -1.77791 -3.64891 0
M  V30 3033 H 288 -4.05576 -2.65956 0
M  V30 3034 H 283.879 -3.09274 -3.41863 0
M  V30 3035 H 287.423 -6.45638 -2.64191 0
M  V30 3036 H 283.32 -5.48473 -3.40365 0
M  V30 3037 H 284.088 -7.54713 -3.16782 0
M  V30 3038 N 286.751 1.08385 -1.14413 0
M  V30 3039 C 287.998 1.80776 -0.912482 0
M  V30 3040 C 288.326 1.86236 0.560934 0
M  V30 3041 O 287.581 1.33431 1.43159 0
M  V30 3042 C 287.88 3.26273 -1.45879 0
M  V30 3043 C 287.546 3.4093 -2.95089 0
M  V30 3044 C 286.208 3.44638 -3.35824 0
M  V30 3045 C 288.56 3.44591 -3.91033 0
M  V30 3046 C 285.888 3.49597 -4.71167 0
M  V30 3047 C 288.24 3.51086 -5.26233 0
M  V30 3048 C 286.904 3.53067 -5.6648 0
M  V30 3049 H 286.174 0.661507 -0.333901 0
M  V30 3050 H 288.821 1.27613 -1.42784 0
M  V30 3051 H 287.126 3.82146 -0.864376 0
M  V30 3052 H 288.823 3.80839 -1.2555 0
M  V30 3053 H 285.413 3.38736 -2.62594 0
M  V30 3054 H 289.597 3.40957 -3.60641 0
M  V30 3055 H 284.853 3.49424 -5.0171 0
M  V30 3056 H 289.027 3.52864 -6.00383 0
M  V30 3057 H 286.654 3.56662 -6.71339 0
M  V30 3058 N 288.23 0.939286 1.26551 0
M  V30 3059 C 289.162 0.404704 2.25599 0
M  V30 3060 C 290.175 -0.470983 1.55838 0
M  V30 3061 O 291.364 -0.281734 1.76263 0
M  V30 3062 C 288.464 -0.43764 3.36062 0
M  V30 3063 C 287.637 0.421449 4.35365 0
M  V30 3064 C 286.696 -0.36015 5.24966 0
M  V30 3065 O 285.722 0.236167 5.6871 0
M  V30 3066 N 286.924 -1.65715 5.56344 0
M  V30 3067 H 289.689 1.25618 2.72103 0
M  V30 3068 H 287.25 0.807963 1.40298 0
M  V30 3069 H 289.242 -0.967866 3.92956 0
M  V30 3070 H 287.812 -1.18991 2.89067 0
M  V30 3071 H 287.032 1.1329 3.7757 0
M  V30 3072 H 288.32 1.00835 4.98708 0
M  V30 3073 H 287.718 -2.16378 5.22682 0
M  V30 3074 H 286.275 -2.13366 6.15888 0
M  V30 3075 N 289.708 -1.40897 0.706093 0
M  V30 3076 C 291.119 -1.84023 0.315052 0
M  V30 3077 C 291.47 -1.5906 -1.14866 0
M  V30 3078 O 290.595 -1.06651 -1.88293 0
M  V30 3079 C 291.19 -3.34055 0.565038 0
M  V30 3080 C 289.749 -3.7571 0.227806 0
M  V30 3081 C 288.896 -2.64204 0.842122 0
M  V30 3082 H 291.847 -1.303 0.905963 0
M  V30 3083 H 291.868 -3.80107 -0.172843 0
M  V30 3084 H 291.38 -3.52192 1.63042 0
M  V30 3085 H 289.481 -3.63172 -0.832895 0
M  V30 3086 H 289.594 -4.74103 0.690174 0
M  V30 3087 H 287.958 -2.53255 0.270893 0
M  V30 3088 H 288.741 -2.85155 1.91158 0
M  V30 3089 N 291.186 -0.45159 -1.50991 0
M  V30 3090 C 292.133 0.352625 -2.2809 0
M  V30 3091 C 293.103 1.0044 -1.32291 0
M  V30 3092 O 294.288 1.02058 -1.6121 0
M  V30 3093 C 291.428 1.43983 -3.13629 0
M  V30 3094 C 290.541 0.804772 -4.24438 0
M  V30 3095 C 289.676 1.86822 -4.97263 0
M  V30 3096 C 288.715 1.21236 -5.99973 0
M  V30 3097 N 287.852 2.2178 -6.66152 0
M  V30 3098 H 292.692 -0.311186 -2.96371 0
M  V30 3099 H 290.229 -0.165308 -1.46168 0
M  V30 3100 H 292.187 2.08161 -3.61559 0
M  V30 3101 H 290.817 2.07307 -2.47434 0
M  V30 3102 H 289.869 0.0509129 -3.80366 0
M  V30 3103 H 291.181 0.286076 -4.97979 0
M  V30 3104 H 290.335 2.58628 -5.48813 0
M  V30 3105 H 289.074 2.42068 -4.23385 0
M  V30 3106 H 288.079 0.479828 -5.47702 0
M  V30 3107 H 289.304 0.667051 -6.75816 0
M  V30 3108 H 287.25 2.76079 -5.95077 0
M  V30 3109 H 287.167 1.74841 -7.35504 0
M  V30 3110 H 288.435 2.93026 -7.22327 0
M  V30 3111 N 292.664 1.56529 -0.183458 0
M  V30 3112 C 294.08 1.58664 0.172554 0
M  V30 3113 C 294.28 1.19925 1.61926 0
M  V30 3114 O 293.336 0.916534 2.35278 0
M  V30 3115 C 294.649 3.00463 -0.119262 0
M  V30 3116 C 296.197 3.12945 -0.0584396 0
M  V30 3117 C 296.672 4.56857 -0.323408 0
M  V30 3118 N 298.163 4.62403 -0.271612 0
M  V30 3119 C 298.898 5.71626 -0.450639 0
M  V30 3120 N 298.394 6.89362 -0.689384 0
M  V30 3121 N 300.187 5.60775 -0.385701 0
M  V30 3122 H 292.338 1.79994 -1.12765 0
M  V30 3123 H 294.601 0.834808 -0.449222 0
M  V30 3124 H 294.307 3.33326 -1.12192 0
M  V30 3125 H 294.181 3.72659 0.583544 0
M  V30 3126 H 296.568 2.79902 0.934805 0
M  V30 3127 H 296.649 2.4316 -0.794144 0
M  V30 3128 H 296.293 4.9061 -1.31392 0
M  V30 3129 H 296.223 5.24816 0.43305 0
M  V30 3130 H 298.714 3.77785 -0.0932256 0
M  V30 3131 H 299.027 7.68489 -0.815113 0
M  V30 3132 H 297.372 6.91196 -0.726142 0
M  V30 3133 H 300.563 4.67674 -0.199687 0
M  V30 3134 H 300.736 6.4584 -0.528646 0
M  V30 3135 N 294.142 -0.090211 1.57342 0
M  V30 3136 C 295.09 -1.12792 2.03422 0
M  V30 3137 C 296.084 -1.41182 0.936166 0
M  V30 3138 O 297.29 -1.40805 1.12133 0
M  V30 3139 H 293.665 -0.380986 0.648347 0
M  V30 3140 H 295.636 -0.71299 2.89757 0
M  V30 3141 C 294.385 -2.43855 2.47851 0
M  V30 3142 H 293.708 -2.22855 3.31927 0
M  V30 3143 H 295.148 -3.14955 2.83865 0
M  V30 3144 C 293.607 -3.08503 1.3538 0
M  V30 3145 O 294.137 -3.95805 0.685641 0
M  V30 3146 N 292.343 -2.68831 1.10355 0
M  V30 3147 H 291.89 -1.97929 1.64869 0
M  V30 3148 H 291.848 -3.12412 0.353031 0
M  V30 3149 N 295.62 -1.53406 -0.361157 0
M  V30 3150 C 296.845 -1.74024 -1.12829 0
M  V30 3151 C 297.27 -0.470069 -1.82132 0
M  V30 3152 O 296.628 0.57619 -1.719 0
M  V30 3153 C 296.676 -2.90903 -2.13091 0
M  V30 3154 O 295.78 -2.59821 -3.20261 0
M  V30 3155 H 295.121 -0.577804 -0.327168 0
M  V30 3156 H 297.651 -2.00307 -0.41693 0
M  V30 3157 H 297.661 -3.17194 -2.56616 0
M  V30 3158 H 296.336 -3.83034 -1.62042 0
M  V30 3159 H 294.913 -2.44362 -2.81677 0
M  V30 3160 N 297.098 0.621204 -1.44841 0
M  V30 3161 C 298.326 1.40752 -1.51646 0
M  V30 3162 C 298.741 1.88246 -0.144549 0
M  V30 3163 O 298.098 1.61422 0.851416 0
M  V30 3164 C 298.149 2.62119 -2.4895 0
M  V30 3165 O 297.87 2.16602 -3.80808 0
M  V30 3166 C 299.371 3.55135 -2.65319 0
M  V30 3167 H 296.591 0.431325 -0.514004 0
M  V30 3168 H 299.135 0.758835 -1.899 0
M  V30 3169 H 297.29 3.23058 -2.13805 0
M  V30 3170 H 297.704 2.95358 -4.33433 0
M  V30 3171 H 299.178 4.36874 -3.37409 0
M  V30 3172 H 299.655 4.04592 -1.70886 0
M  V30 3173 H 300.261 3.00058 -3.01405 0
M  V30 3174 N 298.576 1.31904 0.862503 0
M  V30 3175 C 299.992 1.10724 1.14945 0
M  V30 3176 C 300.192 -0.117421 2.01158 0
M  V30 3177 O 299.248 -0.804595 2.39338 0
M  V30 3178 C 300.561 2.38267 1.83437 0
M  V30 3179 C 302.109 2.43949 1.96106 0
M  V30 3180 C 302.584 3.71394 2.68013 0
M  V30 3181 N 304.075 3.72331 2.75543 0
M  V30 3182 C 304.81 4.67641 3.31812 0
M  V30 3183 N 304.306 5.73313 3.88953 0
M  V30 3184 N 306.099 4.5515 3.29841 0
M  V30 3185 H 298.25 2.10436 0.288191 0
M  V30 3186 H 300.513 0.928705 0.190292 0
M  V30 3187 H 300.219 3.27759 1.27542 0
M  V30 3188 H 300.093 2.48633 2.83657 0
M  V30 3189 H 302.48 1.54922 2.51164 0
M  V30 3190 H 302.561 2.37543 0.949059 0
M  V30 3191 H 302.205 4.60791 2.13621 0
M  V30 3192 H 302.135 3.75069 3.69636 0
M  V30 3193 H 304.626 2.95947 2.34997 0
M  V30 3194 H 304.939 6.42107 4.30022 0
M  V30 3195 H 303.284 5.77077 3.87308 0
M  V30 3196 H 306.475 3.71766 2.84443 0
M  V30 3197 H 306.648 5.29604 3.73394 0
M  V30 3198 N 300.054 -1.07777 1.14986 0
M  V30 3199 C 300.964 -2.18404 0.856546 0
M  V30 3200 C 301.98 -1.73211 -0.165485 0
M  V30 3201 O 303.156 -2.01399 0.00755219 0
M  V30 3202 C 300.221 -3.44977 0.34526 0
M  V30 3203 C 299.282 -4.0476 1.43065 0
M  V30 3204 C 298.515 -5.25291 0.943663 0
M  V30 3205 O 298.738 -5.70004 -0.212426 0
M  V30 3206 O 297.672 -5.76638 1.72547 0
M  V30 3207 H 301.498 -2.45978 1.78125 0
M  V30 3208 H 299.083 -1.17033 0.928631 0
M  V30 3209 H 300.965 -4.21348 0.0663671 0
M  V30 3210 H 299.64 -3.18965 -0.551631 0
M  V30 3211 H 298.547 -3.29949 1.76309 0
M  V30 3212 H 299.88 -4.35035 2.30229 0
M  V30 3213 N 301.532 -0.945985 -1.26051 0
M  V30 3214 C 302.464 -0.416662 -2.25381 0
M  V30 3215 C 303.477 0.462712 -1.56086 0
M  V30 3216 O 304.666 0.272383 -1.7641 0
M  V30 3217 C 301.766 0.419812 -3.3629 0
M  V30 3218 C 300.939 -0.444531 -4.35135 0
M  V30 3219 C 299.998 0.332305 -5.2515 0
M  V30 3220 O 299.024 -0.266324 -5.68577 0
M  V30 3221 N 300.226 1.62763 -5.57215 0
M  V30 3222 H 302.991 -1.27059 -2.71433 0
M  V30 3223 H 300.552 -0.815392 -1.39868 0
M  V30 3224 H 302.544 0.947013 -3.93464 0
M  V30 3225 H 301.114 1.17456 -2.89694 0
M  V30 3226 H 300.334 -1.15291 -3.76964 0
M  V30 3227 H 301.622 -1.03478 -4.98166 0
M  V30 3228 H 301.02 2.13603 -5.23823 0
M  V30 3229 H 299.577 2.10097 -6.17011 0
M  V30 3230 N 303.011 1.40521 -0.713556 0
M  V30 3231 C 304.236 2.05759 -0.26035 0
M  V30 3232 C 304.661 1.53403 1.08854 0
M  V30 3233 O 304.019 0.668535 1.68524 0
M  V30 3234 C 304.067 3.59745 -0.248122 0
M  V30 3235 O 303.171 4.05123 0.77131 0
M  V30 3236 H 302.512 0.652564 -0.122703 0
M  V30 3237 H 305.042 1.79958 -0.973467 0
M  V30 3238 H 305.052 4.07911 -0.0851129 0
M  V30 3239 H 303.727 3.97218 -1.2325 0
M  V30 3240 H 302.304 3.68422 0.57619 0
M  V30 3241 N 304.489 0.459591 1.5075 0
M  V30 3242 C 305.452 -0.329093 2.26825 0
M  V30 3243 C 306.452 -0.930481 1.31144 0
M  V30 3244 O 307.642 -0.801453 1.54669 0
M  V30 3245 C 304.774 -1.46768 3.07688 0
M  V30 3246 H 305.967 0.337924 2.9799 0
M  V30 3247 H 303.52 0.213336 1.54837 0
M  V30 3248 H 304.255 -2.17009 2.40993 0
M  V30 3249 H 304.04 -1.04238 3.77991 0
M  V30 3250 H 305.53 -2.02433 3.65254 0
M  V30 3251 N 305.967 -1.56429 0.191757 0
M  V30 3252 C 306.914 -2.18936 -0.730454 0
M  V30 3253 C 307.884 -1.13557 -1.21219 0
M  V30 3254 O 309.069 -1.41794 -1.27668 0
M  V30 3255 C 306.209 -2.85013 -1.9458 0
M  V30 3256 C 305.322 -4.04909 -1.50574 0
M  V30 3257 C 304.457 -4.58853 -2.67634 0
M  V30 3258 C 303.496 -5.71114 -2.20217 0
M  V30 3259 N 302.633 -6.19478 -3.30442 0
M  V30 3260 H 307.473 -2.97389 -0.190664 0
M  V30 3261 H 305.01 -1.46869 -0.0823694 0
M  V30 3262 H 306.968 -3.21492 -2.65893 0
M  V30 3263 H 305.598 -2.09129 -2.45896 0
M  V30 3264 H 304.65 -3.74115 -0.688605 0
M  V30 3265 H 305.962 -4.86113 -1.11784 0
M  V30 3266 H 305.116 -4.97619 -3.47074 0
M  V30 3267 H 303.855 -3.76749 -3.09696 0
M  V30 3268 H 302.86 -5.31879 -1.3923 0
M  V30 3269 H 304.085 -6.55033 -1.79189 0
M  V30 3270 H 302.031 -5.40297 -3.72041 0
M  V30 3271 H 301.948 -6.95725 -2.9581 0
M  V30 3272 H 303.216 -6.62898 -4.10106 0
M  V30 3273 N 307.445 0.0818655 -1.57387 0
M  V30 3274 C 308.691 0.784074 -1.8703 0
M  V30 3275 C 309.024 1.77729 -0.782689 0
M  V30 3276 O 308.299 1.93384 0.208051 0
M  V30 3277 C 308.582 1.50105 -3.27323 0
M  V30 3278 C 308.435 0.524925 -4.46727 0
M  V30 3279 C 309.754 2.44843 -3.65705 0
M  V30 3280 H 306.873 0.283582 -0.680257 0
M  V30 3281 H 309.515 0.0474352 -1.89941 0
M  V30 3282 H 307.665 2.12897 -3.24972 0
M  V30 3283 H 309.337 -0.0970111 -4.61198 0
M  V30 3284 H 307.58 -0.160606 -4.33503 0
M  V30 3285 H 308.251 1.064 -5.41648 0
M  V30 3286 H 310.727 1.92135 -3.69085 0
M  V30 3287 H 309.603 2.92018 -4.64776 0
M  V30 3288 H 309.864 3.29197 -2.95096 0
M  V30 3289 N 308.923 1.53595 0.353017 0
M  V30 3290 C 310.172 1.69603 1.09168 0
M  V30 3291 C 310.485 0.460925 1.90092 0
M  V30 3292 O 311.691 0.501774 2.66823 0
M  V30 3293 C 310.147 2.99872 1.9901 0
M  V30 3294 C 309.755 4.30687 1.23339 0
M  V30 3295 C 311.499 3.25246 2.72792 0
M  V30 3296 C 309.406 5.52036 2.12156 0
M  V30 3297 H 308.336 0.631966 0.411261 0
M  V30 3298 H 310.987 1.80096 0.351802 0
M  V30 3299 H 309.369 2.83212 2.7678 0
M  V30 3300 H 310.543 4.58019 0.505456 0
M  V30 3301 H 308.858 4.11853 0.613663 0
M  V30 3302 H 311.455 4.13095 3.39495 0
M  V30 3303 H 311.798 2.41846 3.38846 0
M  V30 3304 H 312.331 3.42638 2.021 0
M  V30 3305 H 309.07 6.37951 1.50659 0
M  V30 3306 H 308.59 5.28966 2.82764 0
M  V30 3307 H 310.269 5.87313 2.71427 0
M  V30 3308 N 310.401 -0.613514 1.45168 0
M  V30 3309 C 311.626 -1.40437 1.52618 0
M  V30 3310 C 312.051 -1.87438 0.157707 0
M  V30 3311 O 311.409 -1.59791 -0.856537 0
M  V30 3312 C 311.457 -2.58894 2.51011 0
M  V30 3313 O 310.561 -3.59326 2.02382 0
M  V30 3314 H 309.902 -0.419506 0.514695 0
M  V30 3315 H 312.432 -0.747215 1.90467 0
M  V30 3316 H 312.442 -3.06214 2.69624 0
M  V30 3317 H 311.117 -2.24032 3.50403 0
M  V30 3318 H 309.694 -3.18695 1.93618 0
M  V30 3319 N 311.879 -1.3236 -0.855495 0
M  V30 3320 C 313.107 -1.2587 -1.64208 0
M  V30 3321 C 313.522 0.173457 -1.88002 0
M  V30 3322 O 312.879 1.11027 -1.44842 0
M  V30 3323 C 312.93 -2.01424 -3.00184 0
M  V30 3324 O 312.651 -3.39051 -2.77445 0
M  V30 3325 C 314.152 -2.01948 -3.94629 0
M  V30 3326 H 311.372 -0.434318 -0.511477 0
M  V30 3327 H 313.916 -1.74469 -1.0668 0
M  V30 3328 H 312.071 -1.56549 -3.5436 0
M  V30 3329 H 312.485 -3.77711 -3.63916 0
M  V30 3330 H 313.959 -2.59297 -4.87308 0
M  V30 3331 H 314.436 -1.00554 -4.27534 0
M  V30 3332 H 315.042 -2.46767 -3.4639 0
M  V30 3333 N 313.357 1.07166 -1.15556 0
M  V30 3334 C 314.287 2.16403 -0.877046 0
M  V30 3335 C 315.268 1.69217 0.173111 0
M  V30 3336 O 316.453 1.94181 0.027084 0
M  V30 3337 C 313.583 3.45349 -0.367632 0
M  V30 3338 C 312.537 4.05995 -1.35468 0
M  V30 3339 C 311.863 5.30045 -0.704038 0
M  V30 3340 C 313.163 4.45804 -2.72132 0
M  V30 3341 H 314.857 2.39959 -1.79053 0
M  V30 3342 H 312.403 1.15325 -0.862331 0
M  V30 3343 H 314.356 4.21095 -0.160317 0
M  V30 3344 H 313.08 3.21385 0.581326 0
M  V30 3345 H 311.739 3.32296 -1.54839 0
M  V30 3346 H 311.387 5.02373 0.251128 0
M  V30 3347 H 311.087 5.71579 -1.36277 0
M  V30 3348 H 312.611 6.08495 -0.50654 0
M  V30 3349 H 314.025 5.12671 -2.56595 0
M  V30 3350 H 312.422 4.98296 -3.34397 0
M  V30 3351 H 313.492 3.57083 -3.28054 0
M  V30 3352 N 314.835 0.952656 1.25548 0
M  V30 3353 C 315.765 0.489287 2.28316 0
M  V30 3354 C 316.746 -0.463359 1.63667 0
M  V30 3355 O 317.931 -0.36274 1.90782 0
M  V30 3356 C 315.061 -0.235603 3.465 0
M  V30 3357 C 314.015 0.631593 4.23314 0
M  V30 3358 C 313.341 -0.223923 5.34231 0
M  V30 3359 C 314.641 1.90871 4.86174 0
M  V30 3360 H 316.335 1.34822 2.67326 0
M  V30 3361 H 313.881 0.649728 1.28509 0
M  V30 3362 H 315.834 -0.570882 4.17515 0
M  V30 3363 H 314.558 -1.12877 3.06474 0
M  V30 3364 H 313.217 0.949929 3.54079 0
M  V30 3365 H 312.865 -1.11678 4.90446 0
M  V30 3366 H 312.565 0.35299 5.86539 0
M  V30 3367 H 314.089 -0.554214 6.0808 0
M  V30 3368 H 315.503 1.63997 5.49343 0
M  V30 3369 H 313.9 2.43112 5.4865 0
M  V30 3370 H 314.97 2.61304 4.08471 0
M  V30 3371 N 316.313 -1.40141 0.720998 0
M  V30 3372 C 317.559 -2.01572 0.272075 0
M  V30 3373 C 317.914 -1.5616 -1.12391 0
M  V30 3374 O 317.207 -0.774198 -1.75262 0
M  V30 3375 C 317.401 -3.56165 0.296892 0
M  V30 3376 C 317.23 -4.16584 1.69375 0
M  V30 3377 C 316 -4.49783 2.30269 0
M  V30 3378 C 318.198 -4.41076 2.64493 0
M  V30 3379 N 316.18 -4.95626 3.62254 0
M  V30 3380 C 317.551 -4.88971 3.81192 0
M  V30 3381 C 319.606 -4.23122 2.62435 0
M  V30 3382 C 318.309 -5.20796 4.96149 0
M  V30 3383 C 320.335 -4.56052 3.76524 0
M  V30 3384 C 319.697 -5.04141 4.91956 0
M  V30 3385 H 315.796 -0.768343 0.145511 0
M  V30 3386 H 318.38 -1.70287 0.943959 0
M  V30 3387 H 316.551 -3.86868 -0.344578 0
M  V30 3388 H 318.283 -4.04346 -0.169254 0
M  V30 3389 H 315.038 -4.37101 1.82318 0
M  V30 3390 H 315.462 -5.22923 4.29977 0
M  V30 3391 H 320.104 -3.85158 1.74393 0
M  V30 3392 H 317.822 -5.57672 5.84831 0
M  V30 3393 H 321.408 -4.43796 3.76213 0
M  V30 3394 H 320.288 -5.29142 5.78774 0
M  V30 3395 N 317.792 -0.46758 -1.50504 0
M  V30 3396 C 318.739 0.328413 -2.28452 0
M  V30 3397 C 319.709 0.990313 -1.33349 0
M  V30 3398 O 320.894 1.00343 -1.62284 0
M  V30 3399 C 318.034 1.40648 -3.15138 0
M  V30 3400 C 317.147 0.759709 -4.25267 0
M  V30 3401 C 316.282 1.81537 -4.99217 0
M  V30 3402 C 315.321 1.14866 -6.01226 0
M  V30 3403 N 314.458 2.14702 -6.68467 0
M  V30 3404 H 319.298 -0.342603 -2.96024 0
M  V30 3405 H 316.835 -0.180801 -1.45985 0
M  V30 3406 H 318.793 2.04315 -3.63746 0
M  V30 3407 H 317.423 2.04671 -2.49619 0
M  V30 3408 H 316.475 0.0105671 -3.80399 0
M  V30 3409 H 317.787 0.233243 -4.98254 0
M  V30 3410 H 316.941 2.52793 -5.51526 0
M  V30 3411 H 315.68 2.37564 -4.25928 0
M  V30 3412 H 314.685 0.42171 -5.4818 0
M  V30 3413 H 315.91 0.595334 -6.76485 0
M  V30 3414 H 313.856 2.69752 -5.97972 0
M  V30 3415 H 313.773 1.6703 -7.37317 0
M  V30 3416 H 315.041 2.85348 -7.25394 0
M  V30 3417 N 319.27 1.56325 -0.20005 0
M  V30 3418 C 320.516 1.98012 0.438059 0
M  V30 3419 C 320.849 1.08702 1.60927 0
M  V30 3420 O 320.124 0.140064 1.93995 0
M  V30 3421 C 320.407 3.48841 0.893419 0
M  V30 3422 C 320.26 4.48928 -0.279947 0
M  V30 3423 C 321.579 4.03498 1.75719 0
M  V30 3424 H 318.698 0.719918 0.157757 0
M  V30 3425 H 321.34 1.87743 -0.291968 0
M  V30 3426 H 319.49 3.57723 1.51547 0
M  V30 3427 H 321.162 4.52079 -0.91772 0
M  V30 3428 H 319.405 4.23694 -0.930919 0
M  V30 3429 H 320.076 5.5194 0.0812601 0
M  V30 3430 H 322.552 3.97427 1.23253 0
M  V30 3431 H 321.428 5.09393 2.04476 0
M  V30 3432 H 321.689 3.4906 2.71311 0
M  V30 3433 N 320.748 -0.0735177 1.57428 0
M  V30 3434 C 321.711 -1.07192 2.02589 0
M  V30 3435 C 322.711 -1.31695 0.922661 0
M  V30 3436 O 323.901 -1.27445 1.18758 0
M  V30 3437 C 321.033 -2.41599 2.40506 0
M  V30 3438 H 322.226 -0.682727 2.92025 0
M  V30 3439 H 319.779 -0.319193 1.53006 0
M  V30 3440 H 320.514 -2.85354 1.5409 0
M  V30 3441 H 320.299 -2.25156 3.21009 0
M  V30 3442 H 321.789 -3.13367 2.76027 0
M  V30 3443 N 322.226 -1.5378 -0.344866 0
M  V30 3444 C 323.451 -1.75211 -1.10977 0
M  V30 3445 C 323.876 -0.48936 -1.81623 0
M  V30 3446 O 323.234 0.557925 -1.72502 0
M  V30 3447 C 323.282 -2.93147 -2.09993 0
M  V30 3448 O 322.386 -2.63203 -3.17487 0
M  V30 3449 H 321.727 -0.581241 -0.321021 0
M  V30 3450 H 324.257 -2.00738 -0.395661 0
M  V30 3451 H 324.267 -3.19898 -2.53237 0
M  V30 3452 H 322.942 -3.84731 -1.5797 0
M  V30 3453 H 321.519 -2.47336 -2.79069 0
M  V30 3454 N 323.704 0.605807 -1.45491 0
M  V30 3455 C 324.654 1.71074 -1.50724 0
M  V30 3456 C 325.638 1.5658 -0.37033 0
M  V30 3457 O 326.83 1.65887 -0.617299 0
M  V30 3458 C 323.959 3.0983 -1.47852 0
M  V30 3459 C 323.045 3.29704 -2.66751 0
M  V30 3460 N 323.436 3.19831 -3.91844 0
M  V30 3461 C 321.734 3.60579 -2.62486 0
M  V30 3462 C 322.435 3.41083 -4.71208 0
M  V30 3463 N 321.411 3.65157 -4.02693 0
M  V30 3464 H 325.213 1.61937 -2.45263 0
M  V30 3465 H 322.727 0.80912 -1.40808 0
M  V30 3466 H 324.724 3.89101 -1.49686 0
M  V30 3467 H 323.384 3.20115 -0.543714 0
M  V30 3468 H 324.395 2.98194 -4.23439 0
M  V30 3469 H 321.072 3.7769 -1.77922 0
M  V30 3470 H 322.462 3.38828 -5.80211 0
M  V30 3471 N 325.182 1.32811 0.848464 0
M  V30 3472 C 326.459 1.14334 1.58704 0
M  V30 3473 C 326.839 -0.293948 2.09043 0
M  V30 3474 O 326.187 -1.29153 1.88499 0
M  V30 3475 C 326.397 2.17626 2.72837 0
M  V30 3476 C 327.745 2.51282 3.42261 0
M  V30 3477 O 328.769 2.16219 2.83068 0
M  V30 3478 O 327.628 3.11413 4.49093 0
M  V30 3479 H 324.722 0.441601 0.699226 0
M  V30 3480 H 327.268 1.44362 0.892053 0
M  V30 3481 H 326.04 3.14211 2.3321 0
M  V30 3482 H 325.663 1.88628 3.50008 0
M  V30 3483 N 326.66 -1.06551 1.16123 0
M  V30 3484 C 327.89 -1.8274 0.963838 0
M  V30 3485 C 328.298 -1.82712 -0.491228 0
M  V30 3486 O 327.641 -1.24294 -1.35265 0
M  V30 3487 C 327.703 -3.3065 1.41106 0
M  V30 3488 C 327.367 -3.54384 2.88549 0
M  V30 3489 C 328.364 -3.4765 3.86569 0
M  V30 3490 C 326.049 -3.81789 3.26408 0
M  V30 3491 C 328.043 -3.67982 5.2045 0
M  V30 3492 C 325.73 -4.01772 4.60459 0
M  V30 3493 C 326.728 -3.94866 5.57288 0
M  V30 3494 O 326.416 -4.14306 6.88916 0
M  V30 3495 H 326.148 -0.583136 0.341948 0
M  V30 3496 H 328.702 -1.35351 1.54497 0
M  V30 3497 H 326.932 -3.78887 0.773394 0
M  V30 3498 H 328.621 -3.88324 1.1815 0
M  V30 3499 H 329.387 -3.2647 3.58667 0
M  V30 3500 H 325.266 -3.86276 2.51619 0
M  V30 3501 H 328.81 -3.62507 5.96015 0
M  V30 3502 H 324.707 -4.2244 4.88072 0
M  V30 3503 H 325.475 -4.31609 6.95454 0
M  V30 3504 N 328.138 -0.959301 -1.25041 0
M  V30 3505 C 329.068 -0.501388 -2.28053 0
M  V30 3506 C 330.049 0.454673 -1.63911 0
M  V30 3507 O 331.234 0.352618 -1.90972 0
M  V30 3508 C 328.364 0.217224 -3.4662 0
M  V30 3509 C 327.318 -0.654034 -4.22973 0
M  V30 3510 C 326.644 0.195589 -5.34342 0
M  V30 3511 C 327.944 -1.93447 -4.85155 0
M  V30 3512 H 329.638 -1.36238 -2.66608 0
M  V30 3513 H 327.184 -0.656534 -1.28163 0
M  V30 3514 H 329.137 0.548732 -4.17812 0
M  V30 3515 H 327.861 1.1125 -3.07068 0
M  V30 3516 H 326.52 -0.968693 -3.5357 0
M  V30 3517 H 326.168 1.09076 -4.91031 0
M  V30 3518 H 325.868 -0.384091 -5.86343 0
M  V30 3519 H 327.392 0.521958 -6.08365 0
M  V30 3520 H 328.806 -1.66908 -5.48466 0
M  V30 3521 H 327.203 -2.46018 -5.47353 0
M  V30 3522 H 328.273 -2.63466 -4.07079 0
M  V30 3523 N 329.616 1.39756 -0.72842 0
M  V30 3524 C 330.846 2.04651 -0.283117 0
M  V30 3525 C 331.254 1.5502 1.08469 0
M  V30 3526 O 330.597 0.707343 1.69536 0
M  V30 3527 C 330.659 3.58947 -0.199309 0
M  V30 3528 C 330.323 4.31525 -1.5045 0
M  V30 3529 C 331.32 4.5861 -2.44894 0
M  V30 3530 C 329.005 4.70195 -1.76698 0
M  V30 3531 C 330.999 5.23366 -3.63822 0
M  V30 3532 C 328.686 5.3468 -2.95906 0
M  V30 3533 C 329.684 5.61198 -3.89289 0
M  V30 3534 O 329.372 6.24347 -5.06404 0
M  V30 3535 H 329.104 0.664777 -0.122666 0
M  V30 3536 H 331.658 1.79913 -0.990987 0
M  V30 3537 H 329.888 3.82556 0.56461 0
M  V30 3538 H 331.577 4.0534 0.213125 0
M  V30 3539 H 332.343 4.29187 -2.25883 0
M  V30 3540 H 328.222 4.48916 -1.04859 0
M  V30 3541 H 331.766 5.4398 -4.36728 0
M  V30 3542 H 327.663 5.63524 -3.14819 0
M  V30 3543 H 328.431 6.42842 -5.06652 0
M  V30 3544 N 331.094 0.475555 1.50254 0
M  V30 3545 C 332.044 -0.335025 2.25525 0
M  V30 3546 C 333.028 -0.957625 1.29299 0
M  V30 3547 O 334.22 -0.869436 1.54175 0
M  V30 3548 C 331.349 -1.41385 3.12834 0
M  V30 3549 C 330.435 -0.798762 4.1651 0
M  V30 3550 N 330.826 0.0835815 5.05731 0
M  V30 3551 C 329.124 -1.06221 4.33166 0
M  V30 3552 C 329.825 0.433113 5.80085 0
M  V30 3553 N 328.801 -0.1928 5.43258 0
M  V30 3554 H 332.603 0.344612 2.91873 0
M  V30 3555 H 330.117 0.289986 1.5979 0
M  V30 3556 H 332.114 -2.00777 3.65368 0
M  V30 3557 H 330.774 -2.09543 2.48036 0
M  V30 3558 H 331.785 0.452715 5.15918 0
M  V30 3559 H 328.462 -1.73844 3.79585 0
M  V30 3560 H 329.852 1.15346 6.61925 0
M  V30 3561 N 332.573 -1.56217 0.208337 0
M  V30 3562 C 333.801 -2.02337 -0.43215 0
M  V30 3563 C 334.216 -1.08834 -1.54275 0
M  V30 3564 O 333.573 -0.0955462 -1.8225 0
M  V30 3565 C 333.624 -3.48072 -0.976138 0
M  V30 3566 O 333.345 -4.38007 0.0901621 0
M  V30 3567 C 334.846 -4.09773 -1.69119 0
M  V30 3568 H 332.066 -0.662385 -0.10718 0
M  V30 3569 H 334.61 -2.01966 0.320923 0
M  V30 3570 H 332.765 -3.49099 -1.67954 0
M  V30 3571 H 333.179 -5.23543 -0.316701 0
M  V30 3572 H 334.653 -5.13556 -2.02397 0
M  V30 3573 H 335.13 -3.53999 -2.59964 0
M  V30 3574 H 335.736 -4.12556 -1.03332 0
M  V30 3575 N 334.051 0.0651679 -1.57465 0
M  V30 3576 C 334.961 1.09448 -2.07505 0
M  V30 3577 C 335.977 1.41974 -1.00595 0
M  V30 3578 O 337.153 1.52018 -1.32107 0
M  V30 3579 C 334.218 2.38689 -2.51453 0
M  V30 3580 C 333.279 2.13073 -3.72691 0
M  V30 3581 C 332.512 3.36152 -4.14533 0
M  V30 3582 O 332.735 4.45517 -3.56189 0
M  V30 3583 O 331.669 3.23974 -5.07272 0
M  V30 3584 H 335.495 0.69935 -2.95538 0
M  V30 3585 H 333.08 0.279752 -1.46757 0
M  V30 3586 H 334.962 3.14736 -2.80212 0
M  V30 3587 H 333.637 2.77568 -1.66546 0
M  V30 3588 H 332.544 1.34709 -3.49005 0
M  V30 3589 H 333.877 1.79071 -4.5847 0
M  V30 3590 N 335.529 1.53961 0.336706 0
M  V30 3591 C 336.492 1.81724 1.39675 0
M  V30 3592 C 337.492 0.688532 1.45313 0
M  V30 3593 O 338.682 0.956829 1.45569 0
M  V30 3594 C 335.814 1.96543 2.78538 0
M  V30 3595 H 337.007 2.76424 1.16318 0
M  V30 3596 H 334.56 1.45478 0.571474 0
M  V30 3597 H 335.295 1.0401 3.07168 0
M  V30 3598 H 335.08 2.78665 2.75841 0
M  V30 3599 H 336.57 2.19516 3.5525 0
M  V30 3600 N 337.007 -0.598083 1.45811 0
M  V30 3601 C 338.253 -1.35882 1.50545 0
M  V30 3602 C 338.586 -1.93616 0.150445 0
M  V30 3603 O 337.861 -1.75604 -0.83628 0
M  V30 3604 C 338.144 -2.49966 2.59208 0
M  V30 3605 C 337.997 -1.97367 4.04186 0
M  V30 3606 C 339.316 -3.52068 2.64076 0
M  V30 3607 H 336.435 -0.492717 0.548087 0
M  V30 3608 H 339.077 -0.673319 1.77669 0
M  V30 3609 H 337.227 -3.08443 2.3621 0
M  V30 3610 H 338.899 -1.43466 4.38423 0
M  V30 3611 H 337.142 -1.283 4.14393 0
M  V30 3612 H 337.813 -2.79649 4.75921 0
M  V30 3613 H 340.289 -3.03448 2.84708 0
M  V30 3614 H 339.165 -4.2937 3.41954 0
M  V30 3615 H 339.426 -4.08304 1.69531 0
M  V30 3616 N 338.485 -1.33259 -0.841409 0
M  V30 3617 C 339.432 -1.23302 -1.95103 0
M  V30 3618 C 340.402 -0.112204 -1.65721 0
M  V30 3619 O 341.587 -0.290038 -1.88583 0
M  V30 3620 C 338.727 -0.975583 -3.31023 0
M  V30 3621 C 337.84 -2.18243 -3.72819 0
M  V30 3622 C 336.975 -1.85936 -4.97595 0
M  V30 3623 C 336.014 -3.02866 -5.3192 0
M  V30 3624 N 335.151 -2.70565 -6.47873 0
M  V30 3625 H 339.991 -2.18207 -2.02952 0
M  V30 3626 H 337.528 -1.0851 -0.993173 0
M  V30 3627 H 339.486 -0.80677 -4.09325 0
M  V30 3628 H 338.116 -0.0632755 -3.22738 0
M  V30 3629 H 337.168 -2.46107 -2.90061 0
M  V30 3630 H 338.48 -3.05666 -3.94169 0
M  V30 3631 H 337.634 -1.65684 -5.83638 0
M  V30 3632 H 336.373 -0.957452 -4.78209 0
M  V30 3633 H 335.378 -3.23736 -4.44382 0
M  V30 3634 H 336.603 -3.93809 -5.53255 0
M  V30 3635 H 334.549 -1.8293 -6.29978 0
M  V30 3636 H 334.466 -3.51519 -6.69306 0
M  V30 3637 H 335.734 -2.53774 -7.37034 0
M  V30 3638 N 339.963 1.05934 -1.16686 0
M  V30 3639 C 341.188 1.83029 -0.975455 0
M  V30 3640 C 341.613 1.82096 0.471452 0
M  V30 3641 O 340.971 1.22443 1.33706 0
M  V30 3642 C 341.019 3.27372 -1.51195 0
M  V30 3643 O 340.123 4.06054 -0.720701 0
M  V30 3644 H 339.464 0.566194 -0.346872 0
M  V30 3645 H 341.994 1.33541 -1.55009 0
M  V30 3646 H 342.004 3.78186 -1.53099 0
M  V30 3647 H 340.679 3.27366 -2.56523 0
M  V30 3648 H 339.256 3.64812 -0.772458 0
M  V30 3649 N 341.441 0.965919 1.2453 0
M  V30 3650 C 342.852 0.665929 1.7442 0
M  V30 3651 C 343.203 -0.818407 1.78316 0
M  V30 3652 O 342.328 -1.64037 1.41141 0
M  V30 3653 C 342.923 1.20211 3.16757 0
M  V30 3654 C 341.482 0.952059 3.6416 0
M  V30 3655 C 340.629 1.33848 2.42858 0
M  V30 3656 H 343.58 1.14144 1.10258 0
M  V30 3657 H 343.601 0.567544 3.76244 0
M  V30 3658 H 343.113 2.28244 3.13889 0
M  V30 3659 H 341.214 -0.112821 3.72429 0
M  V30 3660 H 341.327 1.59645 4.51719 0
M  V30 3661 H 339.691 0.756864 2.43195 0
M  V30 3662 H 340.474 2.42827 2.42673 0
M  V30 3663 N 342.919 -1.39368 0.735821 0
M  V30 3664 C 344.144 -2.05319 0.293052 0
M  V30 3665 C 344.569 -1.55115 -1.064 0
M  V30 3666 O 343.927 -0.695261 -1.67439 0
M  V30 3667 C 343.975 -3.59305 0.305323 0
M  V30 3668 O 343.079 -4.06299 -0.706761 0
M  V30 3669 H 342.42 -0.650529 0.13307 0
M  V30 3670 H 344.95 -1.78386 1.00197 0
M  V30 3671 H 344.96 -4.07724 0.149997 0
M  V30 3672 H 343.635 -3.95207 1.29553 0
M  V30 3673 H 342.212 -3.69292 -0.517504 0
M  V30 3674 N 344.397 -0.483516 -1.5 0
M  V30 3675 C 345.307 0.309172 -2.32554 0
M  V30 3676 C 346.323 0.984159 -1.43493 0
M  V30 3677 O 347.499 0.969399 -1.76535 0
M  V30 3678 C 344.564 1.36979 -3.18493 0
M  V30 3679 C 343.625 0.710095 -4.23387 0
M  V30 3680 C 342.858 1.72018 -5.05218 0
M  V30 3681 O 343.081 2.94813 -4.88305 0
M  V30 3682 O 342.015 1.28515 -5.8802 0
M  V30 3683 H 345.841 -0.366064 -3.01486 0
M  V30 3684 H 343.426 -0.24514 -1.47375 0
M  V30 3685 H 345.308 1.98385 -3.71781 0
M  V30 3686 H 343.983 2.02828 -2.52275 0
M  V30 3687 H 342.89 0.0567539 -3.74057 0
M  V30 3688 H 344.223 0.0943557 -4.9211 0
M  V30 3689 N 345.875 1.56104 -0.216619 0
M  V30 3690 C 346.838 2.18819 0.681962 0
M  V30 3691 C 347.838 1.14866 1.12528 0
M  V30 3692 O 349.028 1.40128 1.03488 0
M  V30 3693 C 346.16 2.80756 1.93362 0
M  V30 3694 H 347.353 2.99595 0.135254 0
M  V30 3695 H 344.906 1.56265 0.0330003 0
M  V30 3696 H 345.641 2.03837 2.52232 0
M  V30 3697 H 345.426 3.56876 1.62426 0
M  V30 3698 H 346.916 3.28844 2.57393 0
M  V30 3699 N 347.353 -0.0568162 1.57498 0
M  V30 3700 C 348.601 -0.751617 1.87604 0
M  V30 3701 C 348.922 -1.77351 0.81066 0
M  V30 3702 O 348.192 -1.95254 -0.159018 0
M  V30 3703 H 346.772 -0.280583 0.692302 0
M  V30 3704 H 349.434 -0.0293483 1.94878 0
M  V30 3705 H 348.53 -1.25852 2.856 0
M  V30 3706 N 348.832 -1.54138 -0.328536 0
M  V30 3707 C 349.795 -1.82462 -1.38709 0
M  V30 3708 C 350.795 -0.696229 -1.44946 0
M  V30 3709 O 351.985 -0.964535 -1.4506 0
M  V30 3710 C 349.117 -1.98018 -2.77492 0
M  V30 3711 H 350.31 -2.77037 -1.14851 0
M  V30 3712 H 347.863 -1.45779 -0.563751 0
M  V30 3713 H 348.598 -1.05637 -3.06613 0
M  V30 3714 H 348.383 -2.80124 -2.74359 0
M  V30 3715 H 349.873 -2.21396 -3.54081 0
M  V30 3716 N 350.31 0.590341 -1.46126 0
M  V30 3717 C 351.24 1.71032 -1.58966 0
M  V30 3718 C 352.221 1.64302 -0.440335 0
M  V30 3719 O 353.406 1.82436 -0.665634 0
M  V30 3720 C 350.536 3.09665 -1.57241 0
M  V30 3721 C 349.49 3.31221 -2.71066 0
M  V30 3722 C 348.816 4.70303 -2.54399 0
M  V30 3723 C 350.116 3.19796 -4.1295 0
M  V30 3724 H 351.81 1.60543 -2.52718 0
M  V30 3725 H 349.356 0.770933 -1.21625 0
M  V30 3726 H 351.309 3.87831 -1.64819 0
M  V30 3727 H 350.033 3.21036 -0.600289 0
M  V30 3728 H 348.692 2.55452 -2.62944 0
M  V30 3729 H 348.34 4.78429 -1.55288 0
M  V30 3730 H 348.04 4.85679 -3.30741 0
M  V30 3731 H 349.564 5.50647 -2.63857 0
M  V30 3732 H 350.978 3.87815 -4.22223 0
M  V30 3733 H 349.375 3.46696 -4.89818 0
M  V30 3734 H 350.445 2.16983 -4.33643 0
M  V30 3735 N 351.788 1.33704 0.83433 0
M  V30 3736 C 352.72 1.20172 1.9517 0
M  V30 3737 C 353.733 0.131572 1.62267 0
M  V30 3738 O 354.922 0.382406 1.74356 0
M  V30 3739 C 352.022 0.821716 3.28787 0
M  V30 3740 C 351.195 1.98446 3.89792 0
M  V30 3741 C 350.254 1.58469 5.01771 0
M  V30 3742 O 349.28 2.29968 5.20676 0
M  V30 3743 N 350.482 0.492291 5.78409 0
M  V30 3744 H 353.247 2.16429 2.07313 0
M  V30 3745 H 350.808 1.26509 1.0103 0
M  V30 3746 H 352.8 0.536291 4.01131 0
M  V30 3747 H 351.37 -0.0503058 3.1256 0
M  V30 3748 H 350.59 2.43526 3.09982 0
M  V30 3749 H 351.878 2.76236 4.27283 0
M  V30 3750 H 351.276 -0.102349 5.65607 0
M  V30 3751 H 349.833 0.266555 6.51255 0
M  V30 3752 N 353.266 -1.05314 1.17247 0
M  V30 3753 C 354.196 -2.1498 0.911362 0
M  V30 3754 C 355.177 -1.69471 -0.146169 0
M  V30 3755 O 356.362 -1.942 0.003812 0
M  V30 3756 C 353.492 -3.4472 0.422528 0
M  V30 3757 C 352.446 -4.03789 1.4191 0
M  V30 3758 C 351.772 -5.28858 0.788274 0
M  V30 3759 C 353.072 -4.41418 2.7919 0
M  V30 3760 H 354.766 -2.3708 1.82848 0
M  V30 3761 H 352.312 -1.13938 0.880569 0
M  V30 3762 H 354.265 -4.20787 0.227289 0
M  V30 3763 H 352.989 -3.22269 -0.530123 0
M  V30 3764 H 351.648 -3.2979 1.60106 0
M  V30 3765 H 351.296 -5.02709 -0.171173 0
M  V30 3766 H 350.996 -5.69338 1.45353 0
M  V30 3767 H 352.52 -6.07612 0.603282 0
M  V30 3768 H 353.934 -5.08524 2.64719 0
M  V30 3769 H 352.331 -4.92913 3.42282 0
M  V30 3770 H 353.401 -3.51819 3.33693 0
M  V30 3771 N 354.744 -0.972509 -1.24016 0
M  V30 3772 C 355.99 -0.637978 -1.92504 0
M  V30 3773 C 356.323 0.825383 -1.75787 0
M  V30 3774 O 355.598 1.59442 -1.11393 0
M  V30 3775 C 355.881 -1.01942 -3.45369 0
M  V30 3776 C 355.734 -2.53983 -3.71231 0
M  V30 3777 C 357.053 -0.55751 -4.36555 0
M  V30 3778 H 354.172 -0.233248 -0.699117 0
M  V30 3779 H 356.814 -1.21238 -1.46292 0
M  V30 3780 H 354.964 -0.530656 -3.84859 0
M  V30 3781 H 356.636 -3.10374 -3.41271 0
M  V30 3782 H 354.879 -2.96968 -3.16216 0
M  V30 3783 H 355.55 -2.75723 -4.78206 0
M  V30 3784 H 358.026 -0.977029 -4.04467 0
M  V30 3785 H 356.902 -0.85292 -5.42233 0
M  V30 3786 H 357.163 0.542328 -4.38761 0
M  V30 3787 N 356.222 1.38976 -0.743202 0
M  V30 3788 C 357.132 2.3434 -0.110399 0
M  V30 3789 C 358.148 1.58741 0.712559 0
M  V30 3790 O 359.324 1.9099 0.639125 0
M  V30 3791 C 356.389 3.37812 0.780012 0
M  V30 3792 C 355.45 4.29263 -0.0561319 0
M  V30 3793 C 354.683 5.27793 0.791875 0
M  V30 3794 O 354.906 5.33043 2.03031 0
M  V30 3795 O 353.84 6.01512 0.216183 0
M  V30 3796 H 357.666 2.90129 -0.897714 0
M  V30 3797 H 355.251 1.40643 -0.503966 0
M  V30 3798 H 357.133 4.01194 1.28923 0
M  V30 3799 H 355.808 2.84395 1.546 0
M  V30 3800 H 354.715 3.69076 -0.611056 0
M  V30 3801 H 356.048 4.85907 -0.784531 0
M  V30 3802 N 357.7 0.491464 1.49741 0
M  V30 3803 C 358.63 -0.28154 2.31796 0
M  V30 3804 C 359.611 -0.971473 1.3963 0
M  V30 3805 O 360.796 -0.964719 1.68543 0
M  V30 3806 C 357.926 -1.35203 3.19902 0
M  V30 3807 C 356.88 -0.782529 4.20786 0
M  V30 3808 C 356.206 -1.95283 4.97764 0
M  V30 3809 C 357.506 0.21999 5.21837 0
M  V30 3810 H 359.2 0.403355 2.96671 0
M  V30 3811 H 356.746 0.195425 1.42668 0
M  V30 3812 H 358.699 -1.90045 3.76113 0
M  V30 3813 H 357.423 -2.06598 2.52953 0
M  V30 3814 H 356.082 -0.255928 3.65706 0
M  V30 3815 H 355.73 -2.65423 4.2727 0
M  V30 3816 H 355.43 -1.57789 5.66018 0
M  V30 3817 H 356.954 -2.50577 5.56816 0
M  V30 3818 H 358.368 -0.23996 5.72798 0
M  V30 3819 H 356.765 0.51026 5.97927 0
M  V30 3820 H 357.835 1.13911 4.7133 0
M  V30 3821 N 359.178 -1.55987 0.224894 0
M  V30 3822 C 360.126 -2.21808 -0.700283 0
M  V30 3823 C 361.12 -1.19854 -1.19714 0
M  V30 3824 O 362.326 -1.37925 -1.15658 0
M  V30 3825 H 358.701 -0.711226 -0.244258 0
M  V30 3826 H 360.672 -2.98152 -0.121749 0
M  V30 3827 C 359.421 -2.91444 -1.8962 0
M  V30 3828 H 358.744 -3.69655 -1.52299 0
M  V30 3829 H 360.184 -3.40894 -2.52125 0
M  V30 3830 C 358.643 -1.94098 -2.75368 0
M  V30 3831 O 359.173 -1.46004 -3.74227 0
M  V30 3832 N 357.379 -1.61675 -2.41474 0
M  V30 3833 H 356.926 -2.00979 -1.61137 0
M  V30 3834 H 356.884 -0.968036 -2.99126 0
M  V30 3835 N 360.656 0.0484629 -1.57525 0
M  V30 3836 C 361.904 0.741657 -1.88 0
M  V30 3837 C 362.225 1.76918 -0.820054 0
M  V30 3838 O 361.495 1.95335 0.148661 0
M  V30 3839 H 360.075 0.276908 -0.69378 0
M  V30 3840 H 362.737 0.019013 -1.94891 0
M  V30 3841 H 361.833 1.24336 -2.86264 0
M  V30 3842 N 362.134 1.5431 0.320358 0
M  V30 3843 C 363.066 1.80262 1.41556 0
M  V30 3844 C 364.079 0.684723 1.477 0
M  V30 3845 O 365.268 0.961886 1.50366 0
M  V30 3846 C 362.368 1.90825 2.8007 0
M  V30 3847 C 361.541 3.21023 2.97091 0
M  V30 3848 C 360.6 3.22247 4.15985 0
M  V30 3849 O 359.626 3.95871 4.08992 0
M  V30 3850 N 360.828 2.46258 5.25678 0
M  V30 3851 H 363.593 2.74778 1.19655 0
M  V30 3852 H 361.154 1.53646 0.510358 0
M  V30 3853 H 363.146 1.89067 3.57821 0
M  V30 3854 H 361.716 1.03392 2.95006 0
M  V30 3855 H 360.936 3.35715 2.06614 0
M  V30 3856 H 362.224 4.0698 3.05361 0
M  V30 3857 H 361.622 1.86037 5.34235 0
M  V30 3858 H 360.179 2.50275 6.01835 0
M  V30 3859 N 363.613 -0.582584 1.46437 0
M  V30 3860 C 364.543 -1.70187 1.59871 0
M  V30 3861 C 365.524 -1.64066 0.449042 0
M  V30 3862 O 366.709 -1.82081 0.6753 0
M  V30 3863 C 363.839 -3.08827 1.58881 0
M  V30 3864 C 362.793 -3.29779 2.72819 0
M  V30 3865 C 362.119 -4.68947 2.5689 0
M  V30 3866 C 363.419 -3.17601 4.1464 0
M  V30 3867 H 365.113 -1.592 2.53566 0
M  V30 3868 H 362.659 -0.764472 1.22032 0
M  V30 3869 H 364.612 -3.86951 1.66873 0
M  V30 3870 H 363.336 -3.20713 0.617306 0
M  V30 3871 H 361.995 -2.54054 2.64296 0
M  V30 3872 H 361.643 -4.77599 1.57823 0
M  V30 3873 H 361.343 -4.83919 3.33312 0
M  V30 3874 H 362.867 -5.4924 2.66773 0
M  V30 3875 H 364.281 -3.8557 4.24274 0
M  V30 3876 H 362.678 -3.44094 4.9165 0
M  V30 3877 H 363.748 -2.14681 4.34788 0
M  V30 3878 N 365.091 -1.34144 -0.827227 0
M  V30 3879 C 366.319 -1.29325 -1.61501 0
M  V30 3880 C 366.734 0.13354 -1.88327 0
M  V30 3881 O 366.091 1.0793 -1.47164 0
M  V30 3882 C 366.142 -2.07746 -2.95844 0
M  V30 3883 O 365.863 -3.4486 -2.70191 0
M  V30 3884 C 367.364 -2.10273 -3.90256 0
M  V30 3885 H 364.584 -0.445069 -0.50215 0
M  V30 3886 H 367.128 -1.76693 -1.02955 0
M  V30 3887 H 365.283 -1.6403 -3.5096 0
M  V30 3888 H 365.697 -3.85345 -3.55822 0
M  V30 3889 H 367.171 -2.69575 -4.81698 0
M  V30 3890 H 367.648 -1.096 -4.25305 0
M  V30 3891 H 368.254 -2.54059 -3.41078 0
M  V30 3892 N 366.569 1.04691 -1.17803 0
M  V30 3893 C 367.499 2.14494 -0.92275 0
M  V30 3894 C 368.48 1.69546 0.137179 0
M  V30 3895 O 369.665 1.94195 -0.0141108 0
M  V30 3896 C 366.795 3.44491 -0.440803 0
M  V30 3897 C 365.749 4.03031 -1.4405 0
M  V30 3898 C 365.075 5.28432 -0.81631 0
M  V30 3899 C 366.375 4.39932 -2.81527 0
M  V30 3900 H 368.069 2.36107 -1.84103 0
M  V30 3901 H 365.615 1.1347 -0.886599 0
M  V30 3902 H 367.568 4.2066 -0.249602 0
M  V30 3903 H 366.292 3.22546 0.513025 0
M  V30 3904 H 364.951 3.28937 -1.61853 0
M  V30 3905 H 364.599 5.02792 0.144511 0
M  V30 3906 H 364.299 5.68559 -1.48371 0
M  V30 3907 H 365.823 6.07284 -0.635496 0
M  V30 3908 H 367.237 5.07113 -2.67412 0
M  V30 3909 H 365.634 4.9109 -3.44892 0
M  V30 3910 H 366.704 3.50045 -3.35554 0
M  V30 3911 N 368.047 0.979072 1.23499 0
M  V30 3912 C 369.01 0.523244 2.23147 0
M  V30 3913 C 370.01 -0.386406 1.56088 0
M  V30 3914 O 371.2 -0.180283 1.73265 0
M  V30 3915 C 368.332 -0.240739 3.40049 0
M  V30 3916 H 369.525 1.40432 2.64989 0
M  V30 3917 H 367.078 0.764824 1.36309 0
M  V30 3918 H 367.813 -1.13841 3.03662 0
M  V30 3919 H 367.598 0.412207 3.89927 0
M  V30 3920 H 369.088 -0.548297 4.13985 0
M  V30 3921 N 369.525 -1.3858 0.750561 0
M  V30 3922 C 370.773 -1.99789 0.30477 0
M  V30 3923 C 371.094 -1.59874 -1.11649 0
M  V30 3924 O 370.364 -0.85417 -1.76297 0
M  V30 3925 H 368.944 -0.738902 0.109694 0
M  V30 3926 H 371.606 -1.69391 0.963983 0
M  V30 3927 H 370.702 -3.09952 0.365499 0
M  V30 3928 N 371.003 -0.499398 -1.49478 0
M  V30 3929 C 371.913 0.284489 -2.32869 0
M  V30 3930 C 372.929 0.968885 -1.44529 0
M  V30 3931 O 374.105 0.95062 -1.77553 0
M  V30 3932 C 371.17 1.33594 -3.19928 0
M  V30 3933 C 370.231 0.665149 -4.24116 0
M  V30 3934 C 369.464 1.6665 -5.07014 0
M  V30 3935 O 369.687 2.89618 -4.91404 0
M  V30 3936 O 368.621 1.22271 -5.8935 0
M  V30 3937 H 372.447 -0.39802 -3.01081 0
M  V30 3938 H 370.032 -0.260758 -1.47107 0
M  V30 3939 H 371.914 1.94431 -3.73864 0
M  V30 3940 H 370.589 2.0014 -2.54412 0
M  V30 3941 H 369.496 0.0170769 -3.74096 0
M  V30 3942 H 370.829 0.0421555 -4.92182 0
M  V30 3943 N 372.481 1.55866 -0.233164 0
M  V30 3944 C 373.758 1.90471 0.444988 0
M  V30 3945 C 374.138 1.15209 1.7689 0
M  V30 3946 O 373.486 0.265119 2.26957 0
M  V30 3947 C 373.696 3.4333 0.626559 0
M  V30 3948 C 375.044 4.14319 0.92871 0
M  V30 3949 O 376.068 3.48993 0.712926 0
M  V30 3950 O 374.927 5.29846 1.33887 0
M  V30 3951 H 372.021 0.792347 0.236885 0
M  V30 3952 H 374.567 1.67437 -0.276211 0
M  V30 3953 H 373.339 3.90095 -0.306822 0
M  V30 3954 H 372.962 3.72181 1.39881 0
M  V30 3955 N 373.959 -0.0401083 1.57549 0
M  V30 3956 C 375.207 -0.731677 1.8839 0
M  V30 3957 C 375.528 -1.76481 0.829425 0
M  V30 3958 O 374.798 -1.95411 -0.1383 0
M  V30 3959 H 373.378 -0.273225 0.695239 0
M  V30 3960 H 376.04 -0.00867725 1.94898 0
M  V30 3961 H 375.136 -1.22816 2.86919 0
M  V30 3962 N 375.437 -1.54477 -0.31217 0
M  V30 3963 C 376.665 -1.77205 -1.068 0
M  V30 3964 C 377.08 -0.526114 -1.81321 0
M  V30 3965 O 376.437 0.503647 -1.75413 0
M  V30 3966 C 376.488 -2.97253 -2.05725 0
M  V30 3967 O 376.209 -4.1703 -1.34228 0
M  V30 3968 C 377.71 -3.32281 -2.93435 0
M  V30 3969 H 374.93 -0.591287 -0.317208 0
M  V30 3970 H 377.474 -2.01398 -0.354834 0
M  V30 3971 H 375.629 -2.753 -2.72559 0
M  V30 3972 H 376.043 -4.84636 -2.00571 0
M  V30 3973 H 377.517 -4.19551 -3.58721 0
M  V30 3974 H 377.994 -2.49945 -3.61143 0
M  V30 3975 H 378.6 -3.56353 -2.32147 0
M  V30 3976 N 376.915 0.57481 -1.46744 0
M  V30 3977 C 378.326 1.15695 -1.46532 0
M  V30 3978 C 378.677 1.95068 -0.210425 0
M  V30 3979 O 377.802 2.05241 0.685944 0
M  V30 3980 C 378.397 2.1048 -2.65487 0
M  V30 3981 C 376.956 2.64002 -2.68291 0
M  V30 3982 C 376.103 1.40026 -2.39349 0
M  V30 3983 H 379.054 0.362325 -1.54509 0
M  V30 3984 H 379.075 2.94074 -2.41455 0
M  V30 3985 H 378.587 1.52683 -3.56805 0
M  V30 3986 H 376.688 3.25646 -1.81067 0
M  V30 3987 H 376.801 3.06197 -3.68483 0
M  V30 3988 H 375.165 1.70106 -1.89568 0
M  V30 3989 H 375.948 0.840485 -3.32852 0
M  V30 3990 N 378.394 1.34581 0.820102 0
M  V30 3991 C 379.64 1.27285 1.57881 0
M  V30 3992 C 379.973 -0.156137 1.93571 0
M  V30 3993 O 379.248 -1.10222 1.60254 0
M  V30 3994 C 379.531 2.16639 2.87645 0
M  V30 3995 C 379.384 3.68088 2.58517 0
M  V30 3996 C 380.703 2.05378 3.8924 0
M  V30 3997 H 377.822 0.463714 0.572833 0
M  V30 3998 H 380.464 1.64859 0.944539 0
M  V30 3999 H 378.614 1.84725 3.41773 0
M  V30 4000 H 380.286 4.10382 2.10676 0
M  V30 4001 H 378.529 3.89038 1.91917 0
M  V30 4002 H 379.2 4.2598 3.51063 0
M  V30 4003 H 381.676 2.33404 3.44473 0
M  V30 4004 H 380.552 2.7012 4.77835 0
M  V30 4005 H 380.813 1.0316 4.29896 0
M  V30 4006 N 379.872 -1.04064 1.18357 0
M  V30 4007 C 380.804 -2.12114 0.868358 0
M  V30 4008 C 381.817 -1.62247 -0.134045 0
M  V30 4009 O 383.006 -1.78253 0.0937933 0
M  V30 4010 C 380.106 -3.37773 0.276132 0
M  V30 4011 C 379.279 -4.16874 1.3242 0
M  V30 4012 C 378.338 -5.20861 0.747662 0
M  V30 4013 O 377.364 -5.51141 1.42239 0
M  V30 4014 N 378.566 -5.78715 -0.454823 0
M  V30 4015 H 381.331 -2.39748 1.79836 0
M  V30 4016 H 378.892 -1.20258 1.08396 0
M  V30 4017 H 380.884 -4.04513 -0.123133 0
M  V30 4018 H 379.454 -3.07581 -0.557895 0
M  V30 4019 H 378.674 -3.45456 1.89878 0
M  V30 4020 H 379.962 -4.66516 2.03078 0
M  V30 4021 H 379.36 -5.56415 -1.02073 0
M  V30 4022 H 377.917 -6.46921 -0.79601 0
M  V30 4023 N 381.35 -0.985608 -1.22978 0
M  V30 4024 C 382.28 -0.549649 -2.26939 0
M  V30 4025 C 383.261 0.419803 -1.64838 0
M  V30 4026 O 384.446 0.31203 -1.91677 0
M  V30 4027 C 381.576 0.143652 -3.47003 0
M  V30 4028 C 380.53 -0.743606 -4.21491 0
M  V30 4029 C 379.856 0.0822027 -5.34637 0
M  V30 4030 C 381.156 -2.03694 -4.80943 0
M  V30 4031 H 382.85 -1.41862 -2.63658 0
M  V30 4032 H 380.396 -0.683571 -1.26741 0
M  V30 4033 H 382.349 0.459985 -4.18882 0
M  V30 4034 H 381.073 1.04711 -3.09359 0
M  V30 4035 H 379.732 -1.04347 -3.51436 0
M  V30 4036 H 379.38 0.986359 -4.93234 0
M  V30 4037 H 379.08 -0.508377 -5.85397 0
M  V30 4038 H 380.604 0.392797 -6.09335 0
M  V30 4039 H 382.018 -1.78504 -5.44802 0
M  V30 4040 H 380.415 -2.57573 -5.42011 0
M  V30 4041 H 381.485 -2.72042 -4.01399 0
M  V30 4042 N 382.828 1.3818 -0.7579 0
M  V30 4043 C 384.244 1.5353 -0.435972 0
M  V30 4044 C 384.444 1.71961 1.05032 0
M  V30 4045 O 383.5 1.73307 1.83633 0
M  V30 4046 C 384.813 2.73989 -1.23898 0
M  V30 4047 C 386.361 2.87841 -1.22949 0
M  V30 4048 C 386.836 4.11266 -2.01554 0
M  V30 4049 N 388.327 4.18352 -1.98837 0
M  V30 4050 C 389.062 5.12856 -2.5645 0
M  V30 4051 N 388.558 6.13005 -3.22794 0
M  V30 4052 N 390.351 5.05238 -2.46356 0
M  V30 4053 H 382.502 1.24467 -1.7211 0
M  V30 4054 H 384.765 0.604982 -0.729864 0
M  V30 4055 H 384.471 2.66789 -2.29165 0
M  V30 4056 H 384.345 3.67294 -0.858764 0
M  V30 4057 H 386.732 2.9452 -0.184854 0
M  V30 4058 H 386.813 1.95534 -1.64924 0
M  V30 4059 H 386.457 4.05349 -3.06031 0
M  V30 4060 H 386.387 5.02661 -1.5697 0
M  V30 4061 H 388.878 3.46628 -1.50524 0
M  V30 4062 H 389.191 6.81619 -3.64165 0
M  V30 4063 H 387.536 6.13325 -3.2689 0
M  V30 4064 H 390.727 4.25938 -1.9415 0
M  V30 4065 H 390.9 5.78707 -2.91552 0
M  V30 4066 N 384.306 0.507319 1.49211 0
M  V30 4067 C 385.554 -0.0348839 2.0207 0
M  V30 4068 C 385.875 -1.36898 1.38866 0
M  V30 4069 O 385.145 -1.88133 0.546151 0
M  V30 4070 H 383.725 -0.0158812 0.746831 0
M  V30 4071 H 386.387 0.665998 1.83168 0
M  V30 4072 H 385.483 -0.159917 3.1169 0
M  V30 4073 N 385.784 -1.5574 0.241426 0
M  V30 4074 C 386.717 -2.17168 -0.700935 0
M  V30 4075 C 387.695 -1.12206 -1.1768 0
M  V30 4076 O 388.879 -1.40565 -1.25593 0
M  V30 4077 C 386.006 -2.76796 -1.95196 0
M  V30 4078 C 385.052 -3.94764 -1.61442 0
M  V30 4079 S 385.885 -5.30613 -0.72182 0
M  V30 4080 C 387.041 -5.93691 -1.98197 0
M  V30 4081 H 387.274 -2.96761 -0.178882 0
M  V30 4082 H 384.807 -1.54378 0.0259299 0
M  V30 4083 H 386.765 -3.11787 -2.67019 0
M  V30 4084 H 385.426 -1.9716 -2.44514 0
M  V30 4085 H 384.619 -4.35057 -2.54443 0
M  V30 4086 H 384.221 -3.61022 -0.976672 0
M  V30 4087 H 386.513 -6.10874 -2.92983 0
M  V30 4088 H 387.456 -6.89258 -1.62262 0
M  V30 4089 H 387.864 -5.22709 -2.13156 0
M  V30 4090 N 387.262 0.0317525 -1.57568 0
M  V30 4091 C 388.487 0.738664 -1.938 0
M  V30 4092 C 388.912 1.68242 -0.841208 0
M  V30 4093 O 388.27 1.80157 0.203267 0
M  V30 4094 C 388.318 1.47417 -3.29091 0
M  V30 4095 O 387.422 2.5872 -3.2115 0
M  V30 4096 H 386.763 0.198856 -0.633524 0
M  V30 4097 H 389.293 -0.0119713 -2.04596 0
M  V30 4098 H 389.303 1.84468 -3.63917 0
M  V30 4099 H 387.978 0.781988 -4.08482 0
M  V30 4100 H 386.555 2.24231 -2.97951 0
M  V30 4101 N 388.74 1.54641 0.303973 0
M  V30 4102 C 389.968 1.77768 1.05858 0
M  V30 4103 C 390.383 0.535722 1.8104 0
M  V30 4104 O 389.74 -0.494337 1.75677 0
M  V30 4105 C 389.791 2.9834 2.04146 0
M  V30 4106 O 389.512 4.17736 1.32015 0
M  V30 4107 C 391.013 3.33832 2.91669 0
M  V30 4108 H 388.233 0.592961 0.314067 0
M  V30 4109 H 390.777 2.01583 0.344149 0
M  V30 4110 H 388.932 2.76742 2.71096 0
M  V30 4111 H 389.346 4.85693 1.97998 0
M  V30 4112 H 390.82 4.21448 3.56491 0
M  V30 4113 H 391.297 2.51857 3.59812 0
M  V30 4114 H 391.903 3.57579 2.30254 0
M  V30 4115 N 390.218 -0.567019 1.47046 0
M  V30 4116 C 391.168 -1.67018 1.55207 0
M  V30 4117 C 392.152 -1.55543 0.411714 0
M  V30 4118 O 393.344 -1.64192 0.661064 0
M  V30 4119 C 390.473 -3.05801 1.56014 0
M  V30 4120 C 389.559 -3.22515 2.75399 0
M  V30 4121 N 389.95 -3.09329 4.00186 0
M  V30 4122 C 388.248 -3.53493 2.71954 0
M  V30 4123 C 388.949 -3.2847 4.80086 0
M  V30 4124 N 387.925 -3.54352 4.12233 0
M  V30 4125 H 391.727 -1.55377 2.4947 0
M  V30 4126 H 389.241 -0.771503 1.42904 0
M  V30 4127 H 391.238 -3.84996 1.59949 0
M  V30 4128 H 389.898 -3.18561 0.628396 0
M  V30 4129 H 390.909 -2.86863 4.31196 0
M  V30 4130 H 387.586 -3.7284 1.87873 0
M  V30 4131 H 388.976 -3.23326 5.88991 0
M  V30 4132 N 391.696 -1.35014 -0.812953 0
M  V30 4133 C 392.944 -1.27678 -1.56661 0
M  V30 4134 C 393.265 0.150359 -1.94419 0
M  V30 4135 O 392.535 1.08532 -1.63088 0
M  V30 4136 H 391.115 -0.469602 -0.580933 0
M  V30 4137 H 393.777 -1.69043 -0.970076 0
M  V30 4138 H 392.873 -1.88833 -2.48492 0
M  V30 4139 N 393.175 1.03435 -1.18907 0
M  V30 4140 C 394.105 2.13503 -0.945448 0
M  V30 4141 C 395.086 1.69682 0.119189 0
M  V30 4142 O 396.271 1.94169 -0.034707 0
M  V30 4143 C 393.401 3.44004 -0.477316 0
M  V30 4144 C 392.355 4.0148 -1.48316 0
M  V30 4145 C 391.681 5.27537 -0.872311 0
M  V30 4146 C 392.981 4.36921 -2.86177 0
M  V30 4147 H 394.675 2.34141 -1.86597 0
M  V30 4148 H 392.221 1.12523 -0.898584 0
M  V30 4149 H 394.174 4.20372 -0.294204 0
M  V30 4150 H 392.898 3.23072 0.478786 0
M  V30 4151 H 391.557 3.27201 -1.65332 0
M  V30 4152 H 391.205 5.02917 0.0911752 0
M  V30 4153 H 390.905 5.66954 -1.54393 0
M  V30 4154 H 392.429 6.06576 -0.699871 0
M  V30 4155 H 393.843 5.04248 -2.72776 0
M  V30 4156 H 392.24 4.87405 -3.50081 0
M  V30 4157 H 393.31 3.46466 -3.39248 0
M  V30 4158 N 394.653 0.992116 1.22453 0
M  V30 4159 C 395.585 0.500024 2.23679 0
M  V30 4160 C 396.598 -0.404463 1.57696 0
M  V30 4161 O 397.787 -0.206722 1.77299 0
M  V30 4162 C 394.887 -0.294711 3.37616 0
M  V30 4163 C 394.06 0.605723 4.33186 0
M  V30 4164 C 393.119 -0.13717 5.26021 0
M  V30 4165 O 392.145 0.477164 5.67196 0
M  V30 4166 N 393.347 -1.4197 5.62872 0
M  V30 4167 H 396.112 1.37045 2.66531 0
M  V30 4168 H 393.673 0.866741 1.36745 0
M  V30 4169 H 395.665 -0.800329 3.96707 0
M  V30 4170 H 394.235 -1.06623 2.93854 0
M  V30 4171 H 393.455 1.29202 3.72425 0
M  V30 4172 H 394.743 1.21896 4.93983 0
M  V30 4173 H 394.141 -1.94015 5.31389 0
M  V30 4174 H 392.698 -1.87052 6.24383 0
M  V30 4175 N 396.131 -1.37776 0.765217 0
M  V30 4176 C 397.377 -2.00604 0.336066 0
M  V30 4177 C 397.732 -1.59657 -1.07366 0
M  V30 4178 O 397.025 -0.829565 -1.7271 0
M  V30 4179 C 397.219 -3.5504 0.410053 0
M  V30 4180 C 397.048 -4.10985 1.82542 0
M  V30 4181 C 395.818 -4.42229 2.44461 0
M  V30 4182 C 398.016 -4.32438 2.78392 0
M  V30 4183 N 395.998 -4.8385 3.77839 0
M  V30 4184 C 397.369 -4.76596 3.96556 0
M  V30 4185 C 399.424 -4.14559 2.75764 0
M  V30 4186 C 398.127 -5.04748 5.12466 0
M  V30 4187 C 400.153 -4.43843 3.90842 0
M  V30 4188 C 399.515 -4.88235 5.07746 0
M  V30 4189 H 395.614 -0.763325 0.169881 0
M  V30 4190 H 398.198 -1.67197 0.997656 0
M  V30 4191 H 396.369 -3.87769 -0.221325 0
M  V30 4192 H 398.101 -4.0468 -0.0405285 0
M  V30 4193 H 394.856 -4.31079 1.96131 0
M  V30 4194 H 395.28 -5.08979 4.46396 0
M  V30 4195 H 399.922 -3.79415 1.86558 0
M  V30 4196 H 397.64 -5.38783 6.02277 0
M  V30 4197 H 401.226 -4.31603 3.90141 0
M  V30 4198 H 400.106 -5.10461 5.95315 0
M  V30 4199 N 397.609 -0.515225 -1.4894 0
M  V30 4200 C 398.856 0.024215 -2.02486 0
M  V30 4201 C 399.184 1.35671 -1.39368 0
M  V30 4202 O 398.439 1.88566 -0.523574 0
M  V30 4203 C 398.738 0.210595 -3.56779 0
M  V30 4204 C 398.404 -1.04569 -4.38607 0
M  V30 4205 C 397.066 -1.39002 -4.60686 0
M  V30 4206 C 399.418 -1.88008 -4.86109 0
M  V30 4207 C 396.746 -2.568 -5.27514 0
M  V30 4208 C 399.098 -3.04972 -5.54234 0
M  V30 4209 C 397.762 -3.39768 -5.74555 0
M  V30 4210 H 397.032 0.00886088 -0.740947 0
M  V30 4211 H 399.679 -0.678263 -1.79086 0
M  V30 4212 H 397.984 0.99572 -3.78936 0
M  V30 4213 H 399.681 0.642659 -3.95817 0
M  V30 4214 H 396.271 -0.767497 -4.21672 0
M  V30 4215 H 400.455 -1.62719 -4.68867 0
M  V30 4216 H 395.711 -2.8398 -5.41447 0
M  V30 4217 H 399.885 -3.69943 -5.90013 0
M  V30 4218 H 397.512 -4.31148 -6.26112 0
M  V30 4219 N 399.087 1.5561 -0.249682 0
M  V30 4220 C 400.335 1.98618 0.373548 0
M  V30 4221 C 400.656 1.13919 1.58264 0
M  V30 4222 O 399.926 0.222637 1.94631 0
M  V30 4223 H 398.506 0.733571 0.141006 0
M  V30 4224 H 401.168 1.91748 -0.349117 0
M  V30 4225 H 400.264 3.04584 0.680796 0
M  V30 4226 N 400.565 -0.0233959 1.57583 0
M  V30 4227 C 401.475 -1.03907 2.10334 0
M  V30 4228 C 402.491 -1.39257 1.04323 0
M  V30 4229 O 403.667 -1.48462 1.36091 0
M  V30 4230 C 400.732 -2.31938 2.57693 0
M  V30 4231 C 399.793 -2.03117 3.78209 0
M  V30 4232 C 399.026 -3.25043 4.233 0
M  V30 4233 O 399.249 -4.35916 3.67876 0
M  V30 4234 O 398.183 -3.10411 5.15683 0
M  V30 4235 H 402.009 -0.620748 2.97288 0
M  V30 4236 H 399.594 -0.240743 1.47448 0
M  V30 4237 H 401.476 -3.07196 2.88458 0
M  V30 4238 H 400.151 -2.73055 1.73847 0
M  V30 4239 H 399.058 -1.25408 3.52454 0
M  V30 4240 H 400.391 -1.66852 4.63056 0
M  V30 4241 N 402.043 -1.548 -0.295768 0
M  V30 4242 C 403.292 -1.73538 -1.02798 0
M  V30 4243 C 403.605 -0.531159 -1.8825 0
M  V30 4244 O 404.811 -0.600458 -2.64777 0
M  V30 4245 C 403.267 -3.07051 -1.87744 0
M  V30 4246 C 402.875 -4.34968 -1.07269 0
M  V30 4247 C 404.619 -3.35146 -2.60533 0
M  V30 4248 C 402.526 -5.5953 -1.91521 0
M  V30 4249 H 401.456 -0.646794 -0.387522 0
M  V30 4250 H 404.107 -1.81278 -0.284718 0
M  V30 4251 H 402.489 -2.93289 -2.66078 0
M  V30 4252 H 403.663 -4.5958 -0.335117 0
M  V30 4253 H 401.978 -4.13847 -0.460384 0
M  V30 4254 H 404.575 -4.2541 -3.23929 0
M  V30 4255 H 404.918 -2.54255 -3.29636 0
M  V30 4256 H 405.451 -3.49902 -1.89244 0
M  V30 4257 H 402.19 -6.43103 -1.26878 0
M  V30 4258 H 401.71 -5.39096 -2.62937 0
M  V30 4259 H 403.389 -5.96982 -2.49442 0
M  V30 4260 N 403.521 0.559213 -1.47345 0
M  V30 4261 C 404.767 1.31843 -1.54095 0
M  V30 4262 C 405.1 1.93149 -0.201726 0
M  V30 4263 O 404.375 1.77759 0.789428 0
M  V30 4264 C 404.658 2.43006 -2.65744 0
M  V30 4265 C 404.511 1.86581 -4.09277 0
M  V30 4266 C 405.83 3.44943 -2.73318 0
M  V30 4267 H 402.949 0.478012 -0.560957 0
M  V30 4268 H 405.591 0.625977 -1.79392 0
M  V30 4269 H 403.741 3.02072 -2.44305 0
M  V30 4270 H 405.413 1.31792 -4.42073 0
M  V30 4271 H 403.656 1.17268 -4.17649 0
M  V30 4272 H 404.327 2.66933 -4.83168 0
M  V30 4273 H 406.803 2.95793 -2.92653 0
M  V30 4274 H 405.679 4.20153 -3.53218 0
M  V30 4275 H 405.94 4.03665 -1.80296 0
M  V30 4276 N 404.999 1.35443 0.805782 0
M  V30 4277 C 405.947 1.28465 1.93906 0
M  V30 4278 C 406.941 0.17943 1.68447 0
M  V30 4279 O 408.147 0.345459 1.76654 0
M  V30 4280 H 404.522 0.399528 0.637088 0
M  V30 4281 H 406.493 2.24206 1.96912 0
M  V30 4282 C 405.242 1.07432 3.30687 0
M  V30 4283 H 404.565 1.91716 3.50835 0
M  V30 4284 H 406.005 1.06591 4.10383 0
M  V30 4285 C 404.464 -0.22179 3.36169 0
M  V30 4286 O 404.994 -1.21731 3.82811 0
M  V30 4287 N 403.2 -0.260841 2.89427 0
M  V30 4288 H 402.747 0.549884 2.51663 0
M  V30 4289 H 402.705 -1.12777 2.93477 0
M  V30 4290 N 406.477 -1.02803 1.19454 0
M  V30 4291 C 407.387 -2.14575 0.948408 0
M  V30 4292 C 408.403 -1.73757 -0.091871 0
M  V30 4293 O 409.579 -2.01185 0.0929654 0
M  V30 4294 C 406.644 -3.43202 0.491265 0
M  V30 4295 C 405.705 -3.98328 1.60103 0
M  V30 4296 C 404.938 -5.20816 1.16561 0
M  V30 4297 O 405.161 -5.70392 0.0295238 0
M  V30 4298 O 404.095 -5.68801 1.96849 0
M  V30 4299 H 407.921 -2.38202 1.88397 0
M  V30 4300 H 405.506 -1.12989 0.977433 0
M  V30 4301 H 407.388 -4.20687 0.245015 0
M  V30 4302 H 406.063 -3.21018 -0.415851 0
M  V30 4303 H 404.97 -3.22174 1.90144 0
M  V30 4304 H 406.303 -4.24879 2.48473 0
M  V30 4305 N 407.956 -0.998596 -1.21925 0
M  V30 4306 C 408.904 -0.546641 -2.26085 0
M  V30 4307 C 409.898 0.405576 -1.64473 0
M  V30 4308 O 411.104 0.277471 -1.77849 0
M  V30 4309 H 407.479 -0.158403 -0.735127 0
M  V30 4310 H 409.45 -1.43645 -2.61551 0
M  V30 4311 C 408.199 0.117388 -3.47502 0
M  V30 4312 H 407.522 -0.606277 -3.95176 0
M  V30 4313 H 408.962 0.396993 -4.22137 0
M  V30 4314 C 407.421 1.35455 -3.0847 0
M  V30 4315 O 407.951 2.44944 -3.18379 0
M  V30 4316 N 406.157 1.23191 -2.63196 0
M  V30 4317 H 405.704 0.341006 -2.55333 0
M  V30 4318 H 405.662 2.06071 -2.37449 0
M  V30 4319 N 409.434 1.37368 -0.772513 0
M  V30 4320 C 410.397 2.28601 -0.165541 0
M  V30 4321 C 411.397 1.48062 0.627238 0
M  V30 4322 O 412.587 1.68268 0.450715 0
M  V30 4323 C 409.719 3.32023 0.772897 0
M  V30 4324 H 410.912 2.83787 -0.969787 0
M  V30 4325 H 408.465 1.46647 -0.540775 0
M  V30 4326 H 409.2 2.81962 1.60212 0
M  V30 4327 H 408.985 3.91555 0.206585 0
M  V30 4328 H 410.475 4.00197 1.19298 0
M  V30 4329 N 410.912 0.523116 1.48665 0
M  V30 4330 C 412.159 -0.0134763 2.02496 0
M  V30 4331 C 412.487 -1.3493 1.40086 0
M  V30 4332 O 411.742 -1.88286 0.533567 0
M  V30 4333 C 412.041 -0.191671 3.56886 0
M  V30 4334 C 411.707 1.06893 4.38046 0
M  V30 4335 C 410.369 1.41443 4.59943 0
M  V30 4336 C 412.721 1.90584 4.85106 0
M  V30 4337 C 410.049 2.59594 5.26144 0
M  V30 4338 C 412.401 3.07907 5.52609 0
M  V30 4339 C 411.065 3.42811 5.72745 0
M  V30 4340 H 410.335 -0.00493133 0.740984 0
M  V30 4341 H 412.982 0.687751 1.78724 0
M  V30 4342 H 411.287 -0.97561 3.79459 0
M  V30 4343 H 412.984 -0.621659 3.96152 0
M  V30 4344 H 409.574 0.789848 4.21259 0
M  V30 4345 H 413.758 1.65203 4.67997 0
M  V30 4346 H 409.014 2.86847 5.39934 0
M  V30 4347 H 413.188 3.73066 5.88043 0
M  V30 4348 H 410.815 4.34462 6.23816 0
M  V30 4349 N 412.39 -1.55475 0.257931 0
M  V30 4350 C 413.636 -1.99502 -0.364266 0
M  V30 4351 C 413.969 -1.146 -1.56782 0
M  V30 4352 O 413.244 -0.211968 -1.93342 0
M  V30 4353 C 413.527 -3.51917 -0.763333 0
M  V30 4354 C 413.38 -4.4758 0.446371 0
M  V30 4355 C 414.699 -4.09742 -1.60623 0
M  V30 4356 H 411.818 -0.725277 -0.130929 0
M  V30 4357 H 414.46 -1.8653 0.361446 0
M  V30 4358 H 412.61 -3.63101 -1.38166 0
M  V30 4359 H 414.282 -4.48362 1.08487 0
M  V30 4360 H 412.525 -4.19947 1.08753 0
M  V30 4361 H 413.196 -5.51862 0.123645 0
M  V30 4362 H 415.672 -4.01727 -1.08418 0
M  V30 4363 H 414.548 -5.16631 -1.85429 0
M  V30 4364 H 414.809 -3.58889 -2.58169 0
M  V30 4365 N 413.868 0.0150385 -1.57593 0
M  V30 4366 C 414.831 0.995996 -2.06428 0
M  V30 4367 C 415.831 1.2818 -0.970903 0
M  V30 4368 O 417.021 1.22949 -1.23406 0
M  V30 4369 C 414.153 2.32506 -2.49307 0
M  V30 4370 H 415.346 0.573873 -2.94358 0
M  V30 4371 H 412.899 0.262186 -1.54085 0
M  V30 4372 H 413.634 2.79438 -1.64575 0
M  V30 4373 H 413.419 2.13087 -3.29145 0
M  V30 4374 H 414.909 3.02906 -2.87468 0
M  V30 4375 N 415.346 1.54954 0.287554 0
M  V30 4376 C 416.276 1.89839 1.35954 0
M  V30 4377 C 417.257 0.758675 1.52244 0
M  V30 4378 O 418.442 1.01557 1.65529 0
M  V30 4379 C 415.572 2.15753 2.72154 0
M  V30 4380 C 414.526 3.3159 2.70614 0
M  V30 4381 C 413.852 3.42952 4.10229 0
M  V30 4382 C 415.152 4.68359 2.31165 0
M  V30 4383 H 416.846 2.79625 1.07007 0
M  V30 4384 H 414.392 1.3454 0.513316 0
M  V30 4385 H 416.345 2.38743 3.47246 0
M  V30 4386 H 415.069 1.22752 3.02654 0
M  V30 4387 H 413.728 3.08545 1.97979 0
M  V30 4388 H 413.376 2.47443 4.37928 0
M  V30 4389 H 413.076 4.20826 4.10097 0
M  V30 4390 H 414.6 3.68218 4.87081 0
M  V30 4391 H 416.014 4.9099 2.95976 0
M  V30 4392 H 414.411 5.49044 2.42221 0
M  V30 4393 H 415.481 4.68165 1.26291 0
M  V30 4394 N 416.824 -0.551391 1.4764 0
M  V30 4395 C 418.049 -1.33837 1.58437 0
M  V30 4396 C 418.474 -1.866 0.237063 0
M  V30 4397 O 417.832 -1.6328 -0.787994 0
M  V30 4398 C 417.88 -2.48014 2.61766 0
M  V30 4399 O 416.984 -3.50419 2.1744 0
M  V30 4400 H 416.325 -0.397299 0.532024 0
M  V30 4401 H 418.855 -0.665759 1.93465 0
M  V30 4402 H 418.865 -2.94503 2.82369 0
M  V30 4403 H 417.54 -2.08969 3.5959 0
M  V30 4404 H 416.117 -3.10196 2.06961 0
M  V30 4405 N 418.302 -1.35869 -0.798587 0
M  V30 4406 C 419.25 -1.29491 -1.93222 0
M  V30 4407 C 420.244 -0.18836 -1.6835 0
M  V30 4408 O 421.45 -0.354822 -1.76468 0
M  V30 4409 H 417.825 -0.402901 -0.63496 0
M  V30 4410 H 419.796 -2.25247 -1.9572 0
M  V30 4411 C 418.545 -1.09184 -3.30112 0
M  V30 4412 H 417.868 -1.93574 -3.49813 0
M  V30 4413 H 419.308 -1.08766 -4.09812 0
M  V30 4414 C 417.767 0.203959 -3.36282 0
M  V30 4415 O 418.297 1.19699 -3.83451 0
M  V30 4416 N 416.503 0.245488 -2.89561 0
M  V30 4417 H 416.05 -0.563223 -2.51367 0
M  V30 4418 H 416.008 1.11219 -2.94071 0
M  V30 4419 N 419.78 1.02168 -1.19998 0
M  V30 4420 C 421.057 1.72816 -0.916191 0
M  V30 4421 C 421.437 2.03081 0.576325 0
M  V30 4422 O 420.785 1.69122 1.53656 0
M  V30 4423 C 420.995 2.9997 -1.78378 0
M  V30 4424 C 422.343 3.73336 -2.02251 0
M  V30 4425 O 423.367 3.09914 -1.75589 0
M  V30 4426 O 422.226 4.87371 -2.47249 0
M  V30 4427 H 419.32 0.752924 -0.342103 0
M  V30 4428 H 421.866 1.08062 -1.30846 0
M  V30 4429 H 420.638 2.73888 -2.79466 0
M  V30 4430 H 420.261 3.72464 -1.39126 0
M  V30 4431 N 421.258 1.00505 1.21394 0
M  V30 4432 C 422.504 0.698477 1.91031 0
M  V30 4433 C 422.859 -0.762448 1.76648 0
M  V30 4434 O 422.152 -1.54554 1.13241 0
M  V30 4435 C 422.346 1.0546 3.41486 0
M  V30 4436 C 422.175 2.5486 3.70508 0
M  V30 4437 C 420.945 3.21461 3.8986 0
M  V30 4438 C 423.143 3.53019 3.74008 0
M  V30 4439 N 421.125 4.60211 4.06299 0
M  V30 4440 C 422.496 4.77279 3.95733 0
M  V30 4441 C 424.551 3.47154 3.56915 0
M  V30 4442 C 423.254 5.96388 4.02137 0
M  V30 4443 C 425.28 4.65652 3.64585 0
M  V30 4444 C 424.642 5.88717 3.86771 0
M  V30 4445 H 420.741 0.30707 0.719189 0
M  V30 4446 H 423.325 1.28753 1.46051 0
M  V30 4447 H 421.496 0.494007 3.85246 0
M  V30 4448 H 423.228 0.702765 3.98552 0
M  V30 4449 H 419.983 2.71906 3.87768 0
M  V30 4450 H 420.407 5.32216 4.1842 0
M  V30 4451 H 425.049 2.53015 3.38738 0
M  V30 4452 H 422.767 6.90919 4.19114 0
M  V30 4453 H 426.353 4.62717 3.52681 0
M  V30 4454 H 425.233 6.78877 3.92549 0
M  V30 4455 N 422.737 -1.36956 0.779787 0
M  V30 4456 C 423.985 -1.99097 0.347079 0
M  V30 4457 C 424.306 -1.62206 -1.08232 0
M  V30 4458 O 423.576 -0.891373 -1.74446 0
M  V30 4459 H 422.156 -0.736409 0.125342 0
M  V30 4460 H 424.818 -1.67308 0.999696 0
M  V30 4461 H 423.914 -3.09107 0.431162 0
M  V30 4462 N 424.215 -0.530993 -1.48385 0
M  V30 4463 C 425.44 0.000729535 -2.074 0
M  V30 4464 C 425.865 1.27298 -1.3848 0
M  V30 4465 O 425.223 1.75599 -0.451081 0
M  V30 4466 C 425.271 0.206697 -3.60007 0
M  V30 4467 O 424.375 1.27514 -3.92191 0
M  V30 4468 H 423.716 -0.039583 -0.662819 0
M  V30 4469 H 426.246 -0.739194 -1.9078 0
M  V30 4470 H 426.256 0.42904 -4.05738 0
M  V30 4471 H 424.931 -0.722675 -4.09573 0
M  V30 4472 H 423.508 1.03537 -3.58238 0
M  V30 4473 N 425.693 1.55336 -0.266172 0
M  V30 4474 C 426.641 2.23587 0.641228 0
M  V30 4475 C 427.635 1.22986 1.16494 0
M  V30 4476 O 428.841 1.40943 1.1196 0
M  V30 4477 H 425.216 0.717452 0.225315 0
M  V30 4478 H 427.187 2.9837 0.0426561 0
M  V30 4479 C 425.936 2.96369 1.81826 0
M  V30 4480 H 425.259 3.73563 1.42445 0
M  V30 4481 H 426.699 3.47459 2.42998 0
M  V30 4482 C 425.158 2.0133 2.70125 0
M  V30 4483 O 425.688 1.55875 3.70224 0
M  V30 4484 N 423.894 1.6802 2.37102 0
M  V30 4485 H 423.441 2.05181 1.55751 0
M  V30 4486 H 423.399 1.047 2.96454 0
M  V30 4487 N 427.171 -0.0066808 1.57599 0
M  V30 4488 C 428.104 -1.03397 2.03431 0
M  V30 4489 C 429.082 -1.33872 0.922877 0
M  V30 4490 O 430.266 -1.4615 1.19048 0
M  V30 4491 C 427.393 -2.36325 2.42628 0
M  V30 4492 C 426.439 -2.21557 3.64438 0
M  V30 4493 S 427.272 -1.54789 5.12641 0
M  V30 4494 C 428.428 -2.8916 5.55101 0
M  V30 4495 H 428.661 -0.643687 2.90248 0
M  V30 4496 H 426.194 -0.217349 1.52863 0
M  V30 4497 H 428.152 -3.12759 2.65879 0
M  V30 4498 H 426.813 -2.72495 1.56222 0
M  V30 4499 H 426.006 -3.1974 3.89592 0
M  V30 4500 H 425.608 -1.53267 3.41153 0
M  V30 4501 H 427.9 -3.8547 5.57153 0
M  V30 4502 H 428.843 -2.68713 6.55133 0
M  V30 4503 H 429.251 -2.92762 4.82649 0
M  V30 4504 N 428.649 -1.55105 -0.279332 0
M  V30 4505 C 429.898 -1.74618 -1.00952 0
M  V30 4506 C 430.211 -0.551096 -1.87676 0
M  V30 4507 O 431.417 -0.628507 -2.64125 0
M  V30 4508 C 429.873 -3.09025 -1.84476 0
M  V30 4509 C 429.481 -4.36081 -1.0265 0
M  V30 4510 C 431.225 -3.37891 -2.56963 0
M  V30 4511 C 429.132 -5.6153 -1.85576 0
M  V30 4512 H 428.062 -0.650868 -0.38064 0
M  V30 4513 H 430.713 -1.81569 -0.265475 0
M  V30 4514 H 429.095 -2.96095 -2.62952 0
M  V30 4515 H 430.269 -4.59909 -0.286354 0
M  V30 4516 H 428.584 -4.14312 -0.416464 0
M  V30 4517 H 431.181 -4.28822 -3.19399 0
M  V30 4518 H 431.524 -2.57737 -3.26921 0
M  V30 4519 H 432.057 -3.5189 -1.85522 0
M  V30 4520 H 428.796 -6.44413 -1.2005 0
M  V30 4521 H 428.316 -5.41854 -2.57204 0
M  V30 4522 H 429.995 -5.99594 -2.43096 0
M  V30 4523 N 430.127 0.543554 -1.4793 0
M  V30 4524 C 431.543 0.870806 -1.3375 0
M  V30 4525 C 431.743 1.9864 -0.338261 0
M  V30 4526 O 430.799 2.51305 0.245371 0
M  V30 4527 C 432.112 1.25114 -2.73435 0
M  V30 4528 C 433.66 1.3618 -2.81823 0
M  V30 4529 C 434.135 1.77563 -4.22179 0
M  V30 4530 N 435.626 1.8469 -4.24787 0
M  V30 4531 C 436.361 2.18067 -5.30315 0
M  V30 4532 N 435.857 2.49963 -6.46135 0
M  V30 4533 N 437.65 2.18958 -5.17701 0
M  V30 4534 H 429.801 -0.19275 -2.11524 0
M  V30 4535 H 432.064 -0.0235777 -0.947707 0
M  V30 4536 H 431.77 0.50514 -3.48053 0
M  V30 4537 H 431.644 2.20431 -3.06088 0
M  V30 4538 H 434.031 2.09859 -2.07468 0
M  V30 4539 H 434.112 0.390169 -2.52807 0
M  V30 4540 H 433.756 1.04449 -4.97044 0
M  V30 4541 H 433.686 2.75753 -4.48629 0
M  V30 4542 H 436.177 1.62372 -3.41239 0
M  V30 4543 H 436.49 2.74497 -7.22406 0
M  V30 4544 H 434.835 2.47513 -6.49432 0
M  V30 4545 H 438.026 1.93488 -4.2624 0
M  V30 4546 H 438.199 2.44639 -6.00047 0
M  V30 4547 N 431.605 1.3629 0.791371 0
M  V30 4548 C 432.535 1.33137 1.91825 0
M  V30 4549 C 433.516 0.203168 1.68882 0
M  V30 4550 O 434.701 0.400509 1.90025 0
M  V30 4551 C 431.831 1.11793 3.28816 0
M  V30 4552 C 430.785 2.21417 3.66277 0
M  V30 4553 C 430.111 1.85218 5.01596 0
M  V30 4554 C 431.411 3.63489 3.75064 0
M  V30 4555 H 433.105 2.2743 1.9472 0
M  V30 4556 H 430.651 1.09479 0.935437 0
M  V30 4557 H 432.604 1.08222 4.07266 0
M  V30 4558 H 431.328 0.139501 3.26302 0
M  V30 4559 H 429.987 2.2411 2.90121 0
M  V30 4560 H 429.635 0.859544 4.95602 0
M  V30 4561 H 429.335 2.58611 5.27631 0
M  V30 4562 H 430.859 1.832 5.82469 0
M  V30 4563 H 432.273 3.63034 4.43711 0
M  V30 4564 H 430.67 4.35771 4.12582 0
M  V30 4565 H 431.74 3.98536 2.76219 0
M  V30 4566 N 433.083 -1.0153 1.20538 0
M  V30 4567 C 434.046 -2.0826 0.957098 0
M  V30 4568 C 435.046 -1.60657 -0.0678655 0
M  V30 4569 O 436.236 -1.73385 0.168332 0
M  V30 4570 C 433.368 -3.38033 0.441188 0
M  V30 4571 H 434.561 -2.31719 1.90384 0
M  V30 4572 H 432.114 -1.1835 1.02093 0
M  V30 4573 H 432.849 -3.20249 -0.510961 0
M  V30 4574 H 432.634 -3.73911 1.18038 0
M  V30 4575 H 434.124 -4.16613 0.287009 0
M  V30 4576 N 434.561 -1.01147 -1.20859 0
M  V30 4577 C 435.494 -0.522108 -2.22147 0
M  V30 4578 C 436.472 0.427686 -1.56874 0
M  V30 4579 O 437.656 0.34889 -1.85243 0
M  V30 4580 C 434.783 0.240819 -3.37843 0
M  V30 4581 C 433.829 -0.657752 -4.21398 0
M  V30 4582 S 434.662 -2.12393 -4.91578 0
M  V30 4583 C 435.818 -1.37102 -6.10699 0
M  V30 4584 H 436.051 -1.38035 -2.63313 0
M  V30 4585 H 433.584 -0.819941 -1.30829 0
M  V30 4586 H 435.542 0.674908 -4.04914 0
M  V30 4587 H 434.203 1.07457 -2.95147 0
M  V30 4588 H 433.396 -0.0697456 -5.03952 0
M  V30 4589 H 432.998 -1.0294 -3.59555 0
M  V30 4590 H 435.29 -0.648315 -6.74391 0
M  V30 4591 H 436.233 -2.17252 -6.73949 0
M  V30 4592 H 436.641 -0.876154 -5.57659 0
M  V30 4593 N 436.039 1.36541 -0.78704 0
M  V30 4594 C 437.269 2.03266 -0.369662 0
M  V30 4595 C 437.677 1.59481 1.01796 0
M  V30 4596 O 437.02 0.778612 1.66383 0
M  V30 4597 C 437.082 3.57779 -0.351371 0
M  V30 4598 C 436.746 4.24756 -1.68617 0
M  V30 4599 C 437.743 4.47811 -2.64124 0
M  V30 4600 C 435.428 4.62277 -1.96481 0
M  V30 4601 C 437.422 5.07464 -3.85693 0
M  V30 4602 C 435.109 5.21649 -3.18317 0
M  V30 4603 C 436.107 5.44182 -4.12741 0
M  V30 4604 O 435.795 6.02307 -5.32429 0
M  V30 4605 H 435.527 0.658977 -0.150751 0
M  V30 4606 H 438.081 1.75548 -1.0664 0
M  V30 4607 H 436.311 3.84606 0.401847 0
M  V30 4608 H 438 4.05879 0.0410147 0
M  V30 4609 H 438.766 4.19221 -2.43883 0
M  V30 4610 H 434.645 4.44065 -1.23805 0
M  V30 4611 H 438.189 5.24968 -4.59407 0
M  V30 4612 H 434.086 5.49664 -3.38437 0
M  V30 4613 H 434.854 6.20775 -5.33461 0
M  V30 4614 N 437.518 0.538854 1.48102 0
M  V30 4615 C 438.767 0.0059532 2.01699 0
M  V30 4616 C 439.08 -1.34476 1.42041 0
M  V30 4617 O 440.286 -1.96653 1.87189 0
M  V30 4618 C 438.742 -0.0397627 3.59878 0
M  V30 4619 C 438.35 1.30659 4.28523 0
M  V30 4620 C 440.094 -0.521024 4.2129 0
M  V30 4621 C 438.001 1.22098 5.78659 0
M  V30 4622 H 436.931 -0.00154456 0.753998 0
M  V30 4623 H 439.582 0.683963 1.70277 0
M  V30 4624 H 437.964 -0.783037 3.88181 0
M  V30 4625 H 439.138 2.06613 4.11883 0
M  V30 4626 H 437.453 1.7243 3.79021 0
M  V30 4627 H 440.05 -0.603184 5.31287 0
M  V30 4628 H 440.393 -1.52885 3.8721 0
M  V30 4629 H 440.926 0.166834 3.9745 0
M  V30 4630 H 437.665 2.20424 6.17328 0
M  V30 4631 H 437.185 0.50295 5.97688 0
M  V30 4632 H 438.864 0.915345 6.40492 0
M  V30 4633 N 438.996 -1.55193 0.274407 0
M  V30 4634 C 440.244 -1.99187 -0.341902 0
M  V30 4635 C 440.565 -1.16422 -1.56431 0
M  V30 4636 O 439.835 -0.253573 -1.94252 0
M  V30 4637 H 438.415 -0.735721 -0.129317 0
M  V30 4638 H 441.077 -1.91168 0.379578 0
M  V30 4639 H 440.173 -3.05629 -0.632253 0
M  V30 4640 N 440.474 -0.00167713 -1.576 0
M  V30 4641 C 441.384 1.00548 -2.1196 0
M  V30 4642 C 442.4 1.3758 -1.06526 0
M  V30 4643 O 443.576 1.46278 -1.38436 0
M  V30 4644 C 440.641 2.27809 -2.6135 0
M  V30 4645 C 439.702 1.97074 -3.81393 0
M  V30 4646 C 438.935 3.18267 -4.28417 0
M  V30 4647 O 439.158 4.30009 -3.74765 0
M  V30 4648 O 438.092 3.02167 -5.20556 0
M  V30 4649 H 441.918 0.573373 -2.98238 0
M  V30 4650 H 439.503 0.217255 -1.47812 0
M  V30 4651 H 441.385 3.02568 -2.93309 0
M  V30 4652 H 440.06 2.70254 -1.78169 0
M  V30 4653 H 438.967 1.19785 -3.54404 0
M  V30 4654 H 440.3 1.59464 -4.65652 0
M  V30 4655 N 441.952 1.55251 0.271103 0
M  V30 4656 C 442.9 1.89054 1.35504 0
M  V30 4657 C 443.894 0.767064 1.51038 0
M  V30 4658 O 445.1 0.951429 1.528 0
M  V30 4659 H 441.475 0.600072 0.45323 0
M  V30 4660 H 443.446 2.79598 1.04247 0
M  V30 4661 C 442.195 2.18068 2.70817 0
M  V30 4662 H 441.518 3.04005 2.59656 0
M  V30 4663 H 442.958 2.4564 3.45597 0
M  V30 4664 C 441.417 0.988901 3.2206 0
M  V30 4665 O 441.947 0.224501 4.01072 0
M  V30 4666 N 440.153 0.786085 2.79766 0
M  V30 4667 H 439.7 1.40937 2.15626 0
M  V30 4668 H 439.658 -0.00969349 3.14399 0
M  V30 4669 N 443.43 -0.535701 1.48216 0
M  V30 4670 C 444.678 -1.28928 1.55634 0
M  V30 4671 C 444.999 -1.93645 0.229514 0
M  V30 4672 O 444.269 -1.81038 -0.74846 0
M  V30 4673 H 442.849 -0.47884 0.573342 0
M  V30 4674 H 445.511 -0.623853 1.84646 0
M  V30 4675 H 444.607 -2.07157 2.33436 0
M  V30 4676 N 444.908 -1.36708 -0.784132 0
M  V30 4677 C 446.138 -1.34203 -1.57077 0
M  V30 4678 C 446.546 0.0774945 -1.89041 0
M  V30 4679 O 445.889 1.04628 -1.50992 0
M  V30 4680 C 445.951 -2.10351 -2.91535 0
M  V30 4681 C 445.615 -3.59405 -2.82272 0
M  V30 4682 C 446.612 -4.53545 -2.54151 0
M  V30 4683 C 444.297 -4.02362 -3.00683 0
M  V30 4684 C 446.291 -5.8862 -2.44551 0
M  V30 4685 C 443.978 -5.37526 -2.90704 0
M  V30 4686 C 444.976 -6.30468 -2.62677 0
M  V30 4687 O 444.664 -7.63149 -2.52702 0
M  V30 4688 H 444.396 -0.461791 -0.493685 0
M  V30 4689 H 446.95 -1.80475 -0.980712 0
M  V30 4690 H 445.18 -1.5875 -3.52612 0
M  V30 4691 H 446.869 -2.00636 -3.52845 0
M  V30 4692 H 447.635 -4.21669 -2.39625 0
M  V30 4693 H 443.514 -3.30389 -3.21503 0
M  V30 4694 H 447.058 -6.61133 -2.22596 0
M  V30 4695 H 442.955 -5.69008 -3.04795 0
M  V30 4696 H 443.723 -7.73331 -2.68144 0
M  V30 4697 N 446.386 1.0089 -1.21074 0
M  V30 4698 C 447.349 2.0775 -0.968129 0
M  V30 4699 C 448.349 1.6069 0.0593445 0
M  V30 4700 O 449.539 1.73293 -0.177525 0
M  V30 4701 C 446.671 3.37794 -0.459108 0
M  V30 4702 H 447.864 2.30707 -1.9161 0
M  V30 4703 H 445.417 1.17807 -1.02719 0
M  V30 4704 H 446.152 3.20516 0.49397 0
M  V30 4705 H 445.937 3.7328 -1.20019 0
M  V30 4706 H 447.427 4.16454 -0.309099 0
M  V30 4707 N 447.864 1.01787 1.20321 0
M  V30 4708 C 449.092 0.727194 1.937 0
M  V30 4709 C 449.507 -0.712305 1.74848 0
M  V30 4710 O 448.864 -1.48327 1.06327 0
M  V30 4711 C 448.915 1.05497 3.45764 0
M  V30 4712 O 448.636 2.43794 3.64 0
M  V30 4713 C 450.137 0.785534 4.36285 0
M  V30 4714 H 447.357 0.266939 0.615617 0
M  V30 4715 H 449.901 1.35939 1.52777 0
M  V30 4716 H 448.056 0.468158 3.84561 0
M  V30 4717 H 448.47 2.55656 4.57974 0
M  V30 4718 H 449.944 1.06495 5.4163 0
M  V30 4719 H 450.421 -0.280273 4.38305 0
M  V30 4720 H 451.027 1.35456 4.03152 0
M  V30 4721 N 449.342 -1.36122 0.79427 0
M  V30 4722 C 450.29 -2.31871 0.184023 0
M  V30 4723 C 451.284 -1.56041 -0.659365 0
M  V30 4724 O 452.49 -1.71266 -0.553906 0
M  V30 4725 H 448.865 -0.750896 0.0407373 0
M  V30 4726 H 450.836 -2.80898 1.00693 0
M  V30 4727 C 449.585 -3.41324 -0.662813 0
M  V30 4728 H 448.908 -3.99793 -0.0231944 0
M  V30 4729 H 450.348 -4.10629 -1.05639 0
M  V30 4730 C 448.807 -2.83308 -1.82313 0
M  V30 4731 O 449.337 -2.75863 -2.91997 0
M  V30 4732 N 447.543 -2.40529 -1.63077 0
M  V30 4733 H 447.09 -2.46785 -0.738591 0
M  V30 4734 H 447.048 -2.02059 -2.40872 0
M  V30 4735 N 450.82 -0.546701 -1.47814 0
M  V30 4736 C 452.231 -0.110564 -1.86372 0
M  V30 4737 C 452.582 1.31678 -1.45449 0
M  V30 4738 O 451.707 1.98889 -0.852758 0
M  V30 4739 C 452.302 -0.193873 -3.38245 0
M  V30 4740 C 450.861 0.187164 -3.75934 0
M  V30 4741 C 450.008 -0.546166 -2.71868 0
M  V30 4742 H 452.959 -0.757022 -1.39481 0
M  V30 4743 H 452.98 0.590218 -3.75895 0
M  V30 4744 H 452.492 -1.23282 -3.67999 0
M  V30 4745 H 450.593 1.22762 -3.51796 0
M  V30 4746 H 450.706 -0.164083 -4.78819 0
M  V30 4747 H 449.07 0.00953904 -2.54698 0
M  V30 4748 H 449.853 -1.58606 -3.04465 0
M  V30 4749 N 452.299 1.55045 -0.282633 0
M  V30 4750 C 453.209 2.26491 0.61147 0
M  V30 4751 C 454.225 1.29348 1.16384 0
M  V30 4752 O 455.401 1.62298 1.19253 0
M  V30 4753 C 452.466 2.97779 1.77563 0
M  V30 4754 C 451.527 4.10418 1.25919 0
M  V30 4755 C 450.76 4.78297 2.36786 0
M  V30 4756 O 450.983 4.45426 3.56303 0
M  V30 4757 O 449.917 5.66089 2.04517 0
M  V30 4758 H 453.743 3.03683 0.0324615 0
M  V30 4759 H 451.328 1.49317 -0.0497576 0
M  V30 4760 H 453.21 3.42554 2.45427 0
M  V30 4761 H 451.885 2.23498 2.34159 0
M  V30 4762 H 450.792 3.70082 0.546797 0
M  V30 4763 H 452.125 4.86622 0.738887 0
M  V30 4764 N 453.777 0.010035 1.57597 0
M  V30 4765 C 455.023 -0.673697 1.91283 0
M  V30 4766 C 455.356 -1.72863 0.884979 0
M  V30 4767 O 454.631 -1.94268 -0.0949487 0
M  V30 4768 C 454.914 -1.30766 3.35518 0
M  V30 4769 C 454.767 -0.263578 4.49027 0
M  V30 4770 C 456.086 -2.23105 3.79358 0
M  V30 4771 H 453.205 -0.243439 0.695634 0
M  V30 4772 H 455.847 0.0633864 1.89894 0
M  V30 4773 H 453.997 -1.93588 3.36832 0
M  V30 4774 H 455.669 0.365738 4.59848 0
M  V30 4775 H 453.912 0.413077 4.31829 0
M  V30 4776 H 454.583 -0.746398 5.4693 0
M  V30 4777 H 457.059 -1.70289 3.79659 0
M  V30 4778 H 455.935 -2.64424 4.81011 0
M  V30 4779 H 456.196 -3.11433 3.13787 0
M  V30 4780 N 455.255 -1.55392 -0.262866 0
M  V30 4781 C 456.202 -1.88966 -1.32516 0
M  V30 4782 C 457.172 -0.742187 -1.48596 0
M  V30 4783 O 458.357 -0.99439 -1.62839 0
M  V30 4784 C 455.497 -2.17592 -2.67858 0
M  V30 4785 C 454.61 -3.45061 -2.59917 0
M  V30 4786 C 453.745 -3.63336 -3.87505 0
M  V30 4787 C 452.784 -4.84462 -3.74116 0
M  V30 4788 N 451.921 -4.99342 -4.93561 0
M  V30 4789 H 456.761 -2.79566 -1.03184 0
M  V30 4790 H 454.298 -1.38404 -0.498285 0
M  V30 4791 H 456.256 -2.3219 -3.46617 0
M  V30 4792 H 454.886 -1.30215 -2.95371 0
M  V30 4793 H 453.938 -3.38881 -1.72812 0
M  V30 4794 H 455.25 -4.3396 -2.45926 0
M  V30 4795 H 454.404 -3.77807 -4.74707 0
M  V30 4796 H 453.143 -2.72641 -4.04374 0
M  V30 4797 H 452.148 -4.69985 -2.85297 0
M  V30 4798 H 453.373 -5.76603 -3.58757 0
M  V30 4799 H 451.319 -4.1158 -5.10821 0
M  V30 4800 H 451.236 -5.82303 -4.82141 0
M  V30 4801 H 452.504 -5.18208 -5.82306 0
M  V30 4802 N 456.733 0.527833 -1.48498 0
M  V30 4803 C 458.01 1.28905 -1.47115 0
M  V30 4804 C 458.39 2.10297 -0.184007 0
M  V30 4805 O 457.738 2.12728 0.834218 0
M  V30 4806 C 457.948 2.16866 -2.73441 0
M  V30 4807 C 459.296 2.76936 -3.21857 0
M  V30 4808 O 460.32 2.27152 -2.74373 0
M  V30 4809 O 459.179 3.67496 -4.04486 0
M  V30 4810 H 456.273 0.581918 -0.587623 0
M  V30 4811 H 458.819 0.544311 -1.60734 0
M  V30 4812 H 457.591 1.56521 -3.58632 0
M  V30 4813 H 457.214 2.98583 -2.62553 0
M  V30 4814 N 458.211 1.37122 0.776871 0
M  V30 4815 C 459.141 1.35164 1.90402 0
M  V30 4816 C 460.122 0.221069 1.68657 0
M  V30 4817 O 461.307 0.420642 1.8959 0
M  V30 4818 C 458.437 1.15274 3.27611 0
M  V30 4819 C 457.391 2.25289 3.63908 0
M  V30 4820 C 456.717 1.90527 4.99603 0
M  V30 4821 C 458.017 3.67446 3.71188 0
M  V30 4822 H 459.711 2.29482 1.92297 0
M  V30 4823 H 457.257 1.10465 0.923773 0
M  V30 4824 H 459.21 1.12536 4.06096 0
M  V30 4825 H 457.934 0.174102 3.26136 0
M  V30 4826 H 456.593 2.27174 2.87728 0
M  V30 4827 H 456.241 0.91206 4.94662 0
M  V30 4828 H 455.941 2.64193 5.24858 0
M  V30 4829 H 457.465 1.89367 5.80493 0
M  V30 4830 H 458.879 3.67719 4.39836 0
M  V30 4831 H 457.276 4.40123 4.07936 0
M  V30 4832 H 458.346 4.01443 2.71977 0
M  V30 4833 N 459.689 -1.00246 1.21608 0
M  V30 4834 C 460.935 -1.74319 1.03638 0
M  V30 4835 C 461.268 -1.89408 -0.428749 0
M  V30 4836 O 460.543 -1.43026 -1.3181 0
M  V30 4837 C 460.826 -3.15431 1.73711 0
M  V30 4838 C 460.679 -3.08049 3.27759 0
M  V30 4839 C 461.998 -4.14407 1.48173 0
M  V30 4840 H 459.117 -0.632741 0.377899 0
M  V30 4841 H 461.759 -1.16853 1.49818 0
M  V30 4842 H 459.909 -3.64493 1.34452 0
M  V30 4843 H 461.581 -2.66681 3.76403 0
M  V30 4844 H 459.824 -2.45088 3.57931 0
M  V30 4845 H 460.495 -4.07862 3.71958 0
M  V30 4846 H 462.971 -3.74061 1.82258 0
M  V30 4847 H 461.847 -5.11279 1.99713 0
M  V30 4848 H 462.108 -4.40174 0.412273 0
M  V30 4849 N 461.167 -1.02423 -1.1978 0
M  V30 4850 C 462.397 -0.736387 -1.93031 0
M  V30 4851 C 462.805 0.708023 -1.75453 0
M  V30 4852 O 462.148 1.4927 -1.07071 0
M  V30 4853 C 462.21 -1.00194 -3.45255 0
M  V30 4854 C 461.874 -2.43698 -3.86601 0
M  V30 4855 C 462.871 -3.41814 -3.91738 0
M  V30 4856 C 460.556 -2.77975 -4.18372 0
M  V30 4857 C 462.55 -4.72265 -4.28071 0
M  V30 4858 C 460.237 -4.08636 -4.54378 0
M  V30 4859 C 461.235 -5.05592 -4.59201 0
M  V30 4860 O 460.923 -6.33914 -4.94376 0
M  V30 4861 H 460.655 -0.269116 -0.620123 0
M  V30 4862 H 463.209 -1.37043 -1.52998 0
M  V30 4863 H 461.439 -0.310747 -3.85449 0
M  V30 4864 H 463.128 -0.704488 -3.9974 0
M  V30 4865 H 463.894 -3.16671 -3.67348 0
M  V30 4866 H 459.773 -2.0319 -4.13805 0
M  V30 4867 H 463.317 -5.4794 -4.3175 0
M  V30 4868 H 459.214 -4.33556 -4.78226 0
M  V30 4869 H 459.982 -6.38317 -5.12341 0
M  V30 4870 N 462.645 1.35699 -0.801477 0
M  V30 4871 C 463.555 2.33661 -0.209691 0
M  V30 4872 C 464.571 1.6162 0.644591 0
M  V30 4873 O 465.747 1.93529 0.557545 0
M  V30 4874 C 462.812 3.40816 0.636033 0
M  V30 4875 C 461.873 4.28639 -0.238147 0
M  V30 4876 C 461.106 5.30676 0.567307 0
M  V30 4877 O 461.329 5.41174 1.8024 0
M  V30 4878 O 460.263 6.01887 -0.0391336 0
M  V30 4879 H 464.089 2.8606 -1.01996 0
M  V30 4880 H 461.674 1.38379 -0.563164 0
M  V30 4881 H 463.556 4.06301 1.11791 0
M  V30 4882 H 462.231 2.90696 1.42399 0
M  V30 4883 H 461.138 3.66152 -0.767044 0
M  V30 4884 H 462.471 4.82143 -0.989915 0
M  V30 4885 N 464.123 0.554532 1.47522 0
M  V30 4886 C 465.371 0.0294208 2.02079 0
M  V30 4887 C 465.692 -1.32411 1.43151 0
M  V30 4888 O 464.962 -1.863 0.605728 0
M  V30 4889 H 463.542 0.00788672 0.746958 0
M  V30 4890 H 466.204 0.723934 1.80956 0
M  V30 4891 H 465.3 -0.0606745 3.12041 0
M  V30 4892 N 465.601 -1.54893 0.290851 0
M  V30 4893 C 466.85 -1.99111 -0.322113 0
M  V30 4894 C 467.163 -1.18283 -1.55784 0
M  V30 4895 O 468.369 -1.5272 -2.24475 0
M  V30 4896 C 466.825 -3.54442 -0.624438 0
M  V30 4897 C 466.433 -4.44066 0.592373 0
M  V30 4898 C 468.177 -4.07211 -1.19916 0
M  V30 4899 C 466.084 -5.90812 0.263762 0
M  V30 4900 H 465.014 -0.743712 -0.124133 0
M  V30 4901 H 467.665 -1.79132 0.39797 0
M  V30 4902 H 466.047 -3.70281 -1.40384 0
M  V30 4903 H 467.221 -4.39999 1.36886 0
M  V30 4904 H 465.536 -4.02015 1.08502 0
M  V30 4905 H 468.133 -5.14407 -1.45909 0
M  V30 4906 H 468.476 -3.57196 -2.13815 0
M  V30 4907 H 469.009 -3.94873 -0.481687 0
M  V30 4908 H 465.748 -6.44955 1.17105 0
M  V30 4909 H 465.268 -5.97911 -0.475655 0
M  V30 4910 H 466.947 -6.46852 -0.138354 0
M  V30 4911 N 467.08 -0.0183926 -1.57589 0
M  V30 4912 C 467.99 0.982943 -2.13015 0
M  V30 4913 C 469.006 1.36443 -1.07979 0
M  V30 4914 O 470.182 1.44802 -1.3998 0
M  V30 4915 C 467.247 2.25024 -2.63752 0
M  V30 4916 C 466.308 1.93018 -3.83461 0
M  V30 4917 C 465.541 3.13706 -4.31769 0
M  V30 4918 O 465.764 4.2601 -3.79305 0
M  V30 4919 O 464.698 2.96629 -5.23732 0
M  V30 4920 H 468.524 0.541709 -2.9883 0
M  V30 4921 H 466.109 0.201565 -1.48034 0
M  V30 4922 H 467.991 2.99441 -2.96502 0
M  V30 4923 H 466.666 2.68349 -1.81026 0
M  V30 4924 H 465.573 1.16019 -3.55655 0
M  V30 4925 H 466.906 1.54516 -4.67317 0
M  V30 4926 N 468.558 1.5553 0.254621 0
M  V30 4927 C 469.488 1.9268 1.31897 0
M  V30 4928 C 470.469 0.790797 1.506 0
M  V30 4929 O 471.654 1.05045 1.63337 0
M  V30 4930 C 468.784 2.21477 2.67517 0
M  V30 4931 C 467.738 3.37256 2.63519 0
M  V30 4932 C 467.064 3.51576 4.02862 0
M  V30 4933 C 468.364 4.73157 2.21179 0
M  V30 4934 H 470.058 2.81832 1.01051 0
M  V30 4935 H 467.604 1.35599 0.484662 0
M  V30 4936 H 469.557 2.46055 3.42104 0
M  V30 4937 H 468.281 1.29144 2.99982 0
M  V30 4938 H 466.94 3.12675 1.9139 0
M  V30 4939 H 466.588 2.56676 4.32581 0
M  V30 4940 H 466.288 4.2943 4.01078 0
M  V30 4941 H 467.812 3.78467 4.79161 0
M  V30 4942 H 469.226 4.97158 2.85494 0
M  V30 4943 H 467.623 5.54058 2.30521 0
M  V30 4944 H 468.693 4.70739 1.16332 0
M  V30 4945 N 470.036 -0.519951 1.48776 0
M  V30 4946 C 470.999 -1.60574 1.6355 0
M  V30 4947 C 471.999 -1.52557 0.508234 0
M  V30 4948 O 473.189 -1.56047 0.774262 0
M  V30 4949 C 470.321 -3.00211 1.61512 0
M  V30 4950 H 471.514 -1.4881 2.60376 0
M  V30 4951 H 469.067 -0.742772 1.37523 0
M  V30 4952 H 469.802 -3.17471 0.662009 0
M  V30 4953 H 469.587 -3.07439 2.43359 0
M  V30 4954 H 471.077 -3.79134 1.75064 0
M  V30 4955 N 471.514 -1.37532 -0.769588 0
M  V30 4956 C 472.761 -1.3286 -1.52822 0
M  V30 4957 C 473.089 0.0862597 -1.94309 0
M  V30 4958 O 472.344 1.05995 -1.6451 0
M  V30 4959 C 472.643 -2.21558 -2.8044 0
M  V30 4960 C 472.309 -3.69796 -2.57996 0
M  V30 4961 C 470.971 -4.10194 -2.51583 0
M  V30 4962 C 473.323 -4.63699 -2.37976 0
M  V30 4963 C 470.651 -5.42608 -2.23144 0
M  V30 4964 C 473.003 -5.96353 -2.1106 0
M  V30 4965 C 471.667 -6.35853 -2.03093 0
M  V30 4966 H 470.937 -0.486168 -0.559215 0
M  V30 4967 H 473.584 -1.69757 -0.886277 0
M  V30 4968 H 471.889 -1.77663 -3.49204 0
M  V30 4969 H 473.586 -2.15256 -3.38328 0
M  V30 4970 H 470.176 -3.37759 -2.63851 0
M  V30 4971 H 474.36 -4.33346 -2.41919 0
M  V30 4972 H 469.616 -5.72173 -2.15472 0
M  V30 4973 H 473.79 -6.68667 -1.94568 0
M  V30 4974 H 471.417 -7.38382 -1.8082 0
M  V30 4975 N 472.992 0.995999 -1.22138 0
M  V30 4976 C 473.902 2.11985 -1.00496 0
M  V30 4977 C 474.918 1.7394 0.0457701 0
M  V30 4978 O 476.094 2.00868 -0.146273 0
M  V30 4979 C 473.159 3.41779 -0.582086 0
M  V30 4980 C 472.22 3.93943 -1.70608 0
M  V30 4981 C 471.453 5.17542 -1.30328 0
M  V30 4982 O 471.676 5.70114 -0.180743 0
M  V30 4983 O 470.61 5.63382 -2.11861 0
M  V30 4984 H 474.436 2.33123 -1.94647 0
M  V30 4985 H 472.021 1.10358 -1.00705 0
M  V30 4986 H 473.903 4.1989 -0.356467 0
M  V30 4987 H 472.578 3.22007 0.330592 0
M  V30 4988 H 471.485 3.17019 -1.98619 0
M  V30 4989 H 472.818 4.18141 -2.59651 0
M  V30 4990 N 474.47 1.03057 1.19235 0
M  V30 4991 C 475.42 0.583386 2.2041 0
M  V30 4992 C 476.404 -0.368776 1.56617 0
M  V30 4993 O 477.596 -0.189471 1.75983 0
M  V30 4994 C 474.725 -0.0626534 3.43243 0
M  V30 4995 C 473.811 0.91205 4.14177 0
M  V30 4996 N 474.202 2.07514 4.61272 0
M  V30 4997 C 472.5 0.735859 4.39888 0
M  V30 4998 C 473.201 2.69003 5.15764 0
M  V30 4999 N 472.177 1.96954 5.06666 0
M  V30 5000 H 475.979 1.46988 2.54503 0
M  V30 5001 H 473.493 0.897785 1.35328 0
M  V30 5002 H 475.49 -0.400653 4.1497 0
M  V30 5003 H 474.15 -0.944813 3.1065 0
M  V30 5004 H 475.161 2.45448 4.56043 0
M  V30 5005 H 471.838 -0.0970656 4.17387 0
M  V30 5006 H 473.228 3.67514 5.6248 0
M  V30 5007 N 475.948 -1.35272 0.808662 0
M  V30 5008 C 477.225 -1.93077 0.313181 0
M  V30 5009 C 477.605 -1.73847 -1.19752 0
M  V30 5010 O 476.953 -1.1087 -1.998 0
M  V30 5011 C 477.163 -3.41347 0.726859 0
M  V30 5012 C 478.511 -4.18493 0.717532 0
M  V30 5013 O 479.535 -3.4987 0.668535 0
M  V30 5014 O 478.394 -5.40937 0.777779 0
M  V30 5015 H 475.488 -0.822885 0.0824018 0
M  V30 5016 H 478.034 -1.44335 0.892499 0
M  V30 5017 H 476.806 -3.49082 1.76797 0
M  V30 5018 H 476.429 -3.97411 0.122461 0
M  V30 5019 N 477.426 -0.562348 -1.47226 0
M  V30 5020 C 478.359 0.230405 -2.27034 0
M  V30 5021 C 479.337 0.915609 -1.3437 0
M  V30 5022 O 480.521 0.933573 -1.63758 0
M  V30 5023 C 477.648 1.32874 -3.11548 0
M  V30 5024 C 476.694 0.751552 -4.19826 0
M  V30 5025 S 477.527 -0.405848 -5.3396 0
M  V30 5026 C 478.683 0.694186 -6.22038 0
M  V30 5027 H 478.916 -0.446811 -2.93923 0
M  V30 5028 H 476.449 -0.348781 -1.50409 0
M  V30 5029 H 478.407 1.95773 -3.60809 0
M  V30 5030 H 477.068 1.97782 -2.44011 0
M  V30 5031 H 476.261 1.57651 -4.78709 0
M  V30 5032 H 475.863 0.198645 -3.73472 0
M  V30 5033 H 478.155 1.58501 -6.58698 0
M  V30 5034 H 479.098 0.142592 -7.07956 0
M  V30 5035 H 479.506 0.989169 -5.55766 0
M  V30 5036 N 478.904 1.54736 -0.299062 0
M  V30 5037 C 480.134 2.04215 0.312992 0
M  V30 5038 C 480.542 1.17596 1.48215 0
M  V30 5039 O 479.885 0.193835 1.82674 0
M  V30 5040 C 479.947 3.49696 0.833862 0
M  V30 5041 C 479.611 4.56518 -0.20977 0
M  V30 5042 C 480.608 5.09442 -1.03756 0
M  V30 5043 C 478.293 5.01073 -0.35091 0
M  V30 5044 C 480.287 6.05459 -1.99244 0
M  V30 5045 C 477.974 5.9691 -1.30924 0
M  V30 5046 C 478.972 6.48987 -2.1285 0
M  V30 5047 O 478.66 7.42947 -3.07059 0
M  V30 5048 H 478.392 0.672128 0.0722494 0
M  V30 5049 H 480.946 2.00718 -0.436043 0
M  V30 5050 H 479.176 3.5051 1.63339 0
M  V30 5051 H 480.865 3.82381 1.36159 0
M  V30 5052 H 481.631 4.75816 -0.939376 0
M  V30 5053 H 477.51 4.60168 0.276813 0
M  V30 5054 H 481.054 6.46031 -2.63229 0
M  V30 5055 H 476.951 6.29953 -1.40815 0
M  V30 5056 H 477.719 7.60743 -3.02015 0
M  V30 5057 N 480.382 0.0267497 1.57577 0
M  V30 5058 C 481.628 -0.653371 1.91987 0
M  V30 5059 C 481.961 -1.71915 0.903263 0
M  V30 5060 O 481.236 -1.94358 -0.0743387 0
M  V30 5061 C 481.519 -1.272 3.36886 0
M  V30 5062 C 481.372 -0.215938 4.49281 0
M  V30 5063 C 482.691 -2.19069 3.81703 0
M  V30 5064 H 479.81 -0.236047 0.698177 0
M  V30 5065 H 482.452 0.0835236 1.89816 0
M  V30 5066 H 480.602 -1.90005 3.38866 0
M  V30 5067 H 482.274 0.41449 4.59434 0
M  V30 5068 H 480.517 0.458855 4.31366 0
M  V30 5069 H 481.188 -0.688347 5.47691 0
M  V30 5070 H 483.664 -1.66253 3.81444 0
M  V30 5071 H 482.54 -2.59307 4.83788 0
M  V30 5072 H 482.801 -3.08087 3.17072 0
M  V30 5073 N 481.861 -1.55662 -0.24637 0
M  V30 5074 C 483.11 -1.7672 -0.972254 0
M  V30 5075 C 483.423 -0.59078 -1.86465 0
M  V30 5076 O 484.629 -0.684391 -2.62732 0
M  V30 5077 C 483.085 -3.12869 -1.7788 0
M  V30 5078 C 482.693 -4.38161 -0.933768 0
M  V30 5079 C 484.437 -3.43265 -2.49738 0
M  V30 5080 C 482.344 -5.6534 -1.73623 0
M  V30 5081 H 481.274 -0.658795 -0.366749 0
M  V30 5082 H 483.925 -1.82092 -0.226902 0
M  V30 5083 H 482.307 -3.01606 -2.56612 0
M  V30 5084 H 483.481 -4.60413 -0.188736 0
M  V30 5085 H 481.796 -4.15102 -0.328488 0
M  V30 5086 H 484.393 -4.35501 -3.10231 0
M  V30 5087 H 484.736 -2.64614 -3.2138 0
M  V30 5088 H 485.269 -3.55746 -1.78016 0
M  V30 5089 H 482.008 -6.46814 -1.06354 0
M  V30 5090 H 481.528 -5.47188 -2.45653 0
M  V30 5091 H 483.207 -6.04616 -2.30323 0
M  V30 5092 N 483.339 0.512053 -1.4905 0
M  V30 5093 C 484.585 1.26874 -1.58212 0
M  V30 5094 C 484.918 1.9241 -0.263073 0
M  V30 5095 O 484.193 1.80181 0.732476 0
M  V30 5096 C 484.476 2.34428 -2.73341 0
M  V30 5097 C 484.329 1.73466 -4.15006 0
M  V30 5098 C 485.648 3.36073 -2.84154 0
M  V30 5099 H 482.767 0.459924 -0.575881 0
M  V30 5100 H 485.409 0.568587 -1.81293 0
M  V30 5101 H 483.559 2.94146 -2.53792 0
M  V30 5102 H 485.231 1.17661 -4.46042 0
M  V30 5103 H 483.474 1.03921 -4.21168 0
M  V30 5104 H 484.145 2.51426 -4.91415 0
M  V30 5105 H 486.621 2.86332 -3.01916 0
M  V30 5106 H 485.497 4.08703 -3.66406 0
M  V30 5107 H 485.758 3.97725 -1.93048 0
M  V30 5108 N 484.817 1.37938 0.762283 0
M  V30 5109 C 486.094 1.24196 1.51112 0
M  V30 5110 C 486.474 -0.160409 2.1049 0
M  V30 5111 O 485.822 -1.16904 1.96331 0
M  V30 5112 C 486.032 2.34537 2.58445 0
M  V30 5113 C 487.38 2.7254 3.25588 0
M  V30 5114 O 488.404 2.33783 2.68745 0
M  V30 5115 O 487.263 3.39343 4.28379 0
M  V30 5116 H 484.357 0.485175 0.669727 0
M  V30 5117 H 486.903 1.49743 0.798438 0
M  V30 5118 H 485.675 3.28406 2.12756 0
M  V30 5119 H 485.298 2.10505 3.37303 0
M  V30 5120 N 486.295 -0.989507 1.22664 0
M  V30 5121 C 487.541 -1.73298 1.06487 0
M  V30 5122 C 487.896 -1.88292 -0.395438 0
M  V30 5123 O 487.189 -1.41748 -1.28911 0
M  V30 5124 C 487.383 -3.13649 1.71345 0
M  V30 5125 C 487.212 -3.12341 3.23532 0
M  V30 5126 C 485.982 -3.18044 3.92653 0
M  V30 5127 C 488.18 -2.96226 4.20422 0
M  V30 5128 N 486.162 -3.06526 5.31898 0
M  V30 5129 C 487.533 -2.92773 5.4652 0
M  V30 5130 C 489.588 -2.80642 4.11271 0
M  V30 5131 C 488.291 -2.75332 6.64519 0
M  V30 5132 C 490.317 -2.64563 5.28924 0
M  V30 5133 C 489.679 -2.618 6.53942 0
M  V30 5134 H 485.778 -0.643643 0.444126 0
M  V30 5135 H 488.362 -1.17489 1.55256 0
M  V30 5136 H 486.533 -3.67694 1.25122 0
M  V30 5137 H 488.265 -3.76577 1.48229 0
M  V30 5138 H 485.02 -3.25861 3.43673 0
M  V30 5139 H 485.444 -3.04067 6.04874 0
M  V30 5140 H 490.086 -2.81574 3.15398 0
M  V30 5141 H 487.804 -2.73145 7.60538 0
M  V30 5142 H 491.39 -2.53482 5.23677 0
M  V30 5143 H 490.27 -2.49511 7.43447 0
M  V30 5144 N 487.773 -1.03688 -1.18687 0
M  V30 5145 C 488.723 -0.595067 -2.20098 0
M  V30 5146 C 489.707 0.360465 -1.5681 0
M  V30 5147 O 490.899 0.180136 -1.76081 0
M  V30 5148 C 488.028 0.0444495 -3.43271 0
M  V30 5149 C 487.114 -0.934002 -4.13687 0
M  V30 5150 N 487.505 -2.09957 -4.60165 0
M  V30 5151 C 485.803 -0.759177 -4.39491 0
M  V30 5152 C 486.504 -2.71735 -5.1433 0
M  V30 5153 N 485.48 -1.99638 -5.05614 0
M  V30 5154 H 489.282 -1.48336 -2.5372 0
M  V30 5155 H 486.796 -0.904949 -1.3485 0
M  V30 5156 H 488.793 0.37864 -4.15177 0
M  V30 5157 H 487.453 0.928325 -3.11147 0
M  V30 5158 H 488.464 -2.47863 -4.54735 0
M  V30 5159 H 485.141 0.0749292 -4.17433 0
M  V30 5160 H 486.531 -3.70492 -5.60523 0
M  V30 5161 N 489.251 1.34841 -0.815825 0
M  V30 5162 C 490.497 1.98793 -0.401129 0
M  V30 5163 C 490.83 1.64548 1.03139 0
M  V30 5164 O 490.105 0.913487 1.71714 0
M  V30 5165 C 490.388 3.55143 -0.595409 0
M  V30 5166 C 490.241 3.99155 -2.07352 0
M  V30 5167 C 491.56 4.40092 -0.0268823 0
M  V30 5168 H 488.679 0.722146 -0.14722 0
M  V30 5169 H 491.321 1.59847 -1.02707 0
M  V30 5170 H 489.471 3.8845 -0.0625779 0
M  V30 5171 H 491.143 3.76216 -2.66945 0
M  V30 5172 H 489.386 3.49726 -2.56659 0
M  V30 5173 H 490.057 5.07971 -2.1603 0
M  V30 5174 H 492.533 4.13298 -0.482042 0
M  V30 5175 H 491.409 5.48562 -0.19267 0
M  V30 5176 H 491.67 4.29016 1.06759 0
M  V30 5177 N 490.729 0.570148 1.46925 0
M  V30 5178 C 491.679 -0.190921 2.27199 0
M  V30 5179 C 492.663 -0.873457 1.35128 0
M  V30 5180 O 493.855 -0.769627 1.59392 0
M  V30 5181 C 490.984 -1.21204 3.21192 0
M  V30 5182 C 490.07 -0.532261 4.20747 0
M  V30 5183 N 490.461 0.405038 5.04176 0
M  V30 5184 C 488.759 -0.784582 4.39045 0
M  V30 5185 C 489.46 0.801149 5.76157 0
M  V30 5186 N 488.436 0.153082 5.43384 0
M  V30 5187 H 492.238 0.529535 2.8909 0
M  V30 5188 H 489.752 0.391019 1.57622 0
M  V30 5189 H 491.749 -1.77135 3.77398 0
M  V30 5190 H 490.409 -1.93345 2.6086 0
M  V30 5191 H 491.42 0.779903 5.11994 0
M  V30 5192 H 488.097 -1.49352 3.89872 0
M  V30 5193 H 489.487 1.57208 6.5325 0
M  V30 5194 N 492.207 -1.54576 0.307264 0
M  V30 5195 C 493.17 -2.22423 -0.553224 0
M  V30 5196 C 494.17 -1.21231 -1.05639 0
M  V30 5197 O 495.36 -1.45923 -0.951419 0
M  V30 5198 C 492.492 -2.91552 -1.76664 0
M  V30 5199 H 493.685 -2.99874 0.0396484 0
M  V30 5200 H 491.238 -1.56192 0.0581629 0
M  V30 5201 H 491.973 -2.18196 -2.39918 0
M  V30 5202 H 491.758 -3.65738 -1.41343 0
M  V30 5203 H 493.248 -3.43292 -2.37783 0
M  V30 5204 N 493.685 -0.035106 -1.57561 0
M  V30 5205 C 495.096 0.502885 -1.798 0
M  V30 5206 C 495.447 1.71892 -0.945921 0
M  V30 5207 O 494.572 2.15822 -0.157991 0
M  V30 5208 C 495.167 0.919097 -3.26095 0
M  V30 5209 C 493.726 1.40216 -3.49308 0
M  V30 5210 C 492.873 0.369709 -2.74824 0
M  V30 5211 H 495.824 -0.261102 -1.56537 0
M  V30 5212 H 495.845 1.78308 -3.36135 0
M  V30 5213 H 495.357 0.0338526 -3.88085 0
M  V30 5214 H 493.458 2.30714 -2.92578 0
M  V30 5215 H 493.571 1.40541 -4.58023 0
M  V30 5216 H 491.935 0.839113 -2.40481 0
M  V30 5217 H 492.718 -0.507173 -3.39533 0
M  V30 5218 N 495.163 1.55791 0.238111 0
M  V30 5219 C 496.411 1.77681 0.963001 0
M  V30 5220 C 496.732 0.600674 1.85518 0
M  V30 5221 O 496.002 -0.383182 1.92116 0
M  V30 5222 H 494.582 0.655315 0.358568 0
M  V30 5223 H 497.244 1.93239 0.253945 0
M  V30 5224 H 496.34 2.69177 1.57956 0
M  V30 5225 N 496.642 -0.504142 1.49319 0
M  V30 5226 C 497.919 -1.26548 1.49147 0
M  V30 5227 C 498.299 -2.09977 0.21744 0
M  V30 5228 O 497.647 -2.14028 -0.800269 0
M  V30 5229 C 497.857 -2.12489 2.76857 0
M  V30 5230 C 499.205 -2.7178 3.26222 0
M  V30 5231 O 500.229 -2.22758 2.77952 0
M  V30 5232 O 499.088 -3.61015 4.10281 0
M  V30 5233 H 496.182 -0.572495 0.596806 0
M  V30 5234 H 498.728 -0.51867 1.61579 0
M  V30 5235 H 497.5 -1.50796 3.61077 0
M  V30 5236 H 497.123 -2.94368 2.6727 0
M  V30 5237 N 498.12 -1.38341 -0.754957 0
M  V30 5238 C 499.531 -1.30803 -1.3322 0
M  V30 5239 C 499.882 0.0368 -1.96165 0
M  V30 5240 O 499.007 0.938844 -1.94974 0
M  V30 5241 C 499.602 -2.3688 -2.42225 0
M  V30 5242 C 498.161 -2.32925 -2.95674 0
M  V30 5243 C 497.308 -2.19819 -1.69042 0
M  V30 5244 H 500.259 -1.48719 -0.553937 0
M  V30 5245 H 500.28 -2.02517 -3.22129 0
M  V30 5246 H 499.792 -3.34747 -1.96383 0
M  V30 5247 H 497.893 -1.38635 -3.45848 0
M  V30 5248 H 498.006 -3.27008 -3.50146 0
M  V30 5249 H 496.37 -1.66648 -1.92615 0
M  V30 5250 H 497.153 -3.19625 -1.25279 0
M  V30 5251 N 499.598 0.982988 -1.23187 0
M  V30 5252 C 501.014 1.2487 -0.993967 0
M  V30 5253 C 501.214 1.99155 0.306498 0
M  V30 5254 O 500.27 2.30688 1.0266 0
M  V30 5255 C 501.583 2.05078 -2.19917 0
M  V30 5256 C 503.131 2.18227 -2.2438 0
M  V30 5257 C 503.606 3.01825 -3.44479 0
M  V30 5258 N 505.097 3.09411 -3.44702 0
M  V30 5259 C 505.832 3.74412 -4.34285 0
M  V30 5260 N 505.328 4.41259 -5.341 0
M  V30 5261 N 507.121 3.71273 -4.22035 0
M  V30 5262 H 499.272 0.485253 -2.06783 0
M  V30 5263 H 501.535 0.276979 -0.906635 0
M  V30 5264 H 501.241 1.57867 -3.14279 0
M  V30 5265 H 501.115 3.05829 -2.2079 0
M  V30 5266 H 503.502 2.64648 -1.30559 0
M  V30 5267 H 503.583 1.16873 -2.2754 0
M  V30 5268 H 503.227 2.56102 -4.38605 0
M  V30 5269 H 503.157 4.03342 -3.38559 0
M  V30 5270 H 505.648 2.61845 -2.7248 0
M  V30 5271 H 505.961 4.88629 -5.98717 0
M  V30 5272 H 504.306 4.39975 -5.38002 0
M  V30 5273 H 507.497 3.18217 -3.43301 0
M  V30 5274 H 507.67 4.21649 -4.92053 0
M  V30 5275 N 501.076 1.04316 1.18135 0
M  V30 5276 C 502.039 0.640794 2.2006 0
M  V30 5277 C 503.039 -0.303124 1.57917 0
M  V30 5278 O 504.229 -0.0881855 1.73977 0
M  V30 5279 C 501.361 -0.060148 3.40847 0
M  V30 5280 H 502.554 1.54281 2.57172 0
M  V30 5281 H 500.107 0.836004 1.32063 0
M  V30 5282 H 500.842 -0.975845 3.0927 0
M  V30 5283 H 500.627 0.618319 3.87194 0
M  V30 5284 H 502.117 -0.328082 4.16309 0
M  V30 5285 N 502.554 -1.34406 0.822964 0
M  V30 5286 C 503.831 -1.92733 0.333641 0
M  V30 5287 C 504.211 -1.75107 -1.17901 0
M  V30 5288 O 503.559 -1.12983 -1.98613 0
M  V30 5289 C 503.769 -3.40557 0.763023 0
M  V30 5290 C 505.117 -4.17709 0.761879 0
M  V30 5291 O 506.141 -3.49141 0.705606 0
M  V30 5292 O 505 -5.40082 0.835109 0
M  V30 5293 H 502.094 -0.821964 0.0911249 0
M  V30 5294 H 504.64 -1.4338 0.907757 0
M  V30 5295 H 503.412 -3.47187 1.8049 0
M  V30 5296 H 503.035 -3.97259 0.164605 0
M  V30 5297 N 504.032 -0.577932 -1.46621 0
M  V30 5298 C 505.278 -0.0617793 -2.02706 0
M  V30 5299 C 505.611 1.29294 -1.44903 0
M  V30 5300 O 504.886 1.8461 -0.61232 0
M  V30 5301 C 505.169 0.00911824 -3.60099 0
M  V30 5302 C 505.022 -1.37416 -4.28295 0
M  V30 5303 C 506.341 0.712159 -4.343 0
M  V30 5304 H 503.46 -0.0239246 -0.736612 0
M  V30 5305 H 506.102 -0.744211 -1.74818 0
M  V30 5306 H 504.252 0.590292 -3.83989 0
M  V30 5307 H 505.924 -2.00013 -4.15683 0
M  V30 5308 H 504.167 -1.94319 -3.87843 0
M  V30 5309 H 504.838 -1.27707 -5.37024 0
M  V30 5310 H 507.314 0.218486 -4.15526 0
M  V30 5311 H 506.19 0.730782 -5.44014 0
M  V30 5312 H 506.451 1.77251 -4.05012 0
M  V30 5313 N 505.51 1.54411 -0.315457 0
M  V30 5314 C 506.74 2.04536 0.291315 0
M  V30 5315 C 507.148 1.19162 1.4696 0
M  V30 5316 O 506.491 0.213199 1.82459 0
M  V30 5317 C 506.553 3.5056 0.796725 0
M  V30 5318 C 506.217 4.5627 -0.258178 0
M  V30 5319 C 507.214 5.08312 -1.09153 0
M  V30 5320 C 504.899 5.00672 -0.404036 0
M  V30 5321 C 506.893 6.03312 -2.05655 0
M  V30 5322 C 504.58 5.95488 -1.37248 0
M  V30 5323 C 505.578 6.46693 -2.19721 0
M  V30 5324 O 505.266 7.39648 -3.14921 0
M  V30 5325 H 504.998 0.672856 0.0651165 0
M  V30 5326 H 507.552 2.00244 -0.457308 0
M  V30 5327 H 505.782 3.52223 1.59612 0
M  V30 5328 H 507.471 3.83804 1.32096 0
M  V30 5329 H 508.237 4.74793 -0.98979 0
M  V30 5330 H 504.116 4.60436 0.22799 0
M  V30 5331 H 507.66 6.43203 -2.70067 0
M  V30 5332 H 503.557 6.28424 -1.47489 0
M  V30 5333 H 504.325 7.57496 -3.10067 0
M  V30 5334 N 506.988 0.0434614 1.5754 0
M  V30 5335 C 508.213 -0.645358 1.97104 0
M  V30 5336 C 508.638 -1.64037 0.920521 0
M  V30 5337 O 507.996 -1.80922 -0.11708 0
M  V30 5338 C 508.044 -1.31547 3.35749 0
M  V30 5339 O 507.148 -2.43103 3.33129 0
M  V30 5340 H 506.489 -0.168403 0.64229 0
M  V30 5341 H 509.019 0.109573 2.04306 0
M  V30 5342 H 509.029 -1.66895 3.72304 0
M  V30 5343 H 507.704 -0.586205 4.11748 0
M  V30 5344 H 506.281 -2.0976 3.0831 0
M  V30 5345 N 508.466 -1.55915 -0.229846 0
M  V30 5346 C 509.714 -1.7819 -0.953565 0
M  V30 5347 C 510.035 -0.610504 -1.85197 0
M  V30 5348 O 509.305 0.372988 -1.92316 0
M  V30 5349 H 507.885 -0.657208 -0.355087 0
M  V30 5350 H 510.547 -1.9337 -0.243693 0
M  V30 5351 H 509.643 -2.70011 -1.56527 0
M  V30 5352 N 509.944 0.496216 -1.49584 0
M  V30 5353 C 510.907 1.57952 -1.66084 0
M  V30 5354 C 511.907 1.51729 -0.53244 0
M  V30 5355 O 513.097 1.54796 -0.79899 0
M  V30 5356 C 510.229 2.97604 -1.66268 0
M  V30 5357 H 511.422 1.44649 -2.6271 0
M  V30 5358 H 508.975 0.7208 -1.38687 0
M  V30 5359 H 509.71 3.16378 -0.712432 0
M  V30 5360 H 509.495 3.03528 -2.4822 0
M  V30 5361 H 510.985 3.76301 -1.81073 0
M  V30 5362 N 511.423 1.38739 0.74761 0
M  V30 5363 C 512.653 1.3832 1.53464 0
M  V30 5364 C 513.061 -0.0273464 1.8918 0
M  V30 5365 O 512.404 -1.00588 1.53713 0
M  V30 5366 C 512.466 2.18007 2.85855 0
M  V30 5367 C 512.13 3.66762 2.72644 0
M  V30 5368 C 513.127 4.60124 2.42037 0
M  V30 5369 C 510.812 4.10193 2.89909 0
M  V30 5370 C 512.806 5.94897 2.28859 0
M  V30 5371 C 510.493 5.45045 2.7635 0
M  V30 5372 C 511.491 6.37211 2.45869 0
M  V30 5373 O 511.179 7.69581 2.3238 0
M  V30 5374 H 510.911 0.474718 0.481268 0
M  V30 5375 H 513.465 1.83012 0.932518 0
M  V30 5376 H 511.695 1.68043 3.48279 0
M  V30 5377 H 513.384 2.09921 3.47402 0
M  V30 5378 H 514.15 4.27874 2.28361 0
M  V30 5379 H 510.029 3.38797 3.1263 0
M  V30 5380 H 513.573 6.66802 2.04989 0
M  V30 5381 H 509.47 5.76889 2.89601 0
M  V30 5382 H 510.238 7.80169 2.47546 0
M  V30 5383 N 512.901 -0.976442 1.23707 0
M  V30 5384 C 514.178 -1.69296 0.979699 0
M  V30 5385 C 514.558 -2.0508 -0.500555 0
M  V30 5386 O 513.906 -1.74708 -1.47273 0
M  V30 5387 C 514.116 -2.93143 1.89389 0
M  V30 5388 C 515.464 -3.65572 2.15968 0
M  V30 5389 O 516.488 -3.03184 1.86971 0
M  V30 5390 O 515.347 -4.77859 2.65167 0
M  V30 5391 H 512.441 -0.739708 0.369812 0
M  V30 5392 H 514.987 -1.03131 1.34767 0
M  V30 5393 H 513.759 -2.63327 2.89439 0
M  V30 5394 H 513.382 -3.67044 1.52854 0
M  V30 5395 N 514.379 -1.04941 -1.1758 0
M  V30 5396 C 515.626 -0.757989 -1.87779 0
M  V30 5397 C 515.954 0.714827 -1.80888 0
M  V30 5398 O 515.209 1.53824 -1.20982 0
M  V30 5399 C 515.508 -1.18062 -3.37337 0
M  V30 5400 C 515.174 -2.65521 -3.6443 0
M  V30 5401 C 513.836 -3.05804 -3.71534 0
M  V30 5402 C 516.188 -3.60822 -3.76108 0
M  V30 5403 C 513.516 -4.40256 -3.87803 0
M  V30 5404 C 515.868 -4.95005 -3.93895 0
M  V30 5405 C 514.532 -5.34945 -3.99237 0
M  V30 5406 H 513.802 -0.277368 -0.68713 0
M  V30 5407 H 516.449 -1.31603 -1.39115 0
M  V30 5408 H 514.754 -0.541525 -3.8804 0
M  V30 5409 H 516.451 -0.932368 -3.9001 0
M  V30 5410 H 513.041 -2.33324 -3.59524 0
M  V30 5411 H 517.225 -3.30841 -3.69943 0
M  V30 5412 H 512.481 -4.70707 -3.90186 0
M  V30 5413 H 516.655 -5.68746 -4.01872 0
M  V30 5414 H 514.282 -6.39135 -4.11596 0
M  V30 5415 N 515.857 1.33968 -0.830081 0
M  V30 5416 C 517.104 1.98063 -0.421566 0
M  V30 5417 C 517.432 1.65787 1.0171 0
M  V30 5418 O 516.687 0.925348 1.72441 0
M  V30 5419 C 516.986 3.52679 -0.57898 0
M  V30 5420 C 516.652 4.04884 -1.98443 0
M  V30 5421 C 515.314 4.18852 -2.36888 0
M  V30 5422 C 517.666 4.32879 -2.90285 0
M  V30 5423 C 514.994 4.58145 -3.66497 0
M  V30 5424 C 517.346 4.7362 -4.19364 0
M  V30 5425 C 516.01 4.85794 -4.57778 0
M  V30 5426 H 515.28 0.724765 -0.154262 0
M  V30 5427 H 517.927 1.59792 -1.05541 0
M  V30 5428 H 516.232 3.91556 0.138219 0
M  V30 5429 H 517.929 4.00261 -0.243317 0
M  V30 5430 H 514.519 3.9448 -1.67581 0
M  V30 5431 H 518.703 4.21619 -2.61823 0
M  V30 5432 H 513.959 4.65762 -3.96075 0
M  V30 5433 H 518.133 4.9424 -4.90612 0
M  V30 5434 H 515.76 5.15998 -5.58256 0
M  V30 5435 N 517.335 0.585699 1.46312 0
M  V30 5436 C 518.245 -0.148236 2.34131 0
M  V30 5437 C 519.261 -0.882972 1.49932 0
M  V30 5438 O 520.437 -0.845484 1.82794 0
M  V30 5439 C 517.502 -1.14714 3.27172 0
M  V30 5440 C 516.563 -0.416746 4.27272 0
M  V30 5441 C 515.796 -1.36806 5.15868 0
M  V30 5442 O 516.019 -2.60475 5.07454 0
M  V30 5443 O 514.953 -0.877018 5.95476 0
M  V30 5444 H 518.779 0.572882 2.98248 0
M  V30 5445 H 516.364 0.346082 1.45336 0
M  V30 5446 H 518.246 -1.72303 3.84564 0
M  V30 5447 H 516.921 -1.84967 2.65648 0
M  V30 5448 H 515.828 0.201061 3.73559 0
M  V30 5449 H 517.161 0.244872 4.9159 0
M  V30 5450 N 518.813 -1.54241 0.323641 0
M  V30 5451 C 519.723 -2.28033 -0.551205 0
M  V30 5452 C 520.739 -1.32388 -1.12913 0
M  V30 5453 O 521.915 -1.65403 -1.14908 0
M  V30 5454 C 518.98 -3.02382 -1.69606 0
M  V30 5455 C 518.041 -4.13612 -1.14993 0
M  V30 5456 C 517.274 -4.84407 -2.24022 0
M  V30 5457 O 517.497 -4.54716 -3.44368 0
M  V30 5458 O 516.431 -5.71312 -1.89436 0
M  V30 5459 H 520.257 -3.03662 0.048066 0
M  V30 5460 H 517.842 -1.49133 0.0893289 0
M  V30 5461 H 519.724 -3.48941 -2.36259 0
M  V30 5462 H 518.399 -2.29628 -2.28151 0
M  V30 5463 H 517.306 -3.71402 -0.448484 0
M  V30 5464 H 518.639 -4.8841 -0.609608 0
M  V30 5465 N 520.291 -0.0518155 -1.57515 0
M  V30 5466 C 521.54 0.621286 -1.91893 0
M  V30 5467 C 521.853 1.71966 -0.932052 0
M  V30 5468 O 523.059 2.45096 -1.16791 0
M  V30 5469 C 521.515 1.15641 -3.40816 0
M  V30 5470 C 521.123 0.0901146 -4.47909 0
M  V30 5471 C 522.867 1.80472 -3.84227 0
M  V30 5472 C 520.774 0.638154 -5.87947 0
M  V30 5473 H 519.704 0.235835 -0.716169 0
M  V30 5474 H 522.355 -0.120809 -1.83102 0
M  V30 5475 H 520.737 1.95084 -3.44613 0
M  V30 5476 H 521.911 -0.683525 -4.55702 0
M  V30 5477 H 520.226 -0.460774 -4.13843 0
M  V30 5478 H 522.823 2.22471 -4.86221 0
M  V30 5479 H 523.166 2.65669 -3.20508 0
M  V30 5480 H 523.699 1.07683 -3.82948 0
M  V30 5481 H 520.438 -0.176202 -6.55263 0
M  V30 5482 H 519.958 1.37976 -5.83714 0
M  V30 5483 H 521.637 1.12085 -6.37217 0
M  V30 5484 N 521.769 1.56035 0.221574 0
M  V30 5485 C 522.732 1.91584 1.2581 0
M  V30 5486 C 523.732 0.794425 1.39805 0
M  V30 5487 O 524.922 1.06217 1.38071 0
M  V30 5488 C 522.054 2.16663 2.63192 0
M  V30 5489 H 523.247 2.8429 0.954935 0
M  V30 5490 H 520.8 1.49316 0.461988 0
M  V30 5491 H 521.535 1.26508 2.98607 0
M  V30 5492 H 521.32 2.98358 2.5441 0
M  V30 5493 H 522.81 2.45262 3.37988 0
M  V30 5494 N 523.247 -0.488276 1.49845 0
M  V30 5495 C 524.524 -1.24959 1.50481 0
M  V30 5496 C 524.904 -2.09735 0.239698 0
M  V30 5497 O 524.252 -2.14865 -0.777524 0
M  V30 5498 C 524.462 -2.0954 2.79095 0
M  V30 5499 C 525.81 -2.68305 3.29086 0
M  V30 5500 O 526.834 -2.19797 2.80299 0
M  V30 5501 O 525.693 -3.56643 4.14087 0
M  V30 5502 H 522.787 -0.566133 0.602845 0
M  V30 5503 H 525.333 -0.501504 1.6212 0
M  V30 5504 H 524.105 -1.46958 3.62656 0
M  V30 5505 H 523.728 -2.91517 2.70377 0
M  V30 5506 N 524.725 -1.39134 -0.740242 0
M  V30 5507 C 525.675 -1.33928 -1.84519 0
M  V30 5508 C 526.659 -0.221097 -1.59374 0
M  V30 5509 O 527.851 -0.458195 -1.70967 0
M  V30 5510 C 524.98 -1.17991 -3.22387 0
M  V30 5511 C 524.066 -2.34488 -3.53378 0
M  V30 5512 N 524.457 -3.59954 -3.5534 0
M  V30 5513 C 522.755 -2.27331 -3.83714 0
M  V30 5514 C 523.456 -4.36962 -3.83978 0
M  V30 5515 N 522.432 -3.66482 -4.01487 0
M  V30 5516 H 526.234 -2.28907 -1.84333 0
M  V30 5517 H 523.748 -1.32555 -0.938237 0
M  V30 5518 H 525.745 -1.12345 -4.01478 0
M  V30 5519 H 524.405 -0.23957 -3.23815 0
M  V30 5520 H 525.416 -3.93448 -3.36778 0
M  V30 5521 H 522.093 -1.41531 -3.92779 0
M  V30 5522 H 523.483 -5.45692 -3.92008 0
M  V30 5523 N 526.204 0.969867 -1.24223 0
M  V30 5524 C 527.434 1.74502 -1.106 0
M  V30 5525 C 527.842 1.86038 0.344483 0
M  V30 5526 O 527.185 1.3465 1.24961 0
M  V30 5527 C 527.247 3.18391 -1.66935 0
M  V30 5528 C 526.911 3.30334 -3.15798 0
M  V30 5529 C 527.908 3.15832 -4.12973 0
M  V30 5530 C 525.593 3.54644 -3.55715 0
M  V30 5531 C 527.587 3.25461 -5.48045 0
M  V30 5532 C 525.274 3.63912 -4.90929 0
M  V30 5533 C 526.272 3.49332 -5.86904 0
M  V30 5534 O 525.96 3.58251 -7.1966 0
M  V30 5535 H 525.692 0.554119 -0.387206 0
M  V30 5536 H 528.246 1.22646 -1.64764 0
M  V30 5537 H 526.476 3.71543 -1.07203 0
M  V30 5538 H 528.165 3.77707 -1.48634 0
M  V30 5539 H 528.931 2.96937 -3.83476 0
M  V30 5540 H 524.81 3.65059 -2.81519 0
M  V30 5541 H 528.354 3.13998 -6.22937 0
M  V30 5542 H 524.251 3.82319 -5.20098 0
M  V30 5543 H 525.019 3.7498 -7.27552 0
M  V30 5544 N 527.682 1.05563 1.17022 0
M  V30 5545 C 528.629 0.659893 2.21165 0
M  V30 5546 C 529.599 -0.339813 1.62587 0
M  V30 5547 O 530.784 -0.230378 1.89404 0
M  V30 5548 C 527.924 0.0447297 3.45071 0
M  V30 5549 C 527.037 1.09372 4.17926 0
M  V30 5550 C 526.172 0.445481 5.29329 0
M  V30 5551 C 525.211 1.47852 5.93975 0
M  V30 5552 N 524.348 0.854172 6.96885 0
M  V30 5553 H 529.188 1.55243 2.54369 0
M  V30 5554 H 526.725 0.776336 1.24946 0
M  V30 5555 H 528.683 -0.329404 4.15898 0
M  V30 5556 H 527.313 -0.811244 3.1244 0
M  V30 5557 H 526.365 1.58564 3.45777 0
M  V30 5558 H 527.677 1.87773 4.62107 0
M  V30 5559 H 526.831 0.0179688 6.06697 0
M  V30 5560 H 525.57 -0.370481 4.86291 0
M  V30 5561 H 524.575 1.91601 5.15334 0
M  V30 5562 H 525.8 2.29645 6.39093 0
M  V30 5563 H 523.746 0.0587882 6.55974 0
M  V30 5564 H 523.663 1.57567 7.39397 0
M  V30 5565 H 524.931 0.451559 7.78191 0
M  V30 5566 N 529.16 -1.33526 0.837174 0
M  V30 5567 C 530.437 -1.92369 0.354065 0
M  V30 5568 C 530.817 -1.76348 -1.16038 0
M  V30 5569 O 530.165 -1.15083 -1.97403 0
M  V30 5570 C 530.375 -3.39728 0.799101 0
M  V30 5571 C 531.723 -4.16877 0.806139 0
M  V30 5572 O 532.747 -3.48373 0.742597 0
M  V30 5573 O 531.606 -5.39166 0.892345 0
M  V30 5574 H 528.7 -0.820952 0.0998378 0
M  V30 5575 H 531.246 -1.42409 0.922913 0
M  V30 5576 H 530.018 -3.45254 1.84162 0
M  V30 5577 H 529.641 -3.97062 0.206731 0
M  V30 5578 N 530.638 -0.59345 -1.46 0
M  V30 5579 C 531.588 0.154751 -2.27474 0
M  V30 5580 C 532.572 0.851849 -1.365 0
M  V30 5581 O 533.764 0.744171 -1.60596 0
M  V30 5582 C 530.893 1.16079 -3.2308 0
M  V30 5583 C 529.979 0.465256 -4.2154 0
M  V30 5584 N 530.37 -0.485197 -5.03467 0
M  V30 5585 C 528.668 0.714634 -4.40237 0
M  V30 5586 C 529.369 -0.892709 -5.74809 0
M  V30 5587 N 528.345 -0.239511 -5.43072 0
M  V30 5588 H 532.147 -0.57546 -2.88211 0
M  V30 5589 H 529.661 -0.416046 -1.5698 0
M  V30 5590 H 531.658 1.71108 -3.80168 0
M  V30 5591 H 530.318 1.89171 -2.63903 0
M  V30 5592 H 531.329 -0.861258 -5.10689 0
M  V30 5593 H 528.006 1.43131 -3.92199 0
M  V30 5594 H 529.396 -1.67581 -6.50666 0
M  V30 5595 N 532.116 1.54067 -0.331816 0
M  V30 5596 C 533.527 1.86059 0.15454 0
M  V30 5597 C 533.878 1.25331 1.50952 0
M  V30 5598 O 533.003 0.562441 2.08963 0
M  V30 5599 C 533.598 3.37581 0.287192 0
M  V30 5600 C 532.157 3.69493 0.717773 0
M  V30 5601 C 531.304 2.76863 -0.155569 0
M  V30 5602 H 534.255 1.48797 -0.55182 0
M  V30 5603 H 534.276 3.63744 1.11671 0
M  V30 5604 H 533.788 3.81751 -0.699131 0
M  V30 5605 H 531.889 3.3086 1.71354 0
M  V30 5606 H 532.002 4.76315 0.5158 0
M  V30 5607 H 530.366 2.51995 0.370213 0
M  V30 5608 H 531.149 3.23861 -1.13881 0
M  V30 5609 N 533.594 0.0601682 1.57485 0
M  V30 5610 C 534.541 -0.91112 2.12055 0
M  V30 5611 C 535.511 -1.30298 1.03013 0
M  V30 5612 O 536.696 -1.39087 1.30612 0
M  V30 5613 C 533.836 -2.1775 2.67729 0
M  V30 5614 C 532.949 -1.83933 3.90887 0
M  V30 5615 C 532.084 -3.05096 4.34845 0
M  V30 5616 C 531.123 -2.67241 5.5068 0
M  V30 5617 N 530.26 -3.81127 5.8965 0
M  V30 5618 H 535.1 -0.43888 2.9475 0
M  V30 5619 H 532.637 -0.204995 1.45665 0
M  V30 5620 H 534.595 -2.91866 2.98111 0
M  V30 5621 H 533.225 -2.62535 1.87816 0
M  V30 5622 H 532.277 -0.999287 3.6704 0
M  V30 5623 H 533.589 -1.52074 4.75052 0
M  V30 5624 H 532.743 -3.87502 4.66827 0
M  V30 5625 H 531.482 -3.40139 3.49509 0
M  V30 5626 H 530.487 -1.83254 5.18361 0
M  V30 5627 H 531.712 -2.3338 6.37738 0
M  V30 5628 H 529.658 -4.15954 5.07266 0
M  V30 5629 H 529.575 -3.52997 6.68528 0
M  V30 5630 H 530.843 -4.64145 6.2625 0
M  V30 5631 N 535.072 -1.5615 -0.213296 0
M  V30 5632 C 536.02 -1.93953 -1.28394 0
M  V30 5633 C 537.014 -0.822592 -1.48087 0
M  V30 5634 O 538.22 -1.00748 -1.49164 0
M  V30 5635 H 534.595 -0.61648 -0.430646 0
M  V30 5636 H 536.566 -2.83275 -0.937977 0
M  V30 5637 C 535.315 -2.27969 -2.62537 0
M  V30 5638 H 534.638 -3.13432 -2.48194 0
M  V30 5639 H 536.078 -2.58297 -3.36242 0
M  V30 5640 C 534.537 -1.10775 -3.18167 0
M  V30 5641 O 535.067 -0.373201 -3.99963 0
M  V30 5642 N 533.273 -0.889377 -2.76656 0
M  V30 5643 H 532.82 -1.48843 -2.10246 0
M  V30 5644 H 532.778 -0.107 -3.14218 0
M  V30 5645 N 536.55 0.480323 -1.50102 0
M  V30 5646 C 537.5 1.57685 -1.6468 0
M  V30 5647 C 538.484 1.52878 -0.5017 0
M  V30 5648 O 539.676 1.60058 -0.755668 0
M  V30 5649 C 536.805 2.96185 -1.73578 0
M  V30 5650 C 535.891 3.0591 -2.93734 0
M  V30 5651 N 536.282 2.85471 -4.1754 0
M  V30 5652 C 534.58 3.37036 -2.92101 0
M  V30 5653 C 535.281 2.99921 -4.9842 0
M  V30 5654 N 534.257 3.29715 -4.32191 0
M  V30 5655 H 538.059 1.40568 -2.58104 0
M  V30 5656 H 535.573 0.686874 -1.47159 0
M  V30 5657 H 537.57 3.75015 -1.82124 0
M  V30 5658 H 536.23 3.14356 -0.813057 0
M  V30 5659 H 537.241 2.61235 -4.47188 0
M  V30 5660 H 533.918 3.61253 -2.09291 0
M  V30 5661 H 535.308 2.88436 -6.06839 0
M  V30 5662 N 538.028 1.39524 0.732853 0
M  V30 5663 C 539.258 1.3994 1.51988 0
M  V30 5664 C 539.666 -0.00727973 1.89199 0
M  V30 5665 O 539.009 -0.989521 1.54771 0
M  V30 5666 C 539.071 2.21026 2.83527 0
M  V30 5667 C 538.735 3.69633 2.68738 0
M  V30 5668 C 539.732 4.62665 2.37143 0
M  V30 5669 C 537.417 4.13244 2.85542 0
M  V30 5670 C 539.411 5.97291 2.22536 0
M  V30 5671 C 537.098 5.47945 2.70554 0
M  V30 5672 C 538.096 6.39783 2.39097 0
M  V30 5673 O 537.784 7.72002 2.24204 0
M  V30 5674 H 537.516 0.479795 0.476206 0
M  V30 5675 H 540.07 1.8399 0.913054 0
M  V30 5676 H 538.3 1.71728 3.46477 0
M  V30 5677 H 539.989 2.13594 3.45156 0
M  V30 5678 H 540.755 4.30272 2.2381 0
M  V30 5679 H 536.634 3.42094 3.09019 0
M  V30 5680 H 540.178 6.68939 1.97905 0
M  V30 5681 H 536.075 5.79928 2.83466 0
M  V30 5682 H 536.843 7.8275 2.39258 0
M  V30 5683 N 539.506 -0.963266 1.24736 0
M  V30 5684 C 540.755 -1.70115 1.08369 0
M  V30 5685 C 541.068 -1.91939 -0.376688 0
M  V30 5686 O 542.274 -2.6334 -0.660624 0
M  V30 5687 C 540.73 -3.06218 1.89099 0
M  V30 5688 C 540.338 -2.92221 3.39574 0
M  V30 5689 C 542.082 -3.83848 1.81275 0
M  V30 5690 C 539.989 -4.23662 4.12631 0
M  V30 5691 H 538.919 -0.637944 0.401924 0
M  V30 5692 H 541.57 -1.07304 1.48856 0
M  V30 5693 H 539.952 -3.69884 1.41429 0
M  V30 5694 H 541.126 -2.37541 3.94856 0
M  V30 5695 H 539.441 -2.28054 3.48397 0
M  V30 5696 H 542.038 -4.81188 2.33158 0
M  V30 5697 H 542.381 -4.08949 0.778895 0
M  V30 5698 H 542.914 -3.26918 2.26649 0
M  V30 5699 H 539.653 -4.03753 5.16395 0
M  V30 5700 H 539.173 -4.78141 3.62135 0
M  V30 5701 H 540.852 -4.92256 4.19873 0
M  V30 5702 N 540.985 -1.06182 -1.16461 0
M  V30 5703 C 542.234 -0.772927 -1.86303 0
M  V30 5704 C 542.547 0.703187 -1.82523 0
M  V30 5705 O 543.753 1.10641 -2.47933 0
M  V30 5706 C 542.209 -1.33249 -3.34324 0
M  V30 5707 C 541.817 -2.83876 -3.46581 0
M  V30 5708 C 543.561 -1.12108 -4.09429 0
M  V30 5709 C 541.468 -3.33082 -4.88682 0
M  V30 5710 H 540.398 -0.285452 -0.697878 0
M  V30 5711 H 543.049 -1.28039 -1.31447 0
M  V30 5712 H 541.431 -0.7528 -3.88779 0
M  V30 5713 H 542.605 -3.47786 -3.02293 0
M  V30 5714 H 540.92 -3.03671 -2.84909 0
M  V30 5715 H 543.517 -1.46361 -5.14279 0
M  V30 5716 H 543.86 -0.0593832 -4.16258 0
M  V30 5717 H 544.393 -1.6665 -3.6121 0
M  V30 5718 H 541.132 -4.38726 -4.87032 0
M  V30 5719 H 540.652 -2.73919 -5.33599 0
M  V30 5720 H 542.331 -3.28344 -5.57494 0
M  V30 5721 N 542.463 1.3308 -0.844243 0
M  V30 5722 C 543.709 1.98304 -0.452453 0
M  V30 5723 C 544.064 1.65645 0.978746 0
M  V30 5724 O 543.357 0.928849 1.6758 0
M  V30 5725 C 543.551 3.52045 -0.616354 0
M  V30 5726 C 543.38 3.99643 -2.06193 0
M  V30 5727 C 542.15 4.27224 -2.69829 0
M  V30 5728 C 544.348 4.15471 -3.03131 0
M  V30 5729 N 542.33 4.60998 -4.05406 0
M  V30 5730 C 543.701 4.52665 -4.23668 0
M  V30 5731 C 545.756 3.97776 -2.99465 0
M  V30 5732 C 544.459 4.74011 -5.41023 0
M  V30 5733 C 546.485 4.20301 -4.16055 0
M  V30 5734 C 545.847 4.57801 -5.35348 0
M  V30 5735 H 541.946 0.752122 -0.214096 0
M  V30 5736 H 544.53 1.61096 -1.09344 0
M  V30 5737 H 542.701 3.884 -0.00513205 0
M  V30 5738 H 544.433 4.04228 -0.19548 0
M  V30 5739 H 541.188 4.18911 -2.20931 0
M  V30 5740 H 541.612 4.82087 -4.75312 0
M  V30 5741 H 546.254 3.67893 -2.08362 0
M  V30 5742 H 543.972 5.02753 -6.32665 0
M  V30 5743 H 547.558 4.08122 -4.14641 0
M  V30 5744 H 546.438 4.74884 -6.24063 0
M  V30 5745 N 543.941 0.601185 1.45683 0
M  V30 5746 C 544.851 -0.123395 2.34275 0
M  V30 5747 C 545.867 -0.86702 1.5086 0
M  V30 5748 O 547.043 -0.826049 1.8368 0
M  V30 5749 C 544.108 -1.11237 3.2837 0
M  V30 5750 C 543.169 -0.371405 4.2769 0
M  V30 5751 C 542.402 -1.31327 5.1729 0
M  V30 5752 O 542.625 -2.55078 5.10188 0
M  V30 5753 O 541.559 -0.813811 5.96373 0
M  V30 5754 H 545.385 0.604483 2.97623 0
M  V30 5755 H 542.97 0.361477 1.44961 0
M  V30 5756 H 544.852 -1.68214 3.8637 0
M  V30 5757 H 543.527 -1.82139 2.67595 0
M  V30 5758 H 542.434 0.24067 3.73325 0
M  V30 5759 H 543.767 0.296998 4.91303 0
M  V30 5760 N 545.419 -1.53889 0.339982 0
M  V30 5761 C 546.349 -2.27843 -0.510856 0
M  V30 5762 C 547.33 -1.29267 -1.10563 0
M  V30 5763 O 548.515 -1.58104 -1.12768 0
M  V30 5764 C 545.645 -3.04857 -1.66372 0
M  V30 5765 C 544.599 -4.10907 -1.19746 0
M  V30 5766 C 543.925 -4.75855 -2.43857 0
M  V30 5767 C 545.225 -5.21435 -0.300501 0
M  V30 5768 H 546.919 -2.99212 0.106067 0
M  V30 5769 H 544.465 -1.43904 0.0524533 0
M  V30 5770 H 546.418 -3.5533 -2.26537 0
M  V30 5771 H 545.142 -2.31133 -2.30749 0
M  V30 5772 H 543.801 -3.61342 -0.618654 0
M  V30 5773 H 543.449 -3.9873 -3.06633 0
M  V30 5774 H 543.149 -5.47502 -2.13343 0
M  V30 5775 H 544.673 -5.2911 -3.04754 0
M  V30 5776 H 546.087 -5.67565 -0.80889 0
M  V30 5777 H 544.484 -6.00036 -0.0874076 0
M  V30 5778 H 545.554 -4.80328 0.664321 0
M  V30 5779 N 546.897 -0.0685191 -1.57451 0
M  V30 5780 C 547.86 0.885173 -2.11417 0
M  V30 5781 C 548.86 1.22853 -1.03748 0
M  V30 5782 O 550.05 1.16235 -1.2975 0
M  V30 5783 C 547.182 2.18964 -2.61281 0
M  V30 5784 H 548.375 0.417034 -2.96986 0
M  V30 5785 H 545.928 0.18014 -1.55258 0
M  V30 5786 H 546.663 2.70321 -1.79156 0
M  V30 5787 H 546.448 1.9534 -3.39977 0
M  V30 5788 H 547.938 2.87242 -3.0312 0
M  V30 5789 N 548.375 1.56261 0.205012 0
M  V30 5790 C 549.323 1.94631 1.27364 0
M  V30 5791 C 550.317 0.830434 1.47649 0
M  V30 5792 O 551.523 1.01538 1.48627 0
M  V30 5793 H 547.898 0.618755 0.427371 0
M  V30 5794 H 549.869 2.83768 0.922941 0
M  V30 5795 C 548.618 2.29358 2.61324 0
M  V30 5796 H 547.941 3.14744 2.46528 0
M  V30 5797 H 549.381 2.60076 3.34868 0
M  V30 5798 C 547.84 1.12461 3.17575 0
M  V30 5799 O 548.37 0.394407 3.99759 0
M  V30 5800 N 546.576 0.904036 2.7618 0
M  V30 5801 H 546.123 1.49956 2.09454 0
M  V30 5802 H 546.081 0.123662 3.14157 0
M  V30 5803 N 549.853 -0.472356 1.50355 0
M  V30 5804 C 550.763 -1.59637 1.7191 0
M  V30 5805 C 551.779 -1.63247 0.602195 0
M  V30 5806 O 552.955 -1.81139 0.880369 0
M  V30 5807 C 550.02 -2.9586 1.80742 0
M  V30 5808 C 549.081 -3.02649 3.04471 0
M  V30 5809 C 548.314 -4.32374 3.12872 0
M  V30 5810 O 548.537 -5.22807 2.28099 0
M  V30 5811 O 547.471 -4.44728 4.05587 0
M  V30 5812 H 551.297 -1.44373 2.67189 0
M  V30 5813 H 548.882 -0.651717 1.34436 0
M  V30 5814 H 550.764 -3.7677 1.88739 0
M  V30 5815 H 549.439 -3.11325 0.88647 0
M  V30 5816 H 548.346 -2.20821 3.01975 0
M  V30 5817 H 549.679 -2.92119 3.9614 0
M  V30 5818 N 551.331 -1.39911 -0.725443 0
M  V30 5819 C 552.742 -1.33599 -1.30415 0
M  V30 5820 C 553.093 -0.00481792 -1.96199 0
M  V30 5821 O 552.218 0.897275 -1.96921 0
M  V30 5822 C 552.813 -2.41965 -2.37146 0
M  V30 5823 C 551.372 -2.39144 -2.90667 0
M  V30 5824 C 550.519 -2.23355 -1.64341 0
M  V30 5825 H 553.47 -1.4986 -0.522267 0
M  V30 5826 H 553.491 -2.09304 -3.17761 0
M  V30 5827 H 553.003 -3.38837 -1.89238 0
M  V30 5828 H 551.104 -1.4594 -3.4283 0
M  V30 5829 H 551.217 -3.34362 -3.43131 0
M  V30 5830 H 549.581 -1.70696 -1.89037 0
M  V30 5831 H 550.364 -3.2221 -1.18471 0
M  V30 5832 N 552.809 0.956637 -1.25245 0
M  V30 5833 C 554.034 1.74104 -1.12706 0
M  V30 5834 C 554.459 1.85436 0.315429 0
M  V30 5835 O 553.817 1.33334 1.22848 0
M  V30 5836 C 553.865 3.1338 -1.78396 0
M  V30 5837 O 552.969 3.98485 -1.06224 0
M  V30 5838 H 552.31 0.53476 -0.393609 0
M  V30 5839 H 554.84 1.19924 -1.65769 0
M  V30 5840 H 554.85 3.6385 -1.846 0
M  V30 5841 H 553.525 3.04448 -2.83345 0
M  V30 5842 H 552.102 3.56952 -1.07886 0
M  V30 5843 N 554.287 1.06798 1.15896 0
M  V30 5844 C 555.698 0.811355 1.68149 0
M  V30 5845 C 556.049 -0.664339 1.8461 0
M  V30 5846 O 555.174 -1.51485 1.54535 0
M  V30 5847 C 555.769 1.46624 3.05429 0
M  V30 5848 C 554.328 1.25726 3.54781 0
M  V30 5849 C 553.475 1.53949 2.3064 0
M  V30 5850 H 556.426 1.23078 1.00187 0
M  V30 5851 H 556.447 0.88437 3.7008 0
M  V30 5852 H 555.959 2.54025 2.93416 0
M  V30 5853 H 554.06 0.20322 3.72045 0
M  V30 5854 H 554.173 1.97354 4.36564 0
M  V30 5855 H 552.537 0.96025 2.35905 0
M  V30 5856 H 553.32 2.6252 2.2122 0
M  V30 5857 N 555.766 -1.3263 0.851289 0
M  V30 5858 C 556.714 -2.30882 0.282202 0
M  V30 5859 C 557.708 -1.58697 -0.592589 0
M  V30 5860 O 558.914 -1.73461 -0.480768 0
M  V30 5861 H 555.289 -0.748492 0.0725487 0
M  V30 5862 H 557.26 -2.76374 1.12516 0
M  V30 5863 C 556.009 -3.43828 -0.517449 0
M  V30 5864 H 555.332 -3.99532 0.146392 0
M  V30 5865 H 556.772 -4.1474 -0.88128 0
M  V30 5866 C 555.231 -2.90786 -1.70133 0
M  V30 5867 O 555.761 -2.88 -2.80034 0
M  V30 5868 N 553.967 -2.4723 -1.52728 0
M  V30 5869 H 553.514 -2.49695 -0.633257 0
M  V30 5870 H 553.472 -2.12094 -2.32085 0
M  V30 5871 N 557.244 -0.608902 -1.45362 0
M  V30 5872 C 558.192 0.121639 -2.32282 0
M  V30 5873 C 559.186 0.858301 -1.46046 0
M  V30 5874 O 560.392 0.773718 -1.62523 0
M  V30 5875 H 556.767 0.058086 -0.749753 0
M  V30 5876 H 558.738 -0.629866 -2.91677 0
M  V30 5877 C 557.487 1.1047 -3.29684 0
M  V30 5878 H 556.81 0.547278 -3.96036 0
M  V30 5879 H 558.25 1.58576 -3.9323 0
M  V30 5880 C 556.709 2.17891 -2.56954 0
M  V30 5881 O 557.239 3.25652 -2.35189 0
M  V30 5882 N 555.445 1.93211 -2.17066 0
M  V30 5883 H 554.992 1.05584 -2.34967 0
M  V30 5884 H 554.95 2.6529 -1.68727 0
M  V30 5885 N 558.722 1.53707 -0.348139 0
M  V30 5886 C 559.67 2.26671 0.521808 0
M  V30 5887 C 560.664 1.28988 1.09811 0
M  V30 5888 O 561.87 1.4668 1.04332 0
M  V30 5889 H 558.245 0.728387 0.186968 0
M  V30 5890 H 560.216 2.98176 -0.115563 0
M  V30 5891 C 558.965 3.05591 1.6586 0
M  V30 5892 H 558.288 3.80589 1.22443 0
M  V30 5893 H 559.728 3.59851 2.24239 0
M  V30 5894 C 558.187 2.15366 2.59073 0
M  V30 5895 O 558.717 1.7528 3.61441 0
M  V30 5896 N 556.923 1.80352 2.27863 0
M  V30 5897 H 556.47 2.13149 1.44656 0
M  V30 5898 H 556.428 1.20268 2.90488 0
M  V30 5899 N 560.2 0.0768682 1.57412 0
M  V30 5900 C 561.448 -0.589918 1.93299 0
M  V30 5901 C 561.769 -1.69842 0.958049 0
M  V30 5902 O 561.039 -1.95899 0.00703261 0
M  V30 5903 H 559.619 -0.220901 0.713591 0
M  V30 5904 H 562.281 0.135917 1.94425 0
M  V30 5905 H 561.377 -1.01195 2.95239 0
M  V30 5906 N 561.678 -1.56367 -0.196722 0
M  V30 5907 C 562.926 -1.80172 -0.915554 0
M  V30 5908 C 563.247 -0.649649 -1.8386 0
M  V30 5909 O 562.517 0.332111 -1.93064 0
M  V30 5910 H 561.097 -0.664592 -0.341067 0
M  V30 5911 H 563.759 -1.93844 -0.202622 0
M  V30 5912 H 562.855 -2.7327 -1.50764 0
M  V30 5913 N 563.156 0.464375 -1.50603 0
M  V30 5914 C 564.567 1.04507 -1.5471 0
M  V30 5915 C 564.918 1.9297 -0.354542 0
M  V30 5916 O 564.043 2.09763 0.531812 0
M  V30 5917 C 564.638 1.90207 -2.80369 0
M  V30 5918 C 563.197 2.43373 -2.87135 0
M  V30 5919 C 562.344 1.21886 -2.49076 0
M  V30 5920 H 565.295 0.246716 -1.56771 0
M  V30 5921 H 565.316 2.75353 -2.62604 0
M  V30 5922 H 564.828 1.25796 -3.67147 0
M  V30 5923 H 562.929 3.11318 -2.04724 0
M  V30 5924 H 563.042 2.7802 -3.90181 0
M  V30 5925 H 561.406 1.55575 -2.01664 0
M  V30 5926 H 562.189 0.591268 -3.3817 0
M  V30 5927 N 564.634 1.40294 0.718013 0
M  V30 5928 C 565.882 1.38167 1.47494 0
M  V30 5929 C 566.203 -0.01607 1.94993 0
M  V30 5930 O 565.473 -0.970396 1.70177 0
M  V30 5931 H 564.053 0.508505 0.547203 0
M  V30 5932 H 566.715 1.75324 0.851322 0
M  V30 5933 H 565.811 2.05503 2.34894 0
M  V30 5934 N 566.112 -0.949982 1.2575 0
M  V30 5935 C 567.042 -2.06483 1.09028 0
M  V30 5936 C 568.023 -1.701 -0.00201532 0
M  V30 5937 O 569.208 -1.93469 0.168383 0
M  V30 5938 C 566.338 -3.39899 0.71316 0
M  V30 5939 C 565.292 -3.90309 1.75621 0
M  V30 5940 C 564.618 -5.20274 1.23365 0
M  V30 5941 C 565.918 -4.16169 3.15596 0
M  V30 5942 H 567.612 -2.20731 2.02283 0
M  V30 5943 H 565.158 -1.06066 0.973964 0
M  V30 5944 H 567.111 -4.17346 0.58309 0
M  V30 5945 H 565.835 -3.25602 -0.255091 0
M  V30 5946 H 564.494 -3.15035 1.8748 0
M  V30 5947 H 564.142 -5.02351 0.255491 0
M  V30 5948 H 563.842 -5.54971 1.93082 0
M  V30 5949 H 565.366 -6.00314 1.11607 0
M  V30 5950 H 566.78 -4.84259 3.06864 0
M  V30 5951 H 565.177 -4.62131 3.82825 0
M  V30 5952 H 566.247 -3.22273 3.6231 0
M  V30 5953 N 567.59 -1.07411 -1.15328 0
M  V30 5954 C 568.818 -0.818782 -1.90009 0
M  V30 5955 C 569.233 0.628072 -1.78047 0
M  V30 5956 O 568.59 1.43085 -1.13282 0
M  V30 5957 C 568.641 -1.21874 -3.40337 0
M  V30 5958 O 568.362 -2.60883 -3.51954 0
M  V30 5959 C 569.863 -0.992796 -4.3204 0
M  V30 5960 H 567.083 -0.296007 -0.60218 0
M  V30 5961 H 569.627 -1.43073 -1.46117 0
M  V30 5962 H 567.782 -0.651103 -3.81889 0
M  V30 5963 H 568.196 -2.77216 -4.45255 0
M  V30 5964 H 569.67 -1.32215 -5.35932 0
M  V30 5965 H 570.147 0.0708331 -4.39143 0
M  V30 5966 H 570.753 -1.54537 -3.9623 0
M  V30 5967 N 569.068 1.32177 -0.85831 0
M  V30 5968 C 570.016 2.30729 -0.294442 0
M  V30 5969 C 571.01 1.59009 0.584165 0
M  V30 5970 O 572.216 1.73713 0.471562 0
M  V30 5971 H 568.591 0.748097 -0.0765171 0
M  V30 5972 H 570.562 2.75774 -1.1398 0
M  V30 5973 C 569.311 3.44098 0.499208 0
M  V30 5974 H 568.634 3.99449 -0.167579 0
M  V30 5975 H 570.074 4.15202 0.859273 0
M  V30 5976 C 568.533 2.91684 1.68588 0
M  V30 5977 O 569.063 2.89481 2.78503 0
M  V30 5978 N 567.269 2.48036 1.51415 0
M  V30 5979 H 566.816 2.50027 0.620006 0
M  V30 5980 H 566.774 2.13322 2.30957 0
M  V30 5981 N 570.547 0.616602 1.45037 0
M  V30 5982 C 571.824 0.0469086 1.95544 0
M  V30 5983 C 572.204 -1.42345 1.55888 0
M  V30 5984 O 571.552 -2.13055 0.825824 0
M  V30 5985 C 571.762 0.254489 3.48071 0
M  V30 5986 C 573.11 0.140025 4.24369 0
M  V30 5987 O 574.134 0.185084 3.55719 0
M  V30 5988 O 572.993 0.0327034 5.4649 0
M  V30 5989 H 570.087 -0.0306051 0.826433 0
M  V30 5990 H 572.633 0.687293 1.55159 0
M  V30 5991 H 571.405 1.27532 3.69934 0
M  V30 5992 H 571.028 -0.42073 3.95368 0
M  V30 5993 N 572.025 -1.5352 0.356285 0
M  V30 5994 C 572.935 -2.29151 -0.502712 0
M  V30 5995 C 573.951 -1.34753 -1.1008 0
M  V30 5996 O 575.127 -1.67803 -1.11374 0
M  V30 5997 C 572.192 -3.05911 -1.63154 0
M  V30 5998 C 571.253 -4.15958 -1.06194 0
M  V30 5999 C 570.486 -4.8905 -2.13696 0
M  V30 6000 O 570.709 -4.61919 -3.34645 0
M  V30 6001 O 569.643 -5.75202 -1.77275 0
M  V30 6002 H 573.469 -3.03492 0.112466 0
M  V30 6003 H 571.054 -1.4891 0.120942 0
M  V30 6004 H 572.936 -3.53874 -2.28804 0
M  V30 6005 H 571.611 -2.34415 -2.23229 0
M  V30 6006 H 570.518 -3.7227 -0.369603 0
M  V30 6007 H 571.851 -4.89593 -0.505872 0
M  V30 6008 N 573.503 -0.0852151 -1.57369 0
M  V30 6009 C 574.45 0.877268 -2.13478 0
M  V30 6010 C 575.42 1.28642 -1.05073 0
M  V30 6011 O 576.605 1.36992 -1.32808 0
M  V30 6012 C 573.745 2.13464 -2.71159 0
M  V30 6013 C 572.858 1.77691 -3.93764 0
M  V30 6014 C 571.993 2.98139 -4.39643 0
M  V30 6015 C 571.032 2.58447 -5.54862 0
M  V30 6016 N 570.169 3.71698 -5.95639 0
M  V30 6017 H 575.009 0.391933 -2.95411 0
M  V30 6018 H 572.546 0.181796 -1.45972 0
M  V30 6019 H 574.504 2.87086 -3.02717 0
M  V30 6020 H 573.134 2.59514 -1.91969 0
M  V30 6021 H 572.186 0.940768 -3.68583 0
M  V30 6022 H 573.498 1.44497 -4.77412 0
M  V30 6023 H 572.652 3.80026 -4.72933 0
M  V30 6024 H 571.391 3.34536 -3.54876 0
M  V30 6025 H 570.396 1.74984 -5.21211 0
M  V30 6026 H 571.621 2.23205 -6.41371 0
M  V30 6027 H 569.567 4.07831 -5.13819 0
M  V30 6028 H 569.484 3.42317 -6.74059 0
M  V30 6029 H 570.752 4.54123 -6.33555 0
M  V30 6030 N 574.981 1.5647 0.188427 0
M  V30 6031 C 576.229 1.80655 0.905986 0
M  V30 6032 C 576.55 0.659391 1.83513 0
M  V30 6033 O 575.82 -0.321868 1.93238 0
M  V30 6034 H 574.4 0.666391 0.337538 0
M  V30 6035 H 577.062 1.93949 0.192339 0
M  V30 6036 H 576.158 2.74066 1.49313 0
M  V30 6037 N 576.459 -0.456382 1.50847 0
M  V30 6038 C 577.705 -1.20618 1.63777 0
M  V30 6039 C 578.06 -1.8936 0.340677 0
M  V30 6040 O 577.353 -1.79786 -0.662378 0
M  V30 6041 C 577.547 -2.26336 2.76599 0
M  V30 6042 C 577.376 -1.67968 4.17153 0
M  V30 6043 C 576.146 -1.47293 4.83356 0
M  V30 6044 C 578.344 -1.16643 5.00898 0
M  V30 6045 N 576.326 -0.843222 6.08081 0
M  V30 6046 C 577.697 -0.660843 6.16468 0
M  V30 6047 C 579.752 -1.05637 4.86565 0
M  V30 6048 C 578.455 -0.0560365 7.19278 0
M  V30 6049 C 580.481 -0.465485 5.89565 0
M  V30 6050 C 579.843 0.0296516 7.04394 0
M  V30 6051 H 575.942 -0.429725 0.653345 0
M  V30 6052 H 578.526 -0.505784 1.88016 0
M  V30 6053 H 576.697 -2.93785 2.54056 0
M  V30 6054 H 578.429 -2.9334 2.78808 0
M  V30 6055 H 575.184 -1.72934 4.40898 0
M  V30 6056 H 575.608 -0.546357 6.74792 0
M  V30 6057 H 580.25 -1.42508 3.98059 0
M  V30 6058 H 577.968 0.324845 8.07447 0
M  V30 6059 H 581.554 -0.382493 5.80541 0
M  V30 6060 H 580.434 0.479705 7.82731 0
M  V30 6061 N 577.937 -1.40673 -0.710563 0
M  V30 6062 C 578.847 -1.43663 -1.85467 0
M  V30 6063 C 579.863 -0.328721 -1.70867 0
M  V30 6064 O 581.039 -0.574098 -1.93044 0
M  V30 6065 C 578.104 -1.30226 -3.21313 0
M  V30 6066 C 577.165 -2.51204 -3.48131 0
M  V30 6067 C 576.398 -2.38398 -4.77495 0
M  V30 6068 O 576.621 -1.40048 -5.5294 0
M  V30 6069 O 575.555 -3.2787 -5.04762 0
M  V30 6070 H 579.381 -2.40156 -1.859 0
M  V30 6071 H 576.966 -1.22049 -0.861652 0
M  V30 6072 H 578.848 -1.2496 -4.02446 0
M  V30 6073 H 577.523 -0.368419 -3.21597 0
M  V30 6074 H 576.43 -2.62048 -2.66987 0
M  V30 6075 H 577.763 -3.43366 -3.52648 0
M  V30 6076 N 579.415 0.9433 -1.26252 0
M  V30 6077 C 580.378 2.02326 -1.07689 0
M  V30 6078 C 581.378 1.60779 -0.0259174 0
M  V30 6079 O 582.568 1.72108 -0.269134 0
M  V30 6080 C 579.7 3.34886 -0.63752 0
M  V30 6081 H 580.893 2.20225 -2.0357 0
M  V30 6082 H 578.446 1.12197 -1.08819 0
M  V30 6083 H 579.181 3.22684 0.323377 0
M  V30 6084 H 578.966 3.66393 -1.39637 0
M  V30 6085 H 580.456 4.14231 -0.529418 0
M  V30 6086 N 580.893 1.08022 1.14757 0
M  V30 6087 C 582.139 0.808705 1.85978 0
M  V30 6088 C 582.472 -0.663764 1.82504 0
M  V30 6089 O 581.747 -1.48765 1.25296 0
M  V30 6090 C 582.03 1.32623 3.34788 0
M  V30 6091 C 581.883 2.86375 3.46856 0
M  V30 6092 C 583.202 0.948291 4.29762 0
M  V30 6093 H 580.321 0.295244 0.675278 0
M  V30 6094 H 582.963 1.33917 1.34783 0
M  V30 6095 H 581.113 0.875002 3.78518 0
M  V30 6096 H 582.785 3.39839 3.11941 0
M  V30 6097 H 581.028 3.24232 2.88194 0
M  V30 6098 H 581.699 3.17658 4.51439 0
M  V30 6099 H 584.175 1.33722 3.94028 0
M  V30 6100 H 583.051 1.33765 5.32352 0
M  V30 6101 H 583.312 -0.145094 4.41862 0
M  V30 6102 N 582.371 -1.3172 0.865308 0
M  V30 6103 C 583.318 -2.2863 0.315736 0
M  V30 6104 C 584.288 -1.55524 -0.583213 0
M  V30 6105 O 585.473 -1.83694 -0.51585 0
M  V30 6106 C 582.613 -3.41735 -0.480773 0
M  V30 6107 C 581.726 -4.297 0.445167 0
M  V30 6108 C 580.861 -5.29944 -0.365012 0
M  V30 6109 C 579.9 -6.09554 0.557651 0
M  V30 6110 N 579.037 -7.01768 -0.215994 0
M  V30 6111 H 583.877 -2.75026 1.14736 0
M  V30 6112 H 581.414 -1.35302 0.577209 0
M  V30 6113 H 583.372 -4.06045 -0.958306 0
M  V30 6114 H 582.002 -2.96461 -1.27714 0
M  V30 6115 H 581.054 -3.65875 1.04113 0
M  V30 6116 H 582.366 -4.85295 1.15284 0
M  V30 6117 H 581.52 -5.99908 -0.905255 0
M  V30 6118 H 580.259 -4.74994 -1.106 0
M  V30 6119 H 579.264 -5.38485 1.10969 0
M  V30 6120 H 580.489 -6.66591 1.29742 0
M  V30 6121 H 578.435 -6.49232 -0.939878 0
M  V30 6122 H 578.352 -7.54762 0.432431 0
M  V30 6123 H 579.62 -7.76002 -0.737618 0
M  V30 6124 N 583.85 -0.624285 -1.44708 0
M  V30 6125 C 584.76 0.0861083 -2.34442 0
M  V30 6126 C 585.776 0.84291 -1.5222 0
M  V30 6127 O 586.952 0.796723 -1.84971 0
M  V30 6128 C 584.017 1.05999 -3.30099 0
M  V30 6129 C 583.077 0.303316 -4.28227 0
M  V30 6130 C 582.311 1.23081 -5.19314 0
M  V30 6131 O 582.534 2.46929 -5.14181 0
M  V30 6132 O 581.468 0.71883 -5.97592 0
M  V30 6133 H 585.293 -0.651756 -2.96624 0
M  V30 6134 H 582.879 -0.384493 -1.44368 0
M  V30 6135 H 584.76 1.62046 -3.88997 0
M  V30 6136 H 583.436 1.77859 -2.70459 0
M  V30 6137 H 582.343 -0.300033 -3.72895 0
M  V30 6138 H 583.676 -0.375123 -4.90768 0
M  V30 6139 N 585.328 1.53329 -0.364422 0
M  V30 6140 C 586.558 2.05359 0.226096 0
M  V30 6141 C 586.966 1.23777 1.43094 0
M  V30 6142 O 586.309 0.271139 1.81688 0
M  V30 6143 C 586.371 3.52918 0.684794 0
M  V30 6144 C 586.035 4.55218 -0.403206 0
M  V30 6145 C 587.032 5.04583 -1.2527 0
M  V30 6146 C 584.717 4.99134 -0.563117 0
M  V30 6147 C 586.711 5.96463 -2.24745 0
M  V30 6148 C 584.398 5.9082 -1.56124 0
M  V30 6149 C 585.396 6.39375 -2.40184 0
M  V30 6150 O 585.084 7.29255 -3.38293 0
M  V30 6151 H 584.816 0.674588 0.0436772 0
M  V30 6152 H 587.37 1.98688 -0.520782 0
M  V30 6153 H 585.6 3.57122 1.48326 0
M  V30 6154 H 587.289 3.87812 1.19818 0
M  V30 6155 H 588.055 4.71403 -1.14034 0
M  V30 6156 H 583.934 4.60928 0.0813909 0
M  V30 6157 H 587.478 6.34285 -2.90393 0
M  V30 6158 H 583.375 6.23414 -1.67407 0
M  V30 6159 H 584.143 7.47249 -3.34009 0
M  V30 6160 N 586.806 0.0935595 1.57322 0
M  V30 6161 C 587.769 -0.851426 2.12799 0
M  V30 6162 C 588.769 -1.21187 1.0569 0
M  V30 6163 O 589.959 -1.14156 1.31583 0
M  V30 6164 C 587.091 -2.14779 2.64731 0
M  V30 6165 H 588.284 -0.369733 2.97612 0
M  V30 6166 H 585.837 -0.155417 1.55525 0
M  V30 6167 H 586.572 -2.67437 1.83434 0
M  V30 6168 H 586.357 -1.89907 3.43042 0
M  V30 6169 H 587.847 -2.82383 3.07651 0
M  V30 6170 N 588.284 -1.56567 -0.180126 0
M  V30 6171 C 589.194 -1.98947 -1.24327 0
M  V30 6172 C 590.21 -0.899446 -1.4895 0
M  V30 6173 O 591.386 -1.20639 -1.61271 0
M  V30 6174 C 588.451 -2.33328 -2.56435 0
M  V30 6175 C 587.512 -3.56114 -2.39752 0
M  V30 6176 C 586.745 -3.88845 -3.65561 0
M  V30 6177 O 586.968 -3.22662 -4.70368 0
M  V30 6178 O 585.902 -4.82226 -3.60197 0
M  V30 6179 H 589.728 -2.89634 -0.913565 0
M  V30 6180 H 587.313 -1.44319 -0.386306 0
M  V30 6181 H 589.195 -2.5645 -3.34382 0
M  V30 6182 H 587.87 -1.45806 -2.89002 0
M  V30 6183 H 586.777 -3.38221 -1.59866 0
M  V30 6184 H 588.11 -4.4415 -2.12113 0
M  V30 6185 N 589.762 0.448376 -1.51087 0
M  V30 6186 C 591.173 1.0286 -1.5581 0
M  V30 6187 C 591.524 1.92583 -0.374989 0
M  V30 6188 O 590.649 2.10316 0.509533 0
M  V30 6189 C 591.244 1.87223 -2.8237 0
M  V30 6190 C 589.803 2.40314 -2.897 0
M  V30 6191 C 588.95 1.19238 -2.50355 0
M  V30 6192 H 591.901 0.230075 -1.57023 0
M  V30 6193 H 591.922 2.72553 -2.6551 0
M  V30 6194 H 591.434 1.21894 -3.68461 0
M  V30 6195 H 589.535 3.09129 -2.08014 0
M  V30 6196 H 589.648 2.73866 -3.93108 0
M  V30 6197 H 588.012 1.53428 -2.03303 0
M  V30 6198 H 588.795 0.555367 -3.38778 0
M  V30 6199 N 591.24 1.41047 0.703093 0
M  V30 6200 C 592.489 1.39301 1.4587 0
M  V30 6201 C 592.802 0.00267077 1.956 0
M  V30 6202 O 594.008 -0.137414 2.71152 0
M  V30 6203 C 592.464 2.44891 2.63735 0
M  V30 6204 C 592.072 3.89796 2.20824 0
M  V30 6205 C 593.816 2.5227 3.41409 0
M  V30 6206 C 591.723 4.86955 3.35602 0
M  V30 6207 H 590.653 0.518005 0.547893 0
M  V30 6208 H 593.304 1.66839 0.764009 0
M  V30 6209 H 591.686 2.10472 3.35436 0
M  V30 6210 H 592.86 4.33424 1.56461 0
M  V30 6211 H 591.175 3.86008 1.56163 0
M  V30 6212 H 593.772 3.22044 4.26839 0
M  V30 6213 H 594.115 1.55714 3.86081 0
M  V30 6214 H 594.648 2.85742 2.7676 0
M  V30 6215 H 591.387 5.84888 2.9595 0
M  V30 6216 H 590.907 4.47982 3.98839 0
M  V30 6217 H 592.586 5.07361 4.01489 0
M  V30 6218 N 592.718 -0.936591 1.26751 0
M  V30 6219 C 593.964 -1.6858 1.12733 0
M  V30 6220 C 594.297 -1.91414 -0.327745 0
M  V30 6221 O 593.572 -1.49812 -1.24043 0
M  V30 6222 C 593.855 -3.05779 1.90187 0
M  V30 6223 C 593.708 -2.90242 3.43627 0
M  V30 6224 C 595.027 -4.0597 1.69931 0
M  V30 6225 H 592.146 -0.61182 0.410908 0
M  V30 6226 H 594.788 -1.08747 1.55801 0
M  V30 6227 H 592.938 -3.56853 1.53584 0
M  V30 6228 H 594.61 -2.46354 3.9001 0
M  V30 6229 H 592.853 -2.2577 3.70419 0
M  V30 6230 H 593.524 -3.87572 3.93055 0
M  V30 6231 H 596 -3.63874 2.0183 0
M  V30 6232 H 594.876 -4.99974 2.26534 0
M  V30 6233 H 595.137 -4.37369 0.64502 0
M  V30 6234 N 594.196 -1.08629 -1.14182 0
M  V30 6235 C 595.106 -0.730126 -2.22949 0
M  V30 6236 C 596.122 0.26436 -1.7198 0
M  V30 6237 O 597.298 0.107742 -2.01112 0
M  V30 6238 C 594.363 -0.147227 -3.46387 0
M  V30 6239 C 593.424 -1.19662 -4.12286 0
M  V30 6240 C 592.657 -0.641437 -5.29831 0
M  V30 6241 O 592.88 0.538351 -5.67854 0
M  V30 6242 O 591.814 -1.39257 -5.85569 0
M  V30 6243 H 595.64 -1.63753 -2.55771 0
M  V30 6244 H 593.225 -0.860118 -1.22157 0
M  V30 6245 H 595.107 0.174923 -4.21037 0
M  V30 6246 H 593.782 0.733304 -3.15285 0
M  V30 6247 H 592.689 -1.57133 -3.395 0
M  V30 6248 H 594.022 -2.0495 -4.475 0
M  V30 6249 N 595.674 1.31259 -0.872281 0
M  V30 6250 C 596.607 2.26544 -0.274394 0
M  V30 6251 C 597.585 1.51213 0.597776 0
M  V30 6252 O 598.769 1.80277 0.550687 0
M  V30 6253 C 595.896 3.33139 0.611256 0
M  V30 6254 C 594.942 4.26077 -0.189876 0
M  V30 6255 S 595.775 5.11971 -1.56989 0
M  V30 6256 C 596.931 6.2208 -0.690427 0
M  V30 6257 H 597.164 2.76908 -1.0821 0
M  V30 6258 H 594.697 1.3906 -0.670939 0
M  V30 6259 H 596.655 3.95024 1.11654 0
M  V30 6260 H 595.316 2.81525 1.39294 0
M  V30 6261 H 594.509 5.01657 0.485433 0
M  V30 6262 H 594.111 3.68701 -0.627339 0
M  V30 6263 H 596.403 6.77429 0.098001 0
M  V30 6264 H 597.346 6.93768 -1.41742 0
M  V30 6265 H 597.754 5.63915 -0.256953 0
M  V30 6266 N 597.152 0.631951 1.44375 0
M  V30 6267 C 598.082 -0.0593243 2.33425 0
M  V30 6268 C 599.063 -0.833964 1.48253 0
M  V30 6269 O 600.248 -0.799682 1.76971 0
M  V30 6270 C 597.378 -1.04096 3.31333 0
M  V30 6271 C 596.332 -0.377899 4.26328 0
M  V30 6272 C 595.658 -1.4695 5.14111 0
M  V30 6273 C 596.958 0.716371 5.17364 0
M  V30 6274 H 598.652 0.684287 2.91475 0
M  V30 6275 H 596.198 0.330518 1.40156 0
M  V30 6276 H 598.151 -1.53331 3.92514 0
M  V30 6277 H 596.875 -1.81547 2.71493 0
M  V30 6278 H 595.534 0.0938054 3.6648 0
M  V30 6279 H 595.182 -2.2349 4.50623 0
M  V30 6280 H 594.882 -1.03121 5.78481 0
M  V30 6281 H 596.406 -1.96363 5.78164 0
M  V30 6282 H 597.82 0.307089 5.72477 0
M  V30 6283 H 596.217 1.07784 5.90341 0
M  V30 6284 H 597.287 1.58316 4.58327 0
M  V30 6285 N 598.631 -1.53133 0.372548 0
M  V30 6286 C 600.047 -1.59585 0.02178 0
M  V30 6287 C 600.247 -1.38736 -1.46132 0
M  V30 6288 O 599.303 -1.19599 -2.22379 0
M  V30 6289 C 600.616 -2.9678 0.483959 0
M  V30 6290 C 602.164 -3.09909 0.438775 0
M  V30 6291 C 602.639 -4.49527 0.876876 0
M  V30 6292 N 604.13 -4.55663 0.832214 0
M  V30 6293 C 604.865 -5.61896 1.14281 0
M  V30 6294 N 604.361 -6.75852 1.52303 0
M  V30 6295 N 606.154 -5.51916 1.06515 0
M  V30 6296 H 598.305 -1.64936 1.33827 0
M  V30 6297 H 600.568 -0.773947 0.547458 0
M  V30 6298 H 600.274 -3.17198 1.51915 0
M  V30 6299 H 600.148 -3.7699 -0.125784 0
M  V30 6300 H 602.535 -2.89197 -0.587294 0
M  V30 6301 H 602.616 -2.31691 1.0841 0
M  V30 6302 H 602.26 -4.70979 1.90109 0
M  V30 6303 H 602.19 -5.26186 0.208727 0
M  V30 6304 H 604.681 -3.73844 0.552195 0
M  V30 6305 H 604.994 -7.52862 1.7441 0
M  V30 6306 H 603.339 -6.77226 1.56175 0
M  V30 6307 H 606.53 -4.6177 0.767235 0
M  V30 6308 H 606.703 -6.34609 1.31053 0
M  V30 6309 N 600.109 -0.101901 -1.5727 0
M  V30 6310 C 601.019 0.868647 -2.17926 0
M  V30 6311 C 602.035 1.30527 -1.1506 0
M  V30 6312 O 603.211 1.37178 -1.47459 0
M  V30 6313 C 600.276 2.10727 -2.75309 0
M  V30 6314 C 599.337 1.7242 -3.93154 0
M  V30 6315 C 598.57 2.90377 -4.47791 0
M  V30 6316 O 598.793 4.05305 -4.01353 0
M  V30 6317 O 597.727 2.6845 -5.38719 0
M  V30 6318 H 601.553 0.382544 -3.01281 0
M  V30 6319 H 599.138 0.122812 -1.48894 0
M  V30 6320 H 601.02 2.83303 -3.11958 0
M  V30 6321 H 599.695 2.58376 -1.94996 0
M  V30 6322 H 598.602 0.970039 -3.61305 0
M  V30 6323 H 599.935 1.29528 -4.74851 0
M  V30 6324 N 601.587 1.56661 0.17182 0
M  V30 6325 C 602.534 1.96371 1.21273 0
M  V30 6326 C 603.504 0.82756 1.44016 0
M  V30 6327 O 604.689 1.08764 1.56764 0
M  V30 6328 C 601.829 2.32838 2.54716 0
M  V30 6329 C 600.942 3.59628 2.39356 0
M  V30 6330 C 600.077 3.85311 3.65662 0
M  V30 6331 C 599.116 5.0545 3.45234 0
M  V30 6332 N 598.253 5.27268 4.63608 0
M  V30 6333 H 603.093 2.85106 0.86709 0
M  V30 6334 H 600.63 1.41073 0.416744 0
M  V30 6335 H 602.588 2.52004 3.3249 0
M  V30 6336 H 601.218 1.47214 2.87277 0
M  V30 6337 H 600.27 3.4838 1.52761 0
M  V30 6338 H 601.582 4.4756 2.20207 0
M  V30 6339 H 600.736 4.04841 4.51872 0
M  V30 6340 H 599.475 2.95753 3.8779 0
M  V30 6341 H 598.48 4.85819 2.5741 0
M  V30 6342 H 599.705 5.96538 3.24529 0
M  V30 6343 H 597.651 4.40662 4.85956 0
M  V30 6344 H 597.568 6.09422 4.4737 0
M  V30 6345 H 598.836 5.51277 5.51103 0
M  V30 6346 N 603.065 -0.440357 1.51323 0
M  V30 6347 C 604.313 -1.18769 1.63518 0
M  V30 6348 C 604.634 -1.91793 0.352201 0
M  V30 6349 O 603.904 -1.85432 -0.631811 0
M  V30 6350 H 602.484 -0.441408 0.602634 0
M  V30 6351 H 605.146 -0.505162 1.8824 0
M  V30 6352 H 604.242 -1.91892 2.46138 0
M  V30 6353 N 604.543 -1.41418 -0.695603 0
M  V30 6354 C 605.82 -1.31264 -1.45014 0
M  V30 6355 C 606.2 0.0597994 -2.11015 0
M  V30 6356 O 605.548 1.07403 -2.01685 0
M  V30 6357 C 605.758 -2.466 -2.4696 0
M  V30 6358 C 607.106 -2.87763 -3.12214 0
M  V30 6359 O 608.13 -2.46339 -2.57285 0
M  V30 6360 O 606.989 -3.59395 -4.11701 0
M  V30 6361 H 604.083 -0.516576 -0.645816 0
M  V30 6362 H 606.629 -1.53382 -0.726084 0
M  V30 6363 H 605.401 -3.38183 -1.96845 0
M  V30 6364 H 605.024 -2.26358 -3.26876 0
M  V30 6365 N 606.021 0.929856 -1.27246 0
M  V30 6366 C 606.969 2.05151 -1.09616 0
M  V30 6367 C 607.963 1.69388 -0.0198617 0
M  V30 6368 O 609.169 1.79124 -0.177417 0
M  V30 6369 H 605.544 0.671909 -0.337701 0
M  V30 6370 H 607.515 2.17168 -2.04648 0
M  V30 6371 C 606.264 3.3934 -0.757851 0
M  V30 6372 H 605.587 3.67343 -1.57795 0
M  V30 6373 H 607.027 4.18603 -0.674358 0
M  V30 6374 C 605.486 3.32582 0.537658 0
M  V30 6375 O 606.016 3.69633 1.57271 0
M  V30 6376 N 604.222 2.8568 0.532478 0
M  V30 6377 H 603.769 2.55725 -0.310233 0
M  V30 6378 H 603.727 2.81541 1.39936 0
M  V30 6379 N 607.499 1.09233 1.13605 0
M  V30 6380 C 608.432 0.6739 2.18023 0
M  V30 6381 C 609.41 -0.318603 1.59448 0
M  V30 6382 O 610.594 -0.220452 1.87206 0
M  V30 6383 C 607.721 -0.00751458 3.38699 0
M  V30 6384 C 606.767 0.946481 4.15865 0
M  V30 6385 S 607.6 2.45753 4.75779 0
M  V30 6386 C 608.756 1.78846 5.99804 0
M  V30 6387 H 608.989 1.55846 2.53178 0
M  V30 6388 H 606.522 0.908118 1.2487 0
M  V30 6389 H 608.48 -0.394368 4.08601 0
M  V30 6390 H 607.141 -0.868693 3.01849 0
M  V30 6391 H 606.334 0.416742 5.02274 0
M  V30 6392 H 605.936 1.27464 3.51609 0
M  V30 6393 H 608.228 1.11135 6.68323 0
M  V30 6394 H 609.171 2.63163 6.57382 0
M  V30 6395 H 609.579 1.25823 5.50299 0
M  V30 6396 N 608.977 -1.30795 0.87923 0
M  V30 6397 C 610.226 -1.95636 0.490875 0
M  V30 6398 C 610.539 -1.70214 -0.963674 0
M  V30 6399 O 611.745 -2.28991 -1.45861 0
M  V30 6400 C 610.201 -3.50271 0.826929 0
M  V30 6401 C 609.809 -3.84521 2.29886 0
M  V30 6402 C 611.553 -4.21456 0.507494 0
M  V30 6403 C 609.46 -5.32309 2.57685 0
M  V30 6404 H 608.39 -0.732238 0.179841 0
M  V30 6405 H 611.041 -1.48829 1.07341 0
M  V30 6406 H 609.423 -3.9562 0.173542 0
M  V30 6407 H 610.597 -3.50102 2.99609 0
M  V30 6408 H 608.912 -3.26425 2.58526 0
M  V30 6409 H 611.509 -5.30199 0.692293 0
M  V30 6410 H 611.852 -4.12614 -0.552718 0
M  V30 6411 H 612.385 -3.81772 1.11782 0
M  V30 6412 H 609.124 -5.46195 3.62424 0
M  V30 6413 H 608.644 -5.68048 1.92566 0
M  V30 6414 H 610.323 -5.99678 2.42889 0
M  V30 6415 N 610.455 -0.639598 -1.44038 0
M  V30 6416 C 611.385 0.0469443 -2.33453 0
M  V30 6417 C 612.366 0.82609 -1.48694 0
M  V30 6418 O 613.551 0.790285 -1.77393 0
M  V30 6419 C 610.681 1.02338 -3.3188 0
M  V30 6420 C 609.635 0.355284 -4.26523 0
M  V30 6421 C 608.961 1.44221 -5.14883 0
M  V30 6422 C 610.261 -0.743798 -5.16977 0
M  V30 6423 H 611.955 -0.699735 -2.91108 0
M  V30 6424 H 609.501 -0.337946 -1.39978 0
M  V30 6425 H 611.454 1.51247 -3.93322 0
M  V30 6426 H 610.178 1.80105 -2.72451 0
M  V30 6427 H 608.837 -0.113239 -3.66425 0
M  V30 6428 H 608.485 2.21097 -4.51802 0
M  V30 6429 H 608.185 1.00052 -5.79019 0
M  V30 6430 H 609.709 1.93295 -5.79197 0
M  V30 6431 H 611.123 -0.337444 -5.72306 0
M  V30 6432 H 609.52 -1.10914 -5.89761 0
M  V30 6433 H 610.59 -1.60745 -4.57481 0
M  V30 6434 N 611.933 1.52934 -0.380664 0
M  V30 6435 C 613.179 2.01765 0.20458 0
M  V30 6436 C 613.512 1.26696 1.47179 0
M  V30 6437 O 612.787 0.364936 1.91046 0
M  V30 6438 C 613.07 3.56869 0.481269 0
M  V30 6439 C 612.923 4.42617 -0.800629 0
M  V30 6440 C 614.242 4.2121 1.27554 0
M  V30 6441 H 611.361 0.733388 0.0728803 0
M  V30 6442 H 614.003 1.83068 -0.50853 0
M  V30 6443 H 612.153 3.72932 1.08875 0
M  V30 6444 H 613.825 4.38323 -1.43773 0
M  V30 6445 H 612.068 4.09977 -1.4178 0
M  V30 6446 H 612.739 5.49134 -0.561791 0
M  V30 6447 H 615.215 4.09072 0.761514 0
M  V30 6448 H 614.091 5.29732 1.43788 0
M  V30 6449 H 614.352 3.78269 2.28833 0
M  V30 6450 N 613.412 0.11024 1.57214 0
M  V30 6451 C 614.66 -0.548783 1.94506 0
M  V30 6452 C 614.981 -1.67772 0.99386 0
M  V30 6453 O 614.251 -1.9584 0.0485841 0
M  V30 6454 H 612.831 -0.205715 0.718116 0
M  V30 6455 H 615.493 0.177127 1.94093 0
M  V30 6456 H 614.589 -0.949096 2.97319 0
M  V30 6457 N 614.89 -1.56749 -0.16351 0
M  V30 6458 C 615.838 -1.97939 -1.22159 0
M  V30 6459 C 616.832 -0.869288 -1.45395 0
M  V30 6460 O 618.038 -1.05443 -1.45883 0
M  V30 6461 H 614.413 -0.629869 -0.410815 0
M  V30 6462 H 616.384 -2.86115 -0.847381 0
M  V30 6463 C 615.133 -2.36206 -2.55151 0
M  V30 6464 H 614.456 -3.2117 -2.38097 0
M  V30 6465 H 615.896 -2.68863 -3.27854 0
M  V30 6466 C 614.355 -1.20841 -3.14482 0
M  V30 6467 O 614.885 -0.500258 -3.98573 0
M  V30 6468 N 613.091 -0.976943 -2.73686 0
M  V30 6469 H 612.638 -1.55457 -2.05404 0
M  V30 6470 H 612.596 -0.206912 -3.13718 0
M  V30 6471 N 616.368 0.432326 -1.51554 0
M  V30 6472 C 617.779 1.01202 -1.56892 0
M  V30 6473 C 618.13 1.92175 -0.395394 0
M  V30 6474 O 617.255 2.10844 0.487198 0
M  V30 6475 C 617.85 1.84217 -2.8434 0
M  V30 6476 C 616.409 2.37228 -2.92233 0
M  V30 6477 C 615.556 1.16576 -2.51606 0
M  V30 6478 H 618.507 0.213407 -1.57259 0
M  V30 6479 H 618.528 2.69721 -2.68385 0
M  V30 6480 H 618.04 1.17979 -3.69733 0
M  V30 6481 H 616.141 3.06905 -2.11282 0
M  V30 6482 H 616.254 2.69682 -3.95991 0
M  V30 6483 H 614.618 1.51263 -2.04919 0
M  V30 6484 H 615.401 0.519404 -3.39348 0
M  V30 6485 N 617.846 1.41785 0.688094 0
M  V30 6486 C 618.794 1.44436 1.82321 0
M  V30 6487 C 619.788 0.321544 1.6632 0
M  V30 6488 O 620.994 0.493931 1.73091 0
M  V30 6489 H 617.369 0.452084 0.600936 0
M  V30 6490 H 619.34 2.40087 1.77202 0
M  V30 6491 C 618.089 1.35071 3.20392 0
M  V30 6492 H 617.412 2.2076 3.33324 0
M  V30 6493 H 618.852 1.40988 3.99873 0
M  V30 6494 C 617.311 0.0639127 3.36839 0
M  V30 6495 O 617.841 -0.888495 3.91751 0
M  V30 6496 N 616.047 -0.0146114 2.90596 0
M  V30 6497 H 615.594 0.761191 2.46097 0
M  V30 6498 H 615.552 -0.874988 3.01979 0
M  V30 6499 N 619.324 -0.923095 1.27737 0
M  V30 6500 C 620.57 -1.67409 1.15524 0
M  V30 6501 C 620.925 -1.90124 -0.295072 0
M  V30 6502 O 620.218 -1.48382 -1.21216 0
M  V30 6503 C 620.412 -3.04125 1.8773 0
M  V30 6504 C 620.241 -2.94752 3.39634 0
M  V30 6505 C 619.011 -2.96783 4.0896 0
M  V30 6506 C 621.209 -2.73524 4.35533 0
M  V30 6507 N 619.191 -2.779 5.47398 0
M  V30 6508 C 620.562 -2.63391 5.61271 0
M  V30 6509 C 622.617 -2.58447 4.2557 0
M  V30 6510 C 621.32 -2.3972 6.78179 0
M  V30 6511 C 623.346 -2.36154 5.42204 0
M  V30 6512 C 622.708 -2.26768 6.669 0
M  V30 6513 H 618.807 -0.619196 0.477619 0
M  V30 6514 H 621.391 -1.09094 1.61266 0
M  V30 6515 H 619.562 -3.60545 1.44436 0
M  V30 6516 H 621.294 -3.6819 1.67982 0
M  V30 6517 H 618.049 -3.07186 3.60463 0
M  V30 6518 H 618.473 -2.71576 6.20141 0
M  V30 6519 H 623.115 -2.6446 3.2988 0
M  V30 6520 H 620.833 -2.32447 7.73947 0
M  V30 6521 H 624.419 -2.25367 5.36378 0
M  V30 6522 H 623.299 -2.09751 7.55628 0
M  V30 6523 N 620.802 -1.09834 -1.13024 0
M  V30 6524 C 622.027 -0.85909 -1.88771 0
M  V30 6525 C 622.452 0.584402 -1.78791 0
M  V30 6526 O 621.81 1.41101 -1.13842 0
M  V30 6527 C 621.858 -1.30427 -3.36186 0
M  V30 6528 O 620.962 -0.465368 -4.09766 0
M  V30 6529 H 620.303 -0.310786 -0.586778 0
M  V30 6530 H 622.833 -1.46355 -1.42973 0
M  V30 6531 H 622.843 -1.2915 -3.8702 0
M  V30 6532 H 621.518 -2.3555 -3.42767 0
M  V30 6533 H 620.095 -0.542814 -3.68928 0
M  V30 6534 N 622.28 1.30327 -0.886154 0
M  V30 6535 C 623.212 2.27079 -0.311072 0
M  V30 6536 C 624.225 1.53758 0.53502 0
M  V30 6537 O 625.414 1.74947 0.354378 0
M  V30 6538 C 622.514 3.33965 0.576228 0
M  V30 6539 C 621.687 4.36735 -0.241064 0
M  V30 6540 C 620.746 5.23028 0.576916 0
M  V30 6541 O 619.772 5.692 -0.000802231 0
M  V30 6542 N 620.974 5.49016 1.88579 0
M  V30 6543 H 623.739 2.77065 -1.14259 0
M  V30 6544 H 621.3 1.43519 -0.749258 0
M  V30 6545 H 623.292 3.88618 1.12953 0
M  V30 6546 H 621.862 2.839 1.30842 0
M  V30 6547 H 621.082 3.81932 -0.975805 0
M  V30 6548 H 622.37 5.02451 -0.801272 0
M  V30 6549 H 621.768 5.13288 2.37806 0
M  V30 6550 H 620.325 6.06539 2.38651 0
M  V30 6551 N 623.758 0.647228 1.43697 0
M  V30 6552 C 625.174 0.314256 1.56476 0
M  V30 6553 C 625.374 -1.18191 1.63196 0
M  V30 6554 O 624.43 -1.96655 1.58376 0
M  V30 6555 C 625.743 1.02034 2.82859 0
M  V30 6556 C 627.291 1.00002 2.96595 0
M  V30 6557 C 627.766 1.68689 4.25803 0
M  V30 6558 N 629.257 1.65424 4.32654 0
M  V30 6559 C 629.992 2.1545 5.31384 0
M  V30 6560 N 629.488 2.73738 6.36427 0
M  V30 6561 N 631.281 2.05985 5.22998 0
M  V30 6562 H 623.432 1.61821 1.37578 0
M  V30 6563 H 625.695 0.680184 0.660344 0
M  V30 6564 H 625.401 2.07542 2.83935 0
M  V30 6565 H 625.275 0.568146 3.72897 0
M  V30 6566 H 627.662 -0.0466319 2.95063 0
M  V30 6567 H 627.743 1.49086 2.07863 0
M  V30 6568 H 627.387 2.73308 4.28095 0
M  V30 6569 H 627.317 1.17076 5.13421 0
M  V30 6570 H 629.808 1.22884 3.57363 0
M  V30 6571 H 630.121 3.09602 7.08072 0
M  V30 6572 H 628.466 2.77796 6.37067 0
M  V30 6573 H 631.657 1.60157 4.39849 0
M  V30 6574 H 631.83 2.45281 5.99784 0
M  V30 6575 N 625.236 -1.5273 0.388769 0
M  V30 6576 C 626.647 -1.86505 -0.0853788 0
M  V30 6577 C 626.998 -1.30847 -1.46197 0
M  V30 6578 O 626.123 -0.639609 -2.06732 0
M  V30 6579 C 626.718 -3.38414 -0.161703 0
M  V30 6580 C 625.277 -3.71902 -0.580144 0
M  V30 6581 C 624.424 -2.76095 0.258218 0
M  V30 6582 H 627.375 -1.46647 0.606665 0
M  V30 6583 H 627.396 -3.67638 -0.980936 0
M  V30 6584 H 626.908 -3.78893 0.840333 0
M  V30 6585 H 625.009 -3.36992 -1.58957 0
M  V30 6586 H 625.122 -4.77902 -0.338663 0
M  V30 6587 H 623.486 -2.53195 -0.276432 0
M  V30 6588 H 624.269 -3.19411 1.25822 0
M  V30 6589 N 626.714 -0.118576 -1.57153 0
M  V30 6590 C 627.991 0.583062 -1.86708 0
M  V30 6591 C 628.371 1.84841 -1.01967 0
M  V30 6592 O 627.719 2.28288 -0.0984673 0
M  V30 6593 C 627.929 0.875912 -3.3783 0
M  V30 6594 C 629.277 1.22916 -4.0642 0
M  V30 6595 O 630.301 0.966188 -3.42846 0
M  V30 6596 O 629.16 1.72269 -5.18638 0
M  V30 6597 H 626.254 0.294185 -0.772906 0
M  V30 6598 H 628.8 -0.153048 -1.69008 0
M  V30 6599 H 627.572 -0.0207776 -3.91294 0
M  V30 6600 H 627.195 1.66719 -3.60958 0
M  V30 6601 N 628.193 1.56834 0.155195 0
M  V30 6602 C 629.123 2.00678 1.19376 0
M  V30 6603 C 630.104 0.884973 1.45266 0
M  V30 6604 O 631.289 1.1522 1.56326 0
M  V30 6605 C 628.419 2.38042 2.5289 0
M  V30 6606 C 627.373 3.53332 2.41538 0
M  V30 6607 C 626.699 3.76485 3.79688 0
M  V30 6608 C 627.999 4.86265 1.9064 0
M  V30 6609 H 629.693 2.87688 0.829232 0
M  V30 6610 H 627.239 1.38407 0.397445 0
M  V30 6611 H 629.192 2.67314 3.25763 0
M  V30 6612 H 627.916 1.4796 2.91162 0
M  V30 6613 H 626.575 3.24213 1.71117 0
M  V30 6614 H 626.223 2.83667 4.15382 0
M  V30 6615 H 625.923 4.54068 3.72956 0
M  V30 6616 H 627.447 4.08174 4.54122 0
M  V30 6617 H 628.861 5.14308 2.53299 0
M  V30 6618 H 627.258 5.67597 1.94818 0
M  V30 6619 H 628.328 4.77184 0.861596 0
M  V30 6620 N 629.671 -0.424282 1.51781 0
M  V30 6621 C 630.896 -1.19928 1.6921 0
M  V30 6622 C 631.321 -1.8392 0.394355 0
M  V30 6623 O 630.679 -1.69371 -0.646778 0
M  V30 6624 C 630.727 -2.24937 2.81843 0
M  V30 6625 O 629.831 -3.3073 2.46356 0
M  V30 6626 H 629.172 -0.35078 0.563781 0
M  V30 6627 H 631.702 -0.499401 1.98412 0
M  V30 6628 H 631.712 -2.69512 3.06312 0
M  V30 6629 H 630.387 -1.77742 3.76006 0
M  V30 6630 H 628.964 -2.9154 2.32505 0
M  V30 6631 N 631.149 -1.42148 -0.680565 0
M  V30 6632 C 632.112 -1.4488 -1.77602 0
M  V30 6633 C 633.112 -0.337209 -1.57224 0
M  V30 6634 O 634.302 -0.597778 -1.63622 0
M  V30 6635 C 631.434 -1.27483 -3.16166 0
M  V30 6636 H 632.627 -2.42412 -1.76568 0
M  V30 6637 H 630.18 -1.28511 -0.889645 0
M  V30 6638 H 630.915 -0.30851 -3.22829 0
M  V30 6639 H 630.7 -2.08037 -3.3236 0
M  V30 6640 H 632.19 -1.32265 -3.96101 0
M  V30 6641 N 632.627 0.916307 -1.28225 0
M  V30 6642 C 633.904 1.64429 -1.05936 0
M  V30 6643 C 634.284 2.07234 0.402139 0
M  V30 6644 O 633.632 1.81535 1.3877 0
M  V30 6645 C 633.842 2.83773 -2.03159 0
M  V30 6646 C 635.19 3.54852 -2.33164 0
M  V30 6647 O 636.214 2.93918 -2.01223 0
M  V30 6648 O 635.073 4.64663 -2.87664 0
M  V30 6649 H 632.167 0.721221 -0.404683 0
M  V30 6650 H 634.713 0.965838 -1.39534 0
M  V30 6651 H 633.485 2.49217 -3.01673 0
M  V30 6652 H 633.108 3.59333 -1.70192 0
M  V30 6653 N 634.105 1.10431 1.1244 0
M  V30 6654 C 635.053 0.747974 2.20246 0
M  V30 6655 C 636.047 -0.255848 1.67457 0
M  V30 6656 O 637.253 -0.116221 1.79624 0
M  V30 6657 H 633.628 0.223946 0.71788 0
M  V30 6658 H 635.599 1.6661 2.47556 0
M  V30 6659 C 634.348 0.195957 3.47147 0
M  V30 6660 H 633.671 0.959606 3.88113 0
M  V30 6661 H 635.111 -0.0153154 4.23997 0
M  V30 6662 C 633.57 -1.07132 3.19413 0
M  V30 6663 O 634.1 -2.15284 3.3914 0
M  V30 6664 N 632.306 -0.98994 2.73219 0
M  V30 6665 H 631.853 -0.109736 2.57366 0
M  V30 6666 H 631.811 -1.83856 2.55038 0
M  V30 6667 N 635.583 -1.29855 0.893053 0
M  V30 6668 C 636.994 -1.77946 0.564998 0
M  V30 6669 C 637.345 -1.73339 -0.919134 0
M  V30 6670 O 636.47 -1.3152 -1.71847 0
M  V30 6671 C 637.065 -3.23118 1.01883 0
M  V30 6672 C 635.624 -3.69013 0.742051 0
M  V30 6673 C 634.771 -2.50121 1.19727 0
M  V30 6674 H 637.722 -1.16611 1.07646 0
M  V30 6675 H 637.743 -3.78875 0.351249 0
M  V30 6676 H 637.255 -3.26439 2.09903 0
M  V30 6677 H 635.356 -3.71173 -0.325816 0
M  V30 6678 H 635.469 -4.60117 1.33527 0
M  V30 6679 H 633.833 -2.47128 0.616418 0
M  V30 6680 H 634.616 -2.56174 2.28538 0
M  V30 6681 N 637.061 -0.65484 -1.43351 0
M  V30 6682 C 638.31 -0.166215 -2.01014 0
M  V30 6683 C 638.623 1.22764 -1.52278 0
M  V30 6684 O 639.829 1.81156 -2.02224 0
M  V30 6685 C 638.285 -0.246341 -3.59056 0
M  V30 6686 C 637.893 -1.64299 -4.16785 0
M  V30 6687 C 639.637 0.184597 -4.24098 0
M  V30 6688 C 637.544 -1.67695 -5.67126 0
M  V30 6689 H 636.474 -0.0583769 -0.751737 0
M  V30 6690 H 639.125 -0.817111 -1.64303 0
M  V30 6691 H 637.507 0.472092 -3.93176 0
M  V30 6692 H 638.681 -2.3869 -3.94162 0
M  V30 6693 H 636.996 -2.02004 -3.6412 0
M  V30 6694 H 639.593 0.179088 -5.344 0
M  V30 6695 H 639.936 1.21632 -3.98135 0
M  V30 6696 H 640.469 -0.482141 -3.94867 0
M  V30 6697 H 637.208 -2.68783 -5.9786 0
M  V30 6698 H 636.728 -0.976313 -5.91801 0
M  V30 6699 H 638.407 -1.42142 -6.31193 0
M  V30 6700 N 638.539 1.52521 -0.396863 0
M  V30 6701 C 639.816 1.94112 0.240842 0
M  V30 6702 C 640.196 1.33288 1.637 0
M  V30 6703 O 639.544 0.503901 2.22875 0
M  V30 6704 C 639.754 3.48033 0.259567 0
M  V30 6705 C 641.102 4.21822 0.484866 0
M  V30 6706 O 642.126 3.54579 0.339453 0
M  V30 6707 O 640.985 5.41042 0.770412 0
M  V30 6708 H 638.079 0.812973 0.151671 0
M  V30 6709 H 640.625 1.63572 -0.451918 0
M  V30 6710 H 639.397 3.84655 -0.718078 0
M  V30 6711 H 639.02 3.84899 0.996937 0
M  V30 6712 N 640.017 0.126909 1.57088 0
M  V30 6713 C 640.98 -0.806097 2.14557 0
M  V30 6714 C 641.98 -1.18918 1.08236 0
M  V30 6715 O 643.17 -1.11339 1.33975 0
M  V30 6716 C 640.302 -2.09116 2.69227 0
M  V30 6717 H 641.495 -0.306522 2.98329 0
M  V30 6718 H 639.048 -0.122393 1.5582 0
M  V30 6719 H 639.783 -2.63486 1.89065 0
M  V30 6720 H 639.568 -1.82588 3.46993 0
M  V30 6721 H 641.058 -2.75794 3.13572 0
M  V30 6722 N 641.495 -1.56914 -0.146875 0
M  V30 6723 C 642.405 -2.0154 -1.20079 0
M  V30 6724 C 643.421 -0.930838 -1.47008 0
M  V30 6725 O 644.597 -1.24032 -1.58676 0
M  V30 6726 C 641.662 -2.38715 -2.51428 0
M  V30 6727 C 640.723 -3.6112 -2.32145 0
M  V30 6728 C 639.956 -3.96512 -3.57231 0
M  V30 6729 O 640.179 -3.32566 -4.63418 0
M  V30 6730 O 639.113 -4.89758 -3.49887 0
M  V30 6731 H 642.939 -2.91506 -0.851924 0
M  V30 6732 H 640.524 -1.45106 -0.355607 0
M  V30 6733 H 642.406 -2.63485 -3.28867 0
M  V30 6734 H 641.081 -1.51903 -2.85845 0
M  V30 6735 H 639.988 -3.41536 -1.52656 0
M  V30 6736 H 641.321 -4.48549 -2.02644 0
M  V30 6737 N 642.974 0.416227 -1.52004 0
M  V30 6738 C 643.922 1.5272 -1.7544 0
M  V30 6739 C 644.916 1.57596 -0.621289 0
M  V30 6740 O 646.122 1.61087 -0.803172 0
M  V30 6741 H 642.497 0.507772 -0.554682 0
M  V30 6742 H 644.468 1.30136 -2.68528 0
M  V30 6743 C 643.217 2.90165 -1.91571 0
M  V30 6744 H 642.54 2.87154 -2.78178 0
M  V30 6745 H 643.98 3.67211 -2.11972 0
M  V30 6746 C 642.439 3.29947 -0.680942 0
M  V30 6747 O 642.969 4.01403 0.154527 0
M  V30 6748 N 641.175 2.8593 -0.518894 0
M  V30 6749 H 640.722 2.2795 -1.19986 0
M  V30 6750 H 640.68 3.12907 0.305985 0
M  V30 6751 N 644.452 1.42507 0.673017 0
M  V30 6752 C 645.701 1.42364 1.42883 0
M  V30 6753 C 646.014 0.0441598 1.9555 0
M  V30 6754 O 647.22 -0.0798679 2.71382 0
M  V30 6755 C 645.676 2.5043 2.58482 0
M  V30 6756 C 645.284 3.94392 2.12506 0
M  V30 6757 C 647.028 2.59455 3.35981 0
M  V30 6758 C 644.935 4.93964 3.25198 0
M  V30 6759 H 643.865 0.52951 0.536782 0
M  V30 6760 H 646.516 1.68422 0.728448 0
M  V30 6761 H 644.898 2.1754 3.30896 0
M  V30 6762 H 646.072 4.36645 1.47233 0
M  V30 6763 H 644.387 3.89233 1.4794 0
M  V30 6764 H 646.984 3.31025 4.19912 0
M  V30 6765 H 647.327 1.63869 3.82691 0
M  V30 6766 H 647.86 2.91549 2.70637 0
M  V30 6767 H 644.599 5.91034 2.83477 0
M  V30 6768 H 644.119 4.56341 3.89247 0
M  V30 6769 H 645.798 5.15763 3.90637 0
M  V30 6770 N 645.93 -0.909495 1.28709 0
M  V30 6771 C 646.863 -2.01388 1.07323 0
M  V30 6772 C 647.841 -1.62596 -0.0119757 0
M  V30 6773 O 649.025 -1.88003 0.136796 0
M  V30 6774 C 646.152 -3.32755 0.631797 0
M  V30 6775 C 645.198 -3.90532 1.71428 0
M  V30 6776 S 646.031 -4.20853 3.31124 0
M  V30 6777 C 647.187 -5.55276 2.88825 0
M  V30 6778 H 647.42 -2.19219 2.00824 0
M  V30 6779 H 644.953 -1.05489 1.12745 0
M  V30 6780 H 646.911 -4.08702 0.38381 0
M  V30 6781 H 645.572 -3.12818 -0.283451 0
M  V30 6782 H 644.765 -4.85385 1.35712 0
M  V30 6783 H 644.367 -3.21237 1.91528 0
M  V30 6784 H 646.659 -6.35341 2.3526 0
M  V30 6785 H 647.602 -5.95907 3.82492 0
M  V30 6786 H 648.01 -5.16666 2.27412 0
M  V30 6787 N 647.408 -1.11026 -1.11852 0
M  V30 6788 C 648.638 -0.877544 -1.87037 0
M  V30 6789 C 649.046 0.575925 -1.80221 0
M  V30 6790 O 648.389 1.40916 -1.17849 0
M  V30 6791 C 648.451 -1.25529 -3.36872 0
M  V30 6792 C 648.115 -2.71704 -3.67459 0
M  V30 6793 C 649.112 -3.69931 -3.65304 0
M  V30 6794 C 646.797 -3.08243 -3.966 0
M  V30 6795 C 648.791 -5.02717 -3.9186 0
M  V30 6796 C 646.478 -4.41215 -4.22815 0
M  V30 6797 C 647.476 -5.38262 -4.20432 0
M  V30 6798 O 647.164 -6.68839 -4.45992 0
M  V30 6799 H 646.896 -0.314374 -0.598452 0
M  V30 6800 H 649.45 -1.48015 -1.42411 0
M  V30 6801 H 647.68 -0.595808 -3.82082 0
M  V30 6802 H 649.369 -0.999064 -3.93413 0
M  V30 6803 H 650.135 -3.43047 -3.42846 0
M  V30 6804 H 646.014 -2.33326 -3.97593 0
M  V30 6805 H 649.558 -5.78456 -3.89916 0
M  V30 6806 H 645.455 -4.67835 -4.44748 0
M  V30 6807 H 646.223 -6.74563 -4.63581 0
M  V30 6808 N 648.886 1.2938 -0.899927 0
M  V30 6809 C 650.111 2.00228 -0.540692 0
M  V30 6810 C 650.536 1.66909 0.867359 0
M  V30 6811 O 649.894 0.893824 1.57735 0
M  V30 6812 C 649.942 3.52921 -0.740232 0
M  V30 6813 O 649.046 4.11879 0.207154 0
M  V30 6814 H 648.387 0.629505 -0.211233 0
M  V30 6815 H 650.917 1.6487 -1.21158 0
M  V30 6816 H 650.927 4.0287 -0.644973 0
M  V30 6817 H 649.602 3.76508 -1.76677 0
M  V30 6818 H 648.179 3.72845 0.0643315 0
M  V30 6819 N 650.364 0.662433 1.43002 0
M  V30 6820 C 651.61 0.179857 2.02001 0
M  V30 6821 C 651.943 -1.20625 1.52195 0
M  V30 6822 O 651.218 -1.80726 0.718911 0
M  V30 6823 C 651.501 0.200845 3.59539 0
M  V30 6824 C 651.354 1.62153 4.19555 0
M  V30 6825 C 652.673 -0.457738 4.37713 0
M  V30 6826 H 649.792 0.0668305 0.733964 0
M  V30 6827 H 652.434 0.84487 1.70182 0
M  V30 6828 H 650.584 -0.365411 3.86778 0
M  V30 6829 H 652.256 2.23908 4.03315 0
M  V30 6830 H 650.499 2.16601 3.75854 0
M  V30 6831 H 651.17 1.58799 5.28665 0
M  V30 6832 H 653.646 0.0241495 4.16093 0
M  V30 6833 H 652.522 -0.412363 5.47349 0
M  V30 6834 H 652.783 -1.53336 4.14657 0
M  V30 6835 N 651.842 -1.52309 0.404946 0
M  V30 6836 C 652.792 -2.23717 -0.439864 0
M  V30 6837 C 653.776 -1.24692 -1.0169 0
M  V30 6838 O 654.968 -1.49951 -0.940409 0
M  V30 6839 C 652.097 -3.05898 -1.55825 0
M  V30 6840 C 651.183 -4.12331 -0.992188 0
M  V30 6841 N 651.574 -5.0557 -0.152424 0
M  V30 6842 C 649.872 -4.2774 -1.26312 0
M  V30 6843 C 650.573 -5.81474 0.162041 0
M  V30 6844 N 649.549 -5.41767 -0.44601 0
M  V30 6845 H 653.351 -2.93162 0.208084 0
M  V30 6846 H 650.865 -1.60969 0.215131 0
M  V30 6847 H 652.862 -3.55605 -2.17603 0
M  V30 6848 H 651.522 -2.37991 -2.20886 0
M  V30 6849 H 652.533 -5.17468 0.211556 0
M  V30 6850 H 649.21 -3.71062 -1.91362 0
M  V30 6851 H 650.6 -6.66585 0.843423 0
M  V30 6852 N 653.32 -0.135238 -1.57019 0
M  V30 6853 C 654.567 0.518794 -1.95742 0
M  V30 6854 C 654.895 1.65642 -1.01947 0
M  V30 6855 O 654.15 1.95645 -0.0464016 0
M  V30 6856 C 654.449 1.07694 -3.40788 0
M  V30 6857 C 654.115 0.058992 -4.50861 0
M  V30 6858 C 652.777 -0.220872 -4.80693 0
M  V30 6859 C 655.129 -0.633856 -5.17331 0
M  V30 6860 C 652.457 -1.19959 -5.74305 0
M  V30 6861 C 654.809 -1.60131 -6.11997 0
M  V30 6862 C 653.473 -1.889 -6.40213 0
M  V30 6863 H 652.743 0.18984 -0.716269 0
M  V30 6864 H 655.39 -0.219581 -1.90237 0
M  V30 6865 H 653.695 1.89241 -3.43067 0
M  V30 6866 H 655.392 1.59137 -3.68071 0
M  V30 6867 H 651.982 0.287304 -4.27636 0
M  V30 6868 H 656.166 -0.430823 -4.94427 0
M  V30 6869 H 651.422 -1.42905 -5.94465 0
M  V30 6870 H 655.596 -2.14376 -6.62583 0
M  V30 6871 H 653.223 -2.64891 -7.12556 0
M  V30 6872 N 654.798 1.5699 0.138552 0
M  V30 6873 C 656.028 1.87704 0.863184 0
M  V30 6874 C 656.436 0.722411 1.74865 0
M  V30 6875 O 655.779 -0.316636 1.80951 0
M  V30 6876 C 655.841 3.13219 1.76449 0
M  V30 6877 C 655.505 4.44648 1.05532 0
M  V30 6878 C 656.502 5.18318 0.405252 0
M  V30 6879 C 654.187 4.91367 1.04231 0
M  V30 6880 C 656.181 6.36916 -0.24835 0
M  V30 6881 C 653.868 6.09887 0.384904 0
M  V30 6882 C 654.866 6.82508 -0.259292 0
M  V30 6883 O 654.554 7.98775 -0.906258 0
M  V30 6884 H 654.286 0.626255 0.254521 0
M  V30 6885 H 656.84 2.04966 0.133472 0
M  V30 6886 H 655.07 2.91988 2.53535 0
M  V30 6887 H 656.759 3.30111 2.36181 0
M  V30 6888 H 657.525 4.83289 0.407053 0
M  V30 6889 H 653.404 4.34759 1.53315 0
M  V30 6890 H 656.948 6.93538 -0.751755 0
M  V30 6891 H 652.845 6.44376 0.380799 0
M  V30 6892 H 653.613 8.14494 -0.80877 0
M  V30 6893 N 656.276 -0.40816 1.52223 0
M  V30 6894 C 657.504 -1.17672 1.70179 0
M  V30 6895 C 657.919 -1.84257 0.411696 0
M  V30 6896 O 657.276 -1.7192 -0.612354 0
M  V30 6897 C 657.327 -2.23911 2.83806 0
M  V30 6898 O 657.048 -1.60044 4.0782 0
M  V30 6899 C 658.549 -3.1364 3.13281 0
M  V30 6900 H 655.769 -0.353562 0.570293 0
M  V30 6901 H 658.313 -0.480083 1.98785 0
M  V30 6902 H 656.468 -2.89242 2.57717 0
M  V30 6903 H 656.882 -2.30484 4.71145 0
M  V30 6904 H 658.356 -3.84255 3.96298 0
M  V30 6905 H 658.833 -3.76066 2.26872 0
M  V30 6906 H 659.439 -2.53977 3.41139 0
M  V30 6907 N 657.755 -1.42862 -0.66545 0
M  V30 6908 C 659.003 -1.43546 -1.42264 0
M  V30 6909 C 659.324 -0.0563116 -1.94919 0
M  V30 6910 O 658.594 0.906568 -1.73661 0
M  V30 6911 H 657.174 -0.528464 -0.527953 0
M  V30 6912 H 659.836 -1.78363 -0.785665 0
M  V30 6913 H 658.932 -2.14079 -2.27105 0
M  V30 6914 N 659.233 0.902656 -1.29189 0
M  V30 6915 C 660.458 1.69167 -1.19989 0
M  V30 6916 C 660.883 1.86607 0.236495 0
M  V30 6917 O 660.241 1.38425 1.17082 0
M  V30 6918 C 660.289 3.05532 -1.91527 0
M  V30 6919 O 659.393 3.93621 -1.2303 0
M  V30 6920 H 658.734 0.517584 -0.415936 0
M  V30 6921 H 661.264 1.12785 -1.70706 0
M  V30 6922 H 661.274 3.55693 -1.99866 0
M  V30 6923 H 659.949 2.92156 -2.96003 0
M  V30 6924 H 658.526 3.52055 -1.22928 0
M  V30 6925 N 660.711 1.11618 1.11262 0
M  V30 6926 C 661.661 0.745274 2.15475 0
M  V30 6927 C 662.645 -0.251585 1.58921 0
M  V30 6928 O 663.837 -0.0584093 1.76904 0
M  V30 6929 C 660.966 0.192128 3.42762 0
M  V30 6930 C 660.052 1.21676 4.0627 0
M  V30 6931 N 660.443 2.41158 4.44608 0
M  V30 6932 C 658.741 1.06013 4.33217 0
M  V30 6933 C 659.442 3.0652 4.94389 0
M  V30 6934 N 658.418 2.33994 4.9066 0
M  V30 6935 H 662.22 1.65462 2.42898 0
M  V30 6936 H 659.734 0.995695 1.28295 0
M  V30 6937 H 661.731 -0.0917339 4.16799 0
M  V30 6938 H 660.391 -0.711778 3.16802 0
M  V30 6939 H 661.402 2.786 4.3658 0
M  V30 6940 H 658.079 0.212809 4.16957 0
M  V30 6941 H 659.469 4.08225 5.33669 0
M  V30 6942 N 662.189 -1.289 0.906776 0
M  V30 6943 C 663.437 -1.94883 0.535266 0
M  V30 6944 C 663.758 -1.71784 -0.922791 0
M  V30 6945 O 663.028 -1.05359 -1.65156 0
M  V30 6946 H 661.608 -0.721109 0.194962 0
M  V30 6947 H 664.27 -1.57018 1.15461 0
M  V30 6948 H 663.366 -3.03591 0.723821 0
M  V30 6949 N 663.667 -0.670007 -1.42649 0
M  V30 6950 C 664.63 0.00204659 -2.292 0
M  V30 6951 C 665.63 0.733817 -1.4308 0
M  V30 6952 O 666.82 0.57254 -1.64522 0
M  V30 6953 C 663.952 1.01359 -3.25483 0
M  V30 6954 H 665.145 -0.759696 -2.90118 0
M  V30 6955 H 662.698 -0.432105 -1.50208 0
M  V30 6956 H 663.433 1.80399 -2.69493 0
M  V30 6957 H 663.218 0.492323 -3.88997 0
M  V30 6958 H 664.708 1.4824 -3.90403 0
M  V30 6959 N 665.145 1.52092 -0.413018 0
M  V30 6960 C 666.37 2.06756 0.163338 0
M  V30 6961 C 666.795 1.28073 1.37764 0
M  V30 6962 O 666.153 0.312015 1.78595 0
M  V30 6963 C 666.201 3.57278 0.488322 0
M  V30 6964 O 665.305 3.80986 1.57871 0
M  V30 6965 H 664.646 0.663882 0.0125068 0
M  V30 6966 H 667.176 1.95988 -0.587339 0
M  V30 6967 H 667.186 4.01125 0.745836 0
M  V30 6968 H 665.861 4.13978 -0.399327 0
M  V30 6969 H 664.438 3.49017 1.31306 0
M  V30 6970 N 666.623 0.143563 1.56945 0
M  V30 6971 C 667.573 -0.809115 2.1316 0
M  V30 6972 C 668.557 -1.21176 1.05855 0
M  V30 6973 O 669.749 -1.17875 1.3204 0
M  V30 6974 C 666.878 -2.04957 2.75405 0
M  V30 6975 C 665.964 -1.67018 3.89828 0
M  V30 6976 N 666.355 -0.998822 4.9584 0
M  V30 6977 C 664.653 -1.96313 4.00471 0
M  V30 6978 C 665.354 -0.816217 5.75945 0
M  V30 6979 N 664.33 -1.349 5.26596 0
M  V30 6980 H 668.132 -0.286919 2.92496 0
M  V30 6981 H 665.646 -0.0580948 1.62296 0
M  V30 6982 H 667.643 -2.74201 3.14037 0
M  V30 6983 H 666.303 -2.57697 1.97541 0
M  V30 6984 H 667.314 -0.659975 5.13678 0
M  V30 6985 H 663.991 -2.50927 3.33679 0
M  V30 6986 H 665.381 -0.287353 6.71285 0
M  V30 6987 N 668.101 -1.57061 -0.130224 0
M  V30 6988 C 669.35 -1.83446 -0.838488 0
M  V30 6989 C 669.663 -0.727468 -1.81569 0
M  V30 6990 O 670.869 -0.877394 -2.56932 0
M  V30 6991 C 669.325 -3.25201 -1.54182 0
M  V30 6992 C 668.933 -4.4388 -0.606178 0
M  V30 6993 C 670.677 -3.60844 -2.23588 0
M  V30 6994 C 668.584 -5.76661 -1.31209 0
M  V30 6995 H 667.514 -0.684185 -0.316871 0
M  V30 6996 H 670.165 -1.83273 -0.0912059 0
M  V30 6997 H 668.547 -3.1981 -2.33533 0
M  V30 6998 H 669.721 -4.60545 0.153308 0
M  V30 6999 H 668.036 -4.16395 -0.0196705 0
M  V30 7000 H 670.633 -4.57313 -2.77072 0
M  V30 7001 H 670.976 -2.87724 -3.00867 0
M  V30 7002 H 671.509 -3.67971 -1.51137 0
M  V30 7003 H 668.248 -6.52922 -0.580823 0
M  V30 7004 H 667.768 -5.63902 -2.04387 0
M  V30 7005 H 669.447 -6.20035 -1.8484 0
M  V30 7006 N 669.579 0.400081 -1.52437 0
M  V30 7007 C 670.827 1.14392 -1.6661 0
M  V30 7008 C 671.148 1.90792 -0.402927 0
M  V30 7009 O 670.418 1.87042 0.582425 0
M  V30 7010 H 668.998 0.425275 -0.614125 0
M  V30 7011 H 671.66 0.455076 -1.89513 0
M  V30 7012 H 670.756 1.85298 -2.51139 0
M  V30 7013 N 671.057 1.43213 0.657864 0
M  V30 7014 C 672.287 1.478 1.44356 0
M  V30 7015 C 672.695 0.0930206 1.88971 0
M  V30 7016 O 672.038 -0.906089 1.59799 0
M  V30 7017 C 672.1 2.35745 2.71412 0
M  V30 7018 C 671.764 3.83359 2.48767 0
M  V30 7019 C 672.761 4.74585 2.12285 0
M  V30 7020 C 670.446 4.27799 2.63235 0
M  V30 7021 C 672.44 6.08247 1.90562 0
M  V30 7022 C 670.127 5.61516 2.41128 0
M  V30 7023 C 671.125 6.51557 2.04847 0
M  V30 7024 O 670.813 7.82802 1.82967 0
M  V30 7025 H 670.545 0.504363 0.450104 0
M  V30 7026 H 673.099 1.88572 0.814241 0
M  V30 7027 H 671.329 1.89852 3.36887 0
M  V30 7028 H 673.018 2.31589 3.33348 0
M  V30 7029 H 673.784 4.41531 2.00687 0
M  V30 7030 H 669.663 3.57993 2.90451 0
M  V30 7031 H 673.207 6.78489 1.62168 0
M  V30 7032 H 669.104 5.94139 2.52327 0
M  V30 7033 H 669.872 7.94332 1.97429 0
M  V30 7034 N 672.536 -0.895792 1.29666 0
M  V30 7035 C 673.947 -1.46195 1.1612 0
M  V30 7036 C 674.298 -1.94699 -0.242195 0
M  V30 7037 O 673.423 -1.8406 -1.13802 0
M  V30 7038 C 674.018 -2.65718 2.10189 0
M  V30 7039 C 672.577 -3.18458 2.00653 0
M  V30 7040 C 671.724 -1.91149 2.00891 0
M  V30 7041 H 674.675 -0.706756 1.42094 0
M  V30 7042 H 674.696 -3.4158 1.6764 0
M  V30 7043 H 674.208 -2.30386 3.12321 0
M  V30 7044 H 672.309 -3.58474 1.01623 0
M  V30 7045 H 672.422 -3.82491 2.88509 0
M  V30 7046 H 670.786 -2.09021 1.45542 0
M  V30 7047 H 671.569 -1.58089 3.04734 0
M  V30 7048 N 674.014 -1.12206 -1.10668 0
M  V30 7049 C 674.924 -0.800686 -2.20513 0
M  V30 7050 C 675.94 0.209512 -1.72734 0
M  V30 7051 O 677.116 0.043705 -2.01353 0
M  V30 7052 C 674.181 -0.257353 -3.45744 0
M  V30 7053 C 673.242 -1.32718 -4.0827 0
M  V30 7054 C 672.475 -0.809674 -5.27522 0
M  V30 7055 O 672.698 0.35742 -5.69279 0
M  V30 7056 O 671.632 -1.57816 -5.80842 0
M  V30 7057 H 675.458 -1.71807 -2.50432 0
M  V30 7058 H 673.043 -0.898546 -1.19359 0
M  V30 7059 H 674.925 0.0408849 -4.2138 0
M  V30 7060 H 673.6 0.632627 -3.17458 0
M  V30 7061 H 672.507 -1.67855 -3.34329 0
M  V30 7062 H 673.84 -2.19083 -4.40753 0
M  V30 7063 N 675.492 1.28418 -0.913599 0
M  V30 7064 C 676.74 1.94596 -0.545594 0
M  V30 7065 C 677.061 1.7227 0.913668 0
M  V30 7066 O 676.331 1.06233 1.64595 0
M  V30 7067 H 674.911 0.720065 -0.198783 0
M  V30 7068 H 677.573 1.56404 -1.16292 0
M  V30 7069 H 676.669 3.03202 -0.739911 0
M  V30 7070 N 676.97 0.677563 1.42291 0
M  V30 7071 C 678.198 0.209459 2.05837 0
M  V30 7072 C 678.613 -1.13444 1.50917 0
M  V30 7073 O 677.97 -1.70529 0.65008 0
M  V30 7074 C 678.021 0.138819 3.61233 0
M  V30 7075 O 677.742 1.42962 4.14118 0
M  V30 7076 C 679.243 -0.352449 4.41897 0
M  V30 7077 H 676.463 0.101209 0.663323 0
M  V30 7078 H 679.007 0.925077 1.8238 0
M  V30 7079 H 677.162 -0.527505 3.83792 0
M  V30 7080 H 677.576 1.3048 5.08011 0
M  V30 7081 H 679.05 -0.350778 5.50884 0
M  V30 7082 H 679.527 -1.3882 4.16684 0
M  V30 7083 H 680.133 0.282236 4.24362 0
M  V30 7084 N 678.448 -1.51871 0.421078 0
M  V30 7085 C 679.859 -1.86644 -0.0457991 0
M  V30 7086 C 680.21 -1.33919 -1.43388 0
M  V30 7087 O 679.335 -0.683316 -2.05328 0
M  V30 7088 C 679.93 -3.38681 -0.0898844 0
M  V30 7089 C 678.489 -3.73049 -0.501127 0
M  V30 7090 C 677.636 -2.75485 0.316723 0
M  V30 7091 H 680.587 -1.45327 0.637635 0
M  V30 7092 H 680.608 -3.69636 -0.902734 0
M  V30 7093 H 680.12 -3.77025 0.920513 0
M  V30 7094 H 678.221 -3.40288 -1.51773 0
M  V30 7095 H 678.334 -4.78512 -0.237217 0
M  V30 7096 H 676.698 -2.53725 -0.222663 0
M  V30 7097 H 677.481 -3.16671 1.32569 0
M  V30 7098 N 679.926 -0.151884 -1.56866 0
M  V30 7099 C 681.151 0.508044 -2.01081 0
M  V30 7100 C 681.576 1.57306 -1.03134 0
M  V30 7101 O 680.934 1.81298 -0.0078309 0
M  V30 7102 C 680.982 1.08106 -3.44014 0
M  V30 7103 O 680.086 2.19577 -3.49084 0
M  V30 7104 H 679.427 0.123757 -0.652365 0
M  V30 7105 H 681.957 -0.250055 -2.03066 0
M  V30 7106 H 681.967 1.40851 -3.82916 0
M  V30 7107 H 680.642 0.301168 -4.14808 0
M  V30 7108 H 679.219 1.88023 -3.22027 0
M  V30 7109 N 681.404 1.57128 0.121893 0
M  V30 7110 C 682.629 1.89254 0.848385 0
M  V30 7111 C 683.054 0.743527 1.72781 0
M  V30 7112 O 682.412 -0.306056 1.78698 0
M  V30 7113 C 682.46 3.20113 1.66012 0
M  V30 7114 O 681.564 3.05815 2.76679 0
M  V30 7115 H 680.905 0.621103 0.234793 0
M  V30 7116 H 683.435 2.0433 0.10516 0
M  V30 7117 H 683.445 3.52761 2.04996 0
M  V30 7118 H 682.12 4.03336 1.01452 0
M  V30 7119 H 680.697 2.84627 2.40918 0
M  V30 7120 N 682.882 -0.391992 1.52647 0
M  V30 7121 C 683.792 -1.503 1.80131 0
M  V30 7122 C 684.808 -1.59825 0.687882 0
M  V30 7123 O 685.984 -1.76218 0.975149 0
M  V30 7124 C 683.049 -2.85863 1.96171 0
M  V30 7125 C 682.11 -2.86084 3.20085 0
M  V30 7126 C 681.343 -4.15181 3.35351 0
M  V30 7127 O 681.566 -5.09981 2.55491 0
M  V30 7128 O 680.5 -4.22603 4.28591 0
M  V30 7129 H 684.326 -1.30007 2.74466 0
M  V30 7130 H 681.911 -0.579539 1.37701 0
M  V30 7131 H 683.793 -3.66236 2.08445 0
M  V30 7132 H 682.468 -3.06189 1.05025 0
M  V30 7133 H 681.375 -2.04504 3.13256 0
M  V30 7134 H 682.708 -2.7071 4.11068 0
M  V30 7135 N 684.36 -1.4356 -0.65026 0
M  V30 7136 C 685.776 -1.27025 -0.966269 0
M  V30 7137 C 685.976 -0.192117 -2.00582 0
M  V30 7138 O 685.032 0.428459 -2.48838 0
M  V30 7139 C 686.345 -2.63556 -1.44772 0
M  V30 7140 C 687.893 -2.71111 -1.56421 0
M  V30 7141 C 688.368 -4.08067 -2.07956 0
M  V30 7142 N 689.859 -4.10146 -2.15254 0
M  V30 7143 C 690.594 -5.12952 -2.56258 0
M  V30 7144 N 690.09 -6.26129 -2.96537 0
M  V30 7145 N 691.883 -5.00306 -2.56224 0
M  V30 7146 H 684.034 -2.12367 0.0375758 0
M  V30 7147 H 686.297 -0.946894 -0.0457782 0
M  V30 7148 H 686.003 -3.43429 -0.758271 0
M  V30 7149 H 685.877 -2.89152 -2.42221 0
M  V30 7150 H 688.264 -1.91569 -2.24467 0
M  V30 7151 H 688.345 -2.49277 -0.573967 0
M  V30 7152 H 687.989 -4.88077 -1.40511 0
M  V30 7153 H 687.919 -4.27266 -3.07817 0
M  V30 7154 H 690.41 -3.28453 -1.86887 0
M  V30 7155 H 690.723 -7.00403 -3.26582 0
M  V30 7156 H 689.068 -6.29597 -2.94334 0
M  V30 7157 H 692.259 -4.10952 -2.24135 0
M  V30 7158 H 692.432 -5.80553 -2.87857 0
M  V30 7159 N 685.838 0.888903 -1.30139 0
M  V30 7160 C 687.063 1.67884 -1.21777 0
M  V30 7161 C 687.488 1.86848 0.216689 0
M  V30 7162 O 686.846 1.39659 1.15608 0
M  V30 7163 C 686.894 3.03483 -1.94757 0
M  V30 7164 O 685.998 3.92294 -1.27198 0
M  V30 7165 H 685.339 0.513144 -0.421402 0
M  V30 7166 H 687.869 1.10968 -1.71893 0
M  V30 7167 H 687.879 3.53553 -2.03627 0
M  V30 7168 H 686.554 2.89 -2.99085 0
M  V30 7169 H 685.131 3.50732 -1.26655 0
M  V30 7170 N 687.317 1.12792 1.10072 0
M  V30 7171 C 688.265 0.794523 2.18609 0
M  V30 7172 C 689.259 -0.220271 1.67962 0
M  V30 7173 O 690.465 -0.0780938 1.79831 0
M  V30 7174 H 686.84 0.239123 0.712969 0
M  V30 7175 H 688.811 1.71823 2.43966 0
M  V30 7176 C 687.56 0.269548 3.46654 0
M  V30 7177 H 686.883 1.04171 3.8599 0
M  V30 7178 H 688.323 0.0746242 4.23934 0
M  V30 7179 C 686.782 -1.00333 3.21613 0
M  V30 7180 O 687.312 -2.08042 3.4363 0
M  V30 7181 N 685.518 -0.931763 2.75257 0
M  V30 7182 H 685.065 -0.0551197 2.57541 0
M  V30 7183 H 685.023 -1.78405 2.58881 0
M  V30 7184 N 688.795 -1.27931 0.920396 0
M  V30 7185 C 690.041 -1.94977 0.557832 0
M  V30 7186 C 690.374 -1.72224 -0.897365 0
M  V30 7187 O 689.649 -1.04705 -1.63912 0
M  V30 7188 C 689.932 -3.49289 0.875741 0
M  V30 7189 C 689.785 -3.81416 2.38416 0
M  V30 7190 C 691.104 -4.38486 0.376517 0
M  V30 7191 H 688.223 -0.708164 0.20414 0
M  V30 7192 H 690.865 -1.5118 1.15085 0
M  V30 7193 H 689.015 -3.86724 0.371062 0
M  V30 7194 H 690.687 -3.53813 2.95997 0
M  V30 7195 H 688.93 -3.28225 2.83639 0
M  V30 7196 H 689.601 -4.89198 2.55713 0
M  V30 7197 H 692.077 -4.08161 0.808945 0
M  V30 7198 H 690.953 -5.45296 0.627976 0
M  V30 7199 H 691.214 -4.36143 -0.723293 0
M  V30 7200 N 690.273 -0.685099 -1.4193 0
M  V30 7201 C 691.206 0.0371639 -2.2817 0
M  V30 7202 C 692.184 0.798436 -1.41647 0
M  V30 7203 O 693.368 0.791428 -1.71081 0
M  V30 7204 C 690.495 1.05993 -3.21688 0
M  V30 7205 C 689.541 0.393043 -4.24685 0
M  V30 7206 S 690.374 -0.856921 -5.28599 0
M  V30 7207 C 691.53 0.164508 -6.25684 0
M  V30 7208 H 691.763 -0.694305 -2.89079 0
M  V30 7209 H 689.296 -0.474999 -1.46912 0
M  V30 7210 H 691.254 1.64489 -3.76103 0
M  V30 7211 H 689.915 1.7639 -2.59895 0
M  V30 7212 H 689.108 1.16513 -4.90348 0
M  V30 7213 H 688.71 -0.118589 -3.73812 0
M  V30 7214 H 691.002 1.02106 -6.69762 0
M  V30 7215 H 691.945 -0.457917 -7.06618 0
M  V30 7216 H 692.353 0.514596 -5.6215 0
M  V30 7217 N 691.751 1.51645 -0.429126 0
M  V30 7218 C 692.714 2.26116 0.374726 0
M  V30 7219 C 693.714 1.29242 0.956714 0
M  V30 7220 O 694.904 1.53022 0.832452 0
M  V30 7221 C 692.036 3.04669 1.52937 0
M  V30 7222 H 693.229 2.9861 -0.277818 0
M  V30 7223 H 690.782 1.55236 -0.182097 0
M  V30 7224 H 691.517 2.36571 2.21821 0
M  V30 7225 H 691.302 3.75814 1.11833 0
M  V30 7226 H 692.792 3.61102 2.09751 0
M  V30 7227 N 693.229 0.160201 1.56784 0
M  V30 7228 C 694.177 -0.791402 2.18723 0
M  V30 7229 C 695.171 -1.24567 1.14801 0
M  V30 7230 O 696.377 -1.21262 1.33025 0
M  V30 7231 H 692.752 -0.273458 0.700517 0
M  V30 7232 H 694.723 -0.244931 2.97393 0
M  V30 7233 C 693.472 -2.01509 2.83354 0
M  V30 7234 H 692.795 -1.67454 3.63041 0
M  V30 7235 H 694.235 -2.66006 3.30177 0
M  V30 7236 C 692.694 -2.83159 1.82545 0
M  V30 7237 O 693.224 -3.79944 1.30405 0
M  V30 7238 N 691.43 -2.47953 1.51552 0
M  V30 7239 H 690.977 -1.69309 1.94144 0
M  V30 7240 H 690.935 -3.02873 0.843519 0
M  V30 7241 N 694.707 -1.5719 -0.113559 0
M  V30 7242 C 695.953 -1.85412 -0.821597 0
M  V30 7243 C 696.286 -0.746722 -1.7927 0
M  V30 7244 O 695.561 0.246971 -1.92926 0
M  V30 7245 C 695.844 -3.24233 -1.56669 0
M  V30 7246 C 695.697 -4.45578 -0.614823 0
M  V30 7247 C 697.016 -3.60697 -2.52161 0
M  V30 7248 H 694.135 -0.674406 -0.29723 0
M  V30 7249 H 696.777 -1.89807 -0.085694 0
M  V30 7250 H 694.927 -3.20617 -2.19401 0
M  V30 7251 H 696.599 -4.613 0.00407137 0
M  V30 7252 H 694.842 -4.33738 0.0732332 0
M  V30 7253 H 695.513 -5.39395 -1.17292 0
M  V30 7254 H 697.989 -3.65139 -1.99532 0
M  V30 7255 H 696.865 -4.58798 -3.01323 0
M  V30 7256 H 697.126 -2.88403 -3.35076 0
M  V30 7257 N 696.185 0.383891 -1.52853 0
M  V30 7258 C 697.601 0.724316 -1.42218 0
M  V30 7259 C 697.801 1.93943 -0.546654 0
M  V30 7260 O 696.857 2.5249 -0.0220562 0
M  V30 7261 C 698.17 0.954635 -2.85144 0
M  V30 7262 C 699.718 1.05579 -2.94656 0
M  V30 7263 C 700.193 1.3187 -4.38605 0
M  V30 7264 N 701.684 1.38681 -4.41952 0
M  V30 7265 C 702.419 1.60699 -5.50421 0
M  V30 7266 N 701.915 1.80154 -6.68967 0
M  V30 7267 N 703.708 1.6292 -5.37972 0
M  V30 7268 H 695.859 -0.4156 -2.08294 0
M  V30 7269 H 698.122 -0.123776 -0.939885 0
M  V30 7270 H 697.828 0.133829 -3.51445 0
M  V30 7271 H 697.702 1.86788 -3.27704 0
M  V30 7272 H 700.089 1.86716 -2.2852 0
M  V30 7273 H 700.17 0.120338 -2.55517 0
M  V30 7274 H 699.814 0.512416 -5.05309 0
M  V30 7275 H 699.744 2.26708 -4.75301 0
M  V30 7276 H 702.235 1.25334 -3.56511 0
M  V30 7277 H 702.548 1.96476 -7.47407 0
M  V30 7278 H 700.893 1.77368 -6.71986 0
M  V30 7279 H 704.084 1.47276 -4.44328 0
M  V30 7280 H 704.257 1.79739 -6.22574 0
M  V30 7281 N 697.663 1.43903 0.642637 0
M  V30 7282 C 698.893 1.49323 1.4278 0
M  V30 7283 C 699.301 0.113058 1.88862 0
M  V30 7284 O 698.644 -0.889089 1.60751 0
M  V30 7285 C 698.706 2.3861 2.68897 0
M  V30 7286 C 698.37 3.85976 2.44687 0
M  V30 7287 C 699.367 4.7681 2.07239 0
M  V30 7288 C 697.052 4.30567 2.58683 0
M  V30 7289 C 699.046 6.10234 1.841 0
M  V30 7290 C 696.733 5.64042 2.35159 0
M  V30 7291 C 697.731 6.53693 1.97925 0
M  V30 7292 O 697.419 7.84698 1.74654 0
M  V30 7293 H 697.151 0.509109 0.444729 0
M  V30 7294 H 699.705 1.89425 0.794195 0
M  V30 7295 H 697.935 1.93415 3.34855 0
M  V30 7296 H 699.624 2.35112 3.30873 0
M  V30 7297 H 700.39 4.43635 1.95993 0
M  V30 7298 H 696.269 3.61054 2.86637 0
M  V30 7299 H 699.813 6.80171 1.54962 0
M  V30 7300 H 695.71 5.96782 2.46011 0
M  V30 7301 H 696.478 7.96382 1.88993 0
M  V30 7302 N 699.141 -0.881989 1.30609 0
M  V30 7303 C 700.104 -1.96957 1.1722 0
M  V30 7304 C 701.104 -1.60472 0.102598 0
M  V30 7305 O 702.294 -1.70628 0.350943 0
M  V30 7306 C 699.426 -3.31463 0.796572 0
M  V30 7307 H 700.619 -2.10262 2.13846 0
M  V30 7308 H 698.172 -1.06877 1.14048 0
M  V30 7309 H 698.907 -3.23859 -0.169053 0
M  V30 7310 H 698.692 -3.59314 1.56959 0
M  V30 7311 H 700.182 -4.11233 0.72645 0
M  V30 7312 N 700.619 -1.13374 -1.09472 0
M  V30 7313 C 701.549 -0.833268 -2.18126 0
M  V30 7314 C 702.53 0.207169 -1.68834 0
M  V30 7315 O 703.715 0.0662012 -1.94087 0
M  V30 7316 C 700.845 -0.297979 -3.46019 0
M  V30 7317 C 699.799 -1.27261 -4.08642 0
M  V30 7318 C 699.125 -0.597104 -5.31356 0
M  V30 7319 C 700.425 -2.63095 -4.51197 0
M  V30 7320 H 702.119 -1.74182 -2.43518 0
M  V30 7321 H 699.665 -0.838921 -1.17039 0
M  V30 7322 H 701.618 -0.0754444 -4.21332 0
M  V30 7323 H 700.342 0.645959 -3.20148 0
M  V30 7324 H 699.001 -1.48113 -3.35348 0
M  V30 7325 H 698.649 0.352293 -5.01765 0
M  V30 7326 H 698.349 -1.24734 -5.74208 0
M  V30 7327 H 699.873 -0.38384 -6.09392 0
M  V30 7328 H 701.287 -2.46214 -5.17737 0
M  V30 7329 H 699.684 -3.2429 -5.04932 0
M  V30 7330 H 700.754 -3.20793 -3.6362 0
M  V30 7331 N 702.098 1.27442 -0.927168 0
M  V30 7332 C 703.375 1.89473 -0.485742 0
M  V30 7333 C 703.755 1.83922 1.03614 0
M  V30 7334 O 703.103 1.28409 1.89007 0
M  V30 7335 C 703.313 3.33417 -1.03123 0
M  V30 7336 C 704.661 4.10333 -1.0914 0
M  V30 7337 O 705.685 3.4243 -0.98082 0
M  V30 7338 O 704.544 5.31737 -1.26165 0
M  V30 7339 H 701.638 0.812124 -0.156154 0
M  V30 7340 H 704.184 1.35713 -1.01882 0
M  V30 7341 H 702.956 3.31747 -2.07508 0
M  V30 7342 H 702.579 3.94695 -0.479767 0
M  V30 7343 N 703.576 0.692616 1.41565 0
M  V30 7344 C 704.524 0.0139952 2.32596 0
M  V30 7345 C 705.518 -0.771691 1.50802 0
M  V30 7346 O 706.724 -0.677646 1.66757 0
M  V30 7347 H 703.099 -0.0142745 0.751865 0
M  V30 7348 H 705.07 0.798851 2.87508 0
M  V30 7349 C 703.819 -0.910602 3.35564 0
M  V30 7350 H 703.142 -0.315446 3.98554 0
M  V30 7351 H 704.582 -1.3538 4.01806 0
M  V30 7352 C 703.041 -2.02539 2.6922 0
M  V30 7353 O 703.571 -3.11386 2.53775 0
M  V30 7354 N 701.777 -1.80227 2.27962 0
M  V30 7355 H 701.324 -0.917054 2.40724 0
M  V30 7356 H 701.282 -2.55001 1.83907 0
M  V30 7357 N 705.054 -1.51416 0.437162 0
M  V30 7358 C 706.302 -2.01687 -0.129108 0
M  V30 7359 C 706.623 -1.32329 -1.43227 0
M  V30 7360 O 705.893 -0.457796 -1.90476 0
M  V30 7361 H 704.473 -0.745277 -0.0507023 0
M  V30 7362 H 707.135 -1.86075 0.579828 0
M  V30 7363 H 706.231 -3.10605 -0.305141 0
M  V30 7364 N 706.532 -0.168513 -1.56696 0
M  V30 7365 C 707.778 0.477865 -1.9709 0
M  V30 7366 C 708.111 1.63084 -1.05438 0
M  V30 7367 O 707.386 1.94238 -0.10095 0
M  V30 7368 C 707.669 0.963521 -3.4697 0
M  V30 7369 C 707.522 -0.189443 -4.49401 0
M  V30 7370 C 708.841 1.83813 -3.99876 0
M  V30 7371 H 705.96 0.172229 -0.716593 0
M  V30 7372 H 708.602 -0.254083 -1.88293 0
M  V30 7373 H 706.752 1.58724 -3.54597 0
M  V30 7374 H 708.424 -0.826451 -4.53836 0
M  V30 7375 H 706.667 -0.845366 -4.25483 0
M  V30 7376 H 707.338 0.192446 -5.51664 0
M  V30 7377 H 709.814 1.31235 -3.94863 0
M  V30 7378 H 708.69 2.14697 -5.0517 0
M  V30 7379 H 708.951 2.78289 -3.43523 0
M  V30 7380 N 708.01 1.57248 0.105221 0
M  V30 7381 C 708.973 2.00388 1.11252 0
M  V30 7382 C 709.973 0.89594 1.33527 0
M  V30 7383 O 711.163 1.16166 1.29811 0
M  V30 7384 C 708.295 2.35589 2.46395 0
M  V30 7385 H 709.488 2.90591 0.741424 0
M  V30 7386 H 707.041 1.52332 0.349956 0
M  V30 7387 H 707.776 1.4831 2.884 0
M  V30 7388 H 707.561 3.16408 2.31578 0
M  V30 7389 H 709.051 2.69658 3.18864 0
M  V30 7390 N 709.488 -0.375779 1.53054 0
M  V30 7391 C 710.734 -1.12114 1.68992 0
M  V30 7392 C 711.067 -1.8926 0.435238 0
M  V30 7393 O 710.342 -1.86044 -0.567278 0
M  V30 7394 C 710.625 -2.08867 2.93337 0
M  V30 7395 C 710.478 -1.35397 4.28938 0
M  V30 7396 C 711.797 -3.09124 3.13257 0
M  V30 7397 H 708.916 -0.406207 0.614951 0
M  V30 7398 H 711.558 -0.403054 1.85676 0
M  V30 7399 H 709.708 -2.70102 2.79244 0
M  V30 7400 H 711.38 -0.770242 4.54824 0
M  V30 7401 H 709.623 -0.655801 4.28814 0
M  V30 7402 H 710.294 -2.06161 5.12056 0
M  V30 7403 H 712.77 -2.57987 3.26469 0
M  V30 7404 H 711.646 -3.74054 4.01715 0
M  V30 7405 H 711.907 -3.78729 2.28072 0
M  V30 7406 N 710.966 -1.44241 -0.634997 0
M  V30 7407 C 712.213 -1.46821 -1.39463 0
M  V30 7408 C 712.541 -0.0993362 -1.94246 0
M  V30 7409 O 711.796 0.898325 -1.73864 0
M  V30 7410 C 712.095 -2.47279 -2.58046 0
M  V30 7411 C 711.761 -3.92703 -2.21574 0
M  V30 7412 C 710.423 -4.32306 -2.1134 0
M  V30 7413 C 712.775 -4.84271 -1.92695 0
M  V30 7414 C 710.103 -5.61407 -1.70409 0
M  V30 7415 C 712.455 -6.13755 -1.53258 0
M  V30 7416 C 711.119 -6.52316 -1.41562 0
M  V30 7417 H 710.389 -0.537256 -0.51033 0
M  V30 7418 H 713.036 -1.77431 -0.720441 0
M  V30 7419 H 711.341 -2.10138 -3.3068 0
M  V30 7420 H 713.038 -2.46523 -3.16271 0
M  V30 7421 H 709.628 -3.61369 -2.30456 0
M  V30 7422 H 713.812 -4.54432 -1.99513 0
M  V30 7423 H 709.068 -5.90105 -1.59955 0
M  V30 7424 H 713.242 -6.84168 -1.29949 0
M  V30 7425 H 710.869 -7.52255 -1.09619 0
M  V30 7426 N 712.444 0.87505 -1.31075 0
M  V30 7427 C 713.407 1.96333 -1.18263 0
M  V30 7428 C 714.407 1.60416 -0.111106 0
M  V30 7429 O 715.597 1.7044 -0.359987 0
M  V30 7430 C 712.729 3.31036 -0.81414 0
M  V30 7431 H 713.922 2.09125 -2.14958 0
M  V30 7432 H 711.475 1.06271 -1.14614 0
M  V30 7433 H 712.21 3.23944 0.151875 0
M  V30 7434 H 711.995 3.58476 -1.58862 0
M  V30 7435 H 713.485 4.10842 -0.748249 0
M  V30 7436 N 713.922 1.13953 1.08869 0
M  V30 7437 C 715.15 0.92817 1.84912 0
M  V30 7438 C 715.565 -0.523197 1.81406 0
M  V30 7439 O 714.922 -1.36237 1.21432 0
M  V30 7440 C 714.973 1.41509 3.32652 0
M  V30 7441 O 714.694 2.80959 3.36145 0
M  V30 7442 C 716.195 1.243 4.25517 0
M  V30 7443 H 713.415 0.330612 0.583898 0
M  V30 7444 H 715.959 1.51349 1.37527 0
M  V30 7445 H 714.114 0.872648 3.77444 0
M  V30 7446 H 714.528 3.02704 4.28335 0
M  V30 7447 H 716.002 1.63237 5.27312 0
M  V30 7448 H 716.479 0.18532 4.38809 0
M  V30 7449 H 717.085 1.77375 3.86546 0
M  V30 7450 N 715.4 -1.26948 0.933913 0
M  V30 7451 C 716.31 -2.30366 0.443671 0
M  V30 7452 C 717.326 -1.67284 -0.478745 0
M  V30 7453 O 718.502 -1.98156 -0.360043 0
M  V30 7454 C 715.567 -3.45485 -0.289974 0
M  V30 7455 C 714.628 -4.24069 0.668114 0
M  V30 7456 C 713.861 -5.33691 -0.0306138 0
M  V30 7457 O 714.084 -5.5656 -1.24888 0
M  V30 7458 O 713.018 -5.98441 0.644384 0
M  V30 7459 H 716.844 -2.74349 1.30254 0
M  V30 7460 H 714.429 -1.32012 0.699506 0
M  V30 7461 H 716.311 -4.15486 -0.70353 0
M  V30 7462 H 714.986 -3.03546 -1.12435 0
M  V30 7463 H 713.893 -3.56579 1.13147 0
M  V30 7464 H 715.226 -4.69739 1.46989 0
M  V30 7465 N 716.879 -0.700114 -1.41195 0
M  V30 7466 C 718.125 -0.242122 -2.01954 0
M  V30 7467 C 718.48 1.14697 -1.54475 0
M  V30 7468 O 717.773 1.76392 -0.748095 0
M  V30 7469 C 717.967 -0.243986 -3.56566 0
M  V30 7470 C 717.796 -1.63172 -4.19053 0
M  V30 7471 C 716.566 -2.23566 -4.53152 0
M  V30 7472 C 718.764 -2.57916 -4.44954 0
M  V30 7473 N 716.746 -3.54856 -5.00949 0
M  V30 7474 C 718.117 -3.73892 -4.94576 0
M  V30 7475 C 720.172 -2.56125 -4.26971 0
M  V30 7476 C 718.875 -4.88363 -5.28104 0
M  V30 7477 C 720.901 -3.69712 -4.61592 0
M  V30 7478 C 720.263 -4.84418 -5.11389 0
M  V30 7479 H 716.362 -0.134088 -0.770418 0
M  V30 7480 H 718.946 -0.918576 -1.71669 0
M  V30 7481 H 717.117 0.401971 -3.86314 0
M  V30 7482 H 718.849 0.229261 -4.0405 0
M  V30 7483 H 715.604 -1.75809 -4.39759 0
M  V30 7484 H 716.028 -4.22167 -5.29249 0
M  V30 7485 H 720.67 -1.68656 -3.87705 0
M  V30 7486 H 718.388 -5.76488 -5.66292 0
M  V30 7487 H 721.974 -3.69583 -4.49332 0
M  V30 7488 H 720.854 -5.70855 -5.37675 0
M  V30 7489 N 718.357 1.51182 -0.445186 0
M  V30 7490 C 719.605 2.01753 0.11841 0
M  V30 7491 C 719.926 1.33087 1.42523 0
M  V30 7492 O 719.196 0.467891 1.9023 0
M  V30 7493 H 717.776 0.745536 0.0467492 0
M  V30 7494 H 720.438 1.85765 -0.589688 0
M  V30 7495 H 719.534 3.10762 0.288665 0
M  V30 7496 N 719.835 0.176821 1.56605 0
M  V30 7497 C 721.063 -0.472828 2.01425 0
M  V30 7498 C 721.478 -1.56436 1.05703 0
M  V30 7499 O 720.835 -1.82405 0.058808 0
M  V30 7500 C 720.886 -1.04607 3.46034 0
M  V30 7501 O 720.607 0.00189608 4.381 0
M  V30 7502 C 722.108 -1.7734 4.06282 0
M  V30 7503 H 719.328 -0.120503 0.660091 0
M  V30 7504 H 721.872 0.280166 2.02572 0
M  V30 7505 H 720.027 -1.74953 3.45645 0
M  V30 7506 H 720.441 -0.422118 5.22799 0
M  V30 7507 H 721.915 -2.12703 5.09374 0
M  V30 7508 H 722.392 -2.67043 3.4869 0
M  V30 7509 H 722.998 -1.11623 4.10391 0
M  V30 7510 N 721.313 -1.57302 -0.09688 0
M  V30 7511 C 722.538 -1.9058 -0.818169 0
M  V30 7512 C 722.963 -0.770921 -1.71576 0
M  V30 7513 O 722.321 0.277588 -1.79162 0
M  V30 7514 C 722.369 -3.22714 -1.60898 0
M  V30 7515 O 721.473 -3.10178 -2.71779 0
M  V30 7516 H 720.814 -0.624759 -0.224882 0
M  V30 7517 H 723.344 -2.04471 -0.07264 0
M  V30 7518 H 723.354 -3.55978 -1.99358 0
M  V30 7519 H 722.029 -4.04899 -0.950227 0
M  V30 7520 H 720.606 -2.88424 -2.3636 0
M  V30 7521 N 722.791 0.367657 -1.53252 0
M  V30 7522 C 723.723 1.47032 -1.75824 0
M  V30 7523 C 724.736 1.49736 -0.63898 0
M  V30 7524 O 725.925 1.53253 -0.915193 0
M  V30 7525 C 723.025 2.85805 -1.82122 0
M  V30 7526 C 722.198 3.06822 -3.11736 0
M  V30 7527 C 721.257 4.25698 -3.09302 0
M  V30 7528 O 720.283 4.20972 -3.83107 0
M  V30 7529 N 721.485 5.33002 -2.29977 0
M  V30 7530 H 724.25 1.28048 -2.70968 0
M  V30 7531 H 721.811 0.557363 -1.52004 0
M  V30 7532 H 723.803 3.63465 -1.77975 0
M  V30 7533 H 722.373 2.98046 -0.942716 0
M  V30 7534 H 721.593 2.1684 -3.29202 0
M  V30 7535 H 722.881 3.17731 -3.97397 0
M  V30 7536 H 722.279 5.39703 -1.69521 0
M  V30 7537 H 720.836 6.09247 -2.3165 0
M  V30 7538 N 724.269 1.44576 0.627338 0
M  V30 7539 C 725.232 1.51372 1.72102 0
M  V30 7540 C 726.232 0.395329 1.55865 0
M  V30 7541 O 727.422 0.658094 1.61291 0
M  V30 7542 C 724.554 1.39129 3.11217 0
M  V30 7543 H 725.747 2.48798 1.6745 0
M  V30 7544 H 723.3 1.31724 0.841336 0
M  V30 7545 H 724.035 0.428114 3.21462 0
M  V30 7546 H 723.82 2.20229 3.24409 0
M  V30 7547 H 725.31 1.46874 3.90919 0
M  V30 7548 N 725.747 -0.868086 1.31537 0
M  V30 7549 C 726.695 -1.99688 1.1928 0
M  V30 7550 C 727.689 -1.69101 0.100656 0
M  V30 7551 O 728.895 -1.78073 0.262677 0
M  V30 7552 H 725.27 -0.655032 0.369374 0
M  V30 7553 H 727.241 -2.07157 2.14776 0
M  V30 7554 C 725.99 -3.35338 0.918892 0
M  V30 7555 H 725.313 -3.59396 1.75142 0
M  V30 7556 H 726.753 -4.14909 0.873311 0
M  V30 7557 C 725.212 -3.34769 -0.378366 0
M  V30 7558 O 725.742 -3.76716 -1.39456 0
M  V30 7559 N 723.948 -2.87895 -0.39557 0
M  V30 7560 H 723.495 -2.53954 0.431889 0
M  V30 7561 H 723.453 -2.87897 -1.26344 0
M  V30 7562 N 727.225 -1.14528 -1.08264 0
M  V30 7563 C 728.473 -0.912599 -1.80322 0
M  V30 7564 C 728.794 0.562256 -1.86718 0
M  V30 7565 O 728.064 1.40869 -1.36135 0
M  V30 7566 H 726.644 -0.334645 -0.667849 0
M  V30 7567 H 729.306 -1.44415 -1.30883 0
M  V30 7568 H 728.402 -1.31384 -2.83098 0
M  V30 7569 N 728.703 1.26451 -0.940633 0
M  V30 7570 C 729.98 1.88947 -0.505811 0
M  V30 7571 C 730.36 1.85011 1.01657 0
M  V30 7572 O 729.708 1.30406 1.87634 0
M  V30 7573 C 729.918 3.32304 -1.06654 0
M  V30 7574 C 731.266 4.09153 -1.13486 0
M  V30 7575 O 732.29 3.41371 -1.01708 0
M  V30 7576 O 731.149 5.30369 -1.31797 0
M  V30 7577 H 728.243 0.810422 -0.164759 0
M  V30 7578 H 730.789 1.34625 -1.03316 0
M  V30 7579 H 729.561 3.29527 -2.11015 0
M  V30 7580 H 729.184 3.94164 -0.521603 0
M  V30 7581 N 730.181 0.707592 1.40822 0
M  V30 7582 C 731.429 0.243189 2.00632 0
M  V30 7583 C 731.75 -1.16512 1.56365 0
M  V30 7584 O 731.02 -1.78841 0.799553 0
M  V30 7585 H 729.6 0.0869203 0.741926 0
M  V30 7586 H 732.262 0.911438 1.72275 0
M  V30 7587 H 731.358 0.270014 3.1093 0
M  V30 7588 N 731.66 -1.50943 0.453197 0
M  V30 7589 C 732.908 -2.01813 -0.107709 0
M  V30 7590 C 733.229 -1.33841 -1.41816 0
M  V30 7591 O 732.499 -0.477973 -1.8998 0
M  V30 7592 H 731.079 -0.745773 -0.0427948 0
M  V30 7593 H 733.741 -1.8545 0.599531 0
M  V30 7594 H 732.837 -3.10911 -0.27218 0
M  V30 7595 N 733.138 -0.185124 -1.56509 0
M  V30 7596 C 734.549 0.329221 -1.83774 0
M  V30 7597 C 734.9 1.62093 -1.10545 0
M  V30 7598 O 734.025 2.13334 -0.36298 0
M  V30 7599 C 734.62 0.604099 -3.33371 0
M  V30 7600 C 733.179 1.06284 -3.61083 0
M  V30 7601 C 732.326 0.10608 -2.77097 0
M  V30 7602 H 735.277 -0.409116 -1.53336 0
M  V30 7603 H 735.298 1.45458 -3.51599 0
M  V30 7604 H 734.81 -0.336201 -3.86641 0
M  V30 7605 H 732.911 2.01777 -3.13236 0
M  V30 7606 H 733.024 0.962453 -4.69333 0
M  V30 7607 H 731.388 0.606082 -2.47384 0
M  V30 7608 H 732.171 -0.828486 -3.33153 0
M  V30 7609 N 734.616 1.57351 0.0885366 0
M  V30 7610 C 735.846 1.90355 0.80303 0
M  V30 7611 C 736.254 0.777678 1.72478 0
M  V30 7612 O 735.597 -0.258908 1.81866 0
M  V30 7613 C 735.659 3.18674 1.66395 0
M  V30 7614 C 735.323 4.4778 0.913327 0
M  V30 7615 C 736.32 5.19345 0.240148 0
M  V30 7616 C 734.005 4.94434 0.885462 0
M  V30 7617 C 735.999 6.35803 -0.450854 0
M  V30 7618 C 733.686 6.10802 0.190679 0
M  V30 7619 C 734.684 6.81337 -0.476295 0
M  V30 7620 O 734.372 7.95488 -1.15992 0
M  V30 7621 H 734.104 0.634035 0.234469 0
M  V30 7622 H 736.658 2.05287 0.0681959 0
M  V30 7623 H 734.888 2.99906 2.44117 0
M  V30 7624 H 736.577 3.37458 2.2556 0
M  V30 7625 H 737.343 4.84339 0.253092 0
M  V30 7626 H 733.222 4.39417 1.39406 0
M  V30 7627 H 736.766 6.90795 -0.972019 0
M  V30 7628 H 732.663 6.45261 0.175603 0
M  V30 7629 H 733.431 8.11509 -1.06749 0
M  V30 7630 N 736.094 -0.359525 1.53444 0
M  V30 7631 C 737.341 -1.10152 1.6992 0
M  V30 7632 C 737.669 -1.89125 0.4541 0
M  V30 7633 O 736.924 -1.87396 -0.564023 0
M  V30 7634 C 737.223 -2.08287 2.90433 0
M  V30 7635 C 736.889 -1.45749 4.26694 0
M  V30 7636 C 735.551 -1.28421 4.63747 0
M  V30 7637 C 737.903 -1.00557 5.11408 0
M  V30 7638 C 735.231 -0.644951 5.83144 0
M  V30 7639 C 737.583 -0.380288 6.31456 0
M  V30 7640 C 736.247 -0.194557 6.67216 0
M  V30 7641 H 735.517 -0.403076 0.621781 0
M  V30 7642 H 738.164 -0.382612 1.87639 0
M  V30 7643 H 736.469 -2.86503 2.67251 0
M  V30 7644 H 738.166 -2.65662 3.00374 0
M  V30 7645 H 734.756 -1.6023 3.97523 0
M  V30 7646 H 738.94 -1.12735 4.83326 0
M  V30 7647 H 734.196 -0.48952 6.09437 0
M  V30 7648 H 738.37 -0.0219455 6.96397 0
M  V30 7649 H 735.997 0.30285 7.59597 0
M  V30 7650 N 737.572 -1.44907 -0.619662 0
M  V30 7651 C 738.849 -1.38766 -1.37852 0
M  V30 7652 C 739.229 -0.0521393 -2.11036 0
M  V30 7653 O 738.577 0.965613 -2.07095 0
M  V30 7654 C 738.787 -2.59344 -2.33541 0
M  V30 7655 C 740.135 -3.03909 -2.96521 0
M  V30 7656 O 741.159 -2.59631 -2.43865 0
M  V30 7657 O 740.018 -3.80713 -3.92071 0
M  V30 7658 H 737.112 -0.550083 -0.617525 0
M  V30 7659 H 739.658 -1.57015 -0.643759 0
M  V30 7660 H 738.43 -3.48142 -1.78642 0
M  V30 7661 H 738.053 -2.43367 -3.14417 0
M  V30 7662 N 739.05 0.861098 -1.31996 0
M  V30 7663 C 739.96 2.00154 -1.22374 0
M  V30 7664 C 740.976 1.73447 -0.138631 0
M  V30 7665 O 742.152 1.98191 -0.358104 0
M  V30 7666 C 739.217 3.33696 -0.940645 0
M  V30 7667 C 738.278 3.73668 -2.11355 0
M  V30 7668 C 737.511 5.00837 -1.84386 0
M  V30 7669 O 737.734 5.64996 -0.783287 0
M  V30 7670 O 736.668 5.37787 -2.70313 0
M  V30 7671 H 740.494 2.11207 -2.18233 0
M  V30 7672 H 738.079 0.990768 -1.11822 0
M  V30 7673 H 739.961 4.13756 -0.798987 0
M  V30 7674 H 738.636 3.23698 -0.0121636 0
M  V30 7675 H 737.543 2.94211 -2.31065 0
M  V30 7676 H 738.876 3.88303 -3.02459 0
M  V30 7677 N 740.528 1.15101 1.07655 0
M  V30 7678 C 741.491 0.847625 2.12951 0
M  V30 7679 C 742.491 -0.151227 1.60087 0
M  V30 7680 O 743.681 0.0780399 1.74025 0
M  V30 7681 C 740.813 0.265 3.39868 0
M  V30 7682 H 742.006 1.7809 2.41296 0
M  V30 7683 H 739.559 0.958072 1.23494 0
M  V30 7684 H 740.294 -0.676625 3.17163 0
M  V30 7685 H 740.079 0.984554 3.79538 0
M  V30 7686 H 741.569 0.0702121 4.17541 0
M  V30 7687 N 742.006 -1.2595 0.947325 0
M  V30 7688 C 743.283 -1.88676 0.515824 0
M  V30 7689 C 743.663 -1.85547 -1.00675 0
M  V30 7690 O 743.011 -1.31399 -1.8694 0
M  V30 7691 C 743.221 -3.31734 1.08415 0
M  V30 7692 C 744.569 -4.08545 1.15654 0
M  V30 7693 O 745.593 -3.40826 1.03517 0
M  V30 7694 O 744.452 -5.29663 1.34608 0
M  V30 7695 H 741.546 -0.809537 0.169055 0
M  V30 7696 H 744.092 -1.34075 1.04029 0
M  V30 7697 H 742.864 -3.28404 2.1276 0
M  V30 7698 H 742.487 -3.93882 0.542499 0
M  V30 7699 N 743.484 -0.715051 -1.40445 0
M  V30 7700 C 744.73 -0.254705 -2.01194 0
M  V30 7701 C 745.063 1.14894 -1.56567 0
M  V30 7702 O 744.338 1.77933 -0.785491 0
M  V30 7703 C 744.621 -0.334148 -3.58546 0
M  V30 7704 C 744.474 -1.77613 -4.13248 0
M  V30 7705 C 745.793 0.294968 -4.3911 0
M  V30 7706 H 742.912 -0.094025 -0.730978 0
M  V30 7707 H 745.554 -0.907449 -1.66929 0
M  V30 7708 H 743.704 0.221609 -3.87867 0
M  V30 7709 H 745.376 -2.38723 -3.94727 0
M  V30 7710 H 743.619 -2.30402 -3.67556 0
M  V30 7711 H 744.29 -1.78311 -5.22407 0
M  V30 7712 H 746.766 -0.178563 -4.15717 0
M  V30 7713 H 745.642 0.208934 -5.48502 0
M  V30 7714 H 745.903 1.37841 -4.20062 0
M  V30 7715 N 744.962 1.50701 -0.461195 0
M  V30 7716 C 746.208 2.03203 0.0895017 0
M  V30 7717 C 746.563 1.33768 1.38289 0
M  V30 7718 O 745.856 0.451304 1.86209 0
M  V30 7719 C 746.05 3.55788 0.33908 0
M  V30 7720 C 745.879 4.40009 -0.928571 0
M  V30 7721 C 744.649 4.83475 -1.46903 0
M  V30 7722 C 746.847 4.80972 -1.82129 0
M  V30 7723 N 744.829 5.51985 -2.68673 0
M  V30 7724 C 746.2 5.48792 -2.88491 0
M  V30 7725 C 748.255 4.62937 -1.83285 0
M  V30 7726 C 746.958 6.00489 -3.95987 0
M  V30 7727 C 748.984 5.15568 -2.89731 0
M  V30 7728 C 748.346 5.83355 -3.94812 0
M  V30 7729 H 744.445 0.781968 -0.00702462 0
M  V30 7730 H 747.029 1.84321 -0.627195 0
M  V30 7731 H 745.2 3.74636 1.02481 0
M  V30 7732 H 746.932 3.94944 0.883242 0
M  V30 7733 H 743.687 4.62495 -1.01959 0
M  V30 7734 H 744.111 5.90854 -3.30486 0
M  V30 7735 H 748.753 4.0997 -1.03366 0
M  V30 7736 H 746.471 6.52499 -4.7673 0
M  V30 7737 H 750.057 5.0345 -2.91597 0
M  V30 7738 H 748.937 6.23347 -4.75824 0
M  V30 7739 N 746.441 0.193421 1.56409 0
M  V30 7740 C 747.371 -0.723334 2.22014 0
M  V30 7741 C 748.352 -1.22254 1.1827 0
M  V30 7742 O 749.537 -1.27168 1.46771 0
M  V30 7743 C 746.667 -1.94366 2.87818 0
M  V30 7744 C 745.621 -1.57943 3.97791 0
M  V30 7745 C 744.947 -2.87623 4.50752 0
M  V30 7746 C 746.247 -0.790639 5.16281 0
M  V30 7747 H 747.941 -0.176426 2.9888 0
M  V30 7748 H 745.487 -0.0834166 1.43758 0
M  V30 7749 H 747.44 -2.5902 3.32396 0
M  V30 7750 H 746.164 -2.51507 2.08355 0
M  V30 7751 H 744.823 -0.956482 3.53903 0
M  V30 7752 H 744.471 -3.4285 3.68053 0
M  V30 7753 H 744.171 -2.63998 5.24956 0
M  V30 7754 H 745.695 -3.53268 4.9803 0
M  V30 7755 H 747.109 -1.34024 5.57414 0
M  V30 7756 H 745.506 -0.65258 5.96541 0
M  V30 7757 H 746.576 0.208633 4.84451 0
M  V30 7758 N 747.919 -1.57396 -0.0801906 0
M  V30 7759 C 748.867 -2.04136 -1.11495 0
M  V30 7760 C 749.861 -0.945137 -1.40583 0
M  V30 7761 O 751.067 -1.13028 -1.40088 0
M  V30 7762 H 747.442 -0.65076 -0.37685 0
M  V30 7763 H 749.413 -2.90205 -0.694526 0
M  V30 7764 C 748.162 -2.49399 -2.42272 0
M  V30 7765 H 747.485 -3.33339 -2.20737 0
M  V30 7766 H 748.925 -2.85864 -3.13142 0
M  V30 7767 C 747.384 -1.37341 -3.07635 0
M  V30 7768 O 747.914 -0.710829 -3.95361 0
M  V30 7769 N 746.12 -1.12064 -2.68123 0
M  V30 7770 H 745.667 -1.66126 -1.96875 0
M  V30 7771 H 745.625 -0.372916 -3.12181 0
M  V30 7772 N 749.397 0.351382 -1.53633 0
M  V30 7773 C 750.644 1.0925 -1.70502 0
M  V30 7774 C 750.972 1.88881 -0.464123 0
M  V30 7775 O 750.227 1.87693 0.554077 0
M  V30 7776 C 750.526 2.06744 -2.91533 0
M  V30 7777 C 750.192 1.43484 -4.27461 0
M  V30 7778 C 748.854 1.2596 -4.64422 0
M  V30 7779 C 751.206 0.978436 -5.11934 0
M  V30 7780 C 748.534 0.614017 -5.83478 0
M  V30 7781 C 750.886 0.346795 -6.31649 0
M  V30 7782 C 749.55 0.15917 -6.6731 0
M  V30 7783 H 748.82 0.399773 -0.623909 0
M  V30 7784 H 751.467 0.372656 -1.87839 0
M  V30 7785 H 749.772 2.85082 -2.68767 0
M  V30 7786 H 751.469 2.64066 -3.01778 0
M  V30 7787 H 748.059 1.5812 -3.98367 0
M  V30 7788 H 752.243 1.1017 -4.83918 0
M  V30 7789 H 747.499 0.457194 -6.09688 0
M  V30 7790 H 751.673 -0.0149864 -6.96398 0
M  V30 7791 H 749.3 -0.343129 -7.59425 0
M  V30 7792 N 750.875 1.45233 0.611969 0
M  V30 7793 C 751.805 1.5641 1.73373 0
M  V30 7794 C 752.786 0.415896 1.64937 0
M  V30 7795 O 753.971 0.638478 1.83404 0
M  V30 7796 C 751.101 1.52627 3.11965 0
M  V30 7797 C 750.055 2.66119 3.35208 0
M  V30 7798 C 749.381 2.4739 4.74028 0
M  V30 7799 C 750.681 4.08157 3.25891 0
M  V30 7800 H 752.375 2.50307 1.64277 0
M  V30 7801 H 749.921 1.20467 0.788904 0
M  V30 7802 H 751.874 1.59043 3.90235 0
M  V30 7803 H 750.598 0.552564 3.21892 0
M  V30 7804 H 749.257 2.59123 2.59327 0
M  V30 7805 H 748.905 1.48168 4.80682 0
M  V30 7806 H 748.605 3.23494 4.90536 0
M  V30 7807 H 750.129 2.55653 5.54503 0
M  V30 7808 H 751.543 4.1642 3.9404 0
M  V30 7809 H 749.94 4.84617 3.5393 0
M  V30 7810 H 751.01 4.30374 2.23397 0
M  V30 7811 N 752.353 -0.854086 1.3245 0
M  V30 7812 C 753.301 -1.98411 1.21391 0
M  V30 7813 C 754.295 -1.68984 0.118586 0
M  V30 7814 O 755.501 -1.77784 0.281549 0
M  V30 7815 H 751.876 -0.651077 0.376301 0
M  V30 7816 H 753.847 -2.04867 2.16961 0
M  V30 7817 C 752.596 -3.34345 0.954407 0
M  V30 7818 H 751.919 -3.57518 1.78944 0
M  V30 7819 H 753.359 -4.13959 0.917269 0
M  V30 7820 C 751.818 -3.35151 -0.342838 0
M  V30 7821 O 752.348 -3.78174 -1.35452 0
M  V30 7822 N 750.554 -2.88298 -0.365012 0
M  V30 7823 H 750.101 -2.53481 0.4588 0
M  V30 7824 H 750.059 -2.8922 -1.23284 0
M  V30 7825 N 753.831 -1.1567 -1.07043 0
M  V30 7826 C 754.778 -0.856336 -2.14326 0
M  V30 7827 C 755.748 0.192051 -1.64986 0
M  V30 7828 O 756.933 0.0589148 -1.90709 0
M  V30 7829 C 754.073 -0.355227 -3.43267 0
M  V30 7830 C 753.186 -1.46555 -4.06381 0
M  V30 7831 C 752.321 -0.920245 -5.23168 0
M  V30 7832 C 751.36 -2.00729 -5.78251 0
M  V30 7833 N 750.497 -1.47813 -6.86364 0
M  V30 7834 H 755.337 -1.77514 -2.39359 0
M  V30 7835 H 752.874 -0.885676 -1.17449 0
M  V30 7836 H 754.832 -0.0463804 -4.17174 0
M  V30 7837 H 753.462 0.526649 -3.18475 0
M  V30 7838 H 752.514 -1.89052 -3.30096 0
M  V30 7839 H 753.826 -2.28616 -4.43324 0
M  V30 7840 H 752.98 -0.564127 -6.04072 0
M  V30 7841 H 751.719 -0.0688477 -4.87651 0
M  V30 7842 H 750.724 -2.3722 -4.95991 0
M  V30 7843 H 751.949 -2.86252 -6.15822 0
M  V30 7844 H 749.895 -0.649145 -6.5278 0
M  V30 7845 H 749.812 -2.23498 -7.22208 0
M  V30 7846 H 751.08 -1.15036 -7.70965 0
M  V30 7847 N 755.309 1.25446 -0.953992 0
M  V30 7848 C 756.259 2.23627 -0.444413 0
M  V30 7849 C 757.243 1.54004 0.465993 0
M  V30 7850 O 758.435 1.74454 0.29915 0
M  V30 7851 C 755.564 3.42179 0.277175 0
M  V30 7852 C 754.65 4.1907 -0.651263 0
M  V30 7853 N 755.041 4.73346 -1.78262 0
M  V30 7854 C 753.339 4.43628 -0.459338 0
M  V30 7855 C 754.04 5.31576 -2.36224 0
M  V30 7856 N 753.016 5.17991 -1.64884 0
M  V30 7857 H 756.818 2.63197 -1.30785 0
M  V30 7858 H 754.332 1.40677 -0.811402 0
M  V30 7859 H 756.329 4.11653 0.659367 0
M  V30 7860 H 754.989 3.04134 1.13723 0
M  V30 7861 H 756 4.705 -2.1645 0
M  V30 7862 H 752.677 4.15963 0.357885 0
M  V30 7863 H 754.067 5.84361 -3.3162 0
M  V30 7864 N 756.787 0.722489 1.40064 0
M  V30 7865 C 757.735 0.063329 2.32514 0
M  V30 7866 C 758.729 -0.73953 1.52405 0
M  V30 7867 O 759.935 -0.642122 1.68157 0
M  V30 7868 H 756.31 0.00167692 0.751998 0
M  V30 7869 H 758.281 0.859656 2.85749 0
M  V30 7870 C 757.03 -0.839219 3.3742 0
M  V30 7871 H 756.353 -0.230836 3.99133 0
M  V30 7872 H 757.793 -1.26827 4.04587 0
M  V30 7873 C 756.252 -1.96783 2.73456 0
M  V30 7874 O 756.782 -3.05933 2.60323 0
M  V30 7875 N 754.988 -1.75351 2.31734 0
M  V30 7876 H 754.535 -0.865787 2.42615 0
M  V30 7877 H 754.493 -2.51043 1.89275 0
M  V30 7878 N 758.265 -1.50454 0.469181 0
M  V30 7879 C 759.514 -2.01507 -0.0881425 0
M  V30 7880 C 759.827 -1.35613 -1.40956 0
M  V30 7881 O 761.033 -1.77812 -2.05171 0
M  V30 7882 C 759.489 -3.59301 -0.207596 0
M  V30 7883 C 759.097 -4.34152 1.10527 0
M  V30 7884 C 760.841 -4.18401 -0.716981 0
M  V30 7885 C 758.748 -5.83725 0.949717 0
M  V30 7886 H 757.678 -0.753106 -0.0367156 0
M  V30 7887 H 760.329 -1.73282 0.603788 0
M  V30 7888 H 758.711 -3.84106 -0.963265 0
M  V30 7889 H 759.885 -4.21073 1.87175 0
M  V30 7890 H 758.2 -3.86652 1.54562 0
M  V30 7891 H 760.797 -5.27895 -0.850363 0
M  V30 7892 H 761.14 -3.79657 -1.70782 0
M  V30 7893 H 761.673 -3.97796 -0.0187511 0
M  V30 7894 H 758.412 -6.26938 1.91387 0
M  V30 7895 H 757.932 -5.99383 0.223591 0
M  V30 7896 H 759.611 -6.44065 0.61557 0
M  V30 7897 N 759.743 -0.201713 -1.56304 0
M  V30 7898 C 760.968 0.443815 -2.02596 0
M  V30 7899 C 761.393 1.53945 -1.08086 0
M  V30 7900 O 760.751 1.81182 -0.0655056 0
M  V30 7901 C 760.799 0.971066 -3.47279 0
M  V30 7902 O 759.903 2.0836 -3.55893 0
M  V30 7903 H 759.244 0.10294 -0.655972 0
M  V30 7904 H 761.774 -0.314533 -2.02168 0
M  V30 7905 H 761.784 1.28598 -3.87204 0
M  V30 7906 H 760.459 0.169048 -4.15556 0
M  V30 7907 H 759.036 1.77683 -3.27846 0
M  V30 7908 N 761.222 1.57436 0.0718424 0
M  V30 7909 C 762.468 1.88388 0.766904 0
M  V30 7910 C 762.823 0.7954 1.75189 0
M  V30 7911 O 762.116 -0.200438 1.90549 0
M  V30 7912 C 762.31 3.23723 1.51455 0
M  V30 7913 C 762.139 4.45632 0.603475 0
M  V30 7914 C 760.909 5.04728 0.240437 0
M  V30 7915 C 763.107 5.14203 -0.0997624 0
M  V30 7916 N 761.089 6.10163 -0.676363 0
M  V30 7917 C 762.46 6.13812 -0.873755 0
M  V30 7918 C 764.515 4.97605 -0.171238 0
M  V30 7919 C 763.218 6.98615 -1.71258 0
M  V30 7920 C 765.244 5.82935 -0.997041 0
M  V30 7921 C 764.606 6.82082 -1.75908 0
M  V30 7922 H 760.705 0.738888 0.256064 0
M  V30 7923 H 763.289 1.94679 0.0284273 0
M  V30 7924 H 761.46 3.1844 2.22375 0
M  V30 7925 H 763.192 3.42324 2.15862 0
M  V30 7926 H 759.947 4.69869 0.593284 0
M  V30 7927 H 760.371 6.67537 -1.12801 0
M  V30 7928 H 765.013 4.20869 0.403586 0
M  V30 7929 H 762.731 7.74726 -2.29838 0
M  V30 7930 H 766.317 5.72149 -1.05532 0
M  V30 7931 H 765.197 7.46964 -2.38778 0
M  V30 7932 N 762.7 -0.34323 1.53817 0
M  V30 7933 C 763.663 -1.40444 1.8113 0
M  V30 7934 C 764.663 -1.45604 0.682366 0
M  V30 7935 O 765.853 -1.45974 0.950649 0
M  V30 7936 C 762.985 -2.79369 1.95361 0
M  V30 7937 H 764.178 -1.17489 2.75928 0
M  V30 7938 H 761.731 -0.577636 1.45234 0
M  V30 7939 H 762.466 -3.07607 1.02707 0
M  V30 7940 H 762.251 -2.7702 2.77493 0
M  V30 7941 H 763.741 -3.56178 2.18008 0
M  V30 7942 N 764.178 -1.45556 -0.604258 0
M  V30 7943 C 765.126 -1.5482 -1.7359 0
M  V30 7944 C 766.12 -0.417966 -1.64163 0
M  V30 7945 O 767.326 -0.594007 -1.69916 0
M  V30 7946 H 763.701 -0.486352 -0.573556 0
M  V30 7947 H 765.672 -2.5001 -1.62903 0
M  V30 7948 C 764.421 -1.53521 -3.11972 0
M  V30 7949 H 763.744 -2.39818 -3.19886 0
M  V30 7950 H 765.184 -1.64061 -3.90973 0
M  V30 7951 C 763.643 -0.260191 -3.35894 0
M  V30 7952 O 764.173 0.658582 -3.96265 0
M  V30 7953 N 762.379 -0.154839 -2.90187 0
M  V30 7954 H 761.926 -0.903378 -2.4124 0
M  V30 7955 H 761.884 0.697437 -3.06567 0
M  V30 7956 N 765.656 0.84705 -1.32902 0
M  V30 7957 C 766.902 1.60389 -1.25088 0
M  V30 7958 C 767.257 1.91521 0.183723 0
M  V30 7959 O 766.55 1.55197 1.12359 0
M  V30 7960 C 766.744 2.92663 -2.05142 0
M  V30 7961 C 766.573 2.74449 -3.56241 0
M  V30 7962 C 765.343 2.72434 -4.25567 0
M  V30 7963 C 767.541 2.47666 -4.5074 0
M  V30 7964 N 765.523 2.45512 -5.62669 0
M  V30 7965 C 766.894 2.30219 -5.75673 0
M  V30 7966 C 768.949 2.33196 -4.39914 0
M  V30 7967 C 767.652 1.99772 -6.91002 0
M  V30 7968 C 769.678 2.0414 -5.5505 0
M  V30 7969 C 769.04 1.875 -6.78987 0
M  V30 7970 H 765.139 0.590296 -0.512908 0
M  V30 7971 H 767.723 0.995058 -1.67352 0
M  V30 7972 H 765.894 3.51511 -1.65211 0
M  V30 7973 H 767.626 3.5777 -1.89163 0
M  V30 7974 H 764.381 2.85647 -3.7776 0
M  V30 7975 H 764.805 2.34958 -6.3492 0
M  V30 7976 H 769.447 2.44777 -3.44738 0
M  V30 7977 H 767.165 1.86928 -7.86183 0
M  V30 7978 H 770.751 1.93711 -5.48605 0
M  V30 7979 H 769.631 1.65339 -7.66572 0
M  V30 7980 N 767.134 1.16236 1.06428 0
M  V30 7981 C 768.359 0.967688 1.83441 0
M  V30 7982 C 768.784 -0.479167 1.81894 0
M  V30 7983 O 768.142 -1.34224 1.21875 0
M  V30 7984 C 768.19 1.49806 3.2801 0
M  V30 7985 O 767.294 0.703481 4.06356 0
M  V30 7986 H 766.635 0.344468 0.56766 0
M  V30 7987 H 769.165 1.54442 1.34197 0
M  V30 7988 H 769.175 1.51495 3.78831 0
M  V30 7989 H 767.85 2.55133 3.2845 0
M  V30 7990 H 766.427 0.756986 3.65136 0
M  V30 7991 N 768.612 -1.24939 0.960631 0
M  V30 7992 C 769.542 -2.28 0.503815 0
M  V30 7993 C 770.523 -1.63959 -0.452928 0
M  V30 7994 O 771.708 -1.91009 -0.350585 0
M  V30 7995 C 768.838 -3.46643 -0.213535 0
M  V30 7996 C 767.792 -4.22903 0.658535 0
M  V30 7997 C 767.118 -5.34363 -0.189902 0
M  V30 7998 C 768.418 -4.84949 1.93963 0
M  V30 7999 H 770.112 -2.66462 1.36521 0
M  V30 8000 H 767.658 -1.28093 0.657897 0
M  V30 8001 H 769.611 -4.1787 -0.544286 0
M  V30 8002 H 768.335 -3.07187 -1.10923 0
M  V30 8003 H 766.994 -3.53467 0.972455 0
M  V30 8004 H 766.642 -4.91147 -1.08553 0
M  V30 8005 H 766.342 -5.86302 0.390331 0
M  V30 8006 H 767.866 -6.0842 -0.515484 0
M  V30 8007 H 769.28 -5.48288 1.67491 0
M  V30 8008 H 767.677 -5.47091 2.46601 0
M  V30 8009 H 768.747 -4.06799 2.639 0
M  V30 8010 N 770.09 -0.729906 -1.39679 0
M  V30 8011 C 771.318 -0.285709 -2.04918 0
M  V30 8012 C 771.733 1.07765 -1.55023 0
M  V30 8013 O 771.09 1.67999 -0.712923 0
M  V30 8014 C 771.141 -0.272793 -3.60469 0
M  V30 8015 O 770.862 -1.58233 -4.08527 0
M  V30 8016 C 772.363 0.188199 -4.429 0
M  V30 8017 H 769.583 -0.125758 -0.65911 0
M  V30 8018 H 772.127 -0.992129 -1.78821 0
M  V30 8019 H 770.282 0.384699 -3.85485 0
M  V30 8020 H 770.696 -1.49245 -5.02818 0
M  V30 8021 H 772.17 0.14608 -5.51807 0
M  V30 8022 H 772.647 1.2326 -4.21549 0
M  V30 8023 H 773.253 -0.439541 -4.23023 0
M  V30 8024 N 771.568 1.50203 -0.477153 0
M  V30 8025 C 772.516 2.30278 0.327826 0
M  V30 8026 C 773.51 1.37831 0.984839 0
M  V30 8027 O 774.716 1.54994 0.915251 0
M  V30 8028 H 771.091 0.741612 0.124564 0
M  V30 8029 H 773.062 2.96124 -0.367853 0
M  V30 8030 C 771.811 3.18548 1.39365 0
M  V30 8031 H 771.134 3.89596 0.897475 0
M  V30 8032 H 772.574 3.77561 1.92934 0
M  V30 8033 C 771.033 2.36548 2.39889 0
M  V30 8034 O 771.563 2.05282 3.45286 0
M  V30 8035 N 769.769 1.99015 2.11758 0
M  V30 8036 H 769.316 2.24641 1.26071 0
M  V30 8037 H 769.274 1.44454 2.7925 0
M  V30 8038 N 773.046 0.209999 1.56195 0
M  V30 8039 C 773.993 -0.704854 2.19774 0
M  V30 8040 C 774.963 -1.19886 1.14964 0
M  V30 8041 O 776.148 -1.26005 1.43274 0
M  V30 8042 C 773.288 -1.91241 2.87265 0
M  V30 8043 C 772.401 -1.45838 4.06639 0
M  V30 8044 C 771.536 -2.6226 4.61945 0
M  V30 8045 C 770.575 -2.13537 5.73645 0
M  V30 8046 N 769.712 -3.2319 6.23292 0
M  V30 8047 H 774.552 -0.155944 2.97592 0
M  V30 8048 H 772.089 -0.0652235 1.46955 0
M  V30 8049 H 774.047 -2.62123 3.24573 0
M  V30 8050 H 772.677 -2.43439 2.11985 0
M  V30 8051 H 771.729 -0.644897 3.74894 0
M  V30 8052 H 773.041 -1.06103 4.87384 0
M  V30 8053 H 772.195 -3.41243 5.01636 0
M  V30 8054 H 770.934 -3.05278 3.80338 0
M  V30 8055 H 769.939 -1.33013 5.33468 0
M  V30 8056 H 771.164 -1.71533 6.57079 0
M  V30 8057 H 769.11 -3.65711 5.44602 0
M  V30 8058 H 769.027 -2.8767 6.99129 0
M  V30 8059 H 770.295 -4.02342 6.67639 0
M  V30 8060 N 774.524 -1.57472 -0.0634922 0
M  V30 8061 C 775.472 -2.05307 -1.09323 0
M  V30 8062 C 776.466 -0.959995 -1.39572 0
M  V30 8063 O 777.672 -1.14507 -1.38882 0
M  V30 8064 H 774.047 -0.65472 -0.369927 0
M  V30 8065 H 776.018 -2.90925 -0.663707 0
M  V30 8066 C 774.767 -2.51954 -2.39613 0
M  V30 8067 H 774.09 -3.35662 -2.1719 0
M  V30 8068 H 775.53 -2.89169 -3.10092 0
M  V30 8069 C 773.989 -1.40596 -3.06161 0
M  V30 8070 O 774.519 -0.752722 -3.94585 0
M  V30 8071 N 772.725 -1.14902 -2.66919 0
M  V30 8072 H 772.272 -1.68205 -1.95102 0
M  V30 8073 H 772.23 -0.406006 -3.11767 0
M  V30 8074 N 776.003 0.335068 -1.53997 0
M  V30 8075 C 776.913 1.43511 -1.85585 0
M  V30 8076 C 777.929 1.57162 -0.746726 0
M  V30 8077 O 779.105 1.72477 -1.03988 0
M  V30 8078 C 776.17 2.78386 -2.06646 0
M  V30 8079 C 775.231 2.74007 -3.30483 0
M  V30 8080 C 774.464 4.02449 -3.50529 0
M  V30 8081 O 774.687 5.00147 -2.74242 0
M  V30 8082 O 773.621 4.06405 -4.4398 0
M  V30 8083 H 777.447 1.19731 -2.79102 0
M  V30 8084 H 775.032 0.528033 -1.39758 0
M  V30 8085 H 776.914 3.58247 -2.21894 0
M  V30 8086 H 775.589 3.0208 -1.16317 0
M  V30 8087 H 774.496 1.92736 -3.2063 0
M  V30 8088 H 775.829 2.55267 -4.20832 0
M  V30 8089 N 777.481 1.45874 0.596531 0
M  V30 8090 C 778.73 1.49737 1.35135 0
M  V30 8091 C 779.043 0.147755 1.95041 0
M  V30 8092 O 780.249 0.0640984 2.71424 0
M  V30 8093 C 778.705 2.6378 2.44843 0
M  V30 8094 C 778.313 4.05102 1.91301 0
M  V30 8095 C 780.057 2.769 3.21755 0
M  V30 8096 C 777.964 5.10508 2.98557 0
M  V30 8097 H 776.894 0.557219 0.507959 0
M  V30 8098 H 779.545 1.72046 0.638147 0
M  V30 8099 H 777.927 2.34774 3.189 0
M  V30 8100 H 779.101 4.43836 1.2388 0
M  V30 8101 H 777.416 3.96528 1.271 0
M  V30 8102 H 780.013 3.52819 4.01775 0
M  V30 8103 H 780.356 1.83924 3.73467 0
M  V30 8104 H 780.889 3.05485 2.54802 0
M  V30 8105 H 777.628 6.0523 2.51749 0
M  V30 8106 H 777.148 4.76332 3.6451 0
M  V30 8107 H 778.827 5.35745 3.62748 0
M  V30 8108 N 778.959 -0.83999 1.33349 0
M  V30 8109 C 780.184 -1.63249 1.27924 0
M  V30 8110 C 780.609 -1.87523 -0.147193 0
M  V30 8111 O 779.967 -1.43853 -1.10345 0
M  V30 8112 C 780.015 -2.96046 2.05886 0
M  V30 8113 O 779.119 -3.87303 1.4167 0
M  V30 8114 H 778.46 -0.49715 0.440157 0
M  V30 8115 H 780.99 -1.04512 1.75893 0
M  V30 8116 H 781 -3.45752 2.16609 0
M  V30 8117 H 779.675 -2.77701 3.09605 0
M  V30 8118 H 778.252 -3.45789 1.39585 0
M  V30 8119 N 780.437 -1.16799 -1.0581 0
M  V30 8120 C 781.685 -0.950642 -1.78346 0
M  V30 8121 C 782.006 0.522524 -1.87869 0
M  V30 8122 O 781.276 1.3795 -1.39092 0
M  V30 8123 H 779.856 -0.348736 -0.6606 0
M  V30 8124 H 782.518 -1.47158 -1.27791 0
M  V30 8125 H 781.614 -1.37359 -2.80248 0
M  V30 8126 N 781.915 1.24427 -0.967243 0
M  V30 8127 C 782.878 2.23637 -0.501927 0
M  V30 8128 C 783.878 1.55712 0.401283 0
M  V30 8129 O 785.068 1.73085 0.196808 0
M  V30 8130 C 782.2 3.39804 0.273176 0
M  V30 8131 H 783.393 2.66317 -1.37897 0
M  V30 8132 H 780.946 1.37033 -0.751783 0
M  V30 8133 H 781.681 3.02562 1.16733 0
M  V30 8134 H 781.466 3.90303 -0.37498 0
M  V30 8135 H 782.956 4.13443 0.587776 0
M  V30 8136 N 783.393 0.737304 1.3929 0
M  V30 8137 C 784.64 0.286257 2.00467 0
M  V30 8138 C 784.968 -1.1272 1.58507 0
M  V30 8139 O 784.223 -1.7832 0.806257 0
M  V30 8140 C 784.522 0.338438 3.55794 0
M  V30 8141 C 784.188 1.70524 4.17411 0
M  V30 8142 C 782.85 2.07934 4.33955 0
M  V30 8143 C 785.202 2.60256 4.51571 0
M  V30 8144 C 782.53 3.34578 4.81948 0
M  V30 8145 C 784.882 3.86275 5.00974 0
M  V30 8146 C 783.546 4.23774 5.15725 0
M  V30 8147 H 782.816 0.104749 0.733559 0
M  V30 8148 H 785.463 0.944598 1.66582 0
M  V30 8149 H 783.768 -0.403478 3.89717 0
M  V30 8150 H 785.465 -0.0287255 4.0099 0
M  V30 8151 H 782.055 1.40439 4.04938 0
M  V30 8152 H 786.239 2.32624 4.38406 0
M  V30 8153 H 781.495 3.63572 4.91554 0
M  V30 8154 H 785.669 4.5596 5.26378 0
M  V30 8155 H 783.296 5.21972 5.52674 0
M  V30 8156 N 784.871 -1.49948 0.485112 0
M  V30 8157 C 786.099 -2.06806 -0.0622824 0
M  V30 8158 C 786.514 -1.34736 -1.32256 0
M  V30 8159 O 785.871 -0.420836 -1.77582 0
M  V30 8160 C 785.922 -3.59934 -0.336096 0
M  V30 8161 O 785.643 -4.29289 0.874203 0
M  V30 8162 C 787.144 -4.33459 -0.928903 0
M  V30 8163 H 784.364 -0.670867 0.0133472 0
M  V30 8164 H 786.908 -1.92937 0.677917 0
M  V30 8165 H 785.063 -3.7356 -1.02625 0
M  V30 8166 H 785.477 -5.20735 0.627332 0
M  V30 8167 H 786.951 -5.41527 -1.07017 0
M  V30 8168 H 787.428 -3.94881 -1.92265 0
M  V30 8169 H 788.034 -4.24399 -0.276705 0
M  V30 8170 N 786.349 -0.21828 -1.56081 0
M  V30 8171 C 787.76 0.290166 -1.84431 0
M  V30 8172 C 788.111 1.59712 -1.13958 0
M  V30 8173 O 787.236 2.12516 -0.40815 0
M  V30 8174 C 787.831 0.53325 -3.34577 0
M  V30 8175 C 786.39 0.986011 -3.63256 0
M  V30 8176 C 785.537 0.0472798 -2.7726 0
M  V30 8177 H 788.488 -0.441548 -1.52434 0
M  V30 8178 H 788.509 1.37967 -3.54606 0
M  V30 8179 H 788.021 -0.418137 -3.85841 0
M  V30 8180 H 786.122 1.95087 -3.17446 0
M  V30 8181 H 786.235 0.862684 -4.71269 0
M  V30 8182 H 784.599 0.553471 -2.48614 0
M  V30 8183 H 785.382 -0.898966 -3.31321 0
M  V30 8184 N 787.827 1.57504 0.0551401 0
M  V30 8185 C 789.074 1.88055 0.751104 0
M  V30 8186 C 789.402 0.812231 1.76729 0
M  V30 8187 O 788.657 -0.189918 1.94776 0
M  V30 8188 C 788.956 3.25311 1.48013 0
M  V30 8189 C 788.622 4.46858 0.602375 0
M  V30 8190 C 787.284 4.79847 0.360536 0
M  V30 8191 C 789.636 5.212 -0.00524047 0
M  V30 8192 C 786.964 5.84582 -0.498127 0
M  V30 8193 C 789.316 6.26844 -0.851453 0
M  V30 8194 C 787.98 6.58324 -1.103 0
M  V30 8195 H 787.25 0.688142 0.274848 0
M  V30 8196 H 789.897 1.91497 0.0114795 0
M  V30 8197 H 788.202 3.17737 2.29239 0
M  V30 8198 H 789.899 3.46189 2.02371 0
M  V30 8199 H 786.489 4.21049 0.801007 0
M  V30 8200 H 790.673 4.96013 0.168682 0
M  V30 8201 H 785.929 6.07361 -0.701594 0
M  V30 8202 H 790.103 6.83603 -1.32893 0
M  V30 8203 H 787.73 7.39304 -1.77011 0
M  V30 8204 N 789.305 -0.326896 1.54172 0
M  V30 8205 C 790.215 -1.42525 1.86343 0
M  V30 8206 C 791.231 -1.56764 0.75505 0
M  V30 8207 O 792.407 -1.71924 1.04901 0
M  V30 8208 C 789.472 -2.77286 2.08119 0
M  V30 8209 C 788.533 -2.7225 3.31931 0
M  V30 8210 C 787.766 -4.00584 3.52659 0
M  V30 8211 O 787.989 -4.98686 2.76891 0
M  V30 8212 O 786.923 -4.04045 4.46129 0
M  V30 8213 H 790.749 -1.18249 2.79734 0
M  V30 8214 H 788.334 -0.520614 1.40036 0
M  V30 8215 H 790.216 -3.57065 2.23791 0
M  V30 8216 H 788.891 -3.01459 1.17917 0
M  V30 8217 H 787.798 -1.91033 3.21647 0
M  V30 8218 H 789.131 -2.53032 4.2218 0
M  V30 8219 N 790.784 -1.46188 -0.588786 0
M  V30 8220 C 791.714 -1.59148 -1.70863 0
M  V30 8221 C 792.695 -0.442083 -1.64255 0
M  V30 8222 O 793.88 -0.667575 -1.82365 0
M  V30 8223 C 791.01 -1.5757 -3.09498 0
M  V30 8224 C 789.964 -2.71418 -3.30932 0
M  V30 8225 C 789.29 -2.549 -4.70032 0
M  V30 8226 C 790.59 -4.1329 -3.19356 0
M  V30 8227 H 792.284 -2.52889 -1.60274 0
M  V30 8228 H 789.83 -1.21707 -0.769638 0
M  V30 8229 H 791.783 -1.65231 -3.87655 0
M  V30 8230 H 790.507 -0.603705 -3.20972 0
M  V30 8231 H 789.166 -2.63216 -2.55172 0
M  V30 8232 H 788.814 -1.55797 -4.78264 0
M  V30 8233 H 788.514 -3.31257 -4.85327 0
M  V30 8234 H 790.038 -2.64443 -5.50366 0
M  V30 8235 H 791.452 -4.22636 -3.87365 0
M  V30 8236 H 789.849 -4.90187 -3.46175 0
M  V30 8237 H 790.919 -4.33874 -2.16522 0
M  V30 8238 N 792.262 0.832906 -1.33792 0
M  V30 8239 C 793.51 1.58539 -1.25338 0
M  V30 8240 C 793.831 1.94175 0.179204 0
M  V30 8241 O 793.101 1.61458 1.10941 0
M  V30 8242 H 791.681 0.58784 -0.460926 0
M  V30 8243 H 794.343 0.995064 -1.67584 0
M  V30 8244 H 793.439 2.51268 -1.85123 0
M  V30 8245 N 793.74 1.17359 1.05189 0
M  V30 8246 C 795.156 0.920861 1.30355 0
M  V30 8247 C 795.356 -0.419993 1.97074 0
M  V30 8248 O 794.412 -1.15696 2.24434 0
M  V30 8249 C 795.725 2.07818 2.1733 0
M  V30 8250 C 797.273 2.1152 2.30712 0
M  V30 8251 C 797.748 3.26637 3.21048 0
M  V30 8252 N 799.239 3.26426 3.28634 0
M  V30 8253 C 799.974 4.12141 3.98657 0
M  V30 8254 N 799.47 5.07966 4.71107 0
M  V30 8255 N 801.263 4.00091 3.94821 0
M  V30 8256 H 793.414 2.03666 0.602821 0
M  V30 8257 H 795.677 0.889294 0.328421 0
M  V30 8258 H 795.383 3.04727 1.75597 0
M  V30 8259 H 795.257 2.02922 3.17966 0
M  V30 8260 H 797.644 1.15196 2.71687 0
M  V30 8261 H 797.725 2.20477 1.29706 0
M  V30 8262 H 797.369 4.23227 2.80788 0
M  V30 8263 H 797.299 3.14917 4.2206 0
M  V30 8264 H 799.79 2.57045 2.77013 0
M  V30 8265 H 800.103 5.69766 5.22099 0
M  V30 8266 H 798.448 5.11936 4.7005 0
M  V30 8267 H 801.639 3.24523 3.37346 0
M  V30 8268 H 801.812 4.6711 4.49123 0
M  V30 8269 N 795.218 -1.23913 0.973828 0
M  V30 8270 C 796.446 -1.96195 0.656891 0
M  V30 8271 C 796.861 -1.72166 -0.774876 0
M  V30 8272 O 796.218 -1.0091 -1.52064 0
M  V30 8273 C 796.269 -3.49342 0.929638 0
M  V30 8274 O 795.99 -3.72553 2.30512 0
M  V30 8275 C 797.491 -4.38833 0.627739 0
M  V30 8276 H 794.711 -0.624841 0.244572 0
M  V30 8277 H 797.255 -1.57579 1.30343 0
M  V30 8278 H 795.41 -3.85999 0.329216 0
M  V30 8279 H 795.824 -4.66893 2.3898 0
M  V30 8280 H 797.298 -5.45117 0.868991 0
M  V30 8281 H 797.775 -4.37009 -0.438104 0
M  V30 8282 H 798.381 -4.07773 1.20834 0
M  V30 8283 N 796.696 -0.74468 -1.38897 0
M  V30 8284 C 797.973 -0.222773 -1.94327 0
M  V30 8285 C 798.353 1.27731 -1.68071 0
M  V30 8286 O 797.701 2.04754 -1.01429 0
M  V30 8287 C 797.911 -0.566836 -3.44366 0
M  V30 8288 C 799.259 -0.521531 -4.21385 0
M  V30 8289 O 800.283 -0.504599 -3.52608 0
M  V30 8290 O 799.142 -0.524595 -5.43976 0
M  V30 8291 H 796.236 -0.0439259 -0.825833 0
M  V30 8292 H 798.782 -0.824197 -1.48341 0
M  V30 8293 H 797.554 -1.60321 -3.56949 0
M  V30 8294 H 797.177 0.0630577 -3.9755 0
M  V30 8295 N 798.174 1.49689 -0.493057 0
M  V30 8296 C 799.137 2.27502 0.278485 0
M  V30 8297 C 800.137 1.33184 0.901037 0
M  V30 8298 O 801.327 1.56415 0.766801 0
M  V30 8299 C 798.459 3.10881 1.39878 0
M  V30 8300 H 799.652 2.97163 -0.404219 0
M  V30 8301 H 797.205 1.54324 -0.247774 0
M  V30 8302 H 797.94 2.45767 2.11587 0
M  V30 8303 H 797.725 3.80219 0.957924 0
M  V30 8304 H 799.215 3.69673 1.94247 0
M  V30 8305 N 799.652 0.226554 1.55963 0
M  V30 8306 C 800.88 -0.408507 2.02827 0
M  V30 8307 C 801.295 -1.52994 1.10627 0
M  V30 8308 O 800.652 -1.82126 0.116809 0
M  V30 8309 C 800.703 -0.93545 3.49187 0
M  V30 8310 O 800.424 0.141273 4.37872 0
M  V30 8311 C 801.925 -1.64325 4.11719 0
M  V30 8312 H 799.145 -0.099442 0.66359 0
M  V30 8313 H 801.689 0.344471 2.01578 0
M  V30 8314 H 799.844 -1.63868 3.51036 0
M  V30 8315 H 800.258 -0.25558 5.23877 0
M  V30 8316 H 801.732 -1.9639 5.15883 0
M  V30 8317 H 802.209 -2.55815 3.57009 0
M  V30 8318 H 802.815 -0.9851 4.13734 0
M  V30 8319 N 801.13 -1.57531 -0.0467866 0
M  V30 8320 C 802.407 -1.79568 -0.775536 0
M  V30 8321 C 802.787 -0.820322 -1.94509 0
M  V30 8322 O 802.135 0.14134 -2.28062 0
M  V30 8323 C 802.345 -3.26789 -1.22516 0
M  V30 8324 C 803.693 -3.91299 -1.64835 0
M  V30 8325 O 804.717 -3.30831 -1.3202 0
M  V30 8326 O 803.576 -4.97727 -2.25677 0
M  V30 8327 H 800.67 -0.737817 -0.373572 0
M  V30 8328 H 803.216 -1.69682 -0.0249302 0
M  V30 8329 H 801.988 -3.89357 -0.389446 0
M  V30 8330 H 801.611 -3.41496 -2.03633 0
M  V30 8331 N 802.608 0.318715 -1.54344 0
M  V30 8332 C 803.538 1.39751 -1.87061 0
M  V30 8333 C 804.519 1.53741 -0.727848 0
M  V30 8334 O 805.704 1.67541 -0.982016 0
M  V30 8335 C 802.834 2.76446 -2.10226 0
M  V30 8336 C 801.788 2.77239 -3.26071 0
M  V30 8337 C 801.114 4.17056 -3.34617 0
M  V30 8338 C 802.414 2.40555 -4.63606 0
M  V30 8339 H 804.108 1.12619 -2.77412 0
M  V30 8340 H 801.654 0.540318 -1.33479 0
M  V30 8341 H 803.607 3.51985 -2.31699 0
M  V30 8342 H 802.331 3.05066 -1.16629 0
M  V30 8343 H 800.99 2.04155 -3.04493 0
M  V30 8344 H 800.638 4.42824 -2.3857 0
M  V30 8345 H 800.338 4.18492 -4.12478 0
M  V30 8346 H 801.862 4.94401 -3.5833 0
M  V30 8347 H 803.276 3.05808 -4.84927 0
M  V30 8348 H 801.673 2.53234 -5.44052 0
M  V30 8349 H 802.743 1.35698 -4.65526 0
M  V30 8350 N 804.086 1.46499 0.581025 0
M  V30 8351 C 805.363 1.42372 1.34125 0
M  V30 8352 C 805.743 0.108073 2.10823 0
M  V30 8353 O 805.091 -0.910366 2.09582 0
M  V30 8354 C 805.301 2.65445 2.26583 0
M  V30 8355 C 806.649 3.11664 2.88359 0
M  V30 8356 O 807.673 2.66006 2.36896 0
M  V30 8357 O 806.532 3.90974 3.81839 0
M  V30 8358 H 803.626 0.566262 0.602724 0
M  V30 8359 H 806.172 1.58667 0.601903 0
M  V30 8360 H 804.944 3.52756 1.69348 0
M  V30 8361 H 804.567 2.51618 3.07854 0
M  V30 8362 N 805.565 -0.825799 1.34232 0
M  V30 8363 C 806.976 -1.39835 1.23706 0
M  V30 8364 C 807.327 -1.95709 -0.138649 0
M  V30 8365 O 806.452 -1.89833 -1.03886 0
M  V30 8366 C 807.047 -2.54203 2.23978 0
M  V30 8367 C 805.606 -3.07374 2.17251 0
M  V30 8368 C 804.753 -1.80232 2.10741 0
M  V30 8369 H 807.704 -0.630442 1.4564 0
M  V30 8370 H 807.725 -3.32214 1.8551 0
M  V30 8371 H 807.237 -2.13506 3.24094 0
M  V30 8372 H 805.338 -3.52583 1.20483 0
M  V30 8373 H 805.451 -3.6666 3.08379 0
M  V30 8374 H 803.815 -2.01012 1.56417 0
M  V30 8375 H 804.598 -1.41713 3.12686 0
M  V30 8376 N 807.043 -1.17915 -1.04565 0
M  V30 8377 C 808.291 -0.969505 -1.77327 0
M  V30 8378 C 808.612 0.502569 -1.88412 0
M  V30 8379 O 807.882 1.36467 -1.40547 0
M  V30 8380 H 806.462 -0.355723 -0.656864 0
M  V30 8381 H 809.124 -1.48506 -1.26223 0
M  V30 8382 H 808.22 -1.40324 -2.78775 0
M  V30 8383 N 808.521 1.23394 -0.980386 0
M  V30 8384 C 809.484 2.23092 -0.525619 0
M  V30 8385 C 810.484 1.56129 0.384745 0
M  V30 8386 O 811.674 1.73284 0.178439 0
M  V30 8387 C 808.806 3.40074 0.23712 0
M  V30 8388 H 809.999 2.64839 -1.40714 0
M  V30 8389 H 807.552 1.36227 -0.766275 0
M  V30 8390 H 808.287 3.03783 1.13518 0
M  V30 8391 H 808.072 3.89883 -0.416356 0
M  V30 8392 H 809.562 4.14043 0.543892 0
M  V30 8393 N 809.999 0.752036 1.385 0
M  V30 8394 C 810.947 0.112634 2.32327 0
M  V30 8395 C 811.941 -0.707037 1.53939 0
M  V30 8396 O 813.147 -0.606309 1.69481 0
M  V30 8397 H 809.522 0.0176275 0.751793 0
M  V30 8398 H 811.493 0.920074 2.83861 0
M  V30 8399 C 810.242 -0.767458 3.39124 0
M  V30 8400 H 809.565 -0.146122 3.99533 0
M  V30 8401 H 811.005 -1.18216 4.07187 0
M  V30 8402 C 809.464 -1.90938 2.77568 0
M  V30 8403 O 809.994 -3.00342 2.66754 0
M  V30 8404 N 808.2 -1.70396 2.35401 0
M  V30 8405 H 807.747 -0.81413 2.44397 0
M  V30 8406 H 807.705 -2.46972 1.94557 0
M  V30 8407 N 811.477 -1.49425 0.500989 0
M  V30 8408 C 812.409 -2.27037 -0.314159 0
M  V30 8409 C 813.422 -1.33578 -0.930626 0
M  V30 8410 O 814.611 -1.58861 -0.813968 0
M  V30 8411 C 811.711 -3.05968 -1.45729 0
M  V30 8412 C 810.884 -4.27 -0.948135 0
M  V30 8413 C 809.943 -4.87977 -1.96888 0
M  V30 8414 O 808.969 -5.48044 -1.53743 0
M  V30 8415 N 810.171 -4.77627 -3.29928 0
M  V30 8416 H 812.936 -2.97634 0.351336 0
M  V30 8417 H 810.497 -1.58427 0.333536 0
M  V30 8418 H 812.489 -3.43634 -2.1377 0
M  V30 8419 H 811.059 -2.37978 -2.02695 0
M  V30 8420 H 810.279 -3.94091 -0.0926311 0
M  V30 8421 H 811.567 -5.0541 -0.586362 0
M  V30 8422 H 810.965 -4.29926 -3.67669 0
M  V30 8423 H 809.522 -5.19478 -3.93682 0
M  V30 8424 N 812.955 -0.234822 -1.55841 0
M  V30 8425 C 814.201 0.393843 -1.98939 0
M  V30 8426 C 814.534 1.58466 -1.1226 0
M  V30 8427 O 813.809 1.93635 -0.183242 0
M  V30 8428 C 814.092 0.815492 -3.50745 0
M  V30 8429 C 813.945 -0.379878 -4.48193 0
M  V30 8430 C 815.264 1.66687 -4.07312 0
M  V30 8431 H 812.383 0.141681 -0.723253 0
M  V30 8432 H 815.025 -0.333716 -1.87046 0
M  V30 8433 H 813.175 1.43541 -3.6101 0
M  V30 8434 H 814.847 -1.0182 -4.49923 0
M  V30 8435 H 813.09 -1.02507 -4.21515 0
M  V30 8436 H 813.761 -0.0417069 -5.51984 0
M  V30 8437 H 816.237 1.14369 -4.00074 0
M  V30 8438 H 815.113 1.93078 -5.13821 0
M  V30 8439 H 815.374 2.63468 -3.55017 0
M  V30 8440 N 814.433 1.57553 0.0384317 0
M  V30 8441 C 815.679 1.89973 0.726772 0
M  V30 8442 C 816.034 0.832381 1.73462 0
M  V30 8443 O 815.327 -0.159975 1.90931 0
M  V30 8444 C 815.521 3.26862 1.44554 0
M  V30 8445 C 815.35 4.46812 0.508814 0
M  V30 8446 C 814.12 5.05124 0.133323 0
M  V30 8447 C 816.318 5.13876 -0.20881 0
M  V30 8448 N 814.3 6.08591 -0.805636 0
M  V30 8449 C 815.671 6.11821 -1.00376 0
M  V30 8450 C 817.726 4.9713 -0.276749 0
M  V30 8451 C 816.429 6.94825 -1.86038 0
M  V30 8452 C 818.455 5.80689 -1.12047 0
M  V30 8453 C 817.817 6.78197 -1.90337 0
M  V30 8454 H 813.916 0.744153 0.240334 0
M  V30 8455 H 816.5 1.94696 -0.0128735 0
M  V30 8456 H 814.671 3.23085 2.1557 0
M  V30 8457 H 816.403 3.46826 2.08552 0
M  V30 8458 H 813.158 4.71022 0.493484 0
M  V30 8459 H 813.582 6.64994 -1.26935 0
M  V30 8460 H 818.224 4.21631 0.314222 0
M  V30 8461 H 815.942 7.69676 -2.46219 0
M  V30 8462 H 819.528 5.69782 -1.17645 0
M  V30 8463 H 818.408 7.41731 -2.54569 0
M  V30 8464 N 815.911 -0.310526 1.54511 0
M  V30 8465 C 816.874 -1.3657 1.84068 0
M  V30 8466 C 817.874 -1.44123 0.713097 0
M  V30 8467 O 819.064 -1.43924 0.981399 0
M  V30 8468 C 816.196 -2.75162 2.01243 0
M  V30 8469 H 817.389 -1.1161 2.78358 0
M  V30 8470 H 814.942 -0.546699 1.46427 0
M  V30 8471 H 815.677 -3.05359 1.09208 0
M  V30 8472 H 815.462 -2.71071 2.83307 0
M  V30 8473 H 816.952 -3.51473 2.25514 0
M  V30 8474 N 817.389 -1.46805 -0.573248 0
M  V30 8475 C 818.8 -1.46655 -1.15539 0
M  V30 8476 C 819.151 -0.2125 -1.95046 0
M  V30 8477 O 818.276 0.683759 -2.05314 0
M  V30 8478 C 818.871 -2.65711 -2.10198 0
M  V30 8479 C 817.43 -2.68572 -2.63716 0
M  V30 8480 C 816.577 -2.39498 -1.39772 0
M  V30 8481 H 819.528 -1.54547 -0.36068 0
M  V30 8482 H 819.549 -2.41768 -2.93817 0
M  V30 8483 H 819.061 -3.56967 -1.52303 0
M  V30 8484 H 817.162 -1.81414 -3.25453 0
M  V30 8485 H 817.275 -3.68809 -3.05805 0
M  V30 8486 H 815.639 -1.89749 -1.69904 0
M  V30 8487 H 816.422 -3.32942 -0.836943 0
M  V30 8488 N 818.867 0.818669 -1.34668 0
M  V30 8489 C 819.777 1.9616 -1.2868 0
M  V30 8490 C 820.793 1.72918 -0.193742 0
M  V30 8491 O 821.969 1.96951 -0.420975 0
M  V30 8492 C 819.034 3.30534 -1.04633 0
M  V30 8493 C 818.095 3.66755 -2.23136 0
M  V30 8494 C 817.328 4.94717 -2.00227 0
M  V30 8495 O 817.551 5.62218 -0.96264 0
M  V30 8496 O 816.485 5.28915 -2.87286 0
M  V30 8497 H 820.311 2.04157 -2.24842 0
M  V30 8498 H 817.896 0.954691 -1.14917 0
M  V30 8499 H 819.778 4.11005 -0.930216 0
M  V30 8500 H 818.453 3.23495 -0.115139 0
M  V30 8501 H 817.36 2.8671 -2.40308 0
M  V30 8502 H 818.693 3.78484 -3.1466 0
M  V30 8503 N 820.346 1.18468 1.03938 0
M  V30 8504 C 821.256 0.927889 2.1547 0
M  V30 8505 C 822.272 -0.108447 1.73662 0
M  V30 8506 O 823.448 0.0737636 2.01265 0
M  V30 8507 C 820.513 0.458494 3.43655 0
M  V30 8508 C 819.574 1.56295 3.99838 0
M  V30 8509 C 818.807 1.11586 5.21904 0
M  V30 8510 O 819.03 -0.0249057 5.70395 0
M  V30 8511 O 817.964 1.91412 5.70653 0
M  V30 8512 H 821.79 1.86116 2.39989 0
M  V30 8513 H 819.375 0.966607 1.13917 0
M  V30 8514 H 821.257 0.204861 4.20902 0
M  V30 8515 H 819.932 -0.446464 3.20606 0
M  V30 8516 H 818.839 1.87061 3.23974 0
M  V30 8517 H 820.172 2.44408 4.2723 0
M  V30 8518 N 821.824 -1.22873 0.986916 0
M  V30 8519 C 822.754 -2.2688 0.552064 0
M  V30 8520 C 823.735 -1.64883 -0.418048 0
M  V30 8521 O 824.92 -1.9171 -0.30999 0
M  V30 8522 C 822.05 -3.47018 -0.139959 0
M  V30 8523 C 821.004 -4.21411 0.748091 0
M  V30 8524 C 820.33 -5.34645 -0.0765132 0
M  V30 8525 C 821.63 -4.80726 2.04206 0
M  V30 8526 H 823.324 -2.63507 1.42143 0
M  V30 8527 H 820.87 -1.26668 0.68492 0
M  V30 8528 H 822.823 -4.18931 -0.455527 0
M  V30 8529 H 821.547 -3.0947 -1.04382 0
M  V30 8530 H 820.206 -3.51325 1.04721 0
M  V30 8531 H 819.854 -4.93339 -0.981109 0
M  V30 8532 H 819.554 -5.85342 0.514606 0
M  V30 8533 H 821.078 -6.09377 -0.386313 0
M  V30 8534 H 822.492 -5.44612 1.79083 0
M  V30 8535 H 820.889 -5.41737 2.5815 0
M  V30 8536 H 821.959 -4.01109 2.72469 0
M  V30 8537 N 823.302 -0.75937 -1.38099 0
M  V30 8538 C 824.527 -0.327859 -2.04792 0
M  V30 8539 C 824.952 1.03752 -1.56899 0
M  V30 8540 O 824.31 1.66235 -0.723581 0
M  V30 8541 C 824.358 -0.366264 -3.58735 0
M  V30 8542 O 823.462 0.637697 -4.0744 0
M  V30 8543 H 822.803 -0.144092 -0.648177 0
M  V30 8544 H 825.333 -1.03211 -1.7666 0
M  V30 8545 H 825.343 -0.219179 -4.07411 0
M  V30 8546 H 824.018 -1.36243 -3.92951 0
M  V30 8547 H 822.595 0.454749 -3.70117 0
M  V30 8548 N 824.78 1.49157 -0.508906 0
M  V30 8549 C 825.71 2.32109 0.254469 0
M  V30 8550 C 826.691 1.40754 0.955111 0
M  V30 8551 O 827.876 1.69658 0.944983 0
M  V30 8552 C 825.006 3.21458 1.3146 0
M  V30 8553 C 823.96 4.2167 0.733368 0
M  V30 8554 C 823.286 5.00009 1.8946 0
M  V30 8555 C 824.586 5.21544 -0.280875 0
M  V30 8556 H 826.28 2.9618 -0.43795 0
M  V30 8557 H 823.826 1.4243 -0.212062 0
M  V30 8558 H 825.779 3.78305 1.85643 0
M  V30 8559 H 824.503 2.55346 2.03632 0
M  V30 8560 H 823.162 3.65979 0.213231 0
M  V30 8561 H 822.81 4.30338 2.60419 0
M  V30 8562 H 822.51 5.67821 1.51173 0
M  V30 8563 H 824.034 5.59702 2.44061 0
M  V30 8564 H 825.448 5.73039 0.173095 0
M  V30 8565 H 823.845 5.97291 -0.580006 0
M  V30 8566 H 824.915 4.69969 -1.19404 0
M  V30 8567 N 826.258 0.243083 1.55714 0
M  V30 8568 C 827.483 -0.389944 2.03701 0
M  V30 8569 C 827.908 -1.51025 1.12129 0
M  V30 8570 O 827.266 -1.80944 0.11352 0
M  V30 8571 C 827.314 -0.878649 3.49731 0
M  V30 8572 O 826.418 -1.98851 3.61292 0
M  V30 8573 H 825.759 -0.0855115 0.658471 0
M  V30 8574 H 828.289 0.368023 2.01263 0
M  V30 8575 H 828.299 -1.18287 3.90477 0
M  V30 8576 H 826.974 -0.0588107 4.15858 0
M  V30 8577 H 825.551 -1.68928 3.32442 0
M  V30 8578 N 827.736 -1.57571 -0.0300757 0
M  V30 8579 C 828.984 -1.88852 -0.719666 0
M  V30 8580 C 829.305 -0.840645 -1.75949 0
M  V30 8581 O 828.575 0.125854 -1.95495 0
M  V30 8582 H 827.155 -0.696965 -0.268792 0
M  V30 8583 H 829.817 -1.949 0.00373285 0
M  V30 8584 H 828.913 -2.87695 -1.20987 0
M  V30 8585 N 829.214 0.302327 -1.54673 0
M  V30 8586 C 830.124 1.39542 -1.88587 0
M  V30 8587 C 831.14 1.55543 -0.779895 0
M  V30 8588 O 832.316 1.70233 -1.07623 0
M  V30 8589 C 829.381 2.7394 -2.12504 0
M  V30 8590 C 828.442 2.66935 -3.3622 0
M  V30 8591 C 827.675 3.94923 -3.58987 0
M  V30 8592 O 827.898 4.94218 -2.84789 0
M  V30 8593 O 826.832 3.96896 -4.52501 0
M  V30 8594 H 830.658 1.13784 -2.81579 0
M  V30 8595 H 828.243 0.49827 -1.40846 0
M  V30 8596 H 830.125 3.5346 -2.29443 0
M  V30 8597 H 828.8 2.99544 -1.22698 0
M  V30 8598 H 827.707 1.85892 -3.24646 0
M  V30 8599 H 829.04 2.46283 -4.26152 0
M  V30 8600 N 830.692 1.47107 0.565454 0
M  V30 8601 C 831.922 1.56681 1.34664 0
M  V30 8602 C 832.33 0.213011 1.87997 0
M  V30 8603 O 831.673 -0.802629 1.65238 0
M  V30 8604 C 831.735 2.52528 2.55871 0
M  V30 8605 C 831.399 3.98403 2.23883 0
M  V30 8606 C 832.396 4.87125 1.81673 0
M  V30 8607 C 830.081 4.43674 2.35496 0
M  V30 8608 C 832.075 6.19135 1.51494 0
M  V30 8609 C 829.762 5.75714 2.0493 0
M  V30 8610 C 830.76 6.63266 1.62996 0
M  V30 8611 O 830.448 7.92853 1.32813 0
M  V30 8612 H 830.18 0.531967 0.417117 0
M  V30 8613 H 832.734 1.93368 0.692669 0
M  V30 8614 H 830.964 2.10893 3.24131 0
M  V30 8615 H 832.653 2.5232 3.17945 0
M  V30 8616 H 833.419 4.534 1.72201 0
M  V30 8617 H 829.298 3.7574 2.67096 0
M  V30 8618 H 832.842 6.87429 1.1869 0
M  V30 8619 H 828.739 6.08983 2.14031 0
M  V30 8620 H 829.507 8.0528 1.46513 0
M  V30 8621 N 832.17 -0.811516 1.35101 0
M  V30 8622 C 833.416 -1.57068 1.28287 0
M  V30 8623 C 833.749 -1.93667 -0.143808 0
M  V30 8624 O 833.024 -1.60953 -1.09199 0
M  V30 8625 C 833.307 -2.86259 2.18466 0
M  V30 8626 C 833.16 -2.56168 3.69727 0
M  V30 8627 C 834.479 -3.87924 2.07852 0
M  V30 8628 H 831.598 -0.569869 0.467353 0
M  V30 8629 H 834.24 -0.934023 1.65457 0
M  V30 8630 H 832.39 -3.4059 1.86898 0
M  V30 8631 H 834.062 -2.08059 4.11715 0
M  V30 8632 H 832.305 -1.89436 3.90252 0
M  V30 8633 H 832.976 -3.48344 4.28206 0
M  V30 8634 H 835.452 -3.4298 2.35593 0
M  V30 8635 H 834.328 -4.76106 2.73157 0
M  V30 8636 H 834.589 -4.2923 1.05896 0
M  V30 8637 N 833.648 -1.19017 -1.03309 0
M  V30 8638 C 835.064 -0.941483 -1.28873 0
M  V30 8639 C 835.264 0.388587 -1.97718 0
M  V30 8640 O 834.32 1.12111 -2.26246 0
M  V30 8641 C 835.633 -2.11249 -2.13996 0
M  V30 8642 C 837.181 -2.15164 -2.27318 0
M  V30 8643 C 837.656 -3.31704 -3.15811 0
M  V30 8644 N 839.147 -3.31613 -3.23399 0
M  V30 8645 C 839.882 -4.18431 -3.9205 0
M  V30 8646 N 839.378 -5.15397 -4.62966 0
M  V30 8647 N 841.171 -4.06321 -3.88406 0
M  V30 8648 H 833.322 -2.04599 -0.570343 0
M  V30 8649 H 835.585 -0.894406 -0.314232 0
M  V30 8650 H 835.291 -3.07482 -1.70727 0
M  V30 8651 H 835.165 -2.07955 -3.14697 0
M  V30 8652 H 837.552 -1.19504 -2.6982 0
M  V30 8653 H 837.633 -2.22513 -1.26182 0
M  V30 8654 H 837.277 -4.2764 -2.74019 0
M  V30 8655 H 837.207 -3.21592 -4.16997 0
M  V30 8656 H 839.698 -2.6142 -2.72888 0
M  V30 8657 H 840.011 -5.78 -5.12968 0
M  V30 8658 H 838.356 -5.19349 -4.61846 0
M  V30 8659 H 841.547 -3.29849 -3.3214 0
M  V30 8660 H 841.72 -4.74196 -4.41635 0
M  V30 8661 N 835.127 1.22348 -0.993418 0
M  V30 8662 C 836.09 2.22522 -0.549251 0
M  V30 8663 C 837.09 1.56529 0.368164 0
M  V30 8664 O 838.28 1.73463 0.16005 0
M  V30 8665 C 835.412 3.40307 0.201037 0
M  V30 8666 H 836.605 2.63332 -1.43515 0
M  V30 8667 H 834.158 1.35407 -0.78068 0
M  V30 8668 H 834.893 3.0497 1.10289 0
M  V30 8669 H 834.678 3.8942 -0.457685 0
M  V30 8670 H 836.168 4.14597 0.499946 0
M  V30 8671 N 836.605 0.766683 1.37694 0
M  V30 8672 C 838.021 0.445739 1.53249 0
M  V30 8673 C 838.221 -1.03935 1.72626 0
M  V30 8674 O 837.277 -1.82525 1.74473 0
M  V30 8675 C 838.59 1.2564 2.73194 0
M  V30 8676 C 840.138 1.24779 2.87053 0
M  V30 8677 C 840.613 2.04169 4.09974 0
M  V30 8678 N 842.104 2.01497 4.17077 0
M  V30 8679 C 842.839 2.5971 5.11212 0
M  V30 8680 N 842.335 3.26691 6.10938 0
M  V30 8681 N 844.128 2.49568 5.03659 0
M  V30 8682 H 836.279 1.72899 1.23368 0
M  V30 8683 H 838.542 0.733701 0.600322 0
M  V30 8684 H 838.248 2.30859 2.65324 0
M  V30 8685 H 838.122 0.882133 3.6674 0
M  V30 8686 H 840.509 0.203603 2.94397 0
M  V30 8687 H 840.59 1.66166 1.9448 0
M  V30 8688 H 840.234 3.08606 4.03392 0
M  V30 8689 H 840.164 1.60167 5.01651 0
M  V30 8690 H 842.655 1.52728 3.45662 0
M  V30 8691 H 842.968 3.68497 6.79286 0
M  V30 8692 H 841.313 3.30789 6.11231 0
M  V30 8693 H 844.504 1.96859 4.24693 0
M  V30 8694 H 844.677 2.95231 5.76839 0
M  V30 8695 N 838.083 -1.48885 0.516809 0
M  V30 8696 C 839.332 -2.01686 -0.0239899 0
M  V30 8697 C 839.645 -1.40029 -1.3657 0
M  V30 8698 O 840.851 -1.84249 -1.9941 0
M  V30 8699 C 839.307 -3.59779 -0.0931825 0
M  V30 8700 C 838.915 -4.30416 1.24283 0
M  V30 8701 C 840.659 -4.20471 -0.583507 0
M  V30 8702 C 838.566 -5.80408 1.13494 0
M  V30 8703 H 837.496 -0.753892 -0.0127376 0
M  V30 8704 H 840.147 -1.71273 0.65861 0
M  V30 8705 H 838.529 -3.86976 -0.840577 0
M  V30 8706 H 839.703 -4.14905 2.00476 0
M  V30 8707 H 838.018 -3.81539 1.66785 0
M  V30 8708 H 840.615 -5.30333 -0.681987 0
M  V30 8709 H 840.958 -3.84898 -1.58617 0
M  V30 8710 H 841.491 -3.97654 0.107814 0
M  V30 8711 H 838.23 -6.20532 2.11235 0
M  V30 8712 H 837.75 -5.98368 0.414167 0
M  V30 8713 H 839.429 -6.41781 0.820162 0
M  V30 8714 N 839.561 -0.251338 -1.55583 0
M  V30 8715 C 840.508 0.646337 -2.21565 0
M  V30 8716 C 841.478 1.16796 -1.18102 0
M  V30 8717 O 842.663 1.22162 -1.46564 0
M  V30 8718 C 839.803 1.83557 -2.92234 0
M  V30 8719 C 838.916 1.35006 -4.10363 0
M  V30 8720 C 838.051 2.4992 -4.68736 0
M  V30 8721 C 837.09 1.98253 -5.79105 0
M  V30 8722 N 836.227 3.06551 -6.31642 0
M  V30 8723 H 841.067 0.0769881 -2.97901 0
M  V30 8724 H 838.604 0.026238 -1.47077 0
M  V30 8725 H 840.562 2.53425 -3.31408 0
M  V30 8726 H 839.192 2.37733 -2.18364 0
M  V30 8727 H 838.244 0.545274 -3.76472 0
M  V30 8728 H 839.556 0.931435 -4.90026 0
M  V30 8729 H 838.71 3.27823 -5.10507 0
M  V30 8730 H 837.449 2.95086 -3.88298 0
M  V30 8731 H 836.454 1.18822 -5.36807 0
M  V30 8732 H 837.679 1.54051 -6.61396 0
M  V30 8733 H 835.625 3.51143 -5.54107 0
M  V30 8734 H 835.542 2.69033 -7.06511 0
M  V30 8735 H 836.81 3.84499 -6.78071 0
M  V30 8736 N 841.039 1.57585 0.0217189 0
M  V30 8737 C 842.287 1.89231 0.709641 0
M  V30 8738 C 842.608 0.849964 1.75501 0
M  V30 8739 O 841.878 -0.115485 1.95559 0
M  V30 8740 H 840.458 0.69838 0.265092 0
M  V30 8741 H 843.12 1.94895 -0.0140688 0
M  V30 8742 H 842.216 2.88333 1.19459 0
M  V30 8743 N 842.517 -0.29412 1.54831 0
M  V30 8744 C 843.766 -1.02614 1.73647 0
M  V30 8745 C 844.079 -1.88193 0.533162 0
M  V30 8746 O 845.285 -2.64713 0.603275 0
M  V30 8747 C 843.741 -1.87417 3.07251 0
M  V30 8748 C 843.349 -1.06806 4.35082 0
M  V30 8749 C 845.093 -2.60176 3.35423 0
M  V30 8750 C 843 -1.90926 5.59733 0
M  V30 8751 H 841.93 -0.386834 0.647206 0
M  V30 8752 H 844.581 -0.282789 1.81308 0
M  V30 8753 H 842.963 -2.65765 2.93572 0
M  V30 8754 H 844.137 -0.330226 4.59615 0
M  V30 8755 H 842.452 -0.455979 4.13896 0
M  V30 8756 H 845.049 -3.23476 4.25755 0
M  V30 8757 H 845.392 -3.29365 2.54606 0
M  V30 8758 H 845.925 -1.88871 3.50103 0
M  V30 8759 H 842.664 -1.26194 6.43238 0
M  V30 8760 H 842.184 -2.62363 5.39375 0
M  V30 8761 H 843.863 -2.48807 5.97247 0
M  V30 8762 N 843.995 -1.47404 -0.557645 0
M  V30 8763 C 844.905 -1.62491 -1.69216 0
M  V30 8764 C 845.921 -0.507764 -1.66426 0
M  V30 8765 O 847.097 -0.775241 -1.85882 0
M  V30 8766 C 844.162 -1.63511 -3.05721 0
M  V30 8767 C 843.223 -2.86648 -3.1958 0
M  V30 8768 C 842.456 -2.87609 -4.49574 0
M  V30 8769 O 842.679 -1.97799 -5.35006 0
M  V30 8770 O 841.613 -3.79465 -4.67215 0
M  V30 8771 H 845.439 -2.58487 -1.59431 0
M  V30 8772 H 843.024 -1.30485 -0.7276 0
M  V30 8773 H 844.906 -1.66863 -3.86956 0
M  V30 8774 H 843.581 -0.706812 -3.15889 0
M  V30 8775 H 842.488 -2.8884 -2.37744 0
M  V30 8776 H 843.821 -3.7877 -3.14316 0
M  V30 8777 N 845.473 0.80434 -1.35529 0
M  V30 8778 C 846.703 1.59052 -1.31856 0
M  V30 8779 C 847.111 1.88905 0.105549 0
M  V30 8780 O 846.454 1.49422 1.06858 0
M  V30 8781 C 846.516 2.94626 -2.06 0
M  V30 8782 C 846.18 2.87576 -3.55175 0
M  V30 8783 C 847.177 2.60856 -4.49722 0
M  V30 8784 C 844.862 3.06623 -3.97854 0
M  V30 8785 C 846.856 2.53262 -5.84925 0
M  V30 8786 C 844.543 2.98652 -5.33151 0
M  V30 8787 C 845.541 2.72007 -6.26499 0
M  V30 8788 O 845.229 2.64003 -7.59314 0
M  V30 8789 H 844.961 0.500486 -0.454411 0
M  V30 8790 H 847.515 1.0074 -1.78999 0
M  V30 8791 H 845.745 3.5493 -1.53498 0
M  V30 8792 H 847.434 3.55785 -1.95376 0
M  V30 8793 H 848.2 2.45858 -4.18066 0
M  V30 8794 H 844.079 3.26372 -3.2558 0
M  V30 8795 H 847.623 2.32386 -6.57756 0
M  V30 8796 H 843.52 3.13208 -5.64421 0
M  V30 8797 H 844.288 2.79595 -7.69265 0
M  V30 8798 N 846.951 1.19563 1.02676 0
M  V30 8799 C 848.179 1.02488 1.79732 0
M  V30 8800 C 848.594 -0.426302 1.83924 0
M  V30 8801 O 847.951 -1.29609 1.28483 0
M  V30 8802 C 848.002 1.58944 3.24683 0
M  V30 8803 O 847.723 2.98382 3.2078 0
M  V30 8804 C 849.224 1.46681 4.1833 0
M  V30 8805 H 846.444 0.361098 0.565552 0
M  V30 8806 H 848.988 1.58426 1.29311 0
M  V30 8807 H 847.143 1.0715 3.72287 0
M  V30 8808 H 847.557 3.24983 4.11687 0
M  V30 8809 H 849.031 1.90959 5.17918 0
M  V30 8810 H 849.508 0.417663 4.3721 0
M  V30 8811 H 850.114 1.97616 3.76601 0
M  V30 8812 N 848.429 -1.21819 0.999893 0
M  V30 8813 C 849.84 -1.72517 0.713775 0
M  V30 8814 C 850.191 -1.80505 -0.768922 0
M  V30 8815 O 849.316 -1.45611 -1.60083 0
M  V30 8816 C 849.911 -3.13321 1.28901 0
M  V30 8817 C 848.47 -3.61396 1.05212 0
M  V30 8818 C 847.617 -2.39074 1.40494 0
M  V30 8819 H 850.568 -1.07068 1.17141 0
M  V30 8820 H 850.589 -3.74535 0.671084 0
M  V30 8821 H 850.101 -3.07475 2.36814 0
M  V30 8822 H 848.202 -3.72599 -0.0100732 0
M  V30 8823 H 848.315 -4.47145 1.72042 0
M  V30 8824 H 846.679 -2.41015 0.823642 0
M  V30 8825 H 847.462 -2.35884 2.49427 0
M  V30 8826 N 849.908 -0.773975 -1.37286 0
M  V30 8827 C 851.157 -0.335977 -1.98882 0
M  V30 8828 C 851.47 1.09416 -1.62134 0
M  V30 8829 O 852.676 1.63366 -2.1685 0
M  V30 8830 C 851.132 -0.549756 -3.55676 0
M  V30 8831 C 850.74 -1.9903 -4.01361 0
M  V30 8832 C 852.484 -0.175493 -4.24137 0
M  V30 8833 C 850.391 -2.15156 -5.50874 0
M  V30 8834 H 849.321 -0.121877 -0.744085 0
M  V30 8835 H 851.972 -0.953419 -1.56787 0
M  V30 8836 H 850.354 0.137175 -3.95762 0
M  V30 8837 H 851.528 -2.71237 -3.72515 0
M  V30 8838 H 849.843 -2.32137 -3.4569 0
M  V30 8839 H 852.44 -0.274463 -5.33995 0
M  V30 8840 H 852.783 0.874524 -4.07011 0
M  V30 8841 H 853.316 -0.815058 -3.89361 0
M  V30 8842 H 850.055 -3.18485 -5.72929 0
M  V30 8843 H 849.575 -1.47435 -5.81397 0
M  V30 8844 H 851.254 -1.95124 -6.16876 0
M  V30 8845 N 851.386 1.48609 -0.524698 0
M  V30 8846 C 852.663 1.95454 0.075465 0
M  V30 8847 C 853.043 1.46682 1.51814 0
M  V30 8848 O 852.391 0.690975 2.17802 0
M  V30 8849 C 852.601 3.48981 -0.0363273 0
M  V30 8850 C 853.949 4.24414 0.125624 0
M  V30 8851 O 854.973 3.5618 0.0377239 0
M  V30 8852 O 853.832 5.45625 0.309104 0
M  V30 8853 H 850.926 0.822902 0.0822256 0
M  V30 8854 H 853.472 1.59153 -0.588921 0
M  V30 8855 H 852.244 3.77185 -1.04149 0
M  V30 8856 H 851.867 3.91963 0.667146 0
M  V30 8857 N 852.864 0.259585 1.55447 0
M  V30 8858 C 854.28 -0.094961 1.59317 0
M  V30 8859 C 854.48 -1.55884 1.2768 0
M  V30 8860 O 853.536 -2.30528 1.0302 0
M  V30 8861 C 854.849 0.265669 2.99524 0
M  V30 8862 C 856.397 0.211007 3.12288 0
M  V30 8863 C 856.872 0.545851 4.54736 0
M  V30 8864 N 858.363 0.496823 4.60528 0
M  V30 8865 C 859.098 0.728909 5.68748 0
M  V30 8866 N 858.594 1.02479 6.85179 0
M  V30 8867 N 860.387 0.658756 5.58226 0
M  V30 8868 H 852.538 1.2141 1.7428 0
M  V30 8869 H 854.801 0.489404 0.811904 0
M  V30 8870 H 854.507 1.28316 3.27457 0
M  V30 8871 H 854.381 -0.401089 3.75061 0
M  V30 8872 H 856.768 -0.797172 2.84129 0
M  V30 8873 H 856.849 0.911799 2.38998 0
M  V30 8874 H 856.493 1.55164 4.83618 0
M  V30 8875 H 856.423 -0.17656 5.26304 0
M  V30 8876 H 858.914 0.277376 3.76881 0
M  V30 8877 H 859.227 1.18897 7.63599 0
M  V30 8878 H 857.572 1.0624 6.86832 0
M  V30 8879 H 860.763 0.427553 4.66143 0
M  V30 8880 H 860.936 0.84302 6.42493 0
M  V30 8881 N 854.342 -1.57594 -0.0133615 0
M  V30 8882 C 855.57 -1.94251 -0.712328 0
M  V30 8883 C 855.985 -0.86063 -1.68043 0
M  V30 8884 O 855.342 0.161632 -1.81783 0
M  V30 8885 C 855.393 -3.30891 -1.45581 0
M  V30 8886 O 855.114 -4.34924 -0.526539 0
M  V30 8887 C 856.615 -3.81926 -2.2505 0
M  V30 8888 H 853.835 -0.640737 -0.199241 0
M  V30 8889 H 856.379 -2.04472 0.0337855 0
M  V30 8890 H 854.534 -3.22019 -2.15366 0
M  V30 8891 H 854.948 -5.1389 -1.04962 0
M  V30 8892 H 856.422 -4.79999 -2.72589 0
M  V30 8893 H 856.899 -3.13934 -3.07152 0
M  V30 8894 H 857.505 -3.93931 -1.60308 0
M  V30 8895 N 855.82 0.285905 -1.54985 0
M  V30 8896 C 856.767 1.35306 -1.86978 0
M  V30 8897 C 857.737 1.49682 -0.720046 0
M  V30 8898 O 858.922 1.64297 -0.970107 0
M  V30 8899 C 856.062 2.71059 -2.13591 0
M  V30 8900 C 855.175 2.6501 -3.41165 0
M  V30 8901 C 854.31 3.92856 -3.57544 0
M  V30 8902 C 853.349 3.81266 -4.78855 0
M  V30 8903 N 852.486 5.00919 -4.9196 0
M  V30 8904 H 857.326 1.07323 -2.78003 0
M  V30 8905 H 854.863 0.518776 -1.37649 0
M  V30 8906 H 856.821 3.50026 -2.27019 0
M  V30 8907 H 855.451 2.97271 -1.25816 0
M  V30 8908 H 854.503 1.77824 -3.36278 0
M  V30 8909 H 855.815 2.52342 -4.30262 0
M  V30 8910 H 854.969 4.80263 -3.70718 0
M  V30 8911 H 853.708 4.08377 -2.66608 0
M  V30 8912 H 852.713 2.92243 -4.65698 0
M  V30 8913 H 853.938 3.67277 -5.71213 0
M  V30 8914 H 851.884 5.16875 -4.03951 0
M  V30 8915 H 851.801 4.90732 -5.75081 0
M  V30 8916 H 853.069 5.89935 -5.09507 0
M  V30 8917 N 857.298 1.47698 0.54982 0
M  V30 8918 C 858.545 1.54702 1.30665 0
M  V30 8919 C 858.873 0.212418 1.93337 0
M  V30 8920 O 858.128 -0.79543 1.78805 0
M  V30 8921 C 858.427 2.61903 2.4319 0
M  V30 8922 C 858.093 4.04953 1.98302 0
M  V30 8923 C 856.755 4.43893 1.85776 0
M  V30 8924 C 859.107 4.94682 1.64133 0
M  V30 8925 C 856.435 5.70387 1.37388 0
M  V30 8926 C 858.787 6.21646 1.17214 0
M  V30 8927 C 857.451 6.5946 1.0329 0
M  V30 8928 H 856.721 0.566096 0.478139 0
M  V30 8929 H 859.368 1.8133 0.615767 0
M  V30 8930 H 857.673 2.2906 3.17866 0
M  V30 8931 H 859.37 2.64543 3.0136 0
M  V30 8932 H 855.96 3.74191 2.08995 0
M  V30 8933 H 860.144 4.65291 1.72679 0
M  V30 8934 H 855.4 5.98427 1.25278 0
M  V30 8935 H 859.574 6.90581 0.898391 0
M  V30 8936 H 857.201 7.57367 0.655735 0
M  V30 8937 N 858.776 -0.797141 1.35954 0
M  V30 8938 C 860.004 -1.5858 1.32891 0
M  V30 8939 C 860.419 -1.88578 -0.0915564 0
M  V30 8940 O 859.776 -1.49532 -1.04625 0
M  V30 8941 C 859.827 -2.91143 2.14284 0
M  V30 8942 O 859.548 -2.62442 3.50793 0
M  V30 8943 C 861.049 -3.85476 2.18914 0
M  V30 8944 H 858.269 -0.492111 0.456144 0
M  V30 8945 H 860.813 -0.98994 1.78943 0
M  V30 8946 H 858.968 -3.47219 1.71807 0
M  V30 8947 H 859.382 -3.4715 3.93175 0
M  V30 8948 H 860.856 -4.75574 2.80238 0
M  V30 8949 H 861.333 -4.22758 1.19047 0
M  V30 8950 H 861.939 -3.35334 2.61593 0
M  V30 8951 N 860.254 -1.20106 -1.0204 0
M  V30 8952 C 861.201 -0.946468 -2.10501 0
M  V30 8953 C 862.171 0.121902 -1.65652 0
M  V30 8954 O 863.356 -0.0220244 -1.90787 0
M  V30 8955 C 860.496 -0.500499 -3.41451 0
M  V30 8956 C 859.609 -1.63659 -3.998 0
M  V30 8957 C 858.744 -1.14131 -5.18794 0
M  V30 8958 C 857.783 -2.25074 -5.69217 0
M  V30 8959 N 856.92 -1.76791 -6.79477 0
M  V30 8960 H 861.76 -1.87506 -2.31615 0
M  V30 8961 H 859.297 -0.934693 -1.13587 0
M  V30 8962 H 861.255 -0.223276 -4.16602 0
M  V30 8963 H 859.885 0.391099 -3.20422 0
M  V30 8964 H 858.937 -2.02882 -3.21781 0
M  V30 8965 H 860.249 -2.47213 -4.33229 0
M  V30 8966 H 859.403 -0.819826 -6.01135 0
M  V30 8967 H 858.142 -0.275615 -4.86921 0
M  V30 8968 H 857.147 -2.58043 -4.85483 0
M  V30 8969 H 858.372 -3.12114 -6.03127 0
M  V30 8970 H 856.318 -0.925428 -6.4944 0
M  V30 8971 H 856.235 -2.53928 -7.12079 0
M  V30 8972 H 857.503 -1.47631 -7.65392 0
M  V30 8973 N 861.732 1.21287 -1.00634 0
M  V30 8974 C 862.662 2.25973 -0.588089 0
M  V30 8975 C 863.643 1.65527 0.391764 0
M  V30 8976 O 864.828 1.92179 0.279452 0
M  V30 8977 C 861.958 3.47197 0.0847336 0
M  V30 8978 C 860.912 4.20168 -0.815039 0
M  V30 8979 C 860.238 5.34699 -0.00855393 0
M  V30 8980 C 861.538 4.77416 -2.11828 0
M  V30 8981 H 863.232 2.61212 -1.46317 0
M  V30 8982 H 860.778 1.25563 -0.704985 0
M  V30 8983 H 862.731 4.19602 0.388821 0
M  V30 8984 H 861.455 3.11092 0.994456 0
M  V30 8985 H 860.114 3.49614 -1.10297 0
M  V30 8986 H 859.762 4.94837 0.902499 0
M  V30 8987 H 859.462 5.84449 -0.607664 0
M  V30 8988 H 860.986 6.09914 0.289317 0
M  V30 8989 H 862.4 5.41694 -1.87725 0
M  V30 8990 H 860.797 5.37561 -2.66736 0
M  V30 8991 H 861.867 3.96724 -2.78816 0
M  V30 8992 N 863.21 0.781244 1.36873 0
M  V30 8993 C 864.456 0.350407 1.9975 0
M  V30 8994 C 864.789 -1.07293 1.6187 0
M  V30 8995 O 864.064 -1.73983 0.869491 0
M  V30 8996 C 864.347 0.504834 3.56544 0
M  V30 8997 C 864.2 1.97127 4.04303 0
M  V30 8998 C 865.519 -0.0851272 4.40018 0
M  V30 8999 H 862.638 0.128794 0.725659 0
M  V30 9000 H 865.28 0.98606 1.6241 0
M  V30 9001 H 863.43 -0.0363006 3.88483 0
M  V30 9002 H 865.102 2.57284 3.82887 0
M  V30 9003 H 863.345 2.47676 3.56145 0
M  V30 9004 H 864.016 2.03033 5.13305 0
M  V30 9005 H 866.492 0.376704 4.14391 0
M  V30 9006 H 865.368 0.0530015 5.48874 0
M  V30 9007 H 865.629 -1.17642 4.2616 0
M  V30 9008 N 864.689 -1.48329 0.532571 0
M  V30 9009 C 865.935 -2.03399 0.00755104 0
M  V30 9010 C 866.29 -1.40213 -1.3175 0
M  V30 9011 O 865.583 -0.539633 -1.83844 0
M  V30 9012 C 865.777 -3.57 -0.168943 0
M  V30 9013 C 865.606 -4.35077 1.13745 0
M  V30 9014 C 864.376 -4.75915 1.69803 0
M  V30 9015 C 866.574 -4.71734 2.04869 0
M  V30 9016 N 864.556 -5.38538 2.94703 0
M  V30 9017 C 865.927 -5.34403 3.14346 0
M  V30 9018 C 867.982 -4.53665 2.05164 0
M  V30 9019 C 866.685 -5.80912 4.24186 0
M  V30 9020 C 868.711 -5.01157 3.13999 0
M  V30 9021 C 868.073 -5.63853 4.22195 0
M  V30 9022 H 864.172 -0.780743 0.0443253 0
M  V30 9023 H 866.756 -1.81119 0.714423 0
M  V30 9024 H 864.927 -3.79099 -0.844903 0
M  V30 9025 H 866.659 -3.98708 -0.693804 0
M  V30 9026 H 863.414 -4.57103 1.23909 0
M  V30 9027 H 863.838 -5.74413 3.583 0
M  V30 9028 H 868.48 -4.04571 1.22808 0
M  V30 9029 H 866.198 -6.2901 5.07318 0
M  V30 9030 H 869.784 -4.88965 3.15285 0
M  V30 9031 H 868.664 -5.99935 5.05023 0
M  V30 9032 N 866.167 -0.267825 -1.55308 0
M  V30 9033 C 867.444 0.402449 -1.91415 0
M  V30 9034 C 867.824 1.7428 -1.1912 0
M  V30 9035 O 867.172 2.2631 -0.315609 0
M  V30 9036 C 867.382 0.549926 -3.4464 0
M  V30 9037 C 868.73 0.836188 -4.16285 0
M  V30 9038 O 869.754 0.635009 -3.50494 0
M  V30 9039 O 868.613 1.22051 -5.32697 0
M  V30 9040 H 865.707 0.219177 -0.797427 0
M  V30 9041 H 868.253 -0.313439 -1.6678 0
M  V30 9042 H 867.025 -0.393641 -3.89315 0
M  V30 9043 H 866.648 1.31556 -3.75205 0
M  V30 9044 N 867.645 1.57599 0.00500368 0
M  V30 9045 C 868.892 1.90349 0.690895 0
M  V30 9046 C 869.22 0.868045 1.74055 0
M  V30 9047 O 868.475 -0.127855 1.95282 0
M  V30 9048 C 868.774 3.29855 1.37588 0
M  V30 9049 C 868.44 4.48548 0.459906 0
M  V30 9050 C 867.102 4.80752 0.207693 0
M  V30 9051 C 869.454 5.20919 -0.171054 0
M  V30 9052 C 866.782 5.82701 -0.683855 0
M  V30 9053 C 869.134 6.23818 -1.05045 0
M  V30 9054 C 867.798 6.54481 -1.31189 0
M  V30 9055 H 867.068 0.696538 0.252816 0
M  V30 9056 H 869.715 1.91436 -0.0494495 0
M  V30 9057 H 868.02 3.24869 2.19015 0
M  V30 9058 H 869.717 3.52452 1.91255 0
M  V30 9059 H 866.307 4.23384 0.666648 0
M  V30 9060 H 870.491 4.96299 0.0107942 0
M  V30 9061 H 865.747 6.04822 -0.894467 0
M  V30 9062 H 869.921 6.79029 -1.54574 0
M  V30 9063 H 867.548 7.33299 -2.00442 0
M  V30 9064 N 869.123 -0.277682 1.55134 0
M  V30 9065 C 870.071 -1.36305 1.88478 0
M  V30 9066 C 871.065 -1.51362 0.760654 0
M  V30 9067 O 872.271 -1.53202 0.944943 0
M  V30 9068 H 868.646 -0.45577 0.598146 0
M  V30 9069 H 870.617 -1.05431 2.79154 0
M  V30 9070 C 869.366 -2.71739 2.16918 0
M  V30 9071 H 868.689 -2.60942 3.02901 0
M  V30 9072 H 870.129 -3.46635 2.44172 0
M  V30 9073 C 868.588 -3.22476 0.975239 0
M  V30 9074 O 869.118 -4.01164 0.207497 0
M  V30 9075 N 867.324 -2.80097 0.774219 0
M  V30 9076 H 866.871 -2.16221 1.40022 0
M  V30 9077 H 866.829 -3.14392 -0.023021 0
M  V30 9078 N 870.601 -1.47988 -0.541979 0
M  V30 9079 C 871.878 -1.45878 -1.30303 0
M  V30 9080 C 872.258 -0.163931 -2.10463 0
M  V30 9081 O 871.606 0.854479 -2.11922 0
M  V30 9082 C 871.816 -2.71359 -2.19466 0
M  V30 9083 C 873.164 -3.19199 -2.79995 0
M  V30 9084 O 874.188 -2.72193 -2.2976 0
M  V30 9085 O 873.047 -4.00961 -3.71339 0
M  V30 9086 H 870.141 -0.582043 -0.587498 0
M  V30 9087 H 872.687 -1.60207 -0.559623 0
M  V30 9088 H 871.459 -3.57122 -1.59936 0
M  V30 9089 H 871.082 -2.59692 -3.01075 0
M  V30 9090 N 872.079 0.78992 -1.36375 0
M  V30 9091 C 873.327 1.54472 -1.30319 0
M  V30 9092 C 873.648 1.94647 0.117338 0
M  V30 9093 O 872.918 1.64906 1.05748 0
M  V30 9094 H 871.498 0.572879 -0.479394 0
M  V30 9095 H 874.16 0.941245 -1.70665 0
M  V30 9096 H 873.256 2.45252 -1.93024 0
M  V30 9097 N 873.557 1.20646 1.01402 0
M  V30 9098 C 874.785 1.04389 1.78635 0
M  V30 9099 C 875.2 -0.406771 1.84366 0
M  V30 9100 O 874.557 -1.28239 1.2985 0
M  V30 9101 C 874.608 1.62378 3.22979 0
M  V30 9102 O 874.329 3.01768 3.17597 0
M  V30 9103 C 875.83 1.5111 4.1675 0
M  V30 9104 H 873.05 0.367077 0.56169 0
M  V30 9105 H 875.594 1.59789 1.27624 0
M  V30 9106 H 873.749 1.11092 3.7113 0
M  V30 9107 H 874.163 3.29331 4.08217 0
M  V30 9108 H 875.637 1.96441 5.15863 0
M  V30 9109 H 876.114 0.464011 4.36742 0
M  V30 9110 H 876.72 2.01599 3.74483 0
M  V30 9111 N 875.035 -1.20752 1.01276 0
M  V30 9112 C 876.263 -1.94006 0.718976 0
M  V30 9113 C 876.678 -1.74544 -0.719711 0
M  V30 9114 O 876.035 -1.05697 -1.48776 0
M  V30 9115 C 876.086 -3.46208 1.04031 0
M  V30 9116 O 875.807 -3.65031 2.42248 0
M  V30 9117 C 877.308 -4.36614 0.767032 0
M  V30 9118 H 874.528 -0.616743 0.264327 0
M  V30 9119 H 877.072 -1.53352 1.3529 0
M  V30 9120 H 875.227 -3.84756 0.451852 0
M  V30 9121 H 875.641 -4.59054 2.53712 0
M  V30 9122 H 877.115 -5.42076 1.04198 0
M  V30 9123 H 877.592 -4.38182 -0.298851 0
M  V30 9124 H 878.198 -4.03723 1.33746 0
M  V30 9125 N 876.513 -0.788492 -1.36457 0
M  V30 9126 C 877.445 -0.144208 -2.28746 0
M  V30 9127 C 878.458 0.646009 -1.49434 0
M  V30 9128 O 879.647 0.481344 -1.71888 0
M  V30 9129 C 876.747 0.818869 -3.28858 0
M  V30 9130 C 875.92 0.0789055 -4.37329 0
M  V30 9131 C 874.979 0.957791 -5.1741 0
M  V30 9132 O 874.005 0.415378 -5.67682 0
M  V30 9133 N 875.207 2.28216 -5.33758 0
M  V30 9134 H 877.972 -0.936949 -2.84678 0
M  V30 9135 H 875.533 -0.642317 -1.48613 0
M  V30 9136 H 877.525 1.41065 -3.79319 0
M  V30 9137 H 876.095 1.51249 -2.73573 0
M  V30 9138 H 875.315 -0.693939 -3.88044 0
M  V30 9139 H 876.603 -0.431753 -5.06965 0
M  V30 9140 H 876.001 2.747 -4.94527 0
M  V30 9141 H 874.558 2.8236 -5.87466 0
M  V30 9142 N 877.991 1.48044 -0.54043 0
M  V30 9143 C 879.239 2.02097 -0.0101367 0
M  V30 9144 C 879.56 1.41881 1.33771 0
M  V30 9145 O 878.83 0.587923 1.8687 0
M  V30 9146 H 877.41 0.747 -0.000758716 0
M  V30 9147 H 880.072 1.81639 -0.706634 0
M  V30 9148 H 879.168 3.11969 0.0904474 0
M  V30 9149 N 879.47 0.276058 1.55163 0
M  V30 9150 C 880.717 -0.340455 1.99618 0
M  V30 9151 C 881.045 -1.5579 1.16446 0
M  V30 9152 O 880.3 -1.94433 0.222359 0
M  V30 9153 C 880.599 -0.765744 3.491 0
M  V30 9154 C 880.265 0.347174 4.49561 0
M  V30 9155 C 878.927 0.65276 4.76752 0
M  V30 9156 C 881.279 1.09705 5.09523 0
M  V30 9157 C 878.607 1.71179 5.61173 0
M  V30 9158 C 880.959 2.14581 5.95095 0
M  V30 9159 C 879.623 2.45773 6.20606 0
M  V30 9160 H 878.893 -0.124581 0.730452 0
M  V30 9161 H 881.54 0.389966 1.87487 0
M  V30 9162 H 879.845 -1.57585 3.58712 0
M  V30 9163 H 881.542 -1.25352 3.80904 0
M  V30 9164 H 878.132 0.0988779 4.28486 0
M  V30 9165 H 882.316 0.874223 4.8854 0
M  V30 9166 H 877.572 1.95846 5.79184 0
M  V30 9167 H 881.746 2.7316 6.40591 0
M  V30 9168 H 879.373 3.27969 6.85813 0
M  V30 9169 N 880.948 -1.576 0.00335426 0
M  V30 9170 C 881.88 -2.0549 -1.01521 0
M  V30 9171 C 882.893 -0.973441 -1.30491 0
M  V30 9172 O 884.082 -1.25017 -1.27409 0
M  V30 9173 C 881.182 -2.44272 -2.34914 0
M  V30 9174 C 880.355 -3.75191 -2.24835 0
M  V30 9175 C 879.414 -4.00804 -3.40944 0
M  V30 9176 O 878.44 -4.71423 -3.18981 0
M  V30 9177 N 879.642 -3.48961 -4.63904 0
M  V30 9178 H 882.407 -2.93493 -0.60678 0
M  V30 9179 H 879.968 -1.60851 -0.18396 0
M  V30 9180 H 881.96 -2.58518 -3.11369 0
M  V30 9181 H 880.53 -1.6177 -2.67487 0
M  V30 9182 H 879.75 -3.70989 -1.3327 0
M  V30 9183 H 881.038 -4.61013 -2.15277 0
M  V30 9184 H 880.436 -2.9178 -4.84645 0
M  V30 9185 H 878.993 -3.68531 -5.37613 0
M  V30 9186 N 882.426 0.269451 -1.5528 0
M  V30 9187 C 883.672 1.00206 -1.76314 0
M  V30 9188 C 884.005 1.85812 -0.564581 0
M  V30 9189 O 883.28 1.89509 0.437769 0
M  V30 9190 C 883.563 1.88163 -3.07029 0
M  V30 9191 C 883.416 1.05527 -4.37246 0
M  V30 9192 C 884.735 2.8681 -3.33808 0
M  V30 9193 H 881.854 0.36288 -0.641473 0
M  V30 9194 H 884.496 0.274188 -1.88011 0
M  V30 9195 H 882.646 2.50224 -2.97187 0
M  V30 9196 H 884.318 0.455094 -4.5905 0
M  V30 9197 H 882.561 0.358842 -4.32313 0
M  V30 9198 H 883.232 1.70397 -5.25042 0
M  V30 9199 H 885.708 2.34884 -3.43466 0
M  V30 9200 H 884.584 3.45492 -4.26528 0
M  V30 9201 H 884.845 3.62118 -2.5362 0
M  V30 9202 N 883.904 1.48273 0.534124 0
M  V30 9203 C 884.852 1.62926 1.66005 0
M  V30 9204 C 885.846 0.495814 1.61982 0
M  V30 9205 O 887.052 0.6744 1.66889 0
M  V30 9206 H 883.427 0.513163 0.549698 0
M  V30 9207 H 885.398 2.57498 1.50789 0
M  V30 9208 C 884.147 1.68231 3.04292 0
M  V30 9209 H 883.47 2.54807 3.0808 0
M  V30 9210 H 884.91 1.82528 3.827 0
M  V30 9211 C 883.369 0.420154 3.3427 0
M  V30 9212 O 883.899 -0.468769 3.98955 0
M  V30 9213 N 882.105 0.293115 2.89118 0
M  V30 9214 H 881.652 1.01745 2.36655 0
M  V30 9215 H 881.61 -0.550376 3.09545 0
M  V30 9216 N 885.382 -0.782676 1.36792 0
M  V30 9217 C 886.63 -1.53778 1.31136 0
M  V30 9218 C 886.951 -1.94706 -0.107014 0
M  V30 9219 O 886.221 -1.65465 -1.04872 0
M  V30 9220 H 884.801 -0.570328 0.482426 0
M  V30 9221 H 887.463 -0.932181 1.71162 0
M  V30 9222 H 886.559 -2.44224 1.94321 0
M  V30 9223 N 886.86 -1.21182 -1.00761 0
M  V30 9224 C 888.137 -0.936297 -1.71735 0
M  V30 9225 C 888.517 0.552585 -2.03739 0
M  V30 9226 O 887.865 1.51672 -1.70903 0
M  V30 9227 C 888.075 -1.81867 -2.97868 0
M  V30 9228 C 889.423 -2.06594 -3.7095 0
M  V30 9229 O 890.447 -1.79194 -3.07844 0
M  V30 9230 O 889.306 -2.5292 -4.84452 0
M  V30 9231 H 886.4 -0.350867 -0.74888 0
M  V30 9232 H 888.946 -1.32098 -1.06527 0
M  V30 9233 H 887.718 -2.82643 -2.70607 0
M  V30 9234 H 887.341 -1.43463 -3.70815 0
M  V30 9235 N 888.338 1.20213 -1.01915 0
M  V30 9236 C 889.563 1.94163 -0.729076 0
M  V30 9237 C 889.988 1.74416 0.704323 0
M  V30 9238 O 889.346 1.0401 1.48498 0
M  V30 9239 C 889.394 3.44258 -1.07324 0
M  V30 9240 O 888.498 4.11979 -0.186367 0
M  V30 9241 H 887.839 0.606506 -0.270272 0
M  V30 9242 H 890.369 1.52571 -1.3632 0
M  V30 9243 H 890.379 3.94888 -1.02603 0
M  V30 9244 H 889.054 3.57954 -2.11759 0
M  V30 9245 H 887.631 3.7176 -0.291334 0
M  V30 9246 N 889.816 0.795718 1.36037 0
M  V30 9247 C 891.227 0.433379 1.816 0
M  V30 9248 C 891.578 -1.04341 1.66155 0
M  V30 9249 O 890.703 -1.81004 1.18603 0
M  V30 9250 C 891.298 0.77985 3.29703 0
M  V30 9251 C 889.857 0.470256 3.73451 0
M  V30 9252 C 889.004 1.01119 2.58206 0
M  V30 9253 H 891.955 0.988317 1.24169 0
M  V30 9254 H 891.976 0.0732898 3.80429 0
M  V30 9255 H 891.488 1.85473 3.40913 0
M  V30 9256 H 889.589 -0.596332 3.67797 0
M  V30 9257 H 889.702 0.995276 4.68648 0
M  V30 9258 H 888.066 0.434077 2.50974 0
M  V30 9259 H 888.849 2.09196 2.72198 0
M  V30 9260 N 891.294 -1.47756 0.548274 0
M  V30 9261 C 892.242 -2.3158 -0.217584 0
M  V30 9262 C 893.236 -1.42372 -0.917957 0
M  V30 9263 O 894.442 -1.59184 -0.840259 0
M  V30 9264 H 890.817 -0.74671 -0.0890388 0
M  V30 9265 H 892.788 -2.94032 0.508719 0
M  V30 9266 C 891.537 -3.24834 -1.24008 0
M  V30 9267 H 890.86 -3.93435 -0.710572 0
M  V30 9268 H 892.3 -3.86336 -1.74701 0
M  V30 9269 C 890.759 -2.47724 -2.2833 0
M  V30 9270 O 891.289 -2.21522 -3.35098 0
M  V30 9271 N 889.495 -2.08891 -2.02022 0
M  V30 9272 H 889.042 -2.30401 -1.1521 0
M  V30 9273 H 889 -1.57613 -2.7204 0
M  V30 9274 N 892.772 -0.284283 -1.55015 0
M  V30 9275 C 893.719 0.599194 -2.22886 0
M  V30 9276 C 894.689 1.14264 -1.20553 0
M  V30 9277 O 895.874 1.19025 -1.49123 0
M  V30 9278 C 893.014 1.77317 -2.96062 0
M  V30 9279 C 892.127 1.26271 -4.13134 0
M  V30 9280 C 891.262 2.39922 -4.73931 0
M  V30 9281 C 890.301 1.85925 -5.8318 0
M  V30 9282 N 889.438 2.93084 -6.38002 0
M  V30 9283 H 894.278 0.0137816 -2.97997 0
M  V30 9284 H 891.815 -0.00496503 -1.47099 0
M  V30 9285 H 893.773 2.46339 -3.36709 0
M  V30 9286 H 892.403 2.33047 -2.23358 0
M  V30 9287 H 891.455 0.465296 -3.77544 0
M  V30 9288 H 892.767 0.827284 -4.91892 0
M  V30 9289 H 891.921 3.1692 -5.17346 0
M  V30 9290 H 890.66 2.86784 -3.9447 0
M  V30 9291 H 889.665 1.07409 -5.39206 0
M  V30 9292 H 890.89 1.39987 -6.64515 0
M  V30 9293 H 888.836 3.3931 -5.61431 0
M  V30 9294 H 888.753 2.53986 -7.12058 0
M  V30 9295 H 890.021 3.7003 -6.86075 0
M  V30 9296 N 894.251 1.57596 -0.0117121 0
M  V30 9297 C 895.161 2.12596 0.991964 0
M  V30 9298 C 896.177 1.07399 1.36899 0
M  V30 9299 O 897.353 1.39365 1.45394 0
M  V30 9300 C 894.418 2.62796 2.2614 0
M  V30 9301 C 893.479 3.8264 1.94642 0
M  V30 9302 C 892.712 4.30435 3.15533 0
M  V30 9303 O 892.935 3.77495 4.27614 0
M  V30 9304 O 891.869 5.22469 2.98847 0
M  V30 9305 H 895.695 2.98597 0.554371 0
M  V30 9306 H 893.28 1.47947 0.207839 0
M  V30 9307 H 895.162 2.9523 3.00695 0
M  V30 9308 H 893.837 1.79886 2.69114 0
M  V30 9309 H 892.744 3.5516 1.17526 0
M  V30 9310 H 894.077 4.66658 1.56496 0
M  V30 9311 N 895.729 -0.261212 1.5542 0
M  V30 9312 C 896.954 -1.01341 1.80955 0
M  V30 9313 C 897.379 -1.78711 0.586849 0
M  V30 9314 O 896.737 -1.75266 -0.463837 0
M  V30 9315 C 896.785 -1.93835 3.04073 0
M  V30 9316 O 895.889 -3.02791 2.79985 0
M  V30 9317 H 895.23 -0.289123 0.597749 0
M  V30 9318 H 897.76 -0.286543 2.02584 0
M  V30 9319 H 897.77 -2.3557 3.33123 0
M  V30 9320 H 896.445 -1.36936 3.9271 0
M  V30 9321 H 895.022 -2.65287 2.62063 0
M  V30 9322 N 897.207 -1.48554 -0.526253 0
M  V30 9323 C 898.456 -1.56014 -1.27837 0
M  V30 9324 C 898.769 -0.240643 -1.94114 0
M  V30 9325 O 899.975 -0.193525 -2.70809 0
M  V30 9326 C 898.431 -2.75161 -2.31979 0
M  V30 9327 C 898.039 -4.13768 -1.71755 0
M  V30 9328 C 899.783 -2.91936 -3.08178 0
M  V30 9329 C 897.69 -5.24171 -2.7386 0
M  V30 9330 H 896.62 -0.58082 -0.480795 0
M  V30 9331 H 899.271 -1.74895 -0.555335 0
M  V30 9332 H 897.653 -2.49722 -3.07335 0
M  V30 9333 H 898.827 -4.49241 -1.02563 0
M  V30 9334 H 897.142 -4.02141 -1.08036 0
M  V30 9335 H 899.739 -3.71586 -3.84484 0
M  V30 9336 H 900.082 -2.01533 -3.64267 0
M  V30 9337 H 900.615 -3.17294 -2.39937 0
M  V30 9338 H 897.354 -6.16552 -2.22586 0
M  V30 9339 H 896.874 -4.93181 -3.41368 0
M  V30 9340 H 898.553 -5.52442 -3.36774 0
M  V30 9341 N 898.685 0.775411 -1.37205 0
M  V30 9342 C 899.913 1.56446 -1.35397 0
M  V30 9343 C 900.328 1.887 0.0615437 0
M  V30 9344 O 899.685 1.51178 1.02233 0
M  V30 9345 C 899.736 2.87697 -2.18889 0
M  V30 9346 O 899.457 2.56828 -3.54924 0
M  V30 9347 C 900.958 3.81944 -2.25019 0
M  V30 9348 H 898.178 0.484792 -0.463916 0
M  V30 9349 H 900.722 0.961346 -1.80495 0
M  V30 9350 H 898.877 3.44442 -1.7731 0
M  V30 9351 H 899.291 3.40851 -3.98649 0
M  V30 9352 H 900.765 4.71055 -2.87769 0
M  V30 9353 H 901.242 4.20811 -1.25757 0
M  V30 9354 H 901.848 3.3113 -2.66895 0
M  V30 9355 N 900.163 1.21714 1.00117 0
M  V30 9356 C 901.093 1.00397 2.10815 0
M  V30 9357 C 902.074 -0.0723502 1.69946 0
M  V30 9358 O 903.259 0.0882398 1.93999 0
M  V30 9359 C 900.389 0.572001 3.42557 0
M  V30 9360 C 899.343 1.59331 3.97237 0
M  V30 9361 C 898.669 1.01746 5.2493 0
M  V30 9362 C 899.969 2.98117 4.28863 0
M  V30 9363 H 901.663 1.92983 2.28906 0
M  V30 9364 H 899.209 0.929273 1.10002 0
M  V30 9365 H 901.162 0.410018 4.19401 0
M  V30 9366 H 899.886 -0.38951 3.24269 0
M  V30 9367 H 898.545 1.74293 3.22518 0
M  V30 9368 H 898.193 0.0475491 5.02978 0
M  V30 9369 H 897.893 1.69969 5.62481 0
M  V30 9370 H 899.417 0.866881 6.04415 0
M  V30 9371 H 900.831 2.86578 4.96534 0
M  V30 9372 H 899.228 3.63389 4.77565 0
M  V30 9373 H 900.298 3.48674 3.36979 0
M  V30 9374 N 901.641 -1.19671 1.02551 0
M  V30 9375 C 902.866 -1.93774 0.739363 0
M  V30 9376 C 903.291 -1.74787 -0.695064 0
M  V30 9377 O 902.649 -1.04796 -1.47944 0
M  V30 9378 C 902.697 -3.43684 1.09149 0
M  V30 9379 O 901.801 -4.11874 0.208213 0
M  V30 9380 H 901.142 -0.605064 0.273484 0
M  V30 9381 H 903.672 -1.51846 1.37128 0
M  V30 9382 H 903.682 -3.94339 1.04695 0
M  V30 9383 H 902.357 -3.56826 2.13654 0
M  V30 9384 H 900.934 -3.716 0.311045 0
M  V30 9385 N 903.119 -0.802921 -1.35613 0
M  V30 9386 C 904.067 -0.198783 -2.31749 0
M  V30 9387 C 905.061 0.649416 -1.56458 0
M  V30 9388 O 906.267 0.542989 -1.71615 0
M  V30 9389 H 902.642 -0.0455177 -0.750621 0
M  V30 9390 H 904.613 -1.02479 -2.80251 0
M  V30 9391 C 903.362 0.641066 -3.41739 0
M  V30 9392 H 902.685 -0.00226244 -3.998 0
M  V30 9393 H 904.125 1.03022 -4.11294 0
M  V30 9394 C 902.584 1.80505 -2.84464 0
M  V30 9395 O 903.114 2.90235 -2.77717 0
M  V30 9396 N 901.32 1.61542 -2.41563 0
M  V30 9397 H 900.867 0.722863 -2.4725 0
M  V30 9398 H 900.825 2.39581 -2.03589 0
M  V30 9399 N 904.597 1.47463 -0.556102 0
M  V30 9400 C 905.545 2.31692 0.205299 0
M  V30 9401 C 906.539 1.42857 0.910394 0
M  V30 9402 O 907.745 1.59628 0.831806 0
M  V30 9403 H 904.12 0.747172 0.0850775 0
M  V30 9404 H 906.091 2.93758 -0.524305 0
M  V30 9405 C 904.84 3.25487 1.22283 0
M  V30 9406 H 904.163 3.93806 0.689697 0
M  V30 9407 H 905.603 3.87257 1.7265 0
M  V30 9408 C 904.062 2.48931 2.27013 0
M  V30 9409 O 904.592 2.23296 3.33919 0
M  V30 9410 N 902.798 2.0996 2.00911 0
M  V30 9411 H 902.345 2.31008 1.13986 0
M  V30 9412 H 902.303 1.59053 2.712 0
M  V30 9413 N 906.075 0.2925 1.54862 0
M  V30 9414 C 907.023 -0.603186 2.24643 0
M  V30 9415 C 908.017 -1.1439 1.24946 0
M  V30 9416 O 909.223 -1.09552 1.42823 0
M  V30 9417 H 905.598 -0.213105 0.721173 0
M  V30 9418 H 907.569 0.00799278 2.98399 0
M  V30 9419 C 906.318 -1.76769 2.99413 0
M  V30 9420 H 905.641 -1.36084 3.75927 0
M  V30 9421 H 907.081 -2.37066 3.51533 0
M  V30 9422 C 905.54 -2.66669 2.05886 0
M  V30 9423 O 906.07 -3.67525 1.62136 0
M  V30 9424 N 904.276 -2.34216 1.7202 0
M  V30 9425 H 903.823 -1.52246 2.07795 0
M  V30 9426 H 903.781 -2.94635 1.09717 0
M  V30 9427 N 907.553 -1.57587 0.0200696 0
M  V30 9428 C 908.83 -1.82696 -0.698677 0
M  V30 9429 C 909.21 -0.902082 -1.90855 0
M  V30 9430 O 908.558 0.0444834 -2.28457 0
M  V30 9431 C 908.768 -3.31691 -1.08546 0
M  V30 9432 C 910.116 -3.97938 -1.4809 0
M  V30 9433 O 911.14 -3.36133 -1.17869 0
M  V30 9434 O 909.999 -5.06851 -2.04364 0
M  V30 9435 H 907.093 -0.752997 -0.341942 0
M  V30 9436 H 909.639 -1.69635 0.04706 0
M  V30 9437 H 908.411 -3.90659 -0.223956 0
M  V30 9438 H 908.034 -3.49825 -1.88965 0
M  V30 9439 N 909.032 0.252966 -1.55557 0
M  V30 9440 C 909.995 1.29645 -1.8901 0
M  V30 9441 C 910.995 1.41378 -0.766096 0
M  V30 9442 O 912.185 1.40183 -1.03414 0
M  V30 9443 C 909.317 2.67504 -2.11316 0
M  V30 9444 H 910.51 1.01202 -2.82309 0
M  V30 9445 H 908.063 0.491977 -1.48355 0
M  V30 9446 H 908.798 3.01095 -1.20466 0
M  V30 9447 H 908.583 2.6037 -2.93172 0
M  V30 9448 H 910.073 3.42861 -2.38403 0
M  V30 9449 N 910.51 1.48831 0.518367 0
M  V30 9450 C 911.44 1.67119 1.63075 0
M  V30 9451 C 912.421 0.519948 1.61958 0
M  V30 9452 O 913.606 0.753824 1.78972 0
M  V30 9453 C 910.736 1.72158 3.01627 0
M  V30 9454 C 909.69 2.86898 3.17606 0
M  V30 9455 C 909.016 2.77035 4.57335 0
M  V30 9456 C 910.316 4.28057 2.99274 0
M  V30 9457 H 912.01 2.60248 1.48025 0
M  V30 9458 H 909.556 1.2524 0.710694 0
M  V30 9459 H 911.509 1.83539 3.7933 0
M  V30 9460 H 910.233 0.756157 3.17726 0
M  V30 9461 H 908.892 2.75091 2.42323 0
M  V30 9462 H 908.54 1.78438 4.70286 0
M  V30 9463 H 908.24 3.54036 4.6897 0
M  V30 9464 H 909.764 2.904 5.37122 0
M  V30 9465 H 911.178 4.40636 3.6676 0
M  V30 9466 H 909.575 5.06145 3.22393 0
M  V30 9467 H 910.645 4.4371 1.95574 0
M  V30 9468 N 911.988 -0.768124 1.37614 0
M  V30 9469 C 912.92 -1.89076 1.29548 0
M  V30 9470 C 913.933 -1.61433 0.21056 0
M  V30 9471 O 915.122 -1.72283 0.466992 0
M  V30 9472 C 912.222 -3.24388 0.981102 0
M  V30 9473 C 911.395 -3.79649 2.17222 0
M  V30 9474 C 910.454 -4.93444 1.82754 0
M  V30 9475 O 909.48 -5.0884 2.5509 0
M  V30 9476 N 910.682 -5.75319 0.773819 0
M  V30 9477 H 913.447 -1.9651 2.26283 0
M  V30 9478 H 911.008 -0.947399 1.31286 0
M  V30 9479 H 913 -3.98038 0.731301 0
M  V30 9480 H 911.57 -3.12433 0.102203 0
M  V30 9481 H 910.79 -2.97735 2.58355 0
M  V30 9482 H 912.078 -4.13302 2.96748 0
M  V30 9483 H 911.476 -5.65433 0.173644 0
M  V30 9484 H 910.033 -6.4918 0.583882 0
M  V30 9485 N 913.466 -1.22244 -0.994698 0
M  V30 9486 C 914.715 -1.04005 -1.72817 0
M  V30 9487 C 915.028 0.425413 -1.90918 0
M  V30 9488 O 916.234 0.727429 -2.61574 0
M  V30 9489 C 914.69 -1.81244 -3.10932 0
M  V30 9490 C 914.298 -3.32028 -3.00768 0
M  V30 9491 C 916.042 -1.71448 -3.88337 0
M  V30 9492 C 913.949 -4.01716 -4.34026 0
M  V30 9493 H 912.879 -0.385559 -0.647966 0
M  V30 9494 H 915.53 -1.46077 -1.11058 0
M  V30 9495 H 913.912 -1.3197 -3.73363 0
M  V30 9496 H 915.086 -3.88682 -2.47513 0
M  V30 9497 H 913.401 -3.4248 -2.36846 0
M  V30 9498 H 915.998 -2.20836 -4.86965 0
M  V30 9499 H 916.341 -0.674568 -4.10798 0
M  V30 9500 H 916.874 -2.18256 -3.3258 0
M  V30 9501 H 913.613 -5.05952 -4.16765 0
M  V30 9502 H 913.133 -3.49849 -4.87202 0
M  V30 9503 H 914.812 -4.0721 -5.02782 0
M  V30 9504 N 914.944 1.19125 -1.03184 0
M  V30 9505 C 915.854 2.26112 -0.625329 0
M  V30 9506 C 916.87 1.7056 0.344298 0
M  V30 9507 O 918.046 2.0039 0.20144 0
M  V30 9508 C 915.111 3.46697 0.0145169 0
M  V30 9509 C 914.172 4.17419 -1.00299 0
M  V30 9510 C 913.405 5.32247 -0.393581 0
M  V30 9511 O 913.628 5.64724 0.802659 0
M  V30 9512 O 912.562 5.91428 -1.1179 0
M  V30 9513 H 916.388 2.63131 -1.51643 0
M  V30 9514 H 913.973 1.26036 -0.802197 0
M  V30 9515 H 915.855 4.19762 0.371139 0
M  V30 9516 H 914.53 3.11521 0.879581 0
M  V30 9517 H 913.437 3.4646 -1.41125 0
M  V30 9518 H 914.77 4.56573 -1.83852 0
M  V30 9519 N 916.422 0.810101 1.35185 0
M  V30 9520 C 917.67 0.391343 1.98275 0
M  V30 9521 C 917.991 -1.04592 1.64577 0
M  V30 9522 O 917.261 -1.72417 0.93001 0
M  V30 9523 H 915.841 0.141715 0.733434 0
M  V30 9524 H 918.503 1.03672 1.6504 0
M  V30 9525 H 917.599 0.49991 3.0807 0
M  V30 9526 N 917.9 -1.47166 0.563914 0
M  V30 9527 C 918.83 -2.32894 -0.168148 0
M  V30 9528 C 919.811 -1.44202 -0.902214 0
M  V30 9529 O 920.996 -1.73048 -0.881365 0
M  V30 9530 C 918.126 -3.26116 -1.19439 0
M  V30 9531 C 917.08 -4.24101 -0.576363 0
M  V30 9532 C 916.406 -5.06696 -1.70772 0
M  V30 9533 C 917.706 -5.20142 0.47425 0
M  V30 9534 H 919.4 -2.9435 0.547573 0
M  V30 9535 H 916.946 -1.41545 0.264778 0
M  V30 9536 H 918.899 -3.84935 -1.71474 0
M  V30 9537 H 917.623 -2.62728 -1.94014 0
M  V30 9538 H 916.282 -3.66519 -0.0772534 0
M  V30 9539 H 915.93 -4.39707 -2.44268 0
M  V30 9540 H 915.63 -5.7304 -1.29994 0
M  V30 9541 H 917.154 -5.68375 -2.2312 0
M  V30 9542 H 918.568 -5.73286 0.0397035 0
M  V30 9543 H 916.965 -5.94726 0.801287 0
M  V30 9544 H 918.035 -4.65214 1.36764 0
M  V30 9545 N 919.378 -0.300708 -1.54705 0
M  V30 9546 C 920.326 0.591264 -2.2496 0
M  V30 9547 C 921.32 1.13725 -1.2555 0
M  V30 9548 O 922.526 1.08793 -1.43402 0
M  V30 9549 H 918.901 0.209278 -0.722293 0
M  V30 9550 H 920.872 -0.0238175 -2.9839 0
M  V30 9551 C 919.621 1.75179 -3.00346 0
M  V30 9552 H 918.944 1.34089 -3.76643 0
M  V30 9553 H 920.384 2.35198 -3.52786 0
M  V30 9554 C 918.843 2.65574 -2.07298 0
M  V30 9555 O 919.373 3.6666 -1.64083 0
M  V30 9556 N 917.579 2.33301 -1.7326 0
M  V30 9557 H 917.126 1.51142 -2.08599 0
M  V30 9558 H 917.084 2.94049 -1.11278 0
M  V30 9559 N 920.856 1.57574 -0.0284266 0
M  V30 9560 C 922.102 1.92056 0.651327 0
M  V30 9561 C 922.435 0.905092 1.71819 0
M  V30 9562 O 921.71 -0.0722703 1.94366 0
M  V30 9563 C 921.993 3.37021 1.26841 0
M  V30 9564 C 921.846 4.49304 0.211157 0
M  V30 9565 C 923.165 3.81936 2.18662 0
M  V30 9566 H 920.284 0.698428 0.235304 0
M  V30 9567 H 922.926 1.89807 -0.0855435 0
M  V30 9568 H 921.076 3.39068 1.89644 0
M  V30 9569 H 922.748 4.5939 -0.419379 0
M  V30 9570 H 920.991 4.31317 -0.463445 0
M  V30 9571 H 921.662 5.47764 0.682518 0
M  V30 9572 H 924.138 3.8162 1.65847 0
M  V30 9573 H 923.014 4.84064 2.58792 0
M  V30 9574 H 923.275 3.174 3.07749 0
M  V30 9575 N 922.334 -0.244713 1.55689 0
M  V30 9576 C 923.559 -0.994157 1.8202 0
M  V30 9577 C 923.984 -1.78079 0.60577 0
M  V30 9578 O 923.342 -1.75748 -0.445221 0
M  V30 9579 C 923.39 -1.90599 3.06111 0
M  V30 9580 O 922.494 -2.99804 2.8318 0
M  V30 9581 H 921.835 -0.282767 0.600782 0
M  V30 9582 H 924.365 -0.26504 2.02876 0
M  V30 9583 H 924.375 -2.32023 3.35603 0
M  V30 9584 H 923.05 -1.32763 3.9414 0
M  V30 9585 H 921.627 -2.62493 2.64862 0
M  V30 9586 N 923.813 -1.49104 -0.510467 0
M  V30 9587 C 924.761 -1.65547 -1.63392 0
M  V30 9588 C 925.755 -0.521522 -1.61172 0
M  V30 9589 O 926.961 -0.700865 -1.65795 0
M  V30 9590 H 923.336 -0.521843 -0.541464 0
M  V30 9591 H 925.307 -2.59864 -1.46673 0
M  V30 9592 C 924.056 -1.73051 -3.01577 0
M  V30 9593 H 923.379 -2.59676 -3.03987 0
M  V30 9594 H 924.819 -1.88594 -3.79748 0
M  V30 9595 C 923.278 -0.47328 -3.33559 0
M  V30 9596 O 923.808 0.405239 -3.99651 0
M  V30 9597 N 922.014 -0.339074 -2.88615 0
M  V30 9598 H 921.561 -1.05497 -2.35007 0
M  V30 9599 H 921.519 0.501061 -3.10382 0
M  V30 9600 N 925.291 0.760815 -1.38019 0
M  V30 9601 C 926.568 1.5098 -1.24356 0
M  V30 9602 C 926.948 2.10507 0.158169 0
M  V30 9603 O 926.296 1.96455 1.16695 0
M  V30 9604 C 926.506 2.58195 -2.34811 0
M  V30 9605 C 927.854 3.25297 -2.72886 0
M  V30 9606 O 928.878 2.68496 -2.34069 0
M  V30 9607 O 927.737 4.28018 -3.39799 0
M  V30 9608 H 924.831 0.66921 -0.485888 0
M  V30 9609 H 927.377 0.796844 -1.49828 0
M  V30 9610 H 926.149 2.12406 -3.28633 0
M  V30 9611 H 925.772 3.37079 -2.10864 0
M  V30 9612 N 926.769 1.22769 0.988202 0
M  V30 9613 C 928.018 1.0492 1.72263 0
M  V30 9614 C 928.331 -0.415282 1.91141 0
M  V30 9615 O 929.537 -0.713547 2.61956 0
M  V30 9616 C 927.993 1.82891 3.09966 0
M  V30 9617 C 927.601 3.33618 2.99003 0
M  V30 9618 C 929.345 1.73505 3.87423 0
M  V30 9619 C 927.252 4.04012 4.3189 0
M  V30 9620 H 926.182 0.38899 0.645912 0
M  V30 9621 H 928.833 1.46664 1.10281 0
M  V30 9622 H 927.215 1.33948 3.72658 0
M  V30 9623 H 928.389 3.8999 2.45448 0
M  V30 9624 H 926.704 3.43732 2.35027 0
M  V30 9625 H 929.301 2.23416 4.85787 0
M  V30 9626 H 929.644 0.696344 4.10435 0
M  V30 9627 H 930.177 2.20016 3.31418 0
M  V30 9628 H 926.916 5.08155 4.14075 0
M  V30 9629 H 926.436 3.52428 4.8534 0
M  V30 9630 H 928.115 4.0987 5.00615 0
M  V30 9631 N 928.247 -1.18576 1.03814 0
M  V30 9632 C 929.472 -1.92978 0.759873 0
M  V30 9633 C 929.897 -1.75514 -0.676486 0
M  V30 9634 O 929.255 -1.06359 -1.46824 0
M  V30 9635 C 929.303 -3.42507 1.12788 0
M  V30 9636 O 928.407 -4.1163 0.251886 0
M  V30 9637 H 927.748 -0.602129 0.279886 0
M  V30 9638 H 930.278 -1.50383 1.3873 0
M  V30 9639 H 930.288 -3.93206 1.08872 0
M  V30 9640 H 928.963 -3.5454 2.17427 0
M  V30 9641 H 927.54 -3.7125 0.350441 0
M  V30 9642 N 929.725 -0.817259 -1.34754 0
M  V30 9643 C 930.635 -0.236946 -2.334 0
M  V30 9644 C 931.651 0.625685 -1.62361 0
M  V30 9645 O 932.827 0.534921 -1.94166 0
M  V30 9646 C 929.892 0.596215 -3.41535 0
M  V30 9647 C 928.953 -0.288154 -4.28332 0
M  V30 9648 C 928.186 0.505337 -5.31302 0
M  V30 9649 O 928.409 1.73912 -5.43241 0
M  V30 9650 O 927.343 -0.109374 -6.01801 0
M  V30 9651 H 931.169 -1.05327 -2.84851 0
M  V30 9652 H 928.754 -0.579275 -1.37713 0
M  V30 9653 H 930.636 1.07041 -4.07578 0
M  V30 9654 H 929.311 1.38997 -2.92338 0
M  V30 9655 H 928.218 -0.809724 -3.65232 0
M  V30 9656 H 929.551 -1.04612 -4.80955 0
M  V30 9657 N 931.203 1.46865 -0.571711 0
M  V30 9658 C 932.451 2.0203 -0.0530022 0
M  V30 9659 C 932.772 1.44687 1.30731 0
M  V30 9660 O 932.042 0.627429 1.85581 0
M  V30 9661 H 930.622 0.746815 -0.0166035 0
M  V30 9662 H 933.284 1.80099 -0.745003 0
M  V30 9663 H 932.38 3.12091 0.0242538 0
M  V30 9664 N 932.681 0.308908 1.54543 0
M  V30 9665 C 933.629 -0.579326 2.2527 0
M  V30 9666 C 934.623 -1.13058 1.26152 0
M  V30 9667 O 935.829 -1.08031 1.43977 0
M  V30 9668 H 932.204 -0.205444 0.723392 0
M  V30 9669 H 934.175 0.0396415 2.98374 0
M  V30 9670 C 932.924 -1.73584 3.01271 0
M  V30 9671 H 932.247 -1.32089 3.77349 0
M  V30 9672 H 933.687 -2.33324 3.54028 0
M  V30 9673 C 932.146 -2.6447 2.08703 0
M  V30 9674 O 932.676 -3.65785 1.66025 0
M  V30 9675 N 930.882 -2.32379 1.74495 0
M  V30 9676 H 930.429 -1.50034 2.09398 0
M  V30 9677 H 930.387 -2.93454 1.12836 0
M  V30 9678 N 934.159 -1.57557 0.0367827 0
M  V30 9679 C 935.389 -1.96134 -0.649225 0
M  V30 9680 C 935.797 -0.912279 -1.65753 0
M  V30 9681 O 935.14 0.113569 -1.83349 0
M  V30 9682 C 935.202 -3.30889 -1.40545 0
M  V30 9683 C 934.866 -4.53622 -0.554609 0
M  V30 9684 C 935.863 -5.19611 0.17331 0
M  V30 9685 C 933.548 -4.99907 -0.48976 0
M  V30 9686 C 935.542 -6.3021 0.95467 0
M  V30 9687 C 933.229 -6.10386 0.295299 0
M  V30 9688 C 934.227 -6.75398 1.01621 0
M  V30 9689 O 933.915 -7.83755 1.78839 0
M  V30 9690 H 933.647 -0.650662 -0.183344 0
M  V30 9691 H 936.201 -2.05179 0.0951512 0
M  V30 9692 H 934.431 -3.18356 -2.19513 0
M  V30 9693 H 936.12 -3.54315 -1.9803 0
M  V30 9694 H 936.886 -4.84819 0.132589 0
M  V30 9695 H 932.765 -4.49105 -1.04046 0
M  V30 9696 H 936.309 -6.80886 1.51789 0
M  V30 9697 H 932.206 -6.44616 0.33771 0
M  V30 9698 H 932.974 -8.0046 1.70898 0
M  V30 9699 N 935.637 0.236453 -1.55816 0
M  V30 9700 C 936.883 0.960127 -1.79313 0
M  V30 9701 C 937.238 1.8256 -0.607406 0
M  V30 9702 O 936.531 1.87398 0.399046 0
M  V30 9703 C 936.725 1.84549 -3.06066 0
M  V30 9704 C 936.554 1.06721 -4.36853 0
M  V30 9705 C 935.324 0.76811 -4.99428 0
M  V30 9706 C 937.522 0.439715 -5.12417 0
M  V30 9707 N 935.504 -0.0331365 -6.13891 0
M  V30 9708 C 936.875 -0.225616 -6.19589 0
M  V30 9709 C 938.93 0.351237 -4.9666 0
M  V30 9710 C 937.633 -0.970943 -7.12717 0
M  V30 9711 C 939.659 -0.380585 -5.90174 0
M  V30 9712 C 939.021 -1.03451 -6.96762 0
M  V30 9713 H 935.12 0.332095 -0.707981 0
M  V30 9714 H 937.704 0.232311 -1.93309 0
M  V30 9715 H 935.875 2.54525 -2.93379 0
M  V30 9716 H 937.607 2.50552 -3.17814 0
M  V30 9717 H 934.362 1.08248 -4.61063 0
M  V30 9718 H 934.786 -0.422159 -6.75682 0
M  V30 9719 H 939.428 0.842469 -4.14321 0
M  V30 9720 H 937.146 -1.47374 -7.94548 0
M  V30 9721 H 940.732 -0.449851 -5.80058 0
M  V30 9722 H 939.612 -1.59175 -7.67876 0
M  V30 9723 N 937.115 1.49373 0.502552 0
M  V30 9724 C 938.392 1.49282 1.26389 0
M  V30 9725 C 938.772 0.219674 2.09954 0
M  V30 9726 O 938.12 -0.797991 2.14113 0
M  V30 9727 C 938.33 2.77083 2.12194 0
M  V30 9728 C 939.678 3.26511 2.71433 0
M  V30 9729 O 940.702 2.78189 2.22462 0
M  V30 9730 O 939.561 4.10665 3.60578 0
M  V30 9731 H 936.655 0.597415 0.57186 0
M  V30 9732 H 939.201 1.61634 0.516951 0
M  V30 9733 H 937.973 3.61237 1.50411 0
M  V30 9734 H 937.596 2.67583 2.94084 0
M  V30 9735 N 938.594 -0.753485 1.38421 0
M  V30 9736 C 939.542 -1.8886 1.35774 0
M  V30 9737 C 940.536 -1.67639 0.243608 0
M  V30 9738 O 941.742 -1.75206 0.412649 0
M  V30 9739 H 938.117 -0.62137 0.42356 0
M  V30 9740 H 940.088 -1.88209 2.3156 0
M  V30 9741 C 938.837 -3.26344 1.19979 0
M  V30 9742 H 938.16 -3.43259 2.04971 0
M  V30 9743 H 939.6 -4.06015 1.22181 0
M  V30 9744 C 938.059 -3.36771 -0.0932867 0
M  V30 9745 O 938.589 -3.8718 -1.07027 0
M  V30 9746 N 936.795 -2.90212 -0.150154 0
M  V30 9747 H 936.342 -2.4938 0.645562 0
M  V30 9748 H 936.3 -2.97569 -1.0149 0
M  V30 9749 N 940.072 -1.23292 -0.981677 0
M  V30 9750 C 941.318 -1.06582 -1.72535 0
M  V30 9751 C 941.651 0.396538 -1.90108 0
M  V30 9752 O 940.926 1.29363 -1.45243 0
M  V30 9753 C 941.209 -1.7904 -3.12437 0
M  V30 9754 C 941.062 -3.32941 -3.02441 0
M  V30 9755 C 942.381 -1.55185 -4.11832 0
M  V30 9756 H 939.5 -0.388585 -0.626236 0
M  V30 9757 H 942.142 -1.51779 -1.14293 0
M  V30 9758 H 940.292 -1.40619 -3.62158 0
M  V30 9759 H 941.964 -3.80875 -2.60254 0
M  V30 9760 H 940.207 -3.62039 -2.38977 0
M  V30 9761 H 940.878 -3.78827 -4.0149 0
M  V30 9762 H 943.354 -1.88581 -3.70913 0
M  V30 9763 H 942.23 -2.08362 -5.07815 0
M  V30 9764 H 942.491 -0.486925 -4.3941 0
M  V30 9765 N 941.55 1.18024 -1.04442 0
M  V30 9766 C 942.966 1.40107 -0.76435 0
M  V30 9767 C 943.166 1.90914 0.644516 0
M  V30 9768 O 942.222 2.0959 1.40813 0
M  V30 9769 C 943.535 2.39851 -1.81361 0
M  V30 9770 C 945.083 2.53571 -1.83496 0
M  V30 9771 C 945.558 3.56583 -2.87424 0
M  V30 9772 N 947.049 3.64094 -2.86339 0
M  V30 9773 C 947.784 4.43537 -3.63405 0
M  V30 9774 N 947.28 5.26557 -4.50233 0
M  V30 9775 N 949.073 4.38336 -3.51877 0
M  V30 9776 H 941.224 0.833726 -1.95353 0
M  V30 9777 H 943.487 0.42881 -0.845474 0
M  V30 9778 H 943.193 2.09576 -2.82438 0
M  V30 9779 H 943.067 3.39251 -1.6489 0
M  V30 9780 H 945.454 2.83161 -0.830883 0
M  V30 9781 H 945.535 1.54272 -2.04044 0
M  V30 9782 H 945.179 3.27733 -3.88012 0
M  V30 9783 H 945.109 4.55569 -2.6413 0
M  V30 9784 H 947.6 3.04814 -2.23376 0
M  V30 9785 H 947.913 5.84336 -5.05738 0
M  V30 9786 H 946.258 5.25964 -4.54298 0
M  V30 9787 H 949.449 3.72528 -2.83444 0
M  V30 9788 H 949.622 5.00007 -4.12186 0
M  V30 9789 N 943.028 0.824394 1.34319 0
M  V30 9790 C 943.958 0.262077 2.32025 0
M  V30 9791 C 944.939 -0.622277 1.58309 0
M  V30 9792 O 946.124 -0.548848 1.86283 0
M  V30 9793 C 943.254 -0.57567 3.42496 0
M  V30 9794 C 942.208 0.21167 4.27476 0
M  V30 9795 C 941.534 -0.748913 5.29429 0
M  V30 9796 C 942.834 1.42068 5.02607 0
M  V30 9797 H 944.528 1.07842 2.79304 0
M  V30 9798 H 942.074 0.520022 1.34282 0
M  V30 9799 H 944.027 -0.979251 4.09864 0
M  V30 9800 H 942.751 -1.42508 2.93869 0
M  V30 9801 H 941.41 0.596636 3.61712 0
M  V30 9802 H 941.058 -1.59432 4.77064 0
M  V30 9803 H 940.758 -0.226313 5.87164 0
M  V30 9804 H 942.282 -1.15032 5.99667 0
M  V30 9805 H 943.696 1.09103 5.62823 0
M  V30 9806 H 942.093 1.87903 5.69923 0
M  V30 9807 H 943.163 2.1981 4.32217 0
M  V30 9808 N 944.506 -1.46559 0.579492 0
M  V30 9809 C 945.731 -2.0729 0.0674595 0
M  V30 9810 C 946.156 -1.4259 -1.22677 0
M  V30 9811 O 945.514 -0.50857 -1.74021 0
M  V30 9812 C 945.562 -3.60492 -0.0882227 0
M  V30 9813 O 944.666 -3.96172 -1.14551 0
M  V30 9814 H 944.007 -0.661159 0.0613536 0
M  V30 9815 H 946.537 -1.88247 0.801519 0
M  V30 9816 H 946.547 -4.06929 -0.295411 0
M  V30 9817 H 945.222 -4.06976 0.856943 0
M  V30 9818 H 943.799 -3.61448 -0.917033 0
M  V30 9819 N 945.984 -0.3171 -1.54377 0
M  V30 9820 C 946.947 0.53905 -2.22771 0
M  V30 9821 C 947.947 1.04865 -1.21901 0
M  V30 9822 O 949.137 0.942108 -1.46526 0
M  V30 9823 C 946.269 1.74804 -2.92671 0
M  V30 9824 H 947.462 -0.0587417 -2.99842 0
M  V30 9825 H 945.015 -0.068107 -1.56152 0
M  V30 9826 H 945.75 2.38524 -2.1972 0
M  V30 9827 H 945.535 1.39011 -3.66631 0
M  V30 9828 H 947.025 2.35592 -3.44799 0
M  V30 9829 N 947.462 1.57535 -0.0451378 0
M  V30 9830 C 948.739 1.83785 0.669523 0
M  V30 9831 C 949.119 0.932331 1.89396 0
M  V30 9832 O 948.467 -0.00813229 2.28499 0
M  V30 9833 C 948.677 3.33376 1.03255 0
M  V30 9834 C 950.025 4.00243 1.41741 0
M  V30 9835 O 951.049 3.37965 1.12507 0
M  V30 9836 O 949.908 5.10038 1.96275 0
M  V30 9837 H 947.002 0.758342 0.329919 0
M  V30 9838 H 949.548 1.69538 -0.0740415 0
M  V30 9839 H 948.32 3.90965 0.161777 0
M  V30 9840 H 947.943 3.52787 1.83376 0
M  V30 9841 N 948.94 -0.228186 1.55939 0
M  V30 9842 C 950.188 -0.951668 1.78291 0
M  V30 9843 C 950.509 -1.85132 0.612474 0
M  V30 9844 O 949.779 -1.92356 -0.370942 0
M  V30 9845 H 948.359 -0.354388 0.657585 0
M  V30 9846 H 951.021 -0.241635 1.93396 0
M  V30 9847 H 950.117 -1.56239 2.70177 0
M  V30 9848 N 950.418 -1.49637 -0.494624 0
M  V30 9849 C 951.664 -1.60654 -1.24747 0
M  V30 9850 C 952.019 -0.292376 -1.90166 0
M  V30 9851 O 951.312 0.707918 -1.78042 0
M  V30 9852 C 951.506 -2.70749 -2.33302 0
M  V30 9853 C 951.335 -4.12744 -1.7853 0
M  V30 9854 C 950.105 -4.79451 -1.59546 0
M  V30 9855 C 952.303 -4.97767 -1.29353 0
M  V30 9856 N 950.285 -6.05738 -0.997702 0
M  V30 9857 C 951.656 -6.14587 -0.817517 0
M  V30 9858 C 953.711 -4.83719 -1.17986 0
M  V30 9859 C 952.414 -7.18903 -0.23907 0
M  V30 9860 C 954.44 -5.8819 -0.615375 0
M  V30 9861 C 953.802 -7.04241 -0.149622 0
M  V30 9862 H 949.901 -0.642198 -0.446213 0
M  V30 9863 H 952.485 -1.86668 -0.553469 0
M  V30 9864 H 950.656 -2.46497 -3.00156 0
M  V30 9865 H 952.388 -2.71253 -3.0034 0
M  V30 9866 H 949.143 -4.36354 -1.84098 0
M  V30 9867 H 949.567 -6.73183 -0.717911 0
M  V30 9868 H 954.209 -3.94304 -1.52592 0
M  V30 9869 H 951.927 -8.08012 0.11925 0
M  V30 9870 H 955.513 -5.7938 -0.530114 0
M  V30 9871 H 954.393 -7.83699 0.280349 0
M  V30 9872 N 951.896 0.746133 -1.38819 0
M  V30 9873 C 953.121 1.54049 -1.38866 0
M  V30 9874 C 953.546 1.88092 0.0176624 0
M  V30 9875 O 952.904 1.51113 1.00173 0
M  V30 9876 C 952.952 2.8116 -2.25791 0
M  V30 9877 O 952.056 3.76623 -1.68014 0
M  V30 9878 H 951.397 0.465648 -0.473359 0
M  V30 9879 H 953.927 0.921469 -1.82675 0
M  V30 9880 H 953.937 3.30009 -2.39913 0
M  V30 9881 H 952.612 2.55713 -3.27999 0
M  V30 9882 H 951.189 3.35352 -1.63074 0
M  V30 9883 N 953.375 1.23811 0.975125 0
M  V30 9884 C 954.285 1.0408 2.10249 0
M  V30 9885 C 955.301 -0.0162404 1.73992 0
M  V30 9886 O 956.477 0.180346 2.00591 0
M  V30 9887 C 953.542 0.640013 3.40741 0
M  V30 9888 C 952.603 1.7727 3.90991 0
M  V30 9889 C 951.836 1.39094 5.15256 0
M  V30 9890 O 952.059 0.277483 5.69725 0
M  V30 9891 O 950.993 2.21392 5.59704 0
M  V30 9892 H 954.819 1.98575 2.29786 0
M  V30 9893 H 952.404 1.02563 1.08633 0
M  V30 9894 H 954.286 0.427684 4.19224 0
M  V30 9895 H 952.961 -0.27589 3.22522 0
M  V30 9896 H 951.868 2.03971 3.13602 0
M  V30 9897 H 953.201 2.66711 4.13674 0
M  V30 9898 N 954.853 -1.17469 1.05066 0
M  V30 9899 C 955.801 -2.23495 0.644418 0
M  V30 9900 C 956.795 -1.66081 -0.333685 0
M  V30 9901 O 958.001 -1.78887 -0.199886 0
M  V30 9902 H 954.376 -0.727546 0.190214 0
M  V30 9903 H 956.347 -2.55058 1.5488 0
M  V30 9904 C 955.096 -3.47684 0.0338051 0
M  V30 9905 H 954.419 -3.92167 0.777513 0
M  V30 9906 H 955.859 -4.23464 -0.213086 0
M  V30 9907 C 954.318 -3.14067 -1.21915 0
M  V30 9908 O 954.848 -3.28728 -2.3087 0
M  V30 9909 N 953.054 -2.68304 -1.11631 0
M  V30 9910 H 952.601 -2.56574 -0.229673 0
M  V30 9911 H 952.559 -2.46184 -1.95553 0
M  V30 9912 N 956.331 -0.831506 -1.3388 0
M  V30 9913 C 957.577 -0.424302 -1.98312 0
M  V30 9914 C 957.91 1.01211 -1.65741 0
M  V30 9915 O 957.185 1.70636 -0.933464 0
M  V30 9916 C 957.468 -0.636815 -3.54424 0
M  V30 9917 C 957.321 -2.11997 -3.96708 0
M  V30 9918 C 958.64 -0.0782411 -4.4003 0
M  V30 9919 H 955.759 -0.155637 -0.720379 0
M  V30 9920 H 958.401 -1.04566 -1.58638 0
M  V30 9921 H 956.551 -0.107907 -3.8835 0
M  V30 9922 H 958.223 -2.71317 -3.73075 0
M  V30 9923 H 956.466 -2.60723 -3.46707 0
M  V30 9924 H 957.137 -2.21944 -5.05416 0
M  V30 9925 H 959.613 -0.530243 -4.12708 0
M  V30 9926 H 958.489 -0.256676 -5.483 0
M  V30 9927 H 958.75 1.01745 -4.30233 0
M  V30 9928 N 957.809 1.4625 -0.587256 0
M  V30 9929 C 959.086 1.95599 -0.00750181 0
M  V30 9930 C 959.466 1.52989 1.45457 0
M  V30 9931 O 958.814 0.782731 2.14676 0
M  V30 9932 C 959.024 3.48513 -0.184309 0
M  V30 9933 C 960.372 4.24565 -0.0544972 0
M  V30 9934 O 961.396 3.5602 -0.113378 0
M  V30 9935 O 960.255 5.46445 0.0774075 0
M  V30 9936 H 957.349 0.825649 0.0472495 0
M  V30 9937 H 959.895 1.56512 -0.655893 0
M  V30 9938 H 958.667 3.72428 -1.20053 0
M  V30 9939 H 958.29 3.9444 0.500301 0
M  V30 9940 N 959.287 0.325282 1.54207 0
M  V30 9941 C 960.536 -0.27768 1.99779 0
M  V30 9942 C 960.849 -1.5311 1.21723 0
M  V30 9943 O 962.055 -2.21017 1.57682 0
M  V30 9944 C 960.511 -0.545329 3.55745 0
M  V30 9945 C 960.119 0.691143 4.42637 0
M  V30 9946 C 961.863 -1.10815 4.09781 0
M  V30 9947 C 959.77 0.395302 5.90077 0
M  V30 9948 H 958.7 -0.107536 0.746292 0
M  V30 9949 H 961.351 0.437773 1.78202 0
M  V30 9950 H 959.733 -1.32101 3.73317 0
M  V30 9951 H 960.907 1.46653 4.3684 0
M  V30 9952 H 959.222 1.1743 3.99499 0
M  V30 9953 H 961.819 -1.34414 5.1753 0
M  V30 9954 H 962.162 -2.05806 3.6187 0
M  V30 9955 H 962.695 -0.393608 3.95848 0
M  V30 9956 H 959.434 1.31443 6.42186 0
M  V30 9957 H 958.954 -0.34235 5.98822 0
M  V30 9958 H 960.633 0.00576877 6.47 0
M  V30 9959 N 960.765 -1.57509 0.0534917 0
M  V30 9960 C 961.695 -2.14698 -0.917999 0
M  V30 9961 C 962.676 -1.06924 -1.32292 0
M  V30 9962 O 963.861 -1.34875 -1.39723 0
M  V30 9963 C 960.991 -2.69383 -2.19203 0
M  V30 9964 C 959.945 -3.82161 -1.9271 0
M  V30 9965 C 959.271 -4.23373 -3.26587 0
M  V30 9966 C 960.571 -5.07199 -1.24686 0
M  V30 9967 H 962.265 -2.96125 -0.44165 0
M  V30 9968 H 959.811 -1.42446 -0.210993 0
M  V30 9969 H 961.764 -3.08031 -2.87567 0
M  V30 9970 H 960.488 -1.85151 -2.69048 0
M  V30 9971 H 959.147 -3.43989 -1.26757 0
M  V30 9972 H 958.795 -3.36089 -3.74237 0
M  V30 9973 H 958.495 -4.99385 -3.09658 0
M  V30 9974 H 960.019 -4.64623 -3.96178 0
M  V30 9975 H 961.433 -5.43279 -1.83088 0
M  V30 9976 H 959.83 -5.88369 -1.18076 0
M  V30 9977 H 960.9 -4.84386 -0.223227 0
M  V30 9978 N 962.243 0.219913 -1.56058 0
M  V30 9979 C 963.491 0.942199 -1.78793 0
M  V30 9980 C 963.812 1.84804 -0.622284 0
M  V30 9981 O 963.082 1.9255 0.360735 0
M  V30 9982 H 961.662 0.350895 -0.659455 0
M  V30 9983 H 964.324 0.231376 -1.93522 0
M  V30 9984 H 963.42 1.54804 -2.71002 0
M  V30 9985 N 963.721 1.49897 0.486681 0
M  V30 9986 C 964.684 1.67086 1.56891 0
M  V30 9987 C 965.684 0.54209 1.51387 0
M  V30 9988 O 966.874 0.80883 1.54284 0
M  V30 9989 C 964.006 1.68159 2.96539 0
M  V30 9990 H 965.199 2.63626 1.42974 0
M  V30 9991 H 962.752 1.39143 0.711954 0
M  V30 9992 H 963.487 0.732562 3.15918 0
M  V30 9993 H 963.272 2.50147 3.01942 0
M  V30 9994 H 964.762 1.83466 3.7514 0
M  V30 9995 N 965.199 -0.738761 1.39212 0
M  V30 9996 C 966.427 -1.52801 1.39497 0
M  V30 9997 C 966.842 -1.88797 -0.0114917 0
M  V30 9998 O 966.199 -1.53835 -0.981887 0
M  V30 9999 C 966.25 -2.81793 2.2644 0
M  V30 10000 O 965.971 -2.47328 3.61608 0
M  V30 10001 C 967.472 -3.75844 2.35067 0
M  V30 10002 H 964.692 -0.472322 0.476606 0
M  V30 10003 H 967.236 -0.913153 1.8298 0
M  V30 10004 H 965.391 -3.3962 1.8638 0
M  V30 10005 H 965.805 -3.30162 4.07545 0
M  V30 10006 H 967.279 -4.6326 3.00157 0
M  V30 10007 H 967.756 -4.17329 1.3687 0
M  V30 10008 H 968.362 -3.23937 2.75581 0
M  V30 10009 N 966.677 -1.24326 -0.968545 0
M  V30 10010 C 967.587 -1.05194 -2.09694 0
M  V30 10011 C 968.603 0.00701291 -1.73999 0
M  V30 10012 O 969.779 -0.190981 -2.00492 0
M  V30 10013 C 966.844 -0.658075 -3.40397 0
M  V30 10014 C 965.905 -1.79341 -3.90045 0
M  V30 10015 C 965.138 -1.41824 -5.14511 0
M  V30 10016 O 965.361 -0.307693 -5.69569 0
M  V30 10017 O 964.295 -2.24358 -5.58522 0
M  V30 10018 H 968.121 -1.99791 -2.2873 0
M  V30 10019 H 965.706 -1.03138 -1.08088 0
M  V30 10020 H 967.588 -0.449911 -4.18991 0
M  V30 10021 H 966.263 0.258782 -3.22664 0
M  V30 10022 H 965.17 -2.05632 -3.12516 0
M  V30 10023 H 966.503 -2.68901 -4.12254 0
M  V30 10024 N 968.156 1.1691 -1.05688 0
M  V30 10025 C 969.086 2.23275 -0.683402 0
M  V30 10026 C 970.067 1.6704 0.321206 0
M  V30 10027 O 971.252 1.93191 0.197691 0
M  V30 10028 C 968.382 3.47244 -0.0626006 0
M  V30 10029 C 967.336 4.16333 -0.992513 0
M  V30 10030 C 966.662 5.34182 -0.23533 0
M  V30 10031 C 967.962 4.68002 -2.31886 0
M  V30 10032 H 969.656 2.54771 -1.57264 0
M  V30 10033 H 967.202 1.2246 -0.757606 0
M  V30 10034 H 969.155 4.20874 0.210503 0
M  V30 10035 H 967.879 3.1503 0.861616 0
M  V30 10036 H 966.538 3.44622 -1.25026 0
M  V30 10037 H 966.186 4.9822 0.69181 0
M  V30 10038 H 965.886 5.81346 -0.855002 0
M  V30 10039 H 967.41 6.10592 0.0303717 0
M  V30 10040 H 968.824 5.33244 -2.10531 0
M  V30 10041 H 967.221 5.25764 -2.89296 0
M  V30 10042 H 968.291 3.84541 -2.95391 0
M  V30 10043 N 969.634 0.838594 1.33437 0
M  V30 10044 C 970.862 0.447644 2.01999 0
M  V30 10045 C 971.277 -0.951053 1.63096 0
M  V30 10046 O 970.634 -1.61802 0.844169 0
M  V30 10047 C 970.685 0.558378 3.57162 0
M  V30 10048 O 970.406 1.90196 3.94661 0
M  V30 10049 C 971.907 0.164348 4.42995 0
M  V30 10050 H 969.127 0.177736 0.647032 0
M  V30 10051 H 971.671 1.13109 1.70372 0
M  V30 10052 H 969.826 -0.0771563 3.87323 0
M  V30 10053 H 970.24 1.88729 4.89369 0
M  V30 10054 H 971.714 0.292876 5.51222 0
M  V30 10055 H 972.191 -0.893713 4.30011 0
M  V30 10056 H 972.797 0.774306 4.18192 0
M  V30 10057 N 971.112 -1.45937 0.595003 0
M  V30 10058 C 972.361 -2.01529 0.0829531 0
M  V30 10059 C 972.674 -1.47071 -1.28955 0
M  V30 10060 O 973.88 -1.94561 -1.89363 0
M  V30 10061 C 972.336 -3.59767 0.0976597 0
M  V30 10062 C 971.944 -4.23223 1.46924 0
M  V30 10063 C 973.688 -4.22972 -0.359805 0
M  V30 10064 C 971.595 -5.73576 1.44101 0
M  V30 10065 H 970.525 -0.753508 0.0272425 0
M  V30 10066 H 973.176 -1.67541 0.748473 0
M  V30 10067 H 971.558 -3.90888 -0.634268 0
M  V30 10068 H 972.732 -4.03695 2.22187 0
M  V30 10069 H 971.047 -3.72161 1.86775 0
M  V30 10070 H 973.644 -5.33202 -0.39991 0
M  V30 10071 H 973.987 -3.92765 -1.37991 0
M  V30 10072 H 974.52 -3.96523 0.31845 0
M  V30 10073 H 971.259 -6.08462 2.43831 0
M  V30 10074 H 970.779 -5.95332 0.730767 0
M  V30 10075 H 972.458 -6.36531 1.1592 0
M  V30 10076 N 972.59 -0.333456 -1.54032 0
M  V30 10077 C 973.867 0.320902 -1.9295 0
M  V30 10078 C 974.247 1.69071 -1.26405 0
M  V30 10079 O 973.595 2.24768 -0.411311 0
M  V30 10080 C 973.805 0.403257 -3.46662 0
M  V30 10081 C 975.153 0.658875 -4.19457 0
M  V30 10082 O 976.177 0.485781 -3.52872 0
M  V30 10083 O 975.036 0.993475 -5.37394 0
M  V30 10084 H 972.13 0.185158 -0.806006 0
M  V30 10085 H 974.676 -0.383895 -1.65301 0
M  V30 10086 H 973.448 -0.558409 -3.87295 0
M  V30 10087 H 973.071 1.15524 -3.80447 0
M  V30 10088 N 974.068 1.57479 -0.061844 0
M  V30 10089 C 975.314 1.93395 0.610443 0
M  V30 10090 C 975.647 0.941334 1.6986 0
M  V30 10091 O 974.922 -0.0310262 1.94475 0
M  V30 10092 C 975.205 3.39636 1.19664 0
M  V30 10093 C 975.058 4.49651 0.115805 0
M  V30 10094 C 976.377 3.86488 2.10512 0
M  V30 10095 H 973.496 0.703262 0.220436 0
M  V30 10096 H 976.138 1.89583 -0.125785 0
M  V30 10097 H 974.288 3.43015 1.82409 0
M  V30 10098 H 975.96 4.58397 -0.516728 0
M  V30 10099 H 974.203 4.30237 -0.55483 0
M  V30 10100 H 974.874 5.49089 0.566176 0
M  V30 10101 H 977.35 3.85052 1.57715 0
M  V30 10102 H 976.226 4.89444 2.48466 0
M  V30 10103 H 976.487 3.23856 3.00948 0
M  V30 10104 N 975.546 -0.211634 1.56173 0
M  V30 10105 C 976.795 -0.932647 1.78842 0
M  V30 10106 C 977.108 -1.85103 0.63217 0
M  V30 10107 O 978.314 -2.61143 0.742746 0
M  V30 10108 C 976.77 -1.70866 3.16753 0
M  V30 10109 C 976.378 -0.835934 4.40132 0
M  V30 10110 C 978.122 -2.4203 3.48743 0
M  V30 10111 C 976.029 -1.60987 5.69067 0
M  V30 10112 H 974.959 -0.351983 0.666801 0
M  V30 10113 H 977.61 -0.186284 1.82552 0
M  V30 10114 H 975.992 -2.4983 3.07247 0
M  V30 10115 H 977.166 -0.0861298 4.60719 0
M  V30 10116 H 975.481 -0.235941 4.15731 0
M  V30 10117 H 978.078 -3.00453 4.42303 0
M  V30 10118 H 978.421 -3.15406 2.71707 0
M  V30 10119 H 978.954 -1.70048 3.59623 0
M  V30 10120 H 975.693 -0.9192 6.49023 0
M  V30 10121 H 975.213 -2.33403 5.52524 0
M  V30 10122 H 976.892 -2.16798 6.09596 0
M  V30 10123 N 977.024 -1.50153 -0.478725 0
M  V30 10124 C 978.27 -1.60998 -1.23318 0
M  V30 10125 C 978.603 -0.305868 -1.91776 0
M  V30 10126 O 977.878 0.692158 -1.81767 0
M  V30 10127 C 978.161 -2.78495 -2.28282 0
M  V30 10128 C 978.014 -4.18767 -1.64178 0
M  V30 10129 C 979.333 -2.91569 -3.2966 0
M  V30 10130 H 976.452 -0.585983 -0.446982 0
M  V30 10131 H 979.094 -1.82514 -0.528063 0
M  V30 10132 H 977.244 -2.60281 -2.8842 0
M  V30 10133 H 978.916 -4.48552 -1.07696 0
M  V30 10134 H 977.159 -4.23379 -0.94514 0
M  V30 10135 H 977.83 -4.96894 -2.40417 0
M  V30 10136 H 980.306 -3.08219 -2.79536 0
M  V30 10137 H 979.182 -3.75419 -4.0044 0
M  V30 10138 H 979.443 -2.01859 -3.93326 0
M  V30 10139 N 978.502 0.731368 -1.39602 0
M  V30 10140 C 979.412 1.87579 -1.40894 0
M  V30 10141 C 980.428 1.71336 -0.303319 0
M  V30 10142 O 981.604 1.93875 -0.545377 0
M  V30 10143 C 978.669 3.23211 -1.25442 0
M  V30 10144 C 977.73 3.51822 -2.46008 0
M  V30 10145 C 976.963 4.80982 -2.31284 0
M  V30 10146 O 977.186 5.54958 -1.31824 0
M  V30 10147 O 976.12 5.09574 -3.20341 0
M  V30 10148 H 979.946 1.89444 -2.3737 0
M  V30 10149 H 977.531 0.879675 -1.20756 0
M  V30 10150 H 979.413 4.04257 -1.18972 0
M  V30 10151 H 978.088 3.22108 -0.320637 0
M  V30 10152 H 976.995 2.70847 -2.58055 0
M  V30 10153 H 978.328 3.57707 -3.38093 0
M  V30 10154 N 979.98 1.24838 0.961938 0
M  V30 10155 C 980.89 1.06304 2.09133 0
M  V30 10156 C 981.906 0.00221475 1.74 0
M  V30 10157 O 983.082 0.201611 2.00388 0
M  V30 10158 C 980.147 0.676117 3.40043 0
M  V30 10159 C 979.208 1.81407 3.89089 0
M  V30 10160 C 978.441 1.44551 5.13752 0
M  V30 10161 O 978.664 0.337894 5.69398 0
M  V30 10162 O 977.598 2.27316 5.57325 0
M  V30 10163 H 981.424 2.01001 2.27667 0
M  V30 10164 H 979.009 1.0371 1.07539 0
M  V30 10165 H 980.891 0.472124 4.18747 0
M  V30 10166 H 979.566 -0.241667 3.22797 0
M  V30 10167 H 978.473 2.07286 3.11421 0
M  V30 10168 H 979.806 2.71083 4.10822 0
M  V30 10169 N 981.458 -1.16348 1.06306 0
M  V30 10170 C 982.869 -1.68491 0.80422 0
M  V30 10171 C 983.22 -1.84327 -0.672159 0
M  V30 10172 O 982.345 -1.53892 -1.52139 0
M  V30 10173 C 982.94 -3.06048 1.45328 0
M  V30 10174 C 981.499 -3.55311 1.24221 0
M  V30 10175 C 980.646 -2.31291 1.5297 0
M  V30 10176 H 983.597 -1.00708 1.22652 0
M  V30 10177 H 983.618 -3.70451 0.868674 0
M  V30 10178 H 983.13 -2.9449 2.52779 0
M  V30 10179 H 981.231 -3.72128 0.187447 0
M  V30 10180 H 981.344 -4.37397 1.95502 0
M  V30 10181 H 979.708 -2.3631 0.950241 0
M  V30 10182 H 980.491 -2.22331 2.6158 0
M  V30 10183 N 982.937 -0.845659 -1.3299 0
M  V30 10184 C 984.165 -0.45835 -2.01759 0
M  V30 10185 C 984.58 0.94239 -1.63598 0
M  V30 10186 O 983.937 1.61353 -0.852738 0
M  V30 10187 C 983.988 -0.577311 -3.5686 0
M  V30 10188 O 983.709 -1.92287 -3.93646 0
M  V30 10189 C 985.21 -0.187839 -4.42902 0
M  V30 10190 H 982.43 -0.181165 -0.646081 0
M  V30 10191 H 984.974 -1.14011 -1.6977 0
M  V30 10192 H 983.129 0.0566146 -3.87359 0
M  V30 10193 H 983.543 -1.91322 -4.88361 0
M  V30 10194 H 985.017 -0.322105 -5.51059 0
M  V30 10195 H 985.494 0.870896 -4.30479 0
M  V30 10196 H 986.1 -0.796473 -4.17776 0
M  V30 10197 N 984.415 1.45619 -0.602734 0
M  V30 10198 C 985.643 2.06647 -0.102253 0
M  V30 10199 C 986.058 1.4482 1.21131 0
M  V30 10200 O 985.415 0.560621 1.73676 0
M  V30 10201 C 985.466 3.61467 0.0490113 0
M  V30 10202 O 985.187 4.20985 -1.21257 0
M  V30 10203 C 986.688 4.39469 0.581517 0
M  V30 10204 H 983.908 0.667685 -0.0666155 0
M  V30 10205 H 986.452 1.86939 -0.829091 0
M  V30 10206 H 984.607 3.80534 0.726153 0
M  V30 10207 H 985.021 5.14103 -1.03915 0
M  V30 10208 H 986.495 5.48318 0.636462 0
M  V30 10209 H 986.972 4.0891 1.60277 0
M  V30 10210 H 987.578 4.25256 -0.061419 0
M  V30 10211 N 985.893 0.34162 1.53853 0
M  V30 10212 C 987.139 -0.255862 2.01179 0
M  V30 10213 C 987.472 -1.50356 1.22909 0
M  V30 10214 O 986.747 -1.91913 0.316198 0
M  V30 10215 C 987.03 -0.571934 3.55529 0
M  V30 10216 C 986.883 0.687727 4.44511 0
M  V30 10217 C 988.202 -1.38233 4.17827 0
M  V30 10218 H 985.321 -0.091521 0.731295 0
M  V30 10219 H 987.963 0.461775 1.84303 0
M  V30 10220 H 986.113 -1.18331 3.70041 0
M  V30 10221 H 987.785 1.32572 4.4184 0
M  V30 10222 H 986.028 1.313 4.13452 0
M  V30 10223 H 986.699 0.421858 5.50386 0
M  V30 10224 H 989.175 -0.865374 4.07002 0
M  V30 10225 H 988.051 -1.57223 5.25901 0
M  V30 10226 H 988.312 -2.38386 3.72323 0
M  V30 10227 N 987.371 -1.57444 0.0701946 0
M  V30 10228 C 988.596 -1.98171 -0.61181 0
M  V30 10229 C 989.021 -0.94823 -1.62451 0
M  V30 10230 O 988.379 0.0863553 -1.81094 0
M  V30 10231 C 988.427 -3.37934 -1.2583 0
M  V30 10232 O 987.531 -3.37207 -2.37414 0
M  V30 10233 H 986.872 -0.645056 -0.157477 0
M  V30 10234 H 989.402 -2.04091 0.144235 0
M  V30 10235 H 989.412 -3.75083 -1.60552 0
M  V30 10236 H 988.087 -4.12684 -0.516234 0
M  V30 10237 H 986.664 -3.11826 -2.04497 0
M  V30 10238 N 988.849 0.203349 -1.56283 0
M  V30 10239 C 990.098 0.92315 -1.79334 0
M  V30 10240 C 990.411 1.84765 -0.641977 0
M  V30 10241 O 991.617 2.60745 -0.756584 0
M  V30 10242 C 990.073 1.69184 -3.17655 0
M  V30 10243 C 989.681 0.812581 -4.40569 0
M  V30 10244 C 991.425 2.40177 -3.50022 0
M  V30 10245 C 989.332 1.57967 -5.69913 0
M  V30 10246 H 988.262 0.348442 -0.668659 0
M  V30 10247 H 990.913 0.1766 -1.82648 0
M  V30 10248 H 989.295 2.48197 -3.08568 0
M  V30 10249 H 990.469 0.0616956 -4.60759 0
M  V30 10250 H 988.784 0.21389 -4.1585 0
M  V30 10251 H 991.381 2.98103 -4.4389 0
M  V30 10252 H 991.724 3.13961 -2.73376 0
M  V30 10253 H 992.257 1.68138 -3.6052 0
M  V30 10254 H 988.996 0.884767 -6.49501 0
M  V30 10255 H 988.516 2.3047 -5.53754 0
M  V30 10256 H 990.195 2.13562 -6.10737 0
M  V30 10257 N 990.327 1.50405 0.470755 0
M  V30 10258 C 991.29 1.68741 1.5511 0
M  V30 10259 C 992.29 0.558116 1.50804 0
M  V30 10260 O 993.48 0.825149 1.53418 0
M  V30 10261 C 990.612 1.71295 2.94739 0
M  V30 10262 H 991.805 2.65127 1.40169 0
M  V30 10263 H 989.358 1.39891 0.697156 0
M  V30 10264 H 990.093 0.766029 3.15123 0
M  V30 10265 H 989.878 2.53336 2.99271 0
M  V30 10266 H 991.368 1.87434 3.73173 0
M  V30 10267 N 991.805 -0.723954 1.39988 0
M  V30 10268 C 992.768 -1.81973 1.3935 0
M  V30 10269 C 993.768 -1.58187 0.288702 0
M  V30 10270 O 994.958 -1.65383 0.547181 0
M  V30 10271 C 992.09 -3.19937 1.177 0
M  V30 10272 H 993.283 -1.83939 2.36868 0
M  V30 10273 H 990.836 -0.928742 1.25714 0
M  V30 10274 H 991.571 -3.23625 0.209093 0
M  V30 10275 H 991.356 -3.386 1.97719 0
M  V30 10276 H 992.846 -3.99981 1.20022 0
M  V30 10277 N 993.283 -1.25346 -0.955304 0
M  V30 10278 C 994.532 -1.0945 -1.69421 0
M  V30 10279 C 994.845 0.364459 -1.92175 0
M  V30 10280 O 996.051 0.643843 -2.63755 0
M  V30 10281 C 994.507 -1.91045 -3.05008 0
M  V30 10282 C 994.115 -3.41428 -2.90053 0
M  V30 10283 C 995.859 -1.83716 -3.82686 0
M  V30 10284 C 993.766 -4.1532 -4.21026 0
M  V30 10285 H 992.696 -0.405978 -0.635372 0
M  V30 10286 H 995.347 -1.49536 -1.06354 0
M  V30 10287 H 993.729 -1.43781 -3.68975 0
M  V30 10288 H 994.903 -3.9636 -2.35022 0
M  V30 10289 H 993.218 -3.49842 -2.25831 0
M  V30 10290 H 995.815 -2.36217 -4.79693 0
M  V30 10291 H 996.158 -0.804919 -4.08444 0
M  V30 10292 H 996.691 -2.28726 -3.25468 0
M  V30 10293 H 993.43 -5.18955 -4.00457 0
M  V30 10294 H 992.95 -3.65172 -4.75825 0
M  V30 10295 H 994.629 -4.22999 -4.89572 0
M  V30 10296 N 994.761 1.15782 -1.06922 0
M  V30 10297 C 996.172 1.68062 -0.813144 0
M  V30 10298 C 996.523 1.84681 0.662374 0
M  V30 10299 O 995.648 1.54696 1.51321 0
M  V30 10300 C 996.243 3.05273 -1.46949 0
M  V30 10301 C 994.802 3.54647 -1.26104 0
M  V30 10302 C 993.949 2.30477 -1.54194 0
M  V30 10303 H 996.9 1.00056 -1.23185 0
M  V30 10304 H 996.921 3.69986 -0.888308 0
M  V30 10305 H 996.433 2.93145 -2.54337 0
M  V30 10306 H 994.534 3.72024 -0.20718 0
M  V30 10307 H 994.647 4.36354 -1.97819 0
M  V30 10308 H 993.011 2.35803 -0.96276 0
M  V30 10309 H 993.794 2.2094 -2.62755 0
M  V30 10310 N 996.239 0.8527 1.3254 0
M  V30 10311 C 997.171 0.253181 2.27797 0
M  V30 10312 C 998.184 -0.573977 1.52346 0
M  V30 10313 O 999.373 -0.398786 1.73988 0
M  V30 10314 C 996.473 -0.661034 3.32391 0
M  V30 10315 C 995.646 0.12984 4.37207 0
M  V30 10316 C 994.705 -0.709837 5.2139 0
M  V30 10317 O 993.731 -0.144056 5.69018 0
M  V30 10318 N 994.933 -2.0249 5.44039 0
M  V30 10319 H 997.698 1.07171 2.79883 0
M  V30 10320 H 995.259 0.712491 1.45379 0
M  V30 10321 H 997.251 -1.22806 3.85617 0
M  V30 10322 H 995.821 -1.38025 2.80478 0
M  V30 10323 H 995.041 0.878289 3.84291 0
M  V30 10324 H 996.329 0.673141 5.04328 0
M  V30 10325 H 995.727 -2.50792 5.0707 0
M  V30 10326 H 994.284 -2.5401 6.00269 0
M  V30 10327 N 997.718 -1.45297 0.610449 0
M  V30 10328 C 998.966 -2.01819 0.106548 0
M  V30 10329 C 999.287 -1.48102 -1.26849 0
M  V30 10330 O 998.557 -0.676411 -1.83852 0
M  V30 10331 H 997.137 -0.746113 0.0363982 0
M  V30 10332 H 999.799 -1.78061 0.792491 0
M  V30 10333 H 998.895 -3.12045 0.0585 0
M  V30 10334 N 999.196 -0.349774 -1.5367 0
M  V30 10335 C 1000.61 0.132815 -1.86227 0
M  V30 10336 C 1000.96 1.49479 -1.27084 0
M  V30 10337 O 1000.08 2.08292 -0.58679 0
M  V30 10338 C 1000.68 0.247775 -3.37893 0
M  V30 10339 C 999.237 0.674603 -3.70305 0
M  V30 10340 C 998.384 -0.187869 -2.76663 0
M  V30 10341 H 1001.33 -0.569148 -1.48143 0
M  V30 10342 H 1001.36 1.07418 -3.65023 0
M  V30 10343 H 1000.87 -0.743635 -3.80909 0
M  V30 10344 H 998.969 1.67481 -3.32837 0
M  V30 10345 H 999.082 0.460177 -4.76885 0
M  V30 10346 H 997.446 0.340779 -2.5241 0
M  V30 10347 H 998.229 -1.17653 -3.2251 0
M  V30 10348 N 1000.67 1.57404 -0.0785433 0
M  V30 10349 C 1001.64 2.11977 0.871693 0
M  V30 10350 C 1002.64 1.04529 1.2219 0
M  V30 10351 O 1003.83 1.30488 1.15406 0
M  V30 10352 C 1000.96 2.6267 2.17296 0
M  V30 10353 H 1002.15 2.97246 0.398115 0
M  V30 10354 H 999.705 1.5537 0.170251 0
M  V30 10355 H 1000.44 1.80873 2.69175 0
M  V30 10356 H 1000.22 3.41214 1.93171 0
M  V30 10357 H 1001.71 3.04943 2.85306 0
M  V30 10358 N 1002.15 -0.195058 1.56388 0
M  V30 10359 C 1003.11 -1.2254 1.93692 0
M  V30 10360 C 1004.11 -1.38437 0.81804 0
M  V30 10361 O 1005.3 -1.36248 1.08545 0
M  V30 10362 C 1002.44 -2.59476 2.21099 0
M  V30 10363 H 1003.63 -0.906544 2.8587 0
M  V30 10364 H 1001.18 -0.436577 1.50079 0
M  V30 10365 H 1001.92 -2.96417 1.31558 0
M  V30 10366 H 1001.7 -2.4931 3.02634 0
M  V30 10367 H 1003.19 -3.33777 2.50964 0
M  V30 10368 N 1003.63 -1.50653 -0.462772 0
M  V30 10369 C 1004.88 -1.61737 -1.21184 0
M  V30 10370 C 1005.2 -0.32369 -1.92295 0
M  V30 10371 O 1004.47 0.659269 -1.84473 0
M  V30 10372 H 1003.05 -0.596015 -0.450306 0
M  V30 10373 H 1005.71 -1.87469 -0.533051 0
M  V30 10374 H 1004.81 -2.43262 -1.95525 0
M  V30 10375 N 1005.11 0.71652 -1.4037 0
M  V30 10376 C 1006.35 1.47736 -1.39805 0
M  V30 10377 C 1006.71 1.924 0.000340438 0
M  V30 10378 O 1006 1.652 0.970547 0
M  V30 10379 C 1006.2 2.71777 -2.32103 0
M  V30 10380 C 1006.03 2.39245 -3.80778 0
M  V30 10381 C 1004.8 2.30632 -4.49597 0
M  V30 10382 C 1006.99 2.03576 -4.72294 0
M  V30 10383 N 1004.98 1.90764 -5.83509 0
M  V30 10384 C 1006.35 1.74302 -5.94995 0
M  V30 10385 C 1008.4 1.90204 -4.60138 0
M  V30 10386 C 1007.1 1.33001 -7.06897 0
M  V30 10387 C 1009.13 1.50307 -5.71981 0
M  V30 10388 C 1008.49 1.2193 -6.93767 0
M  V30 10389 H 1004.59 0.538721 -0.566836 0
M  V30 10390 H 1007.18 0.831018 -1.76074 0
M  V30 10391 H 1005.35 3.34163 -1.97963 0
M  V30 10392 H 1007.08 3.38112 -2.22402 0
M  V30 10393 H 1003.83 2.48341 -4.03266 0
M  V30 10394 H 1004.26 1.73372 -6.54424 0
M  V30 10395 H 1008.9 2.10805 -3.66499 0
M  V30 10396 H 1006.62 1.11143 -8.0042 0
M  V30 10397 H 1010.2 1.4054 -5.6457 0
M  V30 10398 H 1009.08 0.915214 -7.78841 0
M  V30 10399 N 1006.59 1.25851 0.948643 0
M  V30 10400 C 1007.55 1.0683 2.0278 0
M  V30 10401 C 1008.55 0.0191016 1.60789 0
M  V30 10402 O 1009.74 0.261836 1.72221 0
M  V30 10403 C 1006.87 0.623318 3.35153 0
M  V30 10404 H 1008.06 2.02635 2.21086 0
M  V30 10405 H 1005.62 1.08343 1.12657 0
M  V30 10406 H 1006.35 -0.337053 3.22544 0
M  V30 10407 H 1006.14 1.38082 3.66982 0
M  V30 10408 H 1007.63 0.511854 4.14451 0
M  V30 10409 N 1008.06 -1.15214 1.07534 0
M  V30 10410 C 1009.01 -2.22078 0.69168 0
M  V30 10411 C 1010.01 -1.66751 -0.298382 0
M  V30 10412 O 1011.21 -1.7927 -0.161897 0
M  V30 10413 H 1007.59 -0.723347 0.205604 0
M  V30 10414 H 1009.56 -2.51716 1.60256 0
M  V30 10415 C 1008.31 -3.47534 0.107546 0
M  V30 10416 H 1007.63 -3.90429 0.860522 0
M  V30 10417 H 1009.07 -4.23821 -0.123215 0
M  V30 10418 C 1007.53 -3.16583 -1.15226 0
M  V30 10419 O 1008.06 -3.33551 -2.23845 0
M  V30 10420 N 1006.27 -2.70611 -1.05915 0
M  V30 10421 H 1005.81 -2.57004 -0.175198 0
M  V30 10422 H 1005.77 -2.50277 -1.90287 0
M  V30 10423 N 1009.54 -0.859717 -1.32086 0
M  V30 10424 C 1010.95 -0.519529 -1.79326 0
M  V30 10425 C 1011.3 0.96295 -1.70944 0
M  V30 10426 O 1010.43 1.75139 -1.27104 0
M  V30 10427 C 1011.02 -0.936267 -3.25606 0
M  V30 10428 C 1009.58 -0.647899 -3.70782 0
M  V30 10429 C 1008.73 -1.13323 -2.53087 0
M  V30 10430 H 1011.68 -1.04643 -1.19312 0
M  V30 10431 H 1011.7 -0.254714 -3.79646 0
M  V30 10432 H 1011.21 -2.01527 -3.31675 0
M  V30 10433 H 1009.32 0.420172 -3.70223 0
M  V30 10434 H 1009.43 -1.21774 -4.63366 0
M  V30 10435 H 1007.79 -0.553325 -2.48617 0
M  V30 10436 H 1008.58 -2.21945 -2.61907 0
M  V30 10437 N 1011.02 1.44971 -0.618145 0
M  V30 10438 C 1012.25 2.06527 -0.124165 0
M  V30 10439 C 1012.66 1.46097 1.19588 0
M  V30 10440 O 1012.02 0.57901 1.73071 0
M  V30 10441 C 1012.07 3.61498 0.0106701 0
M  V30 10442 O 1011.79 4.19675 -1.25716 0
M  V30 10443 C 1013.29 4.40061 0.534872 0
M  V30 10444 H 1010.51 0.666941 -0.0736935 0
M  V30 10445 H 1013.06 1.8605 -0.848871 0
M  V30 10446 H 1011.21 3.81282 0.685752 0
M  V30 10447 H 1011.63 5.12972 -1.09362 0
M  V30 10448 H 1013.1 5.48963 0.57827 0
M  V30 10449 H 1013.58 4.10587 1.55931 0
M  V30 10450 H 1014.18 4.25167 -0.10652 0
M  V30 10451 N 1012.5 0.357919 1.53482 0
M  V30 10452 C 1013.91 0.00655107 1.59599 0
M  V30 10453 C 1014.11 -1.47449 1.37336 0
M  V30 10454 O 1013.17 -2.2351 1.17472 0
M  V30 10455 C 1014.48 0.455617 2.97228 0
M  V30 10456 C 1016.03 0.409183 3.10314 0
M  V30 10457 C 1016.51 0.833941 4.50344 0
M  V30 10458 N 1018 0.788695 4.56436 0
M  V30 10459 C 1018.73 1.08914 5.62961 0
M  V30 10460 N 1018.23 1.45847 6.77274 0
M  V30 10461 N 1020.02 1.01243 5.52907 0
M  V30 10462 H 1012.17 1.32248 1.66206 0
M  V30 10463 H 1014.44 0.540047 0.779136 0
M  V30 10464 H 1014.14 1.48881 3.18634 0
M  V30 10465 H 1014.02 -0.161751 3.76853 0
M  V30 10466 H 1016.4 -0.614863 2.88623 0
M  V30 10467 H 1016.48 1.06195 2.32715 0
M  V30 10468 H 1016.13 1.85607 4.72771 0
M  V30 10469 H 1016.06 0.158507 5.26361 0
M  V30 10470 H 1018.55 0.516497 3.74354 0
M  V30 10471 H 1018.86 1.67218 7.54492 0
M  V30 10472 H 1017.21 1.49705 6.78685 0
M  V30 10473 H 1020.4 0.723137 4.62481 0
M  V30 10474 H 1020.57 1.24991 6.35831 0
M  V30 10475 N 1013.98 -1.5736 0.0868897 0
M  V30 10476 C 1014.94 -2.12436 -0.860439 0
M  V30 10477 C 1015.94 -1.05175 -1.21634 0
M  V30 10478 O 1017.13 -1.31098 -1.14713 0
M  V30 10479 C 1014.26 -2.63818 -2.159 0
M  V30 10480 H 1015.45 -2.97453 -0.382346 0
M  V30 10481 H 1013.01 -1.55458 -0.162009 0
M  V30 10482 H 1013.74 -1.82298 -2.68212 0
M  V30 10483 H 1013.53 -3.42234 -1.91359 0
M  V30 10484 H 1015.02 -3.06452 -2.83685 0
M  V30 10485 N 1015.45 0.186762 -1.56489 0
M  V30 10486 C 1016.7 0.904077 -1.80303 0
M  V30 10487 C 1017.02 1.84073 -0.661538 0
M  V30 10488 O 1018.22 2.59928 -0.784197 0
M  V30 10489 C 1016.68 1.65806 -3.19432 0
M  V30 10490 C 1016.29 0.765807 -4.41406 0
M  V30 10491 C 1018.03 2.36451 -3.52549 0
M  V30 10492 C 1015.94 1.51913 -5.71556 0
M  V30 10493 H 1014.87 0.34133 -0.672317 0
M  V30 10494 H 1017.52 0.157218 -1.82825 0
M  V30 10495 H 1015.9 2.44911 -3.11183 0
M  V30 10496 H 1017.07 0.0128225 -4.60798 0
M  V30 10497 H 1015.39 0.169772 -4.16054 0
M  V30 10498 H 1017.99 2.93378 -4.47027 0
M  V30 10499 H 1018.33 3.11044 -2.7669 0
M  V30 10500 H 1018.86 1.64305 -3.62283 0
M  V30 10501 H 1015.6 0.815829 -6.50403 0
M  V30 10502 H 1015.12 2.24583 -5.56168 0
M  V30 10503 H 1016.8 2.07073 -6.12968 0
M  V30 10504 N 1016.93 1.50896 0.454776 0
M  V30 10505 C 1017.88 1.70947 1.55067 0
M  V30 10506 C 1018.85 0.550899 1.56698 0
M  V30 10507 O 1020.03 0.783352 1.73978 0
M  V30 10508 C 1017.17 1.82455 2.92924 0
M  V30 10509 C 1016.29 3.09919 3.00956 0
M  V30 10510 C 1015.42 3.12125 4.29827 0
M  V30 10511 C 1014.46 4.33975 4.31662 0
M  V30 10512 N 1013.6 4.33828 5.5203 0
M  V30 10513 H 1018.44 2.645 1.37273 0
M  V30 10514 H 1015.98 1.31101 0.667148 0
M  V30 10515 H 1017.93 1.87108 3.72889 0
M  V30 10516 H 1016.56 0.92327 3.09315 0
M  V30 10517 H 1015.62 3.14659 2.13761 0
M  V30 10518 H 1016.93 3.99869 2.98172 0
M  V30 10519 H 1016.08 3.15598 5.18154 0
M  V30 10520 H 1014.82 2.20033 4.35243 0
M  V30 10521 H 1013.83 4.30697 3.41731 0
M  V30 10522 H 1015.05 5.27312 4.27924 0
M  V30 10523 H 1013 3.44598 5.58201 0
M  V30 10524 H 1012.91 5.17566 5.51055 0
M  V30 10525 H 1014.18 4.4147 6.42437 0
M  V30 10526 N 1018.41 -0.709066 1.40748 0
M  V30 10527 C 1019.66 -1.47119 1.39585 0
M  V30 10528 C 1019.99 -1.942 0.000245323 0
M  V30 10529 O 1019.26 -1.68609 -0.969593 0
M  V30 10530 C 1019.55 -2.69266 2.39099 0
M  V30 10531 C 1019.4 -2.28037 3.8771 0
M  V30 10532 C 1020.72 -3.71438 2.36055 0
M  V30 10533 H 1017.84 -0.533632 0.508336 0
M  V30 10534 H 1020.48 -0.808718 1.7193 0
M  V30 10535 H 1018.63 -3.25788 2.11647 0
M  V30 10536 H 1020.3 -1.76946 4.26014 0
M  V30 10537 H 1018.55 -1.59966 4.03229 0
M  V30 10538 H 1019.22 -3.15621 4.52866 0
M  V30 10539 H 1021.69 -3.24559 2.60385 0
M  V30 10540 H 1020.57 -4.54532 3.07721 0
M  V30 10541 H 1020.83 -4.20193 1.37443 0
M  V30 10542 N 1019.89 -1.26353 -0.941956 0
M  V30 10543 C 1021.12 -1.14626 -1.72245 0
M  V30 10544 C 1021.53 0.298588 -1.86424 0
M  V30 10545 O 1020.89 1.2045 -1.37106 0
M  V30 10546 C 1020.94 -1.80933 -3.12963 0
M  V30 10547 O 1020.66 -3.19771 -2.99463 0
M  V30 10548 C 1022.16 -1.7515 -4.07231 0
M  V30 10549 H 1019.38 -0.3992 -0.539333 0
M  V30 10550 H 1021.93 -1.66958 -1.1809 0
M  V30 10551 H 1020.08 -1.32541 -3.64021 0
M  V30 10552 H 1020.5 -3.52571 -3.88322 0
M  V30 10553 H 1021.97 -2.26183 -5.03533 0
M  V30 10554 H 1022.45 -0.717855 -4.33294 0
M  V30 10555 H 1023.05 -2.2309 -3.62093 0
M  V30 10556 N 1021.37 1.14642 -1.08144 0
M  V30 10557 C 1022.28 2.23257 -0.720668 0
M  V30 10558 C 1023.29 1.71866 0.271648 0
M  V30 10559 O 1024.47 2.01064 0.116266 0
M  V30 10560 C 1021.53 3.46447 -0.132542 0
M  V30 10561 C 1020.6 4.12789 -1.17913 0
M  V30 10562 C 1019.83 5.30099 -0.618971 0
M  V30 10563 O 1020.05 5.6762 0.562418 0
M  V30 10564 O 1018.99 5.86154 -1.36774 0
M  V30 10565 H 1022.81 2.56463 -1.62667 0
M  V30 10566 H 1020.4 1.22521 -0.854932 0
M  V30 10567 H 1022.28 4.20959 0.19277 0
M  V30 10568 H 1020.95 3.14971 0.746662 0
M  V30 10569 H 1019.86 3.40163 -1.55693 0
M  V30 10570 H 1021.19 4.48365 -2.03051 0
M  V30 10571 N 1022.85 0.866709 1.31628 0
M  V30 10572 C 1024.12 0.396828 1.91532 0
M  V30 10573 C 1024.5 -1.12081 1.78889 0
M  V30 10574 O 1023.85 -1.94791 1.19452 0
M  V30 10575 C 1024.06 0.874578 3.37864 0
M  V30 10576 C 1025.41 0.8988 4.14978 0
M  V30 10577 O 1026.43 0.820014 3.46633 0
M  V30 10578 O 1025.29 1.01223 5.37044 0
M  V30 10579 H 1022.39 0.1181 0.818524 0
M  V30 10580 H 1024.93 0.954407 1.40318 0
M  V30 10581 H 1023.7 1.91807 3.41066 0
M  V30 10582 H 1023.33 0.295126 3.96503 0
M  V30 10583 N 1024.32 -1.44642 0.625825 0
M  V30 10584 C 1025.6 -1.9551 0.0593587 0
M  V30 10585 C 1025.98 -1.56792 -1.41349 0
M  V30 10586 O 1025.33 -0.839373 -2.12525 0
M  V30 10587 C 1025.54 -3.47902 0.276647 0
M  V30 10588 C 1026.89 -4.24271 0.167044 0
M  V30 10589 O 1027.91 -3.55594 0.207731 0
M  V30 10590 O 1026.77 -5.46458 0.0675 0
M  V30 10591 H 1023.86 -0.826612 -0.0253422 0
M  V30 10592 H 1026.41 -1.54718 0.697159 0
M  V30 10593 H 1025.18 -3.69115 1.29885 0
M  V30 10594 H 1024.8 -3.95628 -0.395547 0
M  V30 10595 N 1025.8 -0.366053 -1.5329 0
M  V30 10596 C 1027.05 0.223493 -2.01263 0
M  V30 10597 C 1027.38 1.48736 -1.25331 0
M  V30 10598 O 1026.63 1.92805 -0.335341 0
M  V30 10599 C 1026.93 0.560906 -3.52971 0
M  V30 10600 C 1026.6 -0.60869 -4.46773 0
M  V30 10601 C 1025.26 -0.929609 -4.72135 0
M  V30 10602 C 1027.61 -1.39225 -5.02261 0
M  V30 10603 C 1024.94 -2.03606 -5.50238 0
M  V30 10604 C 1027.29 -2.48912 -5.81572 0
M  V30 10605 C 1025.95 -2.81538 -6.05221 0
M  V30 10606 H 1025.22 0.0817818 -0.736473 0
M  V30 10607 H 1027.87 -0.498613 -1.84895 0
M  V30 10608 H 1026.18 1.36403 -3.67289 0
M  V30 10609 H 1027.87 1.02931 -3.87564 0
M  V30 10610 H 1024.46 -0.348529 -4.27181 0
M  V30 10611 H 1028.65 -1.15757 -4.82612 0
M  V30 10612 H 1023.9 -2.29281 -5.6678 0
M  V30 10613 H 1028.08 -3.10044 -6.23575 0
M  V30 10614 H 1025.7 -3.67396 -6.65525 0
M  V30 10615 N 1027.28 1.57312 -0.0952337 0
M  V30 10616 C 1028.19 2.17556 0.877877 0
M  V30 10617 C 1029.21 1.14505 1.31014 0
M  V30 10618 O 1030.38 1.46876 1.37802 0
M  V30 10619 C 1027.45 2.74413 2.11892 0
M  V30 10620 C 1026.51 3.92419 1.74085 0
M  V30 10621 C 1025.74 4.46556 2.92273 0
M  V30 10622 O 1025.96 3.99631 4.07002 0
M  V30 10623 O 1024.9 5.37576 2.70732 0
M  V30 10624 H 1028.72 3.01116 0.395312 0
M  V30 10625 H 1026.31 1.48841 0.129123 0
M  V30 10626 H 1028.19 3.10754 2.84622 0
M  V30 10627 H 1026.87 1.93899 2.59201 0
M  V30 10628 H 1025.77 3.6089 0.985346 0
M  V30 10629 H 1027.11 4.74298 1.31539 0
M  V30 10630 N 1028.76 -0.17846 1.56586 0
M  V30 10631 C 1029.98 -0.916061 1.86073 0
M  V30 10632 C 1030.41 -1.75349 0.680754 0
M  V30 10633 O 1029.77 -1.77479 -0.37028 0
M  V30 10634 C 1029.81 -1.77445 3.1392 0
M  V30 10635 O 1028.92 -2.87524 2.95641 0
M  V30 10636 H 1028.26 -0.257031 0.612234 0
M  V30 10637 H 1030.79 -0.178755 2.03818 0
M  V30 10638 H 1030.8 -2.1758 3.45142 0
M  V30 10639 H 1029.47 -1.15927 3.99417 0
M  V30 10640 H 1028.05 -2.51023 2.75757 0
M  V30 10641 N 1030.24 -1.51135 -0.446768 0
M  V30 10642 C 1031.48 -1.63336 -1.19698 0
M  V30 10643 C 1031.81 -0.345099 -1.91414 0
M  V30 10644 O 1031.07 0.670365 -1.8386 0
M  V30 10645 C 1031.36 -2.78034 -2.2457 0
M  V30 10646 C 1031.03 -4.17652 -1.69934 0
M  V30 10647 C 1029.69 -4.55636 -1.54756 0
M  V30 10648 C 1032.04 -5.04813 -1.29665 0
M  V30 10649 C 1029.37 -5.78496 -0.977689 0
M  V30 10650 C 1031.72 -6.28244 -0.741112 0
M  V30 10651 C 1030.39 -6.65009 -0.576156 0
M  V30 10652 H 1029.66 -0.597689 -0.438006 0
M  V30 10653 H 1032.31 -1.85141 -0.48939 0
M  V30 10654 H 1030.61 -2.50413 -3.01331 0
M  V30 10655 H 1032.31 -2.84675 -2.8242 0
M  V30 10656 H 1028.9 -3.87699 -1.82722 0
M  V30 10657 H 1033.08 -4.76081 -1.40216 0
M  V30 10658 H 1028.34 -6.05636 -0.837563 0
M  V30 10659 H 1032.51 -6.95129 -0.42053 0
M  V30 10660 H 1030.14 -7.60085 -0.132443 0
M  V30 10661 N 1031.71 0.701592 -1.41122 0
M  V30 10662 C 1032.96 1.45871 -1.39879 0
M  V30 10663 C 1033.28 1.94999 -0.00668769 0
M  V30 10664 O 1032.55 1.71298 0.95047 0
M  V30 10665 H 1031.13 0.541231 -0.514857 0
M  V30 10666 H 1033.79 0.830803 -1.76306 0
M  V30 10667 H 1032.89 2.32479 -2.0823 0
M  V30 10668 N 1033.19 1.2685 0.935242 0
M  V30 10669 C 1034.47 1.03483 1.65984 0
M  V30 10670 C 1034.85 -0.432859 2.06614 0
M  V30 10671 O 1034.2 -1.4145 1.79455 0
M  V30 10672 C 1034.41 1.98924 2.86758 0
M  V30 10673 C 1035.75 2.2787 3.58274 0
M  V30 10674 O 1036.78 1.96838 2.96873 0
M  V30 10675 O 1035.64 2.80734 4.68882 0
M  V30 10676 H 1032.73 0.393932 0.72715 0
M  V30 10677 H 1035.28 1.38085 0.986445 0
M  V30 10678 H 1034.05 2.9794 2.53668 0
M  V30 10679 H 1033.67 1.64839 3.6182 0
M  V30 10680 N 1034.67 -1.14067 1.0875 0
M  V30 10681 C 1035.92 -1.84819 0.817698 0
M  V30 10682 C 1036.24 -1.83545 -0.658488 0
M  V30 10683 O 1035.51 -1.28633 -1.47751 0
M  V30 10684 H 1034.09 -0.68433 0.299502 0
M  V30 10685 H 1036.75 -1.38208 1.37421 0
M  V30 10686 H 1035.85 -2.89541 1.16501 0
M  V30 10687 N 1036.15 -0.873678 -1.31166 0
M  V30 10688 C 1037.38 -0.500317 -2.0045 0
M  V30 10689 C 1037.79 0.912716 -1.65729 0
M  V30 10690 O 1037.13 1.61001 -0.884563 0
M  V30 10691 C 1037.19 -0.58197 -3.54758 0
M  V30 10692 C 1036.86 -1.95728 -4.12964 0
M  V30 10693 C 1037.85 -2.92526 -4.29796 0
M  V30 10694 C 1035.54 -2.2596 -4.48606 0
M  V30 10695 C 1037.53 -4.17697 -4.81464 0
M  V30 10696 C 1035.22 -3.5138 -4.99976 0
M  V30 10697 C 1036.22 -4.47064 -5.16356 0
M  V30 10698 O 1035.9 -5.70259 -5.66621 0
M  V30 10699 H 1035.64 -0.193044 -0.64785 0
M  V30 10700 H 1038.19 -1.17768 -1.68285 0
M  V30 10701 H 1036.42 0.152326 -3.864 0
M  V30 10702 H 1038.11 -0.221506 -4.05295 0
M  V30 10703 H 1038.88 -2.70479 -4.02574 0
M  V30 10704 H 1034.75 -1.52258 -4.3513 0
M  V30 10705 H 1038.3 -4.92389 -4.94165 0
M  V30 10706 H 1034.2 -3.73269 -5.26631 0
M  V30 10707 H 1034.96 -5.72483 -5.84983 0
M  V30 10708 N 1037.63 1.44308 -0.633487 0
M  V30 10709 C 1038.57 2.30694 0.0700257 0
M  V30 10710 C 1039.54 1.43618 0.834447 0
M  V30 10711 O 1040.73 1.72517 0.815014 0
M  V30 10712 C 1037.87 3.28929 1.04403 0
M  V30 10713 C 1036.98 4.31106 0.277779 0
M  V30 10714 C 1036.12 5.16433 1.24381 0
M  V30 10715 C 1035.16 6.10317 0.466855 0
M  V30 10716 N 1034.29 6.88335 1.38347 0
M  V30 10717 H 1039.13 2.90311 -0.672567 0
M  V30 10718 H 1036.67 1.43034 -0.343449 0
M  V30 10719 H 1038.63 3.84373 1.62214 0
M  V30 10720 H 1037.26 2.71006 1.75372 0
M  V30 10721 H 1036.31 3.78115 -0.416292 0
M  V30 10722 H 1037.62 4.97725 -0.327251 0
M  V30 10723 H 1036.78 5.76406 1.89318 0
M  V30 10724 H 1035.51 4.49893 1.88276 0
M  V30 10725 H 1034.52 5.49451 -0.195989 0
M  V30 10726 H 1035.74 6.78894 -0.167414 0
M  V30 10727 H 1033.69 6.24461 2.00959 0
M  V30 10728 H 1033.61 7.51402 0.832517 0
M  V30 10729 H 1034.88 7.52829 2.0216 0
M  V30 10730 N 1039.1 0.374177 1.53094 0
M  V30 10731 C 1040.07 -0.455999 2.24618 0
M  V30 10732 C 1041.07 -1.00269 1.25709 0
M  V30 10733 O 1042.26 -0.887077 1.49922 0
M  V30 10734 C 1039.39 -1.63822 2.98957 0
M  V30 10735 H 1040.58 0.169986 2.99418 0
M  V30 10736 H 1038.14 0.126015 1.55791 0
M  V30 10737 H 1038.87 -2.30205 2.28421 0
M  V30 10738 H 1038.66 -1.25308 3.71538 0
M  V30 10739 H 1040.15 -2.22633 3.53305 0
M  V30 10740 N 1040.58 -1.57259 0.103575 0
M  V30 10741 C 1041.51 -2.17509 -0.84923 0
M  V30 10742 C 1042.49 -1.11079 -1.28824 0
M  V30 10743 O 1043.68 -1.39252 -1.35361 0
M  V30 10744 C 1040.81 -2.76221 -2.10522 0
M  V30 10745 C 1039.76 -3.88098 -1.80454 0
M  V30 10746 C 1039.09 -4.33549 -3.12952 0
M  V30 10747 C 1040.39 -5.10909 -1.08486 0
M  V30 10748 H 1042.08 -2.9738 -0.347217 0
M  V30 10749 H 1039.63 -1.43045 -0.165568 0
M  V30 10750 H 1041.58 -3.17024 -2.77621 0
M  V30 10751 H 1040.31 -1.93617 -2.63021 0
M  V30 10752 H 1038.96 -3.47847 -1.15749 0
M  V30 10753 H 1038.61 -3.47825 -3.63355 0
M  V30 10754 H 1038.31 -5.08984 -2.93614 0
M  V30 10755 H 1039.84 -4.76992 -3.81196 0
M  V30 10756 H 1041.25 -5.48828 -1.65711 0
M  V30 10757 H 1039.65 -5.91828 -0.992973 0
M  V30 10758 H 1040.72 -4.84851 -0.0690108 0
M  V30 10759 N 1042.06 0.170153 -1.56679 0
M  V30 10760 C 1043.31 0.887906 -1.8233 0
M  V30 10761 C 1043.64 1.81845 -0.681608 0
M  V30 10762 O 1042.91 1.9191 0.316362 0
M  V30 10763 C 1043.2 1.68256 -3.18374 0
M  V30 10764 C 1043.05 0.775059 -4.43072 0
M  V30 10765 C 1044.37 2.65001 -3.51372 0
M  V30 10766 H 1041.49 0.32135 -0.663252 0
M  V30 10767 H 1044.13 0.154065 -1.89374 0
M  V30 10768 H 1042.28 2.30817 -3.12499 0
M  V30 10769 H 1043.95 0.162234 -4.61015 0
M  V30 10770 H 1042.2 0.0831809 -4.3372 0
M  V30 10771 H 1042.87 1.36661 -5.34816 0
M  V30 10772 H 1045.34 2.12566 -3.57708 0
M  V30 10773 H 1044.22 3.17667 -4.47637 0
M  V30 10774 H 1044.48 3.45255 -2.76136 0
M  V30 10775 N 1043.54 1.5137 0.438746 0
M  V30 10776 C 1044.77 1.67774 1.21077 0
M  V30 10777 C 1045.18 0.374489 1.85049 0
M  V30 10778 O 1044.54 -0.646867 1.70651 0
M  V30 10779 C 1044.59 2.79238 2.29584 0
M  V30 10780 O 1044.31 4.04513 1.68228 0
M  V30 10781 C 1045.81 3.06898 3.19888 0
M  V30 10782 H 1043.03 0.563054 0.364981 0
M  V30 10783 H 1045.58 1.97777 0.520035 0
M  V30 10784 H 1043.73 2.51837 2.94375 0
M  V30 10785 H 1044.14 4.66405 2.3993 0
M  V30 10786 H 1045.62 3.88476 3.92162 0
M  V30 10787 H 1046.1 2.19249 3.80561 0
M  V30 10788 H 1046.7 3.35952 2.60799 0
M  V30 10789 N 1045.02 -0.694098 1.41492 0
M  V30 10790 C 1046.27 -1.4498 1.40227 0
M  V30 10791 C 1046.58 -1.95594 0.0151253 0
M  V30 10792 O 1047.78 -2.71234 -0.120146 0
M  V30 10793 C 1046.24 -2.62171 2.46565 0
M  V30 10794 C 1045.85 -2.18337 3.91194 0
M  V30 10795 C 1047.59 -3.39796 2.54439 0
M  V30 10796 C 1045.5 -3.32495 4.89082 0
M  V30 10797 H 1044.43 -0.544584 0.521483 0
M  V30 10798 H 1047.08 -0.75337 1.67322 0
M  V30 10799 H 1045.46 -3.34089 2.12604 0
M  V30 10800 H 1046.64 -1.53698 4.34412 0
M  V30 10801 H 1044.95 -1.53702 3.86994 0
M  V30 10802 H 1047.55 -4.2478 3.24755 0
M  V30 10803 H 1047.89 -3.85082 1.5817 0
M  V30 10804 H 1048.42 -2.74935 2.87499 0
M  V30 10805 H 1045.16 -2.92219 5.86761 0
M  V30 10806 H 1044.68 -3.95978 4.50512 0
M  V30 10807 H 1046.36 -3.98251 5.09907 0
M  V30 10808 N 1046.49 -1.27344 -0.928501 0
M  V30 10809 C 1047.72 -1.16447 -1.7102 0
M  V30 10810 C 1048.14 0.278799 -1.8673 0
M  V30 10811 O 1047.49 1.18989 -1.38376 0
M  V30 10812 C 1047.55 -1.84242 -3.11026 0
M  V30 10813 O 1047.27 -3.2293 -2.96054 0
M  V30 10814 C 1048.77 -1.7946 -4.05351 0
M  V30 10815 H 1045.99 -0.404898 -0.535069 0
M  V30 10816 H 1048.53 -1.68201 -1.16313 0
M  V30 10817 H 1046.69 -1.36395 -3.62595 0
M  V30 10818 H 1047.1 -3.5667 -3.8456 0
M  V30 10819 H 1048.57 -2.31511 -5.01105 0
M  V30 10820 H 1049.05 -0.763771 -4.32508 0
M  V30 10821 H 1049.66 -2.26918 -3.59706 0
M  V30 10822 N 1047.97 1.13488 -1.09353 0
M  V30 10823 C 1049.2 1.89133 -0.85108 0
M  V30 10824 C 1049.62 1.78542 0.591976 0
M  V30 10825 O 1048.98 1.13243 1.41583 0
M  V30 10826 C 1049.03 3.36736 -1.29001 0
M  V30 10827 O 1048.13 4.09959 -0.447993 0
M  V30 10828 H 1047.47 0.58809 -0.308296 0
M  V30 10829 H 1050 1.43593 -1.45747 0
M  V30 10830 H 1050.01 3.87564 -1.27508 0
M  V30 10831 H 1048.69 3.43762 -2.34095 0
M  V30 10832 H 1047.27 3.69155 -0.52717 0
M  V30 10833 N 1049.45 0.880621 1.30701 0
M  V30 10834 C 1050.36 0.348034 2.32004 0
M  V30 10835 C 1051.38 -0.547508 1.65162 0
M  V30 10836 O 1052.55 -0.441673 1.96497 0
M  V30 10837 C 1049.62 -0.432585 3.43991 0
M  V30 10838 C 1048.68 0.492189 4.26469 0
M  V30 10839 C 1047.91 -0.25127 5.33108 0
M  V30 10840 O 1048.14 -1.47795 5.5092 0
M  V30 10841 O 1047.07 0.396376 6.00593 0
M  V30 10842 H 1050.9 1.18798 2.79501 0
M  V30 10843 H 1048.48 0.64432 1.34792 0
M  V30 10844 H 1050.36 -0.874733 4.12221 0
M  V30 10845 H 1049.04 -1.2489 2.98637 0
M  V30 10846 H 1047.94 0.983058 3.60953 0
M  V30 10847 H 1049.28 1.27439 4.75416 0
M  V30 10848 N 1050.93 -1.4397 0.641131 0
M  V30 10849 C 1052.21 -1.95436 0.0800918 0
M  V30 10850 C 1052.59 -1.58282 -1.39678 0
M  V30 10851 O 1051.93 -0.861867 -2.11623 0
M  V30 10852 C 1052.14 -3.47589 0.313531 0
M  V30 10853 C 1053.49 -4.2407 0.212034 0
M  V30 10854 O 1054.52 -3.55353 0.245434 0
M  V30 10855 O 1053.38 -5.46356 0.125455 0
M  V30 10856 H 1050.47 -0.826834 -0.0165735 0
M  V30 10857 H 1053.02 -1.5397 0.71353 0
M  V30 10858 H 1051.79 -3.67716 1.33793 0
M  V30 10859 H 1051.41 -3.96025 -0.353563 0
M  V30 10860 N 1052.41 -0.382291 -1.52893 0
M  V30 10861 C 1053.63 0.204961 -2.06385 0
M  V30 10862 C 1054.06 1.40316 -1.25271 0
M  V30 10863 O 1053.42 1.79187 -0.275969 0
M  V30 10864 C 1053.46 0.560205 -3.56222 0
M  V30 10865 O 1052.57 1.65515 -3.77728 0
M  V30 10866 H 1051.91 0.0258798 -0.663495 0
M  V30 10867 H 1054.44 -0.547733 -1.97132 0
M  V30 10868 H 1054.45 0.826501 -3.99541 0
M  V30 10869 H 1053.12 -0.31584 -4.14699 0
M  V30 10870 H 1051.7 1.38311 -3.46301 0
M  V30 10871 N 1053.89 1.57202 -0.111913 0
M  V30 10872 C 1055.3 1.82039 0.414591 0
M  V30 10873 C 1055.65 1.02863 1.67074 0
M  V30 10874 O 1054.77 0.263068 2.14795 0
M  V30 10875 C 1055.37 3.3019 0.758953 0
M  V30 10876 C 1053.93 3.55732 1.23012 0
M  V30 10877 C 1053.07 2.76301 0.235226 0
M  V30 10878 H 1056.02 1.55078 -0.337142 0
M  V30 10879 H 1056.05 3.44431 1.61701 0
M  V30 10880 H 1055.56 3.87788 -0.155473 0
M  V30 10881 H 1053.66 3.03483 2.16169 0
M  V30 10882 H 1053.77 4.64333 1.18034 0
M  V30 10883 H 1052.14 2.44287 0.720822 0
M  V30 10884 H 1052.92 3.36655 -0.672173 0
M  V30 10885 N 1055.36 -0.161842 1.56767 0
M  V30 10886 C 1056.59 -0.896274 1.87034 0
M  V30 10887 C 1057.01 -1.74617 0.699314 0
M  V30 10888 O 1056.37 -1.77861 -0.351435 0
M  V30 10889 C 1056.42 -1.74105 3.15784 0
M  V30 10890 O 1055.52 -2.84372 2.98674 0
M  V30 10891 H 1054.86 -0.250523 0.614926 0
M  V30 10892 H 1057.39 -0.157127 2.03996 0
M  V30 10893 H 1057.4 -2.13907 3.4743 0
M  V30 10894 H 1056.08 -1.11684 4.00624 0
M  V30 10895 H 1054.66 -2.48084 2.78404 0
M  V30 10896 N 1056.84 -1.516 -0.430713 0
M  V30 10897 C 1057.77 -1.76342 -1.53054 0
M  V30 10898 C 1058.75 -0.61349 -1.58652 0
M  V30 10899 O 1059.94 -0.856888 -1.74273 0
M  V30 10900 C 1057.07 -1.8945 -2.91077 0
M  V30 10901 C 1056.02 -3.04928 -3.00339 0
M  V30 10902 C 1055.35 -3.03228 -4.40405 0
M  V30 10903 C 1056.65 -4.44777 -2.73808 0
M  V30 10904 H 1058.34 -2.68435 -1.326 0
M  V30 10905 H 1055.89 -1.29171 -0.636466 0
M  V30 10906 H 1057.84 -2.05343 -3.67984 0
M  V30 10907 H 1056.56 -0.940114 -3.12777 0
M  V30 10908 H 1055.22 -2.88751 -2.25872 0
M  V30 10909 H 1054.87 -2.05553 -4.59083 0
M  V30 10910 H 1054.57 -3.80776 -4.47531 0
M  V30 10911 H 1056.1 -3.21222 -5.19277 0
M  V30 10912 H 1057.51 -4.6127 -3.40445 0
M  V30 10913 H 1055.91 -5.2408 -2.92335 0
M  V30 10914 H 1056.98 -4.54358 -1.69372 0
M  V30 10915 N 1058.32 0.686584 -1.41858 0
M  V30 10916 C 1059.23 1.83002 -1.46791 0
M  V30 10917 C 1060.25 1.70284 -0.357675 0
M  V30 10918 O 1061.42 1.92042 -0.606781 0
M  V30 10919 C 1058.49 3.19056 -1.35661 0
M  V30 10920 C 1057.55 3.43817 -2.57077 0
M  V30 10921 C 1056.78 4.7338 -2.46469 0
M  V30 10922 O 1057 5.50483 -1.49413 0
M  V30 10923 O 1055.94 4.99124 -3.36391 0
M  V30 10924 H 1059.76 1.81797 -2.43277 0
M  V30 10925 H 1057.35 0.840812 -1.23494 0
M  V30 10926 H 1059.23 4.00267 -1.31773 0
M  V30 10927 H 1057.91 3.20925 -0.422951 0
M  V30 10928 H 1056.81 2.625 -2.66541 0
M  V30 10929 H 1058.15 3.4677 -3.49302 0
M  V30 10930 N 1059.8 1.27835 0.921735 0
M  V30 10931 C 1061.03 1.17352 1.704 0
M  V30 10932 C 1061.44 -0.268892 1.86875 0
M  V30 10933 O 1060.8 -1.18253 1.39005 0
M  V30 10934 C 1060.85 1.85889 3.10045 0
M  V30 10935 O 1060.57 3.24495 2.94338 0
M  V30 10936 C 1062.07 1.81607 4.04393 0
M  V30 10937 H 1059.29 0.40773 0.532914 0
M  V30 10938 H 1061.83 1.68815 1.15419 0
M  V30 10939 H 1059.99 1.38316 3.61867 0
M  V30 10940 H 1060.4 3.58705 3.82663 0
M  V30 10941 H 1061.88 2.34165 4.99871 0
M  V30 10942 H 1062.35 0.786697 4.32097 0
M  V30 10943 H 1062.96 2.28822 3.58498 0
M  V30 10944 N 1061.28 -1.12907 1.09954 0
M  V30 10945 C 1062.52 -1.83661 0.833761 0
M  V30 10946 C 1062.84 -1.84736 -0.642798 0
M  V30 10947 O 1064.04 -2.51437 -1.0243 0
M  V30 10948 C 1062.5 -3.29763 1.44168 0
M  V30 10949 C 1062.11 -3.3706 2.95118 0
M  V30 10950 C 1063.85 -4.05522 1.25509 0
M  V30 10951 C 1061.76 -4.77467 3.48969 0
M  V30 10952 H 1060.69 -0.688115 0.308242 0
M  V30 10953 H 1063.34 -1.27166 1.32291 0
M  V30 10954 H 1061.72 -3.86094 0.880215 0
M  V30 10955 H 1062.9 -2.90695 3.57537 0
M  V30 10956 H 1061.21 -2.7477 3.12874 0
M  V30 10957 H 1063.81 -5.09188 1.63191 0
M  V30 10958 H 1064.15 -4.15837 0.196208 0
M  V30 10959 H 1064.68 -3.55536 1.78435 0
M  V30 10960 H 1061.42 -4.72344 4.54501 0
M  V30 10961 H 1060.94 -5.24305 2.91315 0
M  V30 10962 H 1062.62 -5.46397 3.46495 0
M  V30 10963 N 1062.75 -0.88754 -1.30232 0
M  V30 10964 C 1063.72 -0.361095 -2.26338 0
M  V30 10965 C 1064.72 0.497871 -1.52898 0
M  V30 10966 O 1065.91 0.30466 -1.71515 0
M  V30 10967 C 1063.04 0.485135 -3.3743 0
M  V30 10968 H 1064.23 -1.20973 -2.74419 0
M  V30 10969 H 1061.78 -0.664619 -1.41466 0
M  V30 10970 H 1062.52 1.35425 -2.9467 0
M  V30 10971 H 1062.3 -0.130173 -3.91884 0
M  V30 10972 H 1063.79 0.845169 -4.08958 0
M  V30 10973 N 1064.23 1.43628 -0.648757 0
M  V30 10974 C 1065.46 2.06217 -0.167945 0
M  V30 10975 C 1065.88 1.486 1.16462 0
M  V30 10976 O 1065.23 0.61559 1.71804 0
M  V30 10977 C 1065.28 3.6144 -0.0660114 0
M  V30 10978 O 1065 4.16914 -1.34589 0
M  V30 10979 C 1066.51 4.41097 0.441408 0
M  V30 10980 H 1063.73 0.665228 -0.0878237 0
M  V30 10981 H 1066.27 1.84207 -0.888144 0
M  V30 10982 H 1064.42 3.82651 0.604722 0
M  V30 10983 H 1064.84 5.10537 -1.20218 0
M  V30 10984 H 1066.31 5.50066 0.461697 0
M  V30 10985 H 1066.79 4.13803 1.47187 0
M  V30 10986 H 1067.4 4.24845 -0.19668 0
M  V30 10987 N 1065.71 0.390394 1.52688 0
M  V30 10988 C 1066.94 -0.194013 2.06491 0
M  V30 10989 C 1067.36 -1.3965 1.26014 0
M  V30 10990 O 1066.72 -1.79038 0.285468 0
M  V30 10991 C 1066.77 -0.541306 3.56514 0
M  V30 10992 O 1065.87 -1.63509 3.78601 0
M  V30 10993 H 1065.21 -0.0223608 0.663623 0
M  V30 10994 H 1067.74 0.558179 1.96839 0
M  V30 10995 H 1067.75 -0.805301 3.99974 0
M  V30 10996 H 1066.43 0.337828 4.14526 0
M  V30 10997 H 1065 -1.36473 3.4703 0
M  V30 10998 N 1067.19 -1.57141 0.120249 0
M  V30 10999 C 1068.6 -1.82256 -0.404931 0
M  V30 11000 C 1068.95 -1.03748 -1.66526 0
M  V30 11001 O 1068.08 -0.274456 -2.14653 0
M  V30 11002 C 1068.67 -3.30588 -0.741431 0
M  V30 11003 C 1067.23 -3.56379 -1.21124 0
M  V30 11004 C 1066.38 -2.76421 -0.220569 0
M  V30 11005 H 1069.33 -1.54897 0.345361 0
M  V30 11006 H 1069.35 -3.45284 -1.59872 0
M  V30 11007 H 1068.86 -3.87701 0.176036 0
M  V30 11008 H 1066.96 -3.04625 -2.14556 0
M  V30 11009 H 1067.07 -4.64952 -1.1557 0
M  V30 11010 H 1065.44 -2.44666 -0.707857 0
M  V30 11011 H 1066.22 -3.36294 0.690018 0
M  V30 11012 N 1068.67 0.153526 -1.5685 0
M  V30 11013 C 1069.58 1.20932 -2.01029 0
M  V30 11014 C 1070.59 1.47401 -0.924598 0
M  V30 11015 O 1071.77 1.592 -1.23359 0
M  V30 11016 C 1068.83 2.52438 -2.37647 0
M  V30 11017 C 1067.89 2.33673 -3.60132 0
M  V30 11018 C 1067.13 3.58909 -3.94994 0
M  V30 11019 O 1067.35 4.64823 -3.30599 0
M  V30 11020 O 1066.28 3.5196 -4.8827 0
M  V30 11021 H 1070.11 0.864273 -2.91143 0
M  V30 11022 H 1067.7 0.361755 -1.44954 0
M  V30 11023 H 1069.58 3.29981 -2.62088 0
M  V30 11024 H 1068.25 2.86486 -1.5069 0
M  V30 11025 H 1067.16 1.54102 -3.40886 0
M  V30 11026 H 1068.49 2.04544 -4.47686 0
M  V30 11027 N 1070.14 1.51827 0.422667 0
M  V30 11028 C 1071.42 1.55772 1.18299 0
M  V30 11029 C 1071.8 0.330657 2.08494 0
M  V30 11030 O 1071.15 -0.683373 2.18042 0
M  V30 11031 C 1071.36 2.87941 1.97208 0
M  V30 11032 C 1072.71 3.4044 2.53744 0
M  V30 11033 O 1073.73 2.8959 2.07403 0
M  V30 11034 O 1072.59 4.29201 3.38303 0
M  V30 11035 H 1069.68 0.626889 0.539388 0
M  V30 11036 H 1072.23 1.64147 0.430545 0
M  V30 11037 H 1071 3.68702 1.31052 0
M  V30 11038 H 1070.63 2.82795 2.79486 0
M  V30 11039 N 1071.62 -0.679052 1.4222 0
M  V30 11040 C 1072.57 -1.81398 1.45594 0
M  V30 11041 C 1073.56 -1.66112 0.332127 0
M  V30 11042 O 1074.77 -1.72772 0.504942 0
M  V30 11043 H 1071.15 -0.598045 0.455902 0
M  V30 11044 H 1073.12 -1.7567 2.41211 0
M  V30 11045 C 1071.87 -3.19525 1.37109 0
M  V30 11046 H 1071.19 -3.31912 2.22878 0
M  V30 11047 H 1072.63 -3.98967 1.43531 0
M  V30 11048 C 1071.09 -3.36792 0.0853593 0
M  V30 11049 O 1071.62 -3.92309 -0.863532 0
M  V30 11050 N 1069.82 -2.906 0.00389229 0
M  V30 11051 H 1069.37 -2.45607 0.776846 0
M  V30 11052 H 1069.33 -3.0253 -0.855742 0
M  V30 11053 N 1073.1 -1.28322 -0.914942 0
M  V30 11054 C 1074.33 -1.18254 -1.69775 0
M  V30 11055 C 1074.74 0.258978 -1.87015 0
M  V30 11056 O 1074.1 1.17514 -1.3963 0
M  V30 11057 C 1074.15 -1.8753 -3.09054 0
M  V30 11058 O 1073.87 -3.26051 -2.92613 0
M  V30 11059 C 1075.37 -1.83749 -4.03424 0
M  V30 11060 H 1072.59 -0.41055 -0.530744 0
M  V30 11061 H 1075.14 -1.69425 -1.14523 0
M  V30 11062 H 1073.29 -1.40233 -3.61128 0
M  V30 11063 H 1073.71 -3.60729 -3.80756 0
M  V30 11064 H 1075.18 -2.36813 -4.98622 0
M  V30 11065 H 1075.66 -0.809601 -4.31674 0
M  V30 11066 H 1076.26 -2.3072 -3.57279 0
M  V30 11067 N 1074.58 1.12322 -1.10551 0
M  V30 11068 C 1075.51 2.17221 -0.699299 0
M  V30 11069 C 1076.49 1.59809 0.299973 0
M  V30 11070 O 1077.67 1.87451 0.198589 0
M  V30 11071 C 1074.8 3.38685 -0.0320136 0
M  V30 11072 C 1073.85 4.14732 -0.99495 0
M  V30 11073 S 1074.68 4.72879 -2.51288 0
M  V30 11074 C 1075.84 5.97676 -1.85834 0
M  V30 11075 H 1076.07 2.51342 -1.5879 0
M  V30 11076 H 1073.6 1.23802 -0.92263 0
M  V30 11077 H 1075.56 4.09034 0.346656 0
M  V30 11078 H 1074.22 3.02842 0.833407 0
M  V30 11079 H 1073.41 5.01754 -0.475331 0
M  V30 11080 H 1073.02 3.50098 -1.31559 0
M  V30 11081 H 1075.31 6.6698 -1.18927 0
M  V30 11082 H 1076.25 6.54266 -2.70817 0
M  V30 11083 H 1076.66 5.48793 -1.32237 0
M  V30 11084 N 1076.06 0.894434 1.2976 0
M  V30 11085 C 1077.28 0.5322 2.00455 0
M  V30 11086 C 1077.71 -0.874427 1.66539 0
M  V30 11087 O 1077.06 -1.58113 0.887129 0
M  V30 11088 C 1077.11 0.725264 3.53231 0
M  V30 11089 O 1076.22 -0.224612 4.11788 0
M  V30 11090 H 1075.56 0.208562 0.630395 0
M  V30 11091 H 1078.09 1.20458 1.65382 0
M  V30 11092 H 1078.1 0.627889 4.0314 0
M  V30 11093 H 1076.77 1.75079 3.77253 0
M  V30 11094 H 1075.35 -0.0801361 3.72814 0
M  V30 11095 N 1077.53 -1.43282 0.656365 0
M  V30 11096 C 1078.48 -2.32556 -0.0452037 0
M  V30 11097 C 1079.48 -1.48789 -0.80982 0
M  V30 11098 O 1080.68 -1.64979 -0.719865 0
M  V30 11099 H 1077.06 -0.751258 -0.0334043 0
M  V30 11100 H 1079.03 -2.89448 0.725423 0
M  V30 11101 C 1077.78 -3.33138 -0.995706 0
M  V30 11102 H 1077.1 -3.97622 -0.416774 0
M  V30 11103 H 1078.54 -3.98231 -1.45562 0
M  V30 11104 C 1077 -2.63978 -2.09325 0
M  V30 11105 O 1077.53 -2.45769 -3.17743 0
M  V30 11106 N 1075.74 -2.23301 -1.8597 0
M  V30 11107 H 1075.28 -2.38312 -0.97802 0
M  V30 11108 H 1075.24 -1.77358 -2.59599 0
M  V30 11109 N 1079.01 -0.398486 -1.52479 0
M  V30 11110 C 1080.26 0.182046 -2.00877 0
M  V30 11111 C 1080.58 1.47128 -1.2889 0
M  V30 11112 O 1081.78 2.13242 -1.68048 0
M  V30 11113 C 1080.24 0.374978 -3.57941 0
M  V30 11114 C 1079.85 -0.901544 -4.38835 0
M  V30 11115 C 1081.59 0.911378 -4.14601 0
M  V30 11116 C 1079.5 -0.676385 -5.87519 0
M  V30 11117 H 1078.43 0.0718068 -0.750573 0
M  V30 11118 H 1081.08 -0.522297 -1.7591 0
M  V30 11119 H 1079.46 1.14139 -3.79194 0
M  V30 11120 H 1080.63 -1.67329 -4.29346 0
M  V30 11121 H 1078.95 -1.36357 -3.93441 0
M  V30 11122 H 1081.55 1.09569 -5.23353 0
M  V30 11123 H 1081.89 1.88306 -3.71277 0
M  V30 11124 H 1082.42 0.204296 -3.97275 0
M  V30 11125 H 1079.16 -1.61933 -6.35184 0
M  V30 11126 H 1078.68 0.0562542 -5.99774 0
M  V30 11127 H 1080.36 -0.314454 -6.46235 0
M  V30 11128 N 1080.49 1.57075 -0.12858 0
M  V30 11129 C 1081.74 1.94695 0.526952 0
M  V30 11130 C 1082.05 1.01482 1.67215 0
M  V30 11131 O 1083.26 1.28606 2.39108 0
M  V30 11132 C 1081.72 3.4605 0.988801 0
M  V30 11133 C 1081.32 4.47816 -0.128457 0
M  V30 11134 C 1083.07 3.92572 1.61517 0
M  V30 11135 C 1080.97 5.9036 0.350628 0
M  V30 11136 H 1079.9 0.726819 0.200623 0
M  V30 11137 H 1082.56 1.82295 -0.209972 0
M  V30 11138 H 1080.94 3.53718 1.78043 0
M  V30 11139 H 1082.11 4.51826 -0.904976 0
M  V30 11140 H 1080.43 4.11103 -0.662075 0
M  V30 11141 H 1083.02 4.96493 1.98491 0
M  V30 11142 H 1083.37 3.33085 2.49721 0
M  V30 11143 H 1083.9 3.87744 0.888768 0
M  V30 11144 H 1080.64 6.53624 -0.495592 0
M  V30 11145 H 1080.16 5.89749 1.09342 0
M  V30 11146 H 1081.84 6.41926 0.808717 0
M  V30 11147 N 1081.97 -0.145205 1.5693 0
M  V30 11148 C 1082.9 -1.18096 2.01434 0
M  V30 11149 C 1083.88 -1.447 0.894204 0
M  V30 11150 O 1085.07 -1.55589 1.16214 0
M  V30 11151 C 1082.2 -2.51369 2.39647 0
M  V30 11152 C 1081.15 -2.39283 3.54863 0
M  V30 11153 C 1080.48 -3.77283 3.78895 0
M  V30 11154 C 1081.78 -1.8754 4.87469 0
M  V30 11155 H 1083.47 -0.810897 2.8821 0
M  V30 11156 H 1081.02 -0.388624 1.38657 0
M  V30 11157 H 1082.97 -3.24054 2.69382 0
M  V30 11158 H 1081.69 -2.90214 1.49811 0
M  V30 11159 H 1080.35 -1.6905 3.25296 0
M  V30 11160 H 1080 -4.13567 2.86307 0
M  V30 11161 H 1079.7 -3.70057 4.56433 0
M  V30 11162 H 1081.22 -4.51514 4.11057 0
M  V30 11163 H 1082.64 -2.50019 5.1591 0
M  V30 11164 H 1081.03 -1.912 5.68826 0
M  V30 11165 H 1082.1 -0.831194 4.77723 0
M  V30 11166 N 1083.45 -1.52049 -0.414609 0
M  V30 11167 C 1084.69 -1.65838 -1.16206 0
M  V30 11168 C 1085.02 -0.385623 -1.90639 0
M  V30 11169 O 1084.28 0.631214 -1.85241 0
M  V30 11170 C 1084.58 -2.82735 -2.18622 0
M  V30 11171 C 1084.24 -4.21163 -1.61037 0
M  V30 11172 C 1082.9 -4.58816 -1.45056 0
M  V30 11173 C 1085.26 -5.0745 -1.18928 0
M  V30 11174 C 1082.58 -5.8044 -0.854761 0
M  V30 11175 C 1084.94 -6.29674 -0.607686 0
M  V30 11176 C 1083.6 -6.66081 -0.434968 0
M  V30 11177 H 1082.87 -0.606845 -0.425229 0
M  V30 11178 H 1085.52 -1.86137 -0.450009 0
M  V30 11179 H 1083.82 -2.56749 -2.95952 0
M  V30 11180 H 1085.52 -2.90601 -2.76319 0
M  V30 11181 H 1082.11 -3.91488 -1.74457 0
M  V30 11182 H 1086.29 -4.78948 -1.30086 0
M  V30 11183 H 1081.55 -6.07276 -0.70891 0
M  V30 11184 H 1085.72 -6.95865 -0.272988 0
M  V30 11185 H 1083.35 -7.60195 0.0288116 0
M  V30 11186 N 1084.93 0.6715 -1.42579 0
M  V30 11187 C 1086.17 1.43366 -1.43436 0
M  V30 11188 C 1086.5 1.94131 -0.0517339 0
M  V30 11189 O 1085.78 1.71121 0.924548 0
M  V30 11190 C 1086.06 2.62832 -2.46154 0
M  V30 11191 C 1085.92 2.17677 -3.9362 0
M  V30 11192 C 1087.23 3.65049 -2.4582 0
M  V30 11193 H 1084.35 0.519967 -0.522306 0
M  V30 11194 H 1087 0.762849 -1.74013 0
M  V30 11195 H 1085.15 3.20062 -2.2021 0
M  V30 11196 H 1086.82 1.65588 -4.30556 0
M  V30 11197 H 1085.06 1.49219 -4.07328 0
M  V30 11198 H 1085.73 3.03503 -4.61075 0
M  V30 11199 H 1088.21 3.17541 -2.68899 0
M  V30 11200 H 1087.08 4.46213 -3.19664 0
M  V30 11201 H 1087.34 4.16401 -1.48536 0
M  V30 11202 N 1086.4 1.28806 0.908124 0
M  V30 11203 C 1087.65 1.16058 1.65454 0
M  V30 11204 C 1087.97 -0.290057 1.92831 0
M  V30 11205 O 1087.24 -1.20001 1.54843 0
M  V30 11206 H 1085.82 0.426522 0.61326 0
M  V30 11207 H 1088.48 1.61614 1.08936 0
M  V30 11208 H 1087.58 1.70437 2.61453 0
M  V30 11209 N 1087.88 -1.11734 1.11145 0
M  V30 11210 C 1089.11 -1.87215 0.880811 0
M  V30 11211 C 1089.52 -1.80016 -0.569195 0
M  V30 11212 O 1088.88 -1.17926 -1.39283 0
M  V30 11213 C 1088.93 -3.36146 1.32998 0
M  V30 11214 O 1088.65 -3.43187 2.72313 0
M  V30 11215 C 1090.15 -4.28542 1.1343 0
M  V30 11216 H 1087.37 -0.592123 0.315645 0
M  V30 11217 H 1089.92 -1.41335 1.478 0
M  V30 11218 H 1088.07 -3.79542 0.776308 0
M  V30 11219 H 1088.49 -4.359 2.91705 0
M  V30 11220 H 1089.96 -5.31295 1.49764 0
M  V30 11221 H 1090.44 -4.39138 0.0735859 0
M  V30 11222 H 1091.04 -3.90935 1.67481 0
M  V30 11223 N 1089.36 -0.901303 -1.29284 0
M  V30 11224 C 1090.27 -0.3849 -2.31421 0
M  V30 11225 C 1091.29 0.521163 -1.66012 0
M  V30 11226 O 1092.46 0.410356 -1.97175 0
M  V30 11227 C 1089.53 0.377804 -3.44635 0
M  V30 11228 C 1088.59 -0.559974 -4.25632 0
M  V30 11229 C 1087.82 0.166425 -5.3344 0
M  V30 11230 O 1088.04 1.39012 -5.53202 0
M  V30 11231 O 1086.98 -0.491875 -5.99887 0
M  V30 11232 H 1090.8 -1.2323 -2.77575 0
M  V30 11233 H 1088.39 -0.665683 -1.3375 0
M  V30 11234 H 1090.27 0.809041 -4.13561 0
M  V30 11235 H 1088.95 1.20124 -3.00586 0
M  V30 11236 H 1087.85 -1.04036 -3.59343 0
M  V30 11237 H 1089.19 -1.34987 -4.73328 0
M  V30 11238 N 1090.84 1.42931 -0.663954 0
M  V30 11239 C 1092.11 1.95284 -0.111174 0
M  V30 11240 C 1092.49 1.60484 1.37142 0
M  V30 11241 O 1091.84 0.895425 2.10225 0
M  V30 11242 C 1092.05 3.47046 -0.368789 0
M  V30 11243 C 1093.4 4.23679 -0.279473 0
M  V30 11244 O 1094.42 3.54918 -0.301937 0
M  V30 11245 O 1093.28 5.46087 -0.21236 0
M  V30 11246 H 1090.38 0.826993 0.00341718 0
M  V30 11247 H 1092.92 1.52816 -0.737935 0
M  V30 11248 H 1091.7 3.65541 -1.39626 0
M  V30 11249 H 1091.32 3.96537 0.290514 0
M  V30 11250 N 1092.32 0.406567 1.52266 0
M  V30 11251 C 1093.28 -0.408251 2.25535 0
M  V30 11252 C 1094.28 -0.975795 1.27808 0
M  V30 11253 O 1095.47 -0.855077 1.5177 0
M  V30 11254 C 1092.6 -1.57443 3.02365 0
M  V30 11255 H 1093.79 0.233459 2.9899 0
M  V30 11256 H 1091.35 0.159032 1.55489 0
M  V30 11257 H 1092.08 -2.25308 2.33252 0
M  V30 11258 H 1091.87 -1.17399 3.74112 0
M  V30 11259 H 1093.36 -2.15088 3.57948 0
M  V30 11260 N 1093.79 -1.57004 0.136909 0
M  V30 11261 C 1095.07 -1.87375 -0.561233 0
M  V30 11262 C 1095.45 -1.04117 -1.83638 0
M  V30 11263 O 1094.8 -0.125103 -2.28157 0
M  V30 11264 C 1095.01 -3.38829 -0.836426 0
M  V30 11265 C 1096.36 -4.07826 -1.18164 0
M  V30 11266 O 1097.38 -3.4395 -0.92611 0
M  V30 11267 O 1096.24 -5.20614 -1.66204 0
M  V30 11268 H 1093.33 -0.776287 -0.285145 0
M  V30 11269 H 1095.88 -1.68818 0.172761 0
M  V30 11270 H 1094.65 -3.91244 0.066442 0
M  V30 11271 H 1094.28 -3.62879 -1.62496 0
M  V30 11272 N 1095.27 0.136881 -1.57004 0
M  V30 11273 C 1096.52 0.849031 -1.84172 0
M  V30 11274 C 1096.85 1.80359 -0.720027 0
M  V30 11275 O 1096.13 1.92538 0.275584 0
M  V30 11276 C 1096.41 1.61465 -3.21871 0
M  V30 11277 C 1096.26 0.680902 -4.44616 0
M  V30 11278 C 1097.58 2.57488 -3.56914 0
M  V30 11279 H 1094.7 0.307209 -0.669919 0
M  V30 11280 H 1097.34 0.113862 -1.89659 0
M  V30 11281 H 1095.49 2.24137 -3.17325 0
M  V30 11282 H 1097.16 0.0644094 -4.61255 0
M  V30 11283 H 1095.41 -0.00883629 -4.33799 0
M  V30 11284 H 1096.08 1.25286 -5.37594 0
M  V30 11285 H 1098.55 2.0493 -3.62136 0
M  V30 11286 H 1097.43 3.08101 -4.54274 0
M  V30 11287 H 1097.69 3.39321 -2.83397 0
M  V30 11288 N 1096.75 1.52266 0.40654 0
M  V30 11289 C 1098 1.6568 1.15035 0
M  V30 11290 C 1098.31 0.394135 1.91588 0
M  V30 11291 O 1099.52 0.408113 2.68415 0
M  V30 11292 C 1097.97 2.92725 2.0938 0
M  V30 11293 C 1097.58 4.26108 1.38332 0
M  V30 11294 C 1099.33 3.15502 2.84004 0
M  V30 11295 C 1097.23 5.44275 2.3134 0
M  V30 11296 H 1096.16 0.61719 0.43312 0
M  V30 11297 H 1098.81 1.78755 0.414598 0
M  V30 11298 H 1097.2 2.73355 2.86519 0
M  V30 11299 H 1098.37 4.55971 0.665396 0
M  V30 11300 H 1096.69 4.09454 0.757384 0
M  V30 11301 H 1099.28 4.00964 3.5374 0
M  V30 11302 H 1099.63 2.29842 3.471 0
M  V30 11303 H 1100.16 3.35357 2.13964 0
M  V30 11304 H 1096.9 6.3229 1.72887 0
M  V30 11305 H 1096.42 5.18749 3.01098 0
M  V30 11306 H 1098.1 5.77457 2.91809 0
M  V30 11307 N 1098.23 -0.663929 1.42933 0
M  V30 11308 C 1099.45 -1.45691 1.47611 0
M  V30 11309 C 1099.88 -1.87875 0.0920305 0
M  V30 11310 O 1099.24 -1.56696 -0.91192 0
M  V30 11311 C 1099.28 -2.67517 2.41799 0
M  V30 11312 O 1098.39 -3.66187 1.89686 0
M  V30 11313 H 1097.73 -0.437257 0.499702 0
M  V30 11314 H 1100.26 -0.813397 1.87737 0
M  V30 11315 H 1100.27 -3.1546 2.58745 0
M  V30 11316 H 1098.94 -2.36155 3.4235 0
M  V30 11317 H 1097.52 -3.25274 1.82349 0
M  V30 11318 N 1099.71 -1.29285 -0.901281 0
M  V30 11319 C 1100.64 -1.16832 -2.0217 0
M  V30 11320 C 1101.62 -0.0629265 -1.69984 0
M  V30 11321 O 1102.8 -0.242123 -1.92685 0
M  V30 11322 C 1099.93 -0.842406 -3.36929 0
M  V30 11323 C 1098.89 -1.90394 -3.8332 0
M  V30 11324 C 1098.21 -1.43138 -5.15185 0
M  V30 11325 C 1099.51 -3.31254 -4.03817 0
M  V30 11326 H 1101.21 -2.10562 -2.12847 0
M  V30 11327 H 1098.75 -1.01375 -1.0227 0
M  V30 11328 H 1100.71 -0.741999 -4.14816 0
M  V30 11329 H 1099.43 0.130598 -3.26339 0
M  V30 11330 H 1098.09 -1.99371 -3.07647 0
M  V30 11331 H 1097.74 -0.447091 -5.01009 0
M  V30 11332 H 1097.44 -2.14129 -5.47195 0
M  V30 11333 H 1098.96 -1.34444 -5.95615 0
M  V30 11334 H 1100.37 -3.25129 -4.72191 0
M  V30 11335 H 1098.77 -4.00189 -4.47178 0
M  V30 11336 H 1099.84 -3.74349 -3.08206 0
M  V30 11337 N 1101.18 1.11143 -1.11736 0
M  V30 11338 C 1102.46 1.79384 -0.779785 0
M  V30 11339 C 1102.84 1.98015 0.731668 0
M  V30 11340 O 1102.19 1.56731 1.66276 0
M  V30 11341 C 1102.4 3.12868 -1.54643 0
M  V30 11342 C 1103.75 3.8786 -1.7277 0
M  V30 11343 O 1104.77 3.22566 -1.51094 0
M  V30 11344 O 1103.63 5.05034 -2.08813 0
M  V30 11345 H 1100.72 0.777128 -0.282845 0
M  V30 11346 H 1103.27 1.17858 -1.22096 0
M  V30 11347 H 1102.04 2.94682 -2.57446 0
M  V30 11348 H 1101.67 3.82109 -1.09901 0
M  V30 11349 N 1102.66 0.908147 1.28804 0
M  V30 11350 C 1103.61 0.382315 2.29437 0
M  V30 11351 C 1104.6 -0.523033 1.61123 0
M  V30 11352 O 1105.81 -0.404898 1.75387 0
M  V30 11353 H 1102.19 0.105022 0.74463 0
M  V30 11354 H 1104.16 1.24425 2.71221 0
M  V30 11355 C 1102.91 -0.367475 3.45753 0
M  V30 11356 H 1102.23 0.319957 3.98518 0
M  V30 11357 H 1103.67 -0.700131 4.1818 0
M  V30 11358 C 1102.13 -1.57329 2.97908 0
M  V30 11359 O 1102.66 -2.67248 2.99902 0
M  V30 11360 N 1100.86 -1.41835 2.53636 0
M  V30 11361 H 1100.41 -0.524099 2.52212 0
M  V30 11362 H 1100.37 -2.22645 2.21984 0
M  V30 11363 N 1104.14 -1.42577 0.671525 0
M  V30 11364 C 1105.39 -2.00806 0.189663 0
M  V30 11365 C 1105.7 -1.537 -1.20978 0
M  V30 11366 O 1106.91 -2.04325 -1.78784 0
M  V30 11367 C 1105.36 -3.58744 0.288227 0
M  V30 11368 C 1104.97 -4.14839 1.69152 0
M  V30 11369 C 1106.72 -4.24285 -0.13509 0
M  V30 11370 C 1104.62 -5.65131 1.74302 0
M  V30 11371 H 1103.55 -0.751004 0.067146 0
M  V30 11372 H 1106.2 -1.63338 0.83623 0
M  V30 11373 H 1104.59 -3.937 -0.426175 0
M  V30 11374 H 1105.76 -3.91349 2.43274 0
M  V30 11375 H 1104.08 -3.61738 2.0624 0
M  V30 11376 H 1106.67 -5.34573 -0.116709 0
M  V30 11377 H 1107.02 -3.99527 -1.16977 0
M  V30 11378 H 1107.55 -3.94278 0.528191 0
M  V30 11379 H 1104.29 -5.94682 2.75742 0
M  V30 11380 H 1103.81 -5.90621 1.04531 0
M  V30 11381 H 1105.49 -6.29491 1.49498 0
M  V30 11382 N 1105.62 -0.414636 -1.52048 0
M  V30 11383 C 1106.85 0.158686 -2.06291 0
M  V30 11384 C 1107.26 1.38397 -1.2842 0
M  V30 11385 O 1106.62 1.79351 -0.337539 0
M  V30 11386 C 1106.67 0.503634 -3.57975 0
M  V30 11387 O 1106.39 -0.672996 -4.329 0
M  V30 11388 C 1107.89 1.13009 -4.28653 0
M  V30 11389 H 1105.11 0.0179622 -0.67076 0
M  V30 11390 H 1107.66 -0.587177 -1.95889 0
M  V30 11391 H 1105.81 1.19939 -3.68366 0
M  V30 11392 H 1106.22 -0.383735 -5.23094 0
M  V30 11393 H 1107.7 1.32162 -5.35945 0
M  V30 11394 H 1108.18 2.10476 -3.85482 0
M  V30 11395 H 1108.78 0.474379 -4.22646 0
M  V30 11396 N 1107.1 1.56929 -0.145233 0
M  V30 11397 C 1108.34 1.96358 0.50707 0
M  V30 11398 C 1108.68 1.03005 1.64632 0
M  V30 11399 O 1107.95 0.0721045 1.94366 0
M  V30 11400 C 1108.23 3.45502 1.01492 0
M  V30 11401 C 1108.09 4.49633 -0.122708 0
M  V30 11402 C 1109.41 3.97103 1.89729 0
M  V30 11403 H 1106.52 0.713958 0.182848 0
M  V30 11404 H 1109.17 1.8865 -0.226102 0
M  V30 11405 H 1107.32 3.52202 1.6397 0
M  V30 11406 H 1108.99 4.55013 -0.758988 0
M  V30 11407 H 1107.23 4.26691 -0.782109 0
M  V30 11408 H 1107.9 5.51318 0.27432 0
M  V30 11409 H 1110.38 3.92871 1.37082 0
M  V30 11410 H 1109.25 5.01927 2.22173 0
M  V30 11411 H 1109.52 3.39354 2.83357 0
M  V30 11412 N 1108.58 -0.128553 1.57075 0
M  V30 11413 C 1109.8 -0.8564 1.88893 0
M  V30 11414 C 1110.23 -1.73095 0.736196 0
M  V30 11415 O 1109.58 -1.78567 -0.313629 0
M  V30 11416 C 1109.63 -1.67368 3.19406 0
M  V30 11417 O 1108.74 -2.77973 3.04639 0
M  V30 11418 H 1108.08 -0.237424 0.620102 0
M  V30 11419 H 1110.61 -0.113821 2.04283 0
M  V30 11420 H 1110.62 -2.0649 3.51889 0
M  V30 11421 H 1109.29 -1.03161 4.02903 0
M  V30 11422 H 1107.87 -2.42123 2.83603 0
M  V30 11423 N 1110.05 -1.5248 -0.398459 0
M  V30 11424 C 1111.3 -1.66731 -1.14215 0
M  V30 11425 C 1111.62 -0.404957 -1.90749 0
M  V30 11426 O 1110.89 0.580434 -1.87104 0
M  V30 11427 H 1109.47 -0.614577 -0.424622 0
M  V30 11428 H 1112.13 -1.89561 -0.453059 0
M  V30 11429 H 1111.23 -2.51336 -1.85031 0
M  V30 11430 N 1111.53 0.65634 -1.43283 0
M  V30 11431 C 1112.76 1.44408 -1.48168 0
M  V30 11432 C 1113.17 1.88542 -0.0986016 0
M  V30 11433 O 1112.53 1.59298 0.890527 0
M  V30 11434 C 1112.58 2.68111 -2.42484 0
M  V30 11435 O 1112.3 2.25824 -3.75413 0
M  V30 11436 C 1113.8 3.61499 -2.56579 0
M  V30 11437 H 1111.02 0.443731 -0.503333 0
M  V30 11438 H 1113.57 0.804917 -1.87993 0
M  V30 11439 H 1111.72 3.28175 -2.05863 0
M  V30 11440 H 1112.14 3.05839 -4.26102 0
M  V30 11441 H 1113.61 4.44972 -3.26655 0
M  V30 11442 H 1114.09 4.08639 -1.60969 0
M  V30 11443 H 1114.69 3.07319 -2.93998 0
M  V30 11444 N 1113.01 1.29761 0.894412 0
M  V30 11445 C 1113.92 1.1724 2.03204 0
M  V30 11446 C 1114.94 0.0944452 1.73743 0
M  V30 11447 O 1116.11 0.307549 1.99038 0
M  V30 11448 C 1113.18 0.855416 3.35981 0
M  V30 11449 C 1112.24 2.01777 3.78926 0
M  V30 11450 C 1111.47 1.71581 5.05367 0
M  V30 11451 O 1111.69 0.639245 5.66807 0
M  V30 11452 O 1110.63 2.56539 5.44492 0
M  V30 11453 H 1114.45 2.12787 2.16692 0
M  V30 11454 H 1112.04 1.09264 1.0189 0
M  V30 11455 H 1113.92 0.693429 4.15656 0
M  V30 11456 H 1112.6 -0.0702195 3.23624 0
M  V30 11457 H 1111.5 2.23502 2.99996 0
M  V30 11458 H 1112.84 2.92479 3.95875 0
M  V30 11459 N 1114.49 -1.10549 1.12324 0
M  V30 11460 C 1115.74 -1.81851 0.872531 0
M  V30 11461 C 1116.05 -1.86058 -0.603468 0
M  V30 11462 O 1117.26 -2.53553 -0.970736 0
M  V30 11463 C 1115.71 -3.26631 1.51131 0
M  V30 11464 C 1115.32 -3.30725 3.02201 0
M  V30 11465 C 1117.06 -4.02768 1.34082 0
M  V30 11466 C 1114.97 -4.69957 3.59018 0
M  V30 11467 H 1113.9 -0.681422 0.322769 0
M  V30 11468 H 1116.55 -1.24332 1.34959 0
M  V30 11469 H 1114.93 -3.8414 0.961913 0
M  V30 11470 H 1116.11 -2.83046 3.63623 0
M  V30 11471 H 1114.42 -2.68072 3.18632 0
M  V30 11472 H 1117.02 -5.05612 1.73955 0
M  V30 11473 H 1117.36 -4.15328 0.284369 0
M  V30 11474 H 1117.9 -3.51671 1.85937 0
M  V30 11475 H 1114.63 -4.62597 4.64418 0
M  V30 11476 H 1114.15 -5.18008 3.02371 0
M  V30 11477 H 1115.83 -5.38925 3.58007 0
M  V30 11478 N 1115.97 -0.914965 -1.28321 0
M  V30 11479 C 1116.88 -0.409424 -2.31 0
M  V30 11480 C 1117.89 0.503526 -1.66555 0
M  V30 11481 O 1119.07 0.38942 -1.97599 0
M  V30 11482 C 1116.13 0.34123 -3.45017 0
M  V30 11483 C 1115.19 -0.605087 -4.25014 0
M  V30 11484 C 1114.43 0.109837 -5.33587 0
M  V30 11485 O 1114.65 1.33136 -5.54645 0
M  V30 11486 O 1113.58 -0.555474 -5.99331 0
M  V30 11487 H 1117.41 -1.26167 -2.76253 0
M  V30 11488 H 1114.99 -0.679831 -1.33036 0
M  V30 11489 H 1116.88 0.765132 -4.14396 0
M  V30 11490 H 1115.55 1.16929 -3.01843 0
M  V30 11491 H 1114.46 -1.07841 -3.58219 0
M  V30 11492 H 1115.79 -1.39999 -4.7187 0
M  V30 11493 N 1117.44 1.42219 -0.679077 0
M  V30 11494 C 1118.69 2.00703 -0.200309 0
M  V30 11495 C 1119.01 1.54339 1.20161 0
M  V30 11496 O 1120.21 2.0527 1.77698 0
M  V30 11497 C 1118.67 3.58586 -0.307248 0
M  V30 11498 C 1118.28 4.13937 -1.71349 0
M  V30 11499 C 1120.02 4.24351 0.112588 0
M  V30 11500 C 1117.93 5.64198 -1.77297 0
M  V30 11501 H 1116.86 0.750638 -0.0711279 0
M  V30 11502 H 1119.51 1.62893 -0.844881 0
M  V30 11503 H 1117.89 3.93921 0.40529 0
M  V30 11504 H 1119.06 3.90054 -2.45346 0
M  V30 11505 H 1117.38 3.60639 -2.08155 0
M  V30 11506 H 1119.98 5.34627 0.0883578 0
M  V30 11507 H 1120.32 4.00142 1.14857 0
M  V30 11508 H 1120.85 3.93992 -0.549093 0
M  V30 11509 H 1117.59 5.93211 -2.78892 0
M  V30 11510 H 1117.11 5.90058 -1.07662 0
M  V30 11511 H 1118.79 6.2869 -1.52835 0
M  V30 11512 N 1118.92 0.422693 1.51826 0
M  V30 11513 C 1119.83 -0.40261 2.31119 0
M  V30 11514 C 1120.85 -1.04117 1.39412 0
M  V30 11515 O 1122.02 -1.03973 1.72486 0
M  V30 11516 C 1119.09 -1.49699 3.12716 0
M  V30 11517 C 1118.15 -0.880088 4.20182 0
M  V30 11518 C 1117.38 -1.92232 4.97878 0
M  V30 11519 O 1117.61 -3.14246 4.76031 0
M  V30 11520 O 1116.54 -1.521 5.82365 0
M  V30 11521 H 1120.37 0.244308 3.02716 0
M  V30 11522 H 1117.95 0.185569 1.48243 0
M  V30 11523 H 1119.83 -2.13202 3.63487 0
M  V30 11524 H 1118.51 -2.12826 2.43899 0
M  V30 11525 H 1117.41 -0.207404 3.73525 0
M  V30 11526 H 1118.75 -0.292535 4.9133 0
M  V30 11527 N 1120.4 -1.5685 0.153553 0
M  V30 11528 C 1121.65 -1.96625 -0.49665 0
M  V30 11529 C 1121.98 -1.03877 -1.64083 0
M  V30 11530 O 1121.25 -0.0824112 -1.94325 0
M  V30 11531 C 1121.54 -3.46035 -0.996585 0
M  V30 11532 C 1121.39 -4.49561 0.146551 0
M  V30 11533 C 1122.71 -3.98104 -1.8762 0
M  V30 11534 H 1119.83 -0.714917 -0.179059 0
M  V30 11535 H 1122.47 -1.88527 0.236104 0
M  V30 11536 H 1120.62 -3.53066 -1.621 0
M  V30 11537 H 1122.29 -4.54604 0.783108 0
M  V30 11538 H 1120.53 -4.26271 0.804727 0
M  V30 11539 H 1121.21 -5.51456 -0.245078 0
M  V30 11540 H 1123.68 -3.93593 -1.34997 0
M  V30 11541 H 1122.56 -5.03098 -2.19508 0
M  V30 11542 H 1122.82 -3.40852 -2.81554 0
M  V30 11543 N 1121.88 0.120221 -1.57141 0
M  V30 11544 C 1123.13 0.826791 -1.83976 0
M  V30 11545 C 1123.44 1.81102 -0.739014 0
M  V30 11546 O 1124.65 2.56368 -0.893736 0
M  V30 11547 C 1123.1 1.52108 -3.26176 0
M  V30 11548 C 1122.71 0.577902 -4.44257 0
M  V30 11549 C 1124.45 2.21286 -3.62261 0
M  V30 11550 C 1122.36 1.27535 -5.77485 0
M  V30 11551 H 1121.29 0.312508 -0.686189 0
M  V30 11552 H 1123.94 0.0795343 -1.83328 0
M  V30 11553 H 1122.32 2.31492 -3.2129 0
M  V30 11554 H 1123.5 -0.182629 -4.60438 0
M  V30 11555 H 1121.81 -0.00684348 -4.16399 0
M  V30 11556 H 1124.41 2.74154 -4.59068 0
M  V30 11557 H 1124.75 2.99029 -2.89634 0
M  V30 11558 H 1125.29 1.48791 -3.68925 0
M  V30 11559 H 1122.02 0.539237 -6.53278 0
M  V30 11560 H 1121.54 2.00792 -5.65192 0
M  V30 11561 H 1123.22 1.80888 -6.21199 0
M  V30 11562 N 1123.36 1.52689 0.390367 0
M  V30 11563 C 1124.31 1.73751 1.4763 0
M  V30 11564 C 1125.29 0.591572 1.4963 0
M  V30 11565 O 1126.48 0.849354 1.5529 0
M  V30 11566 C 1123.61 1.90855 2.85358 0
M  V30 11567 C 1122.7 3.11377 2.87933 0
M  V30 11568 N 1123.09 4.33751 2.6018 0
M  V30 11569 C 1121.39 3.11594 3.19101 0
M  V30 11570 C 1122.09 5.15346 2.69803 0
M  V30 11571 N 1121.06 4.51002 3.03476 0
M  V30 11572 H 1124.87 2.65994 1.24997 0
M  V30 11573 H 1122.38 1.50977 0.598301 0
M  V30 11574 H 1124.38 2.04065 3.63542 0
M  V30 11575 H 1123.04 0.998241 3.08974 0
M  V30 11576 H 1124.05 4.61907 2.34227 0
M  V30 11577 H 1120.72 2.30368 3.48191 0
M  V30 11578 H 1122.11 6.22892 2.51902 0
M  V30 11579 N 1124.83 -0.648732 1.43629 0
M  V30 11580 C 1126.11 -1.4062 1.35961 0
M  V30 11581 C 1126.49 -2.11098 0.00961023 0
M  V30 11582 O 1125.84 -2.05107 -1.00714 0
M  V30 11583 C 1126.05 -2.38719 2.54586 0
M  V30 11584 C 1127.4 -3.02584 2.97873 0
M  V30 11585 O 1128.42 -2.49046 2.54665 0
M  V30 11586 O 1127.28 -3.99662 3.72736 0
M  V30 11587 H 1124.37 -0.628483 0.53753 0
M  V30 11588 H 1126.92 -0.675263 1.55687 0
M  V30 11589 H 1125.69 -1.85619 3.44472 0
M  V30 11590 H 1125.32 -3.19257 2.36983 0
M  V30 11591 N 1126.31 -1.30234 -0.887518 0
M  V30 11592 C 1127.22 -1.18316 -2.02579 0
M  V30 11593 C 1128.24 -0.103658 -1.73691 0
M  V30 11594 O 1129.41 -0.3181 -1.98872 0
M  V30 11595 C 1126.48 -0.873222 -3.35523 0
M  V30 11596 C 1125.54 -2.03783 -3.7785 0
M  V30 11597 C 1124.77 -1.74258 -5.0445 0
M  V30 11598 O 1125 -0.669295 -5.6646 0
M  V30 11599 O 1123.93 -2.59423 -5.43124 0
M  V30 11600 H 1127.76 -2.13933 -2.15561 0
M  V30 11601 H 1125.34 -1.09803 -1.0131 0
M  V30 11602 H 1127.22 -0.715463 -4.15282 0
M  V30 11603 H 1125.9 0.053056 -3.23657 0
M  V30 11604 H 1124.81 -2.2509 -2.98806 0
M  V30 11605 H 1126.14 -2.94574 -3.94318 0
M  V30 11606 N 1127.79 1.09952 -1.12909 0
M  V30 11607 C 1128.74 2.16436 -0.801514 0
M  V30 11608 C 1129.71 1.64444 0.233976 0
M  V30 11609 O 1130.89 1.90497 0.10743 0
M  V30 11610 C 1128.03 3.4406 -0.267753 0
M  V30 11611 C 1127.15 4.09979 -1.36165 0
M  V30 11612 C 1126.28 5.25341 -0.786803 0
M  V30 11613 C 1125.32 5.83172 -1.85948 0
M  V30 11614 N 1124.46 6.89904 -1.30298 0
M  V30 11615 H 1129.3 2.43799 -1.71365 0
M  V30 11616 H 1126.83 1.19665 -0.855499 0
M  V30 11617 H 1128.79 4.17157 0.0598031 0
M  V30 11618 H 1127.42 3.17031 0.607528 0
M  V30 11619 H 1126.47 3.34801 -1.8059 0
M  V30 11620 H 1127.79 4.48999 -2.17259 0
M  V30 11621 H 1126.94 6.05312 -0.410211 0
M  V30 11622 H 1125.68 4.87669 0.055279 0
M  V30 11623 H 1124.68 5.01867 -2.24521 0
M  V30 11624 H 1125.91 6.22907 -2.70487 0
M  V30 11625 H 1123.85 6.54221 -0.482806 0
M  V30 11626 H 1123.77 7.27662 -2.05046 0
M  V30 11627 H 1125.04 7.73643 -0.953779 0
M  V30 11628 N 1129.27 0.921757 1.27833 0
M  V30 11629 C 1130.52 0.557974 1.94245 0
M  V30 11630 C 1130.84 -0.90268 1.72849 0
M  V30 11631 O 1130.11 -1.63915 1.07279 0
M  V30 11632 H 1128.69 0.203364 0.718785 0
M  V30 11633 H 1131.35 1.17286 1.5566 0
M  V30 11634 H 1130.45 0.759202 3.02725 0
M  V30 11635 N 1130.75 -1.41857 0.686609 0
M  V30 11636 C 1131.97 -2.05699 0.222561 0
M  V30 11637 C 1132.39 -1.51636 -1.12481 0
M  V30 11638 O 1131.75 -0.660925 -1.70112 0
M  V30 11639 C 1131.8 -3.61138 0.161818 0
M  V30 11640 O 1131.52 -4.13199 1.45596 0
M  V30 11641 C 1133.02 -4.42112 -0.324304 0
M  V30 11642 H 1130.24 -0.662665 0.10543 0
M  V30 11643 H 1132.78 -1.81788 0.936671 0
M  V30 11644 H 1130.94 -3.8412 -0.503056 0
M  V30 11645 H 1131.35 -5.0717 1.33712 0
M  V30 11646 H 1132.83 -5.51097 -0.315694 0
M  V30 11647 H 1133.3 -4.1756 -1.36164 0
M  V30 11648 H 1133.91 -4.24174 0.309251 0
M  V30 11649 N 1132.22 -0.430739 -1.51599 0
M  V30 11650 C 1133.19 0.372319 -2.26156 0
M  V30 11651 C 1134.19 0.955338 -1.29344 0
M  V30 11652 O 1135.38 0.830823 -1.53111 0
M  V30 11653 C 1132.51 1.52613 -3.04831 0
M  V30 11654 H 1133.7 -0.280996 -2.98581 0
M  V30 11655 H 1131.26 -0.183749 -1.55216 0
M  V30 11656 H 1131.99 2.21569 -2.36807 0
M  V30 11657 H 1131.78 1.11433 -3.75932 0
M  V30 11658 H 1133.27 2.09366 -3.61325 0
M  V30 11659 N 1133.7 1.56767 -0.161869 0
M  V30 11660 C 1134.93 2.00964 0.492027 0
M  V30 11661 C 1135.35 1.04206 1.57437 0
M  V30 11662 O 1134.7 0.0413998 1.82453 0
M  V30 11663 C 1134.75 3.4502 1.07904 0
M  V30 11664 O 1134.47 4.38082 0.0399085 0
M  V30 11665 C 1135.98 4.04572 1.81209 0
M  V30 11666 H 1133.2 0.658911 0.126797 0
M  V30 11667 H 1135.74 2.0283 -0.260824 0
M  V30 11668 H 1133.89 3.43959 1.78243 0
M  V30 11669 H 1134.31 5.22372 0.471985 0
M  V30 11670 H 1135.78 5.07321 2.17554 0
M  V30 11671 H 1136.26 3.46126 2.70359 0
M  V30 11672 H 1136.87 4.09307 1.15534 0
M  V30 11673 N 1135.18 -0.111886 1.57202 0
M  V30 11674 C 1136.11 -1.13796 2.03894 0
M  V30 11675 C 1137.09 -1.4277 0.924696 0
M  V30 11676 O 1138.28 -1.53089 1.19488 0
M  V30 11677 C 1135.41 -2.46229 2.44925 0
M  V30 11678 C 1134.36 -2.31702 3.59859 0
M  V30 11679 C 1133.69 -3.69161 3.86813 0
M  V30 11680 C 1134.99 -1.77158 4.91337 0
M  V30 11681 H 1136.68 -0.749581 2.89865 0
M  V30 11682 H 1134.23 -0.359126 1.3945 0
M  V30 11683 H 1136.18 -3.18267 2.76195 0
M  V30 11684 H 1134.9 -2.86971 1.55933 0
M  V30 11685 H 1133.56 -1.62112 3.28809 0
M  V30 11686 H 1133.21 -4.07401 2.95015 0
M  V30 11687 H 1132.91 -3.60292 4.6418 0
M  V30 11688 H 1134.43 -4.42693 4.20542 0
M  V30 11689 H 1135.85 -2.3902 5.21097 0
M  V30 11690 H 1134.25 -1.79091 5.72753 0
M  V30 11691 H 1135.32 -0.729675 4.79379 0
M  V30 11692 N 1136.66 -1.52894 -0.382264 0
M  V30 11693 C 1138.07 -1.60135 -0.959887 0
M  V30 11694 C 1138.42 -0.458363 -1.90771 0
M  V30 11695 O 1137.55 0.417614 -2.12332 0
M  V30 11696 C 1138.14 -2.90243 -1.74769 0
M  V30 11697 C 1136.7 -2.99874 -2.27491 0
M  V30 11698 C 1135.85 -2.55302 -1.0824 0
M  V30 11699 H 1138.8 -1.57875 -0.161589 0
M  V30 11700 H 1138.82 -2.77108 -2.60751 0
M  V30 11701 H 1138.33 -3.73412 -1.0576 0
M  V30 11702 H 1136.43 -2.21258 -2.99793 0
M  V30 11703 H 1136.54 -4.04643 -2.56516 0
M  V30 11704 H 1134.91 -2.09781 -1.44444 0
M  V30 11705 H 1135.69 -3.40872 -0.407553 0
M  V30 11706 N 1138.14 0.641106 -1.43971 0
M  V30 11707 C 1139.36 1.43324 -1.4991 0
M  V30 11708 C 1139.79 1.87705 -0.121908 0
M  V30 11709 O 1139.15 1.58127 0.886875 0
M  V30 11710 C 1139.19 2.63637 -2.46025 0
M  V30 11711 O 1138.3 3.63123 -1.95488 0
M  V30 11712 H 1137.64 0.429252 -0.506595 0
M  V30 11713 H 1140.17 0.783427 -1.89007 0
M  V30 11714 H 1140.18 3.11304 -2.63731 0
M  V30 11715 H 1138.85 2.30678 -3.46064 0
M  V30 11716 H 1137.43 3.22332 -1.87501 0
M  V30 11717 N 1139.62 1.30703 0.880598 0
M  V30 11718 C 1140.84 1.22714 1.6658 0
M  V30 11719 C 1141.26 -0.209303 1.87636 0
M  V30 11720 O 1140.62 -1.13771 1.42697 0
M  V30 11721 C 1140.67 1.95659 3.03974 0
M  V30 11722 O 1140.39 3.33695 2.83865 0
M  V30 11723 C 1141.89 1.9438 3.98411 0
M  V30 11724 H 1139.11 0.424478 0.519673 0
M  V30 11725 H 1141.65 1.72402 1.0999 0
M  V30 11726 H 1139.81 1.49758 3.57283 0
M  V30 11727 H 1140.22 3.70697 3.71058 0
M  V30 11728 H 1141.7 2.4995 4.92168 0
M  V30 11729 H 1142.17 0.923767 4.29375 0
M  V30 11730 H 1142.78 2.40112 3.51036 0
M  V30 11731 N 1141.09 -1.09351 1.1349 0
M  V30 11732 C 1142.34 -1.81543 0.897123 0
M  V30 11733 C 1142.67 -1.85754 -0.576703 0
M  V30 11734 O 1141.92 -1.32213 -1.44285 0
M  V30 11735 C 1142.22 -3.27498 1.43108 0
M  V30 11736 C 1141.89 -3.4342 2.92188 0
M  V30 11737 C 1140.55 -3.47473 3.32891 0
M  V30 11738 C 1142.9 -3.47894 3.88097 0
M  V30 11739 C 1140.23 -3.5358 4.68186 0
M  V30 11740 C 1142.58 -3.55535 5.23238 0
M  V30 11741 C 1141.25 -3.57857 5.63467 0
M  V30 11742 H 1140.52 -0.664314 0.32828 0
M  V30 11743 H 1143.16 -1.28819 1.41697 0
M  V30 11744 H 1141.47 -3.82865 0.831946 0
M  V30 11745 H 1143.17 -3.8189 1.22316 0
M  V30 11746 H 1139.76 -3.4095 2.59713 0
M  V30 11747 H 1143.94 -3.44002 3.57737 0
M  V30 11748 H 1139.2 -3.53665 4.9873 0
M  V30 11749 H 1143.37 -3.57942 5.9737 0
M  V30 11750 H 1141 -3.62341 6.68291 0
M  V30 11751 N 1142.57 -0.928524 -1.27343 0
M  V30 11752 C 1143.48 -0.433901 -2.30553 0
M  V30 11753 C 1144.5 0.485832 -1.6708 0
M  V30 11754 O 1145.67 0.36844 -1.98001 0
M  V30 11755 C 1142.74 0.304617 -3.45359 0
M  V30 11756 C 1141.8 -0.650131 -4.24349 0
M  V30 11757 C 1141.03 0.0532372 -5.33673 0
M  V30 11758 O 1141.26 1.27246 -5.56026 0
M  V30 11759 O 1140.19 -0.619009 -5.98709 0
M  V30 11760 H 1144.02 -1.2909 -2.74899 0
M  V30 11761 H 1141.6 -0.693903 -1.32308 0
M  V30 11762 H 1143.48 0.721137 -4.15184 0
M  V30 11763 H 1142.16 1.13721 -3.03066 0
M  V30 11764 H 1141.06 -1.11635 -3.57055 0
M  V30 11765 H 1142.4 -1.44996 -4.70358 0
M  V30 11766 N 1144.05 1.41491 -0.694123 0
M  V30 11767 C 1145.33 1.95004 -0.152571 0
M  V30 11768 C 1145.71 1.63357 1.33707 0
M  V30 11769 O 1145.05 0.939815 2.08278 0
M  V30 11770 C 1145.26 3.46186 -0.44232 0
M  V30 11771 C 1146.61 4.22991 -0.369279 0
M  V30 11772 O 1147.64 3.54198 -0.377152 0
M  V30 11773 O 1146.5 5.45514 -0.328145 0
M  V30 11774 H 1143.59 0.826879 -0.0141253 0
M  V30 11775 H 1146.14 1.51216 -0.770183 0
M  V30 11776 H 1144.91 3.62497 -1.47348 0
M  V30 11777 H 1144.53 3.97064 0.206337 0
M  V30 11778 N 1145.53 0.438773 1.51369 0
M  V30 11779 C 1146.78 -0.126962 2.01701 0
M  V30 11780 C 1147.1 -1.43086 1.32481 0
M  V30 11781 O 1146.37 -1.90427 0.459823 0
M  V30 11782 H 1144.95 -0.0499092 0.745331 0
M  V30 11783 H 1147.61 0.581808 1.86013 0
M  V30 11784 H 1146.7 -0.301836 3.10637 0
M  V30 11785 N 1147.01 -1.56678 0.170181 0
M  V30 11786 C 1148.23 -2.01223 -0.481362 0
M  V30 11787 C 1148.65 -1.05039 -1.56883 0
M  V30 11788 O 1148.01 -0.0510751 -1.82429 0
M  V30 11789 C 1148.06 -3.45588 -1.06073 0
M  V30 11790 O 1147.78 -4.38097 -0.0166754 0
M  V30 11791 C 1149.28 -4.05527 -1.79061 0
M  V30 11792 H 1146.5 -0.659574 -0.1233 0
M  V30 11793 H 1149.04 -2.02689 0.271576 0
M  V30 11794 H 1147.2 -3.449 -1.76417 0
M  V30 11795 H 1147.61 -5.22615 -0.444276 0
M  V30 11796 H 1149.09 -5.08467 -2.1486 0
M  V30 11797 H 1149.56 -3.47554 -2.68519 0
M  V30 11798 H 1150.17 -4.09914 -1.13361 0
M  V30 11799 N 1148.48 0.103547 -1.57259 0
M  V30 11800 C 1149.9 0.457527 -1.52901 0
M  V30 11801 C 1150.1 1.80995 -0.8856 0
M  V30 11802 O 1149.16 2.48001 -0.474504 0
M  V30 11803 C 1150.47 0.427793 -2.97641 0
M  V30 11804 C 1152.02 0.51025 -3.08813 0
M  V30 11805 C 1152.49 0.51075 -4.55143 0
M  V30 11806 N 1153.98 0.571748 -4.59658 0
M  V30 11807 C 1154.72 0.593836 -5.70317 0
M  V30 11808 N 1154.21 0.572638 -6.90429 0
M  V30 11809 N 1156.01 0.638011 -5.58467 0
M  V30 11810 H 1148.16 -0.782408 -1.97464 0
M  V30 11811 H 1150.42 -0.290324 -0.90245 0
M  V30 11812 H 1150.13 -0.498608 -3.48148 0
M  V30 11813 H 1150 1.24991 -3.55889 0
M  V30 11814 H 1152.39 1.42707 -2.583 0
M  V30 11815 H 1152.47 -0.339846 -2.53532 0
M  V30 11816 H 1152.11 -0.40209 -5.06306 0
M  V30 11817 H 1152.04 1.37794 -5.08252 0
M  V30 11818 H 1154.53 0.593668 -3.73208 0
M  V30 11819 H 1154.85 0.592542 -7.70525 0
M  V30 11820 H 1153.19 0.539818 -6.929 0
M  V30 11821 H 1156.38 0.652042 -4.63536 0
M  V30 11822 H 1156.56 0.651756 -6.44714 0
M  V30 11823 N 1149.96 1.53094 0.37415 0
M  V30 11824 C 1150.89 1.75199 1.47776 0
M  V30 11825 C 1151.91 0.632627 1.50006 0
M  V30 11826 O 1153.1 0.908688 1.5364 0
M  V30 11827 C 1150.2 1.80909 2.86575 0
M  V30 11828 C 1149.37 3.10432 3.08141 0
M  V30 11829 C 1148.43 3.07495 4.27005 0
M  V30 11830 O 1147.45 3.81319 4.22592 0
M  V30 11831 N 1148.66 2.27715 5.33972 0
M  V30 11832 H 1151.42 2.70423 1.29196 0
M  V30 11833 H 1148.98 1.51766 0.563802 0
M  V30 11834 H 1150.97 1.76432 3.64217 0
M  V30 11835 H 1149.54 0.930074 2.98443 0
M  V30 11836 H 1148.76 3.2828 2.18233 0
M  V30 11837 H 1150.05 3.96047 3.19413 0
M  V30 11838 H 1149.45 1.67231 5.40417 0
M  V30 11839 H 1148.01 2.29065 6.10223 0
M  V30 11840 N 1151.44 -0.633461 1.44309 0
M  V30 11841 C 1152.69 -1.39031 1.46679 0
M  V30 11842 C 1153.01 -1.94745 0.0997165 0
M  V30 11843 O 1152.28 -1.75637 -0.867659 0
M  V30 11844 H 1150.86 -0.516051 0.540093 0
M  V30 11845 H 1153.52 -0.745739 1.80069 0
M  V30 11846 H 1152.62 -2.2228 2.19085 0
M  V30 11847 N 1152.92 -1.31168 -0.873655 0
M  V30 11848 C 1154.16 -1.21831 -1.62877 0
M  V30 11849 C 1154.52 0.222272 -1.91112 0
M  V30 11850 O 1153.81 1.15463 -1.52902 0
M  V30 11851 C 1154.01 -1.99204 -2.96736 0
M  V30 11852 C 1153.84 -3.50639 -2.81571 0
M  V30 11853 C 1152.61 -4.19992 -2.80953 0
M  V30 11854 C 1154.8 -4.45658 -2.56697 0
M  V30 11855 N 1152.79 -5.57609 -2.56799 0
M  V30 11856 C 1154.16 -5.70917 -2.41771 0
M  V30 11857 C 1156.21 -4.35126 -2.42012 0
M  V30 11858 C 1154.91 -6.86837 -2.13654 0
M  V30 11859 C 1156.94 -5.50825 -2.15282 0
M  V30 11860 C 1156.3 -6.75071 -2.01142 0
M  V30 11861 H 1152.4 -0.500911 -0.60051 0
M  V30 11862 H 1154.99 -1.65313 -1.02857 0
M  V30 11863 H 1153.16 -1.58096 -3.54768 0
M  V30 11864 H 1154.89 -1.81916 -3.61509 0
M  V30 11865 H 1151.64 -3.71928 -2.932 0
M  V30 11866 H 1152.07 -6.30058 -2.47703 0
M  V30 11867 H 1156.71 -3.39736 -2.51673 0
M  V30 11868 H 1154.43 -7.82257 -2.0273 0
M  V30 11869 H 1158.01 -5.44591 -2.04725 0
M  V30 11870 H 1156.89 -7.63085 -1.8075 0
M  V30 11871 N 1154.4 1.08748 -1.14068 0
M  V30 11872 C 1155.67 1.7769 -0.81766 0
M  V30 11873 C 1156.05 1.99522 0.689501 0
M  V30 11874 O 1155.4 1.60222 1.62914 0
M  V30 11875 C 1155.61 3.09517 -1.61245 0
M  V30 11876 C 1156.96 3.84108 -1.80958 0
M  V30 11877 O 1157.98 3.19289 -1.57902 0
M  V30 11878 O 1156.84 5.00491 -2.19479 0
M  V30 11879 H 1153.94 0.770953 -0.299265 0
M  V30 11880 H 1156.48 1.15242 -1.24569 0
M  V30 11881 H 1155.25 2.89155 -2.63638 0
M  V30 11882 H 1154.88 3.79692 -1.17982 0
M  V30 11883 N 1155.87 0.935264 1.26849 0
M  V30 11884 C 1157.12 0.590057 1.94653 0
M  V30 11885 C 1157.48 -0.860481 1.72086 0
M  V30 11886 O 1156.77 -1.60672 1.04379 0
M  V30 11887 C 1156.96 0.861098 3.46872 0
M  V30 11888 C 1156.79 2.33643 3.84241 0
M  V30 11889 C 1155.56 2.99052 4.07303 0
M  V30 11890 C 1157.76 3.3145 3.9325 0
M  V30 11891 N 1155.74 4.36659 4.31511 0
M  V30 11892 C 1157.11 4.54294 4.21921 0
M  V30 11893 C 1159.17 3.26555 3.75854 0
M  V30 11894 C 1157.87 5.72854 4.35006 0
M  V30 11895 C 1159.9 4.44435 3.90168 0
M  V30 11896 C 1159.26 5.66059 4.19233 0
M  V30 11897 H 1155.36 0.266182 0.735303 0
M  V30 11898 H 1157.94 1.20345 1.53053 0
M  V30 11899 H 1156.11 0.276803 3.87412 0
M  V30 11900 H 1157.84 0.477757 4.0187 0
M  V30 11901 H 1154.6 2.49692 4.02431 0
M  V30 11902 H 1155.02 5.07869 4.47658 0
M  V30 11903 H 1159.67 2.33585 3.52417 0
M  V30 11904 H 1157.38 6.66283 4.57266 0
M  V30 11905 H 1160.97 4.42174 3.78119 0
M  V30 11906 H 1159.85 6.55753 4.30068 0
M  V30 11907 N 1157.35 -1.41121 0.701616 0
M  V30 11908 C 1158.3 -2.27994 0.0168361 0
M  V30 11909 C 1159.29 -1.42523 -0.746733 0
M  V30 11910 O 1160.48 -1.6574 -0.621232 0
M  V30 11911 C 1157.61 -3.30898 -0.914417 0
M  V30 11912 C 1156.69 -4.23846 -0.146776 0
M  V30 11913 N 1157.08 -4.9839 0.862624 0
M  V30 11914 C 1155.38 -4.44366 -0.38138 0
M  V30 11915 C 1156.08 -5.66463 1.32266 0
M  V30 11916 N 1155.06 -5.39731 0.647433 0
M  V30 11917 H 1158.86 -2.83065 0.790675 0
M  V30 11918 H 1156.38 -1.53405 0.532977 0
M  V30 11919 H 1158.37 -3.91964 -1.4202 0
M  V30 11920 H 1157.03 -2.77387 -1.68779 0
M  V30 11921 H 1158.04 -5.02761 1.24305 0
M  V30 11922 H 1154.72 -4.01856 -1.13216 0
M  V30 11923 H 1156.11 -6.36213 2.16061 0
M  V30 11924 N 1158.83 -0.446794 -1.51134 0
M  V30 11925 C 1160.06 0.114893 -2.06581 0
M  V30 11926 C 1160.47 1.35642 -1.31327 0
M  V30 11927 O 1159.83 1.78595 -0.375506 0
M  V30 11928 C 1159.88 0.427589 -3.58962 0
M  V30 11929 O 1159.6 -0.764669 -4.31375 0
M  V30 11930 C 1161.1 1.03891 -4.30954 0
M  V30 11931 H 1158.32 0.00373031 -0.67099 0
M  V30 11932 H 1160.87 -0.628596 -1.94599 0
M  V30 11933 H 1159.02 1.12099 -3.70827 0
M  V30 11934 H 1159.44 -0.494605 -5.22163 0
M  V30 11935 H 1160.91 1.20764 -5.38628 0
M  V30 11936 H 1161.39 2.02252 -3.8986 0
M  V30 11937 H 1161.99 0.384623 -4.23557 0
M  V30 11938 N 1160.31 1.56586 -0.178487 0
M  V30 11939 C 1161.22 2.21903 0.761321 0
M  V30 11940 C 1162.23 1.21289 1.2476 0
M  V30 11941 O 1163.41 1.53974 1.29823 0
M  V30 11942 C 1160.48 2.85259 1.97048 0
M  V30 11943 C 1159.54 4.01095 1.53039 0
M  V30 11944 C 1158.77 4.61421 2.68191 0
M  V30 11945 O 1158.99 4.20644 3.85247 0
M  V30 11946 O 1157.93 5.51171 2.41855 0
M  V30 11947 H 1161.75 3.02788 0.235141 0
M  V30 11948 H 1159.34 1.49316 0.0500442 0
M  V30 11949 H 1161.22 3.25404 2.6775 0
M  V30 11950 H 1159.89 2.07366 2.48558 0
M  V30 11951 H 1158.8 3.65606 0.792661 0
M  V30 11952 H 1160.13 4.80603 1.06213 0
M  V30 11953 N 1161.79 -0.095206 1.57312 0
M  V30 11954 C 1163.01 -0.81614 1.90667 0
M  V30 11955 C 1163.44 -1.71494 0.772746 0
M  V30 11956 O 1162.79 -1.79192 -0.275682 0
M  V30 11957 C 1162.84 -1.60555 3.22885 0
M  V30 11958 O 1161.95 -2.71448 3.10467 0
M  V30 11959 H 1161.29 -0.224217 0.624998 0
M  V30 11960 H 1163.82 -0.070464 2.04479 0
M  V30 11961 H 1163.83 -1.98979 3.5619 0
M  V30 11962 H 1162.5 -0.945918 4.05 0
M  V30 11963 H 1161.08 -2.36053 2.88675 0
M  V30 11964 N 1163.26 -1.53291 -0.366026 0
M  V30 11965 C 1164.51 -1.69117 -1.10653 0
M  V30 11966 C 1164.83 -0.445327 -1.89847 0
M  V30 11967 O 1164.1 0.540616 -1.88293 0
M  V30 11968 H 1162.68 -0.623446 -0.41149 0
M  V30 11969 H 1165.35 -1.90479 -0.412749 0
M  V30 11970 H 1164.44 -2.55205 -1.79658 0
M  V30 11971 N 1164.74 0.6258 -1.44643 0
M  V30 11972 C 1165.99 1.3873 -1.47925 0
M  V30 11973 C 1166.32 1.93868 -0.113469 0
M  V30 11974 O 1165.6 1.73976 0.869639 0
M  V30 11975 C 1165.88 2.54867 -2.54391 0
M  V30 11976 C 1165.73 2.05044 -4.00346 0
M  V30 11977 C 1167.05 3.57043 -2.57309 0
M  V30 11978 H 1164.17 0.503087 -0.538584 0
M  V30 11979 H 1166.81 0.707102 -1.76352 0
M  V30 11980 H 1164.96 3.12894 -2.30281 0
M  V30 11981 H 1166.63 1.51807 -4.35606 0
M  V30 11982 H 1164.88 1.36185 -4.11869 0
M  V30 11983 H 1165.55 2.88681 -4.70497 0
M  V30 11984 H 1168.02 3.08826 -2.78865 0
M  V30 11985 H 1166.9 4.35818 -3.33698 0
M  V30 11986 H 1167.16 4.11464 -1.61708 0
M  V30 11987 N 1166.22 1.31629 0.866686 0
M  V30 11988 C 1167.17 1.19556 1.97421 0
M  V30 11989 C 1168.14 0.0805578 1.65905 0
M  V30 11990 O 1169.32 0.253997 1.89102 0
M  V30 11991 C 1166.46 0.912234 3.32825 0
M  V30 11992 C 1165.58 2.11088 3.76916 0
M  V30 11993 C 1164.71 1.76406 5.01053 0
M  V30 11994 C 1163.75 2.9266 5.37602 0
M  V30 11995 N 1162.89 2.58152 6.52918 0
M  V30 11996 H 1167.73 2.14294 2.0708 0
M  V30 11997 H 1165.26 1.06595 1.0137 0
M  V30 11998 H 1167.22 0.72851 4.1079 0
M  V30 11999 H 1165.85 0.00167404 3.228 0
M  V30 12000 H 1164.9 2.40527 2.94705 0
M  V30 12001 H 1166.22 2.98089 3.99931 0
M  V30 12002 H 1165.37 1.54515 5.86694 0
M  V30 12003 H 1164.11 0.866018 4.79949 0
M  V30 12004 H 1163.11 3.15196 4.50479 0
M  V30 12005 H 1164.34 3.83179 5.6067 0
M  V30 12006 H 1162.28 1.70874 6.33355 0
M  V30 12007 H 1162.2 3.38682 6.75892 0
M  V30 12008 H 1163.47 2.39662 7.41743 0
M  V30 12009 N 1167.7 -1.08142 1.14644 0
M  V30 12010 C 1168.93 -1.84318 0.939926 0
M  V30 12011 C 1169.34 -1.81735 -0.511636 0
M  V30 12012 O 1168.7 -1.22297 -1.35461 0
M  V30 12013 C 1168.75 -3.31744 1.43625 0
M  V30 12014 O 1168.47 -3.3435 2.83094 0
M  V30 12015 C 1169.97 -4.24717 1.27007 0
M  V30 12016 H 1167.19 -0.581781 0.334323 0
M  V30 12017 H 1169.74 -1.36561 1.52221 0
M  V30 12018 H 1167.89 -3.7688 0.896664 0
M  V30 12019 H 1168.31 -4.26399 3.05425 0
M  V30 12020 H 1169.78 -5.26262 1.66591 0
M  V30 12021 H 1170.26 -4.38682 0.213257 0
M  V30 12022 H 1170.86 -3.85409 1.79833 0
M  V30 12023 N 1169.18 -0.941978 -1.26351 0
M  V30 12024 C 1170.14 -0.456768 -2.24602 0
M  V30 12025 C 1171.14 0.432574 -1.54872 0
M  V30 12026 O 1172.33 0.23164 -1.72653 0
M  V30 12027 C 1169.46 0.341583 -3.39184 0
M  V30 12028 H 1170.66 -1.32503 -2.69041 0
M  V30 12029 H 1168.21 -0.724021 -1.38519 0
M  V30 12030 H 1168.94 1.22806 -3.00149 0
M  V30 12031 H 1168.73 -0.296268 -3.90979 0
M  V30 12032 H 1170.22 0.670955 -4.12175 0
M  V30 12033 N 1170.66 1.40747 -0.709091 0
M  V30 12034 C 1171.59 2.33404 -0.0669763 0
M  V30 12035 C 1172.57 1.52546 0.752582 0
M  V30 12036 O 1173.75 1.81036 0.702823 0
M  V30 12037 C 1170.88 3.36476 0.860285 0
M  V30 12038 C 1169.84 4.27748 0.146828 0
M  V30 12039 C 1169.16 5.21304 1.18937 0
M  V30 12040 C 1170.46 5.12734 -0.995064 0
M  V30 12041 H 1172.16 2.87349 -0.840888 0
M  V30 12042 H 1169.7 1.38163 -0.405817 0
M  V30 12043 H 1171.65 4.00231 1.31883 0
M  V30 12044 H 1170.38 2.80912 1.66602 0
M  V30 12045 H 1169.04 3.65437 -0.291826 0
M  V30 12046 H 1168.69 4.62048 1.98798 0
M  V30 12047 H 1168.39 5.8321 0.716917 0
M  V30 12048 H 1169.91 5.87936 1.64815 0
M  V30 12049 H 1171.32 5.69979 -0.61618 0
M  V30 12050 H 1169.72 5.83649 -1.39547 0
M  V30 12051 H 1170.79 4.49097 -1.82867 0
M  V30 12052 N 1172.13 0.454803 1.50895 0
M  V30 12053 C 1173.36 -0.103936 2.06639 0
M  V30 12054 C 1173.78 -1.34943 1.32044 0
M  V30 12055 O 1173.13 -1.78393 0.384972 0
M  V30 12056 C 1173.18 -0.408546 3.59184 0
M  V30 12057 O 1172.91 0.787535 4.30963 0
M  V30 12058 C 1174.41 -1.01605 4.31499 0
M  V30 12059 H 1171.63 -0.000171839 0.671 0
M  V30 12060 H 1174.17 0.638907 1.94263 0
M  V30 12061 H 1172.33 -1.1013 3.71416 0
M  V30 12062 H 1172.74 0.52229 5.21893 0
M  V30 12063 H 1174.21 -1.17906 5.39261 0
M  V30 12064 H 1174.69 -2.00182 3.90927 0
M  V30 12065 H 1175.3 -0.362155 4.23755 0
M  V30 12066 N 1173.61 -1.56489 0.186789 0
M  V30 12067 C 1174.86 -1.96517 -0.45433 0
M  V30 12068 C 1175.17 -1.07618 -1.63333 0
M  V30 12069 O 1176.38 -1.37392 -2.3417 0
M  V30 12070 C 1174.84 -3.49482 -0.859685 0
M  V30 12071 C 1174.44 -4.47031 0.294572 0
M  V30 12072 C 1176.19 -3.98296 -1.46835 0
M  V30 12073 C 1174.09 -5.91254 -0.131279 0
M  V30 12074 H 1173.02 -0.733765 -0.17351 0
M  V30 12075 H 1175.68 -1.8139 0.277485 0
M  V30 12076 H 1174.06 -3.60082 -1.64793 0
M  V30 12077 H 1175.23 -4.48156 1.07205 0
M  V30 12078 H 1173.55 -4.08362 0.814197 0
M  V30 12079 H 1176.14 -5.03518 -1.79928 0
M  V30 12080 H 1176.49 -3.42123 -2.37186 0
M  V30 12081 H 1177.02 -3.90776 -0.744247 0
M  V30 12082 H 1173.76 -6.51334 0.737839 0
M  V30 12083 H 1173.28 -5.93401 -0.873786 0
M  V30 12084 H 1174.96 -6.44485 -0.569913 0
M  V30 12085 N 1175.09 0.086862 -1.5736 0
M  V30 12086 C 1176 1.12297 -2.05977 0
M  V30 12087 C 1177.02 1.43347 -0.986284 0
M  V30 12088 O 1178.19 1.53825 -1.3 0
M  V30 12089 C 1175.26 2.42131 -2.4814 0
M  V30 12090 C 1174.32 2.18189 -3.69719 0
M  V30 12091 C 1173.55 3.41833 -4.09861 0
M  V30 12092 O 1173.77 4.50383 -3.50016 0
M  V30 12093 O 1172.71 3.30934 -5.02759 0
M  V30 12094 H 1176.53 0.740012 -2.94546 0
M  V30 12095 H 1174.12 0.29995 -1.46358 0
M  V30 12096 H 1176 3.18568 -2.75848 0
M  V30 12097 H 1174.68 2.79837 -1.62705 0
M  V30 12098 H 1173.58 1.39506 -3.47115 0
M  V30 12099 H 1174.92 1.85372 -4.55959 0
M  V30 12100 N 1176.57 1.53483 0.357892 0
M  V30 12101 C 1177.48 1.83434 1.4625 0
M  V30 12102 C 1178.49 0.723313 1.58254 0
M  V30 12103 O 1179.67 1.01416 1.74002 0
M  V30 12104 C 1176.73 2.0249 2.81423 0
M  V30 12105 C 1175.8 3.26378 2.78883 0
M  V30 12106 C 1175.03 3.44516 4.07608 0
M  V30 12107 O 1175.25 2.66787 5.04163 0
M  V30 12108 O 1174.19 4.37898 4.12952 0
M  V30 12109 H 1178.01 2.77294 1.23861 0
M  V30 12110 H 1175.6 1.38958 0.548722 0
M  V30 12111 H 1177.48 2.16552 3.61501 0
M  V30 12112 H 1176.15 1.11819 3.03773 0
M  V30 12113 H 1175.06 3.17733 1.97475 0
M  V30 12114 H 1176.39 4.16996 2.61486 0
M  V30 12115 N 1178.05 -0.61812 1.44973 0
M  V30 12116 C 1179.01 -1.71135 1.52465 0
M  V30 12117 C 1180.01 -1.5561 0.405246 0
M  V30 12118 O 1181.2 -1.60869 0.668351 0
M  V30 12119 C 1178.33 -3.10324 1.41108 0
M  V30 12120 H 1179.52 -1.65862 2.49859 0
M  V30 12121 H 1177.08 -0.832932 1.32257 0
M  V30 12122 H 1177.81 -3.21183 0.448574 0
M  V30 12123 H 1177.6 -3.23001 2.2229 0
M  V30 12124 H 1179.09 -3.89976 1.49361 0
M  V30 12125 N 1179.52 -1.32087 -0.859693 0
M  V30 12126 C 1180.47 -1.20549 -1.98924 0
M  V30 12127 C 1181.47 -0.111422 -1.69033 0
M  V30 12128 O 1182.67 -0.27401 -1.77902 0
M  V30 12129 H 1179.05 -0.373538 -0.652667 0
M  V30 12130 H 1181.02 -2.16091 -2.05785 0
M  V30 12131 C 1179.77 -0.940226 -3.34746 0
M  V30 12132 H 1179.09 -1.77427 -3.58273 0
M  V30 12133 H 1180.53 -0.899712 -4.14344 0
M  V30 12134 C 1178.99 0.357042 -3.35003 0
M  V30 12135 O 1179.52 1.37054 -3.77596 0
M  V30 12136 N 1177.72 0.37723 -2.88141 0
M  V30 12137 H 1177.27 -0.448051 -2.53674 0
M  V30 12138 H 1177.23 1.24509 -2.88695 0
M  V30 12139 N 1181 1.07532 -1.15215 0
M  V30 12140 C 1182.25 1.79737 -0.924062 0
M  V30 12141 C 1182.57 1.87072 0.550356 0
M  V30 12142 O 1181.84 1.37029 1.4 0
M  V30 12143 H 1180.42 0.665704 -0.338891 0
M  V30 12144 H 1183.08 1.29961 -1.45245 0
M  V30 12145 H 1182.18 2.82256 -1.33184 0
M  V30 12146 N 1182.48 0.948665 1.2585 0
M  V30 12147 C 1183.71 0.616741 1.98018 0
M  V30 12148 C 1184.13 -0.803005 1.70098 0
M  V30 12149 O 1183.49 -1.54208 0.953392 0
M  V30 12150 C 1183.54 0.874429 3.49837 0
M  V30 12151 O 1182.64 -0.0497568 4.1237 0
M  V30 12152 H 1181.98 0.235112 0.620982 0
M  V30 12153 H 1184.51 1.27364 1.60124 0
M  V30 12154 H 1184.52 0.798309 4.00114 0
M  V30 12155 H 1183.2 1.90922 3.69488 0
M  V30 12156 H 1181.77 0.0780591 3.72818 0
M  V30 12157 N 1183.96 -1.40369 0.716545 0
M  V30 12158 C 1184.91 -2.32539 0.053472 0
M  V30 12159 C 1185.9 -1.5209 -0.745984 0
M  V30 12160 O 1187.11 -1.67883 -0.649245 0
M  V30 12161 H 1183.48 -0.751998 -0.00151088 0
M  V30 12162 H 1185.45 -2.86111 0.847535 0
M  V30 12163 C 1184.2 -3.37061 -0.853515 0
M  V30 12164 H 1183.52 -3.99032 -0.247754 0
M  V30 12165 H 1184.96 -4.04046 -1.28541 0
M  V30 12166 C 1183.42 -2.72619 -1.97941 0
M  V30 12167 O 1183.95 -2.59024 -3.07033 0
M  V30 12168 N 1182.16 -2.30988 -1.76332 0
M  V30 12169 H 1181.71 -2.42246 -0.876063 0
M  V30 12170 H 1181.66 -1.88209 -2.51843 0
M  V30 12171 N 1185.44 -0.462799 -1.50652 0
M  V30 12172 C 1186.4 0.324264 -2.26895 0
M  V30 12173 C 1187.4 0.927687 -1.31342 0
M  V30 12174 O 1188.59 0.798159 -1.54839 0
M  V30 12175 C 1185.72 1.46113 -3.08 0
M  V30 12176 H 1186.91 -0.344266 -2.97917 0
M  V30 12177 H 1184.47 -0.216631 -1.54791 0
M  V30 12178 H 1185.2 2.16496 -2.41454 0
M  V30 12179 H 1184.99 1.03433 -3.78212 0
M  V30 12180 H 1186.48 2.01655 -3.65684 0
M  V30 12181 N 1186.91 1.56388 -0.195085 0
M  V30 12182 C 1187.84 2.22091 0.720971 0
M  V30 12183 C 1188.83 1.184 1.22128 0
M  V30 12184 O 1190.01 1.46907 1.27012 0
M  V30 12185 C 1187.14 2.88025 1.94059 0
M  V30 12186 C 1186.09 3.97959 1.5752 0
M  V30 12187 C 1185.42 4.51058 2.87143 0
M  V30 12188 C 1186.72 5.16365 0.785145 0
M  V30 12189 H 1188.41 2.98898 0.173245 0
M  V30 12190 H 1185.96 1.43767 0.0818868 0
M  V30 12191 H 1187.91 3.32671 2.58666 0
M  V30 12192 H 1186.64 2.08623 2.51285 0
M  V30 12193 H 1185.3 3.54004 0.952715 0
M  V30 12194 H 1184.94 3.68418 3.42458 0
M  V30 12195 H 1184.64 5.25237 2.63439 0
M  V30 12196 H 1186.17 4.98406 3.52738 0
M  V30 12197 H 1187.58 5.57556 1.33431 0
M  V30 12198 H 1185.98 5.9661 0.646231 0
M  V30 12199 H 1187.05 4.84428 -0.213789 0
M  V30 12200 N 1188.39 -0.0785156 1.57404 0
M  V30 12201 C 1189.62 -0.795871 1.91522 0
M  V30 12202 C 1190.04 -1.70665 0.790892 0
M  V30 12203 O 1189.4 -1.79474 -0.25666 0
M  V30 12204 C 1189.45 -1.57121 3.24569 0
M  V30 12205 O 1188.55 -2.6814 3.13328 0
M  V30 12206 H 1187.89 -0.217575 0.627341 0
M  V30 12207 H 1190.42 -0.0487724 2.04542 0
M  V30 12208 H 1190.43 -1.9519 3.5828 0
M  V30 12209 H 1189.11 -0.902909 4.05981 0
M  V30 12210 H 1187.69 -2.32978 2.91163 0
M  V30 12211 N 1189.87 -1.5367 -0.349747 0
M  V30 12212 C 1191.12 -1.71813 -1.08866 0
M  V30 12213 C 1191.47 -0.472299 -1.86513 0
M  V30 12214 O 1190.76 0.534996 -1.83979 0
M  V30 12215 C 1190.96 -2.91753 -2.06434 0
M  V30 12216 C 1190.79 -4.27881 -1.38377 0
M  V30 12217 C 1189.56 -4.92475 -1.13122 0
M  V30 12218 C 1191.76 -5.0783 -0.813198 0
M  V30 12219 N 1189.74 -6.1249 -0.415806 0
M  V30 12220 C 1191.11 -6.19581 -0.228008 0
M  V30 12221 C 1193.16 -4.92762 -0.713436 0
M  V30 12222 C 1191.87 -7.17908 0.447232 0
M  V30 12223 C 1193.89 -5.91377 -0.051947 0
M  V30 12224 C 1193.25 -7.02461 0.522299 0
M  V30 12225 H 1189.35 -0.681804 -0.382971 0
M  V30 12226 H 1191.94 -1.91093 -0.373029 0
M  V30 12227 H 1190.11 -2.73984 -2.75295 0
M  V30 12228 H 1191.84 -2.98644 -2.73118 0
M  V30 12229 H 1188.6 -4.51915 -1.41669 0
M  V30 12230 H 1189.02 -6.76961 -0.0730052 0
M  V30 12231 H 1193.66 -4.07053 -1.14315 0
M  V30 12232 H 1191.38 -8.03197 0.888855 0
M  V30 12233 H 1194.97 -5.81795 0.0245295 0
M  V30 12234 H 1193.85 -7.77459 1.02605 0
M  V30 12235 N 1191.35 0.610423 -1.45298 0
M  V30 12236 C 1192.26 1.74964 -1.56285 0
M  V30 12237 C 1193.27 1.68149 -0.447436 0
M  V30 12238 O 1194.45 1.88556 -0.707725 0
M  V30 12239 C 1191.52 3.11417 -1.52383 0
M  V30 12240 C 1190.58 3.29707 -2.7494 0
M  V30 12241 C 1189.81 4.5965 -2.71215 0
M  V30 12242 O 1190.03 5.41789 -1.78383 0
M  V30 12243 O 1188.97 4.80591 -3.62375 0
M  V30 12244 H 1192.79 1.68646 -2.52571 0
M  V30 12245 H 1190.38 0.774168 -1.27777 0
M  V30 12246 H 1192.26 3.9272 -1.52805 0
M  V30 12247 H 1190.93 3.18232 -0.592472 0
M  V30 12248 H 1189.84 2.48003 -2.80081 0
M  V30 12249 H 1191.17 3.27766 -3.67192 0
M  V30 12250 N 1192.83 1.32541 0.852676 0
M  V30 12251 C 1194.06 1.26037 1.63702 0
M  V30 12252 C 1194.46 -0.173583 1.88402 0
M  V30 12253 O 1193.81 -1.12175 1.45473 0
M  V30 12254 C 1193.87 1.95245 3.01861 0
M  V30 12255 C 1193.53 3.44576 3.00193 0
M  V30 12256 C 1194.53 4.40026 2.76899 0
M  V30 12257 C 1192.22 3.86541 3.20766 0
M  V30 12258 C 1194.21 5.75414 2.74185 0
M  V30 12259 C 1191.9 5.22038 3.17678 0
M  V30 12260 C 1192.89 6.16286 2.94416 0
M  V30 12261 O 1192.58 7.49303 2.91206 0
M  V30 12262 H 1192.31 0.436073 0.516543 0
M  V30 12263 H 1194.87 1.75251 1.07127 0
M  V30 12264 H 1193.1 1.40603 3.60233 0
M  V30 12265 H 1194.79 1.82423 3.62597 0
M  V30 12266 H 1195.55 4.0893 2.6077 0
M  V30 12267 H 1191.43 3.13603 3.37897 0
M  V30 12268 H 1194.98 6.4895 2.55947 0
M  V30 12269 H 1190.87 5.52762 3.33353 0
M  V30 12270 H 1191.64 7.58686 3.07146 0
M  V30 12271 N 1194.3 -1.0692 1.15784 0
M  V30 12272 C 1195.27 -2.12407 0.861167 0
M  V30 12273 C 1196.27 -1.6018 -0.141031 0
M  V30 12274 O 1197.46 -1.73972 0.0891192 0
M  V30 12275 C 1194.59 -3.39693 0.286636 0
M  V30 12276 H 1195.78 -2.40157 1.79623 0
M  V30 12277 H 1193.34 -1.22881 0.965916 0
M  V30 12278 H 1194.07 -3.17587 -0.656417 0
M  V30 12279 H 1193.86 -3.78903 1.0087 0
M  V30 12280 H 1195.35 -4.17488 0.0967971 0
M  V30 12281 N 1195.78 -0.955326 -1.25345 0
M  V30 12282 C 1197.01 -0.626783 -1.96863 0
M  V30 12283 C 1197.42 0.80547 -1.71198 0
M  V30 12284 O 1196.76 1.55049 -0.985163 0
M  V30 12285 C 1196.83 -0.806404 -3.50339 0
M  V30 12286 C 1196.49 -2.21595 -3.99681 0
M  V30 12287 C 1197.49 -3.19268 -4.10322 0
M  V30 12288 C 1195.17 -2.54032 -4.33328 0
M  V30 12289 C 1197.17 -4.47471 -4.53926 0
M  V30 12290 C 1194.85 -3.82465 -4.76617 0
M  V30 12291 C 1195.85 -4.78997 -4.86879 0
M  V30 12292 O 1195.54 -6.0514 -5.29208 0
M  V30 12293 H 1195.27 -0.233854 -0.634262 0
M  V30 12294 H 1197.82 -1.28232 -1.60455 0
M  V30 12295 H 1196.05 -0.0937184 -3.86586 0
M  V30 12296 H 1197.74 -0.47881 -4.03066 0
M  V30 12297 H 1198.51 -2.95534 -3.84558 0
M  V30 12298 H 1194.39 -1.79623 -4.24566 0
M  V30 12299 H 1197.93 -5.22819 -4.6185 0
M  V30 12300 H 1193.83 -4.06005 -5.01827 0
M  V30 12301 H 1194.6 -6.08527 -5.47392 0
M  V30 12302 N 1197.26 1.39987 -0.723979 0
M  V30 12303 C 1198.67 1.83606 -0.338461 0
M  V30 12304 C 1199.02 1.6051 1.12831 0
M  V30 12305 O 1198.15 1.09041 1.8692 0
M  V30 12306 C 1198.74 3.33308 -0.607533 0
M  V30 12307 C 1197.3 3.75389 -0.275632 0
M  V30 12308 C 1196.45 2.6311 -0.875699 0
M  V30 12309 H 1199.4 1.29135 -0.922483 0
M  V30 12310 H 1199.42 3.80297 0.124424 0
M  V30 12311 H 1198.93 3.50087 -1.67514 0
M  V30 12312 H 1197.03 3.64203 0.786579 0
M  V30 12313 H 1197.15 4.73185 -0.750492 0
M  V30 12314 H 1195.51 2.5289 -0.303122 0
M  V30 12315 H 1196.29 2.82698 -1.94774 0
M  V30 12316 N 1198.74 0.470782 1.50404 0
M  V30 12317 C 1199.65 -0.328877 2.32283 0
M  V30 12318 C 1200.67 -0.99629 1.42654 0
M  V30 12319 O 1201.84 -0.984331 1.75707 0
M  V30 12320 C 1198.91 -1.39675 3.1732 0
M  V30 12321 C 1197.97 -0.745965 4.22769 0
M  V30 12322 C 1197.2 -1.76295 5.03742 0
M  V30 12323 O 1197.42 -2.98943 4.85788 0
M  V30 12324 O 1196.36 -1.33495 5.86909 0
M  V30 12325 H 1200.18 0.340491 3.01785 0
M  V30 12326 H 1197.77 0.232637 1.47578 0
M  V30 12327 H 1199.65 -2.0153 3.70086 0
M  V30 12328 H 1198.33 -2.04959 2.50546 0
M  V30 12329 H 1197.23 -0.0884647 3.73995 0
M  V30 12330 H 1198.57 -0.136074 4.92012 0
M  V30 12331 N 1200.22 -1.56282 0.203376 0
M  V30 12332 C 1201.46 -1.98105 -0.433844 0
M  V30 12333 C 1201.8 -1.09044 -1.60695 0
M  V30 12334 O 1201.07 -0.144193 -1.93965 0
M  V30 12335 C 1201.35 -3.4903 -0.885992 0
M  V30 12336 C 1201.21 -4.48867 0.289501 0
M  V30 12337 C 1202.53 -4.03871 -1.7486 0
M  V30 12338 H 1199.65 -0.720252 -0.156224 0
M  V30 12339 H 1202.29 -1.87681 0.295963 0
M  V30 12340 H 1200.44 -3.58045 -1.50785 0
M  V30 12341 H 1202.11 -4.51883 0.92734 0
M  V30 12342 H 1200.35 -4.23495 0.939934 0
M  V30 12343 H 1201.02 -5.51956 -0.0695128 0
M  V30 12344 H 1203.5 -3.97688 -1.22407 0
M  V30 12345 H 1202.38 -5.09827 -2.03391 0
M  V30 12346 H 1202.64 -3.49637 -2.70567 0
M  V30 12347 N 1201.7 0.070167 -1.57444 0
M  V30 12348 C 1202.64 1.08322 -2.03801 0
M  V30 12349 C 1203.61 1.38364 -0.918946 0
M  V30 12350 O 1204.8 1.49404 -1.18672 0
M  V30 12351 C 1201.94 2.39128 -2.48821 0
M  V30 12352 C 1201.05 2.15603 -3.74352 0
M  V30 12353 C 1200.19 3.39984 -4.08148 0
M  V30 12354 C 1199.22 3.1183 -5.26715 0
M  V30 12355 N 1198.36 4.28546 -5.56141 0
M  V30 12356 H 1203.2 0.680931 -2.90116 0
M  V30 12357 H 1200.74 0.324657 -1.43473 0
M  V30 12358 H 1202.7 3.15501 -2.72975 0
M  V30 12359 H 1201.33 2.77157 -1.65481 0
M  V30 12360 H 1200.38 1.29915 -3.57528 0
M  V30 12361 H 1201.69 1.90808 -4.60862 0
M  V30 12362 H 1200.84 4.2475 -4.33211 0
M  V30 12363 H 1199.58 3.67856 -3.20208 0
M  V30 12364 H 1198.59 2.2546 -5.01446 0
M  V30 12365 H 1199.81 2.85278 -6.16273 0
M  V30 12366 H 1197.76 4.56447 -4.71161 0
M  V30 12367 H 1197.68 4.0703 -6.37073 0
M  V30 12368 H 1198.94 5.14305 -5.85757 0
M  V30 12369 N 1203.17 1.53854 0.341593 0
M  V30 12370 C 1204.58 1.62623 0.917093 0
M  V30 12371 C 1204.94 0.508781 1.89488 0
M  V30 12372 O 1204.06 -0.361171 2.13365 0
M  V30 12373 C 1204.66 2.94775 1.67012 0
M  V30 12374 C 1203.21 3.058 2.19461 0
M  V30 12375 C 1202.36 2.58082 1.01433 0
M  V30 12376 H 1205.31 1.58248 0.119674 0
M  V30 12377 H 1205.33 2.83924 2.53313 0
M  V30 12378 H 1204.85 3.76085 0.958221 0
M  V30 12379 H 1202.95 2.29128 2.93821 0
M  V30 12380 H 1203.06 4.11302 2.45698 0
M  V30 12381 H 1201.42 2.13537 1.38831 0
M  V30 12382 H 1202.21 3.41833 0.317033 0
M  V30 12383 N 1204.65 -0.602709 1.4562 0
M  V30 12384 C 1205.88 -1.39299 1.53657 0
M  V30 12385 C 1206.3 -1.87315 0.171632 0
M  V30 12386 O 1205.66 -1.60423 -0.844639 0
M  V30 12387 C 1205.71 -2.57021 2.52928 0
M  V30 12388 O 1204.81 -3.57812 2.05047 0
M  V30 12389 H 1204.15 -0.41567 0.517798 0
M  V30 12390 H 1206.68 -0.73304 1.91018 0
M  V30 12391 H 1206.69 -3.04202 2.71892 0
M  V30 12392 H 1205.37 -2.21422 3.52058 0
M  V30 12393 H 1203.94 -3.17247 1.95981 0
M  V30 12394 N 1206.13 -1.32992 -0.845635 0
M  V30 12395 C 1207.41 -1.14671 -1.58461 0
M  V30 12396 C 1207.79 0.289498 -2.09106 0
M  V30 12397 O 1207.13 1.28751 -1.88773 0
M  V30 12398 C 1207.34 -2.18206 -2.72373 0
M  V30 12399 C 1208.69 -2.5201 -3.41726 0
M  V30 12400 O 1209.72 -2.16821 -2.82608 0
M  V30 12401 O 1208.58 -3.12368 -4.48429 0
M  V30 12402 H 1205.67 -0.443088 -0.698285 0
M  V30 12403 H 1208.22 -1.44552 -0.888978 0
M  V30 12404 H 1206.99 -3.14707 -2.32541 0
M  V30 12405 H 1206.61 -1.89372 -3.49605 0
M  V30 12406 N 1207.61 1.06304 -1.1635 0
M  V30 12407 C 1208.86 1.78747 -0.943074 0
M  V30 12408 C 1209.18 1.87646 0.530483 0
M  V30 12409 O 1208.45 1.38506 1.38538 0
M  V30 12410 H 1207.03 0.662072 -0.345932 0
M  V30 12411 H 1209.69 1.28413 -1.46615 0
M  V30 12412 H 1208.78 2.80828 -1.3617 0
M  V30 12413 N 1209.09 0.96196 1.24836 0
M  V30 12414 C 1210.33 0.631213 1.93358 0
M  V30 12415 C 1210.69 -0.823785 1.73872 0
M  V30 12416 O 1209.98 -1.58422 1.07764 0
M  V30 12417 C 1210.17 0.934481 3.44967 0
M  V30 12418 C 1210 2.41741 3.79198 0
M  V30 12419 C 1208.77 3.07624 4.00868 0
M  V30 12420 C 1210.97 3.39717 3.86131 0
M  V30 12421 N 1208.95 4.45714 4.22152 0
M  V30 12422 C 1210.32 4.63141 4.1219 0
M  V30 12423 C 1212.38 3.34454 3.68843 0
M  V30 12424 C 1211.08 5.81953 4.22757 0
M  V30 12425 C 1213.11 4.52611 3.80653 0
M  V30 12426 C 1212.47 5.74825 4.07131 0
M  V30 12427 H 1208.57 0.281719 0.729492 0
M  V30 12428 H 1211.15 1.23564 1.50466 0
M  V30 12429 H 1209.32 0.358917 3.86738 0
M  V30 12430 H 1211.06 0.562892 4.00766 0
M  V30 12431 H 1207.81 2.58172 3.97044 0
M  V30 12432 H 1208.23 5.1725 4.36785 0
M  V30 12433 H 1212.88 2.41008 3.47383 0
M  V30 12434 H 1210.59 6.75832 4.43031 0
M  V30 12435 H 1214.18 4.50095 3.68654 0
M  V30 12436 H 1213.06 6.64727 4.16061 0
M  V30 12437 N 1210.56 -1.39601 0.731392 0
M  V30 12438 C 1211.53 -2.28992 0.0976037 0
M  V30 12439 C 1212.53 -1.46135 -0.670917 0
M  V30 12440 O 1213.72 -1.66856 -0.50047 0
M  V30 12441 C 1210.85 -3.29582 -0.871124 0
M  V30 12442 H 1212.04 -2.86541 0.885112 0
M  V30 12443 H 1209.59 -1.48188 0.497002 0
M  V30 12444 H 1210.33 -2.77082 -1.68512 0
M  V30 12445 H 1210.11 -3.9077 -0.322735 0
M  V30 12446 H 1211.6 -3.96479 -1.31126 0
M  V30 12447 N 1212.04 -0.478751 -1.50152 0
M  V30 12448 C 1213.27 0.0710485 -2.06778 0
M  V30 12449 C 1213.69 1.32826 -1.34174 0
M  V30 12450 O 1213.04 1.77758 -0.413304 0
M  V30 12451 C 1213.09 0.351351 -3.59789 0
M  V30 12452 O 1212.81 -0.855998 -4.29656 0
M  V30 12453 C 1214.32 0.947269 -4.33061 0
M  V30 12454 H 1211.54 -0.0105032 -0.670918 0
M  V30 12455 H 1214.08 -0.669732 -1.93222 0
M  V30 12456 H 1212.23 1.04207 -3.73121 0
M  V30 12457 H 1212.65 -0.605252 -5.20996 0
M  V30 12458 H 1214.12 1.09312 -5.41068 0
M  V30 12459 H 1214.6 1.93937 -3.94062 0
M  V30 12460 H 1215.21 0.294693 -4.24278 0
M  V30 12461 N 1213.52 1.56172 -0.211661 0
M  V30 12462 C 1214.48 2.18602 0.688906 0
M  V30 12463 C 1215.48 1.14508 1.12892 0
M  V30 12464 O 1216.67 1.39799 1.03932 0
M  V30 12465 C 1213.81 2.80141 1.94253 0
M  V30 12466 H 1215 2.9955 0.144765 0
M  V30 12467 H 1212.55 1.56254 0.0379615 0
M  V30 12468 H 1213.29 2.03035 2.52878 0
M  V30 12469 H 1213.07 3.56358 1.63558 0
M  V30 12470 H 1214.56 3.28026 2.58436 0
M  V30 12471 N 1215 -0.0618163 1.57479 0
M  V30 12472 C 1216.41 -0.612461 1.76368 0
M  V30 12473 C 1216.76 -1.77381 0.838466 0
M  V30 12474 O 1215.89 -2.16386 0.0250211 0
M  V30 12475 C 1216.48 -1.11782 3.19829 0
M  V30 12476 C 1215.04 -1.61424 3.40028 0
M  V30 12477 C 1214.19 -0.53795 2.72032 0
M  V30 12478 H 1217.14 0.164382 1.57846 0
M  V30 12479 H 1217.16 -1.98634 3.24538 0
M  V30 12480 H 1216.67 -0.272353 3.87143 0
M  V30 12481 H 1214.77 -2.48263 2.77842 0
M  V30 12482 H 1214.88 -1.68431 4.48517 0
M  V30 12483 H 1213.25 -0.985355 2.34868 0
M  V30 12484 H 1214.03 0.297495 3.42009 0
M  V30 12485 N 1216.48 -1.54033 -0.333429 0
M  V30 12486 C 1217.89 -1.44522 -0.677166 0
M  V30 12487 C 1218.09 -0.610122 -1.92041 0
M  V30 12488 O 1217.15 -0.105058 -2.52281 0
M  V30 12489 C 1218.46 -2.88129 -0.860369 0
M  V30 12490 C 1220.01 -2.97968 -0.958342 0
M  V30 12491 C 1220.48 -4.42703 -1.17379 0
M  V30 12492 N 1221.98 -4.46273 -1.24075 0
M  V30 12493 C 1222.71 -5.55407 -1.42515 0
M  V30 12494 N 1222.21 -6.74528 -1.58062 0
M  V30 12495 N 1224 -5.43037 -1.45144 0
M  V30 12496 H 1216.15 -2.06815 0.483858 0
M  V30 12497 H 1218.41 -0.935307 0.15461 0
M  V30 12498 H 1218.12 -3.51695 -0.0182085 0
M  V30 12499 H 1217.99 -3.33668 -1.75913 0
M  V30 12500 H 1220.38 -2.34535 -1.79102 0
M  V30 12501 H 1220.46 -2.55774 -0.0362643 0
M  V30 12502 H 1220.11 -5.0672 -0.346004 0
M  V30 12503 H 1220.04 -4.82498 -2.10959 0
M  V30 12504 H 1222.53 -3.60439 -1.13545 0
M  V30 12505 H 1222.84 -7.53462 -1.71797 0
M  V30 12506 H 1221.18 -6.77454 -1.55179 0
M  V30 12507 H 1224.38 -4.4893 -1.32588 0
M  V30 12508 H 1224.55 -6.28146 -1.59173 0
M  V30 12509 N 1217.95 0.594978 -1.45938 0
M  V30 12510 C 1218.88 1.71536 -1.58422 0
M  V30 12511 C 1219.87 1.64441 -0.435116 0
M  V30 12512 O 1221.05 1.82647 -0.659839 0
M  V30 12513 C 1218.18 3.10163 -1.56257 0
M  V30 12514 C 1217.13 3.3208 -2.70013 0
M  V30 12515 C 1216.46 4.71108 -2.52905 0
M  V30 12516 C 1217.76 3.21105 -4.11933 0
M  V30 12517 H 1219.45 1.61344 -2.52207 0
M  V30 12518 H 1217 0.774791 -1.2138 0
M  V30 12519 H 1218.95 3.88352 -1.63587 0
M  V30 12520 H 1217.68 3.21225 -0.590093 0
M  V30 12521 H 1216.34 2.56286 -2.62132 0
M  V30 12522 H 1215.98 4.7892 -1.53768 0
M  V30 12523 H 1215.68 4.86727 -3.29197 0
M  V30 12524 H 1217.21 5.51482 -2.62107 0
M  V30 12525 H 1218.62 3.89153 -4.2099 0
M  V30 12526 H 1217.02 3.4825 -4.88715 0
M  V30 12527 H 1218.09 2.18359 -4.32952 0
M  V30 12528 N 1219.43 1.33438 0.838571 0
M  V30 12529 C 1220.71 1.1551 1.5785 0
M  V30 12530 C 1221.09 -0.278405 2.09256 0
M  V30 12531 O 1220.44 -1.27748 1.89453 0
M  V30 12532 C 1220.65 2.19647 2.71212 0
M  V30 12533 C 1222 2.53818 3.40384 0
M  V30 12534 O 1223.02 2.18317 2.81454 0
M  V30 12535 O 1221.88 3.14741 4.46766 0
M  V30 12536 H 1218.97 0.446785 0.695925 0
M  V30 12537 H 1221.52 1.45021 0.8813 0
M  V30 12538 H 1220.29 3.15936 2.30869 0
M  V30 12539 H 1219.91 1.91224 3.48596 0
M  V30 12540 N 1220.91 -1.05686 1.16912 0
M  V30 12541 C 1222.16 -1.78597 0.954425 0
M  V30 12542 C 1222.49 -1.87494 -0.517315 0
M  V30 12543 O 1221.74 -1.36736 -1.40006 0
M  V30 12544 C 1222.04 -3.22779 1.53455 0
M  V30 12545 C 1221.71 -3.3395 3.02965 0
M  V30 12546 C 1220.37 -3.36706 3.43777 0
M  V30 12547 C 1222.72 -3.35371 3.98969 0
M  V30 12548 C 1220.05 -3.38506 4.79198 0
M  V30 12549 C 1222.4 -3.38708 5.34284 0
M  V30 12550 C 1221.06 -3.39749 5.74567 0
M  V30 12551 H 1220.33 -0.653534 0.349249 0
M  V30 12552 H 1222.98 -1.24245 1.45723 0
M  V30 12553 H 1221.29 -3.80025 0.953331 0
M  V30 12554 H 1222.98 -3.77805 1.34404 0
M  V30 12555 H 1219.57 -3.32515 2.70429 0
M  V30 12556 H 1223.76 -3.32447 3.685 0
M  V30 12557 H 1219.01 -3.37619 5.09729 0
M  V30 12558 H 1223.19 -3.38755 6.08455 0
M  V30 12559 H 1220.81 -3.40897 6.7948 0
M  V30 12560 N 1222.39 -0.968567 -1.24324 0
M  V30 12561 C 1223.63 -0.641458 -1.9302 0
M  V30 12562 C 1223.99 0.814553 -1.74307 0
M  V30 12563 O 1223.28 1.57848 -1.08603 0
M  V30 12564 C 1223.48 -0.952762 -3.44467 0
M  V30 12565 C 1223.31 -2.43748 -3.77911 0
M  V30 12566 C 1222.08 -3.09746 -3.99231 0
M  V30 12567 C 1224.27 -3.4176 -3.84324 0
M  V30 12568 N 1222.26 -4.47947 -4.19782 0
M  V30 12569 C 1223.63 -4.65321 -4.09728 0
M  V30 12570 C 1225.68 -3.36406 -3.67064 0
M  V30 12571 C 1224.38 -5.84186 -4.19665 0
M  V30 12572 C 1226.41 -4.54624 -3.78248 0
M  V30 12573 C 1225.77 -5.76976 -4.04077 0
M  V30 12574 H 1221.87 -0.285584 -0.727987 0
M  V30 12575 H 1224.46 -1.2436 -1.49808 0
M  V30 12576 H 1222.63 -0.379421 -3.86542 0
M  V30 12577 H 1224.36 -0.584137 -4.00462 0
M  V30 12578 H 1221.11 -2.60274 -3.95669 0
M  V30 12579 H 1221.54 -5.19559 -4.34036 0
M  V30 12580 H 1226.18 -2.42847 -3.461 0
M  V30 12581 H 1223.9 -6.78172 -4.3944 0
M  V30 12582 H 1227.48 -4.52043 -3.66262 0
M  V30 12583 H 1226.36 -6.66925 -4.1253 0
M  V30 12584 N 1223.87 1.39211 -0.738786 0
M  V30 12585 C 1224.81 2.30578 -0.10129 0
M  V30 12586 C 1225.78 1.49412 0.725616 0
M  V30 12587 O 1226.97 1.78087 0.684799 0
M  V30 12588 C 1224.11 3.35767 0.797161 0
M  V30 12589 C 1223.22 4.31979 -0.0427701 0
M  V30 12590 C 1222.36 5.24236 0.857306 0
M  V30 12591 C 1221.4 6.12099 0.0128501 0
M  V30 12592 N 1220.53 6.96701 0.869067 0
M  V30 12593 H 1225.37 2.84522 -0.88606 0
M  V30 12594 H 1222.91 1.40093 -0.448602 0
M  V30 12595 H 1224.87 3.95347 1.33255 0
M  V30 12596 H 1223.5 2.83268 1.54787 0
M  V30 12597 H 1222.55 3.73986 -0.695622 0
M  V30 12598 H 1223.86 4.93927 -0.69555 0
M  V30 12599 H 1223.02 5.88861 1.4604 0
M  V30 12600 H 1221.75 4.62619 1.54386 0
M  V30 12601 H 1220.76 5.46483 -0.603018 0
M  V30 12602 H 1221.98 6.75781 -0.67054 0
M  V30 12603 H 1219.93 6.37647 1.54084 0
M  V30 12604 H 1219.85 7.55507 0.272852 0
M  V30 12605 H 1221.12 7.65751 1.4576 0
M  V30 12606 N 1225.34 0.486708 1.49896 0
M  V30 12607 C 1226.62 -0.125183 1.95199 0
M  V30 12608 C 1227 -1.55498 1.42771 0
M  V30 12609 O 1226.35 -2.1949 0.635322 0
M  V30 12610 C 1226.56 -0.0524982 3.48961 0
M  V30 12611 C 1227.91 -0.233595 4.23957 0
M  V30 12612 O 1228.93 -0.128357 3.55969 0
M  V30 12613 O 1227.79 -0.447862 5.44662 0
M  V30 12614 H 1224.88 -0.103141 0.820543 0
M  V30 12615 H 1227.43 0.548226 1.60601 0
M  V30 12616 H 1226.2 0.945163 3.79714 0
M  V30 12617 H 1225.83 -0.766683 3.90138 0
M  V30 12618 N 1226.82 -1.56058 0.219941 0
M  V30 12619 C 1227.73 -2.23844 -0.70222 0
M  V30 12620 C 1228.75 -1.24554 -1.215 0
M  V30 12621 O 1229.93 -1.57362 -1.25695 0
M  V30 12622 C 1226.99 -2.90384 -1.89416 0
M  V30 12623 C 1226.05 -4.05012 -1.42351 0
M  V30 12624 C 1225.28 -4.68369 -2.55863 0
M  V30 12625 O 1225.51 -4.3071 -3.73958 0
M  V30 12626 O 1224.44 -5.5739 -2.27157 0
M  V30 12627 H 1228.27 -3.03305 -0.15478 0
M  V30 12628 H 1225.85 -1.49396 -0.010438 0
M  V30 12629 H 1227.73 -3.32389 -2.59028 0
M  V30 12630 H 1226.41 -2.13883 -2.42973 0
M  V30 12631 H 1225.32 -3.67579 -0.695448 0
M  V30 12632 H 1226.65 -4.83251 -0.934332 0
M  V30 12633 N 1228.3 0.053464 -1.57509 0
M  V30 12634 C 1229.23 1.06151 -2.07977 0
M  V30 12635 C 1230.21 1.3924 -0.977047 0
M  V30 12636 O 1231.4 1.48549 -1.25087 0
M  V30 12637 C 1228.53 2.36969 -2.53895 0
M  V30 12638 C 1227.48 2.18186 -3.6821 0
M  V30 12639 C 1226.81 3.54551 -4.00247 0
M  V30 12640 C 1228.11 1.588 -4.97574 0
M  V30 12641 H 1229.8 0.641483 -2.92447 0
M  V30 12642 H 1227.35 0.307122 -1.40687 0
M  V30 12643 H 1229.3 3.07797 -2.87817 0
M  V30 12644 H 1228.02 2.80986 -1.66476 0
M  V30 12645 H 1226.68 1.49796 -3.34599 0
M  V30 12646 H 1226.33 3.96171 -3.09932 0
M  V30 12647 H 1226.03 3.42816 -4.77232 0
M  V30 12648 H 1227.56 4.2678 -4.36682 0
M  V30 12649 H 1228.97 2.19515 -5.29609 0
M  V30 12650 H 1227.37 1.57711 -5.79006 0
M  V30 12651 H 1228.44 0.551254 -4.81756 0
M  V30 12652 N 1229.78 1.54207 0.325255 0
M  V30 12653 C 1231.03 1.72587 1.06497 0
M  V30 12654 C 1231.36 0.497228 1.87727 0
M  V30 12655 O 1230.63 -0.505804 1.87808 0
M  V30 12656 C 1230.92 3.00046 1.99109 0
M  V30 12657 C 1230.77 4.33158 1.21221 0
M  V30 12658 C 1232.09 3.23251 2.98658 0
M  V30 12659 H 1229.21 0.627974 0.38577 0
M  V30 12660 H 1231.85 1.869 0.34179 0
M  V30 12661 H 1230 2.87973 2.60775 0
M  V30 12662 H 1231.67 4.57111 0.620289 0
M  V30 12663 H 1229.91 4.30739 0.514462 0
M  V30 12664 H 1230.59 5.18558 1.89214 0
M  V30 12665 H 1233.06 3.34774 2.47114 0
M  V30 12666 H 1231.94 4.13796 3.60645 0
M  V30 12667 H 1232.2 2.40401 3.71026 0
M  V30 12668 N 1231.26 -0.58723 1.46251 0
M  V30 12669 C 1232.67 -0.910129 1.31106 0
M  V30 12670 C 1232.87 -1.99557 0.279141 0
M  V30 12671 O 1231.93 -2.50466 -0.319867 0
M  V30 12672 C 1233.24 -1.33177 2.69601 0
M  V30 12673 C 1234.79 -1.44486 2.77656 0
M  V30 12674 C 1235.27 -1.90018 4.16722 0
M  V30 12675 N 1236.76 -1.97219 4.19117 0
M  V30 12676 C 1237.49 -2.33714 5.23608 0
M  V30 12677 N 1236.99 -2.69034 6.3843 0
M  V30 12678 N 1238.78 -2.3423 5.10972 0
M  V30 12679 H 1230.93 0.12987 2.12003 0
M  V30 12680 H 1233.19 -0.00456718 0.947989 0
M  V30 12681 H 1232.9 -0.608243 3.464 0
M  V30 12682 H 1232.77 -2.29421 2.99409 0
M  V30 12683 H 1235.16 -2.15926 2.01147 0
M  V30 12684 H 1235.24 -0.465047 2.51537 0
M  V30 12685 H 1234.89 -1.19159 4.93724 0
M  V30 12686 H 1234.82 -2.88949 4.40245 0
M  V30 12687 H 1237.31 -1.72431 3.36268 0
M  V30 12688 H 1237.62 -2.95822 7.13939 0
M  V30 12689 H 1235.97 -2.66683 6.41798 0
M  V30 12690 H 1239.16 -2.06056 4.20308 0
M  V30 12691 H 1239.33 -2.62345 5.92519 0
M  V30 12692 N 1232.74 -1.33881 -0.831482 0
M  V30 12693 C 1233.98 -1.25507 -1.58406 0
M  V30 12694 C 1234.3 0.177137 -1.94194 0
M  V30 12695 O 1233.57 1.10769 -1.61576 0
M  V30 12696 H 1232.15 -0.461551 -0.587349 0
M  V30 12697 H 1234.82 -1.6769 -0.99328 0
M  V30 12698 H 1233.91 -1.85391 -2.51071 0
M  V30 12699 N 1234.21 1.05064 -1.1747 0
M  V30 12700 C 1235.44 1.81761 -0.988464 0
M  V30 12701 C 1235.86 1.83028 0.463272 0
M  V30 12702 O 1235.21 1.25846 1.32171 0
M  V30 12703 C 1235.26 3.2782 -1.5237 0
M  V30 12704 O 1234.99 3.26726 -2.91859 0
M  V30 12705 C 1236.49 4.212 -1.38223 0
M  V30 12706 H 1233.71 0.572712 -0.349631 0
M  V30 12707 H 1236.25 1.32477 -1.55789 0
M  V30 12708 H 1234.41 3.7437 -0.996272 0
M  V30 12709 H 1234.82 4.18151 -3.16623 0
M  V30 12710 H 1236.29 5.2166 -1.80485 0
M  V30 12711 H 1236.77 4.37962 -0.329491 0
M  V30 12712 H 1237.38 3.80506 -1.89988 0
M  V30 12713 N 1235.69 0.975146 1.23809 0
M  V30 12714 C 1236.92 0.658605 1.96665 0
M  V30 12715 C 1237.34 -0.766744 1.71763 0
M  V30 12716 O 1236.7 -1.52151 0.985887 0
M  V30 12717 C 1236.75 0.948438 3.47904 0
M  V30 12718 O 1235.85 0.0377241 4.12383 0
M  V30 12719 H 1235.19 0.248231 0.615855 0
M  V30 12720 H 1237.72 1.30732 1.57386 0
M  V30 12721 H 1237.73 0.883 3.9833 0
M  V30 12722 H 1236.41 1.98717 3.65355 0
M  V30 12723 H 1234.98 0.157122 3.72569 0
M  V30 12724 N 1237.17 -1.38817 0.746158 0
M  V30 12725 C 1238.45 -1.94303 0.224841 0
M  V30 12726 C 1238.83 -1.68207 -1.27552 0
M  V30 12727 O 1238.17 -1.01647 -2.04646 0
M  V30 12728 C 1238.38 -3.44306 0.5705 0
M  V30 12729 C 1239.73 -4.21329 0.526015 0
M  V30 12730 O 1240.76 -3.52554 0.508351 0
M  V30 12731 O 1239.62 -5.4392 0.530383 0
M  V30 12732 H 1236.71 -0.825785 0.0448047 0
M  V30 12733 H 1239.26 -1.48253 0.825775 0
M  V30 12734 H 1238.03 -3.56779 1.60701 0
M  V30 12735 H 1237.65 -3.97556 -0.0588271 0
M  V30 12736 N 1238.65 -0.49465 -1.49636 0
M  V30 12737 C 1239.88 0.0490417 -2.06542 0
M  V30 12738 C 1240.29 1.31945 -1.35599 0
M  V30 12739 O 1239.63 1.78691 -0.426047 0
M  V30 12740 C 1239.69 0.379426 -3.57492 0
M  V30 12741 C 1239.35 -0.792345 -4.50079 0
M  V30 12742 C 1240.35 -1.68106 -4.91972 0
M  V30 12743 C 1238.04 -0.98935 -4.9246 0
M  V30 12744 C 1240.03 -2.75099 -5.74978 0
M  V30 12745 C 1237.72 -2.06247 -5.75244 0
M  V30 12746 C 1238.72 -2.94163 -6.16407 0
M  V30 12747 O 1238.4 -3.99623 -6.97536 0
M  V30 12748 H 1238.14 -0.0143708 -0.675847 0
M  V30 12749 H 1240.69 -0.689358 -1.93486 0
M  V30 12750 H 1238.92 1.17133 -3.68533 0
M  V30 12751 H 1240.61 0.860979 -3.96664 0
M  V30 12752 H 1241.37 -1.54065 -4.59879 0
M  V30 12753 H 1237.25 -0.314435 -4.59926 0
M  V30 12754 H 1240.8 -3.4375 -6.07027 0
M  V30 12755 H 1236.69 -2.20285 -6.06749 0
M  V30 12756 H 1237.46 -3.96899 -7.15831 0
M  V30 12757 N 1240.13 1.55939 -0.228214 0
M  V30 12758 C 1241.37 1.97652 0.402067 0
M  V30 12759 C 1241.69 1.11911 1.60422 0
M  V30 12760 O 1242.89 1.43552 2.30445 0
M  V30 12761 C 1241.35 3.51638 0.766724 0
M  V30 12762 C 1240.96 4.46092 -0.412991 0
M  V30 12763 C 1242.7 4.02049 1.36224 0
M  V30 12764 C 1240.61 5.91394 -0.0255281 0
M  V30 12765 H 1239.54 0.738107 0.153994 0
M  V30 12766 H 1242.19 1.8059 -0.32548 0
M  V30 12767 H 1240.57 3.64325 1.55188 0
M  V30 12768 H 1241.75 4.45156 -1.19049 0
M  V30 12769 H 1240.06 4.0606 -0.92218 0
M  V30 12770 H 1242.66 5.08111 1.66514 0
M  V30 12771 H 1243 3.48292 2.28032 0
M  V30 12772 H 1243.53 3.92612 0.640378 0
M  V30 12773 H 1240.27 6.49149 -0.910269 0
M  V30 12774 H 1239.79 5.95509 0.716149 0
M  V30 12775 H 1241.47 6.4577 0.398839 0
M  V30 12776 N 1241.6 -0.0451101 1.57535 0
M  V30 12777 C 1242.83 -0.755068 1.93167 0
M  V30 12778 C 1243.25 -1.68949 0.826915 0
M  V30 12779 O 1242.61 -1.79978 -0.218534 0
M  V30 12780 C 1242.66 -1.50201 3.27829 0
M  V30 12781 O 1241.76 -2.61434 3.18945 0
M  V30 12782 H 1241.11 -0.204219 0.631815 0
M  V30 12783 H 1243.64 -0.00537504 2.04599 0
M  V30 12784 H 1243.65 -1.87547 3.6234 0
M  V30 12785 H 1242.32 -0.816591 4.07805 0
M  V30 12786 H 1240.9 -2.26749 2.96039 0
M  V30 12787 N 1243.08 -1.54377 -0.317073 0
M  V30 12788 C 1244.33 -1.72893 -1.05424 0
M  V30 12789 C 1244.66 -0.506082 -1.87801 0
M  V30 12790 O 1243.91 0.51213 -1.8888 0
M  V30 12791 C 1244.21 -2.96066 -2.00199 0
M  V30 12792 C 1243.88 -4.30551 -1.33927 0
M  V30 12793 C 1242.54 -4.67112 -1.15584 0
M  V30 12794 C 1244.89 -5.13986 -0.864158 0
M  V30 12795 C 1242.22 -5.84701 -0.483892 0
M  V30 12796 C 1244.57 -6.32264 -0.206006 0
M  V30 12797 C 1243.24 -6.67499 -0.0104849 0
M  V30 12798 H 1242.51 -0.63266 -0.385776 0
M  V30 12799 H 1245.15 -1.88623 -0.330722 0
M  V30 12800 H 1243.46 -2.7505 -2.79024 0
M  V30 12801 H 1245.15 -3.07586 -2.57278 0
M  V30 12802 H 1241.74 -4.0179 -1.49207 0
M  V30 12803 H 1245.93 -4.86252 -0.993635 0
M  V30 12804 H 1241.18 -6.10555 -0.32127 0
M  V30 12805 H 1245.36 -6.96192 0.170108 0
M  V30 12806 H 1242.99 -7.58472 0.512209 0
M  V30 12807 N 1244.56 0.579466 -1.4656 0
M  V30 12808 C 1245.84 1.33973 -1.42515 0
M  V30 12809 C 1246.22 2.10812 -0.110317 0
M  V30 12810 O 1245.57 2.09679 0.908135 0
M  V30 12811 C 1245.78 2.26301 -2.65686 0
M  V30 12812 C 1247.12 2.88027 -3.1197 0
M  V30 12813 O 1248.15 2.36612 -2.66257 0
M  V30 12814 O 1247.01 3.81423 -3.9138 0
M  V30 12815 H 1244.1 0.602121 -0.566903 0
M  V30 12816 H 1246.65 0.600214 -1.58731 0
M  V30 12817 H 1245.42 1.68973 -3.52936 0
M  V30 12818 H 1245.04 3.07586 -2.51945 0
M  V30 12819 N 1246.04 1.3432 0.824371 0
M  V30 12820 C 1247.29 1.26595 1.5805 0
M  V30 12821 C 1247.61 -0.164471 1.93803 0
M  V30 12822 O 1246.87 -1.12537 1.60106 0
M  V30 12823 C 1247.17 2.1008 2.89139 0
M  V30 12824 C 1246.83 3.59102 2.72684 0
M  V30 12825 C 1245.5 3.99726 2.67904 0
M  V30 12826 C 1247.85 4.53736 2.56463 0
M  V30 12827 C 1245.18 5.33178 2.44822 0
M  V30 12828 C 1247.53 5.87366 2.34913 0
M  V30 12829 C 1246.19 6.27155 2.28544 0
M  V30 12830 H 1245.46 0.463245 0.578347 0
M  V30 12831 H 1248.11 1.66048 0.953948 0
M  V30 12832 H 1246.41 1.6345 3.56078 0
M  V30 12833 H 1248.11 2.01451 3.46726 0
M  V30 12834 H 1244.7 3.26855 2.77244 0
M  V30 12835 H 1248.88 4.23248 2.5918 0
M  V30 12836 H 1244.14 5.63028 2.38348 0
M  V30 12837 H 1248.31 6.60286 2.21349 0
M  V30 12838 H 1245.94 7.30498 2.1042 0
M  V30 12839 N 1247.52 -1.0444 1.18026 0
M  V30 12840 C 1248.75 -1.80971 0.996642 0
M  V30 12841 C 1249.15 -1.83568 -0.458192 0
M  V30 12842 O 1248.5 -1.26713 -1.33002 0
M  V30 12843 C 1248.56 -3.28051 1.47048 0
M  V30 12844 C 1248.22 -3.49122 2.94895 0
M  V30 12845 C 1249.22 -3.40621 3.92777 0
M  V30 12846 C 1246.91 -3.7584 3.33241 0
M  V30 12847 C 1248.9 -3.58535 5.27002 0
M  V30 12848 C 1246.59 -3.93402 4.6763 0
M  V30 12849 C 1247.58 -3.84749 5.6432 0
M  V30 12850 O 1247.27 -4.01813 6.96277 0
M  V30 12851 H 1247 -0.576873 0.352411 0
M  V30 12852 H 1249.56 -1.32542 1.56913 0
M  V30 12853 H 1247.79 -3.77431 0.841609 0
M  V30 12854 H 1249.48 -3.8613 1.25135 0
M  V30 12855 H 1250.24 -3.19948 3.64497 0
M  V30 12856 H 1246.12 -3.81674 2.58545 0
M  V30 12857 H 1249.67 -3.51698 6.02457 0
M  V30 12858 H 1245.56 -4.13568 4.95613 0
M  V30 12859 H 1246.33 -4.18995 7.03126 0
M  V30 12860 N 1248.99 -0.981699 -1.2329 0
M  V30 12861 C 1250.24 -0.646818 -1.91048 0
M  V30 12862 C 1250.56 0.823479 -1.77421 0
M  V30 12863 O 1251.76 1.26948 -2.39993 0
M  V30 12864 C 1250.22 -1.1063 -3.42475 0
M  V30 12865 C 1249.83 -2.60103 -3.6476 0
M  V30 12866 C 1251.57 -0.845227 -4.16 0
M  V30 12867 C 1249.48 -2.99712 -5.0983 0
M  V30 12868 H 1248.41 -0.238221 -0.715379 0
M  V30 12869 H 1251.06 -1.18977 -1.39702 0
M  V30 12870 H 1249.44 -0.491554 -3.92937 0
M  V30 12871 H 1250.61 -3.26828 -3.24839 0
M  V30 12872 H 1248.93 -2.83972 -3.04547 0
M  V30 12873 H 1251.53 -1.11699 -5.22903 0
M  V30 12874 H 1251.87 0.218661 -4.15725 0
M  V30 12875 H 1252.4 -1.42162 -3.7153 0
M  V30 12876 H 1249.14 -4.0523 -5.15237 0
M  V30 12877 H 1248.66 -2.37683 -5.50697 0
M  V30 12878 H 1250.34 -2.9039 -5.78172 0
M  V30 12879 N 1250.47 1.3842 -0.753509 0
M  V30 12880 C 1251.75 1.94181 -0.235142 0
M  V30 12881 C 1252.13 1.68881 1.26659 0
M  V30 12882 O 1251.48 1.02731 2.04104 0
M  V30 12883 C 1251.69 3.43998 -0.588751 0
M  V30 12884 C 1253.04 4.21044 -0.548352 0
M  V30 12885 O 1254.06 3.52279 -0.52704 0
M  V30 12886 O 1252.92 5.43631 -0.559221 0
M  V30 12887 H 1250.01 0.825536 -0.0491834 0
M  V30 12888 H 1252.56 1.47813 -0.833626 0
M  V30 12889 H 1251.33 3.55921 -1.6259 0
M  V30 12890 H 1250.95 3.97582 0.0377429 0
M  V30 12891 N 1251.95 0.502579 1.49372 0
M  V30 12892 C 1252.91 -0.263993 2.27675 0
M  V30 12893 C 1253.91 -0.892538 1.33755 0
M  V30 12894 O 1255.1 -0.756826 1.56901 0
M  V30 12895 C 1252.24 -1.37895 3.11765 0
M  V30 12896 H 1253.43 0.423132 2.969 0
M  V30 12897 H 1250.98 0.257595 1.54163 0
M  V30 12898 H 1251.72 -2.10018 2.47109 0
M  V30 12899 H 1251.5 -0.933694 3.80821 0
M  V30 12900 H 1252.99 -1.91889 3.70902 0
M  V30 12901 N 1253.43 -1.55816 0.23648 0
M  V30 12902 C 1254.67 -1.98981 -0.391725 0
M  V30 12903 C 1255.01 -1.12428 -1.58346 0
M  V30 12904 O 1254.28 -0.185303 -1.93615 0
M  V30 12905 C 1254.57 -3.50831 -0.811759 0
M  V30 12906 C 1254.42 -4.48152 0.384648 0
M  V30 12907 C 1255.74 -4.07489 -1.66254 0
M  V30 12908 H 1252.86 -0.723404 -0.140911 0
M  V30 12909 H 1255.5 -1.87011 0.335706 0
M  V30 12910 H 1253.65 -3.61162 -1.43157 0
M  V30 12911 H 1255.32 -4.49814 1.02298 0
M  V30 12912 H 1253.56 -4.21406 1.02955 0
M  V30 12913 H 1254.23 -5.51979 0.0475809 0
M  V30 12914 H 1256.71 -4.00195 -1.13944 0
M  V30 12915 H 1255.59 -5.14026 -1.92531 0
M  V30 12916 H 1255.85 -3.55297 -2.6309 0
M  V30 12917 N 1254.91 0.036755 -1.57557 0
M  V30 12918 C 1256.32 0.392264 -1.54704 0
M  V30 12919 C 1256.52 1.77076 -0.96157 0
M  V30 12920 O 1255.58 2.45766 -0.579263 0
M  V30 12921 C 1256.89 0.301168 -2.99188 0
M  V30 12922 C 1258.44 0.378813 -3.10699 0
M  V30 12923 C 1258.91 0.317249 -4.569 0
M  V30 12924 N 1260.41 0.376277 -4.61669 0
M  V30 12925 C 1261.14 0.351411 -5.72322 0
M  V30 12926 N 1260.64 0.279288 -6.92237 0
M  V30 12927 N 1262.43 0.400571 -5.60671 0
M  V30 12928 H 1254.58 -0.865455 -1.93968 0
M  V30 12929 H 1256.84 -0.328339 -0.889324 0
M  V30 12930 H 1256.55 -0.64582 -3.4572 0
M  V30 12931 H 1256.42 1.09784 -3.6087 0
M  V30 12932 H 1258.81 1.31623 -2.6412 0
M  V30 12933 H 1258.89 -0.447072 -2.51863 0
M  V30 12934 H 1258.54 -0.616469 -5.04145 0
M  V30 12935 H 1258.47 1.16114 -5.13639 0
M  V30 12936 H 1260.96 0.434843 -3.7539 0
M  V30 12937 H 1261.27 0.265202 -7.72345 0
M  V30 12938 H 1259.61 0.24545 -6.94566 0
M  V30 12939 H 1262.81 0.454854 -4.65885 0
M  V30 12940 H 1262.98 0.377724 -6.46898 0
M  V30 12941 N 1256.39 1.54543 0.308881 0
M  V30 12942 C 1257.35 1.84214 1.36374 0
M  V30 12943 C 1258.35 0.71463 1.44047 0
M  V30 12944 O 1259.54 0.98293 1.4382 0
M  V30 12945 C 1256.67 2.01535 2.74948 0
M  V30 12946 H 1257.86 2.78477 1.11314 0
M  V30 12947 H 1255.42 1.46485 0.545141 0
M  V30 12948 H 1256.15 1.09533 3.05242 0
M  V30 12949 H 1255.94 2.83595 2.7077 0
M  V30 12950 H 1257.43 2.25888 3.51233 0
M  V30 12951 N 1257.86 -0.571685 1.46866 0
M  V30 12952 C 1259.09 -1.36008 1.56578 0
M  V30 12953 C 1259.51 -1.86909 0.211326 0
M  V30 12954 O 1258.87 -1.62179 -0.810421 0
M  V30 12955 C 1258.92 -2.51598 2.58323 0
M  V30 12956 O 1258.02 -3.53383 2.1259 0
M  V30 12957 H 1257.36 -0.404593 0.526498 0
M  V30 12958 H 1259.89 -0.692357 1.92529 0
M  V30 12959 H 1259.9 -2.98366 2.78283 0
M  V30 12960 H 1258.58 -2.13904 3.56676 0
M  V30 12961 H 1257.16 -3.13019 2.02666 0
M  V30 12962 N 1259.34 -1.34755 -0.817236 0
M  V30 12963 C 1260.25 -1.28888 -1.96023 0
M  V30 12964 C 1261.27 -0.195582 -1.72897 0
M  V30 12965 O 1262.44 -0.423071 -1.96906 0
M  V30 12966 C 1259.51 -1.04985 -3.30423 0
M  V30 12967 C 1258.57 -2.23526 -3.66517 0
M  V30 12968 C 1257.8 -2.00753 -4.94504 0
M  V30 12969 O 1258.03 -0.968622 -5.62116 0
M  V30 12970 O 1256.96 -2.87848 -5.28608 0
M  V30 12971 H 1260.79 -2.25059 -2.03917 0
M  V30 12972 H 1258.37 -1.15019 -0.953467 0
M  V30 12973 H 1260.25 -0.934589 -4.10906 0
M  V30 12974 H 1258.93 -0.118582 -3.23483 0
M  V30 12975 H 1257.83 -2.40613 -2.86455 0
M  V30 12976 H 1259.17 -3.15062 -3.78149 0
M  V30 12977 N 1260.82 1.03812 -1.18578 0
M  V30 12978 C 1262.07 1.76706 -0.980776 0
M  V30 12979 C 1262.39 1.88729 0.490562 0
M  V30 12980 O 1261.66 1.41413 1.35569 0
M  V30 12981 H 1260.24 0.654586 -0.359898 0
M  V30 12982 H 1262.9 1.25274 -1.49306 0
M  V30 12983 H 1262 2.77876 -1.42096 0
M  V30 12984 N 1262.3 0.988223 1.22768 0
M  V30 12985 C 1263.26 0.539813 2.22752 0
M  V30 12986 C 1264.26 -0.374796 1.56371 0
M  V30 12987 O 1265.45 -0.167402 1.73394 0
M  V30 12988 C 1262.58 -0.215461 3.40218 0
M  V30 12989 H 1263.78 1.42397 2.63938 0
M  V30 12990 H 1261.33 0.774933 1.35737 0
M  V30 12991 H 1262.06 -1.11581 3.045 0
M  V30 12992 H 1261.85 0.441173 3.8961 0
M  V30 12993 H 1263.34 -0.517517 4.14381 0
M  V30 12994 N 1263.78 -1.38018 0.760839 0
M  V30 12995 C 1265.02 -1.99194 0.316984 0
M  V30 12996 C 1265.34 -1.61083 -1.10958 0
M  V30 12997 O 1266.54 -2.15281 -1.65428 0
M  V30 12998 C 1265 -3.56185 0.515792 0
M  V30 12999 C 1264.61 -4.03242 1.95191 0
M  V30 13000 C 1266.35 -4.24285 0.135013 0
M  V30 13001 C 1264.26 -5.52902 2.0989 0
M  V30 13002 H 1263.19 -0.745214 0.114771 0
M  V30 13003 H 1265.84 -1.5769 0.938415 0
M  V30 13004 H 1264.22 -3.95613 -0.174934 0
M  V30 13005 H 1265.4 -3.75086 2.6767 0
M  V30 13006 H 1263.71 -3.47889 2.28827 0
M  V30 13007 H 1266.31 -5.34233 0.223495 0
M  V30 13008 H 1266.65 -4.06158 -0.913322 0
M  V30 13009 H 1267.18 -3.90121 0.777868 0
M  V30 13010 H 1263.92 -5.75942 3.13003 0
M  V30 13011 H 1263.44 -5.82778 1.41881 0
M  V30 13012 H 1265.12 -6.18709 1.89229 0
M  V30 13013 N 1265.25 -0.510493 -1.49103 0
M  V30 13014 C 1266.48 0.0293113 -2.07379 0
M  V30 13015 C 1266.9 1.29195 -1.36713 0
M  V30 13016 O 1266.26 1.76204 -0.426838 0
M  V30 13017 C 1266.31 0.25629 -3.59688 0
M  V30 13018 O 1265.41 1.32907 -3.90397 0
M  V30 13019 H 1264.75 -0.0304449 -0.663302 0
M  V30 13020 H 1267.28 -0.712832 -1.91781 0
M  V30 13021 H 1267.29 0.484915 -4.05108 0
M  V30 13022 H 1265.97 -0.666163 -4.1053 0
M  V30 13023 H 1264.55 1.08464 -3.56777 0
M  V30 13024 N 1266.73 1.55688 -0.24474 0
M  V30 13025 C 1267.98 1.98067 0.381081 0
M  V30 13026 C 1268.29 1.13606 1.59227 0
M  V30 13027 O 1269.5 1.45988 2.2891 0
M  V30 13028 C 1267.96 3.52432 0.729385 0
M  V30 13029 C 1267.56 4.45629 -0.460282 0
M  V30 13030 C 1269.31 4.03471 1.31952 0
M  V30 13031 C 1267.21 5.91334 -0.088252 0
M  V30 13032 H 1266.14 0.739699 0.146157 0
M  V30 13033 H 1268.8 1.80235 -0.344615 0
M  V30 13034 H 1267.18 3.65951 1.51315 0
M  V30 13035 H 1268.35 4.43868 -1.23764 0
M  V30 13036 H 1266.67 4.05059 -0.965197 0
M  V30 13037 H 1269.26 5.09849 1.61116 0
M  V30 13038 H 1269.61 3.50691 2.24325 0
M  V30 13039 H 1270.14 3.93269 0.5987 0
M  V30 13040 H 1266.88 6.48147 -0.979069 0
M  V30 13041 H 1266.4 5.96235 0.652947 0
M  V30 13042 H 1268.08 6.46156 0.330324 0
M  V30 13043 N 1268.21 -0.0283989 1.57574 0
M  V30 13044 C 1269.16 -1.04723 2.07692 0
M  V30 13045 C 1270.15 -1.37399 0.990847 0
M  V30 13046 O 1271.36 -1.36297 1.17572 0
M  V30 13047 H 1267.73 -0.355251 0.662798 0
M  V30 13048 H 1269.7 -0.598737 2.92331 0
M  V30 13049 C 1268.45 -2.33941 2.57229 0
M  V30 13050 H 1267.78 -2.09659 3.40416 0
M  V30 13051 H 1269.22 -3.03574 2.96005 0
M  V30 13052 C 1267.67 -3.02953 1.47381 0
M  V30 13053 O 1268.2 -3.9281 0.840431 0
M  V30 13054 N 1266.41 -2.64294 1.20819 0
M  V30 13055 H 1265.96 -1.91307 1.72509 0
M  V30 13056 H 1265.92 -3.10786 0.475353 0
M  V30 13057 N 1269.69 -1.54705 -0.300681 0
M  V30 13058 C 1270.65 -1.84934 -1.35395 0
M  V30 13059 C 1271.65 -0.72226 -1.43666 0
M  V30 13060 O 1272.84 -0.990543 -1.43296 0
M  V30 13061 C 1269.97 -2.02991 -2.73875 0
M  V30 13062 H 1271.17 -2.79063 -1.09835 0
M  V30 13063 H 1268.72 -1.46772 -0.537365 0
M  V30 13064 H 1269.45 -1.11151 -3.04657 0
M  V30 13065 H 1269.24 -2.85027 -2.69262 0
M  V30 13066 H 1270.73 -2.27747 -3.5003 0
M  V30 13067 N 1271.17 0.563888 -1.47167 0
M  V30 13068 C 1272.41 1.32331 -1.53676 0
M  V30 13069 C 1272.75 1.93213 -0.195593 0
M  V30 13070 O 1272.02 1.77508 0.795068 0
M  V30 13071 C 1272.3 2.43848 -2.64972 0
M  V30 13072 C 1272.16 1.8788 -4.08682 0
M  V30 13073 C 1273.48 3.45809 -2.72221 0
M  V30 13074 H 1270.59 0.479791 -0.559437 0
M  V30 13075 H 1273.24 0.631669 -1.79192 0
M  V30 13076 H 1271.39 3.02846 -2.43345 0
M  V30 13077 H 1273.06 1.33195 -4.41652 0
M  V30 13078 H 1271.3 1.18593 -4.17275 0
M  V30 13079 H 1271.97 2.68465 -4.82318 0
M  V30 13080 H 1274.45 2.9672 -2.91713 0
M  V30 13081 H 1273.32 4.21272 -3.51882 0
M  V30 13082 H 1273.59 4.04236 -1.79014 0
M  V30 13083 N 1272.64 1.35187 0.810078 0
M  V30 13084 C 1273.89 1.28264 1.56699 0
M  V30 13085 C 1274.22 -0.143906 1.93967 0
M  V30 13086 O 1273.47 -1.10832 1.61291 0
M  V30 13087 C 1273.77 2.13135 2.86894 0
M  V30 13088 C 1273.44 3.61974 2.6886 0
M  V30 13089 C 1272.1 4.02545 2.63649 0
M  V30 13090 C 1274.45 4.5643 2.51636 0
M  V30 13091 C 1271.78 5.35745 2.39154 0
M  V30 13092 C 1274.13 5.89824 2.2867 0
M  V30 13093 C 1272.8 6.29544 2.2188 0
M  V30 13094 H 1272.07 0.469353 0.573401 0
M  V30 13095 H 1274.71 1.67051 0.936282 0
M  V30 13096 H 1273.02 1.67218 3.54324 0
M  V30 13097 H 1274.72 2.05117 3.44569 0
M  V30 13098 H 1271.31 3.29777 2.73761 0
M  V30 13099 H 1275.49 4.25974 2.54677 0
M  V30 13100 H 1270.75 5.65524 2.32363 0
M  V30 13101 H 1274.92 6.62597 2.14333 0
M  V30 13102 H 1272.55 7.32689 2.0266 0
M  V30 13103 N 1274.12 -1.03182 1.19127 0
M  V30 13104 C 1275.05 -2.11462 0.884098 0
M  V30 13105 C 1276.07 -1.62342 -0.121984 0
M  V30 13106 O 1277.26 -1.78179 0.107038 0
M  V30 13107 C 1274.36 -3.37559 0.301227 0
M  V30 13108 C 1273.53 -4.15878 1.35514 0
M  V30 13109 C 1272.59 -5.20291 0.786349 0
M  V30 13110 O 1271.61 -5.50069 1.46331 0
M  V30 13111 N 1272.82 -5.79038 -0.411803 0
M  V30 13112 H 1275.58 -2.38405 1.81613 0
M  V30 13113 H 1273.14 -1.19449 1.09287 0
M  V30 13114 H 1275.13 -4.04593 -0.0930685 0
M  V30 13115 H 1273.7 -3.07987 -0.535022 0
M  V30 13116 H 1272.92 -3.44036 1.9244 0
M  V30 13117 H 1274.21 -4.64993 2.06539 0
M  V30 13118 H 1273.61 -5.57158 -0.979353 0
M  V30 13119 H 1272.17 -6.47495 -0.747912 0
M  V30 13120 N 1275.6 -0.99472 -1.22242 0
M  V30 13121 C 1277.01 -0.706456 -1.72818 0
M  V30 13122 C 1277.36 0.776566 -1.80177 0
M  V30 13123 O 1276.49 1.60698 -1.44931 0
M  V30 13124 C 1277.08 -1.27571 -3.13865 0
M  V30 13125 C 1275.64 -1.03679 -3.61839 0
M  V30 13126 C 1274.79 -1.3948 -2.39668 0
M  V30 13127 H 1277.74 -1.16687 -1.07564 0
M  V30 13128 H 1277.76 -0.655202 -3.74816 0
M  V30 13129 H 1277.27 -2.35508 -3.08476 0
M  V30 13130 H 1275.37 0.0258679 -3.72591 0
M  V30 13131 H 1275.49 -1.70145 -4.4787 0
M  V30 13132 H 1273.85 -0.813418 -2.41362 0
M  V30 13133 H 1274.63 -2.48425 -2.36939 0
M  V30 13134 N 1277.08 1.37613 -0.768148 0
M  V30 13135 C 1278.49 1.82437 -0.396703 0
M  V30 13136 C 1278.84 1.64019 1.07668 0
M  V30 13137 O 1277.97 1.14932 1.83356 0
M  V30 13138 C 1278.56 3.31207 -0.713265 0
M  V30 13139 C 1277.12 3.74323 -0.39492 0
M  V30 13140 C 1276.27 2.60191 -0.958962 0
M  V30 13141 H 1279.22 1.26135 -0.963099 0
M  V30 13142 H 1279.24 3.805 0.00337228 0
M  V30 13143 H 1278.75 3.4458 -1.78567 0
M  V30 13144 H 1276.85 3.66521 0.670313 0
M  V30 13145 H 1276.96 4.70558 -0.900653 0
M  V30 13146 H 1275.33 2.51797 -0.383423 0
M  V30 13147 H 1276.11 2.76358 -2.03669 0
M  V30 13148 N 1278.56 0.518393 1.4883 0
M  V30 13149 C 1279.52 -0.23983 2.27942 0
M  V30 13150 C 1280.52 -0.878302 1.34694 0
M  V30 13151 O 1281.71 -0.740142 1.57694 0
M  V30 13152 C 1278.84 -1.34581 3.1321 0
M  V30 13153 H 1280.03 0.454599 2.96434 0
M  V30 13154 H 1277.59 0.273932 1.53881 0
M  V30 13155 H 1278.32 -2.07385 2.49323 0
M  V30 13156 H 1278.11 -0.893251 3.8179 0
M  V30 13157 H 1279.6 -1.87944 3.72917 0
M  V30 13158 N 1280.03 -1.55556 0.252993 0
M  V30 13159 C 1280.98 -2.23035 -0.660161 0
M  V30 13160 C 1281.98 -1.21994 -1.17532 0
M  V30 13161 O 1283.18 -1.39989 -1.13151 0
M  V30 13162 H 1279.56 -0.715516 -0.23139 0
M  V30 13163 H 1281.53 -2.98323 -0.0679506 0
M  V30 13164 C 1280.28 -2.94817 -1.84332 0
M  V30 13165 H 1279.6 -3.72342 -1.45607 0
M  V30 13166 H 1281.04 -3.45386 -2.45936 0
M  V30 13167 C 1279.5 -1.99033 -2.71822 0
M  V30 13168 O 1280.03 -1.5273 -3.71533 0
M  V30 13169 N 1278.24 -1.66004 -2.38518 0
M  V30 13170 H 1277.78 -2.03853 -1.57485 0
M  V30 13171 H 1277.74 -1.02183 -2.97331 0
M  V30 13172 N 1281.51 0.0200419 -1.57587 0
M  V30 13173 C 1282.76 0.707627 -1.89307 0
M  V30 13174 C 1283.08 1.7541 -0.851831 0
M  V30 13175 O 1282.35 1.95571 0.113404 0
M  V30 13176 H 1280.93 0.264349 -0.698662 0
M  V30 13177 H 1283.59 -0.0161428 -1.94893 0
M  V30 13178 H 1282.69 1.19152 -2.8846 0
M  V30 13179 N 1282.99 1.54862 0.292472 0
M  V30 13180 C 1284.22 1.78291 1.04383 0
M  V30 13181 C 1284.63 0.546703 1.81129 0
M  V30 13182 O 1283.97 -0.493286 1.76953 0
M  V30 13183 C 1284.03 2.94321 2.06435 0
M  V30 13184 C 1283.7 4.32095 1.48806 0
M  V30 13185 C 1284.69 5.11808 0.91369 0
M  V30 13186 C 1282.38 4.78714 1.52112 0
M  V30 13187 C 1284.37 6.36266 0.380053 0
M  V30 13188 C 1282.06 6.03132 0.983613 0
M  V30 13189 C 1283.06 6.81744 0.41406 0
M  V30 13190 O 1282.75 8.03817 -0.115268 0
M  V30 13191 H 1282.48 0.598147 0.314954 0
M  V30 13192 H 1285.03 2.02655 0.334661 0
M  V30 13193 H 1283.26 2.65602 2.81056 0
M  V30 13194 H 1284.95 3.05249 2.67541 0
M  V30 13195 H 1285.72 4.76931 0.880988 0
M  V30 13196 H 1281.6 4.17549 1.95382 0
M  V30 13197 H 1285.14 6.9757 -0.0651481 0
M  V30 13198 H 1281.04 6.37494 1.01349 0
M  V30 13199 H 1281.81 8.185 -0.00277496 0
M  V30 13200 N 1284.47 -0.556076 1.47464 0
M  V30 13201 C 1285.71 -1.31283 1.55358 0
M  V30 13202 C 1286.07 -1.91212 0.213492 0
M  V30 13203 O 1285.36 -1.74963 -0.780934 0
M  V30 13204 C 1285.56 -2.44298 2.6087 0
M  V30 13205 C 1285.39 -1.95444 4.05008 0
M  V30 13206 C 1284.16 -1.79235 4.72443 0
M  V30 13207 C 1286.35 -1.49825 4.91993 0
M  V30 13208 N 1284.34 -1.24732 6.01095 0
M  V30 13209 C 1285.71 -1.07095 6.1068 0
M  V30 13210 C 1287.76 -1.37887 4.78426 0
M  V30 13211 C 1286.46 -0.536134 7.17299 0
M  V30 13212 C 1288.49 -0.858066 5.85142 0
M  V30 13213 C 1287.85 -0.440699 7.0302 0
M  V30 13214 H 1283.95 -0.472387 0.623197 0
M  V30 13215 H 1286.54 -0.630184 1.84219 0
M  V30 13216 H 1284.71 -3.10092 2.33875 0
M  V30 13217 H 1286.44 -3.11299 2.58601 0
M  V30 13218 H 1283.19 -2.01984 4.28368 0
M  V30 13219 H 1283.62 -0.995659 6.69638 0
M  V30 13220 H 1288.26 -1.68766 3.87657 0
M  V30 13221 H 1285.98 -0.214967 8.07814 0
M  V30 13222 H 1289.56 -0.769235 5.76692 0
M  V30 13223 H 1288.44 -0.0439514 7.84188 0
M  V30 13224 N 1285.95 -1.35615 -0.802897 0
M  V30 13225 C 1286.88 -1.24695 -1.92312 0
M  V30 13226 C 1287.89 -0.169409 -1.61916 0
M  V30 13227 O 1289.08 -0.422995 -1.73416 0
M  V30 13228 C 1286.18 -0.898229 -3.2678 0
M  V30 13229 C 1285.35 -2.07489 -3.85054 0
M  V30 13230 C 1284.41 -1.70137 -4.97936 0
M  V30 13231 O 1283.44 -2.42057 -5.15167 0
M  V30 13232 N 1284.64 -0.627153 -5.77102 0
M  V30 13233 H 1287.41 -2.21208 -2.02205 0
M  V30 13234 H 1284.97 -1.28832 -0.980503 0
M  V30 13235 H 1286.96 -0.629766 -3.9977 0
M  V30 13236 H 1285.53 -0.0226571 -3.12592 0
M  V30 13237 H 1284.75 -2.50694 -3.04214 0
M  V30 13238 H 1286.04 -2.86133 -4.2072 0
M  V30 13239 H 1285.44 -0.0296879 -5.65692 0
M  V30 13240 H 1283.99 -0.41848 -6.50455 0
M  V30 13241 N 1287.43 1.02549 -1.19673 0
M  V30 13242 C 1288.34 2.14373 -0.952972 0
M  V30 13243 C 1289.35 1.73776 0.0881727 0
M  V30 13244 O 1290.53 2.01165 -0.0972471 0
M  V30 13245 C 1287.59 3.43096 -0.498569 0
M  V30 13246 C 1286.65 3.97987 -1.60951 0
M  V30 13247 C 1285.89 5.20567 -1.17669 0
M  V30 13248 O 1286.11 5.70385 -0.0416636 0
M  V30 13249 O 1285.04 5.6838 -1.98059 0
M  V30 13250 H 1288.87 2.378 -1.88904 0
M  V30 13251 H 1286.45 1.12781 -0.979836 0
M  V30 13252 H 1288.34 4.20634 -0.253968 0
M  V30 13253 H 1287.01 3.21105 0.409018 0
M  V30 13254 H 1285.92 3.21768 -1.90829 0
M  V30 13255 H 1287.25 4.24349 -2.49377 0
M  V30 13256 N 1288.9 1.00119 1.21713 0
M  V30 13257 C 1290.15 0.682733 1.90962 0
M  V30 13258 C 1290.48 -0.784131 1.77665 0
M  V30 13259 O 1289.76 -1.56799 1.15084 0
M  V30 13260 C 1290.04 1.09975 3.42896 0
M  V30 13261 C 1289.89 2.62578 3.65202 0
M  V30 13262 C 1291.21 0.659247 4.35134 0
M  V30 13263 H 1288.33 0.249501 0.693483 0
M  V30 13264 H 1290.97 1.24619 1.43423 0
M  V30 13265 H 1289.12 0.620334 3.83515 0
M  V30 13266 H 1290.8 3.18254 3.33934 0
M  V30 13267 H 1289.04 3.04268 3.09198 0
M  V30 13268 H 1289.71 2.86809 4.7164 0
M  V30 13269 H 1292.19 1.07116 4.02076 0
M  V30 13270 H 1291.06 0.979241 5.40095 0
M  V30 13271 H 1291.32 -0.439777 4.39907 0
M  V30 13272 N 1290.38 -1.37203 0.775435 0
M  V30 13273 C 1291.79 -1.82224 0.406372 0
M  V30 13274 C 1292.14 -1.64587 -1.06796 0
M  V30 13275 O 1291.27 -1.15903 -1.82744 0
M  V30 13276 C 1291.86 -3.30824 0.730819 0
M  V30 13277 C 1290.42 -3.74108 0.414766 0
M  V30 13278 C 1289.57 -2.59679 0.972747 0
M  V30 13279 H 1292.52 -1.25623 0.969775 0
M  V30 13280 H 1292.54 -3.80496 0.0168066 0
M  V30 13281 H 1292.05 -3.43628 1.80392 0
M  V30 13282 H 1290.15 -3.66871 -0.650866 0
M  V30 13283 H 1290.27 -4.70074 0.925595 0
M  V30 13284 H 1288.63 -2.51591 0.396772 0
M  V30 13285 H 1289.41 -2.75274 2.05132 0
M  V30 13286 N 1291.86 -0.526279 -1.48553 0
M  V30 13287 C 1293.09 0.0052277 -2.06899 0
M  V30 13288 C 1293.5 1.2849 -1.38332 0
M  V30 13289 O 1292.86 1.76354 -0.469648 0
M  V30 13290 C 1292.91 0.236709 -3.60724 0
M  V30 13291 O 1292.63 -0.992256 -4.26715 0
M  V30 13292 C 1294.13 0.809014 -4.35855 0
M  V30 13293 H 1291.35 -0.0318426 -0.670244 0
M  V30 13294 H 1293.9 -0.730865 -1.90994 0
M  V30 13295 H 1292.05 0.922842 -3.76248 0
M  V30 13296 H 1292.47 -0.770697 -5.18807 0
M  V30 13297 H 1293.94 0.920428 -5.44272 0
M  V30 13298 H 1294.42 1.81302 -4.00033 0
M  V30 13299 H 1295.02 0.159564 -4.25001 0
M  V30 13300 N 1293.34 1.5542 -0.261239 0
M  V30 13301 C 1294.57 2.03687 0.363225 0
M  V30 13302 C 1294.98 1.14007 1.50492 0
M  V30 13303 O 1294.34 0.157349 1.8182 0
M  V30 13304 C 1294.39 3.51184 0.857435 0
M  V30 13305 O 1294.11 4.37449 -0.238776 0
M  V30 13306 C 1295.61 4.15277 1.55113 0
M  V30 13307 H 1292.83 0.665641 0.0846356 0
M  V30 13308 H 1295.37 2.00761 -0.389288 0
M  V30 13309 H 1293.53 3.54599 1.56008 0
M  V30 13310 H 1293.94 5.24316 0.138821 0
M  V30 13311 H 1295.42 5.20129 1.8485 0
M  V30 13312 H 1295.89 3.62619 2.47799 0
M  V30 13313 H 1296.5 4.15826 0.892695 0
M  V30 13314 N 1294.82 -0.0116844 1.57596 0
M  V30 13315 C 1296.06 -0.698958 1.90055 0
M  V30 13316 C 1296.39 -1.74422 0.860659 0
M  V30 13317 O 1295.65 -1.95226 -0.136132 0
M  V30 13318 C 1295.94 -1.38985 3.29269 0
M  V30 13319 C 1295.61 -0.478916 4.48349 0
M  V30 13320 C 1294.27 -0.228071 4.80659 0
M  V30 13321 C 1296.62 0.14897 5.20987 0
M  V30 13322 C 1293.95 0.659147 5.82986 0
M  V30 13323 C 1296.3 1.02399 6.24257 0
M  V30 13324 C 1294.97 1.28413 6.55032 0
M  V30 13325 H 1294.24 -0.255767 0.69546 0
M  V30 13326 H 1296.89 0.0413339 1.91455 0
M  V30 13327 H 1295.19 -2.2039 3.23937 0
M  V30 13328 H 1296.89 -1.92747 3.51638 0
M  V30 13329 H 1293.48 -0.68459 4.23097 0
M  V30 13330 H 1297.66 -0.0318326 4.9629 0
M  V30 13331 H 1292.92 0.86882 6.05195 0
M  V30 13332 H 1297.09 1.51694 6.79678 0
M  V30 13333 H 1294.72 1.97332 7.34142 0
M  V30 13334 N 1296.29 -1.55015 -0.284256 0
M  V30 13335 C 1297.2 -1.90203 -1.37332 0
M  V30 13336 C 1298.22 -0.797994 -1.54622 0
M  V30 13337 O 1299.4 -1.09602 -1.68965 0
M  V30 13338 C 1296.46 -2.15687 -2.71441 0
M  V30 13339 C 1295.52 -3.39313 -2.62993 0
M  V30 13340 C 1294.75 -3.63571 -3.90707 0
M  V30 13341 O 1294.98 -2.90538 -4.9086 0
M  V30 13342 O 1293.91 -4.57102 -3.91589 0
M  V30 13343 H 1297.74 -2.82888 -1.1049 0
M  V30 13344 H 1295.32 -1.41418 -0.481798 0
M  V30 13345 H 1297.2 -2.33553 -3.50758 0
M  V30 13346 H 1295.88 -1.26185 -2.98092 0
M  V30 13347 H 1294.79 -3.26793 -1.82091 0
M  V30 13348 H 1296.12 -4.28997 -2.41293 0
M  V30 13349 N 1297.77 0.548248 -1.47757 0
M  V30 13350 C 1299.02 1.30139 -1.54099 0
M  V30 13351 C 1299.33 1.9445 -0.2118 0
M  V30 13352 O 1300.54 2.71067 -0.153302 0
M  V30 13353 C 1299 2.36039 -2.71687 0
M  V30 13354 C 1298.6 1.77879 -4.11173 0
M  V30 13355 C 1300.35 3.12478 -2.87329 0
M  V30 13356 C 1298.25 2.81611 -5.20047 0
M  V30 13357 H 1297.18 0.489364 -0.573619 0
M  V30 13358 H 1299.84 0.581237 -1.74051 0
M  V30 13359 H 1298.22 3.11008 -2.45132 0
M  V30 13360 H 1299.39 1.09221 -4.47669 0
M  V30 13361 H 1297.71 1.13994 -4.00493 0
M  V30 13362 H 1300.3 3.89958 -3.65837 0
M  V30 13363 H 1300.65 3.67218 -1.96103 0
M  V30 13364 H 1301.18 2.4462 -3.13697 0
M  V30 13365 H 1297.92 2.31714 -6.13179 0
M  V30 13366 H 1297.44 3.48652 -4.88059 0
M  V30 13367 H 1299.12 3.44938 -5.47382 0
M  V30 13368 N 1299.25 1.36039 0.795694 0
M  V30 13369 C 1300.53 1.20474 1.54096 0
M  V30 13370 C 1300.91 -0.211691 2.10036 0
M  V30 13371 O 1300.25 -1.21656 1.93422 0
M  V30 13372 C 1300.46 2.28164 2.64087 0
M  V30 13373 C 1301.81 2.64519 3.32137 0
M  V30 13374 O 1302.84 2.2716 2.74366 0
M  V30 13375 O 1301.7 3.28796 4.36527 0
M  V30 13376 H 1298.79 0.468699 0.681359 0
M  V30 13377 H 1301.34 1.47752 0.834716 0
M  V30 13378 H 1300.11 3.23121 2.20701 0
M  V30 13379 H 1299.73 2.02217 3.42336 0
M  V30 13380 N 1300.73 -1.01913 1.20215 0
M  V30 13381 C 1301.66 -2.12282 0.97256 0
M  V30 13382 C 1302.64 -1.6982 -0.0975709 0
M  V30 13383 O 1303.82 -1.94109 0.0594307 0
M  V30 13384 C 1300.95 -3.43369 0.521085 0
M  V30 13385 C 1299.91 -3.99559 1.53417 0
M  V30 13386 C 1299.23 -5.26383 0.93942 0
M  V30 13387 C 1300.53 -4.33241 2.91718 0
M  V30 13388 H 1302.23 -2.31746 1.89563 0
M  V30 13389 H 1299.77 -1.1137 0.912841 0
M  V30 13390 H 1301.73 -4.19963 0.347713 0
M  V30 13391 H 1300.45 -3.23655 -0.437605 0
M  V30 13392 H 1299.11 -3.25069 1.69486 0
M  V30 13393 H 1298.76 -5.02993 -0.0271236 0
M  V30 13394 H 1298.46 -5.64942 1.616 0
M  V30 13395 H 1299.98 -6.05635 0.777059 0
M  V30 13396 H 1301.4 -5.00734 2.79175 0
M  V30 13397 H 1299.79 -4.82907 3.56259 0
M  V30 13398 H 1300.86 -3.42118 3.43633 0
M  V30 13399 N 1302.21 -1.00763 -1.2118 0
M  V30 13400 C 1303.43 -0.710746 -1.94309 0
M  V30 13401 C 1303.85 0.727103 -1.74237 0
M  V30 13402 O 1303.21 1.49223 -1.05065 0
M  V30 13403 C 1303.26 -1.02562 -3.46646 0
M  V30 13404 O 1302.98 -2.40699 -3.66054 0
M  V30 13405 C 1304.48 -0.748517 -4.36935 0
M  V30 13406 H 1301.7 -0.26171 -0.617858 0
M  V30 13407 H 1304.24 -1.34639 -1.53924 0
M  V30 13408 H 1302.4 -0.435537 -3.84944 0
M  V30 13409 H 1302.81 -2.51764 -4.60125 0
M  V30 13410 H 1304.29 -1.01899 -5.42513 0
M  V30 13411 H 1304.76 0.317423 -4.38051 0
M  V30 13412 H 1305.37 -1.32033 -4.04286 0
M  V30 13413 N 1303.68 1.3679 -0.7827 0
M  V30 13414 C 1304.59 2.33928 -0.17747 0
M  V30 13415 C 1305.61 1.60716 0.666802 0
M  V30 13416 O 1306.79 1.92742 0.584162 0
M  V30 13417 C 1303.85 3.39907 0.68294 0
M  V30 13418 C 1302.91 4.28926 -0.179053 0
M  V30 13419 C 1302.15 5.29844 0.640386 0
M  V30 13420 O 1302.37 5.38639 1.87681 0
M  V30 13421 O 1301.3 6.01884 0.0438164 0
M  V30 13422 H 1305.13 2.87439 -0.980441 0
M  V30 13423 H 1302.71 1.39142 -0.54404 0
M  V30 13424 H 1304.6 4.04722 1.17379 0
M  V30 13425 H 1303.27 2.88706 1.46391 0
M  V30 13426 H 1302.18 3.67174 -0.716512 0
M  V30 13427 H 1303.51 4.83461 -0.923377 0
M  V30 13428 N 1305.16 0.53415 1.48272 0
M  V30 13429 C 1306.09 -0.215037 2.32508 0
M  V30 13430 C 1307.07 -0.931083 1.42355 0
M  V30 13431 O 1308.26 -0.916051 1.71237 0
M  V30 13432 C 1305.39 -1.25985 3.23643 0
M  V30 13433 C 1304.34 -0.661692 4.22854 0
M  V30 13434 C 1303.67 -1.80946 5.03153 0
M  V30 13435 C 1304.97 0.369358 5.20992 0
M  V30 13436 H 1306.66 0.488158 2.95394 0
M  V30 13437 H 1304.21 0.236206 1.4205 0
M  V30 13438 H 1306.16 -1.79195 3.81402 0
M  V30 13439 H 1304.89 -1.99268 2.58766 0
M  V30 13440 H 1303.54 -0.151082 3.66289 0
M  V30 13441 H 1303.19 -2.53077 4.34696 0
M  V30 13442 H 1302.89 -1.41513 5.70305 0
M  V30 13443 H 1304.42 -2.34526 5.63764 0
M  V30 13444 H 1305.83 -0.0758076 5.7325 0
M  V30 13445 H 1304.23 0.681301 5.9622 0
M  V30 13446 H 1305.3 1.27363 4.67875 0
M  V30 13447 N 1306.64 -1.55279 0.269478 0
M  V30 13448 C 1307.92 -1.91458 -0.400412 0
M  V30 13449 C 1308.3 -1.19306 -1.74153 0
M  V30 13450 O 1307.65 -0.318017 -2.26276 0
M  V30 13451 C 1307.86 -3.44698 -0.546258 0
M  V30 13452 C 1309.2 -4.16374 -0.831758 0
M  V30 13453 O 1310.23 -3.50561 -0.631279 0
M  V30 13454 O 1309.09 -5.32826 -1.21484 0
M  V30 13455 H 1306.18 -0.79766 -0.218328 0
M  V30 13456 H 1308.73 -1.66747 0.315214 0
M  V30 13457 H 1307.5 -3.89273 0.397784 0
M  V30 13458 H 1307.12 -3.75345 -1.31157 0
M  V30 13459 N 1308.12 0.00332656 -1.576 0
M  V30 13460 C 1309.34 0.703587 -1.95101 0
M  V30 13461 C 1309.77 1.66697 -0.871418 0
M  V30 13462 O 1309.13 1.80494 0.170739 0
M  V30 13463 C 1309.17 1.41457 -3.31696 0
M  V30 13464 O 1308.28 2.52885 -3.25765 0
M  V30 13465 H 1307.62 0.187396 -0.637008 0
M  V30 13466 H 1310.15 -0.0488727 -2.04542 0
M  V30 13467 H 1310.16 1.77874 -3.67185 0
M  V30 13468 H 1308.83 0.708182 -4.09826 0
M  V30 13469 H 1307.41 2.18821 -3.01947 0
M  V30 13470 N 1309.6 1.55164 0.276031 0
M  V30 13471 C 1310.56 1.87065 1.32436 0
M  V30 13472 C 1311.56 0.745024 1.42499 0
M  V30 13473 O 1312.75 1.01321 1.41702 0
M  V30 13474 C 1309.88 2.07322 2.70611 0
M  V30 13475 H 1311.07 2.80775 1.05382 0
M  V30 13476 H 1308.63 1.47609 0.513947 0
M  V30 13477 H 1309.36 1.15983 3.0285 0
M  V30 13478 H 1309.15 2.89275 2.64693 0
M  V30 13479 H 1310.64 2.33287 3.46362 0
M  V30 13480 N 1311.07 -0.540404 1.48045 0
M  V30 13481 C 1312.3 -1.32177 1.59175 0
M  V30 13482 C 1312.72 -1.87163 0.248115 0
M  V30 13483 O 1312.07 -1.65871 -0.761124 0
M  V30 13484 C 1312.13 -2.47995 2.63023 0
M  V30 13485 O 1311.85 -1.95278 3.92171 0
M  V30 13486 C 1313.35 -3.39967 2.84495 0
M  V30 13487 H 1310.57 -0.40233 0.537002 0
M  V30 13488 H 1313.11 -0.652983 1.93795 0
M  V30 13489 H 1311.27 -3.10779 2.31291 0
M  V30 13490 H 1311.68 -2.71012 4.49058 0
M  V30 13491 H 1313.15 -4.17607 3.60982 0
M  V30 13492 H 1313.63 -3.94555 1.92932 0
M  V30 13493 H 1314.24 -2.82985 3.1749 0
M  V30 13494 N 1312.55 -1.36459 -0.788468 0
M  V30 13495 C 1313.8 -1.30935 -1.54867 0
M  V30 13496 C 1314.13 0.110916 -1.93883 0
M  V30 13497 O 1313.41 1.06452 -1.62783 0
M  V30 13498 C 1313.69 -2.23294 -2.8251 0
M  V30 13499 C 1313.54 -3.74022 -2.49856 0
M  V30 13500 C 1314.86 -2.14407 -3.84341 0
M  V30 13501 H 1311.98 -0.476958 -0.561854 0
M  V30 13502 H 1314.62 -1.67018 -0.905805 0
M  V30 13503 H 1312.77 -1.92652 -3.37369 0
M  V30 13504 H 1314.44 -4.15187 -2.01041 0
M  V30 13505 H 1312.69 -3.93411 -1.82785 0
M  V30 13506 H 1313.36 -4.34057 -3.41026 0
M  V30 13507 H 1315.83 -2.41381 -3.38932 0
M  V30 13508 H 1314.71 -2.81199 -4.71401 0
M  V30 13509 H 1314.97 -1.13166 -4.27371 0
M  V30 13510 N 1314.03 1.01274 -1.20754 0
M  V30 13511 C 1315.26 1.78524 -1.04579 0
M  V30 13512 C 1315.67 1.84409 0.404809 0
M  V30 13513 O 1315.03 1.29987 1.281 0
M  V30 13514 C 1315.08 3.22806 -1.62722 0
M  V30 13515 O 1314.8 3.17276 -3.02106 0
M  V30 13516 C 1316.3 4.16589 -1.51553 0
M  V30 13517 H 1313.52 0.561299 -0.367674 0
M  V30 13518 H 1316.07 1.27454 -1.59924 0
M  V30 13519 H 1314.22 3.71011 -1.11487 0
M  V30 13520 H 1314.64 4.07866 -3.29766 0
M  V30 13521 H 1316.11 5.15654 -1.9699 0
M  V30 13522 H 1316.59 4.36692 -0.468659 0
M  V30 13523 H 1317.19 3.74269 -2.01998 0
M  V30 13524 N 1315.51 1.01404 1.20644 0
M  V30 13525 C 1316.73 0.720839 1.9447 0
M  V30 13526 C 1317.16 -0.711711 1.74116 0
M  V30 13527 O 1316.52 -1.48938 1.03379 0
M  V30 13528 C 1316.57 1.05864 3.4471 0
M  V30 13529 O 1315.67 0.168901 4.12054 0
M  V30 13530 H 1315.01 0.267698 0.607646 0
M  V30 13531 H 1317.54 1.35672 1.53147 0
M  V30 13532 H 1317.55 1.00928 3.9532 0
M  V30 13533 H 1316.23 2.1024 3.58848 0
M  V30 13534 H 1314.8 0.275572 3.7188 0
M  V30 13535 N 1316.99 -1.36373 0.789944 0
M  V30 13536 C 1318.26 -1.9349 0.286543 0
M  V30 13537 C 1318.64 -1.7218 -1.22136 0
M  V30 13538 O 1317.99 -1.08106 -2.01309 0
M  V30 13539 C 1318.2 -3.42316 0.679749 0
M  V30 13540 C 1319.55 -4.19442 0.659791 0
M  V30 13541 O 1320.57 -3.50758 0.620256 0
M  V30 13542 O 1319.43 -5.41957 0.703159 0
M  V30 13543 H 1316.53 -0.823942 0.0710537 0
M  V30 13544 H 1319.07 -1.45551 0.872523 0
M  V30 13545 H 1317.85 -3.51485 1.7197 0
M  V30 13546 H 1317.47 -3.97542 0.0676823 0
M  V30 13547 N 1318.47 -0.542005 -1.47987 0
M  V30 13548 C 1319.38 0.217677 -2.33588 0
M  V30 13549 C 1320.39 0.927093 -1.47245 0
M  V30 13550 O 1321.57 0.899378 -1.80203 0
M  V30 13551 C 1318.63 1.24376 -3.23622 0
M  V30 13552 C 1317.69 0.543407 -4.25847 0
M  V30 13553 C 1316.93 1.5206 -5.11579 0
M  V30 13554 O 1317.15 2.75425 -4.99497 0
M  V30 13555 O 1316.08 1.05341 -5.9261 0
M  V30 13556 H 1319.91 -0.484089 -2.99817 0
M  V30 13557 H 1317.49 -0.302783 -1.463 0
M  V30 13558 H 1319.38 1.83644 -3.7928 0
M  V30 13559 H 1318.05 1.92772 -2.6004 0
M  V30 13560 H 1316.96 -0.090074 -3.73992 0
M  V30 13561 H 1318.29 -0.0988264 -4.92101 0
M  V30 13562 N 1319.94 1.55134 -0.277709 0
M  V30 13563 C 1320.87 2.256 0.602232 0
M  V30 13564 C 1321.85 1.24708 1.15681 0
M  V30 13565 O 1323.04 1.53433 1.19046 0
M  V30 13566 C 1320.17 2.97907 1.78519 0
M  V30 13567 C 1319.12 4.0575 1.36203 0
M  V30 13568 C 1318.45 4.65644 2.62829 0
M  V30 13569 C 1319.75 5.19801 0.510327 0
M  V30 13570 H 1321.44 2.99396 0.0145622 0
M  V30 13571 H 1318.99 1.43999 0.00556389 0
M  V30 13572 H 1320.94 3.45915 2.40668 0
M  V30 13573 H 1319.67 2.21649 2.39873 0
M  V30 13574 H 1318.33 3.58557 0.763726 0
M  V30 13575 H 1317.97 3.86053 3.22447 0
M  V30 13576 H 1317.67 5.38463 2.35227 0
M  V30 13577 H 1319.2 5.16403 3.25823 0
M  V30 13578 H 1320.61 5.63845 1.03689 0
M  V30 13579 H 1319.01 5.99197 0.329073 0
M  V30 13580 H 1320.08 4.82614 -0.470273 0
M  V30 13581 N 1321.42 0.00503138 1.57599 0
M  V30 13582 C 1322.65 -0.688609 1.94786 0
M  V30 13583 C 1323.06 -1.67558 0.878698 0
M  V30 13584 O 1322.4 -1.83083 -0.150486 0
M  V30 13585 C 1322.46 -1.47183 3.2799 0
M  V30 13586 C 1322.13 -0.64589 4.52413 0
M  V30 13587 C 1323.13 0.0685859 5.19855 0
M  V30 13588 C 1320.81 -0.590379 4.98818 0
M  V30 13589 C 1322.8 0.827505 6.32006 0
M  V30 13590 C 1320.49 0.172262 6.10857 0
M  V30 13591 C 1321.49 0.879932 6.77308 0
M  V30 13592 O 1321.18 1.63012 7.87199 0
M  V30 13593 H 1320.91 -0.196416 0.646836 0
M  V30 13594 H 1323.46 0.0537933 2.0533 0
M  V30 13595 H 1321.69 -2.25883 3.13869 0
M  V30 13596 H 1323.38 -2.05129 3.50253 0
M  V30 13597 H 1324.15 0.0348834 4.84987 0
M  V30 13598 H 1320.03 -1.13074 4.46918 0
M  V30 13599 H 1323.57 1.3804 6.83806 0
M  V30 13600 H 1319.47 0.207767 6.45166 0
M  V30 13601 H 1320.24 1.54736 8.03741 0
M  V30 13602 N 1322.9 -1.55308 -0.267798 0
M  V30 13603 C 1323.85 -1.84933 -1.33356 0
M  V30 13604 C 1324.83 -0.708605 -1.44456 0
M  V30 13605 O 1326.03 -0.970069 -1.4805 0
M  V30 13606 C 1323.15 -2.12927 -2.69289 0
M  V30 13607 C 1322.24 -3.33273 -2.62279 0
M  V30 13608 N 1322.63 -4.53055 -2.24889 0
M  V30 13609 C 1320.93 -3.35966 -2.93331 0
M  V30 13610 C 1321.63 -5.35156 -2.27998 0
M  V30 13611 N 1320.61 -4.73692 -2.66677 0
M  V30 13612 H 1324.41 -2.75086 -1.03465 0
M  V30 13613 H 1321.92 -1.55254 -0.476435 0
M  V30 13614 H 1323.92 -2.32309 -3.46177 0
M  V30 13615 H 1322.58 -1.24061 -3.00065 0
M  V30 13616 H 1323.59 -4.79059 -1.9678 0
M  V30 13617 H 1320.27 -2.57308 -3.28784 0
M  V30 13618 H 1321.66 -6.4094 -2.01608 0
M  V30 13619 N 1324.38 0.532545 -1.4833 0
M  V30 13620 C 1325.61 1.31141 -1.59642 0
M  V30 13621 C 1326.02 1.87476 -0.254835 0
M  V30 13622 O 1325.36 1.66985 0.765622 0
M  V30 13623 C 1325.42 2.50182 -2.58165 0
M  V30 13624 C 1325.08 2.14953 -4.03292 0
M  V30 13625 C 1326.08 1.70777 -4.91051 0
M  V30 13626 C 1323.77 2.25555 -4.4881 0
M  V30 13627 C 1325.76 1.37665 -6.22356 0
M  V30 13628 C 1323.45 1.92055 -5.80136 0
M  V30 13629 C 1324.45 1.48181 -6.66732 0
M  V30 13630 O 1324.13 1.15119 -7.95615 0
M  V30 13631 H 1323.87 0.405164 -0.541127 0
M  V30 13632 H 1326.42 0.649423 -1.94863 0
M  V30 13633 H 1324.65 3.19353 -2.1806 0
M  V30 13634 H 1326.34 3.12246 -2.5934 0
M  V30 13635 H 1327.1 1.62059 -4.57124 0
M  V30 13636 H 1322.98 2.5866 -3.81597 0
M  V30 13637 H 1326.53 1.03348 -6.89902 0
M  V30 13638 H 1322.42 2.00413 -6.136 0
M  V30 13639 H 1323.19 1.28539 -8.08344 0
M  V30 13640 N 1325.86 1.36875 0.78122 0
M  V30 13641 C 1326.77 1.3404 1.92537 0
M  V30 13642 C 1327.78 0.241354 1.72318 0
M  V30 13643 O 1328.96 0.475128 1.95715 0
M  V30 13644 C 1326.02 1.13708 3.27523 0
M  V30 13645 C 1325.08 2.33165 3.60462 0
M  V30 13646 C 1324.32 2.13793 4.89007 0
M  V30 13647 O 1324.54 1.11732 5.5935 0
M  V30 13648 O 1323.47 3.01762 5.20791 0
M  V30 13649 H 1327.3 2.30386 1.97879 0
M  V30 13650 H 1324.88 1.17506 0.922637 0
M  V30 13651 H 1326.77 1.0432 4.08283 0
M  V30 13652 H 1325.44 0.204306 3.23055 0
M  V30 13653 H 1324.35 2.48123 2.79974 0
M  V30 13654 H 1325.68 3.24977 3.69663 0
M  V30 13655 N 1327.33 -1.00632 1.21289 0
M  V30 13656 C 1328.58 -1.74647 1.03084 0
M  V30 13657 C 1328.91 -1.89271 -0.43476 0
M  V30 13658 O 1328.19 -1.42607 -1.32263 0
M  V30 13659 C 1328.47 -3.15981 1.72709 0
M  V30 13660 C 1328.32 -3.09088 3.2678 0
M  V30 13661 C 1329.64 -4.14875 1.46857 0
M  V30 13662 H 1326.76 -0.633938 0.375889 0
M  V30 13663 H 1329.4 -1.17328 1.49446 0
M  V30 13664 H 1327.55 -3.64918 1.33294 0
M  V30 13665 H 1329.23 -2.67875 3.75554 0
M  V30 13666 H 1327.47 -2.46223 3.57151 0
M  V30 13667 H 1328.14 -4.09041 3.70661 0
M  V30 13668 H 1330.62 -3.74637 1.81069 0
M  V30 13669 H 1329.49 -5.1191 1.98088 0
M  V30 13670 H 1329.75 -4.40302 0.398296 0
M  V30 13671 N 1328.81 -1.02043 -1.20104 0
M  V30 13672 C 1329.76 -0.593945 -2.23027 0
M  V30 13673 C 1330.73 0.387931 -1.61506 0
M  V30 13674 O 1331.91 0.286504 -1.88637 0
M  V30 13675 C 1329.05 0.0577309 -3.45052 0
M  V30 13676 C 1328.17 -0.969169 -4.20988 0
M  V30 13677 C 1327.3 -0.288143 -5.30418 0
M  V30 13678 C 1326.34 -1.30154 -5.98102 0
M  V30 13679 N 1325.48 -0.646912 -6.99113 0
M  V30 13680 H 1330.32 -1.47623 -2.58866 0
M  V30 13681 H 1327.85 -0.738901 -1.27195 0
M  V30 13682 H 1329.81 0.452726 -4.14736 0
M  V30 13683 H 1328.44 0.90364 -3.09894 0
M  V30 13684 H 1327.49 -1.48229 -3.50332 0
M  V30 13685 H 1328.81 -1.73972 -4.67477 0
M  V30 13686 H 1327.96 0.162149 -6.06483 0
M  V30 13687 H 1326.7 0.514683 -4.84977 0
M  V30 13688 H 1325.7 -1.76218 -5.20795 0
M  V30 13689 H 1326.93 -2.10571 -6.45629 0
M  V30 13690 H 1324.88 0.135976 -6.55859 0
M  V30 13691 H 1324.79 -1.35548 -7.43749 0
M  V30 13692 H 1326.06 -0.220339 -7.79189 0
M  V30 13693 N 1330.29 1.35952 -0.797165 0
M  V30 13694 C 1331.54 1.98283 -0.369685 0
M  V30 13695 C 1331.85 1.63968 1.06649 0
M  V30 13696 O 1333.06 2.19591 1.59662 0
M  V30 13697 C 1331.51 3.54692 -0.610046 0
M  V30 13698 C 1331.12 3.97925 -2.05814 0
M  V30 13699 C 1332.87 4.23778 -0.247457 0
M  V30 13700 C 1330.77 5.47142 -2.24475 0
M  V30 13701 H 1329.7 0.741909 -0.134489 0
M  V30 13702 H 1332.35 1.55146 -0.979893 0
M  V30 13703 H 1330.74 3.95938 0.0699822 0
M  V30 13704 H 1331.91 3.67857 -2.77521 0
M  V30 13705 H 1330.23 3.417 -2.37971 0
M  V30 13706 H 1332.82 5.33452 -0.365059 0
M  V30 13707 H 1333.17 4.08436 0.805315 0
M  V30 13708 H 1333.7 3.87921 -0.881028 0
M  V30 13709 H 1330.44 5.67441 -3.28163 0
M  V30 13710 H 1329.96 5.78811 -1.57282 0
M  V30 13711 H 1331.64 6.13475 -2.05567 0
M  V30 13712 N 1331.77 0.549846 1.47697 0
M  V30 13713 C 1332.72 -0.215119 2.31603 0
M  V30 13714 C 1333.71 -0.916441 1.4247 0
M  V30 13715 O 1334.92 -0.838565 1.59274 0
M  V30 13716 H 1331.29 -0.0882441 0.746805 0
M  V30 13717 H 1333.26 0.511847 2.93977 0
M  V30 13718 C 1332.01 -1.23662 3.24966 0
M  V30 13719 H 1331.33 -0.706384 3.9351 0
M  V30 13720 H 1332.77 -1.7429 3.86522 0
M  V30 13721 C 1331.23 -2.28066 2.47967 0
M  V30 13722 O 1331.76 -3.34862 2.21879 0
M  V30 13723 N 1329.97 -2.01799 2.09106 0
M  V30 13724 H 1329.52 -1.14965 2.30523 0
M  V30 13725 H 1329.47 -2.71872 1.57902 0
M  V30 13726 N 1333.25 -1.54984 0.285932 0
M  V30 13727 C 1334.5 -1.99008 -0.328433 0
M  V30 13728 C 1334.81 -1.17787 -1.56158 0
M  V30 13729 O 1336.01 -1.52006 -2.24959 0
M  V30 13730 C 1334.47 -3.54241 -0.635688 0
M  V30 13731 C 1334.08 -4.44252 0.578271 0
M  V30 13732 C 1335.82 -4.06828 -1.21208 0
M  V30 13733 C 1333.73 -5.90892 0.245003 0
M  V30 13734 H 1332.66 -0.743314 -0.126494 0
M  V30 13735 H 1335.31 -1.79258 0.39228 0
M  V30 13736 H 1333.69 -3.69834 -1.41559 0
M  V30 13737 H 1334.87 -4.40431 1.35489 0
M  V30 13738 H 1333.18 -4.02358 1.07225 0
M  V30 13739 H 1335.78 -5.13941 -1.47542 0
M  V30 13740 H 1336.12 -3.56515 -2.14948 0
M  V30 13741 H 1336.65 -3.94718 -0.494222 0
M  V30 13742 H 1333.39 -6.45323 1.15057 0
M  V30 13743 H 1332.91 -5.97757 -0.494636 0
M  V30 13744 H 1334.59 -6.46805 -0.158891 0
M  V30 13745 N 1334.72 -0.0133892 -1.57594 0
M  V30 13746 C 1336.14 0.342848 -1.55874 0
M  V30 13747 C 1336.34 1.73928 -1.01742 0
M  V30 13748 O 1335.4 2.43798 -0.657158 0
M  V30 13749 C 1336.71 0.205831 -2.99995 0
M  V30 13750 C 1338.26 0.279774 -3.11747 0
M  V30 13751 C 1338.73 0.171729 -4.57678 0
M  V30 13752 N 1340.22 0.22921 -4.62633 0
M  V30 13753 C 1340.96 0.169153 -5.7315 0
M  V30 13754 N 1340.45 0.0589166 -6.92775 0
M  V30 13755 N 1342.25 0.221995 -5.61661 0
M  V30 13756 H 1334.4 -0.926727 -1.91117 0
M  V30 13757 H 1336.66 -0.356466 -0.878428 0
M  V30 13758 H 1336.37 -0.755482 -3.4349 0
M  V30 13759 H 1336.24 0.982476 -3.6418 0
M  V30 13760 H 1338.63 1.23154 -2.68174 0
M  V30 13761 H 1338.71 -0.526974 -2.50313 0
M  V30 13762 H 1338.35 -0.776547 -5.01928 0
M  V30 13763 H 1338.28 0.997138 -5.17073 0
M  V30 13764 H 1340.77 0.315196 -3.76583 0
M  V30 13765 H 1341.09 0.0193526 -7.72798 0
M  V30 13766 H 1339.43 0.0243543 -6.94996 0
M  V30 13767 H 1342.62 0.306406 -4.67096 0
M  V30 13768 H 1342.8 0.171727 -6.47772 0
M  V30 13769 N 1336.2 1.55448 0.259558 0
M  V30 13770 C 1337.48 1.6742 1.01143 0
M  V30 13771 C 1337.86 0.549525 2.03822 0
M  V30 13772 O 1337.21 -0.448699 2.24051 0
M  V30 13773 C 1337.42 3.07201 1.65616 0
M  V30 13774 C 1338.77 3.6539 2.16277 0
M  V30 13775 O 1339.79 3.0992 1.7558 0
M  V30 13776 O 1338.65 4.62604 2.90963 0
M  V30 13777 H 1335.74 0.680469 0.469991 0
M  V30 13778 H 1338.29 1.67783 0.254348 0
M  V30 13779 H 1337.06 3.80504 0.912819 0
M  V30 13780 H 1336.68 3.10794 2.47977 0
M  V30 13781 N 1337.68 -0.524672 1.4861 0
M  V30 13782 C 1338.93 -1.27671 1.5615 0
M  V30 13783 C 1339.24 -1.94088 0.242709 0
M  V30 13784 O 1340.45 -2.70789 0.196407 0
M  V30 13785 C 1338.9 -2.31686 2.75408 0
M  V30 13786 C 1338.51 -1.71315 4.13951 0
M  V30 13787 C 1340.26 -3.07867 2.92264 0
M  V30 13788 C 1338.16 -2.73302 5.24462 0
M  V30 13789 H 1337.09 -0.480177 0.581332 0
M  V30 13790 H 1339.74 -0.553473 1.74954 0
M  V30 13791 H 1338.13 -3.07069 2.50049 0
M  V30 13792 H 1339.3 -1.02085 4.4935 0
M  V30 13793 H 1337.62 -1.07608 4.02255 0
M  V30 13794 H 1340.21 -3.84088 3.71995 0
M  V30 13795 H 1340.56 -3.64052 2.01921 0
M  V30 13796 H 1341.09 -2.39599 3.17549 0
M  V30 13797 H 1337.83 -2.21929 6.16788 0
M  V30 13798 H 1337.35 -3.40843 4.93544 0
M  V30 13799 H 1339.03 -3.36186 5.528 0
M  V30 13800 N 1339.16 -1.37287 -0.77395 0
M  V30 13801 C 1340.07 -1.35059 -1.91823 0
M  V30 13802 C 1341.08 -0.250489 -1.72188 0
M  V30 13803 O 1342.26 -0.485501 -1.95461 0
M  V30 13804 C 1339.33 -1.15444 -3.26915 0
M  V30 13805 C 1338.39 -2.35073 -3.5922 0
M  V30 13806 C 1337.62 -2.16384 -4.87867 0
M  V30 13807 O 1337.84 -1.14696 -5.58749 0
M  V30 13808 O 1336.78 -3.0452 -5.19183 0
M  V30 13809 H 1340.6 -2.31432 -1.96654 0
M  V30 13810 H 1338.19 -1.17994 -0.916392 0
M  V30 13811 H 1340.07 -1.06484 -4.07724 0
M  V30 13812 H 1338.74 -0.221435 -3.22942 0
M  V30 13813 H 1337.65 -2.49604 -2.78655 0
M  V30 13814 H 1338.98 -3.26933 -3.67934 0
M  V30 13815 N 1340.64 0.999871 -1.21821 0
M  V30 13816 C 1341.6 2.07024 -0.983541 0
M  V30 13817 C 1342.6 1.6073 0.0474011 0
M  V30 13818 O 1343.79 1.73156 -0.190398 0
M  V30 13819 C 1340.92 3.37444 -0.484199 0
M  V30 13820 H 1342.11 2.29276 -1.9332 0
M  V30 13821 H 1339.67 1.1704 -1.03592 0
M  V30 13822 H 1340.4 3.20874 0.470138 0
M  V30 13823 H 1340.19 3.72378 -1.2279 0
M  V30 13824 H 1341.68 4.16213 -0.34004 0
M  V30 13825 N 1342.11 1.02678 1.19562 0
M  V30 13826 C 1343.36 0.717279 1.88515 0
M  V30 13827 C 1343.68 -0.757063 1.80355 0
M  V30 13828 O 1344.88 -1.17953 2.44539 0
M  V30 13829 C 1343.34 1.23265 3.38133 0
M  V30 13830 C 1342.95 2.73462 3.54856 0
M  V30 13831 C 1344.69 0.99904 4.12577 0
M  V30 13832 C 1342.6 3.18428 4.98355 0
M  V30 13833 H 1341.53 0.264608 0.706044 0
M  V30 13834 H 1344.18 1.2408 1.3519 0
M  V30 13835 H 1342.56 0.637052 3.90842 0
M  V30 13836 H 1343.73 3.38659 3.12485 0
M  V30 13837 H 1342.05 2.95079 2.93798 0
M  V30 13838 H 1344.65 1.3103 5.18397 0
M  V30 13839 H 1344.99 -0.064217 4.1625 0
M  V30 13840 H 1345.52 1.55853 3.65998 0
M  V30 13841 H 1342.26 4.24074 4.99842 0
M  V30 13842 H 1341.78 2.57958 5.41496 0
M  V30 13843 H 1343.46 3.11649 5.66996 0
M  V30 13844 N 1343.59 -1.35528 0.804364 0
M  V30 13845 C 1344.82 -2.03073 0.396091 0
M  V30 13846 C 1345.24 -1.60623 -0.992252 0
M  V30 13847 O 1344.59 -0.802718 -1.63898 0
M  V30 13848 C 1344.64 -3.58467 0.467301 0
M  V30 13849 O 1344.36 -3.99373 1.80091 0
M  V30 13850 C 1345.87 -4.4327 0.0515549 0
M  V30 13851 H 1343.09 -0.651346 0.161212 0
M  V30 13852 H 1345.63 -1.73195 1.08737 0
M  V30 13853 H 1343.78 -3.87001 -0.175703 0
M  V30 13854 H 1344.2 -4.94013 1.76214 0
M  V30 13855 H 1345.67 -5.51789 0.152499 0
M  V30 13856 H 1346.15 -4.27597 -1.00286 0
M  V30 13857 H 1346.76 -4.20027 0.667628 0
M  V30 13858 N 1345.07 -0.557671 -1.47404 0
M  V30 13859 C 1346.35 0.031908 -1.95574 0
M  V30 13860 C 1346.73 1.48509 -1.50027 0
M  V30 13861 O 1346.08 2.16209 -0.73932 0
M  V30 13862 C 1346.29 -0.114055 -3.48814 0
M  V30 13863 C 1347.63 0.0310533 -4.24589 0
M  V30 13864 O 1348.66 -0.041626 -3.56176 0
M  V30 13865 O 1347.52 0.187487 -5.46178 0
M  V30 13866 H 1344.61 0.0638747 -0.82453 0
M  V30 13867 H 1347.16 -0.624227 -1.57802 0
M  V30 13868 H 1345.93 -1.12525 -3.74772 0
M  V30 13869 H 1345.55 0.57967 -3.93352 0
M  V30 13870 N 1346.55 1.54831 -0.294147 0
M  V30 13871 C 1347.83 1.92071 0.369902 0
M  V30 13872 C 1348.21 1.22061 1.72233 0
M  V30 13873 O 1347.55 0.353975 2.25742 0
M  V30 13874 C 1347.76 3.45524 0.49135 0
M  V30 13875 C 1349.11 4.17644 0.765411 0
M  V30 13876 O 1350.14 3.51521 0.575428 0
M  V30 13877 O 1349 5.34692 1.12992 0
M  V30 13878 H 1346.09 0.801033 0.20561 0
M  V30 13879 H 1348.64 1.66224 -0.341702 0
M  V30 13880 H 1347.41 3.88591 -0.459663 0
M  V30 13881 H 1347.03 3.77384 1.25169 0
M  V30 13882 N 1348.03 0.0217466 1.57585 0
M  V30 13883 C 1349.26 -0.668881 1.9579 0
M  V30 13884 C 1349.67 -1.66085 0.897849 0
M  V30 13885 O 1349.03 -1.82098 -0.121099 0
M  V30 13886 C 1349.08 -1.38174 3.34051 0
M  V30 13887 O 1348.8 -0.429527 4.35989 0
M  V30 13888 C 1350.3 -2.16487 3.86844 0
M  V30 13889 H 1347.52 -0.184919 0.645016 0
M  V30 13890 H 1350.06 0.0793241 2.04346 0
M  V30 13891 H 1348.22 -2.0814 3.26736 0
M  V30 13892 H 1348.63 -0.934887 5.16101 0
M  V30 13893 H 1350.11 -2.61829 4.85952 0
M  V30 13894 H 1350.58 -3.00082 3.20698 0
M  V30 13895 H 1351.19 -1.51493 3.97404 0
M  V30 13896 N 1349.51 -1.55583 -0.251311 0
M  V30 13897 C 1350.42 -1.93073 -1.33266 0
M  V30 13898 C 1351.43 -0.830612 -1.52895 0
M  V30 13899 O 1352.61 -1.13162 -1.66602 0
M  V30 13900 C 1349.67 -2.21396 -2.66805 0
M  V30 13901 C 1348.73 -3.44815 -2.55737 0
M  V30 13902 C 1347.97 -3.71777 -3.82907 0
M  V30 13903 O 1348.19 -3.00884 -4.84587 0
M  V30 13904 O 1347.12 -4.65305 -3.81805 0
M  V30 13905 H 1350.95 -2.85168 -1.04465 0
M  V30 13906 H 1348.53 -1.42408 -0.451693 0
M  V30 13907 H 1350.42 -2.4094 -3.45725 0
M  V30 13908 H 1349.09 -1.3248 -2.95348 0
M  V30 13909 H 1348 -3.30582 -1.75118 0
M  V30 13910 H 1349.33 -4.34019 -2.32139 0
M  V30 13911 N 1350.98 0.516783 -1.48886 0
M  V30 13912 C 1351.91 1.62897 -1.67292 0
M  V30 13913 C 1352.89 1.61903 -0.521671 0
M  V30 13914 O 1354.08 1.78892 -0.755728 0
M  V30 13915 C 1351.21 3.01444 -1.72478 0
M  V30 13916 C 1350.16 3.173 -2.87236 0
M  V30 13917 C 1349.49 4.5704 -2.77522 0
M  V30 13918 C 1350.79 2.98818 -4.28375 0
M  V30 13919 H 1352.48 1.47748 -2.60405 0
M  V30 13920 H 1350.03 0.709361 -1.25316 0
M  V30 13921 H 1351.98 3.79135 -1.83942 0
M  V30 13922 H 1350.71 3.17645 -0.759538 0
M  V30 13923 H 1349.37 2.4203 -2.75349 0
M  V30 13924 H 1349.01 4.70096 -1.78938 0
M  V30 13925 H 1348.71 4.68593 -3.54534 0
M  V30 13926 H 1350.24 5.36813 -2.90972 0
M  V30 13927 H 1351.65 3.66291 -4.41026 0
M  V30 13928 H 1350.05 3.21854 -5.06488 0
M  V30 13929 H 1351.12 1.95102 -4.43918 0
M  V30 13930 N 1352.46 1.37696 0.766659 0
M  V30 13931 C 1353.88 1.18607 1.06792 0
M  V30 13932 C 1354.08 0.0257195 2.01484 0
M  V30 13933 O 1353.13 -0.632608 2.44447 0
M  V30 13934 C 1354.45 2.50692 1.66054 0
M  V30 13935 C 1355.99 2.57259 1.78288 0
M  V30 13936 C 1356.47 3.89488 2.40963 0
M  V30 13937 N 1357.96 3.90957 2.48408 0
M  V30 13938 C 1358.7 4.90023 2.97767 0
M  V30 13939 N 1358.19 5.99485 3.4726 0
M  V30 13940 N 1359.98 4.77423 2.96688 0
M  V30 13941 H 1352.14 2.11951 0.138031 0
M  V30 13942 H 1354.4 0.939873 0.123863 0
M  V30 13943 H 1354.1 3.35989 1.03945 0
M  V30 13944 H 1353.98 2.68148 2.65286 0
M  V30 13945 H 1356.37 1.72366 2.39528 0
M  V30 13946 H 1356.45 2.43682 0.777981 0
M  V30 13947 H 1356.09 4.74797 1.8036 0
M  V30 13948 H 1356.02 4.0037 3.42069 0
M  V30 13949 H 1358.51 3.11888 2.13388 0
M  V30 13950 H 1358.82 6.71022 3.8334 0
M  V30 13951 H 1357.17 6.03123 3.45351 0
M  V30 13952 H 1360.36 3.91026 2.57325 0
M  V30 13953 H 1360.53 5.54783 3.34844 0
M  V30 13954 N 1353.94 -0.993397 1.22349 0
M  V30 13955 C 1354.89 -2.10463 0.990358 0
M  V30 13956 C 1355.88 -1.6927 -0.0663528 0
M  V30 13957 O 1357.09 -1.79794 0.0860444 0
M  V30 13958 H 1353.46 -0.688222 0.303075 0
M  V30 13959 H 1355.43 -2.273 1.93333 0
M  V30 13960 C 1354.18 -3.42757 0.584205 0
M  V30 13961 H 1353.51 -3.74896 1.38899 0
M  V30 13962 H 1354.95 -4.21492 0.46049 0
M  V30 13963 C 1353.4 -3.29416 -0.706187 0
M  V30 13964 O 1353.93 -3.61152 -1.75875 0
M  V30 13965 N 1352.14 -2.82601 -0.677148 0
M  V30 13966 H 1351.69 -2.56972 0.179712 0
M  V30 13967 H 1351.65 -2.74056 -1.54081 0
M  V30 13968 N 1355.42 -1.03311 -1.19015 0
M  V30 13969 C 1356.35 -0.638279 -2.24607 0
M  V30 13970 C 1357.33 0.354795 -1.66359 0
M  V30 13971 O 1358.51 0.236574 -1.92754 0
M  V30 13972 C 1355.64 0.00737316 -3.47299 0
M  V30 13973 C 1354.6 -0.908431 -4.18248 0
M  V30 13974 C 1353.92 -0.127658 -5.34548 0
M  V30 13975 C 1355.22 -2.2241 -4.72579 0
M  V30 13976 H 1356.92 -1.52099 -2.57888 0
M  V30 13977 H 1354.46 -0.732779 -1.23961 0
M  V30 13978 H 1356.42 0.295256 -4.20364 0
M  V30 13979 H 1355.14 0.924912 -3.1323 0
M  V30 13980 H 1353.8 -1.18058 -3.47071 0
M  V30 13981 H 1353.45 0.792048 -4.96725 0
M  V30 13982 H 1353.15 -0.737702 -5.82951 0
M  V30 13983 H 1354.67 0.153385 -6.10407 0
M  V30 13984 H 1356.09 -1.99745 -5.37378 0
M  V30 13985 H 1354.48 -2.78644 -5.31486 0
M  V30 13986 H 1355.55 -2.87584 -3.90415 0
M  V30 13987 N 1356.9 1.35099 -0.81154 0
M  V30 13988 C 1357.83 2.32264 -0.239925 0
M  V30 13989 C 1358.81 1.57708 0.637354 0
M  V30 13990 O 1359.99 1.85751 0.566598 0
M  V30 13991 C 1357.12 3.41931 0.608325 0
M  V30 13992 C 1356.08 4.27659 -0.170869 0
M  V30 13993 C 1355.4 5.28691 0.799398 0
M  V30 13994 C 1356.7 5.0394 -1.37266 0
M  V30 13995 H 1358.4 2.8032 -1.05172 0
M  V30 13996 H 1355.94 1.34773 -0.507185 0
M  V30 13997 H 1357.89 4.08911 1.01832 0
M  V30 13998 H 1356.62 2.92496 1.45306 0
M  V30 13999 H 1355.28 3.62265 -0.562094 0
M  V30 14000 H 1354.93 4.75521 1.63977 0
M  V30 14001 H 1354.63 5.86921 0.282331 0
M  V30 14002 H 1356.15 5.98542 1.20749 0
M  V30 14003 H 1357.56 5.63838 -1.03728 0
M  V30 14004 H 1355.96 5.7169 -1.82456 0
M  V30 14005 H 1357.03 4.34295 -2.15676 0
M  V30 14006 N 1358.37 0.56548 1.47106 0
M  V30 14007 C 1359.3 -0.16567 2.32912 0
M  V30 14008 C 1360.28 -0.900678 1.44298 0
M  V30 14009 O 1361.47 -0.879523 1.73142 0
M  V30 14010 C 1358.6 -1.19092 3.26243 0
M  V30 14011 C 1357.55 -0.571849 4.24163 0
M  V30 14012 C 1356.88 -1.70233 5.06878 0
M  V30 14013 C 1358.18 0.479785 5.20092 0
M  V30 14014 H 1359.87 0.550705 2.94292 0
M  V30 14015 H 1357.42 0.266284 1.41517 0
M  V30 14016 H 1359.37 -1.71064 3.85117 0
M  V30 14017 H 1358.1 -1.93734 2.62934 0
M  V30 14018 H 1356.76 -0.073353 3.66527 0
M  V30 14019 H 1356.4 -2.438 4.39967 0
M  V30 14020 H 1356.1 -1.29384 5.73178 0
M  V30 14021 H 1357.63 -2.22515 5.68612 0
M  V30 14022 H 1359.04 0.0458042 5.73282 0
M  V30 14023 H 1357.44 0.807615 5.94641 0
M  V30 14024 H 1358.51 1.37259 4.65068 0
M  V30 14025 N 1359.85 -1.54672 0.302354 0
M  V30 14026 C 1361.1 -1.99345 -0.307307 0
M  V30 14027 C 1361.41 -1.19437 -1.549 0
M  V30 14028 O 1362.62 -1.54384 -2.23334 0
M  V30 14029 C 1361.08 -3.54896 -0.59808 0
M  V30 14030 C 1360.68 -4.43614 0.625357 0
M  V30 14031 C 1362.43 -4.08091 -1.16886 0
M  V30 14032 C 1360.34 -5.90599 0.307661 0
M  V30 14033 H 1359.27 -0.744614 -0.118603 0
M  V30 14034 H 1361.92 -1.78832 0.411271 0
M  V30 14035 H 1360.3 -3.71314 -1.37629 0
M  V30 14036 H 1361.47 -4.38969 1.40152 0
M  V30 14037 H 1359.79 -4.01198 1.11487 0
M  V30 14038 H 1362.38 -5.15477 -1.42082 0
M  V30 14039 H 1362.73 -3.58775 -2.11155 0
M  V30 14040 H 1363.26 -3.9522 -0.452329 0
M  V30 14041 H 1360 -6.44067 1.21895 0
M  V30 14042 H 1359.52 -5.98248 -0.431208 0
M  V30 14043 H 1361.2 -6.46937 -0.0902796 0
M  V30 14044 N 1361.33 -0.0301034 -1.57571 0
M  V30 14045 C 1362.58 0.648323 -1.91841 0
M  V30 14046 C 1362.91 1.72078 -0.906601 0
M  V30 14047 O 1362.16 1.95518 0.0843233 0
M  V30 14048 C 1362.46 1.30206 -3.32838 0
M  V30 14049 C 1362.13 0.359876 -4.49462 0
M  V30 14050 C 1360.79 0.100552 -4.81095 0
M  V30 14051 C 1363.14 -0.287048 -5.20409 0
M  V30 14052 C 1360.47 -0.813484 -5.81033 0
M  V30 14053 C 1362.82 -1.18914 -6.21323 0
M  V30 14054 C 1361.48 -1.45735 -6.51397 0
M  V30 14055 H 1360.75 0.237238 -0.701997 0
M  V30 14056 H 1363.4 -0.0920804 -1.91278 0
M  V30 14057 H 1361.71 2.11724 -3.29667 0
M  V30 14058 H 1363.4 1.83356 -3.56625 0
M  V30 14059 H 1359.99 0.572172 -4.24764 0
M  V30 14060 H 1364.18 -0.0997611 -4.962 0
M  V30 14061 H 1359.43 -1.02897 -6.02679 0
M  V30 14062 H 1363.61 -1.69661 -6.75417 0
M  V30 14063 H 1361.23 -2.16727 -7.28652 0
M  V30 14064 N 1362.81 1.55714 0.243056 0
M  V30 14065 C 1363.77 1.89832 1.28438 0
M  V30 14066 C 1364.77 0.775083 1.40887 0
M  V30 14067 O 1365.96 1.04304 1.39521 0
M  V30 14068 C 1363.09 2.13016 2.66153 0
M  V30 14069 H 1364.29 2.82947 0.994022 0
M  V30 14070 H 1361.84 1.48665 0.482521 0
M  V30 14071 H 1362.57 1.22381 3.00322 0
M  V30 14072 H 1362.36 2.94824 2.58498 0
M  V30 14073 H 1363.85 2.40581 3.41336 0
M  V30 14074 N 1364.29 -0.50888 1.49158 0
M  V30 14075 C 1365.56 -1.27021 1.48745 0
M  V30 14076 C 1365.94 -2.10045 0.210772 0
M  V30 14077 O 1365.29 -2.13773 -0.807061 0
M  V30 14078 C 1365.5 -2.13367 2.76181 0
M  V30 14079 C 1366.85 -2.72815 3.25357 0
M  V30 14080 O 1367.87 -2.23639 2.77243 0
M  V30 14081 O 1366.73 -3.62316 4.09133 0
M  V30 14082 H 1363.83 -0.574387 0.594986 0
M  V30 14083 H 1366.37 -0.523798 1.61414 0
M  V30 14084 H 1365.14 -1.51941 3.60596 0
M  V30 14085 H 1364.77 -2.95215 2.66334 0
M  V30 14086 N 1365.76 -1.381 -0.759346 0
M  V30 14087 C 1366.67 -1.37086 -1.9038 0
M  V30 14088 C 1367.69 -0.268738 -1.71912 0
M  V30 14089 O 1368.87 -0.506205 -1.94935 0
M  V30 14090 C 1365.93 -1.18905 -3.25672 0
M  V30 14091 C 1364.99 -2.3887 -3.56707 0
M  V30 14092 C 1364.23 -2.21546 -4.85544 0
M  V30 14093 O 1364.45 -1.20616 -5.57501 0
M  V30 14094 O 1363.38 -3.10009 -5.15924 0
M  V30 14095 H 1367.21 -2.33505 -1.94188 0
M  V30 14096 H 1364.79 -1.18959 -0.903826 0
M  V30 14097 H 1366.68 -1.10803 -4.06572 0
M  V30 14098 H 1365.35 -0.255675 -3.22689 0
M  V30 14099 H 1364.26 -2.52546 -2.75992 0
M  V30 14100 H 1365.59 -3.30817 -3.64446 0
M  V30 14101 N 1367.24 0.986894 -1.22875 0
M  V30 14102 C 1368.52 1.70121 -0.965311 0
M  V30 14103 C 1368.9 2.04648 0.517924 0
M  V30 14104 O 1368.25 1.73453 1.48749 0
M  V30 14105 C 1368.46 2.94738 -1.86897 0
M  V30 14106 C 1369.81 3.6739 -2.12861 0
M  V30 14107 O 1370.83 3.04758 -1.84394 0
M  V30 14108 O 1369.69 4.8009 -2.61106 0
M  V30 14109 H 1366.78 0.742817 -0.363527 0
M  V30 14110 H 1369.33 1.0427 -1.33887 0
M  V30 14111 H 1368.1 2.65771 -2.87196 0
M  V30 14112 H 1367.72 3.68327 -1.49736 0
M  V30 14113 N 1368.72 1.0394 1.18466 0
M  V30 14114 C 1369.95 0.761926 1.92897 0
M  V30 14115 C 1370.37 -0.674618 1.75586 0
M  V30 14116 O 1369.73 -1.46711 1.06515 0
M  V30 14117 C 1369.78 1.13152 3.42387 0
M  V30 14118 O 1368.88 0.256266 4.11603 0
M  V30 14119 H 1368.22 0.280527 0.601831 0
M  V30 14120 H 1370.75 1.3889 1.50235 0
M  V30 14121 H 1370.76 1.0929 3.9309 0
M  V30 14122 H 1369.44 2.17804 3.54308 0
M  V30 14123 H 1368.01 0.354392 3.71212 0
M  V30 14124 N 1370.2 -1.34667 0.818693 0
M  V30 14125 C 1371.48 -1.92838 0.327521 0
M  V30 14126 C 1371.86 -1.74732 -1.18457 0
M  V30 14127 O 1371.2 -1.12352 -1.98971 0
M  V30 14128 C 1371.41 -3.40797 0.752207 0
M  V30 14129 C 1372.76 -4.17948 0.748613 0
M  V30 14130 O 1373.79 -3.49364 0.694517 0
M  V30 14131 O 1372.64 -5.40344 0.817958 0
M  V30 14132 H 1369.74 -0.822249 0.0885148 0
M  V30 14133 H 1372.28 -1.43668 0.9032 0
M  V30 14134 H 1371.06 -3.47759 1.79387 0
M  V30 14135 H 1370.68 -3.97309 0.151992 0
M  V30 14136 N 1371.68 -0.573274 -1.46804 0
M  V30 14137 C 1372.92 -0.0552613 -2.02425 0
M  V30 14138 C 1373.25 1.30098 -1.44585 0
M  V30 14139 O 1372.51 1.86366 -0.597166 0
M  V30 14140 C 1372.81 0.0704285 -3.57331 0
M  V30 14141 C 1372.47 -1.217 -4.34166 0
M  V30 14142 C 1371.13 -1.56973 -4.54877 0
M  V30 14143 C 1373.49 -2.06939 -4.78357 0
M  V30 14144 C 1370.81 -2.77302 -5.1703 0
M  V30 14145 C 1373.17 -3.26486 -5.41839 0
M  V30 14146 C 1371.83 -3.62053 -5.6078 0
M  V30 14147 H 1371.1 -0.0202215 -0.740724 0
M  V30 14148 H 1373.75 -0.748016 -1.76287 0
M  V30 14149 H 1372.05 0.846254 -3.82552 0
M  V30 14150 H 1373.75 0.486841 -3.98034 0
M  V30 14151 H 1370.34 -0.932374 -4.18336 0
M  V30 14152 H 1374.52 -1.80992 -4.62121 0
M  V30 14153 H 1369.78 -3.05008 -5.29887 0
M  V30 14154 H 1373.95 -3.92811 -5.75042 0
M  V30 14155 H 1371.58 -4.55385 -6.08711 0
M  V30 14156 N 1373.15 1.5451 -0.310553 0
M  V30 14157 C 1374.12 2.2254 0.548489 0
M  V30 14158 C 1375.12 1.21456 1.05381 0
M  V30 14159 O 1376.31 1.46126 0.948311 0
M  V30 14160 C 1373.44 2.91927 1.76043 0
M  V30 14161 H 1374.63 2.99865 -0.0460306 0
M  V30 14162 H 1372.19 1.56179 -0.061487 0
M  V30 14163 H 1372.92 2.18706 2.39454 0
M  V30 14164 H 1372.71 3.66038 1.40564 0
M  V30 14165 H 1374.2 3.43797 2.37051 0
M  V30 14166 N 1374.63 0.0384594 1.57553 0
M  V30 14167 C 1375.88 -0.636879 1.91803 0
M  V30 14168 C 1376.2 -1.72128 0.916347 0
M  V30 14169 O 1375.47 -1.95858 -0.0407405 0
M  V30 14170 H 1374.05 -0.238237 0.707992 0
M  V30 14171 H 1376.71 0.0884651 1.94699 0
M  V30 14172 H 1375.81 -1.08364 2.92683 0
M  V30 14173 N 1376.11 -1.55841 -0.234795 0
M  V30 14174 C 1377.53 -1.48536 -0.583885 0
M  V30 14175 C 1377.73 -0.731018 -1.87772 0
M  V30 14176 O 1376.78 -0.265287 -2.51103 0
M  V30 14177 C 1378.1 -2.93017 -0.675389 0
M  V30 14178 C 1379.64 -3.03459 -0.766906 0
M  V30 14179 C 1380.12 -4.49272 -0.889868 0
M  V30 14180 N 1381.61 -4.5326 -0.95443 0
M  V30 14181 C 1382.35 -5.63346 -1.06905 0
M  V30 14182 N 1381.84 -6.83215 -1.14845 0
M  V30 14183 N 1383.63 -5.51169 -1.10315 0
M  V30 14184 H 1375.79 -2.0332 0.614405 0
M  V30 14185 H 1378.05 -0.923581 0.213779 0
M  V30 14186 H 1377.75 -3.51099 0.205493 0
M  V30 14187 H 1377.63 -3.4418 -1.54337 0
M  V30 14188 H 1380.02 -2.4545 -1.63823 0
M  V30 14189 H 1380.1 -2.55487 0.126472 0
M  V30 14190 H 1379.74 -5.07895 -0.0230489 0
M  V30 14191 H 1379.67 -4.94937 -1.79847 0
M  V30 14192 H 1382.16 -3.6693 -0.903923 0
M  V30 14193 H 1382.47 -7.62863 -1.23532 0
M  V30 14194 H 1380.82 -6.85952 -1.11781 0
M  V30 14195 H 1384.01 -4.56453 -1.03769 0
M  V30 14196 H 1384.18 -6.36998 -1.18903 0
M  V30 14197 N 1377.59 0.500963 -1.49426 0
M  V30 14198 C 1378.84 1.25694 -1.5915 0
M  V30 14199 C 1379.17 1.92209 -0.277365 0
M  V30 14200 O 1378.44 1.8072 0.719065 0
M  V30 14201 C 1378.73 2.32391 -2.75076 0
M  V30 14202 C 1378.58 1.70377 -4.16283 0
M  V30 14203 C 1379.9 3.33952 -2.86643 0
M  V30 14204 H 1377.02 0.455631 -0.579283 0
M  V30 14205 H 1379.66 0.555099 -1.8171 0
M  V30 14206 H 1377.81 2.92252 -2.55971 0
M  V30 14207 H 1379.48 1.14343 -4.46904 0
M  V30 14208 H 1377.72 1.00789 -4.21929 0
M  V30 14209 H 1378.4 2.47767 -4.9327 0
M  V30 14210 H 1380.87 2.84081 -3.04035 0
M  V30 14211 H 1379.75 4.05969 -3.69433 0
M  V30 14212 H 1380.01 3.96279 -1.95998 0
M  V30 14213 N 1379.07 1.38501 0.752011 0
M  V30 14214 C 1380.31 1.34795 1.51118 0
M  V30 14215 C 1380.64 -0.0615084 1.94403 0
M  V30 14216 O 1379.9 -1.03892 1.65846 0
M  V30 14217 C 1380.2 2.25111 2.77596 0
M  V30 14218 C 1379.86 3.73052 2.53265 0
M  V30 14219 C 1378.52 4.13365 2.46339 0
M  V30 14220 C 1380.88 4.66692 2.32051 0
M  V30 14221 C 1378.2 5.45406 2.16216 0
M  V30 14222 C 1380.56 5.98992 2.03448 0
M  V30 14223 C 1379.22 6.38388 1.94979 0
M  V30 14224 H 1378.49 0.49325 0.552979 0
M  V30 14225 H 1381.14 1.70872 0.864588 0
M  V30 14226 H 1379.44 1.82096 3.46913 0
M  V30 14227 H 1381.14 2.19547 3.3556 0
M  V30 14228 H 1377.73 3.41091 2.59528 0
M  V30 14229 H 1381.91 4.36392 2.3638 0
M  V30 14230 H 1377.17 5.7487 2.08168 0
M  V30 14231 H 1381.34 6.71091 1.86037 0
M  V30 14232 H 1378.97 7.40625 1.71402 0
M  V30 14233 N 1380.55 -0.980364 1.23396 0
M  V30 14234 C 1381.79 -1.72421 1.06765 0
M  V30 14235 C 1382.12 -1.90151 -0.394515 0
M  V30 14236 O 1381.4 -1.4538 -1.29209 0
M  V30 14237 C 1381.68 -3.12246 1.79372 0
M  V30 14238 C 1381.54 -3.02087 3.33262 0
M  V30 14239 C 1382.85 -4.11667 1.55624 0
M  V30 14240 H 1379.97 -0.625822 0.389251 0
M  V30 14241 H 1382.62 -1.14132 1.51901 0
M  V30 14242 H 1380.77 -3.62008 1.41004 0
M  V30 14243 H 1382.44 -2.59848 3.81152 0
M  V30 14244 H 1380.68 -2.38592 3.62293 0
M  V30 14245 H 1381.35 -4.01087 3.79254 0
M  V30 14246 H 1383.83 -3.70712 1.88975 0
M  V30 14247 H 1382.7 -5.07593 2.08902 0
M  V30 14248 H 1382.96 -4.39358 0.491601 0
M  V30 14249 N 1382.02 -1.04567 -1.17913 0
M  V30 14250 C 1383.3 -0.666082 -1.8391 0
M  V30 14251 C 1383.68 0.854062 -1.93052 0
M  V30 14252 O 1383.03 1.75752 -1.46026 0
M  V30 14253 C 1383.24 -1.34776 -3.21926 0
M  V30 14254 C 1384.59 -1.48177 -3.97905 0
M  V30 14255 O 1385.61 -1.30627 -3.31384 0
M  V30 14256 O 1384.47 -1.76822 -5.17104 0
M  V30 14257 H 1381.56 -0.233694 -0.793294 0
M  V30 14258 H 1384.11 -1.14487 -1.25263 0
M  V30 14259 H 1382.88 -2.38514 -3.10204 0
M  V30 14260 H 1382.5 -0.857914 -3.88234 0
M  V30 14261 N 1383.5 1.34231 -0.825823 0
M  V30 14262 C 1384.45 2.31378 -0.23809 0
M  V30 14263 C 1385.44 1.57537 0.622767 0
M  V30 14264 O 1386.65 1.72512 0.513783 0
M  V30 14265 H 1383.02 0.74974 -0.0582516 0
M  V30 14266 H 1385 2.78471 -1.07221 0
M  V30 14267 C 1383.74 3.42778 0.582969 0
M  V30 14268 H 1383.07 3.99739 -0.0701208 0
M  V30 14269 H 1384.51 4.12983 0.960266 0
M  V30 14270 C 1382.97 2.87486 1.75651 0
M  V30 14271 O 1383.5 2.82603 2.85479 0
M  V30 14272 N 1381.7 2.4427 1.57418 0
M  V30 14273 H 1381.25 2.48441 0.680792 0
M  V30 14274 H 1381.21 2.07626 2.36091 0
M  V30 14275 N 1384.98 0.581051 1.46498 0
M  V30 14276 C 1386.23 0.0660934 2.02692 0
M  V30 14277 C 1386.56 -1.28985 1.45178 0
M  V30 14278 O 1385.83 -1.84479 0.616247 0
M  V30 14279 C 1386.12 -0.00145411 3.601 0
M  V30 14280 C 1385.97 1.38327 4.28002 0
M  V30 14281 C 1387.29 -0.702914 4.3445 0
M  V30 14282 H 1384.41 0.0254923 0.736559 0
M  V30 14283 H 1387.05 0.74793 1.7466 0
M  V30 14284 H 1385.2 -0.582118 3.84114 0
M  V30 14285 H 1386.87 2.00897 4.15257 0
M  V30 14286 H 1385.11 1.95144 3.87429 0
M  V30 14287 H 1385.79 1.28849 5.36751 0
M  V30 14288 H 1388.26 -0.209641 4.15572 0
M  V30 14289 H 1387.14 -0.719202 5.44168 0
M  V30 14290 H 1387.4 -1.76389 4.05388 0
M  V30 14291 N 1386.46 -1.54343 0.318742 0
M  V30 14292 C 1387.87 -1.59564 -0.034068 0
M  V30 14293 C 1388.07 -1.33539 -1.50896 0
M  V30 14294 O 1387.13 -1.11746 -2.26427 0
M  V30 14295 C 1388.44 -2.98291 0.379827 0
M  V30 14296 C 1389.99 -3.11255 0.330078 0
M  V30 14297 C 1390.47 -4.5232 0.719061 0
M  V30 14298 N 1391.96 -4.58295 0.67228 0
M  V30 14299 C 1392.69 -5.65551 0.945513 0
M  V30 14300 N 1392.19 -6.80767 1.28563 0
M  V30 14301 N 1393.98 -5.55305 0.871394 0
M  V30 14302 H 1386.13 -1.69518 1.27975 0
M  V30 14303 H 1388.39 -0.792627 0.520044 0
M  V30 14304 H 1388.1 -3.22319 1.40724 0
M  V30 14305 H 1387.97 -3.76319 -0.257606 0
M  V30 14306 H 1390.36 -2.86965 -0.688117 0
M  V30 14307 H 1390.44 -2.35342 1.00238 0
M  V30 14308 H 1390.09 -4.77342 1.73515 0
M  V30 14309 H 1390.02 -5.26594 0.0245001 0
M  V30 14310 H 1392.51 -3.75547 0.421059 0
M  V30 14311 H 1392.82 -7.58503 1.47963 0
M  V30 14312 H 1391.17 -6.82275 1.32385 0
M  V30 14313 H 1394.36 -4.64171 0.605205 0
M  V30 14314 H 1394.53 -6.38806 1.08769 0
M  V30 14315 N 1387.94 -0.0468143 -1.5753 0
M  V30 14316 C 1389.18 0.627939 -1.92518 0
M  V30 14317 C 1389.51 1.71107 -0.924801 0
M  V30 14318 O 1388.77 1.95597 0.0635812 0
M  V30 14319 C 1389.06 1.26669 -3.342 0
M  V30 14320 C 1388.73 0.312184 -4.49818 0
M  V30 14321 C 1387.39 0.0495202 -4.81175 0
M  V30 14322 C 1389.74 -0.342228 -5.20075 0
M  V30 14323 C 1387.07 -0.875064 -5.80137 0
M  V30 14324 C 1389.42 -1.25498 -6.20027 0
M  V30 14325 C 1388.09 -1.52636 -6.49814 0
M  V30 14326 H 1387.36 0.229779 -0.704473 0
M  V30 14327 H 1390.01 -0.112363 -1.9117 0
M  V30 14328 H 1388.31 2.08215 -3.31894 0
M  V30 14329 H 1390.01 1.79563 -3.5855 0
M  V30 14330 H 1386.6 0.527088 -4.25347 0
M  V30 14331 H 1390.78 -0.152384 -4.96066 0
M  V30 14332 H 1386.04 -1.09284 -6.01554 0
M  V30 14333 H 1390.21 -1.76815 -6.7358 0
M  V30 14334 H 1387.84 -2.24443 -7.26312 0
M  V30 14335 N 1389.41 1.55964 0.226527 0
M  V30 14336 C 1390.32 1.95169 1.30178 0
M  V30 14337 C 1391.34 0.854831 1.51554 0
M  V30 14338 O 1392.52 1.15798 1.64781 0
M  V30 14339 C 1389.58 2.25612 2.63249 0
M  V30 14340 C 1388.64 3.4884 2.50219 0
M  V30 14341 C 1387.88 3.77822 3.76944 0
M  V30 14342 O 1388.1 3.08556 4.79739 0
M  V30 14343 O 1387.03 4.7132 3.74354 0
M  V30 14344 H 1390.86 2.86794 0.999145 0
M  V30 14345 H 1388.44 1.43109 0.42898 0
M  V30 14346 H 1390.33 2.4641 3.41848 0
M  V30 14347 H 1389 1.37162 2.93203 0
M  V30 14348 H 1387.91 3.33326 1.69836 0
M  V30 14349 H 1389.24 4.37657 2.25205 0
M  V30 14350 O 1390.93 -0.372017 1.57157 0
M  V30 14351 H 1391.62 -1.02306 1.64479 0
M  V30 END ATOM
M  V30 BEGIN BOND
M  V30 END BOND
M  V30 END CTAB
M  END
$$$$
