drugbank_target|P19438 Tumor necrosis factor receptor superfamily member 1A (DB03507; DB11626)
 OpenBabel12092119483D

  0  0  0     0  0            999 V3000
M  V30 BEGIN CTAB
M  V30 COUNTS 7019 7102 0 0 0
M  V30 BEGIN ATOM
M  V30 1 H -0.908 1.98254 -0.117106 0
M  V30 2 N 0 1.576 0 0
M  V30 3 C 0.933 2.03868 1.02534 0
M  V30 4 C 1.911 0.928543 1.3348 0
M  V30 5 O 3.095 1.19667 1.45644 0
M  V30 6 C 0.222 2.43627 2.35294 0
M  V30 7 C -0.732 3.65373 2.2001 0
M  V30 8 S 0.101 5.13292 1.52614 0
M  V30 9 C 1.257 5.56322 2.86805 0
M  V30 10 H 1.49 2.90518 0.631377 0
M  V30 11 H -0.977 1.52953 0.210867 0
M  V30 12 H 0.981 2.67203 3.11629 0
M  V30 13 H -0.358 1.57376 2.7183 0
M  V30 14 H -1.165 3.90944 3.18086 0
M  V30 15 H -1.563 3.418 1.51819 0
M  V30 16 H 0.729 5.58782 3.83104 0
M  V30 17 H 1.672 6.56266 2.65933 0
M  V30 18 H 2.08 4.83886 2.90714 0
M  V30 19 N 1.4781 -0.272755 1.55222 0
M  V30 20 C 2.7261 -1.00234 1.75492 0
M  V30 21 C 3.0471 -1.8681 0.5592 0
M  V30 22 O 2.3171 -1.91215 -0.425882 0
M  V30 23 H 0.8971 -0.373076 0.647166 0
M  V30 24 H 3.5591 -0.296926 1.92625 0
M  V30 25 H 2.6551 -1.63913 2.65592 0
M  V30 26 N 2.9562 -1.48159 -0.537278 0
M  V30 27 C 3.8862 -1.65029 -1.6519 0
M  V30 28 C 4.8672 -0.499281 -1.62607 0
M  V30 29 O 6.0522 -0.730972 -1.79918 0
M  V30 30 C 3.1822 -1.68303 -3.03795 0
M  V30 31 C 2.1362 -2.8283 -3.21234 0
M  V30 32 C 1.4622 -2.71189 -4.60826 0
M  V30 33 C 2.7622 -4.24211 -3.04701 0
M  V30 34 H 4.4562 -2.58341 -1.51328 0
M  V30 35 H 2.0022 -1.24325 -0.726585 0
M  V30 36 H 3.9552 -1.78693 -3.81637 0
M  V30 37 H 2.6792 -0.715635 -3.18663 0
M  V30 38 H 1.3382 -2.71983 -2.45807 0
M  V30 39 H 0.9862 -1.72435 -4.7252 0
M  V30 40 H 0.6862 -3.48035 -4.7344 0
M  V30 41 H 2.2102 -2.83537 -5.40777 0
M  V30 42 H 3.6242 -4.3593 -3.72341 0
M  V30 43 H 2.0212 -5.01998 -3.28813 0
M  V30 44 H 3.0912 -4.41184 -2.01209 0
M  V30 45 N 4.4343 0.785586 -1.36625 0
M  V30 46 C 5.6593 1.57963 -1.34397 0
M  V30 47 C 6.0843 1.87964 0.071526 0
M  V30 48 O 5.4423 1.48182 1.0446 0
M  V30 49 C 5.4903 2.87511 -2.17646 0
M  V30 50 O 4.5943 3.81281 -1.57158 0
M  V30 51 H 3.9353 0.479014 -0.459828 0
M  V30 52 H 6.4653 0.973411 -1.79961 0
M  V30 53 H 6.4753 3.36745 -2.30362 0
M  V30 54 H 5.1503 2.65002 -3.20541 0
M  V30 55 H 3.7273 3.39885 -1.53403 0
M  V30 56 N 5.9124 1.20967 1.01018 0
M  V30 57 C 7.1404 1.04956 1.78303 0
M  V30 58 C 7.5554 -0.400915 1.84494 0
M  V30 59 O 6.9124 -1.27826 1.30257 0
M  V30 60 C 6.9634 1.63403 3.22462 0
M  V30 61 O 6.6844 3.02775 3.16637 0
M  V30 62 C 8.1854 1.52432 4.16268 0
M  V30 63 H 5.4054 0.368858 0.560522 0
M  V30 64 H 7.9494 1.60193 1.27116 0
M  V30 65 H 6.1044 1.1227 3.70775 0
M  V30 66 H 6.5184 3.30626 4.07169 0
M  V30 67 H 7.9924 1.98078 5.15237 0
M  V30 68 H 8.4694 0.477875 4.36592 0
M  V30 69 H 9.0754 2.02787 3.73841 0
M  V30 70 N 7.3905 -1.2043 1.01659 0
M  V30 71 C 8.6365 -1.90079 0.706963 0
M  V30 72 C 8.9695 -1.78648 -0.761474 0
M  V30 73 O 8.2445 -1.17069 -1.55323 0
M  V30 74 C 8.5275 -3.41469 1.14327 0
M  V30 75 C 8.3805 -3.61833 2.67201 0
M  V30 76 C 9.6995 -4.34261 0.714529 0
M  V30 77 H 6.8185 -0.690254 0.2583 0
M  V30 78 H 9.4605 -1.41826 1.26433 0
M  V30 79 H 7.6105 -3.82696 0.669056 0
M  V30 80 H 9.2825 -3.2986 3.22475 0
M  V30 81 H 7.5255 -3.05304 3.08175 0
M  V30 82 H 8.1965 -4.67955 2.92783 0
M  V30 83 H 10.6725 -4.00682 1.12221 0
M  V30 84 H 9.5485 -5.38806 1.04784 0
M  V30 85 H 9.8095 -4.40431 -0.383799 0
M  V30 86 N 8.8686 -0.792821 -1.36206 0
M  V30 87 C 10.2796 -0.429513 -1.81692 0
M  V30 88 C 10.6306 1.04695 -1.65932 0
M  V30 89 O 9.7556 1.81256 -1.18218 0
M  V30 90 C 10.3506 -0.772831 -3.29868 0
M  V30 91 C 8.9096 -0.462307 -3.7355 0
M  V30 92 C 8.0566 -1.00569 -2.5842 0
M  V30 93 H 11.0076 -0.985672 -1.24379 0
M  V30 94 H 11.0286 -0.0651928 -3.80444 0
M  V30 95 H 10.5406 -1.84747 -3.41307 0
M  V30 96 H 8.6416 0.604158 -3.67669 0
M  V30 97 H 8.7546 -0.985299 -4.68859 0
M  V30 98 H 7.1186 -0.428734 -2.51066 0
M  V30 99 H 7.9016 -2.08616 -2.72643 0
M  V30 100 N 10.3467 1.47872 -0.545128 0
M  V30 101 C 11.6237 1.9554 0.0485222 0
M  V30 102 C 12.0037 1.4876 1.49779 0
M  V30 103 O 11.3517 0.720925 2.16829 0
M  V30 104 C 11.5617 3.48898 -0.084417 0
M  V30 105 C 12.9097 4.24547 0.0671239 0
M  V30 106 O 13.9337 3.56198 -0.0113649 0
M  V30 107 O 12.7927 5.45999 0.233882 0
M  V30 108 H 9.8867 0.823957 0.0708773 0
M  V30 109 H 12.4327 1.58327 -0.610798 0
M  V30 110 H 11.2047 3.75714 -1.09337 0
M  V30 111 H 10.8277 3.92845 0.613066 0
M  V30 112 N 11.8248 0.280983 1.55075 0
M  V30 113 C 12.7548 -0.597469 2.25727 0
M  V30 114 C 13.7358 -1.15417 1.24952 0
M  V30 115 O 14.9208 -1.18722 1.53684 0
M  V30 116 C 12.0508 -1.7789 2.98283 0
M  V30 117 C 11.0048 -1.35347 4.06036 0
M  V30 118 C 10.3308 -2.61846 4.66198 0
M  V30 119 C 11.6308 -0.499354 5.19907 0
M  V30 120 H 13.3248 -0.00824265 2.99399 0
M  V30 121 H 10.8708 -0.0025244 1.44 0
M  V30 122 H 12.8238 -2.39937 3.46422 0
M  V30 123 H 11.5478 -2.39405 2.22155 0
M  V30 124 H 10.2068 -0.756156 3.58717 0
M  V30 125 H 9.8548 -3.21632 3.86732 0
M  V30 126 H 9.5548 -2.3409 5.38958 0
M  V30 127 H 11.0788 -3.24732 5.1709 0
M  V30 128 H 12.4928 -1.02498 5.64063 0
M  V30 129 H 10.8898 -0.316424 5.99265 0
M  V30 130 H 11.9598 0.480459 4.82514 0
M  V30 131 N 13.3029 -1.57598 0.00835791 0
M  V30 132 C 14.2329 -2.1198 -0.979113 0
M  V30 133 C 15.2139 -1.03091 -1.35301 0
M  V30 134 O 16.3989 -1.30818 -1.43528 0
M  V30 135 C 13.5289 -2.62995 -2.26828 0
M  V30 136 C 12.4829 -3.76485 -2.03576 0
M  V30 137 C 11.8089 -4.13846 -3.38579 0
M  V30 138 C 13.1089 -5.0342 -1.39161 0
M  V30 139 H 14.8029 -2.94738 -0.526281 0
M  V30 140 H 12.3489 -1.41783 -0.251704 0
M  V30 141 H 14.3019 -2.99669 -2.96271 0
M  V30 142 H 13.0259 -1.7737 -2.7424 0
M  V30 143 H 11.6849 -3.40217 -1.36557 0
M  V30 144 H 11.3329 -3.25232 -3.83709 0
M  V30 145 H 11.0329 -4.90312 -3.23834 0
M  V30 146 H 12.5569 -4.53086 -4.09323 0
M  V30 147 H 13.9709 -5.37812 -1.98573 0
M  V30 148 H 12.3679 -5.84746 -1.34878 0
M  V30 149 H 13.4379 -4.83548 -0.361868 0
M  V30 150 N 14.781 0.264519 -1.55364 0
M  V30 151 C 15.711 1.33121 -1.91836 0
M  V30 152 C 16.692 1.51101 -0.781192 0
M  V30 153 O 17.877 1.64003 -1.04003 0
M  V30 154 C 15.007 2.68921 -2.19769 0
M  V30 155 C 13.961 2.65661 -3.35571 0
M  V30 156 C 13.287 4.05093 -3.49004 0
M  V30 157 C 14.587 2.24187 -4.71739 0
M  V30 158 H 16.281 1.02844 -2.81182 0
M  V30 159 H 13.827 0.493286 -1.35287 0
M  V30 160 H 15.78 3.43663 -2.43872 0
M  V30 161 H 14.504 3.00799 -1.27231 0
M  V30 162 H 13.163 1.93377 -3.1145 0
M  V30 163 H 12.811 4.34206 -2.53917 0
M  V30 164 H 12.511 4.03804 -4.26868 0
M  V30 165 H 14.035 4.81561 -3.75408 0
M  V30 166 H 15.449 2.88654 -4.9533 0
M  V30 167 H 13.846 2.34044 -5.52579 0
M  V30 168 H 14.916 1.19327 -4.69988 0
M  V30 169 N 16.2591 1.48442 0.529413 0
M  V30 170 C 17.6701 1.5002 1.11134 0
M  V30 171 C 18.0211 0.27031 1.94329 0
M  V30 172 O 17.1461 -0.622507 2.07253 0
M  V30 173 C 17.7411 2.71834 2.02217 0
M  V30 174 C 16.3001 2.76283 2.55627 0
M  V30 175 C 15.4471 2.43542 1.326 0
M  V30 176 H 18.3981 1.5555 0.314641 0
M  V30 177 H 18.4191 2.50384 2.8651 0
M  V30 178 H 17.9311 3.61331 1.41639 0
M  V30 179 H 16.0321 1.90995 3.19924 0
M  V30 180 H 16.1451 3.77725 2.94721 0
M  V30 181 H 14.5091 1.94709 1.64196 0
M  V30 182 H 15.2921 3.3528 0.737734 0
M  V30 183 N 17.7372 -0.778329 1.37039 0
M  V30 184 C 18.6672 -1.90546 1.34962 0
M  V30 185 C 19.6482 -1.68681 0.219274 0
M  V30 186 O 20.8332 -1.89634 0.418624 0
M  V30 187 C 17.9632 -3.27734 1.14925 0
M  V30 188 C 16.9172 -3.64147 2.24902 0
M  V30 189 C 16.2432 -4.99806 1.89996 0
M  V30 190 C 17.5432 -3.71579 3.67051 0
M  V30 191 H 19.2372 -1.92541 2.29277 0
M  V30 192 H 16.7832 -0.924948 1.10366 0
M  V30 193 H 18.7362 -4.06215 1.12104 0
M  V30 194 H 17.4602 -3.26154 0.170631 0
M  V30 195 H 16.1192 -2.8797 2.26868 0
M  V30 196 H 15.7672 -4.94759 0.906796 0
M  V30 197 H 15.4672 -5.25139 2.63634 0
M  V30 198 H 16.9912 -5.80694 1.88749 0
M  V30 199 H 18.4052 -4.40227 3.67251 0
M  V30 200 H 16.8022 -4.08405 4.39688 0
M  V30 201 H 17.8722 -2.72404 4.01154 0
M  V30 202 N 19.2153 -1.21501 -1.00376 0
M  V30 203 C 20.4613 -1.03452 -1.74429 0
M  V30 204 C 20.7943 0.430764 -1.89362 0
M  V30 205 O 20.0693 1.31962 -1.42886 0
M  V30 206 C 20.3523 -1.73375 -3.15615 0
M  V30 207 C 20.2053 -3.27431 -3.08397 0
M  V30 208 C 21.5243 -1.47732 -4.14564 0
M  V30 209 H 18.6433 -0.377226 -0.633143 0
M  V30 210 H 21.2853 -1.49693 -1.17013 0
M  V30 211 H 19.4353 -1.34064 -3.64636 0
M  V30 212 H 21.1073 -3.76119 -2.67081 0
M  V30 213 H 19.3503 -3.5767 -2.45468 0
M  V30 214 H 20.0213 -3.71524 -4.08258 0
M  V30 215 H 22.4973 -1.8186 -3.74254 0
M  V30 216 H 21.3733 -1.99169 -5.11491 0
M  V30 217 H 21.6343 -0.407589 -4.40217 0
M  V30 218 N 20.6934 1.19889 -1.02296 0
M  V30 219 C 21.6234 2.25141 -0.619174 0
M  V30 220 C 22.6044 1.66051 0.368915 0
M  V30 221 O 23.7894 1.92546 0.252941 0
M  V30 222 C 20.9194 3.4728 0.0368783 0
M  V30 223 C 19.8734 4.19005 -0.872865 0
M  V30 224 C 19.1994 5.34637 -0.0822402 0
M  V30 225 C 20.4994 4.74452 -2.18387 0
M  V30 226 H 22.1934 2.59171 -1.49903 0
M  V30 227 H 19.7394 1.24579 -0.722222 0
M  V30 228 H 21.6924 4.20098 0.330958 0
M  V30 229 H 20.4164 3.12433 0.95149 0
M  V30 230 H 19.0754 3.48061 -1.15105 0
M  V30 231 H 18.7234 4.96034 0.83422 0
M  V30 232 H 18.4234 5.83557 -0.688149 0
M  V30 233 H 19.9474 6.10255 0.205238 0
M  V30 234 H 21.3614 5.39055 -1.95172 0
M  V30 235 H 19.7584 5.33834 -2.74119 0
M  V30 236 H 20.8284 3.92844 -2.84257 0
M  V30 237 N 22.1715 0.800033 1.35784 0
M  V30 238 C 23.1015 0.220184 2.3246 0
M  V30 239 C 24.0825 -0.65073 1.57161 0
M  V30 240 O 25.2675 -0.582359 1.85263 0
M  V30 241 C 22.3975 -0.637353 3.41402 0
M  V30 242 C 21.3515 0.134531 4.27789 0
M  V30 243 C 20.6775 -0.844285 5.27992 0
M  V30 244 C 21.9775 1.32979 5.05088 0
M  V30 245 H 23.6715 1.02787 2.81203 0
M  V30 246 H 21.2175 0.495717 1.35199 0
M  V30 247 H 23.1705 -1.05302 4.08031 0
M  V30 248 H 21.8945 -1.47785 2.91251 0
M  V30 249 H 20.5535 0.531296 3.6273 0
M  V30 250 H 20.2015 -1.68011 4.74111 0
M  V30 251 H 19.9015 -0.332184 5.8666 0
M  V30 252 H 21.4255 -1.2583 5.97494 0
M  V30 253 H 22.8395 0.98934 5.64699 0
M  V30 254 H 21.2365 1.77593 5.7322 0
M  V30 255 H 22.3065 2.11978 4.36111 0
M  V30 256 N 23.6496 -1.47581 0.552962 0
M  V30 257 C 24.5596 -2.33743 -0.200353 0
M  V30 258 C 25.5756 -1.47928 -0.916151 0
M  V30 259 O 26.7516 -1.80865 -0.885993 0
M  V30 260 C 23.8166 -3.24536 -1.21973 0
M  V30 261 C 22.8776 -4.26238 -0.511819 0
M  V30 262 C 22.1106 -5.12693 -1.48263 0
M  V30 263 O 22.3336 -5.01525 -2.71714 0
M  V30 264 O 21.2676 -5.93375 -1.00945 0
M  V30 265 H 25.0936 -2.9945 0.506304 0
M  V30 266 H 22.6786 -1.46071 0.313622 0
M  V30 267 H 24.5606 -3.80631 -1.80827 0
M  V30 268 H 23.2356 -2.61462 -1.90839 0
M  V30 269 H 22.1426 -3.73914 0.117799 0
M  V30 270 H 23.4756 -4.92014 0.135308 0
M  V30 271 N 25.1277 -0.289203 -1.54924 0
M  V30 272 C 26.0577 0.58549 -2.2604 0
M  V30 273 C 27.0387 1.14753 -1.25562 0
M  V30 274 O 28.2237 1.17906 -1.54311 0
M  V30 275 C 25.3537 1.76305 -2.99222 0
M  V30 276 C 24.3077 1.33191 -4.06748 0
M  V30 277 C 23.6337 2.5937 -4.6758 0
M  V30 278 C 24.9337 0.471775 -5.20165 0
M  V30 279 H 26.6277 -0.00763532 -2.99399 0
M  V30 280 H 24.1737 -0.00511229 -1.43999 0
M  V30 281 H 26.1267 2.38097 -3.47689 0
M  V30 282 H 24.8507 2.38223 -2.23422 0
M  V30 283 H 23.5097 0.737121 -3.59113 0
M  V30 284 H 23.1577 3.19576 -3.88433 0
M  V30 285 H 22.8577 2.31228 -5.40192 0
M  V30 286 H 24.3817 3.21985 -5.18804 0
M  V30 287 H 25.7957 0.995056 -5.64599 0
M  V30 288 H 24.1927 0.284639 -5.99425 0
M  V30 289 H 25.2627 -0.506041 -4.82252 0
M  V30 290 N 26.6058 1.57591 -0.0167156 0
M  V30 291 C 27.5358 2.12496 0.967858 0
M  V30 292 C 28.5168 1.03807 1.34752 0
M  V30 293 O 29.7018 1.31577 1.42833 0
M  V30 294 C 26.8318 2.64194 2.25431 0
M  V30 295 C 25.7858 3.77559 2.01576 0
M  V30 296 C 25.1118 4.15636 3.36379 0
M  V30 297 C 26.4118 5.04151 1.36489 0
M  V30 298 H 28.1058 2.95013 0.510643 0
M  V30 299 H 25.6518 1.41915 0.244181 0
M  V30 300 H 27.6048 3.01236 2.94678 0
M  V30 301 H 26.3288 1.78821 2.73296 0
M  V30 302 H 24.9878 3.40937 1.34751 0
M  V30 303 H 24.6358 3.27263 3.81979 0
M  V30 304 H 24.3358 4.92022 3.21229 0
M  V30 305 H 25.8598 4.5525 4.06915 0
M  V30 306 H 27.2738 5.38857 1.95718 0
M  V30 307 H 25.6708 5.85453 1.31776 0
M  V30 308 H 26.7408 4.83733 0.336219 0
M  V30 309 N 28.0839 -0.256276 1.55502 0
M  V30 310 C 29.3299 -0.987079 1.77157 0
M  V30 311 C 29.6629 -1.85327 0.580315 0
M  V30 312 O 28.9379 -1.89874 -0.421686 0
M  V30 313 C 29.2209 -1.85553 3.08613 0
M  V30 314 C 29.0739 -1.01816 4.38125 0
M  V30 315 C 30.3929 -2.8397 3.36228 0
M  V30 316 H 27.5119 -0.357428 0.644526 0
M  V30 317 H 30.1539 -0.258239 1.88237 0
M  V30 318 H 28.3039 -2.47695 2.99298 0
M  V30 319 H 29.9759 -0.416159 4.59419 0
M  V30 320 H 28.2189 -0.322178 4.32602 0
M  V30 321 H 28.8899 -1.65939 5.26468 0
M  V30 322 H 31.3659 -2.31964 3.45445 0
M  V30 323 H 30.2419 -3.41864 4.29442 0
M  V30 324 H 30.5029 -3.59955 2.56681 0
M  V30 325 N 29.562 -1.4872 -0.521534 0
M  V30 326 C 30.81 -1.56857 -1.27437 0
M  V30 327 C 31.131 -0.247982 -1.93417 0
M  V30 328 O 30.401 0.731151 -1.81744 0
M  V30 329 H 28.981 -0.577885 -0.473347 0
M  V30 330 H 31.643 -1.85233 -0.606205 0
M  V30 331 H 30.739 -2.35402 -2.0492 0
M  V30 332 N 31.0401 0.771051 -1.3745 0
M  V30 333 C 32.2891 1.52491 -1.3202 0
M  V30 334 C 32.6021 1.9538 0.0927347 0
M  V30 335 O 33.8081 2.70159 0.269503 0
M  V30 336 C 32.2641 2.75366 -2.31736 0
M  V30 337 C 31.8721 2.39573 -3.78562 0
M  V30 338 C 33.6161 3.53307 -2.35318 0
M  V30 339 C 31.5231 3.58954 -4.70007 0
M  V30 340 H 30.4531 0.572506 -0.490666 0
M  V30 341 H 33.1041 0.844474 -1.62914 0
M  V30 342 H 31.4861 3.45303 -1.93861 0
M  V30 343 H 32.6601 1.77415 -4.25277 0
M  V30 344 H 30.9751 1.74805 -3.77932 0
M  V30 345 H 33.5721 4.42039 -3.00842 0
M  V30 346 H 33.9151 3.93217 -1.36698 0
M  V30 347 H 34.4481 2.90367 -2.71904 0
M  V30 348 H 31.1871 3.24125 -5.69757 0
M  V30 349 H 30.7071 4.20214 -4.27996 0
M  V30 350 H 32.3861 4.25758 -4.87175 0
M  V30 351 N 32.5182 1.22032 0.997298 0
M  V30 352 C 33.7482 1.06686 1.76923 0
M  V30 353 C 34.1562 -0.385838 1.85224 0
M  V30 354 O 33.4992 -1.27929 1.31833 0
M  V30 355 C 33.5612 1.59802 3.22031 0
M  V30 356 C 33.2252 3.08362 3.37286 0
M  V30 357 C 34.2222 4.05835 3.24952 0
M  V30 358 C 31.9072 3.47727 3.6248 0
M  V30 359 C 33.9012 5.4066 3.37588 0
M  V30 360 C 31.5882 4.82701 3.74757 0
M  V30 361 C 32.5862 5.78977 3.62319 0
M  V30 362 O 32.2742 7.11502 3.74193 0
M  V30 363 H 32.0062 0.374767 0.562606 0
M  V30 364 H 34.5602 1.61991 1.26286 0
M  V30 365 H 32.7902 0.989003 3.73839 0
M  V30 366 H 34.4792 1.40184 3.80924 0
M  V30 367 H 35.2452 3.76766 3.05405 0
M  V30 368 H 31.1242 2.73317 3.7124 0
M  V30 369 H 34.6682 6.15788 3.27796 0
M  V30 370 H 30.5652 5.11453 3.9381 0
M  V30 371 H 31.3332 7.19019 3.91093 0
M  V30 372 N 33.9963 -1.19345 1.0293 0
M  V30 373 C 35.4073 -1.70725 0.755633 0
M  V30 374 C 35.7583 -1.82326 -0.724676 0
M  V30 375 O 34.8833 -1.49471 -1.56484 0
M  V30 376 C 35.4783 -3.10084 1.36503 0
M  V30 377 C 34.0373 -3.58723 1.13994 0
M  V30 378 C 33.1843 -2.35577 1.46283 0
M  V30 379 H 36.1353 -1.0418 1.19718 0
M  V30 380 H 36.1563 -3.72787 0.762217 0
M  V30 381 H 35.6683 -3.01609 2.44241 0
M  V30 382 H 33.7693 -3.72512 0.0807901 0
M  V30 383 H 33.8823 -4.42816 1.82894 0
M  V30 384 H 32.2463 -2.38935 0.88217 0
M  V30 385 H 33.0293 -2.29731 2.55105 0
M  V30 386 N 35.4744 -0.807222 -1.35358 0
M  V30 387 C 36.6994 -0.399309 -2.0352 0
M  V30 388 C 37.1244 0.981986 -1.60433 0
M  V30 389 O 36.4824 1.63601 -0.781299 0
M  V30 390 C 36.5304 -0.491552 -3.57234 0
M  V30 391 O 35.6344 0.494754 -4.09421 0
M  V30 392 H 34.9754 -0.166682 -0.642739 0
M  V30 393 H 37.5054 -1.09328 -1.72941 0
M  V30 394 H 37.5154 -0.361588 -4.06395 0
M  V30 395 H 36.1904 -1.49907 -3.87944 0
M  V30 396 H 34.7674 0.324977 -3.71481 0
M  V30 397 N 36.9525 1.47285 -0.560781 0
M  V30 398 C 38.2005 2.02064 -0.0379868 0
M  V30 399 C 38.5215 1.43711 1.31803 0
M  V30 400 O 37.7915 0.61362 1.86042 0
M  V30 401 H 36.3715 0.746918 -0.0110531 0
M  V30 402 H 39.0335 1.80648 -0.731598 0
M  V30 403 H 38.1295 3.12064 0.0474463 0
M  V30 404 N 38.4306 0.297415 1.54768 0
M  V30 405 C 39.6766 -0.313376 2.00364 0
M  V30 406 C 40.0096 -1.53815 1.18553 0
M  V30 407 O 39.2846 -1.92739 0.261103 0
M  V30 408 C 39.5676 -0.673525 3.53745 0
M  V30 409 C 39.4206 0.560133 4.46299 0
M  V30 410 C 40.7396 -1.50143 4.13697 0
M  V30 411 H 37.8586 -0.112428 0.728374 0
M  V30 412 H 40.5006 0.4088 1.8555 0
M  V30 413 H 38.6506 -1.28881 3.665 0
M  V30 414 H 40.3226 1.19863 4.45455 0
M  V30 415 H 38.5656 1.19405 4.17043 0
M  V30 416 H 39.2366 0.26405 5.51368 0
M  V30 417 H 41.7126 -0.981588 4.04356 0
M  V30 418 H 40.5886 -1.72221 5.21182 0
M  V30 419 H 40.8496 -2.48952 3.65343 0
M  V30 420 N 39.9087 -1.5758 0.0250728 0
M  V30 421 C 41.1577 -1.90811 -0.653767 0
M  V30 422 C 41.4707 -0.90273 -1.73523 0
M  V30 423 O 42.6767 -1.12614 -2.47043 0
M  V30 424 C 41.1327 -3.38804 -1.21409 0
M  V30 425 C 40.7407 -4.47692 -0.166126 0
M  V30 426 C 42.4847 -3.81108 -1.86967 0
M  V30 427 C 40.3917 -5.86779 -0.737856 0
M  V30 428 H 39.3217 -0.712063 -0.247956 0
M  V30 429 H 41.9727 -1.83281 0.0897137 0
M  V30 430 H 40.3547 -3.41252 -2.00905 0
M  V30 431 H 41.5287 -4.56797 0.606079 0
M  V30 432 H 39.8437 -4.14565 0.390466 0
M  V30 433 H 42.4407 -4.82375 -2.30692 0
M  V30 434 H 42.7837 -3.15953 -2.71071 0
M  V30 435 H 43.3167 -3.81065 -1.14167 0
M  V30 436 H 40.0557 -6.55468 0.0649577 0
M  V30 437 H 39.5757 -5.81288 -1.47864 0
M  V30 438 H 41.2547 -6.35223 -1.22884 0
M  V30 439 N 41.3868 0.248026 -1.55636 0
M  V30 440 C 42.6348 0.974295 -1.77065 0
M  V30 441 C 42.9558 1.85897 -0.588849 0
M  V30 442 O 42.2258 1.91868 0.395407 0
M  V30 443 H 40.8058 0.362733 -0.653019 0
M  V30 444 H 43.4678 0.266244 -1.93073 0
M  V30 445 H 42.5638 1.59667 -2.68166 0
M  V30 446 N 42.8649 1.48995 0.513639 0
M  V30 447 C 43.7949 1.67636 1.62544 0
M  V30 448 C 44.7759 0.525087 1.61793 0
M  V30 449 O 45.9609 0.759502 1.78732 0
M  V30 450 C 43.0909 1.73114 3.01079 0
M  V30 451 C 42.0449 2.87905 3.16693 0
M  V30 452 C 41.3709 2.78486 4.56453 0
M  V30 453 C 42.6709 4.29005 2.97913 0
M  V30 454 H 44.3649 2.60716 1.47198 0
M  V30 455 H 41.9109 1.25465 0.706714 0
M  V30 456 H 43.8639 1.84742 3.78746 0
M  V30 457 H 42.5879 0.766241 3.17484 0
M  V30 458 H 41.2469 2.75859 2.41448 0
M  V30 459 H 40.8949 1.7993 4.69717 0
M  V30 460 H 40.5949 3.55523 4.67843 0
M  V30 461 H 42.1189 2.92104 5.36197 0
M  V30 462 H 43.5329 4.41798 3.65359 0
M  V30 463 H 41.9299 5.07166 3.20785 0
M  V30 464 H 42.9999 4.44329 1.94165 0
M  V30 465 N 44.343 -0.763751 1.37857 0
M  V30 466 C 45.589 -1.52483 1.33704 0
M  V30 467 C 45.922 -1.94051 -0.0759612 0
M  V30 468 O 45.197 -1.64675 -1.03501 0
M  V30 469 C 45.48 -2.78441 2.28348 0
M  V30 470 C 45.333 -2.43075 3.78463 0
M  V30 471 C 46.652 -3.80415 2.21298 0
M  V30 472 H 43.771 -0.553169 0.487005 0
M  V30 473 H 46.413 -0.875562 1.68624 0
M  V30 474 H 44.563 -3.33842 1.987 0
M  V30 475 H 46.235 -1.93527 4.18742 0
M  V30 476 H 44.478 -1.75666 3.96641 0
M  V30 477 H 45.149 -3.33149 4.40132 0
M  V30 478 H 47.625 -3.34527 2.47449 0
M  V30 479 H 46.501 -4.66257 2.89647 0
M  V30 480 H 46.762 -4.25262 1.20849 0
M  V30 481 N 45.8211 -1.22559 -0.990812 0
M  V30 482 C 47.2321 -1.04791 -1.54518 0
M  V30 483 C 47.5831 0.387998 -1.92325 0
M  V30 484 O 46.7081 1.27328 -1.74976 0
M  V30 485 C 47.3031 -1.896 -2.80779 0
M  V30 486 C 45.8621 -1.76124 -3.32652 0
M  V30 487 C 45.0091 -1.8594 -2.05722 0
M  V30 488 H 47.9601 -1.36374 -0.811662 0
M  V30 489 H 47.9811 -1.41464 -3.53225 0
M  V30 490 H 47.4931 -2.94101 -2.53231 0
M  V30 491 H 45.5941 -0.743643 -3.65104 0
M  V30 492 H 45.7071 -2.58913 -4.03114 0
M  V30 493 H 44.0711 -1.29403 -2.19379 0
M  V30 494 H 44.8541 -2.91976 -1.80568 0
M  V30 495 N 47.2992 1.18797 -1.03562 0
M  V30 496 C 48.2492 2.20161 -0.592724 0
M  V30 497 C 49.2332 1.56772 0.362133 0
M  V30 498 O 50.4252 1.76062 0.182009 0
M  V30 499 C 47.5542 3.43266 0.0481024 0
M  V30 500 C 46.6402 4.13786 -0.9296 0
M  V30 501 N 47.0312 4.60388 -2.09467 0
M  V30 502 C 45.3292 4.39572 -0.754499 0
M  V30 503 C 46.0302 5.14619 -2.71187 0
M  V30 504 N 45.0062 5.05826 -1.991 0
M  V30 505 H 48.8082 2.53877 -1.48066 0
M  V30 506 H 46.3222 1.34946 -0.903514 0
M  V30 507 H 48.3192 4.15136 0.383058 0
M  V30 508 H 46.9792 3.11048 0.931636 0
M  V30 509 H 47.9902 4.54999 -2.47379 0
M  V30 510 H 44.6672 4.17425 0.0793713 0
M  V30 511 H 46.0572 5.60917 -3.69895 0
M  V30 512 N 48.7773 0.814389 1.34928 0
M  V30 513 C 49.7073 0.244827 2.32213 0
M  V30 514 C 50.6883 -0.634024 1.57842 0
M  V30 515 O 51.8733 -0.562676 1.8587 0
M  V30 516 C 49.0033 -0.601106 3.42058 0
M  V30 517 C 47.9573 0.179896 4.27622 0
M  V30 518 C 47.2833 -0.788237 5.28858 0
M  V30 519 C 48.5833 1.38329 5.03649 0
M  V30 520 H 50.2773 1.05763 2.80097 0
M  V30 521 H 47.8233 0.510029 1.34665 0
M  V30 522 H 49.7763 -1.00968 4.09125 0
M  V30 523 H 48.5003 -1.44688 2.92802 0
M  V30 524 H 47.1593 0.569739 3.62146 0
M  V30 525 H 46.8073 -1.62973 4.75866 0
M  V30 526 H 46.5073 -0.269942 5.8698 0
M  V30 527 H 48.0313 -1.19485 5.98795 0
M  V30 528 H 49.4453 1.04918 5.63618 0
M  V30 529 H 47.8423 1.83662 5.71304 0
M  V30 530 H 48.9123 2.16592 4.33839 0
M  V30 531 N 50.2554 -1.46986 0.568584 0
M  V30 532 C 51.5034 -2.02041 0.0487022 0
M  V30 533 C 51.8244 -1.44408 -1.31039 0
M  V30 534 O 51.0944 -0.623477 -1.85714 0
M  V30 535 H 49.6744 -0.746849 0.015014 0
M  V30 536 H 52.3364 -1.80257 0.741168 0
M  V30 537 H 51.4324 -3.12085 -0.0308961 0
M  V30 538 N 51.7335 -0.305618 -1.54608 0
M  V30 539 C 53.0105 0.355652 -1.92339 0
M  V30 540 C 53.3905 1.71324 -1.23335 0
M  V30 541 O 52.7385 2.25473 -0.370702 0
M  V30 542 C 52.9485 0.46572 -3.45879 0
M  V30 543 C 54.2965 0.734426 -4.182 0
M  V30 544 O 55.3205 0.54935 -3.51938 0
M  V30 545 O 54.1795 1.09024 -5.35515 0
M  V30 546 H 51.2735 0.199666 -0.802535 0
M  V30 547 H 53.8195 -0.354017 -1.65966 0
M  V30 548 H 52.5915 -0.488461 -3.88239 0
M  V30 549 H 52.2145 1.22367 -3.78301 0
M  V30 550 N 53.2116 1.57565 -0.0334293 0
M  V30 551 C 54.6276 1.56297 0.322997 0
M  V30 552 C 54.8276 1.03945 1.7262 0
M  V30 553 O 53.8836 0.688109 2.42943 0
M  V30 554 C 55.1966 3.00232 0.167664 0
M  V30 555 C 56.7446 3.12078 0.240107 0
M  V30 556 C 57.2196 4.57859 0.113513 0
M  V30 557 N 58.7106 4.62887 0.170359 0
M  V30 558 C 59.4456 5.73319 0.0962517 0
M  V30 559 N 58.9416 6.92794 -0.0291881 0
M  V30 560 N 60.7346 5.61898 0.150551 0
M  V30 561 H 52.8856 1.89923 -0.950956 0
M  V30 562 H 55.1486 0.873824 -0.367608 0
M  V30 563 H 54.8546 3.42501 -0.799102 0
M  V30 564 H 54.7286 3.654 0.936083 0
M  V30 565 H 57.1156 2.69718 1.19733 0
M  V30 566 H 57.1966 2.49623 -0.558763 0
M  V30 567 H 56.8406 5.009 -0.840314 0
M  V30 568 H 56.7706 5.18299 0.931302 0
M  V30 569 H 59.2616 3.76954 0.26728 0
M  V30 570 H 59.5746 7.7276 -0.0789252 0
M  V30 571 H 57.9196 6.94971 -0.0640299 0
M  V30 572 H 61.1106 4.67448 0.246981 0
M  V30 573 H 61.2836 6.47938 0.0893365 0
M  V30 574 N 54.6897 -0.239769 1.55765 0
M  V30 575 C 55.5997 -1.31831 1.94056 0
M  V30 576 C 56.6157 -1.52275 0.841925 0
M  V30 577 O 57.7917 -1.65759 1.14394 0
M  V30 578 C 54.8567 -2.65156 2.23368 0
M  V30 579 C 53.9177 -2.53173 3.46701 0
M  V30 580 C 53.1507 -3.8014 3.74606 0
M  V30 581 O 53.3737 -4.82343 3.04469 0
M  V30 582 O 52.3077 -3.78344 4.68123 0
M  V30 583 H 56.1337 -1.02347 2.85935 0
M  V30 584 H 53.7187 -0.441123 1.42739 0
M  V30 585 H 55.6007 -3.43929 2.43497 0
M  V30 586 H 54.2757 -2.94358 1.34666 0
M  V30 587 H 53.1827 -1.72662 3.31871 0
M  V30 588 H 54.5157 -2.28915 4.35728 0
M  V30 589 N 56.1678 -1.49265 -0.50573 0
M  V30 590 C 57.1148 -1.65585 -1.6078 0
M  V30 591 C 58.0848 -0.497396 -1.58478 0
M  V30 592 O 59.2698 -0.72385 -1.76536 0
M  V30 593 C 56.4098 -1.72408 -2.98948 0
M  V30 594 C 55.5228 -2.99525 -3.11301 0
M  V30 595 C 54.6578 -2.97356 -4.40174 0
M  V30 596 C 53.6968 -4.19074 -4.46143 0
M  V30 597 N 52.8338 -4.14841 -5.66437 0
M  V30 598 H 57.6738 -2.59688 -1.46172 0
M  V30 599 H 55.2108 -1.28761 -0.711261 0
M  V30 600 H 57.1688 -1.74344 -3.79025 0
M  V30 601 H 55.7988 -0.817753 -3.1227 0
M  V30 602 H 54.8508 -3.07222 -2.24318 0
M  V30 603 H 56.1628 -3.89518 -3.11572 0
M  V30 604 H 55.3168 -2.97829 -5.28567 0
M  V30 605 H 54.0558 -2.05133 -4.42461 0
M  V30 606 H 53.0608 -4.1885 -3.56153 0
M  V30 607 H 54.2858 -5.12483 -4.45575 0
M  V30 608 H 52.2318 -3.25453 -5.69575 0
M  V30 609 H 52.1488 -4.98564 -5.68304 0
M  V30 610 H 53.4168 -4.1941 -6.57051 0
M  V30 611 N 57.6459 0.756429 -1.3826 0
M  V30 612 C 59.0619 1.0591 -1.19395 0
M  V30 613 C 59.2619 2.01459 -0.0406567 0
M  V30 614 O 58.3179 2.44909 0.614467 0
M  V30 615 C 59.6309 1.64191 -2.51916 0
M  V30 616 C 61.1789 1.76376 -2.58574 0
M  V30 617 C 61.6539 2.38069 -3.91264 0
M  V30 618 N 63.1449 2.45503 -3.92788 0
M  V30 619 C 63.8799 2.94126 -4.92217 0
M  V30 620 N 63.3759 3.42805 -6.02043 0
M  V30 621 N 65.1689 2.9314 -4.7961 0
M  V30 622 H 57.3199 0.122313 -2.12048 0
M  V30 623 H 59.5829 0.116892 -0.940766 0
M  V30 624 H 59.2889 1.01451 -3.3675 0
M  V30 625 H 59.1629 2.6329 -2.70108 0
M  V30 626 H 61.5499 2.38244 -1.74137 0
M  V30 627 H 61.6309 0.759894 -2.44252 0
M  V30 628 H 61.2749 1.76835 -4.76121 0
M  V30 629 H 61.2049 3.39091 -4.02895 0
M  V30 630 H 63.6959 2.1107 -3.13461 0
M  V30 631 H 64.0089 3.78354 -6.73846 0
M  V30 632 H 62.3539 3.4087 -6.05667 0
M  V30 633 H 65.5449 2.54419 -3.92923 0
M  V30 634 H 65.7179 3.30721 -5.5725 0
M  V30 635 N 59.124 1.23083 0.984299 0
M  V30 636 C 60.401 0.9689 1.69917 0
M  V30 637 C 60.781 -0.513604 2.04757 0
M  V30 638 O 60.129 -1.48383 1.73767 0
M  V30 639 C 60.339 1.87518 2.94343 0
M  V30 640 C 61.687 2.13636 3.6694 0
M  V30 641 O 62.711 1.85036 3.04368 0
M  V30 642 O 61.57 2.62119 4.79537 0
M  V30 643 H 58.664 0.365095 0.742048 0
M  V30 644 H 61.21 1.34107 1.03987 0
M  V30 645 H 59.982 2.87756 2.65164 0
M  V30 646 H 59.605 1.50514 3.6801 0
M  V30 647 N 60.6021 -1.18246 1.0419 0
M  V30 648 C 61.8271 -1.92736 0.765996 0
M  V30 649 C 62.2521 -1.75728 -0.67091 0
M  V30 650 O 61.6101 -1.06825 -1.46486 0
M  V30 651 C 61.6581 -3.42148 1.13875 0
M  V30 652 O 60.7621 -4.11548 0.264954 0
M  V30 653 H 60.1031 -0.601238 0.281797 0
M  V30 654 H 62.6331 -1.49942 1.39207 0
M  V30 655 H 62.6431 -3.92858 1.1012 0
M  V30 656 H 61.3181 -3.53848 2.18551 0
M  V30 657 H 59.8951 -3.71137 0.362226 0
M  V30 658 N 62.0802 -0.821533 -1.34494 0
M  V30 659 C 63.3262 -0.409552 -1.98622 0
M  V30 660 C 63.6592 1.0244 -1.64984 0
M  V30 661 O 62.9342 1.71325 -0.920758 0
M  V30 662 C 63.2172 -0.610458 -3.54888 0
M  V30 663 C 63.0702 -2.09043 -3.98273 0
M  V30 664 C 64.3892 -0.0455379 -4.40076 0
M  V30 665 H 61.5082 -0.15028 -0.721516 0
M  V30 666 H 64.1502 -1.03384 -1.59411 0
M  V30 667 H 62.3002 -0.079044 -3.8842 0
M  V30 668 H 63.9722 -2.68537 -3.75081 0
M  V30 669 H 62.2152 -2.58139 -3.48635 0
M  V30 670 H 62.8862 -2.18182 -5.07051 0
M  V30 671 H 65.3622 -0.499557 -4.1309 0
M  V30 672 H 64.2382 -0.215922 -5.48475 0
M  V30 673 H 64.4992 1.04939 -4.29465 0
M  V30 674 N 63.5583 1.46682 -0.576371 0
M  V30 675 C 64.7983 2.04306 -0.0621356 0
M  V30 676 C 65.1623 1.4389 1.2712 0
M  V30 677 O 66.3633 1.92675 1.87429 0
M  V30 678 C 64.6343 3.57399 0.00927922 0
M  V30 679 S 66.1933 4.36309 0.466859 0
M  V30 680 H 63.0113 0.710167 -0.0344016 0
M  V30 681 H 65.6133 1.79807 -0.767437 0
M  V30 682 H 64.3173 3.98889 -0.965178 0
M  V30 683 H 63.8483 3.86424 0.737547 0
M  V30 684 H 65.8633 4.6533 1.72287 0
M  V30 685 N 65.0364 0.313813 1.54444 0
M  V30 686 C 66.4474 -0.176243 1.85866 0
M  V30 687 C 66.7984 -1.52405 1.23561 0
M  V30 688 O 65.9234 -2.09605 0.538016 0
M  V30 689 C 66.5184 -0.32657 3.37222 0
M  V30 690 C 65.0774 -0.760846 3.6863 0
M  V30 691 C 64.2244 0.123247 2.77026 0
M  V30 692 H 67.1754 0.534418 1.49431 0
M  V30 693 H 67.1964 -1.15908 3.62416 0
M  V30 694 H 66.7084 0.654531 3.82541 0
M  V30 695 H 64.8094 -1.75204 3.28838 0
M  V30 696 H 64.9224 -0.571353 4.75681 0
M  V30 697 H 63.2864 -0.399597 2.51546 0
M  V30 698 H 64.0694 1.10094 3.25168 0
M  V30 699 N 66.5145 -1.57545 0.0417849 0
M  V30 700 C 67.4465 -2.07904 -0.964799 0
M  V30 701 C 68.4595 -1.00497 -1.28079 0
M  V30 702 O 69.6485 -1.28087 -1.24322 0
M  V30 703 C 66.7485 -2.49928 -2.28887 0
M  V30 704 C 65.9215 -3.80562 -2.15619 0
M  V30 705 C 64.9805 -4.08999 -3.31069 0
M  V30 706 O 64.0065 -4.79061 -3.0739 0
M  V30 707 N 65.2085 -3.6017 -4.55256 0
M  V30 708 H 67.9735 -2.94886 -0.535029 0
M  V30 709 H 65.5345 -1.61252 -0.144681 0
M  V30 710 H 67.5265 -2.66034 -3.04972 0
M  V30 711 H 66.0965 -1.68245 -2.63463 0
M  V30 712 H 65.3165 -3.74129 -1.24183 0
M  V30 713 H 66.6045 -4.66126 -2.03971 0
M  V30 714 H 66.0025 -3.03512 -4.77386 0
M  V30 715 H 64.5595 -3.81532 -5.28466 0
M  V30 716 N 67.9926 0.231505 -1.5589 0
M  V30 717 C 69.2406 0.955461 -1.78088 0
M  V30 718 C 69.5616 1.85262 -0.608533 0
M  V30 719 O 68.8316 1.92277 0.375035 0
M  V30 720 H 67.4116 0.355787 -0.656829 0
M  V30 721 H 70.0736 0.245751 -1.93344 0
M  V30 722 H 69.1696 1.56814 -2.69844 0
M  V30 723 N 69.4707 1.49531 0.497807 0
M  V30 724 C 70.4177 1.66436 1.59899 0
M  V30 725 C 71.3877 0.505793 1.58212 0
M  V30 726 O 72.5727 0.733202 1.7615 0
M  V30 727 C 69.7127 1.7399 2.98029 0
M  V30 728 C 68.8257 3.01172 3.09708 0
M  V30 729 C 67.9607 2.99686 4.38591 0
M  V30 730 C 66.9997 4.21434 4.43914 0
M  V30 731 N 66.1367 4.1784 5.64229 0
M  V30 732 H 70.9767 2.60459 1.44793 0
M  V30 733 H 68.5137 1.29137 0.704423 0
M  V30 734 H 70.4717 1.76352 3.78095 0
M  V30 735 H 69.1017 0.834301 3.11832 0
M  V30 736 H 68.1537 3.08408 2.22685 0
M  V30 737 H 69.4657 3.91165 3.09502 0
M  V30 738 H 68.6197 3.00628 5.2698 0
M  V30 739 H 67.3587 2.07477 4.41367 0
M  V30 740 H 66.3637 4.20733 3.53926 0
M  V30 741 H 67.5887 5.14839 4.42851 0
M  V30 742 H 65.5347 3.28469 5.67841 0
M  V30 743 H 65.4517 5.01571 5.65652 0
M  V30 744 H 66.7197 4.22889 6.54817 0
M  V30 745 N 70.9488 -0.749086 1.3866 0
M  V30 746 C 72.1788 -1.53611 1.38157 0
M  V30 747 C 72.5868 -1.89177 -0.0293595 0
M  V30 748 O 71.9298 -1.53606 -1.00752 0
M  V30 749 C 71.9918 -2.86087 2.17702 0
M  V30 750 C 71.6558 -2.73034 3.66472 0
M  V30 751 C 72.6528 -2.42526 4.59866 0
M  V30 752 C 70.3378 -2.90345 4.09884 0
M  V30 753 C 72.3318 -2.29492 5.94653 0
M  V30 754 C 70.0188 -2.7693 5.4475 0
M  V30 755 C 71.0168 -2.46547 6.36949 0
M  V30 756 O 70.7048 -2.33199 7.69333 0
M  V30 757 H 70.4368 -0.481773 0.474205 0
M  V30 758 H 72.9908 -0.934465 1.82912 0
M  V30 759 H 71.2208 -3.48458 1.67672 0
M  V30 760 H 72.9098 -3.47625 2.09551 0
M  V30 761 H 73.6758 -2.28816 4.27631 0
M  V30 762 H 69.5548 -3.1299 3.38464 0
M  V30 763 H 73.0988 -2.05698 6.66584 0
M  V30 764 H 68.9958 -2.90215 5.76581 0
M  V30 765 H 69.7638 -2.48376 7.79905 0
M  V30 766 N 72.4269 -1.23603 -0.977757 0
M  V30 767 C 73.6759 -1.06377 -1.71368 0
M  V30 768 C 73.9889 0.399062 -1.91486 0
M  V30 769 O 75.1949 0.691312 -2.62551 0
M  V30 770 C 73.6509 -1.85512 -3.08404 0
M  V30 771 C 73.2589 -3.36141 -2.96164 0
M  V30 772 C 75.0029 -1.76783 -3.85938 0
M  V30 773 C 72.9099 -4.07659 -4.28449 0
M  V30 774 H 71.8399 -0.394452 -0.642591 0
M  V30 775 H 74.4909 -1.47594 -1.09034 0
M  V30 776 H 72.8729 -1.37103 -3.71509 0
M  V30 777 H 74.0469 -3.92056 -2.42133 0
M  V30 778 H 72.3619 -3.45712 -2.32104 0
M  V30 779 H 74.9589 -2.27526 -4.83876 0
M  V30 780 H 75.3019 -0.731116 -4.0983 0
M  V30 781 H 75.8349 -2.22818 -3.2954 0
M  V30 782 H 72.5739 -5.11648 -4.09752 0
M  V30 783 H 72.0939 -3.5653 -4.82334 0
M  V30 784 H 73.7729 -4.141 -4.97122 0
M  V30 785 N 73.905 1.17692 -1.04816 0
M  V30 786 C 74.855 2.1952 -0.616042 0
M  V30 787 C 75.839 1.57147 0.345485 0
M  V30 788 O 77.031 1.76245 0.163325 0
M  V30 789 C 74.16 3.43298 0.0116917 0
M  V30 790 C 73.246 4.12777 -0.973435 0
M  V30 791 N 73.637 4.5814 -2.14339 0
M  V30 792 C 71.935 4.38747 -0.80108 0
M  V30 793 C 72.636 5.11713 -2.7663 0
M  V30 794 N 71.612 5.03686 -2.04453 0
M  V30 795 H 75.414 2.52293 -1.5075 0
M  V30 796 H 72.928 1.3398 -0.917776 0
M  V30 797 H 74.925 4.15519 0.339006 0
M  V30 798 H 73.585 3.12018 0.898593 0
M  V30 799 H 74.596 4.52349 -2.52191 0
M  V30 800 H 71.273 4.17485 0.0350934 0
M  V30 801 H 72.663 5.56962 -3.75823 0
M  V30 802 N 75.3831 0.828654 1.34056 0
M  V30 803 C 76.7941 0.477534 1.8049 0
M  V30 804 C 77.1451 -1.00258 1.6865 0
M  V30 805 O 76.2701 -1.78057 1.22982 0
M  V30 806 C 76.8651 0.860018 3.27703 0
M  V30 807 C 75.4241 0.561185 3.72193 0
M  V30 808 C 74.5711 1.07385 2.55663 0
M  V30 809 H 77.5221 1.0183 1.21722 0
M  V30 810 H 77.5431 0.166038 3.80138 0
M  V30 811 H 77.0551 1.93731 3.36288 0
M  V30 812 H 75.1561 -0.506465 3.69142 0
M  V30 813 H 75.2691 1.10926 4.66082 0
M  V30 814 H 73.6331 0.495149 2.49841 0
M  V30 815 H 74.4161 2.15771 2.67016 0
M  V30 816 N 76.8612 -1.46375 0.584142 0
M  V30 817 C 77.7932 -2.28443 -0.186119 0
M  V30 818 C 78.8062 -1.38596 -0.854115 0
M  V30 819 O 79.9952 -1.63183 -0.723438 0
M  V30 820 C 77.0952 -3.13671 -1.28311 0
M  V30 821 C 76.2682 -4.31652 -0.706758 0
M  V30 822 C 75.3272 -4.98267 -1.69163 0
M  V30 823 O 74.3532 -5.55815 -1.22712 0
M  V30 824 N 75.5552 -4.95408 -3.02575 0
M  V30 825 H 78.3202 -2.9519 0.517986 0
M  V30 826 H 75.8812 -1.56303 0.42201 0
M  V30 827 H 77.8732 -3.55101 -1.94128 0
M  V30 828 H 76.4432 -2.48989 -1.89005 0
M  V30 829 H 75.6632 -3.93989 0.128908 0
M  V30 830 H 76.9512 -5.07906 -0.301506 0
M  V30 831 H 76.3492 -4.49902 -3.42936 0
M  V30 832 H 74.9062 -5.40774 -3.63877 0
M  V30 833 N 78.3393 -0.321999 -1.54275 0
M  V30 834 C 79.2873 0.560206 -2.25753 0
M  V30 835 C 80.2813 1.11984 -1.27106 0
M  V30 836 O 81.4873 1.06806 -1.44888 0
M  V30 837 H 77.8623 0.199304 -0.725108 0
M  V30 838 H 79.8333 -0.0649365 -2.98329 0
M  V30 839 C 78.5823 1.71023 -3.02731 0
M  V30 840 H 77.9053 1.28885 -3.78456 0
M  V30 841 H 79.3453 2.30314 -3.55993 0
M  V30 842 C 77.8043 2.62692 -2.10938 0
M  V30 843 O 78.3343 3.64364 -1.6912 0
M  V30 844 N 76.5403 2.30891 -1.76459 0
M  V30 845 H 76.0873 1.48253 -2.10663 0
M  V30 846 H 76.0453 2.92487 -1.1532 0
M  V30 847 N 79.8174 1.5752 -0.0501392 0
M  V30 848 C 80.7654 2.12651 0.942459 0
M  V30 849 C 81.7594 1.05807 1.32292 0
M  V30 850 O 82.9654 1.24217 1.3027 0
M  V30 851 H 79.3404 0.679673 0.321789 0
M  V30 852 H 81.3114 2.94951 0.452356 0
M  V30 853 C 80.0604 2.68565 2.20836 0
M  V30 854 H 79.3834 3.50439 1.92439 0
M  V30 855 H 80.8234 3.10761 2.8845 0
M  V30 856 C 79.2824 1.62291 2.95234 0
M  V30 857 O 79.8124 1.03508 3.88135 0
M  V30 858 N 78.0184 1.33836 2.57946 0
M  V30 859 H 77.5654 1.81826 1.82475 0
M  V30 860 H 77.5234 0.629595 3.08032 0
M  V30 861 N 81.2955 -0.223234 1.56011 0
M  V30 862 C 82.5205 -0.968978 1.83373 0
M  V30 863 C 82.9455 -1.77227 0.630254 0
M  V30 864 O 82.3035 -1.76345 -0.420959 0
M  V30 865 C 82.3515 -1.86363 3.08709 0
M  V30 866 O 81.4555 -2.95873 2.87285 0
M  V30 867 H 80.7965 -0.274461 0.604622 0
M  V30 868 H 83.3265 -0.237056 2.03222 0
M  V30 869 H 83.3365 -2.27376 3.38768 0
M  V30 870 H 82.0115 -1.27319 3.95933 0
M  V30 871 H 80.5885 -2.58818 2.68454 0
M  V30 872 N 82.7736 -1.49793 -0.48987 0
M  V30 873 C 84.0226 -1.59085 -1.23995 0
M  V30 874 C 84.3356 -0.287907 -1.9347 0
M  V30 875 O 85.5416 -0.259506 -2.70257 0
M  V30 876 C 83.9976 -2.80736 -2.252 0
M  V30 877 C 83.6056 -4.17833 -1.61614 0
M  V30 878 C 85.3496 -2.99364 -3.00967 0
M  V30 879 C 83.2566 -5.30693 -2.60996 0
M  V30 880 H 82.1866 -0.592372 -0.466488 0
M  V30 881 H 84.8376 -1.76197 -0.51252 0
M  V30 882 H 83.2196 -2.57142 -3.01154 0
M  V30 883 H 84.3936 -4.51608 -0.915774 0
M  V30 884 H 82.7086 -4.04656 -0.981977 0
M  V30 885 H 85.3056 -3.80851 -3.75308 0
M  V30 886 H 85.6486 -2.10356 -3.59244 0
M  V30 887 H 86.1816 -3.2305 -2.32128 0
M  V30 888 H 82.9206 -6.21796 -2.07485 0
M  V30 889 H 82.4406 -5.01359 -3.2924 0
M  V30 890 H 84.1196 -5.6049 -3.23202 0
M  V30 891 N 84.2517 0.741722 -1.39055 0
M  V30 892 C 85.4917 1.51385 -1.37338 0
M  V30 893 C 85.8557 1.91972 0.0330513 0
M  V30 894 O 87.0567 2.68229 0.175174 0
M  V30 895 C 85.3277 2.72481 -2.31276 0
M  V30 896 S 86.8867 3.62211 -2.47687 0
M  V30 897 H 83.7047 0.517906 -0.487129 0
M  V30 898 H 86.3067 0.86969 -1.7509 0
M  V30 899 H 85.0107 2.40793 -3.32336 0
M  V30 900 H 84.5417 3.41832 -1.94716 0
M  V30 901 H 86.5567 4.65812 -1.70978 0
M  V30 902 N 85.7298 1.2412 0.971189 0
M  V30 903 C 86.9698 1.09066 1.7287 0
M  V30 904 C 87.3338 -0.364794 1.88503 0
M  V30 905 O 88.5348 -0.636748 2.61149 0
M  V30 906 C 86.8058 1.80629 3.08396 0
M  V30 907 S 88.3648 1.81263 3.99611 0
M  V30 908 H 85.1828 0.390145 0.594397 0
M  V30 909 H 87.7848 1.57397 1.15959 0
M  V30 910 H 86.4888 2.85647 2.94676 0
M  V30 911 H 86.0198 1.32617 3.70373 0
M  V30 912 H 88.0348 0.877804 4.88374 0
M  V30 913 N 87.2079 -1.17134 1.05439 0
M  V30 914 C 88.4359 -1.91372 0.786414 0
M  V30 915 C 88.8509 -1.76955 -0.658202 0
M  V30 916 O 88.2079 -1.10838 -1.44987 0
M  V30 917 C 88.2589 -3.42356 1.1608 0
M  V30 918 O 87.9799 -3.56332 2.54871 0
M  V30 919 C 89.4809 -4.33663 0.919322 0
M  V30 920 H 86.7009 -0.607118 0.285743 0
M  V30 921 H 89.2449 -1.48525 1.40572 0
M  V30 922 H 87.3999 -3.82939 0.586191 0
M  V30 923 H 87.8139 -4.49896 2.69618 0
M  V30 924 H 89.2879 -5.38099 1.231 0
M  V30 925 H 89.7649 -4.38959 -0.145359 0
M  V30 926 H 90.3709 -3.98796 1.47789 0
M  V30 927 N 88.686 -0.835752 -1.33615 0
M  V30 928 C 89.633 -0.26473 -2.29277 0
M  V30 929 C 90.603 0.617712 -1.54187 0
M  V30 930 O 91.788 0.556641 -1.825 0
M  V30 931 C 88.928 0.556777 -3.40579 0
M  V30 932 C 88.041 -0.349339 -4.30585 0
M  V30 933 C 87.176 0.482969 -5.29 0
M  V30 934 C 86.215 -0.421732 -6.10645 0
M  V30 935 N 85.352 0.372262 -7.01112 0
M  V30 936 H 90.192 -1.08582 -2.77514 0
M  V30 937 H 87.729 -0.546927 -1.36554 0
M  V30 938 H 89.687 1.04852 -4.03809 0
M  V30 939 H 88.317 1.34286 -2.93542 0
M  V30 940 H 87.369 -0.959372 -3.68104 0
M  V30 941 H 88.681 -1.04445 -4.87742 0
M  V30 942 H 87.835 1.03866 -5.97743 0
M  V30 943 H 86.574 1.21153 -4.72412 0
M  V30 944 H 85.579 -0.989464 -5.40823 0
M  V30 945 H 86.804 -1.14861 -6.69316 0
M  V30 946 H 84.75 1.08426 -6.46977 0
M  V30 947 H 84.667 -0.264198 -7.55538 0
M  V30 948 H 85.935 0.910293 -7.74167 0
M  V30 949 N 90.1641 1.46063 -0.591896 0
M  V30 950 C 91.4041 2.04228 -0.0838014 0
M  V30 951 C 91.7681 1.45231 1.25587 0
M  V30 952 O 92.9691 1.94653 1.85375 0
M  V30 953 C 91.2401 3.57389 -0.0286282 0
M  V30 954 S 92.7991 4.3678 0.420557 0
M  V30 955 H 89.6171 0.709762 -0.0419319 0
M  V30 956 H 92.2191 1.78983 -0.786465 0
M  V30 957 H 90.9231 3.97843 -1.00743 0
M  V30 958 H 90.4541 3.87185 0.69652 0
M  V30 959 H 92.4691 4.67131 1.67341 0
M  V30 960 N 91.6422 0.330177 1.54103 0
M  V30 961 C 92.5922 -0.548456 2.21305 0
M  V30 962 C 93.5762 -1.07651 1.19583 0
M  V30 963 O 94.7682 -1.01243 1.45186 0
M  V30 964 C 91.8972 -1.70559 2.97934 0
M  V30 965 C 90.9832 -1.19212 4.07 0
M  V30 966 N 91.3742 -0.398831 5.04225 0
M  V30 967 C 89.6722 -1.47024 4.2107 0
M  V30 968 C 90.3732 -0.121761 5.81573 0
M  V30 969 N 89.3492 -0.709722 5.38947 0
M  V30 970 H 93.1512 0.0648483 2.93828 0
M  V30 971 H 90.6652 0.136363 1.61826 0
M  V30 972 H 92.6622 -2.34688 3.44568 0
M  V30 973 H 91.3222 -2.32231 2.26934 0
M  V30 974 H 92.3332 -0.0410869 5.17884 0
M  V30 975 H 89.0102 -2.09232 3.61287 0
M  V30 976 H 90.4002 0.517298 6.69906 0
M  V30 977 N 93.1203 -1.57491 0.0584922 0
M  V30 978 C 94.0673 -2.11958 -0.913376 0
M  V30 979 C 95.0373 -1.02875 -1.30407 0
M  V30 980 O 96.2223 -1.30464 -1.39226 0
M  V30 981 C 93.3623 -2.67497 -2.18035 0
M  V30 982 C 92.4753 -3.90691 -1.84349 0
M  V30 983 C 91.6103 -4.3452 -3.05559 0
M  V30 984 C 90.6493 -5.50395 -2.67827 0
M  V30 985 N 89.7863 -5.89244 -3.81754 0
M  V30 986 H 94.6263 -2.94704 -0.442017 0
M  V30 987 H 92.1633 -1.45643 -0.206545 0
M  V30 988 H 94.1213 -2.978 -2.92183 0
M  V30 989 H 92.7513 -1.87537 -2.62735 0
M  V30 990 H 91.8033 -3.66934 -1.00319 0
M  V30 991 H 93.1153 -4.7489 -1.5258 0
M  V30 992 H 92.2693 -4.66414 -3.87998 0
M  V30 993 H 91.0083 -3.49147 -3.40511 0
M  V30 994 H 90.0133 -5.18165 -1.83806 0
M  V30 995 H 91.2383 -6.3749 -2.34059 0
M  V30 996 H 89.1843 -5.06823 -4.16493 0
M  V30 997 H 89.1013 -6.68151 -3.53708 0
M  V30 998 H 90.3693 -6.25756 -4.64811 0
M  V30 999 N 94.5984 0.214957 -1.56127 0
M  V30 1000 C 95.8464 0.936518 -1.79091 0
M  V30 1001 C 96.1674 1.84606 -0.628148 0
M  V30 1002 O 95.4374 1.92664 0.35462 0
M  V30 1003 H 94.0174 0.3488 -0.660566 0
M  V30 1004 H 96.6794 0.22523 -1.93594 0
M  V30 1005 H 95.7754 1.53943 -2.71492 0
M  V30 1006 N 96.0765 1.50051 0.48192 0
M  V30 1007 C 97.3045 1.64237 1.25832 0
M  V30 1008 C 97.7195 0.321336 1.86045 0
M  V30 1009 O 97.0765 -0.695478 1.68729 0
M  V30 1010 C 97.1275 2.72548 2.37487 0
M  V30 1011 O 96.8485 3.99529 1.79745 0
M  V30 1012 C 98.3495 2.9761 3.28547 0
M  V30 1013 H 95.5695 0.55237 0.380957 0
M  V30 1014 H 98.1135 1.96207 0.576467 0
M  V30 1015 H 96.2685 2.43303 3.01467 0
M  V30 1016 H 96.6825 4.59342 2.5319 0
M  V30 1017 H 98.1565 3.77084 4.03127 0
M  V30 1018 H 98.6335 2.0826 3.86684 0
M  V30 1019 H 99.2395 3.28345 2.70314 0
M  V30 1020 N 97.5546 -0.734337 1.39446 0
M  V30 1021 C 98.7846 -1.52137 1.39778 0
M  V30 1022 C 99.1926 -1.89198 -0.00929312 0
M  V30 1023 O 98.5356 -1.54666 -0.991168 0
M  V30 1024 C 98.5976 -2.83762 2.20724 0
M  V30 1025 C 98.2616 -2.69131 3.69347 0
M  V30 1026 C 99.2586 -2.37635 4.62413 0
M  V30 1027 C 96.9436 -2.85982 4.1294 0
M  V30 1028 C 98.9376 -2.23172 5.97054 0
M  V30 1029 C 96.6246 -2.71137 5.47657 0
M  V30 1030 C 97.6226 -2.39777 6.39528 0
M  V30 1031 O 97.3106 -2.25026 7.71763 0
M  V30 1032 H 97.0426 -0.476717 0.479288 0
M  V30 1033 H 99.5966 -0.915012 1.83893 0
M  V30 1034 H 97.8266 -3.4666 1.71359 0
M  V30 1035 H 99.5156 -3.45383 2.13226 0
M  V30 1036 H 100.282 -2.24267 4.30034 0
M  V30 1037 H 96.1606 -3.09383 3.41765 0
M  V30 1038 H 99.7046 -1.98617 6.68728 0
M  V30 1039 H 95.6016 -2.84083 5.79626 0
M  V30 1040 H 96.3696 -2.40091 7.82495 0
M  V30 1041 N 99.0327 -1.24633 -0.964593 0
M  V30 1042 C 99.9627 -1.06611 -2.07741 0
M  V30 1043 C 100.944 0.0218666 -1.70086 0
M  V30 1044 O 102.129 -0.145793 -1.93652 0
M  V30 1045 C 99.2587 -0.673444 -3.40708 0
M  V30 1046 C 98.2127 -1.71054 -3.92332 0
M  V30 1047 C 97.5387 -1.17285 -5.21678 0
M  V30 1048 C 98.8387 -3.10718 -4.19824 0
M  V30 1049 H 100.533 -1.99693 -2.23076 0
M  V30 1050 H 98.0787 -0.96152 -1.07195 0
M  V30 1051 H 100.032 -0.534345 -4.17998 0
M  V30 1052 H 98.7557 0.293073 -3.25282 0
M  V30 1053 H 97.4147 -1.83791 -3.17201 0
M  V30 1054 H 97.0627 -0.196847 -5.02615 0
M  V30 1055 H 96.7627 -1.86592 -5.57187 0
M  V30 1056 H 98.2867 -1.04593 -6.01575 0
M  V30 1057 H 99.7007 -3.01192 -4.87808 0
M  V30 1058 H 98.0977 -3.77406 -4.66567 0
M  V30 1059 H 99.1677 -3.58524 -3.26479 0
M  V30 1060 N 100.511 1.16574 -1.06058 0
M  V30 1061 C 101.741 1.90675 -0.795397 0
M  V30 1062 C 102.149 1.77547 0.653735 0
M  V30 1063 O 101.492 1.11611 1.45907 0
M  V30 1064 C 101.554 3.42011 -1.10764 0
M  V30 1065 C 101.218 3.78924 -2.55471 0
M  V30 1066 C 102.215 3.81042 -3.53699 0
M  V30 1067 C 99.8998 4.09626 -2.90708 0
M  V30 1068 C 101.894 4.13346 -4.85205 0
M  V30 1069 C 99.5808 4.41597 -4.22416 0
M  V30 1070 C 100.579 4.43436 -5.19474 0
M  V30 1071 O 100.267 4.74649 -6.48817 0
M  V30 1072 H 99.9988 0.611554 -0.288058 0
M  V30 1073 H 102.553 1.48711 -1.41683 0
M  V30 1074 H 100.783 3.84312 -0.429128 0
M  V30 1075 H 102.472 3.97384 -0.827077 0
M  V30 1076 H 103.238 3.57437 -3.27817 0
M  V30 1077 H 99.1168 4.07361 -2.15819 0
M  V30 1078 H 102.661 4.14696 -5.60957 0
M  V30 1079 H 98.5578 4.64667 -4.48056 0
M  V30 1080 H 99.3258 4.9247 -6.5377 0
M  V30 1081 N 101.989 0.842826 1.3317 0
M  V30 1082 C 102.937 0.267495 2.31057 0
M  V30 1083 C 103.931 -0.602682 1.58316 0
M  V30 1084 O 105.137 -0.491803 1.73151 0
M  V30 1085 H 101.512 0.0677813 0.748939 0
M  V30 1086 H 103.483 1.10754 2.77085 0
M  V30 1087 C 102.232 -0.539331 3.43492 0
M  V30 1088 H 101.555 0.12095 3.99617 0
M  V30 1089 H 102.995 -0.90767 4.14171 0
M  V30 1090 C 101.454 -1.71981 2.89697 0
M  V30 1091 O 101.984 -2.81862 2.86211 0
M  V30 1092 N 100.19 -1.54299 2.46252 0
M  V30 1093 H 99.7369 -0.649143 2.49287 0
M  V30 1094 H 99.6949 -2.33431 2.10612 0
M  V30 1095 N 103.467 -1.45747 0.599634 0
M  V30 1096 C 104.744 -1.95585 0.0240846 0
M  V30 1097 C 105.124 -1.54217 -1.44154 0
M  V30 1098 O 104.472 -0.800903 -2.14004 0
M  V30 1099 C 104.682 -3.48344 0.21385 0
M  V30 1100 C 106.03 -4.24504 0.0904902 0
M  V30 1101 O 107.054 -3.55911 0.143558 0
M  V30 1102 O 105.913 -5.46491 -0.0310766 0
M  V30 1103 H 103.007 -0.82602 -0.0402478 0
M  V30 1104 H 105.553 -1.55951 0.669139 0
M  V30 1105 H 104.325 -3.71397 1.23206 0
M  V30 1106 H 103.948 -3.9485 -0.466842 0
M  V30 1107 N 104.945 -0.338344 -1.53925 0
M  V30 1108 C 106.185 0.260168 -2.02737 0
M  V30 1109 C 106.549 1.48181 -1.22092 0
M  V30 1110 O 107.75 2.15416 -1.60777 0
M  V30 1111 C 106.021 0.571627 -3.52799 0
M  V30 1112 S 107.58 1.14769 -4.23525 0
M  V30 1113 H 104.398 0.077791 -0.706732 0
M  V30 1114 H 107 -0.474899 -1.89644 0
M  V30 1115 H 105.704 -0.325392 -4.09108 0
M  V30 1116 H 105.235 1.3365 -3.70002 0
M  V30 1117 H 107.25 2.43372 -4.32417 0
M  V30 1118 N 106.423 1.57458 -0.0668435 0
M  V30 1119 C 107.834 1.80776 0.466558 0
M  V30 1120 C 108.185 0.980361 1.69951 0
M  V30 1121 O 107.31 0.201441 2.1546 0
M  V30 1122 C 107.905 3.27881 0.85321 0
M  V30 1123 C 106.464 3.52062 1.3315 0
M  V30 1124 C 105.611 2.75513 0.314264 0
M  V30 1125 H 108.562 1.5598 -0.292588 0
M  V30 1126 H 108.583 3.39659 1.715 0
M  V30 1127 H 108.095 3.88075 -0.0443439 0
M  V30 1128 H 106.196 2.97167 2.24772 0
M  V30 1129 H 106.309 4.60762 1.31285 0
M  V30 1130 H 104.673 2.42123 0.790492 0
M  V30 1131 H 105.456 3.38442 -0.575477 0
M  V30 1132 N 107.901 -0.206675 1.56239 0
M  V30 1133 C 109.149 -0.927007 1.79586 0
M  V30 1134 C 109.47 -1.8427 0.637929 0
M  V30 1135 O 108.74 -1.92849 -0.344398 0
M  V30 1136 H 107.32 -0.345292 0.662407 0
M  V30 1137 H 109.982 -0.21496 1.93711 0
M  V30 1138 H 109.078 -1.52501 2.72305 0
M  V30 1139 N 109.379 -1.50304 -0.473955 0
M  V30 1140 C 110.79 -1.54042 -1.0549 0
M  V30 1141 C 111.141 -0.342248 -1.93192 0
M  V30 1142 O 110.266 0.545157 -2.09421 0
M  V30 1143 C 110.861 -2.79152 -1.91989 0
M  V30 1144 C 109.42 -2.8558 -2.45196 0
M  V30 1145 C 108.567 -2.48295 -1.2347 0
M  V30 1146 H 111.518 -1.5661 -0.256693 0
M  V30 1147 H 111.539 -2.60845 -2.7702 0
M  V30 1148 H 111.051 -3.66339 -1.28131 0
M  V30 1149 H 109.152 -2.02738 -3.12615 0
M  V30 1150 H 109.265 -3.88403 -2.80499 0
M  V30 1151 H 107.629 -2.00669 -1.56856 0
M  V30 1152 H 108.412 -3.37787 -0.612789 0
M  V30 1153 N 110.857 0.726932 -1.39834 0
M  V30 1154 C 112.105 1.4837 -1.37225 0
M  V30 1155 C 112.426 1.94979 0.0284857 0
M  V30 1156 O 111.696 1.69555 0.981213 0
M  V30 1157 H 110.276 0.55043 -0.505011 0
M  V30 1158 H 112.938 0.862468 -1.74778 0
M  V30 1159 H 112.034 2.36198 -2.04003 0
M  V30 1160 N 112.336 1.25143 0.95797 0
M  V30 1161 C 113.268 1.01023 2.05735 0
M  V30 1162 C 114.281 -0.0236902 1.62783 0
M  V30 1163 O 115.47 0.21448 1.77207 0
M  V30 1164 C 112.57 0.504595 3.35122 0
M  V30 1165 C 111.743 1.6039 4.06932 0
M  V30 1166 C 110.802 1.09922 5.14591 0
M  V30 1167 O 109.828 1.79293 5.40225 0
M  V30 1168 N 111.03 -0.0612545 5.80468 0
M  V30 1169 H 113.795 1.95683 2.26998 0
M  V30 1170 H 111.356 1.16303 1.12629 0
M  V30 1171 H 113.348 0.151516 4.04416 0
M  V30 1172 H 111.918 -0.347989 3.10657 0
M  V30 1173 H 111.138 2.12872 3.31782 0
M  V30 1174 H 112.426 2.34252 4.51667 0
M  V30 1175 H 111.824 -0.640985 5.62057 0
M  V30 1176 H 110.381 -0.355395 6.5083 0
M  V30 1177 N 113.814 -1.1601 1.06675 0
M  V30 1178 C 115.091 -1.82679 0.699114 0
M  V30 1179 C 115.471 -1.94559 -0.819137 0
M  V30 1180 O 114.819 -1.49169 -1.73092 0
M  V30 1181 C 115.029 -3.19445 1.40555 0
M  V30 1182 C 116.377 -3.95171 1.55323 0
M  V30 1183 O 117.401 -3.28976 1.36577 0
M  V30 1184 O 116.26 -5.13833 1.86112 0
M  V30 1185 H 113.354 -0.788954 0.247951 0
M  V30 1186 H 115.9 -1.23179 1.16726 0
M  V30 1187 H 114.672 -3.05856 2.44065 0
M  V30 1188 H 114.295 -3.86625 0.927733 0
M  V30 1189 N 115.292 -0.849877 -1.32721 0
M  V30 1190 C 116.52 -0.464754 -2.01613 0
M  V30 1191 C 116.935 0.937191 -1.63897 0
M  V30 1192 O 116.292 1.61081 -0.857856 0
M  V30 1193 C 116.343 -0.588638 -3.56675 0
M  V30 1194 O 116.064 -1.93535 -3.93034 0
M  V30 1195 C 117.565 -0.2019 -4.4284 0
M  V30 1196 H 114.785 -0.183215 -0.645502 0
M  V30 1197 H 117.329 -1.1455 -1.69407 0
M  V30 1198 H 115.484 0.0443159 -3.87375 0
M  V30 1199 H 115.898 -1.92871 -4.87751 0
M  V30 1200 H 117.372 -0.339599 -5.50954 0
M  V30 1201 H 117.849 0.857224 -4.30753 0
M  V30 1202 H 118.455 -0.809733 -4.17521 0
M  V30 1203 N 116.77 1.45427 -0.607355 0
M  V30 1204 C 118.047 1.9557 -0.0344566 0
M  V30 1205 C 118.427 1.54979 1.43334 0
M  V30 1206 O 117.775 0.812241 2.13576 0
M  V30 1207 C 117.985 3.48226 -0.232321 0
M  V30 1208 C 119.333 4.2445 -0.113001 0
M  V30 1209 O 120.357 3.55829 -0.162431 0
M  V30 1210 O 119.216 5.465 0.00209442 0
M  V30 1211 H 116.31 0.826222 0.0358667 0
M  V30 1212 H 118.856 1.55594 -0.6774 0
M  V30 1213 H 117.628 3.70739 -1.25174 0
M  V30 1214 H 117.251 3.95092 0.445896 0
M  V30 1215 N 118.248 0.346503 1.53744 0
M  V30 1216 C 119.488 -0.249413 2.02873 0
M  V30 1217 C 119.852 -1.47532 1.22876 0
M  V30 1218 O 121.053 -2.1456 1.61918 0
M  V30 1219 C 119.324 -0.552909 3.53097 0
M  V30 1220 S 120.883 -1.12521 4.24128 0
M  V30 1221 H 117.701 -0.074042 0.707134 0
M  V30 1222 H 120.303 0.48495 1.8939 0
M  V30 1223 H 119.007 0.347083 4.0893 0
M  V30 1224 H 118.538 -1.31686 3.70705 0
M  V30 1225 H 120.553 -2.41075 4.33702 0
M  V30 1226 N 119.726 -1.57421 0.075193 0
M  V30 1227 C 121.142 -1.57099 -0.281444 0
M  V30 1228 C 121.342 -1.08486 -1.69803 0
M  V30 1229 O 120.398 -0.752279 -2.41033 0
M  V30 1230 C 121.711 -3.00571 -0.0880041 0
M  V30 1231 C 123.259 -3.12605 -0.157281 0
M  V30 1232 C 123.734 -4.57999 0.0079207 0
M  V30 1233 N 125.225 -4.63176 -0.0475725 0
M  V30 1234 C 125.96 -5.73373 0.0557876 0
M  V30 1235 N 125.456 -6.92473 0.21286 0
M  V30 1236 N 127.249 -5.621 -0.00152098 0
M  V30 1237 H 119.4 -1.87335 1.00098 0
M  V30 1238 H 121.663 -0.86377 0.390646 0
M  V30 1239 H 121.369 -3.40262 0.889629 0
M  V30 1240 H 121.243 -3.67754 -0.838875 0
M  V30 1241 H 123.63 -2.72798 -1.1254 0
M  V30 1242 H 123.711 -2.48053 0.62475 0
M  V30 1243 H 123.355 -4.98496 0.972824 0
M  V30 1244 H 123.285 -5.20586 -0.793556 0
M  V30 1245 H 125.776 -3.7753 -0.167244 0
M  V30 1246 H 126.089 -7.72279 0.283781 0
M  V30 1247 H 124.434 -6.94556 0.248267 0
M  V30 1248 H 127.625 -4.67938 -0.122958 0
M  V30 1249 H 127.798 -6.47948 0.0824844 0
M  V30 1250 N 121.204 0.198386 -1.56346 0
M  V30 1251 C 122.114 1.2664 -1.97483 0
M  V30 1252 C 123.13 1.49989 -0.882002 0
M  V30 1253 O 124.306 1.62668 -1.18748 0
M  V30 1254 C 121.371 2.59141 -2.30319 0
M  V30 1255 C 120.432 2.43892 -3.53292 0
M  V30 1256 C 119.665 3.70074 -3.84553 0
M  V30 1257 O 119.888 4.74101 -3.1715 0
M  V30 1258 O 118.822 3.658 -4.7799 0
M  V30 1259 H 122.648 0.947304 -2.88548 0
M  V30 1260 H 120.233 0.403123 -1.43859 0
M  V30 1261 H 122.115 3.37352 -2.5253 0
M  V30 1262 H 120.79 2.90684 -1.42423 0
M  V30 1263 H 119.697 1.63803 -3.36332 0
M  V30 1264 H 121.03 2.17282 -4.41644 0
M  V30 1265 N 122.682 1.50554 0.465978 0
M  V30 1266 C 123.922 1.63439 1.22747 0
M  V30 1267 C 124.286 0.329822 1.89146 0
M  V30 1268 O 125.487 0.334161 2.66715 0
M  V30 1269 C 123.758 2.78542 2.2394 0
M  V30 1270 S 125.317 3.11591 3.0896 0
M  V30 1271 H 122.135 0.576113 0.416672 0
M  V30 1272 H 124.737 1.88357 0.523641 0
M  V30 1273 H 123.441 3.71805 1.7375 0
M  V30 1274 H 122.972 2.55726 2.98944 0
M  V30 1275 H 124.987 2.55811 4.25176 0
M  V30 1276 N 124.16 -0.719506 1.40217 0
M  V30 1277 C 125.07 -1.86378 1.42479 0
M  V30 1278 C 126.086 -1.71073 0.317834 0
M  V30 1279 O 127.262 -1.93406 0.561794 0
M  V30 1280 C 124.327 -3.22136 1.28178 0
M  V30 1281 C 123.388 -3.49723 2.48982 0
M  V30 1282 C 122.621 -4.79004 2.35353 0
M  V30 1283 O 122.844 -5.53821 1.36524 0
M  V30 1284 O 121.778 -5.06839 3.2465 0
M  V30 1285 H 125.604 -1.87425 2.38968 0
M  V30 1286 H 123.189 -0.869405 1.21498 0
M  V30 1287 H 125.071 -4.03234 1.22395 0
M  V30 1288 H 123.746 -3.21825 0.347934 0
M  V30 1289 H 122.653 -2.6865 2.60342 0
M  V30 1290 H 123.986 -3.54828 3.41113 0
M  V30 1291 N 125.638 -1.25649 -0.95132 0
M  V30 1292 C 126.863 -1.13443 -1.73624 0
M  V30 1293 C 127.288 0.307565 -1.85568 0
M  V30 1294 O 126.646 1.22282 -1.33854 0
M  V30 1295 C 126.694 -1.79723 -3.12621 0
M  V30 1296 O 125.798 -1.07912 -3.98031 0
M  V30 1297 H 125.139 -0.395872 -0.533086 0
M  V30 1298 H 127.669 -1.66276 -1.1922 0
M  V30 1299 H 127.679 -1.86141 -3.63064 0
M  V30 1300 H 126.354 -2.84633 -3.03244 0
M  V30 1301 H 124.931 -1.09398 -3.56492 0
M  V30 1302 N 127.117 1.15442 -1.07289 0
M  V30 1303 C 128.365 1.85845 -0.794096 0
M  V30 1304 C 128.686 1.82692 0.681809 0
M  V30 1305 O 127.956 1.26741 1.49377 0
M  V30 1306 H 126.536 0.688089 -0.290763 0
M  V30 1307 H 129.198 1.39947 -1.3565 0
M  V30 1308 H 128.294 2.91001 -1.12804 0
M  V30 1309 N 128.595 0.856903 1.32268 0
M  V30 1310 C 129.82 0.474569 2.01897 0
M  V30 1311 C 130.245 -0.921766 1.63967 0
M  V30 1312 O 129.603 -1.60589 0.84148 0
M  V30 1313 C 129.651 0.623799 3.55164 0
M  V30 1314 O 128.755 -0.342459 4.10976 0
M  V30 1315 H 128.096 0.190422 0.63611 0
M  V30 1316 H 130.626 1.15672 1.68764 0
M  V30 1317 H 130.636 0.512169 4.04773 0
M  V30 1318 H 129.311 1.64202 3.82113 0
M  V30 1319 H 127.888 -0.18688 3.72431 0
M  V30 1320 N 130.073 -1.45103 0.615059 0
M  V30 1321 C 131.32 -2.02183 0.113179 0
M  V30 1322 C 131.648 -1.48249 -1.25906 0
M  V30 1323 O 130.903 -0.650265 -1.84581 0
M  V30 1324 C 131.202 -3.57386 0.0318797 0
M  V30 1325 C 130.868 -4.30505 1.34077 0
M  V30 1326 C 129.53 -4.50197 1.69929 0
M  V30 1327 C 131.882 -4.72238 2.20546 0
M  V30 1328 C 129.21 -5.08881 2.91988 0
M  V30 1329 C 131.562 -5.32272 3.41861 0
M  V30 1330 C 130.226 -5.50187 3.77956 0
M  V30 1331 H 129.496 -0.739842 0.0414151 0
M  V30 1332 H 132.143 -1.74073 0.798168 0
M  V30 1333 H 130.448 -3.84817 -0.736409 0
M  V30 1334 H 132.145 -3.99264 -0.372712 0
M  V30 1335 H 128.735 -4.15496 1.05173 0
M  V30 1336 H 132.919 -4.56751 1.94146 0
M  V30 1337 H 128.175 -5.20939 3.2005 0
M  V30 1338 H 132.349 -5.63563 4.09109 0
M  V30 1339 H 129.976 -5.95427 4.72622 0
M  V30 1340 N 131.551 -0.354651 -1.53558 0
M  V30 1341 C 132.779 0.239515 -2.05509 0
M  V30 1342 C 133.194 1.4333 -1.2289 0
M  V30 1343 O 132.551 1.80538 -0.266899 0
M  V30 1344 C 132.602 0.643719 -3.55723 0
M  V30 1345 O 132.323 -0.502602 -4.35207 0
M  V30 1346 C 133.824 1.29743 -4.23889 0
M  V30 1347 H 131.044 0.0442697 -0.669538 0
M  V30 1348 H 133.588 -0.509856 -1.98042 0
M  V30 1349 H 131.743 1.34302 -3.63376 0
M  V30 1350 H 132.157 -0.178172 -5.24197 0
M  V30 1351 H 133.631 1.53091 -5.30346 0
M  V30 1352 H 134.108 2.25441 -3.76926 0
M  V30 1353 H 134.714 0.639865 -4.20459 0
M  V30 1354 N 133.029 1.57378 -0.0835403 0
M  V30 1355 C 133.992 2.12252 0.864959 0
M  V30 1356 C 134.992 1.04916 1.21858 0
M  V30 1357 O 136.182 1.30853 1.14991 0
M  V30 1358 C 133.314 2.63358 2.16461 0
M  V30 1359 H 134.507 2.97371 0.388676 0
M  V30 1360 H 132.06 1.55423 0.165317 0
M  V30 1361 H 132.795 1.81727 2.686 0
M  V30 1362 H 132.58 3.41826 1.92087 0
M  V30 1363 H 134.07 3.05847 2.84337 0
M  V30 1364 N 134.507 -0.190092 1.56449 0
M  V30 1365 C 135.732 -0.929864 1.85387 0
M  V30 1366 C 136.157 -1.7585 0.667704 0
M  V30 1367 O 135.515 -1.77198 -0.383459 0
M  V30 1368 C 135.563 -1.79773 3.12593 0
M  V30 1369 O 134.667 -2.89713 2.93496 0
M  V30 1370 H 134.008 -0.261574 0.610307 0
M  V30 1371 H 136.538 -0.193896 2.03679 0
M  V30 1372 H 136.548 -2.20139 3.43515 0
M  V30 1373 H 135.223 -1.18892 3.98544 0
M  V30 1374 H 133.8 -2.53065 2.73884 0
M  V30 1375 N 135.985 -1.50799 -0.457987 0
M  V30 1376 C 136.895 -1.73426 -1.57989 0
M  V30 1377 C 137.911 -0.617745 -1.62665 0
M  V30 1378 O 139.087 -0.897614 -1.80291 0
M  V30 1379 C 136.152 -1.83557 -2.94122 0
M  V30 1380 C 135.213 -3.07345 -2.99729 0
M  V30 1381 C 134.446 -3.16983 -4.29368 0
M  V30 1382 O 134.669 -2.33077 -5.20607 0
M  V30 1383 O 133.603 -4.09812 -4.40837 0
M  V30 1384 H 137.429 -2.68555 -1.41817 0
M  V30 1385 H 135.014 -1.35052 -0.638859 0
M  V30 1386 H 136.896 -1.92326 -3.74952 0
M  V30 1387 H 135.571 -0.916137 -3.10465 0
M  V30 1388 H 134.478 -3.04068 -2.1793 0
M  V30 1389 H 135.811 -3.9891 -2.88326 0
M  V30 1390 N 137.463 0.71206 -1.40597 0
M  V30 1391 C 138.411 1.84746 -1.41321 0
M  V30 1392 C 139.405 1.66842 -0.293268 0
M  V30 1393 O 140.611 1.73904 -0.464481 0
M  V30 1394 H 136.986 0.608522 -0.441819 0
M  V30 1395 H 138.957 1.81252 -2.37045 0
M  V30 1396 C 137.706 3.22638 -1.29614 0
M  V30 1397 H 137.029 3.37023 -2.15071 0
M  V30 1398 H 138.469 4.02209 -1.3418 0
M  V30 1399 C 136.928 3.36899 -0.00673121 0
M  V30 1400 O 137.458 3.90186 0.954859 0
M  V30 1401 N 135.664 2.9053 0.0639327 0
M  V30 1402 H 135.211 2.47353 -0.719311 0
M  V30 1403 H 135.169 3.0045 0.926118 0
M  V30 1404 N 138.941 1.26152 0.944643 0
M  V30 1405 C 139.891 1.04081 2.02857 0
M  V30 1406 C 140.875 -0.0256555 1.6088 0
M  V30 1407 O 142.067 0.190884 1.75968 0
M  V30 1408 C 139.196 0.672118 3.36656 0
M  V30 1409 C 138.282 1.77586 3.85128 0
M  V30 1410 N 138.673 3.01272 4.06287 0
M  V30 1411 C 136.971 1.65867 4.1401 0
M  V30 1412 C 137.672 3.72983 4.46384 0
M  V30 1413 N 136.648 3.00653 4.52889 0
M  V30 1414 H 140.45 1.97968 2.17223 0
M  V30 1415 H 137.964 1.16618 1.13022 0
M  V30 1416 H 139.961 0.495166 4.13949 0
M  V30 1417 H 138.621 -0.259307 3.23663 0
M  V30 1418 H 139.632 3.37213 3.93075 0
M  V30 1419 H 136.309 0.796907 4.09824 0
M  V30 1420 H 137.699 4.792 4.70975 0
M  V30 1421 N 140.419 -1.14872 1.07899 0
M  V30 1422 C 141.349 -2.2193 0.725887 0
M  V30 1423 C 142.33 -1.67622 -0.28927 0
M  V30 1424 O 143.515 -1.93533 -0.160787 0
M  V30 1425 C 140.645 -3.47061 0.128856 0
M  V30 1426 C 139.599 -4.14363 1.07178 0
M  V30 1427 C 138.925 -5.33636 0.337229 0
M  V30 1428 C 140.225 -4.63492 2.40775 0
M  V30 1429 H 141.919 -2.51724 1.62097 0
M  V30 1430 H 139.465 -1.20991 0.780838 0
M  V30 1431 H 141.418 -4.21199 -0.130147 0
M  V30 1432 H 140.142 -3.16617 -0.80134 0
M  V30 1433 H 138.801 -3.42173 1.3158 0
M  V30 1434 H 138.449 -4.99449 -0.596606 0
M  V30 1435 H 138.149 -5.79609 0.965788 0
M  V30 1436 H 139.673 -6.10539 0.0861567 0
M  V30 1437 H 141.087 -5.2913 2.20669 0
M  V30 1438 H 139.484 -5.20148 2.99276 0
M  V30 1439 H 140.554 -3.78834 3.02676 0
M  V30 1440 N 141.898 -0.863906 -1.31812 0
M  V30 1441 C 143.314 -0.555004 -1.49639 0
M  V30 1442 C 143.514 0.912266 -1.79666 0
M  V30 1443 O 142.57 1.69479 -1.87171 0
M  V30 1444 C 143.883 -1.44998 -2.63431 0
M  V30 1445 C 145.431 -1.45138 -2.77316 0
M  V30 1446 C 145.906 -2.33179 -3.94197 0
M  V30 1447 N 147.397 -2.31025 -4.01474 0
M  V30 1448 C 148.132 -2.95871 -4.9117 0
M  V30 1449 N 147.628 -3.69863 -5.8581 0
M  V30 1450 N 149.421 -2.85211 -4.84367 0
M  V30 1451 H 141.572 -1.81339 -1.10589 0
M  V30 1452 H 143.835 -0.77505 -0.545895 0
M  V30 1453 H 143.541 -2.49377 -2.48 0
M  V30 1454 H 143.415 -1.14409 -3.59431 0
M  V30 1455 H 145.802 -0.415201 -2.92164 0
M  V30 1456 H 145.883 -1.79747 -1.82001 0
M  V30 1457 H 145.527 -3.3687 -3.80107 0
M  V30 1458 H 145.457 -1.95897 -4.88807 0
M  V30 1459 H 147.948 -1.77238 -3.33759 0
M  V30 1460 H 148.261 -4.16486 -6.50968 0
M  V30 1461 H 146.606 -3.73971 -5.85808 0
M  V30 1462 H 149.797 -2.26948 -4.09405 0
M  V30 1463 H 149.97 -3.36027 -5.54066 0
M  V30 1464 N 143.376 1.44774 -0.622745 0
M  V30 1465 C 144.326 2.2774 0.108889 0
M  V30 1466 C 145.31 1.38189 0.824175 0
M  V30 1467 O 146.502 1.62063 0.711664 0
M  V30 1468 C 143.631 3.25353 1.09546 0
M  V30 1469 C 142.717 4.22392 0.380232 0
M  V30 1470 N 143.108 5.02388 -0.586535 0
M  V30 1471 C 141.406 4.41588 0.625792 0
M  V30 1472 C 142.107 5.72894 -1.00834 0
M  V30 1473 N 141.083 5.42479 -0.348878 0
M  V30 1474 H 144.885 2.86993 -0.63341 0
M  V30 1475 H 142.399 1.5611 -0.447589 0
M  V30 1476 H 144.396 3.83538 1.63414 0
M  V30 1477 H 143.056 2.6766 1.83815 0
M  V30 1478 H 144.067 5.0885 -0.963975 0
M  V30 1479 H 140.744 3.95003 1.352 0
M  V30 1480 H 142.134 6.47158 -1.80656 0
M  V30 1481 N 144.854 0.36279 1.53368 0
M  V30 1482 C 146.094 -0.227882 2.03126 0
M  V30 1483 C 146.458 -1.4622 1.24434 0
M  V30 1484 O 147.659 -2.12831 1.64184 0
M  V30 1485 C 145.93 -0.515427 3.53664 0
M  V30 1486 S 147.489 -1.08017 4.25297 0
M  V30 1487 H 144.307 -0.0665377 0.70788 0
M  V30 1488 H 146.909 0.50501 1.88865 0
M  V30 1489 H 145.613 0.390436 4.08539 0
M  V30 1490 H 145.144 -1.27747 3.72081 0
M  V30 1491 H 147.159 -2.36462 4.36234 0
M  V30 1492 N 146.332 -1.57332 0.0918853 0
M  V30 1493 C 147.262 -2.16872 -0.865371 0
M  V30 1494 C 148.243 -1.10118 -1.29646 0
M  V30 1495 O 149.428 -1.38242 -1.36392 0
M  V30 1496 C 146.558 -2.74649 -2.12569 0
M  V30 1497 C 145.512 -3.86747 -1.83333 0
M  V30 1498 C 144.838 -4.31212 -3.16166 0
M  V30 1499 C 146.138 -5.10089 -1.1228 0
M  V30 1500 H 147.832 -2.97114 -0.369307 0
M  V30 1501 H 145.378 -1.42918 -0.176194 0
M  V30 1502 H 147.331 -3.14952 -2.7997 0
M  V30 1503 H 146.055 -1.91657 -2.64452 0
M  V30 1504 H 144.714 -3.46978 -1.18331 0
M  V30 1505 H 144.362 -3.45115 -3.6593 0
M  V30 1506 H 144.062 -5.06788 -2.97388 0
M  V30 1507 H 145.586 -4.74146 -3.84731 0
M  V30 1508 H 147 -5.47582 -1.69785 0
M  V30 1509 H 145.397 -5.91073 -1.03693 0
M  V30 1510 H 146.467 -4.84786 -0.105041 0
M  V30 1511 N 147.81 0.181792 -1.56548 0
M  V30 1512 C 149.035 0.920019 -1.85877 0
M  V30 1513 C 149.46 1.75494 -0.677021 0
M  V30 1514 O 148.818 1.77399 0.374056 0
M  V30 1515 C 148.866 1.78112 -3.13542 0
M  V30 1516 O 147.97 2.88152 -2.95029 0
M  V30 1517 H 147.311 0.258334 -0.611686 0
M  V30 1518 H 149.841 0.183092 -2.03779 0
M  V30 1519 H 149.851 2.18314 -3.44678 0
M  V30 1520 H 148.526 1.16777 -3.99169 0
M  V30 1521 H 147.103 2.51609 -2.75222 0
M  V30 1522 N 149.288 1.51039 0.449983 0
M  V30 1523 C 150.528 1.64732 1.21007 0
M  V30 1524 C 150.892 0.349865 1.88785 0
M  V30 1525 O 152.093 0.362431 2.66345 0
M  V30 1526 C 150.364 2.80902 2.20973 0
M  V30 1527 S 151.923 3.14851 3.05638 0
M  V30 1528 H 148.741 0.5805 0.410538 0
M  V30 1529 H 151.343 1.88901 0.503634 0
M  V30 1530 H 150.047 3.73627 1.69796 0
M  V30 1531 H 149.578 2.58882 2.96215 0
M  V30 1532 H 151.593 2.60306 4.22439 0
M  V30 1533 N 150.766 -0.704594 1.40972 0
M  V30 1534 C 151.991 -1.49858 1.43378 0
M  V30 1535 C 152.416 -1.88061 0.038184 0
M  V30 1536 O 151.774 -1.5402 -0.956425 0
M  V30 1537 C 151.822 -2.74333 2.34038 0
M  V30 1538 O 150.926 -3.7147 1.7912 0
M  V30 1539 H 150.267 -0.45139 0.486974 0
M  V30 1540 H 152.797 -0.866832 1.8533 0
M  V30 1541 H 152.807 -3.22741 2.49604 0
M  V30 1542 H 151.482 -2.45863 3.35446 0
M  V30 1543 H 150.059 -3.30363 1.72958 0
M  V30 1544 N 152.244 -1.26651 -0.937939 0
M  V30 1545 C 153.191 -1.0849 -2.03712 0
M  V30 1546 C 154.161 0.011033 -1.66096 0
M  V30 1547 O 155.346 -0.149353 -1.90215 0
M  V30 1548 C 152.486 -0.72735 -3.37348 0
M  V30 1549 C 151.599 -1.89986 -3.87981 0
M  V30 1550 C 150.734 -1.48513 -5.10017 0
M  V30 1551 C 149.773 -2.62575 -5.5292 0
M  V30 1552 N 148.91 -2.21762 -6.66158 0
M  V30 1553 H 153.75 -2.02551 -2.18579 0
M  V30 1554 H 151.287 -1.00844 -1.07093 0
M  V30 1555 H 153.245 -0.50092 -4.14182 0
M  V30 1556 H 151.875 0.176298 -3.22318 0
M  V30 1557 H 150.927 -2.23913 -3.07518 0
M  V30 1558 H 152.239 -2.75586 -4.15757 0
M  V30 1559 H 151.393 -1.21934 -5.94321 0
M  V30 1560 H 150.132 -0.60009 -4.83994 0
M  V30 1561 H 149.137 -2.8988 -4.67172 0
M  V30 1562 H 150.362 -3.51685 -5.80943 0
M  V30 1563 H 148.308 -1.35696 -6.41812 0
M  V30 1564 H 148.225 -3.00903 -6.93537 0
M  V30 1565 H 149.493 -1.98403 -7.53828 0
M  V30 1566 N 153.722 1.14298 -1.08507 0
M  V30 1567 C 154.962 1.87016 -0.824894 0
M  V30 1568 C 155.326 1.81099 0.637735 0
M  V30 1569 O 156.527 2.48963 1.01345 0
M  V30 1570 C 154.798 3.31584 -1.33368 0
M  V30 1571 S 156.357 4.21903 -1.20596 0
M  V30 1572 H 153.175 0.645259 -0.2986 0
M  V30 1573 H 155.777 1.37822 -1.38656 0
M  V30 1574 H 154.481 3.33439 -2.39262 0
M  V30 1575 H 154.012 3.85836 -0.767734 0
M  V30 1576 H 156.027 4.95971 -0.150891 0
M  V30 1577 N 155.201 0.870884 1.31352 0
M  V30 1578 C 156.617 0.562932 1.49343 0
M  V30 1579 C 156.817 -0.902725 1.80148 0
M  V30 1580 O 155.873 -1.68484 1.88067 0
M  V30 1581 C 157.186 1.46393 2.62659 0
M  V30 1582 C 158.734 1.46607 2.76542 0
M  V30 1583 C 159.209 2.35266 3.92955 0
M  V30 1584 N 160.7 2.33151 4.00243 0
M  V30 1585 C 161.435 2.98471 4.89594 0
M  V30 1586 N 160.931 3.72964 5.8384 0
M  V30 1587 N 162.724 2.87775 4.82848 0
M  V30 1588 H 154.875 1.81923 1.09626 0
M  V30 1589 H 157.138 0.777934 0.541777 0
M  V30 1590 H 156.844 2.50689 2.46674 0
M  V30 1591 H 156.718 1.16314 3.58819 0
M  V30 1592 H 159.105 0.43069 2.9194 0
M  V30 1593 H 159.186 1.8071 1.81046 0
M  V30 1594 H 158.83 3.38881 3.78315 0
M  V30 1595 H 158.76 1.98487 4.87761 0
M  V30 1596 H 161.251 1.79006 3.32814 0
M  V30 1597 H 161.564 4.19932 6.4875 0
M  V30 1598 H 159.909 3.77073 5.83816 0
M  V30 1599 H 163.1 2.29116 4.08195 0
M  V30 1600 H 163.273 3.38961 5.52277 0
M  V30 1601 N 156.679 -1.44442 0.630414 0
M  V30 1602 C 157.626 -2.30678 -0.0749355 0
M  V30 1603 C 158.596 -1.4344 -0.837502 0
M  V30 1604 O 159.781 -1.72343 -0.818684 0
M  V30 1605 C 156.921 -3.28706 -1.05103 0
M  V30 1606 C 156.034 -4.31046 -0.286954 0
M  V30 1607 C 155.169 -5.16167 -1.2548 0
M  V30 1608 C 154.208 -6.10216 -0.479843 0
M  V30 1609 N 153.345 -6.88039 -1.39811 0
M  V30 1610 H 158.185 -2.90454 0.666386 0
M  V30 1611 H 155.722 -1.43107 0.340404 0
M  V30 1612 H 157.68 -3.84027 -1.63031 0
M  V30 1613 H 156.31 -2.70632 -1.75949 0
M  V30 1614 H 155.362 -3.78203 0.408243 0
M  V30 1615 H 156.674 -4.97794 0.316657 0
M  V30 1616 H 155.828 -5.76002 -1.90544 0
M  V30 1617 H 154.567 -4.49491 -1.89233 0
M  V30 1618 H 153.572 -5.49491 0.184295 0
M  V30 1619 H 154.797 -6.78928 0.152965 0
M  V30 1620 H 152.743 -6.24032 -2.02287 0
M  V30 1621 H 152.66 -7.51223 -0.848508 0
M  V30 1622 H 153.928 -7.52397 -2.03762 0
M  V30 1623 N 158.157 -0.370918 -1.53173 0
M  V30 1624 C 159.067 0.480823 -2.2962 0
M  V30 1625 C 160.083 1.08789 -1.35798 0
M  V30 1626 O 161.259 1.09768 -1.68858 0
M  V30 1627 C 158.324 1.60227 -3.07454 0
M  V30 1628 C 157.385 1.0222 -4.16953 0
M  V30 1629 C 156.618 2.0902 -4.91066 0
M  V30 1630 O 156.841 3.30222 -4.65091 0
M  V30 1631 O 155.775 1.71778 -5.76867 0
M  V30 1632 H 159.601 -0.141421 -3.03371 0
M  V30 1633 H 157.186 -0.135146 -1.48787 0
M  V30 1634 H 159.068 2.25417 -3.56041 0
M  V30 1635 H 157.743 2.20982 -2.36535 0
M  V30 1636 H 156.65 0.334064 -3.72605 0
M  V30 1637 H 157.983 0.459131 -4.90054 0
M  V30 1638 N 159.635 1.57281 -0.100228 0
M  V30 1639 C 160.568 2.09976 0.893612 0
M  V30 1640 C 161.546 1.01155 1.27304 0
M  V30 1641 O 162.73 1.28687 1.37739 0
M  V30 1642 C 159.857 2.58098 2.19324 0
M  V30 1643 C 158.903 3.78626 1.96328 0
M  V30 1644 S 159.736 5.21959 1.19662 0
M  V30 1645 C 160.892 5.73435 2.50844 0
M  V30 1646 H 161.125 2.93946 0.44534 0
M  V30 1647 H 158.658 1.53985 0.113167 0
M  V30 1648 H 160.616 2.8648 2.94005 0
M  V30 1649 H 159.277 1.74344 2.61272 0
M  V30 1650 H 158.47 4.10382 2.92579 0
M  V30 1651 H 158.072 3.50763 1.29775 0
M  V30 1652 H 160.364 5.82015 3.46792 0
M  V30 1653 H 161.307 6.7185 2.23659 0
M  V30 1654 H 161.715 5.01395 2.59352 0
M  V30 1655 N 161.113 -0.173488 1.56642 0
M  V30 1656 C 162.361 -0.888706 1.81512 0
M  V30 1657 C 162.682 -1.82875 0.676872 0
M  V30 1658 O 161.952 -1.93536 -0.303414 0
M  V30 1659 H 160.532 -0.331164 0.669582 0
M  V30 1660 H 163.194 -0.173823 1.94123 0
M  V30 1661 H 162.29 -1.46691 2.75478 0
M  V30 1662 N 162.591 -1.51276 -0.441967 0
M  V30 1663 C 163.523 -1.68444 -1.55433 0
M  V30 1664 C 164.536 -0.565187 -1.52674 0
M  V30 1665 O 165.725 -0.839356 -1.57534 0
M  V30 1666 C 162.825 -1.67966 -2.94348 0
M  V30 1667 C 161.998 -2.964 -3.21661 0
M  V30 1668 C 161.057 -2.88171 -4.40277 0
M  V30 1669 O 160.083 -3.62119 -4.39157 0
M  V30 1670 N 161.285 -2.03706 -5.43584 0
M  V30 1671 H 164.05 -2.644 -1.41112 0
M  V30 1672 H 161.611 -1.49104 -0.630838 0
M  V30 1673 H 163.603 -1.60035 -3.71713 0
M  V30 1674 H 162.173 -0.796225 -3.0229 0
M  V30 1675 H 161.393 -3.18234 -2.32638 0
M  V30 1676 H 162.681 -3.81427 -3.36736 0
M  V30 1677 H 162.079 -1.42995 -5.47329 0
M  V30 1678 H 160.636 -2.01658 -6.1982 0
M  V30 1679 N 164.069 0.697108 -1.41344 0
M  V30 1680 C 165.315 1.4593 -1.40827 0
M  V30 1681 C 165.648 1.94193 -0.0167098 0
M  V30 1682 O 164.923 1.69425 0.955263 0
M  V30 1683 C 165.206 2.67229 -2.41373 0
M  V30 1684 C 165.059 2.24741 -3.8963 0
M  V30 1685 C 166.378 3.69423 -2.39196 0
M  V30 1686 H 163.497 0.529303 -0.512842 0
M  V30 1687 H 166.139 0.794112 -1.72609 0
M  V30 1688 H 164.289 3.23982 -2.14401 0
M  V30 1689 H 165.961 1.73327 -4.27499 0
M  V30 1690 H 164.204 1.56542 -4.0457 0
M  V30 1691 H 164.875 3.1177 -4.55525 0
M  V30 1692 H 167.351 3.2234 -2.63128 0
M  V30 1693 H 166.227 4.51907 -3.11563 0
M  V30 1694 H 166.488 4.19012 -1.41001 0
M  V30 1695 N 165.547 1.27147 0.931209 0
M  V30 1696 C 166.457 1.11372 2.06478 0
M  V30 1697 C 167.473 0.044645 1.73943 0
M  V30 1698 O 168.649 0.250417 1.99837 0
M  V30 1699 C 165.714 0.758838 3.38294 0
M  V30 1700 C 164.775 1.90841 3.84549 0
M  V30 1701 C 164.008 1.57036 5.10074 0
M  V30 1702 O 164.231 0.476645 5.68405 0
M  V30 1703 O 163.165 2.40839 5.51616 0
M  V30 1704 H 166.991 2.06493 2.22698 0
M  V30 1705 H 164.576 1.06301 1.04978 0
M  V30 1706 H 166.458 0.574098 4.17471 0
M  V30 1707 H 165.133 -0.162879 3.2329 0
M  V30 1708 H 164.04 2.14819 3.06274 0
M  V30 1709 H 165.373 2.81021 4.04089 0
M  V30 1710 N 167.025 -1.13721 1.09112 0
M  V30 1711 C 168.274 -1.84275 0.82009 0
M  V30 1712 C 168.587 -1.84253 -0.656509 0
M  V30 1713 O 169.793 -2.50668 -1.04296 0
M  V30 1714 C 168.249 -3.30825 1.41714 0
M  V30 1715 C 167.857 -3.39244 2.92605 0
M  V30 1716 C 169.601 -4.06443 1.22492 0
M  V30 1717 C 167.508 -4.80047 3.45411 0
M  V30 1718 H 166.438 -0.690387 0.30312 0
M  V30 1719 H 169.089 -1.28146 1.31343 0
M  V30 1720 H 167.471 -3.86737 0.851498 0
M  V30 1721 H 168.645 -2.93344 3.55367 0
M  V30 1722 H 166.96 -2.77088 3.10823 0
M  V30 1723 H 169.557 -5.10387 1.59402 0
M  V30 1724 H 169.9 -4.15972 0.165299 0
M  V30 1725 H 170.433 -3.56852 1.75788 0
M  V30 1726 H 167.172 -4.75709 4.50978 0
M  V30 1727 H 166.692 -5.26455 2.87411 0
M  V30 1728 H 168.371 -5.48957 3.42425 0
M  V30 1729 N 168.503 -0.877838 -1.30888 0
M  V30 1730 C 169.728 -0.506629 -2.01117 0
M  V30 1731 C 170.153 0.895564 -1.65412 0
M  V30 1732 O 169.511 1.5923 -0.866922 0
M  V30 1733 C 169.559 -0.680223 -3.54126 0
M  V30 1734 O 168.663 0.277033 -4.11468 0
M  V30 1735 H 168.004 -0.200518 -0.633 0
M  V30 1736 H 170.534 -1.18342 -1.66902 0
M  V30 1737 H 170.544 -0.5765 -4.03907 0
M  V30 1738 H 169.219 -1.70261 -3.79452 0
M  V30 1739 H 167.796 0.127606 -3.72682 0
M  V30 1740 N 169.982 1.44106 -0.638065 0
M  V30 1741 C 171.207 2.0685 -0.150916 0
M  V30 1742 C 171.632 1.47417 1.16833 0
M  V30 1743 O 170.99 0.578264 1.71831 0
M  V30 1744 C 171.038 3.60555 -0.05708 0
M  V30 1745 O 170.142 4.00465 0.984972 0
M  V30 1746 H 169.483 0.658151 -0.0879399 0
M  V30 1747 H 172.013 1.84865 -0.876707 0
M  V30 1748 H 172.023 4.07789 0.131232 0
M  V30 1749 H 170.698 4.03193 -1.02021 0
M  V30 1750 H 169.275 3.64849 0.770672 0
M  V30 1751 N 171.46 0.379036 1.52974 0
M  V30 1752 C 172.7 -0.206325 2.03356 0
M  V30 1753 C 173.064 -1.44892 1.25977 0
M  V30 1754 O 174.265 -2.11078 1.66432 0
M  V30 1755 C 172.536 -0.477887 3.54191 0
M  V30 1756 S 174.095 -1.035 4.26419 0
M  V30 1757 H 170.913 -0.0590259 0.708546 0
M  V30 1758 H 173.515 0.525013 1.88319 0
M  V30 1759 H 172.219 0.433745 4.08101 0
M  V30 1760 H 171.75 -1.23793 3.73415 0
M  V30 1761 H 173.765 -2.31821 4.38718 0
M  V30 1762 N 172.938 -1.57226 0.108567 0
M  V30 1763 C 174.166 -1.99179 -0.559954 0
M  V30 1764 C 174.581 -0.988022 -1.60884 0
M  V30 1765 O 173.938 0.0205512 -1.82488 0
M  V30 1766 C 173.989 -3.41159 -1.19552 0
M  V30 1767 O 173.71 -4.37694 -0.188577 0
M  V30 1768 C 175.211 -3.98188 -1.94837 0
M  V30 1769 H 172.431 -0.654228 -0.149088 0
M  V30 1770 H 174.975 -2.03598 0.19183 0
M  V30 1771 H 173.13 -3.37711 -1.89815 0
M  V30 1772 H 173.544 -5.20469 -0.649014 0
M  V30 1773 H 175.018 -4.99644 -2.34648 0
M  V30 1774 H 175.495 -3.3675 -2.81951 0
M  V30 1775 H 176.101 -4.0515 -1.2936 0
M  V30 1776 N 174.416 0.165178 -1.56732 0
M  V30 1777 C 175.662 0.882112 -1.82611 0
M  V30 1778 C 175.995 1.81628 -0.687378 0
M  V30 1779 O 175.27 1.92009 0.310267 0
M  V30 1780 C 175.553 1.67245 -3.18906 0
M  V30 1781 C 175.406 0.760987 -4.43316 0
M  V30 1782 C 176.725 2.63884 -3.52212 0
M  V30 1783 H 173.844 0.319242 -0.664269 0
M  V30 1784 H 176.486 0.148052 -1.89422 0
M  V30 1785 H 174.636 2.29824 -3.1323 0
M  V30 1786 H 176.308 0.147596 -4.61064 0
M  V30 1787 H 174.551 0.0694102 -4.33744 0
M  V30 1788 H 175.222 1.34962 -5.35247 0
M  V30 1789 H 177.698 2.11429 -3.58381 0
M  V30 1790 H 176.574 3.16245 -4.48643 0
M  V30 1791 H 176.835 3.44377 -2.77231 0
M  V30 1792 N 175.894 1.51508 0.433938 0
M  V30 1793 C 177.171 1.54888 1.19453 0
M  V30 1794 C 177.551 0.315154 2.08734 0
M  V30 1795 O 176.899 -0.699558 2.17528 0
M  V30 1796 C 177.109 2.86467 1.99342 0
M  V30 1797 C 178.457 3.38545 2.56267 0
M  V30 1798 O 179.481 2.88041 2.0955 0
M  V30 1799 O 178.34 4.26675 3.41483 0
M  V30 1800 H 175.434 0.622863 0.544032 0
M  V30 1801 H 177.98 1.63823 0.442732 0
M  V30 1802 H 176.752 3.67718 1.33788 0
M  V30 1803 H 176.375 2.8071 2.8158 0
M  V30 1804 N 177.372 -0.689602 1.41712 0
M  V30 1805 C 178.788 -1.00093 1.24312 0
M  V30 1806 C 178.988 -2.01036 0.136729 0
M  V30 1807 O 178.044 -2.47562 -0.496918 0
M  V30 1808 C 179.357 -1.51985 2.59463 0
M  V30 1809 C 180.905 -1.63838 2.66695 0
M  V30 1810 C 181.38 -2.1913 4.02177 0
M  V30 1811 N 182.871 -2.26483 4.04054 0
M  V30 1812 C 183.606 -2.70306 5.0569 0
M  V30 1813 N 183.102 -3.13691 6.17713 0
M  V30 1814 N 184.895 -2.69923 4.9305 0
M  V30 1815 H 177.046 -0.0210029 2.1239 0
M  V30 1816 H 179.309 -0.0718733 0.945272 0
M  V30 1817 H 179.015 -0.85269 3.41207 0
M  V30 1818 H 178.889 -2.50103 2.82362 0
M  V30 1819 H 181.276 -2.29664 1.85306 0
M  V30 1820 H 181.357 -0.642492 2.476 0
M  V30 1821 H 181.001 -1.53918 4.84016 0
M  V30 1822 H 180.931 -3.19482 4.18615 0
M  V30 1823 H 183.422 -1.95874 3.23174 0
M  V30 1824 H 183.735 -3.45773 6.9113 0
M  V30 1825 H 182.08 -3.11585 6.21241 0
M  V30 1826 H 185.271 -2.35382 4.04614 0
M  V30 1827 H 185.444 -3.03758 5.72394 0
M  V30 1828 N 178.85 -1.27639 -0.924453 0
M  V30 1829 C 180.127 -1.04887 -1.651 0
M  V30 1830 C 180.507 0.415327 -2.06974 0
M  V30 1831 O 179.855 1.39923 -1.80648 0
M  V30 1832 C 180.065 -2.01348 -2.85061 0
M  V30 1833 C 181.413 -2.30899 -3.56329 0
M  V30 1834 O 182.437 -1.99348 -2.95193 0
M  V30 1835 O 181.296 -2.84699 -4.66485 0
M  V30 1836 H 178.39 -0.400083 -0.723784 0
M  V30 1837 H 180.936 -1.38916 -0.974703 0
M  V30 1838 H 179.708 -3.0008 -2.51133 0
M  V30 1839 H 179.331 -1.679 -3.6041 0
M  V30 1840 N 180.328 1.1314 -1.09713 0
M  V30 1841 C 181.556 1.88321 -0.856898 0
M  V30 1842 C 181.971 1.79276 0.592073 0
M  V30 1843 O 181.328 1.16142 1.40774 0
M  V30 1844 C 181.379 3.37812 -1.28706 0
M  V30 1845 O 181.1 3.46627 -2.67921 0
M  V30 1846 C 182.601 4.29952 -1.07964 0
M  V30 1847 H 179.821 0.596094 -0.308079 0
M  V30 1848 H 182.365 1.43205 -1.45988 0
M  V30 1849 H 180.52 3.805 -0.727912 0
M  V30 1850 H 180.934 4.39579 -2.8613 0
M  V30 1851 H 182.408 5.33159 -1.42986 0
M  V30 1852 H 182.885 4.39196 -0.0176577 0
M  V30 1853 H 183.491 3.93036 -1.62489 0
M  V30 1854 N 181.806 0.884767 1.30421 0
M  V30 1855 C 183.052 0.503851 1.96441 0
M  V30 1856 C 183.385 -0.944518 1.69684 0
M  V30 1857 O 182.66 -1.66737 1.00145 0
M  V30 1858 C 182.943 0.779085 3.51571 0
M  V30 1859 C 182.796 2.27807 3.87846 0
M  V30 1860 C 184.115 0.255452 4.39358 0
M  V30 1861 H 181.234 0.184533 0.713524 0
M  V30 1862 H 183.876 1.10872 1.54297 0
M  V30 1863 H 182.026 0.264274 3.876 0
M  V30 1864 H 183.698 2.86127 3.61841 0
M  V30 1865 H 181.941 2.74479 3.35922 0
M  V30 1866 H 182.612 2.42125 4.96064 0
M  V30 1867 H 185.088 0.696079 4.10236 0
M  V30 1868 H 183.964 0.477361 5.4682 0
M  V30 1869 H 184.225 -0.843293 4.33983 0
M  V30 1870 N 183.284 -1.43765 0.645699 0
M  V30 1871 C 184.524 -2.03776 0.159542 0
M  V30 1872 C 184.888 -1.49792 -1.2011 0
M  V30 1873 O 186.089 -2.01398 -1.78023 0
M  V30 1874 C 184.36 -3.57036 0.161251 0
M  V30 1875 S 185.919 -4.3804 -0.258159 0
M  V30 1876 H 182.737 -0.707717 0.0682454 0
M  V30 1877 H 185.339 -1.75941 0.852352 0
M  V30 1878 H 184.043 -3.9383 1.15439 0
M  V30 1879 H 183.574 -3.89503 -0.552339 0
M  V30 1880 H 185.589 -4.7302 -1.49889 0
M  V30 1881 N 184.763 -0.387143 -1.52771 0
M  V30 1882 C 186.011 0.195349 -2.01154 0
M  V30 1883 C 186.332 1.475 -1.27549 0
M  V30 1884 O 185.602 1.91878 -0.394924 0
M  V30 1885 H 184.182 0.075178 -0.743207 0
M  V30 1886 H 186.844 -0.518337 -1.87881 0
M  V30 1887 H 185.94 0.407096 -3.09434 0
M  V30 1888 N 186.241 1.57166 -0.116904 0
M  V30 1889 C 187.481 1.97008 0.544715 0
M  V30 1890 C 187.845 0.998713 1.63981 0
M  V30 1891 O 189.046 1.28644 2.36018 0
M  V30 1892 C 187.317 3.41145 1.06559 0
M  V30 1893 S 188.876 4.02998 1.73603 0
M  V30 1894 H 185.694 0.688587 0.177112 0
M  V30 1895 H 188.296 1.94459 -0.201487 0
M  V30 1896 H 187 4.09592 0.257374 0
M  V30 1897 H 186.531 3.4734 1.84712 0
M  V30 1898 H 188.546 3.93585 3.02168 0
M  V30 1899 N 187.719 -0.156864 1.56817 0
M  V30 1900 C 189.135 -0.50916 1.5126 0
M  V30 1901 C 189.335 -1.83897 0.823658 0
M  V30 1902 O 188.391 -2.49469 0.390055 0
M  V30 1903 C 189.704 -0.52857 2.96018 0
M  V30 1904 C 191.252 -0.614771 3.06903 0
M  V30 1905 C 191.727 -0.664938 4.53147 0
M  V30 1906 N 193.218 -0.727433 4.57452 0
M  V30 1907 C 193.953 -0.787067 5.67973 0
M  V30 1908 N 193.449 -0.806649 6.88088 0
M  V30 1909 N 195.242 -0.827195 5.5598 0
M  V30 1910 H 187.393 0.714935 2.00006 0
M  V30 1911 H 189.656 0.259526 0.911784 0
M  V30 1912 H 189.362 0.380154 3.49639 0
M  V30 1913 H 189.236 -1.36998 3.51442 0
M  V30 1914 H 191.623 -1.51392 2.53307 0
M  V30 1915 H 191.704 0.253597 2.5454 0
M  V30 1916 H 191.348 0.230011 5.07379 0
M  V30 1917 H 191.278 -1.54966 5.03282 0
M  V30 1918 H 193.769 -0.719998 3.70978 0
M  V30 1919 H 194.082 -0.853727 7.6807 0
M  V30 1920 H 192.427 -0.774687 6.90669 0
M  V30 1921 H 195.618 -0.808998 4.61056 0
M  V30 1922 H 195.791 -0.870206 6.4213 0
M  V30 1923 N 189.197 -1.51736 -0.425897 0
M  V30 1924 C 190.144 -1.73875 -1.51776 0
M  V30 1925 C 191.114 -0.580702 -1.55618 0
M  V30 1926 O 192.299 -0.81641 -1.72451 0
M  V30 1927 C 189.439 -1.88012 -2.89388 0
M  V30 1928 C 188.552 -3.15606 -2.94986 0
M  V30 1929 C 187.687 -3.20271 -4.23793 0
M  V30 1930 C 186.726 -4.42134 -4.23302 0
M  V30 1931 N 185.863 -4.44284 -5.43651 0
M  V30 1932 H 190.703 -2.67071 -1.32201 0
M  V30 1933 H 188.24 -1.32351 -0.642008 0
M  V30 1934 H 190.198 -1.9419 -3.69251 0
M  V30 1935 H 188.828 -0.98213 -3.07496 0
M  V30 1936 H 187.88 -3.18681 -2.07717 0
M  V30 1937 H 189.192 -4.05486 -2.90486 0
M  V30 1938 H 188.346 -3.25428 -5.12036 0
M  V30 1939 H 187.085 -2.28299 -4.30965 0
M  V30 1940 H 186.09 -4.3714 -3.3345 0
M  V30 1941 H 187.315 -5.35382 -4.17783 0
M  V30 1942 H 185.261 -3.55188 -5.51523 0
M  V30 1943 H 185.178 -5.27988 -5.41078 0
M  V30 1944 H 186.446 -4.53649 -6.33895 0
M  V30 1945 N 190.675 0.682077 -1.42076 0
M  V30 1946 C 191.623 1.81707 -1.45208 0
M  V30 1947 C 192.617 1.66183 -0.328591 0
M  V30 1948 O 193.823 1.7288 -0.501264 0
M  V30 1949 H 190.198 0.599014 -0.454628 0
M  V30 1950 H 192.169 1.76183 -2.40836 0
M  V30 1951 C 190.918 3.19816 -1.36428 0
M  V30 1952 H 190.241 3.32385 -2.22171 0
M  V30 1953 H 191.681 3.99272 -1.42681 0
M  V30 1954 C 190.14 3.36809 -0.078191 0
M  V30 1955 O 190.67 3.92124 0.87188 0
M  V30 1956 N 188.876 2.906 0.00229266 0
M  V30 1957 H 188.423 2.45772 -0.771616 0
M  V30 1958 H 188.381 3.02347 0.862179 0
M  V30 1959 N 192.153 1.28127 0.917671 0
M  V30 1960 C 193.085 1.07517 2.02417 0
M  V30 1961 C 194.098 0.0281099 1.62776 0
M  V30 1962 O 195.287 0.270748 1.76435 0
M  V30 1963 C 192.387 0.610957 3.33347 0
M  V30 1964 C 191.56 1.73255 4.01624 0
M  V30 1965 C 190.619 1.26238 5.10833 0
M  V30 1966 O 189.645 1.96389 5.34247 0
M  V30 1967 N 190.847 0.123448 5.80369 0
M  V30 1968 H 193.612 2.02806 2.20658 0
M  V30 1969 H 191.173 1.19827 1.08871 0
M  V30 1970 H 193.165 0.280101 4.0373 0
M  V30 1971 H 191.735 -0.24898 3.11607 0
M  V30 1972 H 190.955 2.23319 3.24842 0
M  V30 1973 H 192.243 2.48503 4.43986 0
M  V30 1974 H 191.641 -0.461847 5.63812 0
M  V30 1975 H 190.198 -0.148158 6.51632 0
M  V30 1976 N 193.631 -1.12557 1.10312 0
M  V30 1977 C 194.861 -1.87592 0.865617 0
M  V30 1978 C 195.269 -1.79851 -0.587389 0
M  V30 1979 O 194.612 -1.16949 -1.41664 0
M  V30 1980 C 194.674 -3.37665 1.23381 0
M  V30 1981 C 194.338 -3.69181 2.69359 0
M  V30 1982 C 195.335 -3.67652 3.67597 0
M  V30 1983 C 193.02 -3.98555 3.05711 0
M  V30 1984 C 195.014 -3.95053 5.00212 0
M  V30 1985 C 192.701 -4.25616 4.38514 0
M  V30 1986 C 193.699 -4.23851 5.35574 0
M  V30 1987 O 193.387 -4.50242 6.65986 0
M  V30 1988 H 193.119 -0.600442 0.310557 0
M  V30 1989 H 195.673 -1.4335 1.47105 0
M  V30 1990 H 193.903 -3.82454 0.571467 0
M  V30 1991 H 195.592 -3.94041 0.973994 0
M  V30 1992 H 196.358 -3.45024 3.40857 0
M  V30 1993 H 192.237 -3.99071 2.30789 0
M  V30 1994 H 195.781 -3.93591 5.75962 0
M  V30 1995 H 191.678 -4.47718 4.64994 0
M  V30 1996 H 192.446 -4.67867 6.71597 0
M  V30 1997 N 195.109 -0.891671 -1.2995 0
M  V30 1998 C 196.525 -0.58662 -1.48428 0
M  V30 1999 C 196.725 0.873951 -1.81561 0
M  V30 2000 O 195.781 1.65471 -1.90724 0
M  V30 2001 C 197.094 -1.50553 -2.60296 0
M  V30 2002 C 198.642 -1.50988 -2.74175 0
M  V30 2003 C 199.117 -2.41488 -3.89163 0
M  V30 2004 N 200.608 -2.39489 -3.96483 0
M  V30 2005 C 201.343 -3.06223 -4.84784 0
M  V30 2006 N 200.839 -3.82206 -5.77833 0
M  V30 2007 N 202.632 -2.95421 -4.78208 0
M  V30 2008 H 194.783 -1.83644 -1.06718 0
M  V30 2009 H 197.046 -0.786455 -0.529332 0
M  V30 2010 H 196.752 -2.54581 -2.42654 0
M  V30 2011 H 196.626 -1.22008 -3.56923 0
M  V30 2012 H 199.013 -0.47708 -2.91218 0
M  V30 2013 H 199.094 -1.83567 -1.78148 0
M  V30 2014 H 198.738 -3.44857 -3.72876 0
M  V30 2015 H 198.668 -2.06222 -4.84541 0
M  V30 2016 H 201.159 -1.84278 -3.29924 0
M  V30 2017 H 201.472 -4.302 -6.41988 0
M  V30 2018 H 199.817 -3.86313 -5.77743 0
M  V30 2019 H 203.008 -2.35581 -4.04499 0
M  V30 2020 H 203.181 -3.47704 -5.46814 0
M  V30 2021 N 196.587 1.43421 -0.653314 0
M  V30 2022 C 197.537 2.2792 0.060558 0
M  V30 2023 C 198.521 1.39906 0.794677 0
M  V30 2024 O 199.713 1.63536 0.677128 0
M  V30 2025 C 196.842 3.27603 1.0262 0
M  V30 2026 C 195.928 4.23104 0.290551 0
M  V30 2027 N 196.319 5.01031 -0.692967 0
M  V30 2028 C 194.617 4.42816 0.531984 0
M  V30 2029 C 195.318 5.70626 -1.12963 0
M  V30 2030 N 194.294 5.41617 -0.463867 0
M  V30 2031 H 198.096 2.85585 -0.694143 0
M  V30 2032 H 195.61 1.55126 -0.480602 0
M  V30 2033 H 197.607 3.86918 1.55242 0
M  V30 2034 H 196.267 2.71499 1.78096 0
M  V30 2035 H 197.278 5.0669 -1.07169 0
M  V30 2036 H 193.955 3.97782 1.26791 0
M  V30 2037 H 195.345 6.4318 -1.94343 0
M  V30 2038 N 198.065 0.39524 1.52563 0
M  V30 2039 C 199.295 -0.184675 2.05773 0
M  V30 2040 C 199.703 -1.40571 1.26635 0
M  V30 2041 O 199.046 -1.81105 0.30769 0
M  V30 2042 C 199.108 -0.613551 3.54226 0
M  V30 2043 C 198.772 0.49484 4.54313 0
M  V30 2044 C 199.769 1.3541 5.01956 0
M  V30 2045 C 197.454 0.663565 4.97898 0
M  V30 2046 C 199.448 2.36716 5.91814 0
M  V30 2047 C 197.135 1.67996 5.87555 0
M  V30 2048 C 198.133 2.53017 6.34406 0
M  V30 2049 O 197.821 3.52917 7.22291 0
M  V30 2050 H 197.553 -0.030077 0.675331 0
M  V30 2051 H 200.107 0.560708 1.97599 0
M  V30 2052 H 198.337 -1.411 3.60038 0
M  V30 2053 H 200.026 -1.11981 3.90148 0
M  V30 2054 H 200.792 1.23509 4.6901 0
M  V30 2055 H 196.671 0.0114913 4.60999 0
M  V30 2056 H 200.215 3.03113 6.28306 0
M  V30 2057 H 196.112 1.79933 6.19915 0
M  V30 2058 H 196.88 3.48996 7.40367 0
M  V30 2059 N 199.544 -1.57102 0.125237 0
M  V30 2060 C 200.79 -1.96488 -0.525753 0
M  V30 2061 C 201.145 -1.00786 -1.6389 0
M  V30 2062 O 200.438 -0.038979 -1.9156 0
M  V30 2063 C 200.632 -3.40096 -1.09862 0
M  V30 2064 C 200.461 -4.4968 -0.0425004 0
M  V30 2065 C 199.231 -5.03781 0.391463 0
M  V30 2066 C 201.429 -5.08936 0.740829 0
M  V30 2067 N 199.411 -5.96948 1.4327 0
M  V30 2068 C 200.782 -5.98105 1.6331 0
M  V30 2069 C 202.837 -4.91576 0.791029 0
M  V30 2070 C 201.54 -6.71774 2.57122 0
M  V30 2071 C 203.566 -5.6593 1.71688 0
M  V30 2072 C 202.928 -6.5479 2.59672 0
M  V30 2073 H 199.027 -0.765072 -0.161831 0
M  V30 2074 H 201.611 -1.93511 0.214801 0
M  V30 2075 H 199.782 -3.43707 -1.80887 0
M  V30 2076 H 201.514 -3.66591 -1.71444 0
M  V30 2077 H 198.269 -4.736 -0.00213584 0
M  V30 2078 H 198.693 -6.48236 1.95243 0
M  V30 2079 H 203.335 -4.22615 0.124915 0
M  V30 2080 H 201.053 -7.39977 3.24744 0
M  V30 2081 H 204.639 -5.54501 1.76125 0
M  V30 2082 H 203.519 -7.11316 3.30149 0
M  V30 2083 N 201.022 0.148545 -1.56898 0
M  V30 2084 C 202.247 0.880385 -1.87787 0
M  V30 2085 C 202.672 1.74018 -0.714093 0
M  V30 2086 O 202.03 1.78153 0.336343 0
M  V30 2087 C 202.078 1.71422 -3.17249 0
M  V30 2088 O 201.182 2.8183 -3.01074 0
M  V30 2089 H 200.523 0.245301 -0.617028 0
M  V30 2090 H 203.053 0.139826 -2.04122 0
M  V30 2091 H 203.063 2.10954 -3.49231 0
M  V30 2092 H 201.738 1.08284 -4.01556 0
M  V30 2093 H 200.315 2.45715 -2.80497 0
M  V30 2094 N 202.5 1.5196 0.417844 0
M  V30 2095 C 203.41 1.77554 1.53336 0
M  V30 2096 C 204.426 0.660655 1.6097 0
M  V30 2097 O 205.602 0.945099 1.77848 0
M  V30 2098 C 202.667 1.91291 2.89152 0
M  V30 2099 C 201.728 3.15183 2.91475 0
M  V30 2100 C 200.961 3.28256 4.20813 0
M  V30 2101 O 201.184 2.46798 5.14244 0
M  V30 2102 O 200.118 4.21356 4.29817 0
M  V30 2103 H 203.944 2.7222 1.34647 0
M  V30 2104 H 201.529 1.36698 0.602828 0
M  V30 2105 H 203.411 2.02199 3.69721 0
M  V30 2106 H 202.086 0.998129 3.07927 0
M  V30 2107 H 200.993 3.09739 2.09791 0
M  V30 2108 H 202.326 4.06414 2.77648 0
M  V30 2109 N 203.978 -0.674533 1.42435 0
M  V30 2110 C 204.926 -1.80934 1.46169 0
M  V30 2111 C 205.92 -1.66006 0.3374 0
M  V30 2112 O 207.126 -1.72611 0.510425 0
M  V30 2113 H 203.501 -0.596594 0.457798 0
M  V30 2114 H 205.472 -1.74903 2.41767 0
M  V30 2115 C 204.221 -3.19088 1.38123 0
M  V30 2116 H 203.544 -3.31203 2.23931 0
M  V30 2117 H 204.984 -3.9851 1.44797 0
M  V30 2118 C 203.443 -3.36763 0.0960517 0
M  V30 2119 O 203.973 -3.92581 -0.851073 0
M  V30 2120 N 202.179 -2.90597 0.0131186 0
M  V30 2121 H 201.726 -2.45359 0.784639 0
M  V30 2122 H 201.684 -3.028 -0.846133 0
M  V30 2123 N 205.456 -1.28612 -0.910864 0
M  V30 2124 C 206.386 -1.15326 -2.03032 0
M  V30 2125 C 207.367 -0.0502924 -1.70026 0
M  V30 2126 O 208.552 -0.227797 -1.92859 0
M  V30 2127 C 205.682 -0.817343 -3.37545 0
M  V30 2128 C 204.636 -1.8754 -3.84724 0
M  V30 2129 C 203.962 -1.39305 -5.16235 0
M  V30 2130 C 205.262 -3.28244 -4.06267 0
M  V30 2131 H 206.956 -2.08975 -2.14406 0
M  V30 2132 H 204.502 -1.00612 -1.03021 0
M  V30 2133 H 206.455 -0.711151 -4.15356 0
M  V30 2134 H 205.179 0.154846 -3.26233 0
M  V30 2135 H 203.838 -1.97079 -3.09121 0
M  V30 2136 H 203.486 -0.409846 -5.01328 0
M  V30 2137 H 203.186 -2.10057 -5.48771 0
M  V30 2138 H 204.71 -1.30014 -5.96598 0
M  V30 2139 H 206.124 -3.21611 -4.74594 0
M  V30 2140 H 204.521 -3.96855 -4.5014 0
M  V30 2141 H 205.591 -3.72048 -3.10979 0
M  V30 2142 N 206.934 1.1197 -1.10907 0
M  V30 2143 C 208.181 1.83588 -0.854507 0
M  V30 2144 C 208.509 1.84357 0.6199 0
M  V30 2145 O 207.764 1.28809 1.47332 0
M  V30 2146 C 208.063 3.30749 -1.35425 0
M  V30 2147 C 207.729 3.50146 -2.84093 0
M  V30 2148 C 206.391 3.55148 -3.2469 0
M  V30 2149 C 208.743 3.56857 -3.79872 0
M  V30 2150 C 206.071 3.6441 -4.59806 0
M  V30 2151 C 208.423 3.6765 -5.14797 0
M  V30 2152 C 207.087 3.7091 -5.54961 0
M  V30 2153 H 206.357 0.671795 -0.312686 0
M  V30 2154 H 209.004 1.32091 -1.38652 0
M  V30 2155 H 207.309 3.84703 -0.742361 0
M  V30 2156 H 209.006 3.8464 -1.1337 0
M  V30 2157 H 205.596 3.46919 -2.51685 0
M  V30 2158 H 209.78 3.52258 -3.49611 0
M  V30 2159 H 205.036 3.65208 -4.9034 0
M  V30 2160 H 209.21 3.71786 -5.88853 0
M  V30 2161 H 206.837 3.7784 -6.59652 0
M  V30 2162 N 208.412 0.89855 1.29475 0
M  V30 2163 C 209.344 0.332726 2.26772 0
M  V30 2164 C 210.357 -0.520323 1.54261 0
M  V30 2165 O 211.546 -0.337668 1.75277 0
M  V30 2166 C 208.646 -0.544334 3.345 0
M  V30 2167 C 207.819 0.282728 4.36485 0
M  V30 2168 C 206.878 -0.526982 5.23555 0
M  V30 2169 O 205.904 0.0551165 5.69173 0
M  V30 2170 N 207.106 -1.83331 5.5079 0
M  V30 2171 H 209.871 1.16897 2.75962 0
M  V30 2172 H 207.432 0.762919 1.42798 0
M  V30 2173 H 209.424 -1.09239 3.89678 0
M  V30 2174 H 207.994 -1.28127 2.85136 0
M  V30 2175 H 207.214 1.01221 3.80983 0
M  V30 2176 H 208.502 0.84918 5.01664 0
M  V30 2177 H 207.9 -2.32898 5.15534 0
M  V30 2178 H 206.457 -2.32852 6.08788 0
M  V30 2179 N 209.89 -1.43072 0.660911 0
M  V30 2180 C 211.13 -2.03596 0.181146 0
M  V30 2181 C 211.494 -1.51057 -1.18515 0
M  V30 2182 O 212.695 -2.03275 -1.75877 0
M  V30 2183 C 210.966 -3.56845 0.19911 0
M  V30 2184 S 212.525 -4.38289 -0.211684 0
M  V30 2185 H 209.343 -0.706954 0.0757479 0
M  V30 2186 H 211.945 -1.75027 0.870965 0
M  V30 2187 H 210.649 -3.92583 1.1961 0
M  V30 2188 H 210.18 -3.90067 -0.510996 0
M  V30 2189 H 212.195 -4.74583 -1.44863 0
M  V30 2190 N 211.368 -0.403325 -1.52352 0
M  V30 2191 C 212.615 0.174347 -2.01748 0
M  V30 2192 C 212.943 1.45636 -1.2892 0
M  V30 2193 O 212.198 1.9193 -0.382258 0
M  V30 2194 C 212.497 0.474665 -3.54234 0
M  V30 2195 C 212.163 -0.717458 -4.45155 0
M  V30 2196 C 210.825 -1.04447 -4.69728 0
M  V30 2197 C 213.177 -1.51432 -4.98716 0
M  V30 2198 C 210.505 -2.16963 -5.45109 0
M  V30 2199 C 212.857 -2.6302 -5.75329 0
M  V30 2200 C 211.521 -2.96213 -5.98175 0
M  V30 2201 H 210.791 0.0637981 -0.738248 0
M  V30 2202 H 213.438 -0.543553 -1.83624 0
M  V30 2203 H 211.743 1.27406 -3.70506 0
M  V30 2204 H 213.44 0.934496 -3.89959 0
M  V30 2205 H 210.03 -0.452596 -4.26204 0
M  V30 2206 H 214.214 -1.27491 -4.79645 0
M  V30 2207 H 209.47 -2.43034 -5.61021 0
M  V30 2208 H 213.644 -3.25158 -6.15829 0
M  V30 2209 H 211.271 -3.83516 -6.56368 0
M  V30 2210 N 212.846 1.57033 -0.133567 0
M  V30 2211 C 213.794 2.17348 0.828412 0
M  V30 2212 C 214.788 1.12671 1.26498 0
M  V30 2213 O 215.994 1.30947 1.23502 0
M  V30 2214 H 212.369 0.695775 0.285309 0
M  V30 2215 H 214.34 2.96935 0.295372 0
M  V30 2216 C 213.089 2.79893 2.06289 0
M  V30 2217 H 212.412 3.60147 1.73592 0
M  V30 2218 H 213.852 3.25615 2.71572 0
M  V30 2219 C 212.311 1.77713 2.86216 0
M  V30 2220 O 212.841 1.23937 3.82103 0
M  V30 2221 N 211.047 1.47321 2.50489 0
M  V30 2222 H 210.594 1.91243 1.7258 0
M  V30 2223 H 210.552 0.79199 3.04261 0
M  V30 2224 N 214.325 -0.140222 1.56975 0
M  V30 2225 C 215.565 -0.857823 1.85528 0
M  V30 2226 C 215.929 -1.78039 0.718768 0
M  V30 2227 O 217.13 -2.53795 0.885521 0
M  V30 2228 C 215.401 -1.60615 3.19277 0
M  V30 2229 S 216.96 -2.36824 3.69405 0
M  V30 2230 H 213.778 -0.286727 0.650622 0
M  V30 2231 H 216.38 -0.117408 1.95147 0
M  V30 2232 H 215.084 -0.919994 3.99955 0
M  V30 2233 H 214.615 -2.38735 3.12681 0
M  V30 2234 H 216.63 -3.62148 3.3921 0
M  V30 2235 N 215.803 -1.52179 -0.40978 0
M  V30 2236 C 217.028 -1.70347 -1.18308 0
M  V30 2237 C 217.453 -0.411887 -1.83535 0
M  V30 2238 O 216.811 0.630587 -1.6998 0
M  V30 2239 C 216.859 -2.83977 -2.22238 0
M  V30 2240 O 215.963 -2.495 -3.28365 0
M  V30 2241 H 215.304 -0.567103 -0.345384 0
M  V30 2242 H 217.834 -1.98879 -0.480445 0
M  V30 2243 H 217.844 -3.0887 -2.66577 0
M  V30 2244 H 216.519 -3.77685 -1.74146 0
M  V30 2245 H 215.096 -2.35277 -2.89308 0
M  V30 2246 N 217.281 0.66697 -1.42791 0
M  V30 2247 C 218.211 1.79218 -1.49677 0
M  V30 2248 C 219.192 1.66405 -0.352623 0
M  V30 2249 O 220.377 1.85708 -0.567993 0
M  V30 2250 C 217.507 3.17565 -1.40605 0
M  V30 2251 C 216.461 3.45124 -2.53127 0
M  V30 2252 C 215.787 4.83127 -2.29112 0
M  V30 2253 C 217.087 3.41236 -3.95418 0
M  V30 2254 H 218.781 1.73713 -2.43853 0
M  V30 2255 H 216.327 0.83432 -1.17367 0
M  V30 2256 H 218.28 3.96022 -1.44029 0
M  V30 2257 H 217.004 3.23767 -0.429271 0
M  V30 2258 H 215.663 2.69031 -2.49034 0
M  V30 2259 H 215.311 4.85988 -1.29709 0
M  V30 2260 H 215.011 5.02528 -3.04531 0
M  V30 2261 H 216.535 5.63859 -2.34297 0
M  V30 2262 H 217.949 4.09651 -4.01073 0
M  V30 2263 H 216.346 3.72173 -4.70752 0
M  V30 2264 H 217.416 2.39665 -4.21532 0
M  V30 2265 N 218.759 1.29093 0.90403 0
M  V30 2266 C 219.999 1.18076 1.66845 0
M  V30 2267 C 220.363 -0.26436 1.90171 0
M  V30 2268 O 221.564 -0.497423 2.64157 0
M  V30 2269 C 219.835 1.96722 2.98388 0
M  V30 2270 S 221.394 2.0219 3.89441 0
M  V30 2271 H 218.212 0.421104 0.572881 0
M  V30 2272 H 220.814 1.63322 1.07453 0
M  V30 2273 H 219.518 3.00866 2.7912 0
M  V30 2274 H 219.049 1.52064 3.62823 0
M  V30 2275 H 221.064 1.13545 4.83034 0
M  V30 2276 N 220.237 -1.11381 1.11499 0
M  V30 2277 C 221.167 -2.19509 0.796125 0
M  V30 2278 C 222.148 -1.68458 -0.235796 0
M  V30 2279 O 223.333 -1.93947 -0.0991344 0
M  V30 2280 C 220.463 -3.46475 0.239205 0
M  V30 2281 C 219.417 -4.10744 1.20307 0
M  V30 2282 C 218.743 -5.32293 0.50683 0
M  V30 2283 C 220.043 -4.55597 2.55399 0
M  V30 2284 H 221.737 -2.46439 1.70024 0
M  V30 2285 H 219.283 -1.18446 0.818935 0
M  V30 2286 H 221.236 -4.214 0.00392006 0
M  V30 2287 H 219.96 -3.19006 -0.700206 0
M  V30 2288 H 218.619 -3.37813 1.42399 0
M  V30 2289 H 218.267 -5.01095 -0.437408 0
M  V30 2290 H 217.967 -5.76243 1.1497 0
M  V30 2291 H 219.491 -6.09956 0.280351 0
M  V30 2292 H 220.905 -5.21841 2.37391 0
M  V30 2293 H 219.302 -5.10363 3.15673 0
M  V30 2294 H 220.372 -3.69013 3.14575 0
M  V30 2295 N 221.715 -0.905404 -1.28997 0
M  V30 2296 C 222.663 -0.377431 -2.29517 0
M  V30 2297 C 223.657 0.526461 -1.61012 0
M  V30 2298 O 224.863 0.40863 -1.753 0
M  V30 2299 H 221.238 -0.103437 -0.744852 0
M  V30 2300 H 223.209 -1.23848 -2.71485 0
M  V30 2301 C 221.958 0.374833 -3.45674 0
M  V30 2302 H 221.281 -0.311474 -3.98585 0
M  V30 2303 H 222.721 0.70903 -4.1803 0
M  V30 2304 C 221.18 1.57963 -2.97572 0
M  V30 2305 O 221.71 2.67886 -2.99333 0
M  V30 2306 N 219.916 1.42375 -2.53333 0
M  V30 2307 H 219.463 0.529466 -2.521 0
M  V30 2308 H 219.421 2.23117 -2.21509 0
M  V30 2309 N 223.193 1.4272 -0.668489 0
M  V30 2310 C 224.441 2.01226 -0.187769 0
M  V30 2311 C 224.762 1.53092 1.2078 0
M  V30 2312 O 224.032 0.74993 1.80977 0
M  V30 2313 H 222.612 0.744041 -0.0664272 0
M  V30 2314 H 225.274 1.74723 -0.863583 0
M  V30 2315 H 224.37 3.11556 -0.184166 0
M  V30 2316 N 224.671 0.411399 1.52136 0
M  V30 2317 C 225.899 -0.163076 2.06256 0
M  V30 2318 C 226.314 -1.3867 1.28125 0
M  V30 2319 O 225.671 -1.79423 0.333721 0
M  V30 2320 C 225.722 -0.511252 3.57867 0
M  V30 2321 O 225.443 0.66378 4.33042 0
M  V30 2322 C 226.944 -1.13921 4.28412 0
M  V30 2323 H 224.164 -0.0193897 0.67072 0
M  V30 2324 H 226.708 0.583007 1.96013 0
M  V30 2325 H 224.863 -1.20723 3.6811 0
M  V30 2326 H 225.277 0.372601 5.23175 0
M  V30 2327 H 226.751 -1.33302 5.35663 0
M  V30 2328 H 227.228 -2.11296 3.85033 0
M  V30 2329 H 227.834 -0.483373 4.22544 0
M  V30 2330 N 226.149 -1.5696 0.141893 0
M  V30 2331 C 227.395 -1.9625 -0.511248 0
M  V30 2332 C 227.728 -1.02654 -1.64851 0
M  V30 2333 O 227.003 -0.0679676 -1.94381 0
M  V30 2334 C 227.286 -3.45285 -1.02227 0
M  V30 2335 C 227.139 -4.49658 0.113138 0
M  V30 2336 C 228.458 -3.96698 -1.90574 0
M  V30 2337 H 225.577 -0.713567 -0.184367 0
M  V30 2338 H 228.219 -1.88698 0.222087 0
M  V30 2339 H 226.369 -3.51852 -1.64719 0
M  V30 2340 H 228.041 -4.55174 0.749302 0
M  V30 2341 H 226.284 -4.26857 0.773026 0
M  V30 2342 H 226.955 -5.51258 -0.286053 0
M  V30 2343 H 229.431 -3.92578 -1.37918 0
M  V30 2344 H 228.307 -5.01453 -2.2324 0
M  V30 2345 H 228.568 -3.3875 -2.84079 0
M  V30 2346 N 227.627 0.131896 -1.57047 0
M  V30 2347 C 228.577 1.1679 -1.95816 0
M  V30 2348 C 229.561 1.37756 -0.831393 0
M  V30 2349 O 230.753 1.39065 -1.09499 0
M  V30 2350 C 227.882 2.49778 -2.35512 0
M  V30 2351 C 226.968 2.32342 -3.54793 0
M  V30 2352 N 227.359 1.8469 -4.70875 0
M  V30 2353 C 225.657 2.63043 -3.60173 0
M  V30 2354 C 226.358 1.80656 -5.52936 0
M  V30 2355 N 225.334 2.24528 -4.95064 0
M  V30 2356 H 229.136 0.791818 -2.83033 0
M  V30 2357 H 226.65 0.339791 -1.58805 0
M  V30 2358 H 228.647 3.24692 -2.61498 0
M  V30 2359 H 227.307 2.88156 -1.49654 0
M  V30 2360 H 228.318 1.54429 -4.9434 0
M  V30 2361 H 224.995 3.05193 -2.84892 0
M  V30 2362 H 226.385 1.45178 -6.56028 0
M  V30 2363 N 229.106 1.52395 0.401703 0
M  V30 2364 C 230.036 1.79231 1.49661 0
M  V30 2365 C 231.017 0.643654 1.57452 0
M  V30 2366 O 232.202 0.889989 1.72606 0
M  V30 2367 C 229.332 1.94971 2.87409 0
M  V30 2368 C 228.286 3.10604 2.94465 0
M  V30 2369 C 227.612 3.11577 4.34538 0
M  V30 2370 C 228.912 4.49921 2.6527 0
M  V30 2371 H 230.606 2.70917 1.27454 0
M  V30 2372 H 228.152 1.30362 0.6117 0
M  V30 2373 H 230.105 2.12328 3.63999 0
M  V30 2374 H 228.829 0.999632 3.10926 0
M  V30 2375 H 227.488 2.93009 2.20321 0
M  V30 2376 H 227.136 2.14277 4.55076 0
M  V30 2377 H 226.836 3.89247 4.40183 0
M  V30 2378 H 228.36 3.31073 5.13053 0
M  V30 2379 H 229.774 4.67683 3.31581 0
M  V30 2380 H 228.171 5.29564 2.82281 0
M  V30 2381 H 229.241 4.57507 1.60671 0
M  V30 2382 N 230.584 -0.659388 1.43143 0
M  V30 2383 C 231.809 -1.45221 1.48073 0
M  V30 2384 C 232.234 -1.87845 0.097995 0
M  V30 2385 O 231.592 -1.56985 -0.90694 0
M  V30 2386 C 231.64 -2.66748 2.42647 0
M  V30 2387 O 230.744 -3.65583 1.90848 0
M  V30 2388 H 230.085 -0.435669 0.501088 0
M  V30 2389 H 232.615 -0.807432 1.87994 0
M  V30 2390 H 232.625 -3.14637 2.59745 0
M  V30 2391 H 231.3 -2.35067 3.43098 0
M  V30 2392 H 229.877 -3.24693 1.83381 0
M  V30 2393 N 232.062 -1.29571 -0.897171 0
M  V30 2394 C 233.302 -1.18959 -1.66217 0
M  V30 2395 C 233.666 0.254271 -1.90309 0
M  V30 2396 O 234.867 0.483407 -2.64417 0
M  V30 2397 C 233.138 -1.98302 -2.9734 0
M  V30 2398 S 234.697 -2.04253 -3.88364 0
M  V30 2399 H 231.515 -0.424137 -0.570639 0
M  V30 2400 H 234.117 -1.6389 -1.06585 0
M  V30 2401 H 232.821 -3.02342 -2.77521 0
M  V30 2402 H 232.352 -1.53986 -3.62011 0
M  V30 2403 H 234.367 -1.16105 -4.82425 0
M  V30 2404 N 233.54 1.10788 -1.12088 0
M  V30 2405 C 234.472 2.16816 -0.743213 0
M  V30 2406 C 235.485 1.6119 0.228412 0
M  V30 2407 O 236.674 1.78497 0.0102931 0
M  V30 2408 C 233.774 3.38809 -0.0787313 0
M  V30 2409 C 232.947 4.23885 -1.0789 0
M  V30 2410 C 232.006 5.24334 -0.442713 0
M  V30 2411 O 231.032 5.58497 -1.09864 0
M  V30 2412 N 232.234 5.75079 0.791457 0
M  V30 2413 H 234.999 2.49825 -1.65552 0
M  V30 2414 H 232.56 1.26373 -1.012 0
M  V30 2415 H 234.552 4.03107 0.358766 0
M  V30 2416 H 233.122 3.03805 0.736275 0
M  V30 2417 H 232.342 3.55939 -1.69414 0
M  V30 2418 H 233.63 4.77562 -1.75533 0
M  V30 2419 H 233.028 5.49517 1.3434 0
M  V30 2420 H 231.585 6.4118 1.17183 0
M  V30 2421 N 235.018 0.912232 1.28515 0
M  V30 2422 C 235.928 0.404506 2.31086 0
M  V30 2423 C 236.944 -0.50707 1.66448 0
M  V30 2424 O 238.12 -0.393624 1.97516 0
M  V30 2425 C 235.185 -0.348572 3.44943 0
M  V30 2426 C 234.246 0.59604 4.25142 0
M  V30 2427 C 233.479 -0.121194 5.33562 0
M  V30 2428 O 233.702 -1.34317 5.5436 0
M  V30 2429 O 232.636 0.542716 5.99448 0
M  V30 2430 H 236.462 1.25579 2.76521 0
M  V30 2431 H 234.047 0.676998 1.33181 0
M  V30 2432 H 235.929 -0.77395 4.14232 0
M  V30 2433 H 234.604 -1.17571 3.01594 0
M  V30 2434 H 233.511 1.07079 3.58448 0
M  V30 2435 H 234.844 1.38995 4.72167 0
M  V30 2436 N 236.496 -1.42363 0.676048 0
M  V30 2437 C 237.443 -2.308 -0.00150904 0
M  V30 2438 C 238.413 -1.46032 -0.791444 0
M  V30 2439 O 239.598 -1.74861 -0.76344 0
M  V30 2440 C 236.738 -3.31883 -0.945919 0
M  V30 2441 C 235.851 -4.31741 -0.149675 0
M  V30 2442 C 234.986 -5.19898 -1.08995 0
M  V30 2443 C 234.025 -6.11434 -0.285465 0
M  V30 2444 N 233.162 -6.92138 -1.17851 0
M  V30 2445 H 238.002 -2.88187 0.758455 0
M  V30 2446 H 235.539 -1.41952 0.38576 0
M  V30 2447 H 237.497 -3.89019 -1.50731 0
M  V30 2448 H 236.127 -2.76093 -1.6725 0
M  V30 2449 H 235.179 -3.76713 0.528359 0
M  V30 2450 H 236.491 -4.96534 0.474866 0
M  V30 2451 H 235.645 -5.81772 -1.72123 0
M  V30 2452 H 234.384 -4.55284 -1.74837 0
M  V30 2453 H 233.389 -5.48627 0.359018 0
M  V30 2454 H 234.614 -6.78097 0.368883 0
M  V30 2455 H 232.56 -6.30152 -1.82332 0
M  V30 2456 H 232.477 -7.53542 -0.609082 0
M  V30 2457 H 233.745 -7.58499 -1.79722 0
M  V30 2458 N 237.974 -0.419461 -1.51915 0
M  V30 2459 C 238.906 0.43646 -2.25006 0
M  V30 2460 C 239.919 1.00149 -1.28351 0
M  V30 2461 O 241.108 0.898674 -1.54227 0
M  V30 2462 C 238.208 1.6206 -2.9764 0
M  V30 2463 C 237.381 1.17763 -4.21249 0
M  V30 2464 C 236.44 2.22985 -4.76617 0
M  V30 2465 O 235.466 1.83151 -5.38929 0
M  V30 2466 N 236.668 3.55271 -4.59089 0
M  V30 2467 H 239.433 -0.18989 -2.99098 0
M  V30 2468 H 236.994 -0.247386 -1.59999 0
M  V30 2469 H 238.986 2.32038 -3.31573 0
M  V30 2470 H 237.556 2.15266 -2.2667 0
M  V30 2471 H 236.776 0.305582 -3.93014 0
M  V30 2472 H 238.064 0.858781 -5.015 0
M  V30 2473 H 237.462 3.90377 -4.09417 0
M  V30 2474 H 236.019 4.21195 -4.97432 0
M  V30 2475 N 239.452 1.56882 -0.150215 0
M  V30 2476 C 240.4 2.18214 0.805313 0
M  V30 2477 C 241.394 1.14006 1.25296 0
M  V30 2478 O 242.6 1.3225 1.22107 0
M  V30 2479 H 238.975 0.698762 0.277913 0
M  V30 2480 H 240.946 2.97231 0.263862 0
M  V30 2481 C 239.695 2.82065 2.03309 0
M  V30 2482 H 239.018 3.61968 1.69763 0
M  V30 2483 H 240.458 3.28477 2.68103 0
M  V30 2484 C 238.917 1.80739 2.84315 0
M  V30 2485 O 239.447 1.27983 3.80767 0
M  V30 2486 N 237.653 1.4997 2.48913 0
M  V30 2487 H 237.2 1.93062 1.70542 0
M  V30 2488 H 237.158 0.824217 3.03404 0
M  V30 2489 N 240.93 -0.123565 1.57115 0
M  V30 2490 C 242.158 -0.846461 1.88793 0
M  V30 2491 C 242.573 -1.73652 0.740976 0
M  V30 2492 O 241.93 -1.80207 -0.288393 0
M  V30 2493 C 241.981 -1.6837 3.19897 0
M  V30 2494 O 241.702 -0.829477 4.30176 0
M  V30 2495 C 243.203 -2.51214 3.65248 0
M  V30 2496 H 240.423 -0.243573 0.625231 0
M  V30 2497 H 242.967 -0.109324 2.04208 0
M  V30 2498 H 241.122 -2.37364 3.06165 0
M  V30 2499 H 241.536 -1.40651 5.0529 0
M  V30 2500 H 243.01 -3.05497 4.59756 0
M  V30 2501 H 243.487 -3.28359 2.9168 0
M  V30 2502 H 244.093 -1.8747 3.81752 0
M  V30 2503 N 242.408 -1.52605 -0.393616 0
M  V30 2504 C 243.654 -1.67672 -1.14079 0
M  V30 2505 C 243.987 -0.413121 -1.89755 0
M  V30 2506 O 243.262 0.588952 -1.85369 0
M  V30 2507 C 243.545 -2.9088 -2.12276 0
M  V30 2508 C 243.398 -4.27329 -1.40394 0
M  V30 2509 C 244.717 -3.09628 -3.12759 0
M  V30 2510 H 241.836 -0.610168 -0.413356 0
M  V30 2511 H 244.478 -1.85193 -0.424696 0
M  V30 2512 H 242.628 -2.76073 -2.73342 0
M  V30 2513 H 244.3 -4.53894 -0.82327 0
M  V30 2514 H 242.543 -4.2802 -0.705801 0
M  V30 2515 H 243.214 -5.09615 -2.12123 0
M  V30 2516 H 245.69 -3.23436 -2.61779 0
M  V30 2517 H 244.566 -3.97322 -3.78717 0
M  V30 2518 H 244.827 -2.23637 -3.81365 0
M  V30 2519 N 243.887 0.651787 -1.4349 0
M  V30 2520 C 245.127 1.42345 -1.46688 0
M  V30 2521 C 245.491 1.91793 -0.0891023 0
M  V30 2522 O 246.692 2.688 0.00423594 0
M  V30 2523 C 244.963 2.57221 -2.48137 0
M  V30 2524 S 246.522 3.45725 -2.70221 0
M  V30 2525 H 243.34 0.485878 -0.51908 0
M  V30 2526 H 245.942 0.756578 -1.80267 0
M  V30 2527 H 244.646 2.1917 -3.46976 0
M  V30 2528 H 244.177 3.28757 -2.16061 0
M  V30 2529 H 246.192 4.53996 -2.00255 0
M  V30 2530 N 245.365 1.30045 0.890287 0
M  V30 2531 C 246.593 1.21472 1.67487 0
M  V30 2532 C 247.008 -0.223241 1.87476 0
M  V30 2533 O 246.365 -1.14828 1.41847 0
M  V30 2534 C 246.416 1.93394 3.05419 0
M  V30 2535 O 246.137 3.31576 2.86337 0
M  V30 2536 C 247.638 1.91414 3.99844 0
M  V30 2537 H 244.858 0.420604 0.522813 0
M  V30 2538 H 247.402 1.7158 1.11268 0
M  V30 2539 H 245.557 1.47099 3.58386 0
M  V30 2540 H 245.971 3.67929 3.73802 0
M  V30 2541 H 247.445 2.46285 4.94012 0
M  V30 2542 H 247.922 0.891833 4.3005 0
M  V30 2543 H 248.528 2.37496 3.52811 0
M  V30 2544 N 246.843 -1.10192 1.12674 0
M  V30 2545 C 248.083 -1.83825 0.893736 0
M  V30 2546 C 248.447 -1.83341 -0.570082 0
M  V30 2547 O 249.648 -2.52553 -0.920354 0
M  V30 2548 C 247.919 -3.26405 1.45582 0
M  V30 2549 S 249.478 -4.17136 1.36171 0
M  V30 2550 H 246.296 -0.633732 0.322342 0
M  V30 2551 H 248.898 -1.32581 1.43675 0
M  V30 2552 H 247.602 -3.24329 2.51473 0
M  V30 2553 H 247.133 -3.82721 0.910405 0
M  V30 2554 H 249.148 -4.95069 0.334863 0
M  V30 2555 N 248.321 -0.919034 -1.28029 0
M  V30 2556 C 249.271 -0.382574 -2.24767 0
M  V30 2557 C 250.255 0.508286 -1.52661 0
M  V30 2558 O 251.447 0.347145 -1.73562 0
M  V30 2559 C 248.576 0.371432 -3.41285 0
M  V30 2560 C 247.662 -0.535449 -4.20706 0
M  V30 2561 N 248.053 -1.65141 -4.78082 0
M  V30 2562 C 246.351 -0.336824 -4.44726 0
M  V30 2563 C 247.052 -2.21475 -5.37888 0
M  V30 2564 N 246.028 -1.50537 -5.22341 0
M  V30 2565 H 249.83 -1.23477 -2.66703 0
M  V30 2566 H 247.344 -0.772299 -1.42861 0
M  V30 2567 H 249.341 0.772638 -4.09678 0
M  V30 2568 H 248.001 1.22066 -3.00882 0
M  V30 2569 H 249.012 -2.03392 -4.7629 0
M  V30 2570 H 245.689 0.47246 -4.14818 0
M  V30 2571 H 247.079 -3.15379 -5.93284 0
M  V30 2572 N 249.799 1.42003 -0.683588 0
M  V30 2573 C 250.762 2.29191 -0.0198243 0
M  V30 2574 C 251.762 1.43773 0.72013 0
M  V30 2575 O 252.952 1.65061 0.556815 0
M  V30 2576 C 250.084 3.26435 0.982487 0
M  V30 2577 H 251.277 2.8938 -0.787345 0
M  V30 2578 H 248.83 1.49789 -0.446418 0
M  V30 2579 H 249.565 2.71203 1.77819 0
M  V30 2580 H 249.35 3.89449 0.455182 0
M  V30 2581 H 250.84 3.918 1.44508 0
M  V30 2582 N 251.277 0.427512 1.51691 0
M  V30 2583 C 252.525 -0.141948 2.01601 0
M  V30 2584 C 252.846 -1.44067 1.31414 0
M  V30 2585 O 252.116 -1.90763 0.445658 0
M  V30 2586 H 250.696 -0.0554468 0.744939 0
M  V30 2587 H 253.358 0.567968 1.86441 0
M  V30 2588 H 252.454 -0.324913 3.10404 0
M  V30 2589 N 252.755 -1.56801 0.158532 0
M  V30 2590 C 254.002 -1.9649 -0.489679 0
M  V30 2591 C 254.33 -1.04394 -1.6411 0
M  V30 2592 O 253.585 -0.0754401 -1.95555 0
M  V30 2593 C 253.884 -3.4235 -1.02623 0
M  V30 2594 C 253.55 -4.50899 0.00794526 0
M  V30 2595 C 252.212 -4.80312 0.292207 0
M  V30 2596 C 254.564 -5.16333 0.710584 0
M  V30 2597 C 251.892 -5.72461 1.28472 0
M  V30 2598 C 254.244 -6.09553 1.69199 0
M  V30 2599 C 252.908 -6.37339 1.98383 0
M  V30 2600 H 252.178 -0.719009 -0.179186 0
M  V30 2601 H 254.825 -1.8989 0.247798 0
M  V30 2602 H 253.13 -3.45838 -1.84128 0
M  V30 2603 H 254.827 -3.70393 -1.53656 0
M  V30 2604 H 251.417 -4.28015 -0.22379 0
M  V30 2605 H 255.601 -4.93732 0.504174 0
M  V30 2606 H 250.857 -5.92278 1.51714 0
M  V30 2607 H 255.031 -6.59327 2.24189 0
M  V30 2608 H 252.658 -7.08546 2.7544 0
M  V30 2609 N 254.233 0.115231 -1.57178 0
M  V30 2610 C 255.48 0.822351 -1.8505 0
M  V30 2611 C 255.808 1.79701 -0.744168 0
M  V30 2612 O 255.063 1.93909 0.26414 0
M  V30 2613 C 255.362 1.60324 -3.19423 0
M  V30 2614 C 255.028 0.772536 -4.44233 0
M  V30 2615 C 253.69 0.543468 -4.78121 0
M  V30 2616 C 256.042 0.193746 -5.2084 0
M  V30 2617 C 253.37 -0.274583 -5.86057 0
M  V30 2618 C 255.722 -0.611517 -6.29637 0
M  V30 2619 C 254.386 -0.850867 -6.62055 0
M  V30 2620 H 253.656 0.30092 -0.677147 0
M  V30 2621 H 256.303 0.0845802 -1.91313 0
M  V30 2622 H 254.608 2.41203 -3.08753 0
M  V30 2623 H 256.305 2.1544 -3.38211 0
M  V30 2624 H 252.895 0.96117 -4.17683 0
M  V30 2625 H 257.079 0.357926 -4.95008 0
M  V30 2626 H 252.335 -0.469206 -6.09597 0
M  V30 2627 H 256.509 -1.06697 -6.88178 0
M  V30 2628 H 254.136 -1.48657 -7.45523 0
M  V30 2629 N 255.711 1.52812 0.385517 0
M  V30 2630 C 256.641 1.80808 1.47752 0
M  V30 2631 C 257.622 0.660318 1.5676 0
M  V30 2632 O 258.807 0.908246 1.71652 0
M  V30 2633 C 255.937 1.98008 2.85324 0
M  V30 2634 C 254.891 3.13709 2.91154 0
M  V30 2635 C 254.217 3.16169 4.31209 0
M  V30 2636 C 255.517 4.52709 2.60483 0
M  V30 2637 H 257.211 2.72253 1.24573 0
M  V30 2638 H 254.757 1.31003 0.597839 0
M  V30 2639 H 256.71 2.16176 3.61726 0
M  V30 2640 H 255.434 1.03255 3.09848 0
M  V30 2641 H 254.093 2.95329 2.17201 0
M  V30 2642 H 253.741 2.19092 4.52778 0
M  V30 2643 H 253.441 3.93894 4.36029 0
M  V30 2644 H 254.965 3.36496 5.09512 0
M  V30 2645 H 256.379 4.71173 3.26602 0
M  V30 2646 H 254.776 5.32528 2.76648 0
M  V30 2647 H 255.846 4.59186 1.55809 0
M  V30 2648 N 257.189 -0.644168 1.43834 0
M  V30 2649 C 258.605 -0.960875 1.27434 0
M  V30 2650 C 258.805 -2.00499 0.200618 0
M  V30 2651 O 257.861 -2.49018 -0.417906 0
M  V30 2652 C 259.174 -1.43653 2.64167 0
M  V30 2653 C 260.722 -1.55271 2.71772 0
M  V30 2654 C 261.197 -2.06224 4.08944 0
M  V30 2655 N 262.688 -2.13513 4.11055 0
M  V30 2656 C 263.423 -2.54081 5.14033 0
M  V30 2657 N 262.919 -2.9388 6.27381 0
M  V30 2658 N 264.712 -2.54101 5.01387 0
M  V30 2659 H 256.863 0.0465779 2.12349 0
M  V30 2660 H 259.126 -0.0417638 0.94708 0
M  V30 2661 H 258.832 -0.743706 3.43747 0
M  V30 2662 H 258.706 -2.40993 2.90176 0
M  V30 2663 H 261.093 -2.23653 1.92519 0
M  V30 2664 H 261.174 -0.563395 2.49519 0
M  V30 2665 H 260.818 -1.38441 4.88668 0
M  V30 2666 H 260.748 -3.06003 4.28567 0
M  V30 2667 H 263.239 -1.85493 3.29242 0
M  V30 2668 H 263.552 -3.2361 7.01781 0
M  V30 2669 H 261.897 -2.91663 6.30839 0
M  V30 2670 H 265.088 -2.22391 4.11898 0
M  V30 2671 H 265.261 -2.85394 5.81768 0
M  V30 2672 N 258.668 -1.30515 -0.883378 0
M  V30 2673 C 259.578 -1.18959 -2.02203 0
M  V30 2674 C 260.594 -0.109172 -1.73657 0
M  V30 2675 O 261.77 -0.324413 -1.9877 0
M  V30 2676 C 258.835 -0.883871 -3.35244 0
M  V30 2677 C 257.896 -2.04982 -3.77201 0
M  V30 2678 C 257.129 -1.75859 -5.03894 0
M  V30 2679 O 257.352 -0.687276 -5.66244 0
M  V30 2680 O 256.286 -2.61146 -5.42297 0
M  V30 2681 H 260.112 -2.14616 -2.1488 0
M  V30 2682 H 257.697 -1.10124 -1.0096 0
M  V30 2683 H 259.579 -0.728644 -4.15053 0
M  V30 2684 H 258.254 0.0427798 -3.23672 0
M  V30 2685 H 257.161 -2.26038 -2.9809 0
M  V30 2686 H 258.494 -2.95825 -3.93381 0
M  V30 2687 N 260.146 1.09593 -1.13257 0
M  V30 2688 C 261.094 2.18271 -0.803783 0
M  V30 2689 C 262.088 1.68054 0.213148 0
M  V30 2690 O 263.294 1.79862 0.0704699 0
M  V30 2691 H 259.669 0.711949 -0.242143 0
M  V30 2692 H 261.64 2.43235 -1.72856 0
M  V30 2693 C 260.389 3.46536 -0.28424 0
M  V30 2694 H 259.712 3.85545 -1.05807 0
M  V30 2695 H 261.152 4.23899 -0.0925945 0
M  V30 2696 C 259.611 3.22036 0.989684 0
M  V30 2697 O 260.141 3.44509 2.06584 0
M  V30 2698 N 258.347 2.7565 0.920086 0
M  V30 2699 H 257.894 2.57562 0.0442019 0
M  V30 2700 H 257.852 2.59635 1.77306 0
M  V30 2701 N 261.624 0.925811 1.2754 0
M  V30 2702 C 262.534 0.428993 2.30644 0
M  V30 2703 C 263.55 -0.489387 1.66976 0
M  V30 2704 O 264.726 -0.372653 1.97922 0
M  V30 2705 C 261.791 -0.311967 3.45294 0
M  V30 2706 C 260.852 0.641098 4.24486 0
M  V30 2707 C 260.085 -0.0645955 5.33661 0
M  V30 2708 O 260.308 -1.28429 5.55754 0
M  V30 2709 O 259.242 0.606265 5.98839 0
M  V30 2710 H 263.068 1.28504 2.75173 0
M  V30 2711 H 260.653 0.691086 1.32455 0
M  V30 2712 H 262.535 -0.729972 4.15029 0
M  V30 2713 H 261.21 -1.14365 3.02824 0
M  V30 2714 H 260.117 1.10874 3.57292 0
M  V30 2715 H 261.45 1.43995 4.70666 0
M  V30 2716 N 263.102 -1.41638 0.69111 0
M  V30 2717 C 264.342 -2.03166 0.224291 0
M  V30 2718 C 264.706 -1.53537 -1.15284 0
M  V30 2719 O 265.907 -2.0696 -1.71525 0
M  V30 2720 C 264.178 -3.56342 0.274758 0
M  V30 2721 S 265.737 -4.3864 -0.118669 0
M  V30 2722 H 262.555 -0.705188 0.0907263 0
M  V30 2723 H 265.157 -1.7314 0.907895 0
M  V30 2724 H 263.861 -3.89958 1.2791 0
M  V30 2725 H 263.392 -3.91063 -0.428142 0
M  V30 2726 H 265.407 -4.77549 -1.34764 0
M  V30 2727 N 264.58 -0.43555 -1.51462 0
M  V30 2728 C 265.826 0.131709 -2.02372 0
M  V30 2729 C 266.159 1.42516 -1.3192 0
M  V30 2730 O 265.434 1.89606 -0.433573 0
M  V30 2731 C 265.717 0.352301 -3.58373 0
M  V30 2732 C 265.57 -0.959676 -4.39443 0
M  V30 2733 C 266.889 1.12286 -4.25535 0
M  V30 2734 H 264.008 0.0463936 -0.735538 0
M  V30 2735 H 266.65 -0.574197 -1.81116 0
M  V30 2736 H 264.8 0.9536 -3.76615 0
M  V30 2737 H 266.472 -1.59482 -4.32855 0
M  V30 2738 H 264.715 -1.56468 -4.04599 0
M  V30 2739 H 265.386 -0.759394 -5.46752 0
M  V30 2740 H 267.862 0.613545 -4.11552 0
M  V30 2741 H 266.738 1.24598 -5.34571 0
M  V30 2742 H 266.999 2.15048 -3.86273 0
M  V30 2743 N 266.058 1.56714 -0.166846 0
M  V30 2744 C 267.283 2.01557 0.488833 0
M  V30 2745 C 267.708 1.0463 1.56314 0
M  V30 2746 O 267.066 0.0251304 1.81283 0
M  V30 2747 C 267.114 3.4503 1.04818 0
M  V30 2748 O 266.218 3.51163 2.16236 0
M  V30 2749 H 265.559 0.653516 0.117526 0
M  V30 2750 H 268.089 2.02818 -0.269421 0
M  V30 2751 H 268.099 3.84243 1.37191 0
M  V30 2752 H 266.774 4.15077 0.261572 0
M  V30 2753 H 265.351 3.23807 1.84942 0
M  V30 2754 N 267.536 -0.106894 1.57237 0
M  V30 2755 C 268.776 -0.818277 1.87306 0
M  V30 2756 C 269.14 -1.76474 0.756371 0
M  V30 2757 O 270.341 -2.5186 0.939155 0
M  V30 2758 C 268.612 -1.53806 3.22612 0
M  V30 2759 S 270.171 -2.28935 3.74345 0
M  V30 2760 H 266.989 -0.272862 0.656557 0
M  V30 2761 H 269.591 -0.075988 1.95352 0
M  V30 2762 H 268.295 -0.834951 4.01817 0
M  V30 2763 H 267.826 -2.32049 3.17674 0
M  V30 2764 H 269.841 -3.54871 3.46815 0
M  V30 2765 N 269.014 -1.53014 -0.377408 0
M  V30 2766 C 270.239 -1.72818 -1.14668 0
M  V30 2767 C 270.664 -0.450725 -1.8262 0
M  V30 2768 O 270.022 0.59439 -1.7128 0
M  V30 2769 C 270.07 -2.88627 -2.16164 0
M  V30 2770 O 269.174 -2.56409 -3.22998 0
M  V30 2771 H 268.515 -0.574301 -0.333278 0
M  V30 2772 H 271.045 -1.99853 -0.438152 0
M  V30 2773 H 271.055 -3.14455 -2.59966 0
M  V30 2774 H 269.73 -3.81294 -1.66095 0
M  V30 2775 H 268.307 -2.4136 -2.84253 0
M  V30 2776 N 270.492 0.636531 -1.44174 0
M  V30 2777 C 271.44 1.76995 -1.50915 0
M  V30 2778 C 272.434 1.65053 -0.381295 0
M  V30 2779 O 273.64 1.71197 -0.55601 0
M  V30 2780 H 270.015 0.584247 -0.473455 0
M  V30 2781 H 271.986 1.68432 -2.4632 0
M  V30 2782 C 270.735 3.15314 -1.46534 0
M  V30 2783 H 270.058 3.25149 -2.32633 0
M  V30 2784 H 271.498 3.9453 -1.55312 0
M  V30 2785 C 269.957 3.3639 -0.185305 0
M  V30 2786 O 270.487 3.94699 0.746688 0
M  V30 2787 N 268.693 2.9046 -0.0901606 0
M  V30 2788 H 268.24 2.43193 -0.849416 0
M  V30 2789 H 268.198 3.04937 0.765553 0
M  V30 2790 N 271.97 1.30982 0.876444 0
M  V30 2791 C 273.21 1.21589 1.64303 0
M  V30 2792 C 273.574 -0.223962 1.90689 0
M  V30 2793 O 274.775 -0.44128 2.65153 0
M  V30 2794 C 273.046 2.03007 2.94148 0
M  V30 2795 S 274.605 2.10405 3.85065 0
M  V30 2796 H 271.423 0.433161 0.563819 0
M  V30 2797 H 274.025 1.65565 1.03964 0
M  V30 2798 H 272.729 3.06719 2.72675 0
M  V30 2799 H 272.26 1.59725 3.59515 0
M  V30 2800 H 274.275 1.23765 4.80517 0
M  V30 2801 N 273.449 -1.08991 1.13837 0
M  V30 2802 C 274.396 -2.15748 0.819835 0
M  V30 2803 C 275.366 -1.64636 -0.220026 0
M  V30 2804 O 276.551 -1.90582 -0.0912757 0
M  V30 2805 C 273.691 -3.4382 0.296913 0
M  V30 2806 C 272.804 -4.0881 1.39636 0
M  V30 2807 C 271.939 -5.24655 0.831314 0
M  V30 2808 C 270.978 -5.81575 1.90886 0
M  V30 2809 N 270.115 -6.88774 1.36142 0
M  V30 2810 H 274.955 -2.42338 1.73426 0
M  V30 2811 H 272.492 -1.18935 0.865613 0
M  V30 2812 H 274.45 -4.17193 -0.0244339 0
M  V30 2813 H 273.08 -3.17535 -0.580628 0
M  V30 2814 H 272.132 -3.33258 1.83422 0
M  V30 2815 H 273.444 -4.47141 2.21058 0
M  V30 2816 H 272.598 -6.04942 0.461515 0
M  V30 2817 H 271.337 -4.87698 -0.013932 0
M  V30 2818 H 270.342 -4.99946 2.28767 0
M  V30 2819 H 271.567 -6.20592 2.75758 0
M  V30 2820 H 269.513 -6.53788 0.538254 0
M  V30 2821 H 269.43 -7.25898 2.11208 0
M  V30 2822 H 270.698 -7.72806 1.01933 0
M  V30 2823 N 274.927 -0.932562 -1.27047 0
M  V30 2824 C 275.874 -0.434072 -2.26681 0
M  V30 2825 C 276.844 0.501639 -1.58344 0
M  V30 2826 O 278.029 0.419734 -1.86126 0
M  V30 2827 C 275.169 0.30261 -3.43771 0
M  V30 2828 C 274.282 -0.667774 -4.26808 0
M  V30 2829 C 273.417 0.0892393 -5.31125 0
M  V30 2830 C 272.456 -0.873532 -6.05835 0
M  V30 2831 N 271.593 -0.148832 -7.01942 0
M  V30 2832 H 276.433 -1.28868 -2.68695 0
M  V30 2833 H 273.97 -0.646713 -1.32121 0
M  V30 2834 H 275.928 0.746092 -4.10474 0
M  V30 2835 H 274.558 1.12142 -3.02695 0
M  V30 2836 H 273.61 -1.22978 -3.59973 0
M  V30 2837 H 274.922 -1.40337 -4.78651 0
M  V30 2838 H 274.076 0.592409 -6.03801 0
M  V30 2839 H 272.815 0.85777 -4.80097 0
M  V30 2840 H 271.82 -1.38791 -5.31994 0
M  V30 2841 H 273.045 -1.64193 -6.58952 0
M  V30 2842 H 270.991 0.601365 -6.53238 0
M  V30 2843 H 270.908 -0.82391 -7.51497 0
M  V30 2844 H 272.176 0.333527 -7.78786 0
M  V30 2845 N 276.405 1.4127 -0.698611 0
M  V30 2846 C 277.63 2.06024 -0.238512 0
M  V30 2847 C 278.055 1.5224 1.10475 0
M  V30 2848 O 277.413 0.650623 1.69223 0
M  V30 2849 C 277.461 3.59988 -0.209952 0
M  V30 2850 O 276.565 4.04282 0.814235 0
M  V30 2851 H 275.906 0.653829 -0.115775 0
M  V30 2852 H 278.436 1.8098 -0.954326 0
M  V30 2853 H 278.446 4.07979 -0.0418436 0
M  V30 2854 H 277.121 3.98503 -1.1903 0
M  V30 2855 H 275.698 3.6779 0.615234 0
M  V30 2856 N 277.883 0.443576 1.51229 0
M  V30 2857 C 278.813 -0.355142 2.30783 0
M  V30 2858 C 279.794 -1.0154 1.36468 0
M  V30 2859 O 280.979 -1.01785 1.65389 0
M  V30 2860 C 278.109 -1.45312 3.15439 0
M  V30 2861 C 277.063 -0.916002 4.18083 0
M  V30 2862 C 276.389 -2.1102 4.91299 0
M  V30 2863 C 277.689 0.0538602 5.22272 0
M  V30 2864 H 279.383 0.308767 2.97804 0
M  V30 2865 H 276.929 0.149937 1.43217 0
M  V30 2866 H 278.882 -2.01914 3.69876 0
M  V30 2867 H 277.606 -2.14541 2.46252 0
M  V30 2868 H 276.265 -0.372145 3.64706 0
M  V30 2869 H 275.913 -2.78882 4.18609 0
M  V30 2870 H 275.613 -1.75717 5.60712 0
M  V30 2871 H 277.137 -2.68164 5.48562 0
M  V30 2872 H 278.551 -0.422069 5.71744 0
M  V30 2873 H 276.948 0.319776 5.99247 0
M  V30 2874 H 278.018 0.98858 4.74716 0
M  V30 2875 N 279.361 -1.56624 0.175154 0
M  V30 2876 C 280.271 -2.21741 -0.766042 0
M  V30 2877 C 281.287 -1.21023 -1.25018 0
M  V30 2878 O 282.463 -1.53697 -1.3015 0
M  V30 2879 C 279.528 -2.84839 -1.97655 0
M  V30 2880 C 278.589 -4.00769 -1.53892 0
M  V30 2881 C 277.822 -4.60849 -2.69173 0
M  V30 2882 O 278.045 -4.19823 -3.86141 0
M  V30 2883 O 276.979 -5.50655 -2.43028 0
M  V30 2884 H 280.805 -3.02738 -0.241585 0
M  V30 2885 H 278.39 -1.49305 -0.053222 0
M  V30 2886 H 280.272 -3.24834 -2.68442 0
M  V30 2887 H 278.947 -2.06836 -2.48999 0
M  V30 2888 H 277.854 -3.65436 -0.80044 0
M  V30 2889 H 279.187 -4.80376 -1.07236 0
M  V30 2890 N 280.839 0.0985539 -1.57292 0
M  V30 2891 C 282.079 0.808332 -1.87737 0
M  V30 2892 C 282.443 1.7607 -0.76572 0
M  V30 2893 O 283.644 2.51358 -0.952499 0
M  V30 2894 C 281.915 1.52093 -3.23423 0
M  V30 2895 S 283.474 2.26947 -3.75554 0
M  V30 2896 H 280.292 0.269377 -0.657995 0
M  V30 2897 H 282.894 0.0656269 -1.9539 0
M  V30 2898 H 281.598 0.81363 -4.02254 0
M  V30 2899 H 281.129 2.30361 -3.189 0
M  V30 2900 H 283.144 3.53027 -3.48692 0
M  V30 2901 N 282.317 1.53212 0.369288 0
M  V30 2902 C 283.545 1.73119 1.13303 0
M  V30 2903 C 283.96 0.458455 1.83149 0
M  V30 2904 O 283.317 -0.568403 1.73423 0
M  V30 2905 C 283.368 2.89413 2.16616 0
M  V30 2906 O 283.089 4.11761 1.49614 0
M  V30 2907 C 284.59 3.21161 3.05566 0
M  V30 2908 H 281.81 0.579107 0.338934 0
M  V30 2909 H 284.354 1.99942 0.429338 0
M  V30 2910 H 282.509 2.64994 2.82589 0
M  V30 2911 H 282.923 4.76858 2.18419 0
M  V30 2912 H 284.397 4.05949 3.74045 0
M  V30 2913 H 284.874 2.36369 3.70171 0
M  V30 2914 H 285.48 3.47492 2.45213 0
M  V30 2915 N 283.795 -0.628877 1.44509 0
M  V30 2916 C 284.742 -1.74074 1.51549 0
M  V30 2917 C 285.712 -1.62084 0.363021 0
M  V30 2918 O 286.897 -1.81975 0.573567 0
M  V30 2919 C 284.037 -3.12328 1.46784 0
M  V30 2920 C 283.15 -3.35277 2.72422 0
M  V30 2921 C 282.285 -4.63515 2.59475 0
M  V30 2922 C 281.324 -4.7965 3.80266 0
M  V30 2923 N 280.461 -5.99168 3.65981 0
M  V30 2924 H 285.301 -1.67392 2.46544 0
M  V30 2925 H 282.838 -0.816527 1.22357 0
M  V30 2926 H 284.796 -3.92286 1.42012 0
M  V30 2927 H 283.426 -3.18018 0.553544 0
M  V30 2928 H 282.478 -2.49242 2.87372 0
M  V30 2929 H 283.79 -3.43078 3.62076 0
M  V30 2930 H 282.944 -5.51638 2.52548 0
M  V30 2931 H 281.683 -4.58076 1.67384 0
M  V30 2932 H 280.688 -3.89957 3.87574 0
M  V30 2933 H 281.913 -4.86902 4.73395 0
M  V30 2934 H 279.859 -5.94814 2.76644 0
M  V30 2935 H 279.776 -6.08035 4.49254 0
M  V30 2936 H 281.044 -6.89846 3.6295 0
M  V30 2937 N 285.273 -1.31445 -0.869486 0
M  V30 2938 C 286.203 -1.21727 -1.99261 0
M  V30 2939 C 287.184 -0.104359 -1.6978 0
M  V30 2940 O 288.369 -0.289038 -1.92037 0
M  V30 2941 C 285.499 -0.924317 -3.34774 0
M  V30 2942 C 284.453 -1.99685 -3.78563 0
M  V30 2943 C 283.779 -1.55658 -5.11541 0
M  V30 2944 C 285.079 -3.41003 -3.95619 0
M  V30 2945 H 286.773 -2.1569 -2.07649 0
M  V30 2946 H 284.319 -1.03839 -0.997675 0
M  V30 2947 H 286.272 -0.842934 -4.12883 0
M  V30 2948 H 284.996 0.0509793 -3.2656 0
M  V30 2949 H 283.655 -2.06813 -3.02694 0
M  V30 2950 H 283.303 -0.569132 -4.9977 0
M  V30 2951 H 283.003 -2.27409 -5.41811 0
M  V30 2952 H 284.527 -1.48928 -5.92159 0
M  V30 2953 H 285.941 -3.36547 -4.64122 0
M  V30 2954 H 284.338 -4.10975 -4.37286 0
M  V30 2955 H 285.408 -3.81754 -2.98985 0
M  V30 2956 N 286.751 1.08385 -1.14413 0
M  V30 2957 C 287.991 1.8238 -0.922868 0
M  V30 2958 C 288.355 1.84225 0.540842 0
M  V30 2959 O 289.556 2.53985 0.880058 0
M  V30 2960 C 287.827 3.24048 -1.50757 0
M  V30 2961 S 289.386 4.14917 -1.4279 0
M  V30 2962 H 286.204 0.628524 -0.332384 0
M  V30 2963 H 288.806 1.30278 -1.45766 0
M  V30 2964 H 287.51 3.20288 -2.56601 0
M  V30 2965 H 287.041 3.81224 -0.971178 0
M  V30 2966 H 289.056 4.94473 -0.413582 0
M  V30 2967 N 288.23 0.939286 1.26551 0
M  V30 2968 C 289.16 0.465044 2.28822 0
M  V30 2969 C 290.141 -0.480692 1.63167 0
M  V30 2970 O 291.326 -0.382955 1.90387 0
M  V30 2971 C 288.456 -0.27234 3.46231 0
M  V30 2972 C 287.41 0.58666 4.2396 0
M  V30 2973 C 286.736 -0.280573 5.33963 0
M  V30 2974 C 288.036 1.85704 4.88171 0
M  V30 2975 H 289.73 1.31979 2.68741 0
M  V30 2976 H 287.276 0.636061 1.29191 0
M  V30 2977 H 289.229 -0.615133 4.16886 0
M  V30 2978 H 287.953 -1.16121 3.0526 0
M  V30 2979 H 286.612 0.91232 3.55067 0
M  V30 2980 H 286.26 -1.16874 4.89234 0
M  V30 2981 H 285.96 0.29076 5.8688 0
M  V30 2982 H 287.484 -0.618678 6.07458 0
M  V30 2983 H 288.898 1.58161 5.51052 0
M  V30 2984 H 287.295 2.37279 5.51197 0
M  V30 2985 H 288.365 2.56957 4.11219 0
M  V30 2986 N 289.708 -1.40897 0.706093 0
M  V30 2987 C 291.119 -1.84023 0.315052 0
M  V30 2988 C 291.47 -1.5906 -1.14866 0
M  V30 2989 O 290.595 -1.06651 -1.88293 0
M  V30 2990 C 291.19 -3.34055 0.565038 0
M  V30 2991 C 289.749 -3.7571 0.227806 0
M  V30 2992 C 288.896 -2.64204 0.842122 0
M  V30 2993 H 291.847 -1.303 0.905963 0
M  V30 2994 H 291.868 -3.80107 -0.172843 0
M  V30 2995 H 291.38 -3.52192 1.63042 0
M  V30 2996 H 289.481 -3.63172 -0.832895 0
M  V30 2997 H 289.594 -4.74103 0.690174 0
M  V30 2998 H 287.958 -2.53255 0.270893 0
M  V30 2999 H 288.741 -2.85155 1.91158 0
M  V30 3000 N 291.186 -0.45159 -1.50991 0
M  V30 3001 C 292.118 0.388634 -2.25881 0
M  V30 3002 C 293.131 0.974041 -1.30446 0
M  V30 3003 O 294.32 0.865758 -1.56099 0
M  V30 3004 C 291.42 1.5571 -3.01011 0
M  V30 3005 C 290.593 1.08801 -4.23652 0
M  V30 3006 C 289.652 2.12825 -4.8124 0
M  V30 3007 O 288.678 1.71678 -5.42693 0
M  V30 3008 N 289.88 3.45453 -4.66522 0
M  V30 3009 H 292.645 -0.25329 -2.98628 0
M  V30 3010 H 290.206 -0.281268 -1.59438 0
M  V30 3011 H 292.198 2.24952 -3.3642 0
M  V30 3012 H 290.768 2.10409 -2.31186 0
M  V30 3013 H 289.988 0.22215 -3.93574 0
M  V30 3014 H 291.276 0.752213 -5.03209 0
M  V30 3015 H 290.674 3.81605 -4.17605 0
M  V30 3016 H 289.231 4.10549 -5.06254 0
M  V30 3017 N 292.664 1.56529 -0.183458 0
M  V30 3018 C 293.913 1.96419 0.458511 0
M  V30 3019 C 294.226 1.0727 1.63562 0
M  V30 3020 O 295.432 1.36893 2.34462 0
M  V30 3021 C 293.888 3.49298 0.867122 0
M  V30 3022 C 293.496 4.47092 -0.285057 0
M  V30 3023 C 295.24 3.97983 1.47683 0
M  V30 3024 C 293.147 5.91225 0.143862 0
M  V30 3025 H 292.077 0.733394 0.175071 0
M  V30 3026 H 294.728 1.81448 -0.273624 0
M  V30 3027 H 293.11 3.59731 1.65559 0
M  V30 3028 H 294.284 4.48383 -1.0625 0
M  V30 3029 H 292.599 4.08535 -0.805503 0
M  V30 3030 H 295.196 5.03134 1.80999 0
M  V30 3031 H 295.539 3.41618 2.37914 0
M  V30 3032 H 296.072 3.90617 0.752562 0
M  V30 3033 H 292.811 6.5149 -0.723974 0
M  V30 3034 H 292.331 5.93214 0.886413 0
M  V30 3035 H 294.01 6.44362 0.583628 0
M  V30 3036 N 294.142 -0.090211 1.57342 0
M  V30 3037 C 295.052 -1.12735 2.05738 0
M  V30 3038 C 296.068 -1.43557 0.983231 0
M  V30 3039 O 297.244 -1.54101 1.29672 0
M  V30 3040 C 294.309 -2.42659 2.47624 0
M  V30 3041 C 293.37 -2.18975 3.69254 0
M  V30 3042 C 292.603 -3.42704 4.09133 0
M  V30 3043 O 292.826 -4.51127 3.49057 0
M  V30 3044 O 291.76 -3.32003 5.02053 0
M  V30 3045 H 295.586 -0.746279 2.94388 0
M  V30 3046 H 293.171 -0.303064 1.46294 0
M  V30 3047 H 295.053 -3.19155 2.7517 0
M  V30 3048 H 293.728 -2.80182 1.62109 0
M  V30 3049 H 292.635 -1.40244 3.46818 0
M  V30 3050 H 293.968 -1.86342 4.55563 0
M  V30 3051 N 295.62 -1.53406 -0.361157 0
M  V30 3052 C 296.568 -1.80832 -1.46296 0
M  V30 3053 C 297.562 -0.677699 -1.55253 0
M  V30 3054 O 298.768 -0.860723 -1.58087 0
M  V30 3055 H 295.143 -0.572627 -0.487445 0
M  V30 3056 H 297.114 -2.73045 -1.20371 0
M  V30 3057 C 295.863 -2.01907 -2.8307 0
M  V30 3058 H 295.186 -2.88349 -2.76938 0
M  V30 3059 H 296.626 -2.25072 -3.59331 0
M  V30 3060 C 295.085 -0.799449 -3.27277 0
M  V30 3061 O 295.615 0.00971761 -4.01699 0
M  V30 3062 N 293.821 -0.621637 -2.83873 0
M  V30 3063 H 293.368 -1.28126 -2.23476 0
M  V30 3064 H 293.326 0.19298 -3.13807 0
M  V30 3065 N 297.098 0.621204 -1.44841 0
M  V30 3066 C 298.344 1.3826 -1.48365 0
M  V30 3067 C 298.677 1.93831 -0.119624 0
M  V30 3068 O 297.952 1.74251 0.864111 0
M  V30 3069 C 298.235 2.54058 -2.55199 0
M  V30 3070 C 298.088 2.03772 -4.00995 0
M  V30 3071 C 299.407 3.56225 -2.58442 0
M  V30 3072 H 296.526 0.501374 -0.540179 0
M  V30 3073 H 299.168 0.7015 -1.76576 0
M  V30 3074 H 297.318 3.12162 -2.31274 0
M  V30 3075 H 298.99 1.50423 -4.36086 0
M  V30 3076 H 297.233 1.34876 -4.12299 0
M  V30 3077 H 297.904 2.87185 -4.71411 0
M  V30 3078 H 300.38 3.07939 -2.79844 0
M  V30 3079 H 299.256 4.34756 -3.3508 0
M  V30 3080 H 299.517 4.10949 -1.63013 0
M  V30 3081 N 298.576 1.31904 0.862503 0
M  V30 3082 C 299.523 1.20182 1.9704 0
M  V30 3083 C 300.493 0.0858247 1.65878 0
M  V30 3084 O 301.678 0.26 1.8902 0
M  V30 3085 C 298.818 0.922797 3.32533 0
M  V30 3086 C 297.931 2.12284 3.76244 0
M  V30 3087 C 297.066 1.77996 5.00491 0
M  V30 3088 C 296.105 2.94366 5.36671 0
M  V30 3089 N 295.242 2.60223 6.52095 0
M  V30 3090 H 300.082 2.14951 2.06398 0
M  V30 3091 H 297.619 1.06917 1.01031 0
M  V30 3092 H 299.577 0.741548 4.10557 0
M  V30 3093 H 298.207 0.0119227 3.22798 0
M  V30 3094 H 297.259 2.41461 2.9394 0
M  V30 3095 H 298.571 2.99357 3.98982 0
M  V30 3096 H 297.725 1.56377 5.862 0
M  V30 3097 H 296.464 0.881252 4.79672 0
M  V30 3098 H 295.469 3.16625 4.49476 0
M  V30 3099 H 296.694 3.84957 5.59451 0
M  V30 3100 H 294.64 1.72884 6.32809 0
M  V30 3101 H 294.557 3.40827 6.74814 0
M  V30 3102 H 295.825 2.42016 7.40978 0
M  V30 3103 N 300.054 -1.07777 1.14986 0
M  V30 3104 C 301.302 -1.79934 0.920235 0
M  V30 3105 C 301.623 -1.86955 -0.554336 0
M  V30 3106 O 300.893 -1.36731 -1.40291 0
M  V30 3107 H 299.473 -0.666424 0.337473 0
M  V30 3108 H 302.135 -1.3027 1.44968 0
M  V30 3109 H 301.231 -2.82539 1.32583 0
M  V30 3110 N 301.532 -0.945985 -1.26051 0
M  V30 3111 C 302.76 -0.613025 -1.9761 0
M  V30 3112 C 303.175 0.813035 -1.70397 0
M  V30 3113 O 302.532 1.54274 -0.974979 0
M  V30 3114 C 302.583 -0.85159 -3.51326 0
M  V30 3115 O 302.304 -2.22157 -3.77595 0
M  V30 3116 C 303.805 -0.529831 -4.40122 0
M  V30 3117 H 301.025 -0.230593 -0.630133 0
M  V30 3118 H 303.569 -1.268 -1.60443 0
M  V30 3119 H 301.724 -0.243151 -3.86636 0
M  V30 3120 H 302.138 -2.2852 -4.721 0
M  V30 3121 H 303.612 -0.747348 -5.46917 0
M  V30 3122 H 304.089 0.535341 -4.35925 0
M  V30 3123 H 304.695 -1.11721 -4.10364 0
M  V30 3124 N 303.011 1.40521 -0.713556 0
M  V30 3125 C 303.921 2.34522 -0.0606667 0
M  V30 3126 C 304.937 1.57193 0.74607 0
M  V30 3127 O 306.113 1.89591 0.679493 0
M  V30 3128 C 303.178 3.36081 0.851491 0
M  V30 3129 C 302.239 4.29286 0.0349339 0
M  V30 3130 C 301.472 5.25994 0.903649 0
M  V30 3131 O 301.695 5.28616 2.14292 0
M  V30 3132 O 300.629 6.00918 0.343723 0
M  V30 3133 H 304.455 2.91968 -0.835972 0
M  V30 3134 H 302.04 1.41681 -0.47402 0
M  V30 3135 H 303.922 3.98369 1.37404 0
M  V30 3136 H 302.597 2.81052 1.60598 0
M  V30 3137 H 301.504 3.70289 -0.532633 0
M  V30 3138 H 302.837 4.87462 -0.681287 0
M  V30 3139 N 304.489 0.459591 1.5075 0
M  V30 3140 C 305.766 -0.160371 1.94941 0
M  V30 3141 C 306.146 -1.58048 1.39943 0
M  V30 3142 O 305.494 -2.206 0.595629 0
M  V30 3143 C 305.704 -0.115432 3.48809 0
M  V30 3144 C 307.052 -0.310026 4.23467 0
M  V30 3145 O 308.076 -0.192543 3.55679 0
M  V30 3146 O 306.935 -0.546031 5.43765 0
M  V30 3147 H 304.029 -0.117925 0.818549 0
M  V30 3148 H 306.575 0.519169 1.61563 0
M  V30 3149 H 305.347 0.87652 3.81357 0
M  V30 3150 H 304.97 -0.836928 3.88692 0
M  V30 3151 N 305.967 -1.56429 0.191757 0
M  V30 3152 C 307.192 -2.02309 -0.456706 0
M  V30 3153 C 307.617 -1.07103 -1.5463 0
M  V30 3154 O 306.975 -0.0539677 -1.8122 0
M  V30 3155 C 307.023 -3.46654 -0.993159 0
M  V30 3156 O 306.127 -3.54559 -2.10622 0
M  V30 3157 H 305.468 -0.655303 -0.107114 0
M  V30 3158 H 307.998 -2.02364 0.301653 0
M  V30 3159 H 308.008 -3.86377 -1.31061 0
M  V30 3160 H 306.683 -4.1544 -0.195504 0
M  V30 3161 H 305.26 -3.26708 -1.79767 0
M  V30 3162 N 307.445 0.0818655 -1.57387 0
M  V30 3163 C 308.693 0.781368 -1.86384 0
M  V30 3164 C 309.014 1.78618 -0.782342 0
M  V30 3165 O 308.284 1.94976 0.190061 0
M  V30 3166 H 306.864 0.291562 -0.687751 0
M  V30 3167 H 309.526 0.060348 -1.94807 0
M  V30 3168 H 308.622 1.3038 -2.83562 0
M  V30 3169 N 308.923 1.53595 0.353017 0
M  V30 3170 C 310.151 1.74311 1.1146 0
M  V30 3171 C 310.566 0.477854 1.82653 0
M  V30 3172 O 309.923 -0.549977 1.74016 0
M  V30 3173 C 309.974 2.91694 2.13534 0
M  V30 3174 O 309.695 4.13325 1.45238 0
M  V30 3175 C 311.196 3.24384 3.02142 0
M  V30 3176 H 308.416 0.582669 0.332773 0
M  V30 3177 H 310.96 2.00386 0.408107 0
M  V30 3178 H 309.115 2.67977 2.79763 0
M  V30 3179 H 309.529 4.79148 2.13349 0
M  V30 3180 H 311.003 4.09893 3.69718 0
M  V30 3181 H 311.48 2.40282 3.67643 0
M  V30 3182 H 312.086 3.50073 2.41514 0
M  V30 3183 N 310.401 -0.613514 1.45168 0
M  V30 3184 C 311.629 -1.39946 1.5239 0
M  V30 3185 C 312.044 -1.88167 0.154531 0
M  V30 3186 O 311.401 -1.61872 -0.842843 0
M  V30 3187 C 311.452 -2.60795 2.50337 0
M  V30 3188 O 311.173 -2.1458 3.81952 0
M  V30 3189 C 312.674 -3.53723 2.67198 0
M  V30 3190 H 309.894 -0.428593 0.516284 0
M  V30 3191 H 312.438 -0.748753 1.903 0
M  V30 3192 H 310.593 -3.21919 2.15515 0
M  V30 3193 H 311.007 -2.93055 4.34993 0
M  V30 3194 H 312.481 -4.35079 3.39721 0
M  V30 3195 H 312.958 -4.0368 1.73029 0
M  V30 3196 H 313.564 -2.98456 3.02992 0
M  V30 3197 N 311.879 -1.3236 -0.855495 0
M  V30 3198 C 313.125 -1.23054 -1.612 0
M  V30 3199 C 313.458 0.207404 -1.93089 0
M  V30 3200 O 312.733 1.14432 -1.57275 0
M  V30 3201 C 313.016 -2.08937 -2.93287 0
M  V30 3202 C 312.869 -3.61105 -2.68185 0
M  V30 3203 C 314.188 -1.94986 -3.94549 0
M  V30 3204 H 311.307 -0.448364 -0.584926 0
M  V30 3205 H 313.949 -1.62297 -0.987917 0
M  V30 3206 H 312.099 -1.75599 -3.46551 0
M  V30 3207 H 313.771 -4.04652 -2.21483 0
M  V30 3208 H 312.014 -3.83813 -2.02164 0
M  V30 3209 H 312.685 -4.16522 -3.62234 0
M  V30 3210 H 315.161 -2.24189 -3.5054 0
M  V30 3211 H 314.037 -2.57356 -4.84829 0
M  V30 3212 H 314.298 -0.917263 -4.3248 0
M  V30 3213 N 313.357 1.07166 -1.15556 0
M  V30 3214 C 314.287 2.16403 -0.877046 0
M  V30 3215 C 315.268 1.69217 0.173111 0
M  V30 3216 O 316.453 1.94181 0.027084 0
M  V30 3217 C 313.583 3.45349 -0.367632 0
M  V30 3218 C 312.537 4.05995 -1.35468 0
M  V30 3219 C 311.863 5.30045 -0.704038 0
M  V30 3220 C 313.163 4.45804 -2.72132 0
M  V30 3221 H 314.857 2.39959 -1.79053 0
M  V30 3222 H 312.403 1.15325 -0.862331 0
M  V30 3223 H 314.356 4.21095 -0.160317 0
M  V30 3224 H 313.08 3.21385 0.581326 0
M  V30 3225 H 311.739 3.32296 -1.54839 0
M  V30 3226 H 311.387 5.02373 0.251128 0
M  V30 3227 H 311.087 5.71579 -1.36277 0
M  V30 3228 H 312.611 6.08495 -0.50654 0
M  V30 3229 H 314.025 5.12671 -2.56595 0
M  V30 3230 H 312.422 4.98296 -3.34397 0
M  V30 3231 H 313.492 3.57083 -3.28054 0
M  V30 3232 N 314.835 0.952656 1.25548 0
M  V30 3233 C 315.765 0.489287 2.28316 0
M  V30 3234 C 316.746 -0.463359 1.63667 0
M  V30 3235 O 317.931 -0.36274 1.90782 0
M  V30 3236 C 315.061 -0.235603 3.465 0
M  V30 3237 C 314.015 0.631593 4.23314 0
M  V30 3238 C 313.341 -0.223923 5.34231 0
M  V30 3239 C 314.641 1.90871 4.86174 0
M  V30 3240 H 316.335 1.34822 2.67326 0
M  V30 3241 H 313.881 0.649728 1.28509 0
M  V30 3242 H 315.834 -0.570882 4.17515 0
M  V30 3243 H 314.558 -1.12877 3.06474 0
M  V30 3244 H 313.217 0.949929 3.54079 0
M  V30 3245 H 312.865 -1.11678 4.90446 0
M  V30 3246 H 312.565 0.35299 5.86539 0
M  V30 3247 H 314.089 -0.554214 6.0808 0
M  V30 3248 H 315.503 1.63997 5.49343 0
M  V30 3249 H 313.9 2.43112 5.4865 0
M  V30 3250 H 314.97 2.61304 4.08471 0
M  V30 3251 N 316.313 -1.40141 0.720998 0
M  V30 3252 C 317.724 -1.83678 0.334553 0
M  V30 3253 C 318.075 -1.6027 -1.13173 0
M  V30 3254 O 317.2 -1.08643 -1.87152 0
M  V30 3255 C 317.795 -3.33437 0.600437 0
M  V30 3256 C 316.354 -3.75447 0.267642 0
M  V30 3257 C 315.501 -2.63296 0.870097 0
M  V30 3258 H 318.452 -1.29331 0.919732 0
M  V30 3259 H 318.473 -3.80269 -0.132517 0
M  V30 3260 H 317.985 -3.50442 1.66768 0
M  V30 3261 H 316.086 -3.64035 -0.794329 0
M  V30 3262 H 316.199 -4.73344 0.74042 0
M  V30 3263 H 314.563 -2.52954 0.297739 0
M  V30 3264 H 315.346 -2.83112 1.94172 0
M  V30 3265 N 317.792 -0.46758 -1.50504 0
M  V30 3266 C 318.722 0.318381 -2.31319 0
M  V30 3267 C 319.703 0.993564 -1.38066 0
M  V30 3268 O 320.888 0.991411 -1.66987 0
M  V30 3269 C 318.018 1.40275 -3.17711 0
M  V30 3270 C 316.972 0.849373 -4.19487 0
M  V30 3271 C 316.298 2.03177 -4.94594 0
M  V30 3272 C 317.598 -0.136942 -5.2212 0
M  V30 3273 H 319.292 -0.356106 -2.97275 0
M  V30 3274 H 316.838 -0.172703 -1.42961 0
M  V30 3275 H 318.791 1.96004 -3.73042 0
M  V30 3276 H 317.515 2.10596 -2.49634 0
M  V30 3277 H 316.174 0.314076 -3.65252 0
M  V30 3278 H 315.822 2.72187 -4.22993 0
M  V30 3279 H 315.522 1.66774 -5.63436 0
M  V30 3280 H 317.046 2.59403 -5.52759 0
M  V30 3281 H 318.46 0.331056 -5.72343 0
M  V30 3282 H 316.857 -0.41507 -5.98663 0
M  V30 3283 H 317.927 -1.06398 -4.73083 0
M  V30 3284 N 319.27 1.56325 -0.20005 0
M  V30 3285 C 320.516 1.98012 0.438059 0
M  V30 3286 C 320.849 1.08702 1.60927 0
M  V30 3287 O 320.124 0.140064 1.93995 0
M  V30 3288 C 320.407 3.48841 0.893419 0
M  V30 3289 C 320.26 4.48928 -0.279947 0
M  V30 3290 C 321.579 4.03498 1.75719 0
M  V30 3291 H 318.698 0.719918 0.157757 0
M  V30 3292 H 321.34 1.87743 -0.291968 0
M  V30 3293 H 319.49 3.57723 1.51547 0
M  V30 3294 H 321.162 4.52079 -0.91772 0
M  V30 3295 H 319.405 4.23694 -0.930919 0
M  V30 3296 H 320.076 5.5194 0.0812601 0
M  V30 3297 H 322.552 3.97427 1.23253 0
M  V30 3298 H 321.428 5.09393 2.04476 0
M  V30 3299 H 321.689 3.4906 2.71311 0
M  V30 3300 N 320.748 -0.0735177 1.57428 0
M  V30 3301 C 321.997 -0.771809 1.86349 0
M  V30 3302 C 322.31 -1.78828 0.792452 0
M  V30 3303 O 323.516 -2.53602 0.96945 0
M  V30 3304 C 321.972 -1.42358 3.30548 0
M  V30 3305 C 321.58 -0.445761 4.45777 0
M  V30 3306 C 323.324 -2.10434 3.6867 0
M  V30 3307 C 321.231 -1.10335 5.81016 0
M  V30 3308 H 320.161 -0.291999 0.695164 0
M  V30 3309 H 322.812 -0.0250749 1.83483 0
M  V30 3310 H 321.194 -2.21852 3.28021 0
M  V30 3311 H 322.368 0.319239 4.59693 0
M  V30 3312 H 320.683 0.130457 4.16196 0
M  V30 3313 H 323.28 -2.60405 4.67004 0
M  V30 3314 H 323.623 -2.90298 2.98383 0
M  V30 3315 H 324.156 -1.37773 3.7318 0
M  V30 3316 H 320.895 -0.345061 6.54591 0
M  V30 3317 H 320.415 -1.83925 5.70904 0
M  V30 3318 H 322.094 -1.62367 6.26295 0
M  V30 3319 N 322.226 -1.5378 -0.344866 0
M  V30 3320 C 323.473 -1.70963 -1.08526 0
M  V30 3321 C 323.801 -0.472126 -1.88683 0
M  V30 3322 O 323.056 0.546116 -1.87926 0
M  V30 3323 C 323.355 -2.92407 -2.05506 0
M  V30 3324 C 323.021 -4.28066 -1.41671 0
M  V30 3325 C 321.683 -4.64951 -1.2399 0
M  V30 3326 C 324.035 -5.12344 -0.956726 0
M  V30 3327 C 321.363 -5.83733 -0.589277 0
M  V30 3328 C 323.715 -6.3179 -0.320015 0
M  V30 3329 C 322.379 -6.67372 -0.130881 0
M  V30 3330 H 321.649 -0.625598 -0.397124 0
M  V30 3331 H 324.296 -1.87995 -0.36469 0
M  V30 3332 H 322.601 -2.69973 -2.8394 0
M  V30 3333 H 324.298 -3.02895 -2.62784 0
M  V30 3334 H 320.888 -3.99034 -1.56429 0
M  V30 3335 H 325.072 -4.8438 -1.08118 0
M  V30 3336 H 320.328 -6.09877 -0.431344 0
M  V30 3337 H 324.502 -6.96386 0.0445072 0
M  V30 3338 H 322.129 -7.59273 0.375318 0
M  V30 3339 N 323.704 0.605807 -1.45491 0
M  V30 3340 C 324.951 1.36476 -1.49601 0
M  V30 3341 C 325.279 1.94007 -0.138452 0
M  V30 3342 O 324.534 1.75638 0.863114 0
M  V30 3343 C 324.833 2.53012 -2.52428 0
M  V30 3344 C 324.499 2.13617 -3.97087 0
M  V30 3345 C 323.161 2.02587 -4.36477 0
M  V30 3346 C 325.513 1.82899 -4.88055 0
M  V30 3347 C 322.841 1.59064 -5.64726 0
M  V30 3348 C 325.193 1.40861 -6.16718 0
M  V30 3349 C 323.857 1.28391 -6.55036 0
M  V30 3350 H 323.127 0.499402 -0.547429 0
M  V30 3351 H 325.774 0.684546 -1.78847 0
M  V30 3352 H 324.079 3.26379 -2.16758 0
M  V30 3353 H 325.776 3.1124 -2.52845 0
M  V30 3354 H 322.366 2.23129 -3.65939 0
M  V30 3355 H 326.55 1.90317 -4.58359 0
M  V30 3356 H 321.806 1.48034 -5.93208 0
M  V30 3357 H 325.98 1.16138 -6.86648 0
M  V30 3358 H 323.607 0.944403 -7.54311 0
M  V30 3359 N 325.182 1.32811 0.848464 0
M  V30 3360 C 326.43 1.23479 1.59991 0
M  V30 3361 C 326.751 -0.201853 1.93952 0
M  V30 3362 O 326.021 -1.12818 1.60153 0
M  V30 3363 H 324.601 0.454034 0.593179 0
M  V30 3364 H 327.263 1.66412 1.01455 0
M  V30 3365 H 326.359 1.82178 2.53412 0
M  V30 3366 N 326.66 -1.06551 1.16123 0
M  V30 3367 C 327.59 -2.15935 0.88851 0
M  V30 3368 C 328.571 -1.69306 -0.164135 0
M  V30 3369 O 329.756 -1.94193 -0.0167857 0
M  V30 3370 C 326.886 -3.45149 0.385942 0
M  V30 3371 C 325.84 -4.05271 1.3762 0
M  V30 3372 C 325.166 -5.29664 0.732137 0
M  V30 3373 C 326.466 -4.44355 2.74493 0
M  V30 3374 H 328.16 -2.39006 1.80323 0
M  V30 3375 H 325.706 -1.14866 0.868435 0
M  V30 3376 H 327.659 -4.21004 0.182647 0
M  V30 3377 H 326.383 -3.21689 -0.564274 0
M  V30 3378 H 325.042 -3.3147 1.56599 0
M  V30 3379 H 324.69 -5.02499 -0.224483 0
M  V30 3380 H 324.39 -5.70848 1.39307 0
M  V30 3381 H 325.914 -6.08218 0.538802 0
M  V30 3382 H 327.328 -5.11303 2.59311 0
M  V30 3383 H 325.725 -4.96515 3.37035 0
M  V30 3384 H 326.795 -3.55339 3.29943 0
M  V30 3385 N 328.138 -0.959301 -1.25041 0
M  V30 3386 C 329.378 -0.624343 -1.94631 0
M  V30 3387 C 329.742 0.82403 -1.73418 0
M  V30 3388 O 330.943 1.26881 -2.3697 0
M  V30 3389 C 329.214 -0.978805 -3.43736 0
M  V30 3390 S 330.773 -0.757127 -4.32219 0
M  V30 3391 H 327.591 -0.229327 -0.673001 0
M  V30 3392 H 330.193 -1.23447 -1.51595 0
M  V30 3393 H 328.897 -2.02997 -3.56679 0
M  V30 3394 H 328.428 -0.359117 -3.91757 0
M  V30 3395 H 330.443 0.369759 -4.9482 0
M  V30 3396 N 329.616 1.39756 -0.72842 0
M  V30 3397 C 330.546 2.33289 -0.0991354 0
M  V30 3398 C 331.527 1.53568 0.731489 0
M  V30 3399 O 332.712 1.81987 0.677807 0
M  V30 3400 C 329.842 3.3763 0.813834 0
M  V30 3401 C 328.796 4.2791 0.0878663 0
M  V30 3402 C 328.122 5.22894 1.11741 0
M  V30 3403 C 329.422 5.11314 -1.06563 0
M  V30 3404 H 331.116 2.86163 -0.880408 0
M  V30 3405 H 328.662 1.37591 -0.424819 0
M  V30 3406 H 330.615 4.0201 1.26355 0
M  V30 3407 H 329.339 2.83181 1.62715 0
M  V30 3408 H 327.998 3.65 -0.342159 0
M  V30 3409 H 327.646 4.64744 1.92412 0
M  V30 3410 H 327.346 5.84143 0.636477 0
M  V30 3411 H 328.87 5.90151 1.56697 0
M  V30 3412 H 330.284 5.69076 -0.694671 0
M  V30 3413 H 328.681 5.81671 -1.47577 0
M  V30 3414 H 329.751 4.46534 -1.89038 0
M  V30 3415 N 331.094 0.475555 1.50254 0
M  V30 3416 C 332.024 -0.30611 2.31485 0
M  V30 3417 C 333.005 -0.986228 1.38591 0
M  V30 3418 O 334.19 -0.982541 1.67511 0
M  V30 3419 C 331.32 -1.38588 3.1845 0
M  V30 3420 C 330.274 -0.827115 4.19932 0
M  V30 3421 C 329.6 -2.00551 4.95665 0
M  V30 3422 C 330.9 0.16463 5.2204 0
M  V30 3423 H 332.594 0.371866 2.97082 0
M  V30 3424 H 330.14 0.180282 1.42867 0
M  V30 3425 H 332.093 -1.94023 3.74076 0
M  V30 3426 H 330.817 -2.09269 2.50747 0
M  V30 3427 H 329.476 -0.294702 3.65414 0
M  V30 3428 H 329.124 -2.6994 4.2443 0
M  V30 3429 H 328.824 -1.63784 5.64313 0
M  V30 3430 H 330.348 -2.56468 5.54127 0
M  V30 3431 H 331.762 -0.300699 5.72511 0
M  V30 3432 H 330.159 0.446813 5.98434 0
M  V30 3433 H 331.229 1.08905 4.72512 0
M  V30 3434 N 332.573 -1.56217 0.208337 0
M  V30 3435 C 333.798 -2.02782 -0.435222 0
M  V30 3436 C 334.223 -1.08738 -1.53485 0
M  V30 3437 O 333.581 -0.0731855 -1.81152 0
M  V30 3438 C 333.629 -3.47687 -0.956335 0
M  V30 3439 O 332.733 -3.56773 -2.06849 0
M  V30 3440 H 332.074 -0.656403 -0.100158 0
M  V30 3441 H 334.604 -2.02033 0.3231 0
M  V30 3442 H 334.614 -3.87745 -1.26955 0
M  V30 3443 H 333.289 -4.15624 -0.15143 0
M  V30 3444 H 331.866 -3.28597 -1.76292 0
M  V30 3445 N 334.051 0.0651679 -1.57465 0
M  V30 3446 C 334.981 1.07693 -2.07182 0
M  V30 3447 C 335.962 1.39962 -0.966673 0
M  V30 3448 O 337.147 1.49475 -1.2398 0
M  V30 3449 C 334.277 2.3885 -2.52127 0
M  V30 3450 C 333.231 2.20917 -3.66579 0
M  V30 3451 C 332.557 3.57515 -3.97601 0
M  V30 3452 C 333.857 1.62493 -4.9638 0
M  V30 3453 H 335.551 0.663199 -2.91962 0
M  V30 3454 H 333.097 0.317569 -1.40455 0
M  V30 3455 H 335.05 3.09928 -2.85522 0
M  V30 3456 H 333.774 2.82215 -1.64384 0
M  V30 3457 H 332.433 1.52279 -3.33477 0
M  V30 3458 H 332.081 3.98463 -3.06979 0
M  V30 3459 H 331.781 3.46353 -4.74672 0
M  V30 3460 H 333.305 4.30013 -4.33499 0
M  V30 3461 H 334.719 2.23445 -5.27963 0
M  V30 3462 H 333.116 1.62009 -5.77818 0
M  V30 3463 H 334.186 0.587041 -4.81333 0
M  V30 3464 N 335.529 1.53961 0.336706 0
M  V30 3465 C 336.459 1.85417 1.41925 0
M  V30 3466 C 337.44 0.709856 1.5458 0
M  V30 3467 O 338.625 0.962396 1.68676 0
M  V30 3468 C 335.755 2.06985 2.78881 0
M  V30 3469 C 334.709 3.22813 2.81026 0
M  V30 3470 C 334.035 3.29727 4.20932 0
M  V30 3471 C 335.335 4.60767 2.45949 0
M  V30 3472 H 337.029 2.76079 1.15848 0
M  V30 3473 H 334.575 1.32839 0.555859 0
M  V30 3474 H 336.528 2.27575 3.54665 0
M  V30 3475 H 335.252 1.13061 3.06406 0
M  V30 3476 H 333.911 3.0209 2.07695 0
M  V30 3477 H 333.559 2.33385 4.45579 0
M  V30 3478 H 333.259 4.07566 4.23277 0
M  V30 3479 H 334.783 3.52536 4.98549 0
M  V30 3480 H 336.197 4.81325 3.11446 0
M  V30 3481 H 334.594 5.4106 2.59566 0
M  V30 3482 H 335.664 4.6391 1.41122 0
M  V30 3483 N 337.007 -0.598083 1.45811 0
M  V30 3484 C 338.254 -1.35681 1.50323 0
M  V30 3485 C 338.582 -1.9393 0.148739 0
M  V30 3486 O 337.837 -1.76094 -0.853787 0
M  V30 3487 C 338.136 -2.51669 2.53766 0
M  V30 3488 C 337.802 -2.11508 3.98215 0
M  V30 3489 C 336.464 -2.0027 4.37545 0
M  V30 3490 C 338.816 -1.80308 4.89018 0
M  V30 3491 C 336.144 -1.56067 5.65562 0
M  V30 3492 C 338.496 -1.37589 6.17456 0
M  V30 3493 C 337.16 -1.24916 6.55708 0
M  V30 3494 H 336.43 -0.496492 0.550069 0
M  V30 3495 H 339.077 -0.675052 1.79207 0
M  V30 3496 H 337.382 -3.25225 2.18486 0
M  V30 3497 H 339.079 -3.09895 2.54492 0
M  V30 3498 H 335.669 -2.21185 3.67117 0
M  V30 3499 H 339.853 -1.87884 4.59362 0
M  V30 3500 H 335.109 -1.44886 5.93985 0
M  V30 3501 H 339.283 -1.12495 6.87254 0
M  V30 3502 H 336.91 -0.904386 7.54801 0
M  V30 3503 N 338.485 -1.33259 -0.841409 0
M  V30 3504 C 339.734 -1.23921 -1.59143 0
M  V30 3505 C 340.047 0.1941 -1.94635 0
M  V30 3506 O 341.253 0.409474 -2.68394 0
M  V30 3507 C 339.709 -2.17119 -2.87032 0
M  V30 3508 C 339.317 -3.65606 -2.58914 0
M  V30 3509 C 341.061 -2.16648 -3.65053 0
M  V30 3510 C 338.968 -4.50726 -3.82884 0
M  V30 3511 H 337.898 -0.460264 -0.597221 0
M  V30 3512 H 340.549 -1.58307 -0.927959 0
M  V30 3513 H 338.931 -1.75663 -3.54906 0
M  V30 3514 H 340.105 -4.15487 -1.99267 0
M  V30 3515 H 338.42 -3.68341 -1.942 0
M  V30 3516 H 341.017 -2.77474 -4.57069 0
M  V30 3517 H 341.36 -1.16088 -3.99787 0
M  V30 3518 H 341.893 -2.56453 -3.041 0
M  V30 3519 H 338.632 -5.52151 -3.53283 0
M  V30 3520 H 338.152 -4.0559 -4.41879 0
M  V30 3521 H 339.831 -4.64401 -4.50489 0
M  V30 3522 N 339.963 1.05934 -1.16686 0
M  V30 3523 C 341.211 1.78447 -0.948744 0
M  V30 3524 C 341.532 1.87813 0.524523 0
M  V30 3525 O 340.802 1.38945 1.38098 0
M  V30 3526 H 339.382 0.660971 -0.348033 0
M  V30 3527 H 342.044 1.27947 -1.47022 0
M  V30 3528 H 341.14 2.80394 -1.37061 0
M  V30 3529 N 341.441 0.965919 1.2453 0
M  V30 3530 C 342.371 0.513476 2.27784 0
M  V30 3531 C 343.352 -0.445974 1.6415 0
M  V30 3532 O 344.537 -0.342485 1.91156 0
M  V30 3533 C 341.667 -0.198839 3.4673 0
M  V30 3534 C 340.621 0.676456 4.2262 0
M  V30 3535 C 339.947 -0.167248 5.34438 0
M  V30 3536 C 341.247 1.96017 4.84123 0
M  V30 3537 H 342.941 1.3765 2.65881 0
M  V30 3538 H 340.487 0.663321 1.27813 0
M  V30 3539 H 342.44 -0.526567 4.18097 0
M  V30 3540 H 341.164 -1.0962 3.07654 0
M  V30 3541 H 339.823 0.98743 3.53052 0
M  V30 3542 H 339.471 -1.0647 4.91603 0
M  V30 3543 H 339.171 0.415181 5.86131 0
M  V30 3544 H 340.695 -0.489688 6.08633 0
M  V30 3545 H 342.109 1.69814 5.47573 0
M  V30 3546 H 340.506 2.48918 5.4604 0
M  V30 3547 H 341.576 2.65622 4.05676 0
M  V30 3548 N 342.919 -1.39368 0.735821 0
M  V30 3549 C 343.852 -2.28155 0.0451175 0
M  V30 3550 C 344.83 -1.44433 -0.746852 0
M  V30 3551 O 346.014 -1.73823 -0.729237 0
M  V30 3552 C 343.141 -3.253 -0.943266 0
M  V30 3553 C 342.187 -4.25826 -0.239685 0
M  V30 3554 S 343.02 -5.25166 1.04693 0
M  V30 3555 C 344.176 -6.2587 0.0611639 0
M  V30 3556 H 344.409 -2.86388 0.79807 0
M  V30 3557 H 341.942 -1.45104 0.527653 0
M  V30 3558 H 343.9 -3.81789 -1.50824 0
M  V30 3559 H 342.561 -2.66085 -1.66906 0
M  V30 3560 H 341.754 -4.94229 -0.987596 0
M  V30 3561 H 341.356 -3.73141 0.253274 0
M  V30 3562 H 343.648 -6.73007 -0.778941 0
M  V30 3563 H 344.591 -7.04508 0.712362 0
M  V30 3564 H 344.999 -5.63639 -0.311602 0
M  V30 3565 N 344.397 -0.483516 -1.5 0
M  V30 3566 C 345.627 0.0643896 -2.065 0
M  V30 3567 C 346.035 1.32949 -1.34615 0
M  V30 3568 O 345.378 1.79003 -0.412756 0
M  V30 3569 C 345.44 0.405983 -3.572 0
M  V30 3570 C 345.104 -0.758875 -4.50655 0
M  V30 3571 C 346.101 -1.64445 -4.93208 0
M  V30 3572 C 343.786 -0.952725 -4.93182 0
M  V30 3573 C 345.78 -2.70818 -5.77006 0
M  V30 3574 C 343.467 -2.01966 -5.76761 0
M  V30 3575 C 344.465 -2.89574 -6.18576 0
M  V30 3576 O 344.153 -3.94429 -7.00486 0
M  V30 3577 H 343.885 -0.00934786 -0.675935 0
M  V30 3578 H 346.439 -0.674959 -1.93993 0
M  V30 3579 H 344.669 1.19869 -3.67652 0
M  V30 3580 H 346.358 0.890433 -3.96013 0
M  V30 3581 H 347.124 -1.50643 -4.61012 0
M  V30 3582 H 343.003 -0.280247 -4.60147 0
M  V30 3583 H 346.547 -3.3923 -6.09565 0
M  V30 3584 H 342.444 -2.1577 -6.0837 0
M  V30 3585 H 343.212 -3.91568 -7.1876 0
M  V30 3586 N 345.875 1.56104 -0.216619 0
M  V30 3587 C 347.291 1.58995 0.13886 0
M  V30 3588 C 347.491 1.23333 1.59346 0
M  V30 3589 O 346.547 0.966234 2.33281 0
M  V30 3590 C 347.86 3.00143 -0.182968 0
M  V30 3591 C 349.408 3.12751 -0.124807 0
M  V30 3592 C 349.883 4.56068 -0.420241 0
M  V30 3593 N 351.374 4.61723 -0.369634 0
M  V30 3594 C 352.109 5.70542 -0.571789 0
M  V30 3595 N 351.605 6.87744 -0.835453 0
M  V30 3596 N 353.398 5.59831 -0.504563 0
M  V30 3597 H 345.549 1.77562 -1.16557 0
M  V30 3598 H 347.812 0.825091 -0.466828 0
M  V30 3599 H 347.518 3.30871 -1.19237 0
M  V30 3600 H 347.392 3.73813 0.504367 0
M  V30 3601 H 349.779 2.81822 0.875223 0
M  V30 3602 H 349.86 2.41421 -0.845544 0
M  V30 3603 H 349.504 4.87713 -1.41769 0
M  V30 3604 H 349.434 5.25617 0.321631 0
M  V30 3605 H 351.925 3.77502 -0.173338 0
M  V30 3606 H 352.238 7.66587 -0.977938 0
M  V30 3607 H 350.583 6.895 -0.872592 0
M  V30 3608 H 353.774 4.67145 -0.298842 0
M  V30 3609 H 353.947 6.44573 -0.665519 0
M  V30 3610 N 347.353 -0.0568162 1.57498 0
M  V30 3611 C 348.583 -0.764515 1.91934 0
M  V30 3612 C 348.991 -1.70877 0.81227 0
M  V30 3613 O 348.334 -1.82351 -0.222213 0
M  V30 3614 C 348.396 -1.5994 3.21962 0
M  V30 3615 C 348.06 -0.822925 4.4953 0
M  V30 3616 C 349.057 -0.135464 5.19723 0
M  V30 3617 C 346.742 -0.785666 4.96117 0
M  V30 3618 C 348.736 0.578861 6.34766 0
M  V30 3619 C 346.423 -0.0675784 6.11063 0
M  V30 3620 C 347.421 0.613471 6.80239 0
M  V30 3621 O 347.109 1.31996 7.92989 0
M  V30 3622 H 346.841 -0.221647 0.63863 0
M  V30 3623 H 349.395 -0.0268218 2.05382 0
M  V30 3624 H 347.625 -2.38026 3.04763 0
M  V30 3625 H 349.314 -2.18715 3.41934 0
M  V30 3626 H 350.08 -0.155458 4.84751 0
M  V30 3627 H 345.959 -1.30524 4.42136 0
M  V30 3628 H 349.503 1.111 6.88696 0
M  V30 3629 H 345.4 -0.0455636 6.45484 0
M  V30 3630 H 346.168 1.23077 8.09194 0
M  V30 3631 N 348.832 -1.54138 -0.328536 0
M  V30 3632 C 349.764 -1.79509 -1.4251 0
M  V30 3633 C 350.777 -0.67688 -1.48061 0
M  V30 3634 O 351.966 -0.953898 -1.50874 0
M  V30 3635 C 349.066 -1.89337 -2.81078 0
M  V30 3636 C 348.239 -3.19443 -2.98789 0
M  V30 3637 C 347.298 -3.20036 -4.17688 0
M  V30 3638 O 346.324 -3.93697 -4.11086 0
M  V30 3639 N 347.526 -2.43467 -5.26976 0
M  V30 3640 H 350.291 -2.74139 -1.21111 0
M  V30 3641 H 347.852 -1.53373 -0.518499 0
M  V30 3642 H 349.844 -1.87167 -3.58818 0
M  V30 3643 H 348.414 -1.01826 -2.95551 0
M  V30 3644 H 347.634 -3.34614 -2.08391 0
M  V30 3645 H 348.922 -4.05354 -3.07515 0
M  V30 3646 H 348.32 -1.83201 -5.35214 0
M  V30 3647 H 346.877 -2.4708 -6.03154 0
M  V30 3648 N 350.31 0.590341 -1.46126 0
M  V30 3649 C 351.726 0.912917 -1.30912 0
M  V30 3650 C 351.926 1.99616 -0.274893 0
M  V30 3651 O 350.982 2.50397 0.325197 0
M  V30 3652 C 352.295 1.3375 -2.69317 0
M  V30 3653 C 353.843 1.45077 -2.77348 0
M  V30 3654 C 354.318 1.90904 -4.16317 0
M  V30 3655 N 355.809 1.9811 -4.18696 0
M  V30 3656 C 356.544 2.34828 -5.23109 0
M  V30 3657 N 356.04 2.70393 -6.37856 0
M  V30 3658 N 357.833 2.35317 -5.10473 0
M  V30 3659 H 349.984 -0.125358 -2.1203 0
M  V30 3660 H 352.247 0.00658481 -0.947977 0
M  V30 3661 H 351.953 0.615614 -3.4627 0
M  V30 3662 H 351.827 2.30058 -2.9892 0
M  V30 3663 H 354.214 2.16353 -2.00687 0
M  V30 3664 H 354.295 0.4704 -2.51438 0
M  V30 3665 H 353.939 1.20209 -4.9347 0
M  V30 3666 H 353.869 2.89886 -4.39629 0
M  V30 3667 H 356.36 1.73146 -3.359 0
M  V30 3668 H 356.673 2.97341 -7.13308 0
M  V30 3669 H 355.018 2.68048 -6.41229 0
M  V30 3670 H 358.209 2.0695 -4.19868 0
M  V30 3671 H 358.382 2.63605 -5.9196 0
M  V30 3672 N 351.788 1.33704 0.83433 0
M  V30 3673 C 353.034 1.26612 1.59188 0
M  V30 3674 C 353.389 -0.165439 1.91687 0
M  V30 3675 O 352.682 -1.10873 1.56262 0
M  V30 3676 C 352.876 2.07926 2.90692 0
M  V30 3677 C 352.705 3.58844 2.71038 0
M  V30 3678 C 351.475 4.28148 2.68361 0
M  V30 3679 C 353.673 4.53082 2.43353 0
M  V30 3680 N 351.655 5.64987 2.40132 0
M  V30 3681 C 353.026 5.77843 2.24716 0
M  V30 3682 C 355.081 4.42119 2.28987 0
M  V30 3683 C 353.784 6.92877 1.9317 0
M  V30 3684 C 355.81 5.56973 1.98835 0
M  V30 3685 C 355.172 6.80745 1.81012 0
M  V30 3686 H 351.271 0.518517 0.585375 0
M  V30 3687 H 353.855 1.68294 0.979044 0
M  V30 3688 H 352.026 1.68558 3.49918 0
M  V30 3689 H 353.758 1.92568 3.55949 0
M  V30 3690 H 350.513 3.80469 2.82029 0
M  V30 3691 H 350.937 6.37133 2.28889 0
M  V30 3692 H 355.579 3.47058 2.41477 0
M  V30 3693 H 353.297 7.87931 1.79418 0
M  V30 3694 H 356.883 5.50428 1.88468 0
M  V30 3695 H 355.763 7.68115 1.58017 0
M  V30 3696 N 353.266 -1.05314 1.17247 0
M  V30 3697 C 354.213 -2.13031 0.888058 0
M  V30 3698 C 355.183 -1.65253 -0.167537 0
M  V30 3699 O 356.368 -1.90775 -0.0305974 0
M  V30 3700 C 353.508 -3.42702 0.406147 0
M  V30 3701 C 352.621 -4.04161 1.52572 0
M  V30 3702 C 351.756 -5.21744 0.997808 0
M  V30 3703 C 350.795 -5.75207 2.09291 0
M  V30 3704 N 349.932 -6.84094 1.57986 0
M  V30 3705 H 354.772 -2.36698 1.81048 0
M  V30 3706 H 352.309 -1.16121 0.903013 0
M  V30 3707 H 354.267 -4.17059 0.108305 0
M  V30 3708 H 352.897 -3.19222 -0.479313 0
M  V30 3709 H 351.949 -3.27253 1.93931 0
M  V30 3710 H 353.261 -4.39881 2.35172 0
M  V30 3711 H 352.415 -6.03168 0.653739 0
M  V30 3712 H 351.154 -4.87495 0.141232 0
M  V30 3713 H 350.159 -4.92414 2.44557 0
M  V30 3714 H 351.384 -6.11505 2.95362 0
M  V30 3715 H 349.33 -6.51745 0.74598 0
M  V30 3716 H 349.247 -7.18811 2.34195 0
M  V30 3717 H 350.515 -7.69172 1.26468 0
M  V30 3718 N 354.744 -0.972509 -1.24016 0
M  V30 3719 C 355.969 -0.654417 -1.96805 0
M  V30 3720 C 356.394 0.770398 -1.716 0
M  V30 3721 O 355.752 1.52361 -0.982647 0
M  V30 3722 C 355.8 -0.941031 -3.48105 0
M  V30 3723 O 354.904 -0.0289472 -4.1239 0
M  V30 3724 H 354.245 -0.24692 -0.616382 0
M  V30 3725 H 356.775 -1.30396 -1.57664 0
M  V30 3726 H 356.785 -0.87452 -3.98517 0
M  V30 3727 H 355.46 -1.97939 -3.65777 0
M  V30 3728 H 354.037 -0.149192 -3.72601 0
M  V30 3729 N 356.222 1.38976 -0.743202 0
M  V30 3730 C 357.169 2.30544 -0.10861 0
M  V30 3731 C 358.139 1.49642 0.720869 0
M  V30 3732 O 359.324 1.78304 0.679142 0
M  V30 3733 C 356.464 3.36018 0.786496 0
M  V30 3734 C 355.577 4.31963 -0.0564849 0
M  V30 3735 C 354.712 5.24506 0.840657 0
M  V30 3736 C 353.751 6.121 -0.00658363 0
M  V30 3737 N 352.888 6.96973 0.846943 0
M  V30 3738 H 357.728 2.8424 -0.895088 0
M  V30 3739 H 355.265 1.3995 -0.453048 0
M  V30 3740 H 357.223 3.95768 1.31999 0
M  V30 3741 H 355.853 2.83758 1.53887 0
M  V30 3742 H 354.905 3.73763 -0.707492 0
M  V30 3743 H 356.217 4.93703 -0.711229 0
M  V30 3744 H 355.371 5.89322 1.4417 0
M  V30 3745 H 354.11 4.63107 1.52916 0
M  V30 3746 H 353.115 5.46289 -0.620366 0
M  V30 3747 H 354.34 6.75565 -0.691992 0
M  V30 3748 H 352.286 6.38133 1.52059 0
M  V30 3749 H 352.203 7.5559 0.248864 0
M  V30 3750 H 353.471 7.6621 1.43328 0
M  V30 3751 N 357.7 0.491464 1.49741 0
M  V30 3752 C 358.63 -0.28154 2.31796 0
M  V30 3753 C 359.611 -0.971473 1.3963 0
M  V30 3754 O 360.796 -0.964719 1.68543 0
M  V30 3755 C 357.926 -1.35203 3.19902 0
M  V30 3756 C 356.88 -0.782529 4.20786 0
M  V30 3757 C 356.206 -1.95283 4.97764 0
M  V30 3758 C 357.506 0.21999 5.21837 0
M  V30 3759 H 359.2 0.403355 2.96671 0
M  V30 3760 H 356.746 0.195425 1.42668 0
M  V30 3761 H 358.699 -1.90045 3.76113 0
M  V30 3762 H 357.423 -2.06598 2.52953 0
M  V30 3763 H 356.082 -0.255928 3.65706 0
M  V30 3764 H 355.73 -2.65423 4.2727 0
M  V30 3765 H 355.43 -1.57789 5.66018 0
M  V30 3766 H 356.954 -2.50577 5.56816 0
M  V30 3767 H 358.368 -0.23996 5.72798 0
M  V30 3768 H 356.765 0.51026 5.97927 0
M  V30 3769 H 357.835 1.13911 4.7133 0
M  V30 3770 N 359.178 -1.55987 0.224894 0
M  V30 3771 C 360.408 -2.02489 -0.41007 0
M  V30 3772 C 360.816 -1.10391 -1.53657 0
M  V30 3773 O 360.159 -0.106458 -1.83391 0
M  V30 3774 C 360.221 -3.45319 -0.999757 0
M  V30 3775 C 359.885 -4.56999 -0.00827976 0
M  V30 3776 C 360.882 -5.13812 0.793314 0
M  V30 3777 C 358.567 -5.02176 0.111442 0
M  V30 3778 C 360.561 -6.14276 1.7013 0
M  V30 3779 C 358.248 -6.02477 1.02296 0
M  V30 3780 C 359.246 -6.58403 1.81643 0
M  V30 3781 O 358.934 -7.56751 2.71262 0
M  V30 3782 H 358.666 -0.667915 -0.104235 0
M  V30 3783 H 361.22 -2.0257 0.339782 0
M  V30 3784 H 359.45 -3.42318 -1.79876 0
M  V30 3785 H 361.139 -3.7545 -1.54248 0
M  V30 3786 H 361.905 -4.79756 0.711288 0
M  V30 3787 H 357.784 -4.58323 -0.49605 0
M  V30 3788 H 361.328 -6.57854 2.32107 0
M  V30 3789 H 357.225 -6.35954 1.10599 0
M  V30 3790 H 357.993 -7.74286 2.65375 0
M  V30 3791 N 360.656 0.0484629 -1.57525 0
M  V30 3792 C 361.881 0.759177 -1.93006 0
M  V30 3793 C 362.306 1.69125 -0.823317 0
M  V30 3794 O 361.664 1.79931 0.222364 0
M  V30 3795 C 361.712 1.50899 -3.27509 0
M  V30 3796 O 360.816 2.62112 -3.18388 0
M  V30 3797 H 360.157 0.205564 -0.631379 0
M  V30 3798 H 362.687 0.00972959 -2.04598 0
M  V30 3799 H 362.697 1.88317 -3.6194 0
M  V30 3800 H 361.372 0.825269 -4.0763 0
M  V30 3801 H 359.949 2.27379 -2.95556 0
M  V30 3802 N 362.134 1.5431 0.320358 0
M  V30 3803 C 363.383 1.7188 1.05546 0
M  V30 3804 C 363.696 0.501143 1.89071 0
M  V30 3805 O 364.902 0.558258 2.65699 0
M  V30 3806 C 363.358 3.04025 1.92605 0
M  V30 3807 C 362.966 4.33207 1.14176 0
M  V30 3808 C 364.71 3.30959 2.65832 0
M  V30 3809 C 362.617 5.56412 2.00399 0
M  V30 3810 H 361.547 0.640547 0.397763 0
M  V30 3811 H 364.198 1.80802 0.313522 0
M  V30 3812 H 362.58 2.89019 2.7071 0
M  V30 3813 H 363.754 4.58989 0.40819 0
M  V30 3814 H 362.069 4.13062 0.526165 0
M  V30 3815 H 364.666 4.20203 3.30656 0
M  V30 3816 H 365.009 2.48979 3.33639 0
M  V30 3817 H 365.542 3.46847 1.94787 0
M  V30 3818 H 362.281 6.41004 1.37094 0
M  V30 3819 H 361.801 5.34844 2.7148 0
M  V30 3820 H 363.48 5.92938 2.58908 0
M  V30 3821 N 363.613 -0.582584 1.46437 0
M  V30 3822 C 364.859 -1.34278 1.51978 0
M  V30 3823 C 365.192 -1.93446 0.170973 0
M  V30 3824 O 364.467 -1.76481 -0.817608 0
M  V30 3825 C 364.75 -2.47203 2.61845 0
M  V30 3826 C 364.603 -1.93069 4.06257 0
M  V30 3827 C 365.922 -3.49247 2.67795 0
M  V30 3828 H 363.041 -0.486876 0.553282 0
M  V30 3829 H 365.683 -0.654437 1.78374 0
M  V30 3830 H 363.833 -3.0592 2.39469 0
M  V30 3831 H 365.505 -1.38808 4.3992 0
M  V30 3832 H 363.748 -1.23898 4.1573 0
M  V30 3833 H 364.419 -2.74586 4.7886 0
M  V30 3834 H 366.895 -3.00411 2.8791 0
M  V30 3835 H 365.771 -4.25719 3.46489 0
M  V30 3836 H 366.032 -4.06482 1.73852 0
M  V30 3837 N 365.091 -1.34144 -0.827227 0
M  V30 3838 C 366.331 -1.27603 -1.59677 0
M  V30 3839 C 366.695 0.153035 -1.91389 0
M  V30 3840 O 367.896 0.342566 -2.66608 0
M  V30 3841 C 366.167 -2.13784 -2.86411 0
M  V30 3842 S 367.726 -2.24552 -3.76991 0
M  V30 3843 H 364.544 -0.453789 -0.547354 0
M  V30 3844 H 367.146 -1.69309 -0.977479 0
M  V30 3845 H 365.85 -3.16627 -2.61104 0
M  V30 3846 H 365.381 -1.72959 -3.5334 0
M  V30 3847 H 367.396 -1.41514 -4.75593 0
M  V30 3848 N 366.569 1.04691 -1.17803 0
M  V30 3849 C 367.817 1.7743 -0.967617 0
M  V30 3850 C 368.138 1.88359 0.504574 0
M  V30 3851 O 367.408 1.40402 1.36617 0
M  V30 3852 H 365.988 0.657242 -0.355024 0
M  V30 3853 H 368.65 1.2638 -1.48371 0
M  V30 3854 H 367.746 2.78924 -1.40027 0
M  V30 3855 N 368.047 0.979072 1.23499 0
M  V30 3856 C 368.994 0.517904 2.24914 0
M  V30 3857 C 369.964 -0.442525 1.60097 0
M  V30 3858 O 371.149 -0.350365 1.87556 0
M  V30 3859 C 368.289 -0.174813 3.44657 0
M  V30 3860 C 367.402 0.825721 4.24035 0
M  V30 3861 C 366.537 0.107946 5.3109 0
M  V30 3862 C 365.576 1.09778 6.02175 0
M  V30 3863 N 364.713 0.40925 7.00906 0
M  V30 3864 H 369.553 1.38751 2.63727 0
M  V30 3865 H 367.09 0.695303 1.2963 0
M  V30 3866 H 369.048 -0.593233 4.12961 0
M  V30 3867 H 367.678 -1.0083 3.06648 0
M  V30 3868 H 366.73 1.36253 3.55161 0
M  V30 3869 H 368.042 1.58005 4.73113 0
M  V30 3870 H 367.196 -0.367904 6.05583 0
M  V30 3871 H 365.935 -0.678994 4.8295 0
M  V30 3872 H 364.94 1.5844 5.26476 0
M  V30 3873 H 366.165 1.88536 6.52404 0
M  V30 3874 H 364.111 -0.358506 6.5502 0
M  V30 3875 H 364.028 1.10226 7.47921 0
M  V30 3876 H 365.296 -0.0442557 7.79487 0
M  V30 3877 N 369.525 -1.3858 0.750561 0
M  V30 3878 C 370.75 -2.04997 0.314812 0
M  V30 3879 C 371.175 -1.56235 -1.04749 0
M  V30 3880 O 370.533 -0.712981 -1.66692 0
M  V30 3881 C 370.581 -3.58961 0.343415 0
M  V30 3882 O 369.685 -4.07025 -0.663628 0
M  V30 3883 H 369.026 -0.649081 0.139962 0
M  V30 3884 H 371.556 -1.77313 1.02084 0
M  V30 3885 H 371.566 -4.07542 0.193233 0
M  V30 3886 H 370.241 -3.93811 1.33738 0
M  V30 3887 H 368.818 -3.6982 -0.478307 0
M  V30 3888 N 371.003 -0.499398 -1.49478 0
M  V30 3889 C 372.231 0.0425456 -2.06856 0
M  V30 3890 C 372.646 1.30964 -1.35992 0
M  V30 3891 O 372.003 1.77172 -0.437762 0
M  V30 3892 C 372.054 0.301735 -3.60239 0
M  V30 3893 O 371.775 -0.915127 -4.28436 0
M  V30 3894 C 373.276 0.887499 -4.34325 0
M  V30 3895 H 370.496 -0.0197482 -0.670709 0
M  V30 3896 H 373.04 -0.696297 -1.92281 0
M  V30 3897 H 371.195 0.990556 -3.74522 0
M  V30 3898 H 371.609 -0.676993 -5.20113 0
M  V30 3899 H 373.083 1.01845 -5.42523 0
M  V30 3900 H 373.56 1.88488 -3.96698 0
M  V30 3901 H 374.166 0.236196 -4.24644 0
M  V30 3902 N 372.481 1.55866 -0.233164 0
M  V30 3903 C 373.892 1.847 0.272554 0
M  V30 3904 C 374.243 1.15477 1.58617 0
M  V30 3905 O 373.368 0.42841 2.12117 0
M  V30 3906 C 373.963 3.35071 0.501299 0
M  V30 3907 C 372.522 3.6418 0.951304 0
M  V30 3908 C 371.669 2.77292 0.0208209 0
M  V30 3909 H 374.62 1.52005 -0.456074 0
M  V30 3910 H 374.641 3.55906 1.34577 0
M  V30 3911 H 374.153 3.85424 -0.454936 0
M  V30 3912 H 372.254 3.19293 1.92049 0
M  V30 3913 H 372.367 4.72071 0.817675 0
M  V30 3914 H 370.731 2.49131 0.529723 0
M  V30 3915 H 371.514 3.30448 -0.93054 0
M  V30 3916 N 373.959 -0.0401083 1.57549 0
M  V30 3917 C 374.869 -1.06133 2.0922 0
M  V30 3918 C 375.885 -1.40356 1.0284 0
M  V30 3919 O 377.061 -1.49897 1.34509 0
M  V30 3920 C 374.126 -2.34658 2.55218 0
M  V30 3921 C 373.187 -2.07117 3.76033 0
M  V30 3922 C 372.42 -3.29514 4.19829 0
M  V30 3923 O 372.643 -4.39794 3.63232 0
M  V30 3924 O 371.577 -3.15863 5.12362 0
M  V30 3925 H 375.403 -0.652244 2.96613 0
M  V30 3926 H 372.988 -0.256368 1.47184 0
M  V30 3927 H 374.87 -3.10239 2.85184 0
M  V30 3928 H 373.545 -2.74883 1.70941 0
M  V30 3929 H 372.452 -1.29139 3.51104 0
M  V30 3930 H 373.785 -1.71754 4.61261 0
M  V30 3931 N 375.437 -1.54477 -0.31217 0
M  V30 3932 C 376.384 -1.84655 -1.38461 0
M  V30 3933 C 377.354 -0.694536 -1.50882 0
M  V30 3934 O 378.539 -0.942081 -1.6592 0
M  V30 3935 C 375.679 -2.0896 -2.74645 0
M  V30 3936 C 374.792 -3.36618 -2.70763 0
M  V30 3937 C 373.927 -3.50824 -3.98868 0
M  V30 3938 C 372.966 -4.72315 -3.89339 0
M  V30 3939 N 372.103 -4.83387 -5.09197 0
M  V30 3940 H 376.943 -2.76142 -1.12026 0
M  V30 3941 H 374.48 -1.36748 -0.542065 0
M  V30 3942 H 376.438 -2.21045 -3.53829 0
M  V30 3943 H 375.068 -1.20752 -2.99364 0
M  V30 3944 H 374.12 -3.33211 -1.83506 0
M  V30 3945 H 375.432 -4.25917 -2.59608 0
M  V30 3946 H 374.586 -3.62513 -4.86486 0
M  V30 3947 H 373.325 -2.59638 -4.12843 0
M  V30 3948 H 372.33 -4.6067 -3.00105 0
M  V30 3949 H 373.555 -5.64897 -3.76919 0
M  V30 3950 H 371.501 -3.9512 -5.23657 0
M  V30 3951 H 371.418 -5.66669 -5.00422 0
M  V30 3952 H 372.686 -4.9942 -5.98498 0
M  V30 3953 N 376.915 0.57481 -1.46744 0
M  V30 3954 C 377.825 1.711 -1.60505 0
M  V30 3955 C 378.841 1.67008 -0.488307 0
M  V30 3956 O 380.017 1.86774 -0.753495 0
M  V30 3957 C 377.082 3.07608 -1.59932 0
M  V30 3958 C 376.143 3.22904 -2.82898 0
M  V30 3959 C 375.376 4.529 -2.82343 0
M  V30 3960 O 375.599 5.37278 -1.91542 0
M  V30 3961 O 374.533 4.71611 -3.73987 0
M  V30 3962 H 378.359 1.62436 -2.56609 0
M  V30 3963 H 375.944 0.742779 -1.29627 0
M  V30 3964 H 377.826 3.88877 -1.62336 0
M  V30 3965 H 376.501 3.16692 -0.669898 0
M  V30 3966 H 375.408 2.41099 -2.86046 0
M  V30 3967 H 376.741 3.18715 -3.75076 0
M  V30 3968 N 378.394 1.34581 0.820102 0
M  V30 3969 C 379.642 1.26845 1.57336 0
M  V30 3970 C 379.963 -0.160667 1.94337 0
M  V30 3971 O 379.233 -1.09396 1.6251 0
M  V30 3972 H 377.813 0.466514 0.583415 0
M  V30 3973 H 380.475 1.68526 0.979027 0
M  V30 3974 H 379.571 1.87513 2.4949 0
M  V30 3975 N 379.872 -1.04064 1.18357 0
M  V30 3976 C 380.782 -2.15569 0.925596 0
M  V30 3977 C 381.798 -1.7365 -0.110295 0
M  V30 3978 O 382.974 -2.01273 0.0716218 0
M  V30 3979 C 380.039 -3.43704 0.454836 0
M  V30 3980 C 379.1 -4.00004 1.55869 0
M  V30 3981 C 378.333 -5.22023 1.1103 0
M  V30 3982 O 378.556 -5.70392 -0.0309756 0
M  V30 3983 O 377.49 -5.70856 1.90805 0
M  V30 3984 H 381.316 -2.40187 1.8586 0
M  V30 3985 H 378.901 -1.1402 0.965394 0
M  V30 3986 H 380.783 -4.20923 0.200382 0
M  V30 3987 H 379.458 -3.20559 -0.449876 0
M  V30 3988 H 378.365 -3.24172 1.86716 0
M  V30 3989 H 379.698 -4.2749 2.43953 0
M  V30 3990 N 381.35 -0.985608 -1.22978 0
M  V30 3991 C 382.28 -0.549649 -2.26939 0
M  V30 3992 C 383.261 0.419803 -1.64838 0
M  V30 3993 O 384.446 0.31203 -1.91677 0
M  V30 3994 C 381.576 0.143652 -3.47003 0
M  V30 3995 C 380.53 -0.743606 -4.21491 0
M  V30 3996 C 379.856 0.0822027 -5.34637 0
M  V30 3997 C 381.156 -2.03694 -4.80943 0
M  V30 3998 H 382.85 -1.41862 -2.63658 0
M  V30 3999 H 380.396 -0.683571 -1.26741 0
M  V30 4000 H 382.349 0.459985 -4.18882 0
M  V30 4001 H 381.073 1.04711 -3.09359 0
M  V30 4002 H 379.732 -1.04347 -3.51436 0
M  V30 4003 H 379.38 0.986359 -4.93234 0
M  V30 4004 H 379.08 -0.508377 -5.85397 0
M  V30 4005 H 380.604 0.392797 -6.09335 0
M  V30 4006 H 382.018 -1.78504 -5.44802 0
M  V30 4007 H 380.415 -2.57573 -5.42011 0
M  V30 4008 H 381.485 -2.72042 -4.01399 0
M  V30 4009 N 382.828 1.3818 -0.7579 0
M  V30 4010 C 383.738 2.3421 -0.135247 0
M  V30 4011 C 384.754 1.59487 0.695683 0
M  V30 4012 O 385.93 1.91657 0.618832 0
M  V30 4013 C 382.995 3.3862 0.744139 0
M  V30 4014 C 382.056 4.2918 -0.101658 0
M  V30 4015 C 381.289 5.28603 0.735851 0
M  V30 4016 O 381.512 5.35166 1.97366 0
M  V30 4017 O 380.446 6.01707 0.152372 0
M  V30 4018 H 384.272 2.8916 -0.928436 0
M  V30 4019 H 381.857 1.40101 -0.518855 0
M  V30 4020 H 383.739 4.02539 1.2466 0
M  V30 4021 H 382.414 2.86019 1.51575 0
M  V30 4022 H 381.321 3.68407 -0.650167 0
M  V30 4023 H 382.654 4.85048 -0.836024 0
M  V30 4024 N 384.306 0.507319 1.49211 0
M  V30 4025 C 385.554 -0.0348839 2.0207 0
M  V30 4026 C 385.875 -1.36898 1.38866 0
M  V30 4027 O 385.145 -1.88133 0.546151 0
M  V30 4028 H 383.725 -0.0158812 0.746831 0
M  V30 4029 H 386.387 0.665998 1.83168 0
M  V30 4030 H 385.483 -0.159917 3.1169 0
M  V30 4031 N 385.784 -1.5574 0.241426 0
M  V30 4032 C 387.012 -2.03208 -0.389134 0
M  V30 4033 C 387.427 -1.12082 -1.51931 0
M  V30 4034 O 386.784 -0.134183 -1.82006 0
M  V30 4035 C 386.835 -3.50064 -0.902087 0
M  V30 4036 O 386.556 -4.37717 0.18305 0
M  V30 4037 C 388.057 -4.13268 -1.60389 0
M  V30 4038 H 385.277 -0.664509 -0.0931053 0
M  V30 4039 H 387.821 -2.0124 0.36369 0
M  V30 4040 H 385.976 -3.52583 -1.60511 0
M  V30 4041 H 386.39 -5.24097 -0.205579 0
M  V30 4042 H 387.864 -5.17733 -1.91458 0
M  V30 4043 H 388.341 -3.59434 -2.52397 0
M  V30 4044 H 388.947 -4.14655 -0.945576 0
M  V30 4045 N 387.262 0.0317525 -1.57568 0
M  V30 4046 C 388.49 0.734949 -1.93407 0
M  V30 4047 C 388.905 1.69036 -0.84096 0
M  V30 4048 O 388.262 1.81582 0.182836 0
M  V30 4049 C 388.313 1.49432 -3.29169 0
M  V30 4050 O 388.034 0.577261 -4.3428 0
M  V30 4051 C 389.535 2.29492 -3.79273 0
M  V30 4052 H 386.755 0.206706 -0.638368 0
M  V30 4053 H 389.299 -0.00992046 -2.04498 0
M  V30 4054 H 387.454 2.1911 -3.19483 0
M  V30 4055 H 387.868 1.10952 -5.1263 0
M  V30 4056 H 389.342 2.78172 -4.76785 0
M  V30 4057 H 389.819 3.10794 -3.10328 0
M  V30 4058 H 390.425 1.64894 -3.92033 0
M  V30 4059 N 388.74 1.54641 0.303973 0
M  V30 4060 C 389.968 1.77768 1.05858 0
M  V30 4061 C 390.383 0.535722 1.8104 0
M  V30 4062 O 389.74 -0.494337 1.75677 0
M  V30 4063 C 389.791 2.9834 2.04146 0
M  V30 4064 O 389.512 4.17736 1.32015 0
M  V30 4065 C 391.013 3.33832 2.91669 0
M  V30 4066 H 388.233 0.592961 0.314067 0
M  V30 4067 H 390.777 2.01583 0.344149 0
M  V30 4068 H 388.932 2.76742 2.71096 0
M  V30 4069 H 389.346 4.85693 1.97998 0
M  V30 4070 H 390.82 4.21448 3.56491 0
M  V30 4071 H 391.297 2.51857 3.59812 0
M  V30 4072 H 391.903 3.57579 2.30254 0
M  V30 4073 N 390.218 -0.567019 1.47046 0
M  V30 4074 C 391.165 -1.67489 1.58796 0
M  V30 4075 C 392.135 -1.60399 0.43144 0
M  V30 4076 O 393.32 -1.79378 0.650233 0
M  V30 4077 C 390.46 -3.05821 1.59899 0
M  V30 4078 C 389.573 -3.2342 2.86397 0
M  V30 4079 C 388.708 -4.52093 2.789 0
M  V30 4080 C 387.747 -4.6309 4.00267 0
M  V30 4081 N 386.884 -5.83106 3.91064 0
M  V30 4082 H 391.724 -1.56785 2.53422 0
M  V30 4083 H 389.261 -0.763896 1.2571 0
M  V30 4084 H 391.219 -3.8591 1.58522 0
M  V30 4085 H 389.849 -3.15384 0.687929 0
M  V30 4086 H 388.901 -2.3683 2.97684 0
M  V30 4087 H 390.213 -3.27412 3.76301 0
M  V30 4088 H 389.367 -5.4043 2.75718 0
M  V30 4089 H 388.106 -4.50565 1.86662 0
M  V30 4090 H 387.111 -3.73168 4.03765 0
M  V30 4091 H 388.336 -4.66386 4.93621 0
M  V30 4092 H 386.282 -5.82546 3.01623 0
M  V30 4093 H 386.199 -5.88434 4.74638 0
M  V30 4094 H 387.467 -6.73831 3.91882 0
M  V30 4095 N 391.696 -1.35014 -0.812953 0
M  V30 4096 C 393.107 -1.25035 -1.38648 0
M  V30 4097 C 393.458 0.119967 -1.95833 0
M  V30 4098 O 392.583 1.02069 -1.90816 0
M  V30 4099 C 393.178 -2.26394 -2.52054 0
M  V30 4100 C 391.737 -2.20175 -3.05287 0
M  V30 4101 C 390.884 -2.12451 -1.78213 0
M  V30 4102 H 393.835 -1.46235 -0.616516 0
M  V30 4103 H 393.856 -1.88672 -3.30429 0
M  V30 4104 H 393.368 -3.26116 -2.10404 0
M  V30 4105 H 391.469 -1.23841 -3.51417 0
M  V30 4106 H 391.582 -3.11863 -3.63701 0
M  V30 4107 H 389.946 -1.58328 -1.9951 0
M  V30 4108 H 390.729 -3.14024 -1.38723 0
M  V30 4109 N 393.175 1.03435 -1.18907 0
M  V30 4110 C 394.105 2.13503 -0.945448 0
M  V30 4111 C 395.086 1.69682 0.119189 0
M  V30 4112 O 396.271 1.94169 -0.034707 0
M  V30 4113 C 393.401 3.44004 -0.477316 0
M  V30 4114 C 392.355 4.0148 -1.48316 0
M  V30 4115 C 391.681 5.27537 -0.872311 0
M  V30 4116 C 392.981 4.36921 -2.86177 0
M  V30 4117 H 394.675 2.34141 -1.86597 0
M  V30 4118 H 392.221 1.12523 -0.898584 0
M  V30 4119 H 394.174 4.20372 -0.294204 0
M  V30 4120 H 392.898 3.23072 0.478786 0
M  V30 4121 H 391.557 3.27201 -1.65332 0
M  V30 4122 H 391.205 5.02917 0.0911752 0
M  V30 4123 H 390.905 5.66954 -1.54393 0
M  V30 4124 H 392.429 6.06576 -0.699871 0
M  V30 4125 H 393.843 5.04248 -2.72776 0
M  V30 4126 H 392.24 4.87405 -3.50081 0
M  V30 4127 H 393.31 3.46466 -3.39248 0
M  V30 4128 N 394.653 0.992116 1.22453 0
M  V30 4129 C 395.616 0.546883 2.2258 0
M  V30 4130 C 396.616 -0.369829 1.56489 0
M  V30 4131 O 397.806 -0.161896 1.73446 0
M  V30 4132 C 394.938 -0.204659 3.40285 0
M  V30 4133 H 396.131 1.43234 2.63484 0
M  V30 4134 H 393.684 0.779239 1.3549 0
M  V30 4135 H 394.419 -1.10614 3.04853 0
M  V30 4136 H 394.204 0.45354 3.89468 0
M  V30 4137 H 395.694 -0.504358 4.14543 0
M  V30 4138 N 396.131 -1.37776 0.765217 0
M  V30 4139 C 397.542 -1.82521 0.392819 0
M  V30 4140 C 397.893 -1.63789 -1.08017 0
M  V30 4141 O 397.018 -1.14542 -1.83601 0
M  V30 4142 C 397.613 -3.31358 0.706214 0
M  V30 4143 C 396.172 -3.74406 0.386952 0
M  V30 4144 C 395.319 -2.60394 0.953422 0
M  V30 4145 H 398.27 -1.2634 0.960412 0
M  V30 4146 H 398.291 -3.80498 -0.0114706 0
M  V30 4147 H 397.803 -3.44959 1.77833 0
M  V30 4148 H 395.904 -3.66377 -0.678112 0
M  V30 4149 H 396.017 -4.70749 0.890636 0
M  V30 4150 H 394.381 -2.51878 0.378064 0
M  V30 4151 H 395.164 -2.76791 2.03081 0
M  V30 4152 N 397.609 -0.515225 -1.4894 0
M  V30 4153 C 398.557 0.269115 -2.31038 0
M  V30 4154 C 399.551 0.949443 -1.40292 0
M  V30 4155 O 400.757 0.87551 -1.57273 0
M  V30 4156 H 397.132 0.10565 -0.744542 0
M  V30 4157 H 399.103 -0.443096 -2.95092 0
M  V30 4158 C 397.852 1.31213 -3.21991 0
M  V30 4159 H 397.175 0.798034 -3.91754 0
M  V30 4160 H 398.615 1.83263 -3.82349 0
M  V30 4161 C 397.074 2.33791 -2.42576 0
M  V30 4162 O 397.604 3.3995 -2.14003 0
M  V30 4163 N 395.81 2.06625 -2.0434 0
M  V30 4164 H 395.357 1.20314 -2.27777 0
M  V30 4165 H 395.315 2.75483 -1.51514 0
M  V30 4166 N 399.087 1.5561 -0.249682 0
M  V30 4167 C 400.498 1.84979 0.252949 0
M  V30 4168 C 400.849 1.17153 1.57384 0
M  V30 4169 O 399.974 0.450884 2.11651 0
M  V30 4170 C 400.569 3.35584 0.465732 0
M  V30 4171 C 399.128 3.65169 0.912624 0
M  V30 4172 C 398.275 2.77299 -0.00859085 0
M  V30 4173 H 401.226 1.51513 -0.47217 0
M  V30 4174 H 401.247 3.57313 1.30795 0
M  V30 4175 H 400.759 3.8492 -0.49579 0
M  V30 4176 H 398.86 3.21312 1.88652 0
M  V30 4177 H 398.973 4.72912 0.767559 0
M  V30 4178 H 397.337 2.49678 0.50327 0
M  V30 4179 H 398.12 3.29442 -0.965537 0
M  V30 4180 N 400.565 -0.0233959 1.57583 0
M  V30 4181 C 401.79 -0.728376 1.94189 0
M  V30 4182 C 402.215 -1.67793 0.850119 0
M  V30 4183 O 401.573 -1.80262 -0.19371 0
M  V30 4184 C 401.621 -1.45669 3.29868 0
M  V30 4185 O 400.725 -2.57013 3.22518 0
M  V30 4186 H 400.066 -0.195493 0.63457 0
M  V30 4187 H 402.596 0.0228214 2.04587 0
M  V30 4188 H 402.606 -1.82535 3.6489 0
M  V30 4189 H 401.281 -0.760314 4.08891 0
M  V30 4190 H 399.858 -2.22648 2.99136 0
M  V30 4191 N 402.043 -1.548 -0.295768 0
M  V30 4192 C 403.29 -1.74329 -1.03032 0
M  V30 4193 C 403.618 -0.531915 -1.87085 0
M  V30 4194 O 402.873 0.486052 -1.89568 0
M  V30 4195 C 403.172 -2.98797 -1.961 0
M  V30 4196 C 402.838 -4.32356 -1.2798 0
M  V30 4197 C 401.5 -4.68661 -1.09135 0
M  V30 4198 C 403.852 -5.15128 -0.793243 0
M  V30 4199 C 401.18 -5.85312 -0.403269 0
M  V30 4200 C 403.532 -6.32488 -0.118854 0
M  V30 4201 C 402.196 -6.6745 0.0815043 0
M  V30 4202 H 401.466 -0.637916 -0.37702 0
M  V30 4203 H 404.113 -1.8906 -0.304696 0
M  V30 4204 H 402.418 -2.78869 -2.75207 0
M  V30 4205 H 404.115 -3.11102 -2.53015 0
M  V30 4206 H 400.705 -4.03808 -1.43655 0
M  V30 4207 H 404.889 -4.87575 -0.92653 0
M  V30 4208 H 400.145 -6.1094 -0.237098 0
M  V30 4209 H 404.319 -6.95892 0.266035 0
M  V30 4210 H 401.946 -7.57695 0.616685 0
M  V30 4211 N 403.521 0.559213 -1.47345 0
M  V30 4212 C 404.746 1.34676 -1.57725 0
M  V30 4213 C 405.171 1.86723 -0.227164 0
M  V30 4214 O 404.529 1.6286 0.796642 0
M  V30 4215 C 404.577 2.49399 -2.60447 0
M  V30 4216 O 403.681 3.51567 -2.15578 0
M  V30 4217 H 403.022 0.400115 -0.52991 0
M  V30 4218 H 405.552 0.676009 -1.93109 0
M  V30 4219 H 405.562 2.95996 -2.80803 0
M  V30 4220 H 404.237 2.10873 -3.58477 0
M  V30 4221 H 402.814 3.11289 -2.05313 0
M  V30 4222 N 404.999 1.35443 0.805782 0
M  V30 4223 C 406.41 1.25768 1.37983 0
M  V30 4224 C 406.761 -0.10958 1.95894 0
M  V30 4225 O 405.886 -1.01056 1.91355 0
M  V30 4226 C 406.481 2.27727 2.5085 0
M  V30 4227 C 405.04 2.2179 3.04115 0
M  V30 4228 C 404.187 2.13393 1.77084 0
M  V30 4229 H 407.138 1.4656 0.608752 0
M  V30 4230 H 407.159 1.90422 3.29424 0
M  V30 4231 H 406.671 3.27227 2.08671 0
M  V30 4232 H 404.772 1.25703 3.50756 0
M  V30 4233 H 404.885 3.13788 3.62042 0
M  V30 4234 H 403.249 1.59384 1.98668 0
M  V30 4235 H 404.032 3.14755 1.37056 0
M  V30 4236 N 406.477 -1.02803 1.19454 0
M  V30 4237 C 407.705 -1.79841 1.02297 0
M  V30 4238 C 408.12 -1.83879 -0.428259 0
M  V30 4239 O 407.477 -1.28345 -1.29745 0
M  V30 4240 C 407.528 -3.24852 1.58598 0
M  V30 4241 O 407.249 -3.21097 2.98041 0
M  V30 4242 C 408.75 -4.18485 1.46236 0
M  V30 4243 H 405.97 -0.565936 0.360496 0
M  V30 4244 H 408.514 -1.2948 1.58288 0
M  V30 4245 H 406.669 -3.72401 1.06753 0
M  V30 4246 H 407.083 -4.12033 3.24545 0
M  V30 4247 H 408.557 -5.18121 1.90407 0
M  V30 4248 H 409.034 -4.37254 0.41301 0
M  V30 4249 H 409.64 -3.76811 1.97215 0
M  V30 4250 N 407.956 -0.998596 -1.21925 0
M  V30 4251 C 409.367 -0.711939 -1.72593 0
M  V30 4252 C 409.718 0.770842 -1.80423 0
M  V30 4253 O 408.843 1.60237 -1.4544 0
M  V30 4254 C 409.438 -1.28567 -3.13458 0
M  V30 4255 C 407.997 -1.04828 -3.61508 0
M  V30 4256 C 407.144 -1.4024 -2.39224 0
M  V30 4257 H 410.095 -1.17027 -1.07193 0
M  V30 4258 H 410.116 -0.667098 -3.74607 0
M  V30 4259 H 409.628 -2.36486 -3.07727 0
M  V30 4260 H 407.729 0.0140383 -3.72597 0
M  V30 4261 H 407.842 -1.71566 -4.47328 0
M  V30 4262 H 406.206 -0.821077 -2.41103 0
M  V30 4263 H 406.989 -2.49176 -2.36149 0
M  V30 4264 N 409.434 1.37368 -0.772513 0
M  V30 4265 C 410.682 1.99279 -0.336516 0
M  V30 4266 C 411.003 1.6163 1.09091 0
M  V30 4267 O 410.273 0.882109 1.74916 0
M  V30 4268 H 408.853 0.737063 -0.121435 0
M  V30 4269 H 411.515 1.67836 -0.990809 0
M  V30 4270 H 410.611 3.09332 -0.414763 0
M  V30 4271 N 410.912 0.523116 1.48665 0
M  V30 4272 C 412.159 -0.0134763 2.02496 0
M  V30 4273 C 412.487 -1.3493 1.40086 0
M  V30 4274 O 411.742 -1.88286 0.533567 0
M  V30 4275 C 412.041 -0.191671 3.56886 0
M  V30 4276 C 411.707 1.06893 4.38046 0
M  V30 4277 C 410.369 1.41443 4.59943 0
M  V30 4278 C 412.721 1.90584 4.85106 0
M  V30 4279 C 410.049 2.59594 5.26144 0
M  V30 4280 C 412.401 3.07907 5.52609 0
M  V30 4281 C 411.065 3.42811 5.72745 0
M  V30 4282 H 410.335 -0.00493133 0.740984 0
M  V30 4283 H 412.982 0.687751 1.78724 0
M  V30 4284 H 411.287 -0.97561 3.79459 0
M  V30 4285 H 412.984 -0.621659 3.96152 0
M  V30 4286 H 409.574 0.789848 4.21259 0
M  V30 4287 H 413.758 1.65203 4.67997 0
M  V30 4288 H 409.014 2.86847 5.39934 0
M  V30 4289 H 413.188 3.73066 5.88043 0
M  V30 4290 H 410.815 4.34462 6.23816 0
M  V30 4291 N 412.39 -1.55475 0.257931 0
M  V30 4292 C 413.618 -2.03609 -0.367559 0
M  V30 4293 C 414.033 -1.13687 -1.50734 0
M  V30 4294 O 413.39 -0.153479 -1.81853 0
M  V30 4295 C 413.441 -3.51001 -0.864908 0
M  V30 4296 O 413.162 -4.37499 0.229465 0
M  V30 4297 C 414.663 -4.14946 -1.55997 0
M  V30 4298 H 411.883 -0.665459 -0.0860521 0
M  V30 4299 H 414.427 -2.00843 0.385014 0
M  V30 4300 H 412.582 -3.54266 -1.56762 0
M  V30 4301 H 412.996 -5.24286 -0.14998 0
M  V30 4302 H 414.47 -5.19735 -1.85956 0
M  V30 4303 H 414.947 -3.6209 -2.4857 0
M  V30 4304 H 415.553 -4.15635 -0.901543 0
M  V30 4305 N 413.868 0.0150385 -1.57593 0
M  V30 4306 C 415.279 0.559832 -1.78109 0
M  V30 4307 C 415.63 1.74814 -0.890756 0
M  V30 4308 O 414.755 2.16216 -0.0892482 0
M  V30 4309 C 415.35 1.02238 -3.23006 0
M  V30 4310 C 413.909 1.51258 -3.44671 0
M  V30 4311 C 413.056 0.456955 -2.73509 0
M  V30 4312 H 416.007 -0.211169 -1.57289 0
M  V30 4313 H 416.028 1.88912 -3.30292 0
M  V30 4314 H 415.54 0.157302 -3.87781 0
M  V30 4315 H 413.641 2.39905 -2.8509 0
M  V30 4316 H 413.754 1.55042 -4.5332 0
M  V30 4317 H 412.118 0.915196 -2.37689 0
M  V30 4318 H 412.901 -0.398896 -3.40975 0
M  V30 4319 N 415.346 1.54954 0.287554 0
M  V30 4320 C 416.574 1.78881 1.03967 0
M  V30 4321 C 416.989 0.554894 1.80462 0
M  V30 4322 O 416.346 -0.475676 1.76192 0
M  V30 4323 C 416.397 3.00488 2.0097 0
M  V30 4324 O 416.118 4.19113 1.27577 0
M  V30 4325 C 417.619 3.36907 2.88112 0
M  V30 4326 H 414.839 0.596259 0.307761 0
M  V30 4327 H 417.383 2.01937 0.322749 0
M  V30 4328 H 415.538 2.79601 2.68145 0
M  V30 4329 H 415.952 4.87765 1.92835 0
M  V30 4330 H 417.426 4.25205 3.52001 0
M  V30 4331 H 417.903 2.55659 3.57121 0
M  V30 4332 H 418.509 3.60001 2.26449 0
M  V30 4333 N 416.824 -0.551391 1.4764 0
M  V30 4334 C 417.754 -1.66757 1.63445 0
M  V30 4335 C 418.735 -1.63077 0.483742 0
M  V30 4336 O 419.92 -1.80607 0.71377 0
M  V30 4337 C 417.05 -3.05387 1.65396 0
M  V30 4338 C 416.004 -3.23918 2.79752 0
M  V30 4339 C 415.33 -4.63393 2.66779 0
M  V30 4340 C 416.63 -3.08735 4.21284 0
M  V30 4341 H 418.324 -1.53786 2.56886 0
M  V30 4342 H 415.87 -0.738415 1.23626 0
M  V30 4343 H 417.823 -3.83325 1.75043 0
M  V30 4344 H 416.547 -3.19332 0.685195 0
M  V30 4345 H 415.206 -2.48391 2.69625 0
M  V30 4346 H 414.854 -4.74144 1.67918 0
M  V30 4347 H 414.554 -4.7674 3.43501 0
M  V30 4348 H 416.078 -5.43458 2.78364 0
M  V30 4349 H 417.492 -3.76484 4.32357 0
M  V30 4350 H 415.889 -3.33588 4.98838 0
M  V30 4351 H 416.959 -2.0541 4.39243 0
M  V30 4352 N 418.302 -1.35869 -0.798587 0
M  V30 4353 C 419.55 -1.29332 -1.55298 0
M  V30 4354 C 419.871 0.129729 -1.94568 0
M  V30 4355 O 419.141 1.06796 -1.6423 0
M  V30 4356 H 417.721 -0.475737 -0.57592 0
M  V30 4357 H 420.383 -1.70062 -0.952093 0
M  V30 4358 H 419.479 -1.91458 -2.46476 0
M  V30 4359 N 419.78 1.02168 -1.19998 0
M  V30 4360 C 421.027 1.75685 -1.00702 0
M  V30 4361 C 421.355 1.88947 0.461426 0
M  V30 4362 O 420.61 1.40832 1.35885 0
M  V30 4363 C 420.909 3.18081 -1.62969 0
M  V30 4364 C 420.575 3.24809 -3.12746 0
M  V30 4365 C 419.237 3.26352 -3.53621 0
M  V30 4366 C 421.589 3.23379 -4.08749 0
M  V30 4367 C 418.917 3.2413 -4.89036 0
M  V30 4368 C 421.269 3.22698 -5.44104 0
M  V30 4369 C 419.933 3.22542 -5.84399 0
M  V30 4370 H 419.203 0.642877 -0.368496 0
M  V30 4371 H 421.85 1.19865 -1.49348 0
M  V30 4372 H 420.155 3.77027 -1.06573 0
M  V30 4373 H 421.852 3.73648 -1.45561 0
M  V30 4374 H 418.442 3.2434 -2.80181 0
M  V30 4375 H 422.626 3.21361 -3.78207 0
M  V30 4376 H 417.882 3.22338 -5.19527 0
M  V30 4377 H 422.056 3.20543 -6.18244 0
M  V30 4378 H 419.683 3.20575 -6.89301 0
M  V30 4379 N 421.258 1.00505 1.21394 0
M  V30 4380 C 422.483 0.706367 1.95001 0
M  V30 4381 C 422.908 -0.72463 1.73582 0
M  V30 4382 O 422.266 -1.49702 1.0227 0
M  V30 4383 C 422.314 1.03299 3.45487 0
M  V30 4384 O 421.418 0.138275 4.12168 0
M  V30 4385 H 420.759 0.263175 0.609619 0
M  V30 4386 H 423.289 1.34531 1.54151 0
M  V30 4387 H 423.299 0.979872 3.96059 0
M  V30 4388 H 421.974 2.07567 3.60401 0
M  V30 4389 H 420.551 0.247928 3.72075 0
M  V30 4390 N 422.737 -1.36956 0.779787 0
M  V30 4391 C 424.148 -1.82094 0.412156 0
M  V30 4392 C 424.499 -1.64926 -1.06273 0
M  V30 4393 O 423.624 -1.16483 -1.82375 0
M  V30 4394 C 424.219 -3.3059 0.741319 0
M  V30 4395 C 422.778 -3.73974 0.426641 0
M  V30 4396 C 421.925 -2.59368 0.980987 0
M  V30 4397 H 424.876 -1.25314 0.973758 0
M  V30 4398 H 424.897 -3.80489 0.028887 0
M  V30 4399 H 424.409 -3.43054 1.81482 0
M  V30 4400 H 422.51 -3.67076 -0.639215 0
M  V30 4401 H 422.623 -4.69778 0.940515 0
M  V30 4402 H 420.987 -2.51463 0.404757 0
M  V30 4403 H 421.77 -2.74621 2.06005 0
M  V30 4404 N 424.215 -0.530993 -1.48385 0
M  V30 4405 C 425.461 0.00274135 -2.028 0
M  V30 4406 C 425.794 1.33838 -1.40716 0
M  V30 4407 O 425.069 1.86465 -0.553277 0
M  V30 4408 C 425.352 0.123676 -3.59888 0
M  V30 4409 C 425.205 -1.2372 -4.3245 0
M  V30 4410 C 426.524 0.849967 -4.31814 0
M  V30 4411 H 423.643 -0.000477758 -0.737 0
M  V30 4412 H 426.285 -0.688217 -1.77098 0
M  V30 4413 H 424.435 0.712157 -3.81917 0
M  V30 4414 H 426.107 -1.86687 -4.21836 0
M  V30 4415 H 424.35 -1.81882 -3.93829 0
M  V30 4416 H 425.021 -1.10557 -5.40815 0
M  V30 4417 H 427.497 0.350572 -4.14621 0
M  V30 4418 H 426.373 0.903486 -5.41413 0
M  V30 4419 H 426.634 1.90047 -3.99167 0
M  V30 4420 N 425.693 1.55336 -0.266172 0
M  V30 4421 C 427.104 1.85236 0.233315 0
M  V30 4422 C 427.455 1.18816 1.56132 0
M  V30 4423 O 426.58 0.473307 2.11161 0
M  V30 4424 C 427.175 3.36059 0.430113 0
M  V30 4425 C 425.734 3.66116 0.873842 0
M  V30 4426 C 424.881 2.77274 -0.0380016 0
M  V30 4427 H 427.832 1.51004 -0.488214 0
M  V30 4428 H 427.853 3.58681 1.26998 0
M  V30 4429 H 427.365 3.84373 -0.536588 0
M  V30 4430 H 425.466 3.23295 1.85233 0
M  V30 4431 H 425.579 4.73699 0.717358 0
M  V30 4432 H 423.943 2.50198 0.476759 0
M  V30 4433 H 424.726 3.284 -1.00042 0
M  V30 4434 N 427.171 -0.0066808 1.57599 0
M  V30 4435 C 428.396 -0.707738 1.94951 0
M  V30 4436 C 428.821 -1.66882 0.867868 0
M  V30 4437 O 428.179 -1.80457 -0.17458 0
M  V30 4438 C 428.227 -1.42162 3.31394 0
M  V30 4439 O 427.331 -2.53578 3.25226 0
M  V30 4440 H 426.672 -0.188752 0.636607 0
M  V30 4441 H 429.202 0.0445193 2.04552 0
M  V30 4442 H 429.212 -1.78655 3.66806 0
M  V30 4443 H 427.887 -0.716903 4.09675 0
M  V30 4444 H 426.464 -2.19463 3.01481 0
M  V30 4445 N 428.649 -1.55105 -0.279332 0
M  V30 4446 C 429.874 -1.7976 -1.03446 0
M  V30 4447 C 430.299 -0.565952 -1.79384 0
M  V30 4448 O 429.657 0.484259 -1.74713 0
M  V30 4449 C 429.705 -3.0179 -1.97371 0
M  V30 4450 O 428.809 -2.76432 -3.06038 0
M  V30 4451 H 428.15 -0.594334 -0.29608 0
M  V30 4452 H 430.68 -2.02235 -0.310165 0
M  V30 4453 H 430.69 -3.30351 -2.39441 0
M  V30 4454 H 429.365 -3.91085 -1.4151 0
M  V30 4455 H 427.942 -2.58949 -2.68328 0
M  V30 4456 N 430.127 0.543554 -1.4793 0
M  V30 4457 C 431.355 1.32516 -1.58894 0
M  V30 4458 C 431.77 1.87215 -0.244131 0
M  V30 4459 O 431.127 1.65709 0.764652 0
M  V30 4460 C 431.178 2.48554 -2.62494 0
M  V30 4461 O 430.899 1.96112 -3.91755 0
M  V30 4462 C 432.4 3.40572 -2.8377 0
M  V30 4463 H 429.62 0.403472 -0.536145 0
M  V30 4464 H 432.164 0.657106 -1.93655 0
M  V30 4465 H 430.319 3.1127 -2.30629 0
M  V30 4466 H 430.733 2.71967 -4.4848 0
M  V30 4467 H 432.207 4.18375 -3.60093 0
M  V30 4468 H 432.684 3.94965 -1.92092 0
M  V30 4469 H 433.29 2.8366 -3.16887 0
M  V30 4470 N 431.605 1.3629 0.791371 0
M  V30 4471 C 432.852 1.30412 1.54916 0
M  V30 4472 C 433.18 -0.117162 1.94147 0
M  V30 4473 O 432.435 -1.08599 1.62803 0
M  V30 4474 C 432.734 2.17068 2.8393 0
M  V30 4475 C 432.4 3.65645 2.63846 0
M  V30 4476 C 431.062 4.0614 2.58077 0
M  V30 4477 C 433.414 4.59855 2.45322 0
M  V30 4478 C 430.742 5.3899 2.31748 0
M  V30 4479 C 433.094 5.9292 2.2052 0
M  V30 4480 C 431.758 6.32542 2.13183 0
M  V30 4481 H 431.028 0.47721 0.566879 0
M  V30 4482 H 433.675 1.68325 0.913172 0
M  V30 4483 H 431.98 1.72085 3.51986 0
M  V30 4484 H 433.677 2.09846 3.4171 0
M  V30 4485 H 430.267 3.33518 2.69191 0
M  V30 4486 H 434.451 4.29443 2.48782 0
M  V30 4487 H 429.707 5.68672 2.24548 0
M  V30 4488 H 433.881 6.65487 2.05182 0
M  V30 4489 H 431.508 7.35412 1.92544 0
M  V30 4490 N 433.083 -1.0153 1.20538 0
M  V30 4491 C 434.311 -1.78746 1.04199 0
M  V30 4492 C 434.726 -1.84323 -0.408733 0
M  V30 4493 O 434.083 -1.29714 -1.28377 0
M  V30 4494 C 434.134 -3.23152 1.62035 0
M  V30 4495 O 433.855 -3.17918 3.0143 0
M  V30 4496 C 435.356 -4.16911 1.50666 0
M  V30 4497 H 432.576 -0.56208 0.366479 0
M  V30 4498 H 435.12 -1.27794 1.59653 0
M  V30 4499 H 433.275 -3.71248 1.10697 0
M  V30 4500 H 433.689 -4.08567 3.28897 0
M  V30 4501 H 435.163 -5.16072 1.95892 0
M  V30 4502 H 435.64 -4.36791 0.459363 0
M  V30 4503 H 436.246 -3.74698 2.01201 0
M  V30 4504 N 434.561 -1.01147 -1.20859 0
M  V30 4505 C 435.786 -0.716698 -1.94623 0
M  V30 4506 C 436.211 0.715415 -1.73964 0
M  V30 4507 O 435.569 1.49157 -1.03062 0
M  V30 4508 C 435.617 -1.0513 -3.44935 0
M  V30 4509 O 434.721 -0.160131 -4.12089 0
M  V30 4510 H 434.062 -0.266404 -0.608214 0
M  V30 4511 H 436.592 -1.35346 -1.53436 0
M  V30 4512 H 436.602 -1.00086 -3.95533 0
M  V30 4513 H 435.277 -2.09475 -3.59295 0
M  V30 4514 H 433.854 -0.267657 -3.71938 0
M  V30 4515 N 436.039 1.36541 -0.78704 0
M  V30 4516 C 437.264 2.0409 -0.369053 0
M  V30 4517 C 437.689 1.58957 1.00569 0
M  V30 4518 O 437.047 0.756926 1.64743 0
M  V30 4519 C 437.095 3.57924 -0.438466 0
M  V30 4520 O 436.199 4.08642 0.555479 0
M  V30 4521 H 435.54 0.645142 -0.157122 0
M  V30 4522 H 438.07 1.74545 -1.06749 0
M  V30 4523 H 438.08 4.06887 -0.301218 0
M  V30 4524 H 436.755 3.90127 -1.44132 0
M  V30 4525 H 435.332 3.70958 0.380088 0
M  V30 4526 N 437.518 0.538854 1.48102 0
M  V30 4527 C 438.743 0.0102694 2.07397 0
M  V30 4528 C 439.168 -1.26562 1.39153 0
M  V30 4529 O 438.526 -1.75357 0.460387 0
M  V30 4530 C 438.574 -0.187602 3.60112 0
M  V30 4531 O 437.678 -1.25432 3.92862 0
M  V30 4532 H 437.019 0.0430975 0.6626 0
M  V30 4533 H 439.549 0.749301 1.90385 0
M  V30 4534 H 439.559 -0.407517 4.0596 0
M  V30 4535 H 438.234 0.744386 4.09184 0
M  V30 4536 H 436.811 -1.01636 3.58782 0
M  V30 4537 N 438.996 -1.55193 0.274407 0
M  V30 4538 C 440.224 -2.03987 -0.345943 0
M  V30 4539 C 440.639 -1.15279 -1.4952 0
M  V30 4540 O 439.996 -0.172759 -1.8168 0
M  V30 4541 C 440.047 -3.51898 -0.827631 0
M  V30 4542 O 439.768 -4.37231 0.275855 0
M  V30 4543 C 441.269 -4.16577 -1.51587 0
M  V30 4544 H 438.489 -0.666335 -0.0789892 0
M  V30 4545 H 441.033 -2.00423 0.406294 0
M  V30 4546 H 439.188 -3.55909 -1.52996 0
M  V30 4547 H 439.602 -5.24415 -0.0943638 0
M  V30 4548 H 441.076 -5.21678 -1.80433 0
M  V30 4549 H 441.553 -3.64707 -2.44716 0
M  V30 4550 H 442.159 -4.16568 -0.857409 0
M  V30 4551 N 440.474 -0.00167713 -1.576 0
M  V30 4552 C 441.704 0.692754 -1.94639 0
M  V30 4553 C 442.112 1.67744 -0.87513 0
M  V30 4554 O 441.455 1.8305 0.154382 0
M  V30 4555 C 441.517 1.47881 -3.27676 0
M  V30 4556 C 441.181 0.655518 -4.52274 0
M  V30 4557 C 442.178 -0.0575214 -5.19868 0
M  V30 4558 C 439.863 0.600994 -4.98692 0
M  V30 4559 C 441.857 -0.814052 -6.3218 0
M  V30 4560 C 439.544 -0.15926 -6.10892 0
M  V30 4561 C 440.542 -0.865515 -6.77494 0
M  V30 4562 O 440.23 -1.61336 -7.87544 0
M  V30 4563 H 439.962 0.197792 -0.646417 0
M  V30 4564 H 442.516 -0.049423 -2.05341 0
M  V30 4565 H 440.746 2.2655 -3.13388 0
M  V30 4566 H 442.435 2.05874 -3.49816 0
M  V30 4567 H 443.201 -0.0245611 -4.84994 0
M  V30 4568 H 439.08 1.14025 -4.46676 0
M  V30 4569 H 442.624 -1.36584 -6.84098 0
M  V30 4570 H 438.521 -0.194035 -6.45208 0
M  V30 4571 H 439.289 -1.53025 -8.04068 0
M  V30 4572 N 441.952 1.55251 0.271103 0
M  V30 4573 C 443.18 1.79974 1.02064 0
M  V30 4574 C 443.595 0.574003 1.79863 0
M  V30 4575 O 442.952 -0.456962 1.76686 0
M  V30 4576 C 443.003 3.02603 1.97772 0
M  V30 4577 O 442.724 4.20443 1.23124 0
M  V30 4578 C 444.225 3.39944 2.84522 0
M  V30 4579 H 441.445 0.599489 0.301419 0
M  V30 4580 H 443.989 2.02268 0.301313 0
M  V30 4581 H 442.144 2.8243 2.65165 0
M  V30 4582 H 442.558 4.89783 1.87651 0
M  V30 4583 H 444.032 4.28915 3.47471 0
M  V30 4584 H 444.509 2.59432 3.54389 0
M  V30 4585 H 445.115 3.62383 2.22618 0
M  V30 4586 N 443.43 -0.535701 1.48216 0
M  V30 4587 C 444.841 -1.11769 1.49548 0
M  V30 4588 C 445.192 -1.94442 0.26207 0
M  V30 4589 O 444.317 -2.06987 -0.631287 0
M  V30 4590 C 444.912 -2.03367 2.70975 0
M  V30 4591 C 443.471 -2.56795 2.75196 0
M  V30 4592 C 442.618 -1.33631 2.42977 0
M  V30 4593 H 445.569 -0.321232 1.55415 0
M  V30 4594 H 445.59 -2.87569 2.49167 0
M  V30 4595 H 445.102 -1.43169 3.60727 0
M  V30 4596 H 443.203 -3.20731 1.89638 0
M  V30 4597 H 443.316 -2.9632 3.76472 0
M  V30 4598 H 441.68 -1.6502 1.94012 0
M  V30 4599 H 442.463 -0.75194 3.34964 0
M  V30 4600 N 444.908 -1.36708 -0.784132 0
M  V30 4601 C 446.156 -1.30972 -1.53918 0
M  V30 4602 C 446.477 0.109086 -1.94695 0
M  V30 4603 O 445.747 1.05048 -1.65353 0
M  V30 4604 H 444.327 -0.481819 -0.570841 0
M  V30 4605 H 446.989 -1.71063 -0.934002 0
M  V30 4606 H 446.085 -1.94061 -2.44431 0
M  V30 4607 N 446.386 1.0089 -1.21074 0
M  V30 4608 C 447.663 1.71834 -0.934469 0
M  V30 4609 C 448.043 2.0368 0.554753 0
M  V30 4610 O 447.391 1.70742 1.51854 0
M  V30 4611 C 447.601 2.98061 -1.8155 0
M  V30 4612 C 448.949 3.7117 -2.06199 0
M  V30 4613 O 449.973 3.08034 -1.78867 0
M  V30 4614 O 448.832 4.84721 -2.52404 0
M  V30 4615 H 445.926 0.749253 -0.35007 0
M  V30 4616 H 448.472 1.06668 -1.31985 0
M  V30 4617 H 447.244 2.70908 -2.82355 0
M  V30 4618 H 446.867 3.70968 -1.43068 0
M  V30 4619 N 447.864 1.01787 1.20321 0
M  V30 4620 C 449.104 0.716493 1.91431 0
M  V30 4621 C 449.468 -0.740352 1.77152 0
M  V30 4622 O 450.669 -1.1543 2.42754 0
M  V30 4623 C 448.94 1.14169 3.38674 0
M  V30 4624 S 450.499 0.962482 4.28114 0
M  V30 4625 H 447.317 0.261175 0.661293 0
M  V30 4626 H 449.919 1.30539 1.45533 0
M  V30 4627 H 448.623 2.19784 3.46588 0
M  V30 4628 H 448.154 0.545621 3.89598 0
M  V30 4629 H 450.169 -0.133253 4.96021 0
M  V30 4630 N 449.342 -1.36122 0.79427 0
M  V30 4631 C 450.753 -1.81646 0.431446 0
M  V30 4632 C 451.104 -1.66043 -1.04518 0
M  V30 4633 O 450.229 -1.1841 -1.8113 0
M  V30 4634 C 450.824 -3.29785 0.776341 0
M  V30 4635 C 449.383 -3.73501 0.466282 0
M  V30 4636 C 448.53 -2.58313 1.00844 0
M  V30 4637 H 451.481 -1.24274 0.986995 0
M  V30 4638 H 451.502 -3.80437 0.0692413 0
M  V30 4639 H 451.014 -3.4111 1.8511 0
M  V30 4640 H 449.115 -3.67733 -0.600245 0
M  V30 4641 H 449.228 -4.68754 0.990288 0
M  V30 4642 H 447.592 -2.5102 0.431406 0
M  V30 4643 H 448.375 -2.72421 2.08906 0
M  V30 4644 N 450.82 -0.546701 -1.47814 0
M  V30 4645 C 451.768 0.220048 -2.31557 0
M  V30 4646 C 452.762 0.919472 -1.42275 0
M  V30 4647 O 453.968 0.841953 -1.59095 0
M  V30 4648 H 450.343 0.0898334 -0.746615 0
M  V30 4649 H 452.314 -0.505589 -2.94086 0
M  V30 4650 C 451.063 1.24353 -3.24702 0
M  V30 4651 H 450.386 0.714758 -3.93359 0
M  V30 4652 H 451.826 1.75112 -3.8615 0
M  V30 4653 C 450.285 2.28593 -2.47481 0
M  V30 4654 O 450.815 3.35334 -2.21165 0
M  V30 4655 N 449.021 2.02244 -2.08676 0
M  V30 4656 H 448.568 1.15455 -2.30278 0
M  V30 4657 H 448.526 2.72207 -1.57323 0
M  V30 4658 N 452.299 1.55045 -0.282633 0
M  V30 4659 C 453.546 1.9976 0.33199 0
M  V30 4660 C 453.874 1.17105 1.55295 0
M  V30 4661 O 453.129 0.230599 1.94337 0
M  V30 4662 C 453.428 3.49422 0.750938 0
M  V30 4663 C 453.094 4.4941 -0.366228 0
M  V30 4664 C 451.756 4.76471 -0.672964 0
M  V30 4665 C 454.108 5.09054 -1.11864 0
M  V30 4666 C 451.436 5.60442 -1.73556 0
M  V30 4667 C 453.788 5.9418 -2.17102 0
M  V30 4668 C 452.452 6.19558 -2.48402 0
M  V30 4669 H 451.722 0.730974 0.121484 0
M  V30 4670 H 454.369 1.8732 -0.39791 0
M  V30 4671 H 452.674 3.59377 1.56063 0
M  V30 4672 H 454.371 3.81432 1.23736 0
M  V30 4673 H 450.961 4.2844 -0.117041 0
M  V30 4674 H 455.145 4.88165 -0.894925 0
M  V30 4675 H 450.401 5.78349 -1.983 0
M  V30 4676 H 454.575 6.39427 -2.75873 0
M  V30 4677 H 452.202 6.84417 -3.30874 0
M  V30 4678 N 453.777 0.010035 1.57597 0
M  V30 4679 C 454.74 -0.963029 2.07986 0
M  V30 4680 C 455.74 -1.26619 0.991173 0
M  V30 4681 O 456.93 -1.2097 1.25347 0
M  V30 4682 C 454.062 -2.2851 2.52974 0
M  V30 4683 H 455.255 -0.526971 2.95234 0
M  V30 4684 H 452.808 -0.237639 1.54483 0
M  V30 4685 H 453.543 -2.76784 1.69 0
M  V30 4686 H 453.328 -2.07824 3.32493 0
M  V30 4687 H 454.818 -2.98294 2.9225 0
M  V30 4688 N 455.255 -1.55392 -0.262866 0
M  V30 4689 C 456.218 -1.88181 -1.30846 0
M  V30 4690 C 457.218 -0.757079 -1.41862 0
M  V30 4691 O 458.408 -1.02519 -1.40838 0
M  V30 4692 C 455.54 -2.09609 -2.68844 0
M  V30 4693 H 456.733 -2.81659 -1.02997 0
M  V30 4694 H 454.286 -1.48039 -0.501414 0
M  V30 4695 H 455.021 -1.18547 -3.01856 0
M  V30 4696 H 454.806 -2.91508 -2.62231 0
M  V30 4697 H 456.296 -2.36215 -3.44372 0
M  V30 4698 N 456.733 0.527833 -1.48498 0
M  V30 4699 C 458.144 1.10975 -1.50138 0
M  V30 4700 C 458.495 1.943 -0.272378 0
M  V30 4701 O 457.62 2.07319 0.620301 0
M  V30 4702 C 458.215 2.01927 -2.72049 0
M  V30 4703 C 456.774 2.55332 -2.76554 0
M  V30 4704 C 455.921 1.32341 -2.43683 0
M  V30 4705 H 458.872 0.312986 -1.55583 0
M  V30 4706 H 458.893 2.86244 -2.50689 0
M  V30 4707 H 458.405 1.41254 -3.61481 0
M  V30 4708 H 456.506 3.19721 -1.91336 0
M  V30 4709 H 456.619 2.94319 -3.78038 0
M  V30 4710 H 454.983 1.63989 -1.94884 0
M  V30 4711 H 455.766 0.734165 -3.35358 0
M  V30 4712 N 458.211 1.37122 0.776871 0
M  V30 4713 C 459.627 1.1781 1.07671 0
M  V30 4714 C 459.827 0.0107454 2.01497 0
M  V30 4715 O 458.883 -0.650756 2.4397 0
M  V30 4716 C 460.196 2.49451 1.67913 0
M  V30 4717 C 461.744 2.55927 1.80195 0
M  V30 4718 C 462.219 3.87686 2.43851 0
M  V30 4719 N 463.71 3.891 2.51307 0
M  V30 4720 C 464.445 4.87797 3.014 0
M  V30 4721 N 463.941 5.96888 3.51705 0
M  V30 4722 N 465.734 4.75205 3.00227 0
M  V30 4723 H 457.885 2.11843 0.153778 0
M  V30 4724 H 460.148 0.938927 0.130844 0
M  V30 4725 H 459.854 3.35207 1.06439 0
M  V30 4726 H 459.728 2.66169 2.67271 0
M  V30 4727 H 462.115 1.70582 2.40803 0
M  V30 4728 H 462.196 2.43097 0.796069 0
M  V30 4729 H 461.84 4.73444 1.83884 0
M  V30 4730 H 461.77 3.97817 3.45035 0
M  V30 4731 H 464.261 3.10293 2.157 0
M  V30 4732 H 464.574 6.68155 3.88316 0
M  V30 4733 H 462.919 6.0054 3.49824 0
M  V30 4734 H 466.11 3.89103 2.60224 0
M  V30 4735 H 466.283 5.52279 3.38957 0
M  V30 4736 N 459.689 -1.00246 1.21608 0
M  V30 4737 C 461.105 -1.26435 0.973975 0
M  V30 4738 C 461.305 -1.98642 -0.338143 0
M  V30 4739 O 460.361 -2.29026 -1.06317 0
M  V30 4740 C 461.674 -2.08551 2.16626 0
M  V30 4741 C 463.222 -2.21769 2.20879 0
M  V30 4742 C 463.697 -3.07267 3.39633 0
M  V30 4743 N 465.188 -3.14855 3.39736 0
M  V30 4744 C 465.923 -3.81274 4.28273 0
M  V30 4745 N 465.419 -4.497 5.27012 0
M  V30 4746 N 467.212 -3.7794 4.16074 0
M  V30 4747 H 459.363 -0.518089 2.05984 0
M  V30 4748 H 461.626 -0.291368 0.902113 0
M  V30 4749 H 461.332 -1.62847 3.11727 0
M  V30 4750 H 461.206 -3.09303 2.15897 0
M  V30 4751 H 463.593 -2.66691 1.26332 0
M  V30 4752 H 463.674 -1.20478 2.25652 0
M  V30 4753 H 463.318 -2.63047 4.34475 0
M  V30 4754 H 463.248 -4.08678 3.321 0
M  V30 4755 H 465.739 -2.66147 2.6828 0
M  V30 4756 H 466.052 -4.98092 5.90867 0
M  V30 4757 H 464.397 -4.48479 5.30935 0
M  V30 4758 H 467.588 -3.23638 3.38195 0
M  V30 4759 H 467.761 -4.29424 4.85282 0
M  V30 4760 N 461.167 -1.02423 -1.1978 0
M  V30 4761 C 462.077 -0.610919 -2.26506 0
M  V30 4762 C 463.093 0.355152 -1.70337 0
M  V30 4763 O 464.269 0.214195 -2.00258 0
M  V30 4764 C 461.334 0.0365921 -3.46681 0
M  V30 4765 C 460.395 -0.976389 -4.18049 0
M  V30 4766 C 459.628 -0.359683 -5.32487 0
M  V30 4767 O 459.851 0.838601 -5.64202 0
M  V30 4768 O 458.785 -1.08022 -5.92127 0
M  V30 4769 H 462.611 -1.49965 -2.64091 0
M  V30 4770 H 460.196 -0.794156 -1.26545 0
M  V30 4771 H 462.078 0.39786 -4.19518 0
M  V30 4772 H 460.753 0.899398 -3.10954 0
M  V30 4773 H 459.66 -1.38916 -3.47352 0
M  V30 4774 H 460.993 -1.80941 -4.57735 0
M  V30 4775 N 462.645 1.35699 -0.801477 0
M  V30 4776 C 463.891 1.99208 -0.380022 0
M  V30 4777 C 464.224 1.63445 1.04878 0
M  V30 4778 O 463.499 0.895223 1.72673 0
M  V30 4779 C 463.782 3.55755 -0.557708 0
M  V30 4780 C 463.635 4.01332 -2.03107 0
M  V30 4781 C 464.954 4.40096 0.0197968 0
M  V30 4782 H 462.073 0.723667 -0.139552 0
M  V30 4783 H 464.715 1.60928 -1.01006 0
M  V30 4784 H 462.865 3.88494 -0.0213741 0
M  V30 4785 H 464.537 3.79026 -2.62939 0
M  V30 4786 H 462.78 3.52429 -2.52936 0
M  V30 4787 H 463.451 5.10234 -2.1063 0
M  V30 4788 H 465.927 4.13786 -0.438179 0
M  V30 4789 H 464.803 5.48735 -0.134477 0
M  V30 4790 H 465.064 4.2786 1.11303 0
M  V30 4791 N 464.123 0.554532 1.47522 0
M  V30 4792 C 465.086 -0.184174 2.28459 0
M  V30 4793 C 466.086 -0.845195 1.36796 0
M  V30 4794 O 467.276 -0.701467 1.59452 0
M  V30 4795 C 464.408 -1.26903 3.16399 0
M  V30 4796 H 465.601 0.526751 2.95238 0
M  V30 4797 H 463.154 0.311375 1.53167 0
M  V30 4798 H 463.889 -2.01244 2.54306 0
M  V30 4799 H 463.674 -0.799883 3.83854 0
M  V30 4800 H 465.164 -1.78794 3.77389 0
M  V30 4801 N 465.601 -1.54893 0.290851 0
M  V30 4802 C 467.012 -1.85584 -0.203816 0
M  V30 4803 C 467.363 -1.21285 -1.54222 0
M  V30 4804 O 466.488 -0.506841 -2.10381 0
M  V30 4805 C 467.083 -3.367 -0.376595 0
M  V30 4806 C 465.642 -3.6746 -0.815485 0
M  V30 4807 C 464.789 -2.77178 0.0821087 0
M  V30 4808 H 467.74 -1.50208 0.512175 0
M  V30 4809 H 467.761 -3.60656 -1.21275 0
M  V30 4810 H 467.273 -3.8347 0.59767 0
M  V30 4811 H 465.374 -3.26201 -1.80066 0
M  V30 4812 H 465.487 -4.7478 -0.641905 0
M  V30 4813 H 463.851 -2.50925 -0.436895 0
M  V30 4814 H 464.634 -3.26767 1.05254 0
M  V30 4815 N 467.08 -0.0183926 -1.57589 0
M  V30 4816 C 468.491 0.521927 -1.79256 0
M  V30 4817 C 468.842 1.72885 -0.927636 0
M  V30 4818 O 467.967 2.15978 -0.135091 0
M  V30 4819 C 468.562 0.953632 -3.25102 0
M  V30 4820 C 467.121 1.43913 -3.47801 0
M  V30 4821 C 466.268 0.398837 -2.74417 0
M  V30 4822 H 469.219 -0.244485 -1.56805 0
M  V30 4823 H 469.24 1.81863 -3.34224 0
M  V30 4824 H 468.752 0.0750123 -3.88028 0
M  V30 4825 H 466.853 2.33804 -2.90115 0
M  V30 4826 H 466.966 1.45391 -4.56507 0
M  V30 4827 H 465.33 0.864572 -2.39577 0
M  V30 4828 H 466.113 -0.471132 -3.40052 0
M  V30 4829 N 468.558 1.5553 0.254621 0
M  V30 4830 C 469.788 1.80784 1.00004 0
M  V30 4831 C 470.196 0.59071 1.79742 0
M  V30 4832 O 469.539 -0.449988 1.78103 0
M  V30 4833 C 469.601 2.99268 1.99196 0
M  V30 4834 C 469.265 4.35595 1.38224 0
M  V30 4835 C 470.262 5.13884 0.788611 0
M  V30 4836 C 467.947 4.82281 1.40393 0
M  V30 4837 C 469.941 6.37004 0.224783 0
M  V30 4838 C 467.628 6.05351 0.836243 0
M  V30 4839 C 468.626 6.82551 0.24769 0
M  V30 4840 O 468.314 8.03297 -0.311249 0
M  V30 4841 H 468.046 0.60565 0.300274 0
M  V30 4842 H 470.6 2.03411 0.285143 0
M  V30 4843 H 468.83 2.72377 2.74496 0
M  V30 4844 H 470.519 3.11682 2.60018 0
M  V30 4845 H 471.285 4.78938 0.764423 0
M  V30 4846 H 467.164 4.22189 1.85142 0
M  V30 4847 H 470.708 6.97203 -0.235235 0
M  V30 4848 H 466.605 6.39776 0.857733 0
M  V30 4849 H 467.373 8.1825 -0.20237 0
M  V30 4850 N 470.036 -0.519951 1.48776 0
M  V30 4851 C 470.968 -1.63973 1.60142 0
M  V30 4852 C 471.981 -1.55404 0.485117 0
M  V30 4853 O 473.17 -1.61682 0.756391 0
M  V30 4854 C 470.27 -3.02676 1.52449 0
M  V30 4855 C 469.443 -3.36624 2.79291 0
M  V30 4856 C 468.502 -4.54652 2.64912 0
M  V30 4857 O 467.528 -4.57374 3.38818 0
M  V30 4858 N 468.73 -5.53432 1.75195 0
M  V30 4859 H 471.495 -1.54656 2.56713 0
M  V30 4860 H 469.056 -0.707439 1.45626 0
M  V30 4861 H 471.048 -3.79525 1.4051 0
M  V30 4862 H 469.618 -3.06018 0.638125 0
M  V30 4863 H 468.838 -2.48855 3.0572 0
M  V30 4864 H 470.126 -3.56094 3.6342 0
M  V30 4865 H 469.524 -5.54018 1.14371 0
M  V30 4866 H 468.081 -6.29459 1.69189 0
M  V30 4867 N 471.514 -1.37532 -0.769588 0
M  V30 4868 C 472.762 -1.32597 -1.5252 0
M  V30 4869 C 473.083 0.0884294 -1.94799 0
M  V30 4870 O 472.353 1.03289 -1.66458 0
M  V30 4871 H 470.933 -0.487846 -0.565699 0
M  V30 4872 H 473.595 -1.72044 -0.915806 0
M  V30 4873 H 472.691 -1.96643 -2.42359 0
M  V30 4874 N 472.992 0.995999 -1.22138 0
M  V30 4875 C 473.955 2.06711 -0.990109 0
M  V30 4876 C 474.955 1.60744 0.0422978 0
M  V30 4877 O 476.145 1.73095 -0.195895 0
M  V30 4878 C 473.277 3.37288 -0.49491 0
M  V30 4879 H 474.47 2.28661 -1.94047 0
M  V30 4880 H 472.023 1.16711 -1.03963 0
M  V30 4881 H 472.758 3.21022 0.459948 0
M  V30 4882 H 472.543 3.71986 -1.23971 0
M  V30 4883 H 474.033 4.16103 -0.353253 0
M  V30 4884 N 474.47 1.03057 1.19235 0
M  V30 4885 C 475.747 0.642608 1.84743 0
M  V30 4886 C 476.127 -0.878577 1.91948 0
M  V30 4887 O 475.475 -1.77597 1.43776 0
M  V30 4888 C 475.685 1.30665 3.23616 0
M  V30 4889 C 477.033 1.43098 3.9976 0
M  V30 4890 O 478.057 1.26396 3.3302 0
M  V30 4891 O 476.916 1.70223 5.19313 0
M  V30 4892 H 474.01 0.223573 0.796206 0
M  V30 4893 H 476.556 1.12883 1.26711 0
M  V30 4894 H 475.328 2.34544 3.13217 0
M  V30 4895 H 474.951 0.808405 3.89295 0
M  V30 4896 N 475.948 -1.35272 0.808662 0
M  V30 4897 C 477.359 -1.81179 0.450688 0
M  V30 4898 C 477.71 -1.67143 -1.02751 0
M  V30 4899 O 476.835 -1.20325 -1.79864 0
M  V30 4900 C 477.43 -3.28943 0.811275 0
M  V30 4901 C 475.989 -3.72985 0.505871 0
M  V30 4902 C 475.136 -2.57229 1.03578 0
M  V30 4903 H 478.087 -1.2322 1.00012 0
M  V30 4904 H 478.108 -3.80342 0.109588 0
M  V30 4905 H 477.62 -3.39127 1.88718 0
M  V30 4906 H 475.721 -3.68349 -0.561209 0
M  V30 4907 H 475.834 -4.67677 1.03995 0
M  V30 4908 H 474.198 -2.50548 0.458005 0
M  V30 4909 H 474.981 -2.7019 2.11784 0
M  V30 4910 N 477.426 -0.562348 -1.47226 0
M  V30 4911 C 478.675 -0.038041 -2.01664 0
M  V30 4912 C 478.988 1.32199 -1.44162 0
M  V30 4913 O 480.194 1.9365 -1.90294 0
M  V30 4914 C 478.65 -0.0174958 -3.59896 0
M  V30 4915 C 478.258 -1.3746 -4.2639 0
M  V30 4916 C 480.002 0.453934 -4.22066 0
M  V30 4917 C 477.909 -1.31289 -5.76643 0
M  V30 4918 H 476.839 -0.0104511 -0.753928 0
M  V30 4919 H 479.49 -0.710966 -1.69167 0
M  V30 4920 H 477.872 0.721182 -3.89378 0
M  V30 4921 H 479.046 -2.1314 -4.08544 0
M  V30 4922 H 477.361 -1.78438 -3.7623 0
M  V30 4923 H 479.958 0.518584 -5.32179 0
M  V30 4924 H 480.301 1.46706 -3.89594 0
M  V30 4925 H 480.834 -0.230044 -3.97134 0
M  V30 4926 H 477.573 -2.30217 -6.13743 0
M  V30 4927 H 477.093 -0.597973 -5.96812 0
M  V30 4928 H 478.772 -1.01713 -6.38955 0
M  V30 4929 N 478.904 1.54736 -0.299062 0
M  V30 4930 C 479.834 2.26409 0.571085 0
M  V30 4931 C 480.815 1.2629 1.13951 0
M  V30 4932 O 482 1.55059 1.16921 0
M  V30 4933 C 479.13 3.00338 1.74396 0
M  V30 4934 C 478.084 4.07588 1.30599 0
M  V30 4935 C 477.41 4.69222 2.56387 0
M  V30 4936 C 478.71 5.20455 0.438645 0
M  V30 4937 H 480.404 2.99388 -0.0266991 0
M  V30 4938 H 477.95 1.43993 -0.0142812 0
M  V30 4939 H 479.903 3.49198 2.35878 0
M  V30 4940 H 478.627 2.24934 2.36796 0
M  V30 4941 H 477.286 3.59575 0.71424 0
M  V30 4942 H 476.934 3.9046 3.17097 0
M  V30 4943 H 476.634 5.41653 2.27784 0
M  V30 4944 H 478.158 5.20844 3.18675 0
M  V30 4945 H 479.572 5.65221 0.959085 0
M  V30 4946 H 477.969 5.99594 0.246466 0
M  V30 4947 H 479.039 4.8192 -0.536738 0
M  V30 4948 N 480.382 0.0267497 1.57577 0
M  V30 4949 C 481.345 -0.940916 2.08996 0
M  V30 4950 C 482.345 -1.25561 1.00455 0
M  V30 4951 O 483.535 -1.19634 1.26623 0
M  V30 4952 C 480.667 -2.25814 2.55384 0
M  V30 4953 H 481.86 -0.495628 2.95776 0
M  V30 4954 H 479.413 -0.221241 1.54726 0
M  V30 4955 H 480.148 -2.74976 1.71926 0
M  V30 4956 H 479.933 -2.04285 3.34679 0
M  V30 4957 H 481.423 -2.95178 2.95398 0
M  V30 4958 N 481.861 -1.55662 -0.24637 0
M  V30 4959 C 483.089 -1.81575 -0.991876 0
M  V30 4960 C 483.504 -0.602545 -1.78927 0
M  V30 4961 O 482.861 0.428795 -1.77391 0
M  V30 4962 C 482.912 -3.05711 -1.92933 0
M  V30 4963 O 482.633 -4.22348 -1.1642 0
M  V30 4964 C 484.134 -3.44428 -2.79078 0
M  V30 4965 H 481.354 -0.604209 -0.291844 0
M  V30 4966 H 483.898 -2.02722 -0.269095 0
M  V30 4967 H 482.053 -2.86612 -2.60638 0
M  V30 4968 H 482.467 -4.92706 -1.79835 0
M  V30 4969 H 483.941 -4.34388 -3.40603 0
M  V30 4970 H 484.418 -2.65037 -3.50217 0
M  V30 4971 H 485.024 -3.65879 -2.16824 0
M  V30 4972 N 483.339 0.512053 -1.4905 0
M  V30 4973 C 484.302 1.59704 -1.64399 0
M  V30 4974 C 485.302 1.52285 -0.516317 0
M  V30 4975 O 486.492 1.55635 -0.782527 0
M  V30 4976 C 483.624 2.9935 -1.63102 0
M  V30 4977 H 484.817 1.47428 -2.61161 0
M  V30 4978 H 482.37 0.735469 -1.37915 0
M  V30 4979 H 483.105 3.17116 -0.678836 0
M  V30 4980 H 482.89 3.06144 -2.44986 0
M  V30 4981 H 484.38 3.782 -1.77072 0
M  V30 4982 N 484.817 1.37938 0.762283 0
M  V30 4983 C 485.747 1.37176 1.88958 0
M  V30 4984 C 486.728 0.238945 1.68413 0
M  V30 4985 O 487.913 0.440726 1.89133 0
M  V30 4986 C 485.043 1.18742 3.2637 0
M  V30 4987 C 483.997 2.29136 3.61498 0
M  V30 4988 C 483.323 1.95816 4.97554 0
M  V30 4989 C 484.623 3.71363 3.6727 0
M  V30 4990 H 486.317 2.31509 1.89853 0
M  V30 4991 H 483.863 1.11438 0.912005 0
M  V30 4992 H 485.816 1.16837 4.04879 0
M  V30 4993 H 484.54 0.208683 3.25933 0
M  V30 4994 H 483.199 2.30213 2.85303 0
M  V30 4995 H 482.847 0.964475 4.93667 0
M  V30 4996 H 482.547 2.69745 5.22026 0
M  V30 4997 H 484.071 1.95513 5.78452 0
M  V30 4998 H 485.485 3.72364 4.35911 0
M  V30 4999 H 483.882 4.44425 4.03245 0
M  V30 5000 H 484.952 4.04305 2.67704 0
M  V30 5001 N 486.295 -0.989507 1.22664 0
M  V30 5002 C 487.258 -2.06183 1.00106 0
M  V30 5003 C 488.258 -1.60765 -0.0337726 0
M  V30 5004 O 489.448 -1.72989 0.205072 0
M  V30 5005 C 486.58 -3.37021 0.51279 0
M  V30 5006 H 487.773 -2.27629 1.95256 0
M  V30 5007 H 485.326 -1.16158 1.0458 0
M  V30 5008 H 486.061 -3.21261 -0.442917 0
M  V30 5009 H 485.846 -3.71323 1.25942 0
M  V30 5010 H 487.336 -4.1591 0.375315 0
M  V30 5011 N 487.773 -1.03688 -1.18687 0
M  V30 5012 C 488.998 -0.757819 -1.93059 0
M  V30 5013 C 489.423 0.678353 -1.75442 0
M  V30 5014 O 488.781 1.46938 -1.06203 0
M  V30 5015 C 488.829 -1.12423 -3.42627 0
M  V30 5016 O 487.933 -0.247505 -4.11657 0
M  V30 5017 H 487.274 -0.279245 -0.602427 0
M  V30 5018 H 489.804 -1.3857 -1.5053 0
M  V30 5019 H 489.814 -1.08454 -3.93322 0
M  V30 5020 H 488.489 -2.17049 -3.54771 0
M  V30 5021 H 487.066 -0.34649 -3.71287 0
M  V30 5022 N 489.251 1.34841 -0.815825 0
M  V30 5023 C 490.528 1.92908 -0.323416 0
M  V30 5024 C 490.908 1.74479 1.18828 0
M  V30 5025 O 490.256 1.11928 1.99209 0
M  V30 5026 C 490.466 3.40957 -0.744952 0
M  V30 5027 C 491.814 4.18107 -0.739716 0
M  V30 5028 O 492.838 3.49511 -0.68708 0
M  V30 5029 O 491.697 5.40517 -0.806456 0
M  V30 5030 H 488.791 0.822436 -0.0867646 0
M  V30 5031 H 491.337 1.4386 -0.90014 0
M  V30 5032 H 490.109 3.4814 -1.78646 0
M  V30 5033 H 489.732 3.97341 -0.143535 0
M  V30 5034 N 490.729 0.570148 1.46925 0
M  V30 5035 C 492.14 0.1402 1.86173 0
M  V30 5036 C 492.491 -1.29347 1.47526 0
M  V30 5037 O 491.616 -1.97508 0.884292 0
M  V30 5038 C 492.211 0.247661 3.37894 0
M  V30 5039 C 490.77 -0.127332 3.76185 0
M  V30 5040 C 489.917 0.589349 2.70965 0
M  V30 5041 H 492.868 0.779117 1.38259 0
M  V30 5042 H 492.889 -0.530341 3.76786 0
M  V30 5043 H 492.401 1.29121 3.65991 0
M  V30 5044 H 490.502 -1.17149 3.53704 0
M  V30 5045 H 490.615 0.240238 4.78497 0
M  V30 5046 H 488.979 0.0309824 2.54681 0
M  V30 5047 H 489.762 1.6343 3.01903 0
M  V30 5048 N 492.207 -1.54576 0.307264 0
M  V30 5049 C 493.456 -1.99442 -0.300976 0
M  V30 5050 C 493.769 -1.19928 -1.5452 0
M  V30 5051 O 494.975 -1.55092 -2.22842 0
M  V30 5052 C 493.431 -3.55084 -0.586809 0
M  V30 5053 C 493.039 -4.43413 0.639438 0
M  V30 5054 C 494.783 -4.0846 -1.1559 0
M  V30 5055 C 492.69 -5.90499 0.326411 0
M  V30 5056 H 491.62 -0.744986 -0.116238 0
M  V30 5057 H 494.271 -1.787 0.416947 0
M  V30 5058 H 492.653 -3.71749 -1.36449 0
M  V30 5059 H 493.827 -4.38522 1.41545 0
M  V30 5060 H 492.142 -4.00842 1.1276 0
M  V30 5061 H 494.739 -5.15926 -1.40445 0
M  V30 5062 H 495.082 -3.59443 -2.10015 0
M  V30 5063 H 495.615 -3.95362 -0.439778 0
M  V30 5064 H 492.354 -6.43676 1.23939 0
M  V30 5065 H 491.874 -5.98382 -0.412212 0
M  V30 5066 H 493.553 -6.46962 -0.0697393 0
M  V30 5067 N 493.685 -0.035106 -1.57561 0
M  V30 5068 C 495.096 0.502885 -1.798 0
M  V30 5069 C 495.447 1.71892 -0.945921 0
M  V30 5070 O 494.572 2.15822 -0.157991 0
M  V30 5071 C 495.167 0.919097 -3.26095 0
M  V30 5072 C 493.726 1.40216 -3.49308 0
M  V30 5073 C 492.873 0.369709 -2.74824 0
M  V30 5074 H 495.824 -0.261102 -1.56537 0
M  V30 5075 H 495.845 1.78308 -3.36135 0
M  V30 5076 H 495.357 0.0338526 -3.88085 0
M  V30 5077 H 493.458 2.30714 -2.92578 0
M  V30 5078 H 493.571 1.40541 -4.58023 0
M  V30 5079 H 491.935 0.839113 -2.40481 0
M  V30 5080 H 492.718 -0.507173 -3.39533 0
M  V30 5081 N 495.163 1.55791 0.238111 0
M  V30 5082 C 496.111 1.91885 1.31464 0
M  V30 5083 C 497.105 0.798929 1.49377 0
M  V30 5084 O 498.311 0.983626 1.50747 0
M  V30 5085 H 494.686 0.609551 0.440399 0
M  V30 5086 H 496.657 2.81747 0.982925 0
M  V30 5087 C 495.406 2.23763 2.6613 0
M  V30 5088 H 494.729 3.09444 2.53149 0
M  V30 5089 H 496.169 2.52915 3.40309 0
M  V30 5090 C 494.628 1.05699 3.1989 0
M  V30 5091 O 495.158 0.309524 4.00506 0
M  V30 5092 N 493.364 0.845251 2.78036 0
M  V30 5093 H 492.911 1.4548 2.12588 0
M  V30 5094 H 492.869 0.0569973 3.14348 0
M  V30 5095 N 496.642 -0.504142 1.49319 0
M  V30 5096 C 498.053 -1.08572 1.51885 0
M  V30 5097 C 498.404 -1.93842 0.303255 0
M  V30 5098 O 497.529 -2.0828 -0.58724 0
M  V30 5099 C 498.124 -1.97574 2.75227 0
M  V30 5100 C 496.683 -2.509 2.80581 0
M  V30 5101 C 495.83 -1.28447 2.45757 0
M  V30 5102 H 498.781 -0.288194 1.56061 0
M  V30 5103 H 498.802 -2.82219 2.55211 0
M  V30 5104 H 498.314 -1.35486 3.63683 0
M  V30 5105 H 496.415 -3.16636 1.96398 0
M  V30 5106 H 496.528 -2.88268 3.82673 0
M  V30 5107 H 494.892 -1.60868 1.97468 0
M  V30 5108 H 495.675 -0.68072 3.36483 0
M  V30 5109 N 498.12 -1.38341 -0.754957 0
M  V30 5110 C 499.05 -1.38176 -1.88227 0
M  V30 5111 C 500.031 -0.247873 -1.68284 0
M  V30 5112 O 501.216 -0.45075 -1.88896 0
M  V30 5113 C 498.346 -1.20471 -3.25736 0
M  V30 5114 C 497.3 -2.3105 -3.60278 0
M  V30 5115 C 496.626 -1.98452 -4.96509 0
M  V30 5116 C 497.926 -3.73305 -3.65295 0
M  V30 5117 H 499.62 -2.32512 -1.88622 0
M  V30 5118 H 497.166 -1.1192 -0.906082 0
M  V30 5119 H 499.119 -1.18982 -4.04254 0
M  V30 5120 H 497.843 -0.225965 -3.25817 0
M  V30 5121 H 496.502 -2.31723 -2.84078 0
M  V30 5122 H 496.15 -0.990641 -4.93148 0
M  V30 5123 H 495.85 -2.7251 -5.20588 0
M  V30 5124 H 497.374 -1.98578 -5.77407 0
M  V30 5125 H 498.788 -3.7467 -4.3393 0
M  V30 5126 H 497.185 -4.46557 -4.00883 0
M  V30 5127 H 498.255 -4.05719 -2.65556 0
M  V30 5128 N 499.598 0.982988 -1.23187 0
M  V30 5129 C 500.53 2.07729 -0.968572 0
M  V30 5130 C 501.543 1.62702 0.0564821 0
M  V30 5131 O 502.732 1.77603 -0.178733 0
M  V30 5132 C 499.832 3.36071 -0.436974 0
M  V30 5133 C 499.005 4.10081 -1.52159 0
M  V30 5134 C 498.064 5.16701 -0.99532 0
M  V30 5135 O 497.09 5.43727 -1.68373 0
M  V30 5136 N 498.292 5.80226 0.178192 0
M  V30 5137 H 501.057 2.30894 -1.9107 0
M  V30 5138 H 498.618 1.14949 -1.1401 0
M  V30 5139 H 500.61 4.04639 -0.0700051 0
M  V30 5140 H 499.18 3.09893 0.410509 0
M  V30 5141 H 498.4 3.36004 -2.06144 0
M  V30 5142 H 499.688 4.56295 -2.25105 0
M  V30 5143 H 499.086 5.60651 0.754096 0
M  V30 5144 H 497.643 6.49982 0.486449 0
M  V30 5145 N 501.076 1.04316 1.18135 0
M  V30 5146 C 502.023 0.636398 2.21853 0
M  V30 5147 C 502.993 -0.357039 1.62217 0
M  V30 5148 O 504.178 -0.250453 1.89149 0
M  V30 5149 C 501.318 0.00812779 3.45099 0
M  V30 5150 C 500.431 1.04933 4.19062 0
M  V30 5151 C 499.566 0.389313 5.29771 0
M  V30 5152 C 498.605 1.41544 5.9551 0
M  V30 5153 N 497.742 0.78021 6.97751 0
M  V30 5154 H 502.582 1.52536 2.56002 0
M  V30 5155 H 500.119 0.76304 1.25762 0
M  V30 5156 H 502.077 -0.373497 4.15525 0
M  V30 5157 H 500.707 -0.844336 3.11562 0
M  V30 5158 H 499.759 1.54888 3.47439 0
M  V30 5159 H 501.071 1.82862 4.64072 0
M  V30 5160 H 500.225 -0.0463805 6.06682 0
M  V30 5161 H 498.964 -0.422038 4.8587 0
M  V30 5162 H 497.969 1.86124 5.17337 0
M  V30 5163 H 499.194 2.22854 6.41493 0
M  V30 5164 H 497.14 -0.0107899 6.55999 0
M  V30 5165 H 497.057 1.49716 7.41027 0
M  V30 5166 H 498.325 0.368996 7.78626 0
M  V30 5167 N 502.554 -1.34406 0.822964 0
M  V30 5168 C 503.8 -1.98999 0.420847 0
M  V30 5169 C 504.155 -1.64067 -1.00498 0
M  V30 5170 O 503.448 -0.902071 -1.69036 0
M  V30 5171 C 503.642 -3.52981 0.560268 0
M  V30 5172 C 503.471 -4.02873 1.99809 0
M  V30 5173 C 502.241 -4.31463 2.62998 0
M  V30 5174 C 504.439 -4.20241 2.96483 0
M  V30 5175 N 502.421 -4.6739 3.9802 0
M  V30 5176 C 503.792 -4.59348 4.16413 0
M  V30 5177 C 505.847 -4.02489 2.93098 0
M  V30 5178 C 504.55 -4.82559 5.33413 0
M  V30 5179 C 506.576 -4.26866 4.09315 0
M  V30 5180 C 505.938 -4.6626 5.27997 0
M  V30 5181 H 502.037 -0.755432 0.202104 0
M  V30 5182 H 504.621 -1.62815 1.06767 0
M  V30 5183 H 502.792 -3.88359 -0.0566596 0
M  V30 5184 H 504.524 -4.04487 0.131146 0
M  V30 5185 H 501.279 -4.22373 2.14238 0
M  V30 5186 H 501.703 -4.89588 4.67582 0
M  V30 5187 H 506.345 -3.71161 2.02483 0
M  V30 5188 H 504.063 -5.12754 6.24587 0
M  V30 5189 H 507.649 -4.14667 4.08096 0
M  V30 5190 H 506.529 -4.84752 6.16429 0
M  V30 5191 N 504.032 -0.577932 -1.46621 0
M  V30 5192 C 504.942 0.160651 -2.34049 0
M  V30 5193 C 505.958 0.890911 -1.49462 0
M  V30 5194 O 507.134 0.855166 -1.82343 0
M  V30 5195 C 504.199 1.16447 -3.26559 0
M  V30 5196 C 503.26 0.4394 -4.27045 0
M  V30 5197 C 502.493 1.3954 -5.15135 0
M  V30 5198 O 502.716 2.63162 -5.06065 0
M  V30 5199 O 501.65 0.908585 -5.95003 0
M  V30 5200 H 505.476 -0.557057 -2.98547 0
M  V30 5201 H 503.061 -0.338369 -1.45518 0
M  V30 5202 H 504.943 1.7434 -3.83645 0
M  V30 5203 H 503.618 1.86373 -2.64663 0
M  V30 5204 H 502.525 -0.181247 -3.73661 0
M  V30 5205 H 503.858 -0.218799 -4.91713 0
M  V30 5206 N 505.51 1.54411 -0.315457 0
M  V30 5207 C 506.787 1.92562 0.343398 0
M  V30 5208 C 507.167 1.24423 1.70535 0
M  V30 5209 O 506.515 0.385051 2.25232 0
M  V30 5210 C 506.725 3.46168 0.443687 0
M  V30 5211 C 508.073 4.18659 0.707783 0
M  V30 5212 O 509.097 3.52281 0.52693 0
M  V30 5213 O 507.956 5.36198 1.05612 0
M  V30 5214 H 505.05 0.80379 0.194552 0
M  V30 5215 H 507.596 1.65738 -0.364577 0
M  V30 5216 H 506.368 3.8792 -0.513172 0
M  V30 5217 H 505.991 3.79073 1.19956 0
M  V30 5218 N 506.988 0.0434614 1.5754 0
M  V30 5219 C 508.213 -0.645358 1.97104 0
M  V30 5220 C 508.638 -1.64037 0.920521 0
M  V30 5221 O 507.996 -1.80922 -0.11708 0
M  V30 5222 C 508.044 -1.31547 3.35749 0
M  V30 5223 O 507.148 -2.43103 3.33129 0
M  V30 5224 H 506.489 -0.168403 0.64229 0
M  V30 5225 H 509.019 0.109573 2.04306 0
M  V30 5226 H 509.029 -1.66895 3.72304 0
M  V30 5227 H 507.704 -0.586205 4.11748 0
M  V30 5228 H 506.281 -2.0976 3.0831 0
M  V30 5229 N 508.466 -1.55915 -0.229846 0
M  V30 5230 C 509.429 -1.90914 -1.26824 0
M  V30 5231 C 510.429 -0.786999 -1.40225 0
M  V30 5232 O 511.619 -1.05484 -1.38632 0
M  V30 5233 C 508.751 -2.15264 -2.64337 0
M  V30 5234 H 509.944 -2.8378 -0.969998 0
M  V30 5235 H 507.497 -1.49069 -0.4699 0
M  V30 5236 H 508.232 -1.24923 -2.99274 0
M  V30 5237 H 508.017 -2.97005 -2.55989 0
M  V30 5238 H 509.507 -2.43467 -3.39284 0
M  V30 5239 N 509.944 0.496216 -1.49584 0
M  V30 5240 C 510.894 1.59422 -1.62999 0
M  V30 5241 C 511.878 1.53402 -0.485457 0
M  V30 5242 O 513.07 1.60851 -0.738649 0
M  V30 5243 C 510.199 2.98009 -1.70427 0
M  V30 5244 C 509.285 3.09008 -2.90473 0
M  V30 5245 N 509.676 2.89884 -4.14489 0
M  V30 5246 C 507.974 3.40115 -2.8851 0
M  V30 5247 C 508.675 3.0519 -4.95211 0
M  V30 5248 N 507.651 3.3428 -4.2867 0
M  V30 5249 H 511.453 1.43297 -2.56599 0
M  V30 5250 H 508.967 0.702443 -1.46422 0
M  V30 5251 H 510.964 3.76926 -1.78136 0
M  V30 5252 H 509.624 3.152 -0.77967 0
M  V30 5253 H 510.635 2.65963 -4.44392 0
M  V30 5254 H 507.312 3.63452 -2.05448 0
M  V30 5255 H 508.702 2.94856 -6.03746 0
M  V30 5256 N 511.423 1.38739 0.74761 0
M  V30 5257 C 512.37 1.36449 1.86146 0
M  V30 5258 C 513.34 0.226098 1.64554 0
M  V30 5259 O 514.525 0.41926 1.86137 0
M  V30 5260 C 511.665 1.2013 3.23516 0
M  V30 5261 C 510.778 2.43407 3.56899 0
M  V30 5262 C 509.913 2.19773 4.83605 0
M  V30 5263 C 508.952 3.3879 5.09792 0
M  V30 5264 N 508.089 3.14553 6.27695 0
M  V30 5265 H 512.929 2.3167 1.87438 0
M  V30 5266 H 510.466 1.15094 0.916063 0
M  V30 5267 H 512.424 1.08683 4.02795 0
M  V30 5268 H 511.054 0.285453 3.21535 0
M  V30 5269 H 510.106 2.65504 2.72418 0
M  V30 5270 H 511.418 3.32094 3.72176 0
M  V30 5271 H 510.572 2.05496 5.70838 0
M  V30 5272 H 509.311 1.28461 4.70478 0
M  V30 5273 H 508.316 3.53579 4.21025 0
M  V30 5274 H 509.541 4.30986 5.24812 0
M  V30 5275 H 507.487 2.25893 6.1588 0
M  V30 5276 H 507.404 3.96791 6.435 0
M  V30 5277 H 508.672 3.03943 7.17801 0
M  V30 5278 N 512.901 -0.976442 1.23707 0
M  V30 5279 C 514.312 -1.53284 1.06587 0
M  V30 5280 C 514.663 -1.92765 -0.365526 0
M  V30 5281 O 513.788 -1.7645 -1.25277 0
M  V30 5282 C 514.383 -2.78548 1.92864 0
M  V30 5283 C 512.942 -3.30574 1.79994 0
M  V30 5284 C 512.089 -2.03538 1.88328 0
M  V30 5285 H 515.04 -0.795692 1.37311 0
M  V30 5286 H 515.061 -3.5155 1.45577 0
M  V30 5287 H 514.573 -2.49782 2.97037 0
M  V30 5288 H 512.674 -3.64211 0.786202 0
M  V30 5289 H 512.787 -4.00065 2.636 0
M  V30 5290 H 511.151 -2.17853 1.31954 0
M  V30 5291 H 511.934 -1.77149 2.94063 0
M  V30 5292 N 514.379 -1.04941 -1.1758 0
M  V30 5293 C 515.311 -0.606174 -2.21039 0
M  V30 5294 C 516.324 0.328763 -1.59446 0
M  V30 5295 O 517.513 0.121895 -1.78083 0
M  V30 5296 C 514.613 0.133294 -3.38638 0
M  V30 5297 C 513.786 -0.811711 -4.29802 0
M  V30 5298 C 512.845 -0.113958 -5.26077 0
M  V30 5299 O 511.871 -0.747237 -5.64274 0
M  V30 5300 N 513.073 1.14953 -5.69004 0
M  V30 5301 H 515.838 -1.49606 -2.59689 0
M  V30 5302 H 513.399 -0.930997 -1.32454 0
M  V30 5303 H 515.391 0.610144 -4.00074 0
M  V30 5304 H 513.961 0.924816 -2.98607 0
M  V30 5305 H 513.181 -1.46824 -3.65837 0
M  V30 5306 H 514.469 -1.45326 -4.87604 0
M  V30 5307 H 513.867 1.68441 -5.40041 0
M  V30 5308 H 512.424 1.57049 -6.32597 0
M  V30 5309 N 515.857 1.33968 -0.830081 0
M  V30 5310 C 517.082 2.02813 -0.433796 0
M  V30 5311 C 517.507 1.62076 0.954614 0
M  V30 5312 O 516.865 0.808955 1.62252 0
M  V30 5313 C 516.913 3.56348 -0.552115 0
M  V30 5314 O 516.017 4.10202 0.425191 0
M  V30 5315 H 515.358 0.639817 -0.177567 0
M  V30 5316 H 517.888 1.7106 -1.12248 0
M  V30 5317 H 517.898 4.05722 -0.430513 0
M  V30 5318 H 516.573 3.85344 -1.56471 0
M  V30 5319 H 515.15 3.71979 0.261878 0
M  V30 5320 N 517.335 0.585699 1.46312 0
M  V30 5321 C 518.265 -0.133556 2.33118 0
M  V30 5322 C 519.246 -0.880707 1.45525 0
M  V30 5323 O 520.431 -0.855579 1.74337 0
M  V30 5324 C 517.561 -1.14585 3.27853 0
M  V30 5325 C 516.515 -0.513341 4.2491 0
M  V30 5326 C 515.841 -1.63231 5.09175 0
M  V30 5327 C 517.141 0.551413 5.19381 0
M  V30 5328 H 518.835 0.59121 2.93505 0
M  V30 5329 H 516.381 0.285761 1.41136 0
M  V30 5330 H 518.334 -1.65741 3.87438 0
M  V30 5331 H 517.058 -1.90093 2.65579 0
M  V30 5332 H 515.717 -0.0228349 3.66593 0
M  V30 5333 H 515.365 -2.37713 4.43285 0
M  V30 5334 H 515.065 -1.21473 5.74907 0
M  V30 5335 H 516.589 -2.14658 5.71624 0
M  V30 5336 H 518.003 0.124804 5.73164 0
M  V30 5337 H 516.4 0.889486 5.93471 0
M  V30 5338 H 517.47 1.43655 4.63132 0
M  V30 5339 N 518.813 -1.54241 0.323641 0
M  V30 5340 C 520.09 -1.92741 -0.333181 0
M  V30 5341 C 520.47 -1.25326 -1.69872 0
M  V30 5342 O 519.818 -0.396991 -2.25025 0
M  V30 5343 C 520.028 -3.46399 -0.425322 0
M  V30 5344 C 521.376 -4.19029 -0.68557 0
M  V30 5345 O 522.4 -3.52555 -0.50824 0
M  V30 5346 O 521.259 -5.36751 -1.02767 0
M  V30 5347 H 518.353 -0.804811 -0.190286 0
M  V30 5348 H 520.899 -1.65542 0.373361 0
M  V30 5349 H 519.671 -3.87643 0.533737 0
M  V30 5350 H 519.294 -3.79704 -1.17944 0
M  V30 5351 N 520.291 -0.0518155 -1.57515 0
M  V30 5352 C 521.519 0.631395 -1.9703 0
M  V30 5353 C 521.934 1.64341 -0.92938 0
M  V30 5354 O 521.291 1.82296 0.0863266 0
M  V30 5355 C 521.342 1.31774 -3.36627 0
M  V30 5356 O 521.063 0.346247 -4.3673 0
M  V30 5357 C 522.564 2.09065 -3.90905 0
M  V30 5358 H 519.784 0.172576 -0.648428 0
M  V30 5359 H 522.328 -0.118306 -2.04158 0
M  V30 5360 H 520.483 2.01867 -3.30649 0
M  V30 5361 H 520.897 0.836226 -5.17791 0
M  V30 5362 H 522.371 2.52508 -4.9086 0
M  V30 5363 H 522.848 2.93908 -3.26366 0
M  V30 5364 H 523.454 1.43882 -4.00223 0
M  V30 5365 N 521.769 1.56035 0.221574 0
M  V30 5366 C 523.046 1.69837 0.970301 0
M  V30 5367 C 523.426 0.599065 2.02421 0
M  V30 5368 O 522.774 -0.393929 2.25079 0
M  V30 5369 C 522.984 3.11148 1.58076 0
M  V30 5370 C 524.332 3.70555 2.07302 0
M  V30 5371 O 525.356 3.14109 1.6797 0
M  V30 5372 O 524.215 4.69562 2.79596 0
M  V30 5373 H 521.309 0.691727 0.453257 0
M  V30 5374 H 523.855 1.68353 0.213358 0
M  V30 5375 H 522.627 3.82617 0.819759 0
M  V30 5376 H 522.25 3.16749 2.40324 0
M  V30 5377 N 523.247 -0.488276 1.49845 0
M  V30 5378 C 524.524 -1.24959 1.50481 0
M  V30 5379 C 524.904 -2.09735 0.239698 0
M  V30 5380 O 524.252 -2.14865 -0.777524 0
M  V30 5381 C 524.462 -2.0954 2.79095 0
M  V30 5382 C 525.81 -2.68305 3.29086 0
M  V30 5383 O 526.834 -2.19797 2.80299 0
M  V30 5384 O 525.693 -3.56643 4.14087 0
M  V30 5385 H 522.787 -0.566133 0.602845 0
M  V30 5386 H 525.333 -0.501504 1.6212 0
M  V30 5387 H 524.105 -1.46958 3.62656 0
M  V30 5388 H 523.728 -2.91517 2.70377 0
M  V30 5389 N 524.725 -1.39134 -0.740242 0
M  V30 5390 C 526.136 -1.32208 -1.31825 0
M  V30 5391 C 526.487 0.0159919 -1.96193 0
M  V30 5392 O 525.612 0.918111 -1.95958 0
M  V30 5393 C 526.207 -2.39436 -2.39699 0
M  V30 5394 C 524.766 -2.36048 -2.93187 0
M  V30 5395 C 523.913 -2.21599 -1.66701 0
M  V30 5396 H 526.864 -1.49298 -0.538133 0
M  V30 5397 H 526.885 -2.05922 -3.19963 0
M  V30 5398 H 526.397 -3.36811 -1.92821 0
M  V30 5399 H 524.498 -1.42295 -3.44359 0
M  V30 5400 H 524.611 -3.30704 -3.46658 0
M  V30 5401 H 522.975 -1.68681 -1.90837 0
M  V30 5402 H 523.758 -3.20936 -1.21882 0
M  V30 5403 N 526.204 0.969867 -1.24223 0
M  V30 5404 C 527.167 2.04564 -1.03373 0
M  V30 5405 C 528.167 1.60798 0.00819206 0
M  V30 5406 O 529.357 1.72641 -0.232567 0
M  V30 5407 C 526.489 3.36163 -0.566343 0
M  V30 5408 H 527.682 2.24494 -1.98853 0
M  V30 5409 H 525.235 1.1448 -1.06415 0
M  V30 5410 H 525.97 3.21925 0.391751 0
M  V30 5411 H 525.755 3.69273 -1.31834 0
M  V30 5412 H 527.245 4.1526 -0.441435 0
M  V30 5413 N 527.682 1.05563 1.17022 0
M  V30 5414 C 528.91 0.78845 1.91288 0
M  V30 5415 C 529.325 -0.656318 1.77025 0
M  V30 5416 O 528.682 -1.44869 1.10992 0
M  V30 5417 C 528.733 1.16444 3.42232 0
M  V30 5418 O 528.454 2.5525 3.5606 0
M  V30 5419 C 529.955 0.923937 4.33565 0
M  V30 5420 H 527.175 0.286389 0.606813 0
M  V30 5421 H 529.719 1.4073 1.48375 0
M  V30 5422 H 527.874 0.590266 3.82877 0
M  V30 5423 H 528.288 2.70097 4.49609 0
M  V30 5424 H 529.762 1.23672 5.37968 0
M  V30 5425 H 530.239 -0.140688 4.38975 0
M  V30 5426 H 530.845 1.48214 3.98639 0
M  V30 5427 N 529.16 -1.33526 0.837174 0
M  V30 5428 C 530.09 -2.31764 0.284206 0
M  V30 5429 C 531.071 -1.58896 -0.607142 0
M  V30 5430 O 532.256 -1.86798 -0.531047 0
M  V30 5431 C 529.386 -3.43029 -0.542962 0
M  V30 5432 C 528.34 -4.27255 0.252451 0
M  V30 5433 C 527.666 -5.3012 -0.69836 0
M  V30 5434 C 528.966 -5.01229 1.46858 0
M  V30 5435 H 530.66 -2.78262 1.10502 0
M  V30 5436 H 528.206 -1.3378 0.532812 0
M  V30 5437 H 530.159 -4.1078 -0.940096 0
M  V30 5438 H 528.883 -2.95216 -1.39697 0
M  V30 5439 H 527.542 -3.61127 0.631124 0
M  V30 5440 H 527.19 -4.78564 -1.54872 0
M  V30 5441 H 526.89 -5.87353 -0.170274 0
M  V30 5442 H 528.414 -6.00737 -1.09305 0
M  V30 5443 H 529.828 -5.61756 1.14469 0
M  V30 5444 H 528.225 -5.68104 1.93333 0
M  V30 5445 H 529.295 -4.301 2.23924 0
M  V30 5446 N 530.638 -0.59345 -1.46 0
M  V30 5447 C 531.868 -0.0889642 -2.06408 0
M  V30 5448 C 532.276 1.22597 -1.44106 0
M  V30 5449 O 531.619 1.75448 -0.544398 0
M  V30 5450 C 531.681 0.139902 -3.59228 0
M  V30 5451 C 531.345 -1.09107 -4.43784 0
M  V30 5452 C 532.342 -2.00577 -4.79651 0
M  V30 5453 C 530.027 -1.31593 -4.84756 0
M  V30 5454 C 532.021 -3.12873 -5.55328 0
M  V30 5455 C 529.708 -2.44192 -5.60191 0
M  V30 5456 C 530.706 -3.34661 -5.95392 0
M  V30 5457 O 530.394 -4.45302 -6.69299 0
M  V30 5458 H 530.126 -0.0594613 -0.67338 0
M  V30 5459 H 532.68 -0.817 -1.88452 0
M  V30 5460 H 530.91 0.922672 -3.75531 0
M  V30 5461 H 532.599 0.594228 -4.01527 0
M  V30 5462 H 533.365 -1.84425 -4.48567 0
M  V30 5463 H 529.244 -0.620801 -4.56801 0
M  V30 5464 H 532.788 -3.83511 -5.82722 0
M  V30 5465 H 528.685 -2.60303 -5.90688 0
M  V30 5466 H 529.453 -4.43805 -6.87735 0
M  V30 5467 N 532.116 1.54067 -0.331816 0
M  V30 5468 C 533.079 2.23275 0.517768 0
M  V30 5469 C 534.079 1.22897 1.03697 0
M  V30 5470 O 535.269 1.47419 0.928084 0
M  V30 5471 C 532.401 2.94326 1.72004 0
M  V30 5472 H 533.594 2.99773 -0.0873507 0
M  V30 5473 H 531.147 1.56079 -0.0830042 0
M  V30 5474 H 531.882 2.21986 2.36417 0
M  V30 5475 H 531.667 3.67941 1.35507 0
M  V30 5476 H 533.157 3.47031 2.32291 0
M  V30 5477 N 533.594 0.0601682 1.57485 0
M  V30 5478 C 534.84 -0.612501 1.93329 0
M  V30 5479 C 535.173 -1.6996 0.939526 0
M  V30 5480 O 534.448 -1.94472 -0.0330957 0
M  V30 5481 C 534.731 -1.20025 3.39508 0
M  V30 5482 C 534.584 -0.12059 4.49638 0
M  V30 5483 C 535.903 -2.10923 3.86264 0
M  V30 5484 H 533.022 -0.221185 0.703027 0
M  V30 5485 H 535.664 0.123768 1.89596 0
M  V30 5486 H 533.814 -1.82774 3.42821 0
M  V30 5487 H 535.486 0.51185 4.58452 0
M  V30 5488 H 533.729 0.550251 4.30296 0
M  V30 5489 H 534.4 -0.572019 5.49028 0
M  V30 5490 H 536.876 -1.58124 3.84884 0
M  V30 5491 H 535.752 -2.48987 4.8918 0
M  V30 5492 H 536.013 -3.01292 3.23536 0
M  V30 5493 N 535.072 -1.5615 -0.213296 0
M  V30 5494 C 536.318 -1.79812 -0.937849 0
M  V30 5495 C 536.651 -0.631201 -1.83656 0
M  V30 5496 O 535.926 0.369165 -1.90964 0
M  V30 5497 C 536.209 -3.13613 -1.76972 0
M  V30 5498 C 536.062 -4.40766 -0.89695 0
M  V30 5499 C 537.381 -3.43931 -2.7459 0
M  V30 5500 H 534.5 -0.654138 -0.339518 0
M  V30 5501 H 537.142 -1.88877 -0.20623 0
M  V30 5502 H 535.292 -3.06015 -2.39347 0
M  V30 5503 H 536.964 -4.60392 -0.289306 0
M  V30 5504 H 535.207 -4.33326 -0.202756 0
M  V30 5505 H 535.878 -5.30843 -1.51358 0
M  V30 5506 H 538.354 -3.5171 -2.22349 0
M  V30 5507 H 537.23 -4.38706 -3.29891 0
M  V30 5508 H 537.491 -2.6651 -3.52739 0
M  V30 5509 N 536.55 0.480323 -1.50102 0
M  V30 5510 C 537.46 1.60547 -1.71061 0
M  V30 5511 C 538.476 1.63564 -0.593529 0
M  V30 5512 O 539.652 1.81604 -0.870751 0
M  V30 5513 C 536.717 2.96814 -1.79171 0
M  V30 5514 C 535.778 3.04259 -3.02861 0
M  V30 5515 C 535.011 4.34027 -3.10574 0
M  V30 5516 O 535.234 5.24009 -2.25323 0
M  V30 5517 O 534.168 4.46873 -4.03223 0
M  V30 5518 H 537.994 1.45788 -2.6642 0
M  V30 5519 H 535.579 0.658838 -1.34088 0
M  V30 5520 H 537.461 3.77765 -1.86738 0
M  V30 5521 H 536.136 3.11791 -0.869947 0
M  V30 5522 H 535.043 2.22419 -3.008 0
M  V30 5523 H 536.376 2.94216 -3.94586 0
M  V30 5524 N 538.028 1.39524 0.732853 0
M  V30 5525 C 538.976 1.38563 1.86824 0
M  V30 5526 C 539.97 0.268467 1.67259 0
M  V30 5527 O 541.176 0.438613 1.74574 0
M  V30 5528 H 537.551 0.432737 0.615014 0
M  V30 5529 H 539.522 2.34328 1.84751 0
M  V30 5530 C 538.271 1.2481 3.24527 0
M  V30 5531 H 537.594 2.10044 3.40179 0
M  V30 5532 H 539.034 1.28194 4.04156 0
M  V30 5533 C 537.493 -0.0432825 3.36872 0
M  V30 5534 O 538.023 -1.01268 3.88726 0
M  V30 5535 N 536.229 -0.107055 2.90403 0
M  V30 5536 H 535.776 0.682512 2.48394 0
M  V30 5537 H 535.734 -0.970618 2.99042 0
M  V30 5538 N 539.506 -0.963266 1.24736 0
M  V30 5539 C 540.752 -1.70933 1.09131 0
M  V30 5540 C 541.085 -1.90676 -0.368273 0
M  V30 5541 O 540.36 -1.47147 -1.27193 0
M  V30 5542 C 540.643 -3.09744 1.83658 0
M  V30 5543 C 540.496 -2.97465 3.37394 0
M  V30 5544 C 541.815 -4.09483 1.61282 0
M  V30 5545 H 538.934 -0.620398 0.397838 0
M  V30 5546 H 541.576 -1.12028 1.53459 0
M  V30 5547 H 539.726 -3.60031 1.4598 0
M  V30 5548 H 541.398 -2.54571 3.84696 0
M  V30 5549 H 539.641 -2.33576 3.65547 0
M  V30 5550 H 540.312 -3.95822 3.84745 0
M  V30 5551 H 542.788 -3.68073 1.94066 0
M  V30 5552 H 541.664 -5.04666 2.15878 0
M  V30 5553 H 541.925 -4.38639 0.552102 0
M  V30 5554 N 540.985 -1.06182 -1.16461 0
M  V30 5555 C 542.396 -0.802426 -1.68576 0
M  V30 5556 C 542.747 0.67412 -1.84255 0
M  V30 5557 O 541.872 1.52303 -1.5373 0
M  V30 5558 C 542.467 -1.45002 -3.06202 0
M  V30 5559 C 541.026 -1.23843 -3.55443 0
M  V30 5560 C 540.173 -1.52724 -2.31454 0
M  V30 5561 H 543.124 -1.22545 -1.00839 0
M  V30 5562 H 543.145 -0.864731 -3.70544 0
M  V30 5563 H 542.657 -2.52466 -2.94759 0
M  V30 5564 H 540.758 -0.183487 -3.72148 0
M  V30 5565 H 540.871 -1.95036 -4.37604 0
M  V30 5566 H 539.235 -0.947726 -2.36411 0
M  V30 5567 H 540.018 -2.61343 -2.22609 0
M  V30 5568 N 542.463 1.3308 -0.844243 0
M  V30 5569 C 543.874 1.7992 -0.498566 0
M  V30 5570 C 544.225 1.69808 0.982834 0
M  V30 5571 O 543.35 1.25051 1.7661 0
M  V30 5572 C 543.945 3.26677 -0.898204 0
M  V30 5573 C 542.504 3.71513 -0.604583 0
M  V30 5574 C 541.651 2.54393 -1.10362 0
M  V30 5575 H 544.602 1.20526 -1.03244 0
M  V30 5576 H 544.623 3.79918 -0.21039 0
M  V30 5577 H 544.135 3.34004 -1.97643 0
M  V30 5578 H 542.236 3.69708 0.46335 0
M  V30 5579 H 542.349 4.64755 -1.16358 0
M  V30 5580 H 540.713 2.49246 -0.524273 0
M  V30 5581 H 541.496 2.6448 -2.18873 0
M  V30 5582 N 543.941 0.601185 1.45683 0
M  V30 5583 C 544.871 -0.108824 2.33246 0
M  V30 5584 C 545.852 -0.865223 1.46451 0
M  V30 5585 O 547.037 -0.83704 1.75235 0
M  V30 5586 C 544.167 -1.11101 3.2905 0
M  V30 5587 C 543.121 -0.468244 4.25431 0
M  V30 5588 C 542.447 -1.57822 5.10878 0
M  V30 5589 C 543.747 0.606469 5.18767 0
M  V30 5590 H 545.441 0.622306 2.92861 0
M  V30 5591 H 542.987 0.300714 1.40825 0
M  V30 5592 H 544.94 -1.61622 3.89174 0
M  V30 5593 H 543.664 -1.87265 2.67581 0
M  V30 5594 H 542.323 0.0160484 3.66596 0
M  V30 5595 H 541.971 -2.32998 4.45781 0
M  V30 5596 H 541.671 -1.15369 5.76163 0
M  V30 5597 H 543.195 -2.08583 5.73869 0
M  V30 5598 H 544.609 0.185589 5.73 0
M  V30 5599 H 543.006 0.952381 5.92494 0
M  V30 5600 H 544.076 1.48559 4.61582 0
M  V30 5601 N 545.419 -1.53889 0.339982 0
M  V30 5602 C 546.835 -1.59595 -0.0120752 0
M  V30 5603 C 547.035 -1.35605 -1.49042 0
M  V30 5604 O 546.091 -1.14856 -2.24865 0
M  V30 5605 C 547.404 -2.9774 0.420898 0
M  V30 5606 C 548.952 -3.1077 0.37294 0
M  V30 5607 C 549.427 -4.51286 0.781327 0
M  V30 5608 N 550.918 -4.57325 0.735374 0
M  V30 5609 C 551.653 -5.64194 1.02336 0
M  V30 5610 N 551.149 -6.7893 1.37933 0
M  V30 5611 N 552.942 -5.54051 0.947838 0
M  V30 5612 H 545.093 -1.67738 1.30299 0
M  V30 5613 H 547.356 -0.785385 0.530918 0
M  V30 5614 H 547.062 -3.20349 1.45152 0
M  V30 5615 H 546.936 -3.76639 -0.205721 0
M  V30 5616 H 549.323 -2.87886 -0.648505 0
M  V30 5617 H 549.404 -2.33939 1.03472 0
M  V30 5618 H 549.048 -4.74905 1.80077 0
M  V30 5619 H 548.978 -5.26511 0.0970679 0
M  V30 5620 H 551.469 -3.74931 0.472773 0
M  V30 5621 H 551.782 -7.56392 1.58402 0
M  V30 5622 H 550.127 -6.80386 1.41774 0
M  V30 5623 H 553.318 -4.63293 0.669115 0
M  V30 5624 H 553.491 -6.37246 1.17563 0
M  V30 5625 N 546.897 -0.0685191 -1.57451 0
M  V30 5626 C 548.143 0.596247 -1.94465 0
M  V30 5627 C 548.498 1.67417 -0.948117 0
M  V30 5628 O 547.791 1.91576 0.0301056 0
M  V30 5629 C 547.985 1.22051 -3.35914 0
M  V30 5630 C 547.814 0.204586 -4.49234 0
M  V30 5631 C 546.584 -0.20959 -5.04865 0
M  V30 5632 C 548.782 -0.556872 -5.11276 0
M  V30 5633 N 546.764 -1.21656 -6.01725 0
M  V30 5634 C 548.135 -1.41642 -6.03604 0
M  V30 5635 C 550.19 -0.613297 -4.94108 0
M  V30 5636 C 548.893 -2.32737 -6.80607 0
M  V30 5637 C 550.919 -1.51174 -5.71752 0
M  V30 5638 C 550.281 -2.35898 -6.63726 0
M  V30 5639 H 546.38 0.189307 -0.75874 0
M  V30 5640 H 548.964 -0.144899 -1.9416 0
M  V30 5641 H 547.135 1.9316 -3.36963 0
M  V30 5642 H 548.867 1.84548 -3.60172 0
M  V30 5643 H 545.622 0.172871 -4.73284 0
M  V30 5644 H 546.046 -1.71746 -6.54853 0
M  V30 5645 H 550.688 0.0275228 -4.22791 0
M  V30 5646 H 548.406 -2.97856 -7.51204 0
M  V30 5647 H 551.992 -1.5602 -5.6049 0
M  V30 5648 H 550.872 -3.04291 -7.22756 0
M  V30 5649 N 548.375 1.56261 0.205012 0
M  V30 5650 C 549.322 1.93754 1.25411 0
M  V30 5651 C 550.292 0.796826 1.45739 0
M  V30 5652 O 551.477 1.05414 1.59036 0
M  V30 5653 C 548.617 2.27383 2.59598 0
M  V30 5654 C 547.73 3.5447 2.46931 0
M  V30 5655 C 546.865 3.77468 3.73753 0
M  V30 5656 C 545.904 4.98014 3.55877 0
M  V30 5657 N 545.041 5.17316 4.74688 0
M  V30 5658 H 549.881 2.83203 0.92737 0
M  V30 5659 H 547.418 1.40158 0.446574 0
M  V30 5660 H 549.376 2.44895 3.37761 0
M  V30 5661 H 548.006 1.41088 2.90335 0
M  V30 5662 H 547.058 3.45061 1.60116 0
M  V30 5663 H 548.37 4.42789 2.29651 0
M  V30 5664 H 547.524 3.95165 4.60358 0
M  V30 5665 H 546.263 2.87461 3.93976 0
M  V30 5666 H 545.268 4.80249 2.67657 0
M  V30 5667 H 546.493 5.8952 3.37109 0
M  V30 5668 H 544.439 4.30255 4.95194 0
M  V30 5669 H 544.356 5.99796 4.60197 0
M  V30 5670 H 545.624 5.39463 5.62672 0
M  V30 5671 N 549.853 -0.472356 1.50355 0
M  V30 5672 C 550.763 -1.59637 1.7191 0
M  V30 5673 C 551.779 -1.63247 0.602195 0
M  V30 5674 O 552.955 -1.81139 0.880369 0
M  V30 5675 C 550.02 -2.9586 1.80742 0
M  V30 5676 C 549.081 -3.02649 3.04471 0
M  V30 5677 C 548.314 -4.32374 3.12872 0
M  V30 5678 O 548.537 -5.22807 2.28099 0
M  V30 5679 O 547.471 -4.44728 4.05587 0
M  V30 5680 H 551.297 -1.44373 2.67189 0
M  V30 5681 H 548.882 -0.651717 1.34436 0
M  V30 5682 H 550.764 -3.7677 1.88739 0
M  V30 5683 H 549.439 -3.11325 0.88647 0
M  V30 5684 H 548.346 -2.20821 3.01975 0
M  V30 5685 H 549.679 -2.92119 3.9614 0
M  V30 5686 N 551.331 -1.39911 -0.725443 0
M  V30 5687 C 552.578 -1.37654 -1.48518 0
M  V30 5688 C 552.906 0.0243982 -1.94485 0
M  V30 5689 O 552.161 1.00708 -1.67799 0
M  V30 5690 C 552.46 -2.30368 -2.7325 0
M  V30 5691 C 552.126 -3.77817 -2.461 0
M  V30 5692 C 550.788 -4.17991 -2.38405 0
M  V30 5693 C 553.14 -4.71036 -2.23103 0
M  V30 5694 C 550.468 -5.49433 -2.05768 0
M  V30 5695 C 552.82 -6.02766 -1.9198 0
M  V30 5696 C 551.484 -6.41993 -1.82761 0
M  V30 5697 H 550.754 -0.503713 -0.543465 0
M  V30 5698 H 553.401 -1.7249 -0.831822 0
M  V30 5699 H 551.706 -1.88683 -3.43375 0
M  V30 5700 H 553.403 -2.2591 -3.31309 0
M  V30 5701 H 549.993 -3.45982 -2.52972 0
M  V30 5702 H 554.177 -4.40823 -2.2801 0
M  V30 5703 H 549.433 -5.78738 -1.9716 0
M  V30 5704 H 553.607 -6.74519 -1.73197 0
M  V30 5705 H 551.234 -7.43761 -1.57237 0
M  V30 5706 N 552.809 0.956637 -1.25245 0
M  V30 5707 C 554.055 1.70352 -1.10036 0
M  V30 5708 C 554.388 1.90869 0.358156 0
M  V30 5709 O 553.663 1.47819 1.26411 0
M  V30 5710 C 553.946 3.08766 -1.85298 0
M  V30 5711 C 553.799 2.95672 -3.38966 0
M  V30 5712 C 555.118 4.08622 -1.63451 0
M  V30 5713 H 552.237 0.618279 -0.401123 0
M  V30 5714 H 554.879 1.11212 -1.54051 0
M  V30 5715 H 553.029 3.59252 -1.47887 0
M  V30 5716 H 554.701 2.52527 -3.86041 0
M  V30 5717 H 552.944 2.31634 -3.6678 0
M  V30 5718 H 553.615 3.93776 -3.86839 0
M  V30 5719 H 556.091 3.67038 -1.96015 0
M  V30 5720 H 554.967 5.03514 -2.18551 0
M  V30 5721 H 555.228 4.3834 -0.575357 0
M  V30 5722 N 554.287 1.06798 1.15896 0
M  V30 5723 C 555.703 0.792423 1.38538 0
M  V30 5724 C 555.903 -0.60592 1.92174 0
M  V30 5725 O 554.959 -1.36561 2.12385 0
M  V30 5726 C 556.272 1.86157 2.36149 0
M  V30 5727 C 557.82 1.88567 2.49823 0
M  V30 5728 C 558.295 2.9455 3.5072 0
M  V30 5729 N 559.786 2.93616 3.58251 0
M  V30 5730 C 560.521 3.72267 4.36125 0
M  V30 5731 N 560.017 4.60751 5.17379 0
M  V30 5732 N 561.81 3.60637 4.31158 0
M  V30 5733 H 553.961 1.96993 0.794198 0
M  V30 5734 H 556.224 0.853942 0.411688 0
M  V30 5735 H 555.93 2.86603 2.03843 0
M  V30 5736 H 555.804 1.71692 3.3586 0
M  V30 5737 H 558.191 0.887765 2.8143 0
M  V30 5738 H 558.272 2.0711 1.5013 0
M  V30 5739 H 557.916 3.94537 3.19849 0
M  V30 5740 H 557.846 2.73255 4.50155 0
M  V30 5741 H 560.337 2.29472 3.00252 0
M  V30 5742 H 560.65 5.17408 5.74028 0
M  V30 5743 H 558.995 4.64803 5.16704 0
M  V30 5744 H 562.186 2.90892 3.66742 0
M  V30 5745 H 562.359 4.22176 4.91601 0
M  V30 5746 N 555.766 -1.3263 0.851289 0
M  V30 5747 C 557.182 -1.50162 0.5407 0
M  V30 5748 C 557.382 -1.78788 -0.929369 0
M  V30 5749 O 556.438 -1.85545 -1.71258 0
M  V30 5750 C 557.751 -2.64803 1.42478 0
M  V30 5751 C 559.299 -2.78688 1.42485 0
M  V30 5752 C 559.774 -3.96405 2.29407 0
M  V30 5753 N 561.265 -4.0366 2.27184 0
M  V30 5754 C 562 -4.93971 2.9117 0
M  V30 5755 N 561.496 -5.89313 3.64256 0
M  V30 5756 N 563.289 -4.87066 2.80576 0
M  V30 5757 H 555.44 -1.12315 1.80275 0
M  V30 5758 H 557.703 -0.553266 0.769806 0
M  V30 5759 H 557.409 -2.50368 2.46999 0
M  V30 5760 H 557.283 -3.60506 1.10974 0
M  V30 5761 H 559.67 -2.92547 0.387304 0
M  V30 5762 H 559.751 -1.83708 1.78002 0
M  V30 5763 H 559.395 -3.83304 3.33228 0
M  V30 5764 H 559.325 -4.90654 1.91224 0
M  V30 5765 H 561.816 -3.35435 1.74045 0
M  V30 5766 H 562.129 -6.54913 4.10255 0
M  V30 5767 H 560.474 -5.8935 3.68364 0
M  V30 5768 H 563.665 -4.11552 2.23031 0
M  V30 5769 H 563.838 -5.57248 3.30725 0
M  V30 5770 N 557.244 -0.608902 -1.45362 0
M  V30 5771 C 558.174 0.0964526 -2.33301 0
M  V30 5772 C 559.155 0.857444 -1.46908 0
M  V30 5773 O 560.34 0.827735 -1.75676 0
M  V30 5774 C 557.47 1.09354 -3.29635 0
M  V30 5775 C 556.424 0.445676 -4.25673 0
M  V30 5776 C 555.75 1.5511 -5.11708 0
M  V30 5777 C 557.05 -0.633972 -5.18438 0
M  V30 5778 H 558.744 -0.637829 -2.92527 0
M  V30 5779 H 556.29 -0.308178 -1.40664 0
M  V30 5780 H 558.243 1.59556 -3.90025 0
M  V30 5781 H 556.967 1.85843 -2.6857 0
M  V30 5782 H 555.626 -0.0354897 -3.66583 0
M  V30 5783 H 555.274 2.30631 -4.4701 0
M  V30 5784 H 554.974 1.12311 -5.76767 0
M  V30 5785 H 556.498 2.05537 -5.74967 0
M  V30 5786 H 557.912 -0.215974 -5.72893 0
M  V30 5787 H 556.309 -0.983789 -5.91981 0
M  V30 5788 H 557.379 -1.51005 -4.60788 0
M  V30 5789 N 558.722 1.53707 -0.348139 0
M  V30 5790 C 559.97 2.00591 0.246478 0
M  V30 5791 C 560.291 1.23753 1.50699 0
M  V30 5792 O 559.561 0.345964 1.92821 0
M  V30 5793 H 558.141 0.741053 0.0940679 0
M  V30 5794 H 560.803 1.89139 -0.470354 0
M  V30 5795 H 559.899 3.08297 0.485714 0
M  V30 5796 N 560.2 0.0768682 1.57412 0
M  V30 5797 C 561.13 -0.886026 2.16037 0
M  V30 5798 C 562.111 -1.30691 1.08876 0
M  V30 5799 O 563.296 -1.37705 1.36934 0
M  V30 5800 C 560.426 -2.1518 2.72608 0
M  V30 5801 C 559.38 -1.87015 3.8498 0
M  V30 5802 C 558.706 -3.20266 4.28175 0
M  V30 5803 C 560.006 -1.17143 5.08994 0
M  V30 5804 H 561.7 -0.397642 2.96748 0
M  V30 5805 H 559.246 -0.189823 1.42743 0
M  V30 5806 H 561.199 -2.82962 3.12266 0
M  V30 5807 H 559.923 -2.66269 1.89125 0
M  V30 5808 H 558.582 -1.21636 3.45833 0
M  V30 5809 H 558.23 -3.69207 3.41607 0
M  V30 5810 H 557.93 -3.0221 5.03927 0
M  V30 5811 H 559.454 -3.89237 4.70454 0
M  V30 5812 H 560.868 -1.75003 5.45937 0
M  V30 5813 H 559.265 -1.09328 5.90057 0
M  V30 5814 H 560.335 -0.151295 4.84664 0
M  V30 5815 N 561.678 -1.56367 -0.196722 0
M  V30 5816 C 562.903 -1.84991 -0.937714 0
M  V30 5817 C 563.328 -0.660244 -1.76132 0
M  V30 5818 O 562.686 0.390967 -1.77034 0
M  V30 5819 C 562.734 -3.11828 -1.81096 0
M  V30 5820 O 561.838 -2.92266 -2.90955 0
M  V30 5821 H 561.179 -0.609193 -0.264159 0
M  V30 5822 H 563.709 -2.03595 -0.202529 0
M  V30 5823 H 563.719 -3.42579 -2.21594 0
M  V30 5824 H 562.394 -3.98037 -1.2058 0
M  V30 5825 H 560.971 -2.72809 -2.54224 0
M  V30 5826 N 563.156 0.464375 -1.50603 0
M  V30 5827 C 564.433 1.22549 -1.5245 0
M  V30 5828 C 564.813 2.09327 -0.273035 0
M  V30 5829 O 564.161 2.16074 0.743242 0
M  V30 5830 C 564.371 2.05074 -2.82393 0
M  V30 5831 C 565.719 2.63036 -3.33313 0
M  V30 5832 O 566.743 2.1531 -2.8376 0
M  V30 5833 O 565.602 3.5001 -4.19709 0
M  V30 5834 H 562.696 0.556471 -0.611775 0
M  V30 5835 H 565.242 0.475648 -1.62898 0
M  V30 5836 H 564.014 1.41169 -3.64948 0
M  V30 5837 H 563.637 2.87179 -2.7498 0
M  V30 5838 N 564.634 1.40294 0.718013 0
M  V30 5839 C 565.584 1.36847 1.82365 0
M  V30 5840 C 566.568 0.246424 1.59002 0
M  V30 5841 O 567.76 0.485336 1.70216 0
M  V30 5842 C 564.889 1.23105 3.20469 0
M  V30 5843 C 563.975 2.4008 3.49603 0
M  V30 5844 N 564.366 3.65562 3.49568 0
M  V30 5845 C 562.664 2.33407 3.80049 0
M  V30 5846 C 563.365 4.43015 3.76978 0
M  V30 5847 N 562.341 3.72823 3.95606 0
M  V30 5848 H 566.143 2.31811 1.80668 0
M  V30 5849 H 563.657 1.34031 0.91703 0
M  V30 5850 H 565.654 1.18718 3.9964 0
M  V30 5851 H 564.314 0.291056 3.23393 0
M  V30 5852 H 565.325 3.98756 3.30476 0
M  V30 5853 H 562.002 1.47762 3.90478 0
M  V30 5854 H 563.392 5.51859 3.83276 0
M  V30 5855 N 566.112 -0.949982 1.2575 0
M  V30 5856 C 567.022 -2.08109 1.08295 0
M  V30 5857 C 568.038 -1.7399 0.0188181 0
M  V30 5858 O 569.214 -2.00187 0.220724 0
M  V30 5859 C 566.279 -3.39383 0.708534 0
M  V30 5860 C 565.34 -3.8734 1.85111 0
M  V30 5861 C 564.573 -5.12349 1.49447 0
M  V30 5862 O 564.796 -5.6905 0.392212 0
M  V30 5863 O 563.73 -5.5513 2.32624 0
M  V30 5864 H 567.556 -2.25738 2.03165 0
M  V30 5865 H 565.141 -1.06545 1.04731 0
M  V30 5866 H 567.023 -4.18277 0.512061 0
M  V30 5867 H 565.698 -3.23013 -0.210854 0
M  V30 5868 H 564.605 -3.09429 2.10248 0
M  V30 5869 H 565.938 -4.08216 2.74991 0
M  V30 5870 N 567.59 -1.07411 -1.15328 0
M  V30 5871 C 568.839 -0.792643 -1.85473 0
M  V30 5872 C 569.152 0.683789 -1.83259 0
M  V30 5873 O 570.358 1.08005 -2.49093 0
M  V30 5874 C 568.814 -1.36787 -3.32892 0
M  V30 5875 C 568.422 -2.87536 -3.43551 0
M  V30 5876 C 570.166 -1.16444 -4.08217 0
M  V30 5877 C 568.073 -3.38247 -4.85122 0
M  V30 5878 H 567.003 -0.292838 -0.694811 0
M  V30 5879 H 569.654 -1.29426 -1.30082 0
M  V30 5880 H 568.036 -0.793993 -3.87958 0
M  V30 5881 H 569.21 -3.50973 -2.98588 0
M  V30 5882 H 567.525 -3.06676 -2.81672 0
M  V30 5883 H 570.122 -1.51808 -5.12697 0
M  V30 5884 H 570.465 -0.10353 -4.16171 0
M  V30 5885 H 570.998 -1.70472 -3.59422 0
M  V30 5886 H 567.737 -4.43866 -4.82351 0
M  V30 5887 H 567.257 -2.79564 -5.30664 0
M  V30 5888 H 568.936 -3.34238 -5.5398 0
M  V30 5889 N 569.068 1.32177 -0.85831 0
M  V30 5890 C 570.345 1.91781 -0.384624 0
M  V30 5891 C 570.725 1.78171 1.13217 0
M  V30 5892 O 570.073 1.18209 1.95548 0
M  V30 5893 C 570.283 3.38414 -0.853047 0
M  V30 5894 C 571.631 4.15542 -0.872359 0
M  V30 5895 O 572.655 3.47148 -0.797926 0
M  V30 5896 O 571.514 5.37678 -0.978009 0
M  V30 5897 H 568.608 0.819259 -0.112886 0
M  V30 5898 H 571.154 1.40923 -0.945453 0
M  V30 5899 H 569.926 3.4228 -1.89632 0
M  V30 5900 H 569.549 3.96683 -0.269874 0
M  V30 5901 N 570.547 0.616602 1.45037 0
M  V30 5902 C 571.963 0.280994 1.57107 0
M  V30 5903 C 572.163 -1.21627 1.60653 0
M  V30 5904 O 571.219 -1.9997 1.54169 0
M  V30 5905 C 572.532 0.960116 2.8496 0
M  V30 5906 C 574.08 0.936884 2.98649 0
M  V30 5907 C 574.555 1.59619 4.29285 0
M  V30 5908 N 576.046 1.5621 4.36065 0
M  V30 5909 C 576.781 2.04131 5.35834 0
M  V30 5910 N 576.277 2.60177 6.4209 0
M  V30 5911 N 578.07 1.94845 5.27249 0
M  V30 5912 H 570.221 1.58867 1.40979 0
M  V30 5913 H 572.484 0.666024 0.674623 0
M  V30 5914 H 572.19 2.01473 2.88273 0
M  V30 5915 H 572.064 0.488921 3.74018 0
M  V30 5916 H 574.451 -0.109209 2.94898 0
M  V30 5917 H 574.532 1.44643 2.10979 0
M  V30 5918 H 574.176 2.64166 4.33796 0
M  V30 5919 H 574.106 1.06159 5.15789 0
M  V30 5920 H 576.597 1.15276 3.59889 0
M  V30 5921 H 576.91 2.94513 7.1448 0
M  V30 5922 H 575.255 2.64221 6.42816 0
M  V30 5923 H 578.446 1.50792 4.43147 0
M  V30 5924 H 578.619 2.32504 6.04852 0
M  V30 5925 N 572.025 -1.5352 0.356285 0
M  V30 5926 C 572.955 -2.28372 -0.486661 0
M  V30 5927 C 573.936 -1.30432 -1.09185 0
M  V30 5928 O 575.121 -1.59291 -1.11085 0
M  V30 5929 C 572.251 -3.06604 -1.63129 0
M  V30 5930 C 571.205 -4.12154 -1.15381 0
M  V30 5931 C 570.531 -4.78415 -2.38796 0
M  V30 5932 C 571.831 -5.21724 -0.245179 0
M  V30 5933 H 573.525 -2.99083 0.137797 0
M  V30 5934 H 571.071 -1.43841 0.0677134 0
M  V30 5935 H 573.024 -3.57712 -2.22755 0
M  V30 5936 H 571.748 -2.33568 -2.28284 0
M  V30 5937 H 570.407 -3.61978 -0.580294 0
M  V30 5938 H 570.055 -4.01959 -3.02387 0
M  V30 5939 H 569.755 -5.49734 -2.07524 0
M  V30 5940 H 571.279 -5.32313 -2.99125 0
M  V30 5941 H 572.693 -5.68391 -0.748646 0
M  V30 5942 H 571.09 -6.00095 -0.0237608 0
M  V30 5943 H 572.16 -4.79596 0.715229 0
M  V30 5944 N 573.503 -0.0852151 -1.57369 0
M  V30 5945 C 574.413 0.891712 -2.16992 0
M  V30 5946 C 575.429 1.3174 -1.13669 0
M  V30 5947 O 576.605 1.38735 -1.45995 0
M  V30 5948 C 573.67 2.13635 -2.73059 0
M  V30 5949 C 572.731 1.7658 -3.91303 0
M  V30 5950 C 571.964 2.95111 -4.44686 0
M  V30 5951 O 572.187 4.09539 -3.97032 0
M  V30 5952 O 571.121 2.74149 -5.35841 0
M  V30 5953 H 574.947 0.414477 -3.00858 0
M  V30 5954 H 572.532 0.138598 -1.48756 0
M  V30 5955 H 574.414 2.86595 -3.08935 0
M  V30 5956 H 573.089 2.6043 -1.92244 0
M  V30 5957 H 571.996 1.00831 -3.60255 0
M  V30 5958 H 573.329 1.34557 -4.7345 0
M  V30 5959 N 574.981 1.5647 0.188427 0
M  V30 5960 C 575.911 1.98101 1.23606 0
M  V30 5961 C 576.892 0.853961 1.47111 0
M  V30 5962 O 578.077 1.11879 1.58735 0
M  V30 5963 C 575.207 2.32624 2.57882 0
M  V30 5964 C 574.161 3.48129 2.48978 0
M  V30 5965 C 573.487 3.68347 3.87588 0
M  V30 5966 C 574.787 4.82112 2.00911 0
M  V30 5967 H 576.481 2.85864 0.890068 0
M  V30 5968 H 574.027 1.37532 0.426714 0
M  V30 5969 H 575.98 2.60343 3.3136 0
M  V30 5970 H 574.704 1.41751 2.94235 0
M  V30 5971 H 573.363 3.20511 1.77956 0
M  V30 5972 H 573.011 2.74793 4.21305 0
M  V30 5973 H 572.711 4.46055 3.82503 0
M  V30 5974 H 574.235 3.98449 4.62678 0
M  V30 5975 H 575.649 5.08819 2.64151 0
M  V30 5976 H 574.046 5.63337 2.06814 0
M  V30 5977 H 575.116 4.75249 0.96262 0
M  V30 5978 N 576.459 -0.456382 1.50847 0
M  V30 5979 C 577.391 -1.57033 1.66953 0
M  V30 5980 C 578.404 -1.53207 0.550593 0
M  V30 5981 O 579.593 -1.58328 0.824285 0
M  V30 5982 C 576.693 -2.95937 1.65149 0
M  V30 5983 C 575.866 -3.24475 2.93317 0
M  V30 5984 C 574.925 -4.43007 2.83957 0
M  V30 5985 O 573.951 -4.42592 3.57912 0
M  V30 5986 N 575.153 -5.45503 1.9851 0
M  V30 5987 H 577.918 -1.43629 2.63042 0
M  V30 5988 H 575.479 -0.645037 1.48495 0
M  V30 5989 H 577.471 -3.73224 1.56481 0
M  V30 5990 H 576.041 -3.03036 0.767343 0
M  V30 5991 H 575.261 -2.35664 3.16 0
M  V30 5992 H 576.549 -3.4036 3.78196 0
M  V30 5993 H 575.947 -5.48668 1.37766 0
M  V30 5994 H 574.504 -6.21716 1.95735 0
M  V30 5995 N 577.937 -1.40673 -0.710563 0
M  V30 5996 C 578.885 -1.41517 -1.84596 0
M  V30 5997 C 579.879 -0.295043 -1.66811 0
M  V30 5998 O 581.085 -0.466331 -1.73854 0
M  V30 5999 H 577.46 -0.442467 -0.608052 0
M  V30 6000 H 579.431 -2.37238 -1.80999 0
M  V30 6001 C 578.18 -1.29957 -3.225 0
M  V30 6002 H 577.503 -2.15429 -3.36794 0
M  V30 6003 H 578.943 -1.34608 -4.02066 0
M  V30 6004 C 577.402 -0.0103164 -3.36898 0
M  V30 6005 O 577.932 0.950707 -3.90288 0
M  V30 6006 N 576.138 0.0608409 -2.90536 0
M  V30 6007 H 575.685 -0.721943 -2.47277 0
M  V30 6008 H 575.643 0.92292 -3.00549 0
M  V30 6009 N 579.415 0.9433 -1.26252 0
M  V30 6010 C 580.663 1.68592 -1.11451 0
M  V30 6011 C 580.984 1.91957 0.343123 0
M  V30 6012 O 580.254 1.51475 1.24226 0
M  V30 6013 H 578.834 0.624789 -0.409448 0
M  V30 6014 H 581.496 1.13351 -1.58548 0
M  V30 6015 H 580.592 2.66054 -1.63162 0
M  V30 6016 N 580.893 1.08022 1.14757 0
M  V30 6017 C 582.309 0.807072 1.3769 0
M  V30 6018 C 582.509 -0.585504 1.92806 0
M  V30 6019 O 581.565 -1.34301 2.13821 0
M  V30 6020 C 582.878 1.88651 2.34161 0
M  V30 6021 C 584.426 1.91206 2.47809 0
M  V30 6022 C 584.901 2.98253 3.47576 0
M  V30 6023 N 586.392 2.974 3.55117 0
M  V30 6024 C 587.127 3.76872 4.32152 0
M  V30 6025 N 586.623 4.66212 5.12463 0
M  V30 6026 N 588.416 3.6519 4.27309 0
M  V30 6027 H 580.567 1.97824 0.77326 0
M  V30 6028 H 582.83 0.85826 0.402608 0
M  V30 6029 H 582.536 2.88749 2.00791 0
M  V30 6030 H 582.41 1.75244 3.3402 0
M  V30 6031 H 584.797 0.917564 2.80472 0
M  V30 6032 H 584.878 2.08691 1.47925 0
M  V30 6033 H 584.522 3.97907 3.15646 0
M  V30 6034 H 584.452 2.78014 4.47231 0
M  V30 6035 H 586.943 2.32643 2.97801 0
M  V30 6036 H 587.256 5.23468 5.68508 0
M  V30 6037 H 585.601 4.70257 5.11745 0
M  V30 6038 H 588.792 2.94765 3.63636 0
M  V30 6039 H 588.965 4.27366 4.87095 0
M  V30 6040 N 582.371 -1.3172 0.865308 0
M  V30 6041 C 583.611 -1.98675 0.480365 0
M  V30 6042 C 583.975 -1.66929 -0.948621 0
M  V30 6043 O 585.176 -2.27059 -1.43867 0
M  V30 6044 C 583.447 -3.49972 0.724858 0
M  V30 6045 S 585.006 -4.36598 0.439078 0
M  V30 6046 H 581.824 -0.687967 0.179506 0
M  V30 6047 H 584.426 -1.60215 1.12033 0
M  V30 6048 H 583.13 -3.70567 1.76375 0
M  V30 6049 H 582.661 -3.93335 0.0717173 0
M  V30 6050 H 584.676 -4.90792 -0.730564 0
M  V30 6051 N 583.85 -0.624285 -1.44708 0
M  V30 6052 C 584.779 0.0717025 -2.3339 0
M  V30 6053 C 585.76 0.841814 -1.47809 0
M  V30 6054 O 586.946 0.809056 -1.76544 0
M  V30 6055 C 584.076 1.05852 -3.30776 0
M  V30 6056 C 583.029 0.400503 -4.26122 0
M  V30 6057 C 582.356 1.49674 -5.13324 0
M  V30 6058 C 583.656 -0.688924 -5.17737 0
M  V30 6059 H 585.35 -0.668819 -2.91834 0
M  V30 6060 H 582.896 -0.32308 -1.40329 0
M  V30 6061 H 584.849 1.5541 -3.91696 0
M  V30 6062 H 583.572 1.82984 -2.70526 0
M  V30 6063 H 582.231 -0.0743687 -3.66525 0
M  V30 6064 H 581.88 2.25877 -4.49431 0
M  V30 6065 H 581.58 1.06188 -5.77926 0
M  V30 6066 H 583.104 1.99427 -5.77115 0
M  V30 6067 H 584.518 -0.276724 -5.72632 0
M  V30 6068 H 582.915 -1.04652 -5.90904 0
M  V30 6069 H 583.985 -1.55884 -4.5916 0
M  V30 6070 N 585.328 1.53329 -0.364422 0
M  V30 6071 C 586.744 1.59594 -0.0133165 0
M  V30 6072 C 586.944 1.37959 1.46865 0
M  V30 6073 O 586 1.18418 2.2301 0
M  V30 6074 C 587.313 2.97032 -0.468213 0
M  V30 6075 C 588.861 3.10138 -0.422334 0
M  V30 6076 C 589.336 4.49986 -0.853024 0
M  V30 6077 N 590.827 4.56098 -0.808037 0
M  V30 6078 C 591.562 5.62495 -1.11299 0
M  V30 6079 N 591.058 6.7665 -1.48717 0
M  V30 6080 N 592.851 5.52473 -1.03586 0
M  V30 6081 H 585.002 1.65644 -1.32951 0
M  V30 6082 H 587.265 0.77684 -0.543345 0
M  V30 6083 H 586.971 3.18 -1.5023 0
M  V30 6084 H 586.845 3.76918 0.145775 0
M  V30 6085 H 589.232 2.88881 0.602622 0
M  V30 6086 H 589.313 2.32263 -1.0718 0
M  V30 6087 H 588.957 4.7198 -1.87609 0
M  V30 6088 H 588.887 5.26289 -0.180819 0
M  V30 6089 H 591.378 3.74131 -0.532361 0
M  V30 6090 H 591.691 7.53776 -1.70415 0
M  V30 6091 H 590.036 6.78044 -1.52581 0
M  V30 6092 H 593.227 4.6217 -0.742736 0
M  V30 6093 H 593.4 6.35295 -1.27686 0
M  V30 6094 N 586.806 0.0935595 1.57322 0
M  V30 6095 C 587.716 -0.880192 2.17462 0
M  V30 6096 C 588.732 -1.31135 1.14366 0
M  V30 6097 O 589.908 -1.37958 1.46729 0
M  V30 6098 C 586.973 -2.12184 2.74188 0
M  V30 6099 C 586.034 -1.74503 3.92234 0
M  V30 6100 C 585.267 -2.92748 4.46245 0
M  V30 6101 O 585.49 -4.07427 3.99198 0
M  V30 6102 O 584.424 -2.71303 5.37288 0
M  V30 6103 H 588.25 -0.398516 3.01074 0
M  V30 6104 H 585.835 -0.130707 1.48827 0
M  V30 6105 H 587.717 -2.84953 3.10451 0
M  V30 6106 H 586.392 -2.59407 1.93623 0
M  V30 6107 H 585.299 -0.989186 3.60785 0
M  V30 6108 H 586.632 -1.32044 4.74157 0
M  V30 6109 N 588.284 -1.56567 -0.180126 0
M  V30 6110 C 589.247 -1.94852 -1.20686 0
M  V30 6111 C 590.247 -0.831212 -1.3765 0
M  V30 6112 O 591.437 -1.09841 -1.35206 0
M  V30 6113 C 588.569 -2.23565 -2.57355 0
M  V30 6114 H 589.762 -2.86722 -0.879225 0
M  V30 6115 H 587.315 -1.50489 -0.422237 0
M  V30 6116 H 588.05 -1.34381 -2.95148 0
M  V30 6117 H 587.835 -3.04999 -2.46411 0
M  V30 6118 H 589.325 -2.54137 -3.31367 0
M  V30 6119 N 589.762 0.448376 -1.51087 0
M  V30 6120 C 590.694 1.56146 -1.67783 0
M  V30 6121 C 591.707 1.52913 -0.55871 0
M  V30 6122 O 592.896 1.57889 -0.83267 0
M  V30 6123 C 589.996 2.95057 -1.66716 0
M  V30 6124 C 589.169 3.22915 -2.95033 0
M  V30 6125 C 588.228 4.41495 -2.86302 0
M  V30 6126 O 587.254 4.40688 -3.60254 0
M  V30 6127 N 588.456 5.44443 -2.014 0
M  V30 6128 H 591.221 1.42232 -2.638 0
M  V30 6129 H 588.782 0.637153 -1.48835 0
M  V30 6130 H 590.774 3.72388 -1.58458 0
M  V30 6131 H 589.344 3.02624 -0.783403 0
M  V30 6132 H 588.564 2.33985 -3.17245 0
M  V30 6133 H 589.852 3.38349 -3.79996 0
M  V30 6134 H 589.25 5.4793 -1.40674 0
M  V30 6135 H 587.807 6.2067 -1.99029 0
M  V30 6136 N 591.24 1.41047 0.703093 0
M  V30 6137 C 592.47 1.43133 1.48985 0
M  V30 6138 C 592.878 0.0328537 1.89171 0
M  V30 6139 O 592.221 -0.956469 1.56835 0
M  V30 6140 C 592.283 2.26991 2.78775 0
M  V30 6141 C 591.947 3.7525 2.60837 0
M  V30 6142 C 592.944 4.67591 2.27276 0
M  V30 6143 C 590.629 4.19208 2.76712 0
M  V30 6144 C 592.623 6.01877 2.09817 0
M  V30 6145 C 590.31 5.53561 2.5887 0
M  V30 6146 C 591.308 6.4471 2.25472 0
M  V30 6147 O 590.996 7.76584 2.07778 0
M  V30 6148 H 590.728 0.489788 0.465922 0
M  V30 6149 H 593.282 1.85886 0.873822 0
M  V30 6150 H 591.512 1.79038 3.42757 0
M  V30 6151 H 593.201 2.20867 3.40547 0
M  V30 6152 H 593.967 4.34923 2.14633 0
M  V30 6153 H 589.846 3.48572 3.01693 0
M  V30 6154 H 593.39 6.72986 1.83671 0
M  V30 6155 H 589.287 5.85811 2.71102 0
M  V30 6156 H 590.055 7.87649 2.22601 0
M  V30 6157 N 592.718 -0.936591 1.26751 0
M  V30 6158 C 593.943 -1.72288 1.15462 0
M  V30 6159 C 594.368 -1.85915 -0.285887 0
M  V30 6160 O 593.726 -1.35272 -1.20711 0
M  V30 6161 C 593.774 -3.10503 1.83359 0
M  V30 6162 O 592.878 -3.96745 1.1255 0
M  V30 6163 H 592.219 -0.52843 0.402067 0
M  V30 6164 H 594.749 -1.17271 1.67656 0
M  V30 6165 H 594.759 -3.60867 1.90365 0
M  V30 6166 H 593.434 -2.99901 2.88153 0
M  V30 6167 H 592.011 -3.55191 1.13551 0
M  V30 6168 N 594.196 -1.08629 -1.14182 0
M  V30 6169 C 595.129 -0.662329 -2.18377 0
M  V30 6170 C 596.107 0.327054 -1.59277 0
M  V30 6171 O 597.291 0.230376 -1.87087 0
M  V30 6172 C 594.418 0.0254765 -3.3869 0
M  V30 6173 C 593.464 -0.924414 -4.16361 0
M  V30 6174 S 594.297 -2.43226 -4.77076 0
M  V30 6175 C 595.453 -1.75663 -6.00744 0
M  V30 6176 H 595.686 -1.54501 -2.54001 0
M  V30 6177 H 593.219 -0.901484 -1.2535 0
M  V30 6178 H 595.177 0.416032 -4.08386 0
M  V30 6179 H 593.838 0.884689 -3.01384 0
M  V30 6180 H 593.031 -0.390099 -5.02488 0
M  V30 6181 H 592.633 -1.25598 -3.5228 0
M  V30 6182 H 594.925 -1.07589 -6.68903 0
M  V30 6183 H 595.868 -2.59673 -6.58768 0
M  V30 6184 H 596.276 -1.22903 -5.50958 0
M  V30 6185 N 595.674 1.31259 -0.872281 0
M  V30 6186 C 596.604 2.30929 -0.345554 0
M  V30 6187 C 597.585 1.60449 0.5648 0
M  V30 6188 O 598.77 1.8814 0.481335 0
M  V30 6189 C 595.9 3.44348 0.451823 0
M  V30 6190 C 594.854 4.26435 -0.365641 0
M  V30 6191 C 594.18 5.31785 0.557562 0
M  V30 6192 C 595.48 4.97159 -1.60095 0
M  V30 6193 H 597.174 2.75234 -1.17841 0
M  V30 6194 H 594.72 1.3232 -0.568094 0
M  V30 6195 H 596.673 4.13128 0.830854 0
M  V30 6196 H 595.397 2.98816 1.31821 0
M  V30 6197 H 594.056 3.59326 -0.726649 0
M  V30 6198 H 593.704 4.82502 1.4213 0
M  V30 6199 H 593.404 5.87598 0.0144878 0
M  V30 6200 H 594.928 6.03424 0.933387 0
M  V30 6201 H 596.342 5.58523 -1.29323 0
M  V30 6202 H 594.739 5.62779 -2.08327 0
M  V30 6203 H 595.809 4.24012 -2.35249 0
M  V30 6204 N 597.152 0.631951 1.44375 0
M  V30 6205 C 598.115 -0.0628142 2.29114 0
M  V30 6206 C 599.115 -0.771494 1.41084 0
M  V30 6207 O 600.305 -0.615959 1.62947 0
M  V30 6208 C 597.437 -1.09953 3.22681 0
M  V30 6209 H 598.63 0.682509 2.92031 0
M  V30 6210 H 596.183 0.392128 1.51301 0
M  V30 6211 H 596.918 -1.87481 2.64616 0
M  V30 6212 H 596.703 -0.595286 3.87555 0
M  V30 6213 H 598.193 -1.58538 3.86336 0
M  V30 6214 N 598.631 -1.53133 0.372548 0
M  V30 6215 C 599.859 -2.05774 -0.215515 0
M  V30 6216 C 600.274 -1.24555 -1.41886 0
M  V30 6217 O 599.631 -0.287951 -1.80214 0
M  V30 6218 C 599.682 -3.5645 -0.602161 0
M  V30 6219 O 599.403 -4.34591 0.553359 0
M  V30 6220 C 600.904 -4.25374 -1.24787 0
M  V30 6221 H 598.124 -0.670009 -0.0364529 0
M  V30 6222 H 600.668 -1.97434 0.532934 0
M  V30 6223 H 598.823 -3.64918 -1.30052 0
M  V30 6224 H 599.237 -5.23954 0.239336 0
M  V30 6225 H 600.711 -5.32097 -1.46891 0
M  V30 6226 H 601.188 -3.79531 -2.21026 0
M  V30 6227 H 601.794 -4.21177 -0.590752 0
M  V30 6228 N 600.109 -0.101901 -1.5727 0
M  V30 6229 C 601.355 0.554864 -1.95686 0
M  V30 6230 C 601.71 1.65368 -0.983415 0
M  V30 6231 O 601.003 1.91597 -0.0105374 0
M  V30 6232 C 601.197 1.14898 -3.38427 0
M  V30 6233 C 601.026 0.109251 -4.49567 0
M  V30 6234 C 599.796 -0.316633 -5.04307 0
M  V30 6235 C 601.994 -0.665196 -5.0998 0
M  V30 6236 N 599.976 -1.34393 -5.99009 0
M  V30 6237 C 601.347 -1.54413 -6.00464 0
M  V30 6238 C 603.402 -0.717966 -4.92696 0
M  V30 6239 C 602.105 -2.47122 -6.75517 0
M  V30 6240 C 604.131 -1.63268 -5.68417 0
M  V30 6241 C 603.493 -2.49923 -6.58572 0
M  V30 6242 H 599.592 0.17317 -0.762585 0
M  V30 6243 H 602.176 -0.18605 -1.93809 0
M  V30 6244 H 600.347 1.85969 -3.40984 0
M  V30 6245 H 602.079 1.76867 -3.64006 0
M  V30 6246 H 598.834 0.0724419 -4.73545 0
M  V30 6247 H 599.258 -1.85598 -6.51062 0
M  V30 6248 H 603.9 -0.0621637 -4.22754 0
M  V30 6249 H 601.618 -3.13724 -7.44717 0
M  V30 6250 H 605.204 -1.67874 -5.57054 0
M  V30 6251 H 604.084 -3.19553 -7.16139 0
M  V30 6252 N 601.587 1.56661 0.17182 0
M  V30 6253 C 603.003 1.50768 0.52357 0
M  V30 6254 C 603.203 0.806072 1.84675 0
M  V30 6255 O 602.259 0.366233 2.4983 0
M  V30 6256 C 603.572 2.955 0.556793 0
M  V30 6257 C 605.12 3.06303 0.644029 0
M  V30 6258 C 605.595 4.52492 0.708148 0
M  V30 6259 N 607.086 4.56737 0.771051 0
M  V30 6260 C 607.821 5.67196 0.841229 0
M  V30 6261 N 607.317 6.87287 0.872272 0
M  V30 6262 N 609.11 5.55165 0.88021 0
M  V30 6263 H 601.261 2.00679 -0.695817 0
M  V30 6264 H 603.524 0.914219 -0.250814 0
M  V30 6265 H 603.23 3.49986 -0.346774 0
M  V30 6266 H 603.104 3.50119 1.40346 0
M  V30 6267 H 605.491 2.51851 1.53802 0
M  V30 6268 H 605.572 2.5477 -0.229297 0
M  V30 6269 H 605.216 5.07575 -0.181585 0
M  V30 6270 H 605.146 5.01781 1.59761 0
M  V30 6271 H 607.637 3.70274 0.755364 0
M  V30 6272 H 607.95 7.6722 0.92698 0
M  V30 6273 H 606.295 6.89898 0.840557 0
M  V30 6274 H 609.486 4.60263 0.852956 0
M  V30 6275 H 609.659 6.41271 0.931439 0
M  V30 6276 N 603.065 -0.440357 1.51323 0
M  V30 6277 C 604.481 -0.7766 1.39431 0
M  V30 6278 C 604.681 -1.95838 0.474296 0
M  V30 6279 O 603.737 -2.52398 -0.0716692 0
M  V30 6280 C 605.05 -1.05981 2.81405 0
M  V30 6281 C 606.598 -1.16442 2.90534 0
M  V30 6282 C 607.073 -1.48058 4.33408 0
M  V30 6283 N 608.564 -1.54988 4.36501 0
M  V30 6284 C 609.299 -1.81017 5.44078 0
M  V30 6285 N 608.795 -2.04858 6.61819 0
M  V30 6286 N 610.588 -1.82774 5.31554 0
M  V30 6287 H 602.739 0.338006 2.09693 0
M  V30 6288 H 605.002 0.0888072 0.943831 0
M  V30 6289 H 604.708 -0.264173 3.50706 0
M  V30 6290 H 604.582 -1.98822 3.20546 0
M  V30 6291 H 606.969 -1.95068 2.21432 0
M  V30 6292 H 607.05 -0.215088 2.54894 0
M  V30 6293 H 606.694 -0.699605 5.03059 0
M  V30 6294 H 606.624 -2.44192 4.66559 0
M  V30 6295 H 609.115 -1.38479 3.51613 0
M  V30 6296 H 609.428 -2.2408 7.396 0
M  V30 6297 H 607.773 -2.02187 6.6494 0
M  V30 6298 H 610.964 -1.63665 4.38556 0
M  V30 6299 H 611.137 -2.02722 6.15474 0
M  V30 6300 N 604.543 -1.41418 -0.695603 0
M  V30 6301 C 605.959 -1.23887 -1.00619 0
M  V30 6302 C 606.159 -0.128206 -2.01092 0
M  V30 6303 O 605.215 0.507408 -2.47349 0
M  V30 6304 C 606.528 -2.58816 -1.53083 0
M  V30 6305 C 608.076 -2.65998 -1.64967 0
M  V30 6306 C 608.551 -4.01244 -2.20833 0
M  V30 6307 N 610.042 -4.0309 -2.28194 0
M  V30 6308 C 610.777 -5.04539 -2.72448 0
M  V30 6309 N 610.273 -6.16378 -3.16306 0
M  V30 6310 N 612.066 -4.91901 -2.72011 0
M  V30 6311 H 604.217 -2.12379 -0.0300061 0
M  V30 6312 H 606.48 -0.944958 -0.0758797 0
M  V30 6313 H 606.186 -3.40842 -0.867147 0
M  V30 6314 H 606.06 -2.81299 -2.51298 0
M  V30 6315 H 608.447 -1.84331 -2.30448 0
M  V30 6316 H 608.528 -2.47325 -0.652982 0
M  V30 6317 H 608.172 -4.83359 -1.55968 0
M  V30 6318 H 608.102 -4.17257 -3.21254 0
M  V30 6319 H 610.593 -3.22341 -1.97242 0
M  V30 6320 H 610.906 -6.89658 -3.487 0
M  V30 6321 H 609.251 -6.19914 -3.14215 0
M  V30 6322 H 612.442 -4.03613 -2.37095 0
M  V30 6323 H 612.615 -5.71102 -3.06181 0
M  V30 6324 N 606.021 0.929856 -1.27246 0
M  V30 6325 C 607.249 1.71144 -1.16265 0
M  V30 6326 C 607.664 1.867 0.280786 0
M  V30 6327 O 607.021 1.38249 1.19136 0
M  V30 6328 C 607.072 3.11222 -1.83911 0
M  V30 6329 O 606.793 2.96398 -3.22614 0
M  V30 6330 C 608.294 4.05541 -1.79028 0
M  V30 6331 H 605.514 0.535499 -0.404328 0
M  V30 6332 H 608.058 1.16492 -1.68077 0
M  V30 6333 H 606.213 3.6274 -1.36009 0
M  V30 6334 H 606.627 3.8494 -3.56261 0
M  V30 6335 H 608.101 5.01351 -2.30978 0
M  V30 6336 H 608.578 4.32589 -0.759168 0
M  V30 6337 H 609.184 3.59947 -2.26535 0
M  V30 6338 N 607.499 1.09233 1.13605 0
M  V30 6339 C 608.91 0.846839 1.6639 0
M  V30 6340 C 609.261 -0.625031 1.85978 0
M  V30 6341 O 608.386 -1.48173 1.57714 0
M  V30 6342 C 608.981 1.5307 3.0225 0
M  V30 6343 C 607.54 1.33223 3.52035 0
M  V30 6344 C 606.687 1.58806 2.27323 0
M  V30 6345 H 609.638 1.25175 0.975541 0
M  V30 6346 H 609.659 0.96267 3.68121 0
M  V30 6347 H 609.171 2.60192 2.87961 0
M  V30 6348 H 607.272 0.282091 3.71531 0
M  V30 6349 H 607.385 2.0657 4.32279 0
M  V30 6350 H 605.749 1.01007 2.33815 0
M  V30 6351 H 606.532 2.67153 2.15602 0
M  V30 6352 N 608.977 -1.30795 0.87923 0
M  V30 6353 C 610.393 -1.48981 0.57243 0
M  V30 6354 C 610.593 -1.80719 -0.891236 0
M  V30 6355 O 609.649 -1.89136 -1.67283 0
M  V30 6356 C 610.962 -2.61721 1.48063 0
M  V30 6357 C 612.51 -2.75603 1.48365 0
M  V30 6358 C 612.985 -3.91449 2.37763 0
M  V30 6359 N 614.476 -3.98751 2.35695 0
M  V30 6360 C 615.211 -4.87684 3.01583 0
M  V30 6361 N 614.707 -5.81454 3.76674 0
M  V30 6362 N 616.5 -4.81005 2.90844 0
M  V30 6363 H 608.651 -1.08465 1.82617 0
M  V30 6364 H 610.914 -0.536813 0.781368 0
M  V30 6365 H 610.62 -2.45073 2.52254 0
M  V30 6366 H 610.494 -3.58071 1.18596 0
M  V30 6367 H 612.881 -2.9166 0.44927 0
M  V30 6368 H 612.962 -1.79891 1.81859 0
M  V30 6369 H 612.606 -3.76149 3.41283 0
M  V30 6370 H 612.536 -4.86487 2.01589 0
M  V30 6371 H 615.027 -3.31668 1.81121 0
M  V30 6372 H 615.34 -6.46063 4.24054 0
M  V30 6373 H 613.685 -5.81403 3.80782 0
M  V30 6374 H 616.876 -4.06728 2.31711 0
M  V30 6375 H 617.049 -5.50107 3.42471 0
M  V30 6376 N 610.455 -0.639598 -1.44038 0
M  V30 6377 C 611.871 -0.305953 -1.5664 0
M  V30 6378 C 612.071 1.19055 -1.62567 0
M  V30 6379 O 611.127 1.97492 -1.57331 0
M  V30 6380 C 612.44 -1.00533 -2.83397 0
M  V30 6381 C 613.988 -0.984278 -2.97121 0
M  V30 6382 C 614.463 -1.66428 -4.26691 0
M  V30 6383 N 615.954 -1.63127 -4.33525 0
M  V30 6384 C 616.689 -2.12629 -5.32519 0
M  V30 6385 N 616.185 -2.70359 -6.3787 0
M  V30 6386 N 617.978 -2.03208 -5.24083 0
M  V30 6387 H 610.129 -1.6109 -1.38434 0
M  V30 6388 H 612.392 -0.676672 -0.663942 0
M  V30 6389 H 612.098 -2.06034 -2.85032 0
M  V30 6390 H 611.972 -0.548362 -3.73193 0
M  V30 6391 H 614.359 0.0622792 -2.95034 0
M  V30 6392 H 614.44 -1.47981 -2.08651 0
M  V30 6393 H 614.084 -2.71034 -4.29538 0
M  V30 6394 H 614.014 -1.14351 -5.14034 0
M  V30 6395 H 616.505 -1.20987 -3.58009 0
M  V30 6396 H 616.818 -3.05842 -7.09704 0
M  V30 6397 H 615.163 -2.74414 -6.38531 0
M  V30 6398 H 618.354 -1.57823 -4.40692 0
M  V30 6399 H 618.527 -2.42097 -6.01077 0
M  V30 6400 N 611.933 1.52934 -0.380664 0
M  V30 6401 C 612.843 2.29921 0.466192 0
M  V30 6402 C 613.859 1.36488 1.07922 0
M  V30 6403 O 615.035 1.69553 1.0869 0
M  V30 6404 C 612.1 3.08468 1.58266 0
M  V30 6405 C 611.161 4.17595 0.995627 0
M  V30 6406 C 610.394 4.92387 2.05889 0
M  V30 6407 O 610.617 4.67184 3.27254 0
M  V30 6408 O 609.551 5.77949 1.68102 0
M  V30 6409 H 613.377 3.03274 -0.160735 0
M  V30 6410 H 610.962 1.48698 -0.144617 0
M  V30 6411 H 612.844 3.57469 2.23145 0
M  V30 6412 H 611.519 2.37937 2.19471 0
M  V30 6413 H 610.426 3.72811 0.310332 0
M  V30 6414 H 611.759 4.90336 0.427918 0
M  V30 6415 N 613.412 0.11024 1.57214 0
M  V30 6416 C 614.375 -0.828808 2.1369 0
M  V30 6417 C 615.375 -1.20059 1.06969 0
M  V30 6418 O 616.565 -1.12754 1.32786 0
M  V30 6419 C 613.697 -2.11959 2.66994 0
M  V30 6420 H 614.89 -0.338146 2.97988 0
M  V30 6421 H 612.443 -0.138913 1.55681 0
M  V30 6422 H 613.178 -2.65476 1.8626 0
M  V30 6423 H 612.963 -1.86258 3.45037 0
M  V30 6424 H 614.453 -2.79105 3.10629 0
M  V30 6425 N 614.89 -1.56749 -0.16351 0
M  V30 6426 C 616.118 -1.86577 -0.894233 0
M  V30 6427 C 616.533 -0.696543 -1.75481 0
M  V30 6428 O 615.89 0.334161 -1.79415 0
M  V30 6429 C 615.941 -3.15508 -1.76456 0
M  V30 6430 O 615.662 -4.27926 -0.938685 0
M  V30 6431 C 617.163 -3.58737 -2.60428 0
M  V30 6432 H 614.383 -0.618829 -0.259405 0
M  V30 6433 H 616.927 -2.03863 -0.161259 0
M  V30 6434 H 615.082 -3.00025 -2.45079 0
M  V30 6435 H 615.496 -5.01546 -1.53465 0
M  V30 6436 H 616.97 -4.51832 -3.17099 0
M  V30 6437 H 617.447 -2.83229 -3.35675 0
M  V30 6438 H 618.053 -3.76858 -1.97125 0
M  V30 6439 N 616.368 0.432326 -1.51554 0
M  V30 6440 C 617.298 1.53242 -1.76179 0
M  V30 6441 C 618.279 1.58717 -0.611801 0
M  V30 6442 O 619.464 1.74364 -0.855033 0
M  V30 6443 C 616.594 2.91278 -1.89141 0
M  V30 6444 C 615.548 3.00663 -3.04608 0
M  V30 6445 C 614.874 4.40728 -3.02759 0
M  V30 6446 C 616.174 2.74281 -4.44485 0
M  V30 6447 H 617.868 1.32886 -2.68294 0
M  V30 6448 H 615.414 0.637841 -1.29103 0
M  V30 6449 H 617.367 3.68203 -2.04951 0
M  V30 6450 H 616.091 3.12877 -0.936785 0
M  V30 6451 H 614.75 2.26179 -2.88511 0
M  V30 6452 H 614.398 4.59301 -2.05065 0
M  V30 6453 H 614.098 4.47936 -3.80299 0
M  V30 6454 H 615.622 5.19619 -3.20669 0
M  V30 6455 H 617.036 3.40936 -4.60907 0
M  V30 6456 H 615.433 2.92893 -5.23769 0
M  V30 6457 H 616.503 1.69856 -4.54177 0
M  V30 6458 N 617.846 1.41785 0.688094 0
M  V30 6459 C 618.756 1.46596 1.83158 0
M  V30 6460 C 619.772 0.355862 1.70322 0
M  V30 6461 O 620.948 0.604737 1.92106 0
M  V30 6462 C 618.013 1.35322 3.192 0
M  V30 6463 C 617.074 2.56711 3.4409 0
M  V30 6464 C 616.307 2.45965 4.73642 0
M  V30 6465 O 616.53 1.48827 5.50642 0
M  V30 6466 O 615.464 3.35859 4.99482 0
M  V30 6467 H 619.29 2.43083 1.82056 0
M  V30 6468 H 616.875 1.23404 0.842126 0
M  V30 6469 H 618.757 1.31347 4.00407 0
M  V30 6470 H 617.432 0.419536 3.2097 0
M  V30 6471 H 616.339 2.66262 2.62784 0
M  V30 6472 H 617.672 3.48933 3.47141 0
M  V30 6473 N 619.324 -0.923095 1.27737 0
M  V30 6474 C 620.254 -2.04124 1.13383 0
M  V30 6475 C 621.235 -1.70066 0.0340658 0
M  V30 6476 O 622.42 -1.93068 0.209383 0
M  V30 6477 C 619.55 -3.3831 0.785097 0
M  V30 6478 C 618.504 -3.86496 1.8386 0
M  V30 6479 C 617.83 -5.1754 1.34373 0
M  V30 6480 C 619.13 -4.09381 3.24353 0
M  V30 6481 H 620.824 -2.1639 2.06919 0
M  V30 6482 H 618.37 -1.03976 0.996243 0
M  V30 6483 H 620.323 -4.16016 0.671485 0
M  V30 6484 H 619.047 -3.2607 -0.185969 0
M  V30 6485 H 617.706 -3.10987 1.9412 0
M  V30 6486 H 617.354 -5.01696 0.361989 0
M  V30 6487 H 617.054 -5.50751 2.04811 0
M  V30 6488 H 618.578 -5.97811 1.24315 0
M  V30 6489 H 619.992 -4.77641 3.17067 0
M  V30 6490 H 618.389 -4.53906 3.92542 0
M  V30 6491 H 619.459 -3.14515 3.69064 0
M  V30 6492 N 620.802 -1.09834 -1.13024 0
M  V30 6493 C 621.732 -0.763451 -2.20666 0
M  V30 6494 C 622.713 0.260778 -1.68089 0
M  V30 6495 O 623.898 0.127915 -1.93778 0
M  V30 6496 C 621.028 -0.187744 -3.46792 0
M  V30 6497 C 619.982 -1.14196 -4.12484 0
M  V30 6498 C 619.308 -0.427755 -5.32986 0
M  V30 6499 C 620.608 -2.48607 -4.59338 0
M  V30 6500 H 622.302 -1.66347 -2.48936 0
M  V30 6501 H 619.848 -0.801261 -1.19649 0
M  V30 6502 H 621.801 0.0586375 -4.21359 0
M  V30 6503 H 620.525 0.747485 -3.17931 0
M  V30 6504 H 619.184 -1.37369 -3.3989 0
M  V30 6505 H 618.832 0.511747 -5.0039 0
M  V30 6506 H 618.532 -1.06403 -5.77886 0
M  V30 6507 H 620.056 -0.189772 -6.10305 0
M  V30 6508 H 621.47 -2.29618 -5.25308 0
M  V30 6509 H 619.867 -3.08062 -5.14993 0
M  V30 6510 H 620.937 -3.09062 -3.73642 0
M  V30 6511 N 622.28 1.30327 -0.886154 0
M  V30 6512 C 623.528 1.9571 -0.504195 0
M  V30 6513 C 623.849 1.70294 0.950003 0
M  V30 6514 O 623.119 1.02718 1.66811 0
M  V30 6515 H 621.699 0.72412 -0.183465 0
M  V30 6516 H 624.361 1.58835 -1.12949 0
M  V30 6517 H 623.457 3.04704 -0.675431 0
M  V30 6518 N 623.758 0.647228 1.43697 0
M  V30 6519 C 625.174 0.314256 1.56476 0
M  V30 6520 C 625.374 -1.18191 1.63196 0
M  V30 6521 O 624.43 -1.96655 1.58376 0
M  V30 6522 C 625.743 1.02034 2.82859 0
M  V30 6523 C 627.291 1.00002 2.96595 0
M  V30 6524 C 627.766 1.68689 4.25803 0
M  V30 6525 N 629.257 1.65424 4.32654 0
M  V30 6526 C 629.992 2.1545 5.31384 0
M  V30 6527 N 629.488 2.73738 6.36427 0
M  V30 6528 N 631.281 2.05985 5.22998 0
M  V30 6529 H 623.432 1.61821 1.37578 0
M  V30 6530 H 625.695 0.680184 0.660344 0
M  V30 6531 H 625.401 2.07542 2.83935 0
M  V30 6532 H 625.275 0.568146 3.72897 0
M  V30 6533 H 627.662 -0.0466319 2.95063 0
M  V30 6534 H 627.743 1.49086 2.07863 0
M  V30 6535 H 627.387 2.73308 4.28095 0
M  V30 6536 H 627.317 1.17076 5.13421 0
M  V30 6537 H 629.808 1.22884 3.57363 0
M  V30 6538 H 630.121 3.09602 7.08072 0
M  V30 6539 H 628.466 2.77796 6.37067 0
M  V30 6540 H 631.657 1.60157 4.39849 0
M  V30 6541 H 631.83 2.45281 5.99784 0
M  V30 6542 N 625.236 -1.5273 0.388769 0
M  V30 6543 C 626.482 -2.01871 -0.193877 0
M  V30 6544 C 626.815 -1.27475 -1.46505 0
M  V30 6545 O 626.09 -0.375063 -1.90849 0
M  V30 6546 C 626.373 -3.5712 -0.462336 0
M  V30 6547 C 626.226 -4.42186 0.824091 0
M  V30 6548 C 627.545 -4.21881 -1.25319 0
M  V30 6549 H 624.664 -0.733764 -0.0689899 0
M  V30 6550 H 627.306 -1.82796 0.518231 0
M  V30 6551 H 625.456 -3.73504 -1.06896 0
M  V30 6552 H 627.128 -4.37554 1.46096 0
M  V30 6553 H 625.371 -4.09219 1.43952 0
M  V30 6554 H 626.042 -5.48828 0.590905 0
M  V30 6555 H 628.518 -4.0947 -0.73981 0
M  V30 6556 H 627.394 -5.30487 -1.40977 0
M  V30 6557 H 627.655 -3.79478 -2.26824 0
M  V30 6558 N 626.714 -0.118576 -1.57153 0
M  V30 6559 C 627.644 0.828436 -2.1831 0
M  V30 6560 C 628.625 1.27758 -1.12303 0
M  V30 6561 O 629.81 1.34026 -1.40537 0
M  V30 6562 C 626.94 2.07876 -2.78217 0
M  V30 6563 C 625.894 1.76742 -3.89803 0
M  V30 6564 C 625.22 3.08801 -4.36516 0
M  V30 6565 C 626.52 1.03606 -5.11921 0
M  V30 6566 H 628.214 0.318824 -2.97698 0
M  V30 6567 H 625.76 0.151911 -1.43196 0
M  V30 6568 H 627.713 2.74584 -3.19659 0
M  V30 6569 H 626.437 2.61161 -1.96118 0
M  V30 6570 H 625.096 1.12424 -3.48936 0
M  V30 6571 H 624.744 3.6002 -3.51276 0
M  V30 6572 H 624.444 2.88743 -5.11763 0
M  V30 6573 H 625.968 3.76627 -4.80608 0
M  V30 6574 H 627.382 1.60467 -5.50385 0
M  V30 6575 H 625.779 0.936454 -5.92748 0
M  V30 6576 H 626.849 0.0227421 -4.84895 0
M  V30 6577 N 628.193 1.56834 0.155195 0
M  V30 6578 C 629.609 1.51315 0.50755 0
M  V30 6579 C 629.809 0.825614 1.83809 0
M  V30 6580 O 628.865 0.39271 2.49427 0
M  V30 6581 C 630.178 2.96074 0.52542 0
M  V30 6582 C 631.726 3.06968 0.611505 0
M  V30 6583 C 632.201 4.53218 0.660115 0
M  V30 6584 N 633.692 4.5753 0.722564 0
M  V30 6585 C 634.427 5.68056 0.781023 0
M  V30 6586 N 633.923 6.88173 0.799327 0
M  V30 6587 N 635.716 5.56068 0.821278 0
M  V30 6588 H 627.867 1.9993 -0.717063 0
M  V30 6589 H 630.13 0.911507 -0.260496 0
M  V30 6590 H 629.836 3.49599 -0.383875 0
M  V30 6591 H 629.71 3.51587 1.36624 0
M  V30 6592 H 632.097 2.53468 1.51122 0
M  V30 6593 H 632.178 2.54513 -0.256306 0
M  V30 6594 H 631.822 5.07354 -0.23541 0
M  V30 6595 H 631.752 5.03447 1.5443 0
M  V30 6596 H 634.243 3.71054 0.716049 0
M  V30 6597 H 634.556 7.6816 0.845553 0
M  V30 6598 H 632.901 6.90751 0.767337 0
M  V30 6599 H 636.092 4.61142 0.804091 0
M  V30 6600 H 636.265 6.42223 0.863372 0
M  V30 6601 N 629.671 -0.424282 1.51781 0
M  V30 6602 C 630.948 -1.18464 1.55646 0
M  V30 6603 C 631.328 -2.08529 0.328438 0
M  V30 6604 O 630.676 -2.17969 -0.685693 0
M  V30 6605 C 630.886 -1.97514 2.87731 0
M  V30 6606 C 632.234 -2.54106 3.40169 0
M  V30 6607 O 633.258 -2.07711 2.89369 0
M  V30 6608 O 632.117 -3.38759 4.28841 0
M  V30 6609 H 629.211 -0.540055 0.626314 0
M  V30 6610 H 631.757 -0.432291 1.64102 0
M  V30 6611 H 630.529 -1.31444 3.68562 0
M  V30 6612 H 630.152 -2.79787 2.82498 0
M  V30 6613 N 631.149 -1.42148 -0.680565 0
M  V30 6614 C 632.082 -1.39602 -1.80517 0
M  V30 6615 C 633.06 -0.261098 -1.6049 0
M  V30 6616 O 634.244 -0.450404 -1.8304 0
M  V30 6617 C 631.371 -1.18134 -3.1743 0
M  V30 6618 C 630.417 -2.34543 -3.56219 0
M  V30 6619 S 631.25 -3.97063 -3.59306 0
M  V30 6620 C 632.406 -3.77926 -4.98921 0
M  V30 6621 H 632.639 -2.3477 -1.82402 0
M  V30 6622 H 630.172 -1.28851 -0.850691 0
M  V30 6623 H 632.13 -1.06434 -3.96462 0
M  V30 6624 H 630.791 -0.245611 -3.13138 0
M  V30 6625 H 629.984 -2.15255 -4.55721 0
M  V30 6626 H 629.586 -2.42728 -2.84533 0
M  V30 6627 H 631.878 -3.3856 -5.86842 0
M  V30 6628 H 632.821 -4.77084 -5.23256 0
M  V30 6629 H 633.229 -3.10904 -4.71167 0
M  V30 6630 N 632.627 0.916307 -1.28225 0
M  V30 6631 C 633.904 1.64429 -1.05936 0
M  V30 6632 C 634.284 2.07234 0.402139 0
M  V30 6633 O 633.632 1.81535 1.3877 0
M  V30 6634 C 633.842 2.83773 -2.03159 0
M  V30 6635 C 635.19 3.54852 -2.33164 0
M  V30 6636 O 636.214 2.93918 -2.01223 0
M  V30 6637 O 635.073 4.64663 -2.87664 0
M  V30 6638 H 632.167 0.721221 -0.404683 0
M  V30 6639 H 634.713 0.965838 -1.39534 0
M  V30 6640 H 633.485 2.49217 -3.01673 0
M  V30 6641 H 633.108 3.59333 -1.70192 0
M  V30 6642 N 634.105 1.10431 1.1244 0
M  V30 6643 C 635.035 0.775143 2.20258 0
M  V30 6644 C 636.016 -0.25186 1.68225 0
M  V30 6645 O 637.201 -0.117637 1.93843 0
M  V30 6646 C 634.331 0.206133 3.46688 0
M  V30 6647 C 633.285 1.16382 4.11873 0
M  V30 6648 C 632.611 0.456014 5.32752 0
M  V30 6649 C 633.911 2.5104 4.58013 0
M  V30 6650 H 635.605 1.67665 2.4805 0
M  V30 6651 H 633.151 0.807595 1.19222 0
M  V30 6652 H 635.104 -0.036291 4.21384 0
M  V30 6653 H 633.828 -0.730614 3.18323 0
M  V30 6654 H 632.487 1.39169 3.39157 0
M  V30 6655 H 632.135 -0.485203 5.00654 0
M  V30 6656 H 631.835 1.09466 5.77314 0
M  V30 6657 H 633.359 0.222135 6.10196 0
M  V30 6658 H 634.773 2.32401 5.24083 0
M  V30 6659 H 633.17 3.10789 5.13352 0
M  V30 6660 H 634.24 3.11039 3.71998 0
M  V30 6661 N 635.583 -1.29855 0.893053 0
M  V30 6662 C 636.513 -2.3035 0.382249 0
M  V30 6663 C 637.494 -1.61328 -0.539203 0
M  V30 6664 O 638.679 -1.88882 -0.451342 0
M  V30 6665 C 635.809 -3.45024 -0.396983 0
M  V30 6666 C 634.763 -4.258 0.433437 0
M  V30 6667 C 634.089 -5.32605 -0.472889 0
M  V30 6668 C 635.389 -4.94549 1.67984 0
M  V30 6669 H 637.083 -2.73325 1.22205 0
M  V30 6670 H 634.629 -1.314 0.589073 0
M  V30 6671 H 636.582 -4.14398 -0.765024 0
M  V30 6672 H 635.306 -3.00875 -1.2705 0
M  V30 6673 H 633.965 -3.58125 0.783723 0
M  V30 6674 H 633.613 -4.84702 -1.34435 0
M  V30 6675 H 633.313 -5.87547 0.0789958 0
M  V30 6676 H 634.837 -6.04832 -0.837269 0
M  V30 6677 H 636.251 -5.56395 1.38192 0
M  V30 6678 H 634.648 -5.59393 2.17254 0
M  V30 6679 H 635.718 -4.20215 2.41965 0
M  V30 6680 N 637.061 -0.65484 -1.43351 0
M  V30 6681 C 638.309 -0.168559 -2.01396 0
M  V30 6682 C 638.63 1.22235 -1.51933 0
M  V30 6683 O 637.9 1.81685 -0.732627 0
M  V30 6684 H 636.48 -0.0593244 -0.744641 0
M  V30 6685 H 639.142 -0.846871 -1.75539 0
M  V30 6686 H 638.238 -0.154428 -3.11718 0
M  V30 6687 N 638.539 1.52521 -0.396863 0
M  V30 6688 C 639.779 2.03583 0.182578 0
M  V30 6689 C 640.143 1.2766 1.43412 0
M  V30 6690 O 641.344 1.68884 2.09121 0
M  V30 6691 C 639.615 3.54724 0.436519 0
M  V30 6692 S 641.174 4.27598 0.985163 0
M  V30 6693 H 637.992 0.709186 0.0507529 0
M  V30 6694 H 640.594 1.87693 -0.546955 0
M  V30 6695 H 639.298 4.07567 -0.481343 0
M  V30 6696 H 638.829 3.74834 1.19427 0
M  V30 6697 H 640.844 4.41393 2.26686 0
M  V30 6698 N 640.017 0.126909 1.57088 0
M  V30 6699 C 640.947 -0.816847 2.18746 0
M  V30 6700 C 641.928 -1.27161 1.12979 0
M  V30 6701 O 643.113 -1.33279 1.41246 0
M  V30 6702 C 640.243 -2.06398 2.79315 0
M  V30 6703 C 639.197 -1.74673 3.90735 0
M  V30 6704 C 638.523 -3.06482 4.38147 0
M  V30 6705 C 639.823 -1.0089 5.12463 0
M  V30 6706 H 641.517 -0.303032 2.97863 0
M  V30 6707 H 639.063 -0.144314 1.43275 0
M  V30 6708 H 641.016 -2.72885 3.2111 0
M  V30 6709 H 639.74 -2.60118 1.975 0
M  V30 6710 H 638.399 -1.10572 3.49527 0
M  V30 6711 H 638.047 -3.58152 3.5318 0
M  V30 6712 H 637.747 -2.86025 5.13287 0
M  V30 6713 H 639.271 -3.74073 4.82599 0
M  V30 6714 H 640.685 -1.57546 5.51228 0
M  V30 6715 H 639.082 -0.905006 5.93237 0
M  V30 6716 H 640.152 0.00297335 4.849 0
M  V30 6717 N 641.495 -1.56914 -0.146875 0
M  V30 6718 C 642.405 -2.0154 -1.20079 0
M  V30 6719 C 643.421 -0.930838 -1.47008 0
M  V30 6720 O 644.597 -1.24032 -1.58676 0
M  V30 6721 C 641.662 -2.38715 -2.51428 0
M  V30 6722 C 640.723 -3.6112 -2.32145 0
M  V30 6723 C 639.956 -3.96512 -3.57231 0
M  V30 6724 O 640.179 -3.32566 -4.63418 0
M  V30 6725 O 639.113 -4.89758 -3.49887 0
M  V30 6726 H 642.939 -2.91506 -0.851924 0
M  V30 6727 H 640.524 -1.45106 -0.355607 0
M  V30 6728 H 642.406 -2.63485 -3.28867 0
M  V30 6729 H 641.081 -1.51903 -2.85845 0
M  V30 6730 H 639.988 -3.41536 -1.52656 0
M  V30 6731 H 641.321 -4.48549 -2.02644 0
M  V30 6732 N 642.974 0.416227 -1.52004 0
M  V30 6733 C 644.251 1.17637 -1.56272 0
M  V30 6734 C 644.631 2.08352 -0.339493 0
M  V30 6735 O 643.979 2.1833 0.674124 0
M  V30 6736 C 644.189 1.95986 -2.88774 0
M  V30 6737 C 645.537 2.52299 -3.41512 0
M  V30 6738 O 646.561 2.06174 -2.90467 0
M  V30 6739 O 645.42 3.3648 -4.30631 0
M  V30 6740 H 642.514 0.536726 -0.629169 0
M  V30 6741 H 645.06 0.423583 -1.64329 0
M  V30 6742 H 643.832 1.29487 -3.69254 0
M  V30 6743 H 643.455 2.78285 -2.83978 0
M  V30 6744 N 644.452 1.42507 0.673017 0
M  V30 6745 C 645.701 1.42364 1.42883 0
M  V30 6746 C 646.014 0.0441598 1.9555 0
M  V30 6747 O 647.22 -0.0798679 2.71382 0
M  V30 6748 C 645.676 2.5043 2.58482 0
M  V30 6749 C 645.284 3.94392 2.12506 0
M  V30 6750 C 647.028 2.59455 3.35981 0
M  V30 6751 C 644.935 4.93964 3.25198 0
M  V30 6752 H 643.865 0.52951 0.536782 0
M  V30 6753 H 646.516 1.68422 0.728448 0
M  V30 6754 H 644.898 2.1754 3.30896 0
M  V30 6755 H 646.072 4.36645 1.47233 0
M  V30 6756 H 644.387 3.89233 1.4794 0
M  V30 6757 H 646.984 3.31025 4.19912 0
M  V30 6758 H 647.327 1.63869 3.82691 0
M  V30 6759 H 647.86 2.91549 2.70637 0
M  V30 6760 H 644.599 5.91034 2.83477 0
M  V30 6761 H 644.119 4.56341 3.89247 0
M  V30 6762 H 645.798 5.15763 3.90637 0
M  V30 6763 N 645.93 -0.909495 1.28709 0
M  V30 6764 C 646.84 -2.04558 1.14861 0
M  V30 6765 C 647.856 -1.73842 0.0741621 0
M  V30 6766 O 649.032 -1.99383 0.2843 0
M  V30 6767 C 646.097 -3.36957 0.816148 0
M  V30 6768 C 645.158 -3.81255 1.97341 0
M  V30 6769 C 644.391 -5.07335 1.65671 0
M  V30 6770 O 644.614 -5.67514 0.573053 0
M  V30 6771 O 643.548 -5.47449 2.50167 0
M  V30 6772 H 647.374 -2.19161 2.10243 0
M  V30 6773 H 644.959 -1.03159 1.08068 0
M  V30 6774 H 646.841 -4.16436 0.644873 0
M  V30 6775 H 645.516 -3.2352 -0.107983 0
M  V30 6776 H 644.423 -3.02584 2.19986 0
M  V30 6777 H 645.756 -3.99261 2.87839 0
M  V30 6778 N 647.408 -1.11026 -1.11852 0
M  V30 6779 C 648.318 -0.777252 -2.2135 0
M  V30 6780 C 649.334 0.227821 -1.72502 0
M  V30 6781 O 650.51 0.0650587 -2.01295 0
M  V30 6782 C 647.575 -0.220668 -3.45997 0
M  V30 6783 C 646.636 -1.2838 -4.09655 0
M  V30 6784 C 645.869 -0.753678 -5.28352 0
M  V30 6785 O 646.092 0.417779 -5.68868 0
M  V30 6786 O 645.026 -1.51647 -5.82483 0
M  V30 6787 H 648.852 -1.69141 -2.5224 0
M  V30 6788 H 646.437 -0.885836 -1.20305 0
M  V30 6789 H 648.319 0.0855756 -4.21313 0
M  V30 6790 H 646.994 0.666262 -3.16769 0
M  V30 6791 H 645.901 -1.64299 -3.3609 0
M  V30 6792 H 647.234 -2.14396 -4.43052 0
M  V30 6793 N 648.886 1.2938 -0.899927 0
M  V30 6794 C 649.849 2.25983 -0.382677 0
M  V30 6795 C 650.849 1.53366 0.483259 0
M  V30 6796 O 652.039 1.71798 0.28828 0
M  V30 6797 C 649.171 3.37878 0.452915 0
M  V30 6798 H 650.364 2.73252 -1.23586 0
M  V30 6799 H 647.917 1.40825 -0.678088 0
M  V30 6800 H 648.652 2.95949 1.32608 0
M  V30 6801 H 648.437 3.91742 -0.167562 0
M  V30 6802 H 649.927 4.09746 0.806107 0
M  V30 6803 N 650.364 0.662433 1.43002 0
M  V30 6804 C 651.294 -0.00979809 2.33498 0
M  V30 6805 C 652.275 -0.802329 1.49989 0
M  V30 6806 O 653.46 -0.761964 1.78627 0
M  V30 6807 C 650.59 -0.970446 3.33466 0
M  V30 6808 C 649.544 -0.287383 4.27034 0
M  V30 6809 C 648.87 -1.36012 5.17112 0
M  V30 6810 C 650.17 0.82595 5.15728 0
M  V30 6811 H 651.864 0.745959 2.89958 0
M  V30 6812 H 649.41 0.360172 1.39423 0
M  V30 6813 H 651.363 -1.44971 3.95679 0
M  V30 6814 H 650.087 -1.75748 2.75282 0
M  V30 6815 H 648.746 0.17152 3.66199 0
M  V30 6816 H 648.394 -2.13882 4.55262 0
M  V30 6817 H 648.094 -0.908276 5.80538 0
M  V30 6818 H 649.618 -1.84056 5.82199 0
M  V30 6819 H 651.032 0.42845 5.71697 0
M  V30 6820 H 649.429 1.20282 5.87922 0
M  V30 6821 H 650.499 1.68003 4.54866 0
M  V30 6822 N 651.842 -1.52309 0.404946 0
M  V30 6823 C 653.082 -2.03677 -0.171779 0
M  V30 6824 C 653.446 -1.28419 -1.42733 0
M  V30 6825 O 654.647 -1.69991 -2.08222 0
M  V30 6826 C 652.918 -3.54951 -0.417701 0
M  V30 6827 S 654.477 -4.28114 -0.962472 0
M  V30 6828 H 651.295 -0.709445 -0.0469912 0
M  V30 6829 H 653.897 -1.874 0.556901 0
M  V30 6830 H 652.601 -4.07306 0.50295 0
M  V30 6831 H 652.132 -3.75462 -1.17437 0
M  V30 6832 H 654.147 -4.42589 -2.24342 0
M  V30 6833 N 653.32 -0.135238 -1.57019 0
M  V30 6834 C 654.568 0.51777 -1.95355 0
M  V30 6835 C 654.889 1.6617 -1.02042 0
M  V30 6836 O 654.159 1.95738 -0.0797343 0
M  V30 6837 H 652.739 0.194264 -0.721298 0
M  V30 6838 H 655.401 -0.207983 -1.93787 0
M  V30 6839 H 654.497 0.901675 -2.98791 0
M  V30 6840 N 654.798 1.5699 0.138552 0
M  V30 6841 C 656.209 1.73171 0.697754 0
M  V30 6842 C 656.56 0.750952 1.8126 0
M  V30 6843 O 655.685 -0.080549 2.1625 0
M  V30 6844 C 656.28 3.13996 1.27248 0
M  V30 6845 C 654.839 3.3175 1.77816 0
M  V30 6846 C 653.986 2.69084 0.669991 0
M  V30 6847 H 656.937 1.5846 -0.0871979 0
M  V30 6848 H 656.958 3.14463 2.14227 0
M  V30 6849 H 656.47 3.85354 0.460855 0
M  V30 6850 H 654.571 2.65403 2.61519 0
M  V30 6851 H 654.684 4.39768 1.90107 0
M  V30 6852 H 653.048 2.29782 1.09874 0
M  V30 6853 H 653.831 3.43053 -0.130329 0
M  V30 6854 N 656.276 -0.40816 1.52223 0
M  V30 6855 C 657.239 -1.48 1.7501 0
M  V30 6856 C 658.239 -1.48367 0.619996 0
M  V30 6857 O 659.429 -1.49874 0.887881 0
M  V30 6858 C 656.561 -2.87403 1.83336 0
M  V30 6859 H 657.754 -1.29086 2.70697 0
M  V30 6860 H 655.307 -0.638715 1.42654 0
M  V30 6861 H 656.042 -3.11686 0.895677 0
M  V30 6862 H 655.827 -2.8854 2.65494 0
M  V30 6863 H 657.317 -3.65103 2.02705 0
M  V30 6864 N 657.755 -1.42862 -0.66545 0
M  V30 6865 C 658.718 -1.46756 -1.76055 0
M  V30 6866 C 659.718 -0.353866 -1.56858 0
M  V30 6867 O 660.908 -0.615099 -1.62979 0
M  V30 6868 C 658.04 -1.30829 -3.14796 0
M  V30 6869 H 659.233 -2.44271 -1.73987 0
M  V30 6870 H 656.786 -1.29447 -0.875965 0
M  V30 6871 H 657.521 -0.342733 -3.22484 0
M  V30 6872 H 657.306 -2.11551 -3.30134 0
M  V30 6873 H 658.796 -1.36458 -3.94676 0
M  V30 6874 N 659.233 0.902656 -1.29189 0
M  V30 6875 C 660.163 2.02294 -1.16616 0
M  V30 6876 C 661.144 1.6999 -0.0611175 0
M  V30 6877 O 662.329 1.9271 -0.240072 0
M  V30 6878 C 659.459 3.37018 -0.83882 0
M  V30 6879 C 658.413 3.83522 -1.89986 0
M  V30 6880 C 657.739 5.15337 -1.42589 0
M  V30 6881 C 659.039 4.04169 -3.30824 0
M  V30 6882 H 660.733 2.13071 -2.10336 0
M  V30 6883 H 658.279 1.02378 -1.01266 0
M  V30 6884 H 660.232 4.14895 -0.737584 0
M  V30 6885 H 658.956 3.26325 0.134071 0
M  V30 6886 H 657.615 3.07859 -1.99043 0
M  V30 6887 H 657.263 5.01056 -0.441759 0
M  V30 6888 H 656.963 5.47423 -2.13547 0
M  V30 6889 H 658.487 5.95758 -1.3381 0
M  V30 6890 H 659.901 4.72537 -3.24626 0
M  V30 6891 H 658.298 4.47604 -3.99713 0
M  V30 6892 H 659.368 3.08604 -3.74021 0
M  V30 6893 N 660.711 1.11618 1.11262 0
M  V30 6894 C 662.122 0.881942 1.64556 0
M  V30 6895 C 662.473 -0.585442 1.87262 0
M  V30 6896 O 661.598 -1.44795 1.60821 0
M  V30 6897 C 662.193 1.59446 2.98935 0
M  V30 6898 C 660.752 1.40661 3.4913 0
M  V30 6899 C 659.899 1.63593 2.23903 0
M  V30 6900 H 662.85 1.27217 0.94877 0
M  V30 6901 H 662.871 1.04054 3.65996 0
M  V30 6902 H 662.383 2.66241 2.82378 0
M  V30 6903 H 660.484 0.360835 3.70849 0
M  V30 6904 H 660.597 2.15693 4.27801 0
M  V30 6905 H 658.961 1.05944 2.3162 0
M  V30 6906 H 659.744 2.71666 2.09886 0
M  V30 6907 N 662.189 -1.289 0.906776 0
M  V30 6908 C 663.6 -1.77336 0.58384 0
M  V30 6909 C 663.951 -1.74304 -0.900697 0
M  V30 6910 O 663.076 -1.33335 -1.70443 0
M  V30 6911 C 663.671 -3.22019 1.05304 0
M  V30 6912 C 662.23 -3.68205 0.781148 0
M  V30 6913 C 661.377 -2.48837 1.22373 0
M  V30 6914 H 664.328 -1.15462 1.08877 0
M  V30 6915 H 664.349 -3.78481 0.391414 0
M  V30 6916 H 663.861 -3.24194 2.13353 0
M  V30 6917 H 661.962 -3.71497 -0.28643 0
M  V30 6918 H 662.075 -4.58675 1.384 0
M  V30 6919 H 660.439 -2.46461 0.642594 0
M  V30 6920 H 661.222 -2.53736 2.31242 0
M  V30 6921 N 663.667 -0.670007 -1.42649 0
M  V30 6922 C 664.63 0.00204659 -2.292 0
M  V30 6923 C 665.63 0.733817 -1.4308 0
M  V30 6924 O 666.82 0.57254 -1.64522 0
M  V30 6925 C 663.952 1.01359 -3.25483 0
M  V30 6926 H 665.145 -0.759696 -2.90118 0
M  V30 6927 H 662.698 -0.432105 -1.50208 0
M  V30 6928 H 663.433 1.80399 -2.69493 0
M  V30 6929 H 663.218 0.492323 -3.88997 0
M  V30 6930 H 664.708 1.4824 -3.90403 0
M  V30 6931 N 665.145 1.52092 -0.413018 0
M  V30 6932 C 666.556 1.86617 0.0556967 0
M  V30 6933 C 666.907 1.33156 1.44097 0
M  V30 6934 O 666.032 0.672417 2.05688 0
M  V30 6935 C 666.627 3.38628 0.107844 0
M  V30 6936 C 665.186 3.72778 0.520904 0
M  V30 6937 C 664.333 2.75649 -0.302109 0
M  V30 6938 H 667.284 1.45663 -0.629919 0
M  V30 6939 H 667.305 3.69152 0.922324 0
M  V30 6940 H 666.817 3.77508 -0.900506 0
M  V30 6941 H 664.918 3.39478 1.53575 0
M  V30 6942 H 665.031 4.7838 0.262591 0
M  V30 6943 H 663.395 2.53603 0.236115 0
M  V30 6944 H 664.178 3.17369 -1.30888 0
M  V30 6945 N 666.623 0.143563 1.56945 0
M  V30 6946 C 667.848 -0.518701 2.00809 0
M  V30 6947 C 668.273 -1.5785 1.02298 0
M  V30 6948 O 667.631 -1.813 -0.0017839 0
M  V30 6949 C 667.679 -1.09929 3.43436 0
M  V30 6950 O 666.783 -2.21425 3.47915 0
M  V30 6951 H 666.124 -0.127215 0.6517 0
M  V30 6952 H 668.654 0.239283 2.03196 0
M  V30 6953 H 668.664 -1.4288 3.82164 0
M  V30 6954 H 667.339 -0.323162 4.14643 0
M  V30 6955 H 665.916 -1.89728 3.21026 0
M  V30 6956 N 668.101 -1.57061 -0.130224 0
M  V30 6957 C 669.031 -2.02552 -1.16168 0
M  V30 6958 C 670.012 -0.907971 -1.4384 0
M  V30 6959 O 671.197 -1.17693 -1.54473 0
M  V30 6960 C 668.327 -2.42035 -2.49071 0
M  V30 6961 C 667.281 -3.5713 -2.35886 0
M  V30 6962 C 666.607 -3.82478 -3.7365 0
M  V30 6963 C 667.907 -4.89236 -1.8288 0
M  V30 6964 H 669.601 -2.8897 -0.783359 0
M  V30 6965 H 667.147 -1.39021 -0.375376 0
M  V30 6966 H 669.1 -2.72462 -3.21469 0
M  V30 6967 H 667.824 -1.52573 -2.88771 0
M  V30 6968 H 666.483 -3.26895 -1.65938 0
M  V30 6969 H 666.131 -2.9024 -4.10816 0
M  V30 6970 H 665.831 -4.59944 -3.65685 0
M  V30 6971 H 667.355 -4.15347 -4.47571 0
M  V30 6972 H 668.769 -5.18272 -2.45085 0
M  V30 6973 H 667.166 -5.70624 -1.85763 0
M  V30 6974 H 668.236 -4.78494 -0.785571 0
M  V30 6975 N 669.579 0.400081 -1.52437 0
M  V30 6976 C 670.509 1.4947 -1.7939 0
M  V30 6977 C 671.49 1.57383 -0.645329 0
M  V30 6978 O 672.675 1.72511 -0.891826 0
M  V30 6979 C 669.805 2.87201 -1.95276 0
M  V30 6980 C 668.759 2.94134 -3.10917 0
M  V30 6981 C 668.085 4.34207 -3.1204 0
M  V30 6982 C 669.385 2.64791 -4.50203 0
M  V30 6983 H 671.079 1.27165 -2.71052 0
M  V30 6984 H 668.625 0.610312 -1.30427 0
M  V30 6985 H 670.578 3.63772 -2.12715 0
M  V30 6986 H 669.302 3.10819 -1.00294 0
M  V30 6987 H 667.961 2.20009 -2.93243 0
M  V30 6988 H 667.609 4.54848 -2.14761 0
M  V30 6989 H 667.309 4.39768 -3.89715 0
M  V30 6990 H 668.833 5.127 -3.31619 0
M  V30 6991 H 670.247 3.31083 -4.68035 0
M  V30 6992 H 668.644 2.81717 -5.29864 0
M  V30 6993 H 669.714 1.60184 -4.57678 0
M  V30 6994 N 671.057 1.43213 0.657864 0
M  V30 6995 C 672.473 1.26511 0.972992 0
M  V30 6996 C 672.673 0.181477 2.00681 0
M  V30 6997 O 671.729 -0.441649 2.48608 0
M  V30 6998 C 673.042 2.62784 1.46168 0
M  V30 6999 C 674.59 2.70278 1.57857 0
M  V30 7000 C 675.065 4.06958 2.10117 0
M  V30 7001 N 676.556 4.08999 2.17426 0
M  V30 7002 C 677.291 5.11585 2.58975 0
M  V30 7003 N 676.787 6.24548 2.99853 0
M  V30 7004 N 678.58 4.9894 2.58873 0
M  V30 7005 H 670.731 2.12384 -0.0263129 0
M  V30 7006 H 672.994 0.946638 0.0507992 0
M  V30 7007 H 672.7 3.43022 0.776474 0
M  V30 7008 H 672.574 2.87863 2.43751 0
M  V30 7009 H 674.961 1.90376 2.25479 0
M  V30 7010 H 675.042 2.4897 0.587179 0
M  V30 7011 H 674.686 4.87325 1.43098 0
M  V30 7012 H 674.616 4.25628 3.10078 0
M  V30 7013 H 677.107 3.27457 1.88627 0
M  V30 7014 H 677.42 6.98661 3.30292 0
M  V30 7015 H 675.765 6.28027 2.97669 0
M  V30 7016 H 678.956 4.09757 2.26311 0
M  V30 7017 H 679.129 5.79019 2.90932 0
M  V30 7018 O 672.574 -0.8008 1.40248 0
M  V30 7019 H 673.265 -1.44601 1.28881 0
M  V30 END ATOM
M  V30 BEGIN BOND
M  V30 END BOND
M  V30 END CTAB
M  END
$$$$
