drugbank_target|P19440 Gamma-glutamyltranspeptidase 1 (DB00143)
 OpenBabel12092119423D

  0  0  0     0  0            999 V3000
M  V30 BEGIN CTAB
M  V30 COUNTS 8675 8761 0 0 0
M  V30 BEGIN ATOM
M  V30 1 H -0.908 1.98254 -0.117106 0
M  V30 2 N 0 1.576 0 0
M  V30 3 C 0.933 2.03868 1.02534 0
M  V30 4 C 1.911 0.928543 1.3348 0
M  V30 5 O 3.095 1.19667 1.45644 0
M  V30 6 C 0.222 2.43627 2.35294 0
M  V30 7 C -0.732 3.65373 2.2001 0
M  V30 8 S 0.101 5.13292 1.52614 0
M  V30 9 C 1.257 5.56322 2.86805 0
M  V30 10 H 1.49 2.90518 0.631377 0
M  V30 11 H -0.977 1.52953 0.210867 0
M  V30 12 H 0.981 2.67203 3.11629 0
M  V30 13 H -0.358 1.57376 2.7183 0
M  V30 14 H -1.165 3.90944 3.18086 0
M  V30 15 H -1.563 3.418 1.51819 0
M  V30 16 H 0.729 5.58782 3.83104 0
M  V30 17 H 1.672 6.56266 2.65933 0
M  V30 18 H 2.08 4.83886 2.90714 0
M  V30 19 N 1.4781 -0.272755 1.55222 0
M  V30 20 C 2.4251 -1.33716 1.88119 0
M  V30 21 C 3.3951 -1.49066 0.73271 0
M  V30 22 O 4.5801 -1.63469 0.984002 0
M  V30 23 C 1.7201 -2.69238 2.15882 0
M  V30 24 C 0.8331 -2.62108 3.43399 0
M  V30 25 C -0.0319 -3.89811 3.60861 0
M  V30 26 C -0.9929 -3.77193 4.8207 0
M  V30 27 N -1.8559 -4.9673 4.96189 0
M  V30 28 H 2.9841 -1.04962 2.78903 0
M  V30 29 H 0.5211 -0.507088 1.38083 0
M  V30 30 H 2.4791 -3.48089 2.29978 0
M  V30 31 H 1.1091 -2.96194 1.28331 0
M  V30 32 H 0.1611 -1.74967 3.37773 0
M  V30 33 H 1.4731 -2.48685 4.32386 0
M  V30 34 H 0.6271 -4.77103 3.74777 0
M  V30 35 H -0.6339 -4.06102 2.7006 0
M  V30 36 H -1.6289 -2.88284 4.68159 0
M  V30 37 H -0.4039 -3.62421 5.74307 0
M  V30 38 H -2.4579 -5.13431 4.08319 0
M  V30 39 H -2.5409 -4.85839 5.79221 0
M  V30 40 H -1.2729 -5.85594 5.1449 0
M  V30 41 N 2.9562 -1.48159 -0.537278 0
M  V30 42 C 3.9032 -1.62138 -1.64256 0
M  V30 43 C 4.8732 -0.463668 -1.59497 0
M  V30 44 O 6.0582 -0.686241 -1.78032 0
M  V30 45 C 3.1982 -1.66028 -3.02537 0
M  V30 46 C 2.3112 -2.92855 -3.17585 0
M  V30 47 C 1.4462 -2.87952 -4.46382 0
M  V30 48 C 0.4852 -4.09516 -4.54932 0
M  V30 49 N -0.3778 -4.02733 -5.75109 0
M  V30 50 H 4.4622 -2.56529 -1.51647 0
M  V30 51 H 1.9992 -1.27224 -0.738414 0
M  V30 52 H 3.9572 -1.66265 -3.82638 0
M  V30 53 H 2.5872 -0.751331 -3.13934 0
M  V30 54 H 1.6392 -3.02395 -2.30784 0
M  V30 55 H 2.9512 -3.82822 -3.19764 0
M  V30 56 H 2.1052 -2.8655 -5.34765 0
M  V30 57 H 0.8442 -1.95702 -4.46712 0
M  V30 58 H -0.1508 -4.11201 -3.64957 0
M  V30 59 H 1.0742 -5.02917 -4.56346 0
M  V30 60 H -0.9798 -3.13299 -5.76351 0
M  V30 61 H -1.0628 -4.86397 -5.78752 0
M  V30 62 H 0.2052 -4.05379 -6.65799 0
M  V30 63 N 4.4343 0.785586 -1.36625 0
M  V30 64 C 5.3813 1.89838 -1.31264 0
M  V30 65 C 6.3513 1.65115 -0.180633 0
M  V30 66 O 7.5363 1.87222 -0.36777 0
M  V30 67 C 4.6763 3.26706 -1.11163 0
M  V30 68 C 3.7893 3.63476 -2.33472 0
M  V30 69 C 2.9243 4.89481 -2.06353 0
M  V30 70 C 1.9633 5.18941 -3.24602 0
M  V30 71 N 1.1003 6.36131 -2.97123 0
M  V30 72 H 5.9403 1.93756 -2.26413 0
M  V30 73 H 3.4773 0.947454 -1.12524 0
M  V30 74 H 5.4353 4.05639 -0.975337 0
M  V30 75 H 4.0653 3.222 -0.196674 0
M  V30 76 H 3.1173 2.79636 -2.57891 0
M  V30 77 H 4.4293 3.81193 -3.21704 0
M  V30 78 H 3.5833 5.76288 -1.89675 0
M  V30 79 H 2.3223 4.73841 -1.15437 0
M  V30 80 H 1.3273 4.30615 -3.41834 0
M  V30 81 H 2.5523 5.36498 -4.16349 0
M  V30 82 H 0.4983 6.21875 -2.08823 0
M  V30 83 H 0.4153 6.54198 -3.78894 0
M  V30 84 H 1.6833 7.2591 -2.84033 0
M  V30 85 N 5.9124 1.20967 1.01018 0
M  V30 86 C 6.8424 0.988272 2.11555 0
M  V30 87 C 7.8234 -0.0849778 1.69888 0
M  V30 88 O 9.0084 0.0738202 1.9406 0
M  V30 89 C 6.1384 0.546528 3.42973 0
M  V30 90 C 5.0924 1.56375 3.9841 0
M  V30 91 C 4.4184 0.97842 5.25672 0
M  V30 92 C 5.7184 2.94922 4.31066 0
M  V30 93 H 7.4124 1.91276 2.30334 0
M  V30 94 H 4.9584 0.921073 1.1069 0
M  V30 95 H 6.9114 0.378839 4.19694 0
M  V30 96 H 5.6354 -0.413598 3.23971 0
M  V30 97 H 4.2944 1.71891 3.23804 0
M  V30 98 H 3.9424 0.0101688 5.02999 0
M  V30 99 H 3.6424 1.65784 5.63728 0
M  V30 100 H 5.1664 0.821939 6.05043 0
M  V30 101 H 6.5804 2.8288 4.9865 0
M  V30 102 H 4.9774 3.5983 4.80253 0
M  V30 103 H 6.0474 3.4616 3.39561 0
M  V30 104 N 7.3905 -1.2043 1.01659 0
M  V30 105 C 8.6365 -1.90079 0.706963 0
M  V30 106 C 8.9695 -1.78648 -0.761474 0
M  V30 107 O 8.2445 -1.17069 -1.55323 0
M  V30 108 C 8.5275 -3.41469 1.14327 0
M  V30 109 C 8.3805 -3.61833 2.67201 0
M  V30 110 C 9.6995 -4.34261 0.714529 0
M  V30 111 H 6.8185 -0.690254 0.2583 0
M  V30 112 H 9.4605 -1.41826 1.26433 0
M  V30 113 H 7.6105 -3.82696 0.669056 0
M  V30 114 H 9.2825 -3.2986 3.22475 0
M  V30 115 H 7.5255 -3.05304 3.08175 0
M  V30 116 H 8.1965 -4.67955 2.92783 0
M  V30 117 H 10.6725 -4.00682 1.12221 0
M  V30 118 H 9.5485 -5.38806 1.04784 0
M  V30 119 H 9.8095 -4.40431 -0.383799 0
M  V30 120 N 8.8686 -0.792821 -1.36206 0
M  V30 121 C 10.1146 -0.36733 -1.99446 0
M  V30 122 C 10.4476 1.05917 -1.62774 0
M  V30 123 O 9.7226 1.7324 -0.88421 0
M  V30 124 C 10.0056 -0.535044 -3.56103 0
M  V30 125 C 9.8586 -2.00548 -4.02617 0
M  V30 126 C 11.1776 0.0478191 -4.40074 0
M  V30 127 H 8.2966 -0.134941 -0.724541 0
M  V30 128 H 10.9386 -0.999794 -1.61568 0
M  V30 129 H 9.0886 0.00336329 -3.885 0
M  V30 130 H 10.7606 -2.60521 -3.80692 0
M  V30 131 H 9.0036 -2.50686 -3.54032 0
M  V30 132 H 9.6746 -2.07377 -5.11565 0
M  V30 133 H 12.1506 -0.411822 -4.14057 0
M  V30 134 H 11.0266 -0.0995336 -5.4881 0
M  V30 135 H 11.2876 1.14025 -4.27142 0
M  V30 136 N 10.3467 1.47872 -0.545128 0
M  V30 137 C 11.2767 2.32661 0.197793 0
M  V30 138 C 12.2577 1.43041 0.920504 0
M  V30 139 O 13.4427 1.71912 0.90333 0
M  V30 140 C 10.5727 3.24569 1.23582 0
M  V30 141 C 9.5267 4.23333 0.630323 0
M  V30 142 C 8.8527 5.0448 1.77211 0
M  V30 143 C 10.1527 5.20704 -0.407974 0
M  V30 144 H 11.8467 2.95024 -0.510045 0
M  V30 145 H 9.3927 1.4187 -0.246731 0
M  V30 146 H 11.3457 3.8272 1.76362 0
M  V30 147 H 10.0697 2.60236 1.97344 0
M  V30 148 H 8.7287 3.6639 0.123922 0
M  V30 149 H 8.3767 4.36561 2.49847 0
M  V30 150 H 8.0767 5.71339 1.37281 0
M  V30 151 H 9.6007 5.65487 2.3034 0
M  V30 152 H 11.0147 5.7329 0.033305 0
M  V30 153 H 9.4117 5.95699 -0.725486 0
M  V30 154 H 10.4817 4.66917 -1.30828 0
M  V30 155 N 11.8248 0.280983 1.55075 0
M  V30 156 C 13.0728 -0.333455 1.9933 0
M  V30 157 C 13.3938 -1.55937 1.17085 0
M  V30 158 O 12.6638 -1.94143 0.261805 0
M  V30 159 H 11.2438 -0.126197 0.736263 0
M  V30 160 H 13.9058 0.387678 1.91005 0
M  V30 161 H 13.0018 -0.619292 3.05894 0
M  V30 162 N 13.3029 -1.57598 0.00835791 0
M  V30 163 C 14.2329 -2.1198 -0.979113 0
M  V30 164 C 15.2139 -1.03091 -1.35301 0
M  V30 165 O 16.3989 -1.30818 -1.43528 0
M  V30 166 C 13.5289 -2.62995 -2.26828 0
M  V30 167 C 12.4829 -3.76485 -2.03576 0
M  V30 168 C 11.8089 -4.13846 -3.38579 0
M  V30 169 C 13.1089 -5.0342 -1.39161 0
M  V30 170 H 14.8029 -2.94738 -0.526281 0
M  V30 171 H 12.3489 -1.41783 -0.251704 0
M  V30 172 H 14.3019 -2.99669 -2.96271 0
M  V30 173 H 13.0259 -1.7737 -2.7424 0
M  V30 174 H 11.6849 -3.40217 -1.36557 0
M  V30 175 H 11.3329 -3.25232 -3.83709 0
M  V30 176 H 11.0329 -4.90312 -3.23834 0
M  V30 177 H 12.5569 -4.53086 -4.09323 0
M  V30 178 H 13.9709 -5.37812 -1.98573 0
M  V30 179 H 12.3679 -5.84746 -1.34878 0
M  V30 180 H 13.4379 -4.83548 -0.361868 0
M  V30 181 N 14.781 0.264519 -1.55364 0
M  V30 182 C 15.711 1.33121 -1.91836 0
M  V30 183 C 16.692 1.51101 -0.781192 0
M  V30 184 O 17.877 1.64003 -1.04003 0
M  V30 185 C 15.007 2.68921 -2.19769 0
M  V30 186 C 13.961 2.65661 -3.35571 0
M  V30 187 C 13.287 4.05093 -3.49004 0
M  V30 188 C 14.587 2.24187 -4.71739 0
M  V30 189 H 16.281 1.02844 -2.81182 0
M  V30 190 H 13.827 0.493286 -1.35287 0
M  V30 191 H 15.78 3.43663 -2.43872 0
M  V30 192 H 14.504 3.00799 -1.27231 0
M  V30 193 H 13.163 1.93377 -3.1145 0
M  V30 194 H 12.811 4.34206 -2.53917 0
M  V30 195 H 12.511 4.03804 -4.26868 0
M  V30 196 H 14.035 4.81561 -3.75408 0
M  V30 197 H 15.449 2.88654 -4.9533 0
M  V30 198 H 13.846 2.34044 -5.52579 0
M  V30 199 H 14.916 1.19327 -4.69988 0
M  V30 200 N 16.2591 1.48442 0.529413 0
M  V30 201 C 17.2221 1.62524 1.61612 0
M  V30 202 C 18.2221 0.498509 1.52877 0
M  V30 203 O 19.4121 0.76431 1.56537 0
M  V30 204 C 16.5441 1.59597 3.01233 0
M  V30 205 H 17.7371 2.59423 1.50465 0
M  V30 206 H 15.2901 1.37047 0.751514 0
M  V30 207 H 16.0251 0.641781 3.17886 0
M  V30 208 H 15.8101 2.41397 3.08982 0
M  V30 209 H 17.3001 1.72646 3.80241 0
M  V30 210 N 17.7372 -0.778329 1.37039 0
M  V30 211 C 18.9832 -1.53892 1.32079 0
M  V30 212 C 19.3162 -1.9396 -0.0965386 0
M  V30 213 O 18.5912 -1.63568 -1.05242 0
M  V30 214 C 18.8742 -2.80847 2.25382 0
M  V30 215 C 18.7272 -2.47076 3.75864 0
M  V30 216 C 20.0462 -3.82741 2.1725 0
M  V30 217 H 17.1652 -0.558303 0.48111 0
M  V30 218 H 19.8072 -0.893397 1.67685 0
M  V30 219 H 17.9572 -3.35931 1.95148 0
M  V30 220 H 19.6292 -1.97957 4.16666 0
M  V30 221 H 17.8722 -1.79863 3.94755 0
M  V30 222 H 18.5432 -3.37798 4.36574 0
M  V30 223 H 21.0192 -3.37133 2.43887 0
M  V30 224 H 19.8952 -4.69303 2.84686 0
M  V30 225 H 20.1562 -4.2652 1.16331 0
M  V30 226 N 19.2153 -1.21501 -1.00376 0
M  V30 227 C 20.4613 -1.03452 -1.74429 0
M  V30 228 C 20.7943 0.430764 -1.89362 0
M  V30 229 O 20.0693 1.31962 -1.42886 0
M  V30 230 C 20.3523 -1.73375 -3.15615 0
M  V30 231 C 20.2053 -3.27431 -3.08397 0
M  V30 232 C 21.5243 -1.47732 -4.14564 0
M  V30 233 H 18.6433 -0.377226 -0.633143 0
M  V30 234 H 21.2853 -1.49693 -1.17013 0
M  V30 235 H 19.4353 -1.34064 -3.64636 0
M  V30 236 H 21.1073 -3.76119 -2.67081 0
M  V30 237 H 19.3503 -3.5767 -2.45468 0
M  V30 238 H 20.0213 -3.71524 -4.08258 0
M  V30 239 H 22.4973 -1.8186 -3.74254 0
M  V30 240 H 21.3733 -1.99169 -5.11491 0
M  V30 241 H 21.6343 -0.407589 -4.40217 0
M  V30 242 N 20.6934 1.19889 -1.02296 0
M  V30 243 C 21.6234 2.25141 -0.619174 0
M  V30 244 C 22.6044 1.66051 0.368915 0
M  V30 245 O 23.7894 1.92546 0.252941 0
M  V30 246 C 20.9194 3.4728 0.0368783 0
M  V30 247 C 19.8734 4.19005 -0.872865 0
M  V30 248 C 19.1994 5.34637 -0.0822402 0
M  V30 249 C 20.4994 4.74452 -2.18387 0
M  V30 250 H 22.1934 2.59171 -1.49903 0
M  V30 251 H 19.7394 1.24579 -0.722222 0
M  V30 252 H 21.6924 4.20098 0.330958 0
M  V30 253 H 20.4164 3.12433 0.95149 0
M  V30 254 H 19.0754 3.48061 -1.15105 0
M  V30 255 H 18.7234 4.96034 0.83422 0
M  V30 256 H 18.4234 5.83557 -0.688149 0
M  V30 257 H 19.9474 6.10255 0.205238 0
M  V30 258 H 21.3614 5.39055 -1.95172 0
M  V30 259 H 19.7584 5.33834 -2.74119 0
M  V30 260 H 20.8284 3.92844 -2.84257 0
M  V30 261 N 22.1715 0.800033 1.35784 0
M  V30 262 C 23.4175 0.377901 1.99248 0
M  V30 263 C 23.7505 -1.05052 1.63333 0
M  V30 264 O 23.0255 -1.72768 0.893385 0
M  V30 265 C 23.3085 0.553922 3.55814 0
M  V30 266 C 23.1615 2.0268 4.01548 0
M  V30 267 C 24.4805 -0.0244802 4.40093 0
M  V30 268 H 21.5995 0.138782 0.723815 0
M  V30 269 H 24.2415 1.00835 1.61035 0
M  V30 270 H 22.3915 0.0172398 3.88496 0
M  V30 271 H 24.0635 2.62536 3.79305 0
M  V30 272 H 22.3065 2.5256 3.52698 0
M  V30 273 H 22.9775 2.10087 5.10458 0
M  V30 274 H 25.4535 0.433775 4.13833 0
M  V30 275 H 24.3295 0.128637 5.48749 0
M  V30 276 H 24.5905 -1.11758 4.27741 0
M  V30 277 N 23.6496 -1.47581 0.552962 0
M  V30 278 C 24.5796 -2.32762 -0.185451 0
M  V30 279 C 25.5606 -1.43527 -0.912905 0
M  V30 280 O 26.7456 -1.72388 -0.894201 0
M  V30 281 C 23.8756 -3.25219 -1.21859 0
M  V30 282 C 22.8296 -4.23661 -0.607864 0
M  V30 283 C 22.1556 -5.05413 -1.74533 0
M  V30 284 C 23.4556 -5.20481 0.435582 0
M  V30 285 H 25.1496 -2.94749 0.525684 0
M  V30 286 H 22.6956 -1.41738 0.254251 0
M  V30 287 H 24.6486 -3.8365 -1.7433 0
M  V30 288 H 23.3726 -2.61279 -1.95961 0
M  V30 289 H 22.0316 -3.66451 -0.104489 0
M  V30 290 H 21.6796 -4.3788 -2.47529 0
M  V30 291 H 21.3796 -5.72059 -1.34249 0
M  V30 292 H 22.9036 -5.66701 -2.27338 0
M  V30 293 H 24.3176 -5.733 -0.00290157 0
M  V30 294 H 22.7146 -5.95305 0.757067 0
M  V30 295 H 23.7846 -4.66217 1.33303 0
M  V30 296 N 25.1277 -0.289203 -1.54924 0
M  V30 297 C 26.3737 0.323998 -2.00195 0
M  V30 298 C 26.7067 1.54441 -1.17735 0
M  V30 299 O 25.9817 1.92875 -0.250878 0
M  V30 300 C 26.2647 0.692276 -3.53383 0
M  V30 301 C 26.1177 -0.536457 -4.46589 0
M  V30 302 C 27.4367 1.52335 -4.12895 0
M  V30 303 H 24.5557 0.116289 -0.727768 0
M  V30 304 H 27.1977 -0.398954 -1.85764 0
M  V30 305 H 25.3477 1.30822 -3.65811 0
M  V30 306 H 27.0197 -1.17499 -4.46085 0
M  V30 307 H 25.2627 -1.17192 -4.1767 0
M  V30 308 H 25.9337 -0.234806 -5.515 0
M  V30 309 H 28.4097 1.00302 -4.0383 0
M  V30 310 H 27.2857 1.74982 -5.20262 0
M  V30 311 H 27.5467 2.50886 -3.64018 0
M  V30 312 N 26.6058 1.57591 -0.0167156 0
M  V30 313 C 27.8548 1.90461 0.663877 0
M  V30 314 C 28.1678 0.893515 1.73999 0
M  V30 315 O 29.3738 1.11302 2.47637 0
M  V30 316 C 27.8298 3.38155 1.23204 0
M  V30 317 C 27.4378 4.47597 0.189866 0
M  V30 318 C 29.1818 3.80111 1.88986 0
M  V30 319 C 27.0888 5.86379 0.768964 0
M  V30 320 H 26.0188 0.710738 0.251729 0
M  V30 321 H 28.6698 1.83326 -0.0799926 0
M  V30 322 H 27.0518 3.40182 2.02712 0
M  V30 323 H 28.2258 4.57112 -0.581846 0
M  V30 324 H 26.5408 4.14766 -0.368475 0
M  V30 325 H 29.1378 4.81145 2.33247 0
M  V30 326 H 29.4808 3.14511 2.72743 0
M  V30 327 H 30.0138 3.80454 1.16187 0
M  V30 328 H 26.7528 6.55493 -0.0301957 0
M  V30 329 H 26.2728 5.80496 1.50945 0
M  V30 330 H 27.9518 6.34563 1.26251 0
M  V30 331 N 28.0839 -0.256276 1.55502 0
M  V30 332 C 29.3299 -0.987079 1.77157 0
M  V30 333 C 29.6629 -1.85327 0.580315 0
M  V30 334 O 28.9379 -1.89874 -0.421686 0
M  V30 335 C 29.2209 -1.85553 3.08613 0
M  V30 336 C 29.0739 -1.01816 4.38125 0
M  V30 337 C 30.3929 -2.8397 3.36228 0
M  V30 338 H 27.5119 -0.357428 0.644526 0
M  V30 339 H 30.1539 -0.258239 1.88237 0
M  V30 340 H 28.3039 -2.47695 2.99298 0
M  V30 341 H 29.9759 -0.416159 4.59419 0
M  V30 342 H 28.2189 -0.322178 4.32602 0
M  V30 343 H 28.8899 -1.65939 5.26468 0
M  V30 344 H 31.3659 -2.31964 3.45445 0
M  V30 345 H 30.2419 -3.41864 4.29442 0
M  V30 346 H 30.5029 -3.59955 2.56681 0
M  V30 347 N 29.562 -1.4872 -0.521534 0
M  V30 348 C 30.81 -1.56857 -1.27437 0
M  V30 349 C 31.131 -0.247982 -1.93417 0
M  V30 350 O 30.401 0.731151 -1.81744 0
M  V30 351 H 28.981 -0.577885 -0.473347 0
M  V30 352 H 31.643 -1.85233 -0.606205 0
M  V30 353 H 30.739 -2.35402 -2.0492 0
M  V30 354 N 31.0401 0.771051 -1.3745 0
M  V30 355 C 31.9701 1.89827 -1.3597 0
M  V30 356 C 32.9511 1.68562 -0.228216 0
M  V30 357 O 34.1361 1.8941 -0.428675 0
M  V30 358 C 31.2661 3.2712 -1.16662 0
M  V30 359 C 30.2201 3.6295 -2.2683 0
M  V30 360 C 29.5461 4.98791 -1.92644 0
M  V30 361 C 30.8461 3.69627 -3.69017 0
M  V30 362 H 32.5401 1.91323 -2.30295 0
M  V30 363 H 30.0861 0.919082 -1.10855 0
M  V30 364 H 32.0391 4.05615 -1.14256 0
M  V30 365 H 30.7631 3.26059 -0.187926 0
M  V30 366 H 29.4221 2.86763 -2.28392 0
M  V30 367 H 29.0701 4.94271 -0.933021 0
M  V30 368 H 28.7701 5.23733 -2.66416 0
M  V30 369 H 30.2941 5.79685 -1.91826 0
M  V30 370 H 31.7081 4.38273 -3.69581 0
M  V30 371 H 30.1051 4.06067 -4.41848 0
M  V30 372 H 31.1751 2.70273 -4.02592 0
M  V30 373 N 32.5182 1.22032 0.997298 0
M  V30 374 C 33.7582 1.05375 1.75144 0
M  V30 375 C 34.1222 -0.404696 1.87686 0
M  V30 376 O 35.3232 -0.691998 2.5974 0
M  V30 377 C 33.5942 1.74046 3.12158 0
M  V30 378 S 35.1532 1.72745 4.03366 0
M  V30 379 H 31.9712 0.377449 0.602539 0
M  V30 380 H 34.5732 1.54902 1.19272 0
M  V30 381 H 33.2772 2.79332 3.00669 0
M  V30 382 H 32.8082 1.24731 3.73103 0
M  V30 383 H 34.8232 0.774015 4.90126 0
M  V30 384 N 33.9963 -1.19345 1.0293 0
M  V30 385 C 34.9263 -2.2481 0.631105 0
M  V30 386 C 35.9073 -1.66245 -0.360104 0
M  V30 387 O 37.0923 -1.92677 -0.242726 0
M  V30 388 C 34.2223 -3.47295 -0.0184607 0
M  V30 389 C 33.1763 -4.18536 0.895073 0
M  V30 390 C 32.5023 -5.34586 0.110592 0
M  V30 391 C 33.8023 -4.73287 2.209 0
M  V30 392 H 35.4963 -2.58372 1.51275 0
M  V30 393 H 33.0423 -1.24194 0.728818 0
M  V30 394 H 34.9953 -4.20268 -0.308675 0
M  V30 395 H 33.7193 -3.12933 -0.934907 0
M  V30 396 H 32.3783 -3.47446 1.16949 0
M  V30 397 H 32.0263 -4.96469 -0.807902 0
M  V30 398 H 31.7263 -5.83183 0.719087 0
M  V30 399 H 33.2503 -6.10355 -0.172871 0
M  V30 400 H 34.6643 -5.38013 1.98028 0
M  V30 401 H 33.0613 -5.32373 2.76946 0
M  V30 402 H 34.1313 -3.91331 2.86336 0
M  V30 403 N 35.4744 -0.807222 -1.35358 0
M  V30 404 C 36.7204 -0.397594 -1.99476 0
M  V30 405 C 37.0754 1.02405 -1.62883 0
M  V30 406 O 36.3684 1.70077 -0.882282 0
M  V30 407 C 36.5624 -0.519036 -3.53611 0
M  V30 408 C 36.3914 -1.95094 -4.05177 0
M  V30 409 C 35.1614 -2.57945 -4.34503 0
M  V30 410 C 37.3594 -2.91558 -4.23673 0
M  V30 411 N 35.3414 -3.92539 -4.72003 0
M  V30 412 C 36.7124 -4.11024 -4.64176 0
M  V30 413 C 38.7674 -2.88381 -4.05883 0
M  V30 414 C 37.4704 -5.27745 -4.88751 0
M  V30 415 C 39.4964 -4.04306 -4.31614 0
M  V30 416 C 38.8584 -5.22519 -4.72391 0
M  V30 417 H 34.9574 -0.193274 -0.75774 0
M  V30 418 H 37.5414 -1.0486 -1.6405 0
M  V30 419 H 35.7124 0.101979 -3.88266 0
M  V30 420 H 37.4444 -0.0839321 -4.04613 0
M  V30 421 H 34.1994 -2.09295 -4.24844 0
M  V30 422 H 34.6234 -4.61836 -4.95011 0
M  V30 423 H 39.2654 -1.98137 -3.73499 0
M  V30 424 H 36.9834 -6.1856 -5.20008 0
M  V30 425 H 40.5694 -4.03229 -4.19402 0
M  V30 426 H 39.4494 -6.1073 -4.91913 0
M  V30 427 N 36.9525 1.47285 -0.560781 0
M  V30 428 C 37.8825 2.32857 0.173105 0
M  V30 429 C 38.8635 1.44009 0.905281 0
M  V30 430 O 40.0485 1.7286 0.885046 0
M  V30 431 C 37.1785 3.25861 1.20133 0
M  V30 432 C 36.1325 4.23978 0.585388 0
M  V30 433 C 35.4585 5.06332 1.7185 0
M  V30 434 C 36.7585 5.20242 -0.463178 0
M  V30 435 H 38.4525 2.94466 -0.541307 0
M  V30 436 H 35.9985 1.41601 -0.261764 0
M  V30 437 H 37.9515 3.84569 1.72293 0
M  V30 438 H 36.6755 2.62315 1.94573 0
M  V30 439 H 35.3345 3.66501 0.085054 0
M  V30 440 H 34.9825 4.39186 2.45203 0
M  V30 441 H 34.6825 5.72762 1.31213 0
M  V30 442 H 36.2065 5.67899 2.24329 0
M  V30 443 H 37.6205 5.73293 -0.027502 0
M  V30 444 H 36.0175 5.94896 -0.788627 0
M  V30 445 H 37.0875 4.65504 -1.35773 0
M  V30 446 N 38.4306 0.297415 1.54768 0
M  V30 447 C 39.8416 -0.195947 1.85669 0
M  V30 448 C 40.1926 -1.53707 1.21937 0
M  V30 449 O 39.3176 -2.10164 0.515754 0
M  V30 450 C 39.9126 -0.362318 3.36857 0
M  V30 451 C 38.4716 -0.799901 3.67802 0
M  V30 452 C 37.6186 0.0938578 2.77141 0
M  V30 453 H 40.5696 0.518538 1.4999 0
M  V30 454 H 40.5906 -1.19745 3.61167 0
M  V30 455 H 40.1026 0.613921 3.83214 0
M  V30 456 H 38.2036 -1.78682 3.26961 0
M  V30 457 H 38.3166 -0.621773 4.75048 0
M  V30 458 H 36.6806 -0.426254 2.51108 0
M  V30 459 H 37.4636 1.06639 3.26318 0
M  V30 460 N 39.9087 -1.5758 0.0250728 0
M  V30 461 C 41.1337 -1.96337 -0.668317 0
M  V30 462 C 41.5587 -0.901314 -1.651 0
M  V30 463 O 40.9167 0.138187 -1.80773 0
M  V30 464 C 40.9647 -3.34191 -1.35457 0
M  V30 465 O 40.0687 -3.30269 -2.46974 0
M  V30 466 H 39.4097 -0.640281 -0.175887 0
M  V30 467 H 41.9397 -2.0442 0.0857224 0
M  V30 468 H 41.9497 -3.70331 -1.71228 0
M  V30 469 H 40.6247 -4.11036 -0.634218 0
M  V30 470 H 39.2017 -3.05841 -2.13344 0
M  V30 471 N 41.3868 0.248026 -1.55636 0
M  V30 472 C 42.3498 1.29044 -1.89421 0
M  V30 473 C 43.3498 1.41134 -0.770581 0
M  V30 474 O 44.5398 1.39854 -1.03858 0
M  V30 475 C 41.6718 2.66831 -2.12165 0
M  V30 476 H 42.8648 1.00305 -2.82629 0
M  V30 477 H 40.4178 0.487265 -1.48511 0
M  V30 478 H 41.1528 3.00711 -1.21422 0
M  V30 479 H 40.9378 2.59438 -2.93997 0
M  V30 480 H 42.4278 3.42103 -2.3949 0
M  V30 481 N 42.8649 1.48995 0.513639 0
M  V30 482 C 44.0899 1.61792 1.29762 0
M  V30 483 C 44.5149 0.284475 1.85936 0
M  V30 484 O 43.8729 -0.746185 1.65232 0
M  V30 485 C 43.9209 2.67993 2.41272 0
M  V30 486 O 43.0249 2.26287 3.44772 0
M  V30 487 H 42.3659 0.541963 0.38363 0
M  V30 488 H 44.8959 1.95097 0.616307 0
M  V30 489 H 44.9059 2.89772 2.87221 0
M  V30 490 H 43.5809 3.64791 1.9975 0
M  V30 491 H 42.1579 2.14788 3.04829 0
M  V30 492 N 44.343 -0.763751 1.37857 0
M  V30 493 C 45.29 -1.87726 1.34267 0
M  V30 494 C 46.26 -1.64807 0.206879 0
M  V30 495 O 47.445 -1.86613 0.397508 0
M  V30 496 C 44.585 -3.24896 1.16346 0
M  V30 497 C 43.698 -3.59716 2.39225 0
M  V30 498 C 42.833 -4.86137 2.14114 0
M  V30 499 C 41.872 -5.13711 3.32817 0
M  V30 500 N 41.009 -6.31323 3.07206 0
M  V30 501 H 45.849 -1.90129 2.29466 0
M  V30 502 H 43.386 -0.929433 1.14017 0
M  V30 503 H 45.344 -4.04036 1.03975 0
M  V30 504 H 43.974 -3.21847 0.247909 0
M  V30 505 H 43.026 -2.75498 2.62307 0
M  V30 506 H 44.338 -3.76027 3.27728 0
M  V30 507 H 43.492 -5.73198 1.9882 0
M  V30 508 H 42.231 -4.71945 1.22961 0
M  V30 509 H 41.236 -4.25123 3.48641 0
M  V30 510 H 42.461 -5.29807 4.24832 0
M  V30 511 H 40.407 -6.18474 2.1869 0
M  V30 512 H 40.324 -6.48087 3.89254 0
M  V30 513 H 41.592 -7.213 2.95546 0
M  V30 514 N 45.8211 -1.22559 -0.990812 0
M  V30 515 C 46.7311 -1.01394 -2.11557 0
M  V30 516 C 47.7471 0.0383962 -1.73958 0
M  V30 517 O 48.9231 -0.154787 -2.00804 0
M  V30 518 C 45.9881 -0.596569 -3.41529 0
M  V30 519 C 45.0491 -1.72276 -3.93217 0
M  V30 520 C 44.2821 -1.32521 -5.16985 0
M  V30 521 O 44.5051 -0.204909 -5.70032 0
M  V30 522 O 43.4391 -2.14247 -5.62478 0
M  V30 523 H 47.2651 -1.95633 -2.32296 0
M  V30 524 H 44.8501 -1.01172 -1.0993 0
M  V30 525 H 46.7321 -0.374263 -4.19735 0
M  V30 526 H 45.4071 0.316939 -3.22145 0
M  V30 527 H 44.3141 -1.99961 -3.16174 0
M  V30 528 H 45.6471 -2.61421 -4.17037 0
M  V30 529 N 47.2992 1.18797 -1.03562 0
M  V30 530 C 48.7102 1.70322 -0.764676 0
M  V30 531 C 49.0612 1.82708 0.714996 0
M  V30 532 O 48.1862 1.50299 1.55689 0
M  V30 533 C 48.7812 3.09356 -1.38145 0
M  V30 534 C 47.3402 3.58114 -1.15895 0
M  V30 535 C 46.4872 2.34798 -1.4753 0
M  V30 536 H 49.4382 1.03543 -1.20268 0
M  V30 537 H 49.4592 3.72378 -0.781977 0
M  V30 538 H 48.9712 3.00309 -2.45837 0
M  V30 539 H 47.0722 3.72464 -0.100544 0
M  V30 540 H 47.1852 4.4184 -1.8524 0
M  V30 541 H 45.5492 2.38464 -0.894829 0
M  V30 542 H 46.3322 2.28375 -2.56319 0
M  V30 543 N 48.7773 0.814389 1.34928 0
M  V30 544 C 50.0543 0.321363 1.92942 0
M  V30 545 C 50.4343 -1.19014 1.74353 0
M  V30 546 O 49.7823 -1.99328 1.11716 0
M  V30 547 C 49.9923 0.741323 3.41036 0
M  V30 548 C 51.3403 0.735266 4.18185 0
M  V30 549 O 52.3643 0.68336 3.49584 0
M  V30 550 O 51.2233 0.800703 5.40602 0
M  V30 551 H 48.3173 0.0858893 0.822528 0
M  V30 552 H 50.8633 0.898609 1.43955 0
M  V30 553 H 49.6353 1.78276 3.4833 0
M  V30 554 H 49.2583 0.139307 3.97356 0
M  V30 555 N 50.2554 -1.46986 0.568584 0
M  V30 556 C 51.2034 -2.31858 -0.185649 0
M  V30 557 C 52.1974 -1.43624 -0.898249 0
M  V30 558 O 53.4034 -1.60327 -0.818242 0
M  V30 559 H 49.7784 -0.747866 -0.0787399 0
M  V30 560 H 51.7494 -2.93303 0.549191 0
M  V30 561 C 50.4984 -3.26513 -1.19519 0
M  V30 562 H 49.8214 -3.94377 -0.656285 0
M  V30 563 H 51.2614 -3.88707 -1.6936 0
M  V30 564 C 49.7204 -2.50847 -2.24894 0
M  V30 565 O 50.2504 -2.26119 -3.32014 0
M  V30 566 N 48.4564 -2.11656 -1.99124 0
M  V30 567 H 48.0034 -2.31966 -1.12024 0
M  V30 568 H 47.9614 -1.61347 -2.69842 0
M  V30 569 N 51.7335 -0.305618 -1.54608 0
M  V30 570 C 52.6835 0.583595 -2.20405 0
M  V30 571 C 53.6675 1.09539 -1.17856 0
M  V30 572 O 54.8595 1.0354 -1.43557 0
M  V30 573 C 51.9885 1.75277 -2.95183 0
M  V30 574 C 51.0745 1.25672 -4.05052 0
M  V30 575 N 51.4655 0.478998 -5.03527 0
M  V30 576 C 49.7635 1.53704 -4.18678 0
M  V30 577 C 50.4645 0.214269 -5.81305 0
M  V30 578 N 49.4405 0.795374 -5.3775 0
M  V30 579 H 53.2425 -0.0180946 -2.93894 0
M  V30 580 H 50.7565 -0.110601 -1.62023 0
M  V30 581 H 52.7535 2.4014 -3.40791 0
M  V30 582 H 51.4135 2.35812 -2.23211 0
M  V30 583 H 52.4245 0.123473 -5.17753 0
M  V30 584 H 49.1015 2.14954 -3.57912 0
M  V30 585 H 50.4915 -0.410656 -6.70644 0
M  V30 586 N 53.2116 1.57565 -0.0334293 0
M  V30 587 C 54.4576 1.92262 0.645226 0
M  V30 588 C 54.7906 0.910543 1.71531 0
M  V30 589 O 54.0656 -0.066099 1.94388 0
M  V30 590 C 54.3486 3.37422 1.2577 0
M  V30 591 C 54.2016 4.49369 0.196891 0
M  V30 592 C 55.5206 3.82628 2.17449 0
M  V30 593 H 52.6396 0.699171 0.233085 0
M  V30 594 H 55.2816 1.89779 -0.0915694 0
M  V30 595 H 53.4316 3.39669 1.88566 0
M  V30 596 H 55.1036 4.59254 -0.433962 0
M  V30 597 H 53.3466 4.31168 -0.477137 0
M  V30 598 H 54.0176 5.47978 0.665124 0
M  V30 599 H 56.4936 3.82145 1.64634 0
M  V30 600 H 55.3696 4.84883 2.57254 0
M  V30 601 H 55.6306 3.18376 3.0674 0
M  V30 602 N 54.6897 -0.239769 1.55765 0
M  V30 603 C 55.9197 -0.982743 1.8173 0
M  V30 604 C 56.3277 -1.7917 0.607835 0
M  V30 605 O 55.6707 -1.78525 -0.432973 0
M  V30 606 C 55.7327 -1.96332 3.01155 0
M  V30 607 C 55.3967 -1.34062 4.36894 0
M  V30 608 C 56.3937 -0.739539 5.14613 0
M  V30 609 C 54.0787 -1.35784 4.83599 0
M  V30 610 C 56.0727 -0.163989 6.37189 0
M  V30 611 C 53.7597 -0.778441 6.06122 0
M  V30 612 C 54.7577 -0.182548 6.82756 0
M  V30 613 O 54.4457 0.387887 8.02964 0
M  V30 614 H 54.1777 -0.294481 0.608487 0
M  V30 615 H 56.7317 -0.26572 2.03674 0
M  V30 616 H 54.9617 -2.71884 2.74984 0
M  V30 617 H 56.6507 -2.57032 3.14149 0
M  V30 618 H 57.4167 -0.718687 4.79646 0
M  V30 619 H 53.2957 -1.81105 4.23936 0
M  V30 620 H 56.8397 0.301753 6.96947 0
M  V30 621 H 52.7367 -0.796645 6.40565 0
M  V30 622 H 53.5047 0.28044 8.18019 0
M  V30 623 N 56.1678 -1.49265 -0.50573 0
M  V30 624 C 57.3958 -1.62215 -1.28429 0
M  V30 625 C 57.8108 -0.291697 -1.86533 0
M  V30 626 O 57.1678 0.722233 -1.67601 0
M  V30 627 C 57.2188 -2.68735 -2.41793 0
M  V30 628 O 56.9398 -3.96619 -1.86078 0
M  V30 629 C 58.4408 -2.92346 -3.3324 0
M  V30 630 H 55.6608 -0.546239 -0.389697 0
M  V30 631 H 58.2048 -1.95265 -0.607609 0
M  V30 632 H 56.3598 -2.38476 -3.053 0
M  V30 633 H 56.7738 -4.55256 -2.60465 0
M  V30 634 H 58.2478 -3.70623 -4.09075 0
M  V30 635 H 58.7248 -2.02081 -3.89948 0
M  V30 636 H 59.3308 -3.24003 -2.75503 0
M  V30 637 N 57.6459 0.756429 -1.3826 0
M  V30 638 C 59.0619 1.0591 -1.19395 0
M  V30 639 C 59.2619 2.01459 -0.0406567 0
M  V30 640 O 58.3179 2.44909 0.614467 0
M  V30 641 C 59.6309 1.64191 -2.51916 0
M  V30 642 C 61.1789 1.76376 -2.58574 0
M  V30 643 C 61.6539 2.38069 -3.91264 0
M  V30 644 N 63.1449 2.45503 -3.92788 0
M  V30 645 C 63.8799 2.94126 -4.92217 0
M  V30 646 N 63.3759 3.42805 -6.02043 0
M  V30 647 N 65.1689 2.9314 -4.7961 0
M  V30 648 H 57.3199 0.122313 -2.12048 0
M  V30 649 H 59.5829 0.116892 -0.940766 0
M  V30 650 H 59.2889 1.01451 -3.3675 0
M  V30 651 H 59.1629 2.6329 -2.70108 0
M  V30 652 H 61.5499 2.38244 -1.74137 0
M  V30 653 H 61.6309 0.759894 -2.44252 0
M  V30 654 H 61.2749 1.76835 -4.76121 0
M  V30 655 H 61.2049 3.39091 -4.02895 0
M  V30 656 H 63.6959 2.1107 -3.13461 0
M  V30 657 H 64.0089 3.78354 -6.73846 0
M  V30 658 H 62.3539 3.4087 -6.05667 0
M  V30 659 H 65.5449 2.54419 -3.92923 0
M  V30 660 H 65.7179 3.30721 -5.5725 0
M  V30 661 N 59.124 1.23083 0.984299 0
M  V30 662 C 60.087 1.00979 2.05757 0
M  V30 663 C 61.087 -0.0269573 1.60777 0
M  V30 664 O 62.277 0.212403 1.729 0
M  V30 665 C 59.409 0.527072 3.36801 0
M  V30 666 H 60.602 1.9622 2.26799 0
M  V30 667 H 58.155 1.05072 1.15714 0
M  V30 668 H 58.89 -0.429294 3.21446 0
M  V30 669 H 58.675 1.27515 3.70786 0
M  V30 670 H 60.165 0.392942 4.15747 0
M  V30 671 N 60.6021 -1.18246 1.0419 0
M  V30 672 C 61.5651 -2.20128 0.638452 0
M  V30 673 C 62.5651 -1.57885 -0.304805 0
M  V30 674 O 63.7551 -1.73967 -0.0900369 0
M  V30 675 C 60.8871 -3.4084 -0.0637751 0
M  V30 676 H 62.0801 -2.57336 1.54007 0
M  V30 677 H 59.6331 -1.32152 0.834598 0
M  V30 678 H 60.3681 -3.09166 -0.979136 0
M  V30 679 H 60.1531 -3.8726 0.614198 0
M  V30 680 H 61.6431 -4.16274 -0.332512 0
M  V30 681 N 62.0802 -0.821533 -1.34494 0
M  V30 682 C 63.3262 -0.409552 -1.98622 0
M  V30 683 C 63.6592 1.0244 -1.64984 0
M  V30 684 O 62.9342 1.71325 -0.920758 0
M  V30 685 C 63.2172 -0.610458 -3.54888 0
M  V30 686 C 63.0702 -2.09043 -3.98273 0
M  V30 687 C 64.3892 -0.0455379 -4.40076 0
M  V30 688 H 61.5082 -0.15028 -0.721516 0
M  V30 689 H 64.1502 -1.03384 -1.59411 0
M  V30 690 H 62.3002 -0.079044 -3.8842 0
M  V30 691 H 63.9722 -2.68537 -3.75081 0
M  V30 692 H 62.2152 -2.58139 -3.48635 0
M  V30 693 H 62.8862 -2.18182 -5.07051 0
M  V30 694 H 65.3622 -0.499557 -4.1309 0
M  V30 695 H 64.2382 -0.215922 -5.48475 0
M  V30 696 H 64.4992 1.04939 -4.29465 0
M  V30 697 N 63.5583 1.46682 -0.576371 0
M  V30 698 C 64.5213 2.28707 0.150239 0
M  V30 699 C 65.5213 1.38035 0.824794 0
M  V30 700 O 66.7113 1.60476 0.677719 0
M  V30 701 C 63.8433 3.18248 1.22192 0
M  V30 702 H 65.0363 2.94423 -0.570521 0
M  V30 703 H 62.5893 1.52688 -0.334078 0
M  V30 704 H 63.3243 2.57265 1.97447 0
M  V30 705 H 63.1093 3.85 0.742812 0
M  V30 706 H 64.5993 3.80001 1.73172 0
M  V30 707 N 65.0364 0.313813 1.54444 0
M  V30 708 C 65.9994 -0.54379 2.22656 0
M  V30 709 C 66.9994 -1.05124 1.21678 0
M  V30 710 O 68.1894 -0.945225 1.46325 0
M  V30 711 C 65.3214 -1.75427 2.92298 0
M  V30 712 H 66.5144 0.0523599 2.99854 0
M  V30 713 H 64.0674 0.0647834 1.56166 0
M  V30 714 H 64.8024 -2.38991 2.19211 0
M  V30 715 H 64.5874 -1.39791 3.66334 0
M  V30 716 H 66.0774 -2.36325 3.44297 0
M  V30 717 N 66.5145 -1.57545 0.0417849 0
M  V30 718 C 67.7915 -1.83642 -0.673433 0
M  V30 719 C 68.1715 -0.928298 -1.89594 0
M  V30 720 O 67.5195 0.0129955 -2.28496 0
M  V30 721 C 67.7295 -3.33155 -1.03964 0
M  V30 722 C 69.0775 -3.99941 -1.42592 0
M  V30 723 O 70.1015 -3.37725 -1.13226 0
M  V30 724 O 68.9605 -5.09619 -1.9736 0
M  V30 725 H 66.0545 -0.757638 -0.331533 0
M  V30 726 H 68.6005 -1.69554 0.070433 0
M  V30 727 H 67.3725 -3.9093 -0.170098 0
M  V30 728 H 66.9955 -3.52396 -1.84126 0
M  V30 729 N 67.9926 0.231505 -1.5589 0
M  V30 730 C 68.9556 1.27028 -1.90779 0
M  V30 731 C 69.9556 1.40308 -0.785507 0
M  V30 732 O 71.1456 1.38744 -1.05336 0
M  V30 733 C 68.2776 2.64566 -2.14983 0
M  V30 734 H 69.4706 0.973017 -2.83677 0
M  V30 735 H 67.0236 0.471486 -1.49019 0
M  V30 736 H 67.7586 2.99406 -1.24604 0
M  V30 737 H 67.5436 2.56305 -2.96732 0
M  V30 738 H 69.0336 3.39543 -2.43105 0
M  V30 739 N 69.4707 1.49531 0.497807 0
M  V30 740 C 70.4177 1.66436 1.59899 0
M  V30 741 C 71.3877 0.505793 1.58212 0
M  V30 742 O 72.5727 0.733202 1.7615 0
M  V30 743 C 69.7127 1.7399 2.98029 0
M  V30 744 C 68.8257 3.01172 3.09708 0
M  V30 745 C 67.9607 2.99686 4.38591 0
M  V30 746 C 66.9997 4.21434 4.43914 0
M  V30 747 N 66.1367 4.1784 5.64229 0
M  V30 748 H 70.9767 2.60459 1.44793 0
M  V30 749 H 68.5137 1.29137 0.704423 0
M  V30 750 H 70.4717 1.76352 3.78095 0
M  V30 751 H 69.1017 0.834301 3.11832 0
M  V30 752 H 68.1537 3.08408 2.22685 0
M  V30 753 H 69.4657 3.91165 3.09502 0
M  V30 754 H 68.6197 3.00628 5.2698 0
M  V30 755 H 67.3587 2.07477 4.41367 0
M  V30 756 H 66.3637 4.20733 3.53926 0
M  V30 757 H 67.5887 5.14839 4.42851 0
M  V30 758 H 65.5347 3.28469 5.67841 0
M  V30 759 H 65.4517 5.01571 5.65652 0
M  V30 760 H 66.7197 4.22889 6.54817 0
M  V30 761 N 70.9488 -0.749086 1.3866 0
M  V30 762 C 71.8808 -1.87273 1.32142 0
M  V30 763 C 72.8938 -1.61127 0.232787 0
M  V30 764 O 74.0828 -1.71623 0.49069 0
M  V30 765 C 71.1828 -3.23005 1.02571 0
M  V30 766 C 70.3558 -3.7662 2.22433 0
M  V30 767 C 69.4148 -4.90879 1.89537 0
M  V30 768 O 68.4408 -5.05276 2.62078 0
M  V30 769 N 69.6428 -5.74198 0.853031 0
M  V30 770 H 72.4078 -1.93373 2.28969 0
M  V30 771 H 69.9688 -0.929216 1.32579 0
M  V30 772 H 71.9608 -3.96992 0.786085 0
M  V30 773 H 70.5308 -3.12262 0.145249 0
M  V30 774 H 69.7508 -2.94147 2.62434 0
M  V30 775 H 71.0388 -4.09173 3.02415 0
M  V30 776 H 70.4368 -5.6514 0.25155 0
M  V30 777 H 68.9938 -6.48313 0.67329 0
M  V30 778 N 72.4269 -1.23603 -0.977757 0
M  V30 779 C 73.6669 -1.08148 -1.73446 0
M  V30 780 C 74.0309 0.374785 -1.88307 0
M  V30 781 O 75.2319 0.650588 -2.60808 0
M  V30 782 C 73.5029 -1.78991 -3.0935 0
M  V30 783 S 75.0619 -1.79141 -4.00567 0
M  V30 784 H 71.8799 -0.386987 -0.596458 0
M  V30 785 H 74.4819 -1.5678 -1.16792 0
M  V30 786 H 73.1859 -2.8408 -2.96187 0
M  V30 787 H 72.7169 -1.30651 -3.71071 0
M  V30 788 H 74.7319 -0.851892 -4.88833 0
M  V30 789 N 73.905 1.17692 -1.04816 0
M  V30 790 C 75.13 1.92327 -0.776207 0
M  V30 791 C 75.555 1.76082 0.661581 0
M  V30 792 O 74.913 1.076 1.45917 0
M  V30 793 C 74.961 3.41539 -1.15687 0
M  V30 794 O 74.065 4.11402 -0.286775 0
M  V30 795 H 73.406 0.599735 -0.284981 0
M  V30 796 H 75.936 1.49201 -1.4 0
M  V30 797 H 75.946 3.92269 -1.12202 0
M  V30 798 H 74.621 3.52684 -2.20425 0
M  V30 799 H 73.198 3.70939 -0.381903 0
M  V30 800 N 75.3831 0.828654 1.34056 0
M  V30 801 C 76.3301 0.252567 2.29414 0
M  V30 802 C 77.3001 -0.62588 1.53857 0
M  V30 803 O 78.4851 -0.566312 1.82202 0
M  V30 804 C 75.6251 -0.574831 3.40279 0
M  V30 805 C 74.7381 0.326499 4.30764 0
M  V30 806 C 73.8731 -0.511016 5.28736 0
M  V30 807 C 72.9121 0.389342 6.1086 0
M  V30 808 N 72.0491 -0.409439 7.00905 0
M  V30 809 H 76.8891 1.07108 2.78086 0
M  V30 810 H 74.4261 0.539677 1.36843 0
M  V30 811 H 76.3841 -1.06992 4.03248 0
M  V30 812 H 75.0141 -1.35841 2.92826 0
M  V30 813 H 74.0661 0.939837 3.68607 0
M  V30 814 H 75.3781 1.01857 4.88289 0
M  V30 815 H 74.5321 -1.07035 5.97184 0
M  V30 816 H 73.2711 -1.23657 4.71763 0
M  V30 817 H 72.2761 0.960769 5.4134 0
M  V30 818 H 73.5011 1.1131 6.69916 0
M  V30 819 H 71.4471 -1.11856 6.46393 0
M  V30 820 H 71.3641 0.224126 7.55668 0
M  V30 821 H 72.6321 -0.951336 7.73673 0
M  V30 822 N 76.8612 -1.46375 0.584142 0
M  V30 823 C 78.1102 -2.01585 0.0679741 0
M  V30 824 C 78.4232 -1.46109 -1.30045 0
M  V30 825 O 79.6292 -1.93148 -1.90804 0
M  V30 826 C 78.0852 -3.5983 0.0709207 0
M  V30 827 C 77.6932 -4.24303 1.43775 0
M  V30 828 C 79.4372 -4.22693 -0.391228 0
M  V30 829 C 77.3442 -5.74631 1.39834 0
M  V30 830 H 76.2742 -0.753689 0.0216421 0
M  V30 831 H 78.9252 -1.68093 0.736001 0
M  V30 832 H 77.3072 -3.90405 -0.663299 0
M  V30 833 H 78.4812 -4.05335 2.19181 0
M  V30 834 H 76.7962 -3.73539 1.84004 0
M  V30 835 H 79.3932 -5.3289 -0.439524 0
M  V30 836 H 79.7362 -3.91728 -1.40906 0
M  V30 837 H 80.2692 -3.96749 0.288974 0
M  V30 838 H 77.0082 -6.10258 2.39303 0
M  V30 839 H 76.5282 -5.95858 0.686505 0
M  V30 840 H 78.2072 -6.37375 1.11187 0
M  V30 841 N 78.3393 -0.321999 -1.54275 0
M  V30 842 C 79.5873 0.280489 -2.00144 0
M  V30 843 C 79.9083 1.52777 -1.21178 0
M  V30 844 O 79.1783 1.9338 -0.313187 0
M  V30 845 H 77.7583 0.106632 -0.73935 0
M  V30 846 H 80.4203 -0.438184 -1.8991 0
M  V30 847 H 79.5163 0.537972 -3.07428 0
M  V30 848 N 79.8174 1.5752 -0.0501392 0
M  V30 849 C 81.2334 1.56631 0.306402 0
M  V30 850 C 81.4334 1.0577 1.71508 0
M  V30 851 O 80.4894 0.713837 2.422 0
M  V30 852 C 81.8024 3.00393 0.135811 0
M  V30 853 C 83.3504 3.12315 0.206993 0
M  V30 854 C 83.8254 4.57954 0.064944 0
M  V30 855 N 85.3164 4.63041 0.121254 0
M  V30 856 C 86.0514 5.73389 0.0354381 0
M  V30 857 N 85.5474 6.92724 -0.102666 0
M  V30 858 N 87.3404 5.62026 0.090946 0
M  V30 859 H 79.4914 1.88903 -0.971046 0
M  V30 860 H 81.7544 0.869876 -0.376855 0
M  V30 861 H 81.4604 3.41635 -0.835384 0
M  V30 862 H 81.3344 3.66373 0.897275 0
M  V30 863 H 83.7214 2.70973 1.16866 0
M  V30 864 H 83.8024 2.49016 -0.585208 0
M  V30 865 H 83.4464 4.99981 -0.893394 0
M  V30 866 H 83.3764 5.19258 0.876277 0
M  V30 867 H 85.8674 3.77216 0.227284 0
M  V30 868 H 86.1804 7.72633 -0.160882 0
M  V30 869 H 84.5254 6.94864 -0.137737 0
M  V30 870 H 87.7164 4.67684 0.197388 0
M  V30 871 H 87.8894 6.47997 0.0206089 0
M  V30 872 N 81.2955 -0.223234 1.56011 0
M  V30 873 C 82.5725 -0.972108 1.69733 0
M  V30 874 C 82.9525 -2.02485 0.59691 0
M  V30 875 O 82.3005 -2.25037 -0.396324 0
M  V30 876 C 82.5105 -1.58407 3.10979 0
M  V30 877 C 83.8585 -2.07696 3.70334 0
M  V30 878 O 84.8825 -1.68304 3.1393 0
M  V30 879 O 83.7415 -2.80096 4.69264 0
M  V30 880 H 80.8355 -0.453993 0.691245 0
M  V30 881 H 83.3815 -0.215149 1.68331 0
M  V30 882 H 82.1535 -0.823831 3.82529 0
M  V30 883 H 81.7765 -2.40661 3.16493 0
M  V30 884 N 82.7736 -1.49793 -0.48987 0
M  V30 885 C 83.7366 -1.66752 -1.57246 0
M  V30 886 C 84.7366 -0.538867 -1.51502 0
M  V30 887 O 85.9266 -0.805545 -1.54456 0
M  V30 888 C 83.0586 -1.67528 -2.96896 0
M  V30 889 H 84.2516 -2.63321 -1.43534 0
M  V30 890 H 81.8046 -1.38992 -0.714914 0
M  V30 891 H 82.5396 -0.725837 -3.16073 0
M  V30 892 H 82.3246 -2.49504 -3.02473 0
M  V30 893 H 83.8146 -1.82667 -3.7553 0
M  V30 894 N 84.2517 0.741722 -1.39055 0
M  V30 895 C 85.1817 1.869 -1.39966 0
M  V30 896 C 86.1627 1.6804 -0.26392 0
M  V30 897 O 87.3477 1.88458 -0.468755 0
M  V30 898 C 84.4777 3.24572 -1.23574 0
M  V30 899 C 83.4317 3.58056 -2.34477 0
M  V30 900 C 82.7577 4.94593 -2.0318 0
M  V30 901 C 84.0577 3.61716 -3.76774 0
M  V30 902 H 85.7517 1.86395 -2.34302 0
M  V30 903 H 83.2977 0.895361 -1.1278 0
M  V30 904 H 85.2507 4.031 -1.22834 0
M  V30 905 H 83.9747 3.25587 -0.257045 0
M  V30 906 H 82.6337 2.81854 -2.34423 0
M  V30 907 H 82.2817 4.92181 -1.03765 0
M  V30 908 H 81.9817 5.17964 -2.77465 0
M  V30 909 H 83.5057 5.75486 -2.04079 0
M  V30 910 H 84.9197 4.30335 -3.78794 0
M  V30 911 H 83.3167 3.96603 -4.50362 0
M  V30 912 H 84.3867 2.61672 -4.08235 0
M  V30 913 N 85.7298 1.2412 0.971189 0
M  V30 914 C 87.1458 1.00584 1.23916 0
M  V30 915 C 87.3458 -0.287481 1.99439 0
M  V30 916 O 86.4018 -1.00454 2.31658 0
M  V30 917 C 87.7148 2.21864 2.0297 0
M  V30 918 C 89.2628 2.26452 2.16076 0
M  V30 919 C 89.7378 3.47343 2.98524 0
M  V30 920 N 91.2288 3.47639 3.06107 0
M  V30 921 C 91.9638 4.37837 3.70251 0
M  V30 922 N 91.4598 5.38286 4.36142 0
M  V30 923 N 93.2528 4.25558 3.67228 0
M  V30 924 H 85.4038 2.07236 0.465499 0
M  V30 925 H 87.6668 0.909236 0.268315 0
M  V30 926 H 87.3728 3.15771 1.54861 0
M  V30 927 H 87.2468 2.23698 3.03709 0
M  V30 928 H 89.6338 1.33078 2.6339 0
M  V30 929 H 89.7148 2.28645 1.14696 0
M  V30 930 H 89.3588 4.41029 2.51905 0
M  V30 931 H 89.2888 3.42393 4.00093 0
M  V30 932 H 91.7798 2.74966 2.59233 0
M  V30 933 H 92.0928 6.03352 4.82894 0
M  V30 934 H 90.4378 5.42176 4.34822 0
M  V30 935 H 93.6288 3.46322 3.14927 0
M  V30 936 H 93.8018 4.96054 4.16935 0
M  V30 937 N 87.2079 -1.17134 1.05439 0
M  V30 938 C 88.4849 -1.83411 0.679699 0
M  V30 939 C 88.8649 -1.9368 -0.839726 0
M  V30 940 O 88.2129 -1.47325 -1.74664 0
M  V30 941 C 88.4229 -3.20918 1.37159 0
M  V30 942 C 89.7709 -3.96796 1.51123 0
M  V30 943 O 90.7949 -3.30406 1.3308 0
M  V30 944 O 89.6539 -5.15778 1.80651 0
M  V30 945 H 86.7479 -0.79154 0.239569 0
M  V30 946 H 89.2939 -1.24411 1.15413 0
M  V30 947 H 88.0659 -3.08428 2.40807 0
M  V30 948 H 87.6889 -3.87587 0.886674 0
M  V30 949 N 88.686 -0.835752 -1.33615 0
M  V30 950 C 89.934 -0.429109 -1.97492 0
M  V30 951 C 90.255 1.01433 -1.66543 0
M  V30 952 O 89.525 1.70611 -0.962744 0
M  V30 953 H 88.105 -0.155686 -0.730596 0
M  V30 954 H 90.767 -1.06802 -1.63031 0
M  V30 955 H 89.863 -0.55861 -3.0706 0
M  V30 956 N 90.1641 1.46063 -0.591896 0
M  V30 957 C 91.4121 2.01938 -0.0808391 0
M  V30 958 C 91.7331 1.46475 1.28725 0
M  V30 959 O 91.0031 0.652944 1.84698 0
M  V30 960 H 89.5831 0.746516 -0.0268938 0
M  V30 961 H 92.2451 1.79055 -0.769752 0
M  V30 962 H 91.3411 3.12094 -0.0187578 0
M  V30 963 N 91.6422 0.330177 1.54103 0
M  V30 964 C 92.8672 -0.274893 2.0557 0
M  V30 965 C 93.2922 -1.44487 1.20437 0
M  V30 966 O 92.6502 -1.80021 0.214991 0
M  V30 967 C 92.6982 -0.68079 3.54115 0
M  V30 968 O 91.8022 -1.7824 3.71893 0
M  V30 969 H 91.1432 -0.0483849 0.662235 0
M  V30 970 H 93.6732 0.480508 1.98878 0
M  V30 971 H 93.6832 -0.961635 3.96505 0
M  V30 972 H 92.3582 0.174903 4.15532 0
M  V30 973 H 90.9352 -1.49985 3.41407 0
M  V30 974 N 93.1203 -1.57491 0.0584922 0
M  V30 975 C 94.0833 -2.1085 -0.898617 0
M  V30 976 C 95.0833 -1.02964 -1.23511 0
M  V30 977 O 96.2733 -1.29007 -1.17059 0
M  V30 978 C 93.4053 -2.59881 -2.20623 0
M  V30 979 H 94.5983 -2.96715 -0.435936 0
M  V30 980 H 92.1513 -1.55141 -0.190023 0
M  V30 981 H 92.8863 -1.77431 -2.71457 0
M  V30 982 H 92.6713 -3.38727 -1.97501 0
M  V30 983 H 94.1613 -3.01285 -2.89166 0
M  V30 984 N 94.5984 0.214957 -1.56127 0
M  V30 985 C 95.8444 0.939762 -1.79712 0
M  V30 986 C 96.1774 1.83723 -0.629247 0
M  V30 987 O 95.4524 1.90925 0.371197 0
M  V30 988 C 95.7354 1.77306 -3.13424 0
M  V30 989 C 95.5884 0.90164 -4.40671 0
M  V30 990 C 96.9074 2.74956 -3.43638 0
M  V30 991 H 94.0264 0.340214 -0.653776 0
M  V30 992 H 96.6684 0.20824 -1.88855 0
M  V30 993 H 94.8184 2.39673 -3.0576 0
M  V30 994 H 96.4904 0.294206 -4.60361 0
M  V30 995 H 94.7334 0.207368 -4.33304 0
M  V30 996 H 95.4044 1.51923 -5.30682 0
M  V30 997 H 97.8804 2.22724 -3.51473 0
M  V30 998 H 96.7564 3.30358 -4.38355 0
M  V30 999 H 97.0174 3.53023 -2.66134 0
M  V30 1000 N 96.0765 1.50051 0.48192 0
M  V30 1001 C 97.3535 1.51009 1.2432 0
M  V30 1002 C 97.7335 0.248587 2.09631 0
M  V30 1003 O 97.0815 -0.768409 2.15192 0
M  V30 1004 C 97.2915 2.79981 2.08355 0
M  V30 1005 C 98.6395 3.3022 2.66908 0
M  V30 1006 O 99.6635 2.81228 2.18607 0
M  V30 1007 O 98.5225 4.15595 3.54884 0
M  V30 1008 H 95.6165 0.605239 0.563573 0
M  V30 1009 H 98.1625 1.62332 0.494627 0
M  V30 1010 H 96.9345 3.63275 1.45419 0
M  V30 1011 H 96.5575 2.7161 2.90368 0
M  V30 1012 N 97.5546 -0.734337 1.39446 0
M  V30 1013 C 98.5176 -1.83004 1.37994 0
M  V30 1014 C 99.5176 -1.58397 0.276938 0
M  V30 1015 O 100.708 -1.65785 0.534875 0
M  V30 1016 C 97.8396 -3.20802 1.1532 0
M  V30 1017 H 99.0326 -1.85694 2.35494 0
M  V30 1018 H 96.5856 -0.938059 1.25021 0
M  V30 1019 H 97.3206 -3.23772 0.185036 0
M  V30 1020 H 97.1056 -3.4006 1.95197 0
M  V30 1021 H 98.5956 -4.00862 1.17046 0
M  V30 1022 N 99.0327 -1.24633 -0.964593 0
M  V30 1023 C 99.9957 -1.0424 -2.04124 0
M  V30 1024 C 100.996 0.00137563 -1.608 0
M  V30 1025 O 102.186 -0.239883 -1.7254 0
M  V30 1026 C 99.3177 -0.580588 -3.3592 0
M  V30 1027 H 100.511 -1.99803 -2.23649 0
M  V30 1028 H 98.0637 -1.06899 -1.14027 0
M  V30 1029 H 98.7987 0.3781 -3.22088 0
M  V30 1030 H 98.5837 -1.33398 -3.6871 0
M  V30 1031 H 100.074 -0.459034 -4.15069 0
M  V30 1032 N 100.511 1.16574 -1.06058 0
M  V30 1033 C 101.76 1.86385 -0.770944 0
M  V30 1034 C 102.073 1.82448 0.705129 0
M  V30 1035 O 103.279 2.47815 1.10905 0
M  V30 1036 C 101.735 3.34466 -1.32893 0
M  V30 1037 C 101.343 3.46883 -2.83507 0
M  V30 1038 C 103.087 4.09548 -1.11672 0
M  V30 1039 C 100.994 4.89036 -3.32562 0
M  V30 1040 H 99.9238 0.698181 -0.284709 0
M  V30 1041 H 102.575 1.31583 -1.27899 0
M  V30 1042 H 100.957 3.88859 -0.748662 0
M  V30 1043 H 102.131 3.02663 -3.47465 0
M  V30 1044 H 100.446 2.85232 -3.03368 0
M  V30 1045 H 103.043 5.14434 -1.45814 0
M  V30 1046 H 103.386 4.16264 -0.0549535 0
M  V30 1047 H 103.919 3.61387 -1.66265 0
M  V30 1048 H 100.658 4.87499 -4.38207 0
M  V30 1049 H 100.178 5.3389 -2.73351 0
M  V30 1050 H 101.857 5.57843 -3.2775 0
M  V30 1051 N 101.989 0.842826 1.3317 0
M  V30 1052 C 102.952 0.284065 2.27433 0
M  V30 1053 C 103.952 -0.54948 1.5112 0
M  V30 1054 O 105.142 -0.362699 1.70382 0
M  V30 1055 C 102.274 -0.599384 3.35589 0
M  V30 1056 H 103.467 1.11589 2.78366 0
M  V30 1057 H 101.02 0.616221 1.4364 0
M  V30 1058 H 101.755 -1.45349 2.89904 0
M  V30 1059 H 101.54 -0.00291266 3.921 0
M  V30 1060 H 103.03 -0.983488 4.05854 0
M  V30 1061 N 103.467 -1.45747 0.599634 0
M  V30 1062 C 104.43 -2.28917 -0.113835 0
M  V30 1063 C 105.43 -1.3933 -0.802729 0
M  V30 1064 O 106.62 -1.61534 -0.652103 0
M  V30 1065 C 103.752 -3.20152 -1.17114 0
M  V30 1066 H 104.945 -2.93478 0.617289 0
M  V30 1067 H 102.498 -1.52137 0.358327 0
M  V30 1068 H 103.233 -2.60374 -1.93329 0
M  V30 1069 H 103.018 -3.86133 -0.681468 0
M  V30 1070 H 104.508 -3.82708 -1.67105 0
M  V30 1071 N 104.945 -0.338344 -1.53925 0
M  V30 1072 C 105.875 0.51328 -2.27789 0
M  V30 1073 C 106.856 1.107 -1.29149 0
M  V30 1074 O 108.041 1.12937 -1.57984 0
M  V30 1075 C 105.171 1.66697 -3.04679 0
M  V30 1076 C 104.125 1.20183 -4.1078 0
M  V30 1077 C 103.451 2.44363 -4.75595 0
M  V30 1078 C 104.751 0.30605 -5.21403 0
M  V30 1079 H 106.445 -0.102883 -2.99223 0
M  V30 1080 H 103.991 -0.0509219 -1.4391 0
M  V30 1081 H 105.944 2.26915 -3.55088 0
M  V30 1082 H 104.668 2.30995 -2.30887 0
M  V30 1083 H 103.327 0.622499 -3.61276 0
M  V30 1084 H 102.975 3.07057 -3.98403 0
M  V30 1085 H 102.675 2.13925 -5.47275 0
M  V30 1086 H 104.199 3.05317 -5.28786 0
M  V30 1087 H 105.613 0.814929 -5.67478 0
M  V30 1088 H 104.01 0.0937929 -6.00027 0
M  V30 1089 H 105.08 -0.65921 -4.80398 0
M  V30 1090 N 106.423 1.57458 -0.0668435 0
M  V30 1091 C 107.353 2.15468 0.899764 0
M  V30 1092 C 108.334 1.08042 1.31381 0
M  V30 1093 O 109.519 1.36054 1.38574 0
M  V30 1094 C 106.649 2.71232 2.16911 0
M  V30 1095 C 105.603 3.83781 1.89463 0
M  V30 1096 C 104.929 4.26127 3.22986 0
M  V30 1097 C 106.229 5.08238 1.20381 0
M  V30 1098 H 107.923 2.96488 0.416529 0
M  V30 1099 H 105.469 1.4262 0.198908 0
M  V30 1100 H 107.422 3.10458 2.84945 0
M  V30 1101 H 106.146 1.87426 2.67468 0
M  V30 1102 H 104.805 3.45051 1.23836 0
M  V30 1103 H 104.453 3.39249 3.71374 0
M  V30 1104 H 104.153 5.01993 3.05413 0
M  V30 1105 H 105.677 4.67966 3.92225 0
M  V30 1106 H 107.091 5.44811 1.78475 0
M  V30 1107 H 105.488 5.89349 1.13083 0
M  V30 1108 H 106.558 4.84558 0.182153 0
M  V30 1109 N 107.901 -0.206675 1.56239 0
M  V30 1110 C 109.141 -0.93574 1.81723 0
M  V30 1111 C 109.505 -1.80927 0.642609 0
M  V30 1112 O 110.706 -2.57323 0.777081 0
M  V30 1113 C 108.977 -1.74012 3.12177 0
M  V30 1114 S 110.536 -2.52279 3.59028 0
M  V30 1115 H 107.354 -0.314065 0.637875 0
M  V30 1116 H 109.956 -0.200071 1.94474 0
M  V30 1117 H 108.66 -1.0888 3.95693 0
M  V30 1118 H 108.191 -2.51782 3.02274 0
M  V30 1119 H 110.206 -3.76209 3.23545 0
M  V30 1120 N 109.379 -1.50304 -0.473955 0
M  V30 1121 C 110.625 -1.61389 -1.22806 0
M  V30 1122 C 110.958 -0.311955 -1.91678 0
M  V30 1123 O 110.233 0.686384 -1.81986 0
M  V30 1124 C 110.516 -2.79219 -2.27396 0
M  V30 1125 C 110.369 -4.19286 -1.62848 0
M  V30 1126 C 111.688 -2.92614 -3.28732 0
M  V30 1127 H 108.807 -0.587399 -0.445119 0
M  V30 1128 H 111.449 -1.82681 -0.522265 0
M  V30 1129 H 109.599 -2.61195 -2.87592 0
M  V30 1130 H 111.271 -4.48892 -1.06271 0
M  V30 1131 H 109.514 -4.23677 -0.931693 0
M  V30 1132 H 110.185 -4.97655 -2.38838 0
M  V30 1133 H 112.661 -3.09105 -2.78556 0
M  V30 1134 H 111.537 -3.76688 -3.99246 0
M  V30 1135 H 111.798 -2.03107 -3.92683 0
M  V30 1136 N 110.857 0.726932 -1.39834 0
M  V30 1137 C 112.105 1.4837 -1.37225 0
M  V30 1138 C 112.426 1.94979 0.0284857 0
M  V30 1139 O 111.696 1.69555 0.981213 0
M  V30 1140 H 110.276 0.55043 -0.505011 0
M  V30 1141 H 112.938 0.862468 -1.74778 0
M  V30 1142 H 112.034 2.36198 -2.04003 0
M  V30 1143 N 112.336 1.25143 0.95797 0
M  V30 1144 C 113.266 1.07711 2.07173 0
M  V30 1145 C 114.247 -0.0128462 1.70095 0
M  V30 1146 O 115.432 0.156061 1.93572 0
M  V30 1147 C 112.562 0.691503 3.40346 0
M  V30 1148 C 111.516 1.73132 3.9142 0
M  V30 1149 C 110.842 1.20049 5.21049 0
M  V30 1150 C 112.142 3.1294 4.1817 0
M  V30 1151 H 113.836 2.00873 2.22014 0
M  V30 1152 H 111.382 0.967191 1.06684 0
M  V30 1153 H 113.335 0.556505 4.17709 0
M  V30 1154 H 112.059 -0.275819 3.25433 0
M  V30 1155 H 110.718 1.8547 3.16222 0
M  V30 1156 H 110.366 0.223499 5.02503 0
M  V30 1157 H 110.066 1.89545 5.56189 0
M  V30 1158 H 111.59 1.07782 6.01012 0
M  V30 1159 H 113.004 3.03775 4.86203 0
M  V30 1160 H 111.401 3.79875 4.64559 0
M  V30 1161 H 112.471 3.6025 3.24573 0
M  V30 1162 N 113.814 -1.1601 1.06675 0
M  V30 1163 C 114.747 -2.1947 0.625168 0
M  V30 1164 C 115.725 -1.58699 -0.354041 0
M  V30 1165 O 116.909 -1.86669 -0.262098 0
M  V30 1166 C 114.036 -3.38598 -0.0829593 0
M  V30 1167 C 113.082 -4.1787 0.853611 0
M  V30 1168 S 113.915 -4.81135 2.35094 0
M  V30 1169 C 115.071 -6.03639 1.65441 0
M  V30 1170 H 115.304 -2.56587 1.50168 0
M  V30 1171 H 112.837 -1.26862 0.880078 0
M  V30 1172 H 114.795 -4.07621 -0.485288 0
M  V30 1173 H 113.456 -2.99839 -0.935716 0
M  V30 1174 H 112.649 -5.03078 0.304755 0
M  V30 1175 H 112.251 -3.54361 1.196 0
M  V30 1176 H 114.543 -6.70632 0.962201 0
M  V30 1177 H 115.486 -6.63081 2.48454 0
M  V30 1178 H 115.894 -5.52965 1.13534 0
M  V30 1179 N 115.292 -0.849877 -1.32721 0
M  V30 1180 C 116.24 -0.279745 -2.30912 0
M  V30 1181 C 117.234 0.594278 -1.58634 0
M  V30 1182 O 118.44 0.482613 -1.73409 0
M  V30 1183 H 114.815 -0.0717521 -0.748569 0
M  V30 1184 H 116.786 -1.12222 -2.76494 0
M  V30 1185 C 115.535 0.521108 -3.43773 0
M  V30 1186 H 114.858 -0.142141 -3.99547 0
M  V30 1187 H 116.298 0.885693 -4.14646 0
M  V30 1188 C 114.757 1.70442 -2.90605 0
M  V30 1189 O 115.287 2.8034 -2.87702 0
M  V30 1190 N 113.493 1.52991 -2.47067 0
M  V30 1191 H 113.04 0.635914 -2.49628 0
M  V30 1192 H 112.998 2.32311 -2.11847 0
M  V30 1193 N 116.77 1.45427 -0.607355 0
M  V30 1194 C 117.733 2.28974 0.101693 0
M  V30 1195 C 118.733 1.39754 0.795329 0
M  V30 1196 O 119.923 1.61878 0.643527 0
M  V30 1197 C 117.055 3.20768 1.15414 0
M  V30 1198 H 118.248 2.93147 -0.632844 0
M  V30 1199 H 115.801 1.51945 -0.366391 0
M  V30 1200 H 116.536 2.61395 1.91945 0
M  V30 1201 H 116.321 3.86489 0.66098 0
M  V30 1202 H 117.811 3.83589 1.65073 0
M  V30 1203 N 118.248 0.346503 1.53744 0
M  V30 1204 C 119.198 -0.524953 2.21874 0
M  V30 1205 C 120.182 -1.06376 1.20718 0
M  V30 1206 O 121.374 -0.996972 1.46251 0
M  V30 1207 C 118.503 -1.6739 2.99726 0
M  V30 1208 C 117.589 -1.14888 4.08242 0
M  V30 1209 N 117.98 -0.345329 5.0462 0
M  V30 1210 C 116.278 -1.4255 4.22606 0
M  V30 1211 C 116.979 -0.0600706 5.81669 0
M  V30 1212 N 115.955 -0.65252 5.39669 0
M  V30 1213 H 119.757 0.0960091 2.93743 0
M  V30 1214 H 117.271 0.15352 1.61673 0
M  V30 1215 H 119.268 -2.3102 3.47038 0
M  V30 1216 H 117.928 -2.29811 2.29384 0
M  V30 1217 H 118.939 0.0138439 5.17898 0
M  V30 1218 H 115.616 -2.05389 3.63486 0
M  V30 1219 H 117.006 0.588321 6.69319 0
M  V30 1220 N 119.726 -1.57421 0.075193 0
M  V30 1221 C 120.951 -1.98364 -0.605515 0
M  V30 1222 C 121.376 -0.953383 -1.62149 0
M  V30 1223 O 120.734 0.0806053 -1.81121 0
M  V30 1224 C 120.782 -3.38332 -1.24756 0
M  V30 1225 O 119.886 -3.37959 -2.36342 0
M  V30 1226 H 119.227 -0.645553 -0.155428 0
M  V30 1227 H 121.757 -2.04044 0.150714 0
M  V30 1228 H 121.767 -3.75591 -1.5936 0
M  V30 1229 H 120.442 -4.12846 -0.503129 0
M  V30 1230 H 119.019 -3.12474 -2.03506 0
M  V30 1231 N 121.204 0.198386 -1.56346 0
M  V30 1232 C 122.137 1.27381 -1.89339 0
M  V30 1233 C 123.115 1.44106 -0.753134 0
M  V30 1234 O 124.299 1.59549 -1.00381 0
M  V30 1235 C 121.426 2.6409 -2.12071 0
M  V30 1236 C 120.472 2.64253 -3.34772 0
M  V30 1237 S 121.305 2.16013 -4.89999 0
M  V30 1238 C 122.461 3.54553 -5.15794 0
M  V30 1239 H 122.694 0.992058 -2.8026 0
M  V30 1240 H 120.227 0.401726 -1.49082 0
M  V30 1241 H 122.185 3.42786 -2.2585 0
M  V30 1242 H 120.846 2.89478 -1.21906 0
M  V30 1243 H 120.039 3.64768 -3.47794 0
M  V30 1244 H 119.641 1.93637 -3.1997 0
M  V30 1245 H 121.933 4.50396 -5.06112 0
M  V30 1246 H 122.876 3.46428 -6.1757 0
M  V30 1247 H 123.284 3.49313 -4.43442 0
M  V30 1248 N 122.682 1.50554 0.465978 0
M  V30 1249 C 123.93 1.61479 1.21528 0
M  V30 1250 C 124.251 0.319596 1.92363 0
M  V30 1251 O 123.521 -0.663194 1.84333 0
M  V30 1252 H 122.101 0.595055 0.451573 0
M  V30 1253 H 124.763 1.87355 0.53704 0
M  V30 1254 H 123.859 2.42846 1.96042 0
M  V30 1255 N 124.16 -0.719506 1.40217 0
M  V30 1256 C 125.409 -1.47486 1.37589 0
M  V30 1257 C 125.722 -1.9559 -0.0201568 0
M  V30 1258 O 126.928 -2.70973 -0.169049 0
M  V30 1259 C 125.384 -2.66575 2.41796 0
M  V30 1260 C 124.992 -2.25358 3.87192 0
M  V30 1261 C 126.736 -3.4433 2.48269 0
M  V30 1262 C 124.643 -3.41262 4.83005 0
M  V30 1263 H 123.573 -0.553901 0.511576 0
M  V30 1264 H 126.224 -0.783427 1.65936 0
M  V30 1265 H 124.606 -3.3787 2.06543 0
M  V30 1266 H 125.78 -1.61509 4.31569 0
M  V30 1267 H 124.095 -1.60657 3.84159 0
M  V30 1268 H 126.692 -4.30569 3.17041 0
M  V30 1269 H 127.035 -3.87872 1.51198 0
M  V30 1270 H 127.568 -2.80076 2.82493 0
M  V30 1271 H 124.307 -3.02755 5.81394 0
M  V30 1272 H 123.827 -4.0404 4.43297 0
M  V30 1273 H 125.506 -4.07383 5.02641 0
M  V30 1274 N 125.638 -1.25649 -0.95132 0
M  V30 1275 C 126.886 -1.10375 -1.69298 0
M  V30 1276 C 127.207 0.355339 -1.91735 0
M  V30 1277 O 126.477 1.25188 -1.50681 0
M  V30 1278 H 125.057 -0.405461 -0.627384 0
M  V30 1279 H 127.719 -1.57823 -1.14358 0
M  V30 1280 H 126.815 -1.61465 -2.67087 0
M  V30 1281 N 127.117 1.15442 -1.07289 0
M  V30 1282 C 128.365 1.85845 -0.794096 0
M  V30 1283 C 128.686 1.82692 0.681809 0
M  V30 1284 O 127.956 1.26741 1.49377 0
M  V30 1285 H 126.536 0.688089 -0.290763 0
M  V30 1286 H 129.198 1.39947 -1.3565 0
M  V30 1287 H 128.294 2.91001 -1.12804 0
M  V30 1288 N 128.595 0.856903 1.32268 0
M  V30 1289 C 129.843 0.460474 1.96784 0
M  V30 1290 C 130.164 -0.987701 1.68135 0
M  V30 1291 O 129.434 -1.69058 0.989765 0
M  V30 1292 H 128.014 0.167289 0.728027 0
M  V30 1293 H 130.676 1.09383 1.61312 0
M  V30 1294 H 129.772 0.60739 3.06133 0
M  V30 1295 N 130.073 -1.45103 0.615059 0
M  V30 1296 C 131.003 -2.33339 -0.0865619 0
M  V30 1297 C 131.984 -1.4727 -0.851209 0
M  V30 1298 O 133.169 -1.76026 -0.820281 0
M  V30 1299 C 130.299 -3.30095 -1.07956 0
M  V30 1300 C 129.253 -4.25858 -0.427628 0
M  V30 1301 C 128.579 -5.12361 -1.5294 0
M  V30 1302 C 129.879 -5.18165 0.655944 0
M  V30 1303 H 131.573 -2.92254 0.650224 0
M  V30 1304 H 129.119 -1.40532 0.314138 0
M  V30 1305 H 131.072 -3.90698 -1.57901 0
M  V30 1306 H 129.796 -2.69355 -1.84703 0
M  V30 1307 H 128.455 -3.66564 0.0510292 0
M  V30 1308 H 128.103 -4.47984 -2.28734 0
M  V30 1309 H 127.803 -5.77238 -1.09865 0
M  V30 1310 H 129.327 -5.75833 -2.03098 0
M  V30 1311 H 130.741 -5.72796 0.240257 0
M  V30 1312 H 129.138 -5.91559 1.00888 0
M  V30 1313 H 130.208 -4.60144 1.52957 0
M  V30 1314 N 131.551 -0.354651 -1.53558 0
M  V30 1315 C 132.798 0.238443 -2.01091 0
M  V30 1316 C 133.126 1.49663 -1.24222 0
M  V30 1317 O 132.381 1.93049 -0.321003 0
M  V30 1318 C 132.68 0.587121 -3.52545 0
M  V30 1319 C 132.346 -0.575472 -4.47213 0
M  V30 1320 C 131.008 -0.894497 -4.72813 0
M  V30 1321 C 133.36 -1.35489 -5.03281 0
M  V30 1322 C 130.688 -1.99511 -5.51736 0
M  V30 1323 C 133.04 -2.44583 -5.83405 0
M  V30 1324 C 131.704 -2.77033 -6.07296 0
M  V30 1325 H 130.974 0.0872526 -0.735845 0
M  V30 1326 H 133.621 -0.484859 -1.8526 0
M  V30 1327 H 131.926 1.39129 -3.66265 0
M  V30 1328 H 133.623 1.05809 -3.86789 0
M  V30 1329 H 130.213 -0.316774 -4.27428 0
M  V30 1330 H 134.397 -1.12167 -4.83459 0
M  V30 1331 H 129.653 -2.25063 -5.68469 0
M  V30 1332 H 133.827 -3.05401 -6.25862 0
M  V30 1333 H 131.454 -3.6244 -6.68237 0
M  V30 1334 N 133.029 1.57378 -0.0835403 0
M  V30 1335 C 133.959 2.1641 0.87686 0
M  V30 1336 C 134.94 1.09429 1.30228 0
M  V30 1337 O 136.125 1.37516 1.37124 0
M  V30 1338 C 133.255 2.73517 2.14022 0
M  V30 1339 C 132.209 3.85769 1.85381 0
M  V30 1340 C 131.535 4.29529 3.18448 0
M  V30 1341 C 132.835 5.09486 1.14984 0
M  V30 1342 H 134.529 2.96914 0.385059 0
M  V30 1343 H 132.075 1.42823 0.18377 0
M  V30 1344 H 134.028 3.13463 2.81636 0
M  V30 1345 H 132.752 1.90252 2.65465 0
M  V30 1346 H 131.411 3.46345 1.20169 0
M  V30 1347 H 131.059 3.43169 3.67755 0
M  V30 1348 H 130.759 5.05204 3.00071 0
M  V30 1349 H 132.283 4.72099 3.8724 0
M  V30 1350 H 133.697 5.46674 1.72687 0
M  V30 1351 H 132.094 5.90515 1.06826 0
M  V30 1352 H 133.164 4.84724 0.130749 0
M  V30 1353 N 134.507 -0.190092 1.56449 0
M  V30 1354 C 135.735 -0.925772 1.85033 0
M  V30 1355 C 136.15 -1.76638 0.666658 0
M  V30 1356 O 135.507 -1.78822 -0.364565 0
M  V30 1357 C 135.558 -1.81786 3.12468 0
M  V30 1358 O 135.279 -1.01118 4.26271 0
M  V30 1359 C 136.78 -2.6648 3.54265 0
M  V30 1360 H 134 -0.269872 0.614337 0
M  V30 1361 H 136.544 -0.195837 2.0356 0
M  V30 1362 H 134.699 -2.50136 2.95822 0
M  V30 1363 H 135.113 -1.61956 4.98869 0
M  V30 1364 H 136.587 -3.24722 4.46385 0
M  V30 1365 H 137.064 -3.40434 2.77491 0
M  V30 1366 H 137.67 -2.03493 3.73458 0
M  V30 1367 N 135.985 -1.50799 -0.457987 0
M  V30 1368 C 137.234 -1.6168 -1.20593 0
M  V30 1369 C 137.547 -0.32888 -1.92815 0
M  V30 1370 O 138.753 -0.316773 -2.69646 0
M  V30 1371 C 137.209 -2.8545 -2.19195 0
M  V30 1372 C 136.817 -4.21168 -1.52715 0
M  V30 1373 C 138.561 -3.05681 -2.94549 0
M  V30 1374 C 136.468 -5.3611 -2.4968 0
M  V30 1375 H 135.398 -0.602134 -0.453818 0
M  V30 1376 H 138.049 -1.77245 -0.475031 0
M  V30 1377 H 136.431 -2.63472 -2.95632 0
M  V30 1378 H 137.605 -4.53449 -0.819775 0
M  V30 1379 H 135.92 -4.06648 -0.895922 0
M  V30 1380 H 138.517 -3.88727 -3.67145 0
M  V30 1381 H 138.86 -2.17929 -3.54701 0
M  V30 1382 H 139.393 -3.27901 -2.25223 0
M  V30 1383 H 136.132 -6.26057 -1.94249 0
M  V30 1384 H 135.652 -5.0823 -3.18532 0
M  V30 1385 H 137.331 -5.6722 -3.11241 0
M  V30 1386 N 137.463 0.71206 -1.40597 0
M  V30 1387 C 138.693 1.49894 -1.42181 0
M  V30 1388 C 139.101 1.89189 -0.0208078 0
M  V30 1389 O 138.444 1.56223 0.966436 0
M  V30 1390 C 138.506 2.80215 -2.25211 0
M  V30 1391 C 138.17 2.63221 -3.73582 0
M  V30 1392 C 139.167 2.30249 -4.66135 0
M  V30 1393 C 136.852 2.79376 -4.17438 0
M  V30 1394 C 138.846 2.13645 -6.00529 0
M  V30 1395 C 136.533 2.6239 -5.51901 0
M  V30 1396 C 137.531 2.29573 -6.43262 0
M  V30 1397 O 137.219 2.12719 -7.75246 0
M  V30 1398 H 136.951 0.469031 -0.486812 0
M  V30 1399 H 139.505 0.88564 -1.85326 0
M  V30 1400 H 137.735 3.4389 -1.76852 0
M  V30 1401 H 139.424 3.41947 -2.18694 0
M  V30 1402 H 140.19 2.17398 -4.33547 0
M  V30 1403 H 136.069 3.03906 -3.46644 0
M  V30 1404 H 139.613 1.87953 -6.71803 0
M  V30 1405 H 135.51 2.74826 -5.84073 0
M  V30 1406 H 136.278 2.27611 -7.86216 0
M  V30 1407 N 138.941 1.26152 0.944643 0
M  V30 1408 C 139.889 1.07215 2.06417 0
M  V30 1409 C 140.883 9.2007e-05 1.694 0
M  V30 1410 O 142.089 0.1565 1.79318 0
M  V30 1411 H 138.464 0.329837 0.675805 0
M  V30 1412 H 140.435 2.02099 2.19541 0
M  V30 1413 C 139.184 0.718197 3.40202 0
M  V30 1414 H 138.507 1.53497 3.69159 0
M  V30 1415 H 139.947 0.625459 4.19361 0
M  V30 1416 C 138.406 -0.576435 3.31932 0
M  V30 1417 O 138.936 -1.61574 3.67773 0
M  V30 1418 N 137.142 -0.565781 2.85039 0
M  V30 1419 H 136.689 0.280367 2.5607 0
M  V30 1420 H 136.647 -1.43213 2.79888 0
M  V30 1421 N 140.419 -1.14872 1.07899 0
M  V30 1422 C 141.644 -1.90202 0.826926 0
M  V30 1423 C 142.069 -1.77774 -0.614664 0
M  V30 1424 O 141.427 -1.11431 -1.43013 0
M  V30 1425 C 141.475 -3.38352 1.24702 0
M  V30 1426 O 140.579 -4.10497 0.39575 0
M  V30 1427 H 139.92 -0.591968 0.300782 0
M  V30 1428 H 142.45 -1.45437 1.43907 0
M  V30 1429 H 142.46 -3.89156 1.22563 0
M  V30 1430 H 141.135 -3.46715 2.29698 0
M  V30 1431 H 139.712 -3.69796 0.480117 0
M  V30 1432 N 141.898 -0.863906 -1.31812 0
M  V30 1433 C 143.126 -0.486111 -2.01108 0
M  V30 1434 C 143.541 0.919755 -1.64882 0
M  V30 1435 O 142.898 1.60162 -0.874893 0
M  V30 1436 C 142.949 -0.626435 -3.56031 0
M  V30 1437 O 142.67 -1.97693 -3.90959 0
M  V30 1438 C 144.171 -0.248857 -4.42601 0
M  V30 1439 H 141.391 -0.190052 -0.643523 0
M  V30 1440 H 143.935 -1.1634 -1.68182 0
M  V30 1441 H 142.09 0.00322717 -3.874 0
M  V30 1442 H 142.504 -1.98034 -4.85678 0
M  V30 1443 H 143.978 -0.398016 -5.50563 0
M  V30 1444 H 144.455 0.811489 -4.31638 0
M  V30 1445 H 145.061 -0.853971 -4.16638 0
M  V30 1446 N 143.376 1.44774 -0.622745 0
M  V30 1447 C 144.604 2.06487 -0.130722 0
M  V30 1448 C 145.019 1.46476 1.19123 0
M  V30 1449 O 144.376 0.584502 1.72887 0
M  V30 1450 C 144.427 3.615 -0.000807207 0
M  V30 1451 O 144.148 4.19274 -1.27048 0
M  V30 1452 C 145.649 4.40229 0.520898 0
M  V30 1453 H 142.869 0.666704 -0.0758106 0
M  V30 1454 H 145.413 1.85779 -0.854774 0
M  V30 1455 H 143.568 3.81498 0.673643 0
M  V30 1456 H 143.982 5.12622 -1.1099 0
M  V30 1457 H 145.456 5.49144 0.560838 0
M  V30 1458 H 145.933 4.1108 1.54627 0
M  V30 1459 H 146.539 4.25131 -0.120018 0
M  V30 1460 N 144.854 0.36279 1.53368 0
M  V30 1461 C 146.27 0.0116182 1.59596 0
M  V30 1462 C 146.47 -1.47012 1.37803 0
M  V30 1463 O 145.526 -2.23136 1.18181 0
M  V30 1464 C 146.839 0.465052 2.97082 0
M  V30 1465 C 148.387 0.419033 3.10182 0
M  V30 1466 C 148.862 0.848235 4.50077 0
M  V30 1467 N 150.353 0.803183 4.56183 0
M  V30 1468 C 151.088 1.107 5.62613 0
M  V30 1469 N 150.584 1.47996 6.76808 0
M  V30 1470 N 152.377 1.02998 5.52583 0
M  V30 1471 H 144.528 1.32775 1.65785 0
M  V30 1472 H 146.791 0.542518 0.777417 0
M  V30 1473 H 146.497 1.49892 3.18159 0
M  V30 1474 H 146.371 -0.149786 3.76902 0
M  V30 1475 H 148.758 -0.605696 2.88817 0
M  V30 1476 H 148.839 1.06933 2.32377 0
M  V30 1477 H 148.483 1.87107 4.7218 0
M  V30 1478 H 148.413 0.175218 5.26308 0
M  V30 1479 H 150.904 0.52838 3.74188 0
M  V30 1480 H 151.217 1.69613 7.53957 0
M  V30 1481 H 149.562 1.51859 6.78206 0
M  V30 1482 H 152.753 0.737817 4.62249 0
M  V30 1483 H 152.926 1.2701 6.35431 0
M  V30 1484 N 146.332 -1.57332 0.0918853 0
M  V30 1485 C 147.279 -2.13847 -0.868211 0
M  V30 1486 C 148.249 -1.05618 -1.28196 0
M  V30 1487 O 149.434 -1.33387 -1.36427 0
M  V30 1488 C 146.574 -2.72062 -2.12312 0
M  V30 1489 C 145.687 -3.94514 -1.7602 0
M  V30 1490 C 144.822 -4.40903 -2.96273 0
M  V30 1491 C 143.861 -5.55953 -2.56092 0
M  V30 1492 N 142.998 -5.97209 -3.69169 0
M  V30 1493 H 147.838 -2.95575 -0.379406 0
M  V30 1494 H 145.375 -1.46048 -0.175606 0
M  V30 1495 H 147.333 -3.03931 -2.858 0
M  V30 1496 H 145.963 -1.93068 -2.58698 0
M  V30 1497 H 145.015 -3.68979 -0.925135 0
M  V30 1498 H 146.327 -4.7802 -1.42472 0
M  V30 1499 H 145.481 -4.74539 -3.78018 0
M  V30 1500 H 144.22 -3.56291 -3.33029 0
M  V30 1501 H 143.225 -5.21948 -1.72773 0
M  V30 1502 H 144.45 -6.42311 -2.20484 0
M  V30 1503 H 142.396 -5.15543 -4.05649 0
M  V30 1504 H 142.313 -6.75504 -3.39456 0
M  V30 1505 H 143.581 -6.35475 -4.51434 0
M  V30 1506 N 147.81 0.181792 -1.56548 0
M  V30 1507 C 148.773 1.20894 -1.94724 0
M  V30 1508 C 149.773 1.37738 -0.829747 0
M  V30 1509 O 150.963 1.35323 -1.09697 0
M  V30 1510 C 148.095 2.57593 -2.23291 0
M  V30 1511 H 149.288 0.882275 -2.86629 0
M  V30 1512 H 146.841 0.423838 -1.50444 0
M  V30 1513 H 147.576 2.95291 -1.34067 0
M  V30 1514 H 147.361 2.46735 -3.04736 0
M  V30 1515 H 148.851 3.31637 -2.53785 0
M  V30 1516 N 149.288 1.51039 0.449983 0
M  V30 1517 C 150.198 1.74261 1.57067 0
M  V30 1518 C 151.214 0.626363 1.62335 0
M  V30 1519 O 152.39 0.907162 1.79812 0
M  V30 1520 C 149.455 1.85114 2.93144 0
M  V30 1521 C 148.516 3.0893 2.98095 0
M  V30 1522 C 147.749 3.19256 4.27681 0
M  V30 1523 O 147.972 2.35835 5.19363 0
M  V30 1524 O 146.906 4.12144 4.38658 0
M  V30 1525 H 150.732 2.69303 1.40391 0
M  V30 1526 H 148.317 1.35389 0.631688 0
M  V30 1527 H 150.199 1.94311 3.73926 0
M  V30 1528 H 148.874 0.932588 3.09975 0
M  V30 1529 H 147.781 3.0522 2.16314 0
M  V30 1530 H 149.114 4.00433 2.86206 0
M  V30 1531 N 150.766 -0.704594 1.40972 0
M  V30 1532 C 152.012 -1.46675 1.40051 0
M  V30 1533 C 152.345 -1.94199 0.00641102 0
M  V30 1534 O 151.62 -1.68916 -0.964235 0
M  V30 1535 C 151.903 -2.68505 2.39952 0
M  V30 1536 C 151.756 -2.26805 3.88432 0
M  V30 1537 C 153.075 -3.70686 2.37233 0
M  V30 1538 H 150.194 -0.532015 0.510028 0
M  V30 1539 H 152.836 -0.803255 1.72185 0
M  V30 1540 H 150.986 -3.25114 2.1268 0
M  V30 1541 H 152.658 -1.75592 4.26574 0
M  V30 1542 H 150.901 -1.58685 4.03734 0
M  V30 1543 H 151.572 -3.14181 4.53866 0
M  V30 1544 H 154.048 -3.23731 2.61415 0
M  V30 1545 H 152.924 -4.53553 3.09162 0
M  V30 1546 H 153.185 -4.19754 1.38777 0
M  V30 1547 N 152.244 -1.26651 -0.937939 0
M  V30 1548 C 153.493 -1.11775 -1.67897 0
M  V30 1549 C 153.806 0.33794 -1.92659 0
M  V30 1550 O 155.012 0.607434 -2.64618 0
M  V30 1551 C 153.468 -1.9523 -3.02346 0
M  V30 1552 C 153.076 -3.45393 -2.8532 0
M  V30 1553 C 154.82 -1.88972 -3.80118 0
M  V30 1554 C 152.727 -4.21083 -4.15263 0
M  V30 1555 H 151.657 -0.414696 -0.629717 0
M  V30 1556 H 154.308 -1.50988 -1.04283 0
M  V30 1557 H 152.69 -1.48853 -3.66959 0
M  V30 1558 H 153.864 -3.99561 -2.29537 0
M  V30 1559 H 152.179 -3.52921 -2.20988 0
M  V30 1560 H 154.776 -2.42805 -4.76392 0
M  V30 1561 H 155.119 -0.86113 -4.07296 0
M  V30 1562 H 155.652 -2.33189 -3.22285 0
M  V30 1563 H 152.391 -5.24425 -3.93267 0
M  V30 1564 H 151.911 -3.71695 -4.70747 0
M  V30 1565 H 153.59 -4.29706 -4.83696 0
M  V30 1566 N 153.722 1.14298 -1.08507 0
M  V30 1567 C 154.67 2.21483 -0.710483 0
M  V30 1568 C 155.664 1.66998 0.284234 0
M  V30 1569 O 156.87 1.79401 0.146692 0
M  V30 1570 H 153.245 0.721578 -0.211729 0
M  V30 1571 H 155.216 2.50348 -1.62384 0
M  V30 1572 C 153.965 3.4743 -0.137007 0
M  V30 1573 H 153.288 3.89686 -0.893592 0
M  V30 1574 H 154.728 4.2391 0.0872789 0
M  V30 1575 C 153.187 3.17548 1.12538 0
M  V30 1576 O 153.717 3.35437 2.21009 0
M  V30 1577 N 151.923 2.71499 1.03617 0
M  V30 1578 H 151.47 2.57143 0.153403 0
M  V30 1579 H 151.428 2.51881 1.88158 0
M  V30 1580 N 155.201 0.870884 1.31352 0
M  V30 1581 C 156.164 0.332243 2.26779 0
M  V30 1582 C 157.164 -0.517302 1.52252 0
M  V30 1583 O 158.354 -0.326477 1.71113 0
M  V30 1584 C 155.486 -0.528066 3.36785 0
M  V30 1585 H 156.679 1.17469 2.75937 0
M  V30 1586 H 154.232 0.64655 1.423 0
M  V30 1587 H 154.967 -1.39167 2.92922 0
M  V30 1588 H 154.752 0.0802582 3.92018 0
M  V30 1589 H 156.242 -0.897179 4.07849 0
M  V30 1590 N 156.679 -1.44442 0.630414 0
M  V30 1591 C 158.095 -1.56832 0.295973 0
M  V30 1592 C 158.295 -1.61806 -1.20088 0
M  V30 1593 O 157.351 -1.5607 -1.9849 0
M  V30 1594 C 158.664 -2.84031 0.987264 0
M  V30 1595 C 160.212 -2.97742 0.96534 0
M  V30 1596 C 160.687 -4.27743 1.63708 0
M  V30 1597 N 162.178 -4.34555 1.60364 0
M  V30 1598 C 162.913 -5.33862 2.09234 0
M  V30 1599 N 162.409 -6.39578 2.66292 0
M  V30 1600 N 164.202 -5.25366 1.99867 0
M  V30 1601 H 156.353 -1.39457 1.60205 0
M  V30 1602 H 158.616 -0.668237 0.672431 0
M  V30 1603 H 158.322 -2.86338 2.04215 0
M  V30 1604 H 158.196 -3.73534 0.524588 0
M  V30 1605 H 160.583 -2.94989 -0.0810639 0
M  V30 1606 H 160.664 -2.09589 1.4665 0
M  V30 1607 H 160.308 -4.31255 2.68293 0
M  V30 1608 H 160.238 -5.14752 1.11076 0
M  V30 1609 H 162.729 -3.58772 1.18705 0
M  V30 1610 H 163.042 -7.11637 3.01317 0
M  V30 1611 H 161.387 -6.40265 2.70343 0
M  V30 1612 H 164.578 -4.41688 1.55013 0
M  V30 1613 H 164.751 -6.02606 2.38265 0
M  V30 1614 N 158.157 -0.370918 -1.53173 0
M  V30 1615 C 159.067 0.480823 -2.2962 0
M  V30 1616 C 160.083 1.08789 -1.35798 0
M  V30 1617 O 161.259 1.09768 -1.68858 0
M  V30 1618 C 158.324 1.60227 -3.07454 0
M  V30 1619 C 157.385 1.0222 -4.16953 0
M  V30 1620 C 156.618 2.0902 -4.91066 0
M  V30 1621 O 156.841 3.30222 -4.65091 0
M  V30 1622 O 155.775 1.71778 -5.76867 0
M  V30 1623 H 159.601 -0.141421 -3.03371 0
M  V30 1624 H 157.186 -0.135146 -1.48787 0
M  V30 1625 H 159.068 2.25417 -3.56041 0
M  V30 1626 H 157.743 2.20982 -2.36535 0
M  V30 1627 H 156.65 0.334064 -3.72605 0
M  V30 1628 H 157.983 0.459131 -4.90054 0
M  V30 1629 N 159.635 1.57281 -0.100228 0
M  V30 1630 C 160.881 1.94826 0.563101 0
M  V30 1631 C 161.214 0.982475 1.67514 0
M  V30 1632 O 160.489 0.0164069 1.94493 0
M  V30 1633 C 160.772 3.42453 1.11346 0
M  V30 1634 C 160.625 4.498 0.00612081 0
M  V30 1635 C 161.944 3.91506 2.01024 0
M  V30 1636 H 159.063 0.708428 0.203221 0
M  V30 1637 H 161.705 1.8922 -0.171979 0
M  V30 1638 H 159.855 3.47361 1.7399 0
M  V30 1639 H 161.527 4.57 -0.628357 0
M  V30 1640 H 159.77 4.28756 -0.659581 0
M  V30 1641 H 160.441 5.50306 0.432109 0
M  V30 1642 H 162.917 3.88784 1.48278 0
M  V30 1643 H 161.793 4.95358 2.36457 0
M  V30 1644 H 162.054 3.31099 2.92961 0
M  V30 1645 N 161.113 -0.173488 1.56642 0
M  V30 1646 C 162.076 -1.19859 1.95362 0
M  V30 1647 C 163.076 -1.37296 0.83704 0
M  V30 1648 O 164.266 -1.34739 1.10413 0
M  V30 1649 C 161.398 -2.56405 2.24654 0
M  V30 1650 H 162.591 -0.867062 2.87092 0
M  V30 1651 H 160.144 -0.415853 1.50666 0
M  V30 1652 H 160.879 -2.94576 1.35631 0
M  V30 1653 H 160.664 -2.45115 3.06041 0
M  V30 1654 H 162.154 -3.30287 2.5554 0
M  V30 1655 N 162.591 -1.51276 -0.441967 0
M  V30 1656 C 164.002 -1.56244 -1.02199 0
M  V30 1657 C 164.353 -0.383149 -1.92422 0
M  V30 1658 O 163.478 0.500613 -2.1053 0
M  V30 1659 C 164.073 -2.83162 -1.86024 0
M  V30 1660 C 162.632 -2.90716 -2.39084 0
M  V30 1661 C 161.779 -2.50858 -1.18175 0
M  V30 1662 H 164.73 -1.5712 -0.223416 0
M  V30 1663 H 164.751 -2.66663 -2.71425 0
M  V30 1664 H 164.263 -3.68974 -1.20331 0
M  V30 1665 H 162.364 -2.09323 -3.08244 0
M  V30 1666 H 162.477 -3.94266 -2.72198 0
M  V30 1667 H 160.841 -2.03951 -1.52565 0
M  V30 1668 H 161.624 -3.3901 -0.541001 0
M  V30 1669 N 164.069 0.697108 -1.41344 0
M  V30 1670 C 165.485 1.00751 -1.2378 0
M  V30 1671 C 165.685 2.01105 -0.126066 0
M  V30 1672 O 164.741 2.47295 0.51004 0
M  V30 1673 C 166.054 1.53359 -2.58653 0
M  V30 1674 C 167.602 1.6525 -2.65822 0
M  V30 1675 C 168.077 2.2126 -4.01009 0
M  V30 1676 N 169.568 2.28622 -4.02847 0
M  V30 1677 C 170.303 2.72984 -5.04249 0
M  V30 1678 N 169.799 3.16962 -6.16041 0
M  V30 1679 N 171.592 2.72534 -4.91611 0
M  V30 1680 H 163.743 0.0322662 -2.12375 0
M  V30 1681 H 166.006 0.0768853 -0.944877 0
M  V30 1682 H 165.712 0.870773 -3.4075 0
M  V30 1683 H 165.586 2.51597 -2.81032 0
M  V30 1684 H 167.973 2.30644 -1.84086 0
M  V30 1685 H 168.054 0.655614 -2.47256 0
M  V30 1686 H 167.698 1.56482 -4.83193 0
M  V30 1687 H 167.628 3.21698 -4.16915 0
M  V30 1688 H 170.119 1.97585 -3.22131 0
M  V30 1689 H 170.432 3.49434 -6.89287 0
M  V30 1690 H 168.777 3.14875 -6.1958 0
M  V30 1691 H 171.968 2.37525 -4.0336 0
M  V30 1692 H 172.141 3.06789 -5.70775 0
M  V30 1693 N 165.547 1.27147 0.931209 0
M  V30 1694 C 166.477 1.12081 2.04842 0
M  V30 1695 C 167.458 0.0232364 1.70084 0
M  V30 1696 O 168.643 0.197085 1.93197 0
M  V30 1697 C 165.773 0.76354 3.38803 0
M  V30 1698 C 164.727 1.81396 3.87659 0
M  V30 1699 C 164.053 1.31075 5.18385 0
M  V30 1700 C 165.353 3.21739 4.11438 0
M  V30 1701 H 167.047 2.05537 2.17703 0
M  V30 1702 H 164.593 0.989603 1.04608 0
M  V30 1703 H 166.546 0.644982 4.16435 0
M  V30 1704 H 165.27 -0.206727 3.25945 0
M  V30 1705 H 163.929 1.92136 3.12217 0
M  V30 1706 H 163.577 0.330037 5.01916 0
M  V30 1707 H 163.277 2.013 5.52044 0
M  V30 1708 H 164.801 1.20506 5.98591 0
M  V30 1709 H 166.215 3.14019 4.79651 0
M  V30 1710 H 164.612 3.89644 4.56397 0
M  V30 1711 H 165.682 3.67054 3.16859 0
M  V30 1712 N 167.025 -1.13721 1.09112 0
M  V30 1713 C 167.988 -2.17222 0.731241 0
M  V30 1714 C 168.988 -1.59035 -0.237566 0
M  V30 1715 O 170.178 -1.74192 -0.0161704 0
M  V30 1716 C 167.31 -3.40804 0.0808443 0
M  V30 1717 H 168.503 -2.50573 1.64783 0
M  V30 1718 H 166.056 -1.28493 0.889897 0
M  V30 1719 H 166.791 -3.1304 -0.847127 0
M  V30 1720 H 166.576 -3.84306 0.777896 0
M  V30 1721 H 168.066 -4.1731 -0.155657 0
M  V30 1722 N 168.503 -0.877838 -1.30888 0
M  V30 1723 C 169.75 -0.492696 -1.96415 0
M  V30 1724 C 170.078 0.956671 -1.69346 0
M  V30 1725 O 169.333 1.68993 -0.986913 0
M  V30 1726 C 169.632 -0.705748 -3.50363 0
M  V30 1727 C 169.298 -2.1291 -3.97467 0
M  V30 1728 C 167.96 -2.51834 -4.1004 0
M  V30 1729 C 170.312 -3.05702 -4.22132 0
M  V30 1730 C 167.64 -3.82775 -4.44635 0
M  V30 1731 C 169.992 -4.36166 -4.58194 0
M  V30 1732 C 168.656 -4.74993 -4.68975 0
M  V30 1733 H 167.926 -0.18029 -0.718733 0
M  V30 1734 H 170.573 -1.11233 -1.55883 0
M  V30 1735 H 168.878 -0.00303058 -3.918 0
M  V30 1736 H 170.575 -0.387456 -3.99124 0
M  V30 1737 H 167.165 -1.81694 -3.88182 0
M  V30 1738 H 171.349 -2.76853 -4.11906 0
M  V30 1739 H 166.605 -4.12609 -4.51181 0
M  V30 1740 H 170.779 -5.08111 -4.76231 0
M  V30 1741 H 168.406 -5.76495 -4.95537 0
M  V30 1742 N 169.982 1.44106 -0.638065 0
M  V30 1743 C 170.945 2.29138 0.0531013 0
M  V30 1744 C 171.945 1.41409 0.765506 0
M  V30 1745 O 173.135 1.63206 0.609046 0
M  V30 1746 C 170.267 3.23144 1.08584 0
M  V30 1747 H 171.46 2.91739 -0.694883 0
M  V30 1748 H 169.013 1.51134 -0.398538 0
M  V30 1749 H 169.748 2.65408 1.86357 0
M  V30 1750 H 169.533 3.87804 0.578852 0
M  V30 1751 H 171.023 3.87004 1.56899 0
M  V30 1752 N 171.46 0.379036 1.52974 0
M  V30 1753 C 172.688 -0.20679 2.05864 0
M  V30 1754 C 173.103 -1.41356 1.25155 0
M  V30 1755 O 172.46 -1.8009 0.295588 0
M  V30 1756 C 172.511 -0.587045 3.56702 0
M  V30 1757 O 172.232 0.571776 4.34353 0
M  V30 1758 C 173.733 -1.22983 4.25899 0
M  V30 1759 H 170.953 -0.0336123 0.670158 0
M  V30 1760 H 173.497 0.541298 1.97206 0
M  V30 1761 H 171.652 -1.28504 3.65466 0
M  V30 1762 H 172.066 0.261544 5.23847 0
M  V30 1763 H 173.54 -1.44635 5.32715 0
M  V30 1764 H 174.017 -2.19416 3.80465 0
M  V30 1765 H 174.623 -0.572892 4.21424 0
M  V30 1766 N 172.938 -1.57226 0.108567 0
M  V30 1767 C 173.871 -2.10447 -0.882464 0
M  V30 1768 C 174.849 -1.01829 -1.26766 0
M  V30 1769 O 176.033 -1.29415 -1.37054 0
M  V30 1770 C 173.16 -2.59258 -2.17952 0
M  V30 1771 C 172.206 -3.79662 -1.94318 0
M  V30 1772 S 173.039 -5.22586 -1.16892 0
M  V30 1773 C 174.195 -5.74758 -2.47799 0
M  V30 1774 H 174.428 -2.94178 -0.429745 0
M  V30 1775 H 171.961 -1.54043 -0.105 0
M  V30 1776 H 173.919 -2.88036 -2.92482 0
M  V30 1777 H 172.58 -1.75728 -2.60343 0
M  V30 1778 H 171.773 -4.11928 -2.90399 0
M  V30 1779 H 171.375 -3.51446 -1.27913 0
M  V30 1780 H 173.667 -5.83846 -3.43701 0
M  V30 1781 H 174.61 -6.73027 -2.20093 0
M  V30 1782 H 175.018 -5.02763 -2.56689 0
M  V30 1783 N 174.416 0.165178 -1.56732 0
M  V30 1784 C 175.663 0.880807 -1.8234 0
M  V30 1785 C 175.991 1.81977 -0.686621 0
M  V30 1786 O 175.246 1.92971 0.325697 0
M  V30 1787 C 175.545 1.70405 -3.1416 0
M  V30 1788 C 175.211 0.913475 -4.4155 0
M  V30 1789 C 173.873 0.695303 -4.7615 0
M  V30 1790 C 176.225 0.359349 -5.1996 0
M  V30 1791 C 173.553 -0.0879947 -5.86634 0
M  V30 1792 C 175.905 -0.410893 -6.31264 0
M  V30 1793 C 174.569 -0.639808 -6.64427 0
M  V30 1794 H 173.839 0.32231 -0.667231 0
M  V30 1795 H 176.486 0.145402 -1.90947 0
M  V30 1796 H 174.791 2.50903 -3.00923 0
M  V30 1797 H 176.488 2.26091 -3.31186 0
M  V30 1798 H 173.078 1.09357 -4.14414 0
M  V30 1799 H 177.262 0.515228 -4.93618 0
M  V30 1800 H 172.518 -0.27503 -6.10781 0
M  V30 1801 H 176.692 -0.847494 -6.91224 0
M  V30 1802 H 174.319 -1.24864 -7.49875 0
M  V30 1803 N 175.894 1.51508 0.433938 0
M  V30 1804 C 176.842 1.73646 1.54757 0
M  V30 1805 C 177.836 0.602854 1.5831 0
M  V30 1806 O 179.042 0.784318 1.62014 0
M  V30 1807 H 175.417 0.548718 0.51421 0
M  V30 1808 H 177.388 2.66991 1.33261 0
M  V30 1809 C 176.137 1.88172 2.92381 0
M  V30 1810 H 175.46 2.74808 2.90381 0
M  V30 1811 H 176.9 2.07672 3.6966 0
M  V30 1812 C 175.359 0.64239 3.30719 0
M  V30 1813 O 175.889 -0.201362 4.01195 0
M  V30 1814 N 174.095 0.485489 2.86516 0
M  V30 1815 H 173.642 1.17318 2.29334 0
M  V30 1816 H 173.6 -0.342482 3.12529 0
M  V30 1817 N 177.372 -0.689602 1.41712 0
M  V30 1818 C 178.597 -1.48329 1.44959 0
M  V30 1819 C 179.022 -1.8801 0.0581283 0
M  V30 1820 O 178.38 -1.55026 -0.940035 0
M  V30 1821 C 178.428 -2.71835 2.36935 0
M  V30 1822 O 177.532 -3.69549 1.8305 0
M  V30 1823 H 176.873 -0.446199 0.491734 0
M  V30 1824 H 179.403 -0.847127 1.86239 0
M  V30 1825 H 179.413 -3.20076 2.53013 0
M  V30 1826 H 178.088 -2.42291 3.38035 0
M  V30 1827 H 176.665 -3.2851 1.76452 0
M  V30 1828 N 178.85 -1.27639 -0.924453 0
M  V30 1829 C 180.075 -1.17101 -1.71179 0
M  V30 1830 C 180.5 0.268134 -1.86179 0
M  V30 1831 O 179.858 1.19415 -1.36418 0
M  V30 1832 C 179.906 -1.86313 -3.08739 0
M  V30 1833 O 179.01 -1.16331 -3.95652 0
M  V30 1834 H 178.351 -0.407091 -0.524569 0
M  V30 1835 H 180.881 -1.68767 -1.15666 0
M  V30 1836 H 180.891 -1.938 -3.59034 0
M  V30 1837 H 179.566 -2.91001 -2.97138 0
M  V30 1838 H 178.143 -1.16935 -3.54091 0
M  V30 1839 N 180.328 1.1314 -1.09713 0
M  V30 1840 C 181.238 2.22242 -0.751367 0
M  V30 1841 C 182.254 1.72224 0.247938 0
M  V30 1842 O 183.43 2.01205 0.0885463 0
M  V30 1843 C 180.495 3.46231 -0.180274 0
M  V30 1844 C 179.556 4.11125 -1.2359 0
M  V30 1845 C 178.789 5.29195 -0.691966 0
M  V30 1846 O 179.012 5.68342 0.48414 0
M  V30 1847 O 177.946 5.84214 -1.44838 0
M  V30 1848 H 181.772 2.54197 -1.66186 0
M  V30 1849 H 179.357 1.21331 -0.871735 0
M  V30 1850 H 181.239 4.21185 0.134739 0
M  V30 1851 H 179.914 3.1597 0.703185 0
M  V30 1852 H 178.821 3.37985 -1.60366 0
M  V30 1853 H 180.154 4.45524 -2.09211 0
M  V30 1854 N 181.806 0.884767 1.30421 0
M  V30 1855 C 182.738 0.308655 2.27112 0
M  V30 1856 C 183.751 -0.536655 1.53701 0
M  V30 1857 O 184.94 -0.35624 1.74909 0
M  V30 1858 C 182.04 -0.579782 3.33904 0
M  V30 1859 C 181.213 0.236417 4.36761 0
M  V30 1860 C 180.272 -0.582482 5.22966 0
M  V30 1861 O 179.298 -0.00525502 5.692 0
M  V30 1862 N 180.5 -1.89163 5.48815 0
M  V30 1863 H 183.265 1.13964 2.77186 0
M  V30 1864 H 180.826 0.747731 1.43599 0
M  V30 1865 H 182.818 -1.13366 3.88497 0
M  V30 1866 H 181.388 -1.31144 2.83761 0
M  V30 1867 H 180.608 0.97174 3.82035 0
M  V30 1868 H 181.896 0.795924 5.02536 0
M  V30 1869 H 181.294 -2.38352 5.13035 0
M  V30 1870 H 179.851 -2.39296 6.06284 0
M  V30 1871 N 183.284 -1.43765 0.645699 0
M  V30 1872 C 184.509 -2.06767 0.161883 0
M  V30 1873 C 184.934 -1.48034 -1.16049 0
M  V30 1874 O 184.292 -0.587369 -1.71522 0
M  V30 1875 C 184.34 -3.60519 0.0762003 0
M  V30 1876 O 183.444 -4.00982 -0.963721 0
M  V30 1877 H 182.785 -0.657675 0.091429 0
M  V30 1878 H 185.315 -1.84397 0.886499 0
M  V30 1879 H 185.325 -4.07853 -0.109604 0
M  V30 1880 H 184 -4.02646 1.04157 0
M  V30 1881 H 182.577 -3.65253 -0.751312 0
M  V30 1882 N 184.763 -0.387143 -1.52771 0
M  V30 1883 C 185.695 0.484089 -2.2403 0
M  V30 1884 C 186.708 1.02849 -1.26198 0
M  V30 1885 O 187.897 0.931186 -1.52286 0
M  V30 1886 C 184.997 1.68337 -2.94136 0
M  V30 1887 C 184.17 1.26672 -4.18656 0
M  V30 1888 C 183.229 2.33045 -4.7178 0
M  V30 1889 O 182.255 1.94541 -5.34923 0
M  V30 1890 N 183.457 3.64929 -4.5145 0
M  V30 1891 H 186.222 -0.126404 -2.99433 0
M  V30 1892 H 183.783 -0.213392 -1.60488 0
M  V30 1893 H 185.775 2.39019 -3.26577 0
M  V30 1894 H 184.345 2.20025 -2.22053 0
M  V30 1895 H 183.565 0.388878 -3.92277 0
M  V30 1896 H 184.853 0.964964 -4.99566 0
M  V30 1897 H 184.251 3.98974 -4.01044 0
M  V30 1898 H 182.808 4.31651 -4.88386 0
M  V30 1899 N 186.241 1.57166 -0.116904 0
M  V30 1900 C 187.188 2.15202 0.83408 0
M  V30 1901 C 188.158 1.07644 1.26499 0
M  V30 1902 O 189.343 1.35541 1.34288 0
M  V30 1903 C 186.483 2.75405 2.07957 0
M  V30 1904 C 185.596 3.97264 1.69721 0
M  V30 1905 C 184.731 4.45561 2.89221 0
M  V30 1906 C 183.77 5.59956 2.47215 0
M  V30 1907 N 182.907 6.03006 3.59622 0
M  V30 1908 H 187.747 2.96141 0.332335 0
M  V30 1909 H 185.284 1.46309 0.152349 0
M  V30 1910 H 187.242 3.08439 2.80929 0
M  V30 1911 H 185.872 1.97159 2.55594 0
M  V30 1912 H 184.924 3.70404 0.866316 0
M  V30 1913 H 186.236 4.80226 1.34849 0
M  V30 1914 H 185.39 4.80493 3.7042 0
M  V30 1915 H 184.129 3.61544 3.27318 0
M  V30 1916 H 183.134 5.2463 1.64448 0
M  V30 1917 H 184.359 6.45738 2.10238 0
M  V30 1918 H 182.305 5.21931 3.97396 0
M  V30 1919 H 182.222 6.80819 3.28667 0
M  V30 1920 H 183.49 6.42576 4.41267 0
M  V30 1921 N 187.719 -0.156864 1.56817 0
M  V30 1922 C 188.967 -0.869404 1.82444 0
M  V30 1923 C 189.288 -1.82147 0.69623 0
M  V30 1924 O 188.558 -1.93847 -0.28287 0
M  V30 1925 H 187.138 -0.324043 0.673056 0
M  V30 1926 H 189.8 -0.153224 1.94297 0
M  V30 1927 H 188.896 -1.43761 2.77019 0
M  V30 1928 N 189.197 -1.51736 -0.425897 0
M  V30 1929 C 190.445 -1.64644 -1.17204 0
M  V30 1930 C 190.766 -0.370486 -1.91448 0
M  V30 1931 O 190.036 0.614088 -1.86026 0
M  V30 1932 H 188.616 -0.606819 -0.435638 0
M  V30 1933 H 191.278 -1.88713 -0.487177 0
M  V30 1934 H 190.374 -2.47958 -1.89534 0
M  V30 1935 N 190.675 0.682077 -1.42076 0
M  V30 1936 C 191.605 1.80796 -1.47767 0
M  V30 1937 C 192.586 1.6677 -0.334954 0
M  V30 1938 O 193.771 1.863 -0.548264 0
M  V30 1939 C 190.901 3.19038 -1.37229 0
M  V30 1940 C 189.855 3.47789 -2.49453 0
M  V30 1941 C 189.181 4.8553 -2.23975 0
M  V30 1942 C 190.481 3.45411 -3.91776 0
M  V30 1943 H 192.175 1.7629 -2.41997 0
M  V30 1944 H 189.721 0.846721 -1.16476 0
M  V30 1945 H 191.674 3.97528 -1.39821 0
M  V30 1946 H 190.398 3.24204 -0.394907 0
M  V30 1947 H 189.057 2.71657 -2.46166 0
M  V30 1948 H 188.705 4.87337 -1.24547 0
M  V30 1949 H 188.405 5.0573 -2.99184 0
M  V30 1950 H 189.929 5.66312 -2.28304 0
M  V30 1951 H 191.343 4.13882 -3.96705 0
M  V30 1952 H 189.74 3.77145 -4.66778 0
M  V30 1953 H 190.81 2.44122 -4.18966 0
M  V30 1954 N 192.153 1.28127 0.917671 0
M  V30 1955 C 193.378 1.18007 1.70555 0
M  V30 1956 C 193.803 -0.258257 1.86319 0
M  V30 1957 O 193.161 -1.1869 1.37049 0
M  V30 1958 C 193.209 1.87948 3.07746 0
M  V30 1959 O 192.313 1.18427 3.9503 0
M  V30 1960 H 191.654 0.409867 0.522403 0
M  V30 1961 H 194.184 1.69379 1.1477 0
M  V30 1962 H 194.194 1.95701 3.58001 0
M  V30 1963 H 192.869 2.92573 2.95591 0
M  V30 1964 H 191.446 1.18811 3.53466 0
M  V30 1965 N 193.631 -1.12557 1.10312 0
M  V30 1966 C 194.877 -1.84311 0.846011 0
M  V30 1967 C 195.21 -1.83805 -0.626859 0
M  V30 1968 O 194.485 -1.28268 -1.46211 0
M  V30 1969 C 194.768 -3.32048 1.39341 0
M  V30 1970 C 194.621 -3.41016 2.93305 0
M  V30 1971 C 195.94 -4.27764 1.03468 0
M  V30 1972 H 193.059 -0.669192 0.30879 0
M  V30 1973 H 195.701 -1.32057 1.36605 0
M  V30 1974 H 193.851 -3.76678 0.951087 0
M  V30 1975 H 195.523 -3.05031 3.46055 0
M  V30 1976 H 193.766 -2.81603 3.29973 0
M  V30 1977 H 194.437 -4.44948 3.26689 0
M  V30 1978 H 196.913 -3.91253 1.41633 0
M  V30 1979 H 195.789 -5.29549 1.44463 0
M  V30 1980 H 196.05 -4.42064 -0.0560404 0
M  V30 1981 N 195.109 -0.891671 -1.2995 0
M  V30 1982 C 196.072 -0.36828 -2.26222 0
M  V30 1983 C 197.072 0.493014 -1.53056 0
M  V30 1984 O 198.262 0.299213 -1.71611 0
M  V30 1985 C 195.394 0.47442 -3.37583 0
M  V30 1986 H 196.587 -1.21844 -2.74033 0
M  V30 1987 H 194.14 -0.669107 -1.41254 0
M  V30 1988 H 194.875 1.34489 -2.95099 0
M  V30 1989 H 194.66 -0.142615 -3.91841 0
M  V30 1990 H 196.15 0.83218 -4.09224 0
M  V30 1991 N 196.587 1.43421 -0.653314 0
M  V30 1992 C 197.833 2.02111 -0.166992 0
M  V30 1993 C 198.166 1.51423 1.21592 0
M  V30 1994 O 197.441 0.707389 1.8118 0
M  V30 1995 C 197.724 3.5966 -0.177948 0
M  V30 1996 C 197.577 4.20579 -1.59478 0
M  V30 1997 C 198.896 4.37413 0.4856 0
M  V30 1998 H 196.015 0.734374 -0.0621557 0
M  V30 1999 H 198.657 1.70717 -0.834016 0
M  V30 2000 H 196.807 3.86537 0.390032 0
M  V30 2001 H 198.479 4.04732 -2.21336 0
M  V30 2002 H 196.722 3.77226 -2.14204 0
M  V30 2003 H 197.393 5.29665 -1.5543 0
M  V30 2004 H 199.869 4.161 0.00234528 0
M  V30 2005 H 198.745 5.47075 0.447207 0
M  V30 2006 H 199.006 4.13672 1.55974 0
M  V30 2007 N 198.065 0.39524 1.52563 0
M  V30 2008 C 199.476 -0.0774719 1.86539 0
M  V30 2009 C 199.827 -1.45641 1.31466 0
M  V30 2010 O 198.952 -2.06459 0.648367 0
M  V30 2011 C 199.547 -0.147356 3.38479 0
M  V30 2012 C 198.106 -0.564373 3.72145 0
M  V30 2013 C 197.253 0.269919 2.75983 0
M  V30 2014 H 200.204 0.612876 1.46388 0
M  V30 2015 H 200.225 -0.965343 3.68051 0
M  V30 2016 H 199.737 0.856387 3.78534 0
M  V30 2017 H 197.838 -1.57527 3.37663 0
M  V30 2018 H 197.951 -0.318402 4.78041 0
M  V30 2019 H 196.315 -0.265696 2.5331 0
M  V30 2020 H 197.098 1.27175 3.18875 0
M  V30 2021 N 199.544 -1.57102 0.125237 0
M  V30 2022 C 200.792 -1.95021 -0.530198 0
M  V30 2023 C 201.113 -1.00982 -1.66816 0
M  V30 2024 O 200.383 -0.0672693 -1.95784 0
M  V30 2025 H 198.963 -0.720046 -0.198853 0
M  V30 2026 H 201.625 -1.93916 0.19564 0
M  V30 2027 H 200.721 -2.98211 -0.920681 0
M  V30 2028 N 201.022 0.148545 -1.56898 0
M  V30 2029 C 201.932 1.20293 -2.01412 0
M  V30 2030 C 202.948 1.47107 -0.929273 0
M  V30 2031 O 204.124 1.58807 -1.23863 0
M  V30 2032 C 201.189 2.51682 -2.38447 0
M  V30 2033 C 200.25 2.32529 -3.60872 0
M  V30 2034 C 199.483 3.57653 -3.96132 0
M  V30 2035 O 199.706 4.63771 -3.32073 0
M  V30 2036 O 198.64 3.50408 -4.89385 0
M  V30 2037 H 202.466 0.855025 -2.91416 0
M  V30 2038 H 200.051 0.357151 -1.45068 0
M  V30 2039 H 201.933 3.29147 -2.63135 0
M  V30 2040 H 200.608 2.86006 -1.51599 0
M  V30 2041 H 199.515 1.53019 -3.41373 0
M  V30 2042 H 200.848 2.03121 -4.48333 0
M  V30 2043 N 202.5 1.5196 0.417844 0
M  V30 2044 C 203.749 1.6482 1.16264 0
M  V30 2045 C 204.062 0.379886 1.91876 0
M  V30 2046 O 205.268 0.388154 2.68711 0
M  V30 2047 C 203.724 2.91161 2.1155 0
M  V30 2048 C 203.332 4.25068 1.41495 0
M  V30 2049 C 205.076 3.13383 2.86341 0
M  V30 2050 C 202.983 5.42541 2.35379 0
M  V30 2051 H 201.913 0.613954 0.437694 0
M  V30 2052 H 204.564 1.78442 0.427871 0
M  V30 2053 H 202.946 2.71218 2.88543 0
M  V30 2054 H 204.12 4.55463 0.699263 0
M  V30 2055 H 202.435 4.0888 0.787792 0
M  V30 2056 H 205.032 3.98324 3.5671 0
M  V30 2057 H 205.375 2.27256 3.48798 0
M  V30 2058 H 205.908 3.33757 2.1645 0
M  V30 2059 H 202.647 6.30987 1.77582 0
M  V30 2060 H 202.167 5.16497 3.04945 0
M  V30 2061 H 203.846 5.75272 2.96093 0
M  V30 2062 N 203.978 -0.674533 1.42435 0
M  V30 2063 C 205.394 -0.98769 1.25367 0
M  V30 2064 C 205.594 -2.00879 0.158044 0
M  V30 2065 O 204.65 -2.48075 -0.470633 0
M  V30 2066 C 205.963 -1.49224 2.6106 0
M  V30 2067 C 207.511 -1.61 2.68417 0
M  V30 2068 C 207.986 -2.14852 4.04478 0
M  V30 2069 N 209.477 -2.22185 4.06434 0
M  V30 2070 C 210.212 -2.64928 5.08528 0
M  V30 2071 N 209.708 -3.07121 6.21006 0
M  V30 2072 N 211.501 -2.64679 4.95885 0
M  V30 2073 H 203.652 0.00152503 2.124 0
M  V30 2074 H 205.915 -0.0618434 0.945981 0
M  V30 2075 H 205.621 -0.816453 3.42092 0
M  V30 2076 H 205.495 -2.47094 2.84999 0
M  V30 2077 H 207.882 -2.27686 1.87732 0
M  V30 2078 H 207.963 -0.616195 2.48267 0
M  V30 2079 H 207.607 -1.48775 4.85622 0
M  V30 2080 H 207.537 -3.15024 4.2198 0
M  V30 2081 H 210.028 -1.92435 3.25234 0
M  V30 2082 H 210.341 -3.38423 6.94759 0
M  V30 2083 H 208.686 -3.04978 6.24511 0
M  V30 2084 H 211.877 -2.31078 4.07088 0
M  V30 2085 H 212.05 -2.9767 5.75584 0
M  V30 2086 N 205.456 -1.28612 -0.910864 0
M  V30 2087 C 206.704 -1.15705 -1.65701 0
M  V30 2088 C 207.025 0.29416 -1.92769 0
M  V30 2089 O 206.295 1.20331 -1.54588 0
M  V30 2090 H 204.875 -0.425216 -0.614167 0
M  V30 2091 H 207.537 -1.61381 -1.0928 0
M  V30 2092 H 206.633 -1.6988 -2.61815 0
M  V30 2093 N 206.934 1.1197 -1.10907 0
M  V30 2094 C 208.164 1.8713 -0.875553 0
M  V30 2095 C 208.572 1.8016 0.577843 0
M  V30 2096 O 207.915 1.17699 1.41042 0
M  V30 2097 C 207.977 3.37005 -1.2517 0
M  V30 2098 C 207.641 3.67748 -2.71313 0
M  V30 2099 C 208.638 3.65698 -3.69542 0
M  V30 2100 C 206.323 3.96928 -3.07821 0
M  V30 2101 C 208.317 3.92395 -5.023 0
M  V30 2102 C 206.004 4.23284 -4.40765 0
M  V30 2103 C 207.002 4.21005 -5.37814 0
M  V30 2104 O 206.69 4.46704 -6.68364 0
M  V30 2105 H 206.422 0.598786 -0.313737 0
M  V30 2106 H 208.976 1.42568 -1.47863 0
M  V30 2107 H 207.206 3.82146 -0.591741 0
M  V30 2108 H 208.895 3.93519 -0.994877 0
M  V30 2109 H 209.661 3.43211 -3.42682 0
M  V30 2110 H 205.54 3.97841 -2.32902 0
M  V30 2111 H 209.084 3.90531 -5.78041 0
M  V30 2112 H 204.981 4.45246 -4.67361 0
M  V30 2113 H 205.749 4.64299 -6.74069 0
M  V30 2114 N 208.412 0.89855 1.29475 0
M  V30 2115 C 209.322 0.379974 2.31502 0
M  V30 2116 C 210.338 -0.524695 1.659 0
M  V30 2117 O 211.514 -0.414551 1.97087 0
M  V30 2118 C 208.579 -0.385138 3.44554 0
M  V30 2119 C 207.64 0.550914 4.2575 0
M  V30 2120 C 206.873 -0.177778 5.33404 0
M  V30 2121 O 207.096 -1.40189 5.52904 0
M  V30 2122 O 206.03 0.479106 5.9999 0
M  V30 2123 H 209.856 1.22639 2.77837 0
M  V30 2124 H 207.441 0.662834 1.33891 0
M  V30 2125 H 209.323 -0.817841 4.13388 0
M  V30 2126 H 207.998 -1.20763 3.0033 0
M  V30 2127 H 206.905 1.03271 3.59564 0
M  V30 2128 H 208.238 1.33979 4.73614 0
M  V30 2129 N 209.89 -1.43072 0.660911 0
M  V30 2130 C 210.82 -2.33497 -0.0122829 0
M  V30 2131 C 211.801 -1.49903 -0.803925 0
M  V30 2132 O 212.986 -1.78546 -0.763864 0
M  V30 2133 C 210.116 -3.33363 -0.973994 0
M  V30 2134 C 209.07 -4.27003 -0.291928 0
M  V30 2135 C 208.396 -5.16967 -1.36562 0
M  V30 2136 C 209.696 -5.15816 0.820462 0
M  V30 2137 H 211.39 -2.90038 0.742873 0
M  V30 2138 H 208.936 -1.39461 0.358688 0
M  V30 2139 H 210.889 -3.95524 -1.45392 0
M  V30 2140 H 209.613 -2.75095 -1.7604 0
M  V30 2141 H 208.272 -3.66217 0.167623 0
M  V30 2142 H 207.92 -4.55034 -2.14366 0
M  V30 2143 H 207.62 -5.80441 -0.914454 0
M  V30 2144 H 209.144 -5.82003 -1.84675 0
M  V30 2145 H 210.558 -5.71742 0.422366 0
M  V30 2146 H 208.955 -5.8805 1.19656 0
M  V30 2147 H 210.025 -4.55045 1.67518 0
M  V30 2148 N 211.368 -0.403325 -1.52352 0
M  V30 2149 C 212.331 0.413051 -2.25447 0
M  V30 2150 C 213.331 0.978513 -1.276 0
M  V30 2151 O 214.521 0.858305 -1.51587 0
M  V30 2152 C 211.653 1.58087 -3.02029 0
M  V30 2153 H 212.846 -0.227094 -2.99039 0
M  V30 2154 H 210.399 -0.155722 -1.55522 0
M  V30 2155 H 211.134 2.25804 -2.32772 0
M  V30 2156 H 210.919 1.18195 -3.73861 0
M  V30 2157 H 212.409 2.1585 -3.57489 0
M  V30 2158 N 212.846 1.57033 -0.133567 0
M  V30 2159 C 213.796 2.12641 0.822671 0
M  V30 2160 C 214.78 1.05081 1.21847 0
M  V30 2161 O 215.972 1.31287 1.18713 0
M  V30 2162 C 213.101 2.74094 2.06706 0
M  V30 2163 C 212.187 3.88757 1.69497 0
M  V30 2164 N 212.578 4.95194 1.03037 0
M  V30 2165 C 210.876 3.99213 1.98859 0
M  V30 2166 C 211.577 5.75414 0.852873 0
M  V30 2167 N 210.553 5.25726 1.3825 0
M  V30 2168 H 214.355 2.92308 0.305537 0
M  V30 2169 H 211.869 1.62256 0.0684276 0
M  V30 2170 H 213.866 3.12285 2.76195 0
M  V30 2171 H 212.526 1.95896 2.5895 0
M  V30 2172 H 213.537 5.13247 0.692669 0
M  V30 2173 H 210.214 3.32075 2.53047 0
M  V30 2174 H 211.604 6.71089 0.330091 0
M  V30 2175 N 214.325 -0.140222 1.56975 0
M  V30 2176 C 215.257 -1.19818 1.95388 0
M  V30 2177 C 216.27 -1.38816 0.850525 0
M  V30 2178 O 217.459 -1.38267 1.12891 0
M  V30 2179 C 214.559 -2.56189 2.21857 0
M  V30 2180 C 213.732 -2.58077 3.5315 0
M  V30 2181 C 212.791 -3.76037 3.6808 0
M  V30 2182 O 211.817 -3.60598 4.40406 0
M  V30 2183 N 213.019 -4.93763 3.05251 0
M  V30 2184 H 215.784 -0.871609 2.86746 0
M  V30 2185 H 213.345 -0.32972 1.58507 0
M  V30 2186 H 215.337 -3.33623 2.2908 0
M  V30 2187 H 213.907 -2.81111 1.36731 0
M  V30 2188 H 213.127 -1.6651 3.57307 0
M  V30 2189 H 214.415 -2.56377 4.39486 0
M  V30 2190 H 213.813 -5.09209 2.46419 0
M  V30 2191 H 212.37 -5.68949 3.18026 0
M  V30 2192 N 215.803 -1.52179 -0.40978 0
M  V30 2193 C 217.219 -1.40968 -0.74835 0
M  V30 2194 C 217.419 -0.513657 -1.94843 0
M  V30 2195 O 216.475 0.0208026 -2.52491 0
M  V30 2196 C 217.788 -2.83483 -1.0029 0
M  V30 2197 C 219.336 -2.92821 -1.10565 0
M  V30 2198 C 219.811 -4.36303 -1.39296 0
M  V30 2199 N 221.302 -4.39535 -1.46162 0
M  V30 2200 C 222.037 -5.47614 -1.70018 0
M  V30 2201 N 221.533 -6.65812 -1.91483 0
M  V30 2202 N 223.326 -5.35129 -1.72027 0
M  V30 2203 H 215.477 -2.0897 0.380186 0
M  V30 2204 H 217.74 -0.94185 0.107805 0
M  V30 2205 H 217.446 -3.51168 -0.193461 0
M  V30 2206 H 217.32 -3.24487 -1.92323 0
M  V30 2207 H 219.707 -2.25318 -1.90568 0
M  V30 2208 H 219.788 -2.55276 -0.16369 0
M  V30 2209 H 219.432 -5.04366 -0.598109 0
M  V30 2210 H 219.362 -4.71385 -2.34743 0
M  V30 2211 H 221.853 -3.54332 -1.31367 0
M  V30 2212 H 222.166 -7.43964 -2.09134 0
M  V30 2213 H 220.511 -6.68879 -1.88749 0
M  V30 2214 H 223.702 -4.41764 -1.54796 0
M  V30 2215 H 223.875 -6.19433 -1.9028 0
M  V30 2216 N 217.281 0.66697 -1.42791 0
M  V30 2217 C 218.231 1.77313 -1.43332 0
M  V30 2218 C 219.215 1.5801 -0.303586 0
M  V30 2219 O 220.407 1.68356 -0.546385 0
M  V30 2220 C 217.536 3.15822 -1.34578 0
M  V30 2221 C 216.622 3.40721 -2.52528 0
M  V30 2222 N 217.013 3.36162 -3.77927 0
M  V30 2223 C 215.311 3.71387 -2.46956 0
M  V30 2224 C 216.012 3.60762 -4.56318 0
M  V30 2225 N 214.988 3.81908 -3.86843 0
M  V30 2226 H 218.79 1.72193 -2.38174 0
M  V30 2227 H 216.304 0.868114 -1.3725 0
M  V30 2228 H 218.301 3.951 -1.33048 0
M  V30 2229 H 216.961 3.22133 -0.407453 0
M  V30 2230 H 217.972 3.15885 -4.10411 0
M  V30 2231 H 214.649 3.84897 -1.61743 0
M  V30 2232 H 216.039 3.63132 -5.65318 0
M  V30 2233 N 218.759 1.29093 0.90403 0
M  V30 2234 C 220.007 1.16583 1.65085 0
M  V30 2235 C 220.328 -0.283933 1.92922 0
M  V30 2236 O 219.598 -1.19509 1.55224 0
M  V30 2237 H 218.178 0.428467 0.611903 0
M  V30 2238 H 220.84 1.61959 1.08422 0
M  V30 2239 H 219.936 1.71266 2.6091 0
M  V30 2240 N 220.237 -1.11381 1.11499 0
M  V30 2241 C 221.653 -1.35143 0.849031 0
M  V30 2242 C 221.853 -1.94515 -0.525938 0
M  V30 2243 O 220.909 -2.1785 -1.27662 0
M  V30 2244 C 222.222 -2.28249 1.95762 0
M  V30 2245 C 223.77 -2.41812 1.98736 0
M  V30 2246 C 224.245 -3.3824 3.088 0
M  V30 2247 N 225.736 -3.45803 3.08179 0
M  V30 2248 C 226.471 -4.20358 3.89982 0
M  V30 2249 N 225.967 -4.97884 4.8175 0
M  V30 2250 N 227.76 -4.15877 3.78157 0
M  V30 2251 H 219.911 -0.712062 2.00109 0
M  V30 2252 H 222.174 -0.376025 0.870235 0
M  V30 2253 H 221.88 -1.91817 2.94787 0
M  V30 2254 H 221.754 -3.28473 1.85433 0
M  V30 2255 H 224.141 -2.77518 1.00338 0
M  V30 2256 H 224.222 -1.41437 2.13141 0
M  V30 2257 H 223.866 -3.03261 4.07425 0
M  V30 2258 H 223.796 -4.38471 2.91635 0
M  V30 2259 H 226.287 -2.90506 2.41691 0
M  V30 2260 H 226.6 -5.52142 5.40702 0
M  V30 2261 H 224.945 -4.97043 4.85771 0
M  V30 2262 H 228.136 -3.544 3.05808 0
M  V30 2263 H 228.309 -4.73723 4.42143 0
M  V30 2264 N 221.715 -0.905404 -1.28997 0
M  V30 2265 C 222.645 -0.404212 -2.29975 0
M  V30 2266 C 223.626 0.523784 -1.61835 0
M  V30 2267 O 224.811 0.433298 -1.89304 0
M  V30 2268 C 221.941 0.364042 -3.45387 0
M  V30 2269 C 220.895 -0.474048 -4.25367 0
M  V30 2270 C 220.221 0.422045 -5.33032 0
M  V30 2271 C 221.521 -1.72696 -4.92923 0
M  V30 2272 H 223.215 -1.24807 -2.72146 0
M  V30 2273 H 220.761 -0.601585 -1.30832 0
M  V30 2274 H 222.714 0.725447 -4.15109 0
M  V30 2275 H 221.438 1.24174 -3.02074 0
M  V30 2276 H 220.097 -0.81786 -3.57361 0
M  V30 2277 H 219.745 1.29804 -4.85963 0
M  V30 2278 H 219.445 -0.135057 -5.87445 0
M  V30 2279 H 220.969 0.779517 -6.05604 0
M  V30 2280 H 222.383 -1.43495 -5.55051 0
M  V30 2281 H 220.78 -2.22582 -5.57295 0
M  V30 2282 H 221.85 -2.45964 -4.17887 0
M  V30 2283 N 223.193 1.4272 -0.668489 0
M  V30 2284 C 224.604 1.84793 -0.266151 0
M  V30 2285 C 224.955 1.55959 1.19043 0
M  V30 2286 O 224.08 1.01622 1.91055 0
M  V30 2287 C 224.675 3.35436 -0.476271 0
M  V30 2288 C 223.234 3.76182 -0.128113 0
M  V30 2289 C 222.381 2.66344 -0.771777 0
M  V30 2290 H 225.332 1.32656 -0.871098 0
M  V30 2291 H 225.353 3.79515 0.273561 0
M  V30 2292 H 224.865 3.5639 -1.53647 0
M  V30 2293 H 222.966 3.60836 0.928891 0
M  V30 2294 H 223.079 4.75766 -0.564231 0
M  V30 2295 H 221.443 2.53885 -0.203652 0
M  V30 2296 H 222.226 2.90123 -1.83531 0
M  V30 2297 N 224.671 0.411399 1.52136 0
M  V30 2298 C 225.917 -0.156262 2.02799 0
M  V30 2299 C 226.272 -1.42613 1.29149 0
M  V30 2300 O 225.565 -1.87592 0.389839 0
M  V30 2301 C 225.759 -0.455872 3.54481 0
M  V30 2302 C 225.588 0.783404 4.42824 0
M  V30 2303 C 224.358 1.30928 4.88043 0
M  V30 2304 C 226.556 1.66217 4.86699 0
M  V30 2305 N 224.538 2.5038 5.6052 0
M  V30 2306 C 225.909 2.70292 5.5798 0
M  V30 2307 C 227.964 1.67966 4.68713 0
M  V30 2308 C 226.667 3.7603 6.13184 0
M  V30 2309 C 228.693 2.72624 5.24815 0
M  V30 2310 C 228.055 3.7542 5.9602 0
M  V30 2311 H 224.154 -0.0186886 0.781777 0
M  V30 2312 H 226.738 0.566255 1.86284 0
M  V30 2313 H 224.909 -1.14743 3.71064 0
M  V30 2314 H 226.641 -1.01261 3.91827 0
M  V30 2315 H 223.396 0.866977 4.65597 0
M  V30 2316 H 223.82 3.10881 6.014 0
M  V30 2317 H 228.462 0.898312 4.13147 0
M  V30 2318 H 226.18 4.55019 6.6782 0
M  V30 2319 H 229.766 2.74887 5.12765 0
M  V30 2320 H 228.646 4.55073 6.38654 0
M  V30 2321 N 226.149 -1.5696 0.141893 0
M  V30 2322 C 227.112 -2.15316 -0.785587 0
M  V30 2323 C 228.112 -1.09366 -1.1788 0
M  V30 2324 O 229.302 -1.35031 -1.10056 0
M  V30 2325 C 226.434 -2.71211 -2.06537 0
M  V30 2326 H 227.627 -2.98608 -0.278041 0
M  V30 2327 H 225.18 -1.5593 -0.107519 0
M  V30 2328 H 225.915 -1.91571 -2.6167 0
M  V30 2329 H 225.7 -3.4872 -1.79268 0
M  V30 2330 H 227.19 -3.16189 -2.72789 0
M  V30 2331 N 227.627 0.131896 -1.57047 0
M  V30 2332 C 229.043 0.485031 -1.52051 0
M  V30 2333 C 229.243 1.82563 -0.85281 0
M  V30 2334 O 228.299 2.48817 -0.429694 0
M  V30 2335 C 229.612 0.481409 -2.96821 0
M  V30 2336 C 231.16 0.565868 -3.07842 0
M  V30 2337 C 231.635 0.592762 -4.54148 0
M  V30 2338 N 233.126 0.654564 -4.58552 0
M  V30 2339 C 233.861 0.696608 -5.69153 0
M  V30 2340 N 233.357 0.697078 -6.89284 0
M  V30 2341 N 235.15 0.738639 -5.57226 0
M  V30 2342 H 227.301 -0.746664 -1.98843 0
M  V30 2343 H 229.564 -0.273999 -0.90754 0
M  V30 2344 H 229.27 -0.435731 -3.4899 0
M  V30 2345 H 229.144 1.3139 -3.53577 0
M  V30 2346 H 231.531 1.47343 -2.55684 0
M  V30 2347 H 231.612 -0.29406 -2.54104 0
M  V30 2348 H 231.256 -0.310701 -5.06949 0
M  V30 2349 H 231.186 1.46939 -5.05684 0
M  V30 2350 H 233.677 0.660887 -3.72076 0
M  V30 2351 H 233.99 0.731426 -7.69331 0
M  V30 2352 H 232.335 0.66471 -6.91814 0
M  V30 2353 H 235.526 0.735545 -4.62285 0
M  V30 2354 H 235.699 0.767938 -6.43434 0
M  V30 2355 N 229.106 1.52395 0.401703 0
M  V30 2356 C 230.036 1.79231 1.49661 0
M  V30 2357 C 231.017 0.643654 1.57452 0
M  V30 2358 O 232.202 0.889989 1.72606 0
M  V30 2359 C 229.332 1.94971 2.87409 0
M  V30 2360 C 228.286 3.10604 2.94465 0
M  V30 2361 C 227.612 3.11577 4.34538 0
M  V30 2362 C 228.912 4.49921 2.6527 0
M  V30 2363 H 230.606 2.70917 1.27454 0
M  V30 2364 H 228.152 1.30362 0.6117 0
M  V30 2365 H 230.105 2.12328 3.63999 0
M  V30 2366 H 228.829 0.999632 3.10926 0
M  V30 2367 H 227.488 2.93009 2.20321 0
M  V30 2368 H 227.136 2.14277 4.55076 0
M  V30 2369 H 226.836 3.89247 4.40183 0
M  V30 2370 H 228.36 3.31073 5.13053 0
M  V30 2371 H 229.774 4.67683 3.31581 0
M  V30 2372 H 228.171 5.29564 2.82281 0
M  V30 2373 H 229.241 4.57507 1.60671 0
M  V30 2374 N 230.584 -0.659388 1.43143 0
M  V30 2375 C 231.831 -1.41935 1.44433 0
M  V30 2376 C 232.159 -1.94387 0.0663522 0
M  V30 2377 O 231.414 -1.72314 -0.927706 0
M  V30 2378 C 231.713 -2.62206 2.42864 0
M  V30 2379 C 231.379 -2.28208 3.88886 0
M  V30 2380 C 230.041 -2.18647 4.28657 0
M  V30 2381 C 232.393 -2.00887 4.8093 0
M  V30 2382 C 229.721 -1.79914 5.58433 0
M  V30 2383 C 232.073 -1.63653 6.11065 0
M  V30 2384 C 230.737 -1.52614 6.49819 0
M  V30 2385 H 230.007 -0.519376 0.528517 0
M  V30 2386 H 232.654 -0.750453 1.76183 0
M  V30 2387 H 230.959 -3.34199 2.04495 0
M  V30 2388 H 232.656 -3.2041 2.41119 0
M  V30 2389 H 229.246 -2.36557 3.57406 0
M  V30 2390 H 233.43 -2.07198 4.5098 0
M  V30 2391 H 228.686 -1.69948 5.87305 0
M  V30 2392 H 232.86 -1.41543 6.81864 0
M  V30 2393 H 230.487 -1.22371 7.50286 0
M  V30 2394 N 232.062 -1.29571 -0.897171 0
M  V30 2395 C 232.994 -1.10724 -2.00681 0
M  V30 2396 C 234.007 -0.0540026 -1.6271 0
M  V30 2397 O 235.196 -0.298783 -1.75982 0
M  V30 2398 C 232.296 -0.663912 -3.32333 0
M  V30 2399 C 231.469 -1.79622 -3.98816 0
M  V30 2400 C 230.528 -1.34349 -5.0876 0
M  V30 2401 O 229.554 -2.04864 -5.31055 0
M  V30 2402 N 230.756 -0.215764 -5.80099 0
M  V30 2403 H 233.521 -2.06291 -2.17403 0
M  V30 2404 H 231.082 -1.21544 -1.06951 0
M  V30 2405 H 233.074 -0.344295 -4.03233 0
M  V30 2406 H 231.644 0.199375 -3.11964 0
M  V30 2407 H 230.864 -2.28459 -3.21248 0
M  V30 2408 H 232.152 -2.55535 -4.39976 0
M  V30 2409 H 231.55 0.372091 -5.64475 0
M  V30 2410 H 230.107 0.0444707 -6.51785 0
M  V30 2411 N 233.54 1.10788 -1.12088 0
M  V30 2412 C 234.951 1.64181 -0.88891 0
M  V30 2413 C 235.302 1.87508 0.577498 0
M  V30 2414 O 234.427 1.61434 1.44112 0
M  V30 2415 C 235.022 2.98257 -1.60712 0
M  V30 2416 C 233.581 3.4853 -1.42139 0
M  V30 2417 C 232.728 2.23208 -1.6454 0
M  V30 2418 H 235.679 0.943368 -1.27618 0
M  V30 2419 H 235.7 3.65552 -1.05604 0
M  V30 2420 H 235.212 2.81246 -2.67436 0
M  V30 2421 H 233.313 3.70692 -0.376552 0
M  V30 2422 H 233.426 4.26882 -2.17505 0
M  V30 2423 H 231.79 2.31169 -1.06925 0
M  V30 2424 H 232.573 2.08733 -2.72554 0
M  V30 2425 N 235.018 0.912232 1.28515 0
M  V30 2426 C 236.243 0.559774 1.99703 0
M  V30 2427 C 236.668 -0.851393 1.67729 0
M  V30 2428 O 236.026 -1.56875 0.908834 0
M  V30 2429 C 236.074 0.773874 3.52198 0
M  V30 2430 O 235.178 -0.167842 4.12058 0
M  V30 2431 H 234.519 0.21723 0.627461 0
M  V30 2432 H 237.049 1.22725 1.63706 0
M  V30 2433 H 237.059 0.683386 4.02236 0
M  V30 2434 H 235.734 1.80261 3.74805 0
M  V30 2435 H 234.311 -0.0287509 3.72889 0
M  V30 2436 N 236.496 -1.42363 0.676048 0
M  V30 2437 C 237.745 -2.00745 0.196037 0
M  V30 2438 C 238.058 -1.54083 -1.20489 0
M  V30 2439 O 239.264 -2.04891 -1.78134 0
M  V30 2440 C 237.72 -3.58651 0.299616 0
M  V30 2441 C 237.328 -4.143 1.70468 0
M  V30 2442 C 239.072 -4.24326 -0.121619 0
M  V30 2443 C 236.979 -5.64574 1.76096 0
M  V30 2444 H 235.909 -0.750787 0.0695301 0
M  V30 2445 H 238.56 -1.63072 0.841412 0
M  V30 2446 H 236.942 -3.93833 -0.413673 0
M  V30 2447 H 238.116 -3.90575 2.44515 0
M  V30 2448 H 236.431 -3.61081 2.07387 0
M  V30 2449 H 239.028 -5.34607 -0.0997362 0
M  V30 2450 H 239.371 -3.99897 -1.15708 0
M  V30 2451 H 239.904 -3.94108 0.540706 0
M  V30 2452 H 236.643 -5.93804 2.77628 0
M  V30 2453 H 236.163 -5.90286 1.06406 0
M  V30 2454 H 237.842 -6.29013 1.51496 0
M  V30 2455 N 237.974 -0.419461 -1.51915 0
M  V30 2456 C 238.906 0.43646 -2.25006 0
M  V30 2457 C 239.919 1.00149 -1.28351 0
M  V30 2458 O 241.108 0.898674 -1.54227 0
M  V30 2459 C 238.208 1.6206 -2.9764 0
M  V30 2460 C 237.381 1.17763 -4.21249 0
M  V30 2461 C 236.44 2.22985 -4.76617 0
M  V30 2462 O 235.466 1.83151 -5.38929 0
M  V30 2463 N 236.668 3.55271 -4.59089 0
M  V30 2464 H 239.433 -0.18989 -2.99098 0
M  V30 2465 H 236.994 -0.247386 -1.59999 0
M  V30 2466 H 238.986 2.32038 -3.31573 0
M  V30 2467 H 237.556 2.15266 -2.2667 0
M  V30 2468 H 236.776 0.305582 -3.93014 0
M  V30 2469 H 238.064 0.858781 -5.015 0
M  V30 2470 H 237.462 3.90377 -4.09417 0
M  V30 2471 H 236.019 4.21195 -4.97432 0
M  V30 2472 N 239.452 1.56882 -0.150215 0
M  V30 2473 C 240.382 2.19935 0.784284 0
M  V30 2474 C 241.363 1.14854 1.25469 0
M  V30 2475 O 242.548 1.43209 1.31168 0
M  V30 2476 C 239.678 2.82349 2.02229 0
M  V30 2477 C 238.632 3.93285 1.68853 0
M  V30 2478 C 237.958 4.42649 2.99944 0
M  V30 2479 C 239.258 5.13904 0.932714 0
M  V30 2480 H 240.952 2.9828 0.258781 0
M  V30 2481 H 238.498 1.43473 0.123029 0
M  V30 2482 H 240.451 3.25126 2.68088 0
M  V30 2483 H 239.175 2.0134 2.57157 0
M  V30 2484 H 237.834 3.5113 1.05371 0
M  V30 2485 H 237.482 3.58458 3.52869 0
M  V30 2486 H 237.182 5.17476 2.78374 0
M  V30 2487 H 238.706 4.88099 3.66868 0
M  V30 2488 H 240.12 5.53506 1.49345 0
M  V30 2489 H 238.517 5.94515 0.81684 0
M  V30 2490 H 239.587 4.84842 -0.0749568 0
M  V30 2491 N 240.93 -0.123565 1.57115 0
M  V30 2492 C 241.893 -1.13583 1.99076 0
M  V30 2493 C 242.893 -1.34564 0.880296 0
M  V30 2494 O 244.083 -1.31158 1.14644 0
M  V30 2495 C 241.215 -2.49128 2.32698 0
M  V30 2496 H 242.408 -0.775287 2.89706 0
M  V30 2497 H 239.961 -0.36771 1.51913 0
M  V30 2498 H 240.696 -2.90111 1.44934 0
M  V30 2499 H 240.481 -2.35255 3.13684 0
M  V30 2500 H 241.971 -3.2199 2.65918 0
M  V30 2501 N 242.408 -1.52605 -0.393616 0
M  V30 2502 C 243.824 -1.41753 -0.733357 0
M  V30 2503 C 244.024 -0.534293 -1.94287 0
M  V30 2504 O 243.08 -0.0059787 -2.52499 0
M  V30 2505 C 244.393 -2.84531 -0.972772 0
M  V30 2506 C 245.941 -2.93978 -1.07453 0
M  V30 2507 C 246.416 -4.37756 -1.3466 0
M  V30 2508 N 247.907 -4.4106 -1.41492 0
M  V30 2509 C 248.642 -5.49387 -1.642 0
M  V30 2510 N 248.138 -6.67806 -1.8441 0
M  V30 2511 N 249.931 -5.36923 -1.66342 0
M  V30 2512 H 242.082 -2.08555 0.402328 0
M  V30 2513 H 244.345 -0.940654 0.117789 0
M  V30 2514 H 244.051 -3.51353 -0.156204 0
M  V30 2515 H 243.925 -3.26508 -1.88871 0
M  V30 2516 H 246.312 -2.27326 -1.88167 0
M  V30 2517 H 246.393 -2.55435 -0.136605 0
M  V30 2518 H 246.037 -5.04972 -0.544581 0
M  V30 2519 H 245.967 -4.73848 -2.2973 0
M  V30 2520 H 248.458 -3.55705 -1.27601 0
M  V30 2521 H 248.771 -7.46141 -2.01231 0
M  V30 2522 H 247.116 -6.70843 -1.81644 0
M  V30 2523 H 250.307 -4.43381 -1.50102 0
M  V30 2524 H 250.48 -6.21416 -1.837 0
M  V30 2525 N 243.887 0.651787 -1.4349 0
M  V30 2526 C 244.819 1.77725 -1.44729 0
M  V30 2527 C 245.832 1.59141 -0.343231 0
M  V30 2528 O 247.021 1.67835 -0.607751 0
M  V30 2529 C 244.121 3.15172 -1.24579 0
M  V30 2530 C 243.294 3.60402 -2.47849 0
M  V30 2531 C 242.353 4.76656 -2.22902 0
M  V30 2532 O 241.379 4.86022 -2.96263 0
M  V30 2533 N 242.581 5.66958 -1.24656 0
M  V30 2534 H 245.346 1.77141 -2.41746 0
M  V30 2535 H 242.907 0.835678 -1.38665 0
M  V30 2536 H 244.899 3.90634 -1.0577 0
M  V30 2537 H 243.469 3.1052 -0.360015 0
M  V30 2538 H 242.689 2.75369 -2.82073 0
M  V30 2539 H 243.977 3.87368 -3.29884 0
M  V30 2540 H 243.375 5.62065 -0.640265 0
M  V30 2541 H 241.932 6.42135 -1.1183 0
M  V30 2542 N 245.365 1.30045 0.890287 0
M  V30 2543 C 246.613 1.18327 1.63839 0
M  V30 2544 C 246.934 -0.263455 1.93212 0
M  V30 2545 O 246.204 -1.17856 1.56482 0
M  V30 2546 H 244.784 0.434933 0.607324 0
M  V30 2547 H 247.446 1.631 1.06698 0
M  V30 2548 H 246.542 1.74024 2.59079 0
M  V30 2549 N 246.843 -1.10192 1.12674 0
M  V30 2550 C 248.09 -1.82205 0.883606 0
M  V30 2551 C 248.418 -1.8532 -0.590492 0
M  V30 2552 O 247.673 -1.31137 -1.45264 0
M  V30 2553 C 247.972 -3.28552 1.4067 0
M  V30 2554 C 247.638 -3.45582 2.89627 0
M  V30 2555 C 246.3 -3.49937 3.30299 0
M  V30 2556 C 248.652 -3.50768 3.85501 0
M  V30 2557 C 245.98 -3.57049 4.65546 0
M  V30 2558 C 248.332 -3.59414 5.20581 0
M  V30 2559 C 246.996 -3.62034 5.60792 0
M  V30 2560 H 246.266 -0.666735 0.323334 0
M  V30 2561 H 248.913 -1.29868 1.40736 0
M  V30 2562 H 247.218 -3.83473 0.80347 0
M  V30 2563 H 248.915 -3.82788 1.19475 0
M  V30 2564 H 245.505 -3.42871 2.57172 0
M  V30 2565 H 249.689 -3.46651 3.55171 0
M  V30 2566 H 244.945 -3.57361 4.96088 0
M  V30 2567 H 249.119 -3.62371 5.94693 0
M  V30 2568 H 246.746 -3.67298 6.6558 0
M  V30 2569 N 248.321 -0.919034 -1.28029 0
M  V30 2570 C 249.732 -0.600735 -1.76771 0
M  V30 2571 C 250.083 0.884024 -1.75156 0
M  V30 2572 O 249.208 1.69163 -1.34956 0
M  V30 2573 C 249.803 -1.08372 -3.21 0
M  V30 2574 C 248.362 -0.816248 -3.67443 0
M  V30 2575 C 247.509 -1.24742 -2.47658 0
M  V30 2576 H 250.46 -1.09974 -1.14418 0
M  V30 2577 H 250.481 -0.427512 -3.78091 0
M  V30 2578 H 249.993 -2.16437 -3.22144 0
M  V30 2579 H 248.094 0.250968 -3.71754 0
M  V30 2580 H 248.207 -1.4277 -4.57333 0
M  V30 2581 H 246.571 -0.666083 -2.45836 0
M  V30 2582 H 247.354 -2.33653 -2.51518 0
M  V30 2583 N 249.799 1.42003 -0.683588 0
M  V30 2584 C 251.045 2.01712 -0.209825 0
M  V30 2585 C 251.378 1.53968 1.18353 0
M  V30 2586 O 250.653 0.745661 1.79639 0
M  V30 2587 C 250.936 3.59202 -0.254197 0
M  V30 2588 C 250.789 4.17102 -1.68363 0
M  V30 2589 C 252.108 4.38344 0.392709 0
M  V30 2590 H 249.227 0.732891 -0.0777189 0
M  V30 2591 H 251.869 1.68909 -0.87004 0
M  V30 2592 H 250.019 3.87278 0.307954 0
M  V30 2593 H 251.691 3.99946 -2.29871 0
M  V30 2594 H 249.934 3.72597 -2.22157 0
M  V30 2595 H 250.605 5.26249 -1.6663 0
M  V30 2596 H 253.081 4.16011 -0.0859162 0
M  V30 2597 H 251.957 5.47901 0.331063 0
M  V30 2598 H 252.218 4.16887 1.47164 0
M  V30 2599 N 251.277 0.427512 1.51691 0
M  V30 2600 C 252.525 -0.141948 2.01601 0
M  V30 2601 C 252.846 -1.44067 1.31414 0
M  V30 2602 O 252.116 -1.90763 0.445658 0
M  V30 2603 H 250.696 -0.0554468 0.744939 0
M  V30 2604 H 253.358 0.567968 1.86441 0
M  V30 2605 H 252.454 -0.324913 3.10404 0
M  V30 2606 N 252.755 -1.56801 0.158532 0
M  V30 2607 C 253.702 -2.17337 -0.776729 0
M  V30 2608 C 254.672 -1.1096 -1.23601 0
M  V30 2609 O 255.857 -1.39054 -1.30647 0
M  V30 2610 C 252.997 -2.80822 -2.00582 0
M  V30 2611 C 252.11 -4.01624 -1.59129 0
M  V30 2612 C 251.245 -4.53072 -2.77306 0
M  V30 2613 C 250.284 -5.66314 -2.32282 0
M  V30 2614 N 249.421 -6.12329 -3.43508 0
M  V30 2615 H 254.261 -2.96918 -0.253701 0
M  V30 2616 H 251.798 -1.46661 -0.113504 0
M  V30 2617 H 253.756 -3.15779 -2.72652 0
M  V30 2618 H 252.386 -2.03866 -2.50277 0
M  V30 2619 H 251.438 -3.72571 -0.767806 0
M  V30 2620 H 252.75 -4.83633 -1.2207 0
M  V30 2621 H 251.904 -4.90145 -3.57551 0
M  V30 2622 H 250.643 -3.70095 -3.17617 0
M  V30 2623 H 249.648 -5.28806 -1.5048 0
M  V30 2624 H 250.873 -6.51085 -1.93043 0
M  V30 2625 H 248.819 -5.32284 -3.83418 0
M  V30 2626 H 248.736 -6.89293 -3.105 0
M  V30 2627 H 250.004 -6.5405 -4.24075 0
M  V30 2628 N 254.233 0.115231 -1.57178 0
M  V30 2629 C 255.481 0.820727 -1.84685 0
M  V30 2630 C 255.802 1.80237 -0.744279 0
M  V30 2631 O 255.072 1.94529 0.231375 0
M  V30 2632 H 253.652 0.306084 -0.681411 0
M  V30 2633 H 256.314 0.101656 -1.94635 0
M  V30 2634 H 255.41 1.36366 -2.80733 0
M  V30 2635 N 255.711 1.52812 0.385517 0
M  V30 2636 C 256.641 1.80808 1.47752 0
M  V30 2637 C 257.622 0.660318 1.5676 0
M  V30 2638 O 258.807 0.908246 1.71652 0
M  V30 2639 C 255.937 1.98008 2.85324 0
M  V30 2640 C 254.891 3.13709 2.91154 0
M  V30 2641 C 254.217 3.16169 4.31209 0
M  V30 2642 C 255.517 4.52709 2.60483 0
M  V30 2643 H 257.211 2.72253 1.24573 0
M  V30 2644 H 254.757 1.31003 0.597839 0
M  V30 2645 H 256.71 2.16176 3.61726 0
M  V30 2646 H 255.434 1.03255 3.09848 0
M  V30 2647 H 254.093 2.95329 2.17201 0
M  V30 2648 H 253.741 2.19092 4.52778 0
M  V30 2649 H 253.441 3.93894 4.36029 0
M  V30 2650 H 254.965 3.36496 5.09512 0
M  V30 2651 H 256.379 4.71173 3.26602 0
M  V30 2652 H 254.776 5.32528 2.76648 0
M  V30 2653 H 255.846 4.59186 1.55809 0
M  V30 2654 N 257.189 -0.644168 1.43834 0
M  V30 2655 C 258.152 -1.73857 1.49353 0
M  V30 2656 C 259.152 -1.56315 0.377112 0
M  V30 2657 O 260.342 -1.62048 0.639226 0
M  V30 2658 C 257.474 -3.12819 1.35488 0
M  V30 2659 H 258.667 -1.70342 2.46827 0
M  V30 2660 H 256.22 -0.856652 1.30733 0
M  V30 2661 H 256.955 -3.2194 0.390569 0
M  V30 2662 H 256.74 -3.26958 2.16428 0
M  V30 2663 H 258.23 -3.92606 1.42302 0
M  V30 2664 N 258.668 -1.30515 -0.883378 0
M  V30 2665 C 259.631 -1.1701 -1.97082 0
M  V30 2666 C 260.631 -0.10089 -1.60483 0
M  V30 2667 O 261.821 -0.349127 -1.70666 0
M  V30 2668 C 258.953 -0.793045 -3.31547 0
M  V30 2669 H 260.146 -2.13622 -2.10489 0
M  V30 2670 H 257.699 -1.13935 -1.06998 0
M  V30 2671 H 258.434 0.172499 -3.23841 0
M  V30 2672 H 258.219 -1.56576 -3.5948 0
M  V30 2673 H 259.709 -0.722073 -4.1131 0
M  V30 2674 N 260.146 1.09593 -1.13257 0
M  V30 2675 C 261.109 2.14359 -0.811358 0
M  V30 2676 C 262.109 1.59808 0.178377 0
M  V30 2677 O 263.299 1.74132 -0.0484911 0
M  V30 2678 C 260.431 3.40269 -0.207276 0
M  V30 2679 H 261.624 2.44284 -1.73969 0
M  V30 2680 H 259.177 1.25102 -0.936973 0
M  V30 2681 H 259.912 3.15969 0.73036 0
M  V30 2682 H 259.697 3.81154 -0.919992 0
M  V30 2683 H 261.187 4.176 0.000667944 0
M  V30 2684 N 261.624 0.925811 1.2754 0
M  V30 2685 C 262.554 0.440748 2.29303 0
M  V30 2686 C 263.535 -0.497971 1.62648 0
M  V30 2687 O 264.72 -0.403126 1.8997 0
M  V30 2688 C 261.85 -0.309048 3.45922 0
M  V30 2689 C 260.804 0.54166 4.24559 0
M  V30 2690 C 260.13 -0.337191 5.33636 0
M  V30 2691 C 261.43 1.80516 4.90114 0
M  V30 2692 H 263.124 1.29121 2.70126 0
M  V30 2693 H 260.67 0.622323 1.29858 0
M  V30 2694 H 262.623 -0.659315 4.1621 0
M  V30 2695 H 261.347 -1.19352 3.04011 0
M  V30 2696 H 260.006 0.874609 3.56014 0
M  V30 2697 H 259.654 -1.22056 4.87966 0
M  V30 2698 H 259.354 0.228497 5.87156 0
M  V30 2699 H 260.878 -0.683072 6.06767 0
M  V30 2700 H 262.292 1.52307 5.52698 0
M  V30 2701 H 260.689 2.3142 5.53683 0
M  V30 2702 H 261.759 2.52581 4.13921 0
M  V30 2703 N 263.102 -1.41638 0.69111 0
M  V30 2704 C 264.012 -2.34588 0.0233487 0
M  V30 2705 C 265.028 -1.55987 -0.770984 0
M  V30 2706 O 266.204 -1.88486 -0.709569 0
M  V30 2707 C 263.269 -3.34684 -0.904851 0
M  V30 2708 C 262.33 -4.29176 -0.103225 0
M  V30 2709 C 261.563 -5.2449 -0.987216 0
M  V30 2710 O 261.786 -5.2514 -2.22674 0
M  V30 2711 O 260.72 -6.00295 -0.439281 0
M  V30 2712 H 264.546 -2.93261 0.789416 0
M  V30 2713 H 262.131 -1.42417 0.45142 0
M  V30 2714 H 264.013 -3.96133 -1.43724 0
M  V30 2715 H 262.688 -2.78461 -1.65049 0
M  V30 2716 H 261.595 -3.71089 0.473655 0
M  V30 2717 H 262.928 -4.88484 0.60365 0
M  V30 2718 N 264.58 -0.43555 -1.51462 0
M  V30 2719 C 265.528 0.391205 -2.29287 0
M  V30 2720 C 266.522 1.02247 -1.35062 0
M  V30 2721 O 267.728 0.957646 -1.52411 0
M  V30 2722 H 264.103 0.144968 -0.737895 0
M  V30 2723 H 266.074 -0.286051 -2.97026 0
M  V30 2724 C 264.823 1.48096 -3.14583 0
M  V30 2725 H 264.146 1.00457 -3.86973 0
M  V30 2726 H 265.586 2.03273 -3.72097 0
M  V30 2727 C 264.045 2.46321 -2.29843 0
M  V30 2728 O 264.575 3.50815 -1.95682 0
M  V30 2729 N 262.781 2.17166 -1.931 0
M  V30 2730 H 262.328 1.32218 -2.21079 0
M  V30 2731 H 262.286 2.83127 -1.36698 0
M  V30 2732 N 266.058 1.56714 -0.166846 0
M  V30 2733 C 267.005 2.17746 0.765193 0
M  V30 2734 C 267.975 1.11614 1.23011 0
M  V30 2735 O 269.16 1.39745 1.29908 0
M  V30 2736 C 266.3 2.81882 1.9909 0
M  V30 2737 C 265.413 4.02462 1.56997 0
M  V30 2738 C 264.548 4.54537 2.749 0
M  V30 2739 C 263.587 5.67538 2.29275 0
M  V30 2740 N 262.724 6.14142 3.40255 0
M  V30 2741 H 267.564 2.97048 0.237952 0
M  V30 2742 H 265.101 1.4672 0.105725 0
M  V30 2743 H 267.059 3.17221 2.70974 0
M  V30 2744 H 265.689 2.05191 2.49192 0
M  V30 2745 H 264.741 3.72973 0.748037 0
M  V30 2746 H 266.053 4.84273 1.19503 0
M  V30 2747 H 265.207 4.92035 3.54946 0
M  V30 2748 H 263.946 3.71774 3.1565 0
M  V30 2749 H 262.951 5.29597 1.47674 0
M  V30 2750 H 264.176 6.52099 1.89588 0
M  V30 2751 H 262.122 5.3431 3.8059 0
M  V30 2752 H 262.039 6.9093 3.06841 0
M  V30 2753 H 263.307 6.56289 4.206 0
M  V30 2754 N 267.536 -0.106894 1.57237 0
M  V30 2755 C 268.952 -0.46078 1.52804 0
M  V30 2756 C 269.152 -1.81184 0.881746 0
M  V30 2757 O 268.208 -2.48102 0.469224 0
M  V30 2758 C 269.521 -0.434127 2.9755 0
M  V30 2759 C 271.069 -0.516821 3.08704 0
M  V30 2760 C 271.544 -0.520436 4.55033 0
M  V30 2761 N 273.035 -0.58153 4.59535 0
M  V30 2762 C 273.77 -0.605973 5.70189 0
M  V30 2763 N 273.266 -0.587331 6.90306 0
M  V30 2764 N 275.059 -0.649895 5.5833 0
M  V30 2765 H 267.21 0.778203 1.9763 0
M  V30 2766 H 269.473 0.288403 0.903066 0
M  V30 2767 H 269.179 0.491197 3.48253 0
M  V30 2768 H 269.053 -1.25748 3.55622 0
M  V30 2769 H 271.44 -1.43256 2.57995 0
M  V30 2770 H 271.521 0.334449 2.53604 0
M  V30 2771 H 271.165 0.391313 5.0639 0
M  V30 2772 H 271.095 -1.38876 5.07958 0
M  V30 2773 H 273.586 -0.60161 3.73081 0
M  V30 2774 H 273.899 -0.60894 7.70397 0
M  V30 2775 H 272.244 -0.554564 6.92784 0
M  V30 2776 H 275.435 -0.661907 4.63397 0
M  V30 2777 H 275.608 -0.665476 6.44574 0
M  V30 2778 N 269.014 -1.53014 -0.377408 0
M  V30 2779 C 270.242 -1.72515 -1.14219 0
M  V30 2780 C 270.657 -0.448735 -1.8339 0
M  V30 2781 O 270.014 0.577592 -1.73119 0
M  V30 2782 C 270.065 -2.8826 -2.18148 0
M  V30 2783 O 269.786 -4.10962 -1.51795 0
M  V30 2784 C 271.287 -3.19536 -3.07264 0
M  V30 2785 H 268.507 -0.577301 -0.342001 0
M  V30 2786 H 271.051 -1.99712 -0.439935 0
M  V30 2787 H 269.206 -2.63492 -2.83991 0
M  V30 2788 H 269.62 -4.75693 -2.20945 0
M  V30 2789 H 271.094 -4.03959 -3.76193 0
M  V30 2790 H 271.571 -2.34403 -3.71419 0
M  V30 2791 H 272.177 -3.46186 -2.47053 0
M  V30 2792 N 270.492 0.636531 -1.44174 0
M  V30 2793 C 271.738 1.39826 -1.4689 0
M  V30 2794 C 272.071 1.93947 -0.0990585 0
M  V30 2795 O 271.346 1.73325 0.882544 0
M  V30 2796 C 271.629 2.56751 -2.5249 0
M  V30 2797 C 271.482 2.08014 -3.98811 0
M  V30 2798 C 272.801 3.58946 -2.54649 0
M  V30 2799 H 269.92 0.507075 -0.53483 0
M  V30 2800 H 272.562 0.720188 -1.75822 0
M  V30 2801 H 270.712 3.14597 -2.2795 0
M  V30 2802 H 272.384 1.5504 -4.34466 0
M  V30 2803 H 270.627 1.39242 -4.10846 0
M  V30 2804 H 271.298 2.92169 -4.68339 0
M  V30 2805 H 273.774 3.1089 -2.76563 0
M  V30 2806 H 272.65 4.38286 -3.3045 0
M  V30 2807 H 272.911 4.12655 -1.58646 0
M  V30 2808 N 271.97 1.30982 0.876444 0
M  V30 2809 C 273.219 1.19658 1.62373 0
M  V30 2810 C 273.532 -0.245636 1.94052 0
M  V30 2811 O 274.738 -0.48049 2.67214 0
M  V30 2812 C 273.194 2.09433 2.92687 0
M  V30 2813 C 272.802 3.58613 2.68516 0
M  V30 2814 C 274.546 2.06893 3.70669 0
M  V30 2815 C 272.453 4.40416 3.94699 0
M  V30 2816 H 271.383 0.444268 0.609214 0
M  V30 2817 H 274.034 1.55791 0.969605 0
M  V30 2818 H 272.416 1.66191 3.59439 0
M  V30 2819 H 273.59 4.10058 2.10212 0
M  V30 2820 H 271.905 3.63063 2.03898 0
M  V30 2821 H 274.502 2.65258 4.64265 0
M  V30 2822 H 274.845 1.05448 4.02724 0
M  V30 2823 H 275.378 2.48301 3.10792 0
M  V30 2824 H 272.117 5.42591 3.67798 0
M  V30 2825 H 271.637 3.93731 4.52477 0
M  V30 2826 H 273.316 4.52294 4.62644 0
M  V30 2827 N 273.449 -1.08991 1.13837 0
M  V30 2828 C 274.359 -2.19301 0.833333 0
M  V30 2829 C 275.375 -1.73026 -0.183847 0
M  V30 2830 O 276.551 -2.01395 -0.0138092 0
M  V30 2831 C 273.616 -3.45323 0.308651 0
M  V30 2832 C 272.677 -4.06255 1.38764 0
M  V30 2833 C 271.91 -5.26262 0.887896 0
M  V30 2834 O 272.133 -5.69747 -0.27287 0
M  V30 2835 O 271.067 -5.78435 1.66421 0
M  V30 2836 H 274.893 -2.47854 1.75506 0
M  V30 2837 H 272.478 -1.18012 0.916166 0
M  V30 2838 H 274.36 -4.21394 0.0216739 0
M  V30 2839 H 273.035 -3.18362 -0.585431 0
M  V30 2840 H 271.942 -3.318 1.72799 0
M  V30 2841 H 273.275 -4.37452 2.25602 0
M  V30 2842 N 274.927 -0.932562 -1.27047 0
M  V30 2843 C 275.859 -0.392734 -2.2581 0
M  V30 2844 C 276.872 0.479241 -1.55586 0
M  V30 2845 O 278.061 0.291078 -1.76111 0
M  V30 2846 C 275.161 0.455456 -3.35826 0
M  V30 2847 C 274.334 -0.398355 -4.35582 0
M  V30 2848 C 273.393 0.387985 -5.24768 0
M  V30 2849 O 272.419 -0.206003 -5.68827 0
M  V30 2850 N 273.621 1.68664 -5.55457 0
M  V30 2851 H 276.386 -1.24173 -2.72766 0
M  V30 2852 H 273.947 -0.800511 -1.40725 0
M  V30 2853 H 275.939 0.988692 -3.92437 0
M  V30 2854 H 274.509 1.20522 -2.88432 0
M  V30 2855 H 273.729 -1.11286 -3.78165 0
M  V30 2856 H 275.017 -0.981889 -4.99236 0
M  V30 2857 H 274.415 2.19147 -5.21528 0
M  V30 2858 H 272.972 2.1663 -6.14748 0
M  V30 2859 N 276.405 1.4127 -0.698611 0
M  V30 2860 C 277.337 2.292 0.00399731 0
M  V30 2861 C 278.35 1.44944 0.741279 0
M  V30 2862 O 279.539 1.68416 0.591477 0
M  V30 2863 C 276.639 3.22875 1.02979 0
M  V30 2864 C 275.812 4.35904 0.36151 0
M  V30 2865 C 274.871 5.10134 1.29033 0
M  V30 2866 O 273.897 5.63809 0.781562 0
M  V30 2867 N 275.099 5.17885 2.6225 0
M  V30 2868 H 277.864 2.9014 -0.750921 0
M  V30 2869 H 275.425 1.52455 -0.544882 0
M  V30 2870 H 277.417 3.69404 1.65296 0
M  V30 2871 H 275.987 2.63221 1.68622 0
M  V30 2872 H 275.207 3.91719 -0.441584 0
M  V30 2873 H 276.495 5.08696 -0.103055 0
M  V30 2874 H 275.893 4.7573 3.061 0
M  V30 2875 H 274.45 5.6798 3.19754 0
M  V30 2876 N 277.883 0.443576 1.51229 0
M  V30 2877 C 279.294 -0.0180867 1.86691 0
M  V30 2878 C 279.645 -1.41384 1.36033 0
M  V30 2879 O 278.77 -2.04291 0.713722 0
M  V30 2880 C 279.365 -0.039597 3.38777 0
M  V30 2881 C 277.924 -0.445692 3.73752 0
M  V30 2882 C 277.071 0.357584 2.74985 0
M  V30 2883 H 280.022 0.659138 1.44364 0
M  V30 2884 H 280.043 -0.847761 3.70936 0
M  V30 2885 H 279.555 0.976382 3.75617 0
M  V30 2886 H 277.656 -1.46704 3.42503 0
M  V30 2887 H 277.769 -0.166155 4.78812 0
M  V30 2888 H 276.133 -0.184973 2.54027 0
M  V30 2889 H 276.916 1.37256 3.14668 0
M  V30 2890 N 279.361 -1.56624 0.175154 0
M  V30 2891 C 280.607 -1.9729 -0.469506 0
M  V30 2892 C 280.94 -1.06128 -1.62636 0
M  V30 2893 O 280.215 -0.109183 -1.94193 0
M  V30 2894 C 280.498 -3.47375 -0.948804 0
M  V30 2895 C 280.351 -4.49317 0.208491 0
M  V30 2896 C 281.67 -4.00652 -1.82116 0
M  V30 2897 H 278.789 -0.717317 -0.16919 0
M  V30 2898 H 281.431 -1.88184 0.262062 0
M  V30 2899 H 279.581 -3.55267 -1.57219 0
M  V30 2900 H 281.253 -4.53482 0.845682 0
M  V30 2901 H 279.496 -4.25121 0.863395 0
M  V30 2902 H 280.167 -5.51741 -0.169059 0
M  V30 2903 H 282.643 -3.95416 -1.2956 0
M  V30 2904 H 281.519 -5.06075 -2.12554 0
M  V30 2905 H 281.78 -3.44699 -2.7683 0
M  V30 2906 N 280.839 0.0985539 -1.57292 0
M  V30 2907 C 281.769 1.12064 -2.04851 0
M  V30 2908 C 282.75 1.41981 -0.936767 0
M  V30 2909 O 283.935 1.52071 -1.20781 0
M  V30 2910 C 281.065 2.44144 -2.47004 0
M  V30 2911 C 280.019 2.28643 -3.6181 0
M  V30 2912 C 279.345 3.65869 -3.89929 0
M  V30 2913 C 280.645 1.72986 -4.92822 0
M  V30 2914 H 282.339 0.724979 -2.9049 0
M  V30 2915 H 279.885 0.34729 -1.39749 0
M  V30 2916 H 281.838 3.15914 -2.78884 0
M  V30 2917 H 280.562 2.85639 -1.5836 0
M  V30 2918 H 279.221 1.59318 -3.30172 0
M  V30 2919 H 278.869 4.04885 -2.98458 0
M  V30 2920 H 278.569 3.56344 -4.67218 0
M  V30 2921 H 280.093 4.39112 -4.2428 0
M  V30 2922 H 281.507 2.34593 -5.23105 0
M  V30 2923 H 279.904 1.74229 -5.74251 0
M  V30 2924 H 280.974 0.689007 -4.7998 0
M  V30 2925 N 282.317 1.53212 0.369288 0
M  V30 2926 C 283.557 1.70915 1.12105 0
M  V30 2927 C 283.921 0.449444 1.86665 0
M  V30 2928 O 285.122 0.503105 2.6405 0
M  V30 2929 C 283.393 2.9222 2.05772 0
M  V30 2930 S 284.952 3.30609 2.88519 0
M  V30 2931 H 281.77 0.601445 0.379189 0
M  V30 2932 H 284.372 1.91306 0.402794 0
M  V30 2933 H 283.076 3.82103 1.49752 0
M  V30 2934 H 282.607 2.7422 2.82076 0
M  V30 2935 H 284.622 2.82333 4.08047 0
M  V30 2936 N 283.795 -0.628877 1.44509 0
M  V30 2937 C 284.705 -1.7694 1.54044 0
M  V30 2938 C 285.721 -1.68705 0.425987 0
M  V30 2939 O 286.897 -1.89442 0.683656 0
M  V30 2940 C 283.962 -3.13332 1.48405 0
M  V30 2941 C 283.023 -3.33181 2.70719 0
M  V30 2942 C 282.256 -4.63067 2.6534 0
M  V30 2943 O 282.479 -5.44017 1.71469 0
M  V30 2944 O 281.413 -4.85167 3.56226 0
M  V30 2945 H 285.239 -1.71848 2.50403 0
M  V30 2946 H 282.824 -0.790378 1.26781 0
M  V30 2947 H 284.706 -3.94634 1.47791 0
M  V30 2948 H 283.381 -3.1896 0.551898 0
M  V30 2949 H 282.288 -2.51549 2.769 0
M  V30 2950 H 283.621 -3.32416 3.62988 0
M  V30 2951 N 285.273 -1.31445 -0.869486 0
M  V30 2952 C 286.519 -1.21337 -1.62496 0
M  V30 2953 C 286.852 0.227872 -1.92858 0
M  V30 2954 O 286.127 1.16094 -1.56053 0
M  V30 2955 C 286.41 -2.05814 -2.95487 0
M  V30 2956 C 286.263 -3.5824 -2.72 0
M  V30 2957 C 287.582 -1.9079 -3.96594 0
M  V30 2958 H 284.701 -0.442135 -0.589649 0
M  V30 2959 H 287.343 -1.6124 -1.00507 0
M  V30 2960 H 285.493 -1.71913 -3.48394 0
M  V30 2961 H 287.165 -4.0228 -2.25762 0
M  V30 2962 H 285.408 -3.81647 -2.06224 0
M  V30 2963 H 286.079 -4.12657 -3.66631 0
M  V30 2964 H 288.555 -2.20459 -3.52898 0
M  V30 2965 H 287.431 -2.52199 -4.87531 0
M  V30 2966 H 287.692 -0.871341 -4.33428 0
M  V30 2967 N 286.751 1.08385 -1.14413 0
M  V30 2968 C 287.998 1.80776 -0.912482 0
M  V30 2969 C 288.326 1.86236 0.560934 0
M  V30 2970 O 287.581 1.33431 1.43159 0
M  V30 2971 C 287.88 3.26273 -1.45879 0
M  V30 2972 C 287.546 3.4093 -2.95089 0
M  V30 2973 C 286.208 3.44638 -3.35824 0
M  V30 2974 C 288.56 3.44591 -3.91033 0
M  V30 2975 C 285.888 3.49597 -4.71167 0
M  V30 2976 C 288.24 3.51086 -5.26233 0
M  V30 2977 C 286.904 3.53067 -5.6648 0
M  V30 2978 H 286.174 0.661507 -0.333901 0
M  V30 2979 H 288.821 1.27613 -1.42784 0
M  V30 2980 H 287.126 3.82146 -0.864376 0
M  V30 2981 H 288.823 3.80839 -1.2555 0
M  V30 2982 H 285.413 3.38736 -2.62594 0
M  V30 2983 H 289.597 3.40957 -3.60641 0
M  V30 2984 H 284.853 3.49424 -5.0171 0
M  V30 2985 H 289.027 3.52864 -6.00383 0
M  V30 2986 H 286.654 3.56662 -6.71339 0
M  V30 2987 N 288.23 0.939286 1.26551 0
M  V30 2988 C 289.47 0.5933 1.956 0
M  V30 2989 C 289.834 -0.851515 1.72085 0
M  V30 2990 O 291.035 -1.30634 2.34921 0
M  V30 2991 C 289.306 0.923996 3.45249 0
M  V30 2992 S 290.865 0.688269 4.33369 0
M  V30 2993 H 287.683 0.218591 0.676564 0
M  V30 2994 H 290.285 1.2102 1.5354 0
M  V30 2995 H 288.989 1.97297 3.59864 0
M  V30 2996 H 288.52 0.296746 3.92279 0
M  V30 2997 H 290.535 -0.448434 4.9417 0
M  V30 2998 N 289.708 -1.40897 0.706093 0
M  V30 2999 C 291.124 -1.55042 0.37869 0
M  V30 3000 C 291.324 -1.67944 -1.11342 0
M  V30 3001 O 290.38 -1.66372 -1.89938 0
M  V30 3002 C 291.693 -2.78398 1.13643 0
M  V30 3003 C 293.241 -2.92206 1.12181 0
M  V30 3004 C 293.716 -4.18463 1.86152 0
M  V30 3005 N 295.207 -4.25443 1.83173 0
M  V30 3006 C 295.942 -5.2202 2.37239 0
M  V30 3007 N 295.438 -6.24563 2.99821 0
M  V30 3008 N 297.231 -5.14033 2.27435 0
M  V30 3009 H 289.382 -1.30769 1.67372 0
M  V30 3010 H 291.645 -0.631653 0.706907 0
M  V30 3011 H 291.351 -2.7511 2.19106 0
M  V30 3012 H 291.225 -3.70228 0.721853 0
M  V30 3013 H 293.612 -2.95004 0.0754171 0
M  V30 3014 H 293.693 -2.01521 1.57554 0
M  V30 3015 H 293.337 -4.16427 2.90776 0
M  V30 3016 H 293.267 -5.08141 1.38206 0
M  V30 3017 H 295.758 -3.51976 1.37556 0
M  V30 3018 H 296.071 -6.94665 3.38616 0
M  V30 3019 H 294.416 -6.25035 3.03902 0
M  V30 3020 H 297.607 -4.3285 1.78208 0
M  V30 3021 H 297.78 -5.89129 2.69873 0
M  V30 3022 N 291.186 -0.45159 -1.50991 0
M  V30 3023 C 292.463 0.170707 -1.94854 0
M  V30 3024 C 292.843 1.58788 -1.39103 0
M  V30 3025 O 292.191 2.20913 -0.583921 0
M  V30 3026 C 292.401 0.133929 -3.48743 0
M  V30 3027 C 293.749 0.33248 -4.23296 0
M  V30 3028 O 294.773 0.211403 -3.55572 0
M  V30 3029 O 293.632 0.57486 -5.43468 0
M  V30 3030 H 290.726 0.122264 -0.817912 0
M  V30 3031 H 293.272 -0.510594 -1.61836 0
M  V30 3032 H 292.044 -0.856283 -3.81816 0
M  V30 3033 H 291.667 0.857529 -3.88242 0
M  V30 3034 N 292.664 1.56529 -0.183458 0
M  V30 3035 C 294.08 1.58664 0.172554 0
M  V30 3036 C 294.28 1.19925 1.61926 0
M  V30 3037 O 293.336 0.916534 2.35278 0
M  V30 3038 C 294.649 3.00463 -0.119262 0
M  V30 3039 C 296.197 3.12945 -0.0584396 0
M  V30 3040 C 296.672 4.56857 -0.323408 0
M  V30 3041 N 298.163 4.62403 -0.271612 0
M  V30 3042 C 298.898 5.71626 -0.450639 0
M  V30 3043 N 298.394 6.89362 -0.689384 0
M  V30 3044 N 300.187 5.60775 -0.385701 0
M  V30 3045 H 292.338 1.79994 -1.12765 0
M  V30 3046 H 294.601 0.834808 -0.449222 0
M  V30 3047 H 294.307 3.33326 -1.12192 0
M  V30 3048 H 294.181 3.72659 0.583544 0
M  V30 3049 H 296.568 2.79902 0.934805 0
M  V30 3050 H 296.649 2.4316 -0.794144 0
M  V30 3051 H 296.293 4.9061 -1.31392 0
M  V30 3052 H 296.223 5.24816 0.43305 0
M  V30 3053 H 298.714 3.77785 -0.0932256 0
M  V30 3054 H 299.027 7.68489 -0.815113 0
M  V30 3055 H 297.372 6.91196 -0.726142 0
M  V30 3056 H 300.563 4.67674 -0.199687 0
M  V30 3057 H 300.736 6.4584 -0.528646 0
M  V30 3058 N 294.142 -0.090211 1.57342 0
M  V30 3059 C 295.089 -1.10909 2.02405 0
M  V30 3060 C 296.059 -1.39523 0.901252 0
M  V30 3061 O 297.244 -1.50903 1.1676 0
M  V30 3062 C 294.384 -2.42277 2.45755 0
M  V30 3063 C 293.497 -2.20352 3.71576 0
M  V30 3064 C 292.632 -3.45154 4.03785 0
M  V30 3065 C 291.671 -3.18512 5.22701 0
M  V30 3066 N 290.808 -4.35593 5.50639 0
M  V30 3067 H 295.648 -0.71782 2.89225 0
M  V30 3068 H 293.185 -0.342901 1.43048 0
M  V30 3069 H 295.143 -3.18951 2.68935 0
M  V30 3070 H 293.773 -2.79242 1.61938 0
M  V30 3071 H 292.825 -1.34458 3.55844 0
M  V30 3072 H 294.137 -1.96661 4.58395 0
M  V30 3073 H 293.291 -4.30233 4.27767 0
M  V30 3074 H 292.03 -3.71904 3.15498 0
M  V30 3075 H 291.035 -2.31827 4.98534 0
M  V30 3076 H 292.26 -2.93103 6.12591 0
M  V30 3077 H 290.206 -4.6241 4.6531 0
M  V30 3078 H 290.123 -4.1511 6.31838 0
M  V30 3079 H 291.391 -5.21723 5.7916 0
M  V30 3080 N 295.62 -1.53406 -0.361157 0
M  V30 3081 C 296.866 -1.70054 -1.10496 0
M  V30 3082 C 297.199 -0.453278 -1.88836 0
M  V30 3083 O 296.474 0.5495 -1.86576 0
M  V30 3084 C 296.757 -2.95317 -2.06058 0
M  V30 3085 C 296.61 -4.3021 -1.31298 0
M  V30 3086 C 297.929 -3.16193 -3.06121 0
M  V30 3087 H 295.048 -0.618799 -0.400321 0
M  V30 3088 H 297.69 -1.86052 -0.385318 0
M  V30 3089 H 295.84 -2.81809 -2.67425 0
M  V30 3090 H 297.512 -4.55538 -0.726807 0
M  V30 3091 H 295.755 -4.29421 -0.614853 0
M  V30 3092 H 296.426 -5.14 -2.01265 0
M  V30 3093 H 298.902 -3.28916 -2.5486 0
M  V30 3094 H 297.778 -4.05266 -3.70204 0
M  V30 3095 H 298.039 -2.31676 -3.76535 0
M  V30 3096 N 297.098 0.621204 -1.44841 0
M  V30 3097 C 298.028 1.74366 -1.55303 0
M  V30 3098 C 299.009 1.65199 -0.405385 0
M  V30 3099 O 300.194 1.83807 -0.626787 0
M  V30 3100 C 297.324 3.12931 -1.50637 0
M  V30 3101 C 296.278 3.36896 -2.63979 0
M  V30 3102 C 295.604 4.75594 -2.44366 0
M  V30 3103 C 296.904 3.28483 -4.06074 0
M  V30 3104 H 298.598 1.65867 -2.49256 0
M  V30 3105 H 296.144 0.796558 -1.19962 0
M  V30 3106 H 298.097 3.9124 -1.56555 0
M  V30 3107 H 296.821 3.22237 -0.532057 0
M  V30 3108 H 295.48 2.60972 -2.57467 0
M  V30 3109 H 295.128 4.81616 -1.45105 0
M  V30 3110 H 294.828 4.92586 -3.20364 0
M  V30 3111 H 296.352 5.5612 -2.52117 0
M  V30 3112 H 297.766 3.96684 -4.13902 0
M  V30 3113 H 296.163 3.57008 -4.82354 0
M  V30 3114 H 297.233 2.26133 -4.28943 0
M  V30 3115 N 298.576 1.31904 0.862503 0
M  V30 3116 C 299.992 1.10724 1.14945 0
M  V30 3117 C 300.192 -0.117421 2.01158 0
M  V30 3118 O 299.248 -0.804595 2.39338 0
M  V30 3119 C 300.561 2.38267 1.83437 0
M  V30 3120 C 302.109 2.43949 1.96106 0
M  V30 3121 C 302.584 3.71394 2.68013 0
M  V30 3122 N 304.075 3.72331 2.75543 0
M  V30 3123 C 304.81 4.67641 3.31812 0
M  V30 3124 N 304.306 5.73313 3.88953 0
M  V30 3125 N 306.099 4.5515 3.29841 0
M  V30 3126 H 298.25 2.10436 0.288191 0
M  V30 3127 H 300.513 0.928705 0.190292 0
M  V30 3128 H 300.219 3.27759 1.27542 0
M  V30 3129 H 300.093 2.48633 2.83657 0
M  V30 3130 H 302.48 1.54922 2.51164 0
M  V30 3131 H 302.561 2.37543 0.949059 0
M  V30 3132 H 302.205 4.60791 2.13621 0
M  V30 3133 H 302.135 3.75069 3.69636 0
M  V30 3134 H 304.626 2.95947 2.34997 0
M  V30 3135 H 304.939 6.42107 4.30022 0
M  V30 3136 H 303.284 5.77077 3.87308 0
M  V30 3137 H 306.475 3.71766 2.84443 0
M  V30 3138 H 306.648 5.29604 3.73394 0
M  V30 3139 N 300.054 -1.07777 1.14986 0
M  V30 3140 C 300.964 -2.18404 0.856546 0
M  V30 3141 C 301.98 -1.73211 -0.165485 0
M  V30 3142 O 303.156 -2.01399 0.00755219 0
M  V30 3143 C 300.221 -3.44977 0.34526 0
M  V30 3144 C 299.282 -4.0476 1.43065 0
M  V30 3145 C 298.515 -5.25291 0.943663 0
M  V30 3146 O 298.738 -5.70004 -0.212426 0
M  V30 3147 O 297.672 -5.76638 1.72547 0
M  V30 3148 H 301.498 -2.45978 1.78125 0
M  V30 3149 H 299.083 -1.17033 0.928631 0
M  V30 3150 H 300.965 -4.21348 0.0663671 0
M  V30 3151 H 299.64 -3.18965 -0.551631 0
M  V30 3152 H 298.547 -3.29949 1.76309 0
M  V30 3153 H 299.88 -4.35035 2.30229 0
M  V30 3154 N 301.532 -0.945985 -1.26051 0
M  V30 3155 C 302.78 -0.594941 -1.93145 0
M  V30 3156 C 303.101 0.86953 -1.7454 0
M  V30 3157 O 302.371 1.61838 -1.10387 0
M  V30 3158 H 300.951 -0.217044 -0.714773 0
M  V30 3159 H 303.613 -1.20235 -1.53393 0
M  V30 3160 H 302.709 -0.816835 -3.01221 0
M  V30 3161 N 303.011 1.40521 -0.713556 0
M  V30 3162 C 303.921 2.34522 -0.0606667 0
M  V30 3163 C 304.937 1.57193 0.74607 0
M  V30 3164 O 306.113 1.89591 0.679493 0
M  V30 3165 C 303.178 3.36081 0.851491 0
M  V30 3166 C 302.239 4.29286 0.0349339 0
M  V30 3167 C 301.472 5.25994 0.903649 0
M  V30 3168 O 301.695 5.28616 2.14292 0
M  V30 3169 O 300.629 6.00918 0.343723 0
M  V30 3170 H 304.455 2.91968 -0.835972 0
M  V30 3171 H 302.04 1.41681 -0.47402 0
M  V30 3172 H 303.922 3.98369 1.37404 0
M  V30 3173 H 302.597 2.81052 1.60598 0
M  V30 3174 H 301.504 3.70289 -0.532633 0
M  V30 3175 H 302.837 4.87462 -0.681287 0
M  V30 3176 N 304.489 0.459591 1.5075 0
M  V30 3177 C 305.905 0.113092 1.59199 0
M  V30 3178 C 306.105 -1.37951 1.46874 0
M  V30 3179 O 305.161 -2.15168 1.32132 0
M  V30 3180 C 306.474 0.653043 2.93523 0
M  V30 3181 C 308.022 0.615449 3.0689 0
M  V30 3182 C 308.497 1.13275 4.43771 0
M  V30 3183 N 309.988 1.09167 4.50152 0
M  V30 3184 C 310.723 1.46256 5.54434 0
M  V30 3185 N 310.219 1.90739 6.66026 0
M  V30 3186 N 312.012 1.37932 5.44914 0
M  V30 3187 H 304.163 1.43049 1.57005 0
M  V30 3188 H 306.426 0.590861 0.741341 0
M  V30 3189 H 306.132 1.69822 3.07983 0
M  V30 3190 H 306.006 0.0902132 3.77092 0
M  V30 3191 H 308.393 -0.420793 2.92084 0
M  V30 3192 H 308.474 1.21495 2.25106 0
M  V30 3193 H 308.118 2.16757 4.59324 0
M  V30 3194 H 308.048 0.509576 5.24129 0
M  V30 3195 H 310.539 0.76528 3.7007 0
M  V30 3196 H 310.852 2.17218 7.41644 0
M  V30 3197 H 309.197 1.94683 6.67176 0
M  V30 3198 H 312.388 1.0303 4.56621 0
M  V30 3199 H 312.561 1.67164 6.26067 0
M  V30 3200 N 305.967 -1.56429 0.191757 0
M  V30 3201 C 306.897 -2.21937 -0.725696 0
M  V30 3202 C 307.878 -1.1814 -1.2238 0
M  V30 3203 O 309.063 -1.46636 -1.27325 0
M  V30 3204 C 306.193 -2.87611 -1.94672 0
M  V30 3205 C 305.147 -3.97623 -1.58366 0
M  V30 3206 C 304.473 -4.50446 -2.88102 0
M  V30 3207 C 305.773 -5.16197 -0.796133 0
M  V30 3208 H 307.467 -2.98861 -0.179606 0
M  V30 3209 H 305.013 -1.43749 -0.0849464 0
M  V30 3210 H 306.966 -3.3212 -2.59373 0
M  V30 3211 H 305.69 -2.08087 -2.51728 0
M  V30 3212 H 304.349 -3.53801 -0.960247 0
M  V30 3213 H 303.997 -3.67688 -3.43241 0
M  V30 3214 H 303.697 -5.24675 -2.64556 0
M  V30 3215 H 305.221 -4.97654 -3.53798 0
M  V30 3216 H 306.635 -5.57271 -1.34618 0
M  V30 3217 H 305.032 -5.96471 -0.658928 0
M  V30 3218 H 306.102 -4.84473 0.203478 0
M  V30 3219 N 307.445 0.0818655 -1.57387 0
M  V30 3220 C 308.673 0.796108 -1.9097 0
M  V30 3221 C 309.088 1.71626 -0.786757 0
M  V30 3222 O 308.445 1.80908 0.240513 0
M  V30 3223 C 308.496 1.59829 -3.24248 0
M  V30 3224 O 308.217 0.715131 -4.32224 0
M  V30 3225 C 309.718 2.41442 -3.7178 0
M  V30 3226 H 306.938 0.22691 -0.631469 0
M  V30 3227 H 309.482 0.0551439 -2.04426 0
M  V30 3228 H 307.637 2.29163 -3.12351 0
M  V30 3229 H 308.051 1.27205 -5.08841 0
M  V30 3230 H 309.525 2.932 -4.67694 0
M  V30 3231 H 310.002 3.2051 -3.00283 0
M  V30 3232 H 310.608 1.77283 -3.86589 0
M  V30 3233 N 308.923 1.53595 0.353017 0
M  V30 3234 C 309.853 1.83902 1.43883 0
M  V30 3235 C 310.834 0.693421 1.55324 0
M  V30 3236 O 312.019 0.944452 1.69687 0
M  V30 3237 C 309.149 2.04016 2.8106 0
M  V30 3238 C 308.103 3.19814 2.84434 0
M  V30 3239 C 307.429 3.25244 4.24406 0
M  V30 3240 C 308.729 4.58133 2.50822 0
M  V30 3241 H 310.423 2.74835 1.1877 0
M  V30 3242 H 307.969 1.32242 0.569917 0
M  V30 3243 H 309.922 2.238 3.57059 0
M  V30 3244 H 308.646 1.09804 3.07588 0
M  V30 3245 H 307.305 2.9987 2.10887 0
M  V30 3246 H 306.953 2.28646 4.48029 0
M  V30 3247 H 306.653 4.03054 4.27576 0
M  V30 3248 H 308.177 3.47228 5.0226 0
M  V30 3249 H 309.591 4.77995 3.16534 0
M  V30 3250 H 307.988 5.38276 2.6529 0
M  V30 3251 H 309.058 4.62387 1.46034 0
M  V30 3252 N 310.401 -0.613514 1.45168 0
M  V30 3253 C 311.812 -1.19539 1.43413 0
M  V30 3254 C 312.163 -1.95558 0.158632 0
M  V30 3255 O 311.288 -2.0335 -0.740119 0
M  V30 3256 C 311.883 -2.17445 2.59813 0
M  V30 3257 C 310.442 -2.71022 2.61197 0
M  V30 3258 C 309.589 -1.46323 2.35552 0
M  V30 3259 H 312.54 -0.403163 1.53494 0
M  V30 3260 H 312.561 -3.00373 2.33574 0
M  V30 3261 H 312.073 -1.62089 3.52631 0
M  V30 3262 H 310.174 -3.30332 1.7237 0
M  V30 3263 H 310.287 -3.15859 3.60236 0
M  V30 3264 H 308.651 -1.75072 1.84992 0
M  V30 3265 H 309.434 -0.92844 3.30507 0
M  V30 3266 N 311.879 -1.3236 -0.855495 0
M  V30 3267 C 312.811 -1.17052 -1.97057 0
M  V30 3268 C 313.824 -0.10574 -1.62456 0
M  V30 3269 O 315.013 -0.354619 -1.74942 0
M  V30 3270 C 312.113 -0.769305 -3.30053 0
M  V30 3271 C 311.286 -1.9222 -3.929 0
M  V30 3272 C 310.345 -1.50466 -5.04228 0
M  V30 3273 O 309.371 -2.21655 -5.24269 0
M  V30 3274 N 310.573 -0.400209 -5.79119 0
M  V30 3275 H 313.338 -2.13103 -2.1073 0
M  V30 3276 H 310.899 -1.24885 -1.0303 0
M  V30 3277 H 312.891 -0.472407 -4.01933 0
M  V30 3278 H 311.461 0.100025 -3.1244 0
M  V30 3279 H 310.681 -2.38563 -3.13817 0
M  V30 3280 H 311.969 -2.69403 -4.31624 0
M  V30 3281 H 311.367 0.192319 -5.65373 0
M  V30 3282 H 309.924 -0.162912 -6.51596 0
M  V30 3283 N 313.357 1.07166 -1.15556 0
M  V30 3284 C 314.287 2.16403 -0.877046 0
M  V30 3285 C 315.268 1.69217 0.173111 0
M  V30 3286 O 316.453 1.94181 0.027084 0
M  V30 3287 C 313.583 3.45349 -0.367632 0
M  V30 3288 C 312.537 4.05995 -1.35468 0
M  V30 3289 C 311.863 5.30045 -0.704038 0
M  V30 3290 C 313.163 4.45804 -2.72132 0
M  V30 3291 H 314.857 2.39959 -1.79053 0
M  V30 3292 H 312.403 1.15325 -0.862331 0
M  V30 3293 H 314.356 4.21095 -0.160317 0
M  V30 3294 H 313.08 3.21385 0.581326 0
M  V30 3295 H 311.739 3.32296 -1.54839 0
M  V30 3296 H 311.387 5.02373 0.251128 0
M  V30 3297 H 311.087 5.71579 -1.36277 0
M  V30 3298 H 312.611 6.08495 -0.50654 0
M  V30 3299 H 314.025 5.12671 -2.56595 0
M  V30 3300 H 312.422 4.98296 -3.34397 0
M  V30 3301 H 313.492 3.57083 -3.28054 0
M  V30 3302 N 314.835 0.952656 1.25548 0
M  V30 3303 C 315.798 0.475794 2.24207 0
M  V30 3304 C 316.798 -0.419428 1.55234 0
M  V30 3305 O 317.988 -0.216994 1.72843 0
M  V30 3306 C 315.12 -0.312814 3.39462 0
M  V30 3307 H 316.313 1.34779 2.67908 0
M  V30 3308 H 313.866 0.735739 1.37901 0
M  V30 3309 H 314.601 -1.20257 3.01179 0
M  V30 3310 H 314.386 0.329404 3.90714 0
M  V30 3311 H 315.876 -0.635986 4.12729 0
M  V30 3312 N 316.313 -1.40141 0.720998 0
M  V30 3313 C 317.59 -1.94677 0.189757 0
M  V30 3314 C 317.97 -1.65879 -1.30566 0
M  V30 3315 O 317.318 -0.979391 -2.06447 0
M  V30 3316 C 317.528 -3.45279 0.508304 0
M  V30 3317 C 318.876 -4.22209 0.449934 0
M  V30 3318 O 319.9 -3.53413 0.444677 0
M  V30 3319 O 318.759 -5.44788 0.432189 0
M  V30 3320 H 315.853 -0.826459 0.0299026 0
M  V30 3321 H 318.399 -1.49719 0.7989 0
M  V30 3322 H 317.171 -3.59619 1.54239 0
M  V30 3323 H 316.794 -3.97386 -0.130525 0
M  V30 3324 N 317.792 -0.46758 -1.50504 0
M  V30 3325 C 319.02 0.0864133 -2.06719 0
M  V30 3326 C 319.435 1.33819 -1.33184 0
M  V30 3327 O 318.792 1.78061 -0.400083 0
M  V30 3328 C 318.843 0.378079 -3.59517 0
M  V30 3329 O 318.564 -0.824044 -4.3028 0
M  V30 3330 C 320.065 0.979426 -4.32345 0
M  V30 3331 H 317.285 -0.00551697 -0.670977 0
M  V30 3332 H 319.829 -0.655354 -1.93715 0
M  V30 3333 H 317.984 1.06977 -3.72337 0
M  V30 3334 H 318.398 -0.566518 -5.21432 0
M  V30 3335 H 319.872 1.1333 -5.40241 0
M  V30 3336 H 320.349 1.9686 -3.9261 0
M  V30 3337 H 320.955 0.326216 -4.24047 0
M  V30 3338 N 319.27 1.56325 -0.20005 0
M  V30 3339 C 320.5 2.01811 0.442232 0
M  V30 3340 C 320.908 1.07932 1.55394 0
M  V30 3341 O 320.251 0.0772685 1.83537 0
M  V30 3342 C 320.313 3.43685 1.05457 0
M  V30 3343 C 319.977 4.56928 0.0809833 0
M  V30 3344 C 320.974 5.15009 -0.711471 0
M  V30 3345 C 318.659 5.0229 -0.0315364 0
M  V30 3346 C 320.653 6.16904 -1.60336 0
M  V30 3347 C 318.34 6.04028 -0.926981 0
M  V30 3348 C 319.338 6.6121 -1.71146 0
M  V30 3349 O 319.026 7.60971 -2.59189 0
M  V30 3350 H 318.758 0.666173 0.114848 0
M  V30 3351 H 321.312 2.03085 -0.307511 0
M  V30 3352 H 319.542 3.39413 1.85299 0
M  V30 3353 H 321.231 3.72948 1.60201 0
M  V30 3354 H 321.997 4.80827 -0.634873 0
M  V30 3355 H 317.876 4.57476 0.568902 0
M  V30 3356 H 321.42 6.61464 -2.21611 0
M  V30 3357 H 317.317 6.37634 -1.00468 0
M  V30 3358 H 318.085 7.7841 -2.53023 0
M  V30 3359 N 320.748 -0.0735177 1.57428 0
M  V30 3360 C 321.658 -1.10547 2.06922 0
M  V30 3361 C 322.674 -1.42506 0.998402 0
M  V30 3362 O 323.85 -1.52717 1.31299 0
M  V30 3363 C 320.915 -2.40019 2.50184 0
M  V30 3364 C 319.976 -2.15046 3.71556 0
M  V30 3365 C 319.209 -3.38345 4.12745 0
M  V30 3366 O 319.432 -4.47399 3.53822 0
M  V30 3367 O 318.366 -3.2666 5.05546 0
M  V30 3368 H 322.192 -0.715013 2.95163 0
M  V30 3369 H 319.777 -0.287531 1.46607 0
M  V30 3370 H 321.659 -3.16218 2.78539 0
M  V30 3371 H 320.334 -2.78447 1.65072 0
M  V30 3372 H 319.241 -1.36558 3.48285 0
M  V30 3373 H 320.574 -1.81499 4.57514 0
M  V30 3374 N 322.226 -1.5378 -0.344866 0
M  V30 3375 C 323.454 -1.74899 -1.10534 0
M  V30 3376 C 323.869 -0.487534 -1.82397 0
M  V30 3377 O 323.226 0.540741 -1.74305 0
M  V30 3378 C 323.277 -2.92822 -2.11984 0
M  V30 3379 O 322.998 -4.14089 -1.43044 0
M  V30 3380 C 324.499 -3.25982 -3.00417 0
M  V30 3381 H 321.719 -0.584426 -0.329678 0
M  V30 3382 H 324.263 -2.006 -0.397474 0
M  V30 3383 H 322.418 -2.69457 -2.78338 0
M  V30 3384 H 322.832 -4.80272 -2.10805 0
M  V30 3385 H 324.306 -4.11848 -3.67539 0
M  V30 3386 H 324.783 -2.42228 -3.66363 0
M  V30 3387 H 325.389 -3.51349 -2.39654 0
M  V30 3388 N 323.704 0.605807 -1.45491 0
M  V30 3389 C 324.634 1.72709 -1.57143 0
M  V30 3390 C 325.615 1.6476 -0.422884 0
M  V30 3391 O 326.8 1.83132 -0.646247 0
M  V30 3392 C 323.93 3.11316 -1.53948 0
M  V30 3393 C 322.884 3.34077 -2.67537 0
M  V30 3394 C 322.21 4.72975 -2.49397 0
M  V30 3395 C 323.51 3.24158 -4.09535 0
M  V30 3396 H 325.204 1.63214 -2.51001 0
M  V30 3397 H 322.75 0.78379 -1.208 0
M  V30 3398 H 324.703 3.89557 -1.60696 0
M  V30 3399 H 323.427 3.21655 -0.566205 0
M  V30 3400 H 322.086 2.58227 -2.6022 0
M  V30 3401 H 321.734 4.8005 -1.50205 0
M  V30 3402 H 321.434 4.8916 -3.25571 0
M  V30 3403 H 322.958 5.53414 -2.58002 0
M  V30 3404 H 324.372 3.92271 -4.18086 0
M  V30 3405 H 322.769 3.51872 -4.86113 0
M  V30 3406 H 323.839 2.2157 -4.31317 0
M  V30 3407 N 325.182 1.32811 0.848464 0
M  V30 3408 C 326.145 1.22194 1.9391 0
M  V30 3409 C 327.145 0.143404 1.60159 0
M  V30 3410 O 328.335 0.394253 1.6968 0
M  V30 3411 C 325.467 0.88067 3.29328 0
M  V30 3412 H 326.66 2.19127 2.04752 0
M  V30 3413 H 324.213 1.16731 1.0394 0
M  V30 3414 H 324.948 -0.0865776 3.24184 0
M  V30 3415 H 324.733 1.66052 3.55203 0
M  V30 3416 H 326.223 0.830871 4.09251 0
M  V30 3417 N 326.66 -1.06551 1.16123 0
M  V30 3418 C 327.909 -1.78687 0.935622 0
M  V30 3419 C 328.222 -1.88056 -0.538001 0
M  V30 3420 O 329.428 -2.56794 -0.88143 0
M  V30 3421 C 327.884 -3.21143 1.62466 0
M  V30 3422 C 327.492 -3.19949 3.13587 0
M  V30 3423 C 329.236 -3.9783 1.48092 0
M  V30 3424 C 327.143 -4.57108 3.75241 0
M  V30 3425 H 326.073 -0.669712 0.346412 0
M  V30 3426 H 328.724 -1.19534 1.39226 0
M  V30 3427 H 327.106 -3.80539 1.09572 0
M  V30 3428 H 328.28 -2.70151 3.73303 0
M  V30 3429 H 326.595 -2.5676 3.27816 0
M  V30 3430 H 329.192 -4.99217 1.91538 0
M  V30 3431 H 329.535 -4.14078 0.429507 0
M  V30 3432 H 330.068 -3.4495 1.98127 0
M  V30 3433 H 326.807 -4.46065 4.80319 0
M  V30 3434 H 326.327 -5.07111 3.20309 0
M  V30 3435 H 328.006 -5.26069 3.76644 0
M  V30 3436 N 328.138 -0.959301 -1.25041 0
M  V30 3437 C 329.048 -0.489994 -2.29426 0
M  V30 3438 C 330.064 0.444944 -1.68215 0
M  V30 3439 O 331.24 0.320046 -1.98841 0
M  V30 3440 C 328.305 0.220309 -3.45999 0
M  V30 3441 C 327.366 -0.753418 -4.22637 0
M  V30 3442 C 326.599 -0.076918 -5.33645 0
M  V30 3443 O 326.822 1.13649 -5.58963 0
M  V30 3444 O 325.756 -0.764824 -5.97021 0
M  V30 3445 H 329.582 -1.35755 -2.71669 0
M  V30 3446 H 327.167 -0.725961 -1.30576 0
M  V30 3447 H 329.049 0.619677 -4.16819 0
M  V30 3448 H 327.724 1.06296 -3.0575 0
M  V30 3449 H 326.631 -1.20308 -3.54227 0
M  V30 3450 H 327.964 -1.56423 -4.66683 0
M  V30 3451 N 329.616 1.39756 -0.72842 0
M  V30 3452 C 330.864 2.00248 -0.272946 0
M  V30 3453 C 331.185 1.58077 1.14178 0
M  V30 3454 O 330.455 0.826014 1.77634 0
M  V30 3455 H 329.035 0.740554 -0.0979247 0
M  V30 3456 H 331.697 1.70903 -0.936912 0
M  V30 3457 H 330.793 3.10495 -0.316142 0
M  V30 3458 N 331.094 0.475555 1.50254 0
M  V30 3459 C 332.057 -0.305016 2.27161 0
M  V30 3460 C 333.057 -0.916519 1.32123 0
M  V30 3461 O 334.247 -0.785003 1.5551 0
M  V30 3462 C 331.379 -1.43496 3.09227 0
M  V30 3463 H 332.572 0.369511 2.97615 0
M  V30 3464 H 330.125 0.229747 1.54602 0
M  V30 3465 H 330.86 -2.14441 2.43281 0
M  V30 3466 H 330.645 -1.00223 3.79075 0
M  V30 3467 H 332.135 -1.98548 3.67381 0
M  V30 3468 N 332.573 -1.56217 0.208337 0
M  V30 3469 C 333.505 -2.1695 -0.739276 0
M  V30 3470 C 334.518 -1.13492 -1.1672 0
M  V30 3471 O 335.707 -1.40529 -1.10063 0
M  V30 3472 C 332.807 -2.72755 -2.01142 0
M  V30 3473 C 331.98 -4.0125 -1.74118 0
M  V30 3474 C 331.039 -4.41749 -2.85909 0
M  V30 3475 O 330.065 -5.08912 -2.54946 0
M  V30 3476 N 331.267 -4.06342 -4.14568 0
M  V30 3477 H 334.032 -2.98893 -0.219837 0
M  V30 3478 H 331.593 -1.61878 0.0268445 0
M  V30 3479 H 333.585 -2.96826 -2.75094 0
M  V30 3480 H 332.155 -1.95191 -2.4417 0
M  V30 3481 H 331.375 -3.85173 -0.838775 0
M  V30 3482 H 332.663 -4.851 -1.53477 0
M  V30 3483 H 332.061 -3.52345 -4.42571 0
M  V30 3484 H 330.618 -4.35335 -4.85105 0
M  V30 3485 N 334.051 0.0651679 -1.57465 0
M  V30 3486 C 335.014 1.06117 -2.03155 0
M  V30 3487 C 336.014 1.31204 -0.929632 0
M  V30 3488 O 337.204 1.26813 -1.19432 0
M  V30 3489 C 334.336 2.4032 -2.41783 0
M  V30 3490 H 335.529 0.667231 -2.92383 0
M  V30 3491 H 333.082 0.311075 -1.53173 0
M  V30 3492 H 333.817 2.84532 -1.55601 0
M  V30 3493 H 333.602 2.23451 -3.22199 0
M  V30 3494 H 335.092 3.11898 -2.77685 0
M  V30 3495 N 335.529 1.53961 0.336706 0
M  V30 3496 C 336.776 1.71536 1.07618 0
M  V30 3497 C 337.104 0.482125 1.8843 0
M  V30 3498 O 336.359 -0.536142 1.88213 0
M  V30 3499 C 336.658 2.93493 2.03953 0
M  V30 3500 C 336.324 4.28811 1.39399 0
M  V30 3501 C 334.986 4.65602 1.21523 0
M  V30 3502 C 337.338 5.12844 0.929541 0
M  V30 3503 C 334.666 5.84037 0.558312 0
M  V30 3504 C 337.018 6.31951 0.286505 0
M  V30 3505 C 335.682 6.67432 0.0954869 0
M  V30 3506 H 334.952 0.627696 0.393801 0
M  V30 3507 H 337.599 1.88186 0.354715 0
M  V30 3508 H 335.904 2.71475 2.82504 0
M  V30 3509 H 337.601 3.04285 2.61174 0
M  V30 3510 H 334.191 3.99858 1.54311 0
M  V30 3511 H 338.375 4.84947 1.05548 0
M  V30 3512 H 333.631 6.10097 0.398995 0
M  V30 3513 H 337.805 6.96352 -0.0814376 0
M  V30 3514 H 335.432 7.59063 -0.415579 0
M  V30 3515 N 337.007 -0.598083 1.45811 0
M  V30 3516 C 338.237 -1.38121 1.53643 0
M  V30 3517 C 338.645 -1.88425 0.171081 0
M  V30 3518 O 337.988 -1.63409 -0.839237 0
M  V30 3519 C 338.05 -2.61432 2.46766 0
M  V30 3520 C 337.714 -2.32702 3.93318 0
M  V30 3521 C 338.711 -1.92479 4.82957 0
M  V30 3522 C 336.396 -2.45321 4.38318 0
M  V30 3523 C 338.39 -1.65248 6.15607 0
M  V30 3524 C 336.077 -2.17703 5.71007 0
M  V30 3525 C 337.075 -1.7773 6.5947 0
M  V30 3526 O 336.763 -1.50441 7.89698 0
M  V30 3527 H 336.495 -0.428863 0.522544 0
M  V30 3528 H 339.049 -0.73557 1.91777 0
M  V30 3529 H 337.279 -3.28749 2.0362 0
M  V30 3530 H 338.968 -3.23487 2.45175 0
M  V30 3531 H 339.734 -1.82258 4.49452 0
M  V30 3532 H 335.613 -2.75399 3.69697 0
M  V30 3533 H 339.157 -1.33973 6.84614 0
M  V30 3534 H 335.054 -2.27544 6.04065 0
M  V30 3535 H 335.822 -1.64415 8.01817 0
M  V30 3536 N 338.485 -1.33259 -0.841409 0
M  V30 3537 C 339.433 -1.23279 -1.97244 0
M  V30 3538 C 340.427 -0.134706 -1.68864 0
M  V30 3539 O 341.633 -0.298501 -1.77508 0
M  V30 3540 H 338.008 -0.382497 -0.647457 0
M  V30 3541 H 339.979 -2.18906 -2.02787 0
M  V30 3542 C 338.728 -0.986268 -3.33419 0
M  V30 3543 H 338.051 -1.82347 -3.55794 0
M  V30 3544 H 339.491 -0.956728 -4.13065 0
M  V30 3545 C 337.95 0.310842 -3.35463 0
M  V30 3546 O 338.48 1.31838 -3.79449 0
M  V30 3547 N 336.686 0.337485 -2.88634 0
M  V30 3548 H 336.233 -0.482967 -2.53032 0
M  V30 3549 H 336.191 1.20518 -2.90384 0
M  V30 3550 N 339.963 1.05934 -1.16686 0
M  V30 3551 C 341.211 1.78447 -0.948744 0
M  V30 3552 C 341.532 1.87813 0.524523 0
M  V30 3553 O 340.802 1.38945 1.38098 0
M  V30 3554 H 339.382 0.660971 -0.348033 0
M  V30 3555 H 342.044 1.27947 -1.47022 0
M  V30 3556 H 341.14 2.80394 -1.37061 0
M  V30 3557 N 341.441 0.965919 1.2453 0
M  V30 3558 C 342.666 0.643971 1.97149 0
M  V30 3559 C 343.091 -0.779487 1.71189 0
M  V30 3560 O 342.449 -1.5288 0.974553 0
M  V30 3561 C 342.497 0.922557 3.48599 0
M  V30 3562 O 341.601 0.00707672 4.12399 0
M  V30 3563 H 340.942 0.243647 0.617683 0
M  V30 3564 H 343.472 1.29558 1.58353 0
M  V30 3565 H 343.482 0.853373 3.98976 0
M  V30 3566 H 342.157 1.95996 3.66822 0
M  V30 3567 H 340.734 0.12943 3.72675 0
M  V30 3568 N 342.919 -1.39368 0.735821 0
M  V30 3569 C 343.849 -2.33234 0.111506 0
M  V30 3570 C 344.83 -1.53954 -0.723334 0
M  V30 3571 O 346.015 -1.82344 -0.668147 0
M  V30 3572 C 343.145 -3.38057 -0.795917 0
M  V30 3573 C 342.099 -4.2795 -0.065172 0
M  V30 3574 C 341.425 -5.23479 -1.08967 0
M  V30 3575 C 342.725 -5.10741 1.09273 0
M  V30 3576 H 344.419 -2.85692 0.895571 0
M  V30 3577 H 341.965 -1.37364 0.432109 0
M  V30 3578 H 343.918 -4.02675 -1.24221 0
M  V30 3579 H 342.642 -2.8404 -1.61211 0
M  V30 3580 H 341.301 -3.64813 0.361511 0
M  V30 3581 H 340.949 -4.65758 -1.89944 0
M  V30 3582 H 340.649 -5.84472 -0.605489 0
M  V30 3583 H 342.173 -5.90974 -1.53565 0
M  V30 3584 H 343.587 -5.68699 0.724841 0
M  V30 3585 H 341.984 -5.8088 1.50659 0
M  V30 3586 H 343.054 -4.45525 1.91404 0
M  V30 3587 N 344.397 -0.483516 -1.5 0
M  V30 3588 C 345.625 0.0644831 -2.06799 0
M  V30 3589 C 346.04 1.32399 -1.34596 0
M  V30 3590 O 345.397 1.77626 -0.418946 0
M  V30 3591 C 345.448 0.339927 -3.59898 0
M  V30 3592 O 345.169 -0.869635 -4.29382 0
M  V30 3593 C 346.67 0.933515 -4.33359 0
M  V30 3594 H 343.89 -0.0126333 -0.670881 0
M  V30 3595 H 346.434 -0.675864 -1.93009 0
M  V30 3596 H 344.589 1.03022 -3.7345 0
M  V30 3597 H 345.003 -0.62179 -5.20801 0
M  V30 3598 H 346.477 1.07593 -5.41413 0
M  V30 3599 H 346.954 1.92685 -3.94676 0
M  V30 3600 H 347.56 0.281221 -4.24369 0
M  V30 3601 N 345.875 1.56104 -0.216619 0
M  V30 3602 C 346.838 2.18819 0.681962 0
M  V30 3603 C 347.838 1.14866 1.12528 0
M  V30 3604 O 349.028 1.40128 1.03488 0
M  V30 3605 C 346.16 2.80756 1.93362 0
M  V30 3606 H 347.353 2.99595 0.135254 0
M  V30 3607 H 344.906 1.56265 0.0330003 0
M  V30 3608 H 345.641 2.03837 2.52232 0
M  V30 3609 H 345.426 3.56876 1.62426 0
M  V30 3610 H 346.916 3.28844 2.57393 0
M  V30 3611 N 347.353 -0.0568162 1.57498 0
M  V30 3612 C 348.285 -1.09292 2.01464 0
M  V30 3613 C 349.298 -1.34112 0.922913 0
M  V30 3614 O 350.487 -1.32089 1.20062 0
M  V30 3615 C 347.587 -2.44068 2.35125 0
M  V30 3616 C 346.76 -2.38995 3.66333 0
M  V30 3617 C 345.819 -3.55997 3.87495 0
M  V30 3618 O 344.845 -3.36746 4.58901 0
M  V30 3619 N 346.047 -4.76888 3.30996 0
M  V30 3620 H 348.812 -0.718386 2.90963 0
M  V30 3621 H 346.373 -0.245235 1.60032 0
M  V30 3622 H 348.365 -3.21011 2.46443 0
M  V30 3623 H 346.935 -2.73468 1.5144 0
M  V30 3624 H 346.155 -1.47336 3.65631 0
M  V30 3625 H 347.443 -2.3272 4.52458 0
M  V30 3626 H 346.841 -4.95431 2.73065 0
M  V30 3627 H 345.398 -5.51291 3.47738 0
M  V30 3628 N 348.832 -1.54138 -0.328536 0
M  V30 3629 C 350.081 -1.71318 -1.06456 0
M  V30 3630 C 350.394 -0.491109 -1.89334 0
M  V30 3631 O 351.6 -0.54416 -2.65991 0
M  V30 3632 C 350.056 -3.03 -1.94214 0
M  V30 3633 C 349.664 -4.32595 -1.16471 0
M  V30 3634 C 351.408 -3.29544 -2.67583 0
M  V30 3635 C 349.315 -5.55341 -2.03347 0
M  V30 3636 H 348.245 -0.638429 -0.401155 0
M  V30 3637 H 350.896 -1.80633 -0.323106 0
M  V30 3638 H 349.278 -2.87579 -2.72239 0
M  V30 3639 H 350.452 -4.58766 -0.432525 0
M  V30 3640 H 348.767 -4.12777 -0.548063 0
M  V30 3641 H 351.364 -4.18444 -3.3288 0
M  V30 3642 H 351.707 -2.47206 -3.34955 0
M  V30 3643 H 352.24 -3.45809 -1.96623 0
M  V30 3644 H 348.979 -6.40268 -1.40491 0
M  V30 3645 H 348.499 -5.33397 -2.74313 0
M  V30 3646 H 350.178 -5.91557 -2.62049 0
M  V30 3647 N 350.31 0.590341 -1.46126 0
M  V30 3648 C 351.556 1.35082 -1.51264 0
M  V30 3649 C 351.889 1.93534 -0.160711 0
M  V30 3650 O 351.164 1.76045 0.826956 0
M  V30 3651 C 351.447 2.48588 -2.6053 0
M  V30 3652 C 351.3 1.95221 -4.05227 0
M  V30 3653 C 352.619 3.50662 -2.6594 0
M  V30 3654 H 349.738 0.489803 -0.550692 0
M  V30 3655 H 352.38 0.663887 -1.78024 0
M  V30 3656 H 350.53 3.07186 -2.37843 0
M  V30 3657 H 352.202 1.41139 -4.39178 0
M  V30 3658 H 350.445 1.26101 -4.15068 0
M  V30 3659 H 351.116 2.77121 -4.77397 0
M  V30 3660 H 353.592 3.01934 -2.86313 0
M  V30 3661 H 352.468 4.27551 -3.44226 0
M  V30 3662 H 352.729 4.07399 -1.71694 0
M  V30 3663 N 351.788 1.33704 0.83433 0
M  V30 3664 C 352.735 1.24335 1.94447 0
M  V30 3665 C 353.705 0.120991 1.65659 0
M  V30 3666 O 354.89 0.300035 1.88426 0
M  V30 3667 C 352.03 0.993124 3.30501 0
M  V30 3668 C 351.143 2.20217 3.71657 0
M  V30 3669 C 350.278 1.88572 4.96602 0
M  V30 3670 C 349.317 3.05683 5.30306 0
M  V30 3671 N 348.454 2.73997 6.46429 0
M  V30 3672 H 353.294 2.1928 2.01792 0
M  V30 3673 H 350.831 1.09035 0.987404 0
M  V30 3674 H 352.789 0.828467 4.08892 0
M  V30 3675 H 351.419 0.0803902 3.227 0
M  V30 3676 H 350.471 2.47642 2.88752 0
M  V30 3677 H 351.783 3.07752 3.92543 0
M  V30 3678 H 350.937 1.68776 5.82752 0
M  V30 3679 H 349.676 0.982799 4.77695 0
M  V30 3680 H 348.681 3.26088 4.42659 0
M  V30 3681 H 349.906 3.96737 5.51159 0
M  V30 3682 H 347.852 1.86268 6.28999 0
M  V30 3683 H 347.769 3.55064 6.67432 0
M  V30 3684 H 349.037 2.57679 7.35678 0
M  V30 3685 N 353.266 -1.05314 1.17247 0
M  V30 3686 C 354.543 -1.75184 0.87005 0
M  V30 3687 C 354.923 -2.01481 -0.629965 0
M  V30 3688 O 354.271 -1.64988 -1.58086 0
M  V30 3689 C 354.481 -3.04594 1.70363 0
M  V30 3690 C 355.829 -3.78567 1.92281 0
M  V30 3691 O 356.853 -3.14461 1.67311 0
M  V30 3692 O 355.712 -4.93755 2.3424 0
M  V30 3693 H 352.806 -0.761729 0.322021 0
M  V30 3694 H 355.352 -1.11493 1.27935 0
M  V30 3695 H 354.124 -2.81201 2.72106 0
M  V30 3696 H 353.747 -3.76022 1.29202 0
M  V30 3697 N 354.744 -0.972509 -1.24016 0
M  V30 3698 C 355.993 -0.632603 -1.91523 0
M  V30 3699 C 356.306 0.836641 -1.76804 0
M  V30 3700 O 357.512 1.28728 -2.39043 0
M  V30 3701 C 355.968 -1.08082 -3.43287 0
M  V30 3702 C 355.576 -2.57386 -3.66683 0
M  V30 3703 C 357.32 -0.814288 -4.16617 0
M  V30 3704 C 355.227 -2.95915 -5.12043 0
M  V30 3705 H 354.157 -0.232898 -0.717129 0
M  V30 3706 H 356.808 -1.17936 -1.40582 0
M  V30 3707 H 355.19 -0.462339 -3.93292 0
M  V30 3708 H 356.364 -3.24405 -3.27258 0
M  V30 3709 H 354.679 -2.81701 -3.06649 0
M  V30 3710 H 357.276 -1.0781 -5.23718 0
M  V30 3711 H 357.619 0.24955 -4.15551 0
M  V30 3712 H 358.152 -1.39397 -3.72577 0
M  V30 3713 H 354.891 -4.0139 -5.18234 0
M  V30 3714 H 354.411 -2.33584 -5.52448 0
M  V30 3715 H 356.09 -2.86086 -5.80314 0
M  V30 3716 N 356.222 1.38976 -0.743202 0
M  V30 3717 C 357.154 2.29096 -0.0689228 0
M  V30 3718 C 358.167 1.47229 0.694791 0
M  V30 3719 O 359.356 1.70212 0.537597 0
M  V30 3720 C 356.456 3.25988 0.926548 0
M  V30 3721 C 355.629 4.36833 0.222647 0
M  V30 3722 C 354.688 5.13981 1.12739 0
M  V30 3723 O 353.714 5.6601 0.601795 0
M  V30 3724 N 354.916 5.25966 2.45641 0
M  V30 3725 H 357.681 2.87604 -0.842846 0
M  V30 3726 H 355.242 1.50645 -0.593109 0
M  V30 3727 H 357.234 3.74476 1.5346 0
M  V30 3728 H 355.804 2.68453 1.60162 0
M  V30 3729 H 355.024 3.90116 -0.565983 0
M  V30 3730 H 356.312 5.0811 -0.264841 0
M  V30 3731 H 355.71 4.85228 2.9081 0
M  V30 3732 H 354.267 5.77865 3.01522 0
M  V30 3733 N 357.7 0.491464 1.49741 0
M  V30 3734 C 358.663 -0.280906 2.27472 0
M  V30 3735 C 359.663 -0.902454 1.33088 0
M  V30 3736 O 360.853 -0.768465 1.56334 0
M  V30 3737 C 357.985 -1.40209 3.10732 0
M  V30 3738 H 359.178 0.401056 2.97206 0
M  V30 3739 H 356.731 0.246131 1.5435 0
M  V30 3740 H 357.466 -2.11849 2.45541 0
M  V30 3741 H 357.251 -0.961969 3.80117 0
M  V30 3742 H 358.741 -1.9464 3.69466 0
M  V30 3743 N 359.178 -1.55987 0.224894 0
M  V30 3744 C 360.141 -2.19178 -0.670348 0
M  V30 3745 C 361.141 -1.15461 -1.11917 0
M  V30 3746 O 362.331 -1.40675 -1.02743 0
M  V30 3747 C 359.463 -2.81777 -1.9187 0
M  V30 3748 H 360.656 -2.99662 -0.119364 0
M  V30 3749 H 358.209 -1.5628 -0.0247128 0
M  V30 3750 H 358.944 -2.05172 -2.51147 0
M  V30 3751 H 358.729 -3.57732 -1.60531 0
M  V30 3752 H 360.219 -3.30205 -2.55645 0
M  V30 3753 N 360.656 0.0484629 -1.57525 0
M  V30 3754 C 361.904 0.741657 -1.88 0
M  V30 3755 C 362.225 1.76918 -0.820054 0
M  V30 3756 O 361.495 1.95335 0.148661 0
M  V30 3757 H 360.075 0.276908 -0.69378 0
M  V30 3758 H 362.737 0.019013 -1.94891 0
M  V30 3759 H 361.833 1.24336 -2.86264 0
M  V30 3760 N 362.134 1.5431 0.320358 0
M  V30 3761 C 363.382 1.72327 1.05583 0
M  V30 3762 C 363.703 0.50149 1.88441 0
M  V30 3763 O 362.973 -0.48448 1.89815 0
M  V30 3764 H 361.553 0.635387 0.3928 0
M  V30 3765 H 364.215 1.91621 0.356019 0
M  V30 3766 H 363.311 2.60426 1.72003 0
M  V30 3767 N 363.613 -0.582584 1.46437 0
M  V30 3768 C 364.862 -1.337 1.5102 0
M  V30 3769 C 365.175 -1.94891 0.166359 0
M  V30 3770 O 366.381 -2.71351 0.0899954 0
M  V30 3771 C 364.837 -2.42315 2.66104 0
M  V30 3772 C 364.445 -1.87427 4.06909 0
M  V30 3773 C 366.189 -3.19099 2.79958 0
M  V30 3774 C 364.096 -2.93672 5.13333 0
M  V30 3775 H 363.026 -0.502619 0.562041 0
M  V30 3776 H 365.677 -0.621701 1.72647 0
M  V30 3777 H 364.059 -3.16645 2.37807 0
M  V30 3778 H 365.233 -1.19639 4.44998 0
M  V30 3779 H 363.548 -1.2331 3.97723 0
M  V30 3780 H 366.145 -3.9839 3.56636 0
M  V30 3781 H 366.488 -3.71695 1.87479 0
M  V30 3782 H 367.021 -2.51875 3.07902 0
M  V30 3783 H 363.76 -2.45962 6.07604 0
M  V30 3784 H 363.28 -3.59948 4.79789 0
M  V30 3785 H 364.959 -3.5762 5.39182 0
M  V30 3786 N 365.091 -1.34144 -0.827227 0
M  V30 3787 C 366.337 -1.26446 -1.58554 0
M  V30 3788 C 366.67 0.1664 -1.93486 0
M  V30 3789 O 365.945 1.1107 -1.59667 0
M  V30 3790 C 366.228 -2.15111 -2.8879 0
M  V30 3791 C 366.081 -3.66712 -2.60465 0
M  V30 3792 C 367.4 -2.03311 -3.90324 0
M  V30 3793 H 364.519 -0.46067 -0.575284 0
M  V30 3794 H 367.161 -1.64356 -0.953269 0
M  V30 3795 H 365.311 -1.8291 -3.42748 0
M  V30 3796 H 366.983 -4.09259 -2.1285 0
M  V30 3797 H 365.226 -3.88014 -1.93978 0
M  V30 3798 H 365.897 -4.24112 -3.53317 0
M  V30 3799 H 368.373 -2.31574 -3.45706 0
M  V30 3800 H 367.249 -2.67582 -4.79261 0
M  V30 3801 H 367.51 -1.00879 -4.30437 0
M  V30 3802 N 366.569 1.04691 -1.17803 0
M  V30 3803 C 367.797 1.81446 -0.99423 0
M  V30 3804 C 368.212 1.83174 0.457459 0
M  V30 3805 O 367.569 1.26265 1.31771 0
M  V30 3806 C 367.62 3.27334 -1.5341 0
M  V30 3807 O 367.341 3.25798 -2.92895 0
M  V30 3808 C 368.842 4.20759 -1.39559 0
M  V30 3809 H 366.062 0.571599 -0.351447 0
M  V30 3810 H 368.606 1.31982 -1.56208 0
M  V30 3811 H 366.761 3.74052 -1.00815 0
M  V30 3812 H 367.175 4.17144 -3.17949 0
M  V30 3813 H 368.649 5.21084 -1.82141 0
M  V30 3814 H 369.126 4.37856 -0.343394 0
M  V30 3815 H 369.732 3.79901 -1.91195 0
M  V30 3816 N 368.047 0.979072 1.23499 0
M  V30 3817 C 369.01 0.523244 2.23147 0
M  V30 3818 C 370.01 -0.386406 1.56088 0
M  V30 3819 O 371.2 -0.180283 1.73265 0
M  V30 3820 C 368.332 -0.240739 3.40049 0
M  V30 3821 H 369.525 1.40432 2.64989 0
M  V30 3822 H 367.078 0.764824 1.36309 0
M  V30 3823 H 367.813 -1.13841 3.03662 0
M  V30 3824 H 367.598 0.412207 3.89927 0
M  V30 3825 H 369.088 -0.548297 4.13985 0
M  V30 3826 N 369.525 -1.3858 0.750561 0
M  V30 3827 C 370.435 -2.34278 0.122825 0
M  V30 3828 C 371.451 -1.59116 -0.704131 0
M  V30 3829 O 372.627 -1.91326 -0.628987 0
M  V30 3830 C 369.692 -3.38221 -0.762086 0
M  V30 3831 C 368.753 -4.29227 0.078896 0
M  V30 3832 C 367.986 -5.28205 -0.763874 0
M  V30 3833 O 368.209 -5.34112 -2.00201 0
M  V30 3834 O 367.143 -6.01618 -0.18428 0
M  V30 3835 H 370.969 -2.89649 0.913088 0
M  V30 3836 H 368.554 -1.40374 0.511417 0
M  V30 3837 H 370.436 -4.01872 -1.26793 0
M  V30 3838 H 369.111 -2.85211 -1.5309 0
M  V30 3839 H 368.018 -3.68747 0.630621 0
M  V30 3840 H 369.351 -4.85484 0.810289 0
M  V30 3841 N 371.003 -0.499398 -1.49478 0
M  V30 3842 C 372.28 0.108629 -1.95298 0
M  V30 3843 C 372.66 1.54282 -1.44084 0
M  V30 3844 O 372.008 2.18944 -0.653908 0
M  V30 3845 C 372.218 0.0229111 -3.48992 0
M  V30 3846 C 373.566 0.197643 -4.2414 0
M  V30 3847 O 374.59 0.0981735 -3.56065 0
M  V30 3848 O 373.449 0.401669 -5.45022 0
M  V30 3849 H 370.543 0.096181 -0.821388 0
M  V30 3850 H 373.089 -0.561822 -1.6013 0
M  V30 3851 H 371.861 -0.977321 -3.78899 0
M  V30 3852 H 371.484 0.733579 -3.90774 0
M  V30 3853 N 372.481 1.55866 -0.233164 0
M  V30 3854 C 373.411 2.23783 0.666599 0
M  V30 3855 C 374.392 1.21343 1.19205 0
M  V30 3856 O 375.577 1.4996 1.23392 0
M  V30 3857 C 372.707 2.92671 1.86978 0
M  V30 3858 C 371.661 4.01682 1.47768 0
M  V30 3859 C 370.987 4.57926 2.76058 0
M  V30 3860 C 372.287 5.18126 0.658993 0
M  V30 3861 H 373.981 2.99232 0.100306 0
M  V30 3862 H 371.527 1.43924 0.046804 0
M  V30 3863 H 373.48 3.3888 2.50476 0
M  V30 3864 H 372.204 2.14688 2.46123 0
M  V30 3865 H 370.863 3.56222 0.866106 0
M  V30 3866 H 370.511 3.76659 3.33372 0
M  V30 3867 H 370.211 5.31505 2.50552 0
M  V30 3868 H 371.735 5.06859 3.40479 0
M  V30 3869 H 373.149 5.60644 1.19795 0
M  V30 3870 H 371.546 5.98009 0.500552 0
M  V30 3871 H 372.616 4.83763 -0.331856 0
M  V30 3872 N 373.959 -0.0401083 1.57549 0
M  V30 3873 C 374.907 -1.06264 2.06908 0
M  V30 3874 C 375.901 -1.38132 0.980608 0
M  V30 3875 O 377.107 -1.37167 1.16556 0
M  V30 3876 H 373.482 -0.360166 0.660139 0
M  V30 3877 H 375.453 -0.620445 2.91878 0
M  V30 3878 C 374.202 -2.35846 2.55483 0
M  V30 3879 H 373.525 -2.12183 3.38849 0
M  V30 3880 H 374.965 -3.05765 2.93741 0
M  V30 3881 C 373.424 -3.0404 1.45126 0
M  V30 3882 O 373.954 -3.93424 0.811216 0
M  V30 3883 N 372.16 -2.65184 1.18852 0
M  V30 3884 H 371.707 -1.92584 1.71083 0
M  V30 3885 H 371.665 -3.1113 0.452244 0
M  V30 3886 N 375.437 -1.54477 -0.31217 0
M  V30 3887 C 376.385 -1.85395 -1.40469 0
M  V30 3888 C 377.379 -0.726749 -1.53019 0
M  V30 3889 O 378.585 -0.910582 -1.55269 0
M  V30 3890 H 374.96 -0.587845 -0.46898 0
M  V30 3891 H 376.931 -2.76736 -1.11623 0
M  V30 3892 C 375.68 -2.10811 -2.76503 0
M  V30 3893 H 375.003 -2.97014 -2.67625 0
M  V30 3894 H 376.443 -2.3639 -3.51988 0
M  V30 3895 C 374.902 -0.903165 -3.24568 0
M  V30 3896 O 375.432 -0.118085 -4.01526 0
M  V30 3897 N 373.638 -0.711634 -2.81752 0
M  V30 3898 H 373.185 -1.35171 -2.19286 0
M  V30 3899 H 373.143 0.0930473 -3.14262 0
M  V30 3900 N 376.915 0.57481 -1.46744 0
M  V30 3901 C 378.145 1.35659 -1.55821 0
M  V30 3902 C 378.553 1.88129 -0.201036 0
M  V30 3903 O 377.896 1.64723 0.813134 0
M  V30 3904 C 377.958 2.57473 -2.50894 0
M  V30 3905 C 377.622 2.26415 -3.9697 0
M  V30 3906 C 378.619 1.84771 -4.85958 0
M  V30 3907 C 376.304 2.38316 -4.42166 0
M  V30 3908 C 378.298 1.55434 -6.18158 0
M  V30 3909 C 375.985 2.08591 -5.74398 0
M  V30 3910 C 376.983 1.67216 -6.62214 0
M  V30 3911 O 376.671 1.37859 -7.91991 0
M  V30 3912 H 376.403 0.420496 -0.529301 0
M  V30 3913 H 378.957 0.704967 -1.92923 0
M  V30 3914 H 377.187 3.25468 -2.08824 0
M  V30 3915 H 378.876 3.19546 -2.50291 0
M  V30 3916 H 379.642 1.75085 -4.52295 0
M  V30 3917 H 375.521 2.69483 -3.74032 0
M  V30 3918 H 379.065 1.23065 -6.86659 0
M  V30 3919 H 374.962 2.17905 -6.07608 0
M  V30 3920 H 375.73 1.51638 -8.04331 0
M  V30 3921 N 378.394 1.34581 0.820102 0
M  V30 3922 C 379.81 1.14325 1.11364 0
M  V30 3923 C 380.01 -0.0533648 2.01429 0
M  V30 3924 O 379.066 -0.728044 2.41776 0
M  V30 3925 C 380.379 2.43983 1.75764 0
M  V30 3926 C 381.927 2.50065 1.88246 0
M  V30 3927 C 382.402 3.79732 2.56061 0
M  V30 3928 N 383.893 3.80908 2.63558 0
M  V30 3929 C 384.628 4.77961 3.16766 0
M  V30 3930 N 384.124 5.85397 3.70517 0
M  V30 3931 N 385.917 4.65413 3.15194 0
M  V30 3932 H 378.068 2.11246 0.221096 0
M  V30 3933 H 380.331 0.934289 0.160649 0
M  V30 3934 H 380.037 3.31651 1.1705 0
M  V30 3935 H 379.911 2.57531 2.75604 0
M  V30 3936 H 382.298 1.62834 2.46108 0
M  V30 3937 H 382.379 2.40442 0.873006 0
M  V30 3938 H 382.023 4.67354 1.98853 0
M  V30 3939 H 381.953 3.86639 3.57516 0
M  V30 3940 H 384.444 3.03274 2.25463 0
M  V30 3941 H 384.757 6.55463 4.09376 0
M  V30 3942 H 383.102 5.89107 3.68752 0
M  V30 3943 H 386.293 3.80627 2.72471 0
M  V30 3944 H 386.466 5.41216 3.56356 0
M  V30 3945 N 379.872 -1.04064 1.18357 0
M  V30 3946 C 380.835 -2.10243 0.912707 0
M  V30 3947 C 381.835 -1.60477 -0.101928 0
M  V30 3948 O 383.025 -1.73703 0.131517 0
M  V30 3949 C 380.157 -3.38893 0.369387 0
M  V30 3950 H 381.35 -2.35706 1.85426 0
M  V30 3951 H 378.903 -1.20489 0.995594 0
M  V30 3952 H 379.638 -3.19094 -0.578776 0
M  V30 3953 H 379.423 -3.76331 1.1008 0
M  V30 3954 H 380.913 -4.17128 0.198575 0
M  V30 3955 N 381.35 -0.985608 -1.22978 0
M  V30 3956 C 382.26 -0.538548 -2.28335 0
M  V30 3957 C 383.276 0.409163 -1.69121 0
M  V30 3958 O 384.452 0.277797 -1.99475 0
M  V30 3959 C 381.517 0.146867 -3.46389 0
M  V30 3960 C 380.578 -0.842896 -4.20944 0
M  V30 3961 C 379.811 -0.190095 -5.33361 0
M  V30 3962 O 380.034 1.01767 -5.61248 0
M  V30 3963 O 378.968 -0.891289 -5.95264 0
M  V30 3964 H 382.794 -1.41487 -2.68729 0
M  V30 3965 H 380.379 -0.753495 -1.29007 0
M  V30 3966 H 382.261 0.531125 -4.1804 0
M  V30 3967 H 380.936 0.997871 -3.07935 0
M  V30 3968 H 379.843 -1.27795 -3.51595 0
M  V30 3969 H 381.176 -1.66287 -4.6326 0
M  V30 3970 N 382.828 1.3818 -0.7579 0
M  V30 3971 C 383.758 2.33027 -0.148597 0
M  V30 3972 C 384.739 1.55085 0.69875 0
M  V30 3973 O 385.924 1.83384 0.639053 0
M  V30 3974 C 383.054 3.3928 0.742034 0
M  V30 3975 C 382.008 4.28 -0.00291946 0
M  V30 3976 C 381.334 5.25146 1.00625 0
M  V30 3977 C 382.634 5.08938 -1.17385 0
M  V30 3978 H 384.328 2.84231 -0.940909 0
M  V30 3979 H 381.874 1.36659 -0.453908 0
M  V30 3980 H 383.827 4.046 1.17799 0
M  V30 3981 H 382.551 2.86569 1.56671 0
M  V30 3982 H 381.21 3.64192 -0.419504 0
M  V30 3983 H 380.858 4.68721 1.8251 0
M  V30 3984 H 380.558 5.85361 0.512428 0
M  V30 3985 H 382.082 5.93342 1.44143 0
M  V30 3986 H 383.496 5.67474 -0.815224 0
M  V30 3987 H 381.893 5.7841 -1.59882 0
M  V30 3988 H 382.963 4.42424 -1.98468 0
M  V30 3989 N 384.306 0.507319 1.49211 0
M  V30 3990 C 385.555 -0.0368315 2.01666 0
M  V30 3991 C 385.868 -1.37459 1.39156 0
M  V30 3992 O 387.074 -2.00579 1.82976 0
M  V30 3993 C 385.53 -0.116089 3.59713 0
M  V30 3994 C 385.138 1.2154 4.31198 0
M  V30 3995 C 386.882 -0.610268 4.2009 0
M  V30 3996 C 384.789 1.09796 5.81119 0
M  V30 3997 H 383.719 -0.0175376 0.753796 0
M  V30 3998 H 386.37 0.647691 1.71689 0
M  V30 3999 H 384.752 -0.8652 3.86433 0
M  V30 4000 H 385.926 1.9783 4.16173 0
M  V30 4001 H 384.241 1.64352 3.82593 0
M  V30 4002 H 386.838 -0.715742 5.29888 0
M  V30 4003 H 387.181 -1.61064 3.8388 0
M  V30 4004 H 387.714 0.0824916 3.97714 0
M  V30 4005 H 384.453 2.0728 6.21864 0
M  V30 4006 H 383.973 0.376058 5.9862 0
M  V30 4007 H 385.652 0.779281 6.4229 0
M  V30 4008 N 385.784 -1.5574 0.241426 0
M  V30 4009 C 386.694 -2.2479 -0.671305 0
M  V30 4010 C 387.71 -1.26217 -1.19772 0
M  V30 4011 O 388.886 -1.59079 -1.23514 0
M  V30 4012 C 385.951 -2.92966 -1.85396 0
M  V30 4013 C 385.012 -4.06935 -1.36756 0
M  V30 4014 C 384.245 -4.71851 -2.49384 0
M  V30 4015 O 384.468 -4.35823 -3.67987 0
M  V30 4016 O 383.402 -5.60467 -2.19454 0
M  V30 4017 H 387.228 -3.0349 -0.112966 0
M  V30 4018 H 384.813 -1.49397 0.0101513 0
M  V30 4019 H 386.695 -3.35927 -2.54423 0
M  V30 4020 H 385.37 -2.17211 -2.40002 0
M  V30 4021 H 384.277 -3.68503 -0.644726 0
M  V30 4022 H 385.61 -4.84492 -0.867647 0
M  V30 4023 N 387.262 0.0317525 -1.57568 0
M  V30 4024 C 388.212 1.04101 -2.02847 0
M  V30 4025 C 389.196 1.3219 -0.917317 0
M  V30 4026 O 390.388 1.31819 -1.18121 0
M  V30 4027 C 387.517 2.34295 -2.5092 0
M  V30 4028 C 386.603 2.09308 -3.68851 0
M  V30 4029 N 386.994 1.5437 -4.81667 0
M  V30 4030 C 385.292 2.39604 -3.76172 0
M  V30 4031 C 385.993 1.45126 -5.63306 0
M  V30 4032 N 384.969 1.92589 -5.08341 0
M  V30 4033 H 388.771 0.610217 -2.87495 0
M  V30 4034 H 386.285 0.238108 -1.60645 0
M  V30 4035 H 388.282 3.07404 -2.81617 0
M  V30 4036 H 386.942 2.78055 -1.67677 0
M  V30 4037 H 387.953 1.22678 -5.03161 0
M  V30 4038 H 384.63 2.86457 -3.03724 0
M  V30 4039 H 386.02 1.03163 -6.63933 0
M  V30 4040 N 388.74 1.54641 0.303973 0
M  V30 4041 C 390.151 1.64811 0.877163 0
M  V30 4042 C 390.502 0.554838 1.88191 0
M  V30 4043 O 389.627 -0.309033 2.14182 0
M  V30 4044 C 390.222 2.9876 1.59775 0
M  V30 4045 C 388.781 3.11061 2.11938 0
M  V30 4046 C 387.928 2.60479 0.951097 0
M  V30 4047 H 390.879 1.58493 0.0810486 0
M  V30 4048 H 390.9 2.90017 2.46314 0
M  V30 4049 H 390.412 3.7831 0.866226 0
M  V30 4050 H 388.513 2.36225 2.88146 0
M  V30 4051 H 388.626 4.17171 2.35595 0
M  V30 4052 H 386.99 2.16859 1.33583 0
M  V30 4053 H 387.773 3.42504 0.233581 0
M  V30 4054 N 390.218 -0.567019 1.47046 0
M  V30 4055 C 391.148 -1.68482 1.61667 0
M  V30 4056 C 392.129 -1.6358 0.466418 0
M  V30 4057 O 393.314 -1.81354 0.694574 0
M  V30 4058 C 390.444 -3.07124 1.62148 0
M  V30 4059 C 389.398 -3.26867 2.76301 0
M  V30 4060 C 388.724 -4.66196 2.61849 0
M  V30 4061 C 390.024 -3.13186 4.17986 0
M  V30 4062 H 391.718 -1.56502 2.5524 0
M  V30 4063 H 389.264 -0.751486 1.22836 0
M  V30 4064 H 391.217 -3.8516 1.70968 0
M  V30 4065 H 389.941 -3.2004 0.651287 0
M  V30 4066 H 388.6 -2.51237 2.66975 0
M  V30 4067 H 388.248 -4.75898 1.62879 0
M  V30 4068 H 387.948 -4.80356 3.38425 0
M  V30 4069 H 389.472 -5.46379 2.72584 0
M  V30 4070 H 390.886 -3.81049 4.2834 0
M  V30 4071 H 389.283 -3.3886 4.95272 0
M  V30 4072 H 390.353 -2.10057 4.3704 0
M  V30 4073 N 391.696 -1.35014 -0.812953 0
M  V30 4074 C 392.644 -1.27435 -1.94585 0
M  V30 4075 C 393.638 -0.170494 -1.6854 0
M  V30 4076 O 394.844 -0.336085 -1.76835 0
M  V30 4077 H 391.219 -0.396144 -0.639198 0
M  V30 4078 H 393.19 -2.23158 -1.98098 0
M  V30 4079 C 391.939 -1.05677 -3.31252 0
M  V30 4080 H 391.262 -1.89853 -3.51846 0
M  V30 4081 H 392.702 -1.04413 -4.10943 0
M  V30 4082 C 391.161 0.239615 -3.36047 0
M  V30 4083 O 391.691 1.23759 -3.8216 0
M  V30 4084 N 389.897 0.276186 -2.89285 0
M  V30 4085 H 389.444 -0.53653 -2.51951 0
M  V30 4086 H 389.402 1.14332 -2.92875 0
M  V30 4087 N 393.175 1.03435 -1.18907 0
M  V30 4088 C 394.424 1.76143 -0.982669 0
M  V30 4089 C 394.737 1.89416 0.487953 0
M  V30 4090 O 395.943 2.59041 0.813036 0
M  V30 4091 C 394.399 3.16722 -1.70924 0
M  V30 4092 C 394.007 3.11522 -3.21959 0
M  V30 4093 C 395.751 3.93764 -1.58588 0
M  V30 4094 C 393.658 4.46999 -3.87228 0
M  V30 4095 H 392.588 0.660292 -0.364047 0
M  V30 4096 H 395.239 1.158 -1.42347 0
M  V30 4097 H 393.621 3.775 -1.19623 0
M  V30 4098 H 394.795 2.60158 -3.80335 0
M  V30 4099 H 393.11 2.47978 -3.34508 0
M  V30 4100 H 395.707 4.93963 -2.04707 0
M  V30 4101 H 396.05 4.12794 -0.539142 0
M  V30 4102 H 396.583 3.39576 -2.07203 0
M  V30 4103 H 393.322 4.33174 -4.91976 0
M  V30 4104 H 392.842 4.98441 -3.33642 0
M  V30 4105 H 394.521 5.15898 -3.90459 0
M  V30 4106 N 394.653 0.992116 1.22453 0
M  V30 4107 C 395.878 0.685644 1.95739 0
M  V30 4108 C 396.303 -0.743 1.72804 0
M  V30 4109 O 395.661 -1.50778 1.00676 0
M  V30 4110 C 395.709 0.996293 3.46564 0
M  V30 4111 O 394.813 0.0945512 4.12292 0
M  V30 4112 H 394.154 0.256694 0.612376 0
M  V30 4113 H 396.684 1.32888 1.5557 0
M  V30 4114 H 396.694 0.93781 3.97076 0
M  V30 4115 H 395.369 2.03733 3.62582 0
M  V30 4116 H 393.946 0.208451 3.72317 0
M  V30 4117 N 396.131 -1.37776 0.765217 0
M  V30 4118 C 397.061 -2.32945 0.160953 0
M  V30 4119 C 398.042 -1.55454 -0.690516 0
M  V30 4120 O 399.227 -1.83721 -0.629318 0
M  V30 4121 C 396.357 -3.39669 -0.724031 0
M  V30 4122 C 395.311 -4.27992 0.0256173 0
M  V30 4123 C 394.637 -5.25673 -0.978383 0
M  V30 4124 C 395.937 -5.08309 1.20082 0
M  V30 4125 H 397.631 -2.83728 0.955969 0
M  V30 4126 H 395.177 -1.36416 0.461149 0
M  V30 4127 H 397.13 -4.05219 -1.15652 0
M  V30 4128 H 395.854 -2.87396 -1.5515 0
M  V30 4129 H 394.513 -3.63964 0.438812 0
M  V30 4130 H 394.161 -4.69682 -1.80022 0
M  V30 4131 H 393.861 -5.85625 -0.481378 0
M  V30 4132 H 395.385 -5.94098 -1.40995 0
M  V30 4133 H 396.799 -5.67034 0.845307 0
M  V30 4134 H 395.196 -5.77554 1.62947 0
M  V30 4135 H 396.266 -4.41365 2.00811 0
M  V30 4136 N 397.609 -0.515225 -1.4894 0
M  V30 4137 C 398.857 0.0241671 -2.02086 0
M  V30 4138 C 399.178 1.3616 -1.3959 0
M  V30 4139 O 398.448 1.87841 -0.556121 0
M  V30 4140 H 397.028 0.0119203 -0.746905 0
M  V30 4141 H 399.69 -0.675702 -1.82812 0
M  V30 4142 H 398.786 0.143385 -3.1177 0
M  V30 4143 N 399.087 1.5561 -0.249682 0
M  V30 4144 C 400.364 1.90932 0.424761 0
M  V30 4145 C 400.744 1.17078 1.75658 0
M  V30 4146 O 400.092 0.289176 2.26663 0
M  V30 4147 C 400.302 3.43975 0.590109 0
M  V30 4148 C 401.65 4.15281 0.884714 0
M  V30 4149 O 402.674 3.49729 0.67587 0
M  V30 4150 O 401.533 5.31236 1.28259 0
M  V30 4151 H 398.627 0.794815 0.228468 0
M  V30 4152 H 401.173 1.67135 -0.293954 0
M  V30 4153 H 399.945 3.89748 -0.34818 0
M  V30 4154 H 399.568 3.73644 1.35926 0
M  V30 4155 N 400.565 -0.0233959 1.57583 0
M  V30 4156 C 401.811 -0.714119 1.89811 0
M  V30 4157 C 402.144 -1.74702 0.848113 0
M  V30 4158 O 401.419 -1.94023 -0.136135 0
M  V30 4159 C 401.702 -1.37853 3.32669 0
M  V30 4160 C 401.555 -0.358764 4.48367 0
M  V30 4161 C 402.874 -2.31101 3.7454 0
M  V30 4162 H 399.993 -0.25814 0.690314 0
M  V30 4163 H 402.635 0.0230927 1.89986 0
M  V30 4164 H 400.785 -2.00689 3.3265 0
M  V30 4165 H 402.457 0.268115 4.6052 0
M  V30 4166 H 400.7 0.321387 4.32608 0
M  V30 4167 H 401.371 -0.862242 5.45224 0
M  V30 4168 H 403.847 -1.78304 3.75961 0
M  V30 4169 H 402.723 -2.74567 4.75294 0
M  V30 4170 H 402.984 -3.18018 3.0711 0
M  V30 4171 N 402.043 -1.548 -0.295768 0
M  V30 4172 C 403.289 -1.74588 -1.03184 0
M  V30 4173 C 403.622 -0.532962 -1.86744 0
M  V30 4174 O 402.897 0.469872 -1.88739 0
M  V30 4175 C 403.18 -3.03791 -1.93347 0
M  V30 4176 C 403.033 -4.35392 -1.12933 0
M  V30 4177 C 404.352 -3.28892 -2.92435 0
M  V30 4178 H 401.471 -0.635221 -0.373715 0
M  V30 4179 H 404.113 -1.87519 -0.30606 0
M  V30 4180 H 402.263 -2.92898 -2.55232 0
M  V30 4181 H 403.935 -4.58211 -0.532943 0
M  V30 4182 H 402.178 -4.31642 -0.432168 0
M  V30 4183 H 402.849 -5.22074 -1.79284 0
M  V30 4184 H 405.325 -3.39429 -2.4068 0
M  V30 4185 H 404.201 -4.20603 -3.52682 0
M  V30 4186 H 404.462 -2.47437 -3.6637 0
M  V30 4187 N 403.521 0.559213 -1.47345 0
M  V30 4188 C 404.451 1.67622 -1.62558 0
M  V30 4189 C 405.432 1.63331 -0.475087 0
M  V30 4190 O 406.617 1.80983 -0.704182 0
M  V30 4191 C 403.747 3.0626 -1.63774 0
M  V30 4192 C 402.701 3.25397 -2.7803 0
M  V30 4193 C 402.027 4.64801 -2.64318 0
M  V30 4194 C 403.327 3.10965 -4.19641 0
M  V30 4195 H 405.021 1.55146 -2.56067 0
M  V30 4196 H 402.567 0.744961 -1.23233 0
M  V30 4197 H 404.52 3.84247 -1.73008 0
M  V30 4198 H 403.244 3.1969 -0.66825 0
M  V30 4199 H 401.903 2.49817 -2.68304 0
M  V30 4200 H 401.551 4.75028 -1.65401 0
M  V30 4201 H 401.251 4.78555 -3.40968 0
M  V30 4202 H 402.775 5.44926 -2.75478 0
M  V30 4203 H 404.189 3.78772 -4.30354 0
M  V30 4204 H 402.586 3.36229 -4.97062 0
M  V30 4205 H 403.656 2.07736 -4.38148 0
M  V30 4206 N 404.999 1.35443 0.805782 0
M  V30 4207 C 406.229 1.31687 1.59192 0
M  V30 4208 C 406.637 -0.10756 1.88894 0
M  V30 4209 O 405.98 -1.07017 1.49309 0
M  V30 4210 C 406.042 2.05686 2.94845 0
M  V30 4211 C 405.706 3.54868 2.87954 0
M  V30 4212 C 406.703 4.49444 2.61335 0
M  V30 4213 C 404.388 3.97528 3.07046 0
M  V30 4214 C 406.382 5.84655 2.53885 0
M  V30 4215 C 404.069 5.32833 2.99219 0
M  V30 4216 C 405.067 6.26209 2.72674 0
M  V30 4217 O 404.755 7.59032 2.64811 0
M  V30 4218 H 404.487 0.453878 0.50097 0
M  V30 4219 H 407.041 1.78892 1.0093 0
M  V30 4220 H 405.271 1.5312 3.55093 0
M  V30 4221 H 406.96 1.94998 3.55993 0
M  V30 4222 H 407.726 4.17804 2.46303 0
M  V30 4223 H 403.605 3.25233 3.26718 0
M  V30 4224 H 407.149 6.57508 2.33086 0
M  V30 4225 H 403.046 5.64087 3.13809 0
M  V30 4226 H 403.814 7.68967 2.80413 0
M  V30 4227 N 406.477 -1.02803 1.19454 0
M  V30 4228 C 407.41 -2.107 0.876396 0
M  V30 4229 C 408.388 -1.61741 -0.166897 0
M  V30 4230 O 409.572 -1.88451 -0.0430195 0
M  V30 4231 C 406.699 -3.37262 0.311758 0
M  V30 4232 C 405.745 -4.05093 1.33424 0
M  V30 4233 S 406.578 -4.50498 2.89503 0
M  V30 4234 C 407.734 -5.80277 2.34584 0
M  V30 4235 H 407.967 -2.37362 1.79016 0
M  V30 4236 H 405.5 -1.15755 1.02177 0
M  V30 4237 H 407.458 -4.10499 -0.00748752 0
M  V30 4238 H 406.119 -3.08693 -0.58032 0
M  V30 4239 H 405.312 -4.9611 0.888302 0
M  V30 4240 H 404.914 -3.3803 1.60037 0
M  V30 4241 H 407.206 -6.54873 1.73633 0
M  V30 4242 H 408.149 -6.29651 3.23952 0
M  V30 4243 H 408.557 -5.3599 1.77131 0
M  V30 4244 N 407.956 -0.998596 -1.21925 0
M  V30 4245 C 409.367 -0.711939 -1.72593 0
M  V30 4246 C 409.718 0.770842 -1.80423 0
M  V30 4247 O 408.843 1.60237 -1.4544 0
M  V30 4248 C 409.438 -1.28567 -3.13458 0
M  V30 4249 C 407.997 -1.04828 -3.61508 0
M  V30 4250 C 407.144 -1.4024 -2.39224 0
M  V30 4251 H 410.095 -1.17027 -1.07193 0
M  V30 4252 H 410.116 -0.667098 -3.74607 0
M  V30 4253 H 409.628 -2.36486 -3.07727 0
M  V30 4254 H 407.729 0.0140383 -3.72597 0
M  V30 4255 H 407.842 -1.71566 -4.47328 0
M  V30 4256 H 406.206 -0.821077 -2.41103 0
M  V30 4257 H 406.989 -2.49176 -2.36149 0
M  V30 4258 N 409.434 1.37368 -0.772513 0
M  V30 4259 C 410.659 2.0447 -0.347386 0
M  V30 4260 C 411.084 1.57882 1.0225 0
M  V30 4261 O 410.442 0.73941 1.65537 0
M  V30 4262 C 410.49 3.58369 -0.400479 0
M  V30 4263 O 409.594 4.0803 0.598789 0
M  V30 4264 H 408.935 0.646773 -0.15027 0
M  V30 4265 H 411.465 1.75667 -1.04892 0
M  V30 4266 H 411.475 4.07183 -0.258045 0
M  V30 4267 H 410.15 3.91633 -1.39986 0
M  V30 4268 H 408.727 3.70534 0.419411 0
M  V30 4269 N 410.912 0.523116 1.48665 0
M  V30 4270 C 411.875 -0.232592 2.28017 0
M  V30 4271 C 412.875 -0.874021 1.34972 0
M  V30 4272 O 414.065 -0.735132 1.57929 0
M  V30 4273 C 411.197 -1.33586 3.13636 0
M  V30 4274 H 412.39 0.464008 2.96289 0
M  V30 4275 H 409.943 0.278816 1.53793 0
M  V30 4276 H 410.678 -2.06593 2.4998 0
M  V30 4277 H 410.463 -0.881125 3.82071 0
M  V30 4278 H 411.953 -1.86759 3.73511 0
M  V30 4279 N 412.39 -1.55475 0.257931 0
M  V30 4280 C 413.801 -1.8511 -0.243135 0
M  V30 4281 C 414.152 -1.17986 -1.5676 0
M  V30 4282 O 413.277 -0.462102 -2.11409 0
M  V30 4283 C 413.872 -3.35826 -0.447929 0
M  V30 4284 C 412.431 -3.65647 -0.893245 0
M  V30 4285 C 411.578 -2.7729 0.0232965 0
M  V30 4286 H 414.529 -1.51261 0.480199 0
M  V30 4287 H 414.55 -3.58002 -1.28898 0
M  V30 4288 H 414.062 -3.84652 0.516196 0
M  V30 4289 H 412.163 -3.22308 -1.86945 0
M  V30 4290 H 412.276 -4.73312 -0.742469 0
M  V30 4291 H 410.64 -2.49942 -0.490021 0
M  V30 4292 H 411.423 -3.28926 0.982994 0
M  V30 4293 N 413.868 0.0150385 -1.57593 0
M  V30 4294 C 414.798 1.01047 -2.10503 0
M  V30 4295 C 415.779 1.36816 -1.01071 0
M  V30 4296 O 416.964 1.45455 -1.28672 0
M  V30 4297 C 414.094 2.30708 -2.59598 0
M  V30 4298 C 413.048 2.09142 -3.73421 0
M  V30 4299 C 412.374 3.44685 -4.08774 0
M  V30 4300 C 413.674 1.46619 -5.01298 0
M  V30 4301 H 415.368 0.569978 -2.93925 0
M  V30 4302 H 412.914 0.272724 -1.41394 0
M  V30 4303 H 414.867 3.00687 -2.95238 0
M  V30 4304 H 413.591 2.76843 -1.73279 0
M  V30 4305 H 412.25 1.41592 -3.38153 0
M  V30 4306 H 411.898 3.88495 -3.195 0
M  V30 4307 H 411.598 3.31077 -4.8545 0
M  V30 4308 H 413.122 4.16004 -4.4696 0
M  V30 4309 H 414.536 2.06535 -5.34805 0
M  V30 4310 H 412.933 1.43544 -5.82679 0
M  V30 4311 H 414.003 0.433611 -4.82957 0
M  V30 4312 N 415.346 1.54954 0.287554 0
M  V30 4313 C 416.571 1.79209 1.04397 0
M  V30 4314 C 416.996 0.556431 1.79682 0
M  V30 4315 O 416.354 -0.493518 1.74454 0
M  V30 4316 C 416.402 3.00739 1.98969 0
M  V30 4317 O 415.506 2.74805 3.075 0
M  V30 4318 H 414.847 0.592755 0.299227 0
M  V30 4319 H 417.377 2.02068 0.320886 0
M  V30 4320 H 417.387 3.29077 2.4119 0
M  V30 4321 H 416.062 3.90329 1.43582 0
M  V30 4322 H 414.639 2.57523 2.69697 0
M  V30 4323 N 416.824 -0.551391 1.4764 0
M  V30 4324 C 418.072 -1.30572 1.54258 0
M  V30 4325 C 418.393 -1.93877 0.208963 0
M  V30 4326 O 417.663 -1.80234 -0.767619 0
M  V30 4327 H 416.243 -0.484894 0.568231 0
M  V30 4328 H 418.905 -0.643402 1.83974 0
M  V30 4329 H 418.001 -2.09621 2.31226 0
M  V30 4330 N 418.302 -1.35869 -0.798587 0
M  V30 4331 C 419.713 -1.26498 -1.37314 0
M  V30 4332 C 420.064 0.0991899 -1.95949 0
M  V30 4333 O 419.189 1.0004 -1.91888 0
M  V30 4334 C 419.784 -2.29054 -2.49639 0
M  V30 4335 C 418.343 -2.234 -3.02935 0
M  V30 4336 C 417.49 -2.14329 -1.75949 0
M  V30 4337 H 420.441 -1.46881 -0.600971 0
M  V30 4338 H 420.462 -1.92166 -3.28409 0
M  V30 4339 H 419.974 -3.2833 -2.06933 0
M  V30 4340 H 418.075 -1.27562 -3.50084 0
M  V30 4341 H 418.188 -3.15703 -3.60372 0
M  V30 4342 H 416.552 -1.60435 -1.9782 0
M  V30 4343 H 417.335 -3.15477 -1.35384 0
M  V30 4344 N 419.78 1.02168 -1.19998 0
M  V30 4345 C 421.026 1.75945 -1.00852 0
M  V30 4346 C 421.359 1.88702 0.458828 0
M  V30 4347 O 420.634 1.40911 1.34069 0
M  V30 4348 C 420.917 3.18154 -1.68671 0
M  V30 4349 C 420.77 3.13224 -3.22817 0
M  V30 4350 C 422.089 4.16711 -1.41561 0
M  V30 4351 H 419.208 0.638673 -0.367785 0
M  V30 4352 H 421.85 1.19222 -1.4794 0
M  V30 4353 H 420 3.66586 -1.28636 0
M  V30 4354 H 421.672 2.72635 -3.72112 0
M  V30 4355 H 419.915 2.50751 -3.53986 0
M  V30 4356 H 420.586 4.13728 -3.65422 0
M  V30 4357 H 423.062 3.76913 -1.76284 0
M  V30 4358 H 421.938 5.14391 -1.91553 0
M  V30 4359 H 422.199 4.40774 -0.342193 0
M  V30 4360 N 421.258 1.00505 1.21394 0
M  V30 4361 C 422.188 0.585684 2.26035 0
M  V30 4362 C 423.169 -0.393525 1.65485 0
M  V30 4363 O 424.354 -0.281497 1.92149 0
M  V30 4364 C 421.484 -0.0884283 3.47187 0
M  V30 4365 C 420.438 0.810567 4.20254 0
M  V30 4366 C 419.764 0.00286382 5.347 0
M  V30 4367 C 421.064 2.1132 4.77641 0
M  V30 4368 H 422.758 1.46039 2.61368 0
M  V30 4369 H 420.304 0.703648 1.25638 0
M  V30 4370 H 422.257 -0.393286 4.19561 0
M  V30 4371 H 420.981 -0.997766 3.10986 0
M  V30 4372 H 419.64 1.09925 3.49731 0
M  V30 4373 H 419.288 -0.907765 4.94741 0
M  V30 4374 H 418.988 0.601444 5.84514 0
M  V30 4375 H 420.512 -0.295808 6.09883 0
M  V30 4376 H 421.926 1.87148 5.41893 0
M  V30 4377 H 420.323 2.66164 5.37845 0
M  V30 4378 H 421.393 2.78393 3.9702 0
M  V30 4379 N 422.737 -1.36956 0.779787 0
M  V30 4380 C 423.7 -2.2851 0.177662 0
M  V30 4381 C 424.7 -1.48393 -0.619377 0
M  V30 4382 O 425.89 -1.68505 -0.441785 0
M  V30 4383 C 423.022 -3.32428 -0.755279 0
M  V30 4384 H 424.215 -2.83269 0.984823 0
M  V30 4385 H 421.768 -1.46358 0.548544 0
M  V30 4386 H 422.503 -2.82808 -1.58714 0
M  V30 4387 H 422.288 -3.91659 -0.185817 0
M  V30 4388 H 423.778 -4.00824 -1.17174 0
M  V30 4389 N 424.215 -0.530993 -1.48385 0
M  V30 4390 C 425.145 0.219985 -2.32461 0
M  V30 4391 C 426.126 0.934111 -1.42156 0
M  V30 4392 O 427.311 0.919694 -1.71042 0
M  V30 4393 C 424.441 1.26674 -3.23375 0
M  V30 4394 C 423.395 0.67069 -4.22712 0
M  V30 4395 C 422.721 1.82017 -5.02766 0
M  V30 4396 C 424.021 -0.358268 -5.2107 0
M  V30 4397 H 425.715 -0.48187 -2.95497 0
M  V30 4398 H 423.261 -0.233182 -1.42099 0
M  V30 4399 H 425.214 1.80006 -3.81019 0
M  V30 4400 H 423.938 1.99818 -2.58341 0
M  V30 4401 H 422.597 0.158878 -3.66256 0
M  V30 4402 H 422.245 2.54002 -4.34157 0
M  V30 4403 H 421.945 1.42727 -5.70003 0
M  V30 4404 H 423.469 2.35725 -5.63264 0
M  V30 4405 H 424.883 0.0880081 -5.73232 0
M  V30 4406 H 423.28 -0.66861 -5.96364 0
M  V30 4407 H 424.35 -1.26367 -4.68145 0
M  V30 4408 N 425.693 1.55336 -0.266172 0
M  V30 4409 C 426.942 1.98574 0.353749 0
M  V30 4410 C 427.255 1.15789 1.57646 0
M  V30 4411 O 428.461 1.49129 2.26876 0
M  V30 4412 C 426.917 3.53403 0.680747 0
M  V30 4413 C 426.525 4.44953 -0.52165 0
M  V30 4414 C 428.269 4.05251 1.26379 0
M  V30 4415 C 426.176 5.91156 -0.169736 0
M  V30 4416 H 425.106 0.741643 0.135949 0
M  V30 4417 H 427.757 1.79743 -0.369421 0
M  V30 4418 H 426.139 3.68001 1.46257 0
M  V30 4419 H 427.313 4.42121 -1.29869 0
M  V30 4420 H 425.628 4.03691 -1.02093 0
M  V30 4421 H 428.225 5.12021 1.54074 0
M  V30 4422 H 428.568 3.53749 2.19471 0
M  V30 4423 H 429.101 3.94057 0.544447 0
M  V30 4424 H 425.84 6.46736 -1.0683 0
M  V30 4425 H 425.36 5.97079 0.570717 0
M  V30 4426 H 427.039 6.4655 0.241245 0
M  V30 4427 N 427.171 -0.0066808 1.57599 0
M  V30 4428 C 428.101 -0.999296 2.11036 0
M  V30 4429 C 429.082 -1.36278 1.01795 0
M  V30 4430 O 430.267 -1.4477 1.29442 0
M  V30 4431 C 427.397 -2.29328 2.60818 0
M  V30 4432 C 426.351 -2.07159 3.74525 0
M  V30 4433 C 425.677 -3.42512 4.10596 0
M  V30 4434 C 426.977 -1.43959 5.02069 0
M  V30 4435 H 428.671 -0.554382 2.94223 0
M  V30 4436 H 426.217 -0.265221 1.41536 0
M  V30 4437 H 428.17 -2.99117 2.96828 0
M  V30 4438 H 426.894 -2.7592 1.74745 0
M  V30 4439 H 425.553 -1.39797 3.38899 0
M  V30 4440 H 425.201 -3.86795 3.21556 0
M  V30 4441 H 424.901 -3.28498 4.87199 0
M  V30 4442 H 426.425 -4.13628 4.4916 0
M  V30 4443 H 427.839 -2.03696 5.35893 0
M  V30 4444 H 426.236 -1.40452 5.83432 0
M  V30 4445 H 427.306 -0.407992 4.83181 0
M  V30 4446 N 428.649 -1.55105 -0.279332 0
M  V30 4447 C 429.597 -1.88333 -1.36505 0
M  V30 4448 C 430.591 -0.759043 -1.51443 0
M  V30 4449 O 431.797 -0.943312 -1.53302 0
M  V30 4450 H 428.172 -0.59766 -0.456406 0
M  V30 4451 H 430.143 -2.79041 -1.05728 0
M  V30 4452 C 428.892 -2.16628 -2.7197 0
M  V30 4453 H 428.215 -3.02624 -2.61264 0
M  V30 4454 H 429.655 -2.43803 -3.46895 0
M  V30 4455 C 428.114 -0.971807 -3.22579 0
M  V30 4456 O 428.644 -0.203228 -4.01186 0
M  V30 4457 N 426.85 -0.771238 -2.80179 0
M  V30 4458 H 426.397 -1.39792 -2.1637 0
M  V30 4459 H 426.355 0.0263667 -3.14389 0
M  V30 4460 N 430.127 0.543554 -1.4793 0
M  V30 4461 C 431.376 1.29649 -1.54512 0
M  V30 4462 C 431.689 1.94382 -0.217973 0
M  V30 4463 O 432.895 2.71017 -0.161908 0
M  V30 4464 C 431.351 2.35175 -2.72435 0
M  V30 4465 C 430.959 1.76572 -4.11736 0
M  V30 4466 C 432.703 3.11564 -2.8832 0
M  V30 4467 C 430.61 2.79958 -5.20939 0
M  V30 4468 H 429.54 0.487541 -0.57517 0
M  V30 4469 H 432.191 0.575708 -1.74235 0
M  V30 4470 H 430.573 3.10229 -2.46118 0
M  V30 4471 H 431.747 1.07799 -4.48013 0
M  V30 4472 H 430.062 1.12722 -4.00852 0
M  V30 4473 H 432.659 3.88794 -3.67074 0
M  V30 4474 H 433.002 3.66594 -1.97268 0
M  V30 4475 H 433.535 2.43623 -3.14472 0
M  V30 4476 H 430.274 2.29766 -6.13912 0
M  V30 4477 H 429.794 3.47101 -4.89164 0
M  V30 4478 H 431.473 3.43198 -5.48474 0
M  V30 4479 N 431.605 1.3629 0.791371 0
M  V30 4480 C 432.535 1.33137 1.91825 0
M  V30 4481 C 433.516 0.203168 1.68882 0
M  V30 4482 O 434.701 0.400509 1.90025 0
M  V30 4483 C 431.831 1.11793 3.28816 0
M  V30 4484 C 430.785 2.21417 3.66277 0
M  V30 4485 C 430.111 1.85218 5.01596 0
M  V30 4486 C 431.411 3.63489 3.75064 0
M  V30 4487 H 433.105 2.2743 1.9472 0
M  V30 4488 H 430.651 1.09479 0.935437 0
M  V30 4489 H 432.604 1.08222 4.07266 0
M  V30 4490 H 431.328 0.139501 3.26302 0
M  V30 4491 H 429.987 2.2411 2.90121 0
M  V30 4492 H 429.635 0.859544 4.95602 0
M  V30 4493 H 429.335 2.58611 5.27631 0
M  V30 4494 H 430.859 1.832 5.82469 0
M  V30 4495 H 432.273 3.63034 4.43711 0
M  V30 4496 H 430.67 4.35771 4.12582 0
M  V30 4497 H 431.74 3.98536 2.76219 0
M  V30 4498 N 433.083 -1.0153 1.20538 0
M  V30 4499 C 434.03 -2.10098 0.955383 0
M  V30 4500 C 435 -1.65702 -0.114878 0
M  V30 4501 O 436.185 -1.90776 0.0301118 0
M  V30 4502 C 433.325 -3.41236 0.514969 0
M  V30 4503 C 432.438 -3.99102 1.65353 0
M  V30 4504 C 431.573 -5.18306 1.16329 0
M  V30 4505 C 430.612 -5.68258 2.27485 0
M  V30 4506 N 429.749 -6.78722 1.7967 0
M  V30 4507 H 434.589 -2.30818 1.88486 0
M  V30 4508 H 432.126 -1.13189 0.939499 0
M  V30 4509 H 434.084 -4.16504 0.240935 0
M  V30 4510 H 432.714 -3.20585 -0.377512 0
M  V30 4511 H 431.766 -3.20918 2.04245 0
M  V30 4512 H 433.078 -4.32177 2.49047 0
M  V30 4513 H 432.232 -6.00782 0.845302 0
M  V30 4514 H 430.971 -4.86799 0.296254 0
M  V30 4515 H 429.976 -4.84385 2.60099 0
M  V30 4516 H 431.201 -6.01798 3.14667 0
M  V30 4517 H 429.147 -6.49042 0.95295 0
M  V30 4518 H 429.064 -7.10996 2.56944 0
M  V30 4519 H 430.332 -7.64759 1.50875 0
M  V30 4520 N 434.561 -1.01147 -1.20859 0
M  V30 4521 C 435.809 -0.696486 -1.89719 0
M  V30 4522 C 436.13 0.775788 -1.78904 0
M  V30 4523 O 435.4 1.55759 -1.18811 0
M  V30 4524 H 433.98 -0.254628 -0.702263 0
M  V30 4525 H 436.642 -1.28197 -1.46804 0
M  V30 4526 H 435.738 -0.975357 -2.96468 0
M  V30 4527 N 436.039 1.36541 -0.78704 0
M  V30 4528 C 437.269 2.03266 -0.369662 0
M  V30 4529 C 437.677 1.59481 1.01796 0
M  V30 4530 O 437.02 0.778612 1.66383 0
M  V30 4531 C 437.082 3.57779 -0.351371 0
M  V30 4532 C 436.746 4.24756 -1.68617 0
M  V30 4533 C 437.743 4.47811 -2.64124 0
M  V30 4534 C 435.428 4.62277 -1.96481 0
M  V30 4535 C 437.422 5.07464 -3.85693 0
M  V30 4536 C 435.109 5.21649 -3.18317 0
M  V30 4537 C 436.107 5.44182 -4.12741 0
M  V30 4538 O 435.795 6.02307 -5.32429 0
M  V30 4539 H 435.527 0.658977 -0.150751 0
M  V30 4540 H 438.081 1.75548 -1.0664 0
M  V30 4541 H 436.311 3.84606 0.401847 0
M  V30 4542 H 438 4.05879 0.0410147 0
M  V30 4543 H 438.766 4.19221 -2.43883 0
M  V30 4544 H 434.645 4.44065 -1.23805 0
M  V30 4545 H 438.189 5.24968 -4.59407 0
M  V30 4546 H 434.086 5.49664 -3.38437 0
M  V30 4547 H 434.854 6.20775 -5.33461 0
M  V30 4548 N 437.518 0.538854 1.48102 0
M  V30 4549 C 438.466 -0.232325 2.31437 0
M  V30 4550 C 439.46 -0.927004 1.41785 0
M  V30 4551 O 440.666 -0.850378 1.58646 0
M  V30 4552 H 437.041 -0.0937916 0.746128 0
M  V30 4553 H 439.012 0.489986 2.9435 0
M  V30 4554 C 437.761 -1.26074 3.24038 0
M  V30 4555 H 437.084 -0.735609 3.92974 0
M  V30 4556 H 438.524 -1.77157 3.85216 0
M  V30 4557 C 436.983 -2.29902 2.46265 0
M  V30 4558 O 437.513 -3.36502 2.19384 0
M  V30 4559 N 435.719 -2.03348 2.07601 0
M  V30 4560 H 435.266 -1.16675 2.29662 0
M  V30 4561 H 435.224 -2.73038 1.55877 0
M  V30 4562 N 438.996 -1.55193 0.274407 0
M  V30 4563 C 440.243 -1.99581 -0.342579 0
M  V30 4564 C 440.571 -1.1628 -1.55914 0
M  V30 4565 O 439.826 -0.22029 -1.94456 0
M  V30 4566 C 440.125 -3.49019 -0.769458 0
M  V30 4567 C 439.791 -4.49598 0.342389 0
M  V30 4568 C 438.453 -4.76821 0.647686 0
M  V30 4569 C 440.805 -5.0964 1.09163 0
M  V30 4570 C 438.133 -5.61354 1.70581 0
M  V30 4571 C 440.485 -5.95323 2.13948 0
M  V30 4572 C 439.149 -6.20867 2.45113 0
M  V30 4573 H 438.419 -0.730319 -0.125358 0
M  V30 4574 H 441.066 -1.87529 0.387971 0
M  V30 4575 H 439.371 -3.58544 -1.57967 0
M  V30 4576 H 441.068 -3.8077 -1.25757 0
M  V30 4577 H 437.658 -4.28496 0.094318 0
M  V30 4578 H 441.842 -4.88632 0.869024 0
M  V30 4579 H 437.098 -5.79392 1.9523 0
M  V30 4580 H 441.272 -6.40881 2.72478 0
M  V30 4581 H 438.899 -6.86162 3.27239 0
M  V30 4582 N 440.474 -0.00167713 -1.576 0
M  V30 4583 C 441.699 0.69739 -1.95323 0
M  V30 4584 C 442.124 1.6642 -0.876706 0
M  V30 4585 O 441.482 1.80548 0.165007 0
M  V30 4586 C 441.53 1.40403 -3.32144 0
M  V30 4587 O 440.634 2.5185 -3.26566 0
M  V30 4588 H 439.975 0.185373 -0.637599 0
M  V30 4589 H 442.505 -0.0553665 -2.04525 0
M  V30 4590 H 442.515 1.76707 -3.67748 0
M  V30 4591 H 441.19 0.695167 -4.10049 0
M  V30 4592 H 439.767 2.17861 -3.0264 0
M  V30 4593 N 441.952 1.55251 0.271103 0
M  V30 4594 C 443.368 1.47133 0.618393 0
M  V30 4595 C 443.568 0.686994 1.89427 0
M  V30 4596 O 442.624 0.206609 2.51653 0
M  V30 4597 C 443.937 2.91361 0.743593 0
M  V30 4598 C 445.485 3.01587 0.837522 0
M  V30 4599 C 445.96 4.47073 0.994483 0
M  V30 4600 N 447.451 4.50909 1.05996 0
M  V30 4601 C 448.186 5.60698 1.20024 0
M  V30 4602 N 447.682 6.80348 1.30759 0
M  V30 4603 N 449.475 5.48444 1.23149 0
M  V30 4604 H 441.626 2.04698 -0.566784 0
M  V30 4605 H 443.889 0.928319 -0.192165 0
M  V30 4606 H 443.595 3.51483 -0.123493 0
M  V30 4607 H 443.469 3.40484 1.62328 0
M  V30 4608 H 445.856 2.4156 1.69507 0
M  V30 4609 H 445.937 2.55713 -0.0668086 0
M  V30 4610 H 445.581 5.07703 0.141582 0
M  V30 4611 H 445.511 4.90605 1.91349 0
M  V30 4612 H 448.002 3.6472 0.989316 0
M  V30 4613 H 448.315 7.59772 1.41303 0
M  V30 4614 H 446.66 6.83156 1.27761 0
M  V30 4615 H 449.851 4.53907 1.14394 0
M  V30 4616 H 450.024 6.34049 1.33738 0
M  V30 4617 N 443.43 -0.535701 1.48216 0
M  V30 4618 C 444.34 -1.66785 1.64985 0
M  V30 4619 C 445.356 -1.65654 0.532414 0
M  V30 4620 O 446.532 -1.8471 0.80275 0
M  V30 4621 C 443.597 -3.0326 1.68031 0
M  V30 4622 C 442.658 -3.1529 2.9136 0
M  V30 4623 C 441.891 -4.45255 2.94252 0
M  V30 4624 O 442.114 -5.32011 2.05719 0
M  V30 4625 O 441.048 -4.6153 3.86359 0
M  V30 4626 H 444.874 -1.55576 2.60825 0
M  V30 4627 H 442.459 -0.70815 1.31551 0
M  V30 4628 H 444.341 -3.84436 1.72589 0
M  V30 4629 H 443.016 -3.14805 0.753628 0
M  V30 4630 H 441.923 -2.3343 2.92337 0
M  V30 4631 H 443.256 -3.08658 3.83394 0
M  V30 4632 N 444.908 -1.36708 -0.784132 0
M  V30 4633 C 446.133 -1.34565 -1.5782 0
M  V30 4634 C 446.558 0.0695257 -1.87971 0
M  V30 4635 O 445.916 1.04302 -1.48293 0
M  V30 4636 C 445.964 -2.17952 -2.87279 0
M  V30 4637 O 445.068 -1.57563 -3.81114 0
M  V30 4638 H 444.409 -0.460337 -0.478524 0
M  V30 4639 H 446.939 -1.80064 -0.971495 0
M  V30 4640 H 446.949 -2.30721 -3.365 0
M  V30 4641 H 445.624 -3.20823 -2.64661 0
M  V30 4642 H 444.201 -1.53764 -3.39722 0
M  V30 4643 N 446.386 1.0089 -1.21074 0
M  V30 4644 C 447.632 1.74866 -1.02712 0
M  V30 4645 C 447.965 1.89178 0.438787 0
M  V30 4646 O 447.24 1.42325 1.32567 0
M  V30 4647 C 447.523 3.16347 -1.72036 0
M  V30 4648 C 447.376 3.09782 -3.26121 0
M  V30 4649 C 448.695 4.15187 -1.45973 0
M  V30 4650 H 445.814 0.634736 -0.374539 0
M  V30 4651 H 448.456 1.17646 -1.49196 0
M  V30 4652 H 446.606 3.65201 -1.32517 0
M  V30 4653 H 448.278 2.68673 -3.74983 0
M  V30 4654 H 446.521 2.46982 -3.56626 0
M  V30 4655 H 447.192 4.09829 -3.6979 0
M  V30 4656 H 449.668 3.75022 -1.80272 0
M  V30 4657 H 448.544 5.12331 -1.96999 0
M  V30 4658 H 448.805 4.40386 -0.388924 0
M  V30 4659 N 447.864 1.01787 1.20321 0
M  V30 4660 C 448.774 0.598898 2.26827 0
M  V30 4661 C 449.79 -0.36418 1.70146 0
M  V30 4662 O 450.966 -0.224812 2.00141 0
M  V30 4663 C 448.031 -0.0549769 3.46656 0
M  V30 4664 C 447.092 0.954205 4.18561 0
M  V30 4665 C 446.325 0.331439 5.3267 0
M  V30 4666 O 446.548 -0.86851 5.63749 0
M  V30 4667 O 445.482 1.0488 5.92692 0
M  V30 4668 H 449.308 1.48562 2.64883 0
M  V30 4669 H 446.893 0.787434 1.26964 0
M  V30 4670 H 448.775 -0.420102 4.19301 0
M  V30 4671 H 447.45 -0.915876 3.10473 0
M  V30 4672 H 446.357 1.37072 3.48083 0
M  V30 4673 H 447.69 1.78511 4.58688 0
M  V30 4674 N 449.342 -1.36122 0.79427 0
M  V30 4675 C 450.567 -2.03891 0.379871 0
M  V30 4676 C 450.992 -1.59488 -0.997251 0
M  V30 4677 O 450.35 -0.765652 -1.64339 0
M  V30 4678 C 450.398 -3.57687 0.457442 0
M  V30 4679 O 449.502 -4.08931 -0.5338 0
M  V30 4680 H 448.843 -0.6443 0.160541 0
M  V30 4681 H 451.373 -1.73976 1.07673 0
M  V30 4682 H 451.383 -4.06721 0.322792 0
M  V30 4683 H 450.058 -3.89357 1.46199 0
M  V30 4684 H 448.635 -3.71154 -0.360409 0
M  V30 4685 N 450.82 -0.546701 -1.47814 0
M  V30 4686 C 452.231 -0.110564 -1.86372 0
M  V30 4687 C 452.582 1.31678 -1.45449 0
M  V30 4688 O 451.707 1.98889 -0.852758 0
M  V30 4689 C 452.302 -0.193873 -3.38245 0
M  V30 4690 C 450.861 0.187164 -3.75934 0
M  V30 4691 C 450.008 -0.546166 -2.71868 0
M  V30 4692 H 452.959 -0.757022 -1.39481 0
M  V30 4693 H 452.98 0.590218 -3.75895 0
M  V30 4694 H 452.492 -1.23282 -3.67999 0
M  V30 4695 H 450.593 1.22762 -3.51796 0
M  V30 4696 H 450.706 -0.164083 -4.78819 0
M  V30 4697 H 449.07 0.00953904 -2.54698 0
M  V30 4698 H 449.853 -1.58606 -3.04465 0
M  V30 4699 N 452.299 1.55045 -0.282633 0
M  V30 4700 C 453.209 2.26491 0.61147 0
M  V30 4701 C 454.225 1.29348 1.16384 0
M  V30 4702 O 455.401 1.62298 1.19253 0
M  V30 4703 C 452.466 2.97779 1.77563 0
M  V30 4704 C 451.527 4.10418 1.25919 0
M  V30 4705 C 450.76 4.78297 2.36786 0
M  V30 4706 O 450.983 4.45426 3.56303 0
M  V30 4707 O 449.917 5.66089 2.04517 0
M  V30 4708 H 453.743 3.03683 0.0324615 0
M  V30 4709 H 451.328 1.49317 -0.0497576 0
M  V30 4710 H 453.21 3.42554 2.45427 0
M  V30 4711 H 451.885 2.23498 2.34159 0
M  V30 4712 H 450.792 3.70082 0.546797 0
M  V30 4713 H 452.125 4.86622 0.738887 0
M  V30 4714 N 453.777 0.010035 1.57597 0
M  V30 4715 C 454.709 -1.00649 2.05918 0
M  V30 4716 C 455.722 -1.30077 0.978964 0
M  V30 4717 O 456.911 -1.26878 1.25556 0
M  V30 4718 C 454.011 -2.33876 2.45265 0
M  V30 4719 C 453.184 -2.23242 3.7614 0
M  V30 4720 C 452.243 -3.39242 4.02245 0
M  V30 4721 O 451.269 -3.1698 4.72771 0
M  V30 4722 N 452.471 -4.6242 3.50924 0
M  V30 4723 H 455.236 -0.594333 2.93748 0
M  V30 4724 H 452.797 -0.17714 1.60928 0
M  V30 4725 H 454.789 -3.1027 2.59836 0
M  V30 4726 H 453.359 -2.66799 1.62902 0
M  V30 4727 H 452.579 -1.31696 3.71551 0
M  V30 4728 H 453.867 -2.13321 4.61922 0
M  V30 4729 H 453.265 -4.83404 2.93832 0
M  V30 4730 H 451.822 -5.36046 3.70807 0
M  V30 4731 N 455.255 -1.55392 -0.262866 0
M  V30 4732 C 456.202 -1.88966 -1.32516 0
M  V30 4733 C 457.172 -0.742187 -1.48596 0
M  V30 4734 O 458.357 -0.99439 -1.62839 0
M  V30 4735 C 455.497 -2.17592 -2.67858 0
M  V30 4736 C 454.61 -3.45061 -2.59917 0
M  V30 4737 C 453.745 -3.63336 -3.87505 0
M  V30 4738 C 452.784 -4.84462 -3.74116 0
M  V30 4739 N 451.921 -4.99342 -4.93561 0
M  V30 4740 H 456.761 -2.79566 -1.03184 0
M  V30 4741 H 454.298 -1.38404 -0.498285 0
M  V30 4742 H 456.256 -2.3219 -3.46617 0
M  V30 4743 H 454.886 -1.30215 -2.95371 0
M  V30 4744 H 453.938 -3.38881 -1.72812 0
M  V30 4745 H 455.25 -4.3396 -2.45926 0
M  V30 4746 H 454.404 -3.77807 -4.74707 0
M  V30 4747 H 453.143 -2.72641 -4.04374 0
M  V30 4748 H 452.148 -4.69985 -2.85297 0
M  V30 4749 H 453.373 -5.76603 -3.58757 0
M  V30 4750 H 451.319 -4.1158 -5.10821 0
M  V30 4751 H 451.236 -5.82303 -4.82141 0
M  V30 4752 H 452.504 -5.18208 -5.82306 0
M  V30 4753 N 456.733 0.527833 -1.48498 0
M  V30 4754 C 457.981 1.28101 -1.56316 0
M  V30 4755 C 458.302 1.9352 -0.239781 0
M  V30 4756 O 457.572 1.81433 0.738849 0
M  V30 4757 H 456.152 0.475793 -0.575873 0
M  V30 4758 H 458.814 0.614052 -1.84974 0
M  V30 4759 H 457.91 2.05916 -2.34532 0
M  V30 4760 N 458.211 1.37122 0.776871 0
M  V30 4761 C 459.141 1.35164 1.90402 0
M  V30 4762 C 460.122 0.221069 1.68657 0
M  V30 4763 O 461.307 0.420642 1.8959 0
M  V30 4764 C 458.437 1.15274 3.27611 0
M  V30 4765 C 457.391 2.25289 3.63908 0
M  V30 4766 C 456.717 1.90527 4.99603 0
M  V30 4767 C 458.017 3.67446 3.71188 0
M  V30 4768 H 459.711 2.29482 1.92297 0
M  V30 4769 H 457.257 1.10465 0.923773 0
M  V30 4770 H 459.21 1.12536 4.06096 0
M  V30 4771 H 457.934 0.174102 3.26136 0
M  V30 4772 H 456.593 2.27174 2.87728 0
M  V30 4773 H 456.241 0.91206 4.94662 0
M  V30 4774 H 455.941 2.64193 5.24858 0
M  V30 4775 H 457.465 1.89367 5.80493 0
M  V30 4776 H 458.879 3.67719 4.39836 0
M  V30 4777 H 457.276 4.40123 4.07936 0
M  V30 4778 H 458.346 4.01443 2.71977 0
M  V30 4779 N 459.689 -1.00246 1.21608 0
M  V30 4780 C 460.917 -1.77631 1.06089 0
M  V30 4781 C 461.332 -1.84746 -0.38916 0
M  V30 4782 O 460.689 -1.31068 -1.26994 0
M  V30 4783 C 460.74 -3.21415 1.65453 0
M  V30 4784 O 460.461 -3.14703 3.04785 0
M  V30 4785 C 461.962 -4.15289 1.55079 0
M  V30 4786 H 459.182 -0.558162 0.37242 0
M  V30 4787 H 461.726 -1.26093 1.60999 0
M  V30 4788 H 459.881 -3.70053 1.14629 0
M  V30 4789 H 460.295 -4.05056 3.33212 0
M  V30 4790 H 461.769 -5.13965 2.01355 0
M  V30 4791 H 462.246 -4.36279 0.505665 0
M  V30 4792 H 462.852 -3.72543 2.05163 0
M  V30 4793 N 461.167 -1.02423 -1.1978 0
M  V30 4794 C 462.397 -0.736387 -1.93031 0
M  V30 4795 C 462.805 0.708023 -1.75453 0
M  V30 4796 O 462.148 1.4927 -1.07071 0
M  V30 4797 C 462.21 -1.00194 -3.45255 0
M  V30 4798 C 461.874 -2.43698 -3.86601 0
M  V30 4799 C 462.871 -3.41814 -3.91738 0
M  V30 4800 C 460.556 -2.77975 -4.18372 0
M  V30 4801 C 462.55 -4.72265 -4.28071 0
M  V30 4802 C 460.237 -4.08636 -4.54378 0
M  V30 4803 C 461.235 -5.05592 -4.59201 0
M  V30 4804 O 460.923 -6.33914 -4.94376 0
M  V30 4805 H 460.655 -0.269116 -0.620123 0
M  V30 4806 H 463.209 -1.37043 -1.52998 0
M  V30 4807 H 461.439 -0.310747 -3.85449 0
M  V30 4808 H 463.128 -0.704488 -3.9974 0
M  V30 4809 H 463.894 -3.16671 -3.67348 0
M  V30 4810 H 459.773 -2.0319 -4.13805 0
M  V30 4811 H 463.317 -5.4794 -4.3175 0
M  V30 4812 H 459.214 -4.33556 -4.78226 0
M  V30 4813 H 459.982 -6.38317 -5.12341 0
M  V30 4814 N 462.645 1.35699 -0.801477 0
M  V30 4815 C 463.595 2.2728 -0.181073 0
M  V30 4816 C 464.579 1.47533 0.642098 0
M  V30 4817 O 465.771 1.69785 0.500193 0
M  V30 4818 C 462.9 3.36626 0.673612 0
M  V30 4819 C 461.986 4.23802 -0.159008 0
M  V30 4820 N 462.377 4.90879 -1.2195 0
M  V30 4821 C 460.675 4.45959 0.0602005 0
M  V30 4822 C 461.376 5.5546 -1.72738 0
M  V30 4823 N 460.352 5.33663 -1.03465 0
M  V30 4824 H 464.154 2.76632 -0.992582 0
M  V30 4825 H 461.668 1.49166 -0.642127 0
M  V30 4826 H 463.665 4.01179 1.13408 0
M  V30 4827 H 462.325 2.88828 1.48353 0
M  V30 4828 H 463.336 4.92497 -1.60209 0
M  V30 4829 H 460.013 4.08969 0.839664 0
M  V30 4830 H 461.403 6.18991 -2.61342 0
M  V30 4831 N 464.123 0.554532 1.47522 0
M  V30 4832 C 465.539 0.214107 1.58157 0
M  V30 4833 C 465.739 -1.28331 1.55349 0
M  V30 4834 O 464.795 -2.06329 1.45549 0
M  V30 4835 C 466.108 0.838391 2.88776 0
M  V30 4836 C 467.656 0.809374 3.02354 0
M  V30 4837 C 468.131 1.41268 4.35669 0
M  V30 4838 N 469.622 1.37574 4.42298 0
M  V30 4839 C 470.357 1.8122 5.4401 0
M  V30 4840 N 469.853 2.3271 6.52547 0
M  V30 4841 N 471.646 1.72307 5.35039 0
M  V30 4842 H 463.797 1.52744 1.4759 0
M  V30 4843 H 466.06 0.636812 0.702264 0
M  V30 4844 H 465.766 1.89065 2.96559 0
M  V30 4845 H 465.64 0.329847 3.75755 0
M  V30 4846 H 468.027 -0.234187 2.94169 0
M  V30 4847 H 468.108 1.35565 2.16924 0
M  V30 4848 H 467.752 2.45529 4.4461 0
M  V30 4849 H 467.682 0.841871 5.19827 0
M  V30 4850 H 470.173 0.999081 3.64454 0
M  V30 4851 H 470.486 2.63944 7.26329 0
M  V30 4852 H 468.831 2.36719 6.53444 0
M  V30 4853 H 472.022 1.3186 4.49144 0
M  V30 4854 H 472.195 2.06641 6.14169 0
M  V30 4855 N 465.601 -1.54893 0.290851 0
M  V30 4856 C 466.85 -1.99111 -0.322113 0
M  V30 4857 C 467.163 -1.18283 -1.55784 0
M  V30 4858 O 468.369 -1.5272 -2.24475 0
M  V30 4859 C 466.825 -3.54442 -0.624438 0
M  V30 4860 C 466.433 -4.44066 0.592373 0
M  V30 4861 C 468.177 -4.07211 -1.19916 0
M  V30 4862 C 466.084 -5.90812 0.263762 0
M  V30 4863 H 465.014 -0.743712 -0.124133 0
M  V30 4864 H 467.665 -1.79132 0.39797 0
M  V30 4865 H 466.047 -3.70281 -1.40384 0
M  V30 4866 H 467.221 -4.39999 1.36886 0
M  V30 4867 H 465.536 -4.02015 1.08502 0
M  V30 4868 H 468.133 -5.14407 -1.45909 0
M  V30 4869 H 468.476 -3.57196 -2.13815 0
M  V30 4870 H 469.009 -3.94873 -0.481687 0
M  V30 4871 H 465.748 -6.44955 1.17105 0
M  V30 4872 H 465.268 -5.97911 -0.475655 0
M  V30 4873 H 466.947 -6.46852 -0.138354 0
M  V30 4874 N 467.08 -0.0183926 -1.57589 0
M  V30 4875 C 468.326 0.663543 -1.91638 0
M  V30 4876 C 468.659 1.72392 -0.894134 0
M  V30 4877 O 467.934 1.94316 0.0846449 0
M  V30 4878 C 468.217 1.28984 -3.36207 0
M  V30 4879 C 468.07 0.239761 -4.49161 0
M  V30 4880 C 469.389 2.2109 -3.80536 0
M  V30 4881 H 466.508 0.239746 -0.696915 0
M  V30 4882 H 469.15 -0.073456 -1.89858 0
M  V30 4883 H 467.3 1.91799 -3.37854 0
M  V30 4884 H 468.972 -0.390119 -4.59647 0
M  V30 4885 H 467.215 -0.435972 -4.31604 0
M  V30 4886 H 467.886 0.717383 -5.47319 0
M  V30 4887 H 470.362 1.68273 -3.80557 0
M  V30 4888 H 469.238 2.61869 -4.82406 0
M  V30 4889 H 469.499 3.09764 -3.15434 0
M  V30 4890 N 468.558 1.5553 0.254621 0
M  V30 4891 C 469.468 1.92789 1.33677 0
M  V30 4892 C 470.484 0.827356 1.53071 0
M  V30 4893 O 471.66 1.12807 1.66843 0
M  V30 4894 C 468.725 2.20827 2.67275 0
M  V30 4895 C 467.786 3.4427 2.5647 0
M  V30 4896 C 467.019 3.70961 3.83697 0
M  V30 4897 O 467.242 2.99852 4.85227 0
M  V30 4898 O 466.176 4.64491 3.82794 0
M  V30 4899 H 470.002 2.84945 1.05071 0
M  V30 4900 H 467.587 1.42312 0.454723 0
M  V30 4901 H 469.469 2.40204 3.46237 0
M  V30 4902 H 468.144 1.31851 2.9563 0
M  V30 4903 H 467.051 3.30209 1.75821 0
M  V30 4904 H 468.384 4.33524 2.33062 0
M  V30 4905 N 470.036 -0.519951 1.48776 0
M  V30 4906 C 470.999 -1.60574 1.6355 0
M  V30 4907 C 471.999 -1.52557 0.508234 0
M  V30 4908 O 473.189 -1.56047 0.774262 0
M  V30 4909 C 470.321 -3.00211 1.61512 0
M  V30 4910 H 471.514 -1.4881 2.60376 0
M  V30 4911 H 469.067 -0.742772 1.37523 0
M  V30 4912 H 469.802 -3.17471 0.662009 0
M  V30 4913 H 469.587 -3.07439 2.43359 0
M  V30 4914 H 471.077 -3.79134 1.75064 0
M  V30 4915 N 471.514 -1.37532 -0.769588 0
M  V30 4916 C 472.761 -1.3286 -1.52822 0
M  V30 4917 C 473.089 0.0862597 -1.94309 0
M  V30 4918 O 472.344 1.05995 -1.6451 0
M  V30 4919 C 472.643 -2.21558 -2.8044 0
M  V30 4920 C 472.309 -3.69796 -2.57996 0
M  V30 4921 C 470.971 -4.10194 -2.51583 0
M  V30 4922 C 473.323 -4.63699 -2.37976 0
M  V30 4923 C 470.651 -5.42608 -2.23144 0
M  V30 4924 C 473.003 -5.96353 -2.1106 0
M  V30 4925 C 471.667 -6.35853 -2.03093 0
M  V30 4926 H 470.937 -0.486168 -0.559215 0
M  V30 4927 H 473.584 -1.69757 -0.886277 0
M  V30 4928 H 471.889 -1.77663 -3.49204 0
M  V30 4929 H 473.586 -2.15256 -3.38328 0
M  V30 4930 H 470.176 -3.37759 -2.63851 0
M  V30 4931 H 474.36 -4.33346 -2.41919 0
M  V30 4932 H 469.616 -5.72173 -2.15472 0
M  V30 4933 H 473.79 -6.68667 -1.94568 0
M  V30 4934 H 471.417 -7.38382 -1.8082 0
M  V30 4935 N 472.992 0.995999 -1.22138 0
M  V30 4936 C 474.408 1.25917 -0.980667 0
M  V30 4937 C 474.608 1.98819 0.327604 0
M  V30 4938 O 473.664 2.29587 1.05101 0
M  V30 4939 C 474.977 2.07399 -2.17729 0
M  V30 4940 C 476.525 2.20594 -2.22052 0
M  V30 4941 C 477 3.05462 -3.41258 0
M  V30 4942 N 478.491 3.13049 -3.41401 0
M  V30 4943 C 479.226 3.78997 -4.30289 0
M  V30 4944 N 478.722 4.46899 -5.2939 0
M  V30 4945 N 480.515 3.75728 -4.18073 0
M  V30 4946 H 472.666 0.507158 -2.06256 0
M  V30 4947 H 474.929 0.28658 -0.903646 0
M  V30 4948 H 474.635 1.61191 -3.12586 0
M  V30 4949 H 474.509 3.08154 -2.17534 0
M  V30 4950 H 476.896 2.66017 -1.27745 0
M  V30 4951 H 476.977 1.1928 -2.26287 0
M  V30 4952 H 476.621 2.60739 -4.35864 0
M  V30 4953 H 476.551 4.06911 -3.34262 0
M  V30 4954 H 479.042 2.64721 -2.69688 0
M  V30 4955 H 479.355 4.94952 -5.935 0
M  V30 4956 H 477.7 4.45657 -5.33306 0
M  V30 4957 H 480.891 3.2184 -3.39907 0
M  V30 4958 H 481.064 4.26845 -4.87553 0
M  V30 4959 N 474.47 1.03057 1.19235 0
M  V30 4960 C 475.717 0.728019 1.88961 0
M  V30 4961 C 476.045 -0.743515 1.79728 0
M  V30 4962 O 475.3 -1.55729 1.1852 0
M  V30 4963 C 475.599 1.1268 3.39172 0
M  V30 4964 C 475.265 2.5969 3.68608 0
M  V30 4965 C 473.927 2.99854 3.76352 0
M  V30 4966 C 476.279 3.54793 3.81801 0
M  V30 4967 C 473.607 4.34031 3.94758 0
M  V30 4968 C 475.959 4.88675 4.0172 0
M  V30 4969 C 474.623 5.28526 4.07697 0
M  V30 4970 H 473.893 0.266401 0.691456 0
M  V30 4971 H 476.54 1.29373 1.41191 0
M  V30 4972 H 474.845 0.479722 3.88852 0
M  V30 4973 H 476.542 0.870203 3.91444 0
M  V30 4974 H 473.132 2.27575 3.63191 0
M  V30 4975 H 477.316 3.24914 3.7516 0
M  V30 4976 H 472.572 4.6444 3.97625 0
M  V30 4977 H 476.746 5.6228 4.1087 0
M  V30 4978 H 474.373 6.32506 4.21712 0
M  V30 4979 N 475.948 -1.35272 0.808662 0
M  V30 4980 C 476.911 -2.28082 0.226093 0
M  V30 4981 C 477.911 -1.49673 -0.587762 0
M  V30 4982 O 479.101 -1.69404 -0.405943 0
M  V30 4983 C 476.233 -3.33955 -0.684596 0
M  V30 4984 H 477.426 -2.81116 1.04469 0
M  V30 4985 H 474.979 -1.45162 0.579466 0
M  V30 4986 H 475.714 -2.86111 -1.5268 0
M  V30 4987 H 475.499 -3.91965 -0.102699 0
M  V30 4988 H 476.989 -4.03219 -1.08646 0
M  V30 4989 N 477.426 -0.562348 -1.47226 0
M  V30 4990 C 478.656 -0.0451619 -2.06551 0
M  V30 4991 C 479.064 1.25626 -1.41473 0
M  V30 4992 O 478.407 1.76563 -0.507061 0
M  V30 4993 C 478.469 0.216068 -3.5885 0
M  V30 4994 C 478.133 -0.996691 -4.45999 0
M  V30 4995 C 479.13 -1.90358 -4.83797 0
M  V30 4996 C 476.815 -1.21281 -4.87438 0
M  V30 4997 C 478.809 -3.01023 -5.6184 0
M  V30 4998 C 476.496 -2.32255 -5.65244 0
M  V30 4999 C 477.494 -3.21956 -6.02356 0
M  V30 5000 O 477.182 -4.31005 -6.78594 0
M  V30 5001 H 476.914 -0.0451646 -0.67449 0
M  V30 5002 H 479.468 -0.776842 -1.90143 0
M  V30 5003 H 477.698 1.00212 -3.7349 0
M  V30 5004 H 479.387 0.679264 -4.00176 0
M  V30 5005 H 480.153 -1.74868 -4.52378 0
M  V30 5006 H 476.032 -0.523767 -4.58015 0
M  V30 5007 H 479.576 -3.71064 -5.90726 0
M  V30 5008 H 475.473 -2.47715 -5.96077 0
M  V30 5009 H 476.241 -4.29118 -6.96994 0
M  V30 5010 N 478.904 1.54736 -0.299062 0
M  V30 5011 C 479.867 2.22127 0.565012 0
M  V30 5012 C 480.867 1.20669 1.06281 0
M  V30 5013 O 482.057 1.45417 0.959145 0
M  V30 5014 C 479.189 2.90611 1.78208 0
M  V30 5015 H 480.382 2.99891 -0.0237448 0
M  V30 5016 H 477.935 1.5622 -0.0498788 0
M  V30 5017 H 478.67 2.16921 2.41072 0
M  V30 5018 H 478.455 3.64984 1.43281 0
M  V30 5019 H 479.945 3.42026 2.396 0
M  V30 5020 N 480.382 0.0267497 1.57577 0
M  V30 5021 C 481.329 -0.955894 2.10075 0
M  V30 5022 C 482.299 -1.32453 1.00226 0
M  V30 5023 O 483.484 -1.41826 1.27632 0
M  V30 5024 C 480.624 -2.2338 2.6305 0
M  V30 5025 C 479.737 -1.92183 3.86898 0
M  V30 5026 C 478.872 -3.14251 4.28275 0
M  V30 5027 C 477.911 -2.78862 5.44888 0
M  V30 5028 N 477.048 -3.93548 5.81433 0
M  V30 5029 H 481.888 -0.501303 2.93753 0
M  V30 5030 H 479.425 -0.235847 1.45197 0
M  V30 5031 H 481.383 -2.98124 2.91853 0
M  V30 5032 H 480.013 -2.6646 1.82205 0
M  V30 5033 H 479.065 -1.07692 3.64838 0
M  V30 5034 H 480.377 -1.62117 4.7172 0
M  V30 5035 H 479.531 -3.97317 4.58502 0
M  V30 5036 H 478.27 -3.47476 3.42215 0
M  V30 5037 H 477.275 -1.94208 5.14357 0
M  V30 5038 H 478.5 -2.46855 6.32645 0
M  V30 5039 H 476.446 -4.2662 4.98328 0
M  V30 5040 H 476.363 -3.67098 6.6089 0
M  V30 5041 H 477.631 -4.77325 6.16264 0
M  V30 5042 N 481.861 -1.55662 -0.24637 0
M  V30 5043 C 483.277 -1.48098 -0.594907 0
M  V30 5044 C 483.477 -0.717044 -1.8831 0
M  V30 5045 O 482.533 -0.246618 -2.51293 0
M  V30 5046 C 483.846 -2.92507 -0.697146 0
M  V30 5047 C 485.394 -3.02881 -0.789436 0
M  V30 5048 C 485.869 -4.48598 -0.923232 0
M  V30 5049 N 487.36 -4.52538 -0.988088 0
M  V30 5050 C 488.095 -5.62536 -1.11089 0
M  V30 5051 N 487.591 -6.82342 -1.19919 0
M  V30 5052 N 489.384 -5.50334 -1.14408 0
M  V30 5053 H 481.535 -2.0377 0.599278 0
M  V30 5054 H 483.798 -0.925145 0.20691 0
M  V30 5055 H 483.504 -3.51242 0.179396 0
M  V30 5056 H 483.378 -3.43024 -1.5689 0
M  V30 5057 H 485.765 -2.44226 -1.65643 0
M  V30 5058 H 485.846 -2.55574 0.107482 0
M  V30 5059 H 485.49 -5.07864 -0.0607927 0
M  V30 5060 H 485.42 -4.93587 -1.8352 0
M  V30 5061 H 487.911 -3.66248 -0.931167 0
M  V30 5062 H 488.224 -7.61924 -1.29197 0
M  V30 5063 H 486.569 -6.85102 -1.16876 0
M  V30 5064 H 489.76 -4.5567 -1.07158 0
M  V30 5065 H 489.933 -6.36096 -1.23634 0
M  V30 5066 N 483.339 0.512053 -1.4905 0
M  V30 5067 C 484.567 1.29116 -1.61669 0
M  V30 5068 C 484.982 1.86655 -0.283787 0
M  V30 5069 O 484.339 1.67293 0.729331 0
M  V30 5070 C 484.39 2.4293 -2.67707 0
M  V30 5071 O 484.111 1.87758 -3.95826 0
M  V30 5072 C 485.612 3.34476 -2.90931 0
M  V30 5073 H 482.832 0.392009 -0.544583 0
M  V30 5074 H 485.376 0.615881 -1.95006 0
M  V30 5075 H 483.531 3.06308 -2.37179 0
M  V30 5076 H 483.945 2.62393 -4.54148 0
M  V30 5077 H 485.419 4.10642 -3.68886 0
M  V30 5078 H 485.896 3.90801 -2.00427 0
M  V30 5079 H 486.502 2.76874 -3.22832 0
M  V30 5080 N 484.817 1.37938 0.762283 0
M  V30 5081 C 485.747 1.37176 1.88958 0
M  V30 5082 C 486.728 0.238945 1.68413 0
M  V30 5083 O 487.913 0.440726 1.89133 0
M  V30 5084 C 485.043 1.18742 3.2637 0
M  V30 5085 C 483.997 2.29136 3.61498 0
M  V30 5086 C 483.323 1.95816 4.97554 0
M  V30 5087 C 484.623 3.71363 3.6727 0
M  V30 5088 H 486.317 2.31509 1.89853 0
M  V30 5089 H 483.863 1.11438 0.912005 0
M  V30 5090 H 485.816 1.16837 4.04879 0
M  V30 5091 H 484.54 0.208683 3.25933 0
M  V30 5092 H 483.199 2.30213 2.85303 0
M  V30 5093 H 482.847 0.964475 4.93667 0
M  V30 5094 H 482.547 2.69745 5.22026 0
M  V30 5095 H 484.071 1.95513 5.78452 0
M  V30 5096 H 485.485 3.72364 4.35911 0
M  V30 5097 H 483.882 4.44425 4.03245 0
M  V30 5098 H 484.952 4.04305 2.67704 0
M  V30 5099 N 486.295 -0.989507 1.22664 0
M  V30 5100 C 487.225 -2.09847 1.02404 0
M  V30 5101 C 488.206 -1.70007 -0.0561303 0
M  V30 5102 O 489.391 -1.93906 0.106748 0
M  V30 5103 C 486.521 -3.41996 0.604663 0
M  V30 5104 C 485.475 -3.95699 1.63115 0
M  V30 5105 C 484.801 -5.23936 1.0675 0
M  V30 5106 C 486.101 -4.25999 3.02196 0
M  V30 5107 H 487.795 -2.27054 1.95158 0
M  V30 5108 H 485.341 -1.09111 0.939727 0
M  V30 5109 H 487.294 -4.1899 0.45002 0
M  V30 5110 H 486.018 -3.24626 -0.35855 0
M  V30 5111 H 484.677 -3.2084 1.77362 0
M  V30 5112 H 484.325 -5.02909 0.0955422 0
M  V30 5113 H 484.025 -5.60833 1.75328 0
M  V30 5114 H 485.549 -6.0356 0.924516 0
M  V30 5115 H 486.963 -4.93777 2.91303 0
M  V30 5116 H 485.36 -4.74076 3.67929 0
M  V30 5117 H 486.43 -3.33636 3.51873 0
M  V30 5118 N 487.773 -1.03688 -1.18687 0
M  V30 5119 C 489.021 -0.736572 -1.88199 0
M  V30 5120 C 489.342 0.737665 -1.80509 0
M  V30 5121 O 488.612 1.53204 -1.22088 0
M  V30 5122 H 487.192 -0.269466 -0.696704 0
M  V30 5123 H 489.854 -1.31282 -1.44052 0
M  V30 5124 H 488.95 -1.03802 -2.94332 0
M  V30 5125 N 489.251 1.34841 -0.815825 0
M  V30 5126 C 490.528 1.92908 -0.323416 0
M  V30 5127 C 490.908 1.74479 1.18828 0
M  V30 5128 O 490.256 1.11928 1.99209 0
M  V30 5129 C 490.466 3.40957 -0.744952 0
M  V30 5130 C 491.814 4.18107 -0.739716 0
M  V30 5131 O 492.838 3.49511 -0.68708 0
M  V30 5132 O 491.697 5.40517 -0.806456 0
M  V30 5133 H 488.791 0.822436 -0.0867646 0
M  V30 5134 H 491.337 1.4386 -0.90014 0
M  V30 5135 H 490.109 3.4814 -1.78646 0
M  V30 5136 H 489.732 3.97341 -0.143535 0
M  V30 5137 N 490.729 0.570148 1.46925 0
M  V30 5138 C 492.14 0.1402 1.86173 0
M  V30 5139 C 492.491 -1.29347 1.47526 0
M  V30 5140 O 491.616 -1.97508 0.884292 0
M  V30 5141 C 492.211 0.247661 3.37894 0
M  V30 5142 C 490.77 -0.127332 3.76185 0
M  V30 5143 C 489.917 0.589349 2.70965 0
M  V30 5144 H 492.868 0.779117 1.38259 0
M  V30 5145 H 492.889 -0.530341 3.76786 0
M  V30 5146 H 492.401 1.29121 3.65991 0
M  V30 5147 H 490.502 -1.17149 3.53704 0
M  V30 5148 H 490.615 0.240238 4.78497 0
M  V30 5149 H 488.979 0.0309824 2.54681 0
M  V30 5150 H 489.762 1.6343 3.01903 0
M  V30 5151 N 492.207 -1.54576 0.307264 0
M  V30 5152 C 493.154 -2.23751 -0.56604 0
M  V30 5153 C 494.124 -1.22235 -1.12462 0
M  V30 5154 O 495.309 -1.50873 -1.16799 0
M  V30 5155 C 492.449 -2.98661 -1.72903 0
M  V30 5156 C 491.562 -4.14963 -1.20124 0
M  V30 5157 C 490.697 -4.77441 -2.3286 0
M  V30 5158 C 489.736 -5.85875 -1.77247 0
M  V30 5159 N 488.873 -6.42282 -2.8358 0
M  V30 5160 H 493.713 -2.97984 0.0304578 0
M  V30 5161 H 491.25 -1.47076 0.0268015 0
M  V30 5162 H 493.208 -3.40329 -2.41313 0
M  V30 5163 H 491.838 -2.26793 -2.29706 0
M  V30 5164 H 490.89 -3.78193 -0.409198 0
M  V30 5165 H 492.202 -4.93066 -0.754171 0
M  V30 5166 H 491.356 -5.21993 -3.09205 0
M  V30 5167 H 490.095 -3.98684 -2.80896 0
M  V30 5168 H 489.1 -5.40741 -0.993926 0
M  V30 5169 H 490.325 -6.6652 -1.30107 0
M  V30 5170 H 488.271 -5.66406 -3.30939 0
M  V30 5171 H 488.188 -7.1575 -2.43388 0
M  V30 5172 H 489.456 -6.91492 -3.59804 0
M  V30 5173 N 493.685 -0.035106 -1.57561 0
M  V30 5174 C 494.932 0.642229 -1.92046 0
M  V30 5175 C 495.26 1.7179 -0.91206 0
M  V30 5176 O 494.515 1.95544 0.0781153 0
M  V30 5177 C 494.814 1.29149 -3.3325 0
M  V30 5178 C 494.48 0.345604 -4.49574 0
M  V30 5179 C 493.142 0.0852775 -4.81124 0
M  V30 5180 C 495.494 -0.303569 -5.20315 0
M  V30 5181 C 492.822 -0.831927 -5.80772 0
M  V30 5182 C 495.174 -1.20886 -6.20942 0
M  V30 5183 C 493.838 -1.47802 -6.50931 0
M  V30 5184 H 493.108 0.235008 -0.702746 0
M  V30 5185 H 495.755 -0.0981529 -1.91248 0
M  V30 5186 H 494.06 2.10676 -3.30337 0
M  V30 5187 H 495.757 1.82223 -3.57205 0
M  V30 5188 H 492.347 0.558683 -4.24943 0
M  V30 5189 H 496.531 -0.115515 -4.96166 0
M  V30 5190 H 491.787 -1.0481 -6.02349 0
M  V30 5191 H 495.961 -1.71804 -6.74875 0
M  V30 5192 H 493.588 -2.19039 -7.2796 0
M  V30 5193 N 495.163 1.55791 0.238111 0
M  V30 5194 C 496.409 1.78297 0.966337 0
M  V30 5195 C 496.742 0.601903 1.84637 0
M  V30 5196 O 496.017 -0.399499 1.90353 0
M  V30 5197 C 496.3 3.10758 1.81939 0
M  V30 5198 C 496.153 4.39283 0.966958 0
M  V30 5199 C 497.472 3.39519 2.80027 0
M  V30 5200 H 494.591 0.648654 0.349882 0
M  V30 5201 H 497.233 1.88525 0.236253 0
M  V30 5202 H 495.383 3.02168 2.44185 0
M  V30 5203 H 497.055 4.59873 0.362514 0
M  V30 5204 H 495.298 4.32948 0.271669 0
M  V30 5205 H 495.969 5.28368 1.59784 0
M  V30 5206 H 498.445 3.48128 2.27917 0
M  V30 5207 H 497.321 4.33402 3.36829 0
M  V30 5208 H 497.582 2.60864 3.56934 0
M  V30 5209 N 496.642 -0.504142 1.49319 0
M  V30 5210 C 497.919 -1.26548 1.49147 0
M  V30 5211 C 498.299 -2.09977 0.21744 0
M  V30 5212 O 497.647 -2.14028 -0.800269 0
M  V30 5213 C 497.857 -2.12489 2.76857 0
M  V30 5214 C 499.205 -2.7178 3.26222 0
M  V30 5215 O 500.229 -2.22758 2.77952 0
M  V30 5216 O 499.088 -3.61015 4.10281 0
M  V30 5217 H 496.182 -0.572495 0.596806 0
M  V30 5218 H 498.728 -0.51867 1.61579 0
M  V30 5219 H 497.5 -1.50796 3.61077 0
M  V30 5220 H 497.123 -2.94368 2.6727 0
M  V30 5221 N 498.12 -1.38341 -0.754957 0
M  V30 5222 C 499.366 -1.34672 -1.51628 0
M  V30 5223 C 499.699 0.0636036 -1.94096 0
M  V30 5224 O 498.974 1.0245 -1.6533 0
M  V30 5225 C 499.257 -2.30116 -2.76981 0
M  V30 5226 C 499.11 -3.80003 -2.4066 0
M  V30 5227 C 500.429 -2.23715 -3.78998 0
M  V30 5228 H 497.548 -0.490517 -0.550056 0
M  V30 5229 H 500.19 -1.69178 -0.864807 0
M  V30 5230 H 498.34 -2.00821 -3.3257 0
M  V30 5231 H 500.012 -4.19966 -1.90856 0
M  V30 5232 H 498.255 -3.97751 -1.73137 0
M  V30 5233 H 498.926 -4.42244 -3.30339 0
M  V30 5234 H 501.402 -2.49574 -3.32945 0
M  V30 5235 H 500.278 -2.9261 -4.64403 0
M  V30 5236 H 500.539 -1.23554 -4.24484 0
M  V30 5237 N 499.598 0.982988 -1.23187 0
M  V30 5238 C 500.826 1.75921 -1.08901 0
M  V30 5239 C 501.241 1.85341 0.359719 0
M  V30 5240 O 500.598 1.33072 1.24892 0
M  V30 5241 C 500.649 3.18742 -1.70545 0
M  V30 5242 O 500.37 3.09814 -3.09753 0
M  V30 5243 C 501.871 4.1277 -1.61667 0
M  V30 5244 H 499.091 0.552166 -0.381252 0
M  V30 5245 H 501.635 1.23516 -1.62985 0
M  V30 5246 H 499.79 3.68182 -1.20501 0
M  V30 5247 H 500.204 3.99703 -3.39614 0
M  V30 5248 H 501.678 5.10697 -2.09506 0
M  V30 5249 H 502.155 4.3542 -0.575009 0
M  V30 5250 H 502.761 3.69232 -2.11064 0
M  V30 5251 N 501.076 1.04316 1.18135 0
M  V30 5252 C 501.986 0.646876 2.25505 0
M  V30 5253 C 503.002 -0.328008 1.7088 0
M  V30 5254 O 504.178 -0.182309 2.00573 0
M  V30 5255 C 501.243 0.0185664 3.46695 0
M  V30 5256 C 500.304 1.04277 4.16443 0
M  V30 5257 C 499.537 0.444352 5.31847 0
M  V30 5258 O 499.76 -0.748735 5.65465 0
M  V30 5259 O 498.694 1.17428 5.90334 0
M  V30 5260 H 502.52 1.54147 2.61672 0
M  V30 5261 H 500.105 0.814188 1.25265 0
M  V30 5262 H 501.987 -0.331068 4.20097 0
M  V30 5263 H 500.662 -0.849814 3.12346 0
M  V30 5264 H 499.569 1.44425 3.45098 0
M  V30 5265 H 500.902 1.882 4.54798 0
M  V30 5266 N 502.554 -1.34406 0.822964 0
M  V30 5267 C 503.8 -1.98578 0.411666 0
M  V30 5268 C 504.133 -1.65093 -1.02264 0
M  V30 5269 O 503.408 -0.92258 -1.71227 0
M  V30 5270 C 503.691 -3.54823 0.614235 0
M  V30 5271 C 503.544 -3.9805 2.09466 0
M  V30 5272 C 504.863 -4.40071 0.050221 0
M  V30 5273 H 501.982 -0.721355 0.151047 0
M  V30 5274 H 504.624 -1.59301 1.03554 0
M  V30 5275 H 502.774 -3.88411 0.0831774 0
M  V30 5276 H 504.446 -3.74795 2.68936 0
M  V30 5277 H 502.689 -3.4836 2.5851 0
M  V30 5278 H 503.36 -5.06819 2.18721 0
M  V30 5279 H 505.836 -4.13037 0.503953 0
M  V30 5280 H 504.712 -5.48452 0.221759 0
M  V30 5281 H 504.973 -4.29576 -1.04482 0
M  V30 5282 N 504.032 -0.577932 -1.46621 0
M  V30 5283 C 505.278 -0.0617793 -2.02706 0
M  V30 5284 C 505.611 1.29294 -1.44903 0
M  V30 5285 O 504.886 1.8461 -0.61232 0
M  V30 5286 C 505.169 0.00911824 -3.60099 0
M  V30 5287 C 505.022 -1.37416 -4.28295 0
M  V30 5288 C 506.341 0.712159 -4.343 0
M  V30 5289 H 503.46 -0.0239246 -0.736612 0
M  V30 5290 H 506.102 -0.744211 -1.74818 0
M  V30 5291 H 504.252 0.590292 -3.83989 0
M  V30 5292 H 505.924 -2.00013 -4.15683 0
M  V30 5293 H 504.167 -1.94319 -3.87843 0
M  V30 5294 H 504.838 -1.27707 -5.37024 0
M  V30 5295 H 507.314 0.218486 -4.15526 0
M  V30 5296 H 506.19 0.730782 -5.44014 0
M  V30 5297 H 506.451 1.77251 -4.05012 0
M  V30 5298 N 505.51 1.54411 -0.315457 0
M  V30 5299 C 506.926 1.59556 0.037464 0
M  V30 5300 C 507.126 1.33217 1.5118 0
M  V30 5301 O 506.182 1.11264 2.26664 0
M  V30 5302 C 507.495 2.98372 -0.373477 0
M  V30 5303 C 509.043 3.11324 -0.323452 0
M  V30 5304 C 509.518 4.52472 -0.709433 0
M  V30 5305 N 511.009 4.58437 -0.662524 0
M  V30 5306 C 511.744 5.65751 -0.933474 0
M  V30 5307 N 511.24 6.81039 -1.27114 0
M  V30 5308 N 513.033 5.55489 -0.859573 0
M  V30 5309 H 505.184 1.6979 -1.27614 0
M  V30 5310 H 507.447 0.793732 -0.518356 0
M  V30 5311 H 507.153 3.22618 -1.40037 0
M  V30 5312 H 507.027 3.76264 0.265615 0
M  V30 5313 H 509.414 2.86818 0.694223 0
M  V30 5314 H 509.495 2.35555 -0.997367 0
M  V30 5315 H 509.139 4.7771 -1.72498 0
M  V30 5316 H 509.069 5.26598 -0.0132923 0
M  V30 5317 H 511.56 3.75636 -0.413065 0
M  V30 5318 H 511.873 7.58816 -1.46348 0
M  V30 5319 H 510.218 6.82555 -1.30932 0
M  V30 5320 H 513.409 4.64299 -0.595324 0
M  V30 5321 H 513.582 6.39036 -1.0741 0
M  V30 5322 N 506.988 0.0434614 1.5754 0
M  V30 5323 C 507.936 -0.951465 2.1225 0
M  V30 5324 C 508.93 -1.3274 1.05245 0
M  V30 5325 O 510.136 -1.30795 1.23663 0
M  V30 5326 H 506.511 -0.324667 0.678303 0
M  V30 5327 H 508.482 -0.464855 2.94757 0
M  V30 5328 C 507.231 -2.21972 2.67626 0
M  V30 5329 H 506.554 -1.93923 3.4962 0
M  V30 5330 H 507.994 -2.89765 3.09536 0
M  V30 5331 C 506.453 -2.95919 1.61038 0
M  V30 5332 O 506.983 -3.8857 1.01862 0
M  V30 5333 N 505.189 -2.58511 1.32741 0
M  V30 5334 H 504.736 -1.83244 1.81051 0
M  V30 5335 H 504.694 -3.08296 0.616531 0
M  V30 5336 N 508.466 -1.55915 -0.229846 0
M  V30 5337 C 509.399 -1.86734 -1.3117 0
M  V30 5338 C 510.377 -0.723947 -1.45595 0
M  V30 5339 O 511.561 -0.971462 -1.61539 0
M  V30 5340 C 508.688 -2.06707 -2.68309 0
M  V30 5341 C 507.734 -3.2938 -2.70944 0
M  V30 5342 S 508.567 -4.85547 -2.25842 0
M  V30 5343 C 509.723 -5.08546 -3.64873 0
M  V30 5344 H 509.956 -2.78204 -1.04832 0
M  V30 5345 H 507.489 -1.48243 -0.431681 0
M  V30 5346 H 509.447 -2.18898 -3.47267 0
M  V30 5347 H 508.108 -1.16049 -2.91876 0
M  V30 5348 H 507.301 -3.40374 -3.71701 0
M  V30 5349 H 506.903 -3.16004 -2.00044 0
M  V30 5350 H 509.195 -4.96935 -4.60502 0
M  V30 5351 H 510.138 -6.10465 -3.58801 0
M  V30 5352 H 510.546 -4.36314 -3.58176 0
M  V30 5353 N 509.944 0.496216 -1.49584 0
M  V30 5354 C 511.172 1.27394 -1.63029 0
M  V30 5355 C 511.587 1.86344 -0.303569 0
M  V30 5356 O 510.944 1.68057 0.711547 0
M  V30 5357 C 510.995 2.40077 -2.70269 0
M  V30 5358 O 510.716 1.83549 -3.97796 0
M  V30 5359 C 512.217 3.31372 -2.94462 0
M  V30 5360 H 509.437 0.386211 -0.54871 0
M  V30 5361 H 511.981 0.595163 -1.95648 0
M  V30 5362 H 510.136 3.03775 -2.40415 0
M  V30 5363 H 510.55 2.57561 -4.56905 0
M  V30 5364 H 512.024 4.06707 -3.73221 0
M  V30 5365 H 512.501 3.88654 -2.0456 0
M  V30 5366 H 513.107 2.73435 -3.25751 0
M  V30 5367 N 511.423 1.38739 0.74761 0
M  V30 5368 C 512.648 1.38702 1.54197 0
M  V30 5369 C 513.073 -0.019664 1.8809 0
M  V30 5370 O 512.431 -1.00333 1.51006 0
M  V30 5371 C 512.479 2.25492 2.814 0
M  V30 5372 O 511.583 1.67613 3.76802 0
M  V30 5373 H 510.924 0.472863 0.466151 0
M  V30 5374 H 513.454 1.82577 0.923413 0
M  V30 5375 H 513.464 2.39561 3.30264 0
M  V30 5376 H 512.139 3.27727 2.56062 0
M  V30 5377 H 510.716 1.62718 3.35526 0
M  V30 5378 N 512.901 -0.976442 1.23707 0
M  V30 5379 C 513.811 -2.10359 1.03856 0
M  V30 5380 C 514.827 -1.73991 -0.0180919 0
M  V30 5381 O 516.003 -2.0061 0.178211 0
M  V30 5382 C 513.068 -3.40809 0.636387 0
M  V30 5383 C 512.129 -3.91179 1.76854 0
M  V30 5384 C 511.362 -5.15404 1.38546 0
M  V30 5385 O 511.585 -5.69754 0.27142 0
M  V30 5386 O 510.519 -5.5994 2.20797 0
M  V30 5387 H 514.345 -2.29997 1.98331 0
M  V30 5388 H 511.93 -1.08742 1.02448 0
M  V30 5389 H 513.812 -4.19269 0.423223 0
M  V30 5390 H 512.487 -3.22493 -0.279322 0
M  V30 5391 H 511.394 -3.13819 2.03638 0
M  V30 5392 H 512.727 -4.13958 2.6627 0
M  V30 5393 N 514.379 -1.04941 -1.1758 0
M  V30 5394 C 515.626 -0.757989 -1.87779 0
M  V30 5395 C 515.954 0.714827 -1.80888 0
M  V30 5396 O 515.209 1.53824 -1.20982 0
M  V30 5397 C 515.508 -1.18062 -3.37337 0
M  V30 5398 C 515.174 -2.65521 -3.6443 0
M  V30 5399 C 513.836 -3.05804 -3.71534 0
M  V30 5400 C 516.188 -3.60822 -3.76108 0
M  V30 5401 C 513.516 -4.40256 -3.87803 0
M  V30 5402 C 515.868 -4.95005 -3.93895 0
M  V30 5403 C 514.532 -5.34945 -3.99237 0
M  V30 5404 H 513.802 -0.277368 -0.68713 0
M  V30 5405 H 516.449 -1.31603 -1.39115 0
M  V30 5406 H 514.754 -0.541525 -3.8804 0
M  V30 5407 H 516.451 -0.932368 -3.9001 0
M  V30 5408 H 513.041 -2.33324 -3.59524 0
M  V30 5409 H 517.225 -3.30841 -3.69943 0
M  V30 5410 H 512.481 -4.70707 -3.90186 0
M  V30 5411 H 516.655 -5.68746 -4.01872 0
M  V30 5412 H 514.282 -6.39135 -4.11596 0
M  V30 5413 N 515.857 1.33968 -0.830081 0
M  V30 5414 C 517.104 1.98063 -0.421566 0
M  V30 5415 C 517.432 1.65787 1.0171 0
M  V30 5416 O 516.687 0.925348 1.72441 0
M  V30 5417 C 516.986 3.52679 -0.57898 0
M  V30 5418 C 516.652 4.04884 -1.98443 0
M  V30 5419 C 515.314 4.18852 -2.36888 0
M  V30 5420 C 517.666 4.32879 -2.90285 0
M  V30 5421 C 514.994 4.58145 -3.66497 0
M  V30 5422 C 517.346 4.7362 -4.19364 0
M  V30 5423 C 516.01 4.85794 -4.57778 0
M  V30 5424 H 515.28 0.724765 -0.154262 0
M  V30 5425 H 517.927 1.59792 -1.05541 0
M  V30 5426 H 516.232 3.91556 0.138219 0
M  V30 5427 H 517.929 4.00261 -0.243317 0
M  V30 5428 H 514.519 3.9448 -1.67581 0
M  V30 5429 H 518.703 4.21619 -2.61823 0
M  V30 5430 H 513.959 4.65762 -3.96075 0
M  V30 5431 H 518.133 4.9424 -4.90612 0
M  V30 5432 H 515.76 5.15998 -5.58256 0
M  V30 5433 N 517.335 0.585699 1.46312 0
M  V30 5434 C 518.298 -0.135673 2.28798 0
M  V30 5435 C 519.298 -0.815988 1.38558 0
M  V30 5436 O 520.488 -0.667487 1.60904 0
M  V30 5437 C 517.62 -1.20163 3.1902 0
M  V30 5438 H 518.813 0.589257 2.94054 0
M  V30 5439 H 516.366 0.343794 1.52472 0
M  V30 5440 H 517.101 -1.95804 2.58517 0
M  V30 5441 H 516.886 -0.718282 3.85465 0
M  V30 5442 H 518.376 -1.70749 3.81096 0
M  V30 5443 N 518.813 -1.54241 0.323641 0
M  V30 5444 C 519.776 -2.22997 -0.529602 0
M  V30 5445 C 520.776 -1.22345 -1.04347 0
M  V30 5446 O 521.966 -1.46924 -0.935889 0
M  V30 5447 C 519.098 -2.93409 -1.73562 0
M  V30 5448 H 520.291 -2.99815 0.0714518 0
M  V30 5449 H 517.844 -1.56121 0.0747258 0
M  V30 5450 H 518.579 -2.20729 -2.37591 0
M  V30 5451 H 518.364 -3.67217 -1.37456 0
M  V30 5452 H 519.854 -3.45794 -2.34128 0
M  V30 5453 N 520.291 -0.0518155 -1.57515 0
M  V30 5454 C 521.223 0.951542 -2.08515 0
M  V30 5455 C 522.236 1.27436 -1.01311 0
M  V30 5456 O 523.425 1.23504 -1.28876 0
M  V30 5457 C 520.525 2.27291 -2.5138 0
M  V30 5458 C 519.698 2.13191 -3.81927 0
M  V30 5459 C 518.757 3.28458 -4.11098 0
M  V30 5460 O 517.783 3.04334 -4.81009 0
M  V30 5461 N 518.985 4.52954 -3.63061 0
M  V30 5462 H 521.75 0.516242 -2.9522 0
M  V30 5463 H 519.311 0.13441 -1.61341 0
M  V30 5464 H 521.303 3.03272 -2.67971 0
M  V30 5465 H 519.873 2.62386 -1.69919 0
M  V30 5466 H 519.093 1.21798 -3.74912 0
M  V30 5467 H 520.381 2.00999 -4.67415 0
M  V30 5468 H 519.779 4.75444 -3.06545 0
M  V30 5469 H 518.336 5.26026 -3.84889 0
M  V30 5470 N 521.769 1.56035 0.221574 0
M  V30 5471 C 522.699 1.95434 1.2778 0
M  V30 5472 C 523.68 0.822564 1.48889 0
M  V30 5473 O 524.865 1.08486 1.61072 0
M  V30 5474 C 521.995 2.27102 2.62759 0
M  V30 5475 C 520.949 3.4277 2.56306 0
M  V30 5476 C 520.275 3.60043 3.95314 0
M  V30 5477 C 521.575 4.77742 2.11093 0
M  V30 5478 H 523.269 2.83912 0.950504 0
M  V30 5479 H 520.815 1.36596 0.455791 0
M  V30 5480 H 522.768 2.53256 3.36807 0
M  V30 5481 H 521.492 1.35478 2.97176 0
M  V30 5482 H 520.151 3.16664 1.84715 0
M  V30 5483 H 519.799 2.65794 4.27039 0
M  V30 5484 H 519.499 4.37841 3.91879 0
M  V30 5485 H 521.023 3.88545 4.71025 0
M  V30 5486 H 522.437 5.03102 2.74885 0
M  V30 5487 H 520.834 5.58823 2.18716 0
M  V30 5488 H 521.904 4.731 1.06321 0
M  V30 5489 N 523.247 -0.488276 1.49845 0
M  V30 5490 C 524.663 -0.820566 1.3689 0
M  V30 5491 C 524.863 -1.97248 0.411752 0
M  V30 5492 O 523.919 -2.52042 -0.151931 0
M  V30 5493 C 525.232 -1.1488 2.77891 0
M  V30 5494 C 526.78 -1.25626 2.86683 0
M  V30 5495 C 527.255 -1.61772 4.28479 0
M  V30 5496 N 528.746 -1.68797 4.31349 0
M  V30 5497 C 529.481 -1.98235 5.38043 0
M  V30 5498 N 528.977 -2.2581 6.54967 0
M  V30 5499 N 530.77 -1.99593 5.2547 0
M  V30 5500 H 522.921 0.271123 2.10662 0
M  V30 5501 H 525.184 0.058735 0.946179 0
M  V30 5502 H 524.89 -0.375614 3.49688 0
M  V30 5503 H 524.764 -2.08919 3.14058 0
M  V30 5504 H 527.151 -2.02014 2.15114 0
M  V30 5505 H 527.232 -0.296072 2.54081 0
M  V30 5506 H 526.876 -0.859295 5.00578 0
M  V30 5507 H 526.806 -2.58912 4.58554 0
M  V30 5508 H 529.297 -1.49595 3.4703 0
M  V30 5509 H 529.61 -2.47497 7.32096 0
M  V30 5510 H 527.955 -2.23239 6.58171 0
M  V30 5511 H 531.146 -1.77535 4.33127 0
M  V30 5512 H 531.319 -2.222 6.08713 0
M  V30 5513 N 524.725 -1.39134 -0.740242 0
M  V30 5514 C 525.688 -1.37217 -1.83587 0
M  V30 5515 C 526.688 -0.270221 -1.58513 0
M  V30 5516 O 527.878 -0.527843 -1.6601 0
M  V30 5517 C 525.01 -1.13959 -3.21288 0
M  V30 5518 H 526.203 -2.34705 -1.86691 0
M  V30 5519 H 523.756 -1.24622 -0.94335 0
M  V30 5520 H 524.491 -0.17131 -3.23847 0
M  V30 5521 H 524.276 -1.93754 -3.40884 0
M  V30 5522 H 525.766 -1.15346 -4.01354 0
M  V30 5523 N 526.204 0.969867 -1.24223 0
M  V30 5524 C 527.136 2.0669 -0.99055 0
M  V30 5525 C 528.149 1.62753 0.0392222 0
M  V30 5526 O 529.338 1.77403 -0.197561 0
M  V30 5527 C 526.438 3.35589 -0.472594 0
M  V30 5528 C 525.611 4.08444 -1.56499 0
M  V30 5529 C 524.67 5.15616 -1.05007 0
M  V30 5530 O 523.696 5.41911 -1.7413 0
M  V30 5531 N 524.898 5.80383 0.116641 0
M  V30 5532 H 527.663 2.28855 -1.93508 0
M  V30 5533 H 525.224 1.13733 -1.15223 0
M  V30 5534 H 527.216 4.04542 -0.112919 0
M  V30 5535 H 525.786 3.10311 0.377617 0
M  V30 5536 H 525.006 3.33798 -2.09696 0
M  V30 5537 H 526.294 4.53882 -2.29932 0
M  V30 5538 H 525.692 5.6142 0.694589 0
M  V30 5539 H 524.249 6.50462 0.417483 0
M  V30 5540 N 527.682 1.05563 1.17022 0
M  V30 5541 C 528.931 0.763036 1.8671 0
M  V30 5542 C 529.244 -0.712857 1.82147 0
M  V30 5543 O 530.45 -1.11955 2.47343 0
M  V30 5544 C 528.906 1.31474 3.35026 0
M  V30 5545 C 528.514 2.82034 3.48081 0
M  V30 5546 C 530.258 1.09935 4.10018 0
M  V30 5547 C 528.165 3.30486 4.90442 0
M  V30 5548 H 527.095 0.281747 0.699382 0
M  V30 5549 H 529.746 1.2734 1.32124 0
M  V30 5550 H 528.128 0.732171 3.89173 0
M  V30 5551 H 529.302 3.46178 3.04133 0
M  V30 5552 H 527.617 3.02156 2.86515 0
M  V30 5553 H 530.214 1.43632 5.15048 0
M  V30 5554 H 530.557 0.0373072 4.16283 0
M  V30 5555 H 531.09 1.64732 3.62089 0
M  V30 5556 H 527.829 4.36137 4.89352 0
M  V30 5557 H 527.349 2.71086 5.35044 0
M  V30 5558 H 529.028 3.25382 5.59227 0
M  V30 5559 N 529.16 -1.33526 0.837174 0
M  V30 5560 C 530.385 -2.0258 0.444545 0
M  V30 5561 C 530.81 -1.6258 -0.946006 0
M  V30 5562 O 530.168 -0.817548 -1.6182 0
M  V30 5563 C 530.216 -3.5605 0.571006 0
M  V30 5564 O 529.32 -4.10422 -0.403431 0
M  V30 5565 H 528.661 -0.638866 0.180958 0
M  V30 5566 H 531.191 -1.70462 1.13154 0
M  V30 5567 H 531.201 -4.05488 0.452024 0
M  V30 5568 H 529.876 -3.84509 1.58512 0
M  V30 5569 H 528.453 -3.72113 -0.242147 0
M  V30 5570 N 530.638 -0.59345 -1.46 0
M  V30 5571 C 531.915 -0.0157933 -1.95594 0
M  V30 5572 C 532.295 1.44807 -1.53604 0
M  V30 5573 O 531.643 2.14342 -0.791824 0
M  V30 5574 C 531.853 -0.199081 -3.48432 0
M  V30 5575 C 533.201 -0.0724943 -4.24538 0
M  V30 5576 O 534.225 -0.128469 -3.55968 0
M  V30 5577 O 533.084 0.0542426 -5.46473 0
M  V30 5578 H 530.178 0.043749 -0.825842 0
M  V30 5579 H 532.724 -0.662522 -1.56233 0
M  V30 5580 H 531.496 -1.21631 -3.71916 0
M  V30 5581 H 531.119 0.483576 -3.94648 0
M  V30 5582 N 532.116 1.54067 -0.331816 0
M  V30 5583 C 533.393 1.92915 0.322955 0
M  V30 5584 C 533.773 1.26225 1.69205 0
M  V30 5585 O 533.121 0.408919 2.24811 0
M  V30 5586 C 533.331 3.46619 0.406946 0
M  V30 5587 C 534.679 4.19386 0.663339 0
M  V30 5588 O 535.703 3.5282 0.489536 0
M  V30 5589 O 534.562 5.37288 0.999193 0
M  V30 5590 H 531.656 0.805808 0.186016 0
M  V30 5591 H 534.202 1.65342 -0.382135 0
M  V30 5592 H 532.974 3.87354 -0.554287 0
M  V30 5593 H 532.597 3.80324 1.15929 0
M  V30 5594 N 533.594 0.0601682 1.57485 0
M  V30 5595 C 534.822 -0.620937 1.97363 0
M  V30 5596 C 535.237 -1.63846 0.938082 0
M  V30 5597 O 534.594 -1.82339 -0.0766578 0
M  V30 5598 C 534.645 -1.29987 3.37321 0
M  V30 5599 O 534.366 -0.323081 4.36907 0
M  V30 5600 C 535.867 -2.06989 3.92008 0
M  V30 5601 H 533.087 -0.169135 0.649334 0
M  V30 5602 H 535.631 0.129132 2.04092 0
M  V30 5603 H 533.786 -2.0011 3.31715 0
M  V30 5604 H 534.2 -0.808754 5.18227 0
M  V30 5605 H 535.674 -2.49901 4.92192 0
M  V30 5606 H 536.151 -2.92173 3.2792 0
M  V30 5607 H 536.757 -1.41757 4.0098 0
M  V30 5608 N 535.072 -1.5615 -0.213296 0
M  V30 5609 C 536.3 -1.83638 -0.953139 0
M  V30 5610 C 536.715 -0.640362 -1.77609 0
M  V30 5611 O 536.072 0.391071 -1.78261 0
M  V30 5612 C 536.123 -3.09735 -1.86405 0
M  V30 5613 O 535.844 -4.24723 -1.07435 0
M  V30 5614 C 537.345 -3.5027 -2.71709 0
M  V30 5615 H 534.565 -0.610263 -0.278962 0
M  V30 5616 H 537.109 -2.03247 -0.226035 0
M  V30 5617 H 535.264 -2.92077 -2.545 0
M  V30 5618 H 535.678 -4.9641 -1.69343 0
M  V30 5619 H 537.152 -4.41515 -3.31313 0
M  V30 5620 H 537.629 -2.72406 -3.44516 0
M  V30 5621 H 538.235 -3.70396 -2.09015 0
M  V30 5622 N 536.55 0.480323 -1.50102 0
M  V30 5623 C 537.5 1.57685 -1.6468 0
M  V30 5624 C 538.484 1.52878 -0.5017 0
M  V30 5625 O 539.676 1.60058 -0.755668 0
M  V30 5626 C 536.805 2.96185 -1.73578 0
M  V30 5627 C 535.891 3.0591 -2.93734 0
M  V30 5628 N 536.282 2.85471 -4.1754 0
M  V30 5629 C 534.58 3.37036 -2.92101 0
M  V30 5630 C 535.281 2.99921 -4.9842 0
M  V30 5631 N 534.257 3.29715 -4.32191 0
M  V30 5632 H 538.059 1.40568 -2.58104 0
M  V30 5633 H 535.573 0.686874 -1.47159 0
M  V30 5634 H 537.57 3.75015 -1.82124 0
M  V30 5635 H 536.23 3.14356 -0.813057 0
M  V30 5636 H 537.241 2.61235 -4.47188 0
M  V30 5637 H 533.918 3.61253 -2.09291 0
M  V30 5638 H 535.308 2.88436 -6.06839 0
M  V30 5639 N 538.028 1.39524 0.732853 0
M  V30 5640 C 539.439 1.32905 1.31122 0
M  V30 5641 C 539.79 -0.00558708 1.96199 0
M  V30 5642 O 538.915 -0.907706 1.96443 0
M  V30 5643 C 539.51 2.40704 2.38426 0
M  V30 5644 C 538.069 2.37599 2.91931 0
M  V30 5645 C 537.216 2.2248 1.65523 0
M  V30 5646 H 540.167 1.49581 0.530207 0
M  V30 5647 H 540.188 2.07616 3.18867 0
M  V30 5648 H 539.7 3.37829 1.91033 0
M  V30 5649 H 537.801 1.44119 3.43599 0
M  V30 5650 H 537.914 3.32538 3.44899 0
M  V30 5651 H 536.278 1.69691 1.8994 0
M  V30 5652 H 537.061 3.21577 1.20178 0
M  V30 5653 N 539.506 -0.963266 1.24736 0
M  V30 5654 C 540.755 -1.70115 1.08369 0
M  V30 5655 C 541.068 -1.91939 -0.376688 0
M  V30 5656 O 542.274 -2.6334 -0.660624 0
M  V30 5657 C 540.73 -3.06218 1.89099 0
M  V30 5658 C 540.338 -2.92221 3.39574 0
M  V30 5659 C 542.082 -3.83848 1.81275 0
M  V30 5660 C 539.989 -4.23662 4.12631 0
M  V30 5661 H 538.919 -0.637944 0.401924 0
M  V30 5662 H 541.57 -1.07304 1.48856 0
M  V30 5663 H 539.952 -3.69884 1.41429 0
M  V30 5664 H 541.126 -2.37541 3.94856 0
M  V30 5665 H 539.441 -2.28054 3.48397 0
M  V30 5666 H 542.038 -4.81188 2.33158 0
M  V30 5667 H 542.381 -4.08949 0.778895 0
M  V30 5668 H 542.914 -3.26918 2.26649 0
M  V30 5669 H 539.653 -4.03753 5.16395 0
M  V30 5670 H 539.173 -4.78141 3.62135 0
M  V30 5671 H 540.852 -4.92256 4.19873 0
M  V30 5672 N 540.985 -1.06182 -1.16461 0
M  V30 5673 C 542.21 -0.798599 -1.91408 0
M  V30 5674 C 542.635 0.640987 -1.76842 0
M  V30 5675 O 541.993 1.44652 -1.09296 0
M  V30 5676 C 542.041 -1.19665 -3.40165 0
M  V30 5677 O 541.145 -0.334768 -4.11039 0
M  V30 5678 H 540.486 -0.291961 -0.596368 0
M  V30 5679 H 543.016 -1.41732 -1.47557 0
M  V30 5680 H 543.026 -1.16772 -3.90933 0
M  V30 5681 H 541.701 -2.24526 -3.50087 0
M  V30 5682 H 540.278 -0.425168 -3.70468 0
M  V30 5683 N 542.463 1.3308 -0.844243 0
M  V30 5684 C 543.693 2.01515 -0.455541 0
M  V30 5685 C 544.101 1.63655 0.949406 0
M  V30 5686 O 543.444 0.84848 1.62931 0
M  V30 5687 C 543.506 3.55967 -0.502801 0
M  V30 5688 C 543.17 4.17222 -1.86481 0
M  V30 5689 C 544.167 4.36205 -2.8288 0
M  V30 5690 C 541.852 4.53528 -2.15911 0
M  V30 5691 C 543.846 4.90649 -4.06869 0
M  V30 5692 C 541.533 5.07679 -3.40155 0
M  V30 5693 C 542.531 5.26186 -4.35451 0
M  V30 5694 O 542.219 5.79183 -5.57496 0
M  V30 5695 H 541.951 0.65199 -0.178565 0
M  V30 5696 H 544.505 1.70867 -1.1399 0
M  V30 5697 H 542.735 3.85965 0.23836 0
M  V30 5698 H 544.424 4.05688 -0.131169 0
M  V30 5699 H 545.19 4.085 -2.61444 0
M  V30 5700 H 541.069 4.38414 -1.42528 0
M  V30 5701 H 544.613 5.0501 -4.81259 0
M  V30 5702 H 540.51 5.34815 -3.61446 0
M  V30 5703 H 541.278 5.97591 -5.5931 0
M  V30 5704 N 543.941 0.601185 1.45683 0
M  V30 5705 C 545.171 0.0999093 2.06358 0
M  V30 5706 C 545.579 -1.21831 1.44754 0
M  V30 5707 O 544.922 -1.75157 0.553695 0
M  V30 5708 C 544.984 -0.12085 3.59297 0
M  V30 5709 C 544.648 1.11459 4.432 0
M  V30 5710 C 545.645 2.03118 4.7858 0
M  V30 5711 C 543.33 1.34162 4.84051 0
M  V30 5712 C 545.324 3.15814 5.53661 0
M  V30 5713 C 543.011 2.4716 5.58888 0
M  V30 5714 C 544.009 3.37814 5.93608 0
M  V30 5715 O 543.697 4.48846 6.66928 0
M  V30 5716 H 543.429 0.0630316 0.673055 0
M  V30 5717 H 545.983 0.826982 1.88016 0
M  V30 5718 H 544.213 -0.902744 3.76015 0
M  V30 5719 H 545.902 -0.572925 4.01836 0
M  V30 5720 H 546.668 1.86801 4.47583 0
M  V30 5721 H 542.547 0.645018 4.56465 0
M  V30 5722 H 546.091 3.86596 5.8068 0
M  V30 5723 H 541.988 2.63432 5.89299 0
M  V30 5724 H 542.756 4.47446 6.85371 0
M  V30 5725 N 545.419 -1.53889 0.339982 0
M  V30 5726 C 546.366 -2.24902 -0.518452 0
M  V30 5727 C 547.336 -1.24593 -1.09844 0
M  V30 5728 O 548.521 -1.53317 -1.13572 0
M  V30 5729 C 545.661 -3.02262 -1.66529 0
M  V30 5730 C 544.774 -4.17418 -1.11295 0
M  V30 5731 C 543.909 -4.82273 -2.2268 0
M  V30 5732 C 542.948 -5.89503 -1.6478 0
M  V30 5733 N 542.085 -6.48153 -2.69893 0
M  V30 5734 H 546.925 -2.97853 0.0936579 0
M  V30 5735 H 544.462 -1.46986 0.0579924 0
M  V30 5736 H 546.42 -3.45371 -2.3404 0
M  V30 5737 H 545.05 -2.31614 -2.24844 0
M  V30 5738 H 544.102 -3.78976 -0.328886 0
M  V30 5739 H 545.414 -4.94554 -0.649414 0
M  V30 5740 H 544.568 -5.28435 -2.98063 0
M  V30 5741 H 543.307 -4.04552 -2.72376 0
M  V30 5742 H 542.312 -5.42728 -0.879004 0
M  V30 5743 H 543.537 -6.6913 -1.1594 0
M  V30 5744 H 541.483 -5.73298 -3.1885 0
M  V30 5745 H 541.4 -7.20752 -2.28151 0
M  V30 5746 H 542.668 -6.98968 -3.45056 0
M  V30 5747 N 546.897 -0.0685191 -1.57451 0
M  V30 5748 C 548.308 0.464634 -1.80826 0
M  V30 5749 C 548.659 1.69847 -0.982169 0
M  V30 5750 O 547.784 2.15439 -0.203734 0
M  V30 5751 C 548.379 0.849721 -3.27971 0
M  V30 5752 C 546.938 1.32776 -3.52204 0
M  V30 5753 C 546.085 0.311332 -2.75547 0
M  V30 5754 H 549.036 -0.294248 -1.55948 0
M  V30 5755 H 549.057 1.71138 -3.39841 0
M  V30 5756 H 548.569 -0.0484736 -3.8807 0
M  V30 5757 H 546.67 2.24456 -2.97406 0
M  V30 5758 H 546.783 1.30794 -4.60901 0
M  V30 5759 H 545.147 0.787915 -2.42206 0
M  V30 5760 H 545.93 -0.579078 -3.38381 0
M  V30 5761 N 548.375 1.56261 0.205012 0
M  V30 5762 C 549.285 1.96944 1.27476 0
M  V30 5763 C 550.301 0.875636 1.50362 0
M  V30 5764 O 551.477 1.18058 1.6317 0
M  V30 5765 C 548.542 2.29219 2.60115 0
M  V30 5766 C 547.603 3.52255 2.45387 0
M  V30 5767 C 546.836 3.8298 3.71701 0
M  V30 5768 O 547.059 3.15138 4.75441 0
M  V30 5769 O 545.993 4.76435 3.67823 0
M  V30 5770 H 549.819 2.88144 0.959527 0
M  V30 5771 H 547.404 1.43686 0.409217 0
M  V30 5772 H 549.286 2.51098 3.3842 0
M  V30 5773 H 547.961 1.4119 2.91285 0
M  V30 5774 H 546.868 3.35635 1.65227 0
M  V30 5775 H 548.201 4.40719 2.19152 0
M  V30 5776 N 549.853 -0.472356 1.50355 0
M  V30 5777 C 551.1 -1.22453 1.61281 0
M  V30 5778 C 551.428 -1.91972 0.31256 0
M  V30 5779 O 550.683 -1.82696 -0.701475 0
M  V30 5780 C 550.982 -2.29257 2.74182 0
M  V30 5781 C 550.648 -1.76999 4.14708 0
M  V30 5782 C 549.31 -1.62467 4.52944 0
M  V30 5783 C 551.662 -1.38215 5.0254 0
M  V30 5784 C 548.99 -1.07574 5.76754 0
M  V30 5785 C 551.342 -0.847638 6.26895 0
M  V30 5786 C 550.006 -0.688946 6.63935 0
M  V30 5787 H 549.276 -0.448087 0.590168 0
M  V30 5788 H 551.923 -0.520744 1.84284 0
M  V30 5789 H 550.228 -3.05538 2.45263 0
M  V30 5790 H 551.925 -2.87212 2.7984 0
M  V30 5791 H 548.515 -1.89276 3.84542 0
M  V30 5792 H 552.699 -1.48276 4.73633 0
M  V30 5793 H 547.955 -0.940237 6.04127 0
M  V30 5794 H 552.129 -0.538455 6.94315 0
M  V30 5795 H 549.756 -0.261435 7.5975 0
M  V30 5796 N 551.331 -1.39911 -0.725443 0
M  V30 5797 C 552.561 -1.40744 -1.51244 0
M  V30 5798 C 552.969 -0.00275403 -1.892 0
M  V30 5799 O 552.312 0.981299 -1.55294 0
M  V30 5800 C 552.374 -2.22527 -2.82351 0
M  V30 5801 C 552.038 -3.71053 -2.66774 0
M  V30 5802 C 553.035 -4.63916 -2.34686 0
M  V30 5803 C 550.72 -4.14753 -2.83347 0
M  V30 5804 C 552.714 -5.98463 -2.19366 0
M  V30 5805 C 550.401 -5.49372 -2.67644 0
M  V30 5806 C 551.399 -6.41042 -2.357 0
M  V30 5807 O 551.087 -7.73181 -2.20107 0
M  V30 5808 H 550.819 -0.482314 -0.473655 0
M  V30 5809 H 553.373 -1.84472 -0.903284 0
M  V30 5810 H 551.603 -1.73563 -3.45562 0
M  V30 5811 H 553.292 -2.15421 -3.44018 0
M  V30 5812 H 554.058 -4.31453 -2.21525 0
M  V30 5813 H 549.937 -3.43728 -3.072 0
M  V30 5814 H 553.481 -6.69979 -1.94354 0
M  V30 5815 H 549.378 -5.81424 -2.80387 0
M  V30 5816 H 550.146 -7.84008 -2.35103 0
M  V30 5817 N 552.809 0.956637 -1.25245 0
M  V30 5818 C 554.037 1.73571 -1.12608 0
M  V30 5819 C 554.452 1.86063 0.320324 0
M  V30 5820 O 553.809 1.35691 1.22042 0
M  V30 5821 C 553.86 3.15053 -1.77268 0
M  V30 5822 O 553.581 3.03174 -3.16255 0
M  V30 5823 C 555.082 4.09248 -1.70386 0
M  V30 5824 H 552.302 0.543955 -0.392879 0
M  V30 5825 H 554.846 1.20031 -1.65568 0
M  V30 5826 H 553.001 3.65543 -1.28284 0
M  V30 5827 H 553.415 3.9241 -3.48015 0
M  V30 5828 H 554.889 5.06138 -2.20291 0
M  V30 5829 H 555.366 4.34102 -0.667239 0
M  V30 5830 H 555.972 3.64672 -2.18849 0
M  V30 5831 N 554.287 1.06798 1.15896 0
M  V30 5832 C 555.698 0.811355 1.68149 0
M  V30 5833 C 556.049 -0.664339 1.8461 0
M  V30 5834 O 555.174 -1.51485 1.54535 0
M  V30 5835 C 555.769 1.46624 3.05429 0
M  V30 5836 C 554.328 1.25726 3.54781 0
M  V30 5837 C 553.475 1.53949 2.3064 0
M  V30 5838 H 556.426 1.23078 1.00187 0
M  V30 5839 H 556.447 0.88437 3.7008 0
M  V30 5840 H 555.959 2.54025 2.93416 0
M  V30 5841 H 554.06 0.20322 3.72045 0
M  V30 5842 H 554.173 1.97354 4.36564 0
M  V30 5843 H 552.537 0.96025 2.35905 0
M  V30 5844 H 553.32 2.6252 2.2122 0
M  V30 5845 N 555.766 -1.3263 0.851289 0
M  V30 5846 C 557.043 -1.91982 0.374448 0
M  V30 5847 C 557.423 -1.77568 -1.14161 0
M  V30 5848 O 556.771 -1.1717 -1.96172 0
M  V30 5849 C 556.981 -3.38862 0.835088 0
M  V30 5850 C 558.329 -4.15999 0.850309 0
M  V30 5851 O 559.353 -3.47566 0.779505 0
M  V30 5852 O 558.212 -5.38189 0.949481 0
M  V30 5853 H 555.306 -0.819846 0.10854 0
M  V30 5854 H 557.852 -1.41422 0.937966 0
M  V30 5855 H 556.624 -3.43281 1.87814 0
M  V30 5856 H 556.247 -3.96821 0.248833 0
M  V30 5857 N 557.244 -0.608902 -1.45362 0
M  V30 5858 C 558.521 -0.0365378 -1.95566 0
M  V30 5859 C 558.901 1.43169 -1.55131 0
M  V30 5860 O 558.249 2.1349 -0.814513 0
M  V30 5861 C 558.459 -0.236026 -3.48201 0
M  V30 5862 C 559.807 -0.117518 -4.24437 0
M  V30 5863 O 560.831 -0.166217 -3.55812 0
M  V30 5864 O 559.69 -0.00372127 -5.465 0
M  V30 5865 H 556.784 0.0349874 -0.82626 0
M  V30 5866 H 559.33 -0.679055 -1.55521 0
M  V30 5867 H 558.102 -1.25569 -3.70605 0
M  V30 5868 H 557.725 0.441691 -3.95139 0
M  V30 5869 N 558.722 1.53707 -0.348139 0
M  V30 5870 C 559.97 2.00591 0.246478 0
M  V30 5871 C 560.291 1.23753 1.50699 0
M  V30 5872 O 559.561 0.345964 1.92821 0
M  V30 5873 H 558.141 0.741053 0.0940679 0
M  V30 5874 H 560.803 1.89139 -0.470354 0
M  V30 5875 H 559.899 3.08297 0.485714 0
M  V30 5876 N 560.2 0.0768682 1.57412 0
M  V30 5877 C 561.448 -0.589918 1.93299 0
M  V30 5878 C 561.769 -1.69842 0.958049 0
M  V30 5879 O 561.039 -1.95899 0.00703261 0
M  V30 5880 H 559.619 -0.220901 0.713591 0
M  V30 5881 H 562.281 0.135917 1.94425 0
M  V30 5882 H 561.377 -1.01195 2.95239 0
M  V30 5883 N 561.678 -1.56367 -0.196722 0
M  V30 5884 C 562.906 -1.84639 -0.933608 0
M  V30 5885 C 563.321 -0.659164 -1.76919 0
M  V30 5886 O 562.678 0.372142 -1.78665 0
M  V30 5887 C 562.729 -3.11694 -1.83109 0
M  V30 5888 O 562.45 -4.25838 -1.02924 0
M  V30 5889 C 563.951 -3.53132 -2.67979 0
M  V30 5890 H 561.171 -0.613188 -0.272473 0
M  V30 5891 H 563.715 -2.03475 -0.204465 0
M  V30 5892 H 561.87 -2.94759 -2.51387 0
M  V30 5893 H 562.284 -4.98178 -1.64069 0
M  V30 5894 H 563.758 -4.45005 -3.26611 0
M  V30 5895 H 564.235 -2.76045 -3.41608 0
M  V30 5896 H 564.841 -3.72592 -2.05074 0
M  V30 5897 N 563.156 0.464375 -1.50603 0
M  V30 5898 C 564.119 1.54393 -1.69397 0
M  V30 5899 C 565.119 1.50566 -0.564504 0
M  V30 5900 O 566.309 1.53066 -0.831645 0
M  V30 5901 C 563.441 2.9401 -1.72543 0
M  V30 5902 H 564.634 1.39044 -2.65719 0
M  V30 5903 H 562.187 0.69122 -1.40185 0
M  V30 5904 H 562.922 3.14795 -0.77938 0
M  V30 5905 H 562.707 2.98195 -2.54602 0
M  V30 5906 H 564.197 3.72375 -1.89015 0
M  V30 5907 N 564.634 1.40294 0.718013 0
M  V30 5908 C 565.584 1.36847 1.82365 0
M  V30 5909 C 566.568 0.246424 1.59002 0
M  V30 5910 O 567.76 0.485336 1.70216 0
M  V30 5911 C 564.889 1.23105 3.20469 0
M  V30 5912 C 563.975 2.4008 3.49603 0
M  V30 5913 N 564.366 3.65562 3.49568 0
M  V30 5914 C 562.664 2.33407 3.80049 0
M  V30 5915 C 563.365 4.43015 3.76978 0
M  V30 5916 N 562.341 3.72823 3.95606 0
M  V30 5917 H 566.143 2.31811 1.80668 0
M  V30 5918 H 563.657 1.34031 0.91703 0
M  V30 5919 H 565.654 1.18718 3.9964 0
M  V30 5920 H 564.314 0.291056 3.23393 0
M  V30 5921 H 565.325 3.98756 3.30476 0
M  V30 5922 H 562.002 1.47762 3.90478 0
M  V30 5923 H 563.392 5.51859 3.83276 0
M  V30 5924 N 566.112 -0.949982 1.2575 0
M  V30 5925 C 567.042 -2.06483 1.09028 0
M  V30 5926 C 568.023 -1.701 -0.00201532 0
M  V30 5927 O 569.208 -1.93469 0.168383 0
M  V30 5928 C 566.338 -3.39899 0.71316 0
M  V30 5929 C 565.292 -3.90309 1.75621 0
M  V30 5930 C 564.618 -5.20274 1.23365 0
M  V30 5931 C 565.918 -4.16169 3.15596 0
M  V30 5932 H 567.612 -2.20731 2.02283 0
M  V30 5933 H 565.158 -1.06066 0.973964 0
M  V30 5934 H 567.111 -4.17346 0.58309 0
M  V30 5935 H 565.835 -3.25602 -0.255091 0
M  V30 5936 H 564.494 -3.15035 1.8748 0
M  V30 5937 H 564.142 -5.02351 0.255491 0
M  V30 5938 H 563.842 -5.54971 1.93082 0
M  V30 5939 H 565.366 -6.00314 1.11607 0
M  V30 5940 H 566.78 -4.84259 3.06864 0
M  V30 5941 H 565.177 -4.62131 3.82825 0
M  V30 5942 H 566.247 -3.22273 3.6231 0
M  V30 5943 N 567.59 -1.07411 -1.15328 0
M  V30 5944 C 568.815 -0.818856 -1.90551 0
M  V30 5945 C 569.24 0.622194 -1.77512 0
M  V30 5946 O 568.598 1.43484 -1.10824 0
M  V30 5947 C 568.646 -1.23267 -3.38877 0
M  V30 5948 O 567.75 -0.378345 -4.10661 0
M  V30 5949 H 567.091 -0.29827 -0.593238 0
M  V30 5950 H 569.621 -1.43289 -1.46046 0
M  V30 5951 H 569.631 -1.20912 -3.89672 0
M  V30 5952 H 568.306 -2.28226 -3.47686 0
M  V30 5953 H 566.883 -0.464437 -3.69996 0
M  V30 5954 N 569.068 1.32177 -0.85831 0
M  V30 5955 C 570.314 1.97417 -0.46417 0
M  V30 5956 C 570.647 1.67746 0.978514 0
M  V30 5957 O 569.922 0.967654 1.68721 0
M  V30 5958 C 570.205 3.53069 -0.708094 0
M  V30 5959 C 570.058 3.92357 -2.19946 0
M  V30 5960 C 571.377 4.39783 -0.166881 0
M  V30 5961 H 568.496 0.717097 -0.17012 0
M  V30 5962 H 571.138 1.56499 -1.07741 0
M  V30 5963 H 569.288 3.88054 -0.186128 0
M  V30 5964 H 570.96 3.67533 -2.78779 0
M  V30 5965 H 569.203 3.41384 -2.67656 0
M  V30 5966 H 569.874 5.00841 -2.32082 0
M  V30 5967 H 572.35 4.11556 -0.613285 0
M  V30 5968 H 571.226 5.47671 -0.367093 0
M  V30 5969 H 571.487 4.32196 0.930559 0
M  V30 5970 N 570.547 0.616602 1.45037 0
M  V30 5971 C 571.793 0.115501 2.02471 0
M  V30 5972 C 572.126 -1.25406 1.4828 0
M  V30 5973 O 571.401 -1.82922 0.661051 0
M  V30 5974 C 571.684 0.0863588 3.59996 0
M  V30 5975 C 571.537 1.48723 4.24501 0
M  V30 5976 C 572.856 -0.596762 4.36035 0
M  V30 5977 H 569.975 0.0434461 0.735718 0
M  V30 5978 H 572.617 0.7903 1.72784 0
M  V30 5979 H 570.767 -0.488277 3.85419 0
M  V30 5980 H 572.439 2.10964 4.10234 0
M  V30 5981 H 570.682 2.04534 3.82555 0
M  V30 5982 H 571.353 1.419 5.3345 0
M  V30 5983 H 573.829 -0.10824 4.15959 0
M  V30 5984 H 572.705 -0.586289 5.4576 0
M  V30 5985 H 572.966 -1.66451 4.09569 0
M  V30 5986 N 572.025 -1.5352 0.356285 0
M  V30 5987 C 572.988 -2.24071 -0.482182 0
M  V30 5988 C 573.988 -1.24531 -1.01729 0
M  V30 5989 O 575.178 -1.48876 -0.904513 0
M  V30 5990 C 572.31 -2.97025 -1.67299 0
M  V30 5991 H 573.503 -2.99596 0.135031 0
M  V30 5992 H 571.056 -1.55928 0.107825 0
M  V30 5993 H 571.791 -2.25719 -2.32855 0
M  V30 5994 H 571.576 -3.7005 -1.29636 0
M  V30 5995 H 573.066 -3.50683 -2.26741 0
M  V30 5996 N 573.503 -0.0852151 -1.57369 0
M  V30 5997 C 574.413 0.891712 -2.16992 0
M  V30 5998 C 575.429 1.3174 -1.13669 0
M  V30 5999 O 576.605 1.38735 -1.45995 0
M  V30 6000 C 573.67 2.13635 -2.73059 0
M  V30 6001 C 572.731 1.7658 -3.91303 0
M  V30 6002 C 571.964 2.95111 -4.44686 0
M  V30 6003 O 572.187 4.09539 -3.97032 0
M  V30 6004 O 571.121 2.74149 -5.35841 0
M  V30 6005 H 574.947 0.414477 -3.00858 0
M  V30 6006 H 572.532 0.138598 -1.48756 0
M  V30 6007 H 574.414 2.86595 -3.08935 0
M  V30 6008 H 573.089 2.6043 -1.92244 0
M  V30 6009 H 571.996 1.00831 -3.60255 0
M  V30 6010 H 573.329 1.34557 -4.7345 0
M  V30 6011 N 574.981 1.5647 0.188427 0
M  V30 6012 C 576.258 1.71857 0.934058 0
M  V30 6013 C 576.638 0.641867 2.01105 0
M  V30 6014 O 575.986 -0.346098 2.25864 0
M  V30 6015 C 576.196 3.14431 1.5144 0
M  V30 6016 C 577.544 3.74869 1.99396 0
M  V30 6017 O 578.568 3.17601 1.61269 0
M  V30 6018 O 577.427 4.75387 2.69573 0
M  V30 6019 H 574.521 0.701186 0.438483 0
M  V30 6020 H 577.067 1.68768 0.177599 0
M  V30 6021 H 575.839 3.8427 0.738416 0
M  V30 6022 H 575.462 3.21775 2.33552 0
M  V30 6023 N 576.459 -0.456382 1.50847 0
M  V30 6024 C 577.707 -1.20497 1.62249 0
M  V30 6025 C 578.028 -1.92156 0.331839 0
M  V30 6026 O 577.298 -1.84751 -0.651443 0
M  V30 6027 H 575.878 -0.447775 0.597918 0
M  V30 6028 H 578.54 -0.525099 1.87693 0
M  V30 6029 H 577.636 -1.94492 2.44089 0
M  V30 6030 N 577.937 -1.40673 -0.710563 0
M  V30 6031 C 579.162 -1.42741 -1.50465 0
M  V30 6032 C 579.587 -0.0302116 -1.88076 0
M  V30 6033 O 578.945 0.962945 -1.53613 0
M  V30 6034 C 578.993 -2.32873 -2.75322 0
M  V30 6035 O 578.097 -1.77544 -3.72226 0
M  V30 6036 H 577.438 -0.485056 -0.45345 0
M  V30 6037 H 579.968 -1.84961 -0.874681 0
M  V30 6038 H 579.978 -2.48233 -3.23797 0
M  V30 6039 H 578.653 -3.34401 -2.47283 0
M  V30 6040 H 577.23 -1.71556 -3.31093 0
M  V30 6041 N 579.415 0.9433 -1.26252 0
M  V30 6042 C 580.378 2.02326 -1.07689 0
M  V30 6043 C 581.378 1.60779 -0.0259174 0
M  V30 6044 O 582.568 1.72108 -0.269134 0
M  V30 6045 C 579.7 3.34886 -0.63752 0
M  V30 6046 H 580.893 2.20225 -2.0357 0
M  V30 6047 H 578.446 1.12197 -1.08819 0
M  V30 6048 H 579.181 3.22684 0.323377 0
M  V30 6049 H 578.966 3.66393 -1.39637 0
M  V30 6050 H 580.456 4.14231 -0.529418 0
M  V30 6051 N 580.893 1.08022 1.14757 0
M  V30 6052 C 582.139 0.808705 1.85978 0
M  V30 6053 C 582.472 -0.663764 1.82504 0
M  V30 6054 O 581.747 -1.48765 1.25296 0
M  V30 6055 C 582.03 1.32623 3.34788 0
M  V30 6056 C 581.883 2.86375 3.46856 0
M  V30 6057 C 583.202 0.948291 4.29762 0
M  V30 6058 H 580.321 0.295244 0.675278 0
M  V30 6059 H 582.963 1.33917 1.34783 0
M  V30 6060 H 581.113 0.875002 3.78518 0
M  V30 6061 H 582.785 3.39839 3.11941 0
M  V30 6062 H 581.028 3.24232 2.88194 0
M  V30 6063 H 581.699 3.17658 4.51439 0
M  V30 6064 H 584.175 1.33722 3.94028 0
M  V30 6065 H 583.051 1.33765 5.32352 0
M  V30 6066 H 583.312 -0.145094 4.41862 0
M  V30 6067 N 582.371 -1.3172 0.865308 0
M  V30 6068 C 583.596 -2.01591 0.487415 0
M  V30 6069 C 584.021 -1.6455 -0.911307 0
M  V30 6070 O 583.379 -0.851689 -1.6005 0
M  V30 6071 C 583.427 -3.54759 0.646401 0
M  V30 6072 O 582.531 -4.11185 -0.316284 0
M  V30 6073 H 581.872 -0.634884 0.194468 0
M  V30 6074 H 584.402 -1.68024 1.16744 0
M  V30 6075 H 584.412 -4.04438 0.537932 0
M  V30 6076 H 583.087 -3.8106 1.66632 0
M  V30 6077 H 581.664 -3.72543 -0.163162 0
M  V30 6078 N 583.85 -0.624285 -1.44708 0
M  V30 6079 C 584.812 0.0749638 -2.29077 0
M  V30 6080 C 585.812 0.778965 -1.40673 0
M  V30 6081 O 587.003 0.624591 -1.62618 0
M  V30 6082 C 584.135 1.11663 -3.22094 0
M  V30 6083 H 585.327 -0.667013 -2.92388 0
M  V30 6084 H 582.88 -0.384098 -1.51507 0
M  V30 6085 H 583.615 1.88881 -2.63618 0
M  V30 6086 H 583.401 0.61583 -3.87234 0
M  V30 6087 H 584.891 1.60585 -3.8549 0
M  V30 6088 N 585.328 1.53329 -0.364422 0
M  V30 6089 C 586.556 2.05657 0.226424 0
M  V30 6090 C 586.971 1.23801 1.42544 0
M  V30 6091 O 586.328 0.27839 1.80364 0
M  V30 6092 C 586.379 3.56125 0.621056 0
M  V30 6093 O 586.1 4.34879 -0.530304 0
M  V30 6094 C 587.601 4.24706 1.27041 0
M  V30 6095 H 584.821 0.669806 0.0400056 0
M  V30 6096 H 587.365 1.97714 -0.522456 0
M  V30 6097 H 585.52 3.64223 1.31985 0
M  V30 6098 H 585.934 5.24073 -0.211546 0
M  V30 6099 H 587.408 5.3131 1.49711 0
M  V30 6100 H 587.885 3.78354 2.23036 0
M  V30 6101 H 588.491 4.20858 0.613079 0
M  V30 6102 N 586.806 0.0935595 1.57322 0
M  V30 6103 C 588.031 -0.582324 1.99057 0
M  V30 6104 C 588.456 -1.61025 0.972242 0
M  V30 6105 O 587.814 -1.81202 -0.0594622 0
M  V30 6106 C 587.862 -1.20799 3.39765 0
M  V30 6107 O 586.966 -2.32382 3.40694 0
M  V30 6108 H 586.307 -0.147884 0.647323 0
M  V30 6109 H 588.837 0.174516 2.03854 0
M  V30 6110 H 588.847 -1.54966 3.77425 0
M  V30 6111 H 587.522 -0.454914 4.13405 0
M  V30 6112 H 586.099 -1.99845 3.14827 0
M  V30 6113 N 588.284 -1.56567 -0.180126 0
M  V30 6114 C 589.512 -1.85618 -0.913972 0
M  V30 6115 C 589.927 -0.677892 -1.7621 0
M  V30 6116 O 589.284 0.353171 -1.7905 0
M  V30 6117 C 589.335 -3.13619 -1.79793 0
M  V30 6118 O 589.056 -4.26906 -0.98402 0
M  V30 6119 C 590.557 -3.55954 -2.64219 0
M  V30 6120 H 587.777 -0.616043 -0.265954 0
M  V30 6121 H 590.321 -2.03681 -0.182872 0
M  V30 6122 H 588.476 -2.97409 -2.48247 0
M  V30 6123 H 588.89 -4.9989 -1.58776 0
M  V30 6124 H 590.364 -4.48444 -3.21873 0
M  V30 6125 H 590.841 -2.79653 -3.38661 0
M  V30 6126 H 591.447 -3.74746 -2.01111 0
M  V30 6127 N 589.762 0.448376 -1.51087 0
M  V30 6128 C 591.011 1.19561 -1.62444 0
M  V30 6129 C 591.324 1.92602 -0.341151 0
M  V30 6130 O 592.53 2.69439 -0.333936 0
M  V30 6131 C 590.986 2.17373 -2.8684 0
M  V30 6132 C 590.594 1.5003 -4.22131 0
M  V30 6133 C 592.338 2.92597 -3.0755 0
M  V30 6134 C 590.245 2.46262 -5.37689 0
M  V30 6135 H 589.175 0.449975 -0.605011 0
M  V30 6136 H 591.826 0.463735 -1.77544 0
M  V30 6137 H 590.208 2.93948 -2.65349 0
M  V30 6138 H 591.382 0.790886 -4.53962 0
M  V30 6139 H 589.697 0.870011 -4.0721 0
M  V30 6140 H 592.294 3.64663 -3.91056 0
M  V30 6141 H 592.637 3.53306 -2.20183 0
M  V30 6142 H 593.17 2.23131 -3.29329 0
M  V30 6143 H 589.909 1.90258 -6.27281 0
M  V30 6144 H 589.429 3.15289 -5.10248 0
M  V30 6145 H 591.108 3.07623 -5.6919 0
M  V30 6146 N 591.24 1.41047 0.703093 0
M  V30 6147 C 592.188 1.42494 1.83843 0
M  V30 6148 C 593.182 0.303885 1.66652 0
M  V30 6149 O 594.388 0.475544 1.73605 0
M  V30 6150 H 590.763 0.445685 0.605697 0
M  V30 6151 H 592.734 2.38194 1.79739 0
M  V30 6152 C 591.483 1.31666 3.21807 0
M  V30 6153 H 590.806 2.17212 3.35647 0
M  V30 6154 H 592.246 1.36738 4.01346 0
M  V30 6155 C 590.705 0.0281828 3.36888 0
M  V30 6156 O 591.235 -0.929995 3.90786 0
M  V30 6157 N 589.441 -0.0454322 2.90564 0
M  V30 6158 H 588.988 0.735046 2.4689 0
M  V30 6159 H 588.946 -0.906968 3.01034 0
M  V30 6160 N 592.718 -0.936591 1.26751 0
M  V30 6161 C 593.648 -2.05315 1.11212 0
M  V30 6162 C 594.629 -1.70092 0.0160262 0
M  V30 6163 O 595.814 -1.93279 0.188894 0
M  V30 6164 C 592.944 -3.39123 0.749171 0
M  V30 6165 C 591.898 -3.88425 1.79751 0
M  V30 6166 C 591.224 -5.18936 1.28876 0
M  V30 6167 C 592.524 -4.12798 3.19992 0
M  V30 6168 H 594.218 -2.18573 2.04613 0
M  V30 6169 H 591.764 -1.05027 0.985159 0
M  V30 6170 H 593.717 -4.16704 0.627323 0
M  V30 6171 H 592.441 -3.25855 -0.220543 0
M  V30 6172 H 591.1 -3.13028 1.90811 0
M  V30 6173 H 590.748 -5.02051 0.308757 0
M  V30 6174 H 590.448 -5.52892 1.98958 0
M  V30 6175 H 591.972 -5.99096 1.17967 0
M  V30 6176 H 593.386 -4.80977 3.11983 0
M  V30 6177 H 591.783 -4.58044 3.87705 0
M  V30 6178 H 592.853 -3.18412 3.65707 0
M  V30 6179 N 594.196 -1.08629 -1.14182 0
M  V30 6180 C 595.426 -0.837673 -1.88856 0
M  V30 6181 C 595.834 0.614024 -1.78959 0
M  V30 6182 O 595.177 1.43384 -1.14833 0
M  V30 6183 C 595.239 -1.18355 -3.39459 0
M  V30 6184 C 594.903 -2.63848 -3.73139 0
M  V30 6185 C 595.9 -3.62099 -3.73069 0
M  V30 6186 C 593.585 -2.99761 -4.03049 0
M  V30 6187 C 595.579 -4.94292 -4.02435 0
M  V30 6188 C 593.266 -4.32147 -4.32078 0
M  V30 6189 C 594.264 -5.29223 -4.31755 0
M  V30 6190 O 593.952 -6.59229 -4.60079 0
M  V30 6191 H 593.684 -0.301609 -0.604986 0
M  V30 6192 H 596.238 -1.44961 -1.45518 0
M  V30 6193 H 594.468 -0.514628 -3.8326 0
M  V30 6194 H 596.157 -0.915391 -3.95443 0
M  V30 6195 H 596.923 -3.35698 -3.50046 0
M  V30 6196 H 592.802 -2.2484 -4.02453 0
M  V30 6197 H 596.346 -5.70055 -4.02098 0
M  V30 6198 H 592.243 -4.58296 -4.54571 0
M  V30 6199 H 593.011 -6.64578 -4.77785 0
M  V30 6200 N 595.674 1.31259 -0.872281 0
M  V30 6201 C 596.921 1.96622 -0.484365 0
M  V30 6202 C 597.249 1.68939 0.963841 0
M  V30 6203 O 596.504 0.97974 1.6941 0
M  V30 6204 C 596.803 3.50659 -0.690889 0
M  V30 6205 C 596.469 3.98366 -2.11224 0
M  V30 6206 C 595.131 4.11104 -2.50094 0
M  V30 6207 C 597.483 4.23425 -3.0391 0
M  V30 6208 C 594.811 4.46254 -3.80887 0
M  V30 6209 C 597.163 4.60039 -4.3422 0
M  V30 6210 C 595.827 4.70984 -4.73001 0
M  V30 6211 H 595.097 0.71949 -0.177242 0
M  V30 6212 H 597.744 1.56353 -1.10571 0
M  V30 6213 H 596.049 3.91798 0.0135782 0
M  V30 6214 H 597.746 3.99284 -0.370534 0
M  V30 6215 H 594.336 3.88949 -1.80047 0
M  V30 6216 H 598.52 4.13075 -2.75104 0
M  V30 6217 H 593.776 4.52926 -4.10692 0
M  V30 6218 H 597.95 4.78381 -5.06088 0
M  V30 6219 H 595.577 4.97977 -5.7439 0
M  V30 6220 N 597.152 0.631951 1.44375 0
M  V30 6221 C 598.4 0.136497 2.01639 0
M  V30 6222 C 598.721 -1.24637 1.49969 0
M  V30 6223 O 597.991 -1.82827 0.70363 0
M  V30 6224 H 596.571 0.0474703 0.74549 0
M  V30 6225 H 599.233 0.818837 1.76865 0
M  V30 6226 H 598.329 0.104817 3.11924 0
M  V30 6227 N 598.631 -1.53133 0.372548 0
M  V30 6228 C 599.856 -2.0625 -0.218098 0
M  V30 6229 C 600.281 -1.24375 -1.41111 0
M  V30 6230 O 599.639 -0.264554 -1.79359 0
M  V30 6231 C 599.687 -3.55858 -0.582876 0
M  V30 6232 O 598.791 -3.76667 -1.67917 0
M  V30 6233 H 598.132 -0.663317 -0.030104 0
M  V30 6234 H 600.662 -1.97477 0.535169 0
M  V30 6235 H 600.672 -3.99007 -0.851925 0
M  V30 6236 H 599.347 -4.14892 0.289428 0
M  V30 6237 H 597.924 -3.45413 -1.40513 0
M  V30 6238 N 600.109 -0.101901 -1.5727 0
M  V30 6239 C 601.056 0.854577 -2.14396 0
M  V30 6240 C 602.026 1.27521 -1.06432 0
M  V30 6241 O 603.211 1.35575 -1.34253 0
M  V30 6242 C 600.351 2.10576 -2.73408 0
M  V30 6243 C 599.464 1.73504 -3.95626 0
M  V30 6244 C 598.599 2.9346 -4.42781 0
M  V30 6245 C 597.638 2.52547 -5.57572 0
M  V30 6246 N 596.775 3.65359 -5.99547 0
M  V30 6247 H 601.615 0.360578 -2.9581 0
M  V30 6248 H 599.152 0.166303 -1.46157 0
M  V30 6249 H 601.11 2.83859 -3.05745 0
M  V30 6250 H 599.74 2.57463 -1.94711 0
M  V30 6251 H 598.792 0.901622 -3.6956 0
M  V30 6252 H 600.104 1.39426 -4.78917 0
M  V30 6253 H 599.258 3.74988 -4.76937 0
M  V30 6254 H 597.997 3.30753 -3.58404 0
M  V30 6255 H 597.002 1.69446 -5.23037 0
M  V30 6256 H 598.227 2.1639 -6.43702 0
M  V30 6257 H 596.173 4.02358 -5.18116 0
M  V30 6258 H 596.09 3.35148 -6.77652 0
M  V30 6259 H 597.358 4.47378 -6.38336 0
M  V30 6260 N 601.587 1.56661 0.17182 0
M  V30 6261 C 602.833 1.82235 0.889845 0
M  V30 6262 C 603.166 0.679673 1.81918 0
M  V30 6263 O 602.441 -0.318404 1.91876 0
M  V30 6264 C 602.724 3.18195 1.68595 0
M  V30 6265 C 602.577 4.42989 0.779773 0
M  V30 6266 C 603.896 3.5109 2.65375 0
M  V30 6267 H 601.015 0.66291 0.322056 0
M  V30 6268 H 603.657 1.89358 0.15608 0
M  V30 6269 H 601.807 3.12253 2.3115 0
M  V30 6270 H 603.479 4.60997 0.16714 0
M  V30 6271 H 601.722 4.33711 0.0877964 0
M  V30 6272 H 602.393 5.3467 1.3723 0
M  V30 6273 H 604.869 3.57482 2.12946 0
M  V30 6274 H 603.745 4.47298 3.18144 0
M  V30 6275 H 604.006 2.75768 3.45549 0
M  V30 6276 N 603.065 -0.440357 1.51323 0
M  V30 6277 C 604.481 -0.7766 1.39431 0
M  V30 6278 C 604.681 -1.95838 0.474296 0
M  V30 6279 O 603.737 -2.52398 -0.0716692 0
M  V30 6280 C 605.05 -1.05981 2.81405 0
M  V30 6281 C 606.598 -1.16442 2.90534 0
M  V30 6282 C 607.073 -1.48058 4.33408 0
M  V30 6283 N 608.564 -1.54988 4.36501 0
M  V30 6284 C 609.299 -1.81017 5.44078 0
M  V30 6285 N 608.795 -2.04858 6.61819 0
M  V30 6286 N 610.588 -1.82774 5.31554 0
M  V30 6287 H 602.739 0.338006 2.09693 0
M  V30 6288 H 605.002 0.0888072 0.943831 0
M  V30 6289 H 604.708 -0.264173 3.50706 0
M  V30 6290 H 604.582 -1.98822 3.20546 0
M  V30 6291 H 606.969 -1.95068 2.21432 0
M  V30 6292 H 607.05 -0.215088 2.54894 0
M  V30 6293 H 606.694 -0.699605 5.03059 0
M  V30 6294 H 606.624 -2.44192 4.66559 0
M  V30 6295 H 609.115 -1.38479 3.51613 0
M  V30 6296 H 609.428 -2.2408 7.396 0
M  V30 6297 H 607.773 -2.02187 6.6494 0
M  V30 6298 H 610.964 -1.63665 4.38556 0
M  V30 6299 H 611.137 -2.02722 6.15474 0
M  V30 6300 N 604.543 -1.41418 -0.695603 0
M  V30 6301 C 605.768 -1.44329 -1.48942 0
M  V30 6302 C 606.193 -0.0501579 -1.88033 0
M  V30 6303 O 605.551 0.946598 -1.54626 0
M  V30 6304 C 605.599 -2.3578 -2.72837 0
M  V30 6305 O 604.703 -1.81482 -3.70322 0
M  V30 6306 H 604.044 -0.489838 -0.44828 0
M  V30 6307 H 606.574 -1.85878 -0.855014 0
M  V30 6308 H 606.584 -2.51654 -3.21145 0
M  V30 6309 H 605.259 -3.37005 -2.43722 0
M  V30 6310 H 603.836 -1.75058 -3.29255 0
M  V30 6311 N 606.021 0.929856 -1.27246 0
M  V30 6312 C 607.432 1.49223 -1.12203 0
M  V30 6313 C 607.783 1.93989 0.293731 0
M  V30 6314 O 606.908 1.80978 1.18642 0
M  V30 6315 C 607.503 2.71198 -2.0307 0
M  V30 6316 C 606.062 3.23666 -1.92139 0
M  V30 6317 C 605.209 1.96409 -1.95752 0
M  V30 6318 H 608.16 0.744181 -1.4017 0
M  V30 6319 H 608.181 3.45905 -1.58524 0
M  V30 6320 H 607.693 2.38585 -3.06102 0
M  V30 6321 H 605.794 3.61042 -0.920834 0
M  V30 6322 H 605.907 3.90006 -2.78267 0
M  V30 6323 H 604.271 2.12806 -1.39949 0
M  V30 6324 H 605.054 1.66113 -3.00436 0
M  V30 6325 N 607.499 1.09233 1.13605 0
M  V30 6326 C 608.745 0.828385 1.8511 0
M  V30 6327 C 609.078 -0.64437 1.83198 0
M  V30 6328 O 608.353 -1.47428 1.26867 0
M  V30 6329 C 608.636 1.36167 3.33363 0
M  V30 6330 C 608.489 2.90038 3.438 0
M  V30 6331 C 609.808 0.993819 4.28732 0
M  V30 6332 H 606.927 0.30239 0.672108 0
M  V30 6333 H 609.569 1.35339 1.33355 0
M  V30 6334 H 607.719 0.9151 3.77569 0
M  V30 6335 H 609.391 3.43128 3.08319 0
M  V30 6336 H 607.634 3.27271 2.84739 0
M  V30 6337 H 608.305 3.22428 4.48045 0
M  V30 6338 H 610.781 1.37893 3.92587 0
M  V30 6339 H 609.657 1.39403 5.30903 0
M  V30 6340 H 609.918 -0.0982206 4.41991 0
M  V30 6341 N 608.977 -1.30795 0.87923 0
M  V30 6342 C 610.202 -2.01063 0.508769 0
M  V30 6343 C 610.627 -1.65508 -0.893803 0
M  V30 6344 O 609.985 -0.868616 -1.59138 0
M  V30 6345 C 610.033 -3.54054 0.683991 0
M  V30 6346 O 609.137 -4.11498 -0.272654 0
M  V30 6347 H 608.478 -0.632786 0.201191 0
M  V30 6348 H 611.008 -1.66776 1.18519 0
M  V30 6349 H 611.018 -4.03845 0.580798 0
M  V30 6350 H 609.693 -3.79271 1.70665 0
M  V30 6351 H 608.27 -3.72695 -0.12364 0
M  V30 6352 N 610.455 -0.639598 -1.44038 0
M  V30 6353 C 611.703 -0.147188 -2.01563 0
M  V30 6354 C 612.024 1.2384 -1.50628 0
M  V30 6355 O 611.294 1.82452 -0.713316 0
M  V30 6356 H 609.874 -0.0514231 -0.745228 0
M  V30 6357 H 612.536 -0.828205 -1.76428 0
M  V30 6358 H 611.632 -0.121358 -3.11864 0
M  V30 6359 N 611.933 1.52934 -0.380664 0
M  V30 6360 C 613.182 2.00651 0.205477 0
M  V30 6361 C 613.495 1.27164 1.48623 0
M  V30 6362 O 614.701 1.65547 2.15189 0
M  V30 6363 C 613.157 3.57479 0.416726 0
M  V30 6364 C 612.765 4.39857 -0.850268 0
M  V30 6365 C 614.509 4.13509 0.959702 0
M  V30 6366 C 612.416 5.88269 -0.607773 0
M  V30 6367 H 611.346 0.749684 0.0805614 0
M  V30 6368 H 613.997 1.76508 -0.501732 0
M  V30 6369 H 612.379 3.77836 1.18557 0
M  V30 6370 H 613.553 4.31269 -1.62307 0
M  V30 6371 H 611.868 3.95005 -1.31756 0
M  V30 6372 H 614.465 5.22039 1.15669 0
M  V30 6373 H 614.808 3.69054 1.92626 0
M  V30 6374 H 615.341 3.9701 0.250645 0
M  V30 6375 H 612.08 6.3703 -1.54509 0
M  V30 6376 H 611.6 5.99667 0.126247 0
M  V30 6377 H 613.279 6.46558 -0.239014 0
M  V30 6378 N 613.412 0.11024 1.57214 0
M  V30 6379 C 614.342 -0.840002 2.17867 0
M  V30 6380 C 615.323 -1.28352 1.11624 0
M  V30 6381 O 616.508 -1.3477 1.39824 0
M  V30 6382 C 613.638 -2.09349 2.77111 0
M  V30 6383 C 612.592 -1.78807 3.8886 0
M  V30 6384 C 611.918 -3.11112 4.34872 0
M  V30 6385 C 613.218 -1.0632 5.11364 0
M  V30 6386 H 614.912 -0.334608 2.97524 0
M  V30 6387 H 612.458 -0.159502 1.43114 0
M  V30 6388 H 614.411 -2.76275 3.18198 0
M  V30 6389 H 613.135 -2.62198 1.9473 0
M  V30 6390 H 611.794 -1.14273 3.48335 0
M  V30 6391 H 611.442 -3.61877 3.49362 0
M  V30 6392 H 611.142 -2.91453 5.10224 0
M  V30 6393 H 612.666 -3.79171 4.78604 0
M  V30 6394 H 614.08 -1.63383 5.49526 0
M  V30 6395 H 612.477 -0.967876 5.92243 0
M  V30 6396 H 613.547 -0.0484569 4.84876 0
M  V30 6397 N 614.89 -1.56749 -0.16351 0
M  V30 6398 C 616.137 -1.82434 -0.878866 0
M  V30 6399 C 616.465 -0.688557 -1.81904 0
M  V30 6400 O 615.72 0.323644 -1.93005 0
M  V30 6401 C 616.019 -3.14342 -1.70071 0
M  V30 6402 C 615.685 -4.41647 -0.908775 0
M  V30 6403 C 614.347 -4.76224 -0.690236 0
M  V30 6404 C 616.699 -5.19998 -0.353815 0
M  V30 6405 C 614.027 -5.86624 0.0942374 0
M  V30 6406 C 616.379 -6.3122 0.41761 0
M  V30 6407 C 615.043 -6.64358 0.646879 0
M  V30 6408 H 614.313 -0.667574 -0.3216 0
M  V30 6409 H 616.96 -1.90963 -0.14337 0
M  V30 6410 H 615.265 -3.0119 -2.50583 0
M  V30 6411 H 616.962 -3.31426 -2.25738 0
M  V30 6412 H 613.552 -4.1453 -1.08916 0
M  V30 6413 H 617.736 -4.93673 -0.509975 0
M  V30 6414 H 612.992 -6.10751 0.281529 0
M  V30 6415 H 617.166 -6.91133 0.854849 0
M  V30 6416 H 614.793 -7.49742 1.25662 0
M  V30 6417 N 616.368 0.432326 -1.51554 0
M  V30 6418 C 617.316 1.54572 -1.73811 0
M  V30 6419 C 618.31 1.58246 -0.604539 0
M  V30 6420 O 619.516 1.6193 -0.786041 0
M  V30 6421 H 615.891 0.513626 -0.549265 0
M  V30 6422 H 617.862 1.32977 -2.67132 0
M  V30 6423 C 616.611 2.92181 -1.88483 0
M  V30 6424 H 615.934 2.90088 -2.75116 0
M  V30 6425 H 617.374 3.69439 -2.08065 0
M  V30 6426 C 615.833 3.3065 -0.645909 0
M  V30 6427 O 616.363 4.01216 0.197093 0
M  V30 6428 N 614.569 2.86464 -0.488538 0
M  V30 6429 H 614.116 2.29209 -1.17562 0
M  V30 6430 H 614.074 3.12565 0.339156 0
M  V30 6431 N 617.846 1.41785 0.688094 0
M  V30 6432 C 618.794 1.44436 1.82321 0
M  V30 6433 C 619.788 0.321544 1.6632 0
M  V30 6434 O 620.994 0.493931 1.73091 0
M  V30 6435 H 617.369 0.452084 0.600936 0
M  V30 6436 H 619.34 2.40087 1.77202 0
M  V30 6437 C 618.089 1.35071 3.20392 0
M  V30 6438 H 617.412 2.2076 3.33324 0
M  V30 6439 H 618.852 1.40988 3.99873 0
M  V30 6440 C 617.311 0.0639127 3.36839 0
M  V30 6441 O 617.841 -0.888495 3.91751 0
M  V30 6442 N 616.047 -0.0146114 2.90596 0
M  V30 6443 H 615.594 0.761191 2.46097 0
M  V30 6444 H 615.552 -0.874988 3.01979 0
M  V30 6445 N 619.324 -0.923095 1.27737 0
M  V30 6446 C 620.234 -2.05765 1.12685 0
M  V30 6447 C 621.25 -1.73911 0.0557197 0
M  V30 6448 O 622.426 -1.99674 0.263137 0
M  V30 6449 C 619.491 -3.37804 0.780363 0
M  V30 6450 C 618.552 -3.83326 1.93286 0
M  V30 6451 C 617.785 -5.09064 1.60281 0
M  V30 6452 O 618.008 -5.6809 0.512828 0
M  V30 6453 O 616.942 -5.50071 2.44347 0
M  V30 6454 H 620.768 -2.21378 2.07907 0
M  V30 6455 H 618.353 -1.04299 1.06968 0
M  V30 6456 H 620.235 -4.17097 0.600668 0
M  V30 6457 H 618.91 -3.23387 -0.142291 0
M  V30 6458 H 617.817 -3.049 2.16764 0
M  V30 6459 H 619.15 -4.02292 2.83588 0
M  V30 6460 N 620.802 -1.09834 -1.13024 0
M  V30 6461 C 621.735 -0.685453 -2.17662 0
M  V30 6462 C 622.713 0.310142 -1.59615 0
M  V30 6463 O 623.897 0.21052 -1.87321 0
M  V30 6464 C 621.024 -0.0104476 -3.38698 0
M  V30 6465 C 620.07 -0.968522 -4.15358 0
M  V30 6466 S 620.903 -2.48272 -4.74469 0
M  V30 6467 C 622.059 -1.82025 -5.98847 0
M  V30 6468 H 622.292 -1.57187 -2.52348 0
M  V30 6469 H 619.825 -0.914728 -1.24387 0
M  V30 6470 H 621.783 0.372694 -4.08805 0
M  V30 6471 H 620.444 0.852673 -3.02305 0
M  V30 6472 H 619.637 -0.443373 -5.02046 0
M  V30 6473 H 619.239 -1.29327 -3.50928 0
M  V30 6474 H 621.531 -1.14678 -6.67724 0
M  V30 6475 H 622.474 -2.66645 -6.55977 0
M  V30 6476 H 622.882 -1.2874 -5.49624 0
M  V30 6477 N 622.28 1.30327 -0.886154 0
M  V30 6478 C 623.557 1.90922 -0.425217 0
M  V30 6479 C 623.937 1.80533 1.09413 0
M  V30 6480 O 623.285 1.2233 1.92996 0
M  V30 6481 C 623.495 3.36529 -0.924638 0
M  V30 6482 C 624.843 4.13598 -0.960305 0
M  V30 6483 O 625.867 3.45377 -0.871382 0
M  V30 6484 O 624.726 5.35482 -1.09184 0
M  V30 6485 H 621.82 0.81668 -0.130238 0
M  V30 6486 H 624.366 1.38886 -0.975132 0
M  V30 6487 H 623.138 3.38181 -1.96849 0
M  V30 6488 H 622.761 3.96021 -0.353955 0
M  V30 6489 N 623.758 0.647228 1.43697 0
M  V30 6490 C 625.035 0.0883758 1.954 0
M  V30 6491 C 625.415 -1.39006 1.58873 0
M  V30 6492 O 624.763 -2.11255 0.87083 0
M  V30 6493 C 624.973 0.328263 3.47453 0
M  V30 6494 C 626.321 0.230009 4.23977 0
M  V30 6495 O 627.345 0.260496 3.55246 0
M  V30 6496 O 626.204 0.148615 5.46298 0
M  V30 6497 H 623.298 -0.0130683 0.826897 0
M  V30 6498 H 625.844 0.72005 1.53666 0
M  V30 6499 H 624.616 1.3535 3.67146 0
M  V30 6500 H 624.239 -0.336772 3.96171 0
M  V30 6501 N 625.236 -1.5273 0.388769 0
M  V30 6502 C 626.483 -2.01573 -0.19359 0
M  V30 6503 C 626.811 -1.27525 -1.46859 0
M  V30 6504 O 626.066 -0.363926 -1.92286 0
M  V30 6505 C 626.365 -3.53765 -0.508445 0
M  V30 6506 C 626.031 -4.4582 0.674947 0
M  V30 6507 C 624.693 -4.70703 0.999596 0
M  V30 6508 C 627.045 -5.00138 1.46666 0
M  V30 6509 C 624.373 -5.47155 2.11751 0
M  V30 6510 C 626.725 -5.77812 2.57518 0
M  V30 6511 C 625.389 -6.00975 2.90492 0
M  V30 6512 H 624.659 -0.737606 -0.0708397 0
M  V30 6513 H 627.306 -1.84134 0.526006 0
M  V30 6514 H 625.611 -3.69274 -1.30936 0
M  V30 6515 H 627.308 -3.8905 -0.971664 0
M  V30 6516 H 623.898 -4.26616 0.411906 0
M  V30 6517 H 628.082 -4.8084 1.22909 0
M  V30 6518 H 623.338 -5.63314 2.3767 0
M  V30 6519 H 627.512 -6.18904 3.19267 0
M  V30 6520 H 625.139 -6.59998 3.77236 0
M  V30 6521 N 626.714 -0.118576 -1.57153 0
M  V30 6522 C 627.939 0.550582 -1.99958 0
M  V30 6523 C 628.364 1.59458 -0.997736 0
M  V30 6524 O 627.722 1.81274 0.0306269 0
M  V30 6525 C 627.77 1.15379 -3.41643 0
M  V30 6526 O 626.874 2.26932 -3.44348 0
M  V30 6527 H 626.215 0.137567 -0.649593 0
M  V30 6528 H 628.745 -0.206926 -2.03551 0
M  V30 6529 H 628.755 1.48942 -3.79843 0
M  V30 6530 H 627.43 0.389087 -4.14076 0
M  V30 6531 H 626.007 1.94812 -3.17967 0
M  V30 6532 N 628.193 1.56834 0.155195 0
M  V30 6533 C 629.418 1.87412 0.888337 0
M  V30 6534 C 629.843 0.70671 1.74319 0
M  V30 6535 O 629.201 -0.343892 1.78009 0
M  V30 6536 C 629.249 3.1652 1.72765 0
M  V30 6537 O 628.353 2.99877 2.83103 0
M  V30 6538 H 627.694 0.615983 0.247914 0
M  V30 6539 H 630.224 2.04061 0.148478 0
M  V30 6540 H 630.234 3.48334 2.12433 0
M  V30 6541 H 628.909 4.01094 1.09985 0
M  V30 6542 H 627.486 2.79453 2.46902 0
M  V30 6543 N 629.671 -0.424282 1.51781 0
M  V30 6544 C 631.082 -1.00368 1.57427 0
M  V30 6545 C 631.433 -1.91962 0.40558 0
M  V30 6546 O 630.558 -2.111 -0.47601 0
M  V30 6547 C 631.153 -1.82707 2.85313 0
M  V30 6548 C 629.712 -2.35675 2.93487 0
M  V30 6549 C 628.859 -1.1524 2.5222 0
M  V30 6550 H 631.81 -0.205064 1.5737 0
M  V30 6551 H 631.831 -2.68294 2.69812 0
M  V30 6552 H 631.343 -1.16017 3.70353 0
M  V30 6553 H 629.444 -3.05781 2.12906 0
M  V30 6554 H 629.557 -2.67578 3.97415 0
M  V30 6555 H 627.921 -1.50174 2.05718 0
M  V30 6556 H 628.704 -0.5014 3.39619 0
M  V30 6557 N 631.149 -1.42148 -0.680565 0
M  V30 6558 C 632.374 -1.45901 -1.47403 0
M  V30 6559 C 632.799 -0.0700985 -1.87969 0
M  V30 6560 O 632.157 0.930145 -1.55621 0
M  V30 6561 C 632.205 -2.38661 -2.70321 0
M  V30 6562 O 631.309 -1.85399 -3.68376 0
M  V30 6563 H 630.65 -0.494565 -0.443059 0
M  V30 6564 H 633.18 -1.86774 -0.835251 0
M  V30 6565 H 633.19 -2.55046 -3.18458 0
M  V30 6566 H 631.865 -3.39571 -2.40134 0
M  V30 6567 H 630.442 -1.78541 -3.2738 0
M  V30 6568 N 632.627 0.916307 -1.28225 0
M  V30 6569 C 633.876 1.65975 -1.14608 0
M  V30 6570 C 634.189 1.93204 0.305191 0
M  V30 6571 O 635.395 2.65611 0.562432 0
M  V30 6572 C 633.851 2.98989 -2.00333 0
M  V30 6573 C 633.459 2.79417 -3.50186 0
M  V30 6574 C 635.203 3.76856 -1.95397 0
M  V30 6575 C 633.11 4.08056 -4.28071 0
M  V30 6576 H 632.04 0.622587 -0.425324 0
M  V30 6577 H 634.691 1.01705 -1.52736 0
M  V30 6578 H 633.073 3.6438 -1.5506 0
M  V30 6579 H 634.247 2.22723 -4.034 0
M  V30 6580 H 632.562 2.14966 -3.56621 0
M  V30 6581 H 635.159 4.72203 -2.50856 0
M  V30 6582 H 635.502 4.05776 -0.930137 0
M  V30 6583 H 636.035 3.1828 -2.38626 0
M  V30 6584 H 632.774 3.8431 -5.31024 0
M  V30 6585 H 632.294 4.64371 -3.79631 0
M  V30 6586 H 633.973 4.76333 -4.37854 0
M  V30 6587 N 634.105 1.10431 1.1244 0
M  V30 6588 C 635.333 0.868872 1.87772 0
M  V30 6589 C 635.748 -0.580645 1.7965 0
M  V30 6590 O 635.105 -1.40031 1.17036 0
M  V30 6591 C 635.156 1.30855 3.36986 0
M  V30 6592 O 634.877 2.70123 3.44914 0
M  V30 6593 C 636.378 1.107 4.29256 0
M  V30 6594 H 633.598 0.311868 0.59412 0
M  V30 6595 H 636.142 1.46897 1.42273 0
M  V30 6596 H 634.297 0.752126 3.80029 0
M  V30 6597 H 634.711 2.88923 4.37748 0
M  V30 6598 H 636.185 1.46378 5.32238 0
M  V30 6599 H 636.662 0.0456228 4.39176 0
M  V30 6600 H 637.268 1.64988 3.91994 0
M  V30 6601 N 635.583 -1.29855 0.893053 0
M  V30 6602 C 636.531 -2.29867 0.355512 0
M  V30 6603 C 637.525 -1.60502 -0.541801 0
M  V30 6604 O 638.731 -1.74902 -0.425339 0
M  V30 6605 H 635.106 -0.745805 0.0963247 0
M  V30 6606 H 637.077 -2.72655 1.21252 0
M  V30 6607 C 635.826 -3.453 -0.407801 0
M  V30 6608 H 635.149 -3.98864 0.273426 0
M  V30 6609 H 636.589 -4.17334 -0.748887 0
M  V30 6610 C 635.048 -2.96051 -1.60795 0
M  V30 6611 O 635.578 -2.96763 -2.7073 0
M  V30 6612 N 633.784 -2.51963 -1.44786 0
M  V30 6613 H 633.331 -2.51583 -0.553498 0
M  V30 6614 H 633.289 -2.1937 -2.2522 0
M  V30 6615 N 637.061 -0.65484 -1.43351 0
M  V30 6616 C 637.971 0.0363603 -2.34572 0
M  V30 6617 C 638.987 0.810432 -1.53974 0
M  V30 6618 O 640.163 0.757308 -1.86619 0
M  V30 6619 C 637.228 0.989733 -3.32273 0
M  V30 6620 C 636.289 0.212414 -4.28774 0
M  V30 6621 C 635.522 1.12038 -5.21808 0
M  V30 6622 O 635.745 2.35967 -5.19303 0
M  V30 6623 O 634.679 0.59191 -5.98982 0
M  V30 6624 H 638.505 -0.714527 -2.95175 0
M  V30 6625 H 636.09 -0.415029 -1.4352 0
M  V30 6626 H 637.972 1.53759 -3.92347 0
M  V30 6627 H 636.647 1.72082 -2.74171 0
M  V30 6628 H 635.554 -0.379062 -3.72175 0
M  V30 6629 H 636.887 -0.479138 -4.89862 0
M  V30 6630 N 638.539 1.52521 -0.396863 0
M  V30 6631 C 639.786 2.01672 0.182898 0
M  V30 6632 C 640.114 1.28302 1.46181 0
M  V30 6633 O 639.369 0.374118 1.92091 0
M  V30 6634 C 639.668 3.5403 0.489677 0
M  V30 6635 C 639.334 4.45456 -0.698581 0
M  V30 6636 C 637.996 4.70166 -1.02454 0
M  V30 6637 C 640.348 4.99354 -1.49316 0
M  V30 6638 C 637.676 5.46024 -2.1465 0
M  V30 6639 C 640.028 5.76439 -2.60579 0
M  V30 6640 C 638.692 5.99426 -2.93675 0
M  V30 6641 H 637.962 0.737971 0.066927 0
M  V30 6642 H 640.609 1.83853 -0.535764 0
M  V30 6643 H 638.914 3.69963 1.28976 0
M  V30 6644 H 640.611 3.8956 0.951018 0
M  V30 6645 H 637.201 4.26392 -0.434525 0
M  V30 6646 H 641.385 4.80182 -1.25457 0
M  V30 6647 H 636.641 5.62046 -2.40654 0
M  V30 6648 H 640.815 6.17202 -3.22544 0
M  V30 6649 H 638.442 6.57988 -3.80731 0
M  V30 6650 N 640.017 0.126909 1.57088 0
M  V30 6651 C 641.265 -0.528123 1.95078 0
M  V30 6652 C 641.586 -1.66708 1.0116 0
M  V30 6653 O 640.856 -1.95777 0.0693527 0
M  V30 6654 H 639.436 -0.198087 0.720257 0
M  V30 6655 H 642.098 0.197703 1.93895 0
M  V30 6656 H 641.194 -0.917507 2.98309 0
M  V30 6657 N 641.495 -1.56914 -0.146875 0
M  V30 6658 C 642.741 -1.83628 -0.860741 0
M  V30 6659 C 643.074 -0.708528 -1.80813 0
M  V30 6660 O 642.349 0.287838 -1.92358 0
M  V30 6661 C 642.632 -3.20836 -1.63511 0
M  V30 6662 C 642.485 -4.44174 -0.709199 0
M  V30 6663 C 643.804 -3.55268 -2.59756 0
M  V30 6664 H 640.923 -0.667949 -0.311468 0
M  V30 6665 H 643.565 -1.89582 -0.125936 0
M  V30 6666 H 641.715 -3.15891 -2.26153 0
M  V30 6667 H 643.387 -4.61205 -0.0937781 0
M  V30 6668 H 641.63 -4.33796 -0.0187856 0
M  V30 6669 H 642.301 -5.36785 -1.28707 0
M  V30 6670 H 644.777 -3.60824 -2.07232 0
M  V30 6671 H 643.653 -4.52303 -3.10987 0
M  V30 6672 H 643.914 -2.81231 -3.41118 0
M  V30 6673 N 642.974 0.416227 -1.52004 0
M  V30 6674 C 644.385 0.995319 -1.57957 0
M  V30 6675 C 644.736 1.91744 -0.415754 0
M  V30 6676 O 643.861 2.11349 0.464808 0
M  V30 6677 C 644.456 1.81191 -2.86278 0
M  V30 6678 C 643.015 2.34115 -2.94732 0
M  V30 6679 C 642.162 1.139 -2.52828 0
M  V30 6680 H 645.113 0.196716 -1.57476 0
M  V30 6681 H 645.134 2.66859 -2.71231 0
M  V30 6682 H 644.646 1.14051 -3.70963 0
M  V30 6683 H 642.747 3.04647 -2.14525 0
M  V30 6684 H 642.86 2.65466 -3.98829 0
M  V30 6685 H 641.224 1.49081 -2.06511 0
M  V30 6686 H 642.007 0.483383 -3.3988 0
M  V30 6687 N 644.452 1.42507 0.673017 0
M  V30 6688 C 645.863 1.38347 1.25367 0
M  V30 6689 C 646.214 0.0776327 1.96046 0
M  V30 6690 O 645.339 -0.823571 2.00116 0
M  V30 6691 C 645.934 2.506 2.28002 0
M  V30 6692 C 644.493 2.49767 2.81591 0
M  V30 6693 C 643.64 2.293 1.55938 0
M  V30 6694 H 646.591 1.51695 0.466288 0
M  V30 6695 H 646.612 2.20953 3.09774 0
M  V30 6696 H 646.124 3.45627 1.76532 0
M  V30 6697 H 644.225 1.58563 3.37177 0
M  V30 6698 H 644.338 3.46867 3.30485 0
M  V30 6699 H 642.702 1.77594 1.82572 0
M  V30 6700 H 643.485 3.26385 1.06431 0
M  V30 6701 N 645.93 -0.909495 1.28709 0
M  V30 6702 C 647.155 -1.69801 1.1909 0
M  V30 6703 C 647.58 -1.86479 -0.246388 0
M  V30 6704 O 646.938 -1.37802 -1.17815 0
M  V30 6705 C 646.986 -3.06543 1.89904 0
M  V30 6706 O 646.09 -3.94268 1.2094 0
M  V30 6707 H 645.431 -0.519783 0.413185 0
M  V30 6708 H 647.961 -1.13689 1.70106 0
M  V30 6709 H 647.971 -3.56748 1.97977 0
M  V30 6710 H 646.646 -2.93722 2.94449 0
M  V30 6711 H 645.223 -3.52702 1.2106 0
M  V30 6712 N 647.408 -1.11026 -1.11852 0
M  V30 6713 C 648.819 -0.873203 -1.65021 0
M  V30 6714 C 649.17 0.595364 -1.86949 0
M  V30 6715 O 648.295 1.45645 -1.60051 0
M  V30 6716 C 648.89 -1.57859 -2.99777 0
M  V30 6717 C 647.449 -1.38807 -3.49871 0
M  V30 6718 C 646.596 -1.62403 -2.24768 0
M  V30 6719 H 649.547 -1.26712 -0.955503 0
M  V30 6720 H 649.568 -1.02111 -3.66543 0
M  V30 6721 H 649.08 -2.6474 -2.83786 0
M  V30 6722 H 647.181 -0.341163 -3.71035 0
M  V30 6723 H 647.294 -2.13421 -4.28938 0
M  V30 6724 H 645.658 -1.04714 -2.32179 0
M  V30 6725 H 646.441 -2.70549 -2.11324 0
M  V30 6726 N 648.886 1.2938 -0.899927 0
M  V30 6727 C 649.849 2.25983 -0.382677 0
M  V30 6728 C 650.849 1.53366 0.483259 0
M  V30 6729 O 652.039 1.71798 0.28828 0
M  V30 6730 C 649.171 3.37878 0.452915 0
M  V30 6731 H 650.364 2.73252 -1.23586 0
M  V30 6732 H 647.917 1.40825 -0.678088 0
M  V30 6733 H 648.652 2.95949 1.32608 0
M  V30 6734 H 648.437 3.91742 -0.167562 0
M  V30 6735 H 649.927 4.09746 0.806107 0
M  V30 6736 N 650.364 0.662433 1.43002 0
M  V30 6737 C 651.312 -0.035345 2.32573 0
M  V30 6738 C 652.306 -0.803505 1.49131 0
M  V30 6739 O 653.512 -0.712865 1.65282 0
M  V30 6740 H 649.887 -0.0302194 0.751393 0
M  V30 6741 H 651.858 0.737686 2.89138 0
M  V30 6742 C 650.607 -0.981575 3.33557 0
M  V30 6743 H 649.93 -0.399914 3.97795 0
M  V30 6744 H 651.37 -1.43873 3.98844 0
M  V30 6745 C 649.829 -2.08204 2.64863 0
M  V30 6746 O 650.359 -3.16698 2.47113 0
M  V30 6747 N 648.565 -1.85022 2.24088 0
M  V30 6748 H 648.112 -0.967909 2.38724 0
M  V30 6749 H 648.07 -2.58845 1.78457 0
M  V30 6750 N 651.842 -1.52309 0.404946 0
M  V30 6751 C 653.089 -2.01767 -0.1722 0
M  V30 6752 C 653.417 -1.29075 -1.45498 0
M  V30 6753 O 652.672 -0.3843 -1.9189 0
M  V30 6754 C 652.971 -3.54284 -0.470895 0
M  V30 6755 C 652.637 -4.45079 0.722194 0
M  V30 6756 C 651.299 -4.69617 1.04946 0
M  V30 6757 C 653.651 -4.98555 1.51962 0
M  V30 6758 C 650.979 -5.44878 2.17543 0
M  V30 6759 C 653.331 -5.75049 2.63632 0
M  V30 6760 C 651.995 -5.9786 2.9685 0
M  V30 6761 H 651.265 -0.738316 -0.0630125 0
M  V30 6762 H 653.912 -1.83566 0.545506 0
M  V30 6763 H 652.217 -3.70642 -1.27012 0
M  V30 6764 H 653.914 -3.90058 -0.930346 0
M  V30 6765 H 650.504 -4.26155 0.457131 0
M  V30 6766 H 654.688 -4.79509 1.28002 0
M  V30 6767 H 649.944 -5.60762 2.43631 0
M  V30 6768 H 654.118 -6.15483 3.25813 0
M  V30 6769 H 651.745 -6.5596 3.84215 0
M  V30 6770 N 653.32 -0.135238 -1.57019 0
M  V30 6771 C 654.569 0.518694 -1.94917 0
M  V30 6772 C 654.882 1.66783 -1.0219 0
M  V30 6773 O 656.088 2.38561 -1.29619 0
M  V30 6774 C 654.544 0.974123 -3.46466 0
M  V30 6775 C 654.152 -0.147439 -4.47757 0
M  V30 6776 C 655.896 1.59851 -3.93253 0
M  V30 6777 C 653.803 0.325599 -5.90503 0
M  V30 6778 H 652.733 0.19754 -0.727663 0
M  V30 6779 H 655.384 -0.217698 -1.82204 0
M  V30 6780 H 653.766 1.76542 -3.5447 0
M  V30 6781 H 654.94 -0.924122 -4.51438 0
M  V30 6782 H 653.255 -0.679496 -4.10818 0
M  V30 6783 H 655.852 1.96385 -4.9733 0
M  V30 6784 H 656.195 2.48306 -3.3414 0
M  V30 6785 H 656.728 0.872323 -3.88118 0
M  V30 6786 H 653.467 -0.523295 -6.53408 0
M  V30 6787 H 652.987 1.06841 -5.90208 0
M  V30 6788 H 654.666 0.781498 -6.42263 0
M  V30 6789 N 654.798 1.5699 0.138552 0
M  V30 6790 C 655.73 1.95515 1.1961 0
M  V30 6791 C 656.743 0.852002 1.38726 0
M  V30 6792 O 657.932 1.13038 1.38147 0
M  V30 6793 C 655.032 2.2213 2.55952 0
M  V30 6794 C 654.205 3.53424 2.57702 0
M  V30 6795 C 653.264 3.6848 3.75645 0
M  V30 6796 O 652.29 4.4079 3.60129 0
M  V30 6797 N 653.492 3.05777 4.93438 0
M  V30 6798 H 656.257 2.86838 0.868557 0
M  V30 6799 H 653.818 1.58542 0.328033 0
M  V30 6800 H 655.81 2.29435 3.33379 0
M  V30 6801 H 654.38 1.3703 2.80965 0
M  V30 6802 H 653.6 3.57484 1.6613 0
M  V30 6803 H 654.888 4.39759 2.55909 0
M  V30 6804 H 654.286 2.46961 5.08947 0
M  V30 6805 H 652.843 3.18631 5.6861 0
M  V30 6806 N 656.276 -0.40816 1.52223 0
M  V30 6807 C 657.687 -0.986929 1.58482 0
M  V30 6808 C 658.038 -1.91521 0.425917 0
M  V30 6809 O 657.163 -2.11593 -0.453593 0
M  V30 6810 C 657.758 -1.7967 2.87235 0
M  V30 6811 C 656.317 -2.32549 2.9597 0
M  V30 6812 C 655.464 -1.12558 2.53428 0
M  V30 6813 H 658.415 -0.188362 1.57578 0
M  V30 6814 H 658.436 -2.65417 2.72642 0
M  V30 6815 H 657.948 -1.12082 3.71563 0
M  V30 6816 H 656.049 -3.03505 2.16137 0
M  V30 6817 H 656.162 -2.63348 4.00231 0
M  V30 6818 H 654.526 -1.47984 2.07299 0
M  V30 6819 H 655.309 -0.465351 3.40131 0
M  V30 6820 N 657.755 -1.42862 -0.66545 0
M  V30 6821 C 659.003 -1.43546 -1.42264 0
M  V30 6822 C 659.324 -0.0563116 -1.94919 0
M  V30 6823 O 658.594 0.906568 -1.73661 0
M  V30 6824 H 657.174 -0.528464 -0.527953 0
M  V30 6825 H 659.836 -1.78363 -0.785665 0
M  V30 6826 H 658.932 -2.14079 -2.27105 0
M  V30 6827 N 659.233 0.902656 -1.29189 0
M  V30 6828 C 660.18 2.00643 -1.14066 0
M  V30 6829 C 661.15 1.66064 -0.0347756 0
M  V30 6830 O 662.335 1.8973 -0.201752 0
M  V30 6831 C 659.475 3.35214 -0.820104 0
M  V30 6832 C 658.588 3.82594 -2.00614 0
M  V30 6833 C 657.723 5.05727 -1.62522 0
M  V30 6834 C 656.762 5.45469 -2.77724 0
M  V30 6835 N 655.899 6.59789 -2.40048 0
M  V30 6836 H 660.739 2.1291 -2.08502 0
M  V30 6837 H 658.276 1.04271 -1.03759 0
M  V30 6838 H 660.234 4.12643 -0.614949 0
M  V30 6839 H 658.864 3.22682 0.0873452 0
M  V30 6840 H 657.916 3.01226 -2.32308 0
M  V30 6841 H 659.228 4.07999 -2.86946 0
M  V30 6842 H 658.382 5.90732 -1.38277 0
M  V30 6843 H 657.121 4.82155 -0.733333 0
M  V30 6844 H 656.126 4.59 -3.02653 0
M  V30 6845 H 657.351 5.71024 -3.67572 0
M  V30 6846 H 655.297 6.37826 -1.53343 0
M  V30 6847 H 655.214 6.84975 -3.19914 0
M  V30 6848 H 656.482 7.4807 -2.19116 0
M  V30 6849 N 660.711 1.11618 1.11262 0
M  V30 6850 C 661.643 0.734015 2.17129 0
M  V30 6851 C 662.656 -0.235243 1.61091 0
M  V30 6852 O 663.845 -0.0178597 1.78491 0
M  V30 6853 C 660.945 0.0643682 3.38839 0
M  V30 6854 C 660.118 1.06092 4.24339 0
M  V30 6855 C 659.177 0.420482 5.24517 0
M  V30 6856 O 658.203 1.07495 5.58957 0
M  V30 6857 N 659.405 -0.815828 5.74739 0
M  V30 6858 H 662.17 1.64492 2.50524 0
M  V30 6859 H 659.731 1.00664 1.26801 0
M  V30 6860 H 661.723 -0.375851 4.02951 0
M  V30 6861 H 660.293 -0.749147 3.03491 0
M  V30 6862 H 659.513 1.67903 3.56654 0
M  V30 6863 H 660.801 1.73507 4.78302 0
M  V30 6864 H 660.199 -1.36668 5.48943 0
M  V30 6865 H 658.756 -1.199 6.40677 0
M  V30 6866 N 662.189 -1.289 0.906776 0
M  V30 6867 C 663.6 -1.77336 0.58384 0
M  V30 6868 C 663.951 -1.74304 -0.900697 0
M  V30 6869 O 663.076 -1.33335 -1.70443 0
M  V30 6870 C 663.671 -3.22019 1.05304 0
M  V30 6871 C 662.23 -3.68205 0.781148 0
M  V30 6872 C 661.377 -2.48837 1.22373 0
M  V30 6873 H 664.328 -1.15462 1.08877 0
M  V30 6874 H 664.349 -3.78481 0.391414 0
M  V30 6875 H 663.861 -3.24194 2.13353 0
M  V30 6876 H 661.962 -3.71497 -0.28643 0
M  V30 6877 H 662.075 -4.58675 1.384 0
M  V30 6878 H 660.439 -2.46461 0.642594 0
M  V30 6879 H 661.222 -2.53736 2.31242 0
M  V30 6880 N 663.667 -0.670007 -1.42649 0
M  V30 6881 C 664.597 -0.00258501 -2.335 0
M  V30 6882 C 665.578 0.794364 -1.50412 0
M  V30 6883 O 666.763 0.75248 -1.79029 0
M  V30 6884 C 663.893 0.952748 -3.33976 0
M  V30 6885 C 662.847 0.264733 -4.2718 0
M  V30 6886 C 662.173 1.33267 -5.17826 0
M  V30 6887 C 663.473 -0.853289 -5.15283 0
M  V30 6888 H 665.167 -0.761326 -2.89559 0
M  V30 6889 H 662.713 -0.367561 -1.3923 0
M  V30 6890 H 664.666 1.4287 -3.96442 0
M  V30 6891 H 663.39 1.74285 -2.7621 0
M  V30 6892 H 662.049 -0.190938 -3.66102 0
M  V30 6893 H 661.697 2.11464 -4.5639 0
M  V30 6894 H 661.397 0.877476 -5.81011 0
M  V30 6895 H 662.921 1.80965 -5.83167 0
M  V30 6896 H 664.335 -0.458763 -5.71462 0
M  V30 6897 H 662.732 -1.23398 -5.87276 0
M  V30 6898 H 663.802 -1.70412 -4.53969 0
M  V30 6899 N 665.145 1.52092 -0.413018 0
M  V30 6900 C 666.37 2.06756 0.163338 0
M  V30 6901 C 666.795 1.28073 1.37764 0
M  V30 6902 O 666.153 0.312015 1.78595 0
M  V30 6903 C 666.201 3.57278 0.488322 0
M  V30 6904 O 665.305 3.80986 1.57871 0
M  V30 6905 H 664.646 0.663882 0.0125068 0
M  V30 6906 H 667.176 1.95988 -0.587339 0
M  V30 6907 H 667.186 4.01125 0.745836 0
M  V30 6908 H 665.861 4.13978 -0.399327 0
M  V30 6909 H 664.438 3.49017 1.31306 0
M  V30 6910 N 666.623 0.143563 1.56945 0
M  V30 6911 C 667.848 -0.518701 2.00809 0
M  V30 6912 C 668.273 -1.5785 1.02298 0
M  V30 6913 O 667.631 -1.813 -0.0017839 0
M  V30 6914 C 667.679 -1.09929 3.43436 0
M  V30 6915 O 666.783 -2.21425 3.47915 0
M  V30 6916 H 666.124 -0.127215 0.6517 0
M  V30 6917 H 668.654 0.239283 2.03196 0
M  V30 6918 H 668.664 -1.4288 3.82164 0
M  V30 6919 H 667.339 -0.323162 4.14643 0
M  V30 6920 H 665.916 -1.89728 3.21026 0
M  V30 6921 N 668.101 -1.57061 -0.130224 0
M  V30 6922 C 669.034 -1.94698 -1.19029 0
M  V30 6923 C 670.012 -0.815074 -1.40696 0
M  V30 6924 O 671.196 -1.07223 -1.55034 0
M  V30 6925 C 668.323 -2.23352 -2.5462 0
M  V30 6926 C 667.369 -3.45945 -2.49448 0
M  V30 6927 S 668.202 -4.98927 -1.94505 0
M  V30 6928 C 669.358 -5.30721 -3.31792 0
M  V30 6929 H 669.591 -2.84308 -0.869272 0
M  V30 6930 H 667.124 -1.50688 -0.336531 0
M  V30 6931 H 669.082 -2.40539 -3.32643 0
M  V30 6932 H 667.743 -1.34376 -2.83905 0
M  V30 6933 H 666.936 -3.63324 -3.49302 0
M  V30 6934 H 666.538 -3.28086 -1.79543 0
M  V30 6935 H 668.83 -5.25215 -4.27966 0
M  V30 6936 H 669.773 -6.32048 -3.19251 0
M  V30 6937 H 670.181 -4.5821 -3.29703 0
M  V30 6938 N 669.579 0.400081 -1.52437 0
M  V30 6939 C 670.819 1.15526 -1.68622 0
M  V30 6940 C 671.183 1.87533 -0.411744 0
M  V30 6941 O 672.384 2.6501 -0.449804 0
M  V30 6942 C 670.655 2.11618 -2.88015 0
M  V30 6943 S 672.214 2.95121 -3.24729 0
M  V30 6944 H 669.032 0.39123 -0.593683 0
M  V30 6945 H 671.634 0.441255 -1.90455 0
M  V30 6946 H 670.338 1.5742 -3.79008 0
M  V30 6947 H 669.869 2.87544 -2.68481 0
M  V30 6948 H 671.884 4.13653 -2.74055 0
M  V30 6949 N 671.057 1.43213 0.657864 0
M  V30 6950 C 672.468 1.39669 1.23893 0
M  V30 6951 C 672.819 0.0984217 1.95953 0
M  V30 6952 O 671.944 -0.8023 2.00978 0
M  V30 6953 C 672.539 2.53004 2.25332 0
M  V30 6954 C 671.098 2.5274 2.78926 0
M  V30 6955 C 670.245 2.30941 1.53497 0
M  V30 6956 H 673.196 1.52181 0.450172 0
M  V30 6957 H 673.217 2.24226 3.07413 0
M  V30 6958 H 672.729 3.4748 1.72856 0
M  V30 6959 H 670.83 1.6213 3.35477 0
M  V30 6960 H 670.943 3.50352 3.26787 0
M  V30 6961 H 669.307 1.7952 1.80678 0
M  V30 6962 H 670.09 3.27496 1.02963 0
M  V30 6963 N 672.536 -0.895792 1.29666 0
M  V30 6964 C 673.764 -1.68001 1.20761 0
M  V30 6965 C 674.179 -1.87379 -0.231187 0
M  V30 6966 O 673.536 -1.41359 -1.15429 0
M  V30 6967 C 673.587 -3.06236 1.92098 0
M  V30 6968 O 673.308 -2.8774 3.30359 0
M  V30 6969 C 674.809 -4.00652 1.89717 0
M  V30 6970 H 672.029 -0.524591 0.418384 0
M  V30 6971 H 674.573 -1.11995 1.71106 0
M  V30 6972 H 672.728 -3.59007 1.45578 0
M  V30 6973 H 673.142 -3.75359 3.66342 0
M  V30 6974 H 674.616 -4.95051 2.44189 0
M  V30 6975 H 675.093 -4.30424 0.873595 0
M  V30 6976 H 675.699 -3.53815 2.35998 0
M  V30 6977 N 674.014 -1.12206 -1.10668 0
M  V30 6978 C 675.263 -0.870595 -1.81944 0
M  V30 6979 C 675.576 0.605447 -1.85994 0
M  V30 6980 O 676.782 0.973433 -2.53449 0
M  V30 6981 C 675.238 -1.50783 -3.26791 0
M  V30 6982 C 674.846 -3.01849 -3.31046 0
M  V30 6983 C 676.59 -1.33653 -4.02911 0
M  V30 6984 C 674.497 -3.58518 -4.70339 0
M  V30 6985 H 673.427 -0.322043 -0.681765 0
M  V30 6986 H 676.078 -1.34827 -1.24475 0
M  V30 6987 H 674.46 -0.957825 -3.84242 0
M  V30 6988 H 675.634 -3.63321 -2.83433 0
M  V30 6989 H 673.949 -3.18346 -2.68411 0
M  V30 6990 H 676.546 -1.73416 -5.05797 0
M  V30 6991 H 676.889 -0.279949 -4.15358 0
M  V30 6992 H 677.422 -1.85562 -3.51868 0
M  V30 6993 H 674.161 -4.63925 -4.63091 0
M  V30 6994 H 673.681 -3.01819 -5.18329 0
M  V30 6995 H 675.36 -3.57434 -5.39305 0
M  V30 6996 N 675.492 1.28418 -0.913599 0
M  V30 6997 C 676.425 2.25557 -0.346328 0
M  V30 6998 C 677.403 1.53038 0.549366 0
M  V30 6999 O 678.587 1.81937 0.493055 0
M  V30 7000 C 675.714 3.34915 0.504961 0
M  V30 7001 C 674.76 4.25257 -0.325334 0
M  V30 7002 S 675.593 5.06718 -1.73198 0
M  V30 7003 C 676.749 6.19569 -0.887988 0
M  V30 7004 H 676.982 2.73325 -1.16965 0
M  V30 7005 H 674.515 1.36855 -0.714841 0
M  V30 7006 H 676.473 3.98376 0.990301 0
M  V30 7007 H 675.134 2.85814 1.30267 0
M  V30 7008 H 674.327 5.02947 0.325589 0
M  V30 7009 H 673.929 3.66519 -0.744321 0
M  V30 7010 H 676.221 6.77398 -0.117568 0
M  V30 7011 H 677.164 6.88908 -1.63742 0
M  V30 7012 H 677.572 5.62812 -0.436228 0
M  V30 7013 N 676.97 0.677563 1.42291 0
M  V30 7014 C 678.216 0.201272 2.01799 0
M  V30 7015 C 678.549 -1.19004 1.53465 0
M  V30 7016 O 677.824 -1.79953 0.738039 0
M  V30 7017 C 678.107 0.238968 3.59306 0
M  V30 7018 C 677.96 1.66594 4.17812 0
M  V30 7019 C 679.279 -0.411287 4.38174 0
M  V30 7020 H 676.398 0.0746114 0.733214 0
M  V30 7021 H 679.04 0.862872 1.69276 0
M  V30 7022 H 677.19 -0.324368 3.87144 0
M  V30 7023 H 678.862 2.28173 4.00917 0
M  V30 7024 H 677.105 2.20576 3.73536 0
M  V30 7025 H 677.776 1.64398 5.26951 0
M  V30 7026 H 680.252 0.0682804 4.16044 0
M  V30 7027 H 679.128 -0.354286 5.47755 0
M  V30 7028 H 679.389 -1.4893 4.1626 0
M  V30 7029 N 678.448 -1.51871 0.421078 0
M  V30 7030 C 679.696 -2.01539 -0.150492 0
M  V30 7031 C 680.017 -1.30803 -1.44623 0
M  V30 7032 O 679.287 -0.437568 -1.90951 0
M  V30 7033 H 677.867 -0.744698 -0.0586041 0
M  V30 7034 H 680.529 -1.8668 0.560059 0
M  V30 7035 H 679.625 -3.10264 -0.338068 0
M  V30 7036 N 679.926 -0.151884 -1.56866 0
M  V30 7037 C 680.858 0.817008 -2.14144 0
M  V30 7038 C 681.871 1.20735 -1.0921 0
M  V30 7039 O 683.06 1.15058 -1.36469 0
M  V30 7040 C 680.16 2.10844 -2.65326 0
M  V30 7041 C 679.333 1.88471 -3.94712 0
M  V30 7042 C 678.392 3.01649 -4.31155 0
M  V30 7043 O 677.418 2.73127 -4.9939 0
M  V30 7044 N 678.62 4.28947 -3.91132 0
M  V30 7045 H 681.385 0.327448 -2.97906 0
M  V30 7046 H 678.946 0.0315313 -1.61869 0
M  V30 7047 H 680.938 2.85616 -2.86715 0
M  V30 7048 H 679.508 2.51049 -1.86262 0
M  V30 7049 H 678.728 0.977088 -3.81899 0
M  V30 7050 H 680.016 1.70866 -4.79252 0
M  V30 7051 H 679.414 4.54986 -3.36161 0
M  V30 7052 H 677.971 5.00484 -4.17563 0
M  V30 7053 N 681.404 1.57128 0.121893 0
M  V30 7054 C 682.681 1.75664 0.860327 0
M  V30 7055 C 683.061 0.726585 1.98202 0
M  V30 7056 O 682.409 -0.24999 2.27128 0
M  V30 7057 C 682.619 3.20571 1.37968 0
M  V30 7058 C 683.967 3.82988 1.83317 0
M  V30 7059 O 684.991 3.24156 1.47654 0
M  V30 7060 O 683.85 4.86393 2.49168 0
M  V30 7061 H 680.944 0.719153 0.408348 0
M  V30 7062 H 683.49 1.6937 0.105859 0
M  V30 7063 H 682.262 3.87056 0.57477 0
M  V30 7064 H 681.885 3.31392 2.19694 0
M  V30 7065 N 682.882 -0.391992 1.52647 0
M  V30 7066 C 684.13 -1.13507 1.67214 0
M  V30 7067 C 684.451 -1.90575 0.41304 0
M  V30 7068 O 683.721 -1.87348 -0.572498 0
M  V30 7069 H 682.301 -0.422013 0.616372 0
M  V30 7070 H 684.963 -0.44502 1.89751 0
M  V30 7071 H 684.059 -1.83964 2.52118 0
M  V30 7072 N 684.36 -1.4356 -0.65026 0
M  V30 7073 C 685.292 -1.44918 -1.77571 0
M  V30 7074 C 686.305 -0.344925 -1.59104 0
M  V30 7075 O 687.494 -0.609537 -1.6777 0
M  V30 7076 C 684.594 -1.24914 -3.15039 0
M  V30 7077 C 683.767 -2.48232 -3.60138 0
M  V30 7078 C 682.826 -2.23409 -4.76419 0
M  V30 7079 O 681.852 -2.9678 -4.85706 0
M  V30 7080 N 683.054 -1.25259 -5.66825 0
M  V30 7081 H 685.819 -2.41935 -1.76883 0
M  V30 7082 H 683.38 -1.38754 -0.834202 0
M  V30 7083 H 685.372 -1.06185 -3.90521 0
M  V30 7084 H 683.942 -0.363319 -3.10481 0
M  V30 7085 H 683.162 -2.82366 -2.75069 0
M  V30 7086 H 684.45 -3.30296 -3.87017 0
M  V30 7087 H 683.848 -0.646246 -5.61997 0
M  V30 7088 H 682.405 -1.12513 -6.42016 0
M  V30 7089 N 685.838 0.888903 -1.30139 0
M  V30 7090 C 687.084 1.6428 -1.18912 0
M  V30 7091 C 687.417 1.92499 0.256477 0
M  V30 7092 O 686.692 1.54312 1.18397 0
M  V30 7093 C 686.975 2.9851 -2.01405 0
M  V30 7094 C 686.828 2.77288 -3.54163 0
M  V30 7095 C 688.147 3.99383 -1.84882 0
M  V30 7096 H 685.266 0.596148 -0.433333 0
M  V30 7097 H 687.908 1.0289 -1.5973 0
M  V30 7098 H 686.058 3.50907 -1.66722 0
M  V30 7099 H 687.73 2.31709 -3.98884 0
M  V30 7100 H 685.973 2.11867 -3.78543 0
M  V30 7101 H 686.644 3.72717 -4.07168 0
M  V30 7102 H 689.12 3.56132 -2.15196 0
M  V30 7103 H 687.996 4.91222 -2.44934 0
M  V30 7104 H 688.257 4.34674 -0.806902 0
M  V30 7105 N 687.317 1.12792 1.10072 0
M  V30 7106 C 688.733 0.864745 1.34143 0
M  V30 7107 C 688.933 -0.503201 1.95116 0
M  V30 7108 O 687.989 -1.25111 2.19325 0
M  V30 7109 C 689.302 1.98413 2.25949 0
M  V30 7110 C 690.85 2.01545 2.39476 0
M  V30 7111 C 691.325 3.12727 3.34613 0
M  V30 7112 N 692.816 3.12194 3.42183 0
M  V30 7113 C 693.551 3.94862 4.15779 0
M  V30 7114 N 693.047 4.87528 4.92228 0
M  V30 7115 N 694.84 3.82985 4.11435 0
M  V30 7116 H 686.991 2.00926 0.68866 0
M  V30 7117 H 689.254 0.874564 0.365844 0
M  V30 7118 H 688.96 2.97005 1.88364 0
M  V30 7119 H 688.834 1.89254 3.26287 0
M  V30 7120 H 691.221 1.0357 2.76328 0
M  V30 7121 H 691.302 2.14777 1.3894 0
M  V30 7122 H 690.946 4.10936 2.98486 0
M  V30 7123 H 690.876 2.96732 4.35037 0
M  V30 7124 H 693.367 2.45065 2.87666 0
M  V30 7125 H 693.68 5.47109 5.45794 0
M  V30 7126 H 692.025 4.91539 4.9134 0
M  V30 7127 H 695.216 3.09923 3.50807 0
M  V30 7128 H 695.389 4.47641 4.68531 0
M  V30 7129 N 688.795 -1.27931 0.920396 0
M  V30 7130 C 689.728 -2.2537 0.358285 0
M  V30 7131 C 690.706 -1.53328 -0.541242 0
M  V30 7132 O 691.89 -1.82196 -0.483399 0
M  V30 7133 C 689.017 -3.35178 -0.487193 0
M  V30 7134 C 688.063 -4.25079 0.347881 0
M  V30 7135 S 688.896 -5.05792 1.75883 0
M  V30 7136 C 690.052 -6.19089 0.920832 0
M  V30 7137 H 690.285 -2.72701 1.18413 0
M  V30 7138 H 687.818 -1.36474 0.722088 0
M  V30 7139 H 689.776 -3.98895 -0.96916 0
M  V30 7140 H 688.437 -2.865 -1.28749 0
M  V30 7141 H 687.63 -5.03113 -0.298912 0
M  V30 7142 H 687.232 -3.66119 0.763748 0
M  V30 7143 H 689.524 -6.77326 0.15349 0
M  V30 7144 H 690.467 -6.8803 1.67394 0
M  V30 7145 H 690.875 -5.62573 0.466069 0
M  V30 7146 N 690.273 -0.685099 -1.4193 0
M  V30 7147 C 691.519 -0.211971 -2.01689 0
M  V30 7148 C 691.852 1.18189 -1.54094 0
M  V30 7149 O 691.127 1.79559 -0.747572 0
M  V30 7150 C 691.41 -0.258019 -3.59174 0
M  V30 7151 C 691.263 -1.68807 -4.16922 0
M  V30 7152 C 692.582 0.388044 -4.38386 0
M  V30 7153 H 689.701 -0.0784987 -0.732808 0
M  V30 7154 H 692.343 -0.871837 -1.68816 0
M  V30 7155 H 690.493 0.303832 -3.8731 0
M  V30 7156 H 692.165 -2.30296 -3.99702 0
M  V30 7157 H 690.408 -2.22553 -3.72361 0
M  V30 7158 H 691.079 -1.6719 -5.26072 0
M  V30 7159 H 693.555 -0.0903432 -4.16002 0
M  V30 7160 H 692.431 0.325232 -5.47936 0
M  V30 7161 H 692.692 1.4672 -4.17044 0
M  V30 7162 N 691.751 1.51645 -0.429126 0
M  V30 7163 C 692.997 2.02314 0.140286 0
M  V30 7164 C 693.33 1.31314 1.43074 0
M  V30 7165 O 692.605 0.425531 1.89788 0
M  V30 7166 C 692.888 3.5822 0.36749 0
M  V30 7167 C 692.741 4.39846 -0.941039 0
M  V30 7168 C 694.06 4.25055 1.14089 0
M  V30 7169 H 691.179 0.735335 0.0495112 0
M  V30 7170 H 693.821 1.81358 -0.566514 0
M  V30 7171 H 691.971 3.76207 0.969556 0
M  V30 7172 H 693.643 4.33527 -1.57646 0
M  V30 7173 H 691.886 4.05259 -1.54751 0
M  V30 7174 H 692.557 5.47069 -0.73621 0
M  V30 7175 H 695.033 4.11288 0.630986 0
M  V30 7176 H 693.909 5.34038 1.26863 0
M  V30 7177 H 694.17 3.85358 2.16683 0
M  V30 7178 N 693.229 0.160201 1.56784 0
M  V30 7179 C 694.477 -0.486625 1.96154 0
M  V30 7180 C 694.798 -1.64525 1.04673 0
M  V30 7181 O 694.068 -1.95586 0.110864 0
M  V30 7182 H 692.648 -0.182764 0.724297 0
M  V30 7183 H 695.31 0.238787 1.93432 0
M  V30 7184 H 694.406 -0.854025 3.00188 0
M  V30 7185 N 694.707 -1.5719 -0.113559 0
M  V30 7186 C 695.67 -1.99796 -1.12314 0
M  V30 7187 C 696.67 -0.888847 -1.34001 0
M  V30 7188 O 697.86 -1.15476 -1.30426 0
M  V30 7189 C 694.992 -2.34279 -2.47641 0
M  V30 7190 H 696.185 -2.90193 -0.756825 0
M  V30 7191 H 693.738 -1.52144 -0.358029 0
M  V30 7192 H 694.473 -1.46778 -2.89183 0
M  V30 7193 H 694.258 -3.15175 -2.33253 0
M  V30 7194 H 695.748 -2.67963 -3.2029 0
M  V30 7195 N 696.185 0.383891 -1.52853 0
M  V30 7196 C 697.148 1.45197 -1.77343 0
M  V30 7197 C 698.148 1.47362 -0.643522 0
M  V30 7198 O 699.338 1.48443 -0.911613 0
M  V30 7199 C 696.47 2.8445 -1.87885 0
M  V30 7200 H 697.663 1.24764 -2.72716 0
M  V30 7201 H 695.216 0.615939 -1.43652 0
M  V30 7202 H 695.951 3.10222 -0.94515 0
M  V30 7203 H 695.736 2.8428 -2.70051 0
M  V30 7204 H 697.226 3.61832 -2.08488 0
M  V30 7205 N 697.663 1.43903 0.642637 0
M  V30 7206 C 698.911 1.45791 1.39962 0
M  V30 7207 C 699.232 0.0873144 1.94804 0
M  V30 7208 O 698.502 -0.878825 1.75081 0
M  V30 7209 H 697.082 0.536797 0.519479 0
M  V30 7210 H 699.744 1.7959 0.757189 0
M  V30 7211 H 698.84 2.17665 2.2367 0
M  V30 7212 N 699.141 -0.881989 1.30609 0
M  V30 7213 C 700.389 -1.63082 1.19368 0
M  V30 7214 C 700.71 -1.93376 -0.251147 0
M  V30 7215 O 699.98 -1.5723 -1.16857 0
M  V30 7216 H 698.56 -0.604542 0.438791 0
M  V30 7217 H 701.222 -1.05658 1.63776 0
M  V30 7218 H 700.318 -2.57966 1.7567 0
M  V30 7219 N 700.619 -1.13374 -1.09472 0
M  V30 7220 C 701.847 -0.918351 -1.85402 0
M  V30 7221 C 702.262 0.53281 -1.81126 0
M  V30 7222 O 701.619 1.36879 -1.20708 0
M  V30 7223 C 701.67 -1.39743 -3.33398 0
M  V30 7224 O 701.391 -2.79172 -3.37631 0
M  V30 7225 C 702.892 -1.22042 -4.2617 0
M  V30 7226 H 700.112 -0.327511 -0.585643 0
M  V30 7227 H 702.656 -1.50617 -1.38328 0
M  V30 7228 H 700.811 -0.852619 -3.77901 0
M  V30 7229 H 701.225 -3.00428 -4.29934 0
M  V30 7230 H 702.699 -1.60438 -5.2817 0
M  V30 7231 H 703.176 -0.162047 -4.38901 0
M  V30 7232 H 703.782 -1.75323 -3.87482 0
M  V30 7233 N 702.098 1.27442 -0.927168 0
M  V30 7234 C 703.03 2.25975 -0.383158 0
M  V30 7235 C 704.043 1.55382 0.485832 0
M  V30 7236 O 705.232 1.75986 0.298541 0
M  V30 7237 C 702.332 3.35629 0.469688 0
M  V30 7238 C 701.505 4.35747 -0.379886 0
M  V30 7239 C 700.564 5.24598 0.410227 0
M  V30 7240 O 699.59 5.68909 -0.181888 0
M  V30 7241 N 700.792 5.54737 1.71017 0
M  V30 7242 H 703.557 2.7329 -1.23015 0
M  V30 7243 H 701.118 1.41063 -0.794539 0
M  V30 7244 H 703.11 3.92015 1.00532 0
M  V30 7245 H 701.68 2.87919 1.21744 0
M  V30 7246 H 700.9 3.78634 -1.09682 0
M  V30 7247 H 702.188 4.99648 -0.960717 0
M  V30 7248 H 701.586 5.20594 2.21356 0
M  V30 7249 H 700.143 6.13824 2.19234 0
M  V30 7250 N 703.576 0.692616 1.41565 0
M  V30 7251 C 704.825 0.219452 2.00503 0
M  V30 7252 C 705.138 -1.18683 1.55479 0
M  V30 7253 O 706.344 -1.75731 2.06956 0
M  V30 7254 C 704.8 0.341451 3.58277 0
M  V30 7255 C 704.408 1.75291 4.12283 0
M  V30 7256 C 706.152 -0.0720899 4.24439 0
M  V30 7257 C 704.059 1.82673 5.62481 0
M  V30 7258 H 702.989 0.0782874 0.749925 0
M  V30 7259 H 705.64 0.860386 1.62079 0
M  V30 7260 H 704.022 -0.367683 3.94289 0
M  V30 7261 H 705.196 2.49057 3.87695 0
M  V30 7262 H 703.511 2.11587 3.58636 0
M  V30 7263 H 706.108 -0.0373385 5.34687 0
M  V30 7264 H 706.451 -1.11034 4.0122 0
M  V30 7265 H 706.984 0.586663 3.9345 0
M  V30 7266 H 703.723 2.84539 5.90523 0
M  V30 7267 H 703.243 1.13288 5.89004 0
M  V30 7268 H 704.922 1.58827 6.27203 0
M  V30 7269 N 705.054 -1.51416 0.437162 0
M  V30 7270 C 706.282 -2.06503 -0.128045 0
M  V30 7271 C 706.697 -1.30461 -1.36475 0
M  V30 7272 O 706.054 -0.364127 -1.78831 0
M  V30 7273 C 706.105 -3.58683 -0.450437 0
M  V30 7274 O 705.826 -4.31853 0.737186 0
M  V30 7275 C 707.327 -4.30284 -1.06633 0
M  V30 7276 H 704.547 -0.670952 -0.00800269 0
M  V30 7277 H 707.091 -1.94996 0.616193 0
M  V30 7278 H 705.246 -3.70106 -1.14457 0
M  V30 7279 H 705.66 -5.22467 0.461347 0
M  V30 7280 H 707.134 -5.37848 -1.24191 0
M  V30 7281 H 707.611 -3.88564 -2.0473 0
M  V30 7282 H 708.217 -4.23304 -0.411585 0
M  V30 7283 N 706.532 -0.168513 -1.56696 0
M  V30 7284 C 707.76 0.483503 -2.01171 0
M  V30 7285 C 708.175 1.56994 -1.04872 0
M  V30 7286 O 707.532 1.82434 -0.0491337 0
M  V30 7287 C 707.583 1.0644 -3.45475 0
M  V30 7288 O 707.304 0.0213375 -4.38095 0
M  V30 7289 C 708.805 1.79493 -4.05336 0
M  V30 7290 H 706.025 0.124002 -0.659443 0
M  V30 7291 H 708.569 -0.269419 -2.02717 0
M  V30 7292 H 706.724 1.76784 -3.44712 0
M  V30 7293 H 707.138 0.449837 -5.22567 0
M  V30 7294 H 708.612 2.15401 -5.08238 0
M  V30 7295 H 709.089 2.68889 -3.47269 0
M  V30 7296 H 709.695 1.13798 -4.09793 0
M  V30 7297 N 708.01 1.57248 0.105221 0
M  V30 7298 C 708.973 2.00388 1.11252 0
M  V30 7299 C 709.973 0.89594 1.33527 0
M  V30 7300 O 711.163 1.16166 1.29811 0
M  V30 7301 C 708.295 2.35589 2.46395 0
M  V30 7302 H 709.488 2.90591 0.741424 0
M  V30 7303 H 707.041 1.52332 0.349956 0
M  V30 7304 H 707.776 1.4831 2.884 0
M  V30 7305 H 707.561 3.16408 2.31578 0
M  V30 7306 H 709.051 2.69658 3.18864 0
M  V30 7307 N 709.488 -0.375779 1.53054 0
M  V30 7308 C 710.716 -1.14036 1.72637 0
M  V30 7309 C 711.131 -1.83342 0.450687 0
M  V30 7310 O 710.488 -1.7318 -0.575749 0
M  V30 7311 C 710.539 -2.17841 2.88492 0
M  V30 7312 O 710.26 -1.51358 4.11123 0
M  V30 7313 C 711.761 -3.06924 3.19863 0
M  V30 7314 H 708.981 -0.341386 0.577665 0
M  V30 7315 H 711.525 -0.437809 1.99759 0
M  V30 7316 H 709.68 -2.8371 2.63794 0
M  V30 7317 H 710.094 -2.20439 4.75928 0
M  V30 7318 H 711.568 -3.75763 4.04359 0
M  V30 7319 H 712.045 -3.71169 2.34798 0
M  V30 7320 H 712.651 -2.46684 3.46449 0
M  V30 7321 N 710.966 -1.44241 -0.634997 0
M  V30 7322 C 711.929 -1.50457 -1.72903 0
M  V30 7323 C 712.929 -0.387058 -1.56072 0
M  V30 7324 O 714.119 -0.649531 -1.61638 0
M  V30 7325 C 711.251 -1.37477 -3.1195 0
M  V30 7326 H 712.444 -2.47907 -1.68767 0
M  V30 7327 H 709.997 -1.31276 -0.84831 0
M  V30 7328 H 710.732 -0.41106 -3.21684 0
M  V30 7329 H 710.517 -2.18506 -3.25573 0
M  V30 7330 H 712.007 -1.44799 -3.91692 0
M  V30 7331 N 712.444 0.87505 -1.31075 0
M  V30 7332 C 713.374 1.99775 -1.20881 0
M  V30 7333 C 714.355 1.69822 -0.0971612 0
M  V30 7334 O 715.54 1.92158 -0.280895 0
M  V30 7335 C 712.67 3.35163 -0.910118 0
M  V30 7336 C 711.624 3.79406 -1.98078 0
M  V30 7337 C 710.95 5.12197 -1.53488 0
M  V30 7338 C 712.25 3.97061 -3.39323 0
M  V30 7339 H 713.944 2.08562 -2.14808 0
M  V30 7340 H 711.49 1.00207 -1.03415 0
M  V30 7341 H 713.443 4.13237 -0.825423 0
M  V30 7342 H 712.167 3.26536 0.064822 0
M  V30 7343 H 710.826 3.03568 -2.05528 0
M  V30 7344 H 710.474 5.00007 -0.547941 0
M  V30 7345 H 710.174 5.4277 -2.2511 0
M  V30 7346 H 711.698 5.92785 -1.46417 0
M  V30 7347 H 713.112 4.65545 -3.34576 0
M  V30 7348 H 711.509 4.39025 -4.09118 0
M  V30 7349 H 712.579 3.00601 -3.80483 0
M  V30 7350 N 713.922 1.13953 1.08869 0
M  V30 7351 C 714.885 0.824991 2.13838 0
M  V30 7352 C 715.885 -0.168198 1.59918 0
M  V30 7353 O 717.075 0.0595778 1.74098 0
M  V30 7354 C 714.207 0.228938 3.4013 0
M  V30 7355 H 715.4 1.75521 2.43171 0
M  V30 7356 H 712.953 0.94492 1.24503 0
M  V30 7357 H 713.688 -0.710227 3.16427 0
M  V30 7358 H 713.473 0.944243 3.80561 0
M  V30 7359 H 714.963 0.0259223 4.17592 0
M  V30 7360 N 715.4 -1.26948 0.933913 0
M  V30 7361 C 716.649 -1.93378 0.573409 0
M  V30 7362 C 716.962 -1.74148 -0.890614 0
M  V30 7363 O 718.168 -2.34971 -1.36017 0
M  V30 7364 C 716.624 -3.46449 0.974747 0
M  V30 7365 C 716.232 -3.74425 2.45988 0
M  V30 7366 C 717.976 -4.18924 0.685791 0
M  V30 7367 C 715.883 -5.209 2.8003 0
M  V30 7368 H 714.813 -0.723952 0.210736 0
M  V30 7369 H 717.464 -1.44143 1.13557 0
M  V30 7370 H 715.846 -3.94528 0.341181 0
M  V30 7371 H 717.02 -3.37079 3.14188 0
M  V30 7372 H 715.335 -3.15167 2.72138 0
M  V30 7373 H 717.932 -5.26786 0.916546 0
M  V30 7374 H 718.275 -4.14587 -0.377217 0
M  V30 7375 H 718.808 -3.76687 1.27874 0
M  V30 7376 H 715.547 -5.30332 3.85264 0
M  V30 7377 H 715.067 -5.59369 2.16485 0
M  V30 7378 H 716.746 -5.88837 2.68105 0
M  V30 7379 N 716.879 -0.700114 -1.41195 0
M  V30 7380 C 718.128 -0.230082 -2.00383 0
M  V30 7381 C 718.441 1.17857 -1.56106 0
M  V30 7382 O 719.647 1.74631 -2.07885 0
M  V30 7383 C 718.103 -0.360447 -3.5809 0
M  V30 7384 C 717.711 -1.77475 -4.11347 0
M  V30 7385 C 719.455 0.0495799 -4.24471 0
M  V30 7386 C 717.362 -1.85653 -5.61504 0
M  V30 7387 H 716.292 -0.0822633 -0.749499 0
M  V30 7388 H 718.943 -0.868969 -1.6162 0
M  V30 7389 H 717.325 0.346768 -3.94479 0
M  V30 7390 H 718.499 -2.51109 -3.86369 0
M  V30 7391 H 716.814 -2.13486 -3.57509 0
M  V30 7392 H 719.411 0.00898219 -5.34699 0
M  V30 7393 H 719.754 1.08904 -4.01803 0
M  V30 7394 H 720.287 -0.607521 -3.93134 0
M  V30 7395 H 717.026 -2.87667 -5.89006 0
M  V30 7396 H 716.546 -1.1641 -5.88395 0
M  V30 7397 H 718.225 -1.62151 -6.26351 0
M  V30 7398 N 718.357 1.51182 -0.445186 0
M  V30 7399 C 719.587 2.06269 0.116922 0
M  V30 7400 C 719.995 1.31188 1.36332 0
M  V30 7401 O 719.338 0.367067 1.79995 0
M  V30 7402 C 719.4 3.56051 0.496757 0
M  V30 7403 C 719.064 4.52441 -0.64394 0
M  V30 7404 C 720.061 4.97233 -1.5184 0
M  V30 7405 C 717.746 4.95447 -0.826905 0
M  V30 7406 C 719.74 5.83712 -2.56046 0
M  V30 7407 C 717.427 5.81714 -1.87222 0
M  V30 7408 C 718.425 6.25745 -2.73738 0
M  V30 7409 O 718.113 7.10298 -3.76474 0
M  V30 7410 H 717.845 0.675954 0.00785733 0
M  V30 7411 H 720.399 1.95648 -0.625371 0
M  V30 7412 H 718.629 3.64483 1.29187 0
M  V30 7413 H 720.318 3.93618 0.990928 0
M  V30 7414 H 721.084 4.64696 -1.38862 0
M  V30 7415 H 716.963 4.60712 -0.163052 0
M  V30 7416 H 720.507 6.18 -3.23607 0
M  V30 7417 H 716.404 6.13664 -2.00218 0
M  V30 7418 H 717.172 7.28493 -3.73149 0
M  V30 7419 N 719.835 0.176821 1.56605 0
M  V30 7420 C 720.783 -0.768159 2.1955 0
M  V30 7421 C 721.777 -1.23343 1.16116 0
M  V30 7422 O 722.983 -1.19844 1.34303 0
M  V30 7423 H 719.358 -0.266013 0.703378 0
M  V30 7424 H 721.329 -0.213374 2.97636 0
M  V30 7425 C 720.078 -1.98492 2.85475 0
M  V30 7426 H 719.401 -1.63595 3.64797 0
M  V30 7427 H 720.841 -2.62489 3.3298 0
M  V30 7428 C 719.3 -2.81207 1.85538 0
M  V30 7429 O 719.83 -3.7854 1.34427 0
M  V30 7430 N 718.036 -2.46331 1.54173 0
M  V30 7431 H 717.583 -1.67241 1.95929 0
M  V30 7432 H 717.541 -3.01961 0.875595 0
M  V30 7433 N 721.313 -1.57302 -0.09688 0
M  V30 7434 C 722.243 -2.0497 -1.11846 0
M  V30 7435 C 723.224 -0.938278 -1.41882 0
M  V30 7436 O 724.409 -1.20943 -1.51942 0
M  V30 7437 C 721.539 -2.47264 -2.43881 0
M  V30 7438 C 720.493 -3.62053 -2.28257 0
M  V30 7439 C 719.819 -3.90318 -3.65453 0
M  V30 7440 C 721.119 -4.93005 -1.72461 0
M  V30 7441 H 722.813 -2.90567 -0.721888 0
M  V30 7442 H 720.359 -1.39786 -0.345803 0
M  V30 7443 H 722.312 -2.7922 -3.15617 0
M  V30 7444 H 721.036 -1.58664 -2.8547 0
M  V30 7445 H 719.695 -3.30341 -1.58967 0
M  V30 7446 H 719.343 -2.98889 -4.04567 0
M  V30 7447 H 719.043 -4.67597 -3.55846 0
M  V30 7448 H 720.567 -4.24747 -4.3866 0
M  V30 7449 H 721.981 -5.23354 -2.34036 0
M  V30 7450 H 720.378 -5.74436 -1.73618 0
M  V30 7451 H 721.448 -4.80053 -0.683898 0
M  V30 7452 N 722.791 0.367657 -1.53252 0
M  V30 7453 C 724.037 1.10864 -1.70531 0
M  V30 7454 C 724.392 1.87051 -0.4505 0
M  V30 7455 O 723.685 1.83342 0.556431 0
M  V30 7456 C 723.879 2.09825 -2.89324 0
M  V30 7457 C 723.708 1.43361 -4.26237 0
M  V30 7458 C 722.478 1.18861 -4.91121 0
M  V30 7459 C 724.676 0.872409 -5.06847 0
M  V30 7460 N 722.658 0.487258 -6.11963 0
M  V30 7461 C 724.029 0.300301 -6.19272 0
M  V30 7462 C 726.084 0.770895 -4.91896 0
M  V30 7463 C 724.787 -0.363419 -7.18381 0
M  V30 7464 C 726.813 0.12096 -5.91276 0
M  V30 7465 C 726.175 -0.440283 -7.03023 0
M  V30 7466 H 722.274 0.390902 -0.677288 0
M  V30 7467 H 724.858 0.395305 -1.90645 0
M  V30 7468 H 723.029 2.78473 -2.70753 0
M  V30 7469 H 724.761 2.76585 -2.95436 0
M  V30 7470 H 721.516 1.46934 -4.5023 0
M  V30 7471 H 721.94 0.152005 -6.76829 0
M  V30 7472 H 726.582 1.19058 -4.05691 0
M  V30 7473 H 724.3 -0.795057 -8.04179 0
M  V30 7474 H 727.886 0.0433702 -5.81784 0
M  V30 7475 H 726.766 -0.935244 -7.78603 0
M  V30 7476 N 724.269 1.44576 0.627338 0
M  V30 7477 C 725.516 1.47558 1.38682 0
M  V30 7478 C 725.844 0.109636 1.94191 0
M  V30 7479 O 725.099 -0.889092 1.74338 0
M  V30 7480 C 725.398 2.48644 2.56731 0
M  V30 7481 C 725.064 3.93873 2.19489 0
M  V30 7482 C 723.726 4.33421 2.09045 0
M  V30 7483 C 726.078 4.85286 1.90124 0
M  V30 7484 C 723.406 5.62303 1.6743 0
M  V30 7485 C 725.758 6.14559 1.50001 0
M  V30 7486 C 724.422 6.53058 1.38101 0
M  V30 7487 H 723.692 0.539955 0.507474 0
M  V30 7488 H 726.339 1.77811 0.711021 0
M  V30 7489 H 724.644 2.11889 3.29561 0
M  V30 7490 H 726.341 2.48197 3.14959 0
M  V30 7491 H 722.931 3.62587 2.28537 0
M  V30 7492 H 727.115 4.55483 1.971 0
M  V30 7493 H 722.371 5.90945 1.56823 0
M  V30 7494 H 726.545 6.84848 1.26319 0
M  V30 7495 H 724.172 7.52826 1.05628 0
M  V30 7496 N 725.747 -0.868086 1.31537 0
M  V30 7497 C 726.995 -1.61807 1.21091 0
M  V30 7498 C 727.316 -1.93631 -0.230623 0
M  V30 7499 O 726.586 -1.5846 -1.15183 0
M  V30 7500 H 725.166 -0.599854 0.445178 0
M  V30 7501 H 727.828 -1.03915 1.64887 0
M  V30 7502 H 726.924 -2.56088 1.78396 0
M  V30 7503 N 727.225 -1.14528 -1.08264 0
M  V30 7504 C 728.455 -0.936604 -1.8415 0
M  V30 7505 C 728.863 0.518298 -1.81962 0
M  V30 7506 O 728.206 1.37096 -1.22272 0
M  V30 7507 C 728.268 -1.36182 -3.32708 0
M  V30 7508 C 727.932 -2.83257 -3.58629 0
M  V30 7509 C 728.929 -3.81366 -3.5335 0
M  V30 7510 C 726.614 -3.20704 -3.86593 0
M  V30 7511 C 728.608 -5.14929 -3.75668 0
M  V30 7512 C 726.295 -4.54443 -4.08564 0
M  V30 7513 C 727.293 -5.51365 -4.03095 0
M  V30 7514 O 726.981 -6.8269 -4.24488 0
M  V30 7515 H 726.713 -0.333254 -0.588148 0
M  V30 7516 H 729.267 -1.5247 -1.3763 0
M  V30 7517 H 727.497 -0.717063 -3.79994 0
M  V30 7518 H 729.186 -1.12372 -3.90035 0
M  V30 7519 H 729.952 -3.53781 -3.31759 0
M  V30 7520 H 725.831 -2.45857 -3.89969 0
M  V30 7521 H 729.375 -5.90568 -3.71315 0
M  V30 7522 H 725.272 -4.81747 -4.29639 0
M  V30 7523 H 726.04 -6.8897 -4.41886 0
M  V30 7524 N 728.703 1.26451 -0.940633 0
M  V30 7525 C 729.98 1.88947 -0.505811 0
M  V30 7526 C 730.36 1.85011 1.01657 0
M  V30 7527 O 729.708 1.30406 1.87634 0
M  V30 7528 C 729.918 3.32304 -1.06654 0
M  V30 7529 C 731.266 4.09153 -1.13486 0
M  V30 7530 O 732.29 3.41371 -1.01708 0
M  V30 7531 O 731.149 5.30369 -1.31797 0
M  V30 7532 H 728.243 0.810422 -0.164759 0
M  V30 7533 H 730.789 1.34625 -1.03316 0
M  V30 7534 H 729.561 3.29527 -2.11015 0
M  V30 7535 H 729.184 3.94164 -0.521603 0
M  V30 7536 N 730.181 0.707592 1.40822 0
M  V30 7537 C 731.427 0.244031 2.01326 0
M  V30 7538 C 731.76 -1.15722 1.55955 0
M  V30 7539 O 731.035 -1.78347 0.776044 0
M  V30 7540 C 731.318 0.315128 3.58718 0
M  V30 7541 C 731.171 1.75419 4.14184 0
M  V30 7542 C 732.49 -0.318251 4.38948 0
M  V30 7543 H 729.609 0.0901471 0.731466 0
M  V30 7544 H 732.251 0.898584 1.67408 0
M  V30 7545 H 730.401 -0.242176 3.87744 0
M  V30 7546 H 732.073 2.36626 3.95987 0
M  V30 7547 H 730.316 2.28449 3.68773 0
M  V30 7548 H 730.987 1.75538 5.23345 0
M  V30 7549 H 733.463 0.156514 4.15806 0
M  V30 7550 H 732.339 -0.238019 5.48384 0
M  V30 7551 H 732.6 -1.40067 4.19325 0
M  V30 7552 N 731.66 -1.50943 0.453197 0
M  V30 7553 C 732.607 -2.28128 -0.350197 0
M  V30 7554 C 733.577 -1.32398 -1.00299 0
M  V30 7555 O 734.762 -1.61319 -1.01887 0
M  V30 7556 C 731.902 -3.13782 -1.43649 0
M  V30 7557 C 731.015 -4.24523 -0.800255 0
M  V30 7558 C 730.15 -4.97462 -1.86293 0
M  V30 7559 C 729.189 -6.00102 -1.20598 0
M  V30 7560 N 728.326 -6.66387 -2.21071 0
M  V30 7561 H 733.166 -2.96337 0.31434 0
M  V30 7562 H 730.703 -1.46151 0.166863 0
M  V30 7563 H 732.661 -3.6178 -2.07776 0
M  V30 7564 H 731.291 -2.47655 -2.07044 0
M  V30 7565 H 730.343 -3.80371 -0.0468651 0
M  V30 7566 H 731.655 -4.98009 -0.280777 0
M  V30 7567 H 730.809 -5.49088 -2.58044 0
M  V30 7568 H 729.548 -4.23642 -2.41617 0
M  V30 7569 H 728.553 -5.47753 -0.474 0
M  V30 7570 H 729.778 -6.75887 -0.659859 0
M  V30 7571 H 727.724 -5.9537 -2.75446 0
M  V30 7572 H 727.641 -7.3569 -1.74058 0
M  V30 7573 H 728.909 -7.22638 -2.92257 0
M  V30 7574 N 733.138 -0.185124 -1.56509 0
M  V30 7575 C 734.554 0.170865 -1.58683 0
M  V30 7576 C 734.754 1.61799 -1.20098 0
M  V30 7577 O 733.81 2.35181 -0.919038 0
M  V30 7578 C 735.123 -0.122459 -3.00451 0
M  V30 7579 C 736.671 -0.0617699 -3.12939 0
M  V30 7580 C 737.146 -0.328269 -4.56822 0
M  V30 7581 N 738.637 -0.276533 -4.62374 0
M  V30 7582 C 739.372 -0.456722 -5.71578 0
M  V30 7583 N 738.868 -0.69672 -6.89288 0
M  V30 7584 N 740.661 -0.391669 -5.60734 0
M  V30 7585 H 732.812 -1.12956 -1.79874 0
M  V30 7586 H 735.075 -0.45011 -0.834329 0
M  V30 7587 H 734.781 -1.12546 -3.33206 0
M  V30 7588 H 734.655 0.579578 -3.72721 0
M  V30 7589 H 737.042 0.931826 -2.80002 0
M  V30 7590 H 737.123 -0.796732 -2.43076 0
M  V30 7591 H 736.767 -1.31914 -4.9047 0
M  V30 7592 H 736.697 0.427465 -5.24862 0
M  V30 7593 H 739.188 -0.0972458 -3.77775 0
M  V30 7594 H 739.501 -0.823291 -7.68402 0
M  V30 7595 H 737.846 -0.733497 -6.91119 0
M  V30 7596 H 741.037 -0.204663 -4.67652 0
M  V30 7597 H 741.21 -0.535518 -6.45783 0
M  V30 7598 N 734.616 1.57351 0.0885366 0
M  V30 7599 C 735.579 2.01557 1.09121 0
M  V30 7600 C 736.579 0.910052 1.3257 0
M  V30 7601 O 737.769 1.17537 1.28572 0
M  V30 7602 C 734.901 2.38189 2.43883 0
M  V30 7603 H 736.094 2.91361 0.710562 0
M  V30 7604 H 733.647 1.52694 0.333779 0
M  V30 7605 H 734.382 1.5136 2.86811 0
M  V30 7606 H 734.167 3.18846 2.28209 0
M  V30 7607 H 735.657 2.73025 3.15986 0
M  V30 7608 N 736.094 -0.359525 1.53444 0
M  V30 7609 C 737.34 -1.10315 1.70172 0
M  V30 7610 C 737.673 -1.88788 0.455287 0
M  V30 7611 O 736.948 -1.86635 -0.547514 0
M  V30 7612 C 737.231 -2.05744 2.95536 0
M  V30 7613 C 737.084 -1.3084 4.3035 0
M  V30 7614 C 738.403 -3.05784 3.16518 0
M  V30 7615 H 735.522 -0.399662 0.619225 0
M  V30 7616 H 738.164 -0.383338 1.86093 0
M  V30 7617 H 736.314 -2.67125 2.82093 0
M  V30 7618 H 737.986 -0.721959 4.55615 0
M  V30 7619 H 736.229 -0.610283 4.29486 0
M  V30 7620 H 736.9 -2.00718 5.14214 0
M  V30 7621 H 739.376 -2.5451 3.29187 0
M  V30 7622 H 738.252 -3.69772 4.05659 0
M  V30 7623 H 738.513 -3.76289 2.32076 0
M  V30 7624 N 737.572 -1.44907 -0.619662 0
M  V30 7625 C 738.482 -1.55168 -1.75955 0
M  V30 7626 C 739.498 -0.43672 -1.6843 0
M  V30 7627 O 740.674 -0.695704 -1.89002 0
M  V30 7628 C 737.739 -1.50397 -3.12381 0
M  V30 7629 C 736.8 -2.72835 -3.31451 0
M  V30 7630 C 736.033 -2.68283 -4.61368 0
M  V30 7631 O 736.256 -1.74929 -5.42914 0
M  V30 7632 O 735.19 -3.59308 -4.82889 0
M  V30 7633 H 739.016 -2.51493 -1.7025 0
M  V30 7634 H 736.601 -1.27282 -0.782289 0
M  V30 7635 H 738.483 -1.50301 -3.93685 0
M  V30 7636 H 737.158 -0.572197 -3.18603 0
M  V30 7637 H 736.065 -2.78496 -2.49781 0
M  V30 7638 H 737.398 -3.65098 -3.30098 0
M  V30 7639 N 739.05 0.861098 -1.31996 0
M  V30 7640 C 739.96 2.00154 -1.22374 0
M  V30 7641 C 740.976 1.73447 -0.138631 0
M  V30 7642 O 742.152 1.98191 -0.358104 0
M  V30 7643 C 739.217 3.33696 -0.940645 0
M  V30 7644 C 738.278 3.73668 -2.11355 0
M  V30 7645 C 737.511 5.00837 -1.84386 0
M  V30 7646 O 737.734 5.64996 -0.783287 0
M  V30 7647 O 736.668 5.37787 -2.70313 0
M  V30 7648 H 740.494 2.11207 -2.18233 0
M  V30 7649 H 738.079 0.990768 -1.11822 0
M  V30 7650 H 739.961 4.13756 -0.798987 0
M  V30 7651 H 738.636 3.23698 -0.0121636 0
M  V30 7652 H 737.543 2.94211 -2.31065 0
M  V30 7653 H 738.876 3.88303 -3.02459 0
M  V30 7654 N 740.528 1.15101 1.07655 0
M  V30 7655 C 741.939 0.933848 1.61667 0
M  V30 7656 C 742.29 -0.525569 1.8903 0
M  V30 7657 O 741.415 -1.39605 1.65346 0
M  V30 7658 C 742.01 1.68876 2.93711 0
M  V30 7659 C 740.569 1.51697 3.44478 0
M  V30 7660 C 739.716 1.70633 2.18586 0
M  V30 7661 H 742.667 1.30171 0.907816 0
M  V30 7662 H 742.688 1.15645 3.625 0
M  V30 7663 H 742.2 2.7509 2.73764 0
M  V30 7664 H 740.301 0.478635 3.69513 0
M  V30 7665 H 740.414 2.29194 4.20722 0
M  V30 7666 H 738.778 1.13259 2.28132 0
M  V30 7667 H 739.561 2.78206 2.01137 0
M  V30 7668 N 742.006 -1.2595 0.947325 0
M  V30 7669 C 743.422 -1.45737 0.650597 0
M  V30 7670 C 743.622 -1.85189 -0.794188 0
M  V30 7671 O 742.678 -1.97738 -1.57022 0
M  V30 7672 C 743.991 -2.53505 1.61728 0
M  V30 7673 C 745.539 -2.67351 1.62765 0
M  V30 7674 C 746.014 -3.78296 2.58179 0
M  V30 7675 N 747.505 -3.85696 2.56501 0
M  V30 7676 C 748.24 -4.71012 3.2701 0
M  V30 7677 N 747.736 -5.60669 4.06966 0
M  V30 7678 N 749.529 -4.64912 3.15932 0
M  V30 7679 H 741.68 -0.986327 1.8811 0
M  V30 7680 H 743.943 -0.494639 0.808725 0
M  V30 7681 H 743.649 -2.31357 2.6489 0
M  V30 7682 H 743.523 -3.51281 1.3741 0
M  V30 7683 H 745.91 -2.88869 0.603241 0
M  V30 7684 H 745.991 -1.69998 1.91139 0
M  V30 7685 H 745.635 -3.5753 3.60742 0
M  V30 7686 H 745.565 -4.75117 2.27093 0
M  V30 7687 H 748.056 -3.21601 1.98447 0
M  V30 7688 H 748.369 -6.22677 4.57704 0
M  V30 7689 H 746.714 -5.60402 4.11066 0
M  V30 7690 H 749.905 -3.93874 2.52945 0
M  V30 7691 H 750.078 -5.3118 3.71149 0
M  V30 7692 N 743.484 -0.715051 -1.40445 0
M  V30 7693 C 744.414 -0.0768699 -2.33373 0
M  V30 7694 C 745.395 0.746109 -1.52863 0
M  V30 7695 O 746.58 0.695142 -1.81332 0
M  V30 7696 C 743.71 0.846014 -3.36838 0
M  V30 7697 C 742.664 0.128694 -4.27806 0
M  V30 7698 C 741.99 1.16726 -5.21804 0
M  V30 7699 C 743.29 -1.01679 -5.12307 0
M  V30 7700 H 744.984 -0.853061 -2.8699 0
M  V30 7701 H 742.53 -0.41167 -1.3799 0
M  V30 7702 H 744.483 1.30185 -4.00786 0
M  V30 7703 H 743.207 1.6541 -2.81615 0
M  V30 7704 H 741.866 -0.307314 -3.6531 0
M  V30 7705 H 741.514 1.96838 -4.62887 0
M  V30 7706 H 741.214 0.692188 -5.83509 0
M  V30 7707 H 742.738 1.62321 -5.88629 0
M  V30 7708 H 744.152 -0.640337 -5.69713 0
M  V30 7709 H 742.549 -1.4202 -5.83053 0
M  V30 7710 H 743.619 -1.84769 -4.48317 0
M  V30 7711 N 744.962 1.50701 -0.461195 0
M  V30 7712 C 745.912 2.25195 0.35653 0
M  V30 7713 C 746.896 1.2838 0.96992 0
M  V30 7714 O 748.088 1.53338 0.884108 0
M  V30 7715 C 745.217 3.11471 1.44364 0
M  V30 7716 C 744.303 4.15729 0.83847 0
M  V30 7717 N 744.694 5.05788 -0.0353198 0
M  V30 7718 C 742.992 4.32133 1.1035 0
M  V30 7719 C 743.693 5.80472 -0.37774 0
M  V30 7720 N 742.669 5.43049 0.24463 0
M  V30 7721 H 746.471 2.92188 -0.316746 0
M  V30 7722 H 743.985 1.60059 -0.274725 0
M  V30 7723 H 745.982 3.63436 2.04255 0
M  V30 7724 H 744.642 2.46025 2.11901 0
M  V30 7725 H 745.653 5.16326 -0.403465 0
M  V30 7726 H 742.33 3.77908 1.77458 0
M  V30 7727 H 743.72 6.62996 -1.09024 0
M  V30 7728 N 746.441 0.193421 1.56409 0
M  V30 7729 C 747.389 -0.744829 2.20352 0
M  V30 7730 C 748.383 -1.22104 1.17418 0
M  V30 7731 O 749.589 -1.18413 1.35567 0
M  V30 7732 H 745.964 -0.258538 0.70616 0
M  V30 7733 H 747.935 -0.181794 2.97846 0
M  V30 7734 C 746.684 -1.95453 2.87565 0
M  V30 7735 H 746.007 -1.59716 3.66512 0
M  V30 7736 H 747.447 -2.58942 3.35745 0
M  V30 7737 C 745.906 -2.79223 1.8851 0
M  V30 7738 O 746.436 -3.77093 1.38434 0
M  V30 7739 N 744.642 -2.44682 1.56777 0
M  V30 7740 H 744.189 -1.65153 1.97692 0
M  V30 7741 H 744.147 -3.01016 0.907573 0
M  V30 7742 N 747.919 -1.57396 -0.0801906 0
M  V30 7743 C 748.851 -1.9982 -1.12271 0
M  V30 7744 C 749.864 -0.902902 -1.35468 0
M  V30 7745 O 751.053 -1.18088 -1.33856 0
M  V30 7746 C 748.153 -2.31476 -2.47532 0
M  V30 7747 C 747.326 -3.62745 -2.44407 0
M  V30 7748 C 746.385 -3.82168 -3.6171 0
M  V30 7749 O 745.411 -4.53852 -3.43522 0
M  V30 7750 N 746.613 -3.2388 -4.81749 0
M  V30 7751 H 749.378 -2.89864 -0.761501 0
M  V30 7752 H 746.939 -1.5965 -0.268965 0
M  V30 7753 H 748.931 -2.4165 -3.24634 0
M  V30 7754 H 747.501 -1.47364 -2.75686 0
M  V30 7755 H 746.721 -3.63403 -1.52747 0
M  V30 7756 H 748.009 -4.48954 -2.39412 0
M  V30 7757 H 747.407 -2.6568 -4.9943 0
M  V30 7758 H 745.964 -3.39515 -5.56392 0
M  V30 7759 N 749.397 0.351382 -1.53633 0
M  V30 7760 C 750.327 1.43688 -1.84055 0
M  V30 7761 C 751.308 1.55251 -0.695073 0
M  V30 7762 O 752.493 1.69587 -0.946257 0
M  V30 7763 C 749.623 2.80843 -2.04315 0
M  V30 7764 C 748.577 2.84094 -3.20117 0
M  V30 7765 C 747.903 4.2406 -3.25696 0
M  V30 7766 C 749.203 2.50334 -4.58399 0
M  V30 7767 H 750.897 1.18478 -2.74961 0
M  V30 7768 H 748.443 0.568509 -1.32303 0
M  V30 7769 H 750.396 3.56821 -2.2418 0
M  V30 7770 H 749.12 3.07471 -1.10132 0
M  V30 7771 H 747.779 2.10568 -3.00094 0
M  V30 7772 H 747.427 4.47785 -2.29123 0
M  V30 7773 H 747.127 4.27147 -4.03509 0
M  V30 7774 H 748.651 5.0189 -3.47762 0
M  V30 7775 H 750.065 3.16025 -4.78332 0
M  V30 7776 H 748.462 2.64717 -5.38558 0
M  V30 7777 H 749.532 1.45542 -4.62543 0
M  V30 7778 N 750.875 1.45233 0.611969 0
M  V30 7779 C 751.805 1.5641 1.73373 0
M  V30 7780 C 752.786 0.415896 1.64937 0
M  V30 7781 O 753.971 0.638478 1.83404 0
M  V30 7782 C 751.101 1.52627 3.11965 0
M  V30 7783 C 750.055 2.66119 3.35208 0
M  V30 7784 C 749.381 2.4739 4.74028 0
M  V30 7785 C 750.681 4.08157 3.25891 0
M  V30 7786 H 752.375 2.50307 1.64277 0
M  V30 7787 H 749.921 1.20467 0.788904 0
M  V30 7788 H 751.874 1.59043 3.90235 0
M  V30 7789 H 750.598 0.552564 3.21892 0
M  V30 7790 H 749.257 2.59123 2.59327 0
M  V30 7791 H 748.905 1.48168 4.80682 0
M  V30 7792 H 748.605 3.23494 4.90536 0
M  V30 7793 H 750.129 2.55653 5.54503 0
M  V30 7794 H 751.543 4.1642 3.9404 0
M  V30 7795 H 749.94 4.84617 3.5393 0
M  V30 7796 H 751.01 4.30374 2.23397 0
M  V30 7797 N 752.353 -0.854086 1.3245 0
M  V30 7798 C 753.764 -1.42427 1.20712 0
M  V30 7799 C 754.115 -1.95371 -0.18013 0
M  V30 7800 O 753.24 -1.87587 -1.07889 0
M  V30 7801 C 753.835 -2.58897 2.18536 0
M  V30 7802 C 752.394 -3.11913 2.10683 0
M  V30 7803 C 751.541 -1.84661 2.06871 0
M  V30 7804 H 754.492 -0.661192 1.4427 0
M  V30 7805 H 754.513 -3.36074 1.78422 0
M  V30 7806 H 754.025 -2.20333 3.19492 0
M  V30 7807 H 752.126 -3.55059 1.12977 0
M  V30 7808 H 752.239 -3.73119 3.00532 0
M  V30 7809 H 750.603 -2.04285 1.52118 0
M  V30 7810 H 751.386 -1.48314 3.09609 0
M  V30 7811 N 753.831 -1.1567 -1.07043 0
M  V30 7812 C 754.779 -0.852204 -2.16426 0
M  V30 7813 C 755.773 0.175661 -1.68487 0
M  V30 7814 O 756.979 0.0303874 -1.79974 0
M  V30 7815 H 753.354 -0.257942 -0.706378 0
M  V30 7816 H 755.325 -1.78231 -2.39324 0
M  V30 7817 C 754.074 -0.361362 -3.45817 0
M  V30 7818 H 753.397 -1.14369 -3.83092 0
M  V30 7819 H 754.837 -0.186997 -4.23587 0
M  V30 7820 C 753.296 0.917703 -3.2416 0
M  V30 7821 O 753.826 1.98858 -3.49025 0
M  V30 7822 N 752.032 0.858456 -2.77631 0
M  V30 7823 H 751.579 -0.0131821 -2.57597 0
M  V30 7824 H 751.537 1.71478 -2.6352 0
M  V30 7825 N 755.309 1.25446 -0.953992 0
M  V30 7826 C 756.555 1.9343 -0.60933 0
M  V30 7827 C 756.888 1.74542 0.851388 0
M  V30 7828 O 756.163 1.09014 1.61078 0
M  V30 7829 C 756.446 3.46844 -0.968041 0
M  V30 7830 C 756.299 3.74961 -2.48444 0
M  V30 7831 C 757.618 4.37334 -0.492641 0
M  V30 7832 H 754.737 0.702502 -0.222844 0
M  V30 7833 H 757.379 1.48076 -1.19053 0
M  V30 7834 H 755.529 3.85604 -0.473465 0
M  V30 7835 H 757.201 3.45841 -3.05273 0
M  V30 7836 H 755.444 3.20589 -2.92241 0
M  V30 7837 H 756.115 4.82246 -2.68594 0
M  V30 7838 H 758.591 4.05873 -0.916878 0
M  V30 7839 H 757.467 5.43439 -0.772331 0
M  V30 7840 H 757.728 4.37908 0.607403 0
M  V30 7841 N 756.787 0.722489 1.40064 0
M  V30 7842 C 758.015 0.274838 2.05066 0
M  V30 7843 C 758.43 -1.08586 1.54449 0
M  V30 7844 O 757.787 -1.68375 0.704003 0
M  V30 7845 C 757.838 0.253673 3.60609 0
M  V30 7846 O 757.559 1.56064 4.0936 0
M  V30 7847 C 759.06 -0.211684 4.42794 0
M  V30 7848 H 756.28 0.12226 0.659768 0
M  V30 7849 H 758.824 0.982632 1.79345 0
M  V30 7850 H 756.979 -0.405137 3.85276 0
M  V30 7851 H 757.393 1.46576 5.03603 0
M  V30 7852 H 758.867 -0.175341 5.51721 0
M  V30 7853 H 759.344 -1.25493 4.2089 0
M  V30 7854 H 759.95 0.4171 4.2325 0
M  V30 7855 N 758.265 -1.50454 0.469181 0
M  V30 7856 C 759.493 -2.06729 -0.0842134 0
M  V30 7857 C 759.908 -1.33326 -1.33677 0
M  V30 7858 O 759.265 -0.401977 -1.78018 0
M  V30 7859 C 759.316 -3.59557 -0.374253 0
M  V30 7860 O 759.037 -4.30192 0.828622 0
M  V30 7861 C 760.538 -4.32449 -0.974824 0
M  V30 7862 H 757.758 -0.670971 0.006231 0
M  V30 7863 H 760.302 -1.93645 0.657415 0
M  V30 7864 H 758.457 -3.7245 -1.06581 0
M  V30 7865 H 758.871 -5.21371 0.572066 0
M  V30 7866 H 760.345 -5.40361 -1.12755 0
M  V30 7867 H 760.822 -3.92819 -1.96442 0
M  V30 7868 H 761.428 -4.24082 -0.321703 0
M  V30 7869 N 759.743 -0.201713 -1.56304 0
M  V30 7870 C 760.989 0.435952 -1.98059 0
M  V30 7871 C 761.322 1.60811 -1.08873 0
M  V30 7872 O 760.597 1.9398 -0.142128 0
M  V30 7873 C 760.88 0.889706 -3.48936 0
M  V30 7874 C 760.733 -0.284725 -4.48898 0
M  V30 7875 C 762.052 1.7529 -4.03685 0
M  V30 7876 H 759.171 0.15699 -0.720085 0
M  V30 7877 H 761.813 -0.293965 -1.87712 0
M  V30 7878 H 759.963 1.51166 -3.57884 0
M  V30 7879 H 761.635 -0.922531 -4.51981 0
M  V30 7880 H 759.878 -0.935427 -4.23594 0
M  V30 7881 H 760.549 0.0753865 -5.51949 0
M  V30 7882 H 763.025 1.2283 -3.97558 0
M  V30 7883 H 761.901 2.03933 -5.0961 0
M  V30 7884 H 762.162 2.70939 -3.49348 0
M  V30 7885 N 761.222 1.57436 0.0718424 0
M  V30 7886 C 762.132 2.07039 1.10326 0
M  V30 7887 C 763.148 0.999918 1.424 0
M  V30 7888 O 764.324 1.31462 1.52577 0
M  V30 7889 C 761.389 2.50439 2.39752 0
M  V30 7890 C 760.45 3.71784 2.14651 0
M  V30 7891 C 759.683 4.13104 3.37906 0
M  V30 7892 O 759.906 3.54298 4.47023 0
M  V30 7893 O 758.84 5.05894 3.26121 0
M  V30 7894 H 762.666 2.95239 0.711872 0
M  V30 7895 H 760.251 1.46638 0.28597 0
M  V30 7896 H 762.133 2.78876 3.15921 0
M  V30 7897 H 760.808 1.65368 2.78271 0
M  V30 7898 H 759.715 3.48431 1.36187 0
M  V30 7899 H 761.048 4.57707 1.81012 0
M  V30 7900 N 762.7 -0.34323 1.53817 0
M  V30 7901 C 764.116 -0.686355 1.44088 0
M  V30 7902 C 764.316 -1.92426 0.597882 0
M  V30 7903 O 763.372 -2.52343 0.0889918 0
M  V30 7904 C 764.685 -0.878698 2.87575 0
M  V30 7905 C 766.233 -0.977296 2.97352 0
M  V30 7906 C 766.708 -1.20195 4.41947 0
M  V30 7907 N 768.199 -1.26915 4.45474 0
M  V30 7908 C 768.934 -1.46049 5.54488 0
M  V30 7909 N 768.43 -1.62354 6.73508 0
M  V30 7910 N 770.223 -1.48599 5.42102 0
M  V30 7911 H 762.374 0.470679 2.07119 0
M  V30 7912 H 764.637 0.148652 0.936273 0
M  V30 7913 H 764.343 -0.040602 3.51677 0
M  V30 7914 H 764.217 -1.78034 3.32541 0
M  V30 7915 H 766.604 -1.80591 2.3339 0
M  V30 7916 H 766.685 -0.0525498 2.55746 0
M  V30 7917 H 766.329 -0.378262 5.06489 0
M  V30 7918 H 766.259 -2.14027 4.81145 0
M  V30 7919 H 768.75 -1.15837 3.59708 0
M  V30 7920 H 769.063 -1.76591 7.52353 0
M  V30 7921 H 767.408 -1.5949 6.76453 0
M  V30 7922 H 770.599 -1.35443 4.48077 0
M  V30 7923 H 770.772 -1.6317 6.2712 0
M  V30 7924 N 764.178 -1.45556 -0.604258 0
M  V30 7925 C 765.126 -1.5482 -1.7359 0
M  V30 7926 C 766.12 -0.417966 -1.64163 0
M  V30 7927 O 767.326 -0.594007 -1.69916 0
M  V30 7928 H 763.701 -0.486352 -0.573556 0
M  V30 7929 H 765.672 -2.5001 -1.62903 0
M  V30 7930 C 764.421 -1.53521 -3.11972 0
M  V30 7931 H 763.744 -2.39818 -3.19886 0
M  V30 7932 H 765.184 -1.64061 -3.90973 0
M  V30 7933 C 763.643 -0.260191 -3.35894 0
M  V30 7934 O 764.173 0.658582 -3.96265 0
M  V30 7935 N 762.379 -0.154839 -2.90187 0
M  V30 7936 H 761.926 -0.903378 -2.4124 0
M  V30 7937 H 761.884 0.697437 -3.06567 0
M  V30 7938 N 765.656 0.84705 -1.32902 0
M  V30 7939 C 766.905 1.59667 -1.23245 0
M  V30 7940 C 767.218 1.94551 0.202349 0
M  V30 7941 O 768.424 2.68218 0.420847 0
M  V30 7942 C 766.88 2.8795 -2.15901 0
M  V30 7943 C 766.488 2.60461 -3.64505 0
M  V30 7944 C 768.232 3.65968 -2.15098 0
M  V30 7945 C 766.139 3.84791 -4.49099 0
M  V30 7946 H 765.069 0.599167 -0.457728 0
M  V30 7947 H 767.72 0.934662 -1.57912 0
M  V30 7948 H 766.102 3.55648 -1.74157 0
M  V30 7949 H 767.276 2.01026 -4.14639 0
M  V30 7950 H 765.591 1.9576 -3.67515 0
M  V30 7951 H 768.188 4.58241 -2.75534 0
M  V30 7952 H 768.531 4.00275 -1.14392 0
M  V30 7953 H 769.064 3.05184 -2.55162 0
M  V30 7954 H 765.803 3.55621 -5.50649 0
M  V30 7955 H 765.323 4.43594 -4.03713 0
M  V30 7956 H 767.002 4.52454 -4.62487 0
M  V30 7957 N 767.134 1.16236 1.06428 0
M  V30 7958 C 768.411 0.853294 1.76006 0
M  V30 7959 C 768.791 -0.649162 2.00871 0
M  V30 7960 O 768.139 -1.59653 1.63472 0
M  V30 7961 C 768.349 1.67448 3.06206 0
M  V30 7962 C 769.697 1.8866 3.80385 0
M  V30 7963 O 770.721 1.64303 3.16043 0
M  V30 7964 O 769.58 2.29518 4.95968 0
M  V30 7965 H 766.674 0.314737 0.764767 0
M  V30 7966 H 769.22 1.26865 1.12709 0
M  V30 7967 H 767.992 2.69411 2.83784 0
M  V30 7968 H 767.615 1.25608 3.77238 0
M  V30 7969 N 768.612 -1.24939 0.960631 0
M  V30 7970 C 769.544 -2.24879 0.442937 0
M  V30 7971 C 770.557 -1.56615 -0.444464 0
M  V30 7972 O 771.746 -1.76715 -0.251776 0
M  V30 7973 C 768.846 -3.36757 -0.380537 0
M  V30 7974 C 768.019 -4.34587 0.495283 0
M  V30 7975 C 767.078 -5.25502 -0.270995 0
M  V30 7976 O 766.104 -5.68227 0.332661 0
M  V30 7977 N 767.306 -5.59077 -1.56249 0
M  V30 7978 H 770.071 -2.69932 1.30218 0
M  V30 7979 H 767.632 -1.38907 0.83166 0
M  V30 7980 H 769.624 -3.94542 -0.90103 0
M  V30 7981 H 768.194 -2.91045 -1.14067 0
M  V30 7982 H 767.414 -3.75593 1.19682 0
M  V30 7983 H 768.702 -4.96925 1.09285 0
M  V30 7984 H 768.1 -5.2628 -2.07476 0
M  V30 7985 H 766.657 -6.19421 -2.02882 0
M  V30 7986 N 770.09 -0.729906 -1.39679 0
M  V30 7987 C 771.053 -0.0951668 -2.29002 0
M  V30 7988 C 772.053 0.672471 -1.46063 0
M  V30 7989 O 773.243 0.502245 -1.66803 0
M  V30 7990 C 770.375 0.874631 -3.29489 0
M  V30 7991 H 771.568 -0.882062 -2.86635 0
M  V30 7992 H 769.121 -0.495424 -1.4824 0
M  V30 7993 H 769.856 1.68807 -2.76902 0
M  V30 7994 H 769.641 0.326893 -3.90735 0
M  V30 7995 H 771.131 1.31548 -3.96339 0
M  V30 7996 N 771.568 1.50203 -0.477153 0
M  V30 7997 C 772.814 2.02658 0.0758507 0
M  V30 7998 C 773.147 1.358 1.38824 0
M  V30 7999 O 772.422 0.485696 1.88338 0
M  V30 8000 C 772.705 3.59208 0.253339 0
M  V30 8001 C 772.558 4.36629 -1.0805 0
M  V30 8002 C 773.877 4.28469 1.00509 0
M  V30 8003 H 770.996 0.736538 0.0260921 0
M  V30 8004 H 773.638 1.79464 -0.623925 0
M  V30 8005 H 771.788 3.79101 0.849378 0
M  V30 8006 H 773.46 4.28292 -1.71358 0
M  V30 8007 H 771.703 4.0013 -1.67566 0
M  V30 8008 H 772.374 5.44449 -0.909883 0
M  V30 8009 H 774.85 4.13087 0.499818 0
M  V30 8010 H 773.726 5.37804 1.09808 0
M  V30 8011 H 773.987 3.92057 2.04314 0
M  V30 8012 N 773.046 0.209999 1.56195 0
M  V30 8013 C 774.274 -0.429996 2.02382 0
M  V30 8014 C 774.689 -1.54159 1.08998 0
M  V30 8015 O 774.046 -1.82239 0.0974856 0
M  V30 8016 C 774.097 -0.972433 3.48175 0
M  V30 8017 O 773.818 0.0948231 4.37997 0
M  V30 8018 C 775.319 -1.68683 4.09952 0
M  V30 8019 H 772.539 -0.106475 0.662498 0
M  V30 8020 H 775.083 0.323072 2.01932 0
M  V30 8021 H 773.238 -1.67582 3.49278 0
M  V30 8022 H 773.652 -0.31113 5.23576 0
M  V30 8023 H 775.126 -2.01851 5.13771 0
M  V30 8024 H 775.603 -2.59587 3.54276 0
M  V30 8025 H 776.209 -1.02893 4.12666 0
M  V30 8026 N 774.524 -1.57472 -0.0634922 0
M  V30 8027 C 775.487 -2.03268 -1.059 0
M  V30 8028 C 776.487 -0.931028 -1.31105 0
M  V30 8029 O 777.677 -1.19567 -1.26686 0
M  V30 8030 C 774.809 -2.42039 -2.40062 0
M  V30 8031 H 776.002 -2.92454 -0.664119 0
M  V30 8032 H 773.555 -1.53206 -0.309444 0
M  V30 8033 H 774.29 -1.55904 -2.84367 0
M  V30 8034 H 774.075 -3.22437 -2.23108 0
M  V30 8035 H 775.565 -2.78017 -3.11603 0
M  V30 8036 N 776.003 0.335068 -1.53997 0
M  V30 8037 C 776.966 1.39481 -1.81872 0
M  V30 8038 C 777.966 1.4524 -0.690078 0
M  V30 8039 O 779.156 1.45467 -0.958377 0
M  V30 8040 C 776.288 2.78329 -1.9684 0
M  V30 8041 H 777.481 1.16024 -2.76547 0
M  V30 8042 H 775.034 0.569926 -1.45539 0
M  V30 8043 H 775.769 3.07058 -1.04337 0
M  V30 8044 H 775.554 2.75544 -2.78958 0
M  V30 8045 H 777.044 3.55016 -2.19894 0
M  V30 8046 N 777.481 1.45874 0.596531 0
M  V30 8047 C 778.411 1.5824 1.71705 0
M  V30 8048 C 779.392 0.433366 1.64487 0
M  V30 8049 O 780.577 0.657895 1.82717 0
M  V30 8050 C 777.707 1.55927 3.10329 0
M  V30 8051 C 776.661 2.69659 3.32367 0
M  V30 8052 C 775.987 2.52403 4.71377 0
M  V30 8053 C 777.287 4.11591 3.21544 0
M  V30 8054 H 778.981 2.52035 1.61613 0
M  V30 8055 H 776.527 1.21297 0.776082 0
M  V30 8056 H 778.48 1.63173 3.88526 0
M  V30 8057 H 777.204 0.586674 3.21288 0
M  V30 8058 H 775.863 2.61859 2.56564 0
M  V30 8059 H 775.511 1.53258 4.79083 0
M  V30 8060 H 775.211 3.28679 4.87077 0
M  V30 8061 H 776.735 2.6152 5.5176 0
M  V30 8062 H 778.149 4.20576 3.89601 0
M  V30 8063 H 776.546 4.88344 3.4877 0
M  V30 8064 H 777.616 4.32719 2.1882 0
M  V30 8065 N 778.959 -0.83999 1.33349 0
M  V30 8066 C 779.869 -1.98182 1.25543 0
M  V30 8067 C 780.885 -1.73204 0.166208 0
M  V30 8068 O 782.061 -1.97596 0.389589 0
M  V30 8069 C 779.126 -3.32157 0.993614 0
M  V30 8070 C 778.187 -3.70258 2.17273 0
M  V30 8071 C 777.42 -4.9784 1.92331 0
M  V30 8072 O 777.643 -5.63679 0.873074 0
M  V30 8073 O 776.577 -5.33418 2.78835 0
M  V30 8074 H 780.403 -2.07708 2.21565 0
M  V30 8075 H 777.988 -0.972852 1.13384 0
M  V30 8076 H 779.87 -4.12433 0.864711 0
M  V30 8077 H 778.545 -3.23637 0.0636596 0
M  V30 8078 H 777.452 -2.90497 2.35716 0
M  V30 8079 H 778.785 -3.83442 3.08598 0
M  V30 8080 N 780.437 -1.16799 -1.0581 0
M  V30 8081 C 781.665 -0.97687 -1.82387 0
M  V30 8082 C 782.08 0.474917 -1.82729 0
M  V30 8083 O 781.437 1.3297 -1.25001 0
M  V30 8084 C 781.488 -1.50279 -3.28783 0
M  V30 8085 O 781.209 -2.89772 -3.28578 0
M  V30 8086 C 782.71 -1.35538 -4.22071 0
M  V30 8087 H 779.93 -0.345977 -0.574927 0
M  V30 8088 H 782.474 -1.54942 -1.33466 0
M  V30 8089 H 780.629 -0.972414 -3.74997 0
M  V30 8090 H 781.043 -3.13954 -4.20159 0
M  V30 8091 H 782.517 -1.7716 -5.22799 0
M  V30 8092 H 782.994 -0.301598 -4.38163 0
M  V30 8093 H 783.6 -1.87562 -3.81708 0
M  V30 8094 N 781.915 1.24427 -0.967243 0
M  V30 8095 C 783.331 1.44684 -0.6737 0
M  V30 8096 C 783.531 1.86429 0.764625 0
M  V30 8097 O 782.587 2.00211 1.53857 0
M  V30 8098 C 783.9 2.509 -1.6574 0
M  V30 8099 C 785.448 2.64728 -1.66998 0
M  V30 8100 C 785.923 3.7414 -2.64165 0
M  V30 8101 N 787.414 3.81567 -2.62604 0
M  V30 8102 C 788.149 4.6575 -3.34462 0
M  V30 8103 N 787.645 5.54124 -4.15835 0
M  V30 8104 N 789.438 4.59827 -3.23288 0
M  V30 8105 H 781.589 0.956276 -1.89655 0
M  V30 8106 H 783.852 0.48171 -0.816492 0
M  V30 8107 H 783.558 2.27113 -2.68538 0
M  V30 8108 H 783.432 3.4905 -1.42981 0
M  V30 8109 H 785.819 2.87872 -0.649121 0
M  V30 8110 H 785.9 1.66936 -1.93819 0
M  V30 8111 H 785.544 3.51745 -3.66384 0
M  V30 8112 H 785.474 4.71444 -2.34623 0
M  V30 8113 H 787.965 3.18403 -2.03539 0
M  V30 8114 H 788.278 6.15316 -4.67553 0
M  V30 8115 H 786.623 5.53791 -4.19929 0
M  V30 8116 H 789.814 3.898 -2.59179 0
M  V30 8117 H 789.987 5.25208 -3.79553 0
M  V30 8118 N 783.393 0.737304 1.3929 0
M  V30 8119 C 784.343 0.0748537 2.27877 0
M  V30 8120 C 785.327 -0.71022 1.44377 0
M  V30 8121 O 786.519 -0.578851 1.67267 0
M  V30 8122 C 783.648 -0.82991 3.33118 0
M  V30 8123 C 782.734 -0.0388619 4.24082 0
M  V30 8124 N 783.125 0.989182 4.96033 0
M  V30 8125 C 781.423 -0.268167 4.45193 0
M  V30 8126 C 782.124 1.46639 5.62914 0
M  V30 8127 N 781.1 0.784581 5.37908 0
M  V30 8128 H 784.902 0.862457 2.80961 0
M  V30 8129 H 782.416 0.571845 1.51999 0
M  V30 8130 H 784.413 -1.31999 3.95452 0
M  V30 8131 H 783.073 -1.61665 2.81593 0
M  V30 8132 H 784.084 1.3706 4.99435 0
M  V30 8133 H 780.761 -1.02953 4.04607 0
M  V30 8134 H 782.151 2.32182 6.30508 0
M  V30 8135 N 784.871 -1.49948 0.485112 0
M  V30 8136 C 785.821 -2.25734 -0.320658 0
M  V30 8137 C 786.805 -1.29907 -0.949373 0
M  V30 8138 O 787.997 -1.54725 -0.859601 0
M  V30 8139 C 785.126 -3.13728 -1.39391 0
M  V30 8140 C 784.212 -4.1701 -0.772225 0
M  V30 8141 N 784.603 -5.05667 0.115782 0
M  V30 8142 C 782.901 -4.33834 -1.03461 0
M  V30 8143 C 783.602 -5.79798 0.47004 0
M  V30 8144 N 782.578 -5.4337 -0.158204 0
M  V30 8145 H 786.38 -2.91647 0.36319 0
M  V30 8146 H 783.894 -1.59602 0.300154 0
M  V30 8147 H 785.891 -3.66639 -1.98447 0
M  V30 8148 H 784.551 -2.49365 -2.0796 0
M  V30 8149 H 785.562 -5.15619 0.485557 0
M  V30 8150 H 782.239 -3.80684 -1.71424 0
M  V30 8151 H 783.629 -6.61177 1.19558 0
M  V30 8152 N 786.349 -0.21828 -1.56081 0
M  V30 8153 C 787.299 0.706492 -2.16778 0
M  V30 8154 C 788.283 1.15987 -1.11516 0
M  V30 8155 O 789.475 1.11441 -1.37513 0
M  V30 8156 C 786.604 1.91583 -2.8487 0
M  V30 8157 C 785.69 1.48228 -3.97353 0
M  V30 8158 N 786.081 0.761113 -5.00041 0
M  V30 8159 C 784.379 1.76982 -4.09382 0
M  V30 8160 C 785.08 0.540496 -5.79184 0
M  V30 8161 N 784.056 1.09622 -5.32432 0
M  V30 8162 H 787.858 0.147038 -2.93532 0
M  V30 8163 H 785.372 -0.0194049 -1.62388 0
M  V30 8164 H 787.369 2.58906 -3.26762 0
M  V30 8165 H 786.029 2.47979 -2.09611 0
M  V30 8166 H 787.04 0.414141 -5.16241 0
M  V30 8167 H 783.717 2.34721 -3.45271 0
M  V30 8168 H 785.107 -0.0332531 -6.71892 0
M  V30 8169 N 787.827 1.57504 0.0551401 0
M  V30 8170 C 789.055 1.92294 0.76358 0
M  V30 8171 C 789.47 0.815774 1.70266 0
M  V30 8172 O 788.827 -0.209772 1.8129 0
M  V30 8173 C 788.878 3.26914 1.54302 0
M  V30 8174 O 788.599 4.33375 0.641666 0
M  V30 8175 C 790.1 3.75825 2.35097 0
M  V30 8176 H 787.32 0.635229 0.216159 0
M  V30 8177 H 789.864 2.0449 0.0204385 0
M  V30 8178 H 788.019 3.16196 2.23828 0
M  V30 8179 H 788.433 5.10927 1.1855 0
M  V30 8180 H 789.907 4.72603 2.8522 0
M  V30 8181 H 790.384 3.0568 3.15367 0
M  V30 8182 H 790.99 3.89542 1.70696 0
M  V30 8183 N 789.305 -0.326896 1.54172 0
M  V30 8184 C 790.237 -1.42319 1.79661 0
M  V30 8185 C 791.25 -1.47989 0.678456 0
M  V30 8186 O 792.439 -1.50773 0.955503 0
M  V30 8187 C 789.539 -2.80876 1.89636 0
M  V30 8188 C 788.712 -2.98449 3.19761 0
M  V30 8189 C 787.771 -4.17347 3.2048 0
M  V30 8190 O 786.797 -4.10667 3.94134 0
M  V30 8191 N 787.999 -5.26717 2.44027 0
M  V30 8192 H 790.764 -1.20819 2.74268 0
M  V30 8193 H 788.325 -0.516866 1.53428 0
M  V30 8194 H 790.317 -3.58619 1.87549 0
M  V30 8195 H 788.887 -2.95442 1.02141 0
M  V30 8196 H 788.107 -2.08035 3.34836 0
M  V30 8197 H 789.395 -3.07083 4.05681 0
M  V30 8198 H 788.793 -5.35019 1.8377 0
M  V30 8199 H 787.35 -6.02891 2.47721 0
M  V30 8200 N 790.784 -1.46188 -0.588786 0
M  V30 8201 C 792.033 -1.50452 -1.34339 0
M  V30 8202 C 792.346 -0.158096 -1.9496 0
M  V30 8203 O 793.552 -0.0784918 -2.71387 0
M  V30 8204 C 792.008 -2.65074 -2.43441 0
M  V30 8205 C 791.616 -4.06111 -1.8915 0
M  V30 8206 C 793.36 -2.78603 -3.20282 0
M  V30 8207 C 791.267 -5.12084 -2.95845 0
M  V30 8208 H 790.197 -0.559905 -0.504997 0
M  V30 8209 H 792.848 -1.72382 -0.629014 0
M  V30 8210 H 791.23 -2.36462 -3.1765 0
M  V30 8211 H 792.404 -4.44487 -1.21524 0
M  V30 8212 H 790.719 -3.97197 -1.24995 0
M  V30 8213 H 793.316 -3.54944 -3.99898 0
M  V30 8214 H 793.659 -1.85902 -3.72486 0
M  V30 8215 H 794.192 -3.06832 -2.53178 0
M  V30 8216 H 790.931 -6.06556 -2.48535 0
M  V30 8217 H 790.451 -4.78259 -3.61979 0
M  V30 8218 H 792.13 -5.37661 -3.59902 0
M  V30 8219 N 792.262 0.832906 -1.33792 0
M  V30 8220 C 793.225 1.92471 -1.24449 0
M  V30 8221 C 794.225 1.59981 -0.162085 0
M  V30 8222 O 795.415 1.69208 -0.414029 0
M  V30 8223 C 792.547 3.28278 -0.919044 0
M  V30 8224 H 793.74 2.0218 -2.21502 0
M  V30 8225 H 791.293 1.0257 -1.17936 0
M  V30 8226 H 792.028 3.24263 0.048738 0
M  V30 8227 H 791.813 3.53241 -1.70187 0
M  V30 8228 H 793.303 4.08253 -0.878576 0
M  V30 8229 N 793.74 1.17359 1.05189 0
M  V30 8230 C 794.965 0.98709 1.82404 0
M  V30 8231 C 795.39 -0.459848 1.82392 0
M  V30 8232 O 794.748 -1.32924 1.23292 0
M  V30 8233 C 794.796 1.53276 3.26403 0
M  V30 8234 O 793.9 0.746541 4.05587 0
M  V30 8235 H 793.241 0.35047 0.563974 0
M  V30 8236 H 795.771 1.55856 1.32552 0
M  V30 8237 H 795.781 1.55504 3.77203 0
M  V30 8238 H 794.456 2.58603 3.25726 0
M  V30 8239 H 793.033 0.795671 3.64312 0
M  V30 8240 N 795.218 -1.23913 0.973828 0
M  V30 8241 C 796.446 -1.96195 0.656891 0
M  V30 8242 C 796.861 -1.72166 -0.774876 0
M  V30 8243 O 796.218 -1.0091 -1.52064 0
M  V30 8244 C 796.269 -3.49342 0.929638 0
M  V30 8245 O 795.99 -3.72553 2.30512 0
M  V30 8246 C 797.491 -4.38833 0.627739 0
M  V30 8247 H 794.711 -0.624841 0.244572 0
M  V30 8248 H 797.255 -1.57579 1.30343 0
M  V30 8249 H 795.41 -3.85999 0.329216 0
M  V30 8250 H 795.824 -4.66893 2.3898 0
M  V30 8251 H 797.298 -5.45117 0.868991 0
M  V30 8252 H 797.775 -4.37009 -0.438104 0
M  V30 8253 H 798.381 -4.07773 1.20834 0
M  V30 8254 N 796.696 -0.74468 -1.38897 0
M  V30 8255 C 797.943 -0.296884 -2.00312 0
M  V30 8256 C 798.271 1.11878 -1.59102 0
M  V30 8257 O 797.526 1.7789 -0.815702 0
M  V30 8258 C 797.825 -0.357302 -3.55609 0
M  V30 8259 C 797.491 -1.72736 -4.16501 0
M  V30 8260 C 796.153 -2.10232 -4.32846 0
M  V30 8261 C 798.505 -2.62647 -4.50184 0
M  V30 8262 C 795.833 -3.3713 -4.80167 0
M  V30 8263 C 798.185 -3.88926 -4.98918 0
M  V30 8264 C 796.849 -4.26503 -5.1347 0
M  V30 8265 H 796.119 -0.108638 -0.732993 0
M  V30 8266 H 798.766 -0.953419 -1.66079 0
M  V30 8267 H 797.071 0.382805 -3.89925 0
M  V30 8268 H 798.768 0.0074596 -4.00999 0
M  V30 8269 H 795.358 -1.42585 -4.04187 0
M  V30 8270 H 799.542 -2.34945 -4.37166 0
M  V30 8271 H 794.798 -3.66174 -4.89619 0
M  V30 8272 H 798.972 -4.58745 -5.23952 0
M  V30 8273 H 796.599 -5.24896 -5.49898 0
M  V30 8274 N 798.174 1.49689 -0.493057 0
M  V30 8275 C 799.423 2.01622 0.0560733 0
M  V30 8276 C 799.736 1.37838 1.3878 0
M  V30 8277 O 800.942 1.81054 2.02316 0
M  V30 8278 C 799.398 3.59586 0.150409 0
M  V30 8279 C 799.006 4.32338 -1.1742 0
M  V30 8280 C 800.75 4.19489 0.650327 0
M  V30 8281 C 798.657 5.8214 -1.04246 0
M  V30 8282 H 797.587 0.753594 0.0247297 0
M  V30 8283 H 800.238 1.723 -0.631279 0
M  V30 8284 H 798.62 3.8559 0.902035 0
M  V30 8285 H 799.794 4.18042 -1.9385 0
M  V30 8286 H 798.109 3.84144 -1.60694 0
M  V30 8287 H 800.706 5.29181 0.766272 0
M  V30 8288 H 801.049 3.82326 1.6472 0
M  V30 8289 H 801.582 3.97775 -0.0445371 0
M  V30 8290 H 798.321 6.23814 -2.01336 0
M  V30 8291 H 797.841 5.98952 -0.31892 0
M  V30 8292 H 799.52 6.43004 -0.717957 0
M  V30 8293 N 799.652 0.226554 1.55963 0
M  V30 8294 C 800.615 -0.668015 2.19249 0
M  V30 8295 C 801.615 -1.11794 1.1558 0
M  V30 8296 O 802.805 -1.02593 1.40784 0
M  V30 8297 C 799.937 -1.91571 2.81981 0
M  V30 8298 H 801.13 -0.116175 2.99675 0
M  V30 8299 H 798.683 -0.0230497 1.56283 0
M  V30 8300 H 799.418 -2.50929 2.05439 0
M  V30 8301 H 799.203 -1.6015 3.57903 0
M  V30 8302 H 800.693 -2.55294 3.30477 0
M  V30 8303 N 801.13 -1.57531 -0.0467866 0
M  V30 8304 C 802.376 -1.8873 -0.742218 0
M  V30 8305 C 802.709 -0.822084 -1.75941 0
M  V30 8306 O 801.984 0.164922 -1.938 0
M  V30 8307 C 802.267 -3.30586 -1.42776 0
M  V30 8308 C 802.12 -4.47785 -0.425285 0
M  V30 8309 C 803.439 -3.71068 -2.36636 0
M  V30 8310 H 800.558 -0.686406 -0.268359 0
M  V30 8311 H 803.2 -1.89999 -0.00511341 0
M  V30 8312 H 801.35 -3.29634 -2.05605 0
M  V30 8313 H 803.022 -4.60867 0.199721 0
M  V30 8314 H 801.265 -4.33037 0.25713 0
M  V30 8315 H 801.936 -5.43884 -0.943086 0
M  V30 8316 H 804.412 -3.73273 -1.83866 0
M  V30 8317 H 803.288 -4.71165 -2.81593 0
M  V30 8318 H 803.549 -3.02355 -3.22542 0
M  V30 8319 N 802.608 0.318715 -1.54344 0
M  V30 8320 C 803.854 1.05765 -1.73037 0
M  V30 8321 C 804.187 1.87514 -0.505181 0
M  V30 8322 O 803.462 1.88021 0.497838 0
M  V30 8323 C 803.745 1.97836 -3.00887 0
M  V30 8324 C 803.598 1.19384 -4.33668 0
M  V30 8325 C 804.917 2.97285 -3.24514 0
M  V30 8326 H 802.036 0.383104 -0.629603 0
M  V30 8327 H 804.678 0.333864 -1.87044 0
M  V30 8328 H 802.828 2.59552 -2.89076 0
M  V30 8329 H 804.5 0.600906 -4.57369 0
M  V30 8330 H 802.743 0.496198 -4.30953 0
M  V30 8331 H 803.414 1.87014 -5.19355 0
M  V30 8332 H 805.89 2.45693 -3.35819 0
M  V30 8333 H 804.766 3.58887 -4.15321 0
M  V30 8334 H 805.027 3.70003 -2.41971 0
M  V30 8335 N 804.086 1.46499 0.581025 0
M  V30 8336 C 805.018 1.53225 1.70455 0
M  V30 8337 C 806.031 0.420443 1.57277 0
M  V30 8338 O 807.22 0.688888 1.64671 0
M  V30 8339 C 804.32 1.39803 3.08721 0
M  V30 8340 C 803.493 2.65132 3.47884 0
M  V30 8341 C 802.552 2.45886 4.65217 0
M  V30 8342 O 801.578 3.19615 4.70993 0
M  V30 8343 N 802.78 1.5216 5.60203 0
M  V30 8344 H 805.545 2.50098 1.65139 0
M  V30 8345 H 803.106 1.42576 0.76705 0
M  V30 8346 H 805.098 1.24697 3.8501 0
M  V30 8347 H 803.668 0.51104 3.08394 0
M  V30 8348 H 802.888 2.95169 2.61284 0
M  V30 8349 H 804.176 3.48385 3.70817 0
M  V30 8350 H 803.574 0.913646 5.58273 0
M  V30 8351 H 802.131 1.43017 6.35916 0
M  V30 8352 N 805.565 -0.825799 1.34232 0
M  V30 8353 C 806.528 -1.91808 1.25468 0
M  V30 8354 C 807.528 -1.59893 0.170567 0
M  V30 8355 O 808.718 -1.68986 0.422996 0
M  V30 8356 C 805.85 -3.27786 0.93644 0
M  V30 8357 H 807.043 -2.01003 2.22571 0
M  V30 8358 H 804.596 -1.01944 1.18479 0
M  V30 8359 H 805.331 -3.24285 -0.0315408 0
M  V30 8360 H 805.116 -3.52333 1.72057 0
M  V30 8361 H 806.606 -4.07782 0.900214 0
M  V30 8362 N 807.043 -1.17915 -1.04565 0
M  V30 8363 C 808.292 -0.965816 -1.77073 0
M  V30 8364 C 808.605 0.506005 -1.88942 0
M  V30 8365 O 809.811 0.837717 -2.58253 0
M  V30 8366 C 808.267 -1.67894 -3.18339 0
M  V30 8367 C 807.875 -3.18972 -3.1458 0
M  V30 8368 C 809.619 -1.54823 -3.9526 0
M  V30 8369 C 807.526 -3.82946 -4.50674 0
M  V30 8370 H 806.456 -0.357729 -0.663736 0
M  V30 8371 H 809.107 -1.41235 -1.17153 0
M  V30 8372 H 807.489 -1.16016 -3.78624 0
M  V30 8373 H 808.663 -3.77835 -2.63776 0
M  V30 8374 H 806.978 -3.32127 -2.51159 0
M  V30 8375 H 809.575 -1.99984 -4.95894 0
M  V30 8376 H 809.918 -0.499727 -4.1329 0
M  V30 8377 H 810.451 -2.03953 -3.41538 0
M  V30 8378 H 807.19 -4.8782 -4.37849 0
M  V30 8379 H 806.71 -3.2887 -5.01602 0
M  V30 8380 H 808.389 -3.85518 -5.196 0
M  V30 8381 N 808.521 1.23394 -0.980386 0
M  V30 8382 C 809.767 1.92094 -0.650223 0
M  V30 8383 C 810.1 1.76309 0.814173 0
M  V30 8384 O 809.375 1.12406 1.5873 0
M  V30 8385 C 809.658 3.44713 -1.04139 0
M  V30 8386 C 809.511 3.69606 -2.56342 0
M  V30 8387 C 810.83 4.36191 -0.585296 0
M  V30 8388 H 807.949 0.697618 -0.237695 0
M  V30 8389 H 810.591 1.45517 -1.22167 0
M  V30 8390 H 808.741 3.84513 -0.55515 0
M  V30 8391 H 810.413 3.39288 -3.1254 0
M  V30 8392 H 808.656 3.14318 -2.98976 0
M  V30 8393 H 809.327 4.76441 -2.78762 0
M  V30 8394 H 811.803 4.03836 -1.00276 0
M  V30 8395 H 810.679 5.41679 -0.887428 0
M  V30 8396 H 810.94 4.39097 0.51438 0
M  V30 8397 N 809.999 0.752036 1.385 0
M  V30 8398 C 811.415 0.42946 1.53713 0
M  V30 8399 C 811.615 -1.0576 1.71514 0
M  V30 8400 O 810.671 -1.84366 1.72527 0
M  V30 8401 C 811.984 1.22735 2.74511 0
M  V30 8402 C 813.532 1.21727 2.8836 0
M  V30 8403 C 814.007 1.99809 4.12117 0
M  V30 8404 N 815.498 1.97062 4.19191 0
M  V30 8405 C 816.233 2.54274 5.13938 0
M  V30 8406 N 815.729 3.20193 6.14368 0
M  V30 8407 N 817.522 2.44212 5.06277 0
M  V30 8408 H 809.673 1.71581 1.25195 0
M  V30 8409 H 811.936 0.727293 0.60807 0
M  V30 8410 H 811.642 2.28032 2.67758 0
M  V30 8411 H 811.516 0.843186 3.67655 0
M  V30 8412 H 813.903 0.172367 2.94596 0
M  V30 8413 H 813.984 1.64094 1.96232 0
M  V30 8414 H 813.628 3.0431 4.06642 0
M  V30 8415 H 813.558 1.54837 5.03322 0
M  V30 8416 H 816.049 1.49054 3.47263 0
M  V30 8417 H 816.362 3.61272 6.83156 0
M  V30 8418 H 814.707 3.24287 6.14705 0
M  V30 8419 H 817.898 1.92343 4.26757 0
M  V30 8420 H 818.071 2.89096 5.79937 0
M  V30 8421 N 811.477 -1.49425 0.500989 0
M  V30 8422 C 812.705 -2.06861 -0.0403443 0
M  V30 8423 C 813.12 -1.36132 -1.30819 0
M  V30 8424 O 812.477 -0.439647 -1.77125 0
M  V30 8425 C 812.528 -3.6027 -0.297902 0
M  V30 8426 O 812.249 -4.28338 0.919686 0
M  V30 8427 C 813.75 -4.34419 -0.882876 0
M  V30 8428 H 810.97 -0.670688 0.0204619 0
M  V30 8429 H 813.514 -1.92207 0.698342 0
M  V30 8430 H 811.669 -3.74627 -0.98657 0
M  V30 8431 H 812.083 -5.2004 0.682528 0
M  V30 8432 H 813.557 -5.42631 -1.01268 0
M  V30 8433 H 814.034 -3.96898 -1.88066 0
M  V30 8434 H 814.64 -4.24669 -0.231677 0
M  V30 8435 N 812.955 -0.234822 -1.55841 0
M  V30 8436 C 813.918 0.656378 -2.196 0
M  V30 8437 C 814.918 1.11179 -1.16171 0
M  V30 8438 O 816.108 1.01845 -1.41326 0
M  V30 8439 C 813.24 1.90072 -2.82993 0
M  V30 8440 H 814.433 0.100281 -2.99732 0
M  V30 8441 H 811.986 0.0147613 -1.56293 0
M  V30 8442 H 812.721 2.49836 -2.06767 0
M  V30 8443 H 812.506 1.5825 -3.58747 0
M  V30 8444 H 813.996 2.53538 -3.31826 0
M  V30 8445 N 814.433 1.57553 0.0384317 0
M  V30 8446 C 815.681 1.88468 0.729672 0
M  V30 8447 C 816.002 0.831302 1.76393 0
M  V30 8448 O 815.272 -0.13622 1.95426 0
M  V30 8449 H 813.852 0.695529 0.272485 0
M  V30 8450 H 816.514 1.94899 0.0066032 0
M  V30 8451 H 815.61 2.8705 1.22511 0
M  V30 8452 N 815.911 -0.310526 1.54511 0
M  V30 8453 C 817.159 -1.04484 1.72996 0
M  V30 8454 C 817.48 -1.88118 0.513479 0
M  V30 8455 O 816.75 -1.90119 -0.472384 0
M  V30 8456 H 815.33 -0.388747 0.637875 0
M  V30 8457 H 817.992 -0.343811 1.91844 0
M  V30 8458 H 817.088 -1.70341 2.61515 0
M  V30 8459 N 817.389 -1.46805 -0.573248 0
M  V30 8460 C 818.635 -1.53816 -1.33088 0
M  V30 8461 C 818.99 -0.191162 -1.91448 0
M  V30 8462 O 818.283 0.801299 -1.7404 0
M  V30 8463 C 818.477 -2.58001 -2.47326 0
M  V30 8464 C 818.306 -4.027 -2.00157 0
M  V30 8465 C 817.076 -4.70319 -1.84737 0
M  V30 8466 C 819.274 -4.90211 -1.55557 0
M  V30 8467 N 817.256 -5.99598 -1.31739 0
M  V30 8468 C 818.627 -6.09389 -1.14215 0
M  V30 8469 C 820.682 -4.76784 -1.43461 0
M  V30 8470 C 819.385 -7.16625 -0.619809 0
M  V30 8471 C 821.411 -5.84101 -0.926297 0
M  V30 8472 C 820.773 -7.02458 -0.522715 0
M  V30 8473 H 816.872 -0.617642 -0.479627 0
M  V30 8474 H 819.456 -1.83471 -0.65164 0
M  V30 8475 H 817.627 -2.3024 -3.128 0
M  V30 8476 H 819.359 -2.54951 -3.14296 0
M  V30 8477 H 816.114 -4.25982 -2.06969 0
M  V30 8478 H 816.538 -6.68431 -1.07374 0
M  V30 8479 H 821.18 -3.85661 -1.73279 0
M  V30 8480 H 818.898 -8.07508 -0.309228 0
M  V30 8481 H 822.484 -5.75755 -0.836485 0
M  V30 8482 H 821.364 -7.84083 -0.135467 0
M  V30 8483 N 818.867 0.818669 -1.34668 0
M  V30 8484 C 819.83 1.9114 -1.26483 0
M  V30 8485 C 820.83 1.598 -0.179044 0
M  V30 8486 O 822.02 1.6876 -0.431952 0
M  V30 8487 C 819.152 3.27285 -0.95381 0
M  V30 8488 H 820.345 1.9982 -2.23634 0
M  V30 8489 H 817.898 1.01314 -1.19018 0
M  V30 8490 H 818.633 3.24297 0.0143428 0
M  V30 8491 H 818.418 3.51416 -1.73924 0
M  V30 8492 H 819.908 4.07299 -0.921827 0
M  V30 8493 N 820.346 1.18468 1.03938 0
M  V30 8494 C 821.309 0.914944 2.10146 0
M  V30 8495 C 822.309 -0.10022 1.60487 0
M  V30 8496 O 823.499 0.133365 1.73689 0
M  V30 8497 C 820.631 0.372993 3.38853 0
M  V30 8498 H 821.824 1.85677 2.35508 0
M  V30 8499 H 819.377 0.996876 1.20383 0
M  V30 8500 H 820.112 -0.57538 3.19155 0
M  V30 8501 H 819.897 1.1048 3.76213 0
M  V30 8502 H 821.387 0.203014 4.17106 0
M  V30 8503 N 821.824 -1.22873 0.986916 0
M  V30 8504 C 822.787 -2.2281 0.537442 0
M  V30 8505 C 823.787 -1.56331 -0.37646 0
M  V30 8506 O 824.977 -1.73376 -0.169247 0
M  V30 8507 C 822.109 -3.40195 -0.219082 0
M  V30 8508 H 823.302 -2.64089 1.42116 0
M  V30 8509 H 820.855 -1.35819 0.773488 0
M  V30 8510 H 821.59 -3.04381 -1.11905 0
M  V30 8511 H 821.375 -3.89657 0.437026 0
M  V30 8512 H 822.865 -4.14326 -0.521926 0
M  V30 8513 N 823.302 -0.75937 -1.38099 0
M  V30 8514 C 824.527 -0.327859 -2.04792 0
M  V30 8515 C 824.952 1.03752 -1.56899 0
M  V30 8516 O 824.31 1.66235 -0.723581 0
M  V30 8517 C 824.358 -0.366264 -3.58735 0
M  V30 8518 O 823.462 0.637697 -4.0744 0
M  V30 8519 H 822.803 -0.144092 -0.648177 0
M  V30 8520 H 825.333 -1.03211 -1.7666 0
M  V30 8521 H 825.343 -0.219179 -4.07411 0
M  V30 8522 H 824.018 -1.36243 -3.92951 0
M  V30 8523 H 822.595 0.454749 -3.70117 0
M  V30 8524 N 824.78 1.49157 -0.508906 0
M  V30 8525 C 826.057 1.95363 0.0961913 0
M  V30 8526 C 826.437 1.45064 1.53362 0
M  V30 8527 O 825.785 0.667835 2.18523 0
M  V30 8528 C 825.995 3.49 0.000688881 0
M  V30 8529 C 827.343 4.24257 0.170632 0
M  V30 8530 O 828.367 3.5612 0.0754994 0
M  V30 8531 O 827.226 5.45267 0.366957 0
M  V30 8532 H 824.32 0.821984 0.0909489 0
M  V30 8533 H 826.866 1.59769 -0.572007 0
M  V30 8534 H 825.638 3.78269 -1.00143 0
M  V30 8535 H 825.261 3.91233 0.708682 0
M  V30 8536 N 826.258 0.243083 1.55714 0
M  V30 8537 C 827.483 -0.389944 2.03701 0
M  V30 8538 C 827.908 -1.51025 1.12129 0
M  V30 8539 O 827.266 -1.80944 0.11352 0
M  V30 8540 C 827.314 -0.878649 3.49731 0
M  V30 8541 O 826.418 -1.98851 3.61292 0
M  V30 8542 H 825.759 -0.0855115 0.658471 0
M  V30 8543 H 828.289 0.368023 2.01263 0
M  V30 8544 H 828.299 -1.18287 3.90477 0
M  V30 8545 H 826.974 -0.0588107 4.15858 0
M  V30 8546 H 825.551 -1.68928 3.32442 0
M  V30 8547 N 827.736 -1.57571 -0.0300757 0
M  V30 8548 C 829.152 -1.54869 -0.385703 0
M  V30 8549 C 829.352 -0.969068 -1.76667 0
M  V30 8550 O 828.408 -0.589676 -2.45518 0
M  V30 8551 C 829.721 -2.99313 -0.288482 0
M  V30 8552 C 831.269 -3.10857 -0.365638 0
M  V30 8553 C 831.744 -4.5703 -0.297878 0
M  V30 8554 N 833.235 -4.61825 -0.356703 0
M  V30 8555 C 833.97 -5.72466 -0.327146 0
M  V30 8556 N 833.466 -6.92349 -0.249941 0
M  V30 8557 N 835.259 -5.60836 -0.376801 0
M  V30 8558 H 827.41 -1.936 0.87367 0
M  V30 8559 H 829.673 -0.887924 0.332106 0
M  V30 8560 H 829.379 -3.45443 0.66047 0
M  V30 8561 H 829.253 -3.61332 -1.08253 0
M  V30 8562 H 831.64 -2.64676 -1.30502 0
M  V30 8563 H 831.721 -2.51671 0.457744 0
M  V30 8564 H 831.365 -5.03879 0.637835 0
M  V30 8565 H 831.295 -5.14127 -1.13935 0
M  V30 8566 H 833.786 -3.75571 -0.418926 0
M  V30 8567 H 834.099 -7.7245 -0.23246 0
M  V30 8568 H 832.444 -6.94664 -0.216004 0
M  V30 8569 H 835.635 -4.66073 -0.435101 0
M  V30 8570 H 835.808 -6.47052 -0.350298 0
M  V30 8571 N 829.214 0.302327 -1.54673 0
M  V30 8572 C 830.161 1.37282 -1.85532 0
M  V30 8573 C 831.131 1.50437 -0.704129 0
M  V30 8574 O 832.316 1.65317 -0.952627 0
M  V30 8575 C 829.456 2.73309 -2.10704 0
M  V30 8576 C 828.569 2.68614 -3.38335 0
M  V30 8577 C 827.704 3.96626 -3.53357 0
M  V30 8578 C 826.743 3.86324 -4.74784 0
M  V30 8579 N 825.88 5.06109 -4.86619 0
M  V30 8580 H 830.72 1.10265 -2.76849 0
M  V30 8581 H 828.257 0.533346 -1.37091 0
M  V30 8582 H 830.215 3.52414 -2.23294 0
M  V30 8583 H 828.845 2.98589 -1.22656 0
M  V30 8584 H 827.897 1.81381 -3.34373 0
M  V30 8585 H 829.209 2.56891 -4.27561 0
M  V30 8586 H 828.363 4.84168 -3.65604 0
M  V30 8587 H 827.102 4.11182 -2.62261 0
M  V30 8588 H 826.107 2.97166 -4.62572 0
M  V30 8589 H 827.332 3.73315 -5.67286 0
M  V30 8590 H 825.278 5.2113 -3.98446 0
M  V30 8591 H 825.195 4.96804 -5.69844 0
M  V30 8592 H 826.463 5.95306 -5.03221 0
M  V30 8593 N 830.692 1.47107 0.565454 0
M  V30 8594 C 831.94 1.53005 1.32038 0
M  V30 8595 C 832.261 0.190453 1.94068 0
M  V30 8596 O 831.531 -0.784783 1.79494 0
M  V30 8597 H 830.111 0.563578 0.490294 0
M  V30 8598 H 832.773 1.83351 0.660928 0
M  V30 8599 H 831.869 2.29215 2.11818 0
M  V30 8600 N 832.17 -0.811516 1.35101 0
M  V30 8601 C 833.418 -1.56525 1.27845 0
M  V30 8602 C 833.739 -1.94435 -0.14829 0
M  V30 8603 O 833.009 -1.63203 -1.08359 0
M  V30 8604 H 831.589 -0.580433 0.47022 0
M  V30 8605 H 834.251 -0.968277 1.69146 0
M  V30 8606 H 833.347 -2.48291 1.89097 0
M  V30 8607 N 833.648 -1.19017 -1.03309 0
M  V30 8608 C 834.558 -0.939303 -2.14975 0
M  V30 8609 C 835.574 0.0992359 -1.73717 0
M  V30 8610 O 836.75 -0.0844362 -2.01223 0
M  V30 8611 C 833.815 -0.476712 -3.43407 0
M  V30 8612 C 832.876 -1.58413 -3.99003 0
M  V30 8613 C 832.109 -1.14352 -5.21305 0
M  V30 8614 O 832.332 -0.00534408 -5.704 0
M  V30 8615 O 831.266 -1.94436 -5.6963 0
M  V30 8616 H 835.092 -1.87386 -2.38998 0
M  V30 8617 H 832.677 -0.972635 -1.13403 0
M  V30 8618 H 834.559 -0.22718 -4.20787 0
M  V30 8619 H 833.234 0.429455 -3.20839 0
M  V30 8620 H 832.141 -1.88777 -3.22977 0
M  V30 8621 H 833.474 -2.4667 -4.25928 0
M  V30 8622 N 835.127 1.22348 -0.993418 0
M  V30 8623 C 836.538 1.72893 -0.704616 0
M  V30 8624 C 836.889 1.80095 0.778483 0
M  V30 8625 O 836.014 1.4476 1.60853 0
M  V30 8626 C 836.609 3.14 -1.27237 0
M  V30 8627 C 835.168 3.61949 -1.03294 0
M  V30 8628 C 834.315 2.39816 -1.39225 0
M  V30 8629 H 837.266 1.07688 -1.16572 0
M  V30 8630 H 837.287 3.74886 -0.651212 0
M  V30 8631 H 836.799 3.08727 -2.3518 0
M  V30 8632 H 834.9 3.72588 0.0298329 0
M  V30 8633 H 835.013 4.48051 -1.69668 0
M  V30 8634 H 833.377 2.41448 -0.810849 0
M  V30 8635 H 834.16 2.37203 -2.48172 0
M  V30 8636 N 836.605 0.766683 1.37694 0
M  V30 8637 C 837.568 0.155849 2.2867 0
M  V30 8638 C 838.568 -0.633509 1.47795 0
M  V30 8639 O 839.758 -0.457844 1.68076 0
M  V30 8640 C 836.89 -0.786965 3.31692 0
M  V30 8641 H 838.083 0.957748 2.84196 0
M  V30 8642 H 835.636 0.534554 1.46875 0
M  V30 8643 H 836.371 -1.61406 2.8128 0
M  V30 8644 H 836.156 -0.223182 3.91464 0
M  V30 8645 H 837.646 -1.20994 3.99688 0
M  V30 8646 N 838.083 -1.48885 0.516809 0
M  V30 8647 C 839.331 -2.02088 -0.0220166 0
M  V30 8648 C 839.652 -1.39735 -1.36011 0
M  V30 8649 O 838.922 -0.558119 -1.87781 0
M  V30 8650 H 837.502 -0.746917 -0.0111255 0
M  V30 8651 H 840.164 -1.8274 0.677647 0
M  V30 8652 H 839.26 -3.11786 -0.140067 0
M  V30 8653 N 839.561 -0.251338 -1.55583 0
M  V30 8654 C 840.791 0.375642 -2.03156 0
M  V30 8655 C 841.199 1.51761 -1.12983 0
M  V30 8656 O 840.542 1.83184 -0.13757 0
M  V30 8657 C 840.604 0.941001 -3.46966 0
M  V30 8658 C 840.268 -0.0692886 -4.56947 0
M  V30 8659 C 841.265 -0.88041 -5.12391 0
M  V30 8660 C 838.95 -0.196661 -5.01915 0
M  V30 8661 C 840.944 -1.80532 -6.11299 0
M  V30 8662 C 838.631 -1.12507 -6.00654 0
M  V30 8663 C 839.629 -1.92792 -6.55225 0
M  V30 8664 O 839.317 -2.84067 -7.52038 0
M  V30 8665 H 839.049 0.0928836 -0.669588 0
M  V30 8666 H 841.603 -0.374115 -2.01964 0
M  V30 8667 H 839.833 1.7404 -3.45322 0
M  V30 8668 H 841.522 1.47853 -3.78014 0
M  V30 8669 H 842.288 -0.792615 -4.78479 0
M  V30 8670 H 838.167 0.418187 -4.59099 0
M  V30 8671 H 841.711 -2.43239 -6.5382 0
M  V30 8672 H 837.608 -1.21377 -6.33986 0
M  V30 8673 H 838.376 -2.78479 -7.6967 0
M  V30 8674 O 841.078 1.61082 -0.116113 0
M  V30 8675 H 841.769 1.8758 0.483052 0
M  V30 END ATOM
M  V30 BEGIN BOND
M  V30 END BOND
M  V30 END CTAB
M  END
$$$$
