drugbank_target|P19784 Casein kinase II subunit alpha' (DB07546; DB12010)
 OpenBabel12092120443D

  0  0  0     0  0            999 V3000
M  V30 BEGIN CTAB
M  V30 COUNTS 5797 5871 0 0 0
M  V30 BEGIN ATOM
M  V30 1 H -0.908 1.98254 -0.117106 0
M  V30 2 N 0 1.576 0 0
M  V30 3 C 0.933 2.03868 1.02534 0
M  V30 4 C 1.911 0.928543 1.3348 0
M  V30 5 O 3.095 1.19667 1.45644 0
M  V30 6 C 0.222 2.43627 2.35294 0
M  V30 7 C -0.732 3.65373 2.2001 0
M  V30 8 S 0.101 5.13292 1.52614 0
M  V30 9 C 1.257 5.56322 2.86805 0
M  V30 10 H 1.49 2.90518 0.631377 0
M  V30 11 H -0.977 1.52953 0.210867 0
M  V30 12 H 0.981 2.67203 3.11629 0
M  V30 13 H -0.358 1.57376 2.7183 0
M  V30 14 H -1.165 3.90944 3.18086 0
M  V30 15 H -1.563 3.418 1.51819 0
M  V30 16 H 0.729 5.58782 3.83104 0
M  V30 17 H 1.672 6.56266 2.65933 0
M  V30 18 H 2.08 4.83886 2.90714 0
M  V30 19 N 1.4781 -0.272755 1.55222 0
M  V30 20 C 2.8891 -0.84378 1.66545 0
M  V30 21 C 3.2401 -1.87035 0.592641 0
M  V30 22 O 2.3651 -2.14761 -0.265818 0
M  V30 23 C 2.9601 -1.53723 3.01918 0
M  V30 24 C 1.5191 -2.05628 3.15268 0
M  V30 25 C 0.6661 -0.898424 2.62343 0
M  V30 26 H 3.6171 -0.0490998 1.58624 0
M  V30 27 H 3.6381 -2.40421 2.94921 0
M  V30 28 H 3.1501 -0.78983 3.79978 0
M  V30 29 H 1.2511 -2.83329 2.41983 0
M  V30 30 H 1.3641 -2.27142 4.21833 0
M  V30 31 H -0.2719 -1.29186 2.19506 0
M  V30 32 H 0.5111 -0.164528 3.42906 0
M  V30 33 N 2.9562 -1.48159 -0.537278 0
M  V30 34 C 4.2042 -1.55497 -1.29094 0
M  V30 35 C 4.5252 -0.227454 -1.93669 0
M  V30 36 O 3.7952 0.750386 -1.80959 0
M  V30 37 H 2.3752 -0.572832 -0.47945 0
M  V30 38 H 5.0372 -1.84579 -0.625818 0
M  V30 39 H 4.1332 -2.33216 -2.07405 0
M  V30 40 N 4.4343 0.785586 -1.36625 0
M  V30 41 C 5.8453 1.36101 -1.27803 0
M  V30 42 C 6.1963 1.96035 0.0804875 0
M  V30 43 O 5.3213 1.92834 0.982042 0
M  V30 44 C 5.9163 2.47442 -2.31426 0
M  V30 45 C 4.4753 3.00789 -2.26281 0
M  V30 46 C 3.6223 1.73896 -2.15999 0
M  V30 47 H 6.5733 0.586928 -1.47448 0
M  V30 48 H 6.5943 3.2656 -1.95291 0
M  V30 49 H 6.1063 2.03791 -3.30289 0
M  V30 50 H 4.2073 3.48851 -1.30896 0
M  V30 51 H 4.3203 3.57343 -3.19128 0
M  V30 52 H 2.6843 1.9628 -1.62316 0
M  V30 53 H 3.4673 1.32368 -3.16755 0
M  V30 54 N 5.9124 1.20967 1.01018 0
M  V30 55 C 6.8754 0.965918 2.07853 0
M  V30 56 C 7.8754 -0.0610545 1.60684 0
M  V30 57 O 9.0654 0.175681 1.73312 0
M  V30 58 C 6.1974 0.455513 3.37843 0
M  V30 59 H 7.3904 1.91365 2.3091 0
M  V30 60 H 4.9434 1.02594 1.17916 0
M  V30 61 H 5.6784 -0.497381 3.20463 0
M  V30 62 H 5.4634 1.19622 3.73407 0
M  V30 63 H 6.9534 0.304667 4.16487 0
M  V30 64 N 7.3905 -1.2043 1.01659 0
M  V30 65 C 8.3535 -2.21433 0.591616 0
M  V30 66 C 9.3535 -1.57203 -0.338226 0
M  V30 67 O 10.5435 -1.73737 -0.126918 0
M  V30 68 C 7.6755 -3.40628 -0.136058 0
M  V30 69 H 8.8685 -2.60545 1.48514 0
M  V30 70 H 6.4215 -1.33893 0.806379 0
M  V30 71 H 7.1565 -3.07019 -1.04449 0
M  V30 72 H 6.9415 -3.88475 0.531917 0
M  V30 73 H 8.4315 -4.15475 -0.420735 0
M  V30 74 N 8.8686 -0.792821 -1.36206 0
M  V30 75 C 10.1166 -0.366062 -1.98757 0
M  V30 76 C 10.4376 1.0668 -1.63231 0
M  V30 77 O 9.7076 1.73587 -0.907978 0
M  V30 78 H 8.2876 -0.132364 -0.735179 0
M  V30 79 H 10.9496 -1.01562 -1.66347 0
M  V30 80 H 10.0456 -0.460638 -3.08682 0
M  V30 81 N 10.3467 1.47872 -0.545128 0
M  V30 82 C 11.5717 2.07391 -0.0190611 0
M  V30 83 C 11.9967 1.39688 1.25971 0
M  V30 84 O 11.3547 0.467816 1.7516 0
M  V30 85 C 11.4027 3.60188 0.172335 0
M  V30 86 O 10.5067 3.9339 1.23766 0
M  V30 87 H 9.8477 0.662411 -0.0459059 0
M  V30 88 H 12.3777 1.90066 -0.757365 0
M  V30 89 H 12.3877 4.06129 0.390305 0
M  V30 90 H 11.0627 4.08865 -0.761725 0
M  V30 91 H 9.6397 3.5921 1.00114 0
M  V30 92 N 11.8248 0.280983 1.55075 0
M  V30 93 C 13.2408 -0.0729964 1.59433 0
M  V30 94 C 13.4408 -1.5411 1.29817 0
M  V30 95 O 12.4968 -2.29086 1.06187 0
M  V30 96 C 13.8098 0.306921 2.9913 0
M  V30 97 C 15.3578 0.254023 3.11968 0
M  V30 98 C 15.8328 0.608467 4.5394 0
M  V30 99 N 17.3238 0.560241 4.59799 0
M  V30 100 C 18.0588 0.80722 5.6769 0
M  V30 101 N 17.5548 1.11912 6.83701 0
M  V30 102 N 19.3478 0.735623 5.57266 0
M  V30 103 H 11.4988 1.238 1.7259 0
M  V30 104 H 13.7618 0.500547 0.805082 0
M  V30 105 H 13.4678 1.32816 3.25657 0
M  V30 106 H 13.3418 -0.349363 3.75579 0
M  V30 107 H 15.7288 -0.75794 2.852 0
M  V30 108 H 15.8098 0.944649 2.37718 0
M  V30 109 H 15.4538 1.61814 4.81434 0
M  V30 110 H 15.3838 -0.104013 5.26497 0
M  V30 111 H 17.8748 0.329288 3.76463 0
M  V30 112 H 18.1878 1.29409 7.61888 0
M  V30 113 H 16.5328 1.15695 6.85303 0
M  V30 114 H 19.7238 0.491752 4.6551 0
M  V30 115 H 19.8968 0.931482 6.4127 0
M  V30 116 N 13.3029 -1.57598 0.00835791 0
M  V30 117 C 14.2659 -2.07884 -0.965242 0
M  V30 118 C 15.2659 -0.989825 -1.26725 0
M  V30 119 O 16.4559 -1.25218 -1.21104 0
M  V30 120 C 13.5879 -2.52731 -2.28779 0
M  V30 121 H 14.7809 -2.95178 -0.530112 0
M  V30 122 H 12.3339 -1.54458 -0.239283 0
M  V30 123 H 13.0689 -1.68705 -2.76964 0
M  V30 124 H 12.8539 -3.32272 -2.08177 0
M  V30 125 H 14.3439 -2.91933 -2.98605 0
M  V30 126 N 14.781 0.264519 -1.55364 0
M  V30 127 C 16.197 0.61215 -1.47394 0
M  V30 128 C 16.397 1.89134 -0.695018 0
M  V30 129 O 15.453 2.51563 -0.217275 0
M  V30 130 C 16.766 0.731235 -2.91674 0
M  V30 131 C 18.314 0.82473 -3.01939 0
M  V30 132 C 18.789 0.975522 -4.4749 0
M  V30 133 N 20.28 1.04083 -4.51354 0
M  V30 134 C 21.015 1.17646 -5.61201 0
M  V30 135 N 20.511 1.27874 -6.80896 0
M  V30 136 N 22.304 1.20823 -5.48961 0
M  V30 137 H 14.455 -0.575456 -2.04456 0
M  V30 138 H 16.718 -0.196099 -0.927496 0
M  V30 139 H 16.424 -0.138392 -3.51428 0
M  V30 140 H 16.298 1.60883 -3.41169 0
M  V30 141 H 18.685 1.68482 -2.42276 0
M  V30 142 H 18.766 -0.0776479 -2.55682 0
M  V30 143 H 18.41 0.120058 -5.07758 0
M  V30 144 H 18.34 1.89268 -4.91412 0
M  V30 145 H 20.831 0.973846 -3.65136 0
M  V30 146 H 21.144 1.38081 -7.60364 0
M  V30 147 H 19.489 1.24863 -6.83692 0
M  V30 148 H 22.68 1.12469 -4.54388 0
M  V30 149 H 22.853 1.31049 -6.3461 0
M  V30 150 N 16.2591 1.48442 0.529413 0
M  V30 151 C 17.5051 1.5672 1.28711 0
M  V30 152 C 17.8381 0.2406 1.92704 0
M  V30 153 O 17.1131 -0.753454 1.79313 0
M  V30 154 C 17.3961 2.70587 2.37603 0
M  V30 155 C 17.2491 4.12953 1.78297 0
M  V30 156 C 18.5681 2.80212 3.39366 0
M  V30 157 H 15.6871 0.570474 0.466613 0
M  V30 158 H 18.3291 1.80617 0.589706 0
M  V30 159 H 16.4791 2.50342 2.97088 0
M  V30 160 H 18.1511 4.44639 1.22858 0
M  V30 161 H 16.3941 4.19927 1.0883 0
M  V30 162 H 17.0651 4.88448 2.57144 0
M  V30 163 H 19.5411 2.98553 2.89836 0
M  V30 164 H 18.4171 3.61611 4.12951 0
M  V30 165 H 18.6781 1.88393 3.99951 0
M  V30 166 N 17.7372 -0.778329 1.37039 0
M  V30 167 C 18.9672 -1.56507 1.34868 0
M  V30 168 C 19.3752 -1.89072 -0.0694802 0
M  V30 169 O 18.7182 -1.51434 -1.03987 0
M  V30 170 C 18.7802 -2.90641 2.11585 0
M  V30 171 C 18.4442 -2.80746 3.60598 0
M  V30 172 C 19.4412 -2.52226 4.54618 0
M  V30 173 C 17.1262 -2.98974 4.03633 0
M  V30 174 C 19.1202 -2.42054 5.89651 0
M  V30 175 C 16.8072 -2.88423 5.38754 0
M  V30 176 C 17.8052 -2.60002 6.31576 0
M  V30 177 O 17.4932 -2.49465 7.64214 0
M  V30 178 H 17.2252 -0.491723 0.463879 0
M  V30 179 H 19.7792 -0.973053 1.80889 0
M  V30 180 H 18.0092 -3.51936 1.60243 0
M  V30 181 H 19.6982 -3.51992 2.0213 0
M  V30 182 H 20.4642 -2.37835 4.22681 0
M  V30 183 H 16.3432 -3.20099 3.31749 0
M  V30 184 H 19.8872 -2.19791 6.62071 0
M  V30 185 H 15.7842 -3.0238 5.70295 0
M  V30 186 H 16.5522 -2.64864 7.74461 0
M  V30 187 N 19.2153 -1.21501 -1.00376 0
M  V30 188 C 20.1783 -0.976927 -2.07337 0
M  V30 189 C 21.1783 0.0525322 -1.60714 0
M  V30 190 O 22.3683 -0.184869 -1.73216 0
M  V30 191 C 19.5003 -0.473423 -3.37597 0
M  V30 192 H 20.6933 -1.92587 -2.29892 0
M  V30 193 H 18.2463 -1.03217 -1.17371 0
M  V30 194 H 18.9813 0.480379 -3.20722 0
M  V30 195 H 18.7663 -1.216 -3.72768 0
M  V30 196 H 20.2563 -0.32675 -4.1632 0
M  V30 197 N 20.6934 1.19889 -1.02296 0
M  V30 198 C 21.6034 2.26571 -0.608508 0
M  V30 199 C 22.6194 1.70299 0.356964 0
M  V30 200 O 23.7954 2.00235 0.216326 0
M  V30 201 C 20.8604 3.46677 0.0402814 0
M  V30 202 C 19.9214 4.18153 -0.97194 0
M  V30 203 C 19.1544 5.32525 -0.354016 0
M  V30 204 O 19.3774 5.64112 0.844604 0
M  V30 205 O 18.3114 5.92242 -1.07391 0
M  V30 206 H 22.1374 2.64251 -1.49684 0
M  V30 207 H 19.7224 1.26629 -0.792809 0
M  V30 208 H 21.6044 4.19475 0.402324 0
M  V30 209 H 20.2794 3.10858 0.902707 0
M  V30 210 H 19.1864 3.47499 -1.38546 0
M  V30 211 H 20.5194 4.57927 -1.80454 0
M  V30 212 N 22.1715 0.800033 1.35784 0
M  V30 213 C 23.4175 0.377901 1.99248 0
M  V30 214 C 23.7505 -1.05052 1.63333 0
M  V30 215 O 23.0255 -1.72768 0.893385 0
M  V30 216 C 23.3085 0.553922 3.55814 0
M  V30 217 C 23.1615 2.0268 4.01548 0
M  V30 218 C 24.4805 -0.0244802 4.40093 0
M  V30 219 H 21.5995 0.138782 0.723815 0
M  V30 220 H 24.2415 1.00835 1.61035 0
M  V30 221 H 22.3915 0.0172398 3.88496 0
M  V30 222 H 24.0635 2.62536 3.79305 0
M  V30 223 H 22.3065 2.5256 3.52698 0
M  V30 224 H 22.9775 2.10087 5.10458 0
M  V30 225 H 25.4535 0.433775 4.13833 0
M  V30 226 H 24.3295 0.128637 5.48749 0
M  V30 227 H 24.5905 -1.11758 4.27741 0
M  V30 228 N 23.6496 -1.47581 0.552962 0
M  V30 229 C 24.5976 -2.31648 -0.21023 0
M  V30 230 C 25.5916 -1.42663 -0.913432 0
M  V30 231 O 26.7976 -1.5945 -0.835201 0
M  V30 232 H 23.1726 -0.746989 -0.0866676 0
M  V30 233 H 25.1436 -2.93869 0.518051 0
M  V30 234 C 23.8926 -3.25226 -1.22976 0
M  V30 235 H 23.2156 -3.93658 -0.698077 0
M  V30 236 H 24.6556 -3.86889 -1.73473 0
M  V30 237 C 23.1146 -2.48448 -2.27542 0
M  V30 238 O 23.6446 -2.22585 -3.34393 0
M  V30 239 N 21.8506 -2.09532 -2.01357 0
M  V30 240 H 21.3976 -2.30765 -1.14478 0
M  V30 241 H 21.3556 -1.58476 -2.71538 0
M  V30 242 N 25.1277 -0.289203 -1.54924 0
M  V30 243 C 26.3527 0.329299 -2.04769 0
M  V30 244 C 26.7777 1.4763 -1.16564 0
M  V30 245 O 26.1357 1.80527 -0.167186 0
M  V30 246 C 26.1837 0.774438 -3.52186 0
M  V30 247 O 25.2877 1.88038 -3.67036 0
M  V30 248 H 24.6287 0.0659259 -0.660719 0
M  V30 249 H 27.1587 -0.42761 -2.00082 0
M  V30 250 H 27.1687 1.06642 -3.93816 0
M  V30 251 H 25.8437 -0.0646707 -4.1585 0
M  V30 252 H 24.4207 1.58985 -3.3731 0
M  V30 253 N 26.6058 1.57591 -0.0167156 0
M  V30 254 C 27.5358 2.12496 0.967858 0
M  V30 255 C 28.5168 1.03807 1.34752 0
M  V30 256 O 29.7018 1.31577 1.42833 0
M  V30 257 C 26.8318 2.64194 2.25431 0
M  V30 258 C 25.7858 3.77559 2.01576 0
M  V30 259 C 25.1118 4.15636 3.36379 0
M  V30 260 C 26.4118 5.04151 1.36489 0
M  V30 261 H 28.1058 2.95013 0.510643 0
M  V30 262 H 25.6518 1.41915 0.244181 0
M  V30 263 H 27.6048 3.01236 2.94678 0
M  V30 264 H 26.3288 1.78821 2.73296 0
M  V30 265 H 24.9878 3.40937 1.34751 0
M  V30 266 H 24.6358 3.27263 3.81979 0
M  V30 267 H 24.3358 4.92022 3.21229 0
M  V30 268 H 25.8598 4.5525 4.06915 0
M  V30 269 H 27.2738 5.38857 1.95718 0
M  V30 270 H 25.6708 5.85453 1.31776 0
M  V30 271 H 26.7408 4.83733 0.336219 0
M  V30 272 N 28.0839 -0.256276 1.55502 0
M  V30 273 C 29.4999 -0.604325 1.47716 0
M  V30 274 C 29.6999 -1.88763 0.705039 0
M  V30 275 O 28.7559 -2.51445 0.230613 0
M  V30 276 C 30.0689 -0.715756 2.92057 0
M  V30 277 C 31.6169 -0.808706 3.02372 0
M  V30 278 C 32.0919 -0.951777 4.48001 0
M  V30 279 N 33.5829 -1.01688 4.519 0
M  V30 280 C 34.3179 -1.14668 5.61817 0
M  V30 281 N 33.8139 -1.24261 6.81565 0
M  V30 282 N 35.6069 -1.1791 5.49594 0
M  V30 283 H 27.7579 0.586291 2.04148 0
M  V30 284 H 30.0209 0.201015 0.926443 0
M  V30 285 H 29.7269 0.157027 3.51349 0
M  V30 286 H 29.6009 -1.59071 3.42018 0
M  V30 287 H 31.9879 -1.67195 2.43166 0
M  V30 288 H 32.0689 0.0912063 2.55637 0
M  V30 289 H 31.7129 -0.0931291 5.07815 0
M  V30 290 H 31.6429 -1.86659 4.92408 0
M  V30 291 H 34.1339 -0.954468 3.65648 0
M  V30 292 H 34.4469 -1.34046 7.61086 0
M  V30 293 H 32.7919 -1.21236 6.84344 0
M  V30 294 H 35.9829 -1.10057 4.54978 0
M  V30 295 H 36.1559 -1.27681 6.35296 0
M  V30 296 N 29.562 -1.4872 -0.521534 0
M  V30 297 C 30.787 -1.61101 -1.30618 0
M  V30 298 C 31.212 -0.274611 -1.86085 0
M  V30 299 O 30.57 0.754937 -1.64834 0
M  V30 300 C 30.618 -2.66709 -2.4269 0
M  V30 301 O 29.722 -2.24456 -3.45967 0
M  V30 302 H 29.063 -0.539921 -0.386499 0
M  V30 303 H 31.593 -1.94767 -0.626645 0
M  V30 304 H 31.603 -2.88245 -2.88754 0
M  V30 305 H 30.278 -3.63727 -2.01682 0
M  V30 306 H 28.855 -2.13168 -3.05964 0
M  V30 307 N 31.0401 0.771051 -1.3745 0
M  V30 308 C 32.4561 1.07171 -1.18265 0
M  V30 309 C 32.6561 2.01491 -0.019287 0
M  V30 310 O 31.7121 2.44244 0.640408 0
M  V30 311 C 33.0251 1.66854 -2.50161 0
M  V30 312 C 34.5731 1.79109 -2.56689 0
M  V30 313 C 35.0481 2.42205 -3.88717 0
M  V30 314 N 36.5391 2.49655 -3.90162 0
M  V30 315 C 37.2741 2.9933 -4.8907 0
M  V30 316 N 36.7701 3.49172 -5.98374 0
M  V30 317 N 38.5631 2.9821 -4.76474 0
M  V30 318 H 30.7141 0.144796 -2.11906 0
M  V30 319 H 32.9771 0.126863 -0.939473 0
M  V30 320 H 32.6831 1.05017 -3.35655 0
M  V30 321 H 32.5571 2.6614 -2.673 0
M  V30 322 H 34.9441 2.40077 -1.71601 0
M  V30 323 H 35.0251 0.785757 -2.43433 0
M  V30 324 H 34.6691 1.81875 -4.74219 0
M  V30 325 H 34.5991 3.43345 -3.99276 0
M  V30 326 H 37.0901 2.14383 -3.11205 0
M  V30 327 H 37.4031 3.8548 -6.69795 0
M  V30 328 H 35.7481 3.47275 -6.02018 0
M  V30 329 H 38.9391 2.58572 -3.90203 0
M  V30 330 H 39.1121 3.36613 -5.53711 0
M  V30 331 N 32.5182 1.22032 0.997298 0
M  V30 332 C 33.4282 1.00271 2.12092 0
M  V30 333 C 34.4442 -0.047621 1.73935 0
M  V30 334 O 35.6202 0.144136 2.00884 0
M  V30 335 C 32.6852 0.578449 3.4184 0
M  V30 336 C 31.7462 1.70189 3.94125 0
M  V30 337 C 30.9792 1.29778 5.17681 0
M  V30 338 O 31.2022 0.174676 5.70132 0
M  V30 339 O 30.1362 2.11261 5.63607 0
M  V30 340 H 33.9622 1.94398 2.3333 0
M  V30 341 H 31.5472 1.00587 1.10465 0
M  V30 342 H 33.4292 0.351998 4.19927 0
M  V30 343 H 32.1042 -0.334019 3.21972 0
M  V30 344 H 31.0112 1.98282 3.1723 0
M  V30 345 H 32.3442 2.59206 4.18417 0
M  V30 346 N 33.9963 -1.19345 1.0293 0
M  V30 347 C 35.2263 -1.92717 0.744563 0
M  V30 348 C 35.6343 -1.75751 -0.700579 0
M  V30 349 O 34.9773 -1.07703 -1.48815 0
M  V30 350 C 35.0393 -3.44828 1.01657 0
M  V30 351 C 34.7033 -3.85564 2.45335 0
M  V30 352 C 35.7003 -3.90286 3.43472 0
M  V30 353 C 33.3853 -4.1719 2.79746 0
M  V30 354 C 35.3793 -4.26065 4.74075 0
M  V30 355 C 33.0663 -4.52642 4.10559 0
M  V30 356 C 34.0643 -4.57054 5.07534 0
M  V30 357 O 33.7523 -4.91685 6.36004 0
M  V30 358 H 33.4843 -0.618977 0.271742 0
M  V30 359 H 36.0383 -1.52415 1.37691 0
M  V30 360 H 34.2683 -3.85314 0.327084 0
M  V30 361 H 35.9573 -3.99437 0.721427 0
M  V30 362 H 36.7233 -3.66002 3.18225 0
M  V30 363 H 32.6023 -4.1294 2.04943 0
M  V30 364 H 36.1463 -4.29423 5.49765 0
M  V30 365 H 32.0433 -4.76383 4.35579 0
M  V30 366 H 32.8113 -5.09631 6.40483 0
M  V30 367 N 35.4744 -0.807222 -1.35358 0
M  V30 368 C 36.7204 -0.397594 -1.99476 0
M  V30 369 C 37.0754 1.02405 -1.62883 0
M  V30 370 O 36.3684 1.70077 -0.882282 0
M  V30 371 C 36.5624 -0.519036 -3.53611 0
M  V30 372 C 36.3914 -1.95094 -4.05177 0
M  V30 373 C 35.1614 -2.57945 -4.34503 0
M  V30 374 C 37.3594 -2.91558 -4.23673 0
M  V30 375 N 35.3414 -3.92539 -4.72003 0
M  V30 376 C 36.7124 -4.11024 -4.64176 0
M  V30 377 C 38.7674 -2.88381 -4.05883 0
M  V30 378 C 37.4704 -5.27745 -4.88751 0
M  V30 379 C 39.4964 -4.04306 -4.31614 0
M  V30 380 C 38.8584 -5.22519 -4.72391 0
M  V30 381 H 34.9574 -0.193274 -0.75774 0
M  V30 382 H 37.5414 -1.0486 -1.6405 0
M  V30 383 H 35.7124 0.101979 -3.88266 0
M  V30 384 H 37.4444 -0.0839321 -4.04613 0
M  V30 385 H 34.1994 -2.09295 -4.24844 0
M  V30 386 H 34.6234 -4.61836 -4.95011 0
M  V30 387 H 39.2654 -1.98137 -3.73499 0
M  V30 388 H 36.9834 -6.1856 -5.20008 0
M  V30 389 H 40.5694 -4.03229 -4.19402 0
M  V30 390 H 39.4494 -6.1073 -4.91913 0
M  V30 391 N 36.9525 1.47285 -0.560781 0
M  V30 392 C 38.2295 1.9558 0.0277798 0
M  V30 393 C 38.6095 1.5034 1.48192 0
M  V30 394 O 37.9575 0.743882 2.16052 0
M  V30 395 C 38.1675 3.48789 -0.121418 0
M  V30 396 C 39.5155 4.24594 0.0220912 0
M  V30 397 O 40.5395 3.56166 -0.0491439 0
M  V30 398 O 39.3985 5.46217 0.175958 0
M  V30 399 H 36.4925 0.824663 0.0621342 0
M  V30 400 H 39.0385 1.5767 -0.627556 0
M  V30 401 H 37.8105 3.74533 -1.13316 0
M  V30 402 H 37.4335 3.93473 0.571366 0
M  V30 403 N 38.4306 0.297415 1.54768 0
M  V30 404 C 39.6606 -0.315165 2.04182 0
M  V30 405 C 40.0686 -1.4834 1.17439 0
M  V30 406 O 39.4116 -1.82695 0.191891 0
M  V30 407 C 39.4736 -0.837583 3.49607 0
M  V30 408 C 39.1376 0.204912 4.5654 0
M  V30 409 C 40.1346 1.03214 5.09552 0
M  V30 410 C 37.8196 0.345578 5.0111 0
M  V30 411 C 39.8136 1.986 6.05671 0
M  V30 412 C 37.5006 1.30289 5.97049 0
M  V30 413 C 38.4986 2.12159 6.49213 0
M  V30 414 O 38.1866 3.06268 7.43273 0
M  V30 415 H 37.9186 -0.0729646 0.672051 0
M  V30 416 H 40.4726 0.433907 2.00765 0
M  V30 417 H 38.7026 -1.63712 3.50336 0
M  V30 418 H 40.3916 -1.36566 3.82236 0
M  V30 419 H 41.1576 0.934312 4.75916 0
M  V30 420 H 37.0366 -0.28171 4.60138 0
M  V30 421 H 40.5806 2.62542 6.46311 0
M  V30 422 H 36.4776 1.40145 6.30103 0
M  V30 423 H 37.2456 3.01205 7.61064 0
M  V30 424 N 39.9087 -1.5758 0.0250728 0
M  V30 425 C 40.8187 -2.1343 -0.973905 0
M  V30 426 C 41.8347 -1.08556 -1.35984 0
M  V30 427 O 43.0107 -1.40592 -1.44207 0
M  V30 428 C 40.0757 -2.64703 -2.23904 0
M  V30 429 C 39.1367 -3.84276 -1.91391 0
M  V30 430 C 38.3697 -4.33095 -3.11873 0
M  V30 431 O 38.5927 -3.81107 -4.24398 0
M  V30 432 O 37.5267 -5.24984 -2.94406 0
M  V30 433 H 41.3527 -2.99057 -0.529036 0
M  V30 434 H 38.9377 -1.48118 -0.195288 0
M  V30 435 H 40.8197 -2.97769 -2.98181 0
M  V30 436 H 39.4947 -1.82161 -2.6758 0
M  V30 437 H 38.4017 -3.56143 -1.14511 0
M  V30 438 H 39.7347 -4.67968 -1.52534 0
M  V30 439 N 41.3868 0.248026 -1.55636 0
M  V30 440 C 42.3498 1.29044 -1.89421 0
M  V30 441 C 43.3498 1.41134 -0.770581 0
M  V30 442 O 44.5398 1.39854 -1.03858 0
M  V30 443 C 41.6718 2.66831 -2.12165 0
M  V30 444 H 42.8648 1.00305 -2.82629 0
M  V30 445 H 40.4178 0.487265 -1.48511 0
M  V30 446 H 41.1528 3.00711 -1.21422 0
M  V30 447 H 40.9378 2.59438 -2.93997 0
M  V30 448 H 42.4278 3.42103 -2.3949 0
M  V30 449 N 42.8649 1.48995 0.513639 0
M  V30 450 C 43.8149 1.61127 1.61314 0
M  V30 451 C 44.7989 0.467521 1.53958 0
M  V30 452 O 45.9909 0.719826 1.61702 0
M  V30 453 C 43.1199 1.66937 2.99978 0
M  V30 454 C 42.2059 2.86847 3.12377 0
M  V30 455 N 42.5969 4.11078 2.94701 0
M  V30 456 C 40.8949 2.84521 3.43459 0
M  V30 457 C 41.5959 4.91615 3.10949 0
M  V30 458 N 40.5719 4.24739 3.3926 0
M  V30 459 H 44.3739 2.54909 1.46282 0
M  V30 460 H 41.8879 1.45593 0.719483 0
M  V30 461 H 43.8849 1.73725 3.78979 0
M  V30 462 H 42.5449 0.742831 3.16089 0
M  V30 463 H 43.5559 4.41258 2.71131 0
M  V30 464 H 40.2329 2.01192 3.65825 0
M  V30 465 H 41.6229 6.00264 3.01882 0
M  V30 466 N 44.343 -0.763751 1.37857 0
M  V30 467 C 45.589 -1.52483 1.33704 0
M  V30 468 C 45.922 -1.94051 -0.0759612 0
M  V30 469 O 45.197 -1.64675 -1.03501 0
M  V30 470 C 45.48 -2.78441 2.28348 0
M  V30 471 C 45.333 -2.43075 3.78463 0
M  V30 472 C 46.652 -3.80415 2.21298 0
M  V30 473 H 43.771 -0.553169 0.487005 0
M  V30 474 H 46.413 -0.875562 1.68624 0
M  V30 475 H 44.563 -3.33842 1.987 0
M  V30 476 H 46.235 -1.93527 4.18742 0
M  V30 477 H 44.478 -1.75666 3.96641 0
M  V30 478 H 45.149 -3.33149 4.40132 0
M  V30 479 H 47.625 -3.34527 2.47449 0
M  V30 480 H 46.501 -4.66257 2.89647 0
M  V30 481 H 46.762 -4.25262 1.20849 0
M  V30 482 N 45.8211 -1.22559 -0.990812 0
M  V30 483 C 47.2321 -1.04791 -1.54518 0
M  V30 484 C 47.5831 0.387998 -1.92325 0
M  V30 485 O 46.7081 1.27328 -1.74976 0
M  V30 486 C 47.3031 -1.896 -2.80779 0
M  V30 487 C 45.8621 -1.76124 -3.32652 0
M  V30 488 C 45.0091 -1.8594 -2.05722 0
M  V30 489 H 47.9601 -1.36374 -0.811662 0
M  V30 490 H 47.9811 -1.41464 -3.53225 0
M  V30 491 H 47.4931 -2.94101 -2.53231 0
M  V30 492 H 45.5941 -0.743643 -3.65104 0
M  V30 493 H 45.7071 -2.58913 -4.03114 0
M  V30 494 H 44.0711 -1.29403 -2.19379 0
M  V30 495 H 44.8541 -2.91976 -1.80568 0
M  V30 496 N 47.2992 1.18797 -1.03562 0
M  V30 497 C 48.5242 1.9314 -0.755764 0
M  V30 498 C 48.9492 1.7537 0.68022 0
M  V30 499 O 48.3072 1.06046 1.47051 0
M  V30 500 C 48.3552 3.42747 -1.12058 0
M  V30 501 O 47.4592 4.11683 -0.243124 0
M  V30 502 H 46.8002 0.602724 -0.278604 0
M  V30 503 H 49.3302 1.50678 -1.3841 0
M  V30 504 H 49.3402 3.93437 -1.08035 0
M  V30 505 H 48.0152 3.55002 -2.16672 0
M  V30 506 H 46.5922 3.71323 -0.342539 0
M  V30 507 N 48.7773 0.814389 1.34928 0
M  V30 508 C 50.0233 0.408167 1.99263 0
M  V30 509 C 50.3783 -1.0154 1.63424 0
M  V30 510 O 49.6713 -1.69607 0.891289 0
M  V30 511 C 49.8653 0.537781 3.53331 0
M  V30 512 C 49.6943 1.9724 4.04137 0
M  V30 513 C 48.4643 2.60245 4.33129 0
M  V30 514 C 50.6623 2.93801 4.2212 0
M  V30 515 N 48.6443 3.95036 4.69914 0
M  V30 516 C 50.0153 4.1348 4.6199 0
M  V30 517 C 52.0703 2.9053 4.04348 0
M  V30 518 C 50.7733 5.3033 4.85945 0
M  V30 519 C 52.7993 4.06589 4.29464 0
M  V30 520 C 52.1613 5.25017 4.69613 0
M  V30 521 H 48.2603 0.197289 0.756704 0
M  V30 522 H 50.8443 1.05728 1.63492 0
M  V30 523 H 49.0153 -0.0813868 3.88315 0
M  V30 524 H 50.7473 0.105389 4.04563 0
M  V30 525 H 47.5023 2.11545 4.23728 0
M  V30 526 H 47.9263 4.64455 4.92555 0
M  V30 527 H 52.5683 2.00115 3.72443 0
M  V30 528 H 50.2863 6.21309 5.16721 0
M  V30 529 H 53.8723 4.05447 4.17257 0
M  V30 530 H 52.7523 6.1333 4.88667 0
M  V30 531 N 50.2554 -1.46986 0.568584 0
M  V30 532 C 51.5034 -2.02041 0.0487022 0
M  V30 533 C 51.8244 -1.44408 -1.31039 0
M  V30 534 O 51.0944 -0.623477 -1.85714 0
M  V30 535 H 49.6744 -0.746849 0.015014 0
M  V30 536 H 52.3364 -1.80257 0.741168 0
M  V30 537 H 51.4324 -3.12085 -0.0308961 0
M  V30 538 N 51.7335 -0.305618 -1.54608 0
M  V30 539 C 52.6815 0.584119 -2.25146 0
M  V30 540 C 53.6755 1.13326 -1.25911 0
M  V30 541 O 54.8815 1.08337 -1.43747 0
M  V30 542 H 51.2565 0.206983 -0.722954 0
M  V30 543 H 53.2275 -0.033291 -2.98381 0
M  V30 544 C 51.9765 1.74225 -3.009 0
M  V30 545 H 51.2995 1.32892 -3.77067 0
M  V30 546 H 52.7395 2.34077 -3.53531 0
M  V30 547 C 51.1985 2.64914 -2.0814 0
M  V30 548 O 51.7285 3.66137 -1.65246 0
M  V30 549 N 49.9345 2.3275 -1.74 0
M  V30 550 H 49.4815 1.50479 -2.09078 0
M  V30 551 H 49.4395 2.93694 -1.12211 0
M  V30 552 N 53.2116 1.57565 -0.0334293 0
M  V30 553 C 54.1436 2.0739 0.975811 0
M  V30 554 C 55.1566 0.998166 1.2861 0
M  V30 555 O 56.3456 1.27426 1.25 0
M  V30 556 C 53.4456 2.4871 2.30209 0
M  V30 557 C 52.6186 3.79413 2.17634 0
M  V30 558 C 51.6776 4.07237 3.33233 0
M  V30 559 O 50.7036 4.77425 3.09927 0
M  V30 560 N 51.9056 3.5775 4.5716 0
M  V30 561 H 54.6706 2.94598 0.55066 0
M  V30 562 H 52.2316 1.61173 0.15323 0
M  V30 563 H 54.2236 2.64413 3.06378 0
M  V30 564 H 52.7936 1.66845 2.64351 0
M  V30 565 H 52.0136 3.73465 1.26165 0
M  V30 566 H 53.3016 4.65038 2.0644 0
M  V30 567 H 52.6996 3.00976 4.78989 0
M  V30 568 H 51.2566 3.78724 5.30482 0
M  V30 569 N 54.6897 -0.239769 1.55765 0
M  V30 570 C 55.9667 -0.990056 1.68693 0
M  V30 571 C 56.3467 -2.03107 0.5754 0
M  V30 572 O 55.6947 -2.24604 -0.42017 0
M  V30 573 C 55.9047 -1.61696 3.09282 0
M  V30 574 C 57.2527 -2.11613 3.6811 0
M  V30 575 O 58.2767 -1.71624 3.12127 0
M  V30 576 O 57.1357 -2.85057 4.66267 0
M  V30 577 H 54.2297 -0.461299 0.686391 0
M  V30 578 H 56.7757 -0.232991 1.68093 0
M  V30 579 H 55.5477 -0.864357 3.81634 0
M  V30 580 H 55.1707 -2.44005 3.13923 0
M  V30 581 N 56.1678 -1.49265 -0.50573 0
M  V30 582 C 57.4448 -1.49012 -1.26707 0
M  V30 583 C 57.8248 -0.215205 -2.1 0
M  V30 584 O 57.1728 0.802547 -2.13943 0
M  V30 585 C 57.3828 -2.7663 -2.12783 0
M  V30 586 C 58.7308 -3.25932 -2.72127 0
M  V30 587 O 59.7548 -2.77715 -2.23054 0
M  V30 588 O 58.6138 -4.09897 -3.61451 0
M  V30 589 H 55.7078 -0.596197 -0.57313 0
M  V30 590 H 58.2538 -1.61524 -0.52039 0
M  V30 591 H 57.0258 -3.60916 -1.5118 0
M  V30 592 H 56.6488 -2.66956 -2.94653 0
M  V30 593 N 57.6459 0.756429 -1.3826 0
M  V30 594 C 58.8759 1.54341 -1.3734 0
M  V30 595 C 59.2839 1.89159 0.0393917 0
M  V30 596 O 58.6269 1.5307 1.01565 0
M  V30 597 C 58.6889 2.87238 -2.16182 0
M  V30 598 C 58.3529 2.74973 -3.65019 0
M  V30 599 C 59.3499 2.44962 -4.58574 0
M  V30 600 C 57.0349 2.92515 -4.08338 0
M  V30 601 C 59.0289 2.32642 -5.93428 0
M  V30 602 C 56.7159 2.79815 -5.43274 0
M  V30 603 C 57.7139 2.49921 -6.35632 0
M  V30 604 O 57.4019 2.37275 -7.68086 0
M  V30 605 H 57.1339 0.484281 -0.471643 0
M  V30 606 H 59.6879 0.944152 -1.82414 0
M  V30 607 H 57.9179 3.49342 -1.65822 0
M  V30 608 H 59.6069 3.48731 -2.07705 0
M  V30 609 H 60.3729 2.31081 -4.26412 0
M  V30 610 H 56.2519 3.14781 -3.368 0
M  V30 611 H 59.7959 2.0923 -6.65484 0
M  V30 612 H 55.6929 2.93269 -5.75034 0
M  V30 613 H 56.4609 2.52509 -7.78577 0
M  V30 614 N 59.124 1.23083 0.984299 0
M  V30 615 C 60.056 0.96636 2.07832 0
M  V30 616 C 61.069 -0.0582135 1.62696 0
M  V30 617 O 62.258 0.176843 1.77622 0
M  V30 618 C 59.358 0.433397 3.36117 0
M  V30 619 C 58.531 1.51722 4.10243 0
M  V30 620 C 57.59 0.989821 5.16807 0
M  V30 621 O 56.616 1.67794 5.43906 0
M  V30 622 N 57.818 -0.184367 5.80207 0
M  V30 623 H 60.583 1.90824 2.31098 0
M  V30 624 H 58.144 1.13888 1.1507 0
M  V30 625 H 60.136 0.065699 4.04647 0
M  V30 626 H 58.706 -0.413806 3.09849 0
M  V30 627 H 57.926 2.05786 3.36223 0
M  V30 628 H 59.214 2.24619 4.56534 0
M  V30 629 H 58.612 -0.760062 5.60571 0
M  V30 630 H 57.169 -0.493366 6.4993 0
M  V30 631 N 60.6021 -1.18246 1.0419 0
M  V30 632 C 61.5321 -2.24127 0.654914 0
M  V30 633 C 62.5131 -1.66617 -0.342451 0
M  V30 634 O 63.6981 -1.92924 -0.222277 0
M  V30 635 C 60.8281 -3.47295 0.0183757 0
M  V30 636 C 59.7821 -4.17563 0.939414 0
M  V30 637 C 59.1081 -5.34438 0.167286 0
M  V30 638 C 60.4081 -4.70917 2.25908 0
M  V30 639 H 62.1021 -2.56753 1.54007 0
M  V30 640 H 59.6481 -1.23414 0.74195 0
M  V30 641 H 61.6011 -4.20572 -0.264082 0
M  V30 642 H 60.3251 -3.13907 -0.901664 0
M  V30 643 H 58.9841 -3.46186 1.20628 0
M  V30 644 H 58.6321 -4.97298 -0.7552 0
M  V30 645 H 58.3321 -5.82388 0.780901 0
M  V30 646 H 59.8561 -6.10504 -0.108125 0
M  V30 647 H 61.2701 -5.35882 2.03724 0
M  V30 648 H 59.6671 -5.29406 2.82577 0
M  V30 649 H 60.7371 -3.88272 2.9047 0
M  V30 650 N 62.0802 -0.821533 -1.34494 0
M  V30 651 C 63.3262 -0.409552 -1.98622 0
M  V30 652 C 63.6592 1.0244 -1.64984 0
M  V30 653 O 62.9342 1.71325 -0.920758 0
M  V30 654 C 63.2172 -0.610458 -3.54888 0
M  V30 655 C 63.0702 -2.09043 -3.98273 0
M  V30 656 C 64.3892 -0.0455379 -4.40076 0
M  V30 657 H 61.5082 -0.15028 -0.721516 0
M  V30 658 H 64.1502 -1.03384 -1.59411 0
M  V30 659 H 62.3002 -0.079044 -3.8842 0
M  V30 660 H 63.9722 -2.68537 -3.75081 0
M  V30 661 H 62.2152 -2.58139 -3.48635 0
M  V30 662 H 62.8862 -2.18182 -5.07051 0
M  V30 663 H 65.3622 -0.499557 -4.1309 0
M  V30 664 H 64.2382 -0.215922 -5.48475 0
M  V30 665 H 64.4992 1.04939 -4.29465 0
M  V30 666 N 63.5583 1.46682 -0.576371 0
M  V30 667 C 64.9743 1.57822 -0.237562 0
M  V30 668 C 65.1743 1.57237 1.26011 0
M  V30 669 O 64.2303 1.48596 2.04146 0
M  V30 670 C 65.5433 2.87499 -0.881168 0
M  V30 671 C 67.0913 3.01119 -0.85417 0
M  V30 672 C 67.5663 4.33524 -1.4772 0
M  V30 673 N 69.0573 4.40207 -1.44125 0
M  V30 674 C 69.7923 5.4126 -1.89276 0
M  V30 675 N 69.2883 6.49021 -2.42371 0
M  V30 676 N 71.0813 5.32422 -1.80231 0
M  V30 677 H 63.2323 1.45306 -1.54919 0
M  V30 678 H 65.4953 0.692733 -0.647167 0
M  V30 679 H 65.2013 2.9372 -1.93447 0
M  V30 680 H 65.0753 3.75224 -0.385592 0
M  V30 681 H 67.4623 2.94485 0.190491 0
M  V30 682 H 67.5433 2.14887 -1.3877 0
M  V30 683 H 67.1873 4.40916 -2.52103 0
M  V30 684 H 67.1173 5.1852 -0.918947 0
M  V30 685 H 69.6083 3.62931 -1.05307 0
M  V30 686 H 69.9213 7.2233 -2.74698 0
M  V30 687 H 68.2663 6.49858 -2.46393 0
M  V30 688 H 71.4573 4.47137 -1.38514 0
M  V30 689 H 71.6303 6.11034 -2.15735 0
M  V30 690 N 65.0364 0.313813 1.54444 0
M  V30 691 C 65.9834 -0.55655 2.23989 0
M  V30 692 C 66.9534 -1.11943 1.22711 0
M  V30 693 O 68.1384 -1.16158 1.51367 0
M  V30 694 C 65.2784 -1.71635 2.99392 0
M  V30 695 C 64.3914 -1.18364 4.15468 0
M  V30 696 C 63.5264 -2.30834 4.78424 0
M  V30 697 C 62.5654 -1.74762 5.86622 0
M  V30 698 N 61.7024 -2.80855 6.43479 0
M  V30 699 H 66.5424 0.0430893 2.97969 0
M  V30 700 H 64.0794 0.0330359 1.47063 0
M  V30 701 H 66.0374 -2.39868 3.41349 0
M  V30 702 H 64.6674 -2.28742 2.27765 0
M  V30 703 H 63.7194 -0.393163 3.78363 0
M  V30 704 H 65.0314 -0.733262 4.93381 0
M  V30 705 H 64.1854 -3.0699 5.23299 0
M  V30 706 H 62.9244 -2.79204 3.99871 0
M  V30 707 H 61.9294 -0.970995 5.41158 0
M  V30 708 H 63.1544 -1.2728 6.67066 0
M  V30 709 H 61.1004 -3.28535 5.67804 0
M  V30 710 H 61.0174 -2.40351 7.16776 0
M  V30 711 H 62.2854 -3.5687 6.93011 0
M  V30 712 N 66.5145 -1.57545 0.0417849 0
M  V30 713 C 67.4445 -2.14009 -0.933929 0
M  V30 714 C 68.4255 -1.05938 -1.33083 0
M  V30 715 O 69.6105 -1.33833 -1.40721 0
M  V30 716 C 66.7405 -2.67747 -2.21199 0
M  V30 717 C 65.6945 -3.80718 -1.95544 0
M  V30 718 C 65.0205 -4.20935 -3.29724 0
M  V30 719 C 66.3205 -5.06258 -1.28452 0
M  V30 720 H 68.0145 -2.95788 -0.463645 0
M  V30 721 H 65.5605 -1.42285 -0.221573 0
M  V30 722 H 67.5135 -3.05886 -2.89848 0
M  V30 723 H 66.2375 -1.83147 -2.70416 0
M  V30 724 H 64.8965 -3.43037 -1.2931 0
M  V30 725 H 64.5445 -3.33298 -3.76724 0
M  V30 726 H 64.2445 -4.9707 -3.13361 0
M  V30 727 H 65.7685 -4.61666 -3.9962 0
M  V30 728 H 67.1825 -5.41903 -1.8712 0
M  V30 729 H 65.5795 -5.87475 -1.22445 0
M  V30 730 H 66.6495 -4.84207 -0.259219 0
M  V30 731 N 67.9926 0.231505 -1.5589 0
M  V30 732 C 69.2406 0.955461 -1.78088 0
M  V30 733 C 69.5616 1.85262 -0.608533 0
M  V30 734 O 68.8316 1.92277 0.375035 0
M  V30 735 H 67.4116 0.355787 -0.656829 0
M  V30 736 H 70.0736 0.245751 -1.93344 0
M  V30 737 H 69.1696 1.56814 -2.69844 0
M  V30 738 N 69.4707 1.49531 0.497807 0
M  V30 739 C 70.8867 1.36365 0.829266 0
M  V30 740 C 71.0867 0.399184 1.97506 0
M  V30 741 O 70.1427 -0.167977 2.51941 0
M  V30 742 C 71.4557 2.77153 1.16647 0
M  V30 743 C 73.0037 2.85877 1.27449 0
M  V30 744 C 73.4787 4.2744 1.64497 0
M  V30 745 N 74.9697 4.30265 1.7154 0
M  V30 746 C 75.7047 5.3677 2.01656 0
M  V30 747 N 75.2007 6.53516 2.29976 0
M  V30 748 N 76.9937 5.24189 2.02934 0
M  V30 749 H 69.1447 2.10831 -0.257703 0
M  V30 750 H 71.4077 0.946534 -0.0527091 0
M  V30 751 H 71.1137 3.49442 0.397872 0
M  V30 752 H 70.9877 3.12722 2.10915 0
M  V30 753 H 73.3747 2.13824 2.0338 0
M  V30 754 H 73.4557 2.53887 0.312244 0
M  V30 755 H 73.0997 5.00021 0.891151 0
M  V30 756 H 73.0297 4.56896 2.61827 0
M  V30 757 H 75.5207 3.4607 1.51802 0
M  V30 758 H 75.8337 7.30506 2.52153 0
M  V30 759 H 74.1787 6.56737 2.27425 0
M  V30 760 H 77.3697 4.31988 1.80289 0
M  V30 761 H 77.5427 6.07286 2.26071 0
M  V30 762 N 70.9488 -0.749086 1.3866 0
M  V30 763 C 72.1968 -1.50535 1.34847 0
M  V30 764 C 72.5178 -1.94909 -0.0595016 0
M  V30 765 O 71.7878 -1.67973 -1.00806 0
M  V30 766 H 70.3678 -0.558395 0.49619 0
M  V30 767 H 73.0298 -0.890165 1.73384 0
M  V30 768 H 72.1258 -2.39413 2.00219 0
M  V30 769 N 72.4269 -1.23603 -0.977757 0
M  V30 770 C 73.3739 -1.01954 -2.07061 0
M  V30 771 C 74.3439 0.0638697 -1.65977 0
M  V30 772 O 75.5289 -0.0887624 -1.90593 0
M  V30 773 C 72.6689 -0.619658 -3.39491 0
M  V30 774 C 71.7819 -1.77547 -3.93829 0
M  V30 775 C 70.9169 -1.32212 -5.14484 0
M  V30 776 C 69.9559 -2.44852 -5.60994 0
M  V30 777 N 69.0929 -2.00456 -6.72876 0
M  V30 778 H 73.9329 -1.95495 -2.24913 0
M  V30 779 H 71.4699 -0.973861 -1.10247 0
M  V30 780 H 73.4279 -0.368898 -4.15566 0
M  V30 781 H 72.0579 0.278752 -3.21594 0
M  V30 782 H 71.1099 -2.14016 -3.14486 0
M  V30 783 H 72.4219 -2.62219 -4.24314 0
M  V30 784 H 71.5759 -1.02965 -5.97899 0
M  V30 785 H 70.3149 -0.445808 -4.85658 0
M  V30 786 H 69.3199 -2.74871 -4.76157 0
M  V30 787 H 70.5449 -3.33024 -5.91837 0
M  V30 788 H 68.4909 -1.15208 -6.45804 0
M  V30 789 H 68.4079 -2.78687 -7.02759 0
M  V30 790 H 69.6759 -1.7432 -7.59758 0
M  V30 791 N 73.905 1.17692 -1.04816 0
M  V30 792 C 75.135 1.91508 -0.775128 0
M  V30 793 C 75.543 1.76844 0.67253 0
M  V30 794 O 74.886 1.10057 1.47082 0
M  V30 795 C 74.948 3.43167 -1.0713 0
M  V30 796 C 74.612 3.81612 -2.51438 0
M  V30 797 C 75.609 3.84772 -3.49638 0
M  V30 798 C 73.294 4.12687 -2.86348 0
M  V30 799 C 75.288 4.18469 -4.80794 0
M  V30 800 C 72.975 4.46053 -4.17708 0
M  V30 801 C 73.973 4.48921 -5.14741 0
M  V30 802 O 73.661 4.81504 -6.43746 0
M  V30 803 H 73.393 0.614575 -0.281555 0
M  V30 804 H 75.947 1.50206 -1.40098 0
M  V30 805 H 74.177 3.84745 -0.388342 0
M  V30 806 H 75.866 3.98239 -0.784883 0
M  V30 807 H 76.632 3.60893 -3.24008 0
M  V30 808 H 72.511 4.09627 -2.11486 0
M  V30 809 H 76.055 4.20623 -5.56527 0
M  V30 810 H 71.952 4.69393 -4.43103 0
M  V30 811 H 72.72 4.99377 -6.4851 0
M  V30 812 N 75.3831 0.828654 1.34056 0
M  V30 813 C 76.6081 0.431637 2.02859 0
M  V30 814 C 77.0331 -0.956339 1.61975 0
M  V30 815 O 76.3911 -1.62338 0.807228 0
M  V30 816 C 76.4391 0.548323 3.56407 0
M  V30 817 O 75.5431 -0.429556 4.10157 0
M  V30 818 H 74.8841 0.176886 0.640006 0
M  V30 819 H 77.4141 1.12066 1.71179 0
M  V30 820 H 77.4241 0.426196 4.05768 0
M  V30 821 H 76.0991 1.5606 3.8551 0
M  V30 822 H 74.6761 -0.265836 3.71951 0
M  V30 823 N 76.8612 -1.46375 0.584142 0
M  V30 824 C 77.7712 -2.34115 -0.150728 0
M  V30 825 C 78.7872 -1.49838 -0.884567 0
M  V30 826 O 79.9632 -1.82704 -0.847429 0
M  V30 827 C 77.0282 -3.2705 -1.15062 0
M  V30 828 C 76.0892 -4.27228 -0.421293 0
M  V30 829 C 75.3222 -5.15722 -1.37355 0
M  V30 830 O 75.5452 -5.07176 -2.61014 0
M  V30 831 O 74.4792 -5.95383 -0.883355 0
M  V30 832 H 78.3052 -2.98309 0.569708 0
M  V30 833 H 75.8902 -1.45373 0.344535 0
M  V30 834 H 77.7722 -3.84381 -1.72712 0
M  V30 835 H 76.4472 -2.65451 -1.8525 0
M  V30 836 H 75.3542 -3.7358 0.197085 0
M  V30 837 H 76.6872 -4.91616 0.239641 0
M  V30 838 N 78.3393 -0.321999 -1.54275 0
M  V30 839 C 79.5853 0.281461 -2.00837 0
M  V30 840 C 79.9183 1.51909 -1.20985 0
M  V30 841 O 79.1933 1.923 -0.291733 0
M  V30 842 C 79.4763 0.617162 -3.54772 0
M  V30 843 C 79.3293 -0.631064 -4.45351 0
M  V30 844 C 80.6483 1.43542 -4.16033 0
M  V30 845 H 77.7673 0.100826 -0.730071 0
M  V30 846 H 80.4093 -0.438268 -1.84876 0
M  V30 847 H 78.5593 1.23034 -3.68504 0
M  V30 848 H 80.2313 -1.26934 -4.43492 0
M  V30 849 H 78.4743 -1.26025 -4.15091 0
M  V30 850 H 79.1453 -0.351735 -5.50878 0
M  V30 851 H 81.6213 0.917134 -4.05867 0
M  V30 852 H 80.4973 1.63907 -5.23856 0
M  V30 853 H 80.7583 2.43108 -3.69257 0
M  V30 854 N 79.8174 1.5752 -0.0501392 0
M  V30 855 C 81.0644 1.9265 0.623874 0
M  V30 856 C 81.3924 0.928411 1.70912 0
M  V30 857 O 80.6474 -0.0594525 1.9561 0
M  V30 858 C 80.9464 3.34467 1.25963 0
M  V30 859 C 80.6124 4.49883 0.302689 0
M  V30 860 C 79.2744 4.81184 0.0393636 0
M  V30 861 C 81.6264 5.20002 -0.353205 0
M  V30 862 C 78.9544 5.79951 -0.887308 0
M  V30 863 C 81.3064 6.1976 -1.26806 0
M  V30 864 C 79.9704 6.49491 -1.54007 0
M  V30 865 H 79.2404 0.704957 0.228292 0
M  V30 866 H 81.8874 1.91146 -0.116398 0
M  V30 867 H 80.1924 3.32333 2.07514 0
M  V30 868 H 81.8894 3.58928 1.78806 0
M  V30 869 H 78.4794 4.25457 0.518109 0
M  V30 870 H 82.6634 4.96033 -0.162854 0
M  V30 871 H 77.9194 6.01322 -1.10553 0
M  V30 872 H 82.0934 6.73205 -1.78236 0
M  V30 873 H 79.7204 7.25837 -2.25976 0
M  V30 874 N 81.2955 -0.223234 1.56011 0
M  V30 875 C 82.2055 -1.29766 1.95443 0
M  V30 876 C 83.2215 -1.51373 0.858028 0
M  V30 877 O 84.3975 -1.64536 1.16146 0
M  V30 878 C 81.4625 -2.62772 2.26167 0
M  V30 879 C 80.5235 -2.49482 3.49367 0
M  V30 880 C 79.7565 -3.76145 3.78616 0
M  V30 881 O 79.9795 -4.79087 3.09568 0
M  V30 882 O 78.9135 -3.73358 4.72109 0
M  V30 883 H 82.7395 -0.99309 2.87004 0
M  V30 884 H 80.3245 -0.425958 1.43199 0
M  V30 885 H 82.2065 -3.41327 2.47131 0
M  V30 886 H 80.8815 -2.92913 1.37781 0
M  V30 887 H 79.7885 -1.69133 3.33684 0
M  V30 888 H 81.1215 -2.2428 4.38131 0
M  V30 889 N 82.7736 -1.49793 -0.48987 0
M  V30 890 C 83.7366 -1.66752 -1.57246 0
M  V30 891 C 84.7366 -0.538867 -1.51502 0
M  V30 892 O 85.9266 -0.805545 -1.54456 0
M  V30 893 C 83.0586 -1.67528 -2.96896 0
M  V30 894 H 84.2516 -2.63321 -1.43534 0
M  V30 895 H 81.8046 -1.38992 -0.714914 0
M  V30 896 H 82.5396 -0.725837 -3.16073 0
M  V30 897 H 82.3246 -2.49504 -3.02473 0
M  V30 898 H 83.8146 -1.82667 -3.7553 0
M  V30 899 N 84.2517 0.741722 -1.39055 0
M  V30 900 C 85.5007 1.49656 -1.35225 0
M  V30 901 C 85.8137 1.95533 0.0512708 0
M  V30 902 O 87.0197 2.7067 0.212138 0
M  V30 903 C 85.4757 2.70389 -2.37525 0
M  V30 904 C 85.0837 2.31489 -3.83558 0
M  V30 905 C 86.8277 3.48236 -2.42759 0
M  V30 906 C 84.7347 3.48903 -4.77515 0
M  V30 907 H 83.6647 0.56197 -0.502699 0
M  V30 908 H 86.3157 0.809727 -1.64668 0
M  V30 909 H 84.6977 3.41113 -2.01142 0
M  V30 910 H 85.8717 1.68354 -4.28945 0
M  V30 911 H 84.1867 1.66749 -3.81554 0
M  V30 912 H 86.7837 4.35558 -3.1015 0
M  V30 913 H 87.1267 3.90229 -1.45008 0
M  V30 914 H 87.6597 2.84535 -2.78002 0
M  V30 915 H 84.3987 3.11966 -5.76504 0
M  V30 916 H 83.9187 4.11041 -4.36813 0
M  V30 917 H 85.5977 4.15328 -4.96096 0
M  V30 918 N 85.7298 1.2412 0.971189 0
M  V30 919 C 86.6778 1.02812 2.08644 0
M  V30 920 C 87.6718 -0.0358403 1.69362 0
M  V30 921 O 88.8778 0.118429 1.7961 0
M  V30 922 H 85.2528 0.315428 0.682649 0
M  V30 923 H 87.2238 1.97397 2.23779 0
M  V30 924 C 85.9728 0.645874 3.41649 0
M  V30 925 H 85.2958 1.45632 3.72332 0
M  V30 926 H 86.7358 0.536366 4.20594 0
M  V30 927 C 85.1948 -0.646713 3.30635 0
M  V30 928 O 85.7248 -1.69338 3.64263 0
M  V30 929 N 83.9308 -0.626115 2.83775 0
M  V30 930 H 83.4778 0.225988 2.56607 0
M  V30 931 H 83.4358 -1.49117 2.76788 0
M  V30 932 N 87.2079 -1.17134 1.05439 0
M  V30 933 C 88.4569 -1.86791 0.761049 0
M  V30 934 C 88.7699 -1.82072 -0.714795 0
M  V30 935 O 89.9759 -2.47223 -1.12218 0
M  V30 936 C 88.4319 -3.35166 1.31117 0
M  V30 937 C 88.0399 -3.48381 2.81664 0
M  V30 938 C 89.7839 -4.10134 1.09499 0
M  V30 939 C 87.6909 -4.90793 3.29964 0
M  V30 940 H 86.6209 -0.699681 0.281002 0
M  V30 941 H 89.2719 -1.3226 1.27199 0
M  V30 942 H 87.6539 -3.8925 0.72803 0
M  V30 943 H 88.8279 -3.04502 3.45855 0
M  V30 944 H 87.1429 -2.86836 3.01851 0
M  V30 945 H 89.7399 -5.152 1.43084 0
M  V30 946 H 90.0829 -4.16287 0.0328772 0
M  V30 947 H 90.6159 -3.62264 1.64346 0
M  V30 948 H 87.3549 -4.89816 4.35616 0
M  V30 949 H 86.8749 -5.35333 2.70516 0
M  V30 950 H 88.5539 -5.59573 3.24787 0
M  V30 951 N 88.686 -0.835752 -1.33615 0
M  V30 952 C 89.914 -0.443344 -2.02094 0
M  V30 953 C 90.329 0.954522 -1.62894 0
M  V30 954 O 89.686 1.61982 -0.840723 0
M  V30 955 C 89.737 -0.550775 -3.5728 0
M  V30 956 O 89.458 -1.89356 -3.95065 0
M  V30 957 C 90.959 -0.154919 -4.43029 0
M  V30 958 H 88.179 -0.176359 -0.647409 0
M  V30 959 H 90.723 -1.12746 -1.70612 0
M  V30 960 H 88.878 0.0853997 -3.87306 0
M  V30 961 H 89.292 -1.87687 -4.89769 0
M  V30 962 H 90.766 -0.281144 -5.51284 0
M  V30 963 H 91.243 0.902863 -4.2982 0
M  V30 964 H 91.849 -0.765404 -4.18356 0
M  V30 965 N 90.1641 1.46063 -0.591896 0
M  V30 966 C 91.1121 2.32124 0.148739 0
M  V30 967 C 92.1061 1.45035 0.875286 0
M  V30 968 O 93.3121 1.61609 0.792632 0
M  V30 969 H 89.6871 0.749024 0.066832 0
M  V30 970 H 91.6581 2.92392 -0.595783 0
M  V30 971 C 90.4071 3.28373 1.1431 0
M  V30 972 H 89.7301 3.95371 0.59346 0
M  V30 973 H 91.1701 3.91352 1.63155 0
M  V30 974 C 89.6291 2.54393 2.20875 0
M  V30 975 O 90.1591 2.31373 3.28374 0
M  V30 976 N 88.3651 2.14797 1.95731 0
M  V30 977 H 87.9121 2.33719 1.08319 0
M  V30 978 H 87.8701 1.65619 2.67241 0
M  V30 979 N 91.6422 0.330177 1.54103 0
M  V30 980 C 92.5902 -0.548226 2.26047 0
M  V30 981 C 93.5842 -1.11309 1.27698 0
M  V30 982 O 94.7902 -1.06036 1.45452 0
M  V30 983 H 91.1652 -0.195456 0.726155 0
M  V30 984 H 93.1362 0.0807567 2.98291 0
M  V30 985 C 91.8852 -1.69415 3.03634 0
M  V30 986 H 91.2082 -1.26876 3.79134 0
M  V30 987 H 92.6482 -2.28423 3.5721 0
M  V30 988 C 91.1072 -2.61569 2.12328 0
M  V30 989 O 91.6372 -3.63462 1.7105 0
M  V30 990 N 89.8432 -2.29952 1.77681 0
M  V30 991 H 89.3902 -1.47134 2.11446 0
M  V30 992 H 89.3482 -2.91871 1.16869 0
M  V30 993 N 93.1203 -1.57491 0.0584922 0
M  V30 994 C 94.0303 -2.15448 -0.928414 0
M  V30 995 C 95.0463 -1.11416 -1.3365 0
M  V30 996 O 96.2223 -1.4362 -1.41193 0
M  V30 997 C 93.2873 -2.69393 -2.18239 0
M  V30 998 C 92.3483 -3.88249 -1.83196 0
M  V30 999 C 91.5813 -4.39613 -3.02616 0
M  V30 1000 O 91.8043 -3.90023 -4.16219 0
M  V30 1001 O 90.7383 -5.31111 -2.83204 0
M  V30 1002 H 94.5643 -3.00112 -0.465483 0
M  V30 1003 H 92.1493 -1.48499 -0.163826 0
M  V30 1004 H 94.0313 -3.04026 -2.91798 0
M  V30 1005 H 92.7063 -1.87796 -2.63656 0
M  V30 1006 H 91.6133 -3.58492 -1.06931 0
M  V30 1007 H 92.9463 -4.71098 -1.42573 0
M  V30 1008 N 94.5984 0.214957 -1.56127 0
M  V30 1009 C 96.0144 0.564948 -1.49267 0
M  V30 1010 C 96.2144 1.86827 -0.754838 0
M  V30 1011 O 95.2704 2.50745 -0.297198 0
M  V30 1012 C 96.5834 0.638071 -2.93852 0
M  V30 1013 C 98.1314 0.728253 -3.0441 0
M  V30 1014 C 98.6064 0.832663 -4.50367 0
M  V30 1015 N 100.097 0.896712 -4.54437 0
M  V30 1016 C 100.832 0.997324 -5.6466 0
M  V30 1017 N 100.328 1.06147 -6.8462 0
M  V30 1018 N 102.121 1.03297 -5.52527 0
M  V30 1019 H 94.2724 -0.640211 -2.02522 0
M  V30 1020 H 96.5354 -0.225507 -0.920788 0
M  V30 1021 H 96.2414 -0.250126 -3.50809 0
M  V30 1022 H 96.1154 1.49947 -3.46115 0
M  V30 1023 H 98.5024 1.60689 -2.47514 0
M  V30 1024 H 98.5834 -0.158952 -2.55306 0
M  V30 1025 H 98.2274 -0.0415417 -5.07883 0
M  V30 1026 H 98.1574 1.73538 -4.97184 0
M  V30 1027 H 100.648 0.857188 -3.6805 0
M  V30 1028 H 100.961 1.1382 -7.64372 0
M  V30 1029 H 99.3064 1.03049 -6.87318 0
M  V30 1030 H 102.497 0.979558 -4.57736 0
M  V30 1031 H 102.67 1.10793 -6.38458 0
M  V30 1032 N 96.0765 1.50051 0.48192 0
M  V30 1033 C 97.3225 1.60736 1.2366 0
M  V30 1034 C 97.6555 0.301786 1.91841 0
M  V30 1035 O 96.9305 -0.696025 1.8162 0
M  V30 1036 C 97.2135 2.78009 2.28874 0
M  V30 1037 C 97.0665 4.18416 1.65069 0
M  V30 1038 C 98.3855 2.90867 3.30279 0
M  V30 1039 H 95.5045 0.585031 0.448228 0
M  V30 1040 H 98.1465 1.82402 0.531946 0
M  V30 1041 H 96.2965 2.59667 2.88973 0
M  V30 1042 H 97.9685 4.48322 1.0865 0
M  V30 1043 H 96.2115 4.23177 0.954148 0
M  V30 1044 H 96.8825 4.96381 2.41474 0
M  V30 1045 H 99.3585 3.07623 2.80191 0
M  V30 1046 H 98.2345 3.74566 4.01238 0
M  V30 1047 H 98.4955 2.01021 3.93755 0
M  V30 1048 N 97.5546 -0.734337 1.39446 0
M  V30 1049 C 98.8006 -1.49613 1.36908 0
M  V30 1050 C 99.1336 -1.94169 -0.0347829 0
M  V30 1051 O 98.4086 -1.66833 -0.999847 0
M  V30 1052 C 98.6916 -2.73534 2.34203 0
M  V30 1053 C 98.5446 -2.34993 3.83534 0
M  V30 1054 C 99.8636 -3.75635 2.29317 0
M  V30 1055 H 96.9826 -0.542714 0.498629 0
M  V30 1056 H 99.6246 -0.839597 1.70443 0
M  V30 1057 H 97.7746 -3.29553 2.05736 0
M  V30 1058 H 99.4466 -1.84601 4.22753 0
M  V30 1059 H 97.6896 -1.67213 4.00278 0
M  V30 1060 H 98.3606 -3.23738 4.47099 0
M  V30 1061 H 100.837 -3.29203 2.54489 0
M  V30 1062 H 99.7126 -4.60008 2.99472 0
M  V30 1063 H 99.9736 -4.22603 1.29842 0
M  V30 1064 N 99.0327 -1.24633 -0.964593 0
M  V30 1065 C 100.279 -1.08949 -1.71049 0
M  V30 1066 C 100.612 0.370302 -1.90637 0
M  V30 1067 O 99.8867 1.27349 -1.47011 0
M  V30 1068 C 100.17 -1.83329 -3.0994 0
M  V30 1069 C 100.023 -3.37077 -2.97824 0
M  V30 1070 C 101.342 -1.60846 -4.09654 0
M  V30 1071 H 98.4607 -0.397178 -0.620821 0
M  V30 1072 H 101.103 -1.5334 -1.12191 0
M  V30 1073 H 99.2527 -1.45597 -3.60186 0
M  V30 1074 H 100.925 -3.84425 -2.5498 0
M  V30 1075 H 99.1677 -3.65298 -2.33965 0
M  V30 1076 H 99.8387 -3.84324 -3.96231 0
M  V30 1077 H 102.315 -1.93674 -3.68279 0
M  V30 1078 H 101.191 -2.1534 -5.04896 0
M  V30 1079 H 101.452 -0.547434 -4.38698 0
M  V30 1080 N 100.511 1.16574 -1.06058 0
M  V30 1081 C 101.458 2.20883 -0.669263 0
M  V30 1082 C 102.428 1.62729 0.332918 0
M  V30 1083 O 103.613 1.895 0.222346 0
M  V30 1084 C 100.753 3.45049 -0.0593572 0
M  V30 1085 C 99.8658 4.17458 -1.11143 0
M  V30 1086 C 99.0008 5.29135 -0.467916 0
M  V30 1087 C 98.0398 5.93343 -1.50369 0
M  V30 1088 N 97.1768 6.96516 -0.883706 0
M  V30 1089 H 102.017 2.53709 -1.5632 0
M  V30 1090 H 99.5538 1.24616 -0.781625 0
M  V30 1091 H 101.512 4.16033 0.311771 0
M  V30 1092 H 100.142 3.12781 0.797992 0
M  V30 1093 H 99.1938 3.45101 -1.60029 0
M  V30 1094 H 100.506 4.61307 -1.89731 0
M  V30 1095 H 99.6598 6.06684 -0.0436871 0
M  V30 1096 H 98.3988 4.86443 0.349864 0
M  V30 1097 H 97.4038 5.14517 -1.93784 0
M  V30 1098 H 98.6288 6.38114 -2.32352 0
M  V30 1099 H 96.5748 6.55943 -0.086595 0
M  V30 1100 H 96.4918 7.38723 -1.607 0
M  V30 1101 H 97.7598 7.77993 -0.484543 0
M  V30 1102 N 101.989 0.842826 1.3317 0
M  V30 1103 C 103.238 0.436738 1.96915 0
M  V30 1104 C 103.551 -1.01025 1.67491 0
M  V30 1105 O 104.757 -1.5212 2.24881 0
M  V30 1106 C 103.213 0.730021 3.52418 0
M  V30 1107 C 102.821 2.19195 3.90714 0
M  V30 1108 C 104.565 0.391076 4.22695 0
M  V30 1109 C 102.472 2.42907 5.39212 0
M  V30 1110 H 101.402 0.15958 0.736919 0
M  V30 1111 H 104.053 1.03196 1.51733 0
M  V30 1112 H 102.435 0.0643755 3.95948 0
M  V30 1113 H 103.609 2.8984 3.58231 0
M  V30 1114 H 101.924 2.49425 3.33431 0
M  V30 1115 H 104.521 0.545817 5.31907 0
M  V30 1116 H 104.864 -0.666294 4.10933 0
M  V30 1117 H 105.397 1.01212 3.84709 0
M  V30 1118 H 102.136 3.47224 5.55982 0
M  V30 1119 H 101.656 1.76827 5.73142 0
M  V30 1120 H 103.335 2.2626 6.06148 0
M  V30 1121 N 103.467 -1.45747 0.599634 0
M  V30 1122 C 104.397 -2.33235 -0.111306 0
M  V30 1123 C 105.378 -1.46359 -0.866781 0
M  V30 1124 O 106.563 -1.75146 -0.838904 0
M  V30 1125 C 103.693 -3.28932 -1.11451 0
M  V30 1126 C 102.647 -4.25381 -0.472772 0
M  V30 1127 C 101.973 -5.1071 -1.58365 0
M  V30 1128 C 103.273 -5.18831 0.600948 0
M  V30 1129 H 104.967 -2.92927 0.61919 0
M  V30 1130 H 102.513 -1.40857 0.299215 0
M  V30 1131 H 104.466 -3.89002 -1.62036 0
M  V30 1132 H 103.19 -2.67381 -1.8755 0
M  V30 1133 H 101.849 -3.66598 0.0121472 0
M  V30 1134 H 101.497 -4.45533 -2.33473 0
M  V30 1135 H 101.197 -5.7604 -1.15982 0
M  V30 1136 H 102.721 -5.73647 -2.09194 0
M  V30 1137 H 104.135 -5.73019 0.179491 0
M  V30 1138 H 102.532 -5.92595 0.946076 0
M  V30 1139 H 103.602 -4.6174 1.48068 0
M  V30 1140 N 104.945 -0.338344 -1.53925 0
M  V30 1141 C 105.892 0.520845 -2.24846 0
M  V30 1142 C 106.862 1.09976 -1.24477 0
M  V30 1143 O 108.047 1.13735 -1.53196 0
M  V30 1144 C 105.187 1.6685 -3.02084 0
M  V30 1145 C 104.3 1.11739 -4.17299 0
M  V30 1146 C 103.435 2.23193 -4.82036 0
M  V30 1147 C 102.474 1.65407 -5.89328 0
M  V30 1148 N 101.611 2.70582 -6.47866 0
M  V30 1149 H 106.451 -0.0904881 -2.97863 0
M  V30 1150 H 103.988 -0.0564282 -1.46992 0
M  V30 1151 H 105.946 2.34407 -3.45122 0
M  V30 1152 H 104.576 2.2509 -2.31375 0
M  V30 1153 H 103.628 0.332919 -3.7894 0
M  V30 1154 H 104.94 0.654677 -4.94485 0
M  V30 1155 H 104.094 2.98626 -5.28117 0
M  V30 1156 H 102.833 2.72807 -4.04262 0
M  V30 1157 H 101.838 0.884779 -5.42634 0
M  V30 1158 H 103.063 1.16652 -6.69006 0
M  V30 1159 H 101.009 3.1946 -5.72959 0
M  V30 1160 H 100.926 2.28917 -7.20509 0
M  V30 1161 H 102.194 3.45799 -6.98601 0
M  V30 1162 N 106.423 1.57458 -0.0668435 0
M  V30 1163 C 107.834 1.80776 0.466558 0
M  V30 1164 C 108.185 0.980361 1.69951 0
M  V30 1165 O 107.31 0.201441 2.1546 0
M  V30 1166 C 107.905 3.27881 0.85321 0
M  V30 1167 C 106.464 3.52062 1.3315 0
M  V30 1168 C 105.611 2.75513 0.314264 0
M  V30 1169 H 108.562 1.5598 -0.292588 0
M  V30 1170 H 108.583 3.39659 1.715 0
M  V30 1171 H 108.095 3.88075 -0.0443439 0
M  V30 1172 H 106.196 2.97167 2.24772 0
M  V30 1173 H 106.309 4.60762 1.31285 0
M  V30 1174 H 104.673 2.42123 0.790492 0
M  V30 1175 H 105.456 3.38442 -0.575477 0
M  V30 1176 N 107.901 -0.206675 1.56239 0
M  V30 1177 C 109.147 -0.930218 1.80208 0
M  V30 1178 C 109.48 -1.83387 0.638981 0
M  V30 1179 O 108.755 -1.91119 -0.361066 0
M  V30 1180 C 109.038 -1.75641 3.1436 0
M  V30 1181 C 108.891 -0.878257 4.41142 0
M  V30 1182 C 110.21 -2.73129 3.45092 0
M  V30 1183 H 107.329 -0.336742 0.655571 0
M  V30 1184 H 109.971 -0.198222 1.88963 0
M  V30 1185 H 108.121 -2.38048 3.07027 0
M  V30 1186 H 109.793 -0.269787 4.6051 0
M  V30 1187 H 108.036 -0.184385 4.33408 0
M  V30 1188 H 108.707 -1.49106 5.3148 0
M  V30 1189 H 111.183 -2.20856 3.52649 0
M  V30 1190 H 110.059 -3.28028 4.40101 0
M  V30 1191 H 110.32 -3.51606 2.68003 0
M  V30 1192 N 109.379 -1.50304 -0.473955 0
M  V30 1193 C 110.326 -1.68959 -1.57231 0
M  V30 1194 C 111.296 -0.530899 -1.57387 0
M  V30 1195 O 112.481 -0.761133 -1.74961 0
M  V30 1196 C 109.621 -1.7871 -2.95223 0
M  V30 1197 C 108.734 -3.06061 -3.04878 0
M  V30 1198 C 107.869 -3.06626 -4.33767 0
M  V30 1199 C 106.908 -4.28443 -4.37154 0
M  V30 1200 N 106.045 -4.26763 -5.5751 0
M  V30 1201 H 110.885 -2.6273 -1.40631 0
M  V30 1202 H 108.422 -1.30241 -0.683789 0
M  V30 1203 H 110.38 -1.82344 -3.75242 0
M  V30 1204 H 109.01 -0.883806 -3.10465 0
M  V30 1205 H 108.062 -3.11911 -2.17751 0
M  V30 1206 H 109.374 -3.96039 -3.0324 0
M  V30 1207 H 108.528 -3.08973 -5.22131 0
M  V30 1208 H 107.267 -2.14473 -4.3801 0
M  V30 1209 H 106.272 -4.2631 -3.47188 0
M  V30 1210 H 107.497 -5.2182 -4.34605 0
M  V30 1211 H 105.443 -3.37462 -5.62544 0
M  V30 1212 H 105.36 -5.10507 -5.57601 0
M  V30 1213 H 106.628 -4.33253 -6.48006 0
M  V30 1214 N 110.857 0.726932 -1.39834 0
M  V30 1215 C 111.804 1.841 -1.39197 0
M  V30 1216 C 112.774 1.642 -0.250502 0
M  V30 1217 O 113.959 1.85494 -0.446846 0
M  V30 1218 C 111.099 3.21697 -1.24919 0
M  V30 1219 C 110.212 3.53247 -2.48678 0
M  V30 1220 C 109.347 4.80289 -2.26928 0
M  V30 1221 C 108.386 5.04707 -3.4632 0
M  V30 1222 N 107.523 6.22956 -3.23836 0
M  V30 1223 H 112.363 1.83979 -2.34427 0
M  V30 1224 H 109.9 0.898876 -1.16442 0
M  V30 1225 H 111.858 4.01137 -1.1465 0
M  V30 1226 H 110.488 3.21076 -0.333153 0
M  V30 1227 H 109.54 2.68447 -2.69519 0
M  V30 1228 H 110.852 3.67205 -3.37582 0
M  V30 1229 H 110.006 5.67725 -2.13947 0
M  V30 1230 H 108.745 4.68519 -1.35431 0
M  V30 1231 H 107.75 4.1573 -3.5979 0
M  V30 1232 H 108.975 5.18357 -4.38729 0
M  V30 1233 H 106.921 6.12459 -2.35011 0
M  V30 1234 H 106.838 6.37539 -4.063 0
M  V30 1235 H 108.106 7.1321 -3.14566 0
M  V30 1236 N 112.336 1.25143 0.95797 0
M  V30 1237 C 113.283 1.05235 2.05412 0
M  V30 1238 C 114.253 -0.0374561 1.66058 0
M  V30 1239 O 115.438 0.119073 1.90428 0
M  V30 1240 C 112.578 0.673589 3.38462 0
M  V30 1241 C 111.691 1.8379 3.90954 0
M  V30 1242 C 110.826 1.40381 5.12315 0
M  V30 1243 C 109.865 2.53746 5.57027 0
M  V30 1244 N 109.002 2.11136 6.69601 0
M  V30 1245 H 113.842 1.99048 2.21774 0
M  V30 1246 H 111.379 0.991277 1.08683 0
M  V30 1247 H 113.337 0.434964 4.14926 0
M  V30 1248 H 111.967 -0.227554 3.21997 0
M  V30 1249 H 111.019 2.18992 3.11041 0
M  V30 1250 H 112.331 2.68937 4.20089 0
M  V30 1251 H 111.485 1.12464 5.96185 0
M  V30 1252 H 110.224 0.523015 4.84887 0
M  V30 1253 H 109.229 2.82412 4.71724 0
M  V30 1254 H 110.454 3.42398 5.86464 0
M  V30 1255 H 108.4 1.25468 6.4389 0
M  V30 1256 H 108.317 2.89832 6.98236 0
M  V30 1257 H 109.585 1.86385 7.56889 0
M  V30 1258 N 113.814 -1.1601 1.06675 0
M  V30 1259 C 114.761 -2.20525 0.680967 0
M  V30 1260 C 115.731 -1.62904 -0.324283 0
M  V30 1261 O 116.916 -1.89615 -0.212294 0
M  V30 1262 C 114.056 -3.45013 0.0776551 0
M  V30 1263 C 113.169 -4.16863 1.13355 0
M  V30 1264 C 112.304 -5.2888 0.49597 0
M  V30 1265 C 111.343 -5.92537 1.53513 0
M  V30 1266 N 110.48 -6.96038 0.920631 0
M  V30 1267 H 115.32 -2.52876 1.57663 0
M  V30 1268 H 112.857 -1.24199 0.788223 0
M  V30 1269 H 114.815 -4.16193 -0.289704 0
M  V30 1270 H 113.445 -3.132 -0.781393 0
M  V30 1271 H 112.497 -3.44248 1.61857 0
M  V30 1272 H 113.809 -4.60294 1.92174 0
M  V30 1273 H 112.963 -6.06653 0.0758604 0
M  V30 1274 H 111.702 -4.86622 -0.324062 0
M  V30 1275 H 110.707 -5.13482 1.9651 0
M  V30 1276 H 111.932 -6.36873 2.35733 0
M  V30 1277 H 109.878 -6.55888 0.12138 0
M  V30 1278 H 109.795 -7.3786 1.64616 0
M  V30 1279 H 111.063 -7.77725 0.525795 0
M  V30 1280 N 115.292 -0.849877 -1.32721 0
M  V30 1281 C 116.541 -0.447175 -1.96681 0
M  V30 1282 C 116.854 1.00135 -1.68025 0
M  V30 1283 O 118.06 1.50926 -2.25685 0
M  V30 1284 C 116.516 -0.7487 -3.52026 0
M  V30 1285 C 116.124 -2.21264 -3.89546 0
M  V30 1286 C 117.868 -0.413487 -4.22481 0
M  V30 1287 C 115.775 -2.45763 -5.37917 0
M  V30 1288 H 114.705 -0.163486 -0.736063 0
M  V30 1289 H 117.356 -1.03999 -1.51183 0
M  V30 1290 H 115.738 -0.0853727 -3.95908 0
M  V30 1291 H 116.912 -2.91736 -3.56689 0
M  V30 1292 H 115.227 -2.5119 -3.32103 0
M  V30 1293 H 117.824 -0.574017 -5.3161 0
M  V30 1294 H 118.167 0.644492 -4.11281 0
M  V30 1295 H 118.7 -1.03251 -3.84167 0
M  V30 1296 H 115.439 -3.50168 -5.54132 0
M  V30 1297 H 114.959 -1.79864 -5.72197 0
M  V30 1298 H 116.638 -2.29471 -6.0494 0
M  V30 1299 N 116.77 1.45427 -0.607355 0
M  V30 1300 C 117.717 2.3053 0.111625 0
M  V30 1301 C 118.687 1.4209 0.860216 0
M  V30 1302 O 119.872 1.71019 0.845998 0
M  V30 1303 C 117.012 3.26992 1.10319 0
M  V30 1304 C 116.125 4.30535 0.355493 0
M  V30 1305 C 115.26 5.14105 1.33676 0
M  V30 1306 C 114.299 6.09376 0.576862 0
M  V30 1307 N 113.436 6.85727 1.5074 0
M  V30 1308 H 118.276 2.91477 -0.620093 0
M  V30 1309 H 115.813 1.43631 -0.317594 0
M  V30 1310 H 117.771 3.81385 1.6912 0
M  V30 1311 H 116.401 2.67799 1.80232 0
M  V30 1312 H 115.453 3.78805 -0.348023 0
M  V30 1313 H 116.765 4.98235 -0.237423 0
M  V30 1314 H 115.919 5.72897 1.99684 0
M  V30 1315 H 114.658 4.46423 1.9636 0
M  V30 1316 H 113.663 5.49715 -0.0968519 0
M  V30 1317 H 114.888 6.79085 -0.0449341 0
M  V30 1318 H 112.834 6.20735 2.12189 0
M  V30 1319 H 112.751 7.49778 0.967913 0
M  V30 1320 H 114.019 7.4906 2.15706 0
M  V30 1321 N 118.248 0.346503 1.53744 0
M  V30 1322 C 119.664 -0.00530975 1.59599 0
M  V30 1323 C 119.864 -1.48465 1.36236 0
M  V30 1324 O 118.92 -2.24376 1.15808 0
M  V30 1325 C 120.233 0.433516 2.97559 0
M  V30 1326 C 121.781 0.386111 3.10609 0
M  V30 1327 C 122.256 0.800451 4.50951 0
M  V30 1328 N 123.747 0.754753 4.5701 0
M  V30 1329 C 124.482 1.04727 5.63755 0
M  V30 1330 N 123.978 1.4081 6.7834 0
M  V30 1331 N 125.771 0.971316 5.53644 0
M  V30 1332 H 117.922 1.31009 1.67184 0
M  V30 1333 H 120.185 0.534242 0.783128 0
M  V30 1334 H 119.891 1.46509 3.19731 0
M  V30 1335 H 119.765 -0.189753 3.76722 0
M  V30 1336 H 122.152 -0.636295 2.88158 0
M  V30 1337 H 122.233 1.04462 2.33498 0
M  V30 1338 H 121.877 1.82088 4.74137 0
M  V30 1339 H 121.807 0.119386 5.26465 0
M  V30 1340 H 124.298 0.488662 3.74727 0
M  V30 1341 H 124.611 1.61607 7.55714 0
M  V30 1342 H 122.956 1.44657 6.79779 0
M  V30 1343 H 126.147 0.688748 4.63005 0
M  V30 1344 H 126.32 1.20263 6.36742 0
M  V30 1345 N 119.726 -1.57421 0.075193 0
M  V30 1346 C 120.636 -2.1642 -0.905511 0
M  V30 1347 C 121.652 -1.12828 -1.32461 0
M  V30 1348 O 122.828 -1.45109 -1.39661 0
M  V30 1349 C 119.893 -2.71693 -2.15369 0
M  V30 1350 C 118.954 -3.90171 -1.79068 0
M  V30 1351 C 118.187 -4.42798 -2.97936 0
M  V30 1352 O 118.41 -3.94416 -4.12058 0
M  V30 1353 O 117.344 -5.34085 -2.77555 0
M  V30 1354 H 121.17 -3.00588 -0.433626 0
M  V30 1355 H 118.755 -1.48664 -0.148067 0
M  V30 1356 H 120.637 -3.07104 -2.88557 0
M  V30 1357 H 119.312 -1.90582 -2.61649 0
M  V30 1358 H 118.219 -3.59606 -1.03122 0
M  V30 1359 H 119.552 -4.72584 -1.37569 0
M  V30 1360 N 121.204 0.198386 -1.56346 0
M  V30 1361 C 122.45 0.920648 -1.80698 0
M  V30 1362 C 122.783 1.83045 -0.648697 0
M  V30 1363 O 122.058 1.91308 0.350925 0
M  V30 1364 C 122.341 1.73971 -3.15287 0
M  V30 1365 C 122.194 0.85485 -4.41602 0
M  V30 1366 C 123.513 2.71296 -3.46535 0
M  V30 1367 H 120.632 0.333261 -0.657348 0
M  V30 1368 H 123.274 0.188198 -1.89066 0
M  V30 1369 H 121.424 2.36416 -3.08285 0
M  V30 1370 H 123.096 0.245362 -4.60647 0
M  V30 1371 H 121.339 0.161398 -4.335 0
M  V30 1372 H 122.01 1.46286 -5.32264 0
M  V30 1373 H 124.486 2.18983 -3.53816 0
M  V30 1374 H 123.362 3.2569 -4.41834 0
M  V30 1375 H 123.623 3.5018 -2.69864 0
M  V30 1376 N 122.682 1.50554 0.465978 0
M  V30 1377 C 123.629 1.6979 1.56333 0
M  V30 1378 C 124.599 0.539239 1.57103 0
M  V30 1379 O 125.784 0.770401 1.74555 0
M  V30 1380 C 122.924 1.80273 2.94271 0
M  V30 1381 C 122.037 3.07674 3.0325 0
M  V30 1382 C 121.172 3.08922 4.32135 0
M  V30 1383 C 120.211 4.30755 4.34875 0
M  V30 1384 N 119.348 4.29714 5.55239 0
M  V30 1385 H 124.188 2.63472 1.39235 0
M  V30 1386 H 121.725 1.30602 0.676873 0
M  V30 1387 H 123.683 1.84332 3.74269 0
M  V30 1388 H 122.313 0.900258 3.09992 0
M  V30 1389 H 121.365 3.13062 2.16094 0
M  V30 1390 H 122.677 3.97642 3.01135 0
M  V30 1391 H 121.831 3.11738 5.20485 0
M  V30 1392 H 120.57 2.16792 4.36866 0
M  V30 1393 H 119.575 4.28146 3.44922 0
M  V30 1394 H 120.8 5.24117 4.31831 0
M  V30 1395 H 118.746 3.4044 5.60746 0
M  V30 1396 H 118.663 5.13456 5.54886 0
M  V30 1397 H 119.931 4.36683 6.457 0
M  V30 1398 N 124.16 -0.719506 1.40217 0
M  V30 1399 C 125.409 -1.47486 1.37589 0
M  V30 1400 C 125.722 -1.9559 -0.0201568 0
M  V30 1401 O 126.928 -2.70973 -0.169049 0
M  V30 1402 C 125.384 -2.66575 2.41796 0
M  V30 1403 C 124.992 -2.25358 3.87192 0
M  V30 1404 C 126.736 -3.4433 2.48269 0
M  V30 1405 C 124.643 -3.41262 4.83005 0
M  V30 1406 H 123.573 -0.553901 0.511576 0
M  V30 1407 H 126.224 -0.783427 1.65936 0
M  V30 1408 H 124.606 -3.3787 2.06543 0
M  V30 1409 H 125.78 -1.61509 4.31569 0
M  V30 1410 H 124.095 -1.60657 3.84159 0
M  V30 1411 H 126.692 -4.30569 3.17041 0
M  V30 1412 H 127.035 -3.87872 1.51198 0
M  V30 1413 H 127.568 -2.80076 2.82493 0
M  V30 1414 H 124.307 -3.02755 5.81394 0
M  V30 1415 H 123.827 -4.0404 4.43297 0
M  V30 1416 H 125.506 -4.07383 5.02641 0
M  V30 1417 N 125.638 -1.25649 -0.95132 0
M  V30 1418 C 126.568 -1.08808 -2.06599 0
M  V30 1419 C 127.549 0.00382547 -1.701 0
M  V30 1420 O 128.734 -0.166325 -1.93486 0
M  V30 1421 C 125.864 -0.709542 -3.39975 0
M  V30 1422 C 124.818 -1.75206 -3.90496 0
M  V30 1423 C 124.144 -1.22811 -5.20405 0
M  V30 1424 C 125.444 -3.15153 -4.16504 0
M  V30 1425 H 127.138 -2.02048 -2.20946 0
M  V30 1426 H 124.684 -0.972835 -1.06169 0
M  V30 1427 H 126.637 -0.578649 -4.17408 0
M  V30 1428 H 125.361 0.258556 -3.25575 0
M  V30 1429 H 124.02 -1.87145 -3.15234 0
M  V30 1430 H 123.668 -0.250145 -5.02378 0
M  V30 1431 H 123.368 -1.92492 -5.55176 0
M  V30 1432 H 124.892 -1.10968 -6.00432 0
M  V30 1433 H 126.306 -3.06349 -4.84586 0
M  V30 1434 H 124.703 -3.82333 -4.62538 0
M  V30 1435 H 125.773 -3.61966 -3.22658 0
M  V30 1436 N 127.117 1.15442 -1.07289 0
M  V30 1437 C 128.027 2.23786 -0.704057 0
M  V30 1438 C 129.043 1.7166 0.284413 0
M  V30 1439 O 130.219 2.00972 0.131205 0
M  V30 1440 C 127.284 3.46535 -0.106792 0
M  V30 1441 C 126.345 4.13654 -1.14842 0
M  V30 1442 C 125.578 5.30544 -0.57956 0
M  V30 1443 O 125.801 5.67187 0.604585 0
M  V30 1444 O 124.735 5.87154 -1.32414 0
M  V30 1445 H 128.561 2.57664 -1.60757 0
M  V30 1446 H 126.146 1.23152 -0.845803 0
M  V30 1447 H 128.028 4.20804 0.224048 0
M  V30 1448 H 126.703 3.14407 0.770049 0
M  V30 1449 H 125.61 3.4131 -1.5316 0
M  V30 1450 H 126.943 4.49861 -1.99714 0
M  V30 1451 N 128.595 0.856903 1.32268 0
M  V30 1452 C 129.543 0.291987 2.3076 0
M  V30 1453 C 130.537 -0.585857 1.58947 0
M  V30 1454 O 131.743 -0.47341 1.73663 0
M  V30 1455 H 128.118 0.075721 0.748178 0
M  V30 1456 H 130.089 1.13687 2.75895 0
M  V30 1457 C 128.838 -0.502869 3.44044 0
M  V30 1458 H 128.161 0.163328 3.99466 0
M  V30 1459 H 129.601 -0.863691 4.1511 0
M  V30 1460 C 128.06 -1.68898 2.91505 0
M  V30 1461 O 128.59 -2.78811 2.89184 0
M  V30 1462 N 126.796 -1.51679 2.47875 0
M  V30 1463 H 126.343 -0.622666 2.49961 0
M  V30 1464 H 126.301 -2.31184 2.13076 0
M  V30 1465 N 130.073 -1.45103 0.615059 0
M  V30 1466 C 131.003 -2.33339 -0.0865619 0
M  V30 1467 C 131.984 -1.4727 -0.851209 0
M  V30 1468 O 133.169 -1.76026 -0.820281 0
M  V30 1469 C 130.299 -3.30095 -1.07956 0
M  V30 1470 C 129.253 -4.25858 -0.427628 0
M  V30 1471 C 128.579 -5.12361 -1.5294 0
M  V30 1472 C 129.879 -5.18165 0.655944 0
M  V30 1473 H 131.573 -2.92254 0.650224 0
M  V30 1474 H 129.119 -1.40532 0.314138 0
M  V30 1475 H 131.072 -3.90698 -1.57901 0
M  V30 1476 H 129.796 -2.69355 -1.84703 0
M  V30 1477 H 128.455 -3.66564 0.0510292 0
M  V30 1478 H 128.103 -4.47984 -2.28734 0
M  V30 1479 H 127.803 -5.77238 -1.09865 0
M  V30 1480 H 129.327 -5.75833 -2.03098 0
M  V30 1481 H 130.741 -5.72796 0.240257 0
M  V30 1482 H 129.138 -5.91559 1.00888 0
M  V30 1483 H 130.208 -4.60144 1.52957 0
M  V30 1484 N 131.551 -0.354651 -1.53558 0
M  V30 1485 C 132.967 -0.00315426 -1.596 0
M  V30 1486 C 133.167 1.47741 -1.37021 0
M  V30 1487 O 132.223 2.23759 -1.16996 0
M  V30 1488 C 133.536 -0.44929 -2.97325 0
M  V30 1489 C 135.084 -0.402578 -3.104 0
M  V30 1490 C 135.559 -0.824355 -4.5052 0
M  V30 1491 N 137.05 -0.778979 -4.56603 0
M  V30 1492 C 137.785 -1.07715 -5.63192 0
M  V30 1493 N 137.281 -1.44405 -6.77583 0
M  V30 1494 N 139.074 -1.00066 -5.53121 0
M  V30 1495 H 131.225 -1.31893 -1.66487 0
M  V30 1496 H 133.488 -0.538388 -0.780284 0
M  V30 1497 H 133.194 -1.48202 -3.1895 0
M  V30 1498 H 133.068 0.169772 -3.76818 0
M  V30 1499 H 135.455 0.621004 -2.88492 0
M  V30 1500 H 135.536 -1.05699 -2.32941 0
M  V30 1501 H 135.18 -1.846 -4.73165 0
M  V30 1502 H 135.11 -0.147304 -5.26394 0
M  V30 1503 H 137.601 -0.508528 -3.74463 0
M  V30 1504 H 137.914 -1.65612 -7.54846 0
M  V30 1505 H 136.259 -1.4826 -6.79002 0
M  V30 1506 H 139.45 -0.713293 -4.62633 0
M  V30 1507 H 139.623 -1.23638 -6.36096 0
M  V30 1508 N 133.029 1.57378 -0.0835403 0
M  V30 1509 C 134.277 1.93547 0.581718 0
M  V30 1510 C 134.598 0.96524 1.69435 0
M  V30 1511 O 133.868 0.0153369 1.95894 0
M  V30 1512 H 132.448 0.714521 0.217874 0
M  V30 1513 H 135.11 1.94366 -0.144158 0
M  V30 1514 H 134.206 2.95665 0.999423 0
M  V30 1515 N 134.507 -0.190092 1.56449 0
M  V30 1516 C 135.755 -0.907908 1.80559 0
M  V30 1517 C 136.076 -1.83583 0.657438 0
M  V30 1518 O 135.346 -1.93203 -0.323924 0
M  V30 1519 H 133.926 -0.338247 0.666032 0
M  V30 1520 H 136.588 -0.194403 1.93928 0
M  V30 1521 H 135.684 -1.49604 2.73907 0
M  V30 1522 N 135.985 -1.50799 -0.457987 0
M  V30 1523 C 137.213 -1.66218 -1.23203 0
M  V30 1524 C 137.628 -0.350894 -1.85511 0
M  V30 1525 O 136.985 0.668546 -1.69814 0
M  V30 1526 C 137.036 -2.76291 -2.33121 0
M  V30 1527 O 136.757 -4.02338 -1.73366 0
M  V30 1528 C 138.258 -3.028 -3.2377 0
M  V30 1529 H 135.478 -0.558361 -0.372121 0
M  V30 1530 H 138.022 -1.97099 -0.545179 0
M  V30 1531 H 136.177 -2.48068 -2.97558 0
M  V30 1532 H 136.591 -4.63312 -2.4585 0
M  V30 1533 H 138.065 -3.8345 -3.97077 0
M  V30 1534 H 138.542 -2.14385 -3.83322 0
M  V30 1535 H 139.148 -3.32604 -2.65056 0
M  V30 1536 N 137.463 0.71206 -1.40597 0
M  V30 1537 C 138.411 1.84746 -1.41321 0
M  V30 1538 C 139.405 1.66842 -0.293268 0
M  V30 1539 O 140.611 1.73904 -0.464481 0
M  V30 1540 H 136.986 0.608522 -0.441819 0
M  V30 1541 H 138.957 1.81252 -2.37045 0
M  V30 1542 C 137.706 3.22638 -1.29614 0
M  V30 1543 H 137.029 3.37023 -2.15071 0
M  V30 1544 H 138.469 4.02209 -1.3418 0
M  V30 1545 C 136.928 3.36899 -0.00673121 0
M  V30 1546 O 137.458 3.90186 0.954859 0
M  V30 1547 N 135.664 2.9053 0.0639327 0
M  V30 1548 H 135.211 2.47353 -0.719311 0
M  V30 1549 H 135.169 3.0045 0.926118 0
M  V30 1550 N 138.941 1.26152 0.944643 0
M  V30 1551 C 140.19 1.10883 1.68487 0
M  V30 1552 C 140.503 -0.348153 1.92477 0
M  V30 1553 O 141.709 -0.621459 2.64292 0
M  V30 1554 C 140.165 1.93624 3.03377 0
M  V30 1555 C 139.773 3.43875 2.87148 0
M  V30 1556 C 141.517 1.86954 3.81115 0
M  V30 1557 C 139.424 4.18875 4.1749 0
M  V30 1558 H 138.354 0.41135 0.631907 0
M  V30 1559 H 141.005 1.50433 1.05082 0
M  V30 1560 H 139.387 1.46904 3.67743 0
M  V30 1561 H 140.561 3.98338 2.31653 0
M  V30 1562 H 138.876 3.51744 2.22856 0
M  V30 1563 H 141.473 2.40275 4.77673 0
M  V30 1564 H 141.816 0.839518 4.07747 0
M  V30 1565 H 142.349 2.31477 3.23517 0
M  V30 1566 H 139.088 5.22332 3.96043 0
M  V30 1567 H 138.608 3.69193 4.72712 0
M  V30 1568 H 140.287 4.27134 4.85968 0
M  V30 1569 N 140.419 -1.14872 1.07899 0
M  V30 1570 C 141.668 -1.85135 0.800499 0
M  V30 1571 C 141.981 -1.83547 -0.676014 0
M  V30 1572 O 143.187 -2.49548 -1.06948 0
M  V30 1573 C 141.643 -3.3231 1.38197 0
M  V30 1574 C 141.251 -3.42329 2.8899 0
M  V30 1575 C 142.995 -4.0772 1.18174 0
M  V30 1576 C 140.902 -4.83684 3.403 0
M  V30 1577 H 139.832 -0.693563 0.29578 0
M  V30 1578 H 142.483 -1.29532 1.29976 0
M  V30 1579 H 140.865 -3.87618 0.810431 0
M  V30 1580 H 142.039 -2.97097 3.52236 0
M  V30 1581 H 140.354 -2.80369 3.07867 0
M  V30 1582 H 142.951 -5.12049 1.5398 0
M  V30 1583 H 143.294 -4.16124 0.12117 0
M  V30 1584 H 143.827 -3.58696 1.71994 0
M  V30 1585 H 140.566 -4.80465 4.45907 0
M  V30 1586 H 140.086 -5.29474 2.81811 0
M  V30 1587 H 141.765 -5.52558 3.36584 0
M  V30 1588 N 141.898 -0.863906 -1.31812 0
M  V30 1589 C 142.845 -0.313303 -2.28664 0
M  V30 1590 C 143.815 0.584868 -1.55462 0
M  V30 1591 O 145 0.517805 -1.83639 0
M  V30 1592 C 142.14 0.48441 -3.41683 0
M  V30 1593 C 141.253 -0.440594 -4.29747 0
M  V30 1594 C 140.388 0.370652 -5.29905 0
M  V30 1595 C 139.427 -0.551164 -6.09613 0
M  V30 1596 N 138.564 0.223462 -7.01744 0
M  V30 1597 H 143.404 -1.14444 -2.75148 0
M  V30 1598 H 140.941 -0.575769 -1.35364 0
M  V30 1599 H 142.899 0.962627 -4.05943 0
M  V30 1600 H 141.529 1.28029 -2.96325 0
M  V30 1601 H 140.581 -1.03724 -3.65986 0
M  V30 1602 H 141.893 -1.14767 -4.85417 0
M  V30 1603 H 141.047 0.911638 -5.99812 0
M  V30 1604 H 139.786 1.11105 -4.74876 0
M  V30 1605 H 138.791 -1.10396 -5.38603 0
M  V30 1606 H 140.016 -1.29032 -6.66729 0
M  V30 1607 H 137.962 0.946787 -6.49132 0
M  V30 1608 H 137.879 -0.424399 -7.54808 0
M  V30 1609 H 139.147 0.745876 -7.75923 0
M  V30 1610 N 143.376 1.44774 -0.622745 0
M  V30 1611 C 144.306 2.33382 0.0741861 0
M  V30 1612 C 145.287 1.47719 0.843387 0
M  V30 1613 O 146.472 1.76458 0.810934 0
M  V30 1614 C 143.602 3.30663 1.06204 0
M  V30 1615 C 142.556 4.26079 0.405037 0
M  V30 1616 C 141.882 5.13165 1.5022 0
M  V30 1617 C 143.182 5.1781 -0.683414 0
M  V30 1618 H 144.876 2.91905 -0.665713 0
M  V30 1619 H 142.422 1.40363 -0.321587 0
M  V30 1620 H 144.375 3.9153 1.55827 0
M  V30 1621 H 143.099 2.70331 1.83272 0
M  V30 1622 H 141.758 3.66532 -0.0704683 0
M  V30 1623 H 141.406 4.49191 2.26355 0
M  V30 1624 H 141.106 5.77812 1.06803 0
M  V30 1625 H 142.63 5.76902 2.00041 0
M  V30 1626 H 144.044 5.72661 -0.270631 0
M  V30 1627 H 142.441 5.91015 -1.04023 0
M  V30 1628 H 143.511 4.59326 -1.55395 0
M  V30 1629 N 144.854 0.36279 1.53368 0
M  V30 1630 C 146.103 -0.22888 2.00397 0
M  V30 1631 C 146.416 -1.50096 1.25421 0
M  V30 1632 O 147.622 -2.17106 1.63025 0
M  V30 1633 C 146.078 -0.458417 3.56969 0
M  V30 1634 C 145.686 0.798877 4.4082 0
M  V30 1635 C 147.43 -1.00789 4.12361 0
M  V30 1636 C 145.337 0.539078 5.88938 0
M  V30 1637 H 144.267 -0.089305 0.748693 0
M  V30 1638 H 146.918 0.481099 1.77081 0
M  V30 1639 H 145.3 -1.22959 3.76427 0
M  V30 1640 H 146.474 1.57262 4.33134 0
M  V30 1641 H 144.789 1.27137 3.96516 0
M  V30 1642 H 147.386 -1.21754 5.20653 0
M  V30 1643 H 147.729 -1.9692 3.66781 0
M  V30 1644 H 148.262 -0.296961 3.9669 0
M  V30 1645 H 145.001 1.47064 6.3879 0
M  V30 1646 H 144.521 -0.196222 5.99479 0
M  V30 1647 H 146.2 0.163542 6.46793 0
M  V30 1648 N 146.332 -1.57332 0.0918853 0
M  V30 1649 C 147.609 -1.85691 -0.614668 0
M  V30 1650 C 147.989 -0.988146 -1.86545 0
M  V30 1651 O 147.337 -0.0597055 -2.28422 0
M  V30 1652 C 147.547 -3.36294 -0.933126 0
M  V30 1653 C 148.895 -4.04275 -1.29796 0
M  V30 1654 O 149.919 -3.41157 -1.02424 0
M  V30 1655 O 148.778 -5.1564 -1.81047 0
M  V30 1656 H 145.872 -0.767802 -0.307261 0
M  V30 1657 H 148.418 -1.69244 0.12434 0
M  V30 1658 H 147.19 -3.91273 -0.0456404 0
M  V30 1659 H 146.813 -3.58076 -1.72822 0
M  V30 1660 N 147.81 0.181792 -1.56548 0
M  V30 1661 C 149.038 0.915947 -1.85521 0
M  V30 1662 C 149.453 1.76282 -0.676016 0
M  V30 1663 O 148.81 1.79012 0.355077 0
M  V30 1664 C 148.861 1.80126 -3.13427 0
M  V30 1665 O 148.582 0.988562 -4.26801 0
M  V30 1666 C 150.083 2.64597 -3.55673 0
M  V30 1667 H 147.303 0.26661 -0.61576 0
M  V30 1668 H 149.847 0.185039 -2.03661 0
M  V30 1669 H 148.002 2.48563 -2.97145 0
M  V30 1670 H 148.416 1.59308 -4.99721 0
M  V30 1671 H 149.89 3.2235 -4.48101 0
M  V30 1672 H 150.367 3.38958 -2.79292 0
M  V30 1673 H 150.973 2.0151 -3.74532 0
M  V30 1674 N 149.288 1.51039 0.449983 0
M  V30 1675 C 150.534 1.63322 1.20223 0
M  V30 1676 C 150.867 0.34241 1.91158 0
M  V30 1677 O 150.142 -0.657344 1.83055 0
M  V30 1678 C 150.425 2.82801 2.22925 0
M  V30 1679 C 150.278 4.21823 1.56157 0
M  V30 1680 C 151.597 2.97807 3.24035 0
M  V30 1681 H 148.716 0.594407 0.435718 0
M  V30 1682 H 151.358 1.83489 0.493136 0
M  V30 1683 H 149.508 2.65738 2.834 0
M  V30 1684 H 151.18 4.50526 0.991162 0
M  V30 1685 H 149.423 4.25105 0.864172 0
M  V30 1686 H 150.094 5.01391 2.30891 0
M  V30 1687 H 152.57 3.13497 2.73603 0
M  V30 1688 H 151.446 3.82992 3.93202 0
M  V30 1689 H 151.707 2.09328 3.89402 0
M  V30 1690 N 150.766 -0.704594 1.40972 0
M  V30 1691 C 151.713 -1.81862 1.42109 0
M  V30 1692 C 152.683 -1.63781 0.276593 0
M  V30 1693 O 153.868 -1.84759 0.4763 0
M  V30 1694 C 151.008 -3.19669 1.30022 0
M  V30 1695 C 150.121 -3.49246 2.54267 0
M  V30 1696 C 149.256 -4.76618 2.3454 0
M  V30 1697 C 148.295 -4.99133 3.54306 0
M  V30 1698 N 147.432 -6.17726 3.33706 0
M  V30 1699 H 152.272 -1.80226 2.37324 0
M  V30 1700 H 149.809 -0.880238 1.17857 0
M  V30 1701 H 151.767 -3.99263 1.21018 0
M  V30 1702 H 150.397 -3.20506 0.384192 0
M  V30 1703 H 149.449 -2.64125 2.73756 0
M  V30 1704 H 150.761 -3.61788 3.43381 0
M  V30 1705 H 149.915 -5.64249 2.22952 0
M  V30 1706 H 148.654 -4.66305 1.42867 0
M  V30 1707 H 147.659 -4.09953 3.66359 0
M  V30 1708 H 148.884 -5.11311 4.4692 0
M  V30 1709 H 146.83 -6.08642 2.44725 0
M  V30 1710 H 146.747 -6.30995 4.16391 0
M  V30 1711 H 148.015 -7.08115 3.25873 0
M  V30 1712 N 152.244 -1.26651 -0.937939 0
M  V30 1713 C 153.521 -1.0313 -1.66204 0
M  V30 1714 C 153.901 0.437256 -2.06522 0
M  V30 1715 O 153.249 1.41831 -1.79154 0
M  V30 1716 C 153.459 -1.98314 -2.87181 0
M  V30 1717 C 154.807 -2.27107 -3.58758 0
M  V30 1718 O 155.831 -1.96205 -2.97291 0
M  V30 1719 O 154.69 -2.79736 -4.69479 0
M  V30 1720 H 151.784 -0.392384 -0.727986 0
M  V30 1721 H 154.33 -1.37874 -0.989382 0
M  V30 1722 H 153.102 -2.97399 -2.54302 0
M  V30 1723 H 152.725 -1.64068 -3.6217 0
M  V30 1724 N 153.722 1.14298 -1.08507 0
M  V30 1725 C 155.133 1.66926 -0.836227 0
M  V30 1726 C 155.484 1.85576 0.63686 0
M  V30 1727 O 154.609 1.56767 1.49175 0
M  V30 1728 C 155.204 3.03219 -1.51142 0
M  V30 1729 C 153.763 3.52876 -1.30979 0
M  V30 1730 C 152.91 2.2833 -1.57356 0
M  V30 1731 H 155.861 0.983491 -1.24552 0
M  V30 1732 H 155.882 3.68726 -0.939211 0
M  V30 1733 H 155.394 2.89612 -2.58353 0
M  V30 1734 H 153.495 3.71703 -0.258429 0
M  V30 1735 H 153.608 4.33586 -2.03814 0
M  V30 1736 H 151.972 2.34454 -0.995164 0
M  V30 1737 H 152.755 2.17298 -2.65775 0
M  V30 1738 N 155.201 0.870884 1.31352 0
M  V30 1739 C 156.447 0.482987 1.96965 0
M  V30 1740 C 156.78 -0.962462 1.68672 0
M  V30 1741 O 156.055 -1.6779 0.98371 0
M  V30 1742 C 156.338 0.741752 3.52378 0
M  V30 1743 C 156.191 2.2368 3.9024 0
M  V30 1744 C 157.51 0.208838 4.39604 0
M  V30 1745 H 154.629 0.176955 0.715441 0
M  V30 1746 H 157.271 1.09229 1.55464 0
M  V30 1747 H 155.421 0.223149 3.87859 0
M  V30 1748 H 157.093 2.82273 3.64856 0
M  V30 1749 H 155.336 2.70901 3.38814 0
M  V30 1750 H 156.007 2.3685 4.98604 0
M  V30 1751 H 158.483 0.652529 4.10952 0
M  V30 1752 H 157.359 0.419336 5.47296 0
M  V30 1753 H 157.62 -0.889275 4.33064 0
M  V30 1754 N 156.679 -1.44442 0.630414 0
M  V30 1755 C 157.904 -2.06927 0.139944 0
M  V30 1756 C 158.329 -1.46795 -1.17613 0
M  V30 1757 O 157.687 -0.569144 -1.72135 0
M  V30 1758 C 157.735 -3.6058 0.0379581 0
M  V30 1759 O 156.839 -3.99937 -1.0062 0
M  V30 1760 H 156.18 -0.658608 0.0844483 0
M  V30 1761 H 158.71 -1.85327 0.866891 0
M  V30 1762 H 158.72 -4.07714 -0.152856 0
M  V30 1763 H 157.395 -4.03728 0.998809 0
M  V30 1764 H 155.972 -3.64436 -0.79001 0
M  V30 1765 N 158.157 -0.370918 -1.53173 0
M  V30 1766 C 159.104 0.473035 -2.259 0
M  V30 1767 C 160.074 1.07311 -1.26781 0
M  V30 1768 O 161.259 1.1046 -1.55574 0
M  V30 1769 C 158.399 1.60405 -3.05556 0
M  V30 1770 C 157.512 1.02863 -4.19575 0
M  V30 1771 C 156.647 2.12918 -4.86661 0
M  V30 1772 C 155.686 1.52869 -5.92704 0
M  V30 1773 N 154.823 2.56779 -6.53459 0
M  V30 1774 H 159.663 -0.153649 -2.97604 0
M  V30 1775 H 157.2 -0.0875946 -1.46839 0
M  V30 1776 H 159.158 2.27034 -3.50016 0
M  V30 1777 H 157.788 2.20131 -2.36097 0
M  V30 1778 H 156.84 0.252465 -3.79561 0
M  V30 1779 H 158.152 0.549642 -4.95762 0
M  V30 1780 H 157.306 2.87356 -5.34333 0
M  V30 1781 H 156.045 2.6417 -4.09958 0
M  V30 1782 H 155.05 0.769479 -5.44389 0
M  V30 1783 H 156.275 1.02435 -6.7133 0
M  V30 1784 H 154.221 3.07235 -5.79606 0
M  V30 1785 H 154.138 2.13583 -7.25202 0
M  V30 1786 H 155.406 3.30903 -7.05779 0
M  V30 1787 N 159.635 1.57281 -0.100228 0
M  V30 1788 C 160.863 1.98879 0.570509 0
M  V30 1789 C 161.278 0.979476 1.61405 0
M  V30 1790 O 160.635 -0.0302288 1.82475 0
M  V30 1791 C 160.686 3.4052 1.2136 0
M  V30 1792 O 160.407 4.37588 0.211786 0
M  V30 1793 C 161.908 3.97149 1.96945 0
M  V30 1794 H 159.128 0.653428 0.152555 0
M  V30 1795 H 161.672 2.03697 -0.18103 0
M  V30 1796 H 159.827 3.367 1.91603 0
M  V30 1797 H 160.241 5.20118 0.676607 0
M  V30 1798 H 161.715 4.98393 2.37294 0
M  V30 1799 H 162.192 3.3525 2.83733 0
M  V30 1800 H 162.798 4.04458 1.31506 0
M  V30 1801 N 161.113 -0.173488 1.56642 0
M  V30 1802 C 162.524 -0.736155 1.71574 0
M  V30 1803 C 162.875 -1.82888 0.710389 0
M  V30 1804 O 162 -2.16017 -0.1287 0
M  V30 1805 C 162.595 -1.34211 3.11083 0
M  V30 1806 C 161.154 -1.85162 3.27707 0
M  V30 1807 C 160.301 -0.729765 2.67525 0
M  V30 1808 H 163.252 0.0518786 1.58615 0
M  V30 1809 H 163.273 -2.21178 3.09613 0
M  V30 1810 H 162.785 -0.546579 3.84232 0
M  V30 1811 H 160.886 -2.67366 2.59512 0
M  V30 1812 H 160.999 -1.99855 4.35425 0
M  V30 1813 H 159.363 -1.14965 2.27278 0
M  V30 1814 H 160.146 0.0538806 3.43258 0
M  V30 1815 N 162.591 -1.51276 -0.441967 0
M  V30 1816 C 163.554 -1.7167 -1.51862 0
M  V30 1817 C 164.554 -0.586793 -1.49711 0
M  V30 1818 O 165.744 -0.854276 -1.51815 0
M  V30 1819 C 162.876 -1.76889 -2.91416 0
M  V30 1820 H 164.069 -2.67754 -1.35084 0
M  V30 1821 H 161.622 -1.41196 -0.670333 0
M  V30 1822 H 162.357 -0.826026 -3.13604 0
M  V30 1823 H 162.142 -2.59001 -2.94382 0
M  V30 1824 H 163.632 -1.94522 -3.69528 0
M  V30 1825 N 164.069 0.697108 -1.41344 0
M  V30 1826 C 164.999 1.82353 -1.45841 0
M  V30 1827 C 165.98 1.67115 -0.317247 0
M  V30 1828 O 167.165 1.86871 -0.528474 0
M  V30 1829 C 164.295 3.20476 -1.33838 0
M  V30 1830 C 163.249 3.50415 -2.4575 0
M  V30 1831 C 162.575 4.87878 -2.18813 0
M  V30 1832 C 163.875 3.49546 -3.88091 0
M  V30 1833 H 165.569 1.78846 -2.40113 0
M  V30 1834 H 163.115 0.859028 -1.15571 0
M  V30 1835 H 165.068 3.98988 -1.35596 0
M  V30 1836 H 163.792 3.24604 -0.360498 0
M  V30 1837 H 162.451 2.74253 -2.43271 0
M  V30 1838 H 162.099 4.8863 -1.19371 0
M  V30 1839 H 161.799 5.08875 -2.93803 0
M  V30 1840 H 163.323 5.68702 -2.22284 0
M  V30 1841 H 164.737 4.18066 -3.92293 0
M  V30 1842 H 163.134 3.82075 -4.62751 0
M  V30 1843 H 164.204 2.48552 -4.16353 0
M  V30 1844 N 165.547 1.27147 0.931209 0
M  V30 1845 C 166.793 1.13446 1.68101 0
M  V30 1846 C 167.126 -0.319628 1.91552 0
M  V30 1847 O 166.401 -1.23407 1.50336 0
M  V30 1848 C 166.684 1.91482 3.0497 0
M  V30 1849 C 166.537 3.44855 2.88782 0
M  V30 1850 C 167.856 1.71651 4.05246 0
M  V30 1851 H 164.975 0.413498 0.610072 0
M  V30 1852 H 167.617 1.56261 1.08086 0
M  V30 1853 H 165.767 1.55095 3.56199 0
M  V30 1854 H 167.439 3.9105 2.44698 0
M  V30 1855 H 165.682 3.71373 2.24198 0
M  V30 1856 H 166.353 3.94694 3.85902 0
M  V30 1857 H 168.829 2.0337 3.63015 0
M  V30 1858 H 167.705 2.28651 4.99009 0
M  V30 1859 H 167.966 0.663555 4.37092 0
M  V30 1860 N 167.025 -1.13721 1.09112 0
M  V30 1861 C 168.272 -1.84924 0.825192 0
M  V30 1862 C 168.6 -1.83347 -0.649151 0
M  V30 1863 O 167.855 -1.26449 -1.49362 0
M  V30 1864 C 168.154 -3.32861 1.30146 0
M  V30 1865 C 167.82 -3.54621 2.78486 0
M  V30 1866 C 166.482 -3.60268 3.18999 0
M  V30 1867 C 168.834 -3.62855 3.74146 0
M  V30 1868 C 166.162 -3.71679 4.53951 0
M  V30 1869 C 168.514 -3.75793 5.08883 0
M  V30 1870 C 167.178 -3.79692 5.4899 0
M  V30 1871 H 166.448 -0.676684 0.301959 0
M  V30 1872 H 169.095 -1.3428 1.36533 0
M  V30 1873 H 167.4 -3.85835 0.681064 0
M  V30 1874 H 169.097 -3.86395 1.07236 0
M  V30 1875 H 165.687 -3.50879 2.46134 0
M  V30 1876 H 169.871 -3.57775 3.43963 0
M  V30 1877 H 165.127 -3.72963 4.84467 0
M  V30 1878 H 169.301 -3.81107 5.82864 0
M  V30 1879 H 166.928 -3.88287 6.53558 0
M  V30 1880 N 168.503 -0.877838 -1.30888 0
M  V30 1881 C 169.413 -0.343096 -2.32078 0
M  V30 1882 C 170.429 0.551022 -1.65045 0
M  V30 1883 O 171.605 0.445854 -1.96403 0
M  V30 1884 C 168.67 0.439905 -3.43898 0
M  V30 1885 C 167.731 -0.483111 -4.26573 0
M  V30 1886 C 166.964 0.262616 -5.33053 0
M  V30 1887 O 167.187 1.48967 -5.50604 0
M  V30 1888 O 166.121 -0.383593 -6.00676 0
M  V30 1889 H 169.947 -1.18203 -2.79753 0
M  V30 1890 H 167.532 -0.64145 -1.34929 0
M  V30 1891 H 169.414 0.883504 -4.12034 0
M  V30 1892 H 168.089 1.25526 -2.98371 0
M  V30 1893 H 166.996 -0.975374 -3.61161 0
M  V30 1894 H 168.329 -1.26427 -4.75686 0
M  V30 1895 N 169.982 1.44106 -0.638065 0
M  V30 1896 C 171.212 2.06037 -0.152394 0
M  V30 1897 C 171.62 1.47808 1.18108 0
M  V30 1898 O 170.963 0.598092 1.73691 0
M  V30 1899 C 171.025 3.59488 0.0293714 0
M  V30 1900 C 170.689 4.4022 -1.22702 0
M  V30 1901 C 171.686 4.73256 -2.15232 0
M  V30 1902 C 169.371 4.8048 -1.46437 0
M  V30 1903 C 171.365 5.45444 -3.29802 0
M  V30 1904 C 169.052 5.52417 -2.61303 0
M  V30 1905 C 170.05 5.84819 -3.52811 0
M  V30 1906 O 169.738 6.55289 -4.65673 0
M  V30 1907 H 169.47 0.671233 -0.0801401 0
M  V30 1908 H 172.024 1.85851 -0.874563 0
M  V30 1909 H 170.254 3.78191 0.806758 0
M  V30 1910 H 171.943 4.03164 0.470475 0
M  V30 1911 H 172.709 4.42684 -1.98131 0
M  V30 1912 H 168.588 4.54676 -0.760977 0
M  V30 1913 H 172.132 5.70653 -4.01249 0
M  V30 1914 H 168.029 5.82404 -2.78344 0
M  V30 1915 H 168.797 6.73762 -4.64744 0
M  V30 1916 N 171.46 0.379036 1.52974 0
M  V30 1917 C 172.709 -0.207612 2.00629 0
M  V30 1918 C 173.022 -1.48758 1.27006 0
M  V30 1919 O 174.228 -2.15365 1.65318 0
M  V30 1920 C 172.684 -0.42053 3.57435 0
M  V30 1921 C 172.292 0.845587 4.39948 0
M  V30 1922 C 174.036 -0.964102 4.13407 0
M  V30 1923 C 171.943 0.601513 5.88333 0
M  V30 1924 H 170.873 -0.0813591 0.749598 0
M  V30 1925 H 173.524 0.499853 1.76561 0
M  V30 1926 H 171.906 -1.18959 3.7771 0
M  V30 1927 H 173.08 1.61848 4.31442 0
M  V30 1928 H 171.395 1.31336 3.95145 0
M  V30 1929 H 173.992 -1.16225 5.21916 0
M  V30 1930 H 174.335 -1.93019 3.68849 0
M  V30 1931 H 174.868 -0.25487 3.96983 0
M  V30 1932 H 171.607 1.53831 6.37194 0
M  V30 1933 H 171.127 -0.132628 5.99653 0
M  V30 1934 H 172.806 0.232134 6.46583 0
M  V30 1935 N 172.938 -1.57226 0.108567 0
M  V30 1936 C 173.886 -2.16002 -0.862885 0
M  V30 1937 C 174.88 -1.10644 -1.28274 0
M  V30 1938 O 176.086 -1.28966 -1.2557 0
M  V30 1939 H 172.461 -0.691148 -0.296342 0
M  V30 1940 H 174.432 -2.96427 -0.342575 0
M  V30 1941 C 173.181 -2.76576 -2.10716 0
M  V30 1942 H 172.504 -3.5734 -1.793 0
M  V30 1943 H 173.944 -3.21253 -2.76717 0
M  V30 1944 C 172.403 -1.73137 -2.89007 0
M  V30 1945 O 172.933 -1.17842 -3.84026 0
M  V30 1946 N 171.139 -1.43317 -2.52801 0
M  V30 1947 H 170.686 -1.88473 -1.75601 0
M  V30 1948 H 170.644 -0.743485 -3.05483 0
M  V30 1949 N 174.416 0.165178 -1.56732 0
M  V30 1950 C 175.364 1.22369 -1.97809 0
M  V30 1951 C 176.358 1.45488 -0.867741 0
M  V30 1952 O 177.564 1.45995 -1.05288 0
M  V30 1953 H 173.939 0.411486 -0.629431 0
M  V30 1954 H 175.91 0.850425 -2.86025 0
M  V30 1955 C 174.659 2.55403 -2.35934 0
M  V30 1956 H 173.982 2.38438 -3.20916 0
M  V30 1957 H 175.422 3.2814 -2.68514 0
M  V30 1958 C 173.881 3.14611 -1.20506 0
M  V30 1959 O 174.411 3.98626 -0.496016 0
M  V30 1960 N 172.617 2.7379 -0.97403 0
M  V30 1961 H 172.164 2.0557 -1.55238 0
M  V30 1962 H 172.122 3.1374 -0.203573 0
M  V30 1963 N 175.894 1.51508 0.433938 0
M  V30 1964 C 177.122 1.68157 1.20543 0
M  V30 1965 C 177.537 0.380362 1.84929 0
M  V30 1966 O 176.894 -0.641446 1.70856 0
M  V30 1967 C 176.945 2.79965 2.28696 0
M  V30 1968 O 176.666 4.05045 1.66943 0
M  V30 1969 C 178.167 3.07912 3.18912 0
M  V30 1970 H 175.387 0.56421 0.363191 0
M  V30 1971 H 177.931 1.97941 0.513754 0
M  V30 1972 H 176.086 2.5277 2.93574 0
M  V30 1973 H 176.5 4.67165 2.38448 0
M  V30 1974 H 177.974 3.89719 3.90926 0
M  V30 1975 H 178.451 2.20456 3.79863 0
M  V30 1976 H 179.057 3.36779 2.59731 0
M  V30 1977 N 177.372 -0.689602 1.41712 0
M  V30 1978 C 178.649 -1.44457 1.31877 0
M  V30 1979 C 179.029 -2.11039 -0.0508537 0
M  V30 1980 O 178.377 -2.02138 -1.06547 0
M  V30 1981 C 178.587 -2.45913 2.47645 0
M  V30 1982 C 179.935 -3.10991 2.89084 0
M  V30 1983 O 180.959 -2.56238 2.47428 0
M  V30 1984 O 179.818 -4.10174 3.61137 0
M  V30 1985 H 176.912 -0.64362 0.519309 0
M  V30 1986 H 179.458 -0.719576 1.53689 0
M  V30 1987 H 178.23 -1.95409 3.39015 0
M  V30 1988 H 177.853 -3.25913 2.27742 0
M  V30 1989 N 178.85 -1.27639 -0.924453 0
M  V30 1990 C 180.097 -1.14167 -1.67249 0
M  V30 1991 C 180.425 0.311863 -1.91984 0
M  V30 1992 O 179.68 1.24425 -1.51053 0
M  V30 1993 C 179.979 -1.87407 -3.04325 0
M  V30 1994 C 179.645 -3.37249 -2.99289 0
M  V30 1995 C 178.307 -3.7812 -2.97622 0
M  V30 1996 C 180.659 -4.32845 -2.90336 0
M  V30 1997 C 177.987 -5.12944 -2.8479 0
M  V30 1998 C 180.339 -5.6773 -2.79045 0
M  V30 1999 C 179.003 -6.07889 -2.7573 0
M  V30 2000 H 178.273 -0.417766 -0.612007 0
M  V30 2001 H 180.92 -1.58286 -1.07786 0
M  V30 2002 H 179.225 -1.35805 -3.67511 0
M  V30 2003 H 180.922 -1.74408 -3.61086 0
M  V30 2004 H 177.512 -3.04748 -3.01374 0
M  V30 2005 H 181.696 -4.02239 -2.90719 0
M  V30 2006 H 176.952 -5.432 -2.80612 0
M  V30 2007 H 181.126 -6.41472 -2.71083 0
M  V30 2008 H 178.753 -7.12314 -2.65544 0
M  V30 2009 N 180.328 1.1314 -1.09713 0
M  V30 2010 C 181.275 2.18642 -0.739196 0
M  V30 2011 C 182.245 1.63706 0.280978 0
M  V30 2012 O 183.43 1.90111 0.161946 0
M  V30 2013 C 180.57 3.44685 -0.169102 0
M  V30 2014 C 179.683 4.13711 -1.24367 0
M  V30 2015 C 178.818 5.27379 -0.636019 0
M  V30 2016 C 177.857 5.88259 -1.69169 0
M  V30 2017 N 176.994 6.93352 -1.10485 0
M  V30 2018 H 181.834 2.48607 -1.64312 0
M  V30 2019 H 179.371 1.22066 -0.820875 0
M  V30 2020 H 181.329 4.16815 0.179256 0
M  V30 2021 H 179.959 3.15161 0.698079 0
M  V30 2022 H 179.011 3.39835 -1.70927 0
M  V30 2023 H 180.323 4.55037 -2.04311 0
M  V30 2024 H 179.477 6.06238 -0.236677 0
M  V30 2025 H 178.216 4.8731 0.194928 0
M  V30 2026 H 177.221 5.08092 -2.10055 0
M  V30 2027 H 178.446 6.30399 -2.52536 0
M  V30 2028 H 176.392 6.55335 -0.295234 0
M  V30 2029 H 176.309 7.33236 -1.84121 0
M  V30 2030 H 177.577 7.76057 -0.73181 0
M  V30 2031 N 181.806 0.884767 1.30421 0
M  V30 2032 C 182.738 0.308655 2.27112 0
M  V30 2033 C 183.751 -0.536655 1.53701 0
M  V30 2034 O 184.94 -0.35624 1.74909 0
M  V30 2035 C 182.04 -0.579782 3.33904 0
M  V30 2036 C 181.213 0.236417 4.36761 0
M  V30 2037 C 180.272 -0.582482 5.22966 0
M  V30 2038 O 179.298 -0.00525502 5.692 0
M  V30 2039 N 180.5 -1.89163 5.48815 0
M  V30 2040 H 183.265 1.13964 2.77186 0
M  V30 2041 H 180.826 0.747731 1.43599 0
M  V30 2042 H 182.818 -1.13366 3.88497 0
M  V30 2043 H 181.388 -1.31144 2.83761 0
M  V30 2044 H 180.608 0.97174 3.82035 0
M  V30 2045 H 181.896 0.795924 5.02536 0
M  V30 2046 H 181.294 -2.38352 5.13035 0
M  V30 2047 H 179.851 -2.39296 6.06284 0
M  V30 2048 N 183.284 -1.43765 0.645699 0
M  V30 2049 C 184.214 -2.33471 -0.0370477 0
M  V30 2050 C 185.195 -1.49042 -0.819779 0
M  V30 2051 O 186.38 -1.77726 -0.782758 0
M  V30 2052 C 183.51 -3.32311 -1.0093 0
M  V30 2053 C 182.464 -4.2667 -0.337201 0
M  V30 2054 C 181.79 -5.1549 -1.42037 0
M  V30 2055 C 183.09 -5.16657 0.765706 0
M  V30 2056 H 184.784 -2.90809 0.712069 0
M  V30 2057 H 182.33 -1.39834 0.343876 0
M  V30 2058 H 184.283 -3.9396 -1.49578 0
M  V30 2059 H 183.007 -2.73213 -1.78948 0
M  V30 2060 H 181.666 -3.66374 0.128771 0
M  V30 2061 H 181.314 -4.52735 -2.1918 0
M  V30 2062 H 181.014 -5.79438 -0.975966 0
M  V30 2063 H 182.538 -5.80012 -1.90838 0
M  V30 2064 H 183.952 -5.72158 0.361702 0
M  V30 2065 H 182.349 -5.89286 1.13413 0
M  V30 2066 H 183.419 -4.56796 1.62683 0
M  V30 2067 N 184.763 -0.387143 -1.52771 0
M  V30 2068 C 185.993 0.195585 -2.05672 0
M  V30 2069 C 186.401 1.41241 -1.25887 0
M  V30 2070 O 185.744 1.81265 -0.298081 0
M  V30 2071 C 185.806 0.632327 -3.53895 0
M  V30 2072 C 185.47 -0.470739 -4.54569 0
M  V30 2073 C 186.467 -1.32746 -5.02667 0
M  V30 2074 C 184.152 -0.637151 -4.98243 0
M  V30 2075 C 186.146 -2.33574 -5.93061 0
M  V30 2076 C 183.833 -1.64877 -5.88438 0
M  V30 2077 C 184.831 -2.49649 -6.35739 0
M  V30 2078 O 184.519 -3.49082 -7.24153 0
M  V30 2079 H 184.251 0.033658 -0.675162 0
M  V30 2080 H 186.805 -0.550221 -1.97893 0
M  V30 2081 H 185.035 1.43008 -3.59285 0
M  V30 2082 H 186.724 1.14048 -3.89548 0
M  V30 2083 H 187.49 -1.21019 -4.69659 0
M  V30 2084 H 183.369 0.0129567 -4.60998 0
M  V30 2085 H 186.913 -2.99777 -6.29904 0
M  V30 2086 H 182.81 -1.76643 -6.2086 0
M  V30 2087 H 183.578 -3.45065 -7.42208 0
M  V30 2088 N 186.241 1.57166 -0.116904 0
M  V30 2089 C 187.173 2.12271 0.864507 0
M  V30 2090 C 188.186 1.06494 1.23138 0
M  V30 2091 O 189.375 1.33873 1.18069 0
M  V30 2092 C 186.475 2.60564 2.16702 0
M  V30 2093 C 185.648 3.90416 1.97216 0
M  V30 2094 C 184.707 4.24329 3.11178 0
M  V30 2095 O 183.733 4.93182 2.84184 0
M  V30 2096 N 184.935 3.8148 4.37554 0
M  V30 2097 H 187.7 2.97102 0.393726 0
M  V30 2098 H 185.261 1.61759 0.0675805 0
M  V30 2099 H 187.253 2.80282 2.91932 0
M  V30 2100 H 185.823 1.80623 2.55135 0
M  V30 2101 H 185.043 3.79627 1.06192 0
M  V30 2102 H 186.331 4.75327 1.81499 0
M  V30 2103 H 185.729 3.25943 4.62361 0
M  V30 2104 H 184.286 4.06311 5.09661 0
M  V30 2105 N 187.719 -0.156864 1.56817 0
M  V30 2106 C 188.968 -0.869504 1.81996 0
M  V30 2107 C 189.281 -1.82777 0.696545 0
M  V30 2108 O 190.487 -2.58384 0.833658 0
M  V30 2109 C 188.943 -1.59679 3.22538 0
M  V30 2110 C 188.551 -0.681431 4.42787 0
M  V30 2111 C 190.295 -2.2968 3.56997 0
M  V30 2112 C 188.202 -1.40978 5.74351 0
M  V30 2113 H 187.132 -0.328438 0.678708 0
M  V30 2114 H 189.783 -0.1223 1.83092 0
M  V30 2115 H 188.165 -2.38927 3.158 0
M  V30 2116 H 189.339 0.0751166 4.60739 0
M  V30 2117 H 187.654 -0.0903431 4.16302 0
M  V30 2118 H 190.251 -2.84794 4.52544 0
M  V30 2119 H 190.594 -3.05707 2.82576 0
M  V30 2120 H 191.127 -1.57361 3.65352 0
M  V30 2121 H 187.866 -0.691561 6.51842 0
M  V30 2122 H 187.386 -2.13929 5.60352 0
M  V30 2123 H 189.065 -1.95337 6.16808 0
M  V30 2124 N 189.197 -1.51736 -0.425897 0
M  V30 2125 C 190.127 -1.76827 -1.52494 0
M  V30 2126 C 191.108 -0.618524 -1.58456 0
M  V30 2127 O 192.293 -0.862416 -1.74 0
M  V30 2128 C 189.423 -1.90374 -2.90474 0
M  V30 2129 C 188.377 -3.0588 -2.99369 0
M  V30 2130 C 187.703 -3.04625 -4.3944 0
M  V30 2131 C 189.003 -4.45644 -2.72394 0
M  V30 2132 H 190.697 -2.68855 -1.31748 0
M  V30 2133 H 188.243 -1.29372 -0.632362 0
M  V30 2134 H 190.196 -2.0651 -3.6733 0
M  V30 2135 H 188.92 -0.95004 -3.12477 0
M  V30 2136 H 187.579 -2.89467 -2.24954 0
M  V30 2137 H 187.227 -2.0701 -4.58428 0
M  V30 2138 H 186.927 -3.82195 -4.46319 0
M  V30 2139 H 188.451 -3.22869 -5.18255 0
M  V30 2140 H 189.865 -4.62348 -3.38979 0
M  V30 2141 H 188.262 -5.25006 -2.9067 0
M  V30 2142 H 189.332 -4.54893 -1.67929 0
M  V30 2143 N 190.675 0.682077 -1.42076 0
M  V30 2144 C 191.903 1.47057 -1.4554 0
M  V30 2145 C 192.318 1.8869 -0.0645779 0
M  V30 2146 O 191.675 1.57666 0.919115 0
M  V30 2147 C 191.726 2.72442 -2.37609 0
M  V30 2148 O 191.447 2.32559 -3.71279 0
M  V30 2149 C 192.948 3.66069 -2.50017 0
M  V30 2150 H 190.168 0.452737 -0.495248 0
M  V30 2151 H 192.712 0.838695 -1.8651 0
M  V30 2152 H 190.867 3.31835 -1.9991 0
M  V30 2153 H 191.281 3.13475 -4.20516 0
M  V30 2154 H 192.755 4.50792 -3.18576 0
M  V30 2155 H 193.232 4.11476 -1.53572 0
M  V30 2156 H 193.838 3.12572 -2.88407 0
M  V30 2157 N 192.153 1.28127 0.917671 0
M  V30 2158 C 193.43 1.05761 1.64542 0
M  V30 2159 C 193.81 -0.404344 2.07191 0
M  V30 2160 O 193.158 -1.38963 1.81388 0
M  V30 2161 C 193.368 2.02857 2.83989 0
M  V30 2162 C 194.716 2.32786 3.551 0
M  V30 2163 O 195.74 2.0091 2.94132 0
M  V30 2164 O 194.599 2.87169 4.64969 0
M  V30 2165 H 191.693 0.403916 0.721652 0
M  V30 2166 H 194.239 1.39431 0.967322 0
M  V30 2167 H 193.011 3.01407 2.49538 0
M  V30 2168 H 192.634 1.69809 3.59514 0
M  V30 2169 N 193.631 -1.12557 1.10312 0
M  V30 2170 C 194.878 -1.84038 0.844759 0
M  V30 2171 C 195.206 -1.84026 -0.629668 0
M  V30 2172 O 194.461 -1.28026 -1.48013 0
M  V30 2173 C 194.76 -3.31462 1.33669 0
M  V30 2174 C 194.426 -3.51647 2.82232 0
M  V30 2175 C 193.088 -3.56864 3.22802 0
M  V30 2176 C 195.44 -3.58867 3.77974 0
M  V30 2177 C 192.768 -3.66844 4.57867 0
M  V30 2178 C 195.12 -3.70375 5.1284 0
M  V30 2179 C 193.784 -3.73848 5.52986 0
M  V30 2180 H 193.054 -0.673444 0.309119 0
M  V30 2181 H 195.701 -1.32824 1.37949 0
M  V30 2182 H 194.006 -3.85091 0.721949 0
M  V30 2183 H 195.703 -3.85236 1.11329 0
M  V30 2184 H 192.293 -3.48249 2.49842 0
M  V30 2185 H 196.477 -3.54107 3.47738 0
M  V30 2186 H 191.733 -3.67804 4.88396 0
M  V30 2187 H 195.907 -3.74904 5.86873 0
M  V30 2188 H 193.534 -3.81333 6.57639 0
M  V30 2189 N 195.109 -0.891671 -1.2995 0
M  V30 2190 C 196.386 -0.433307 -1.9074 0
M  V30 2191 C 196.766 1.08646 -1.80995 0
M  V30 2192 O 196.114 1.92476 -1.23147 0
M  V30 2193 C 196.324 -0.938895 -3.36134 0
M  V30 2194 C 197.672 -0.977829 -4.13187 0
M  V30 2195 O 198.696 -0.886015 -3.45005 0
M  V30 2196 O 197.555 -1.11453 -5.35015 0
M  V30 2197 H 194.649 -0.133699 -0.816121 0
M  V30 2198 H 197.195 -0.981011 -1.38471 0
M  V30 2199 H 195.967 -1.98281 -3.37343 0
M  V30 2200 H 195.59 -0.37074 -3.95868 0
M  V30 2201 N 196.587 1.43421 -0.653314 0
M  V30 2202 C 197.836 2.01032 -0.164076 0
M  V30 2203 C 198.149 1.52147 1.22926 0
M  V30 2204 O 199.355 2.02031 1.81371 0
M  V30 2205 C 197.811 3.59082 -0.24252 0
M  V30 2206 C 197.419 4.1696 -1.63855 0
M  V30 2207 C 199.163 4.24079 0.18911 0
M  V30 2208 C 197.07 5.67304 -1.67092 0
M  V30 2209 H 196 0.751798 -0.0575769 0
M  V30 2210 H 198.651 1.6439 -0.815362 0
M  V30 2211 H 197.033 3.93125 0.476276 0
M  V30 2212 H 198.207 3.94416 -2.38271 0
M  V30 2213 H 196.522 3.64335 -2.01616 0
M  V30 2214 H 199.119 5.34381 0.184775 0
M  V30 2215 H 199.462 3.98005 1.22056 0
M  V30 2216 H 199.995 3.94918 -0.477938 0
M  V30 2217 H 196.734 5.98145 -2.68146 0
M  V30 2218 H 196.254 5.91904 -0.970014 0
M  V30 2219 H 197.933 6.31344 -1.4147 0
M  V30 2220 N 198.065 0.39524 1.52563 0
M  V30 2221 C 199.481 0.0454682 1.59535 0
M  V30 2222 C 199.681 -1.44056 1.4089 0
M  V30 2223 O 198.737 -2.20579 1.22888 0
M  V30 2224 C 200.05 0.527963 2.96029 0
M  V30 2225 C 201.598 0.484733 3.09224 0
M  V30 2226 C 202.073 0.943512 4.48176 0
M  V30 2227 N 203.564 0.899765 4.54377 0
M  V30 2228 C 204.299 1.22609 5.60138 0
M  V30 2229 N 203.795 1.62319 6.73516 0
M  V30 2230 N 205.588 1.14696 5.50274 0
M  V30 2231 H 197.739 1.36261 1.62931 0
M  V30 2232 H 200.002 0.558887 0.765735 0
M  V30 2233 H 199.708 1.56607 3.14908 0
M  V30 2234 H 199.582 -0.0698056 3.77135 0
M  V30 2235 H 201.969 -0.544298 2.90037 0
M  V30 2236 H 202.05 1.11838 2.30056 0
M  V30 2237 H 201.694 1.9708 4.68104 0
M  V30 2238 H 201.624 0.286817 5.25818 0
M  V30 2239 H 204.115 0.607632 3.72983 0
M  V30 2240 H 204.428 1.85567 7.5019 0
M  V30 2241 H 202.773 1.66211 6.74833 0
M  V30 2242 H 205.964 0.835701 4.6058 0
M  V30 2243 H 206.137 1.40459 6.32594 0
M  V30 2244 N 199.544 -1.57102 0.125237 0
M  V30 2245 C 200.791 -1.95407 -0.531248 0
M  V30 2246 C 201.119 -1.0089 -1.66287 0
M  V30 2247 O 200.374 -0.0339431 -1.95671 0
M  V30 2248 C 200.673 -3.40096 -1.09862 0
M  V30 2249 C 200.339 -4.50815 -0.0876989 0
M  V30 2250 C 199.001 -4.80824 0.19026 0
M  V30 2251 C 201.353 -5.17724 0.600902 0
M  V30 2252 C 198.681 -5.75058 1.163 0
M  V30 2253 C 201.033 -6.13005 1.56231 0
M  V30 2254 C 199.697 -6.41403 1.8482 0
M  V30 2255 H 198.967 -0.715046 -0.194397 0
M  V30 2256 H 201.614 -1.90373 0.207463 0
M  V30 2257 H 199.919 -3.41855 -1.91422 0
M  V30 2258 H 201.616 -3.6705 -1.61478 0
M  V30 2259 H 198.206 -4.27444 -0.314528 0
M  V30 2260 H 202.39 -4.94691 0.399333 0
M  V30 2261 H 197.646 -5.95362 1.39117 0
M  V30 2262 H 201.82 -6.63934 2.10153 0
M  V30 2263 H 199.447 -7.14229 2.60349 0
M  V30 2264 N 201.022 0.148545 -1.56898 0
M  V30 2265 C 202.252 0.875118 -1.8715 0
M  V30 2266 C 202.66 1.75322 -0.711262 0
M  V30 2267 O 202.003 1.80745 0.328151 0
M  V30 2268 C 202.065 1.7844 -3.12089 0
M  V30 2269 C 201.729 1.08361 -4.43967 0
M  V30 2270 C 202.726 0.438247 -5.1805 0
M  V30 2271 C 200.411 1.07358 -4.90693 0
M  V30 2272 C 202.405 -0.20779 -6.37061 0
M  V30 2273 C 200.092 0.42373 -6.09629 0
M  V30 2274 C 201.09 -0.215829 -6.82659 0
M  V30 2275 O 200.778 -0.855378 -7.99336 0
M  V30 2276 H 200.51 0.258504 -0.624621 0
M  V30 2277 H 203.064 0.14652 -2.04877 0
M  V30 2278 H 201.294 2.55389 -2.90367 0
M  V30 2279 H 202.983 2.38279 -3.286 0
M  V30 2280 H 203.749 0.437817 -4.8302 0
M  V30 2281 H 199.628 1.5608 -4.33774 0
M  V30 2282 H 203.172 -0.70758 -6.94002 0
M  V30 2283 H 199.069 0.421822 -6.4412 0
M  V30 2284 H 199.837 -0.756892 -8.14993 0
M  V30 2285 N 202.5 1.5196 0.417844 0
M  V30 2286 C 203.433 1.69387 1.52916 0
M  V30 2287 C 204.411 0.541419 1.53321 0
M  V30 2288 O 205.595 0.767695 1.72159 0
M  V30 2289 C 202.722 1.72525 2.91467 0
M  V30 2290 C 201.768 2.93967 3.09008 0
M  V30 2291 S 202.601 4.54461 2.83242 0
M  V30 2292 C 203.757 4.60372 4.24038 0
M  V30 2293 H 203.99 2.63382 1.37903 0
M  V30 2294 H 201.523 1.41889 0.608845 0
M  V30 2295 H 203.481 1.75018 3.7132 0
M  V30 2296 H 202.142 0.796733 3.03827 0
M  V30 2297 H 201.335 2.92619 4.10353 0
M  V30 2298 H 200.937 2.89316 2.37007 0
M  V30 2299 H 203.229 4.37213 5.17544 0
M  V30 2300 H 204.172 5.62273 4.30412 0
M  V30 2301 H 204.58 3.89492 4.08602 0
M  V30 2302 N 203.978 -0.674533 1.42435 0
M  V30 2303 C 205.208 -1.46071 1.46105 0
M  V30 2304 C 205.616 -1.89067 0.0709605 0
M  V30 2305 O 204.959 -1.58731 -0.924677 0
M  V30 2306 C 205.021 -2.74145 2.32561 0
M  V30 2307 C 204.685 -2.53224 3.8043 0
M  V30 2308 C 205.682 -2.17809 4.72075 0
M  V30 2309 C 203.367 -2.6821 4.24698 0
M  V30 2310 C 205.361 -1.97648 6.05982 0
M  V30 2311 C 203.048 -2.47665 5.58664 0
M  V30 2312 C 204.046 -2.12437 6.49122 0
M  V30 2313 O 203.734 -1.9209 7.80613 0
M  V30 2314 H 203.466 -0.455959 0.499076 0
M  V30 2315 H 206.02 -0.836193 1.87609 0
M  V30 2316 H 204.25 -3.3908 1.85908 0
M  V30 2317 H 205.939 -3.36028 2.27683 0
M  V30 2318 H 206.705 -2.05826 4.39159 0
M  V30 2319 H 202.584 -2.94609 3.54579 0
M  V30 2320 H 206.128 -1.70075 6.7655 0
M  V30 2321 H 202.025 -2.59244 5.91154 0
M  V30 2322 H 202.793 -2.06686 7.91974 0
M  V30 2323 N 205.456 -1.28612 -0.910864 0
M  V30 2324 C 206.366 -1.14643 -2.0468 0
M  V30 2325 C 207.382 -0.0723121 -1.7385 0
M  V30 2326 O 208.558 -0.282178 -1.99413 0
M  V30 2327 C 205.623 -0.812561 -3.37044 0
M  V30 2328 C 204.684 -1.96935 -3.81465 0
M  V30 2329 C 203.917 -1.65131 -5.07511 0
M  V30 2330 O 204.14 -0.567013 -5.67575 0
M  V30 2331 O 203.074 -2.49585 -5.47714 0
M  V30 2332 H 206.9 -2.1001 -2.19384 0
M  V30 2333 H 204.485 -1.07958 -1.03274 0
M  V30 2334 H 206.367 -0.640441 -4.16505 0
M  V30 2335 H 205.042 0.111426 -3.23508 0
M  V30 2336 H 203.949 -2.19664 -3.02818 0
M  V30 2337 H 205.282 -2.87414 -3.99567 0
M  V30 2338 N 206.934 1.1197 -1.10907 0
M  V30 2339 C 207.864 2.19928 -0.784473 0
M  V30 2340 C 208.845 1.6833 0.244726 0
M  V30 2341 O 210.03 1.93892 0.109418 0
M  V30 2342 C 207.16 3.46597 -0.220827 0
M  V30 2343 C 206.114 4.11376 -1.18127 0
M  V30 2344 C 205.44 5.32554 -0.478594 0
M  V30 2345 C 206.74 4.56945 -2.52979 0
M  V30 2346 H 208.434 2.47337 -1.68715 0
M  V30 2347 H 205.98 1.18879 -0.812642 0
M  V30 2348 H 207.933 4.21396 0.0184278 0
M  V30 2349 H 206.657 3.1863 0.717113 0
M  V30 2350 H 205.316 3.38564 -1.40606 0
M  V30 2351 H 204.964 5.00856 0.463976 0
M  V30 2352 H 204.664 5.76844 -1.11912 0
M  V30 2353 H 206.188 6.10096 -0.248 0
M  V30 2354 H 207.602 5.23093 -2.3462 0
M  V30 2355 H 205.999 5.1203 -3.12962 0
M  V30 2356 H 207.069 3.70676 -3.12614 0
M  V30 2357 N 208.412 0.89855 1.29475 0
M  V30 2358 C 209.342 0.39201 2.30186 0
M  V30 2359 C 210.323 -0.532359 1.61555 0
M  V30 2360 O 211.508 -0.443331 1.89072 0
M  V30 2361 C 208.638 -0.382353 3.45189 0
M  V30 2362 C 207.592 0.451483 4.25612 0
M  V30 2363 C 206.918 -0.450307 5.328 0
M  V30 2364 C 208.218 1.70079 4.93832 0
M  V30 2365 H 209.912 1.23362 2.72804 0
M  V30 2366 H 207.458 0.594638 1.31149 0
M  V30 2367 H 209.411 -0.747451 4.14718 0
M  V30 2368 H 208.135 -1.25774 3.01411 0
M  V30 2369 H 206.794 0.798897 3.57789 0
M  V30 2370 H 206.442 -1.32379 4.85268 0
M  V30 2371 H 206.142 0.103902 5.87508 0
M  V30 2372 H 207.666 -0.811623 6.05182 0
M  V30 2373 H 209.08 1.40549 5.55805 0
M  V30 2374 H 207.477 2.19623 5.58467 0
M  V30 2375 H 208.547 2.43744 4.19186 0
M  V30 2376 N 209.89 -1.43072 0.660911 0
M  V30 2377 C 210.837 -2.30785 -0.0259884 0
M  V30 2378 C 211.807 -1.45184 -0.806888 0
M  V30 2379 O 212.992 -1.74041 -0.781943 0
M  V30 2380 C 210.132 -3.30861 -0.981067 0
M  V30 2381 C 209.245 -4.31558 -0.195458 0
M  V30 2382 C 208.38 -5.18712 -1.14503 0
M  V30 2383 C 207.419 -6.11097 -0.350299 0
M  V30 2384 N 206.556 -6.90849 -1.25186 0
M  V30 2385 H 211.396 -2.88975 0.727846 0
M  V30 2386 H 208.933 -1.42353 0.370682 0
M  V30 2387 H 210.891 -3.87399 -1.54849 0
M  V30 2388 H 209.521 -2.74304 -1.70169 0
M  V30 2389 H 208.573 -3.77252 0.488374 0
M  V30 2390 H 209.885 -4.9701 0.422176 0
M  V30 2391 H 209.039 -5.79914 -1.78284 0
M  V30 2392 H 207.778 -4.53404 -1.79656 0
M  V30 2393 H 206.783 -5.48976 0.300808 0
M  V30 2394 H 208.008 -6.7845 0.296941 0
M  V30 2395 H 205.954 -6.28182 -1.89005 0
M  V30 2396 H 205.871 -7.52854 -0.688971 0
M  V30 2397 H 207.139 -7.5655 -1.87757 0
M  V30 2398 N 211.368 -0.403325 -1.52352 0
M  V30 2399 C 212.331 0.413051 -2.25447 0
M  V30 2400 C 213.331 0.978513 -1.276 0
M  V30 2401 O 214.521 0.858305 -1.51587 0
M  V30 2402 C 211.653 1.58087 -3.02029 0
M  V30 2403 H 212.846 -0.227094 -2.99039 0
M  V30 2404 H 210.399 -0.155722 -1.55522 0
M  V30 2405 H 211.134 2.25804 -2.32772 0
M  V30 2406 H 210.919 1.18195 -3.73861 0
M  V30 2407 H 212.409 2.1585 -3.57489 0
M  V30 2408 N 212.846 1.57033 -0.133567 0
M  V30 2409 C 213.776 2.1909 0.807567 0
M  V30 2410 C 214.757 1.13517 1.26681 0
M  V30 2411 O 215.942 1.41809 1.32679 0
M  V30 2412 C 213.072 2.80188 2.05212 0
M  V30 2413 C 212.026 3.91471 1.73015 0
M  V30 2414 C 211.352 4.39443 3.04622 0
M  V30 2415 C 212.652 5.12886 0.987168 0
M  V30 2416 H 214.346 2.97988 0.290403 0
M  V30 2417 H 211.892 1.43335 0.138239 0
M  V30 2418 H 213.845 3.22264 2.71521 0
M  V30 2419 H 212.569 1.98601 2.59278 0
M  V30 2420 H 211.228 3.49993 1.0909 0
M  V30 2421 H 210.876 3.54695 3.56651 0
M  V30 2422 H 210.576 5.14495 2.83847 0
M  V30 2423 H 212.1 4.8418 3.72024 0
M  V30 2424 H 213.514 5.51891 1.55208 0
M  V30 2425 H 211.911 5.93615 0.87985 0
M  V30 2426 H 212.981 4.84894 -0.0235286 0
M  V30 2427 N 214.325 -0.140222 1.56975 0
M  V30 2428 C 215.602 -0.880769 1.74648 0
M  V30 2429 C 215.982 -1.99036 0.703404 0
M  V30 2430 O 215.33 -2.26821 -0.27648 0
M  V30 2431 C 215.54 -1.417 3.18939 0
M  V30 2432 C 216.888 -1.87774 3.80823 0
M  V30 2433 O 217.912 -1.51427 3.2241 0
M  V30 2434 O 216.771 -2.54827 4.83452 0
M  V30 2435 H 213.865 -0.416713 0.714338 0
M  V30 2436 H 216.411 -0.125618 1.69234 0
M  V30 2437 H 215.183 -0.619902 3.86359 0
M  V30 2438 H 214.806 -2.23546 3.28805 0
M  V30 2439 N 215.803 -1.52179 -0.40978 0
M  V30 2440 C 217.033 -1.69807 -1.17682 0
M  V30 2441 C 217.441 -0.406908 -1.84773 0
M  V30 2442 O 216.784 0.626863 -1.72673 0
M  V30 2443 C 216.846 -2.77712 -2.2829 0
M  V30 2444 C 216.51 -4.19481 -1.81341 0
M  V30 2445 C 217.507 -5.03345 -1.30154 0
M  V30 2446 C 215.192 -4.65713 -1.88194 0
M  V30 2447 C 217.186 -6.31511 -0.864416 0
M  V30 2448 C 214.873 -5.93869 -1.44093 0
M  V30 2449 C 215.871 -6.76597 -0.933023 0
M  V30 2450 O 215.559 -8.02354 -0.49838 0
M  V30 2451 H 215.291 -0.572372 -0.359675 0
M  V30 2452 H 217.845 -1.99511 -0.488311 0
M  V30 2453 H 216.075 -2.43383 -3.00502 0
M  V30 2454 H 217.764 -2.83946 -2.90051 0
M  V30 2455 H 218.53 -4.68819 -1.24232 0
M  V30 2456 H 214.409 -4.01424 -2.26671 0
M  V30 2457 H 217.953 -6.96033 -0.467286 0
M  V30 2458 H 213.85 -6.27903 -1.49694 0
M  V30 2459 H 214.618 -8.16135 -0.621747 0
M  V30 2460 N 217.281 0.66697 -1.42791 0
M  V30 2461 C 218.521 1.43892 -1.4517 0
M  V30 2462 C 218.885 1.91877 -0.0687551 0
M  V30 2463 O 220.086 2.6878 0.0327455 0
M  V30 2464 C 218.357 2.59839 -2.45395 0
M  V30 2465 S 219.916 3.48572 -2.66539 0
M  V30 2466 H 216.734 0.491356 -0.513897 0
M  V30 2467 H 219.336 0.775656 -1.79454 0
M  V30 2468 H 218.04 2.22838 -3.44632 0
M  V30 2469 H 217.571 3.3103 -2.12562 0
M  V30 2470 H 219.586 4.56094 -1.95429 0
M  V30 2471 N 218.759 1.29093 0.90403 0
M  V30 2472 C 219.709 1.10482 1.99443 0
M  V30 2473 C 220.693 0.0255401 1.6088 0
M  V30 2474 O 221.885 0.24677 1.75271 0
M  V30 2475 C 219.014 0.778882 3.34348 0
M  V30 2476 C 218.1 1.89749 3.79284 0
M  V30 2477 N 218.491 3.14045 3.96497 0
M  V30 2478 C 216.789 1.78955 4.08523 0
M  V30 2479 C 217.49 3.86996 4.34292 0
M  V30 2480 N 216.466 3.14909 4.43095 0
M  V30 2481 H 220.268 2.04778 2.10815 0
M  V30 2482 H 217.782 1.20155 1.09255 0
M  V30 2483 H 219.779 0.62661 4.12164 0
M  V30 2484 H 218.439 -0.156205 3.24324 0
M  V30 2485 H 219.45 3.49548 3.82148 0
M  V30 2486 H 216.127 0.926886 4.07081 0
M  V30 2487 H 217.517 4.93941 4.55491 0
M  V30 2488 N 220.237 -1.11381 1.11499 0
M  V30 2489 C 221.462 -1.87475 0.887019 0
M  V30 2490 C 221.887 -1.79639 -0.557796 0
M  V30 2491 O 221.245 -1.15924 -1.39396 0
M  V30 2492 C 221.293 -3.34213 1.35403 0
M  V30 2493 O 220.397 -4.0903 0.526146 0
M  V30 2494 H 219.738 -0.582099 0.319463 0
M  V30 2495 H 222.268 -1.40785 1.48461 0
M  V30 2496 H 222.278 -3.8506 1.34881 0
M  V30 2497 H 220.953 -3.39232 2.40612 0
M  V30 2498 H 219.53 -3.68082 0.597522 0
M  V30 2499 N 221.715 -0.905404 -1.28997 0
M  V30 2500 C 222.662 -0.385892 -2.27551 0
M  V30 2501 C 223.632 0.535113 -1.57244 0
M  V30 2502 O 224.817 0.459119 -1.85194 0
M  V30 2503 C 221.957 0.375461 -3.43051 0
M  V30 2504 C 221.07 -0.577092 -4.28128 0
M  V30 2505 C 220.205 0.201879 -5.30816 0
M  V30 2506 C 219.244 -0.744829 -6.07551 0
M  V30 2507 N 218.381 9.42587e-05 -7.021 0
M  V30 2508 H 223.221 -1.23139 -2.71368 0
M  V30 2509 H 220.758 -0.618542 -1.33463 0
M  V30 2510 H 222.716 0.832992 -4.088 0
M  V30 2511 H 221.346 1.18537 -3.00248 0
M  V30 2512 H 220.398 -1.15315 -3.62501 0
M  V30 2513 H 221.71 -1.30152 -4.8152 0
M  V30 2514 H 220.864 0.720351 -6.02408 0
M  V30 2515 H 219.603 0.959413 -4.7817 0
M  V30 2516 H 218.608 -1.27475 -5.34818 0
M  V30 2517 H 219.833 -1.50178 -6.62286 0
M  V30 2518 H 217.779 0.739791 -6.51815 0
M  V30 2519 H 217.696 -0.664321 -7.53076 0
M  V30 2520 H 218.964 0.498644 -7.77903 0
M  V30 2521 N 223.193 1.4272 -0.668489 0
M  V30 2522 C 224.441 2.01226 -0.187769 0
M  V30 2523 C 224.762 1.53092 1.2078 0
M  V30 2524 O 224.032 0.74993 1.80977 0
M  V30 2525 H 222.612 0.744041 -0.0664272 0
M  V30 2526 H 225.274 1.74723 -0.863583 0
M  V30 2527 H 224.37 3.11556 -0.184166 0
M  V30 2528 N 224.671 0.411399 1.52136 0
M  V30 2529 C 225.92 -0.165009 2.01024 0
M  V30 2530 C 226.233 -1.4603 1.30133 0
M  V30 2531 O 227.439 -2.1181 1.69849 0
M  V30 2532 C 225.895 -0.344618 3.58246 0
M  V30 2533 C 225.503 0.938716 4.38055 0
M  V30 2534 C 227.247 -0.876195 4.15359 0
M  V30 2535 C 225.154 0.726172 5.86925 0
M  V30 2536 H 224.084 -0.0654407 0.751155 0
M  V30 2537 H 226.735 0.537192 1.75461 0
M  V30 2538 H 225.117 -1.10921 3.80148 0
M  V30 2539 H 226.291 1.70963 4.27912 0
M  V30 2540 H 224.606 1.39688 3.92271 0
M  V30 2541 H 227.203 -1.05128 5.24263 0
M  V30 2542 H 227.546 -1.85152 3.7286 0
M  V30 2543 H 228.079 -0.170607 3.97434 0
M  V30 2544 H 224.818 1.67312 6.33788 0
M  V30 2545 H 224.338 -0.00540283 5.998 0
M  V30 2546 H 226.017 0.369231 6.45946 0
M  V30 2547 N 226.149 -1.5696 0.141893 0
M  V30 2548 C 227.082 -2.12271 -0.837627 0
M  V30 2549 C 228.06 -1.04495 -1.24578 0
M  V30 2550 O 229.244 -1.32293 -1.34278 0
M  V30 2551 C 226.371 -2.63822 -2.12404 0
M  V30 2552 C 225.417 -3.83698 -1.86221 0
M  V30 2553 S 226.25 -5.24948 -1.05781 0
M  V30 2554 C 227.406 -5.79884 -2.35552 0
M  V30 2555 H 227.639 -2.95023 -0.367249 0
M  V30 2556 H 225.172 -1.54231 -0.0723014 0
M  V30 2557 H 227.13 -2.94175 -2.86307 0
M  V30 2558 H 225.791 -1.8121 -2.56557 0
M  V30 2559 H 224.984 -4.17995 -2.81596 0
M  V30 2560 H 224.586 -3.5408 -1.20429 0
M  V30 2561 H 226.878 -5.91005 -3.31239 0
M  V30 2562 H 227.821 -6.77544 -2.05767 0
M  V30 2563 H 228.229 -5.08095 -2.45967 0
M  V30 2564 N 227.627 0.131896 -1.57047 0
M  V30 2565 C 228.577 1.1679 -1.95816 0
M  V30 2566 C 229.561 1.37756 -0.831393 0
M  V30 2567 O 230.753 1.39065 -1.09499 0
M  V30 2568 C 227.882 2.49778 -2.35512 0
M  V30 2569 C 226.968 2.32342 -3.54793 0
M  V30 2570 N 227.359 1.8469 -4.70875 0
M  V30 2571 C 225.657 2.63043 -3.60173 0
M  V30 2572 C 226.358 1.80656 -5.52936 0
M  V30 2573 N 225.334 2.24528 -4.95064 0
M  V30 2574 H 229.136 0.791818 -2.83033 0
M  V30 2575 H 226.65 0.339791 -1.58805 0
M  V30 2576 H 228.647 3.24692 -2.61498 0
M  V30 2577 H 227.307 2.88156 -1.49654 0
M  V30 2578 H 228.318 1.54429 -4.9434 0
M  V30 2579 H 224.995 3.05193 -2.84892 0
M  V30 2580 H 226.385 1.45178 -6.56028 0
M  V30 2581 N 229.106 1.52395 0.401703 0
M  V30 2582 C 230.522 1.41363 0.740864 0
M  V30 2583 C 230.722 0.523982 1.94568 0
M  V30 2584 O 229.778 -0.00741204 2.52499 0
M  V30 2585 C 231.091 2.84011 0.987847 0
M  V30 2586 C 232.639 2.93404 1.09011 0
M  V30 2587 C 233.114 4.37036 1.3698 0
M  V30 2588 N 234.605 4.40304 1.43829 0
M  V30 2589 C 235.34 5.48508 1.67112 0
M  V30 2590 N 234.836 6.66819 1.87949 0
M  V30 2591 N 236.629 5.36034 1.69187 0
M  V30 2592 H 228.78 2.08765 -0.391262 0
M  V30 2593 H 231.043 0.941265 -0.112798 0
M  V30 2594 H 230.749 3.51265 0.174835 0
M  V30 2595 H 230.623 3.25502 1.906 0
M  V30 2596 H 233.01 2.26325 1.8937 0
M  V30 2597 H 233.091 2.55359 0.15015 0
M  V30 2598 H 232.735 5.04676 0.571353 0
M  V30 2599 H 232.665 4.72623 2.3224 0
M  V30 2600 H 235.156 3.55024 1.29486 0
M  V30 2601 H 235.469 7.45063 2.05185 0
M  V30 2602 H 233.814 6.6987 1.85199 0
M  V30 2603 H 237.005 4.42579 1.52451 0
M  V30 2604 H 237.178 6.20434 1.86993 0
M  V30 2605 N 230.584 -0.659388 1.43143 0
M  V30 2606 C 231.861 -1.41627 1.34912 0
M  V30 2607 C 232.241 -2.11099 -0.00607785 0
M  V30 2608 O 231.589 -2.04353 -1.02236 0
M  V30 2609 C 231.799 -2.40604 2.52805 0
M  V30 2610 C 233.147 -3.04789 2.95616 0
M  V30 2611 O 234.171 -2.50932 2.52807 0
M  V30 2612 O 233.03 -4.02421 3.69756 0
M  V30 2613 H 230.124 -0.63246 0.532844 0
M  V30 2614 H 232.67 -0.686814 1.5518 0
M  V30 2615 H 231.442 -1.88174 3.43083 0
M  V30 2616 H 231.065 -3.21009 2.34604 0
M  V30 2617 N 232.062 -1.29571 -0.897171 0
M  V30 2618 C 233.308 -1.17863 -1.65034 0
M  V30 2619 C 233.641 0.268729 -1.92332 0
M  V30 2620 O 232.916 1.19378 -1.53555 0
M  V30 2621 C 233.199 -1.995 -2.99786 0
M  V30 2622 C 233.052 -3.5239 -2.79538 0
M  V30 2623 C 234.371 -1.82335 -4.00552 0
M  V30 2624 H 231.49 -0.429528 -0.598895 0
M  V30 2625 H 234.132 -1.59072 -1.03905 0
M  V30 2626 H 232.282 -1.64485 -3.51962 0
M  V30 2627 H 233.954 -3.97401 -2.34244 0
M  V30 2628 H 232.197 -3.77187 -2.14273 0
M  V30 2629 H 232.868 -4.04787 -3.75302 0
M  V30 2630 H 235.344 -2.12924 -3.57495 0
M  V30 2631 H 234.22 -2.41801 -4.92771 0
M  V30 2632 H 234.481 -0.779209 -4.35179 0
M  V30 2633 N 233.54 1.10788 -1.12088 0
M  V30 2634 C 234.487 2.17025 -0.785407 0
M  V30 2635 C 235.457 1.64265 0.246191 0
M  V30 2636 O 236.642 1.90412 0.121584 0
M  V30 2637 C 233.782 3.44249 -0.242177 0
M  V30 2638 C 232.895 4.1098 -1.33115 0
M  V30 2639 C 232.03 5.25911 -0.747741 0
M  V30 2640 C 231.069 5.84538 -1.81609 0
M  V30 2641 N 230.206 6.90853 -1.25167 0
M  V30 2642 H 235.046 2.45066 -1.69548 0
M  V30 2643 H 232.583 1.20297 -0.846582 0
M  V30 2644 H 234.541 4.17101 0.0908026 0
M  V30 2645 H 233.171 3.16571 0.631072 0
M  V30 2646 H 232.223 3.36133 -1.78097 0
M  V30 2647 H 233.535 4.50601 -2.13917 0
M  V30 2648 H 232.689 6.056 -0.365216 0
M  V30 2649 H 231.428 4.87614 0.0915188 0
M  V30 2650 H 230.433 5.03522 -2.20785 0
M  V30 2651 H 231.658 6.249 -2.6585 0
M  V30 2652 H 229.604 6.54562 -0.434174 0
M  V30 2653 H 229.521 7.29166 -1.99633 0
M  V30 2654 H 230.789 7.7433 -0.896259 0
M  V30 2655 N 235.018 0.912232 1.28515 0
M  V30 2656 C 236.429 0.591352 1.77087 0
M  V30 2657 C 236.78 -0.8933 1.74684 0
M  V30 2658 O 235.905 -1.69876 1.34056 0
M  V30 2659 C 236.5 1.06668 3.2157 0
M  V30 2660 C 235.059 0.79675 3.67871 0
M  V30 2661 C 234.206 1.23427 2.48316 0
M  V30 2662 H 237.157 1.09365 1.15 0
M  V30 2663 H 237.178 0.407455 3.78312 0
M  V30 2664 H 236.69 2.14726 3.23287 0
M  V30 2665 H 234.791 -0.270679 3.71616 0
M  V30 2666 H 234.904 1.40343 4.58084 0
M  V30 2667 H 233.268 0.653036 2.46186 0
M  V30 2668 H 234.051 2.32316 2.52753 0
M  V30 2669 N 236.496 -1.42363 0.676048 0
M  V30 2670 C 237.446 -2.27987 -0.0242903 0
M  V30 2671 C 238.43 -1.41153 -0.772319 0
M  V30 2672 O 239.622 -1.64592 -0.651025 0
M  V30 2673 C 236.751 -3.29195 -0.973953 0
M  V30 2674 C 235.837 -4.23512 -0.223202 0
M  V30 2675 N 236.228 -4.99865 0.772589 0
M  V30 2676 C 234.526 -4.43606 -0.461469 0
M  V30 2677 C 235.227 -5.68757 1.22027 0
M  V30 2678 N 234.203 -5.40811 0.549975 0
M  V30 2679 H 238.005 -2.84445 0.73949 0
M  V30 2680 H 235.519 -1.54341 0.50522 0
M  V30 2681 H 237.516 -3.89339 -1.49067 0
M  V30 2682 H 236.176 -2.74298 -1.73755 0
M  V30 2683 H 237.187 -5.04921 1.15217 0
M  V30 2684 H 233.864 -3.99749 -1.20446 0
M  V30 2685 H 235.254 -6.40007 2.0455 0
M  V30 2686 N 237.974 -0.419461 -1.51915 0
M  V30 2687 C 238.922 0.415502 -2.28859 0
M  V30 2688 C 239.916 1.03674 -1.3397 0
M  V30 2689 O 241.122 0.973757 -1.51387 0
M  V30 2690 H 237.497 0.152786 -0.736315 0
M  V30 2691 H 239.468 -0.254531 -2.97312 0
M  V30 2692 C 238.217 1.51425 -3.12995 0
M  V30 2693 H 237.54 1.04556 -3.85886 0
M  V30 2694 H 238.98 2.07208 -3.6992 0
M  V30 2695 C 237.439 2.48745 -2.27217 0
M  V30 2696 O 237.969 3.52871 -1.9195 0
M  V30 2697 N 236.175 2.19202 -1.90785 0
M  V30 2698 H 235.722 1.34556 -2.19664 0
M  V30 2699 H 235.68 2.84561 -1.33687 0
M  V30 2700 N 239.452 1.56882 -0.150215 0
M  V30 2701 C 240.698 1.96518 0.500834 0
M  V30 2702 C 241.031 1.03527 1.64304 0
M  V30 2703 O 240.306 0.0782751 1.94342 0
M  V30 2704 C 240.589 3.45822 1.00395 0
M  V30 2705 C 240.442 4.49591 -0.136983 0
M  V30 2706 C 241.761 3.97704 1.88467 0
M  V30 2707 H 238.88 0.714535 0.18058 0
M  V30 2708 H 241.522 1.88577 -0.232091 0
M  V30 2709 H 239.672 3.5272 1.62851 0
M  V30 2710 H 241.344 4.5477 -0.77343 0
M  V30 2711 H 239.587 4.26441 -0.795652 0
M  V30 2712 H 240.258 5.51402 0.256815 0
M  V30 2713 H 242.734 3.93304 1.35834 0
M  V30 2714 H 241.61 5.0263 2.20578 0
M  V30 2715 H 241.871 3.40252 2.82279 0
M  V30 2716 N 240.93 -0.123565 1.57115 0
M  V30 2717 C 241.863 -1.18202 1.95201 0
M  V30 2718 C 242.841 -1.40349 0.821031 0
M  V30 2719 O 244.025 -1.54578 1.07879 0
M  V30 2720 C 241.152 -2.53671 2.24429 0
M  V30 2721 C 240.198 -2.4798 3.46999 0
M  V30 2722 S 241.031 -1.92389 4.99747 0
M  V30 2723 C 242.187 -3.2954 5.32123 0
M  V30 2724 H 242.42 -0.857212 2.84674 0
M  V30 2725 H 239.953 -0.33014 1.50829 0
M  V30 2726 H 241.911 -3.3162 2.41947 0
M  V30 2727 H 240.572 -2.83332 1.35579 0
M  V30 2728 H 239.765 -3.47758 3.64801 0
M  V30 2729 H 239.367 -1.7815 3.28844 0
M  V30 2730 H 241.659 -4.25736 5.27025 0
M  V30 2731 H 242.602 -3.16569 6.33395 0
M  V30 2732 H 243.01 -3.27758 4.59603 0
M  V30 2733 N 242.408 -1.52605 -0.393616 0
M  V30 2734 C 243.657 -1.66649 -1.13627 0
M  V30 2735 C 243.97 -0.410364 -1.91247 0
M  V30 2736 O 245.176 -0.430854 -2.68059 0
M  V30 2737 C 243.632 -2.9449 -2.06891 0
M  V30 2738 C 243.24 -4.27266 -1.34714 0
M  V30 2739 C 244.984 -3.17899 -2.81319 0
M  V30 2740 C 242.891 -5.46217 -2.26717 0
M  V30 2741 H 241.821 -0.62084 -0.427871 0
M  V30 2742 H 244.472 -1.791 -0.399428 0
M  V30 2743 H 242.854 -2.75774 -2.84191 0
M  V30 2744 H 244.028 -4.56518 -0.626714 0
M  V30 2745 H 242.343 -4.10081 -0.722643 0
M  V30 2746 H 244.94 -4.03949 -3.50328 0
M  V30 2747 H 245.283 -2.32777 -3.45139 0
M  V30 2748 H 245.816 -3.37159 -2.11113 0
M  V30 2749 H 242.555 -6.33733 -1.67521 0
M  V30 2750 H 242.075 -5.21283 -2.96689 0
M  V30 2751 H 243.754 -5.7991 -2.86903 0
M  V30 2752 N 243.887 0.651787 -1.4349 0
M  V30 2753 C 245.164 1.40909 -1.35661 0
M  V30 2754 C 245.544 2.11099 -0.00511733 0
M  V30 2755 O 244.892 2.04892 1.0115 0
M  V30 2756 C 245.102 2.3926 -2.54078 0
M  V30 2757 C 246.45 3.03217 -2.97228 0
M  V30 2758 O 247.474 2.49588 -2.54135 0
M  V30 2759 O 246.333 4.00455 -3.71885 0
M  V30 2760 H 243.427 0.629625 -0.536191 0
M  V30 2761 H 245.973 0.678575 -1.55542 0
M  V30 2762 H 244.745 1.86352 -3.44076 0
M  V30 2763 H 244.368 3.1976 -2.36303 0
M  V30 2764 N 245.365 1.30045 0.890287 0
M  V30 2765 C 246.315 1.12592 1.9826 0
M  V30 2766 C 247.299 0.0426021 1.60844 0
M  V30 2767 O 248.491 0.265346 1.75 0
M  V30 2768 C 245.62 0.814301 3.33503 0
M  V30 2769 C 244.706 1.93761 3.7725 0
M  V30 2770 N 245.097 3.18232 3.93143 0
M  V30 2771 C 243.395 1.83277 4.06602 0
M  V30 2772 C 244.096 3.9158 4.30163 0
M  V30 2773 N 243.072 3.19591 4.3973 0
M  V30 2774 H 246.874 2.07003 2.08631 0
M  V30 2775 H 244.388 1.21307 1.07974 0
M  V30 2776 H 246.385 0.67029 4.11476 0
M  V30 2777 H 245.045 -0.121797 3.24471 0
M  V30 2778 H 246.056 3.53581 3.78419 0
M  V30 2779 H 242.733 0.97001 4.06075 0
M  V30 2780 H 244.123 4.98744 4.50226 0
M  V30 2781 N 246.843 -1.10192 1.12674 0
M  V30 2782 C 247.775 -2.16418 0.754701 0
M  V30 2783 C 248.788 -1.61309 -0.21986 0
M  V30 2784 O 249.977 -1.785 -0.000826841 0
M  V30 2785 C 247.077 -3.38762 0.096698 0
M  V30 2786 C 246.25 -4.23307 1.10136 0
M  V30 2787 C 245.309 -5.24092 0.470513 0
M  V30 2788 O 244.335 -5.57906 1.12824 0
M  V30 2789 N 245.537 -5.75491 -0.760948 0
M  V30 2790 H 248.302 -2.48943 1.66875 0
M  V30 2791 H 245.863 -1.25834 1.01869 0
M  V30 2792 H 247.855 -4.03291 -0.337384 0
M  V30 2793 H 246.425 -3.04192 -0.720153 0
M  V30 2794 H 245.645 -3.55036 1.71299 0
M  V30 2795 H 246.933 -4.76624 1.78064 0
M  V30 2796 H 246.331 -5.50222 -1.31424 0
M  V30 2797 H 244.888 -6.41792 -1.13781 0
M  V30 2798 N 248.321 -0.919034 -1.28029 0
M  V30 2799 C 249.253 -0.368762 -2.26214 0
M  V30 2800 C 250.266 0.495716 -1.55069 0
M  V30 2801 O 251.455 0.30974 -1.75792 0
M  V30 2802 C 248.555 0.491049 -3.35324 0
M  V30 2803 C 247.728 -0.352133 -4.3598 0
M  V30 2804 C 246.787 0.443622 -5.24327 0
M  V30 2805 O 245.813 -0.14566 -5.69014 0
M  V30 2806 N 247.015 1.74545 -5.53637 0
M  V30 2807 H 249.78 -1.21273 -2.74068 0
M  V30 2808 H 247.341 -0.785541 -1.41566 0
M  V30 2809 H 249.333 1.03026 -3.91366 0
M  V30 2810 H 247.903 1.23574 -2.87138 0
M  V30 2811 H 247.123 -1.07269 -3.79324 0
M  V30 2812 H 248.411 -0.928883 -5.00249 0
M  V30 2813 H 247.809 2.24666 -5.19174 0
M  V30 2814 H 246.366 2.23138 -6.12416 0
M  V30 2815 N 249.799 1.42003 -0.683588 0
M  V30 2816 C 250.746 2.30798 -0.0107309 0
M  V30 2817 C 251.716 1.4645 0.783688 0
M  V30 2818 O 252.901 1.75263 0.754156 0
M  V30 2819 C 250.041 3.3238 0.928306 0
M  V30 2820 C 249.154 4.31814 0.126776 0
M  V30 2821 C 248.289 5.20468 1.06236 0
M  V30 2822 C 247.328 6.11577 0.253035 0
M  V30 2823 N 246.465 6.92754 1.14179 0
M  V30 2824 H 251.305 2.8778 -0.773727 0
M  V30 2825 H 248.842 1.41745 -0.393283 0
M  V30 2826 H 250.8 3.89813 1.48666 0
M  V30 2827 H 249.43 2.76976 1.65783 0
M  V30 2828 H 248.482 3.76427 -0.54833 0
M  V30 2829 H 249.794 4.96276 -0.501192 0
M  V30 2830 H 248.948 5.82677 1.69035 0
M  V30 2831 H 247.687 4.56204 1.7242 0
M  V30 2832 H 246.692 5.48428 -0.388108 0
M  V30 2833 H 247.917 6.77892 -0.404839 0
M  V30 2834 H 245.863 6.3111 1.78987 0
M  V30 2835 H 245.78 7.53855 0.569111 0
M  V30 2836 H 247.048 7.59441 1.75697 0
M  V30 2837 N 251.277 0.427512 1.51691 0
M  V30 2838 C 252.224 -0.388867 2.275 0
M  V30 2839 C 253.194 -1.02532 1.30677 0
M  V30 2840 O 254.379 -1.0461 1.59566 0
M  V30 2841 C 251.519 -1.48954 3.11298 0
M  V30 2842 C 250.632 -0.872194 4.23104 0
M  V30 2843 C 249.767 -1.94709 4.94228 0
M  V30 2844 C 248.806 -1.30766 5.97969 0
M  V30 2845 N 247.943 -2.32349 6.62539 0
M  V30 2846 H 252.783 0.263997 2.96828 0
M  V30 2847 H 250.32 0.142033 1.46413 0
M  V30 2848 H 252.278 -2.13887 3.58201 0
M  V30 2849 H 250.908 -2.11217 2.44105 0
M  V30 2850 H 249.96 -0.111419 3.80237 0
M  V30 2851 H 251.272 -0.365264 4.97461 0
M  V30 2852 H 250.426 -2.67327 5.44629 0
M  V30 2853 H 249.165 -2.48773 4.1948 0
M  V30 2854 H 248.17 -0.566902 5.4687 0
M  V30 2855 H 249.395 -0.774483 6.74669 0
M  V30 2856 H 247.341 -2.85511 5.90609 0
M  V30 2857 H 247.258 -1.8652 7.3263 0
M  V30 2858 H 248.526 -3.04481 7.17574 0
M  V30 2859 N 252.755 -1.56801 0.158532 0
M  V30 2860 C 253.685 -2.20347 -0.772609 0
M  V30 2861 C 254.666 -1.15518 -1.24859 0
M  V30 2862 O 255.851 -1.43902 -1.30406 0
M  V30 2863 C 252.981 -2.83417 -2.00729 0
M  V30 2864 C 251.935 -3.94174 -1.66765 0
M  V30 2865 C 251.261 -4.44233 -2.97592 0
M  V30 2866 C 252.561 -5.14392 -0.905447 0
M  V30 2867 H 254.255 -2.98413 -0.242959 0
M  V30 2868 H 251.801 -1.43537 -0.115419 0
M  V30 2869 H 253.754 -3.26543 -2.6636 0
M  V30 2870 H 252.478 -2.02701 -2.56086 0
M  V30 2871 H 251.137 -3.51684 -1.03508 0
M  V30 2872 H 250.785 -3.60325 -3.50963 0
M  V30 2873 H 250.485 -5.18945 -2.75626 0
M  V30 2874 H 252.009 -4.90037 -3.64274 0
M  V30 2875 H 253.423 -5.5429 -1.46408 0
M  V30 2876 H 251.82 -5.9494 -0.7853 0
M  V30 2877 H 252.89 -4.84795 0.100668 0
M  V30 2878 N 254.233 0.115231 -1.57178 0
M  V30 2879 C 255.649 0.468877 -1.52557 0
M  V30 2880 C 255.849 1.81649 -0.872125 0
M  V30 2881 O 254.905 2.48347 -0.45606 0
M  V30 2882 C 256.218 0.4499 -2.97315 0
M  V30 2883 C 257.766 0.533185 -3.08425 0
M  V30 2884 C 258.241 0.54456 -4.54751 0
M  V30 2885 N 259.732 0.605892 -4.5922 0
M  V30 2886 C 260.467 0.636203 -5.6986 0
M  V30 2887 N 259.963 0.623931 -6.89985 0
M  V30 2888 N 261.756 0.679496 -5.57978 0
M  V30 2889 H 253.907 -0.767712 -1.9804 0
M  V30 2890 H 256.17 -0.283609 -0.904583 0
M  V30 2891 H 255.876 -0.472721 -3.48509 0
M  V30 2892 H 255.75 1.27632 -3.5495 0
M  V30 2893 H 258.137 1.44623 -2.57232 0
M  V30 2894 H 258.218 -0.320995 -2.53778 0
M  V30 2895 H 257.862 -0.364452 -5.06591 0
M  V30 2896 H 257.792 1.41568 -5.07214 0
M  V30 2897 H 260.283 0.621386 -3.72756 0
M  V30 2898 H 260.596 0.649787 -7.70063 0
M  V30 2899 H 258.941 0.591296 -6.9248 0
M  V30 2900 H 262.132 0.686472 -4.63039 0
M  V30 2901 H 262.305 0.69965 -6.44212 0
M  V30 2902 N 255.711 1.52812 0.385517 0
M  V30 2903 C 256.641 1.80808 1.47752 0
M  V30 2904 C 257.622 0.660318 1.5676 0
M  V30 2905 O 258.807 0.908246 1.71652 0
M  V30 2906 C 255.937 1.98008 2.85324 0
M  V30 2907 C 254.891 3.13709 2.91154 0
M  V30 2908 C 254.217 3.16169 4.31209 0
M  V30 2909 C 255.517 4.52709 2.60483 0
M  V30 2910 H 257.211 2.72253 1.24573 0
M  V30 2911 H 254.757 1.31003 0.597839 0
M  V30 2912 H 256.71 2.16176 3.61726 0
M  V30 2913 H 255.434 1.03255 3.09848 0
M  V30 2914 H 254.093 2.95329 2.17201 0
M  V30 2915 H 253.741 2.19092 4.52778 0
M  V30 2916 H 253.441 3.93894 4.36029 0
M  V30 2917 H 254.965 3.36496 5.09512 0
M  V30 2918 H 256.379 4.71173 3.26602 0
M  V30 2919 H 254.776 5.32528 2.76648 0
M  V30 2920 H 255.846 4.59186 1.55809 0
M  V30 2921 N 257.189 -0.644168 1.43834 0
M  V30 2922 C 258.438 -1.39985 1.45214 0
M  V30 2923 C 258.751 -1.95421 0.0835494 0
M  V30 2924 O 259.957 -2.71488 -0.0251748 0
M  V30 2925 C 258.413 -2.53384 2.55587 0
M  V30 2926 C 258.021 -2.04517 3.98594 0
M  V30 2927 C 259.765 -3.30685 2.66172 0
M  V30 2928 C 257.672 -3.1518 5.00416 0
M  V30 2929 H 256.602 -0.526005 0.540218 0
M  V30 2930 H 259.253 -0.694367 1.69855 0
M  V30 2931 H 257.635 -3.26446 2.24163 0
M  V30 2932 H 258.809 -1.38405 4.39523 0
M  V30 2933 H 257.124 -1.40068 3.92135 0
M  V30 2934 H 259.721 -4.13158 3.39418 0
M  V30 2935 H 260.064 -3.79312 1.71546 0
M  V30 2936 H 260.597 -2.64708 2.96942 0
M  V30 2937 H 257.336 -2.71511 5.96625 0
M  V30 2938 H 256.856 -3.79974 4.64091 0
M  V30 2939 H 258.535 -3.80166 5.23529 0
M  V30 2940 N 258.668 -1.30515 -0.883378 0
M  V30 2941 C 259.945 -1.10086 -1.6168 0
M  V30 2942 C 260.325 0.349269 -2.08191 0
M  V30 2943 O 259.673 1.34105 -1.85008 0
M  V30 2944 C 259.883 -2.10315 -2.78511 0
M  V30 2945 C 261.231 -2.42119 -3.48803 0
M  V30 2946 O 262.255 -2.08638 -2.88702 0
M  V30 2947 O 261.114 -2.99396 -4.57192 0
M  V30 2948 H 258.208 -0.422907 -0.710689 0
M  V30 2949 H 260.754 -1.41947 -0.930015 0
M  V30 2950 H 259.526 -3.07917 -2.41459 0
M  V30 2951 H 259.149 -1.79282 -3.54886 0
M  V30 2952 N 260.146 1.09593 -1.13257 0
M  V30 2953 C 261.392 1.82181 -0.904521 0
M  V30 2954 C 261.747 1.83967 0.563358 0
M  V30 2955 O 261.04 1.29566 1.41149 0
M  V30 2956 C 261.234 3.27802 -1.42411 0
M  V30 2957 C 261.063 3.40201 -2.94097 0
M  V30 2958 C 259.833 3.52104 -3.62424 0
M  V30 2959 C 262.031 3.32875 -3.92044 0
M  V30 2960 N 260.013 3.53169 -5.0214 0
M  V30 2961 C 261.384 3.40789 -5.17941 0
M  V30 2962 C 263.439 3.16531 -3.84334 0
M  V30 2963 C 262.142 3.34042 -6.37031 0
M  V30 2964 C 264.168 3.11109 -5.02956 0
M  V30 2965 C 263.53 3.19614 -6.27715 0
M  V30 2966 H 259.629 0.681015 -0.384373 0
M  V30 2967 H 262.213 1.3099 -1.44048 0
M  V30 2968 H 260.384 3.77466 -0.915086 0
M  V30 2969 H 262.116 3.88393 -1.13722 0
M  V30 2970 H 258.871 3.5548 -3.12939 0
M  V30 2971 H 259.295 3.57291 -5.75041 0
M  V30 2972 H 263.937 3.08827 -2.88766 0
M  V30 2973 H 261.655 3.4051 -7.32857 0
M  V30 2974 H 265.241 2.99601 -4.98729 0
M  V30 2975 H 264.121 3.15432 -7.17964 0
M  V30 2976 N 261.624 0.925811 1.2754 0
M  V30 2977 C 262.872 0.564138 1.94067 0
M  V30 2978 C 263.193 -0.897188 1.73134 0
M  V30 2979 O 262.463 -1.63573 1.07799 0
M  V30 2980 H 261.043 0.205645 0.718136 0
M  V30 2981 H 263.705 1.1778 1.55287 0
M  V30 2982 H 262.801 0.76881 3.02483 0
M  V30 2983 N 263.102 -1.41638 0.69111 0
M  V30 2984 C 264.032 -2.3347 0.037248 0
M  V30 2985 C 265.013 -1.51575 -0.771947 0
M  V30 2986 O 266.198 -1.80126 -0.72582 0
M  V30 2987 C 263.328 -3.35354 -0.903064 0
M  V30 2988 C 262.282 -4.27526 -0.201288 0
M  V30 2989 C 261.608 -5.19747 -1.25565 0
M  V30 2990 C 262.908 -5.13959 0.929689 0
M  V30 2991 H 264.602 -2.88397 0.804227 0
M  V30 2992 H 262.148 -1.38669 0.388189 0
M  V30 2993 H 264.101 -3.98519 -1.36969 0
M  V30 2994 H 262.825 -2.78767 -1.70166 0
M  V30 2995 H 261.484 -3.65779 0.245265 0
M  V30 2996 H 261.132 -4.59479 -2.04666 0
M  V30 2997 H 260.832 -5.8225 -0.791128 0
M  V30 2998 H 262.356 -5.85789 -1.72288 0
M  V30 2999 H 263.77 -5.70718 0.543546 0
M  V30 3000 H 262.167 -5.85379 1.32103 0
M  V30 3001 H 263.237 -4.51389 1.77133 0
M  V30 3002 N 264.58 -0.43555 -1.51462 0
M  V30 3003 C 265.543 0.365137 -2.26273 0
M  V30 3004 C 266.543 0.951227 -1.29647 0
M  V30 3005 O 267.733 0.825958 -1.53374 0
M  V30 3006 C 264.865 1.51645 -3.05314 0
M  V30 3007 H 266.058 -0.290474 -2.9849 0
M  V30 3008 H 263.611 -0.188676 -1.55157 0
M  V30 3009 H 264.346 2.20816 -2.3751 0
M  V30 3010 H 264.131 1.10238 -3.76284 0
M  V30 3011 H 265.621 2.08218 -3.61987 0
M  V30 3012 N 266.058 1.56714 -0.166846 0
M  V30 3013 C 266.968 2.21331 0.777791 0
M  V30 3014 C 267.984 1.20358 1.25658 0
M  V30 3015 O 269.16 1.53005 1.30964 0
M  V30 3016 C 266.225 2.83787 1.99163 0
M  V30 3017 C 265.286 3.99947 1.56016 0
M  V30 3018 C 264.519 4.59415 2.71613 0
M  V30 3019 O 264.742 4.17769 3.88362 0
M  V30 3020 O 263.676 5.49359 2.45945 0
M  V30 3021 H 267.502 3.02605 0.257636 0
M  V30 3022 H 265.087 1.49275 0.0611393 0
M  V30 3023 H 266.969 3.23405 2.70161 0
M  V30 3024 H 265.644 2.05513 2.50092 0
M  V30 3025 H 264.551 3.65007 0.819809 0
M  V30 3026 H 265.884 4.79801 1.09782 0
M  V30 3027 N 267.536 -0.106894 1.57237 0
M  V30 3028 C 268.783 -0.812526 1.85484 0
M  V30 3029 C 269.111 -1.79304 0.753687 0
M  V30 3030 O 268.366 -1.94047 -0.253853 0
M  V30 3031 C 268.665 -1.58628 3.20268 0
M  V30 3032 C 268.331 -0.748967 4.44636 0
M  V30 3033 C 266.993 -0.518104 4.78403 0
M  V30 3034 C 269.345 -0.166122 5.20935 0
M  V30 3035 C 266.673 0.305659 5.85903 0
M  V30 3036 C 269.025 0.644899 6.29304 0
M  V30 3037 C 267.689 0.885965 6.61594 0
M  V30 3038 H 266.959 -0.297324 0.678734 0
M  V30 3039 H 269.606 -0.0744332 1.91355 0
M  V30 3040 H 267.911 -2.39562 3.10028 0
M  V30 3041 H 269.608 -2.13643 3.39349 0
M  V30 3042 H 266.198 -0.939006 4.18187 0
M  V30 3043 H 270.382 -0.33167 4.95191 0
M  V30 3044 H 265.638 0.501528 6.0934 0
M  V30 3045 H 269.812 1.10345 6.87602 0
M  V30 3046 H 267.439 1.52609 7.44725 0
M  V30 3047 N 269.014 -1.53014 -0.377408 0
M  V30 3048 C 270.244 -1.72265 -1.14054 0
M  V30 3049 C 270.652 -0.44601 -1.83868 0
M  V30 3050 O 269.995 0.590095 -1.73964 0
M  V30 3051 C 270.057 -2.82492 -2.22348 0
M  V30 3052 C 269.721 -4.23233 -1.72402 0
M  V30 3053 C 270.718 -5.05992 -1.19448 0
M  V30 3054 C 268.403 -4.696 -1.78273 0
M  V30 3055 C 270.397 -6.33203 -0.730268 0
M  V30 3056 C 268.084 -5.96792 -1.31464 0
M  V30 3057 C 269.082 -6.78424 -0.789297 0
M  V30 3058 O 268.77 -8.0323 -0.328077 0
M  V30 3059 H 268.502 -0.579873 -0.347453 0
M  V30 3060 H 271.056 -2.00502 -0.445882 0
M  V30 3061 H 269.286 -2.49702 -2.95272 0
M  V30 3062 H 270.975 -2.90034 -2.83963 0
M  V30 3063 H 271.741 -4.71349 -1.14259 0
M  V30 3064 H 267.62 -4.06142 -2.18106 0
M  V30 3065 H 271.164 -6.96868 -0.319542 0
M  V30 3066 H 267.061 -6.30937 -1.36342 0
M  V30 3067 H 267.829 -8.1727 -0.448493 0
M  V30 3068 N 270.492 0.636531 -1.44174 0
M  V30 3069 C 271.442 1.74233 -1.47061 0
M  V30 3070 C 272.426 1.57331 -0.337034 0
M  V30 3071 O 273.618 1.67159 -0.581973 0
M  V30 3072 C 270.747 3.12897 -1.41246 0
M  V30 3073 C 269.833 3.35288 -2.59698 0
M  V30 3074 N 270.224 3.2807 -3.84972 0
M  V30 3075 C 268.522 3.66065 -2.54778 0
M  V30 3076 C 269.223 3.51001 -4.63867 0
M  V30 3077 N 268.199 3.73616 -3.94857 0
M  V30 3078 H 272.001 1.67103 -2.41773 0
M  V30 3079 H 269.515 0.838806 -1.3906 0
M  V30 3080 H 271.512 3.92189 -1.41398 0
M  V30 3081 H 270.172 3.21197 -0.47569 0
M  V30 3082 H 271.183 3.07109 -4.17019 0
M  V30 3083 H 267.86 3.81379 -1.6987 0
M  V30 3084 H 269.25 3.51059 -5.72894 0
M  V30 3085 N 271.97 1.30982 0.876444 0
M  V30 3086 C 273.381 1.18277 1.44456 0
M  V30 3087 C 273.732 -0.213265 1.95037 0
M  V30 3088 O 272.857 -1.11057 1.85729 0
M  V30 3089 C 273.452 2.1411 2.62569 0
M  V30 3090 C 272.011 2.05358 3.15444 0
M  V30 3091 C 271.158 2.03706 1.88146 0
M  V30 3092 H 274.109 1.43127 0.685584 0
M  V30 3093 H 274.13 1.72692 3.39054 0
M  V30 3094 H 273.642 3.15706 2.25724 0
M  V30 3095 H 271.743 1.06934 3.56926 0
M  V30 3096 H 271.856 2.94156 3.78166 0
M  V30 3097 H 270.22 1.48629 2.06837 0
M  V30 3098 H 271.003 3.07047 1.53547 0
M  V30 3099 N 273.449 -1.08991 1.13837 0
M  V30 3100 C 274.412 -2.13925 0.822715 0
M  V30 3101 C 275.412 -1.599 -0.1699 0
M  V30 3102 O 276.602 -1.74104 0.0577251 0
M  V30 3103 C 273.734 -3.40155 0.225318 0
M  V30 3104 H 274.927 -2.43358 1.75262 0
M  V30 3105 H 272.48 -1.24603 0.943594 0
M  V30 3106 H 273.215 -3.16352 -0.713594 0
M  V30 3107 H 273 -3.80661 0.940193 0
M  V30 3108 H 274.49 -4.17594 0.0214784 0
M  V30 3109 N 274.927 -0.932562 -1.27047 0
M  V30 3110 C 275.859 -0.392734 -2.2581 0
M  V30 3111 C 276.872 0.479241 -1.55586 0
M  V30 3112 O 278.061 0.291078 -1.76111 0
M  V30 3113 C 275.161 0.455456 -3.35826 0
M  V30 3114 C 274.334 -0.398355 -4.35582 0
M  V30 3115 C 273.393 0.387985 -5.24768 0
M  V30 3116 O 272.419 -0.206003 -5.68827 0
M  V30 3117 N 273.621 1.68664 -5.55457 0
M  V30 3118 H 276.386 -1.24173 -2.72766 0
M  V30 3119 H 273.947 -0.800511 -1.40725 0
M  V30 3120 H 275.939 0.988692 -3.92437 0
M  V30 3121 H 274.509 1.20522 -2.88432 0
M  V30 3122 H 273.729 -1.11286 -3.78165 0
M  V30 3123 H 275.017 -0.981889 -4.99236 0
M  V30 3124 H 274.415 2.19147 -5.21528 0
M  V30 3125 H 272.972 2.1663 -6.14748 0
M  V30 3126 N 276.405 1.4127 -0.698611 0
M  V30 3127 C 277.315 2.34573 -0.0357891 0
M  V30 3128 C 278.331 1.56393 0.762701 0
M  V30 3129 O 279.507 1.8886 0.699564 0
M  V30 3130 C 276.572 3.35159 0.887089 0
M  V30 3131 C 275.633 4.29225 0.0804634 0
M  V30 3132 C 274.866 5.25006 0.959387 0
M  V30 3133 O 275.089 5.26314 2.19886 0
M  V30 3134 O 274.023 6.00519 0.407439 0
M  V30 3135 H 277.849 2.92838 -0.804957 0
M  V30 3136 H 275.434 1.42175 -0.458966 0
M  V30 3137 H 277.316 3.9689 1.41621 0
M  V30 3138 H 275.991 2.79333 1.6357 0
M  V30 3139 H 274.898 3.70833 -0.493328 0
M  V30 3140 H 276.231 4.88157 -0.629547 0
M  V30 3141 N 277.883 0.443576 1.51229 0
M  V30 3142 C 279.113 -0.119117 2.06256 0
M  V30 3143 C 279.521 -1.36471 1.31043 0
M  V30 3144 O 278.864 -1.80034 0.365151 0
M  V30 3145 C 278.926 -0.500546 3.55998 0
M  V30 3146 C 278.59 0.639125 4.52509 0
M  V30 3147 C 279.587 1.51311 4.97394 0
M  V30 3148 C 277.272 0.821632 4.95535 0
M  V30 3149 C 279.266 2.55425 5.83984 0
M  V30 3150 C 276.953 1.86603 5.81913 0
M  V30 3151 C 277.951 2.73072 6.26036 0
M  V30 3152 O 277.639 3.75718 7.10698 0
M  V30 3153 H 277.371 -0.00857665 0.675946 0
M  V30 3154 H 279.925 0.623288 1.95715 0
M  V30 3155 H 278.155 -1.29575 3.64345 0
M  V30 3156 H 279.844 -0.995116 3.93513 0
M  V30 3157 H 280.61 1.38367 4.64844 0
M  V30 3158 H 276.489 0.158149 4.60729 0
M  V30 3159 H 280.033 3.22949 6.18344 0
M  V30 3160 H 275.93 1.99564 6.13876 0
M  V30 3161 H 276.698 3.72374 7.2889 0
M  V30 3162 N 279.361 -1.56624 0.175154 0
M  V30 3163 C 280.309 -2.19468 -0.770495 0
M  V30 3164 C 281.303 -1.15985 -1.23466 0
M  V30 3165 O 282.509 -1.34176 -1.19987 0
M  V30 3166 H 278.884 -0.703095 -0.266761 0
M  V30 3167 H 280.855 -2.97613 -0.216542 0
M  V30 3168 C 279.604 -2.85264 -1.98796 0
M  V30 3169 H 278.927 -3.64623 -1.63983 0
M  V30 3170 H 280.367 -3.327 -2.62843 0
M  V30 3171 C 278.826 -1.85239 -2.81404 0
M  V30 3172 O 279.356 -1.34024 -3.78682 0
M  V30 3173 N 277.562 -1.53911 -2.46495 0
M  V30 3174 H 277.109 -1.95751 -1.67449 0
M  V30 3175 H 277.067 -0.872382 -3.02054 0
M  V30 3176 N 280.839 0.0985539 -1.57292 0
M  V30 3177 C 282.085 0.803867 -1.86188 0
M  V30 3178 C 282.418 1.78549 -0.763794 0
M  V30 3179 O 281.693 1.93153 0.22855 0
M  V30 3180 C 281.976 1.53568 -3.25713 0
M  V30 3181 C 281.829 0.572277 -4.46145 0
M  V30 3182 C 283.148 2.48708 -3.63087 0
M  V30 3183 H 280.267 0.290781 -0.677211 0
M  V30 3184 H 282.909 0.0675783 -1.8988 0
M  V30 3185 H 281.059 2.16332 -3.22696 0
M  V30 3186 H 282.731 -0.0480894 -4.61275 0
M  V30 3187 H 280.974 -0.114618 -4.33649 0
M  V30 3188 H 281.645 1.12139 -5.40489 0
M  V30 3189 H 284.121 1.96039 -3.67026 0
M  V30 3190 H 282.997 2.96932 -4.61652 0
M  V30 3191 H 283.258 3.32309 -2.91588 0
M  V30 3192 N 282.317 1.53212 0.369288 0
M  V30 3193 C 283.733 1.42902 0.710712 0
M  V30 3194 C 283.933 0.565135 1.93413 0
M  V30 3195 O 282.989 0.0461484 2.52458 0
M  V30 3196 C 284.302 2.86042 0.927382 0
M  V30 3197 C 285.85 2.9565 1.02762 0
M  V30 3198 C 286.325 4.39843 1.27679 0
M  V30 3199 N 287.816 4.43256 1.34457 0
M  V30 3200 C 288.551 5.51929 1.55439 0
M  V30 3201 N 288.047 6.70655 1.73762 0
M  V30 3202 N 289.84 5.39502 1.57779 0
M  V30 3203 H 281.991 2.07888 -0.435457 0
M  V30 3204 H 284.254 0.938661 -0.132739 0
M  V30 3205 H 283.96 3.51557 0.100287 0
M  V30 3206 H 283.834 3.29472 1.83653 0
M  V30 3207 H 286.221 2.30291 1.84527 0
M  V30 3208 H 286.302 2.5562 0.0959504 0
M  V30 3209 H 285.946 5.05774 0.464175 0
M  V30 3210 H 285.876 4.77443 2.22162 0
M  V30 3211 H 288.367 3.5769 1.21926 0
M  V30 3212 H 288.68 7.49248 1.89335 0
M  V30 3213 H 287.025 6.73648 1.70948 0
M  V30 3214 H 290.216 4.45713 1.43029 0
M  V30 3215 H 290.389 6.2426 1.7379 0
M  V30 3216 N 283.795 -0.628877 1.44509 0
M  V30 3217 C 285.041 -1.39045 1.47629 0
M  V30 3218 C 285.374 -1.93892 0.109343 0
M  V30 3219 O 284.649 -1.7379 -0.87334 0
M  V30 3220 C 284.932 -2.55408 2.53848 0
M  V30 3221 C 284.785 -2.05896 3.99909 0
M  V30 3222 C 286.104 -3.5759 2.56549 0
M  V30 3223 H 283.223 -0.504232 0.537512 0
M  V30 3224 H 285.865 -0.710854 1.76201 0
M  V30 3225 H 284.015 -3.13384 2.29615 0
M  V30 3226 H 285.687 -1.52734 4.35282 0
M  V30 3227 H 283.93 -1.37061 4.11578 0
M  V30 3228 H 284.601 -2.89681 4.69882 0
M  V30 3229 H 287.077 -3.09419 2.78207 0
M  V30 3230 H 285.953 -4.36527 3.32769 0
M  V30 3231 H 286.214 -4.11808 1.60832 0
M  V30 3232 N 285.273 -1.31445 -0.869486 0
M  V30 3233 C 286.236 -1.19094 -1.9583 0
M  V30 3234 C 287.236 -0.117906 -1.60367 0
M  V30 3235 O 288.426 -0.367208 -1.70286 0
M  V30 3236 C 285.558 -0.828165 -3.30688 0
M  V30 3237 H 286.751 -2.15842 -2.08212 0
M  V30 3238 H 284.304 -1.15063 -1.05784 0
M  V30 3239 H 285.039 0.138142 -3.24006 0
M  V30 3240 H 284.824 -1.6038 -3.578 0
M  V30 3241 H 286.314 -0.765658 -4.10521 0
M  V30 3242 N 286.751 1.08385 -1.14413 0
M  V30 3243 C 287.976 1.85057 -0.936413 0
M  V30 3244 C 288.401 1.81055 0.509971 0
M  V30 3245 O 287.759 1.1958 1.36273 0
M  V30 3246 C 287.807 3.30505 -1.44217 0
M  V30 3247 O 286.911 4.07491 -0.634409 0
M  V30 3248 H 286.252 0.573425 -0.334784 0
M  V30 3249 H 288.782 1.36799 -1.52142 0
M  V30 3250 H 288.792 3.81348 -1.45043 0
M  V30 3251 H 287.467 3.32734 -2.49522 0
M  V30 3252 H 286.044 3.66368 -0.694902 0
M  V30 3253 N 288.23 0.939286 1.26551 0
M  V30 3254 C 289.646 0.641304 1.46149 0
M  V30 3255 C 289.846 -0.805964 1.84679 0
M  V30 3256 O 288.902 -1.58278 1.96734 0
M  V30 3257 C 290.215 1.6011 2.54529 0
M  V30 3258 C 291.763 1.6106 2.68382 0
M  V30 3259 C 292.238 2.55765 3.79932 0
M  V30 3260 N 293.729 2.5404 3.87322 0
M  V30 3261 C 294.464 3.24004 4.73085 0
M  V30 3262 N 293.96 4.03388 5.63249 0
M  V30 3263 N 295.753 3.12965 4.66914 0
M  V30 3264 H 287.904 1.87478 0.998285 0
M  V30 3265 H 290.167 0.805559 0.499779 0
M  V30 3266 H 289.873 2.63412 2.33039 0
M  V30 3267 H 289.747 1.35171 3.52149 0
M  V30 3268 H 292.134 0.584835 2.89247 0
M  V30 3269 H 292.215 1.90053 1.71212 0
M  V30 3270 H 291.859 3.58458 3.5982 0
M  V30 3271 H 291.789 2.24063 4.76554 0
M  V30 3272 H 294.28 1.96396 3.22858 0
M  V30 3273 H 294.593 4.5373 6.25579 0
M  V30 3274 H 292.938 4.07489 5.63008 0
M  V30 3275 H 296.129 2.50432 3.95476 0
M  V30 3276 H 296.302 3.67759 5.33533 0
M  V30 3277 N 289.708 -1.40897 0.706093 0
M  V30 3278 C 290.938 -2.05075 0.250523 0
M  V30 3279 C 291.346 -1.53275 -1.10921 0
M  V30 3280 O 290.689 -0.680281 -1.7064 0
M  V30 3281 C 290.751 -3.59219 0.142178 0
M  V30 3282 C 290.415 -4.33864 1.43566 0
M  V30 3283 C 291.412 -4.62448 2.37566 0
M  V30 3284 C 289.097 -4.72946 1.69195 0
M  V30 3285 C 291.091 -5.29088 3.5545 0
M  V30 3286 C 288.778 -5.3932 2.87362 0
M  V30 3287 C 289.776 -5.6732 3.80312 0
M  V30 3288 O 289.464 -6.32325 4.96408 0
M  V30 3289 H 289.196 -0.666645 0.112074 0
M  V30 3290 H 291.75 -1.81467 0.962239 0
M  V30 3291 H 289.98 -3.81609 -0.6254 0
M  V30 3292 H 291.669 -4.0495 -0.277584 0
M  V30 3293 H 292.435 -4.32727 2.19027 0
M  V30 3294 H 288.314 -4.50527 0.977042 0
M  V30 3295 H 291.858 -5.50859 4.28018 0
M  V30 3296 H 287.755 -5.68461 3.05814 0
M  V30 3297 H 288.523 -6.50821 4.9636 0
M  V30 3298 N 291.186 -0.45159 -1.50991 0
M  V30 3299 C 292.433 0.110074 -2.02201 0
M  V30 3300 C 292.761 1.4146 -1.33489 0
M  V30 3301 O 292.016 1.90617 -0.443125 0
M  V30 3302 C 292.315 0.361728 -3.55565 0
M  V30 3303 C 291.981 -0.858717 -4.42648 0
M  V30 3304 C 290.643 -1.19338 -4.66167 0
M  V30 3305 C 292.995 -1.67221 -4.93646 0
M  V30 3306 C 290.323 -2.34195 -5.37931 0
M  V30 3307 C 292.675 -2.8119 -5.6667 0
M  V30 3308 C 291.339 -3.15094 -5.88449 0
M  V30 3309 H 290.609 0.040279 -0.739904 0
M  V30 3310 H 293.256 -0.601696 -1.81802 0
M  V30 3311 H 291.561 1.15554 -3.74372 0
M  V30 3312 H 293.258 0.80996 -3.92735 0
M  V30 3313 H 289.848 -0.58796 -4.24548 0
M  V30 3314 H 294.032 -1.42686 -4.75347 0
M  V30 3315 H 289.288 -2.6076 -5.53005 0
M  V30 3316 H 293.462 -3.44585 -6.05173 0
M  V30 3317 H 291.089 -4.04204 -6.43835 0
M  V30 3318 N 292.664 1.56529 -0.183458 0
M  V30 3319 C 293.611 2.18546 0.742055 0
M  V30 3320 C 294.581 1.12912 1.2182 0
M  V30 3321 O 295.766 1.41115 1.28418 0
M  V30 3322 C 292.906 2.83977 1.96089 0
M  V30 3323 C 292.019 4.04105 1.52719 0
M  V30 3324 C 291.154 4.57427 2.70063 0
M  V30 3325 C 290.193 5.69938 2.23243 0
M  V30 3326 N 289.33 6.17717 3.33722 0
M  V30 3327 H 294.17 2.97284 0.206432 0
M  V30 3328 H 291.707 1.46823 0.0901571 0
M  V30 3329 H 293.665 3.20077 2.67594 0
M  V30 3330 H 292.295 2.07822 2.47002 0
M  V30 3331 H 291.347 3.73745 0.708436 0
M  V30 3332 H 292.659 4.85513 1.1436 0
M  V30 3333 H 291.813 4.95772 3.49708 0
M  V30 3334 H 290.552 3.75101 3.11689 0
M  V30 3335 H 289.557 5.31133 1.42048 0
M  V30 3336 H 290.782 6.54073 1.82661 0
M  V30 3337 H 288.728 5.38317 3.74902 0
M  V30 3338 H 288.645 6.94146 2.99495 0
M  V30 3339 H 289.913 6.60713 4.13616 0
M  V30 3340 N 294.142 -0.090211 1.57342 0
M  V30 3341 C 295.39 -0.791241 1.85967 0
M  V30 3342 C 295.711 -1.7903 0.772859 0
M  V30 3343 O 294.981 -1.94872 -0.200398 0
M  V30 3344 H 293.561 -0.295205 0.686195 0
M  V30 3345 H 296.223 -0.0706782 1.94772 0
M  V30 3346 H 295.319 -1.31882 2.82867 0
M  V30 3347 N 295.62 -1.53406 -0.361157 0
M  V30 3348 C 297.031 -1.61442 -0.937728 0
M  V30 3349 C 297.382 -0.48461 -1.90121 0
M  V30 3350 O 296.507 0.388312 -2.12888 0
M  V30 3351 C 297.102 -2.92624 -1.70753 0
M  V30 3352 C 295.661 -3.02981 -2.23337 0
M  V30 3353 C 294.808 -2.5677 -1.04712 0
M  V30 3354 H 297.759 -1.58083 -0.139816 0
M  V30 3355 H 297.78 -2.80675 -2.56908 0
M  V30 3356 H 297.292 -3.74834 -1.00604 0
M  V30 3357 H 295.393 -2.25368 -2.96715 0
M  V30 3358 H 295.506 -4.0814 -2.50916 0
M  V30 3359 H 293.87 -2.11752 -1.41539 0
M  V30 3360 H 294.653 -3.41402 -0.360539 0
M  V30 3361 N 297.098 0.621204 -1.44841 0
M  V30 3362 C 298.008 1.7612 -1.5498 0
M  V30 3363 C 299.024 1.68477 -0.434927 0
M  V30 3364 O 300.2 1.89076 -0.693693 0
M  V30 3365 C 297.265 3.1254 -1.50065 0
M  V30 3366 C 296.326 3.31741 -2.72482 0
M  V30 3367 C 295.559 4.61653 -2.67792 0
M  V30 3368 O 295.782 5.431 -1.74352 0
M  V30 3369 O 294.716 4.83271 -3.58794 0
M  V30 3370 H 298.542 1.70518 -2.51311 0
M  V30 3371 H 296.127 0.783643 -1.27198 0
M  V30 3372 H 298.009 3.93844 -1.49882 0
M  V30 3373 H 296.684 3.18663 -0.568806 0
M  V30 3374 H 295.591 2.50077 -2.7823 0
M  V30 3375 H 296.924 3.30486 -3.64746 0
M  V30 3376 N 298.576 1.31904 0.862503 0
M  V30 3377 C 299.506 1.22782 1.98612 0
M  V30 3378 C 300.487 0.113362 1.69722 0
M  V30 3379 O 301.672 0.299218 1.91881 0
M  V30 3380 C 298.802 0.942058 3.34279 0
M  V30 3381 C 297.756 2.0169 3.77499 0
M  V30 3382 C 297.082 1.58369 5.10709 0
M  V30 3383 C 298.382 3.43096 3.93805 0
M  V30 3384 H 300.076 2.16788 2.06502 0
M  V30 3385 H 297.622 1.04366 0.992154 0
M  V30 3386 H 299.575 0.864818 4.1243 0
M  V30 3387 H 298.299 -0.0336603 3.26583 0
M  V30 3388 H 296.958 2.08416 3.01593 0
M  V30 3389 H 296.606 0.595628 4.99461 0
M  V30 3390 H 296.306 2.30279 5.40597 0
M  V30 3391 H 297.83 1.52067 5.91361 0
M  V30 3392 H 299.244 3.39003 4.62331 0
M  V30 3393 H 297.641 4.13288 4.35101 0
M  V30 3394 H 298.711 3.83334 2.96957 0
M  V30 3395 N 300.054 -1.07777 1.14986 0
M  V30 3396 C 300.984 -2.16865 0.865557 0
M  V30 3397 C 301.965 -1.69123 -0.182083 0
M  V30 3398 O 303.15 -1.94164 -0.0373815 0
M  V30 3399 C 300.28 -3.45539 0.349313 0
M  V30 3400 C 299.234 -4.06708 1.33313 0
M  V30 3401 C 298.56 -5.30411 0.675918 0
M  V30 3402 C 299.86 -4.47241 2.69764 0
M  V30 3403 H 301.554 -2.40905 1.77778 0
M  V30 3404 H 299.1 -1.15781 0.856203 0
M  V30 3405 H 301.053 -4.21174 0.137983 0
M  V30 3406 H 299.777 -3.21072 -0.598362 0
M  V30 3407 H 298.436 -3.33112 1.53075 0
M  V30 3408 H 298.084 -5.02232 -0.277767 0
M  V30 3409 H 297.784 -5.72293 1.33244 0
M  V30 3410 H 299.308 -6.08755 0.474262 0
M  V30 3411 H 300.722 -5.14025 2.53873 0
M  V30 3412 H 299.119 -5.00062 3.3175 0
M  V30 3413 H 300.189 -3.58818 3.26156 0
M  V30 3414 N 301.532 -0.945985 -1.26051 0
M  V30 3415 C 302.778 -0.597002 -1.93814 0
M  V30 3416 C 303.111 0.862484 -1.73997 0
M  V30 3417 O 302.386 1.61769 -1.07986 0
M  V30 3418 C 302.669 -0.945937 -3.47454 0
M  V30 3419 C 302.522 -2.46052 -3.76535 0
M  V30 3420 C 303.841 -0.464785 -4.37639 0
M  V30 3421 H 300.96 -0.218366 -0.703907 0
M  V30 3422 H 303.602 -1.18107 -1.48831 0
M  V30 3423 H 301.752 -0.448902 -3.85898 0
M  V30 3424 H 303.424 -3.03065 -3.47778 0
M  V30 3425 H 301.667 -2.90194 -3.22444 0
M  V30 3426 H 302.338 -2.65517 -4.83947 0
M  V30 3427 H 304.814 -0.891016 -4.06448 0
M  V30 3428 H 303.69 -0.737712 -5.4392 0
M  V30 3429 H 303.951 0.635274 -4.37512 0
M  V30 3430 N 303.011 1.40521 -0.713556 0
M  V30 3431 C 304.288 1.94775 -0.17943 0
M  V30 3432 C 304.668 1.65184 1.31444 0
M  V30 3433 O 304.016 0.968429 2.06963 0
M  V30 3434 C 304.226 3.45543 -0.489986 0
M  V30 3435 C 305.574 4.22442 -0.427536 0
M  V30 3436 O 306.598 3.53644 -0.425929 0
M  V30 3437 O 305.457 5.4501 -0.403292 0
M  V30 3438 H 302.551 0.826606 -0.0255192 0
M  V30 3439 H 305.097 1.5014 -0.790949 0
M  V30 3440 H 303.869 3.60432 -1.5233 0
M  V30 3441 H 303.492 3.97311 0.151598 0
M  V30 3442 N 304.489 0.459591 1.5075 0
M  V30 3443 C 305.719 -0.0972338 2.06371 0
M  V30 3444 C 306.127 -1.35074 1.32483 0
M  V30 3445 O 305.47 -1.79637 0.384226 0
M  V30 3446 C 305.532 -0.462759 3.56509 0
M  V30 3447 C 305.196 0.687084 4.51805 0
M  V30 3448 C 306.193 1.56578 4.95761 0
M  V30 3449 C 303.878 0.874144 4.94635 0
M  V30 3450 C 305.872 2.61604 5.81242 0
M  V30 3451 C 303.559 1.92765 5.79901 0
M  V30 3452 C 304.557 2.79697 6.23104 0
M  V30 3453 O 304.245 3.83235 7.06673 0
M  V30 3454 H 303.977 -0.00140687 0.675999 0
M  V30 3455 H 306.531 0.644011 1.95043 0
M  V30 3456 H 304.761 -1.25703 3.65699 0
M  V30 3457 H 306.45 -0.953323 3.94546 0
M  V30 3458 H 307.216 1.4329 4.6335 0
M  V30 3459 H 303.095 0.207006 4.60535 0
M  V30 3460 H 306.639 3.29489 6.14884 0
M  V30 3461 H 302.536 2.06064 6.11725 0
M  V30 3462 H 303.304 3.80084 7.24899 0
M  V30 3463 N 305.967 -1.56429 0.191757 0
M  V30 3464 C 306.899 -2.16154 -0.762245 0
M  V30 3465 C 307.912 -1.12247 -1.17917 0
M  V30 3466 O 309.101 -1.39353 -1.11548 0
M  V30 3467 C 306.201 -2.70606 -2.04024 0
M  V30 3468 C 305.374 -3.99381 -1.78364 0
M  V30 3469 C 304.433 -4.38692 -2.90578 0
M  V30 3470 O 303.459 -5.06179 -2.6033 0
M  V30 3471 N 304.661 -4.01922 -4.18854 0
M  V30 3472 H 307.426 -2.98643 -0.251526 0
M  V30 3473 H 304.987 -1.61897 0.00967373 0
M  V30 3474 H 306.979 -2.93891 -2.78227 0
M  V30 3475 H 305.549 -1.9259 -2.46227 0
M  V30 3476 H 304.769 -3.84262 -0.879581 0
M  V30 3477 H 306.057 -4.83445 -1.58614 0
M  V30 3478 H 305.455 -3.47631 -4.46283 0
M  V30 3479 H 304.012 -4.30165 -4.89695 0
M  V30 3480 N 307.445 0.0818655 -1.57387 0
M  V30 3481 C 308.378 1.12986 -1.98266 0
M  V30 3482 C 309.356 1.38123 -0.857954 0
M  V30 3483 O 310.54 1.51663 -1.1194 0
M  V30 3484 C 307.667 2.47632 -2.31076 0
M  V30 3485 C 306.713 2.38693 -3.53452 0
M  V30 3486 S 307.546 1.79071 -5.04672 0
M  V30 3487 C 308.702 3.15316 -5.40673 0
M  V30 3488 H 308.935 0.781435 -2.86846 0
M  V30 3489 H 306.468 0.290034 -1.51651 0
M  V30 3490 H 308.426 3.25089 -2.50654 0
M  V30 3491 H 307.087 2.79638 -1.43043 0
M  V30 3492 H 306.28 3.37964 -3.73893 0
M  V30 3493 H 305.882 1.69369 -3.33452 0
M  V30 3494 H 308.174 4.11613 -5.38127 0
M  V30 3495 H 309.117 2.99664 -6.41566 0
M  V30 3496 H 309.525 3.15457 -4.68132 0
M  V30 3497 N 308.923 1.53595 0.353017 0
M  V30 3498 C 310.153 1.74058 1.11299 0
M  V30 3499 C 310.561 0.475205 1.83135 0
M  V30 3500 O 309.904 -0.562344 1.74881 0
M  V30 3501 C 309.966 2.85994 2.17825 0
M  V30 3502 C 309.63 4.25923 1.65647 0
M  V30 3503 C 310.627 5.07829 1.11383 0
M  V30 3504 C 308.312 4.72377 1.7078 0
M  V30 3505 C 310.306 6.34285 0.629439 0
M  V30 3506 C 307.993 5.98808 1.21953 0
M  V30 3507 C 308.991 6.79594 0.681265 0
M  V30 3508 O 308.679 8.03651 0.200248 0
M  V30 3509 H 308.411 0.585327 0.338183 0
M  V30 3510 H 310.965 2.01186 0.413927 0
M  V30 3511 H 309.195 2.54368 2.91262 0
M  V30 3512 H 310.884 2.94515 2.79313 0
M  V30 3513 H 311.65 4.73107 1.06746 0
M  V30 3514 H 307.529 4.0956 2.11617 0
M  V30 3515 H 311.073 6.97288 0.208636 0
M  V30 3516 H 306.97 6.33026 1.26287 0
M  V30 3517 H 307.738 8.1788 0.318416 0
M  V30 3518 N 310.401 -0.613514 1.45168 0
M  V30 3519 C 311.678 -1.37263 1.39349 0
M  V30 3520 C 312.058 -2.11012 0.0610848 0
M  V30 3521 O 311.406 -2.07502 -0.956825 0
M  V30 3522 C 311.616 -2.3244 2.60332 0
M  V30 3523 C 312.964 -2.9523 3.05163 0
M  V30 3524 O 313.988 -2.42762 2.60663 0
M  V30 3525 O 312.847 -3.90454 3.82372 0
M  V30 3526 H 309.941 -0.615188 0.552696 0
M  V30 3527 H 312.487 -0.637097 1.57287 0
M  V30 3528 H 311.259 -1.77164 3.48896 0
M  V30 3529 H 310.882 -3.13383 2.44698 0
M  V30 3530 N 311.879 -1.3236 -0.855495 0
M  V30 3531 C 313.109 -1.25688 -1.6397 0
M  V30 3532 C 313.517 0.177592 -1.88365 0
M  V30 3533 O 312.86 1.12485 -1.45234 0
M  V30 3534 C 312.922 -1.94602 -3.02275 0
M  V30 3535 C 312.586 -3.43937 -3.00926 0
M  V30 3536 C 313.583 -4.39435 -2.77835 0
M  V30 3537 C 311.268 -3.85858 -3.21588 0
M  V30 3538 C 313.262 -5.74829 -2.75409 0
M  V30 3539 C 310.949 -5.21361 -3.18789 0
M  V30 3540 C 311.947 -6.15658 -2.95727 0
M  V30 3541 O 311.635 -7.48681 -2.928 0
M  V30 3542 H 311.367 -0.434972 -0.51747 0
M  V30 3543 H 313.921 -1.75023 -1.075 0
M  V30 3544 H 312.151 -1.39836 -3.60531 0
M  V30 3545 H 313.84 -1.81651 -3.62985 0
M  V30 3546 H 314.606 -4.08374 -2.6164 0
M  V30 3547 H 310.485 -3.12883 -3.38564 0
M  V30 3548 H 314.029 -6.48404 -2.57328 0
M  V30 3549 H 309.926 -5.52052 -3.34528 0
M  V30 3550 H 310.694 -7.5803 -3.0876 0
M  V30 3551 N 313.357 1.07166 -1.15556 0
M  V30 3552 C 314.582 1.84053 -0.955988 0
M  V30 3553 C 315.007 1.81586 0.490739 0
M  V30 3554 O 314.365 1.21018 1.34997 0
M  V30 3555 C 314.413 3.28957 -1.47714 0
M  V30 3556 O 313.517 4.06795 -0.677593 0
M  V30 3557 H 312.858 0.569842 -0.340847 0
M  V30 3558 H 315.388 1.35178 -1.53584 0
M  V30 3559 H 315.398 3.79788 -1.4908 0
M  V30 3560 H 314.073 3.30068 -2.53037 0
M  V30 3561 H 312.65 3.6561 -0.733721 0
M  V30 3562 N 314.835 0.952656 1.25548 0
M  V30 3563 C 315.765 0.489287 2.28316 0
M  V30 3564 C 316.746 -0.463359 1.63667 0
M  V30 3565 O 317.931 -0.36274 1.90782 0
M  V30 3566 C 315.061 -0.235603 3.465 0
M  V30 3567 C 314.015 0.631593 4.23314 0
M  V30 3568 C 313.341 -0.223923 5.34231 0
M  V30 3569 C 314.641 1.90871 4.86174 0
M  V30 3570 H 316.335 1.34822 2.67326 0
M  V30 3571 H 313.881 0.649728 1.28509 0
M  V30 3572 H 315.834 -0.570882 4.17515 0
M  V30 3573 H 314.558 -1.12877 3.06474 0
M  V30 3574 H 313.217 0.949929 3.54079 0
M  V30 3575 H 312.865 -1.11678 4.90446 0
M  V30 3576 H 312.565 0.35299 5.86539 0
M  V30 3577 H 314.089 -0.554214 6.0808 0
M  V30 3578 H 315.503 1.63997 5.49343 0
M  V30 3579 H 313.9 2.43112 5.4865 0
M  V30 3580 H 314.97 2.61304 4.08471 0
M  V30 3581 N 316.313 -1.40141 0.720998 0
M  V30 3582 C 317.59 -1.94677 0.189757 0
M  V30 3583 C 317.97 -1.65879 -1.30566 0
M  V30 3584 O 317.318 -0.979391 -2.06447 0
M  V30 3585 C 317.528 -3.45279 0.508304 0
M  V30 3586 C 318.876 -4.22209 0.449934 0
M  V30 3587 O 319.9 -3.53413 0.444677 0
M  V30 3588 O 318.759 -5.44788 0.432189 0
M  V30 3589 H 315.853 -0.826459 0.0299026 0
M  V30 3590 H 318.399 -1.49719 0.7989 0
M  V30 3591 H 317.171 -3.59619 1.54239 0
M  V30 3592 H 316.794 -3.97386 -0.130525 0
M  V30 3593 N 317.792 -0.46758 -1.50504 0
M  V30 3594 C 318.725 0.374324 -2.25109 0
M  V30 3595 C 319.703 0.99921 -1.28275 0
M  V30 3596 O 320.887 1.03583 -1.57489 0
M  V30 3597 C 318.014 1.52419 -3.02467 0
M  V30 3598 C 317.06 1.01702 -4.14197 0
M  V30 3599 S 317.893 -0.0654477 -5.3546 0
M  V30 3600 C 319.049 1.08837 -6.16365 0
M  V30 3601 H 319.282 -0.258983 -2.9617 0
M  V30 3602 H 316.815 -0.252421 -1.52323 0
M  V30 3603 H 318.773 2.18322 -3.47628 0
M  V30 3604 H 317.434 2.129 -2.30938 0
M  V30 3605 H 316.627 1.87776 -4.67714 0
M  V30 3606 H 316.229 0.435757 -3.71453 0
M  V30 3607 H 318.521 2.00071 -6.47285 0
M  V30 3608 H 319.464 0.592538 -7.05616 0
M  V30 3609 H 319.872 1.34061 -5.4835 0
M  V30 3610 N 319.27 1.56325 -0.20005 0
M  V30 3611 C 320.516 1.98772 0.431408 0
M  V30 3612 C 320.871 1.0849 1.58895 0
M  V30 3613 O 320.164 0.130331 1.91156 0
M  V30 3614 C 320.358 3.4495 0.935103 0
M  V30 3615 C 320.187 4.49371 -0.172096 0
M  V30 3616 C 318.957 5.0134 -0.631377 0
M  V30 3617 C 321.155 5.04822 -0.982806 0
M  V30 3618 N 319.137 5.89433 -1.71588 0
M  V30 3619 C 320.508 5.89632 -1.91661 0
M  V30 3620 C 322.563 4.87242 -1.02467 0
M  V30 3621 C 321.266 6.58741 -2.88881 0
M  V30 3622 C 323.292 5.57094 -1.98494 0
M  V30 3623 C 322.654 6.41655 -2.90617 0
M  V30 3624 H 318.753 0.771922 0.125144 0
M  V30 3625 H 321.337 1.92266 -0.306883 0
M  V30 3626 H 319.508 3.51946 1.64282 0
M  V30 3627 H 321.24 3.74354 1.53758 0
M  V30 3628 H 317.995 4.73071 -0.223827 0
M  V30 3629 H 318.419 6.38182 -2.25948 0
M  V30 3630 H 323.061 4.21538 -0.326408 0
M  V30 3631 H 320.779 7.23641 -3.5968 0
M  V30 3632 H 324.365 5.45466 -2.0238 0
M  V30 3633 H 323.245 6.94755 -3.63711 0
M  V30 3634 N 320.748 -0.0735177 1.57428 0
M  V30 3635 C 321.973 -0.789787 1.91774 0
M  V30 3636 C 322.398 -1.70413 0.796306 0
M  V30 3637 O 321.756 -1.79555 -0.250961 0
M  V30 3638 C 321.804 -1.5609 3.25067 0
M  V30 3639 O 320.908 -2.67144 3.14178 0
M  V30 3640 H 320.249 -0.215582 0.628029 0
M  V30 3641 H 322.779 -0.0422781 2.04556 0
M  V30 3642 H 322.789 -1.94052 3.58898 0
M  V30 3643 H 321.464 -0.890015 4.06265 0
M  V30 3644 H 320.041 -2.32052 2.91901 0
M  V30 3645 N 322.226 -1.5378 -0.344866 0
M  V30 3646 C 323.156 -1.84662 -1.42906 0
M  V30 3647 C 324.137 -0.701648 -1.54955 0
M  V30 3648 O 325.322 -0.953438 -1.69184 0
M  V30 3649 C 322.452 -2.05503 -2.79974 0
M  V30 3650 C 321.406 -3.21318 -2.82734 0
M  V30 3651 C 320.732 -3.2749 -4.22675 0
M  V30 3652 C 322.032 -4.59456 -2.48389 0
M  V30 3653 H 323.726 -2.75461 -1.17311 0
M  V30 3654 H 321.272 -1.32542 -0.562896 0
M  V30 3655 H 323.225 -2.25691 -3.55867 0
M  V30 3656 H 321.949 -1.11434 -3.07002 0
M  V30 3657 H 320.608 -3.00984 -2.09294 0
M  V30 3658 H 320.256 -2.31019 -4.4681 0
M  V30 3659 H 319.956 -4.05316 -4.25433 0
M  V30 3660 H 321.48 -3.49887 -5.00412 0
M  V30 3661 H 322.894 -4.79667 -3.13995 0
M  V30 3662 H 321.291 -5.39675 -2.62432 0
M  V30 3663 H 322.361 -4.63155 -1.4358 0
M  V30 3664 N 323.704 0.605807 -1.45491 0
M  V30 3665 C 324.952 1.36207 -1.49305 0
M  V30 3666 C 325.273 1.94519 -0.136863 0
M  V30 3667 O 324.543 1.77261 0.833983 0
M  V30 3668 H 323.123 0.50565 -0.549843 0
M  V30 3669 H 325.785 0.711239 -1.81459 0
M  V30 3670 H 324.881 2.18058 -2.23287 0
M  V30 3671 N 325.182 1.32811 0.848464 0
M  V30 3672 C 326.422 1.25046 1.61687 0
M  V30 3673 C 326.786 -0.183464 1.91121 0
M  V30 3674 O 327.987 -0.384937 2.66029 0
M  V30 3675 C 326.258 2.09201 2.89775 0
M  V30 3676 S 327.817 2.18526 3.80515 0
M  V30 3677 H 324.635 0.445023 0.554505 0
M  V30 3678 H 327.237 1.67733 1.00429 0
M  V30 3679 H 325.941 3.12433 2.66108 0
M  V30 3680 H 325.472 1.67315 3.56047 0
M  V30 3681 H 327.487 1.3393 4.77784 0
M  V30 3682 N 326.66 -1.06551 1.16123 0
M  V30 3683 C 327.593 -2.13382 0.80892 0
M  V30 3684 C 328.571 -1.61128 -0.21827 0
M  V30 3685 O 329.755 -1.88219 -0.102952 0
M  V30 3686 C 326.882 -3.38083 0.204303 0
M  V30 3687 C 325.928 -4.09133 1.20469 0
M  V30 3688 S 326.761 -4.5948 2.75024 0
M  V30 3689 C 327.917 -5.87446 2.16005 0
M  V30 3690 H 328.15 -2.42937 1.71373 0
M  V30 3691 H 325.683 -1.18947 0.984428 0
M  V30 3692 H 327.641 -4.10268 -0.138081 0
M  V30 3693 H 326.302 -3.0669 -0.678234 0
M  V30 3694 H 325.495 -4.98685 0.730019 0
M  V30 3695 H 325.097 -3.4295 1.49202 0
M  V30 3696 H 327.389 -6.60065 1.5271 0
M  V30 3697 H 328.332 -6.39639 3.03756 0
M  V30 3698 H 328.74 -5.41354 1.59989 0
M  V30 3699 N 328.138 -0.959301 -1.25041 0
M  V30 3700 C 329.068 -0.501388 -2.28053 0
M  V30 3701 C 330.049 0.454673 -1.63911 0
M  V30 3702 O 331.234 0.352618 -1.90972 0
M  V30 3703 C 328.364 0.217224 -3.4662 0
M  V30 3704 C 327.318 -0.654034 -4.22973 0
M  V30 3705 C 326.644 0.195589 -5.34342 0
M  V30 3706 C 327.944 -1.93447 -4.85155 0
M  V30 3707 H 329.638 -1.36238 -2.66608 0
M  V30 3708 H 327.184 -0.656534 -1.28163 0
M  V30 3709 H 329.137 0.548732 -4.17812 0
M  V30 3710 H 327.861 1.1125 -3.07068 0
M  V30 3711 H 326.52 -0.968693 -3.5357 0
M  V30 3712 H 326.168 1.09076 -4.91031 0
M  V30 3713 H 325.868 -0.384091 -5.86343 0
M  V30 3714 H 327.392 0.521958 -6.08365 0
M  V30 3715 H 328.806 -1.66908 -5.48466 0
M  V30 3716 H 327.203 -2.46018 -5.47353 0
M  V30 3717 H 328.273 -2.63466 -4.07079 0
M  V30 3718 N 329.616 1.39756 -0.72842 0
M  V30 3719 C 330.579 2.29012 -0.0927297 0
M  V30 3720 C 331.579 1.45992 0.674025 0
M  V30 3721 O 332.769 1.66749 0.50402 0
M  V30 3722 C 329.901 3.29396 0.878137 0
M  V30 3723 H 331.094 2.86729 -0.879011 0
M  V30 3724 H 328.647 1.48293 -0.493847 0
M  V30 3725 H 329.382 2.76722 1.69101 0
M  V30 3726 H 329.167 3.907 0.331051 0
M  V30 3727 H 330.657 3.96199 1.3197 0
M  V30 3728 N 331.094 0.475555 1.50254 0
M  V30 3729 C 332.319 -0.0777042 2.07254 0
M  V30 3730 C 332.744 -1.3235 1.3366 0
M  V30 3731 O 332.102 -1.77152 0.385597 0
M  V30 3732 C 332.15 -0.340169 3.58992 0
M  V30 3733 O 331.254 -1.41982 3.87188 0
M  V30 3734 H 330.595 0.0149556 0.663832 0
M  V30 3735 H 333.125 0.667878 1.93392 0
M  V30 3736 H 333.135 -0.579332 4.03866 0
M  V30 3737 H 331.81 0.570167 4.11973 0
M  V30 3738 H 330.387 -1.16762 3.54148 0
M  V30 3739 N 332.573 -1.56217 0.208337 0
M  V30 3740 C 333.506 -2.15633 -0.746842 0
M  V30 3741 C 334.484 -1.09685 -1.20034 0
M  V30 3742 O 335.668 -1.3787 -1.28547 0
M  V30 3743 C 332.795 -2.72594 -2.01023 0
M  V30 3744 C 331.841 -3.91251 -1.69779 0
M  V30 3745 S 332.674 -5.28962 -0.834209 0
M  V30 3746 C 333.83 -5.89353 -2.10745 0
M  V30 3747 H 334.063 -2.96315 -0.241789 0
M  V30 3748 H 331.596 -1.54398 -0.00682183 0
M  V30 3749 H 333.554 -3.06053 -2.73572 0
M  V30 3750 H 332.215 -1.91929 -2.48641 0
M  V30 3751 H 331.408 -4.29562 -2.63614 0
M  V30 3752 H 331.01 -3.58869 -1.05303 0
M  V30 3753 H 333.302 -6.04522 -3.05875 0
M  V30 3754 H 334.245 -6.85661 -1.76845 0
M  V30 3755 H 334.653 -5.1807 -2.24196 0
M  V30 3756 N 334.051 0.0651679 -1.57465 0
M  V30 3757 C 335.3 0.761916 -1.86756 0
M  V30 3758 C 335.613 1.78406 -0.801925 0
M  V30 3759 O 336.819 2.53084 -0.982885 0
M  V30 3760 C 335.275 1.40603 -3.31299 0
M  V30 3761 C 334.883 0.422115 -4.46007 0
M  V30 3762 C 336.627 2.08476 -3.69781 0
M  V30 3763 C 334.534 1.07252 -5.81593 0
M  V30 3764 H 333.464 0.288308 -0.696702 0
M  V30 3765 H 336.115 0.015344 -1.83494 0
M  V30 3766 H 334.497 2.20109 -3.29193 0
M  V30 3767 H 335.671 -0.343613 -4.59517 0
M  V30 3768 H 333.986 -0.152527 -4.16121 0
M  V30 3769 H 336.583 2.57925 -4.68379 0
M  V30 3770 H 336.926 2.88712 -2.99919 0
M  V30 3771 H 337.459 1.35792 -3.73905 0
M  V30 3772 H 334.198 0.310342 -6.54765 0
M  V30 3773 H 333.718 1.80895 -5.71872 0
M  V30 3774 H 335.397 1.59043 -6.27148 0
M  V30 3775 N 335.529 1.53961 0.336706 0
M  V30 3776 C 336.776 1.71536 1.07618 0
M  V30 3777 C 337.104 0.482125 1.8843 0
M  V30 3778 O 336.359 -0.536142 1.88213 0
M  V30 3779 C 336.658 2.93493 2.03953 0
M  V30 3780 C 336.324 4.28811 1.39399 0
M  V30 3781 C 334.986 4.65602 1.21523 0
M  V30 3782 C 337.338 5.12844 0.929541 0
M  V30 3783 C 334.666 5.84037 0.558312 0
M  V30 3784 C 337.018 6.31951 0.286505 0
M  V30 3785 C 335.682 6.67432 0.0954869 0
M  V30 3786 H 334.952 0.627696 0.393801 0
M  V30 3787 H 337.599 1.88186 0.354715 0
M  V30 3788 H 335.904 2.71475 2.82504 0
M  V30 3789 H 337.601 3.04285 2.61174 0
M  V30 3790 H 334.191 3.99858 1.54311 0
M  V30 3791 H 338.375 4.84947 1.05548 0
M  V30 3792 H 333.631 6.10097 0.398995 0
M  V30 3793 H 337.805 6.96352 -0.0814376 0
M  V30 3794 H 335.432 7.59063 -0.415579 0
M  V30 3795 N 337.007 -0.598083 1.45811 0
M  V30 3796 C 338.423 -0.919847 1.30426 0
M  V30 3797 C 338.623 -1.99759 0.264303 0
M  V30 3798 O 337.679 -2.50221 -0.338472 0
M  V30 3799 C 338.992 -1.35176 2.68603 0
M  V30 3800 C 340.54 -1.46546 2.76574 0
M  V30 3801 C 341.015 -1.9311 4.15298 0
M  V30 3802 N 342.506 -2.00328 4.1764 0
M  V30 3803 C 343.241 -2.37599 5.21856 0
M  V30 3804 N 342.737 -2.73771 6.36413 0
M  V30 3805 N 344.53 -2.38021 5.09218 0
M  V30 3806 H 336.681 0.114111 2.12093 0
M  V30 3807 H 338.944 -0.0116121 0.947929 0
M  V30 3808 H 338.65 -0.633969 3.45939 0
M  V30 3809 H 338.524 -2.3164 2.97696 0
M  V30 3810 H 340.911 -2.17415 1.99537 0
M  V30 3811 H 340.992 -0.483727 2.51185 0
M  V30 3812 H 340.636 -1.22824 4.92825 0
M  V30 3813 H 340.566 -2.92213 4.38086 0
M  V30 3814 H 343.057 -1.74925 3.34977 0
M  V30 3815 H 343.37 -3.0112 7.11721 0
M  V30 3816 H 341.715 -2.71445 6.39799 0
M  V30 3817 H 344.906 -2.09174 4.18765 0
M  V30 3818 H 345.079 -2.66741 5.90554 0
M  V30 3819 N 338.485 -1.33259 -0.841409 0
M  V30 3820 C 339.901 -1.12538 -1.13169 0
M  V30 3821 C 340.101 0.0854037 -2.01319 0
M  V30 3822 O 339.157 0.766417 -2.40587 0
M  V30 3823 C 340.47 -2.41156 -1.79623 0
M  V30 3824 C 342.018 -2.47038 -1.922 0
M  V30 3825 C 342.493 -3.7561 -2.6207 0
M  V30 3826 N 343.984 -3.76667 -2.69585 0
M  V30 3827 C 344.719 -4.72861 -3.2433 0
M  V30 3828 N 344.215 -5.79428 -3.79783 0
M  V30 3829 N 346.008 -4.6034 -3.22558 0
M  V30 3830 H 338.159 -2.10868 -0.254676 0
M  V30 3831 H 340.422 -0.931615 -0.175493 0
M  V30 3832 H 340.128 -3.29747 -1.22311 0
M  V30 3833 H 340.002 -2.53114 -2.79666 0
M  V30 3834 H 342.389 -1.58898 -2.48667 0
M  V30 3835 H 342.47 -2.39022 -0.911148 0
M  V30 3836 H 342.114 -4.64131 -2.06263 0
M  V30 3837 H 342.044 -3.80902 -3.63622 0
M  V30 3838 H 344.535 -2.99648 -2.30259 0
M  V30 3839 H 344.848 -6.48867 -4.19752 0
M  V30 3840 H 343.193 -5.83166 -3.78078 0
M  V30 3841 H 346.384 -3.76244 -2.78492 0
M  V30 3842 H 346.557 -5.35478 -3.64921 0
M  V30 3843 N 339.963 1.05934 -1.16686 0
M  V30 3844 C 340.873 2.17014 -0.891183 0
M  V30 3845 C 341.889 1.73453 0.137907 0
M  V30 3846 O 343.065 2.01361 -0.039592 0
M  V30 3847 C 340.13 3.44384 -0.400099 0
M  V30 3848 C 339.191 4.02433 -1.49486 0
M  V30 3849 C 338.424 5.23723 -1.02711 0
M  V30 3850 O 338.647 5.7027 0.121716 0
M  V30 3851 O 337.581 5.7382 -1.81699 0
M  V30 3852 H 341.407 2.43113 -1.82015 0
M  V30 3853 H 338.992 1.15541 -0.947132 0
M  V30 3854 H 340.874 4.21189 -0.133392 0
M  V30 3855 H 339.549 3.19802 0.500817 0
M  V30 3856 H 338.456 3.27102 -1.81535 0
M  V30 3857 H 339.789 4.31317 -2.37121 0
M  V30 3858 N 341.441 0.965919 1.2453 0
M  V30 3859 C 342.852 0.665929 1.7442 0
M  V30 3860 C 343.203 -0.818407 1.78316 0
M  V30 3861 O 342.328 -1.64037 1.41141 0
M  V30 3862 C 342.923 1.20211 3.16757 0
M  V30 3863 C 341.482 0.952059 3.6416 0
M  V30 3864 C 340.629 1.33848 2.42858 0
M  V30 3865 H 343.58 1.14144 1.10258 0
M  V30 3866 H 343.601 0.567544 3.76244 0
M  V30 3867 H 343.113 2.28244 3.13889 0
M  V30 3868 H 341.214 -0.112821 3.72429 0
M  V30 3869 H 341.327 1.59645 4.51719 0
M  V30 3870 H 339.691 0.756864 2.43195 0
M  V30 3871 H 340.474 2.42827 2.42673 0
M  V30 3872 N 342.919 -1.39368 0.735821 0
M  V30 3873 C 344.166 -2.00497 0.284123 0
M  V30 3874 C 344.494 -1.58387 -1.12889 0
M  V30 3875 O 343.749 -0.804359 -1.78406 0
M  V30 3876 C 344.048 -3.5583 0.334651 0
M  V30 3877 C 343.714 -4.17593 1.7008 0
M  V30 3878 C 342.376 -4.34176 2.07472 0
M  V30 3879 C 344.728 -4.51848 2.59775 0
M  V30 3880 C 342.056 -4.82304 3.34065 0
M  V30 3881 C 344.408 -5.01384 3.85741 0
M  V30 3882 C 343.072 -5.16175 4.23225 0
M  V30 3883 H 342.342 -0.73367 0.103968 0
M  V30 3884 H 344.989 -1.66683 0.942825 0
M  V30 3885 H 343.294 -3.89674 -0.407625 0
M  V30 3886 H 344.991 -4.00986 -0.0329927 0
M  V30 3887 H 341.581 -4.05087 1.40008 0
M  V30 3888 H 345.765 -4.38653 2.32157 0
M  V30 3889 H 341.021 -4.91941 3.63049 0
M  V30 3890 H 345.195 -5.26863 4.55399 0
M  V30 3891 H 342.822 -5.5323 5.21384 0
M  V30 3892 N 344.397 -0.483516 -1.5 0
M  V30 3893 C 345.644 0.0671597 -2.02389 0
M  V30 3894 C 345.972 1.38597 -1.36459 0
M  V30 3895 O 345.227 1.89634 -0.483458 0
M  V30 3896 C 345.526 0.286226 -3.56252 0
M  V30 3897 C 345.192 -0.952416 -4.40726 0
M  V30 3898 C 343.854 -1.29199 -4.63531 0
M  V30 3899 C 346.206 -1.77655 -4.89988 0
M  V30 3900 C 343.534 -2.45553 -5.32842 0
M  V30 3901 C 345.886 -2.93147 -5.60578 0
M  V30 3902 C 344.55 -3.27505 -5.81633 0
M  V30 3903 H 343.82 0.0245755 -0.740592 0
M  V30 3904 H 346.467 -0.640124 -1.80485 0
M  V30 3905 H 344.772 1.07587 -3.76739 0
M  V30 3906 H 346.469 0.726473 -3.94365 0
M  V30 3907 H 343.059 -0.677881 -4.23205 0
M  V30 3908 H 347.243 -1.52737 -4.72213 0
M  V30 3909 H 342.499 -2.72431 -5.47349 0
M  V30 3910 H 346.673 -3.57344 -5.97727 0
M  V30 3911 H 344.3 -4.1777 -6.35116 0
M  V30 3912 N 345.875 1.56104 -0.216619 0
M  V30 3913 C 346.825 2.16703 0.708798 0
M  V30 3914 C 347.809 1.11392 1.16106 0
M  V30 3915 O 349.001 1.37395 1.11587 0
M  V30 3916 C 346.13 2.84666 1.91886 0
M  V30 3917 C 345.216 3.97195 1.48651 0
M  V30 3918 N 345.607 4.99959 0.766434 0
M  V30 3919 C 343.905 4.09193 1.77418 0
M  V30 3920 C 344.606 5.79126 0.546659 0
M  V30 3921 N 343.582 5.32315 1.10188 0
M  V30 3922 H 347.384 2.93516 0.150162 0
M  V30 3923 H 344.898 1.6239 -0.0176768 0
M  V30 3924 H 346.895 3.26486 2.59253 0
M  V30 3925 H 345.555 2.09347 2.48202 0
M  V30 3926 H 346.566 5.16197 0.419634 0
M  V30 3927 H 343.243 3.45021 2.35088 0
M  V30 3928 H 344.633 6.71895 -0.026103 0
M  V30 3929 N 347.353 -0.0568162 1.57498 0
M  V30 3930 C 348.601 -0.751617 1.87604 0
M  V30 3931 C 348.922 -1.77351 0.81066 0
M  V30 3932 O 348.192 -1.95254 -0.159018 0
M  V30 3933 H 346.772 -0.280583 0.692302 0
M  V30 3934 H 349.434 -0.0293483 1.94878 0
M  V30 3935 H 348.53 -1.25852 2.856 0
M  V30 3936 N 348.832 -1.54138 -0.328536 0
M  V30 3937 C 349.764 -1.79509 -1.4251 0
M  V30 3938 C 350.777 -0.67688 -1.48061 0
M  V30 3939 O 351.966 -0.953898 -1.50874 0
M  V30 3940 C 349.066 -1.89337 -2.81078 0
M  V30 3941 C 348.239 -3.19443 -2.98789 0
M  V30 3942 C 347.298 -3.20036 -4.17688 0
M  V30 3943 O 346.324 -3.93697 -4.11086 0
M  V30 3944 N 347.526 -2.43467 -5.26976 0
M  V30 3945 H 350.291 -2.74139 -1.21111 0
M  V30 3946 H 347.852 -1.53373 -0.518499 0
M  V30 3947 H 349.844 -1.87167 -3.58818 0
M  V30 3948 H 348.414 -1.01826 -2.95551 0
M  V30 3949 H 347.634 -3.34614 -2.08391 0
M  V30 3950 H 348.922 -4.05354 -3.07515 0
M  V30 3951 H 348.32 -1.83201 -5.35214 0
M  V30 3952 H 346.877 -2.4708 -6.03154 0
M  V30 3953 N 350.31 0.590341 -1.46126 0
M  V30 3954 C 351.587 1.35029 -1.41515 0
M  V30 3955 C 351.967 2.10888 -0.0946472 0
M  V30 3956 O 351.315 2.08998 0.923693 0
M  V30 3957 C 351.525 2.28269 -2.63997 0
M  V30 3958 C 352.873 2.90338 -3.09821 0
M  V30 3959 O 353.897 2.38585 -2.64492 0
M  V30 3960 O 352.756 3.84321 -3.88535 0
M  V30 3961 H 349.85 0.606317 -0.562413 0
M  V30 3962 H 352.396 0.611994 -1.58281 0
M  V30 3963 H 351.168 1.71591 -3.51671 0
M  V30 3964 H 350.791 3.0945 -2.49652 0
M  V30 3965 N 351.788 1.33704 0.83433 0
M  V30 3966 C 352.736 1.24323 1.96587 0
M  V30 3967 C 353.73 0.143659 1.6879 0
M  V30 3968 O 354.936 0.30791 1.77347 0
M  V30 3969 H 351.311 0.385925 0.645419 0
M  V30 3970 H 353.282 2.19978 2.01624 0
M  V30 3971 C 352.031 1.00394 3.32891 0
M  V30 3972 H 351.354 1.84231 3.54822 0
M  V30 3973 H 352.794 0.97862 4.12552 0
M  V30 3974 C 351.253 -0.293047 3.35623 0
M  V30 3975 O 351.783 -1.29823 3.80143 0
M  V30 3976 N 349.989 -0.322174 2.88809 0
M  V30 3977 H 349.536 0.496379 2.52772 0
M  V30 3978 H 349.494 -1.18977 2.91019 0
M  V30 3979 N 353.266 -1.05314 1.17247 0
M  V30 3980 C 354.496 -1.81707 0.983166 0
M  V30 3981 C 354.904 -1.83222 -0.471822 0
M  V30 3982 O 354.247 -1.25721 -1.3394 0
M  V30 3983 C 354.309 -3.29134 1.44606 0
M  V30 3984 C 353.973 -3.51304 2.92292 0
M  V30 3985 C 354.97 -3.4353 3.90235 0
M  V30 3986 C 352.655 -3.78306 3.30439 0
M  V30 3987 C 354.649 -3.62442 5.24323 0
M  V30 3988 C 352.336 -3.96866 4.64694 0
M  V30 3989 C 353.334 -3.88933 5.61445 0
M  V30 3990 O 353.022 -4.06976 6.93272 0
M  V30 3991 H 352.754 -0.579476 0.348114 0
M  V30 3992 H 355.308 -1.33705 1.55924 0
M  V30 3993 H 353.538 -3.78046 0.813537 0
M  V30 3994 H 355.227 -3.87049 1.22262 0
M  V30 3995 H 355.993 -3.22648 3.62109 0
M  V30 3996 H 351.872 -3.83585 2.55702 0
M  V30 3997 H 355.416 -3.56165 5.99827 0
M  V30 3998 H 351.313 -4.1724 4.92525 0
M  V30 3999 H 352.081 -4.24209 6.99992 0
M  V30 4000 N 354.744 -0.972509 -1.24016 0
M  V30 4001 C 356.021 -0.553733 -1.87598 0
M  V30 4002 C 356.401 0.969158 -1.87538 0
M  V30 4003 O 355.749 1.84255 -1.35139 0
M  V30 4004 C 355.959 -1.15076 -3.29482 0
M  V30 4005 C 357.307 -1.23862 -4.06132 0
M  V30 4006 O 358.331 -1.10363 -3.38672 0
M  V30 4007 O 357.19 -1.45252 -5.26844 0
M  V30 4008 H 354.284 -0.185331 -0.805966 0
M  V30 4009 H 356.83 -1.06709 -1.31952 0
M  V30 4010 H 355.602 -2.19333 -3.2405 0
M  V30 4011 H 355.225 -0.621746 -3.92709 0
M  V30 4012 N 356.222 1.38976 -0.743202 0
M  V30 4013 C 357.154 2.29096 -0.0689228 0
M  V30 4014 C 358.167 1.47229 0.694791 0
M  V30 4015 O 359.356 1.70212 0.537597 0
M  V30 4016 C 356.456 3.25988 0.926548 0
M  V30 4017 C 355.629 4.36833 0.222647 0
M  V30 4018 C 354.688 5.13981 1.12739 0
M  V30 4019 O 353.714 5.6601 0.601795 0
M  V30 4020 N 354.916 5.25966 2.45641 0
M  V30 4021 H 357.681 2.87604 -0.842846 0
M  V30 4022 H 355.242 1.50645 -0.593109 0
M  V30 4023 H 357.234 3.74476 1.5346 0
M  V30 4024 H 355.804 2.68453 1.60162 0
M  V30 4025 H 355.024 3.90116 -0.565983 0
M  V30 4026 H 356.312 5.0811 -0.264841 0
M  V30 4027 H 355.71 4.85228 2.9081 0
M  V30 4028 H 354.267 5.77865 3.01522 0
M  V30 4029 N 357.7 0.491464 1.49741 0
M  V30 4030 C 358.63 -0.28154 2.31796 0
M  V30 4031 C 359.611 -0.971473 1.3963 0
M  V30 4032 O 360.796 -0.964719 1.68543 0
M  V30 4033 C 357.926 -1.35203 3.19902 0
M  V30 4034 C 356.88 -0.782529 4.20786 0
M  V30 4035 C 356.206 -1.95283 4.97764 0
M  V30 4036 C 357.506 0.21999 5.21837 0
M  V30 4037 H 359.2 0.403355 2.96671 0
M  V30 4038 H 356.746 0.195425 1.42668 0
M  V30 4039 H 358.699 -1.90045 3.76113 0
M  V30 4040 H 357.423 -2.06598 2.52953 0
M  V30 4041 H 356.082 -0.255928 3.65706 0
M  V30 4042 H 355.73 -2.65423 4.2727 0
M  V30 4043 H 355.43 -1.57789 5.66018 0
M  V30 4044 H 356.954 -2.50577 5.56816 0
M  V30 4045 H 358.368 -0.23996 5.72798 0
M  V30 4046 H 356.765 0.51026 5.97927 0
M  V30 4047 H 357.835 1.13911 4.7133 0
M  V30 4048 N 359.178 -1.55987 0.224894 0
M  V30 4049 C 360.424 -1.98684 -0.406502 0
M  V30 4050 C 360.757 -1.11248 -1.59177 0
M  V30 4051 O 360.032 -0.170909 -1.93748 0
M  V30 4052 C 360.315 -3.50218 -0.837808 0
M  V30 4053 C 360.168 -4.48426 0.351332 0
M  V30 4054 C 361.487 -4.06243 -1.69278 0
M  V30 4055 H 358.606 -0.722337 -0.146283 0
M  V30 4056 H 361.248 -1.87255 0.321799 0
M  V30 4057 H 359.398 -3.60089 -1.45837 0
M  V30 4058 H 361.07 -4.50562 0.989526 0
M  V30 4059 H 359.313 -4.22159 0.998207 0
M  V30 4060 H 359.984 -5.52 0.00655905 0
M  V30 4061 H 362.46 -3.99337 -1.16914 0
M  V30 4062 H 361.336 -5.12581 -1.96346 0
M  V30 4063 H 361.597 -3.53332 -2.65723 0
M  V30 4064 N 360.656 0.0484629 -1.57525 0
M  V30 4065 C 362.072 0.40375 -1.54409 0
M  V30 4066 C 362.272 1.77786 -0.948384 0
M  V30 4067 O 361.328 2.46189 -0.560983 0
M  V30 4068 C 362.641 0.323394 -2.98956 0
M  V30 4069 C 364.189 0.401892 -3.10409 0
M  V30 4070 C 364.664 0.351195 -4.56652 0
M  V30 4071 N 366.155 0.410576 -4.61377 0
M  V30 4072 C 366.89 0.393933 -5.72045 0
M  V30 4073 N 366.386 0.330724 -6.9201 0
M  V30 4074 N 368.179 0.442227 -5.60358 0
M  V30 4075 H 360.33 -0.851016 -1.94606 0
M  V30 4076 H 362.593 -0.321721 -0.89174 0
M  V30 4077 H 362.299 -0.62011 -3.4619 0
M  V30 4078 H 362.173 1.12463 -3.60044 0
M  V30 4079 H 364.56 1.33582 -2.63134 0
M  V30 4080 H 364.641 -0.428342 -2.52188 0
M  V30 4081 H 364.285 -0.578987 -5.04589 0
M  V30 4082 H 364.215 1.19928 -5.12762 0
M  V30 4083 H 366.706 0.462729 -3.75056 0
M  V30 4084 H 367.019 0.322592 -7.72126 0
M  V30 4085 H 365.364 0.29706 -6.94365 0
M  V30 4086 H 368.555 0.489464 -4.65534 0
M  V30 4087 H 368.728 0.425788 -6.466 0
M  V30 4088 N 362.134 1.5431 0.320358 0
M  V30 4089 C 363.383 1.7188 1.05546 0
M  V30 4090 C 363.696 0.501143 1.89071 0
M  V30 4091 O 364.902 0.558258 2.65699 0
M  V30 4092 C 363.358 3.04025 1.92605 0
M  V30 4093 C 362.966 4.33207 1.14176 0
M  V30 4094 C 364.71 3.30959 2.65832 0
M  V30 4095 C 362.617 5.56412 2.00399 0
M  V30 4096 H 361.547 0.640547 0.397763 0
M  V30 4097 H 364.198 1.80802 0.313522 0
M  V30 4098 H 362.58 2.89019 2.7071 0
M  V30 4099 H 363.754 4.58989 0.40819 0
M  V30 4100 H 362.069 4.13062 0.526165 0
M  V30 4101 H 364.666 4.20203 3.30656 0
M  V30 4102 H 365.009 2.48979 3.33639 0
M  V30 4103 H 365.542 3.46847 1.94787 0
M  V30 4104 H 362.281 6.41004 1.37094 0
M  V30 4105 H 361.801 5.34844 2.7148 0
M  V30 4106 H 363.48 5.92938 2.58908 0
M  V30 4107 N 363.613 -0.582584 1.46437 0
M  V30 4108 C 364.576 -1.67366 1.56592 0
M  V30 4109 C 365.576 -1.54575 0.443072 0
M  V30 4110 O 366.766 -1.59191 0.707381 0
M  V30 4111 C 363.898 -3.06791 1.48634 0
M  V30 4112 H 365.091 -1.5972 2.5383 0
M  V30 4113 H 362.644 -0.800432 1.34249 0
M  V30 4114 H 363.379 -3.19993 0.526763 0
M  V30 4115 H 363.164 -3.17484 2.30101 0
M  V30 4116 H 364.654 -3.86218 1.58826 0
M  V30 4117 N 365.091 -1.34144 -0.827227 0
M  V30 4118 C 366.038 -1.25364 -1.93785 0
M  V30 4119 C 367.008 -0.129774 -1.65592 0
M  V30 4120 O 368.193 -0.310024 -1.88264 0
M  V30 4121 C 365.333 -1.01064 -3.2997 0
M  V30 4122 C 364.446 -2.22185 -3.70484 0
M  V30 4123 C 363.581 -1.91203 -4.95595 0
M  V30 4124 C 362.62 -3.08491 -5.28677 0
M  V30 4125 N 361.757 -2.77421 -6.44967 0
M  V30 4126 H 366.597 -2.20347 -2.00627 0
M  V30 4127 H 364.134 -1.09558 -0.981608 0
M  V30 4128 H 366.092 -0.850139 -4.08446 0
M  V30 4129 H 364.722 -0.0975026 -3.22653 0
M  V30 4130 H 363.774 -2.4917 -2.87434 0
M  V30 4131 H 365.086 -3.0983 -3.90905 0
M  V30 4132 H 364.24 -1.71864 -5.81848 0
M  V30 4133 H 362.979 -1.00812 -4.77167 0
M  V30 4134 H 361.984 -3.28431 -4.40923 0
M  V30 4135 H 363.209 -3.99655 -5.49047 0
M  V30 4136 H 361.155 -1.89601 -6.28003 0
M  V30 4137 H 361.072 -3.58598 -6.6554 0
M  V30 4138 H 362.34 -2.61577 -7.34301 0
M  V30 4139 N 366.569 1.04691 -1.17803 0
M  V30 4140 C 367.815 1.78045 -0.970969 0
M  V30 4141 C 368.148 1.87686 0.498751 0
M  V30 4142 O 367.423 1.38035 1.37027 0
M  V30 4143 C 367.706 3.2166 -1.61884 0
M  V30 4144 C 367.559 3.20001 -3.161 0
M  V30 4145 C 368.878 4.1962 -1.3269 0
M  V30 4146 H 365.997 0.64633 -0.354155 0
M  V30 4147 H 368.639 1.22333 -1.45378 0
M  V30 4148 H 366.789 3.69232 -1.20831 0
M  V30 4149 H 368.461 2.80467 -3.66246 0
M  V30 4150 H 366.704 2.58203 -3.48588 0
M  V30 4151 H 367.375 4.21386 -3.56564 0
M  V30 4152 H 369.851 3.80567 -1.68249 0
M  V30 4153 H 368.727 5.18339 -1.80599 0
M  V30 4154 H 368.988 4.414 -0.248622 0
M  V30 4155 N 368.047 0.979072 1.23499 0
M  V30 4156 C 368.977 0.537606 2.27227 0
M  V30 4157 C 369.958 -0.428539 1.64613 0
M  V30 4158 O 371.143 -0.322191 1.91509 0
M  V30 4159 C 368.273 -0.162052 3.46922 0
M  V30 4160 C 367.227 0.721242 4.21879 0
M  V30 4161 C 366.553 -0.110555 5.34586 0
M  V30 4162 C 367.853 2.01141 4.82016 0
M  V30 4163 H 369.547 1.40462 2.64406 0
M  V30 4164 H 367.093 0.67684 1.27102 0
M  V30 4165 H 369.046 -0.482192 4.18632 0
M  V30 4166 H 367.77 -1.06351 3.08799 0
M  V30 4167 H 366.429 1.02482 3.51984 0
M  V30 4168 H 366.077 -1.0125 4.92704 0
M  V30 4169 H 365.777 0.477325 5.85658 0
M  V30 4170 H 367.301 -0.425107 6.09118 0
M  V30 4171 H 368.715 1.75612 5.45741 0
M  V30 4172 H 367.112 2.54695 5.43369 0
M  V30 4173 H 368.182 2.69909 4.02836 0
M  V30 4174 N 369.525 -1.3858 0.750561 0
M  V30 4175 C 370.773 -1.99789 0.30477 0
M  V30 4176 C 371.094 -1.59874 -1.11649 0
M  V30 4177 O 370.364 -0.85417 -1.76297 0
M  V30 4178 H 368.944 -0.738902 0.109694 0
M  V30 4179 H 371.606 -1.69391 0.963983 0
M  V30 4180 H 370.702 -3.09952 0.365499 0
M  V30 4181 N 371.003 -0.499398 -1.49478 0
M  V30 4182 C 372.231 0.0425456 -2.06856 0
M  V30 4183 C 372.646 1.30964 -1.35992 0
M  V30 4184 O 372.003 1.77172 -0.437762 0
M  V30 4185 C 372.054 0.301735 -3.60239 0
M  V30 4186 O 371.775 -0.915127 -4.28436 0
M  V30 4187 C 373.276 0.887499 -4.34325 0
M  V30 4188 H 370.496 -0.0197482 -0.670709 0
M  V30 4189 H 373.04 -0.696297 -1.92281 0
M  V30 4190 H 371.195 0.990556 -3.74522 0
M  V30 4191 H 371.609 -0.676993 -5.20113 0
M  V30 4192 H 373.083 1.01845 -5.42523 0
M  V30 4193 H 373.56 1.88488 -3.96698 0
M  V30 4194 H 374.166 0.236196 -4.24644 0
M  V30 4195 N 372.481 1.55866 -0.233164 0
M  V30 4196 C 373.391 2.24431 0.683217 0
M  V30 4197 C 374.407 1.2558 1.2044 0
M  V30 4198 O 375.583 1.58422 1.24356 0
M  V30 4199 C 372.648 2.91979 1.86947 0
M  V30 4200 C 371.709 4.06204 1.38912 0
M  V30 4201 C 370.942 4.70522 2.51883 0
M  V30 4202 O 371.165 4.33865 3.70293 0
M  V30 4203 O 370.099 5.59296 2.22423 0
M  V30 4204 H 373.925 3.03426 0.129059 0
M  V30 4205 H 371.51 1.494 -0.0022283 0
M  V30 4206 H 373.392 3.34573 2.56201 0
M  V30 4207 H 372.067 2.15935 2.41151 0
M  V30 4208 H 370.974 3.68155 0.664259 0
M  V30 4209 H 372.307 4.84025 0.893328 0
M  V30 4210 N 373.959 -0.0401083 1.57549 0
M  V30 4211 C 374.869 -1.06133 2.0922 0
M  V30 4212 C 375.885 -1.40356 1.0284 0
M  V30 4213 O 377.061 -1.49897 1.34509 0
M  V30 4214 C 374.126 -2.34658 2.55218 0
M  V30 4215 C 373.187 -2.07117 3.76033 0
M  V30 4216 C 372.42 -3.29514 4.19829 0
M  V30 4217 O 372.643 -4.39794 3.63232 0
M  V30 4218 O 371.577 -3.15863 5.12362 0
M  V30 4219 H 375.403 -0.652244 2.96613 0
M  V30 4220 H 372.988 -0.256368 1.47184 0
M  V30 4221 H 374.87 -3.10239 2.85184 0
M  V30 4222 H 373.545 -2.74883 1.70941 0
M  V30 4223 H 372.452 -1.29139 3.51104 0
M  V30 4224 H 373.785 -1.71754 4.61261 0
M  V30 4225 N 375.437 -1.54477 -0.31217 0
M  V30 4226 C 376.367 -1.87652 -1.38957 0
M  V30 4227 C 377.348 -0.734358 -1.53431 0
M  V30 4228 O 378.533 -0.98911 -1.67123 0
M  V30 4229 C 375.663 -2.11396 -2.75552 0
M  V30 4230 C 374.617 -3.27243 -2.75855 0
M  V30 4231 C 373.943 -3.36382 -4.15633 0
M  V30 4232 C 375.243 -4.64622 -2.38587 0
M  V30 4233 H 376.937 -2.77887 -1.11442 0
M  V30 4234 H 374.483 -1.33707 -0.534655 0
M  V30 4235 H 376.436 -2.33189 -3.51 0
M  V30 4236 H 375.16 -1.17921 -3.04569 0
M  V30 4237 H 373.819 -3.05356 -2.02863 0
M  V30 4238 H 373.467 -2.40445 -4.41809 0
M  V30 4239 H 373.167 -4.14249 -4.1674 0
M  V30 4240 H 374.691 -3.60422 -4.92877 0
M  V30 4241 H 376.105 -4.86219 -3.03749 0
M  V30 4242 H 374.502 -5.45121 -2.50925 0
M  V30 4243 H 375.572 -4.66097 -1.33723 0
M  V30 4244 N 376.915 0.57481 -1.46744 0
M  V30 4245 C 378.145 1.35659 -1.55821 0
M  V30 4246 C 378.553 1.88129 -0.201036 0
M  V30 4247 O 377.896 1.64723 0.813134 0
M  V30 4248 C 377.958 2.57473 -2.50894 0
M  V30 4249 C 377.622 2.26415 -3.9697 0
M  V30 4250 C 378.619 1.84771 -4.85958 0
M  V30 4251 C 376.304 2.38316 -4.42166 0
M  V30 4252 C 378.298 1.55434 -6.18158 0
M  V30 4253 C 375.985 2.08591 -5.74398 0
M  V30 4254 C 376.983 1.67216 -6.62214 0
M  V30 4255 O 376.671 1.37859 -7.91991 0
M  V30 4256 H 376.403 0.420496 -0.529301 0
M  V30 4257 H 378.957 0.704967 -1.92923 0
M  V30 4258 H 377.187 3.25468 -2.08824 0
M  V30 4259 H 378.876 3.19546 -2.50291 0
M  V30 4260 H 379.642 1.75085 -4.52295 0
M  V30 4261 H 375.521 2.69483 -3.74032 0
M  V30 4262 H 379.065 1.23065 -6.86659 0
M  V30 4263 H 374.962 2.17905 -6.07608 0
M  V30 4264 H 375.73 1.51638 -8.04331 0
M  V30 4265 N 378.394 1.34581 0.820102 0
M  V30 4266 C 379.642 1.26845 1.57336 0
M  V30 4267 C 379.963 -0.160667 1.94337 0
M  V30 4268 O 379.233 -1.09396 1.6251 0
M  V30 4269 H 377.813 0.466514 0.583415 0
M  V30 4270 H 380.475 1.68526 0.979027 0
M  V30 4271 H 379.571 1.87513 2.4949 0
M  V30 4272 N 379.872 -1.04064 1.18357 0
M  V30 4273 C 381.102 -1.80654 1.00238 0
M  V30 4274 C 381.51 -1.83713 -0.452362 0
M  V30 4275 O 380.853 -1.27135 -1.32599 0
M  V30 4276 C 380.915 -3.27582 1.48088 0
M  V30 4277 C 380.579 -3.48184 2.96002 0
M  V30 4278 C 381.576 -3.39372 3.93856 0
M  V30 4279 C 379.261 -3.7478 3.34433 0
M  V30 4280 C 381.255 -3.5686 5.28138 0
M  V30 4281 C 378.942 -3.91915 4.68877 0
M  V30 4282 C 379.94 -3.82956 5.65539 0
M  V30 4283 O 379.628 -3.996 6.97549 0
M  V30 4284 H 379.36 -0.575751 0.354241 0
M  V30 4285 H 381.914 -1.32044 1.57333 0
M  V30 4286 H 380.144 -3.77161 0.853588 0
M  V30 4287 H 381.833 -3.8573 1.2636 0
M  V30 4288 H 382.599 -3.18789 3.65511 0
M  V30 4289 H 378.478 -3.80852 2.59756 0
M  V30 4290 H 382.022 -3.49783 6.03571 0
M  V30 4291 H 377.919 -4.11992 4.96923 0
M  V30 4292 H 378.687 -4.1676 7.04452 0
M  V30 4293 N 381.35 -0.985608 -1.22978 0
M  V30 4294 C 382.28 -0.549649 -2.26939 0
M  V30 4295 C 383.261 0.419803 -1.64838 0
M  V30 4296 O 384.446 0.31203 -1.91677 0
M  V30 4297 C 381.576 0.143652 -3.47003 0
M  V30 4298 C 380.53 -0.743606 -4.21491 0
M  V30 4299 C 379.856 0.0822027 -5.34637 0
M  V30 4300 C 381.156 -2.03694 -4.80943 0
M  V30 4301 H 382.85 -1.41862 -2.63658 0
M  V30 4302 H 380.396 -0.683571 -1.26741 0
M  V30 4303 H 382.349 0.459985 -4.18882 0
M  V30 4304 H 381.073 1.04711 -3.09359 0
M  V30 4305 H 379.732 -1.04347 -3.51436 0
M  V30 4306 H 379.38 0.986359 -4.93234 0
M  V30 4307 H 379.08 -0.508377 -5.85397 0
M  V30 4308 H 380.604 0.392797 -6.09335 0
M  V30 4309 H 382.018 -1.78504 -5.44802 0
M  V30 4310 H 380.415 -2.57573 -5.42011 0
M  V30 4311 H 381.485 -2.72042 -4.01399 0
M  V30 4312 N 382.828 1.3818 -0.7579 0
M  V30 4313 C 383.775 2.30416 -0.133057 0
M  V30 4314 C 384.745 1.50398 0.704957 0
M  V30 4315 O 385.93 1.79014 0.660192 0
M  V30 4316 C 383.07 3.36834 0.750813 0
M  V30 4317 C 382.183 4.31879 -0.102297 0
M  V30 4318 C 381.318 5.25368 0.784979 0
M  V30 4319 C 380.357 6.12058 -0.0715046 0
M  V30 4320 N 379.494 6.97832 0.772972 0
M  V30 4321 H 384.334 2.83274 -0.925186 0
M  V30 4322 H 381.871 1.39461 -0.467866 0
M  V30 4323 H 383.829 3.97145 1.27794 0
M  V30 4324 H 382.459 2.85374 1.50868 0
M  V30 4325 H 381.511 3.72991 -0.747095 0
M  V30 4326 H 382.823 4.92921 -0.763552 0
M  V30 4327 H 381.977 5.90818 1.37911 0
M  V30 4328 H 380.716 4.64703 1.47996 0
M  V30 4329 H 379.721 5.456 -0.678272 0
M  V30 4330 H 380.946 6.74793 -0.763606 0
M  V30 4331 H 378.892 6.3971 1.45282 0
M  V30 4332 H 378.809 7.55812 0.168709 0
M  V30 4333 H 380.077 7.67687 1.35194 0
M  V30 4334 N 384.306 0.507319 1.49211 0
M  V30 4335 C 385.253 -0.267728 2.29242 0
M  V30 4336 C 386.223 -0.954609 1.35928 0
M  V30 4337 O 387.408 -0.960046 1.64887 0
M  V30 4338 C 384.548 -1.32243 3.18756 0
M  V30 4339 C 383.661 -0.64669 4.27132 0
M  V30 4340 C 382.796 -1.68238 5.03855 0
M  V30 4341 C 381.835 -0.98885 6.0406 0
M  V30 4342 N 380.972 -1.96903 6.73924 0
M  V30 4343 H 385.812 0.420968 2.95012 0
M  V30 4344 H 383.349 0.219443 1.45454 0
M  V30 4345 H 385.307 -1.94599 3.69036 0
M  V30 4346 H 383.937 -1.97981 2.54958 0
M  V30 4347 H 382.989 0.0902926 3.80293 0
M  V30 4348 H 384.301 -0.101058 4.98698 0
M  V30 4349 H 383.455 -2.38081 5.58034 0
M  V30 4350 H 382.194 -2.26187 4.32077 0
M  V30 4351 H 381.199 -0.276222 5.49106 0
M  V30 4352 H 382.424 -0.415767 6.77826 0
M  V30 4353 H 380.37 -2.53803 6.04913 0
M  V30 4354 H 380.287 -1.47423 7.41487 0
M  V30 4355 H 381.555 -2.66015 7.32705 0
M  V30 4356 N 385.784 -1.5574 0.241426 0
M  V30 4357 C 387.014 -2.02913 -0.38857 0
M  V30 4358 C 387.422 -1.12014 -1.52478 0
M  V30 4359 O 386.765 -0.125903 -1.83268 0
M  V30 4360 C 386.827 -3.4636 -0.963075 0
M  V30 4361 C 386.491 -4.56982 0.0401916 0
M  V30 4362 C 387.488 -5.12941 0.847766 0
M  V30 4363 C 385.173 -5.0203 0.164699 0
M  V30 4364 C 387.167 -6.12437 1.76636 0
M  V30 4365 C 384.854 -6.01358 1.0868 0
M  V30 4366 C 385.852 -6.5644 1.88616 0
M  V30 4367 O 385.54 -7.53831 2.79273 0
M  V30 4368 H 385.272 -0.668983 -0.0971452 0
M  V30 4369 H 387.826 -2.02198 0.361248 0
M  V30 4370 H 386.056 -3.44206 -1.76235 0
M  V30 4371 H 387.745 -3.77065 -1.50257 0
M  V30 4372 H 388.511 -4.78974 0.762133 0
M  V30 4373 H 384.39 -4.58824 -0.447411 0
M  V30 4374 H 387.934 -6.55355 2.39071 0
M  V30 4375 H 383.831 -6.34746 1.17338 0
M  V30 4376 H 384.599 -7.71428 2.73572 0
M  V30 4377 N 387.262 0.0317525 -1.57568 0
M  V30 4378 C 388.212 1.04101 -2.02847 0
M  V30 4379 C 389.196 1.3219 -0.917317 0
M  V30 4380 O 390.388 1.31819 -1.18121 0
M  V30 4381 C 387.517 2.34295 -2.5092 0
M  V30 4382 C 386.603 2.09308 -3.68851 0
M  V30 4383 N 386.994 1.5437 -4.81667 0
M  V30 4384 C 385.292 2.39604 -3.76172 0
M  V30 4385 C 385.993 1.45126 -5.63306 0
M  V30 4386 N 384.969 1.92589 -5.08341 0
M  V30 4387 H 388.771 0.610217 -2.87495 0
M  V30 4388 H 386.285 0.238108 -1.60645 0
M  V30 4389 H 388.282 3.07404 -2.81617 0
M  V30 4390 H 386.942 2.78055 -1.67677 0
M  V30 4391 H 387.953 1.22678 -5.03161 0
M  V30 4392 H 384.63 2.86457 -3.03724 0
M  V30 4393 H 386.02 1.03163 -6.63933 0
M  V30 4394 N 388.74 1.54641 0.303973 0
M  V30 4395 C 389.989 1.7299 1.03717 0
M  V30 4396 C 390.302 0.521168 1.88529 0
M  V30 4397 O 391.508 0.586408 2.65092 0
M  V30 4398 C 389.964 3.06051 1.89369 0
M  V30 4399 C 389.572 4.34393 1.09574 0
M  V30 4400 C 391.316 3.3376 2.62306 0
M  V30 4401 C 389.223 5.58506 1.94486 0
M  V30 4402 H 388.153 0.64473 0.390947 0
M  V30 4403 H 390.804 1.81124 0.294328 0
M  V30 4404 H 389.186 2.91874 2.67629 0
M  V30 4405 H 390.36 4.59396 0.359485 0
M  V30 4406 H 388.675 4.13597 0.482324 0
M  V30 4407 H 391.272 4.23687 3.26181 0
M  V30 4408 H 391.615 2.52503 3.3098 0
M  V30 4409 H 392.148 3.48894 1.91097 0
M  V30 4410 H 388.887 6.42422 1.30287 0
M  V30 4411 H 388.407 5.37694 2.65792 0
M  V30 4412 H 390.086 5.95651 2.52605 0
M  V30 4413 N 390.218 -0.567019 1.47046 0
M  V30 4414 C 391.495 -1.3276 1.43646 0
M  V30 4415 C 391.875 -2.1071 0.128186 0
M  V30 4416 O 391.223 -2.10441 -0.890326 0
M  V30 4417 C 391.433 -2.2404 2.67595 0
M  V30 4418 C 392.781 -2.85372 3.14401 0
M  V30 4419 O 393.805 -2.34346 2.68254 0
M  V30 4420 O 392.664 -3.78091 3.946 0
M  V30 4421 H 389.758 -0.597293 0.571988 0
M  V30 4422 H 392.304 -0.586735 1.59234 0
M  V30 4423 H 391.076 -1.65975 3.54356 0
M  V30 4424 H 390.699 -3.05439 2.54544 0
M  V30 4425 N 391.696 -1.35014 -0.812953 0
M  V30 4426 C 392.626 -1.30069 -1.93919 0
M  V30 4427 C 393.607 -0.176275 -1.69184 0
M  V30 4428 O 394.792 -0.370227 -1.90638 0
M  V30 4429 C 391.922 -1.06547 -3.30552 0
M  V30 4430 C 390.876 -2.15561 -3.69753 0
M  V30 4431 C 390.202 -1.77214 -5.04479 0
M  V30 4432 C 391.502 -3.57476 -3.808 0
M  V30 4433 H 393.196 -2.24303 -1.98314 0
M  V30 4434 H 390.742 -1.07977 -0.952736 0
M  V30 4435 H 392.695 -1.01729 -4.08937 0
M  V30 4436 H 391.419 -0.0875719 -3.26483 0
M  V30 4437 H 390.078 -2.19466 -2.9365 0
M  V30 4438 H 389.726 -0.780589 -4.96906 0
M  V30 4439 H 389.426 -2.50184 -5.31678 0
M  V30 4440 H 390.95 -1.7391 -5.8531 0
M  V30 4441 H 392.364 -3.55929 -4.4943 0
M  V30 4442 H 390.761 -4.29152 -4.19462 0
M  V30 4443 H 391.831 -3.94091 -2.82525 0
M  V30 4444 N 393.175 1.03435 -1.18907 0
M  V30 4445 C 394.452 1.73778 -0.89781 0
M  V30 4446 C 394.832 2.02458 0.597832 0
M  V30 4447 O 394.18 1.67482 1.55441 0
M  V30 4448 C 394.39 3.01845 -1.75187 0
M  V30 4449 C 395.738 3.7546 -1.9828 0
M  V30 4450 O 396.762 3.11759 -1.72293 0
M  V30 4451 O 395.621 4.89966 -2.42065 0
M  V30 4452 H 392.715 0.75651 -0.334098 0
M  V30 4453 H 395.261 1.09444 -1.29693 0
M  V30 4454 H 394.033 2.76836 -2.76545 0
M  V30 4455 H 393.656 3.73919 -1.35167 0
M  V30 4456 N 394.653 0.992116 1.22453 0
M  V30 4457 C 396.064 0.702776 1.72968 0
M  V30 4458 C 396.415 -0.780399 1.80012 0
M  V30 4459 O 395.54 -1.61007 1.44589 0
M  V30 4460 C 396.135 1.26903 3.14135 0
M  V30 4461 C 394.694 1.02909 3.62059 0
M  V30 4462 C 393.841 1.38969 2.39964 0
M  V30 4463 H 396.792 1.16457 1.07812 0
M  V30 4464 H 396.813 0.647223 3.74955 0
M  V30 4465 H 396.325 2.34851 3.08977 0
M  V30 4466 H 394.426 -0.0337979 3.72585 0
M  V30 4467 H 394.539 1.69191 4.48231 0
M  V30 4468 H 392.903 0.808279 2.41535 0
M  V30 4469 H 393.686 2.4792 2.37467 0
M  V30 4470 N 396.131 -1.37776 0.765217 0
M  V30 4471 C 397.081 -2.2768 0.12075 0
M  V30 4472 C 398.065 -1.45778 -0.680988 0
M  V30 4473 O 399.257 -1.684 -0.545033 0
M  V30 4474 C 396.386 -3.34722 -0.762626 0
M  V30 4475 C 395.472 -4.24074 0.0465881 0
M  V30 4476 N 395.863 -4.93939 1.08892 0
M  V30 4477 C 394.161 -4.45643 -0.178418 0
M  V30 4478 C 394.862 -5.59845 1.57951 0
M  V30 4479 N 393.838 -5.36218 0.892797 0
M  V30 4480 H 397.64 -2.79166 0.918889 0
M  V30 4481 H 395.154 -1.50816 0.602353 0
M  V30 4482 H 397.151 -3.98031 -1.24005 0
M  V30 4483 H 395.811 -2.84793 -1.55959 0
M  V30 4484 H 396.822 -4.96572 1.47095 0
M  V30 4485 H 393.499 -4.06599 -0.9478 0
M  V30 4486 H 394.889 -6.25703 2.44838 0
M  V30 4487 N 397.609 -0.515225 -1.4894 0
M  V30 4488 C 398.856 0.024215 -2.02486 0
M  V30 4489 C 399.184 1.35671 -1.39368 0
M  V30 4490 O 398.439 1.88566 -0.523574 0
M  V30 4491 C 398.738 0.210595 -3.56779 0
M  V30 4492 C 398.404 -1.04569 -4.38607 0
M  V30 4493 C 397.066 -1.39002 -4.60686 0
M  V30 4494 C 399.418 -1.88008 -4.86109 0
M  V30 4495 C 396.746 -2.568 -5.27514 0
M  V30 4496 C 399.098 -3.04972 -5.54234 0
M  V30 4497 C 397.762 -3.39768 -5.74555 0
M  V30 4498 H 397.032 0.00886088 -0.740947 0
M  V30 4499 H 399.679 -0.678263 -1.79086 0
M  V30 4500 H 397.984 0.99572 -3.78936 0
M  V30 4501 H 399.681 0.642659 -3.95817 0
M  V30 4502 H 396.271 -0.767497 -4.21672 0
M  V30 4503 H 400.455 -1.62719 -4.68867 0
M  V30 4504 H 395.711 -2.8398 -5.41447 0
M  V30 4505 H 399.885 -3.69943 -5.90013 0
M  V30 4506 H 397.512 -4.31148 -6.26112 0
M  V30 4507 N 399.087 1.5561 -0.249682 0
M  V30 4508 C 400.035 2.22894 0.664906 0
M  V30 4509 C 401.029 1.21743 1.17792 0
M  V30 4510 O 402.235 1.39748 1.13449 0
M  V30 4511 H 398.61 0.715022 0.232912 0
M  V30 4512 H 400.581 2.98307 0.0742998 0
M  V30 4513 C 399.33 2.94424 1.84959 0
M  V30 4514 H 398.653 3.72031 1.46399 0
M  V30 4515 H 400.093 3.44862 2.4667 0
M  V30 4516 C 398.552 1.98454 2.72245 0
M  V30 4517 O 399.082 1.51939 3.71857 0
M  V30 4518 N 397.288 1.65496 2.38871 0
M  V30 4519 H 396.835 2.03517 1.57919 0
M  V30 4520 H 396.793 1.0155 2.97548 0
M  V30 4521 N 400.565 -0.0233959 1.57583 0
M  V30 4522 C 401.842 -0.748794 1.807 0
M  V30 4523 C 402.222 -1.9327 0.849106 0
M  V30 4524 O 401.57 -2.28247 -0.107468 0
M  V30 4525 C 401.78 -1.17651 3.28571 0
M  V30 4526 C 403.128 -1.59008 3.93702 0
M  V30 4527 O 404.152 -1.27094 3.32755 0
M  V30 4528 O 403.011 -2.18264 5.01022 0
M  V30 4529 H 400.105 -0.362578 0.743281 0
M  V30 4530 H 402.651 0.000261958 1.697 0
M  V30 4531 H 401.423 -0.331603 3.89892 0
M  V30 4532 H 401.046 -1.98541 3.44481 0
M  V30 4533 N 402.043 -1.548 -0.295768 0
M  V30 4534 C 403.292 -1.73538 -1.02798 0
M  V30 4535 C 403.605 -0.531159 -1.8825 0
M  V30 4536 O 404.811 -0.600458 -2.64777 0
M  V30 4537 C 403.267 -3.07051 -1.87744 0
M  V30 4538 C 402.875 -4.34968 -1.07269 0
M  V30 4539 C 404.619 -3.35146 -2.60533 0
M  V30 4540 C 402.526 -5.5953 -1.91521 0
M  V30 4541 H 401.456 -0.646794 -0.387522 0
M  V30 4542 H 404.107 -1.81278 -0.284718 0
M  V30 4543 H 402.489 -2.93289 -2.66078 0
M  V30 4544 H 403.663 -4.5958 -0.335117 0
M  V30 4545 H 401.978 -4.13847 -0.460384 0
M  V30 4546 H 404.575 -4.2541 -3.23929 0
M  V30 4547 H 404.918 -2.54255 -3.29636 0
M  V30 4548 H 405.451 -3.49902 -1.89244 0
M  V30 4549 H 402.19 -6.43103 -1.26878 0
M  V30 4550 H 401.71 -5.39096 -2.62937 0
M  V30 4551 H 403.389 -5.96982 -2.49442 0
M  V30 4552 N 403.521 0.559213 -1.47345 0
M  V30 4553 C 404.451 1.67622 -1.62558 0
M  V30 4554 C 405.432 1.63331 -0.475087 0
M  V30 4555 O 406.617 1.80983 -0.704182 0
M  V30 4556 C 403.747 3.0626 -1.63774 0
M  V30 4557 C 402.701 3.25397 -2.7803 0
M  V30 4558 C 402.027 4.64801 -2.64318 0
M  V30 4559 C 403.327 3.10965 -4.19641 0
M  V30 4560 H 405.021 1.55146 -2.56067 0
M  V30 4561 H 402.567 0.744961 -1.23233 0
M  V30 4562 H 404.52 3.84247 -1.73008 0
M  V30 4563 H 403.244 3.1969 -0.66825 0
M  V30 4564 H 401.903 2.49817 -2.68304 0
M  V30 4565 H 401.551 4.75028 -1.65401 0
M  V30 4566 H 401.251 4.78555 -3.40968 0
M  V30 4567 H 402.775 5.44926 -2.75478 0
M  V30 4568 H 404.189 3.78772 -4.30354 0
M  V30 4569 H 402.586 3.36229 -4.97062 0
M  V30 4570 H 403.656 2.07736 -4.38148 0
M  V30 4571 N 404.999 1.35443 0.805782 0
M  V30 4572 C 406.247 1.28507 1.55982 0
M  V30 4573 C 406.568 -0.140046 1.94496 0
M  V30 4574 O 405.838 -1.07666 1.63661 0
M  V30 4575 H 404.418 0.472676 0.578434 0
M  V30 4576 H 407.08 1.69555 0.961098 0
M  V30 4577 H 406.176 1.90148 2.47488 0
M  V30 4578 N 406.477 -1.02803 1.19454 0
M  V30 4579 C 407.409 -2.11181 0.890807 0
M  V30 4580 C 408.422 -1.6238 -0.116829 0
M  V30 4581 O 409.611 -1.78144 0.112694 0
M  V30 4582 C 406.711 -3.37461 0.311942 0
M  V30 4583 C 405.884 -4.15446 1.36834 0
M  V30 4584 C 404.943 -5.20039 0.802864 0
M  V30 4585 O 403.969 -5.49602 1.48077 0
M  V30 4586 N 405.171 -5.79165 -0.393417 0
M  V30 4587 H 407.936 -2.37827 1.82369 0
M  V30 4588 H 405.497 -1.19101 1.09666 0
M  V30 4589 H 407.489 -4.0462 -0.0802225 0
M  V30 4590 H 406.059 -3.08156 -0.52524 0
M  V30 4591 H 405.279 -3.43423 1.93531 0
M  V30 4592 H 406.567 -4.64335 2.08015 0
M  V30 4593 H 405.965 -5.57466 -0.961658 0
M  V30 4594 H 404.522 -6.47729 -0.727351 0
M  V30 4595 N 407.956 -0.998596 -1.21925 0
M  V30 4596 C 408.906 -0.524743 -2.21879 0
M  V30 4597 C 409.89 0.41017 -1.55584 0
M  V30 4598 O 411.082 0.236063 -1.75419 0
M  V30 4599 C 408.211 0.153636 -3.42956 0
M  V30 4600 C 407.297 -0.801918 -4.16449 0
M  V30 4601 N 407.688 -1.95211 -4.66611 0
M  V30 4602 C 405.986 -0.618972 -4.41684 0
M  V30 4603 C 406.687 -2.55234 -5.22715 0
M  V30 4604 N 405.663 -1.83451 -5.1171 0
M  V30 4605 H 409.465 -1.40189 -2.58311 0
M  V30 4606 H 406.979 -0.86159 -1.3766 0
M  V30 4607 H 408.976 0.510534 -4.13762 0
M  V30 4608 H 407.636 1.02684 -3.08036 0
M  V30 4609 H 408.647 -2.33271 -4.62391 0
M  V30 4610 H 405.324 0.207694 -4.16983 0
M  V30 4611 H 406.714 -3.52471 -5.72026 0
M  V30 4612 N 409.434 1.37368 -0.772513 0
M  V30 4613 C 410.659 2.0447 -0.347386 0
M  V30 4614 C 411.084 1.57882 1.0225 0
M  V30 4615 O 410.442 0.73941 1.65537 0
M  V30 4616 C 410.49 3.58369 -0.400479 0
M  V30 4617 O 409.594 4.0803 0.598789 0
M  V30 4618 H 408.935 0.646773 -0.15027 0
M  V30 4619 H 411.465 1.75667 -1.04892 0
M  V30 4620 H 411.475 4.07183 -0.258045 0
M  V30 4621 H 410.15 3.91633 -1.39986 0
M  V30 4622 H 408.727 3.70534 0.419411 0
M  V30 4623 N 410.912 0.523116 1.48665 0
M  V30 4624 C 412.328 0.180511 1.58576 0
M  V30 4625 C 412.528 -1.31597 1.52592 0
M  V30 4626 O 411.584 -2.0937 1.4114 0
M  V30 4627 C 412.897 0.776949 2.90489 0
M  V30 4628 C 414.445 0.745058 3.04003 0
M  V30 4629 C 414.92 1.31995 4.38567 0
M  V30 4630 N 416.411 1.28162 4.45117 0
M  V30 4631 C 417.146 1.6964 5.47731 0
M  V30 4632 N 416.642 2.18816 6.57337 0
M  V30 4633 N 418.435 1.6092 5.38573 0
M  V30 4634 H 410.586 1.4958 1.50797 0
M  V30 4635 H 412.849 0.621772 0.715614 0
M  V30 4636 H 412.555 1.82732 3.00503 0
M  V30 4637 H 412.429 0.25007 3.7637 0
M  V30 4638 H 414.816 -0.296532 2.93606 0
M  V30 4639 H 414.897 1.30933 2.1975 0
M  V30 4640 H 414.541 2.36043 4.49718 0
M  V30 4641 H 414.471 0.731418 5.21496 0
M  V30 4642 H 416.962 0.92155 3.66491 0
M  V30 4643 H 417.275 2.48478 7.31764 0
M  V30 4644 H 415.62 2.22805 6.58318 0
M  V30 4645 H 418.811 1.22304 4.5184 0
M  V30 4646 H 418.984 1.93567 6.18414 0
M  V30 4647 N 412.39 -1.55475 0.257931 0
M  V30 4648 C 413.337 -2.21837 -0.636939 0
M  V30 4649 C 414.307 -1.18596 -1.16294 0
M  V30 4650 O 415.492 -1.47081 -1.21539 0
M  V30 4651 C 412.632 -2.9301 -1.82317 0
M  V30 4652 C 411.745 -4.10931 -1.33265 0
M  V30 4653 C 410.88 -4.69791 -2.47931 0
M  V30 4654 C 409.919 -5.7994 -1.95796 0
M  V30 4655 N 409.056 -6.32935 -3.0387 0
M  V30 4656 H 413.896 -2.9793 -0.0643591 0
M  V30 4657 H 411.433 -1.47086 -0.0200031 0
M  V30 4658 H 413.391 -3.3248 -2.52018 0
M  V30 4659 H 412.021 -2.1937 -2.36805 0
M  V30 4660 H 411.073 -3.76699 -0.52931 0
M  V30 4661 H 412.385 -4.90417 -0.910654 0
M  V30 4662 H 411.539 -5.11892 -3.25656 0
M  V30 4663 H 410.278 -3.89545 -2.93438 0
M  V30 4664 H 409.283 -5.37305 -1.16546 0
M  V30 4665 H 410.508 -6.62043 -1.51246 0
M  V30 4666 H 408.454 -5.55591 -3.48791 0
M  V30 4667 H 408.371 -7.07645 -2.66035 0
M  V30 4668 H 409.639 -6.79695 -3.81621 0
M  V30 4669 N 413.868 0.0150385 -1.57593 0
M  V30 4670 C 415.284 0.370907 -1.5523 0
M  V30 4671 C 415.484 1.75735 -0.985882 0
M  V30 4672 O 414.54 2.44944 -0.613077 0
M  V30 4673 C 415.853 0.259908 -2.99575 0
M  V30 4674 C 417.401 0.335959 -3.11192 0
M  V30 4675 C 417.876 0.254253 -4.57294 0
M  V30 4676 N 419.367 0.312618 -4.62144 0
M  V30 4677 C 420.102 0.272505 -5.72752 0
M  V30 4678 N 419.598 0.183864 -6.92556 0
M  V30 4679 N 421.391 0.323267 -5.6117 0
M  V30 4680 H 413.542 -0.892104 -1.92757 0
M  V30 4681 H 415.805 -0.340563 -0.884715 0
M  V30 4682 H 415.511 -0.693403 -3.44797 0
M  V30 4683 H 415.385 1.048 -3.62349 0
M  V30 4684 H 417.772 1.27971 -2.65909 0
M  V30 4685 H 417.853 -0.481739 -2.51223 0
M  V30 4686 H 417.497 -0.685887 -5.03247 0
M  V30 4687 H 417.427 1.09024 -5.15191 0
M  V30 4688 H 419.918 0.38307 -3.75953 0
M  V30 4689 H 420.231 0.15874 -7.72637 0
M  V30 4690 H 418.576 0.149708 -6.94839 0
M  V30 4691 H 421.767 0.390607 -4.66467 0
M  V30 4692 H 421.94 0.288539 -6.47357 0
M  V30 4693 N 415.346 1.54954 0.287554 0
M  V30 4694 C 416.592 1.76059 1.01856 0
M  V30 4695 C 416.947 0.547056 1.84459 0
M  V30 4696 O 416.24 -0.460442 1.85985 0
M  V30 4697 C 416.434 2.99833 1.94512 0
M  V30 4698 C 416.263 4.33108 1.21026 0
M  V30 4699 C 415.033 4.96632 0.931896 0
M  V30 4700 C 417.231 5.10694 0.607949 0
M  V30 4701 N 415.213 6.13668 0.168716 0
M  V30 4702 C 416.584 6.19996 -0.0217865 0
M  V30 4703 C 418.639 4.95236 0.514338 0
M  V30 4704 C 417.342 7.15524 -0.736092 0
M  V30 4705 C 419.368 5.91106 -0.186343 0
M  V30 4706 C 418.73 6.99786 -0.804875 0
M  V30 4707 H 414.829 0.696679 0.355193 0
M  V30 4708 H 417.413 1.92441 0.295741 0
M  V30 4709 H 415.584 2.84853 2.64033 0
M  V30 4710 H 417.316 3.09405 2.60865 0
M  V30 4711 H 414.071 4.57255 1.23348 0
M  V30 4712 H 414.495 6.76705 -0.199781 0
M  V30 4713 H 419.137 4.11328 0.978234 0
M  V30 4714 H 416.855 7.98964 -1.21172 0
M  V30 4715 H 420.441 5.81224 -0.258897 0
M  V30 4716 H 419.321 7.72694 -1.33843 0
M  V30 4717 N 416.824 -0.551391 1.4764 0
M  V30 4718 C 417.734 -1.68525 1.63207 0
M  V30 4719 C 418.75 -1.6621 0.514815 0
M  V30 4720 O 419.926 -1.85551 0.783113 0
M  V30 4721 C 416.991 -3.05025 1.64805 0
M  V30 4722 C 416.052 -3.18362 2.88 0
M  V30 4723 C 415.285 -4.4835 2.89513 0
M  V30 4724 O 415.508 -5.34163 2.00065 0
M  V30 4725 O 414.442 -4.65602 3.81443 0
M  V30 4726 H 418.268 -1.58333 2.59161 0
M  V30 4727 H 415.853 -0.722063 1.30792 0
M  V30 4728 H 417.735 -3.86245 1.68502 0
M  V30 4729 H 416.41 -3.15587 0.720197 0
M  V30 4730 H 415.317 -2.36518 2.89845 0
M  V30 4731 H 416.65 -3.12707 3.80099 0
M  V30 4732 N 418.302 -1.35869 -0.798587 0
M  V30 4733 C 419.25 -1.29491 -1.93222 0
M  V30 4734 C 420.244 -0.18836 -1.6835 0
M  V30 4735 O 421.45 -0.354822 -1.76468 0
M  V30 4736 H 417.825 -0.402901 -0.63496 0
M  V30 4737 H 419.796 -2.25247 -1.9572 0
M  V30 4738 C 418.545 -1.09184 -3.30112 0
M  V30 4739 H 417.868 -1.93574 -3.49813 0
M  V30 4740 H 419.308 -1.08766 -4.09812 0
M  V30 4741 C 417.767 0.203959 -3.36282 0
M  V30 4742 O 418.297 1.19699 -3.83451 0
M  V30 4743 N 416.503 0.245488 -2.89561 0
M  V30 4744 H 416.05 -0.563223 -2.51367 0
M  V30 4745 H 416.008 1.11219 -2.94071 0
M  V30 4746 N 419.78 1.02168 -1.19998 0
M  V30 4747 C 421.027 1.75685 -1.00702 0
M  V30 4748 C 421.355 1.88947 0.461426 0
M  V30 4749 O 420.61 1.40832 1.35885 0
M  V30 4750 C 420.909 3.18081 -1.62969 0
M  V30 4751 C 420.575 3.24809 -3.12746 0
M  V30 4752 C 419.237 3.26352 -3.53621 0
M  V30 4753 C 421.589 3.23379 -4.08749 0
M  V30 4754 C 418.917 3.2413 -4.89036 0
M  V30 4755 C 421.269 3.22698 -5.44104 0
M  V30 4756 C 419.933 3.22542 -5.84399 0
M  V30 4757 H 419.203 0.642877 -0.368496 0
M  V30 4758 H 421.85 1.19865 -1.49348 0
M  V30 4759 H 420.155 3.77027 -1.06573 0
M  V30 4760 H 421.852 3.73648 -1.45561 0
M  V30 4761 H 418.442 3.2434 -2.80181 0
M  V30 4762 H 422.626 3.21361 -3.78207 0
M  V30 4763 H 417.882 3.22338 -5.19527 0
M  V30 4764 H 422.056 3.20543 -6.18244 0
M  V30 4765 H 419.683 3.20575 -6.89301 0
M  V30 4766 N 421.258 1.00505 1.21394 0
M  V30 4767 C 422.507 0.683159 1.89778 0
M  V30 4768 C 422.82 -0.789471 1.7896 0
M  V30 4769 O 424.026 -1.22344 2.42372 0
M  V30 4770 C 422.482 1.17146 3.40301 0
M  V30 4771 C 422.09 2.67017 3.5973 0
M  V30 4772 C 423.834 0.924461 4.14311 0
M  V30 4773 C 421.741 3.09387 5.04017 0
M  V30 4774 H 420.671 0.25183 0.710702 0
M  V30 4775 H 423.322 1.21622 1.37406 0
M  V30 4776 H 421.704 0.566451 3.91928 0
M  V30 4777 H 422.878 3.32968 3.18542 0
M  V30 4778 H 421.193 2.89732 2.99073 0
M  V30 4779 H 423.79 1.21658 5.20676 0
M  V30 4780 H 424.133 -0.139286 4.16067 0
M  V30 4781 H 424.666 1.49226 3.6875 0
M  V30 4782 H 421.405 4.14989 5.07409 0
M  V30 4783 H 420.925 2.48149 5.46061 0
M  V30 4784 H 422.604 3.01371 5.72525 0
M  V30 4785 N 422.737 -1.36956 0.779787 0
M  V30 4786 C 423.687 -2.27539 0.144892 0
M  V30 4787 C 424.671 -1.46493 -0.665488 0
M  V30 4788 O 425.863 -1.68968 -0.527141 0
M  V30 4789 C 422.992 -3.35512 -0.727082 0
M  V30 4790 C 422.078 -4.24001 0.0915642 0
M  V30 4791 N 422.469 -4.92757 1.14125 0
M  V30 4792 C 420.767 -4.45807 -0.131141 0
M  V30 4793 C 421.468 -5.58138 1.6388 0
M  V30 4794 N 420.444 -5.35241 0.94962 0
M  V30 4795 H 424.246 -2.78176 0.948446 0
M  V30 4796 H 421.76 -1.50169 0.618315 0
M  V30 4797 H 423.757 -3.99324 -1.19776 0
M  V30 4798 H 422.417 -2.86431 -1.52929 0
M  V30 4799 H 423.428 -4.94984 1.52353 0
M  V30 4800 H 420.105 -4.07582 -0.904621 0
M  V30 4801 H 421.495 -6.23071 2.51461 0
M  V30 4802 N 424.215 -0.530993 -1.48385 0
M  V30 4803 C 425.44 0.000729535 -2.074 0
M  V30 4804 C 425.865 1.27298 -1.3848 0
M  V30 4805 O 425.223 1.75599 -0.451081 0
M  V30 4806 C 425.271 0.206697 -3.60007 0
M  V30 4807 O 424.375 1.27514 -3.92191 0
M  V30 4808 H 423.716 -0.039583 -0.662819 0
M  V30 4809 H 426.246 -0.739194 -1.9078 0
M  V30 4810 H 426.256 0.42904 -4.05738 0
M  V30 4811 H 424.931 -0.722675 -4.09573 0
M  V30 4812 H 423.508 1.03537 -3.58238 0
M  V30 4813 N 425.693 1.55336 -0.266172 0
M  V30 4814 C 426.603 2.2583 0.635458 0
M  V30 4815 C 427.619 1.28106 1.17749 0
M  V30 4816 O 428.795 1.61024 1.20968 0
M  V30 4817 C 425.86 2.95879 1.80712 0
M  V30 4818 C 424.921 4.09059 1.30265 0
M  V30 4819 C 424.154 4.75759 2.41846 0
M  V30 4820 O 424.377 4.41622 3.61007 0
M  V30 4821 O 423.311 5.63888 2.1051 0
M  V30 4822 H 427.137 3.03631 0.0646693 0
M  V30 4823 H 424.722 1.49361 -0.0339177 0
M  V30 4824 H 426.604 3.39932 2.49047 0
M  V30 4825 H 425.279 2.21002 2.36516 0
M  V30 4826 H 424.186 3.69482 0.586019 0
M  V30 4827 H 425.519 4.85811 0.790458 0
M  V30 4828 N 427.171 -0.0066808 1.57599 0
M  V30 4829 C 428.119 -1.01851 2.09115 0
M  V30 4830 C 429.113 -1.36021 1.00969 0
M  V30 4831 O 430.319 -1.34663 1.19439 0
M  V30 4832 H 426.694 -0.346083 0.667631 0
M  V30 4833 H 428.665 -0.558394 2.93129 0
M  V30 4834 C 427.414 -2.30374 2.60429 0
M  V30 4835 H 426.737 -2.04947 3.43273 0
M  V30 4836 H 428.177 -2.99466 3.00161 0
M  V30 4837 C 426.636 -3.00893 1.51542 0
M  V30 4838 O 427.166 -3.91614 0.894484 0
M  V30 4839 N 425.372 -2.62603 1.2445 0
M  V30 4840 H 424.919 -1.88911 1.75129 0
M  V30 4841 H 424.877 -3.10101 0.518137 0
M  V30 4842 N 428.649 -1.55105 -0.279332 0
M  V30 4843 C 430.065 -1.46803 -0.626187 0
M  V30 4844 C 430.265 -0.676939 -1.89789 0
M  V30 4845 O 429.321 -0.19326 -2.51759 0
M  V30 4846 C 430.634 -2.90962 -0.759034 0
M  V30 4847 C 432.182 -3.01138 -0.853504 0
M  V30 4848 C 432.657 -4.46539 -1.01818 0
M  V30 4849 N 434.148 -4.50341 -1.08386 0
M  V30 4850 C 434.883 -5.60053 -1.22996 0
M  V30 4851 N 434.379 -6.79645 -1.34366 0
M  V30 4852 N 436.172 -5.47783 -1.26056 0
M  V30 4853 H 428.323 -2.04996 0.555921 0
M  V30 4854 H 430.586 -0.929325 0.187239 0
M  V30 4855 H 430.292 -3.51544 0.104852 0
M  V30 4856 H 430.166 -3.39619 -1.64131 0
M  V30 4857 H 432.553 -2.40658 -1.70786 0
M  V30 4858 H 432.634 -2.55745 0.0532466 0
M  V30 4859 H 432.278 -5.0762 -0.168504 0
M  V30 4860 H 432.208 -4.89583 -1.93948 0
M  V30 4861 H 434.699 -3.64191 -1.00864 0
M  V30 4862 H 435.012 -7.59012 -1.4533 0
M  V30 4863 H 433.357 -6.82469 -1.31382 0
M  V30 4864 H 436.548 -4.53294 -1.168 0
M  V30 4865 H 436.721 -6.33331 -1.37098 0
M  V30 4866 N 430.127 0.543554 -1.4793 0
M  V30 4867 C 431.077 1.64527 -1.57844 0
M  V30 4868 C 432.061 1.54869 -0.436408 0
M  V30 4869 O 433.253 1.63119 -0.687101 0
M  V30 4870 C 430.382 3.03281 -1.6086 0
M  V30 4871 C 429.468 3.18093 -2.80495 0
M  V30 4872 N 429.859 3.02923 -4.05057 0
M  V30 4873 C 428.157 3.49121 -2.77543 0
M  V30 4874 C 428.858 3.20791 -4.85251 0
M  V30 4875 N 427.834 3.47749 -4.17818 0
M  V30 4876 H 431.636 1.51388 -2.5191 0
M  V30 4877 H 429.15 0.748671 -1.44113 0
M  V30 4878 H 431.147 3.82403 -1.66054 0
M  V30 4879 H 429.807 3.17521 -0.678996 0
M  V30 4880 H 430.818 2.79966 -4.35705 0
M  V30 4881 H 427.495 3.69804 -1.93781 0
M  V30 4882 H 428.885 3.13915 -5.9406 0
M  V30 4883 N 431.605 1.3629 0.791371 0
M  V30 4884 C 432.535 1.33137 1.91825 0
M  V30 4885 C 433.516 0.203168 1.68882 0
M  V30 4886 O 434.701 0.400509 1.90025 0
M  V30 4887 C 431.831 1.11793 3.28816 0
M  V30 4888 C 430.785 2.21417 3.66277 0
M  V30 4889 C 430.111 1.85218 5.01596 0
M  V30 4890 C 431.411 3.63489 3.75064 0
M  V30 4891 H 433.105 2.2743 1.9472 0
M  V30 4892 H 430.651 1.09479 0.935437 0
M  V30 4893 H 432.604 1.08222 4.07266 0
M  V30 4894 H 431.328 0.139501 3.26302 0
M  V30 4895 H 429.987 2.2411 2.90121 0
M  V30 4896 H 429.635 0.859544 4.95602 0
M  V30 4897 H 429.335 2.58611 5.27631 0
M  V30 4898 H 430.859 1.832 5.82469 0
M  V30 4899 H 432.273 3.63034 4.43711 0
M  V30 4900 H 430.67 4.35771 4.12582 0
M  V30 4901 H 431.74 3.98536 2.76219 0
M  V30 4902 N 433.083 -1.0153 1.20538 0
M  V30 4903 C 434.329 -1.75408 1.01783 0
M  V30 4904 C 434.662 -1.88943 -0.448814 0
M  V30 4905 O 433.937 -1.4162 -1.33319 0
M  V30 4906 C 434.22 -3.17255 1.70356 0
M  V30 4907 C 434.073 -3.11508 3.24473 0
M  V30 4908 C 435.392 -4.15955 1.43769 0
M  V30 4909 H 432.511 -0.636713 0.371167 0
M  V30 4910 H 435.153 -1.18436 1.4857 0
M  V30 4911 H 433.303 -3.65898 1.30578 0
M  V30 4912 H 434.975 -2.70658 3.73553 0
M  V30 4913 H 433.218 -2.4887 3.55311 0
M  V30 4914 H 433.889 -4.11784 3.67611 0
M  V30 4915 H 436.365 -3.75973 1.7828 0
M  V30 4916 H 435.241 -5.13368 1.94279 0
M  V30 4917 H 435.502 -4.40586 0.365564 0
M  V30 4918 N 434.561 -1.01147 -1.20859 0
M  V30 4919 C 435.786 -0.716698 -1.94623 0
M  V30 4920 C 436.211 0.715415 -1.73964 0
M  V30 4921 O 435.569 1.49157 -1.03062 0
M  V30 4922 C 435.617 -1.0513 -3.44935 0
M  V30 4923 O 434.721 -0.160131 -4.12089 0
M  V30 4924 H 434.062 -0.266404 -0.608214 0
M  V30 4925 H 436.592 -1.35346 -1.53436 0
M  V30 4926 H 436.602 -1.00086 -3.95533 0
M  V30 4927 H 435.277 -2.09475 -3.59295 0
M  V30 4928 H 433.854 -0.267657 -3.71938 0
M  V30 4929 N 436.039 1.36541 -0.78704 0
M  V30 4930 C 437.45 1.81873 -0.421807 0
M  V30 4931 C 437.801 1.65487 1.05397 0
M  V30 4932 O 436.926 1.17448 1.81755 0
M  V30 4933 C 437.521 3.30192 -0.758841 0
M  V30 4934 C 436.08 3.73743 -0.446468 0
M  V30 4935 C 435.227 2.58844 -0.994728 0
M  V30 4936 H 438.178 1.24796 -0.98039 0
M  V30 4937 H 438.199 3.80468 -0.0490648 0
M  V30 4938 H 437.711 3.42087 -1.83299 0
M  V30 4939 H 435.812 3.6741 0.619739 0
M  V30 4940 H 435.925 4.69272 -0.965415 0
M  V30 4941 H 434.289 2.51245 -0.418087 0
M  V30 4942 H 435.072 2.73525 -2.07458 0
M  V30 4943 N 437.518 0.538854 1.48102 0
M  V30 4944 C 438.428 -0.222648 2.33541 0
M  V30 4945 C 439.444 -0.930225 1.47047 0
M  V30 4946 O 440.62 -0.903211 1.80011 0
M  V30 4947 C 437.685 -1.25064 3.23357 0
M  V30 4948 C 436.746 -0.552469 4.2573 0
M  V30 4949 C 435.979 -1.53149 5.11254 0
M  V30 4950 O 436.202 -2.76487 4.9891 0
M  V30 4951 O 435.136 -1.06602 5.92385 0
M  V30 4952 H 438.962 0.477707 2.99919 0
M  V30 4953 H 436.547 0.299669 1.46364 0
M  V30 4954 H 438.429 -1.8445 3.78888 0
M  V30 4955 H 437.104 -1.93325 2.59629 0
M  V30 4956 H 436.011 0.082114 3.7401 0
M  V30 4957 H 437.344 0.0883526 4.92121 0
M  V30 4958 N 438.996 -1.55193 0.274407 0
M  V30 4959 C 439.959 -2.212 -0.600279 0
M  V30 4960 C 440.959 -1.18963 -1.08187 0
M  V30 4961 O 442.149 -1.43873 -0.982158 0
M  V30 4962 C 439.281 -2.87739 -1.82809 0
M  V30 4963 H 440.474 -2.9989 -0.0239682 0
M  V30 4964 H 438.027 -1.5628 0.0250192 0
M  V30 4965 H 438.762 -2.13058 -2.44493 0
M  V30 4966 H 438.547 -3.62658 -1.49069 0
M  V30 4967 H 440.037 -3.38171 -2.45011 0
M  V30 4968 N 440.474 -0.00167713 -1.576 0
M  V30 4969 C 441.404 0.988091 -2.11563 0
M  V30 4970 C 442.385 1.35736 -1.02517 0
M  V30 4971 O 443.57 1.44082 -1.30208 0
M  V30 4972 C 440.7 2.27941 -2.62031 0
M  V30 4973 C 439.654 2.0517 -3.75619 0
M  V30 4974 C 438.98 3.4033 -4.12407 0
M  V30 4975 C 440.28 1.41294 -5.02825 0
M  V30 4976 H 441.974 0.538771 -2.94513 0
M  V30 4977 H 439.52 0.257712 -1.41675 0
M  V30 4978 H 441.473 2.97539 -2.9841 0
M  V30 4979 H 440.197 2.74989 -1.76205 0
M  V30 4980 H 438.856 1.37998 -3.39635 0
M  V30 4981 H 438.504 3.85085 -3.23603 0
M  V30 4982 H 438.204 3.25909 -4.88935 0
M  V30 4983 H 439.728 4.1124 -4.51347 0
M  V30 4984 H 441.142 2.00851 -5.36965 0
M  V30 4985 H 439.539 1.37356 -5.84169 0
M  V30 4986 H 440.609 0.382362 -4.8339 0
M  V30 4987 N 441.952 1.55251 0.271103 0
M  V30 4988 C 443.229 1.66664 1.02384 0
M  V30 4989 C 443.609 0.534363 2.04225 0
M  V30 4990 O 442.957 -0.465337 2.23712 0
M  V30 4991 C 443.167 3.05961 1.67895 0
M  V30 4992 C 444.515 3.63772 2.18986 0
M  V30 4993 O 445.539 3.08606 1.77878 0
M  V30 4994 O 444.398 4.60429 2.94393 0
M  V30 4995 H 441.492 0.676957 0.475035 0
M  V30 4996 H 444.038 1.67589 0.26681 0
M  V30 4997 H 442.81 3.79815 0.941071 0
M  V30 4998 H 442.433 3.08943 2.5028 0
M  V30 4999 N 443.43 -0.535701 1.48216 0
M  V30 5000 C 444.36 -1.65014 1.65204 0
M  V30 5001 C 445.341 -1.62554 0.501011 0
M  V30 5002 O 446.526 -1.7984 0.732886 0
M  V30 5003 C 443.656 -3.03616 1.68626 0
M  V30 5004 C 442.61 -3.20932 2.83172 0
M  V30 5005 C 441.936 -4.60537 2.71679 0
M  V30 5006 C 443.236 -3.04249 4.24535 0
M  V30 5007 H 444.93 -1.51053 2.58502 0
M  V30 5008 H 442.476 -0.725262 1.24402 0
M  V30 5009 H 444.429 -3.81446 1.79099 0
M  V30 5010 H 443.153 -3.18587 0.719026 0
M  V30 5011 H 441.812 -2.45517 2.72244 0
M  V30 5012 H 441.46 -4.72336 1.72937 0
M  V30 5013 H 441.16 -4.73069 3.48538 0
M  V30 5014 H 442.684 -5.40475 2.84112 0
M  V30 5015 H 444.098 -3.71877 4.36326 0
M  V30 5016 H 442.495 -3.28278 5.02348 0
M  V30 5017 H 443.565 -2.00739 4.41397 0
M  V30 5018 N 444.908 -1.36708 -0.784132 0
M  V30 5019 C 445.838 -1.34153 -1.91116 0
M  V30 5020 C 446.819 -0.212121 -1.68772 0
M  V30 5021 O 448.004 -0.410581 -1.8981 0
M  V30 5022 C 445.134 -1.13535 -3.28218 0
M  V30 5023 C 444.088 -2.23356 -3.65097 0
M  V30 5024 C 443.414 -1.87875 -5.00607 0
M  V30 5025 C 444.714 -3.65473 -3.73131 0
M  V30 5026 H 446.408 -2.28459 -1.93512 0
M  V30 5027 H 443.954 -1.09973 -0.929618 0
M  V30 5028 H 445.907 -1.10381 -4.06687 0
M  V30 5029 H 444.631 -0.156804 -3.26223 0
M  V30 5030 H 443.29 -2.25645 -2.88929 0
M  V30 5031 H 442.938 -0.885814 -4.95139 0
M  V30 5032 H 442.638 -2.61406 -5.26252 0
M  V30 5033 H 444.162 -1.86286 -5.81489 0
M  V30 5034 H 445.576 -3.65382 -4.41779 0
M  V30 5035 H 443.973 -4.37953 -4.10265 0
M  V30 5036 H 445.043 -3.99995 -2.74102 0
M  V30 5037 N 446.386 1.0089 -1.21074 0
M  V30 5038 C 447.663 1.71834 -0.934469 0
M  V30 5039 C 448.043 2.0368 0.554753 0
M  V30 5040 O 447.391 1.70742 1.51854 0
M  V30 5041 C 447.601 2.98061 -1.8155 0
M  V30 5042 C 448.949 3.7117 -2.06199 0
M  V30 5043 O 449.973 3.08034 -1.78867 0
M  V30 5044 O 448.832 4.84721 -2.52404 0
M  V30 5045 H 445.926 0.749253 -0.35007 0
M  V30 5046 H 448.472 1.06668 -1.31985 0
M  V30 5047 H 447.244 2.70908 -2.82355 0
M  V30 5048 H 446.867 3.70968 -1.43068 0
M  V30 5049 N 447.864 1.01787 1.20321 0
M  V30 5050 C 448.811 0.589197 2.23153 0
M  V30 5051 C 449.781 -0.391367 1.61423 0
M  V30 5052 O 450.966 -0.290518 1.88575 0
M  V30 5053 C 448.106 -0.0650747 3.45039 0
M  V30 5054 C 447.219 0.960207 4.21194 0
M  V30 5055 C 446.354 0.276854 5.30478 0
M  V30 5056 C 445.393 1.2888 5.98378 0
M  V30 5057 N 444.53 0.632031 6.99249 0
M  V30 5058 H 449.37 1.47071 2.59179 0
M  V30 5059 H 446.907 0.736192 1.27352 0
M  V30 5060 H 448.865 -0.461552 4.14639 0
M  V30 5061 H 447.495 -0.910233 3.09701 0
M  V30 5062 H 446.547 1.47484 3.50646 0
M  V30 5063 H 447.859 1.72977 4.67847 0
M  V30 5064 H 447.013 -0.175056 6.06447 0
M  V30 5065 H 445.752 -0.525004 4.84866 0
M  V30 5066 H 444.757 1.75109 5.21169 0
M  V30 5067 H 445.982 2.09196 6.46076 0
M  V30 5068 H 443.928 -0.149935 6.55829 0
M  V30 5069 H 443.845 1.33964 7.44036 0
M  V30 5070 H 445.113 0.203755 7.79234 0
M  V30 5071 N 449.342 -1.36122 0.79427 0
M  V30 5072 C 450.272 -2.32551 0.210328 0
M  V30 5073 C 451.253 -1.56884 -0.657386 0
M  V30 5074 O 452.438 -1.85014 -0.590207 0
M  V30 5075 C 449.568 -3.41128 -0.651819 0
M  V30 5076 C 448.522 -4.27842 0.116395 0
M  V30 5077 C 447.848 -5.2763 -0.86666 0
M  V30 5078 C 449.148 -5.05647 1.30837 0
M  V30 5079 H 450.842 -2.81636 1.01594 0
M  V30 5080 H 448.388 -1.35407 0.489981 0
M  V30 5081 H 450.341 -4.07581 -1.07031 0
M  V30 5082 H 449.065 -2.90622 -1.49019 0
M  V30 5083 H 447.724 -3.62952 0.515915 0
M  V30 5084 H 447.372 -4.73395 -1.70019 0
M  V30 5085 H 447.072 -5.86514 -0.35705 0
M  V30 5086 H 448.596 -5.96955 -1.28361 0
M  V30 5087 H 450.01 -5.65113 0.965393 0
M  V30 5088 H 448.407 -5.73967 1.75161 0
M  V30 5089 H 449.477 -4.37006 2.10128 0
M  V30 5090 N 450.82 -0.546701 -1.47814 0
M  V30 5091 C 451.75 0.195317 -2.32682 0
M  V30 5092 C 452.731 0.918981 -1.43139 0
M  V30 5093 O 453.916 0.901501 -1.72008 0
M  V30 5094 C 451.046 1.23237 -3.247 0
M  V30 5095 C 450 0.625818 -4.234 0
M  V30 5096 C 449.326 1.76674 -5.04669 0
M  V30 5097 C 450.626 -0.413515 -5.2066 0
M  V30 5098 H 452.32 -0.513184 -2.94969 0
M  V30 5099 H 449.866 -0.248241 -1.41844 0
M  V30 5100 H 451.819 1.75955 -3.82907 0
M  V30 5101 H 450.543 1.97067 -2.60446 0
M  V30 5102 H 449.202 0.120023 -3.66403 0
M  V30 5103 H 448.85 2.49383 -4.36826 0
M  V30 5104 H 448.55 1.36673 -5.71484 0
M  V30 5105 H 450.074 2.29738 -5.65732 0
M  V30 5106 H 451.488 0.0272042 -5.73294 0
M  V30 5107 H 449.885 -0.731825 -5.95621 0
M  V30 5108 H 450.955 -1.31325 -4.66778 0
M  V30 5109 N 452.299 1.55045 -0.282633 0
M  V30 5110 C 453.715 1.59441 0.0712997 0
M  V30 5111 C 453.915 1.2998 1.53972 0
M  V30 5112 O 452.971 1.06431 2.28973 0
M  V30 5113 C 454.284 2.99097 -0.310104 0
M  V30 5114 C 455.832 3.1194 -0.257343 0
M  V30 5115 C 456.307 4.53875 -0.613297 0
M  V30 5116 N 457.798 4.5974 -0.565134 0
M  V30 5117 C 458.533 5.67603 -0.81326 0
M  V30 5118 N 458.029 6.83582 -1.1264 0
M  V30 5119 N 459.822 5.57187 -0.741553 0
M  V30 5120 H 451.973 1.72458 -1.23984 0
M  V30 5121 H 454.236 0.804549 -0.501403 0
M  V30 5122 H 453.942 3.25516 -1.33163 0
M  V30 5123 H 453.816 3.75616 0.345366 0
M  V30 5124 H 456.203 2.85281 0.754905 0
M  V30 5125 H 456.284 2.37618 -0.947178 0
M  V30 5126 H 455.928 4.81261 -1.62327 0
M  V30 5127 H 455.858 5.26508 0.09841 0
M  V30 5128 H 458.349 3.76427 -0.333294 0
M  V30 5129 H 458.662 7.6175 -1.30219 0
M  V30 5130 H 457.007 6.85179 -1.16425 0
M  V30 5131 H 460.198 4.65457 -0.496705 0
M  V30 5132 H 460.371 6.41171 -0.938306 0
M  V30 5133 N 453.777 0.010035 1.57597 0
M  V30 5134 C 455.007 -0.682422 1.95004 0
M  V30 5135 C 455.415 -1.67278 0.884014 0
M  V30 5136 O 454.758 -1.83129 -0.144672 0
M  V30 5137 C 454.82 -1.46141 3.28456 0
M  V30 5138 C 454.484 -0.631523 4.52615 0
M  V30 5139 C 455.481 0.0850905 5.1983 0
M  V30 5140 C 453.166 -0.574539 4.99003 0
M  V30 5141 C 455.16 0.847566 6.3174 0
M  V30 5142 C 452.847 0.191655 6.10799 0
M  V30 5143 C 453.845 0.901432 6.77025 0
M  V30 5144 O 453.533 1.65511 7.86677 0
M  V30 5145 H 453.265 -0.194361 0.647456 0
M  V30 5146 H 455.819 0.060312 2.05311 0
M  V30 5147 H 454.049 -2.24885 3.14585 0
M  V30 5148 H 455.738 -2.04016 3.50902 0
M  V30 5149 H 456.504 0.0502812 4.84974 0
M  V30 5150 H 452.383 -1.11654 4.47274 0
M  V30 5151 H 455.927 1.4021 6.83364 0
M  V30 5152 H 451.824 0.228249 6.45096 0
M  V30 5153 H 452.592 1.57287 8.03245 0
M  V30 5154 N 455.255 -1.55392 -0.262866 0
M  V30 5155 C 456.532 -1.67204 -1.01499 0
M  V30 5156 C 456.912 -0.545186 -2.03939 0
M  V30 5157 O 456.26 0.453467 -2.23955 0
M  V30 5158 C 456.47 -3.06847 -1.6627 0
M  V30 5159 C 457.818 -3.64928 -2.17054 0
M  V30 5160 O 458.842 -3.09545 -1.76239 0
M  V30 5161 O 457.701 -4.61984 -2.91947 0
M  V30 5162 H 454.795 -0.679467 -0.471438 0
M  V30 5163 H 457.341 -1.67729 -0.257918 0
M  V30 5164 H 456.113 -3.80309 -0.920915 0
M  V30 5165 H 455.736 -3.10266 -2.48638 0
M  V30 5166 N 456.733 0.527833 -1.48498 0
M  V30 5167 C 457.683 1.62844 -1.5958 0
M  V30 5168 C 458.667 1.54397 -0.452809 0
M  V30 5169 O 459.859 1.62381 -0.704364 0
M  V30 5170 C 456.988 3.01557 -1.64067 0
M  V30 5171 C 456.074 3.151 -2.83853 0
M  V30 5172 N 456.465 2.9861 -4.08247 0
M  V30 5173 C 454.763 3.46158 -2.8123 0
M  V30 5174 C 455.464 3.15626 -4.88626 0
M  V30 5175 N 454.44 3.43298 -4.21483 0
M  V30 5176 H 458.242 1.48708 -2.53502 0
M  V30 5177 H 455.756 0.733343 -1.44899 0
M  V30 5178 H 457.753 3.8062 -1.70101 0
M  V30 5179 H 456.413 3.16783 -0.712636 0
M  V30 5180 H 457.424 2.75329 -4.3865 0
M  V30 5181 H 454.101 3.67728 -1.97692 0
M  V30 5182 H 455.491 3.07596 -5.97356 0
M  V30 5183 N 458.211 1.37122 0.776871 0
M  V30 5184 C 459.143 1.28342 1.89897 0
M  V30 5185 C 460.156 0.200277 1.61563 0
M  V30 5186 O 461.345 0.456012 1.72577 0
M  V30 5187 C 458.445 0.960427 3.25006 0
M  V30 5188 C 457.618 2.148 3.81025 0
M  V30 5189 C 456.677 1.79608 4.94598 0
M  V30 5190 O 455.703 2.51845 5.10454 0
M  V30 5191 N 456.905 0.737171 5.758 0
M  V30 5192 H 459.67 2.25027 1.97947 0
M  V30 5193 H 457.231 1.3068 0.955739 0
M  V30 5194 H 459.223 0.705942 3.98495 0
M  V30 5195 H 457.793 0.0823066 3.12492 0
M  V30 5196 H 457.013 2.56454 2.99374 0
M  V30 5197 H 458.301 2.9411 4.15183 0
M  V30 5198 H 457.699 0.137637 5.65533 0
M  V30 5199 H 456.256 0.542534 6.49538 0
M  V30 5200 N 459.689 -1.00246 1.21608 0
M  V30 5201 C 460.621 -2.09244 0.935401 0
M  V30 5202 C 461.634 -1.62592 -0.0823594 0
M  V30 5203 O 462.823 -1.77865 0.150456 0
M  V30 5204 C 459.923 -3.36724 0.383453 0
M  V30 5205 C 459.096 -4.1245 1.45615 0
M  V30 5206 C 458.155 -5.18219 0.912991 0
M  V30 5207 O 457.181 -5.46337 1.59701 0
M  V30 5208 N 458.383 -5.7987 -0.270478 0
M  V30 5209 H 461.148 -2.33905 1.87373 0
M  V30 5210 H 458.709 -1.16748 1.12167 0
M  V30 5211 H 460.701 -4.047 0.00562157 0
M  V30 5212 H 459.271 -3.09201 -0.459758 0
M  V30 5213 H 458.491 -3.39241 2.00772 0
M  V30 5214 H 459.779 -4.59819 2.17817 0
M  V30 5215 H 459.177 -5.59381 -0.843195 0
M  V30 5216 H 457.734 -6.49126 -0.589794 0
M  V30 5217 N 461.167 -1.02423 -1.1978 0
M  V30 5218 C 462.583 -0.740459 -1.41384 0
M  V30 5219 C 462.783 0.676827 -1.89793 0
M  V30 5220 O 461.839 1.4435 -2.0717 0
M  V30 5221 C 463.152 -1.77264 -2.42895 0
M  V30 5222 C 464.7 -1.79165 -2.56649 0
M  V30 5223 C 465.175 -2.8133 -3.6141 0
M  V30 5224 N 466.666 -2.80118 -3.68901 0
M  V30 5225 C 467.401 -3.55824 -4.49641 0
M  V30 5226 N 466.897 -4.41231 -5.34123 0
M  V30 5227 N 468.69 -3.44387 -4.44246 0
M  V30 5228 H 460.841 -1.9391 -0.866764 0
M  V30 5229 H 463.104 -0.838074 -0.443098 0
M  V30 5230 H 462.81 -2.7884 -2.14339 0
M  V30 5231 H 462.684 -1.59108 -3.42001 0
M  V30 5232 H 465.071 -0.782702 -2.84531 0
M  V30 5233 H 465.152 -2.01396 -1.57713 0
M  V30 5234 H 464.796 -3.82394 -3.34271 0
M  V30 5235 H 464.726 -2.56359 -4.59986 0
M  V30 5236 H 467.217 -2.1817 -3.08562 0
M  V30 5237 H 467.53 -4.95747 -5.92836 0
M  V30 5238 H 465.875 -4.45306 -5.33599 0
M  V30 5239 H 469.066 -2.7708 -3.77285 0
M  V30 5240 H 469.239 -4.0364 -5.06931 0
M  V30 5241 N 462.645 1.35699 -0.801477 0
M  V30 5242 C 463.575 2.32436 -0.222658 0
M  V30 5243 C 464.556 1.5723 0.649057 0
M  V30 5244 O 465.741 1.85324 0.580387 0
M  V30 5245 C 462.871 3.41469 0.633719 0
M  V30 5246 C 461.825 4.27774 -0.139083 0
M  V30 5247 C 461.151 5.28082 0.838666 0
M  V30 5248 C 462.451 5.04946 -1.33517 0
M  V30 5249 H 464.145 2.81094 -1.03086 0
M  V30 5250 H 461.691 1.35146 -0.497155 0
M  V30 5251 H 463.644 4.08143 1.04868 0
M  V30 5252 H 462.368 2.91408 1.47475 0
M  V30 5253 H 461.027 3.62673 -0.535156 0
M  V30 5254 H 460.675 4.7429 1.67506 0
M  V30 5255 H 460.375 5.86695 0.32594 0
M  V30 5256 H 461.899 5.97628 1.25194 0
M  V30 5257 H 463.313 5.64593 -0.995349 0
M  V30 5258 H 461.71 5.7303 -1.78202 0
M  V30 5259 H 462.78 4.35886 -2.12442 0
M  V30 5260 N 464.123 0.554532 1.47522 0
M  V30 5261 C 465.351 0.034257 2.06872 0
M  V30 5262 C 465.766 -1.25826 1.40759 0
M  V30 5263 O 465.123 -1.75425 0.503217 0
M  V30 5264 C 465.174 -0.167827 3.6111 0
M  V30 5265 O 464.895 1.07351 4.24744 0
M  V30 5266 C 466.396 -0.72569 4.3732 0
M  V30 5267 H 463.616 0.0446275 0.669514 0
M  V30 5268 H 466.16 0.767181 1.89564 0
M  V30 5269 H 464.315 -0.850872 3.7794 0
M  V30 5270 H 464.729 0.869563 5.17242 0
M  V30 5271 H 466.203 -0.816394 5.45929 0
M  V30 5272 H 466.68 -1.73635 4.0342 0
M  V30 5273 H 467.286 -0.0784292 4.25228 0
M  V30 5274 N 465.601 -1.54893 0.290851 0
M  V30 5275 C 466.564 -2.21824 -0.576784 0
M  V30 5276 C 467.564 -1.20104 -1.06919 0
M  V30 5277 O 468.754 -1.44906 -0.966843 0
M  V30 5278 C 465.886 -2.89662 -1.79747 0
M  V30 5279 H 467.079 -2.99899 0.00784051 0
M  V30 5280 H 464.632 -1.56245 0.0415934 0
M  V30 5281 H 465.367 -2.15639 -2.42219 0
M  V30 5282 H 465.152 -3.64219 -1.45214 0
M  V30 5283 H 466.642 -3.4075 -2.4141 0
M  V30 5284 N 467.08 -0.0183926 -1.57589 0
M  V30 5285 C 468.027 0.967022 -2.09565 0
M  V30 5286 C 468.997 1.32983 -0.995225 0
M  V30 5287 O 470.182 1.42501 -1.26878 0
M  V30 5288 C 467.322 2.24772 -2.61861 0
M  V30 5289 C 466.435 1.94232 -3.85873 0
M  V30 5290 C 465.57 3.16518 -4.26603 0
M  V30 5291 C 464.609 2.81748 -5.43401 0
M  V30 5292 N 463.746 3.96626 -5.79338 0
M  V30 5293 H 468.586 0.516874 -2.93483 0
M  V30 5294 H 466.123 0.243544 -1.4507 0
M  V30 5295 H 468.081 2.99667 -2.90268 0
M  V30 5296 H 466.711 2.67423 -1.8079 0
M  V30 5297 H 465.763 1.09625 -3.64262 0
M  V30 5298 H 467.075 1.64616 -4.70853 0
M  V30 5299 H 466.229 3.99743 -4.56389 0
M  V30 5300 H 464.968 3.49286 -3.40368 0
M  V30 5301 H 463.973 1.96933 -5.1332 0
M  V30 5302 H 465.198 2.50207 -6.31327 0
M  V30 5303 H 463.144 4.29257 -4.96059 0
M  V30 5304 H 463.061 3.70598 -6.58933 0
M  V30 5305 H 464.329 4.80586 -6.13724 0
M  V30 5306 N 468.558 1.5553 0.254621 0
M  V30 5307 C 469.468 1.92789 1.33677 0
M  V30 5308 C 470.484 0.827356 1.53071 0
M  V30 5309 O 471.66 1.12807 1.66843 0
M  V30 5310 C 468.725 2.20827 2.67275 0
M  V30 5311 C 467.786 3.4427 2.5647 0
M  V30 5312 C 467.019 3.70961 3.83697 0
M  V30 5313 O 467.242 2.99852 4.85227 0
M  V30 5314 O 466.176 4.64491 3.82794 0
M  V30 5315 H 470.002 2.84945 1.05071 0
M  V30 5316 H 467.587 1.42312 0.454723 0
M  V30 5317 H 469.469 2.40204 3.46237 0
M  V30 5318 H 468.144 1.31851 2.9563 0
M  V30 5319 H 467.051 3.30209 1.75821 0
M  V30 5320 H 468.384 4.33524 2.33062 0
M  V30 5321 N 470.036 -0.519951 1.48776 0
M  V30 5322 C 470.999 -1.60574 1.6355 0
M  V30 5323 C 471.999 -1.52557 0.508234 0
M  V30 5324 O 473.189 -1.56047 0.774262 0
M  V30 5325 C 470.321 -3.00211 1.61512 0
M  V30 5326 H 471.514 -1.4881 2.60376 0
M  V30 5327 H 469.067 -0.742772 1.37523 0
M  V30 5328 H 469.802 -3.17471 0.662009 0
M  V30 5329 H 469.587 -3.07439 2.43359 0
M  V30 5330 H 471.077 -3.79134 1.75064 0
M  V30 5331 N 471.514 -1.37532 -0.769588 0
M  V30 5332 C 472.447 -1.27839 -1.8903 0
M  V30 5333 C 473.425 -0.158504 -1.61826 0
M  V30 5334 O 474.609 -0.333086 -1.85534 0
M  V30 5335 C 471.736 -0.977072 -3.24301 0
M  V30 5336 C 470.782 -2.11414 -3.70414 0
M  V30 5337 S 471.615 -3.73409 -3.83831 0
M  V30 5338 C 472.771 -3.45432 -5.21946 0
M  V30 5339 H 473.004 -2.22694 -1.96963 0
M  V30 5340 H 470.537 -1.2318 -0.930914 0
M  V30 5341 H 472.495 -0.810049 -4.02428 0
M  V30 5342 H 471.156 -0.0459701 -3.14066 0
M  V30 5343 H 470.349 -1.85837 -4.68488 0
M  V30 5344 H 469.951 -2.24141 -2.99394 0
M  V30 5345 H 472.243 -3.00554 -6.07185 0
M  V30 5346 H 473.186 -4.42841 -5.52537 0
M  V30 5347 H 473.594 -2.80311 -4.89986 0
M  V30 5348 N 472.992 0.995999 -1.22138 0
M  V30 5349 C 473.902 2.11985 -1.00496 0
M  V30 5350 C 474.918 1.7394 0.0457701 0
M  V30 5351 O 476.094 2.00868 -0.146273 0
M  V30 5352 C 473.159 3.41779 -0.582086 0
M  V30 5353 C 472.22 3.93943 -1.70608 0
M  V30 5354 C 471.453 5.17542 -1.30328 0
M  V30 5355 O 471.676 5.70114 -0.180743 0
M  V30 5356 O 470.61 5.63382 -2.11861 0
M  V30 5357 H 474.436 2.33123 -1.94647 0
M  V30 5358 H 472.021 1.10358 -1.00705 0
M  V30 5359 H 473.903 4.1989 -0.356467 0
M  V30 5360 H 472.578 3.22007 0.330592 0
M  V30 5361 H 471.485 3.17019 -1.98619 0
M  V30 5362 H 472.818 4.18141 -2.59651 0
M  V30 5363 N 474.47 1.03057 1.19235 0
M  V30 5364 C 475.42 0.583386 2.2041 0
M  V30 5365 C 476.404 -0.368776 1.56617 0
M  V30 5366 O 477.596 -0.189471 1.75983 0
M  V30 5367 C 474.725 -0.0626534 3.43243 0
M  V30 5368 C 473.811 0.91205 4.14177 0
M  V30 5369 N 474.202 2.07514 4.61272 0
M  V30 5370 C 472.5 0.735859 4.39888 0
M  V30 5371 C 473.201 2.69003 5.15764 0
M  V30 5372 N 472.177 1.96954 5.06666 0
M  V30 5373 H 475.979 1.46988 2.54503 0
M  V30 5374 H 473.493 0.897785 1.35328 0
M  V30 5375 H 475.49 -0.400653 4.1497 0
M  V30 5376 H 474.15 -0.944813 3.1065 0
M  V30 5377 H 475.161 2.45448 4.56043 0
M  V30 5378 H 471.838 -0.0970656 4.17387 0
M  V30 5379 H 473.228 3.67514 5.6248 0
M  V30 5380 N 475.948 -1.35272 0.808662 0
M  V30 5381 C 477.359 -1.81179 0.450688 0
M  V30 5382 C 477.71 -1.67143 -1.02751 0
M  V30 5383 O 476.835 -1.20325 -1.79864 0
M  V30 5384 C 477.43 -3.28943 0.811275 0
M  V30 5385 C 475.989 -3.72985 0.505871 0
M  V30 5386 C 475.136 -2.57229 1.03578 0
M  V30 5387 H 478.087 -1.2322 1.00012 0
M  V30 5388 H 478.108 -3.80342 0.109588 0
M  V30 5389 H 477.62 -3.39127 1.88718 0
M  V30 5390 H 475.721 -3.68349 -0.561209 0
M  V30 5391 H 475.834 -4.67677 1.03995 0
M  V30 5392 H 474.198 -2.50548 0.458005 0
M  V30 5393 H 474.981 -2.7019 2.11784 0
M  V30 5394 N 477.426 -0.562348 -1.47226 0
M  V30 5395 C 478.656 -0.0451619 -2.06551 0
M  V30 5396 C 479.064 1.25626 -1.41473 0
M  V30 5397 O 478.407 1.76563 -0.507061 0
M  V30 5398 C 478.469 0.216068 -3.5885 0
M  V30 5399 C 478.133 -0.996691 -4.45999 0
M  V30 5400 C 479.13 -1.90358 -4.83797 0
M  V30 5401 C 476.815 -1.21281 -4.87438 0
M  V30 5402 C 478.809 -3.01023 -5.6184 0
M  V30 5403 C 476.496 -2.32255 -5.65244 0
M  V30 5404 C 477.494 -3.21956 -6.02356 0
M  V30 5405 O 477.182 -4.31005 -6.78594 0
M  V30 5406 H 476.914 -0.0451646 -0.67449 0
M  V30 5407 H 479.468 -0.776842 -1.90143 0
M  V30 5408 H 477.698 1.00212 -3.7349 0
M  V30 5409 H 479.387 0.679264 -4.00176 0
M  V30 5410 H 480.153 -1.74868 -4.52378 0
M  V30 5411 H 476.032 -0.523767 -4.58015 0
M  V30 5412 H 479.576 -3.71064 -5.90726 0
M  V30 5413 H 475.473 -2.47715 -5.96077 0
M  V30 5414 H 476.241 -4.29118 -6.96994 0
M  V30 5415 N 478.904 1.54736 -0.299062 0
M  V30 5416 C 480.151 2.00101 0.310784 0
M  V30 5417 C 480.479 1.18746 1.54045 0
M  V30 5418 O 479.734 0.251198 1.94081 0
M  V30 5419 C 480.033 3.50199 0.713835 0
M  V30 5420 C 479.699 4.48997 -0.413873 0
M  V30 5421 C 478.361 4.7573 -0.723462 0
M  V30 5422 C 480.713 5.07839 -1.17257 0
M  V30 5423 C 478.041 5.5857 -1.79491 0
M  V30 5424 C 480.393 5.91844 -2.23392 0
M  V30 5425 C 479.057 6.16889 -2.54959 0
M  V30 5426 H 478.327 0.732221 0.113724 0
M  V30 5427 H 480.974 1.86888 -0.417756 0
M  V30 5428 H 479.279 3.61012 1.52243 0
M  V30 5429 H 480.976 3.82723 1.19684 0
M  V30 5430 H 477.566 4.28292 -0.162476 0
M  V30 5431 H 481.75 4.87188 -0.946651 0
M  V30 5432 H 477.006 5.76213 -2.04423 0
M  V30 5433 H 481.18 6.36465 -2.8264 0
M  V30 5434 H 478.807 6.80869 -3.38114 0
M  V30 5435 N 480.382 0.0267497 1.57577 0
M  V30 5436 C 481.612 -0.6617 1.95717 0
M  V30 5437 C 482.02 -1.66331 0.901706 0
M  V30 5438 O 481.363 -1.83273 -0.125241 0
M  V30 5439 C 481.425 -1.42649 3.29987 0
M  V30 5440 C 481.089 -0.583482 4.5326 0
M  V30 5441 C 482.086 0.140221 5.19711 0
M  V30 5442 C 479.771 -0.521581 4.99585 0
M  V30 5443 C 481.765 0.914523 6.30805 0
M  V30 5444 C 479.452 0.256428 6.10562 0
M  V30 5445 C 480.45 0.973189 6.76031 0
M  V30 5446 O 480.138 1.73845 7.84878 0
M  V30 5447 H 479.87 -0.187483 0.649481 0
M  V30 5448 H 482.424 0.0820847 2.05236 0
M  V30 5449 H 480.654 -2.21536 3.16952 0
M  V30 5450 H 482.343 -2.00282 3.53047 0
M  V30 5451 H 483.109 0.101716 4.84893 0
M  V30 5452 H 478.988 -1.06904 4.48433 0
M  V30 5453 H 482.532 1.4745 6.81839 0
M  V30 5454 H 478.429 0.296657 6.44818 0
M  V30 5455 H 479.197 1.65797 8.01532 0
M  V30 5456 N 481.861 -1.55662 -0.24637 0
M  V30 5457 C 483.272 -1.67953 -0.81539 0
M  V30 5458 C 483.623 -0.624302 -1.86002 0
M  V30 5459 O 482.748 0.229328 -2.15181 0
M  V30 5460 C 483.343 -3.04484 -1.48576 0
M  V30 5461 C 481.902 -3.18713 -2.00248 0
M  V30 5462 C 481.049 -2.6383 -0.853766 0
M  V30 5463 H 484 -1.58685 -0.0221692 0
M  V30 5464 H 484.021 -2.98959 -2.3538 0
M  V30 5465 H 483.533 -3.81264 -0.725222 0
M  V30 5466 H 481.634 -2.46757 -2.79181 0
M  V30 5467 H 481.747 -4.25628 -2.1995 0
M  V30 5468 H 480.111 -2.21667 -1.25442 0
M  V30 5469 H 480.894 -3.43135 -0.106302 0
M  V30 5470 N 483.339 0.512053 -1.4905 0
M  V30 5471 C 484.585 1.26874 -1.58212 0
M  V30 5472 C 484.918 1.9241 -0.263073 0
M  V30 5473 O 484.193 1.80181 0.732476 0
M  V30 5474 C 484.476 2.34428 -2.73341 0
M  V30 5475 C 484.329 1.73466 -4.15006 0
M  V30 5476 C 485.648 3.36073 -2.84154 0
M  V30 5477 H 482.767 0.459924 -0.575881 0
M  V30 5478 H 485.409 0.568587 -1.81293 0
M  V30 5479 H 483.559 2.94146 -2.53792 0
M  V30 5480 H 485.231 1.17661 -4.46042 0
M  V30 5481 H 483.474 1.03921 -4.21168 0
M  V30 5482 H 484.145 2.51426 -4.91415 0
M  V30 5483 H 486.621 2.86332 -3.01916 0
M  V30 5484 H 485.497 4.08703 -3.66406 0
M  V30 5485 H 485.758 3.97725 -1.93048 0
M  V30 5486 N 484.817 1.37938 0.762283 0
M  V30 5487 C 486.063 1.33866 1.52341 0
M  V30 5488 C 486.396 -0.0738961 1.94059 0
M  V30 5489 O 485.671 -1.03326 1.64785 0
M  V30 5490 C 485.954 2.28644 2.78197 0
M  V30 5491 C 485.807 3.78722 2.42672 0
M  V30 5492 C 487.126 2.21702 3.80179 0
M  V30 5493 H 484.245 0.487593 0.55265 0
M  V30 5494 H 486.887 1.68717 0.873767 0
M  V30 5495 H 485.037 1.99055 3.33631 0
M  V30 5496 H 486.709 4.18948 1.93081 0
M  V30 5497 H 484.952 3.96827 1.75244 0
M  V30 5498 H 485.623 4.40486 3.3268 0
M  V30 5499 H 488.099 2.47805 3.34263 0
M  V30 5500 H 486.975 2.90143 4.65949 0
M  V30 5501 H 487.236 1.21301 4.25133 0
M  V30 5502 N 486.295 -0.989507 1.22664 0
M  V30 5503 C 487.242 -2.08024 0.999733 0
M  V30 5504 C 488.212 -1.65909 -0.0797047 0
M  V30 5505 O 489.397 -1.90669 0.0705715 0
M  V30 5506 C 486.537 -3.40067 0.587234 0
M  V30 5507 C 485.65 -3.95505 1.73781 0
M  V30 5508 C 484.785 -5.15722 1.27297 0
M  V30 5509 C 483.824 -5.63305 2.39488 0
M  V30 5510 N 482.961 -6.74758 1.94026 0
M  V30 5511 H 487.801 -2.26768 1.9334 0
M  V30 5512 H 485.338 -1.11171 0.963297 0
M  V30 5513 H 487.296 -4.15899 0.329227 0
M  V30 5514 H 485.926 -3.21314 -0.309426 0
M  V30 5515 H 484.978 -3.16513 2.11006 0
M  V30 5516 H 486.29 -4.26797 2.58158 0
M  V30 5517 H 485.444 -5.98854 0.972546 0
M  V30 5518 H 484.183 -4.86061 0.399445 0
M  V30 5519 H 483.188 -4.78759 2.70315 0
M  V30 5520 H 484.413 -5.94988 3.27362 0
M  V30 5521 H 482.359 -6.46874 1.09041 0
M  V30 5522 H 482.276 -7.05386 2.71968 0
M  V30 5523 H 483.544 -7.61387 1.67062 0
M  V30 5524 N 487.773 -1.03688 -1.18687 0
M  V30 5525 C 488.683 -0.634908 -2.25845 0
M  V30 5526 C 489.699 0.337065 -1.70704 0
M  V30 5527 O 490.875 0.192943 -2.00474 0
M  V30 5528 C 487.94 -0.000180054 -3.467 0
M  V30 5529 C 487.001 -1.02067 -4.1699 0
M  V30 5530 C 486.234 -0.41614 -5.32075 0
M  V30 5531 O 486.457 0.778712 -5.65059 0
M  V30 5532 O 485.391 -1.14296 -5.90948 0
M  V30 5533 H 489.217 -1.52757 -2.62486 0
M  V30 5534 H 486.802 -0.807533 -1.25695 0
M  V30 5535 H 488.684 0.353342 -4.19916 0
M  V30 5536 H 487.359 0.866367 -3.11891 0
M  V30 5537 H 486.266 -1.42592 -3.45859 0
M  V30 5538 H 487.599 -1.85786 -4.5579 0
M  V30 5539 N 489.251 1.34841 -0.815825 0
M  V30 5540 C 490.183 2.28409 -0.190265 0
M  V30 5541 C 491.196 1.50705 0.615771 0
M  V30 5542 O 492.385 1.72822 0.446616 0
M  V30 5543 C 489.485 3.30441 0.752446 0
M  V30 5544 C 488.658 4.37399 -0.00922152 0
M  V30 5545 C 487.717 5.19234 0.853351 0
M  V30 5546 O 486.743 5.68404 0.300919 0
M  V30 5547 N 487.945 5.38248 2.17416 0
M  V30 5548 H 490.71 2.82732 -0.994114 0
M  V30 5549 H 488.271 1.47289 -0.672129 0
M  V30 5550 H 490.263 3.82084 1.33394 0
M  V30 5551 H 488.833 2.76565 1.45707 0
M  V30 5552 H 488.053 3.86567 -0.771979 0
M  V30 5553 H 489.341 5.05992 -0.533807 0
M  V30 5554 H 488.739 4.99961 2.6468 0
M  V30 5555 H 487.296 5.93035 2.70467 0
M  V30 5556 N 490.729 0.570148 1.46925 0
M  V30 5557 C 491.954 0.0542592 2.07329 0
M  V30 5558 C 492.379 -1.23582 1.41806 0
M  V30 5559 O 491.737 -1.74341 0.497479 0
M  V30 5560 C 491.785 -0.111175 3.60429 0
M  V30 5561 O 490.889 -1.17071 3.95434 0
M  V30 5562 H 490.23 0.0571425 0.661537 0
M  V30 5563 H 492.76 0.789516 1.88753 0
M  V30 5564 H 492.77 -0.321315 4.06733 0
M  V30 5565 H 491.445 0.831012 4.07513 0
M  V30 5566 H 490.022 -0.940029 3.60857 0
M  V30 5567 N 492.207 -1.54576 0.307264 0
M  V30 5568 C 493.139 -2.21212 -0.599807 0
M  V30 5569 C 494.152 -1.20685 -1.09266 0
M  V30 5570 O 495.341 -1.47244 -1.00903 0
M  V30 5571 C 492.441 -2.84994 -1.83389 0
M  V30 5572 C 491.614 -4.11511 -1.48248 0
M  V30 5573 C 490.673 -4.59038 -2.57237 0
M  V30 5574 O 489.699 -5.24095 -2.22065 0
M  V30 5575 N 490.901 -4.31884 -3.87887 0
M  V30 5576 H 493.666 -2.99686 -0.0293075 0
M  V30 5577 H 491.227 -1.61379 0.129738 0
M  V30 5578 H 493.219 -3.1372 -2.5566 0
M  V30 5579 H 491.789 -2.10324 -2.31263 0
M  V30 5580 H 491.009 -3.89728 -0.592122 0
M  V30 5581 H 492.297 -4.93879 -1.22316 0
M  V30 5582 H 491.695 -3.79778 -4.19268 0
M  V30 5583 H 490.252 -4.65304 -4.56438 0
M  V30 5584 N 493.685 -0.035106 -1.57561 0
M  V30 5585 C 495.096 0.502885 -1.798 0
M  V30 5586 C 495.447 1.71892 -0.945921 0
M  V30 5587 O 494.572 2.15822 -0.157991 0
M  V30 5588 C 495.167 0.919097 -3.26095 0
M  V30 5589 C 493.726 1.40216 -3.49308 0
M  V30 5590 C 492.873 0.369709 -2.74824 0
M  V30 5591 H 495.824 -0.261102 -1.56537 0
M  V30 5592 H 495.845 1.78308 -3.36135 0
M  V30 5593 H 495.357 0.0338526 -3.88085 0
M  V30 5594 H 493.458 2.30714 -2.92578 0
M  V30 5595 H 493.571 1.40541 -4.58023 0
M  V30 5596 H 491.935 0.839113 -2.40481 0
M  V30 5597 H 492.718 -0.507173 -3.39533 0
M  V30 5598 N 495.163 1.55791 0.238111 0
M  V30 5599 C 496.403 1.79801 0.972163 0
M  V30 5600 C 496.767 0.606027 1.82185 0
M  V30 5601 O 497.968 0.725079 2.58836 0
M  V30 5602 C 496.239 3.08608 1.80266 0
M  V30 5603 S 497.798 3.53872 2.59461 0
M  V30 5604 H 494.616 0.631418 0.326852 0
M  V30 5605 H 497.218 1.94031 0.239212 0
M  V30 5606 H 495.922 3.93419 1.1683 0
M  V30 5607 H 495.453 2.9714 2.57821 0
M  V30 5608 H 497.468 3.15899 3.82651 0
M  V30 5609 N 496.642 -0.504142 1.49319 0
M  V30 5610 C 497.605 -1.5883 1.65244 0
M  V30 5611 C 498.605 -1.52009 0.524386 0
M  V30 5612 O 499.795 -1.55218 0.79077 0
M  V30 5613 C 496.927 -2.98481 1.64687 0
M  V30 5614 H 498.12 -1.4604 2.61939 0
M  V30 5615 H 495.673 -0.728144 1.38303 0
M  V30 5616 H 496.408 -3.16751 0.695644 0
M  V30 5617 H 496.193 -3.0484 2.46607 0
M  V30 5618 H 497.683 -3.77256 1.79075 0
M  V30 5619 N 498.12 -1.38341 -0.754957 0
M  V30 5620 C 499.397 -1.24995 -1.50451 0
M  V30 5621 C 499.777 0.149244 -2.10572 0
M  V30 5622 O 499.125 1.15861 -1.96948 0
M  V30 5623 C 499.335 -2.35904 -2.57197 0
M  V30 5624 C 500.683 -2.74262 -3.24138 0
M  V30 5625 O 501.707 -2.35205 -2.67501 0
M  V30 5626 O 500.566 -3.4161 -4.26574 0
M  V30 5627 H 497.66 -0.48872 -0.667144 0
M  V30 5628 H 500.206 -1.50165 -0.790486 0
M  V30 5629 H 498.978 -3.2953 -2.11011 0
M  V30 5630 H 498.601 -2.12291 -3.36182 0
M  V30 5631 N 499.598 0.982988 -1.23187 0
M  V30 5632 C 500.546 2.09616 -1.00817 0
M  V30 5633 C 501.54 1.6932 0.0519995 0
M  V30 5634 O 502.746 1.79715 -0.101284 0
M  V30 5635 H 499.121 0.685628 -0.308899 0
M  V30 5636 H 501.092 2.25652 -1.95253 0
M  V30 5637 C 499.841 3.42249 -0.613243 0
M  V30 5638 H 499.164 3.73705 -1.42073 0
M  V30 5639 H 500.604 4.21086 -0.496208 0
M  V30 5640 C 499.063 3.30002 0.678233 0
M  V30 5641 O 499.593 3.6263 1.72807 0
M  V30 5642 N 497.799 2.83164 0.653165 0
M  V30 5643 H 497.346 2.56811 -0.201492 0
M  V30 5644 H 497.304 2.75352 1.51752 0
M  V30 5645 N 501.076 1.04316 1.18135 0
M  V30 5646 C 502.039 0.640794 2.2006 0
M  V30 5647 C 503.039 -0.303124 1.57917 0
M  V30 5648 O 504.229 -0.0881855 1.73977 0
M  V30 5649 C 501.361 -0.060148 3.40847 0
M  V30 5650 H 502.554 1.54281 2.57172 0
M  V30 5651 H 500.107 0.836004 1.32063 0
M  V30 5652 H 500.842 -0.975845 3.0927 0
M  V30 5653 H 500.627 0.618319 3.87194 0
M  V30 5654 H 502.117 -0.328082 4.16309 0
M  V30 5655 N 502.554 -1.34406 0.822964 0
M  V30 5656 C 503.8 -1.98578 0.411666 0
M  V30 5657 C 504.133 -1.65093 -1.02264 0
M  V30 5658 O 503.408 -0.92258 -1.71227 0
M  V30 5659 C 503.691 -3.54823 0.614235 0
M  V30 5660 C 503.544 -3.9805 2.09466 0
M  V30 5661 C 504.863 -4.40071 0.050221 0
M  V30 5662 H 501.982 -0.721355 0.151047 0
M  V30 5663 H 504.624 -1.59301 1.03554 0
M  V30 5664 H 502.774 -3.88411 0.0831774 0
M  V30 5665 H 504.446 -3.74795 2.68936 0
M  V30 5666 H 502.689 -3.4836 2.5851 0
M  V30 5667 H 503.36 -5.06819 2.18721 0
M  V30 5668 H 505.836 -4.13037 0.503953 0
M  V30 5669 H 504.712 -5.48452 0.221759 0
M  V30 5670 H 504.973 -4.29576 -1.04482 0
M  V30 5671 N 504.032 -0.577932 -1.46621 0
M  V30 5672 C 504.962 0.145917 -2.33044 0
M  V30 5673 C 505.943 0.888412 -1.45056 0
M  V30 5674 O 507.128 0.864812 -1.73881 0
M  V30 5675 C 504.258 1.16322 -3.27241 0
M  V30 5676 C 503.212 0.535868 -4.24632 0
M  V30 5677 C 502.538 1.65929 -5.08303 0
M  V30 5678 C 503.838 -0.523861 -5.19666 0
M  V30 5679 H 505.532 -0.575636 -2.93814 0
M  V30 5680 H 503.078 -0.278272 -1.41286 0
M  V30 5681 H 505.031 1.67793 -3.86553 0
M  V30 5682 H 503.755 1.91498 -2.64567 0
M  V30 5683 H 502.414 0.0422759 -3.66576 0
M  V30 5684 H 502.062 2.40061 -4.42018 0
M  V30 5685 H 501.762 1.2452 -5.74255 0
M  V30 5686 H 503.286 2.17686 -5.70478 0
M  V30 5687 H 504.7 -0.0944059 -5.73222 0
M  V30 5688 H 503.097 -0.858 -5.93935 0
M  V30 5689 H 504.167 -1.41197 -4.63887 0
M  V30 5690 N 505.51 1.54411 -0.315457 0
M  V30 5691 C 506.735 2.05299 0.294496 0
M  V30 5692 C 507.16 1.19052 1.4563 0
M  V30 5693 O 506.518 0.197804 1.80218 0
M  V30 5694 C 506.566 3.5345 0.714549 0
M  V30 5695 O 505.67 3.70175 1.81781 0
M  V30 5696 H 505.011 0.661743 0.0547019 0
M  V30 5697 H 507.541 1.99327 -0.461508 0
M  V30 5698 H 507.551 3.9557 0.999426 0
M  V30 5699 H 506.226 4.1568 -0.135244 0
M  V30 5700 H 504.803 3.3996 1.53236 0
M  V30 5701 N 506.988 0.0434614 1.5754 0
M  V30 5702 C 508.213 -0.645358 1.97104 0
M  V30 5703 C 508.638 -1.64037 0.920521 0
M  V30 5704 O 507.996 -1.80922 -0.11708 0
M  V30 5705 C 508.044 -1.31547 3.35749 0
M  V30 5706 O 507.148 -2.43103 3.33129 0
M  V30 5707 H 506.489 -0.168403 0.64229 0
M  V30 5708 H 509.019 0.109573 2.04306 0
M  V30 5709 H 509.029 -1.66895 3.72304 0
M  V30 5710 H 507.704 -0.586205 4.11748 0
M  V30 5711 H 506.281 -2.0976 3.0831 0
M  V30 5712 N 508.466 -1.55915 -0.229846 0
M  V30 5713 C 509.714 -1.7819 -0.953565 0
M  V30 5714 C 510.035 -0.610504 -1.85197 0
M  V30 5715 O 509.305 0.372988 -1.92316 0
M  V30 5716 H 507.885 -0.657208 -0.355087 0
M  V30 5717 H 510.547 -1.9337 -0.243693 0
M  V30 5718 H 509.643 -2.70011 -1.56527 0
M  V30 5719 N 509.944 0.496216 -1.49584 0
M  V30 5720 C 510.874 1.60576 -1.69521 0
M  V30 5721 C 511.855 1.61169 -0.543933 0
M  V30 5722 O 513.04 1.77834 -0.78031 0
M  V30 5723 C 510.17 2.99038 -1.76616 0
M  V30 5724 C 509.124 3.13312 -2.91581 0
M  V30 5725 C 508.45 4.53172 -2.83794 0
M  V30 5726 C 509.75 2.92886 -4.32452 0
M  V30 5727 H 511.444 1.44146 -2.62416 0
M  V30 5728 H 508.99 0.692024 -1.26282 0
M  V30 5729 H 510.943 3.76564 -1.8915 0
M  V30 5730 H 509.667 3.16568 -0.80324 0
M  V30 5731 H 508.326 2.38213 -2.78658 0
M  V30 5732 H 507.974 4.67585 -1.854 0
M  V30 5733 H 507.674 4.63662 -3.60958 0
M  V30 5734 H 509.198 5.32752 -2.98342 0
M  V30 5735 H 510.612 3.60178 -4.46032 0
M  V30 5736 H 509.009 3.14844 -5.10875 0
M  V30 5737 H 510.079 1.88966 -4.46565 0
M  V30 5738 N 511.423 1.38739 0.74761 0
M  V30 5739 C 512.651 1.38521 1.53686 0
M  V30 5740 C 513.066 -0.0235129 1.88785 0
M  V30 5741 O 512.423 -0.991662 1.53207 0
M  V30 5742 C 512.474 2.24641 2.83229 0
M  V30 5743 O 512.195 3.60026 2.49625 0
M  V30 5744 C 513.696 2.32669 3.77333 0
M  V30 5745 H 510.916 0.473589 0.475347 0
M  V30 5746 H 513.46 1.82395 0.924786 0
M  V30 5747 H 511.615 1.84213 3.40799 0
M  V30 5748 H 512.029 4.05435 3.3275 0
M  V30 5749 H 513.503 2.97201 4.65162 0
M  V30 5750 H 513.98 1.3421 4.18192 0
M  V30 5751 H 514.586 2.73512 3.25685 0
M  V30 5752 N 512.901 -0.976442 1.23707 0
M  V30 5753 C 513.864 -2.0511 1.02287 0
M  V30 5754 C 514.864 -1.60791 -0.0167195 0
M  V30 5755 O 516.054 -1.72761 0.223408 0
M  V30 5756 C 513.186 -3.36458 0.548507 0
M  V30 5757 H 514.379 -2.25545 1.9766 0
M  V30 5758 H 511.932 -1.15042 1.05806 0
M  V30 5759 H 512.667 -3.21713 -0.408818 0
M  V30 5760 H 512.452 -3.69967 1.29874 0
M  V30 5761 H 513.942 -4.15489 0.419406 0
M  V30 5762 N 514.379 -1.04941 -1.1758 0
M  V30 5763 C 515.342 -0.652456 -2.19717 0
M  V30 5764 C 516.342 0.294745 -1.58076 0
M  V30 5765 O 517.532 0.0789579 -1.74021 0
M  V30 5766 C 514.664 0.0420712 -3.40874 0
M  V30 5767 H 515.857 -1.55642 -2.5635 0
M  V30 5768 H 513.41 -0.842995 -1.31618 0
M  V30 5769 H 514.145 0.95943 -3.09783 0
M  V30 5770 H 513.93 -0.638844 -3.86861 0
M  V30 5771 H 515.42 0.306 -4.16477 0
M  V30 5772 N 515.857 1.33968 -0.830081 0
M  V30 5773 C 517.273 1.51003 -0.516742 0
M  V30 5774 C 517.473 1.77286 0.957694 0
M  V30 5775 O 516.529 1.82797 1.74188 0
M  V30 5776 C 517.842 2.67036 -1.38247 0
M  V30 5777 C 519.39 2.80919 -1.38034 0
M  V30 5778 C 519.865 4.00004 -2.23071 0
M  V30 5779 N 521.356 4.07224 -2.20733 0
M  V30 5780 C 522.091 4.98541 -2.83275 0
M  V30 5781 N 521.587 5.95033 -3.54835 0
M  V30 5782 N 523.38 4.91469 -2.72791 0
M  V30 5783 H 515.531 1.15168 -1.78466 0
M  V30 5784 H 517.794 0.565443 -0.760906 0
M  V30 5785 H 517.5 2.54266 -2.42985 0
M  V30 5786 H 517.374 3.62226 -1.05225 0
M  V30 5787 H 519.761 2.93127 -0.340713 0
M  V30 5788 H 519.842 1.86517 -1.75057 0
M  V30 5789 H 519.486 3.88557 -3.27087 0
M  V30 5790 H 519.416 4.93634 -1.83394 0
M  V30 5791 H 521.907 3.38162 -1.68687 0
M  V30 5792 H 522.22 6.61357 -3.99784 0
M  V30 5793 H 520.565 5.95135 -3.58942 0
M  V30 5794 H 523.756 4.15048 -2.16456 0
M  V30 5795 H 523.929 5.62439 -3.21818 0
M  V30 5796 O 517.374 0.726383 1.44243 0
M  V30 5797 H 518.065 0.275111 1.91736 0
M  V30 END ATOM
M  V30 BEGIN BOND
M  V30 END BOND
M  V30 END CTAB
M  END
$$$$
